drugbank_target|Q9Y230 RuvB-like 2 (DB04216)
 OpenBabel12092121063D

  0  0  0     0  0            999 V3000
M  V30 BEGIN CTAB
M  V30 COUNTS 7244 7285 0 0 0
M  V30 BEGIN ATOM
M  V30 1 H -0.908 1.98254 -0.117106 0
M  V30 2 N 0 1.576 0 0
M  V30 3 C 0.933 2.03868 1.02534 0
M  V30 4 C 1.911 0.928543 1.3348 0
M  V30 5 O 3.095 1.19667 1.45644 0
M  V30 6 C 0.222 2.43627 2.35294 0
M  V30 7 C -0.732 3.65373 2.2001 0
M  V30 8 S 0.101 5.13292 1.52614 0
M  V30 9 C 1.257 5.56322 2.86805 0
M  V30 10 H 1.49 2.90518 0.631377 0
M  V30 11 H -0.977 1.52953 0.210867 0
M  V30 12 H 0.981 2.67203 3.11629 0
M  V30 13 H -0.358 1.57376 2.7183 0
M  V30 14 H -1.165 3.90944 3.18086 0
M  V30 15 H -1.563 3.418 1.51819 0
M  V30 16 H 0.729 5.58782 3.83104 0
M  V30 17 H 1.672 6.56266 2.65933 0
M  V30 18 H 2.08 4.83886 2.90714 0
M  V30 19 N 1.4781 -0.272755 1.55222 0
M  V30 20 C 2.4411 -1.32041 1.87344 0
M  V30 21 C 3.4411 -1.42342 0.74803 0
M  V30 22 O 4.6311 -1.41488 1.0162 0
M  V30 23 C 1.7631 -2.70173 2.07893 0
M  V30 24 H 2.9561 -1.04789 2.80997 0
M  V30 25 H 0.5091 -0.51083 1.47717 0
M  V30 26 H 1.2441 -3.02605 1.16622 0
M  V30 27 H 1.0291 -2.64082 2.89833 0
M  V30 28 H 2.5191 -3.45869 2.34017 0
M  V30 29 N 2.9562 -1.48159 -0.537278 0
M  V30 30 C 4.1842 -1.59454 -1.31841 0
M  V30 31 C 4.5992 -0.252065 -1.8711 0
M  V30 32 O 3.9562 0.757621 -1.66031 0
M  V30 33 C 4.0072 -2.63546 -2.47439 0
M  V30 34 O 3.7282 -3.92583 -1.94449 0
M  V30 35 C 5.2292 -2.85212 -3.39366 0
M  V30 36 H 2.4492 -0.53785 -0.401196 0
M  V30 37 H 4.9932 -1.93932 -0.648891 0
M  V30 38 H 3.1482 -2.31946 -3.1029 0
M  V30 39 H 3.5622 -4.49629 -2.70063 0
M  V30 40 H 5.0362 -3.61863 -4.16844 0
M  V30 41 H 5.5132 -1.93765 -3.94147 0
M  V30 42 H 6.1192 -3.18086 -2.82314 0
M  V30 43 N 4.4343 0.785586 -1.36625 0
M  V30 44 C 5.6803 1.54591 -1.31261 0
M  V30 45 C 6.0133 1.93906 0.106823 0
M  V30 46 O 5.2883 1.63007 1.06108 0
M  V30 47 C 5.5713 2.82038 -2.23889 0
M  V30 48 C 5.4243 2.49066 -3.74548 0
M  V30 49 C 6.7433 3.83887 -2.15217 0
M  V30 50 H 3.8623 0.560846 -0.478143 0
M  V30 51 H 6.5043 0.902278 -1.67209 0
M  V30 52 H 4.6543 3.36961 -1.93363 0
M  V30 53 H 6.3263 2.00164 -4.15611 0
M  V30 54 H 4.5693 1.81954 -3.93796 0
M  V30 55 H 5.2403 3.40109 -4.34776 0
M  V30 56 H 7.7163 3.38421 -2.42096 0
M  V30 57 H 6.5923 4.70806 -2.82193 0
M  V30 58 H 6.8533 4.27131 -1.14068 0
M  V30 59 N 5.9124 1.20967 1.01018 0
M  V30 60 C 7.1404 1.04956 1.78303 0
M  V30 61 C 7.5554 -0.400915 1.84494 0
M  V30 62 O 6.9124 -1.27826 1.30257 0
M  V30 63 C 6.9634 1.63403 3.22462 0
M  V30 64 O 6.6844 3.02775 3.16637 0
M  V30 65 C 8.1854 1.52432 4.16268 0
M  V30 66 H 5.4054 0.368858 0.560522 0
M  V30 67 H 7.9494 1.60193 1.27116 0
M  V30 68 H 6.1044 1.1227 3.70775 0
M  V30 69 H 6.5184 3.30626 4.07169 0
M  V30 70 H 7.9924 1.98078 5.15237 0
M  V30 71 H 8.4694 0.477875 4.36592 0
M  V30 72 H 9.0754 2.02787 3.73841 0
M  V30 73 N 7.3905 -1.2043 1.01659 0
M  V30 74 C 8.3535 -2.21433 0.591616 0
M  V30 75 C 9.3535 -1.57203 -0.338226 0
M  V30 76 O 10.5435 -1.73737 -0.126918 0
M  V30 77 C 7.6755 -3.40628 -0.136058 0
M  V30 78 H 8.8685 -2.60545 1.48514 0
M  V30 79 H 6.4215 -1.33893 0.806379 0
M  V30 80 H 7.1565 -3.07019 -1.04449 0
M  V30 81 H 6.9415 -3.88475 0.531917 0
M  V30 82 H 8.4315 -4.15475 -0.420735 0
M  V30 83 N 8.8686 -0.792821 -1.36206 0
M  V30 84 C 10.0966 -0.378825 -2.03402 0
M  V30 85 C 10.5116 1.00586 -1.59774 0
M  V30 86 O 9.8686 1.64574 -0.788764 0
M  V30 87 C 9.9196 -0.43683 -3.58851 0
M  V30 88 O 9.6406 -1.76691 -4.00889 0
M  V30 89 C 11.1416 -0.0138943 -4.43298 0
M  V30 90 H 8.3616 -0.155673 -0.652692 0
M  V30 91 H 10.9056 -1.07261 -1.74113 0
M  V30 92 H 9.0606 0.208575 -3.86838 0
M  V30 93 H 9.4746 -1.72011 -4.95492 0
M  V30 94 H 10.9486 -0.105615 -5.51899 0
M  V30 95 H 11.4256 1.03915 -4.2673 0
M  V30 96 H 12.0316 -0.63192 -4.20579 0
M  V30 97 N 10.3467 1.47872 -0.545128 0
M  V30 98 C 11.5747 2.06889 -0.021084 0
M  V30 99 C 11.9897 1.39955 1.2672 0
M  V30 100 O 11.3467 0.492036 1.75742 0
M  V30 101 C 11.3977 3.60996 0.190817 0
M  V30 102 O 11.1187 4.25419 -1.04644 0
M  V30 103 C 12.6197 4.36849 0.753521 0
M  V30 104 H 9.8397 0.669785 -0.0403635 0
M  V30 105 H 12.3837 1.90049 -0.755095 0
M  V30 106 H 10.5387 3.77391 0.87492 0
M  V30 107 H 10.9527 5.17785 -0.836611 0
M  V30 108 H 12.4267 5.45399 0.851139 0
M  V30 109 H 12.9037 4.02306 1.762 0
M  V30 110 H 13.5097 4.25169 0.105503 0
M  V30 111 N 11.8248 0.280983 1.55075 0
M  V30 112 C 12.7718 -0.603937 2.22758 0
M  V30 113 C 13.7418 -1.1452 1.20309 0
M  V30 114 O 14.9268 -1.19343 1.48869 0
M  V30 115 C 12.0668 -1.77947 2.95684 0
M  V30 116 C 11.1798 -1.2715 4.12864 0
M  V30 117 C 10.3148 -2.4093 4.7342 0
M  V30 118 C 9.3538 -1.87165 5.82783 0
M  V30 119 N 8.4908 -2.94441 6.37377 0
M  V30 120 H 13.3308 -0.020124 2.97993 0
M  V30 121 H 10.8678 0.00183425 1.471 0
M  V30 122 H 12.8258 -2.47055 3.36184 0
M  V30 123 H 11.4558 -2.33522 2.22861 0
M  V30 124 H 10.5078 -0.473331 3.77444 0
M  V30 125 H 11.8198 -0.837751 4.91715 0
M  V30 126 H 10.9738 -3.18021 5.1667 0
M  V30 127 H 9.7128 -2.87623 3.93859 0
M  V30 128 H 8.7178 -1.08556 5.38976 0
M  V30 129 H 9.9428 -1.41401 6.64216 0
M  V30 130 H 7.8888 -3.40505 5.60707 0
M  V30 131 H 7.8058 -2.55501 7.11516 0
M  V30 132 H 9.0738 -3.71489 6.85285 0
M  V30 133 N 13.3029 -1.57598 0.00835791 0
M  V30 134 C 14.5489 -1.91211 -0.675732 0
M  V30 135 C 14.8819 -0.883139 -1.72958 0
M  V30 136 O 14.1569 0.097016 -1.94258 0
M  V30 137 C 14.4399 -3.35379 -1.31123 0
M  V30 138 C 14.2929 -4.48999 -0.268356 0
M  V30 139 C 15.6119 -3.7912 -2.23508 0
M  V30 140 H 12.7309 -0.695374 -0.244179 0
M  V30 141 H 15.3729 -1.89901 0.0613655 0
M  V30 142 H 13.5229 -3.36626 -1.93946 0
M  V30 143 H 15.1949 -4.59887 0.360844 0
M  V30 144 H 13.4379 -4.31873 0.408482 0
M  V30 145 H 14.1089 -5.46851 -0.752218 0
M  V30 146 H 16.5849 -3.79477 -1.70693 0
M  V30 147 H 15.4609 -4.80729 -2.64936 0
M  V30 148 H 15.7219 -3.13455 -3.11766 0
M  V30 149 N 14.781 0.264519 -1.55364 0
M  V30 150 C 16.192 0.834936 -1.6699 0
M  V30 151 C 16.543 1.86718 -0.602552 0
M  V30 152 O 15.668 2.14899 0.254425 0
M  V30 153 C 16.263 1.5212 -3.02729 0
M  V30 154 C 14.822 2.03954 -3.16354 0
M  V30 155 C 13.969 0.884498 -2.62815 0
M  V30 156 H 16.92 0.0406869 -1.58648 0
M  V30 157 H 16.941 2.38853 -2.96191 0
M  V30 158 H 16.453 0.769668 -3.80392 0
M  V30 159 H 14.554 2.82041 -2.43482 0
M  V30 160 H 14.667 2.24902 -4.23032 0
M  V30 161 H 13.031 1.2802 -2.20188 0
M  V30 162 H 13.814 0.14634 -3.42988 0
M  V30 163 N 16.2591 1.48442 0.529413 0
M  V30 164 C 17.1691 1.6569 1.66084 0
M  V30 165 C 18.1851 0.539432 1.65427 0
M  V30 166 O 19.3611 0.810572 1.84368 0
M  V30 167 C 16.4261 1.69315 3.02545 0
M  V30 168 C 15.4871 2.92694 3.14052 0
M  V30 169 C 14.7201 2.96137 4.44003 0
M  V30 170 O 14.9431 2.07973 5.31134 0
M  V30 171 O 13.8771 3.88312 4.59888 0
M  V30 172 H 17.7031 2.61483 1.54469 0
M  V30 173 H 15.2881 1.3185 0.702567 0
M  V30 174 H 17.1701 1.74217 3.83701 0
M  V30 175 H 15.8451 0.766966 3.14483 0
M  V30 176 H 14.7521 2.93324 2.32189 0
M  V30 177 H 16.0851 3.84699 3.0703 0
M  V30 178 N 17.7372 -0.778329 1.37039 0
M  V30 179 C 18.9862 -1.53189 1.3121 0
M  V30 180 C 19.2992 -1.95328 -0.103095 0
M  V30 181 O 20.5052 -2.70012 -0.283826 0
M  V30 182 C 18.9612 -2.76591 2.30272 0
M  V30 183 C 18.5692 -2.41577 3.77286 0
M  V30 184 C 20.3132 -3.5455 2.33441 0
M  V30 185 C 18.2202 -3.61441 4.68096 0
M  V30 186 H 17.1502 -0.5751 0.487622 0
M  V30 187 H 19.8012 -0.853101 1.62464 0
M  V30 188 H 18.1832 -3.46326 1.92027 0
M  V30 189 H 19.3572 -1.79668 4.2433 0
M  V30 190 H 17.6722 -1.76806 3.76999 0
M  V30 191 H 20.2692 -4.43628 2.98493 0
M  V30 192 H 20.6122 -3.93936 1.34611 0
M  V30 193 H 21.1452 -2.91805 2.7036 0
M  V30 194 H 17.8842 -3.27142 5.6803 0
M  V30 195 H 17.4042 -4.22478 4.25761 0
M  V30 196 H 19.0832 -4.28335 4.8491 0
M  V30 197 N 19.2153 -1.21501 -1.00376 0
M  V30 198 C 20.6313 -0.972629 -1.26539 0
M  V30 199 C 20.8313 0.340257 -1.98606 0
M  V30 200 O 19.8873 1.06561 -2.28913 0
M  V30 201 C 21.2003 -2.16404 -2.08781 0
M  V30 202 C 22.7483 -2.20643 -2.22004 0
M  V30 203 C 23.2233 -3.39306 -3.07629 0
M  V30 204 N 24.7143 -3.39401 -3.15217 0
M  V30 205 C 25.4493 -4.27867 -3.81729 0
M  V30 206 N 24.9453 -5.26533 -4.5026 0
M  V30 207 N 26.7383 -4.15672 -3.78382 0
M  V30 208 H 18.8893 -2.05929 -0.520281 0
M  V30 209 H 21.1523 -0.901803 -0.292328 0
M  V30 210 H 20.8583 -3.11554 -1.63178 0
M  V30 211 H 20.7323 -2.15567 -3.09533 0
M  V30 212 H 23.1193 -1.26048 -2.66825 0
M  V30 213 H 23.2003 -2.25523 -1.20718 0
M  V30 214 H 22.8443 -4.34195 -2.63509 0
M  V30 215 H 22.7743 -3.31665 -4.09031 0
M  V30 216 H 25.2653 -2.67997 -2.66432 0
M  V30 217 H 25.5783 -5.90337 -4.98721 0
M  V30 218 H 23.9233 -5.30457 -4.49044 0
M  V30 219 H 27.1143 -3.3785 -3.23998 0
M  V30 220 H 27.2873 -4.84825 -4.2994 0
M  V30 221 N 20.6934 1.19889 -1.02296 0
M  V30 222 C 21.9704 1.85148 -0.630832 0
M  V30 223 C 22.3504 1.91385 0.890782 0
M  V30 224 O 21.6984 1.42642 1.78509 0
M  V30 225 C 21.9084 3.24442 -1.28602 0
M  V30 226 C 23.2564 4.00663 -1.4055 0
M  V30 227 O 24.2804 3.33818 -1.24273 0
M  V30 228 O 23.1394 5.20387 -1.66913 0
M  V30 229 H 20.2334 0.797613 -0.218499 0
M  V30 230 H 22.7794 1.27427 -1.12074 0
M  V30 231 H 21.5514 3.14704 -2.32545 0
M  V30 232 H 21.1744 3.89802 -0.7836 0
M  V30 233 N 22.1715 0.800033 1.35784 0
M  V30 234 C 23.4175 0.377901 1.99248 0
M  V30 235 C 23.7505 -1.05052 1.63333 0
M  V30 236 O 23.0255 -1.72768 0.893385 0
M  V30 237 C 23.3085 0.553922 3.55814 0
M  V30 238 C 23.1615 2.0268 4.01548 0
M  V30 239 C 24.4805 -0.0244802 4.40093 0
M  V30 240 H 21.5995 0.138782 0.723815 0
M  V30 241 H 24.2415 1.00835 1.61035 0
M  V30 242 H 22.3915 0.0172398 3.88496 0
M  V30 243 H 24.0635 2.62536 3.79305 0
M  V30 244 H 22.3065 2.5256 3.52698 0
M  V30 245 H 22.9775 2.10087 5.10458 0
M  V30 246 H 25.4535 0.433775 4.13833 0
M  V30 247 H 24.3295 0.128637 5.48749 0
M  V30 248 H 24.5905 -1.11758 4.27741 0
M  V30 249 N 23.6496 -1.47581 0.552962 0
M  V30 250 C 24.8776 -2.06875 0.0320556 0
M  V30 251 C 25.2926 -1.40625 -1.25976 0
M  V30 252 O 24.6496 -0.501349 -1.75479 0
M  V30 253 C 24.7006 -3.61092 -0.17167 0
M  V30 254 O 24.4216 -4.24858 1.06899 0
M  V30 255 C 25.9226 -4.37242 -0.730344 0
M  V30 256 H 23.1426 -0.669561 0.043915 0
M  V30 257 H 25.6866 -1.89646 0.765163 0
M  V30 258 H 23.8416 -3.7785 -0.854894 0
M  V30 259 H 24.2556 -5.17334 0.864059 0
M  V30 260 H 25.7296 -5.45842 -0.822203 0
M  V30 261 H 26.2066 -4.03235 -1.74064 0
M  V30 262 H 26.8126 -4.25219 -0.0829543 0
M  V30 263 N 25.1277 -0.289203 -1.54924 0
M  V30 264 C 26.5437 0.0645403 -1.59469 0
M  V30 265 C 26.7437 1.53419 -1.30632 0
M  V30 266 O 25.7997 2.2852 -1.074 0
M  V30 267 C 27.1127 -0.32278 -2.98963 0
M  V30 268 C 28.6607 -0.270564 -3.11828 0
M  V30 269 C 29.1357 -0.632532 -4.53611 0
M  V30 270 N 30.6267 -0.584617 -4.59496 0
M  V30 271 C 31.3617 -0.837314 -5.67254 0
M  V30 272 N 30.8577 -1.15536 -6.83098 0
M  V30 273 N 32.6507 -0.765166 -5.56868 0
M  V30 274 H 24.8017 -1.24714 -1.71931 0
M  V30 275 H 27.0647 -0.504809 -0.802416 0
M  V30 276 H 26.7707 -1.34541 -3.24948 0
M  V30 277 H 26.6447 0.32944 -3.75759 0
M  V30 278 H 29.0317 0.742805 -2.85598 0
M  V30 279 H 29.1127 -0.957242 -2.37214 0
M  V30 280 H 28.7567 -1.64365 -4.80569 0
M  V30 281 H 28.6867 0.07609 -5.26545 0
M  V30 282 H 31.1777 -0.349248 -3.76283 0
M  V30 283 H 31.4907 -1.33447 -7.61191 0
M  V30 284 H 29.8357 -1.19328 -6.84679 0
M  V30 285 H 33.0267 -0.516432 -4.65243 0
M  V30 286 H 33.1997 -0.965477 -6.40767 0
M  V30 287 N 26.6058 1.57591 -0.0167156 0
M  V30 288 C 27.8548 1.90461 0.663877 0
M  V30 289 C 28.1678 0.893515 1.73999 0
M  V30 290 O 29.3738 1.11302 2.47637 0
M  V30 291 C 27.8298 3.38155 1.23204 0
M  V30 292 C 27.4378 4.47597 0.189866 0
M  V30 293 C 29.1818 3.80111 1.88986 0
M  V30 294 C 27.0888 5.86379 0.768964 0
M  V30 295 H 26.0188 0.710738 0.251729 0
M  V30 296 H 28.6698 1.83326 -0.0799926 0
M  V30 297 H 27.0518 3.40182 2.02712 0
M  V30 298 H 28.2258 4.57112 -0.581846 0
M  V30 299 H 26.5408 4.14766 -0.368475 0
M  V30 300 H 29.1378 4.81145 2.33247 0
M  V30 301 H 29.4808 3.14511 2.72743 0
M  V30 302 H 30.0138 3.80454 1.16187 0
M  V30 303 H 26.7528 6.55493 -0.0301957 0
M  V30 304 H 26.2728 5.80496 1.50945 0
M  V30 305 H 27.9518 6.34563 1.26251 0
M  V30 306 N 28.0839 -0.256276 1.55502 0
M  V30 307 C 28.9939 -1.33882 1.92647 0
M  V30 308 C 30.0099 -1.53159 0.825727 0
M  V30 309 O 31.1859 -1.66963 1.12629 0
M  V30 310 C 28.2509 -2.6751 2.20543 0
M  V30 311 C 27.3119 -2.56836 3.43997 0
M  V30 312 C 26.5449 -3.84092 3.70553 0
M  V30 313 O 26.7679 -4.85545 2.99336 0
M  V30 314 O 25.7019 -3.83288 4.64084 0
M  V30 315 H 29.5279 -1.05374 2.84833 0
M  V30 316 H 27.1129 -0.456237 1.42263 0
M  V30 317 H 28.9949 -3.46492 2.39835 0
M  V30 318 H 27.6699 -2.9577 1.31536 0
M  V30 319 H 26.5769 -1.76172 3.30021 0
M  V30 320 H 27.9099 -2.33523 4.33275 0
M  V30 321 N 29.562 -1.4872 -0.521534 0
M  V30 322 C 30.978 -1.35028 -0.850855 0
M  V30 323 C 31.178 -0.367712 -1.98116 0
M  V30 324 O 30.234 0.208037 -2.51642 0
M  V30 325 C 31.547 -2.75263 -1.21041 0
M  V30 326 C 33.095 -2.83813 -1.31981 0
M  V30 327 C 33.57 -4.24769 -1.71276 0
M  V30 328 N 35.061 -4.27482 -1.78363 0
M  V30 329 C 35.796 -5.33494 -2.1017 0
M  V30 330 N 35.292 -6.49775 -2.40343 0
M  V30 331 N 37.085 -5.20894 -2.11248 0
M  V30 332 H 29.236 -2.11214 0.22413 0
M  V30 333 H 31.499 -0.947252 0.0376439 0
M  V30 334 H 31.205 -3.48765 -0.453415 0
M  V30 335 H 31.079 -3.09327 -2.15863 0
M  V30 336 H 33.466 -2.10561 -2.06756 0
M  V30 337 H 33.547 -2.53358 -0.352596 0
M  V30 338 H 33.191 -4.9854 -0.970588 0
M  V30 339 H 33.121 -4.52673 -2.69062 0
M  V30 340 H 35.612 -3.43611 -1.57288 0
M  V30 341 H 35.925 -7.26402 -2.63743 0
M  V30 342 H 34.27 -6.53035 -2.37844 0
M  V30 343 H 37.461 -4.29065 -1.87139 0
M  V30 344 H 37.634 -6.03612 -2.35704 0
M  V30 345 N 31.0401 0.771051 -1.3745 0
M  V30 346 C 32.2891 1.52491 -1.3202 0
M  V30 347 C 32.6021 1.9538 0.0927347 0
M  V30 348 O 33.8081 2.70159 0.269503 0
M  V30 349 C 32.2641 2.75366 -2.31736 0
M  V30 350 C 31.8721 2.39573 -3.78562 0
M  V30 351 C 33.6161 3.53307 -2.35318 0
M  V30 352 C 31.5231 3.58954 -4.70007 0
M  V30 353 H 30.4531 0.572506 -0.490666 0
M  V30 354 H 33.1041 0.844474 -1.62914 0
M  V30 355 H 31.4861 3.45303 -1.93861 0
M  V30 356 H 32.6601 1.77415 -4.25277 0
M  V30 357 H 30.9751 1.74805 -3.77932 0
M  V30 358 H 33.5721 4.42039 -3.00842 0
M  V30 359 H 33.9151 3.93217 -1.36698 0
M  V30 360 H 34.4481 2.90367 -2.71904 0
M  V30 361 H 31.1871 3.24125 -5.69757 0
M  V30 362 H 30.7071 4.20214 -4.27996 0
M  V30 363 H 32.3861 4.25758 -4.87175 0
M  V30 364 N 32.5182 1.22032 0.997298 0
M  V30 365 C 33.7662 1.04016 1.73278 0
M  V30 366 C 34.0872 -0.426255 1.90284 0
M  V30 367 O 33.3572 -1.30694 1.45931 0
M  V30 368 H 31.9372 0.381897 0.642 0
M  V30 369 H 34.5992 1.5347 1.20137 0
M  V30 370 H 33.6952 1.51441 2.72896 0
M  V30 371 N 33.9963 -1.19345 1.0293 0
M  V30 372 C 34.9593 -2.20793 0.615069 0
M  V30 373 C 35.9593 -1.57553 -0.321533 0
M  V30 374 O 37.1493 -1.73862 -0.108483 0
M  V30 375 C 34.2813 -3.40754 -0.0999222 0
M  V30 376 H 35.4743 -2.58955 1.51269 0
M  V30 377 H 33.0273 -1.3303 0.820534 0
M  V30 378 H 33.7623 -3.0811 -1.01187 0
M  V30 379 H 33.5473 -3.87889 0.57309 0
M  V30 380 H 35.0373 -4.15898 -0.376645 0
M  V30 381 N 35.4744 -0.807222 -1.35358 0
M  V30 382 C 36.4244 -0.190706 -2.27201 0
M  V30 383 C 37.4084 0.635838 -1.47804 0
M  V30 384 O 38.6004 0.492991 -1.69996 0
M  V30 385 C 35.7294 0.659337 -3.36909 0
M  V30 386 C 34.8154 -0.176971 -4.23731 0
M  V30 387 N 35.2064 -1.24029 -4.90357 0
M  V30 388 C 33.5044 0.0412953 -4.45981 0
M  V30 389 C 34.2054 -1.75092 -5.54723 0
M  V30 390 N 33.1814 -1.05727 -5.33219 0
M  V30 391 H 36.9834 -1.0043 -2.76208 0
M  V30 392 H 34.4974 -0.648445 -1.48892 0
M  V30 393 H 36.4944 1.11706 -4.01656 0
M  V30 394 H 35.1544 1.47127 -2.89454 0
M  V30 395 H 36.1654 -1.62295 -4.91814 0
M  V30 396 H 32.8424 0.82232 -4.09322 0
M  V30 397 H 34.2324 -2.63963 -6.17878 0
M  V30 398 N 36.9525 1.47285 -0.560781 0
M  V30 399 C 38.1775 2.07359 -0.0410566 0
M  V30 400 C 38.6025 1.41017 1.24483 0
M  V30 401 O 37.9605 0.486368 1.74654 0
M  V30 402 C 38.0085 3.6035 0.134123 0
M  V30 403 O 37.1125 3.94681 1.19587 0
M  V30 404 H 36.4535 0.661887 -0.0529291 0
M  V30 405 H 38.9835 1.89252 -0.777482 0
M  V30 406 H 38.9935 4.0652 0.347207 0
M  V30 407 H 37.6685 4.08034 -0.805047 0
M  V30 408 H 36.2455 3.60251 0.962987 0
M  V30 409 N 38.4306 0.297415 1.54768 0
M  V30 410 C 39.3806 -0.595275 2.20092 0
M  V30 411 C 40.3646 -1.10163 1.17273 0
M  V30 412 O 41.5566 -1.043 1.43006 0
M  V30 413 C 38.6856 -1.7684 2.94249 0
M  V30 414 C 37.7716 -1.27818 4.0438 0
M  V30 415 N 38.1626 -0.505695 5.03266 0
M  V30 416 C 36.4606 -1.55923 4.17857 0
M  V30 417 C 37.1616 -0.245094 5.81183 0
M  V30 418 N 36.1376 -0.823881 5.3732 0
M  V30 419 H 39.9396 0.00250837 2.939 0
M  V30 420 H 37.4536 0.102007 1.62079 0
M  V30 421 H 39.4506 -2.41944 3.39513 0
M  V30 422 H 38.1106 -2.36992 2.21957 0
M  V30 423 H 39.1216 -0.150928 5.1768 0
M  V30 424 H 35.7986 -2.16849 3.56767 0
M  V30 425 H 37.1886 0.375084 6.70852 0
M  V30 426 N 39.9087 -1.5758 0.0250728 0
M  V30 427 C 41.1577 -1.90811 -0.653767 0
M  V30 428 C 41.4707 -0.90273 -1.73523 0
M  V30 429 O 42.6767 -1.12614 -2.47043 0
M  V30 430 C 41.1327 -3.38804 -1.21409 0
M  V30 431 C 40.7407 -4.47692 -0.166126 0
M  V30 432 C 42.4847 -3.81108 -1.86967 0
M  V30 433 C 40.3917 -5.86779 -0.737856 0
M  V30 434 H 39.3217 -0.712063 -0.247956 0
M  V30 435 H 41.9727 -1.83281 0.0897137 0
M  V30 436 H 40.3547 -3.41252 -2.00905 0
M  V30 437 H 41.5287 -4.56797 0.606079 0
M  V30 438 H 39.8437 -4.14565 0.390466 0
M  V30 439 H 42.4407 -4.82375 -2.30692 0
M  V30 440 H 42.7837 -3.15953 -2.71071 0
M  V30 441 H 43.3167 -3.81065 -1.14167 0
M  V30 442 H 40.0557 -6.55468 0.0649577 0
M  V30 443 H 39.5757 -5.81288 -1.47864 0
M  V30 444 H 41.2547 -6.35223 -1.22884 0
M  V30 445 N 41.3868 0.248026 -1.55636 0
M  V30 446 C 42.8028 0.596483 -1.48035 0
M  V30 447 C 43.0028 1.88386 -0.715039 0
M  V30 448 O 42.0588 2.51319 -0.243944 0
M  V30 449 C 43.3718 0.700258 -2.92433 0
M  V30 450 C 44.9198 0.792659 -3.02797 0
M  V30 451 C 45.3948 0.928005 -4.485 0
M  V30 452 N 46.8858 0.992903 -4.52433 0
M  V30 453 C 47.6208 1.11687 -5.62418 0
M  V30 454 N 47.1168 1.20645 -6.82214 0
M  V30 455 N 48.9098 1.14994 -5.50212 0
M  V30 456 H 41.0608 -0.597109 -2.03834 0
M  V30 457 H 43.3238 -0.205925 -0.925364 0
M  V30 458 H 43.0298 -0.175658 -3.51261 0
M  V30 459 H 42.9038 1.57255 -3.42857 0
M  V30 460 H 45.2908 1.65903 -2.4405 0
M  V30 461 H 45.3718 -0.104762 -2.55585 0
M  V30 462 H 45.0158 0.0661971 -5.07857 0
M  V30 463 H 44.9458 1.84045 -4.93391 0
M  V30 464 H 47.4368 0.935064 -3.66149 0
M  V30 465 H 47.7498 1.30008 -7.61786 0
M  V30 466 H 46.0948 1.17605 -6.84977 0
M  V30 467 H 49.2858 1.07643 -4.55555 0
M  V30 468 H 49.4588 1.24311 -6.35965 0
M  V30 469 N 42.8649 1.48995 0.513639 0
M  V30 470 C 44.1129 1.57531 1.26604 0
M  V30 471 C 44.4339 0.258236 1.93283 0
M  V30 472 O 43.7039 -0.721502 1.8213 0
M  V30 473 H 42.2839 0.580387 0.470276 0
M  V30 474 H 44.9459 1.85552 0.596373 0
M  V30 475 H 44.0419 2.36486 2.03669 0
M  V30 476 N 44.343 -0.763751 1.37857 0
M  V30 477 C 45.273 -1.89103 1.36975 0
M  V30 478 C 46.254 -1.68439 0.237152 0
M  V30 479 O 47.439 -1.8918 0.438713 0
M  V30 480 C 44.569 -3.26496 1.18395 0
M  V30 481 C 43.523 -3.61741 2.28751 0
M  V30 482 C 42.849 -4.97762 1.95286 0
M  V30 483 C 44.149 -3.67665 3.70972 0
M  V30 484 H 45.843 -1.90099 2.31307 0
M  V30 485 H 43.389 -0.91319 1.11341 0
M  V30 486 H 45.342 -4.05003 1.16406 0
M  V30 487 H 44.066 -3.25955 0.205215 0
M  V30 488 H 42.725 -2.85547 2.29909 0
M  V30 489 H 42.373 -4.93769 0.959221 0
M  V30 490 H 42.073 -5.22313 2.69189 0
M  V30 491 H 43.597 -5.7866 1.94898 0
M  V30 492 H 45.011 -4.36307 3.719 0
M  V30 493 H 43.408 -4.03718 4.43995 0
M  V30 494 H 44.478 -2.68134 4.0402 0
M  V30 495 N 45.8211 -1.22559 -0.990812 0
M  V30 496 C 47.0691 -1.04933 -1.72724 0
M  V30 497 C 47.3901 0.416158 -1.90508 0
M  V30 498 O 46.6601 1.29918 -1.46622 0
M  V30 499 H 45.2401 -0.385296 -0.639965 0
M  V30 500 H 47.9021 -1.54105 -1.19322 0
M  V30 501 H 46.9981 -1.52886 -2.72089 0
M  V30 502 N 47.2992 1.18797 -1.03562 0
M  V30 503 C 48.2292 2.24472 -0.643019 0
M  V30 504 C 49.2102 1.66433 0.351283 0
M  V30 505 O 50.3952 1.92803 0.232505 0
M  V30 506 C 47.5252 3.473 4.24935e-05 0
M  V30 507 C 46.4792 4.18055 -0.917257 0
M  V30 508 C 45.8052 5.34519 -0.138941 0
M  V30 509 C 47.1052 4.72109 -2.23407 0
M  V30 510 H 48.7992 2.57566 -1.52643 0
M  V30 511 H 46.3452 1.23806 -0.735394 0
M  V30 512 H 48.2982 4.20426 0.286383 0
M  V30 513 H 47.0222 3.13424 0.918299 0
M  V30 514 H 45.6812 3.46821 -1.1879 0
M  V30 515 H 45.3292 4.96891 0.781562 0
M  V30 516 H 45.0292 5.82794 -0.750005 0
M  V30 517 H 46.5532 6.10438 0.1405 0
M  V30 518 H 47.9672 5.36955 -2.00879 0
M  V30 519 H 46.3642 5.30897 -2.79765 0
M  V30 520 H 47.4342 3.89807 -2.88407 0
M  V30 521 N 48.7773 0.814389 1.34928 0
M  V30 522 C 50.0543 0.321363 1.92942 0
M  V30 523 C 50.4343 -1.19014 1.74353 0
M  V30 524 O 49.7823 -1.99328 1.11716 0
M  V30 525 C 49.9923 0.741323 3.41036 0
M  V30 526 C 51.3403 0.735266 4.18185 0
M  V30 527 O 52.3643 0.68336 3.49584 0
M  V30 528 O 51.2233 0.800703 5.40602 0
M  V30 529 H 48.3173 0.0858893 0.822528 0
M  V30 530 H 50.8633 0.898609 1.43955 0
M  V30 531 H 49.6353 1.78276 3.4833 0
M  V30 532 H 49.2583 0.139307 3.97356 0
M  V30 533 N 50.2554 -1.46986 0.568584 0
M  V30 534 C 51.5324 -1.95592 -0.0174074 0
M  V30 535 C 51.9124 -1.51124 -1.47393 0
M  V30 536 O 51.2604 -0.755329 -2.15655 0
M  V30 537 C 51.4704 -3.48719 0.139913 0
M  V30 538 C 52.8184 -4.246 0.000426376 0
M  V30 539 O 53.8424 -3.56135 0.0680316 0
M  V30 540 O 52.7014 -5.46302 -0.146988 0
M  V30 541 H 49.7954 -0.82498 -0.0577599 0
M  V30 542 H 52.3414 -1.57335 0.635909 0
M  V30 543 H 51.1134 -3.73927 1.15301 0
M  V30 544 H 50.7364 -3.93771 -0.550491 0
M  V30 545 N 51.7335 -0.305618 -1.54608 0
M  V30 546 C 52.6965 0.555591 -2.22364 0
M  V30 547 C 53.6965 1.05768 -1.21119 0
M  V30 548 O 54.8865 0.952972 -1.45822 0
M  V30 549 C 52.0185 1.76974 -2.91364 0
M  V30 550 H 53.2115 -0.0364572 -2.99878 0
M  V30 551 H 50.7645 -0.0565007 -1.56198 0
M  V30 552 H 51.4995 2.40151 -2.17941 0
M  V30 553 H 51.2845 1.41732 -3.65588 0
M  V30 554 H 52.7745 2.38148 -3.43038 0
M  V30 555 N 53.2116 1.57565 -0.0334293 0
M  V30 556 C 54.1416 2.13511 0.945265 0
M  V30 557 C 55.1226 1.05231 1.33643 0
M  V30 558 O 56.3076 1.33084 1.41429 0
M  V30 559 C 53.4376 2.6657 2.22616 0
M  V30 560 C 52.3916 3.79676 1.97561 0
M  V30 561 C 51.7176 4.1918 3.31952 0
M  V30 562 C 53.0176 5.0557 1.31135 0
M  V30 563 H 54.7116 2.95538 0.479325 0
M  V30 564 H 52.2576 1.42166 0.229115 0
M  V30 565 H 54.2106 3.04344 2.91466 0
M  V30 566 H 52.9346 1.8171 2.71384 0
M  V30 567 H 51.5936 3.42347 1.31127 0
M  V30 568 H 51.2416 3.31296 3.78487 0
M  V30 569 H 50.9416 4.95402 3.15992 0
M  V30 570 H 52.4656 4.59541 4.02063 0
M  V30 571 H 53.8796 5.40903 1.89992 0
M  V30 572 H 52.2766 5.86818 1.25559 0
M  V30 573 H 53.3466 4.84062 0.284894 0
M  V30 574 N 54.6897 -0.239769 1.55765 0
M  V30 575 C 55.5997 -1.31831 1.94056 0
M  V30 576 C 56.6157 -1.52275 0.841925 0
M  V30 577 O 57.7917 -1.65759 1.14394 0
M  V30 578 C 54.8567 -2.65156 2.23368 0
M  V30 579 C 53.9177 -2.53173 3.46701 0
M  V30 580 C 53.1507 -3.8014 3.74606 0
M  V30 581 O 53.3737 -4.82343 3.04469 0
M  V30 582 O 52.3077 -3.78344 4.68123 0
M  V30 583 H 56.1337 -1.02347 2.85935 0
M  V30 584 H 53.7187 -0.441123 1.42739 0
M  V30 585 H 55.6007 -3.43929 2.43497 0
M  V30 586 H 54.2757 -2.94358 1.34666 0
M  V30 587 H 53.1827 -1.72662 3.31871 0
M  V30 588 H 54.5157 -2.28915 4.35728 0
M  V30 589 N 56.1678 -1.49265 -0.50573 0
M  V30 590 C 57.5788 -1.51769 -1.08734 0
M  V30 591 C 57.9298 -0.301192 -1.93874 0
M  V30 592 O 57.0548 0.589456 -2.08217 0
M  V30 593 C 57.6498 -2.75017 -1.97867 0
M  V30 594 C 56.2088 -2.80314 -2.51199 0
M  V30 595 C 55.3558 -2.4562 -1.28709 0
M  V30 596 H 58.3068 -1.56031 -0.289855 0
M  V30 597 H 58.3278 -2.5491 -2.82491 0
M  V30 598 H 57.8398 -3.63539 -1.35873 0
M  V30 599 H 55.9408 -1.96061 -3.16845 0
M  V30 600 H 56.0538 -3.82366 -2.88675 0
M  V30 601 H 54.4178 -1.97297 -1.61078 0
M  V30 602 H 55.2008 -3.36411 -0.6843 0
M  V30 603 N 57.6459 0.756429 -1.3826 0
M  V30 604 C 59.0619 1.0591 -1.19395 0
M  V30 605 C 59.2619 2.01459 -0.0406567 0
M  V30 606 O 58.3179 2.44909 0.614467 0
M  V30 607 C 59.6309 1.64191 -2.51916 0
M  V30 608 C 61.1789 1.76376 -2.58574 0
M  V30 609 C 61.6539 2.38069 -3.91264 0
M  V30 610 N 63.1449 2.45503 -3.92788 0
M  V30 611 C 63.8799 2.94126 -4.92217 0
M  V30 612 N 63.3759 3.42805 -6.02043 0
M  V30 613 N 65.1689 2.9314 -4.7961 0
M  V30 614 H 57.3199 0.122313 -2.12048 0
M  V30 615 H 59.5829 0.116892 -0.940766 0
M  V30 616 H 59.2889 1.01451 -3.3675 0
M  V30 617 H 59.1629 2.6329 -2.70108 0
M  V30 618 H 61.5499 2.38244 -1.74137 0
M  V30 619 H 61.6309 0.759894 -2.44252 0
M  V30 620 H 61.2749 1.76835 -4.76121 0
M  V30 621 H 61.2049 3.39091 -4.02895 0
M  V30 622 H 63.6959 2.1107 -3.13461 0
M  V30 623 H 64.0089 3.78354 -6.73846 0
M  V30 624 H 62.3539 3.4087 -6.05667 0
M  V30 625 H 65.5449 2.54419 -3.92923 0
M  V30 626 H 65.7179 3.30721 -5.5725 0
M  V30 627 N 59.124 1.23083 0.984299 0
M  V30 628 C 60.056 0.96636 2.07832 0
M  V30 629 C 61.069 -0.0582135 1.62696 0
M  V30 630 O 62.258 0.176843 1.77622 0
M  V30 631 C 59.358 0.433397 3.36117 0
M  V30 632 C 58.531 1.51722 4.10243 0
M  V30 633 C 57.59 0.989821 5.16807 0
M  V30 634 O 56.616 1.67794 5.43906 0
M  V30 635 N 57.818 -0.184367 5.80207 0
M  V30 636 H 60.583 1.90824 2.31098 0
M  V30 637 H 58.144 1.13888 1.1507 0
M  V30 638 H 60.136 0.065699 4.04647 0
M  V30 639 H 58.706 -0.413806 3.09849 0
M  V30 640 H 57.926 2.05786 3.36223 0
M  V30 641 H 59.214 2.24619 4.56534 0
M  V30 642 H 58.612 -0.760062 5.60571 0
M  V30 643 H 57.169 -0.493366 6.4993 0
M  V30 644 N 60.6021 -1.18246 1.0419 0
M  V30 645 C 61.5651 -2.20128 0.638452 0
M  V30 646 C 62.5651 -1.57885 -0.304805 0
M  V30 647 O 63.7551 -1.73967 -0.0900369 0
M  V30 648 C 60.8871 -3.4084 -0.0637751 0
M  V30 649 H 62.0801 -2.57336 1.54007 0
M  V30 650 H 59.6331 -1.32152 0.834598 0
M  V30 651 H 60.3681 -3.09166 -0.979136 0
M  V30 652 H 60.1531 -3.8726 0.614198 0
M  V30 653 H 61.6431 -4.16274 -0.332512 0
M  V30 654 N 62.0802 -0.821533 -1.34494 0
M  V30 655 C 63.3052 -0.420873 -2.03085 0
M  V30 656 C 63.7302 0.964915 -1.61465 0
M  V30 657 O 63.0882 1.62763 -0.798607 0
M  V30 658 C 63.1362 -0.529414 -3.56693 0
M  V30 659 O 62.2402 0.451302 -4.09923 0
M  V30 660 H 61.5812 -0.173489 -0.640935 0
M  V30 661 H 64.1112 -1.11157 -1.71771 0
M  V30 662 H 64.1212 -0.404671 -4.05988 0
M  V30 663 H 62.7962 -1.54014 -3.86332 0
M  V30 664 H 61.3732 0.285558 -3.71805 0
M  V30 665 N 63.5583 1.46682 -0.576371 0
M  V30 666 C 64.4903 2.28341 0.198231 0
M  V30 667 C 65.5033 1.38141 0.861453 0
M  V30 668 O 66.6923 1.62797 0.732082 0
M  V30 669 C 63.7923 3.12986 1.29972 0
M  V30 670 C 62.9653 4.31271 0.729639 0
M  V30 671 C 62.0243 4.97363 1.71803 0
M  V30 672 O 61.0503 5.55156 1.25658 0
M  V30 673 N 62.2523 4.93796 3.05198 0
M  V30 674 H 65.0173 2.9546 -0.502324 0
M  V30 675 H 62.5783 1.56525 -0.413715 0
M  V30 676 H 64.5703 3.54066 1.96008 0
M  V30 677 H 63.1403 2.47984 1.90323 0
M  V30 678 H 62.3603 3.94052 -0.108012 0
M  V30 679 H 63.6483 5.07739 0.328438 0
M  V30 680 H 63.0463 4.48077 3.45317 0
M  V30 681 H 61.6033 5.38837 3.6674 0
M  V30 682 N 65.0364 0.313813 1.54444 0
M  V30 683 C 66.2844 -0.291099 1.99993 0
M  V30 684 C 66.6054 -1.53418 1.20366 0
M  V30 685 O 65.8754 -1.93544 0.302927 0
M  V30 686 H 64.4554 -0.110552 0.738774 0
M  V30 687 H 67.1174 0.428106 1.9014 0
M  V30 688 H 66.2134 -0.554268 3.07139 0
M  V30 689 N 66.5145 -1.57545 0.0417849 0
M  V30 690 C 67.4475 -2.06514 -0.970928 0
M  V30 691 C 68.4255 -0.963607 -1.30971 0
M  V30 692 O 69.6095 -1.23486 -1.4242 0
M  V30 693 C 66.7365 -2.4978 -2.28752 0
M  V30 694 C 65.7825 -3.71078 -2.10246 0
M  V30 695 S 66.6155 -5.17158 -1.38952 0
M  V30 696 C 67.7715 -5.6373 -2.71954 0
M  V30 697 H 68.0045 -2.9209 -0.554129 0
M  V30 698 H 65.5375 -1.53459 -0.17024 0
M  V30 699 H 67.4955 -2.75371 -3.04435 0
M  V30 700 H 66.1565 -1.64527 -2.67562 0
M  V30 701 H 65.3495 -3.9924 -3.07609 0
M  V30 702 H 64.9515 -3.45705 -1.42704 0
M  V30 703 H 67.2435 -5.68743 -3.68154 0
M  V30 704 H 68.1865 -6.63086 -2.4844 0
M  V30 705 H 68.5945 -4.91424 -2.77782 0
M  V30 706 N 67.9926 0.231505 -1.5589 0
M  V30 707 C 69.2386 0.95877 -1.78705 0
M  V30 708 C 69.5716 1.8438 -0.609725 0
M  V30 709 O 68.8466 1.90521 0.391426 0
M  V30 710 C 69.1296 1.8062 -3.11526 0
M  V30 711 C 68.9826 0.948328 -4.39689 0
M  V30 712 C 70.3016 2.78585 -3.40703 0
M  V30 713 H 67.4206 0.347129 -0.650131 0
M  V30 714 H 70.0626 0.228259 -1.88624 0
M  V30 715 H 68.2126 2.42902 -3.03201 0
M  V30 716 H 69.8846 0.343016 -4.60023 0
M  V30 717 H 68.1276 0.253314 -4.3306 0
M  V30 718 H 68.7986 1.57543 -5.29041 0
M  V30 719 H 71.2746 2.26439 -3.49091 0
M  V30 720 H 70.1506 3.34988 -4.34826 0
M  V30 721 H 70.4116 3.55825 -2.62375 0
M  V30 722 N 69.4707 1.49531 0.497807 0
M  V30 723 C 70.7187 1.58865 1.24926 0
M  V30 724 C 71.0397 0.278721 1.92998 0
M  V30 725 O 70.3097 -0.702144 1.82885 0
M  V30 726 H 68.8897 0.585343 0.464094 0
M  V30 727 H 71.5517 1.86174 0.57666 0
M  V30 728 H 70.6477 2.38633 2.01149 0
M  V30 729 N 70.9488 -0.749086 1.3866 0
M  V30 730 C 71.8808 -1.87273 1.32142 0
M  V30 731 C 72.8938 -1.61127 0.232787 0
M  V30 732 O 74.0828 -1.71623 0.49069 0
M  V30 733 C 71.1828 -3.23005 1.02571 0
M  V30 734 C 70.3558 -3.7662 2.22433 0
M  V30 735 C 69.4148 -4.90879 1.89537 0
M  V30 736 O 68.4408 -5.05276 2.62078 0
M  V30 737 N 69.6428 -5.74198 0.853031 0
M  V30 738 H 72.4078 -1.93373 2.28969 0
M  V30 739 H 69.9688 -0.929216 1.32579 0
M  V30 740 H 71.9608 -3.96992 0.786085 0
M  V30 741 H 70.5308 -3.12262 0.145249 0
M  V30 742 H 69.7508 -2.94147 2.62434 0
M  V30 743 H 71.0388 -4.09173 3.02415 0
M  V30 744 H 70.4368 -5.6514 0.25155 0
M  V30 745 H 68.9938 -6.48313 0.67329 0
M  V30 746 N 72.4269 -1.23603 -0.977757 0
M  V30 747 C 73.3569 -1.04401 -2.0886 0
M  V30 748 C 74.3379 0.0399052 -1.70053 0
M  V30 749 O 75.5229 -0.125246 -1.93796 0
M  V30 750 C 72.6529 -0.637269 -3.41403 0
M  V30 751 C 71.6069 -1.66883 -3.94124 0
M  V30 752 C 70.9329 -1.11745 -5.22893 0
M  V30 753 C 72.2329 -3.06247 -4.23096 0
M  V30 754 H 73.9269 -1.97316 -2.25182 0
M  V30 755 H 71.4729 -0.950096 -1.08209 0
M  V30 756 H 73.4259 -0.48998 -4.18542 0
M  V30 757 H 72.1499 0.327557 -3.24953 0
M  V30 758 H 70.8089 -1.80416 -3.19133 0
M  V30 759 H 70.4569 -0.143527 -5.02795 0
M  V30 760 H 70.1569 -1.80672 -5.59134 0
M  V30 761 H 71.6809 -0.982067 -6.02651 0
M  V30 762 H 73.0949 -2.96001 -4.90975 0
M  V30 763 H 71.4919 -3.72436 -4.70544 0
M  V30 764 H 72.5619 -3.55041 -3.30263 0
M  V30 765 N 73.905 1.17692 -1.04816 0
M  V30 766 C 74.868 2.19787 -0.650117 0
M  V30 767 C 75.868 1.58044 0.296427 0
M  V30 768 O 77.058 1.74012 0.0808097 0
M  V30 769 C 74.19 3.40869 0.0456987 0
M  V30 770 H 75.383 2.56516 -1.5537 0
M  V30 771 H 72.936 1.31708 -0.841594 0
M  V30 772 H 73.671 3.09681 0.962726 0
M  V30 773 H 73.456 3.86928 -0.634727 0
M  V30 774 H 74.946 4.16445 0.310432 0
M  V30 775 N 75.3831 0.828654 1.34056 0
M  V30 776 C 76.3461 0.259927 2.27721 0
M  V30 777 C 77.3461 -0.565478 1.50529 0
M  V30 778 O 78.5361 -0.38075 1.69988 0
M  V30 779 C 75.6681 -0.634944 3.34935 0
M  V30 780 H 76.8611 1.0863 2.79534 0
M  V30 781 H 74.4141 0.600951 1.44285 0
M  V30 782 H 75.1491 -1.48416 2.88346 0
M  V30 783 H 74.9341 -0.0444999 3.92075 0
M  V30 784 H 76.4241 -1.02648 4.04788 0
M  V30 785 N 76.8612 -1.46375 0.584142 0
M  V30 786 C 78.2772 -1.57694 0.245929 0
M  V30 787 C 78.4772 -1.57903 -1.25175 0
M  V30 788 O 77.5332 -1.49676 -2.03355 0
M  V30 789 C 78.8462 -2.87028 0.896402 0
M  V30 790 C 80.3942 -3.00662 0.870127 0
M  V30 791 C 80.8692 -4.32734 1.50017 0
M  V30 792 N 82.3602 -4.39436 1.46458 0
M  V30 793 C 83.0952 -5.40248 1.92144 0
M  V30 794 N 82.5912 -6.47726 2.4581 0
M  V30 795 N 84.3842 -5.31459 1.83052 0
M  V30 796 H 76.5352 -1.44483 1.55687 0
M  V30 797 H 78.7982 -0.689291 0.650831 0
M  V30 798 H 78.5042 -2.9269 1.95002 0
M  V30 799 H 78.3782 -3.75014 0.405486 0
M  V30 800 H 80.7652 -2.94581 -0.174871 0
M  V30 801 H 80.8462 -2.14148 1.39908 0
M  V30 802 H 80.4902 -4.39573 2.54437 0
M  V30 803 H 80.4202 -5.18025 0.946432 0
M  V30 804 H 82.9112 -3.62367 1.07231 0
M  V30 805 H 83.2242 -7.20863 2.78525 0
M  V30 806 H 81.5692 -6.48542 2.49836 0
M  V30 807 H 84.7602 -4.46396 1.40883 0
M  V30 808 H 84.9332 -6.09881 2.18973 0
M  V30 809 N 78.3393 -0.321999 -1.54275 0
M  V30 810 C 79.7553 0.0306999 -1.5957 0
M  V30 811 C 79.9553 1.50614 -1.33857 0
M  V30 812 O 79.0113 2.2619 -1.12223 0
M  V30 813 C 80.3243 -0.386122 -2.98211 0
M  V30 814 C 81.8723 -0.336647 -3.11184 0
M  V30 815 C 82.3473 -0.728607 -4.52167 0
M  V30 816 N 83.8383 -0.681952 -4.58152 0
M  V30 817 C 84.5733 -0.957449 -5.6535 0
M  V30 818 N 84.0693 -1.3 -6.80494 0
M  V30 819 N 85.8623 -0.883113 -5.55119 0
M  V30 820 H 78.0133 -1.28332 -1.69247 0
M  V30 821 H 80.2763 -0.521716 -0.791528 0
M  V30 822 H 79.9823 -1.41404 -3.22022 0
M  V30 823 H 79.8563 0.249662 -3.76373 0
M  V30 824 H 82.2433 0.682058 -2.8711 0
M  V30 825 H 82.3243 -1.00734 -2.3513 0
M  V30 826 H 81.9683 -1.74522 -4.76974 0
M  V30 827 H 81.8983 -0.0356152 -5.26588 0
M  V30 828 H 84.3893 -0.428985 -3.75457 0
M  V30 829 H 84.7023 -1.49563 -7.58189 0
M  V30 830 H 83.0473 -1.33824 -6.81994 0
M  V30 831 H 86.2383 -0.615001 -4.64042 0
M  V30 832 H 86.4113 -1.10118 -6.38575 0
M  V30 833 N 79.8174 1.5752 -0.0501392 0
M  V30 834 C 80.7804 2.1037 0.909786 0
M  V30 835 C 81.7804 1.02308 1.24056 0
M  V30 836 O 82.9704 1.28385 1.17741 0
M  V30 837 C 80.1024 2.58708 2.21998 0
M  V30 838 H 81.2954 2.96479 0.451665 0
M  V30 839 H 78.8484 1.55038 0.198248 0
M  V30 840 H 79.5834 1.75989 2.72394 0
M  V30 841 H 79.3684 3.37675 1.99295 0
M  V30 842 H 80.8584 2.99747 2.9076 0
M  V30 843 N 81.2955 -0.223234 1.56011 0
M  V30 844 C 82.2585 -1.26014 1.9145 0
M  V30 845 C 83.2585 -1.3989 0.792937 0
M  V30 846 O 84.4485 -1.38184 1.0607 0
M  V30 847 C 81.5805 -2.63422 2.16383 0
M  V30 848 H 82.7735 -0.95796 2.84189 0
M  V30 849 H 80.3265 -0.463576 1.49267 0
M  V30 850 H 81.0615 -2.98741 1.2619 0
M  V30 851 H 80.8465 -2.54728 2.98088 0
M  V30 852 H 82.3365 -3.38249 2.44903 0
M  V30 853 N 82.7736 -1.49793 -0.48987 0
M  V30 854 C 84.0216 -1.59525 -1.24081 0
M  V30 855 C 84.3426 -0.288953 -1.92847 0
M  V30 856 O 83.6126 0.692436 -1.83254 0
M  V30 857 H 82.1926 -0.587796 -0.460983 0
M  V30 858 H 84.8546 -1.86477 -0.566778 0
M  V30 859 H 83.9506 -2.39696 -1.99881 0
M  V30 860 N 84.2517 0.741722 -1.39055 0
M  V30 861 C 85.4977 1.50336 -1.36113 0
M  V30 862 C 85.8307 1.94148 0.0450796 0
M  V30 863 O 85.1057 1.66301 1.00868 0
M  V30 864 C 85.3887 2.74773 -2.32749 0
M  V30 865 C 85.2417 2.37023 -3.82283 0
M  V30 866 C 86.5607 3.76846 -2.27322 0
M  V30 867 H 83.6797 0.545351 -0.495743 0
M  V30 868 H 86.3217 0.848624 -1.69995 0
M  V30 869 H 84.4717 3.30639 -2.03986 0
M  V30 870 H 86.1437 1.8684 -4.21768 0
M  V30 871 H 84.3867 1.69334 -3.99385 0
M  V30 872 H 85.0577 3.26104 -4.45376 0
M  V30 873 H 87.5337 3.30548 -2.5274 0
M  V30 874 H 86.4097 4.6159 -2.97028 0
M  V30 875 H 86.6707 4.23286 -1.27599 0
M  V30 876 N 85.7298 1.2412 0.971189 0
M  V30 877 C 86.9758 1.08041 1.71625 0
M  V30 878 C 87.3088 -0.380407 1.90438 0
M  V30 879 O 86.5838 -1.28127 1.46334 0
M  V30 880 C 86.8668 1.81682 3.10908 0
M  V30 881 C 86.7198 3.35493 2.99608 0
M  V30 882 C 88.0388 1.58671 4.10501 0
M  V30 883 H 85.1578 0.39388 0.622919 0
M  V30 884 H 87.7998 1.52743 1.13003 0
M  V30 885 H 85.9498 1.43684 3.60953 0
M  V30 886 H 87.6218 3.83068 2.57015 0
M  V30 887 H 85.8648 3.64052 2.35899 0
M  V30 888 H 86.5358 3.82217 3.98264 0
M  V30 889 H 89.0118 1.91719 3.69301 0
M  V30 890 H 87.8878 2.1266 5.06031 0
M  V30 891 H 88.1488 0.524161 4.38982 0
M  V30 892 N 87.2079 -1.17134 1.05439 0
M  V30 893 C 88.1379 -2.2342 0.678649 0
M  V30 894 C 89.1189 -1.66971 -0.32476 0
M  V30 895 O 90.3039 -1.93149 -0.201802 0
M  V30 896 C 87.4339 -3.47256 0.0552099 0
M  V30 897 C 86.3879 -4.16543 0.98365 0
M  V30 898 C 85.7139 -5.34231 0.223961 0
M  V30 899 C 87.0139 -4.68495 2.3089 0
M  V30 900 H 88.7079 -2.55105 1.56722 0
M  V30 901 H 86.2539 -1.2262 0.754998 0
M  V30 902 H 88.2069 -4.20828 -0.21946 0
M  V30 903 H 86.9309 -3.14846 -0.868319 0
M  V30 904 H 85.5899 -3.44887 1.24293 0
M  V30 905 H 85.2379 -4.98071 -0.702412 0
M  V30 906 H 84.9379 -5.81527 0.842627 0
M  V30 907 H 86.4619 -6.10585 -0.0433671 0
M  V30 908 H 87.8759 -5.33691 2.09396 0
M  V30 909 H 86.2729 -5.26379 2.88176 0
M  V30 910 H 87.3429 -3.85169 2.94572 0
M  V30 911 N 88.686 -0.835752 -1.33615 0
M  V30 912 C 89.596 -0.269088 -2.33052 0
M  V30 913 C 90.612 0.603251 -1.63208 0
M  V30 914 O 91.788 0.508112 -1.94885 0
M  V30 915 C 88.853 0.549091 -3.42324 0
M  V30 916 C 87.914 -0.347156 -4.27894 0
M  V30 917 C 87.147 0.43207 -5.31948 0
M  V30 918 O 87.37 1.66409 -5.45586 0
M  V30 919 O 86.304 -0.192298 -6.01593 0
M  V30 920 H 90.13 -1.09243 -2.83372 0
M  V30 921 H 87.715 -0.598198 -1.36901 0
M  V30 922 H 89.597 1.01414 -4.09015 0
M  V30 923 H 88.272 1.34955 -2.94226 0
M  V30 924 H 87.179 -0.859979 -3.64081 0
M  V30 925 H 88.512 -1.1123 -4.79467 0
M  V30 926 N 90.1641 1.46063 -0.591896 0
M  V30 927 C 91.0971 2.27452 0.184617 0
M  V30 928 C 92.0751 1.36188 0.888351 0
M  V30 929 O 93.2591 1.65606 0.90039 0
M  V30 930 C 90.3861 3.14162 1.26571 0
M  V30 931 C 89.4321 4.21255 0.666814 0
M  V30 932 S 90.2651 5.33034 -0.513345 0
M  V30 933 C 91.4211 6.23311 0.56872 0
M  V30 934 H 91.6541 2.92963 -0.505939 0
M  V30 935 H 89.1871 1.49676 -0.379014 0
M  V30 936 H 91.1451 3.6468 1.88463 0
M  V30 937 H 89.8061 2.47946 1.92826 0
M  V30 938 H 88.9991 4.81788 1.47974 0
M  V30 939 H 88.6011 3.73797 0.123359 0
M  V30 940 H 90.8931 6.61758 1.45198 0
M  V30 941 H 91.8361 7.081 -7.23824e-05 0
M  V30 942 H 92.2441 5.57646 0.876996 0
M  V30 943 N 91.6422 0.330177 1.54103 0
M  V30 944 C 92.8912 -0.271336 1.99867 0
M  V30 945 C 93.2042 -1.52723 1.22209 0
M  V30 946 O 94.4102 -2.20515 1.58383 0
M  V30 947 C 92.8662 -0.534032 3.55916 0
M  V30 948 C 92.4742 0.705193 4.42415 0
M  V30 949 C 94.2182 -1.09514 4.1013 0
M  V30 950 C 92.1252 0.414035 5.89949 0
M  V30 951 H 91.0552 -0.105166 0.74663 0
M  V30 952 H 93.7062 0.443429 1.78062 0
M  V30 953 H 92.0882 -1.30915 3.73734 0
M  V30 954 H 93.2622 1.4804 4.36372 0
M  V30 955 H 91.5772 1.18698 3.99124 0
M  V30 956 H 94.1742 -1.3277 5.17954 0
M  V30 957 H 94.5172 -2.04656 3.62521 0
M  V30 958 H 95.0502 -0.381038 3.95971 0
M  V30 959 H 91.7892 1.33481 6.41766 0
M  V30 960 H 91.3092 -0.323336 5.98928 0
M  V30 961 H 92.9882 0.0263105 6.46995 0
M  V30 962 N 93.1203 -1.57491 0.0584922 0
M  V30 963 C 94.5363 -1.56792 -0.298091 0
M  V30 964 C 94.7363 -1.06679 -1.70944 0
M  V30 965 O 93.7923 -0.726672 -2.41818 0
M  V30 966 C 95.1053 -3.00461 -0.119879 0
M  V30 967 C 96.6533 -3.1242 -0.190428 0
M  V30 968 C 97.1283 -4.57982 -0.0406567 0
M  V30 969 N 98.6193 -4.63099 -0.0966958 0
M  V30 970 C 99.3543 -5.734 -0.00502943 0
M  V30 971 N 98.8503 -6.9266 0.139402 0
M  V30 972 N 100.643 -5.62067 -0.0611391 0
M  V30 973 H 92.7943 -1.88386 0.98105 0
M  V30 974 H 95.0573 -0.867865 0.381463 0
M  V30 975 H 94.7633 -3.41187 0.85349 0
M  V30 976 H 94.6373 -3.66843 -0.877833 0
M  V30 977 H 97.0243 -2.71589 -1.15427 0
M  V30 978 H 97.1053 -2.48702 0.598405 0
M  V30 979 H 96.7493 -4.995 0.919897 0
M  V30 980 H 96.6793 -5.19715 -0.848727 0
M  V30 981 H 99.1703 -3.77331 -0.207277 0
M  V30 982 H 99.4833 -7.72536 0.201855 0
M  V30 983 H 97.8283 -6.94781 0.174586 0
M  V30 984 H 101.019 -4.67782 -0.172583 0
M  V30 985 H 101.192 -6.47999 0.0137562 0
M  V30 986 N 94.5984 0.214957 -1.56127 0
M  V30 987 C 95.5084 1.28727 -1.96129 0
M  V30 988 C 96.5244 1.50916 -0.866044 0
M  V30 989 O 97.7004 1.63918 -1.17016 0
M  V30 990 C 94.7654 2.61569 -2.27558 0
M  V30 991 C 93.8264 2.47625 -3.50685 0
M  V30 992 C 93.0594 3.74132 -3.80606 0
M  V30 993 O 93.2824 4.77438 -3.12104 0
M  V30 994 O 92.2164 3.70849 -4.74083 0
M  V30 995 H 96.0424 0.977855 -2.87527 0
M  V30 996 H 93.6274 0.418358 -1.43423 0
M  V30 997 H 95.5094 3.40012 -2.48938 0
M  V30 998 H 94.1844 2.92178 -1.39332 0
M  V30 999 H 93.0914 1.67361 -3.34576 0
M  V30 1000 H 94.4244 2.21954 -4.39315 0
M  V30 1001 N 96.0765 1.50051 0.48192 0
M  V30 1002 C 97.3245 1.60181 1.23234 0
M  V30 1003 C 97.6455 0.299176 1.92691 0
M  V30 1004 O 96.9155 -0.682708 1.83619 0
M  V30 1005 H 95.4955 0.590232 0.457859 0
M  V30 1006 H 98.1575 1.86775 0.556881 0
M  V30 1007 H 97.2535 2.40753 1.98607 0
M  V30 1008 N 97.5546 -0.734337 1.39446 0
M  V30 1009 C 98.5016 -1.84835 1.38219 0
M  V30 1010 C 99.4716 -1.64331 0.24179 0
M  V30 1011 O 100.657 -1.85728 0.437002 0
M  V30 1012 C 97.7966 -3.22355 1.23212 0
M  V30 1013 C 96.9096 -3.5456 2.46801 0
M  V30 1014 C 96.0446 -4.81485 2.24377 0
M  V30 1015 C 95.0836 -5.06536 3.43639 0
M  V30 1016 N 94.2206 -6.24665 3.20528 0
M  V30 1017 H 99.0606 -1.85219 2.33448 0
M  V30 1018 H 96.5976 -0.905039 1.15963 0
M  V30 1019 H 98.5556 -4.0174 1.12522 0
M  V30 1020 H 97.1856 -3.21248 0.316121 0
M  V30 1021 H 96.2376 -2.69872 2.68092 0
M  V30 1022 H 97.5496 -3.6899 3.3563 0
M  V30 1023 H 96.7036 -5.68852 2.10933 0
M  V30 1024 H 95.4426 -4.6923 1.32944 0
M  V30 1025 H 94.4476 -4.17632 3.5758 0
M  V30 1026 H 95.6726 -5.20676 4.35974 0
M  V30 1027 H 93.6186 -6.13696 2.3176 0
M  V30 1028 H 93.5356 -6.39685 4.02913 0
M  V30 1029 H 94.8036 -7.14868 3.10779 0
M  V30 1030 N 99.0327 -1.24633 -0.964593 0
M  V30 1031 C 100.282 -1.08188 -1.7023 0
M  V30 1032 C 100.595 0.37873 -1.91898 0
M  V30 1033 O 101.801 0.663427 -2.6327 0
M  V30 1034 C 100.257 -1.88773 -3.06419 0
M  V30 1035 C 99.8647 -3.39263 -2.92582 0
M  V30 1036 C 101.609 -1.80867 -3.84041 0
M  V30 1037 C 99.5157 -4.1218 -4.24101 0
M  V30 1038 H 98.4457 -0.401245 -0.638372 0
M  V30 1039 H 101.097 -1.48742 -1.07462 0
M  V30 1040 H 99.4787 -1.41035 -3.70034 0
M  V30 1041 H 100.653 -3.94603 -2.37961 0
M  V30 1042 H 98.9677 -3.48154 -2.28424 0
M  V30 1043 H 101.565 -2.32646 -4.81435 0
M  V30 1044 H 101.908 -0.774543 -4.09031 0
M  V30 1045 H 102.441 -2.26301 -3.27159 0
M  V30 1046 H 99.1797 -5.15965 -4.04303 0
M  V30 1047 H 98.6997 -3.61626 -4.78526 0
M  V30 1048 H 100.379 -4.19349 -4.92702 0
M  V30 1049 N 100.511 1.16574 -1.06058 0
M  V30 1050 C 101.474 2.19085 -0.673392 0
M  V30 1051 C 102.474 1.5835 0.279648 0
M  V30 1052 O 103.664 1.74088 0.0623488 0
M  V30 1053 C 100.796 3.40899 0.00954234 0
M  V30 1054 H 101.989 2.54853 -1.58081 0
M  V30 1055 H 99.5418 1.30808 -0.855516 0
M  V30 1056 H 100.277 3.10684 0.929826 0
M  V30 1057 H 100.062 3.86233 -0.67573 0
M  V30 1058 H 101.552 4.1675 0.266245 0
M  V30 1059 N 101.989 0.842826 1.3317 0
M  V30 1060 C 103.237 0.439577 1.97262 0
M  V30 1061 C 103.558 -1.00548 1.67078 0
M  V30 1062 O 102.828 -1.70098 0.971779 0
M  V30 1063 H 101.408 0.159558 0.72976 0
M  V30 1064 H 104.07 1.07665 1.62463 0
M  V30 1065 H 103.166 0.574886 3.0676 0
M  V30 1066 N 103.467 -1.45747 0.599634 0
M  V30 1067 C 104.883 -1.57424 0.26264 0
M  V30 1068 C 105.083 -1.59222 -1.23493 0
M  V30 1069 O 104.139 -1.51825 -2.01756 0
M  V30 1070 C 105.452 -2.86061 0.926795 0
M  V30 1071 C 107 -2.99722 0.901967 0
M  V30 1072 C 107.475 -4.31119 1.54598 0
M  V30 1073 N 108.966 -4.37858 1.5111 0
M  V30 1074 C 109.701 -5.3818 1.97863 0
M  V30 1075 N 109.197 -6.45083 2.52666 0
M  V30 1076 N 110.99 -5.29487 1.88679 0
M  V30 1077 H 103.141 -1.42823 1.57211 0
M  V30 1078 H 105.404 -0.68235 0.658105 0
M  V30 1079 H 105.11 -2.90605 1.98095 0
M  V30 1080 H 104.984 -3.74563 0.445238 0
M  V30 1081 H 107.371 -2.9475 -0.143617 0
M  V30 1082 H 107.452 -2.12652 1.42171 0
M  V30 1083 H 107.096 -4.36849 2.59085 0
M  V30 1084 H 107.026 -5.16992 1.00132 0
M  V30 1085 H 109.517 -3.61209 1.11068 0
M  V30 1086 H 109.83 -7.17869 2.86155 0
M  V30 1087 H 108.175 -6.45856 2.56701 0
M  V30 1088 H 111.366 -4.44877 1.4561 0
M  V30 1089 H 111.539 -6.07524 2.25429 0
M  V30 1090 N 104.945 -0.338344 -1.53925 0
M  V30 1091 C 105.908 0.508299 -2.23493 0
M  V30 1092 C 106.908 1.03175 -1.23335 0
M  V30 1093 O 108.098 0.921826 -1.47811 0
M  V30 1094 C 105.23 1.70754 -2.95052 0
M  V30 1095 H 106.423 -0.100058 -2.99733 0
M  V30 1096 H 103.976 -0.0896198 -1.56043 0
M  V30 1097 H 104.711 2.35474 -2.22986 0
M  V30 1098 H 104.496 1.33946 -3.68512 0
M  V30 1099 H 105.986 2.30818 -3.48013 0
M  V30 1100 N 106.423 1.57458 -0.0668435 0
M  V30 1101 C 107.669 1.93587 0.6043 0
M  V30 1102 C 108.002 0.946722 1.69561 0
M  V30 1103 O 107.277 -0.0248516 1.94484 0
M  V30 1104 C 107.56 3.40014 1.18585 0
M  V30 1105 C 107.413 4.49685 0.101529 0
M  V30 1106 C 108.732 3.87154 2.09284 0
M  V30 1107 H 105.851 0.703958 0.218202 0
M  V30 1108 H 108.493 1.89542 -0.131804 0
M  V30 1109 H 106.643 3.43592 1.81319 0
M  V30 1110 H 108.315 4.5823 -0.531279 0
M  V30 1111 H 106.558 4.30059 -0.568487 0
M  V30 1112 H 107.229 5.49266 0.54874 0
M  V30 1113 H 109.705 3.85551 1.56491 0
M  V30 1114 H 108.581 4.90231 2.46911 0
M  V30 1115 H 108.842 3.2481 2.99918 0
M  V30 1116 N 107.901 -0.206675 1.56239 0
M  V30 1117 C 108.831 -1.25909 1.96645 0
M  V30 1118 C 109.812 -1.48097 0.836734 0
M  V30 1119 O 110.997 -1.6003 1.10019 0
M  V30 1120 C 108.127 -2.6058 2.29599 0
M  V30 1121 C 107.081 -2.53024 3.452 0
M  V30 1122 C 106.407 -3.91861 3.63798 0
M  V30 1123 C 107.707 -2.06524 4.79734 0
M  V30 1124 H 109.401 -0.923369 2.84806 0
M  V30 1125 H 106.947 -0.442735 1.37025 0
M  V30 1126 H 108.9 -3.34375 2.56459 0
M  V30 1127 H 107.624 -2.95869 1.38307 0
M  V30 1128 H 106.283 -1.81684 3.18412 0
M  V30 1129 H 105.931 -4.24483 2.69857 0
M  V30 1130 H 105.631 -3.87683 4.4156 0
M  V30 1131 H 107.155 -4.67296 3.93022 0
M  V30 1132 H 108.569 -2.70072 5.05702 0
M  V30 1133 H 106.966 -2.13374 5.60885 0
M  V30 1134 H 108.036 -1.01802 4.74093 0
M  V30 1135 N 109.379 -1.50304 -0.473955 0
M  V30 1136 C 110.628 -1.60392 -1.22301 0
M  V30 1137 C 110.941 -0.308411 -1.93153 0
M  V30 1138 O 112.147 -0.288156 -2.69966 0
M  V30 1139 C 110.603 -2.83109 -2.2221 0
M  V30 1140 C 110.211 -4.19524 -1.57173 0
M  V30 1141 C 111.955 -3.0254 -2.97775 0
M  V30 1142 C 109.862 -5.33431 -2.55353 0
M  V30 1143 H 108.792 -0.597286 -0.460179 0
M  V30 1144 H 111.443 -1.76731 -0.493803 0
M  V30 1145 H 109.825 -2.60322 -2.9841 0
M  V30 1146 H 110.999 -4.52554 -0.867824 0
M  V30 1147 H 109.314 -4.05674 -0.939002 0
M  V30 1148 H 111.911 -3.84811 -3.71248 0
M  V30 1149 H 112.254 -2.14154 -3.56992 0
M  V30 1150 H 112.787 -3.25494 -2.28688 0
M  V30 1151 H 109.526 -6.23962 -2.00878 0
M  V30 1152 H 109.046 -5.04823 -3.23904 0
M  V30 1153 H 110.725 -5.63887 -3.17239 0
M  V30 1154 N 110.857 0.726932 -1.39834 0
M  V30 1155 C 111.82 1.82269 -1.38962 0
M  V30 1156 C 112.82 1.58248 -0.285334 0
M  V30 1157 O 114.01 1.65499 -0.54366 0
M  V30 1158 C 111.142 3.20186 -1.17019 0
M  V30 1159 H 112.335 1.84443 -2.36476 0
M  V30 1160 H 109.888 0.931416 -1.25516 0
M  V30 1161 H 110.623 3.23669 -0.202204 0
M  V30 1162 H 110.408 3.3902 -1.96998 0
M  V30 1163 H 111.898 4.00235 -1.1917 0
M  V30 1164 N 112.336 1.25143 0.95797 0
M  V30 1165 C 113.584 1.09476 1.69881 0
M  V30 1166 C 113.905 -0.365502 1.91544 0
M  V30 1167 O 113.175 -1.25985 1.50015 0
M  V30 1168 H 111.755 0.402128 0.629525 0
M  V30 1169 H 114.417 1.57214 1.15194 0
M  V30 1170 H 113.513 1.60046 2.6794 0
M  V30 1171 N 113.814 -1.1601 1.06675 0
M  V30 1172 C 114.746 -2.20115 0.638921 0
M  V30 1173 C 115.759 -1.59916 -0.305057 0
M  V30 1174 O 116.948 -1.78245 -0.0954446 0
M  V30 1175 C 114.048 -3.38798 -0.0830083 0
M  V30 1176 C 113.221 -4.2855 0.875426 0
M  V30 1177 C 112.28 -5.25849 0.192042 0
M  V30 1178 O 111.306 -5.63102 0.830921 0
M  V30 1179 N 112.508 -5.70648 -1.06493 0
M  V30 1180 H 115.273 -2.57439 1.53444 0
M  V30 1181 H 112.834 -1.31057 0.950557 0
M  V30 1182 H 114.826 -4.00936 -0.550685 0
M  V30 1183 H 113.396 -2.99947 -0.880386 0
M  V30 1184 H 112.616 -3.63617 1.52238 0
M  V30 1185 H 113.904 -4.85393 1.52548 0
M  V30 1186 H 113.302 -5.42482 -1.60405 0
M  V30 1187 H 111.859 -6.34859 -1.47641 0
M  V30 1188 N 115.292 -0.849877 -1.32721 0
M  V30 1189 C 116.703 -0.506188 -1.79707 0
M  V30 1190 C 117.054 0.975627 -1.70223 0
M  V30 1191 O 116.179 1.76078 -1.25799 0
M  V30 1192 C 116.774 -0.912044 -3.26293 0
M  V30 1193 C 115.333 -0.620326 -3.71253 0
M  V30 1194 C 114.48 -1.11439 -2.53922 0
M  V30 1195 H 117.431 -1.03754 -1.20087 0
M  V30 1196 H 117.452 -0.226493 -3.79825 0
M  V30 1197 H 116.964 -1.99057 -3.33164 0
M  V30 1198 H 115.065 0.447674 -3.69901 0
M  V30 1199 H 115.178 -1.18327 -4.64258 0
M  V30 1200 H 113.542 -0.534834 -2.49021 0
M  V30 1201 H 114.325 -2.19992 -2.6355 0
M  V30 1202 N 116.77 1.45427 -0.607355 0
M  V30 1203 C 118.018 2.01841 -0.102253 0
M  V30 1204 C 118.339 1.47832 1.27164 0
M  V30 1205 O 117.609 0.672497 1.83995 0
M  V30 1206 H 116.189 0.746188 -0.0348101 0
M  V30 1207 H 118.851 1.78229 -0.7887 0
M  V30 1208 H 117.947 3.12057 -0.0518585 0
M  V30 1209 N 118.248 0.346503 1.53744 0
M  V30 1210 C 119.476 -0.25041 2.05379 0
M  V30 1211 C 119.891 -1.43979 1.22129 0
M  V30 1212 O 119.248 -1.80677 0.257321 0
M  V30 1213 C 119.299 -0.662575 3.55376 0
M  V30 1214 O 119.02 0.479515 4.35468 0
M  V30 1215 C 120.521 -1.31989 4.23195 0
M  V30 1216 H 117.741 -0.0478198 0.669294 0
M  V30 1217 H 120.285 0.499346 1.9831 0
M  V30 1218 H 118.44 -1.36227 3.62658 0
M  V30 1219 H 118.854 0.15037 5.24284 0
M  V30 1220 H 120.328 -1.55902 5.29527 0
M  V30 1221 H 120.805 -2.27436 3.75725 0
M  V30 1222 H 121.411 -0.662154 4.20114 0
M  V30 1223 N 119.726 -1.57421 0.075193 0
M  V30 1224 C 120.974 -1.93236 -0.591974 0
M  V30 1225 C 121.295 -0.956241 -1.69944 0
M  V30 1226 O 120.565 -0.00494792 -1.95899 0
M  V30 1227 H 119.145 -0.713355 -0.22166 0
M  V30 1228 H 121.807 -1.9444 0.133848 0
M  V30 1229 H 120.903 -2.95131 -1.01509 0
M  V30 1230 N 121.204 0.198386 -1.56346 0
M  V30 1231 C 122.151 1.24589 -1.94284 0
M  V30 1232 C 123.121 1.454 -0.802997 0
M  V30 1233 O 124.306 1.58588 -1.06087 0
M  V30 1234 C 121.446 2.58631 -2.28482 0
M  V30 1235 C 120.559 2.45426 -3.55514 0
M  V30 1236 C 119.694 3.7215 -3.79049 0
M  V30 1237 C 118.733 3.53763 -4.99518 0
M  V30 1238 N 117.87 4.72491 -5.19323 0
M  V30 1239 H 122.71 0.915356 -2.83593 0
M  V30 1240 H 120.247 0.440629 -1.40346 0
M  V30 1241 H 122.205 3.3672 -2.46324 0
M  V30 1242 H 120.835 2.89734 -1.42317 0
M  V30 1243 H 119.887 1.58652 -3.45737 0
M  V30 1244 H 121.199 2.27772 -4.43758 0
M  V30 1245 H 120.353 4.58679 -3.97113 0
M  V30 1246 H 119.092 3.92754 -2.89129 0
M  V30 1247 H 118.097 2.65619 -4.8138 0
M  V30 1248 H 119.322 3.34607 -5.90944 0
M  V30 1249 H 117.268 4.93365 -4.3235 0
M  V30 1250 H 117.185 4.5765 -6.01741 0
M  V30 1251 H 118.453 5.6038 -5.41843 0
M  V30 1252 N 122.682 1.50554 0.465978 0
M  V30 1253 C 123.91 1.65563 1.24083 0
M  V30 1254 C 124.325 0.341051 1.85694 0
M  V30 1255 O 123.682 -0.677543 1.69457 0
M  V30 1256 C 123.733 2.75051 2.34583 0
M  V30 1257 O 123.454 4.01413 1.75497 0
M  V30 1258 C 124.955 3.01078 3.25372 0
M  V30 1259 H 122.175 0.55638 0.375077 0
M  V30 1260 H 124.719 1.96807 0.555624 0
M  V30 1261 H 122.874 2.46486 2.9887 0
M  V30 1262 H 123.288 4.62002 2.48303 0
M  V30 1263 H 124.762 3.81339 3.99105 0
M  V30 1264 H 125.239 2.12349 3.84453 0
M  V30 1265 H 125.845 3.31194 2.66816 0
M  V30 1266 N 124.16 -0.719506 1.40217 0
M  V30 1267 C 125.123 -1.8153 1.39927 0
M  V30 1268 C 126.123 -1.58095 0.293723 0
M  V30 1269 O 127.313 -1.65209 0.552429 0
M  V30 1270 C 124.445 -3.19561 1.18716 0
M  V30 1271 H 125.638 -1.83186 2.37451 0
M  V30 1272 H 123.191 -0.924746 1.26008 0
M  V30 1273 H 123.926 -3.23557 0.219366 0
M  V30 1274 H 123.711 -3.3797 1.98793 0
M  V30 1275 H 125.201 -3.99598 1.21291 0
M  V30 1276 N 125.638 -1.25649 -0.95132 0
M  V30 1277 C 126.887 -1.09988 -1.69073 0
M  V30 1278 C 127.2 0.358355 -1.92289 0
M  V30 1279 O 128.406 0.635466 -2.63958 0
M  V30 1280 C 126.862 -1.92012 -3.044 0
M  V30 1281 C 126.47 -3.42347 -2.88968 0
M  V30 1282 C 128.214 -1.8493 -3.82101 0
M  V30 1283 C 126.121 -4.16655 -4.19705 0
M  V30 1284 H 125.051 -0.407993 -0.63408 0
M  V30 1285 H 127.702 -1.49873 -1.05879 0
M  V30 1286 H 126.084 -1.44952 -3.68517 0
M  V30 1287 H 127.258 -3.97104 -2.33762 0
M  V30 1288 H 125.573 -3.50557 -2.24719 0
M  V30 1289 H 128.17 -2.37739 -4.78941 0
M  V30 1290 H 128.513 -0.817883 -4.08187 0
M  V30 1291 H 129.046 -2.29758 -3.2474 0
M  V30 1292 H 125.785 -5.20224 -3.98807 0
M  V30 1293 H 125.305 -3.66681 -4.74663 0
M  V30 1294 H 126.984 -4.24551 -4.88227 0
M  V30 1295 N 127.117 1.15442 -1.07289 0
M  V30 1296 C 128.08 2.18358 -0.696591 0
M  V30 1297 C 129.08 1.58637 0.262837 0
M  V30 1298 O 130.27 1.74145 0.0438809 0
M  V30 1299 C 127.402 3.4089 -0.0266151 0
M  V30 1300 H 128.595 2.53162 -1.60776 0
M  V30 1301 H 126.148 1.29893 -0.869342 0
M  V30 1302 H 126.883 3.11653 0.896822 0
M  V30 1303 H 126.668 3.85495 -0.716657 0
M  V30 1304 H 128.158 4.17009 0.222028 0
M  V30 1305 N 128.595 0.856903 1.32268 0
M  V30 1306 C 129.528 0.247937 2.26849 0
M  V30 1307 C 130.506 -0.615382 1.50505 0
M  V30 1308 O 131.69 -0.571689 1.79622 0
M  V30 1309 C 128.817 -0.650093 3.32403 0
M  V30 1310 C 127.863 0.140138 4.2627 0
M  V30 1311 S 128.696 1.51004 5.13769 0
M  V30 1312 C 129.852 0.61778 6.22844 0
M  V30 1313 H 130.085 1.04971 2.78152 0
M  V30 1314 H 127.618 0.654665 1.39834 0
M  V30 1315 H 129.576 -1.16256 3.93694 0
M  V30 1316 H 128.237 -1.4257 2.7988 0
M  V30 1317 H 127.43 -0.543945 5.01056 0
M  V30 1318 H 127.032 0.584267 3.69408 0
M  V30 1319 H 129.324 -0.177053 6.77269 0
M  V30 1320 H 130.267 1.33636 6.95375 0
M  V30 1321 H 130.675 0.191124 5.64176 0
M  V30 1322 N 130.073 -1.45103 0.615059 0
M  V30 1323 C 131.321 -2.01784 0.112955 0
M  V30 1324 C 131.642 -1.48504 -1.26378 0
M  V30 1325 O 130.912 -0.682245 -1.83636 0
M  V30 1326 H 129.492 -0.745993 0.0387668 0
M  V30 1327 H 132.154 -1.77808 0.798141 0
M  V30 1328 H 131.25 -3.12025 0.0684069 0
M  V30 1329 N 131.551 -0.354651 -1.53558 0
M  V30 1330 C 132.484 0.540273 -2.21712 0
M  V30 1331 C 133.462 1.09161 -1.2051 0
M  V30 1332 O 134.646 1.14979 -1.49372 0
M  V30 1333 C 131.773 1.74435 -2.90328 0
M  V30 1334 C 130.819 1.32146 -4.05512 0
M  V30 1335 S 131.652 0.331924 -5.3447 0
M  V30 1336 C 132.808 1.54258 -6.06593 0
M  V30 1337 H 133.041 -0.0385776 -2.97275 0
M  V30 1338 H 130.574 -0.138736 -1.53775 0
M  V30 1339 H 132.532 2.43507 -3.30476 0
M  V30 1340 H 131.193 2.29444 -2.1451 0
M  V30 1341 H 130.386 2.21952 -4.52497 0
M  V30 1342 H 129.988 0.710091 -3.67197 0
M  V30 1343 H 132.28 2.47534 -6.30661 0
M  V30 1344 H 133.223 1.11431 -6.99277 0
M  V30 1345 H 133.631 1.74367 -5.36895 0
M  V30 1346 N 133.029 1.57378 -0.0835403 0
M  V30 1347 C 133.992 2.12252 0.864959 0
M  V30 1348 C 134.992 1.04916 1.21858 0
M  V30 1349 O 136.182 1.30853 1.14991 0
M  V30 1350 C 133.314 2.63358 2.16461 0
M  V30 1351 H 134.507 2.97371 0.388676 0
M  V30 1352 H 132.06 1.55423 0.165317 0
M  V30 1353 H 132.795 1.81727 2.686 0
M  V30 1354 H 132.58 3.41826 1.92087 0
M  V30 1355 H 134.07 3.05847 2.84337 0
M  V30 1356 N 134.507 -0.190092 1.56449 0
M  V30 1357 C 135.439 -1.25973 1.91477 0
M  V30 1358 C 136.452 -1.41452 0.805931 0
M  V30 1359 O 137.641 -1.41789 1.08435 0
M  V30 1360 C 134.741 -2.63117 2.13594 0
M  V30 1361 C 133.914 -2.69182 3.4476 0
M  V30 1362 C 132.973 -3.87557 3.5593 0
M  V30 1363 O 131.999 -3.74427 4.28711 0
M  V30 1364 N 133.201 -5.03224 2.89388 0
M  V30 1365 H 135.966 -0.962394 2.83828 0
M  V30 1366 H 133.527 -0.379981 1.57378 0
M  V30 1367 H 135.519 -3.40742 2.1835 0
M  V30 1368 H 134.089 -2.85319 1.27719 0
M  V30 1369 H 133.309 -1.77793 3.51828 0
M  V30 1370 H 134.597 -2.70229 4.31107 0
M  V30 1371 H 133.995 -5.16791 2.30094 0
M  V30 1372 H 132.552 -5.78778 2.99764 0
M  V30 1373 N 135.985 -1.50799 -0.457987 0
M  V30 1374 C 136.948 -1.7005 -1.53674 0
M  V30 1375 C 137.948 -0.570881 -1.50325 0
M  V30 1376 O 139.138 -0.838126 -1.52712 0
M  V30 1377 C 136.27 -1.73788 -2.93276 0
M  V30 1378 H 137.463 -2.66306 -1.37917 0
M  V30 1379 H 135.016 -1.40477 -0.685271 0
M  V30 1380 H 135.751 -0.792717 -3.14462 0
M  V30 1381 H 135.536 -2.55864 -2.97113 0
M  V30 1382 H 137.026 -1.90591 -3.71571 0
M  V30 1383 N 137.463 0.71206 -1.40597 0
M  V30 1384 C 138.393 1.83889 -1.43899 0
M  V30 1385 C 139.374 1.67442 -0.299504 0
M  V30 1386 O 140.559 1.87421 -0.508624 0
M  V30 1387 C 137.689 3.21877 -1.30431 0
M  V30 1388 C 136.643 3.53002 -2.42019 0
M  V30 1389 C 135.969 4.90172 -2.13626 0
M  V30 1390 C 137.269 3.53643 -3.84362 0
M  V30 1391 H 138.963 1.81383 -2.38203 0
M  V30 1392 H 136.509 0.871237 -1.14654 0
M  V30 1393 H 138.462 4.00404 -1.31357 0
M  V30 1394 H 137.186 3.24968 -0.326049 0
M  V30 1395 H 135.845 2.76818 -2.40349 0
M  V30 1396 H 135.493 4.89869 -1.14182 0
M  V30 1397 H 135.193 5.11962 -2.88389 0
M  V30 1398 H 136.717 5.71028 -2.1624 0
M  V30 1399 H 138.131 4.22203 -3.87837 0
M  V30 1400 H 136.528 3.86961 -4.58673 0
M  V30 1401 H 137.598 2.52954 -4.13693 0
M  V30 1402 N 138.941 1.26152 0.944643 0
M  V30 1403 C 140.189 1.11271 1.6871 0
M  V30 1404 C 140.51 -0.345166 1.91921 0
M  V30 1405 O 139.78 -1.24387 1.51343 0
M  V30 1406 H 138.36 0.408783 0.625224 0
M  V30 1407 H 141.022 1.58427 1.1352 0
M  V30 1408 H 140.118 1.62879 2.66227 0
M  V30 1409 N 140.419 -1.14872 1.07899 0
M  V30 1410 C 141.83 -1.67367 0.827363 0
M  V30 1411 C 142.181 -1.85236 -0.646693 0
M  V30 1412 O 141.306 -1.55974 -1.50004 0
M  V30 1413 C 141.901 -3.04016 1.49532 0
M  V30 1414 C 140.46 -3.53566 1.29106 0
M  V30 1415 C 139.607 -2.29161 1.56143 0
M  V30 1416 H 142.558 -0.990083 1.24028 0
M  V30 1417 H 142.579 -3.69219 0.919643 0
M  V30 1418 H 142.091 -2.90978 2.56814 0
M  V30 1419 H 140.192 -3.71835 0.238713 0
M  V30 1420 H 140.305 -4.34661 2.01511 0
M  V30 1421 H 138.669 -2.34978 0.982717 0
M  V30 1422 H 139.452 -2.18705 2.64619 0
M  V30 1423 N 141.898 -0.863906 -1.31812 0
M  V30 1424 C 143.175 -0.39275 -1.91616 0
M  V30 1425 C 143.555 1.12461 -1.7865 0
M  V30 1426 O 142.903 1.95045 -1.19037 0
M  V30 1427 C 143.113 -0.867385 -3.38049 0
M  V30 1428 C 144.461 -0.889966 -4.15168 0
M  V30 1429 O 145.485 -0.812635 -3.46806 0
M  V30 1430 O 144.344 -1.00079 -5.37258 0
M  V30 1431 H 141.438 -0.116358 -0.818773 0
M  V30 1432 H 143.984 -0.951418 -1.40521 0
M  V30 1433 H 142.756 -1.91081 -3.41473 0
M  V30 1434 H 142.379 -0.286687 -3.96565 0
M  V30 1435 N 143.376 1.44774 -0.622745 0
M  V30 1436 C 144.604 2.06487 -0.130722 0
M  V30 1437 C 145.019 1.46476 1.19123 0
M  V30 1438 O 144.376 0.584502 1.72887 0
M  V30 1439 C 144.427 3.615 -0.000807207 0
M  V30 1440 O 144.148 4.19274 -1.27048 0
M  V30 1441 C 145.649 4.40229 0.520898 0
M  V30 1442 H 142.869 0.666704 -0.0758106 0
M  V30 1443 H 145.413 1.85779 -0.854774 0
M  V30 1444 H 143.568 3.81498 0.673643 0
M  V30 1445 H 143.982 5.12622 -1.1099 0
M  V30 1446 H 145.456 5.49144 0.560838 0
M  V30 1447 H 145.933 4.1108 1.54627 0
M  V30 1448 H 146.539 4.25131 -0.120018 0
M  V30 1449 N 144.854 0.36279 1.53368 0
M  V30 1450 C 146.265 -0.117022 1.86333 0
M  V30 1451 C 146.616 -1.48397 1.28347 0
M  V30 1452 O 145.741 -2.07787 0.604428 0
M  V30 1453 C 146.336 -0.21912 3.38091 0
M  V30 1454 C 144.895 -0.643184 3.70864 0
M  V30 1455 C 144.042 0.211318 2.76494 0
M  V30 1456 H 146.993 0.581687 1.47655 0
M  V30 1457 H 147.014 -1.04319 3.6592 0
M  V30 1458 H 146.526 0.775902 3.80265 0
M  V30 1459 H 144.627 -1.64654 3.34245 0
M  V30 1460 H 144.74 -0.41973 4.77258 0
M  V30 1461 H 143.104 -0.319367 2.5269 0
M  V30 1462 H 143.887 1.20383 3.21501 0
M  V30 1463 N 146.332 -1.57332 0.0918853 0
M  V30 1464 C 147.579 -1.94236 -0.572577 0
M  V30 1465 C 147.907 -0.973398 -1.6839 0
M  V30 1466 O 147.162 0.00756912 -1.95699 0
M  V30 1467 C 147.461 -3.37689 -1.17051 0
M  V30 1468 C 147.127 -4.50527 -0.183304 0
M  V30 1469 C 145.789 -4.81119 0.0882276 0
M  V30 1470 C 148.141 -5.18883 0.49095 0
M  V30 1471 C 145.469 -5.77395 1.04076 0
M  V30 1472 C 147.821 -6.1618 1.43193 0
M  V30 1473 C 146.485 -6.45179 1.71173 0
M  V30 1474 H 145.755 -0.710762 -0.209521 0
M  V30 1475 H 148.402 -1.9077 0.167036 0
M  V30 1476 H 146.707 -3.37718 -1.9863 0
M  V30 1477 H 148.404 -3.63543 -1.69227 0
M  V30 1478 H 144.994 -4.26681 -0.405124 0
M  V30 1479 H 149.178 -4.95427 0.294312 0
M  V30 1480 H 144.434 -5.98179 1.26457 0
M  V30 1481 H 148.608 -6.68243 1.96023 0
M  V30 1482 H 146.235 -7.1959 2.4514 0
M  V30 1483 N 147.81 0.181792 -1.56548 0
M  V30 1484 C 149.038 0.915947 -1.85521 0
M  V30 1485 C 149.453 1.76282 -0.676016 0
M  V30 1486 O 148.81 1.79012 0.355077 0
M  V30 1487 C 148.861 1.80126 -3.13427 0
M  V30 1488 O 148.582 0.988562 -4.26801 0
M  V30 1489 C 150.083 2.64597 -3.55673 0
M  V30 1490 H 147.303 0.26661 -0.61576 0
M  V30 1491 H 149.847 0.185039 -2.03661 0
M  V30 1492 H 148.002 2.48563 -2.97145 0
M  V30 1493 H 148.416 1.59308 -4.99721 0
M  V30 1494 H 149.89 3.2235 -4.48101 0
M  V30 1495 H 150.367 3.38958 -2.79292 0
M  V30 1496 H 150.973 2.0151 -3.74532 0
M  V30 1497 N 149.288 1.51039 0.449983 0
M  V30 1498 C 150.251 1.70863 1.5277 0
M  V30 1499 C 151.251 0.578846 1.5002 0
M  V30 1500 O 152.441 0.846213 1.52266 0
M  V30 1501 C 149.573 1.75341 2.9235 0
M  V30 1502 H 150.766 2.67034 1.36502 0
M  V30 1503 H 148.319 1.40838 0.677812 0
M  V30 1504 H 149.054 0.809383 3.14037 0
M  V30 1505 H 148.839 2.57436 2.95752 0
M  V30 1506 H 150.329 1.92559 3.70555 0
M  V30 1507 N 150.766 -0.704594 1.40972 0
M  V30 1508 C 152.015 -1.46018 1.39146 0
M  V30 1509 C 152.328 -1.956 0.000589254 0
M  V30 1510 O 153.534 -2.71137 -0.1403 0
M  V30 1511 C 151.99 -2.63996 2.4461 0
M  V30 1512 C 151.598 -2.21238 3.89561 0
M  V30 1513 C 153.342 -3.41677 2.51907 0
M  V30 1514 C 151.249 -3.3612 4.86598 0
M  V30 1515 H 150.179 -0.548444 0.517422 0
M  V30 1516 H 152.83 -0.765784 1.66757 0
M  V30 1517 H 151.212 -3.3566 2.10115 0
M  V30 1518 H 152.386 -1.56923 4.33257 0
M  V30 1519 H 150.701 -1.56574 3.85841 0
M  V30 1520 H 153.298 -4.27182 3.2159 0
M  V30 1521 H 153.641 -3.86247 1.55303 0
M  V30 1522 H 154.174 -2.77064 2.85448 0
M  V30 1523 H 150.913 -2.96572 5.84573 0
M  V30 1524 H 150.433 -3.99315 4.47557 0
M  V30 1525 H 152.112 -4.02029 5.06934 0
M  V30 1526 N 152.244 -1.26651 -0.937939 0
M  V30 1527 C 153.207 -1.08546 -2.01867 0
M  V30 1528 C 154.207 -0.0327327 -1.60767 0
M  V30 1529 O 155.397 -0.276427 -1.71993 0
M  V30 1530 C 152.529 -0.651711 -3.34613 0
M  V30 1531 H 153.722 -2.04502 -2.1936 0
M  V30 1532 H 151.275 -1.09294 -1.11734 0
M  V30 1533 H 152.01 0.309696 -3.22818 0
M  V30 1534 H 151.795 -1.41189 -3.65798 0
M  V30 1535 H 153.285 -0.546973 -4.14002 0
M  V30 1536 N 153.722 1.14298 -1.08507 0
M  V30 1537 C 154.97 1.84993 -0.813763 0
M  V30 1538 C 155.291 1.83405 0.662393 0
M  V30 1539 O 154.561 1.28319 1.48024 0
M  V30 1540 H 153.141 0.684966 -0.298045 0
M  V30 1541 H 155.803 1.385 -1.37126 0
M  V30 1542 H 154.899 2.89788 -1.15884 0
M  V30 1543 N 155.201 0.870884 1.31352 0
M  V30 1544 C 156.426 0.495957 2.01383 0
M  V30 1545 C 156.851 -0.904324 1.64935 0
M  V30 1546 O 156.209 -1.59687 0.858466 0
M  V30 1547 C 156.257 0.661433 3.54482 0
M  V30 1548 O 155.361 -0.298851 4.11316 0
M  V30 1549 H 154.702 0.197158 0.634054 0
M  V30 1550 H 157.232 1.17455 1.67527 0
M  V30 1551 H 157.242 0.555072 4.04207 0
M  V30 1552 H 155.917 1.68246 3.8035 0
M  V30 1553 H 154.494 -0.147368 3.72609 0
M  V30 1554 N 156.679 -1.44442 0.630414 0
M  V30 1555 C 157.589 -2.34476 -0.0761693 0
M  V30 1556 C 158.605 -1.52576 -0.836449 0
M  V30 1557 O 159.781 -1.85307 -0.788874 0
M  V30 1558 C 156.846 -3.30545 -1.04599 0
M  V30 1559 C 155.907 -4.28352 -0.28516 0
M  V30 1560 C 155.14 -5.19831 -1.20878 0
M  V30 1561 O 155.363 -5.15223 -2.44747 0
M  V30 1562 O 154.297 -5.97892 -0.693491 0
M  V30 1563 H 158.123 -2.96345 0.664324 0
M  V30 1564 H 155.708 -1.44203 0.39061 0
M  V30 1565 H 157.59 -3.89681 -1.60396 0
M  V30 1566 H 156.265 -2.7121 -1.76711 0
M  V30 1567 H 155.172 -3.72764 0.315837 0
M  V30 1568 H 156.505 -4.90605 0.395924 0
M  V30 1569 N 158.157 -0.370918 -1.53173 0
M  V30 1570 C 159.406 0.218249 -2.00516 0
M  V30 1571 C 159.719 1.49429 -1.26215 0
M  V30 1572 O 160.925 2.16239 -1.64174 0
M  V30 1573 C 159.381 0.43948 -3.57207 0
M  V30 1574 C 158.989 -0.822244 -4.4039 0
M  V30 1575 C 160.733 0.986012 -4.1289 0
M  V30 1576 C 158.64 -0.570304 -5.88644 0
M  V30 1577 H 157.57 0.0853333 -0.749156 0
M  V30 1578 H 160.221 -0.490483 -1.76823 0
M  V30 1579 H 158.603 1.20961 -3.77074 0
M  V30 1580 H 159.777 -1.59557 -4.32294 0
M  V30 1581 H 158.092 -1.29238 -3.95836 0
M  V30 1582 H 160.689 1.18991 -5.21292 0
M  V30 1583 H 161.032 1.94972 -3.6782 0
M  V30 1584 H 161.565 0.27592 -3.96842 0
M  V30 1585 H 158.304 -1.50449 -6.38001 0
M  V30 1586 H 157.824 0.164427 -5.99575 0
M  V30 1587 H 159.503 -0.19784 -6.46697 0
M  V30 1588 N 159.635 1.57281 -0.100228 0
M  V30 1589 C 160.882 1.94537 0.562268 0
M  V30 1590 C 161.21 0.982315 1.67871 0
M  V30 1591 O 160.465 0.00280936 1.957 0
M  V30 1592 C 160.764 3.38305 1.15259 0
M  V30 1593 C 160.43 4.50618 0.159409 0
M  V30 1594 C 159.092 4.81066 -0.113741 0
M  V30 1595 C 161.444 5.18615 -0.518461 0
M  V30 1596 C 158.772 5.76835 -1.07137 0
M  V30 1597 C 161.124 6.15412 -1.46459 0
M  V30 1598 C 159.788 6.44262 -1.74592 0
M  V30 1599 H 159.058 0.711863 0.205748 0
M  V30 1600 H 161.705 1.90679 -0.17715 0
M  V30 1601 H 160.01 3.38766 1.96836 0
M  V30 1602 H 161.707 3.64435 1.67297 0
M  V30 1603 H 158.297 4.2689 0.382491 0
M  V30 1604 H 162.481 4.95264 -0.320581 0
M  V30 1605 H 157.737 5.975 -1.29628 0
M  V30 1606 H 161.911 6.67194 -1.99564 0
M  V30 1607 H 159.538 7.1828 -2.48953 0
M  V30 1608 N 161.113 -0.173488 1.56642 0
M  V30 1609 C 162.338 -0.910149 1.86363 0
M  V30 1610 C 162.763 -1.75132 0.686318 0
M  V30 1611 O 162.121 -1.77595 -0.364643 0
M  V30 1612 C 162.169 -1.76447 3.14482 0
M  V30 1613 O 161.273 -2.86584 2.96553 0
M  V30 1614 H 160.614 -0.255086 0.613047 0
M  V30 1615 H 163.144 -0.172283 2.03873 0
M  V30 1616 H 163.154 -2.16483 3.45831 0
M  V30 1617 H 161.829 -1.14658 3.99783 0
M  V30 1618 H 160.406 -2.50146 2.76553 0
M  V30 1619 N 162.591 -1.51276 -0.441967 0
M  V30 1620 C 163.521 -1.752 -1.54361 0
M  V30 1621 C 164.502 -0.601682 -1.59103 0
M  V30 1622 O 165.687 -0.843913 -1.74905 0
M  V30 1623 C 162.817 -1.87282 -2.92477 0
M  V30 1624 C 161.771 -3.02687 -3.02596 0
M  V30 1625 C 161.097 -2.99947 -4.42647 0
M  V30 1626 C 162.397 -4.4273 -2.77106 0
M  V30 1627 H 164.091 -2.67442 -1.34592 0
M  V30 1628 H 161.637 -1.28694 -0.646048 0
M  V30 1629 H 163.59 -2.02602 -3.695 0
M  V30 1630 H 162.314 -0.916844 -3.13467 0
M  V30 1631 H 160.973 -2.87065 -2.28012 0
M  V30 1632 H 160.621 -2.02136 -4.60597 0
M  V30 1633 H 160.321 -3.77439 -4.50348 0
M  V30 1634 H 161.845 -3.17354 -5.2165 0
M  V30 1635 H 163.259 -4.58727 -3.43864 0
M  V30 1636 H 161.656 -5.21893 -2.96222 0
M  V30 1637 H 162.726 -4.53087 -1.72744 0
M  V30 1638 N 164.069 0.697108 -1.41344 0
M  V30 1639 C 164.979 1.84088 -1.45427 0
M  V30 1640 C 165.995 1.70545 -0.34501 0
M  V30 1641 O 167.171 1.92488 -0.592492 0
M  V30 1642 C 164.236 3.20056 -1.33286 0
M  V30 1643 C 163.297 3.45718 -2.54514 0
M  V30 1644 C 162.53 4.75199 -2.42944 0
M  V30 1645 O 162.753 5.51579 -1.45318 0
M  V30 1646 O 161.687 5.0161 -3.32672 0
M  V30 1647 H 165.513 1.836 -2.41919 0
M  V30 1648 H 163.098 0.849966 -1.22866 0
M  V30 1649 H 164.98 4.01236 -1.28794 0
M  V30 1650 H 163.655 3.2123 -0.39909 0
M  V30 1651 H 162.562 2.64474 -2.64583 0
M  V30 1652 H 163.895 3.49356 -3.46715 0
M  V30 1653 N 165.547 1.27147 0.931209 0
M  V30 1654 C 166.48 1.0389 2.0318 0
M  V30 1655 C 167.458 -0.0395716 1.62552 0
M  V30 1656 O 168.642 0.104867 1.88208 0
M  V30 1657 C 165.769 0.575227 3.3378 0
M  V30 1658 C 164.815 1.64774 3.93385 0
M  V30 1659 S 165.648 3.23933 4.26413 0
M  V30 1660 C 166.804 2.79358 5.60098 0
M  V30 1661 H 167.037 1.97075 2.22596 0
M  V30 1662 H 164.57 1.10938 1.07387 0
M  V30 1663 H 166.528 0.314385 4.09294 0
M  V30 1664 H 165.189 -0.336505 3.12292 0
M  V30 1665 H 164.382 1.27454 4.87618 0
M  V30 1666 H 163.984 1.86048 3.24441 0
M  V30 1667 H 166.276 2.24443 6.39243 0
M  V30 1668 H 167.219 3.72322 6.02314 0
M  V30 1669 H 167.627 2.1861 5.20452 0
M  V30 1670 N 167.025 -1.13721 1.09112 0
M  V30 1671 C 168.25 -1.89314 0.847053 0
M  V30 1672 C 168.675 -1.78416 -0.595774 0
M  V30 1673 O 168.033 -1.12942 -1.41823 0
M  V30 1674 C 168.081 -3.3701 1.28284 0
M  V30 1675 O 167.185 -4.10054 0.439267 0
M  V30 1676 H 166.526 -0.588745 0.307044 0
M  V30 1677 H 169.056 -1.43902 1.45442 0
M  V30 1678 H 169.066 -3.87834 1.26683 0
M  V30 1679 H 167.741 -3.4426 2.33363 0
M  V30 1680 H 166.318 -3.69266 0.519312 0
M  V30 1681 N 168.503 -0.877838 -1.30888 0
M  V30 1682 C 169.45 -0.337538 -2.28318 0
M  V30 1683 C 170.42 0.568346 -1.56074 0
M  V30 1684 O 171.605 0.498298 -1.84178 0
M  V30 1685 C 168.745 0.448142 -3.42178 0
M  V30 1686 C 167.858 -0.48615 -4.29256 0
M  V30 1687 C 166.993 0.314427 -5.30269 0
M  V30 1688 C 166.032 -0.615791 -6.08995 0
M  V30 1689 N 165.169 0.14902 -7.01942 0
M  V30 1690 H 170.009 -1.17356 -2.73919 0
M  V30 1691 H 167.546 -0.590094 -1.34745 0
M  V30 1692 H 169.504 0.919517 -4.06941 0
M  V30 1693 H 168.134 1.24879 -2.97666 0
M  V30 1694 H 167.186 -1.076 -3.64865 0
M  V30 1695 H 168.498 -1.19909 -4.84173 0
M  V30 1696 H 167.652 0.847969 -6.00745 0
M  V30 1697 H 166.391 1.06062 -4.76027 0
M  V30 1698 H 165.396 -1.16102 -5.37401 0
M  V30 1699 H 166.621 -1.36097 -6.65323 0
M  V30 1700 H 164.567 0.877884 -6.50099 0
M  V30 1701 H 164.484 -0.504433 -7.54315 0
M  V30 1702 H 165.752 0.663537 -7.76671 0
M  V30 1703 N 169.982 1.44106 -0.638065 0
M  V30 1704 C 171.21 2.06336 -0.152615 0
M  V30 1705 C 171.625 1.47731 1.17563 0
M  V30 1706 O 170.982 0.602806 1.72257 0
M  V30 1707 C 171.033 3.61479 -0.0391491 0
M  V30 1708 O 170.754 4.17903 -1.31487 0
M  V30 1709 C 172.255 4.40757 0.474176 0
M  V30 1710 H 169.475 0.665862 -0.0828776 0
M  V30 1711 H 172.019 1.84862 -0.87443 0
M  V30 1712 H 170.174 3.82191 0.633142 0
M  V30 1713 H 170.588 5.11416 -1.16421 0
M  V30 1714 H 172.062 5.49707 0.502562 0
M  V30 1715 H 172.539 4.12697 1.50258 0
M  V30 1716 H 173.145 4.24979 -0.165102 0
M  V30 1717 N 171.46 0.379036 1.52974 0
M  V30 1718 C 172.37 -0.468639 2.29872 0
M  V30 1719 C 173.386 -1.08067 1.36373 0
M  V30 1720 O 174.562 -1.08871 1.69438 0
M  V30 1721 C 171.627 -1.58594 3.083 0
M  V30 1722 C 170.688 -1.00007 4.17489 0
M  V30 1723 C 169.921 -2.06413 4.92168 0
M  V30 1724 O 170.144 -3.27751 4.66835 0
M  V30 1725 O 169.078 -1.68717 5.7777 0
M  V30 1726 H 172.904 0.157508 3.03291 0
M  V30 1727 H 170.489 0.143035 1.48714 0
M  V30 1728 H 172.371 -2.23525 3.57232 0
M  V30 1729 H 171.046 -2.19724 2.37703 0
M  V30 1730 H 169.953 -0.314299 3.72777 0
M  V30 1731 H 171.286 -0.433135 4.90291 0
M  V30 1732 N 172.938 -1.57226 0.108567 0
M  V30 1733 C 173.901 -2.13602 -0.831082 0
M  V30 1734 C 174.901 -1.06841 -1.20173 0
M  V30 1735 O 176.091 -1.32666 -1.12895 0
M  V30 1736 C 173.223 -2.66769 -2.12243 0
M  V30 1737 H 174.416 -2.97951 -0.341317 0
M  V30 1738 H 171.969 -1.55667 -0.14057 0
M  V30 1739 H 172.704 -1.85977 -2.65675 0
M  V30 1740 H 172.489 -3.44839 -1.86625 0
M  V30 1741 H 173.979 -3.10332 -2.79435 0
M  V30 1742 N 174.416 0.165178 -1.56732 0
M  V30 1743 C 175.346 1.20651 -1.99914 0
M  V30 1744 C 176.327 1.45827 -0.875705 0
M  V30 1745 O 177.512 1.57057 -1.14223 0
M  V30 1746 C 174.642 2.54401 -2.36427 0
M  V30 1747 C 173.596 2.43782 -3.51787 0
M  V30 1748 C 172.922 3.82078 -3.7406 0
M  V30 1749 C 174.222 1.93732 -4.85041 0
M  V30 1750 H 175.916 0.847534 -2.87154 0
M  V30 1751 H 173.462 0.40625 -1.38151 0
M  V30 1752 H 175.415 3.27458 -2.65234 0
M  V30 1753 H 174.139 2.92098 -1.46103 0
M  V30 1754 H 172.798 1.73178 -3.23117 0
M  V30 1755 H 172.446 4.17179 -2.81017 0
M  V30 1756 H 172.146 3.7584 -4.51684 0
M  V30 1757 H 173.67 4.56712 -4.05274 0
M  V30 1758 H 175.084 2.56569 -5.12684 0
M  V30 1759 H 173.481 1.98428 -5.66345 0
M  V30 1760 H 174.551 0.891962 -4.76626 0
M  V30 1761 N 175.894 1.51508 0.433938 0
M  V30 1762 C 177.122 1.68157 1.20543 0
M  V30 1763 C 177.537 0.380362 1.84929 0
M  V30 1764 O 176.894 -0.641446 1.70856 0
M  V30 1765 C 176.945 2.79965 2.28696 0
M  V30 1766 O 176.666 4.05045 1.66943 0
M  V30 1767 C 178.167 3.07912 3.18912 0
M  V30 1768 H 175.387 0.56421 0.363191 0
M  V30 1769 H 177.931 1.97941 0.513754 0
M  V30 1770 H 176.086 2.5277 2.93574 0
M  V30 1771 H 176.5 4.67165 2.38448 0
M  V30 1772 H 177.974 3.89719 3.90926 0
M  V30 1773 H 178.451 2.20456 3.79863 0
M  V30 1774 H 179.057 3.36779 2.59731 0
M  V30 1775 N 177.372 -0.689602 1.41712 0
M  V30 1776 C 178.304 -1.815 1.39966 0
M  V30 1777 C 179.317 -1.59995 0.300917 0
M  V30 1778 O 180.506 -1.69387 0.563039 0
M  V30 1779 C 177.606 -3.18364 1.16179 0
M  V30 1780 C 176.779 -3.66847 2.38206 0
M  V30 1781 C 175.838 -4.82398 2.10186 0
M  V30 1782 O 174.864 -4.93706 2.83272 0
M  V30 1783 N 176.066 -5.70064 1.0958 0
M  V30 1784 H 178.831 -1.83488 2.36965 0
M  V30 1785 H 176.392 -0.872149 1.36401 0
M  V30 1786 H 178.384 -3.93301 0.953756 0
M  V30 1787 H 176.954 -3.11365 0.27756 0
M  V30 1788 H 176.174 -2.82751 2.74673 0
M  V30 1789 H 177.462 -3.95978 3.19498 0
M  V30 1790 H 176.86 -5.63565 0.491019 0
M  V30 1791 H 175.417 -6.44874 0.947656 0
M  V30 1792 N 178.85 -1.27639 -0.924453 0
M  V30 1793 C 179.813 -1.10681 -2.00705 0
M  V30 1794 C 180.813 -0.0497823 -1.60723 0
M  V30 1795 O 182.003 -0.294654 -1.7169 0
M  V30 1796 C 179.135 -0.687164 -3.33902 0
M  V30 1797 H 180.328 -2.06817 -2.17179 0
M  V30 1798 H 177.881 -1.10473 -1.10569 0
M  V30 1799 H 178.616 0.275439 -3.23128 0
M  V30 1800 H 178.401 -1.45061 -3.6428 0
M  V30 1801 H 179.891 -0.590853 -4.13399 0
M  V30 1802 N 180.328 1.1314 -1.09713 0
M  V30 1803 C 181.575 1.84484 -0.834987 0
M  V30 1804 C 181.903 1.83689 0.639418 0
M  V30 1805 O 181.158 1.2724 1.4869 0
M  V30 1806 C 181.457 3.32167 -1.3191 0
M  V30 1807 C 181.123 3.53139 -2.80363 0
M  V30 1808 C 179.785 3.58571 -3.20905 0
M  V30 1809 C 182.137 3.60866 -3.76065 0
M  V30 1810 C 179.465 3.69267 -4.55916 0
M  V30 1811 C 181.817 3.73089 -5.10869 0
M  V30 1812 C 180.481 3.76775 -5.50996 0
M  V30 1813 H 179.751 0.675073 -0.305544 0
M  V30 1814 H 182.398 1.33554 -1.37243 0
M  V30 1815 H 180.703 3.85469 -0.701517 0
M  V30 1816 H 182.4 3.85821 -1.09284 0
M  V30 1817 H 178.99 3.49569 -2.47991 0
M  V30 1818 H 183.174 3.55946 -3.45855 0
M  V30 1819 H 178.43 3.70388 -4.86438 0
M  V30 1820 H 182.604 3.78011 -5.84877 0
M  V30 1821 H 180.231 3.84815 -6.55608 0
M  V30 1822 N 181.806 0.884767 1.30421 0
M  V30 1823 C 183.222 0.57874 1.48737 0
M  V30 1824 C 183.422 -0.883567 1.81095 0
M  V30 1825 O 182.478 -1.6648 1.89844 0
M  V30 1826 C 183.791 1.49171 2.61091 0
M  V30 1827 C 185.339 1.49532 2.74971 0
M  V30 1828 C 185.814 2.39421 3.90438 0
M  V30 1829 N 187.305 2.37383 3.97748 0
M  V30 1830 C 188.04 3.03647 4.86401 0
M  V30 1831 N 187.536 3.79136 5.79852 0
M  V30 1832 N 189.329 2.9288 4.79768 0
M  V30 1833 H 181.48 1.83075 1.0769 0
M  V30 1834 H 183.743 0.783637 0.533495 0
M  V30 1835 H 183.449 2.53291 2.44001 0
M  V30 1836 H 183.323 1.20113 3.57565 0
M  V30 1837 H 185.71 0.46163 2.91467 0
M  V30 1838 H 185.791 1.8262 1.79119 0
M  V30 1839 H 185.435 3.42874 3.74699 0
M  V30 1840 H 185.365 2.03649 4.85628 0
M  V30 1841 H 187.856 1.82525 3.30897 0
M  V30 1842 H 188.169 4.26789 6.4426 0
M  V30 1843 H 186.514 3.83243 5.79784 0
M  V30 1844 H 189.705 2.33433 4.05742 0
M  V30 1845 H 189.878 3.448 5.4865 0
M  V30 1846 N 183.284 -1.43765 0.645699 0
M  V30 1847 C 184.7 -1.56509 0.312591 0
M  V30 1848 C 184.9 -1.6307 -1.18365 0
M  V30 1849 O 183.956 -1.58167 -1.96824 0
M  V30 1850 C 185.269 -2.82968 1.01733 0
M  V30 1851 C 186.817 -2.96701 0.996865 0
M  V30 1852 C 187.292 -4.25982 1.68236 0
M  V30 1853 N 188.783 -4.32829 1.64964 0
M  V30 1854 C 189.518 -5.31613 2.14885 0
M  V30 1855 N 189.014 -6.36718 2.73061 0
M  V30 1856 N 190.807 -5.23217 2.05428 0
M  V30 1857 H 182.958 -1.3775 1.61675 0
M  V30 1858 H 185.221 -0.661067 0.679481 0
M  V30 1859 H 184.927 -2.84156 2.0724 0
M  V30 1860 H 184.801 -3.72957 0.564177 0
M  V30 1861 H 187.188 -2.95058 -0.0497719 0
M  V30 1862 H 187.269 -2.08022 1.48865 0
M  V30 1863 H 186.913 -4.28386 2.72852 0
M  V30 1864 H 186.843 -5.13545 1.16529 0
M  V30 1865 H 189.334 -3.57493 1.22503 0
M  V30 1866 H 189.647 -7.08401 3.08848 0
M  V30 1867 H 187.992 -6.37362 2.77118 0
M  V30 1868 H 191.183 -4.40019 1.59689 0
M  V30 1869 H 191.356 -6.00045 2.44643 0
M  V30 1870 N 184.763 -0.387143 -1.52771 0
M  V30 1871 C 185.988 0.198407 -2.06449 0
M  V30 1872 C 186.413 1.39918 -1.25716 0
M  V30 1873 O 185.771 1.79099 -0.281657 0
M  V30 1874 C 185.819 0.548893 -3.56398 0
M  V30 1875 O 184.923 1.64315 -3.78252 0
M  V30 1876 H 184.264 0.0237731 -0.663574 0
M  V30 1877 H 186.794 -0.553989 -1.96957 0
M  V30 1878 H 186.804 0.813812 -3.99801 0
M  V30 1879 H 185.479 -0.329005 -4.14597 0
M  V30 1880 H 184.056 1.37211 -3.46738 0
M  V30 1881 N 186.241 1.57166 -0.116904 0
M  V30 1882 C 187.49 1.94298 0.541407 0
M  V30 1883 C 187.803 1.00236 1.67964 0
M  V30 1884 O 189.009 1.26826 2.40057 0
M  V30 1885 C 187.465 3.45306 1.01449 0
M  V30 1886 C 187.073 4.47899 -0.0951738 0
M  V30 1887 C 188.817 3.91361 1.6443 0
M  V30 1888 C 186.724 5.90083 0.394491 0
M  V30 1889 H 185.654 0.725308 0.206019 0
M  V30 1890 H 188.305 1.82446 -0.196419 0
M  V30 1891 H 186.687 3.52385 1.80667 0
M  V30 1892 H 187.861 4.52486 -0.871374 0
M  V30 1893 H 186.176 4.11583 -0.631505 0
M  V30 1894 H 188.773 4.95004 2.02176 0
M  V30 1895 H 189.116 3.3122 2.52189 0
M  V30 1896 H 189.649 3.87073 0.917559 0
M  V30 1897 H 186.388 6.53974 -0.447004 0
M  V30 1898 H 185.908 5.88921 1.13722 0
M  V30 1899 H 187.587 6.41307 0.856399 0
M  V30 1900 N 187.719 -0.156864 1.56817 0
M  V30 1901 C 188.967 -0.869404 1.82444 0
M  V30 1902 C 189.288 -1.82147 0.69623 0
M  V30 1903 O 188.558 -1.93847 -0.28287 0
M  V30 1904 H 187.138 -0.324043 0.673056 0
M  V30 1905 H 189.8 -0.153224 1.94297 0
M  V30 1906 H 188.896 -1.43761 2.77019 0
M  V30 1907 N 189.197 -1.51736 -0.425897 0
M  V30 1908 C 190.443 -1.65214 -1.1761 0
M  V30 1909 C 190.776 -0.372778 -1.90589 0
M  V30 1910 O 190.051 0.628139 -1.84078 0
M  V30 1911 C 190.334 -2.86312 -2.18398 0
M  V30 1912 C 190.187 -4.24254 -1.49426 0
M  V30 1913 C 191.506 -3.02925 -3.19256 0
M  V30 1914 H 188.625 -0.601263 -0.426206 0
M  V30 1915 H 191.267 -1.8425 -0.463882 0
M  V30 1916 H 189.417 -2.70213 -2.79137 0
M  V30 1917 H 191.089 -4.52046 -0.919362 0
M  V30 1918 H 189.332 -4.26426 -0.796432 0
M  V30 1919 H 190.003 -5.05001 -2.22885 0
M  V30 1920 H 192.479 -3.1781 -2.68581 0
M  V30 1921 H 191.355 -3.89199 -3.8706 0
M  V30 1922 H 191.616 -2.15497 -3.86023 0
M  V30 1923 N 190.675 0.682077 -1.42076 0
M  V30 1924 C 192.091 0.994324 -1.24841 0
M  V30 1925 C 192.291 2.0096 -0.147389 0
M  V30 1926 O 191.347 2.47822 0.483782 0
M  V30 1927 C 192.66 1.50607 -2.60265 0
M  V30 1928 C 194.208 1.62421 -2.6756 0
M  V30 1929 C 194.683 2.16994 -4.03333 0
M  V30 1930 N 196.174 2.24337 -4.0525 0
M  V30 1931 C 196.909 2.67621 -5.07116 0
M  V30 1932 N 196.405 3.1041 -6.19368 0
M  V30 1933 N 198.198 2.67305 -4.94474 0
M  V30 1934 H 190.349 0.00973908 -2.12398 0
M  V30 1935 H 192.612 0.0668593 -0.945639 0
M  V30 1936 H 192.318 0.834583 -3.41654 0
M  V30 1937 H 192.192 2.48602 -2.83684 0
M  V30 1938 H 194.579 2.28678 -1.86521 0
M  V30 1939 H 194.66 0.629352 -2.47937 0
M  V30 1940 H 194.304 1.51349 -4.84826 0
M  V30 1941 H 194.234 3.17258 -4.20304 0
M  V30 1942 H 196.725 1.94158 -3.24209 0
M  V30 1943 H 197.038 3.42103 -6.92954 0
M  V30 1944 H 195.383 3.08286 -6.22884 0
M  V30 1945 H 198.574 2.33233 -4.05857 0
M  V30 1946 H 198.747 3.00718 -5.73997 0
M  V30 1947 N 192.153 1.28127 0.917671 0
M  V30 1948 C 193.402 1.14432 1.66097 0
M  V30 1949 C 193.715 -0.307247 1.93172 0
M  V30 1950 O 194.921 -0.565259 2.65551 0
M  V30 1951 C 193.377 2.00015 2.99202 0
M  V30 1952 C 192.985 3.49889 2.79789 0
M  V30 1953 C 194.729 1.94996 3.77064 0
M  V30 1954 C 192.636 4.27636 4.08511 0
M  V30 1955 H 191.566 0.424662 0.62304 0
M  V30 1956 H 194.217 1.52628 1.01868 0
M  V30 1957 H 192.599 1.54672 3.64544 0
M  V30 1958 H 193.773 4.03162 2.23152 0
M  V30 1959 H 192.088 3.56392 2.15345 0
M  V30 1960 H 194.685 2.50354 4.72469 0
M  V30 1961 H 195.028 0.925819 4.05875 0
M  V30 1962 H 195.561 2.38287 3.18534 0
M  V30 1963 H 192.3 5.30615 3.84874 0
M  V30 1964 H 191.82 3.79137 4.64774 0
M  V30 1965 H 193.499 4.37346 4.76799 0
M  V30 1966 N 193.631 -1.12557 1.10312 0
M  V30 1967 C 194.578 -2.18247 0.750781 0
M  V30 1968 C 195.548 -1.63853 -0.272293 0
M  V30 1969 O 196.733 -1.90195 -0.151862 0
M  V30 1970 C 193.873 -3.44591 0.187379 0
M  V30 1971 C 192.986 -4.13046 1.2656 0
M  V30 1972 C 192.121 -5.27034 0.663978 0
M  V30 1973 C 191.16 -5.87353 1.72287 0
M  V30 1974 N 190.297 -6.92757 1.1416 0
M  V30 1975 H 195.137 -2.47732 1.65628 0
M  V30 1976 H 192.674 -1.21629 0.827337 0
M  V30 1977 H 194.632 -4.16904 -0.157148 0
M  V30 1978 H 193.262 -3.15527 -0.681355 0
M  V30 1979 H 192.314 -3.38924 1.72727 0
M  V30 1980 H 193.626 -4.53947 2.06721 0
M  V30 1981 H 192.78 -6.06104 0.268824 0
M  V30 1982 H 191.519 -4.87407 -0.169082 0
M  V30 1983 H 190.524 -5.06971 2.12746 0
M  V30 1984 H 191.749 -6.29051 2.55875 0
M  V30 1985 H 189.695 -6.5517 0.329984 0
M  V30 1986 H 189.612 -7.3225 1.88007 0
M  V30 1987 H 190.88 -7.75658 0.772956 0
M  V30 1988 N 195.109 -0.891671 -1.2995 0
M  V30 1989 C 196.019 -0.367691 -2.31701 0
M  V30 1990 C 197.035 0.533486 -1.6562 0
M  V30 1991 O 198.211 0.424997 -1.96865 0
M  V30 1992 C 195.276 0.403406 -3.44345 0
M  V30 1993 C 194.337 -0.528328 -4.26037 0
M  V30 1994 C 193.57 0.206063 -5.33302 0
M  V30 1995 O 193.793 1.43119 -5.52153 0
M  V30 1996 O 192.727 -0.447281 -6.00236 0
M  V30 1997 H 196.553 -1.21163 -2.78484 0
M  V30 1998 H 194.138 -0.655725 -1.34241 0
M  V30 1999 H 196.02 0.839753 -4.12948 0
M  V30 2000 H 194.695 1.22354 -2.99685 0
M  V30 2001 H 193.602 -1.01362 -3.60106 0
M  V30 2002 H 194.935 -1.31465 -4.74318 0
M  V30 2003 N 196.587 1.43421 -0.653314 0
M  V30 2004 C 197.497 2.34568 0.0388565 0
M  V30 2005 C 198.513 1.53888 0.81207 0
M  V30 2006 O 199.689 1.86539 0.759294 0
M  V30 2007 C 196.754 3.32167 0.993269 0
M  V30 2008 C 195.815 4.28751 0.216977 0
M  V30 2009 C 195.048 5.21688 1.12593 0
M  V30 2010 O 195.271 5.19052 2.36519 0
M  V30 2011 O 194.205 5.98919 0.598284 0
M  V30 2012 H 198.031 2.95251 -0.711386 0
M  V30 2013 H 195.616 1.43564 -0.413502 0
M  V30 2014 H 197.498 3.92183 1.54176 0
M  V30 2015 H 196.173 2.73987 1.72374 0
M  V30 2016 H 195.08 3.72215 -0.375101 0
M  V30 2017 H 196.413 4.89913 -0.473924 0
M  V30 2018 N 198.065 0.39524 1.52563 0
M  V30 2019 C 199.293 -0.184943 2.06072 0
M  V30 2020 C 199.708 -1.40021 1.26647 0
M  V30 2021 O 199.065 -1.79767 0.314672 0
M  V30 2022 C 199.116 -0.549179 3.57304 0
M  V30 2023 O 198.837 0.617813 4.33722 0
M  V30 2024 C 200.338 -1.18459 4.2718 0
M  V30 2025 H 197.558 -0.0265025 0.670476 0
M  V30 2026 H 200.102 0.562184 1.96621 0
M  V30 2027 H 198.257 -1.2462 3.66809 0
M  V30 2028 H 198.671 0.317091 5.23541 0
M  V30 2029 H 200.145 -1.38976 5.34219 0
M  V30 2030 H 200.622 -2.15368 3.82771 0
M  V30 2031 H 201.228 -0.528163 4.22008 0
M  V30 2032 N 199.544 -1.57102 0.125237 0
M  V30 2033 C 200.454 -2.19191 -0.8362 0
M  V30 2034 C 201.47 -1.16985 -1.28805 0
M  V30 2035 O 202.646 -1.49479 -1.34974 0
M  V30 2036 C 199.711 -2.78407 -2.06617 0
M  V30 2037 C 198.772 -3.9567 -1.66565 0
M  V30 2038 C 198.005 -4.52052 -2.83698 0
M  V30 2039 O 198.228 -4.07326 -3.99302 0
M  V30 2040 O 197.162 -5.42645 -2.60423 0
M  V30 2041 H 200.988 -3.01816 -0.337776 0
M  V30 2042 H 198.573 -1.4906 -0.100695 0
M  V30 2043 H 200.455 -3.16129 -2.7864 0
M  V30 2044 H 199.13 -1.9881 -2.55453 0
M  V30 2045 H 198.037 -3.62705 -0.916296 0
M  V30 2046 H 199.37 -4.76722 -1.22464 0
M  V30 2047 N 201.022 0.148545 -1.56898 0
M  V30 2048 C 202.271 0.85984 -1.82454 0
M  V30 2049 C 202.584 1.82406 -0.706229 0
M  V30 2050 O 203.79 2.57938 -0.847349 0
M  V30 2051 C 202.246 1.57967 -3.2338 0
M  V30 2052 C 201.854 0.65794 -4.43142 0
M  V30 2053 C 203.598 2.27784 -3.58211 0
M  V30 2054 C 201.505 1.3793 -5.75091 0
M  V30 2055 H 200.435 0.324834 -0.68044 0
M  V30 2056 H 203.086 0.112588 -1.83154 0
M  V30 2057 H 201.468 2.37249 -3.17063 0
M  V30 2058 H 202.642 -0.0995497 -4.60692 0
M  V30 2059 H 200.957 0.0682643 -4.16344 0
M  V30 2060 H 203.554 2.8239 -4.54048 0
M  V30 2061 H 203.897 3.04204 -2.84193 0
M  V30 2062 H 204.43 1.55421 -3.66182 0
M  V30 2063 H 201.169 0.656982 -6.52199 0
M  V30 2064 H 200.689 2.10954 -5.61479 0
M  V30 2065 H 202.368 1.92063 -6.17835 0
M  V30 2066 N 202.5 1.5196 0.417844 0
M  V30 2067 C 203.749 1.6482 1.16264 0
M  V30 2068 C 204.062 0.379886 1.91876 0
M  V30 2069 O 205.268 0.388154 2.68711 0
M  V30 2070 C 203.724 2.91161 2.1155 0
M  V30 2071 C 203.332 4.25068 1.41495 0
M  V30 2072 C 205.076 3.13383 2.86341 0
M  V30 2073 C 202.983 5.42541 2.35379 0
M  V30 2074 H 201.913 0.613954 0.437694 0
M  V30 2075 H 204.564 1.78442 0.427871 0
M  V30 2076 H 202.946 2.71218 2.88543 0
M  V30 2077 H 204.12 4.55463 0.699263 0
M  V30 2078 H 202.435 4.0888 0.787792 0
M  V30 2079 H 205.032 3.98324 3.5671 0
M  V30 2080 H 205.375 2.27256 3.48798 0
M  V30 2081 H 205.908 3.33757 2.1645 0
M  V30 2082 H 202.647 6.30987 1.77582 0
M  V30 2083 H 202.167 5.16497 3.04945 0
M  V30 2084 H 203.846 5.75272 2.96093 0
M  V30 2085 N 203.978 -0.674533 1.42435 0
M  V30 2086 C 204.888 -1.81751 1.48337 0
M  V30 2087 C 205.904 -1.69975 0.372099 0
M  V30 2088 O 207.08 -1.91521 0.62304 0
M  V30 2089 C 204.145 -3.17895 1.38361 0
M  V30 2090 C 203.206 -3.41625 2.59982 0
M  V30 2091 C 202.439 -4.71274 2.50473 0
M  V30 2092 O 202.662 -5.49197 1.54075 0
M  V30 2093 O 201.596 -4.96254 3.4061 0
M  V30 2094 H 205.422 -1.79728 2.44809 0
M  V30 2095 H 203.007 -0.830312 1.24202 0
M  V30 2096 H 204.889 -3.99136 1.35161 0
M  V30 2097 H 203.564 -3.20555 0.450144 0
M  V30 2098 H 202.471 -2.60231 2.68757 0
M  V30 2099 H 203.804 -3.43796 3.52229 0
M  V30 2100 N 205.456 -1.28612 -0.910864 0
M  V30 2101 C 206.704 -1.15705 -1.65701 0
M  V30 2102 C 207.025 0.29416 -1.92769 0
M  V30 2103 O 206.295 1.20331 -1.54588 0
M  V30 2104 H 204.875 -0.425216 -0.614167 0
M  V30 2105 H 207.537 -1.61381 -1.0928 0
M  V30 2106 H 206.633 -1.6988 -2.61815 0
M  V30 2107 N 206.934 1.1197 -1.10907 0
M  V30 2108 C 207.844 2.21433 -0.774896 0
M  V30 2109 C 208.86 1.72478 0.229657 0
M  V30 2110 O 210.036 2.01288 0.0672008 0
M  V30 2111 C 207.101 3.4602 -0.216986 0
M  V30 2112 C 206.162 4.09791 -1.27944 0
M  V30 2113 C 205.395 5.28431 -0.748055 0
M  V30 2114 O 205.618 5.68823 0.423833 0
M  V30 2115 O 204.552 5.82644 -1.51027 0
M  V30 2116 H 208.378 2.5242 -1.68873 0
M  V30 2117 H 205.963 1.20399 -0.884555 0
M  V30 2118 H 207.845 4.21304 0.090059 0
M  V30 2119 H 206.52 3.16698 0.669633 0
M  V30 2120 H 205.427 3.36265 -1.63941 0
M  V30 2121 H 206.76 4.4328 -2.13925 0
M  V30 2122 N 208.412 0.89855 1.29475 0
M  V30 2123 C 209.658 0.524658 1.95896 0
M  V30 2124 C 209.991 -0.926468 1.70676 0
M  V30 2125 O 209.266 -1.65665 1.01908 0
M  V30 2126 C 209.549 0.81633 3.50725 0
M  V30 2127 C 209.402 2.31907 3.85408 0
M  V30 2128 C 210.721 0.302038 4.39062 0
M  V30 2129 H 207.84 0.19209 0.711527 0
M  V30 2130 H 210.482 1.12502 1.53112 0
M  V30 2131 H 208.632 0.305369 3.87298 0
M  V30 2132 H 210.304 2.89949 3.58786 0
M  V30 2133 H 208.547 2.78027 3.32992 0
M  V30 2134 H 209.218 2.47373 4.93468 0
M  V30 2135 H 211.694 0.739551 4.09475 0
M  V30 2136 H 210.57 0.535331 5.46283 0
M  V30 2137 H 210.831 -0.797216 4.34853 0
M  V30 2138 N 209.89 -1.43072 0.660911 0
M  V30 2139 C 211.136 -2.0202 0.177708 0
M  V30 2140 C 211.469 -1.52066 -1.20787 0
M  V30 2141 O 210.744 -0.716987 -1.80802 0
M  V30 2142 C 211.027 -3.59561 0.197019 0
M  V30 2143 C 210.88 -4.19727 1.61706 0
M  V30 2144 C 212.199 -4.37664 -0.462396 0
M  V30 2145 H 209.318 -0.734034 0.0660494 0
M  V30 2146 H 211.96 -1.70272 0.843058 0
M  V30 2147 H 210.11 -3.86739 -0.369527 0
M  V30 2148 H 211.782 -4.03553 2.23479 0
M  V30 2149 H 210.025 -3.76084 2.16201 0
M  V30 2150 H 210.696 -5.28834 1.58237 0
M  V30 2151 H 213.172 -4.16095 0.0197215 0
M  V30 2152 H 212.048 -5.47305 -0.418188 0
M  V30 2153 H 212.309 -4.14493 -1.53778 0
M  V30 2154 N 211.368 -0.403325 -1.52352 0
M  V30 2155 C 212.278 0.432009 -2.30588 0
M  V30 2156 C 213.294 1.05884 -1.38075 0
M  V30 2157 O 214.47 1.06161 -1.71148 0
M  V30 2158 C 211.535 1.53669 -3.10784 0
M  V30 2159 C 210.596 0.933525 -4.19027 0
M  V30 2160 C 209.829 1.98557 -4.9539 0
M  V30 2161 O 210.052 3.20283 -4.71991 0
M  V30 2162 O 208.986 1.59504 -5.80381 0
M  V30 2163 H 212.812 -0.205739 -3.03002 0
M  V30 2164 H 210.397 -0.166675 -1.48467 0
M  V30 2165 H 212.279 2.17814 -3.60742 0
M  V30 2166 H 210.954 2.15915 -2.41169 0
M  V30 2167 H 209.861 0.254954 -3.7323 0
M  V30 2168 H 211.194 0.35508 -4.90918 0
M  V30 2169 N 212.846 1.57033 -0.133567 0
M  V30 2170 C 214.095 1.94861 0.520768 0
M  V30 2171 C 214.408 1.02012 1.66892 0
M  V30 2172 O 215.614 1.29365 2.38699 0
M  V30 2173 C 214.07 3.46362 0.977809 0
M  V30 2174 C 213.678 4.47773 -0.142674 0
M  V30 2175 C 215.422 3.93083 1.60269 0
M  V30 2176 C 213.329 5.90468 0.331883 0
M  V30 2177 H 212.259 0.727453 0.198315 0
M  V30 2178 H 214.91 1.82227 -0.215759 0
M  V30 2179 H 213.292 3.54282 1.7692 0
M  V30 2180 H 214.466 4.51536 -0.919317 0
M  V30 2181 H 212.781 4.10891 -0.675124 0
M  V30 2182 H 215.378 4.97121 1.96914 0
M  V30 2183 H 215.721 3.33876 2.48662 0
M  V30 2184 H 216.254 3.88025 0.876453 0
M  V30 2185 H 212.993 6.53463 -0.516341 0
M  V30 2186 H 212.513 5.90094 1.07469 0
M  V30 2187 H 214.192 6.42179 0.788332 0
M  V30 2188 N 214.325 -0.140222 1.56975 0
M  V30 2189 C 215.257 -1.19818 1.95388 0
M  V30 2190 C 216.27 -1.38816 0.850525 0
M  V30 2191 O 217.459 -1.38267 1.12891 0
M  V30 2192 C 214.559 -2.56189 2.21857 0
M  V30 2193 C 213.732 -2.58077 3.5315 0
M  V30 2194 C 212.791 -3.76037 3.6808 0
M  V30 2195 O 211.817 -3.60598 4.40406 0
M  V30 2196 N 213.019 -4.93763 3.05251 0
M  V30 2197 H 215.784 -0.871609 2.86746 0
M  V30 2198 H 213.345 -0.32972 1.58507 0
M  V30 2199 H 215.337 -3.33623 2.2908 0
M  V30 2200 H 213.907 -2.81111 1.36731 0
M  V30 2201 H 213.127 -1.6651 3.57307 0
M  V30 2202 H 214.415 -2.56377 4.39486 0
M  V30 2203 H 213.813 -5.09209 2.46419 0
M  V30 2204 H 212.37 -5.68949 3.18026 0
M  V30 2205 N 215.803 -1.52179 -0.40978 0
M  V30 2206 C 217.052 -1.65434 -1.15388 0
M  V30 2207 C 217.365 -0.390056 -1.91671 0
M  V30 2208 O 218.571 -0.402399 -2.68501 0
M  V30 2209 C 217.027 -2.92279 -2.10003 0
M  V30 2210 C 216.635 -4.25813 -1.39239 0
M  V30 2211 C 218.379 -3.14897 -2.84675 0
M  V30 2212 C 216.286 -5.43782 -2.32498 0
M  V30 2213 H 215.216 -0.616267 -0.434432 0
M  V30 2214 H 217.867 -1.78666 -0.418401 0
M  V30 2215 H 216.249 -2.72744 -2.871 0
M  V30 2216 H 217.423 -4.55828 -0.675099 0
M  V30 2217 H 215.738 -4.09292 -0.766097 0
M  V30 2218 H 218.335 -4.0021 -3.54593 0
M  V30 2219 H 218.678 -2.29103 -3.47588 0
M  V30 2220 H 219.211 -3.34901 -2.14677 0
M  V30 2221 H 215.95 -6.3192 -1.74233 0
M  V30 2222 H 215.47 -5.18106 -3.02201 0
M  V30 2223 H 217.149 -5.76834 -2.93038 0
M  V30 2224 N 217.281 0.66697 -1.42791 0
M  V30 2225 C 218.558 1.4234 -1.34159 0
M  V30 2226 C 218.938 2.11093 0.0172729 0
M  V30 2227 O 218.286 2.03808 1.03318 0
M  V30 2228 C 218.496 2.41942 -2.51526 0
M  V30 2229 C 219.844 3.06353 -2.93995 0
M  V30 2230 O 220.868 2.52269 -2.51473 0
M  V30 2231 O 219.727 4.04376 -3.67617 0
M  V30 2232 H 216.821 0.635277 -0.529483 0
M  V30 2233 H 219.367 0.695034 -1.54814 0
M  V30 2234 H 218.139 1.89991 -3.42081 0
M  V30 2235 H 217.762 3.22249 -2.32898 0
M  V30 2236 N 218.759 1.29093 0.90403 0
M  V30 2237 C 220.175 1.07011 1.1841 0
M  V30 2238 C 220.375 -0.181358 2.00682 0
M  V30 2239 O 219.431 -0.880331 2.36657 0
M  V30 2240 C 220.744 2.32311 1.90924 0
M  V30 2241 C 222.292 2.37587 2.03768 0
M  V30 2242 C 222.767 3.62679 2.79693 0
M  V30 2243 N 224.258 3.63376 2.87249 0
M  V30 2244 C 224.993 4.56848 3.46522 0
M  V30 2245 N 224.489 5.60648 4.06996 0
M  V30 2246 N 226.282 4.44426 3.44154 0
M  V30 2247 H 218.433 2.09412 0.354993 0
M  V30 2248 H 220.696 0.922181 0.219742 0
M  V30 2249 H 220.402 3.23536 1.37905 0
M  V30 2250 H 220.276 2.39483 2.91424 0
M  V30 2251 H 222.663 1.46853 2.55965 0
M  V30 2252 H 222.744 2.34403 1.02415 0
M  V30 2253 H 222.388 4.53762 2.28173 0
M  V30 2254 H 222.318 3.63119 3.81381 0
M  V30 2255 H 224.809 2.88321 2.44293 0
M  V30 2256 H 225.122 6.28101 4.50232 0
M  V30 2257 H 223.467 5.64463 4.05471 0
M  V30 2258 H 226.658 3.62529 2.96126 0
M  V30 2259 H 226.831 5.17457 3.90054 0
M  V30 2260 N 220.237 -1.11381 1.11499 0
M  V30 2261 C 221.648 -1.6465 0.880191 0
M  V30 2262 C 221.999 -1.87199 -0.587434 0
M  V30 2263 O 221.124 -1.60667 -1.44966 0
M  V30 2264 C 221.719 -2.99105 1.59128 0
M  V30 2265 C 220.278 -3.49279 1.40289 0
M  V30 2266 C 219.425 -2.24077 1.63354 0
M  V30 2267 H 222.376 -0.950123 1.27116 0
M  V30 2268 H 222.397 -3.66107 1.03664 0
M  V30 2269 H 221.909 -2.82661 2.65941 0
M  V30 2270 H 220.01 -3.70887 0.356888 0
M  V30 2271 H 220.123 -4.2803 2.15238 0
M  V30 2272 H 218.487 -2.31733 1.05698 0
M  V30 2273 H 219.27 -2.10175 2.71443 0
M  V30 2274 N 221.715 -0.905404 -1.28997 0
M  V30 2275 C 222.678 -0.392253 -2.25819 0
M  V30 2276 C 223.678 0.476753 -1.5357 0
M  V30 2277 O 224.868 0.280994 -1.71919 0
M  V30 2278 C 222 0.438588 -3.38067 0
M  V30 2279 H 223.193 -1.24743 -2.72725 0
M  V30 2280 H 220.746 -0.684051 -1.40536 0
M  V30 2281 H 221.481 1.31352 -2.96508 0
M  V30 2282 H 221.266 -0.184167 -3.91667 0
M  V30 2283 H 222.756 0.78873 -4.10084 0
M  V30 2284 N 223.193 1.4272 -0.668489 0
M  V30 2285 C 224.421 2.05966 -0.196348 0
M  V30 2286 C 224.836 1.50191 1.14403 0
M  V30 2287 O 224.193 0.639208 1.7094 0
M  V30 2288 C 224.244 3.61314 -0.115815 0
M  V30 2289 O 223.965 4.1502 -1.40322 0
M  V30 2290 C 225.466 4.41663 0.380579 0
M  V30 2291 H 222.686 0.663954 -0.0969829 0
M  V30 2292 H 225.23 1.82966 -0.913446 0
M  V30 2293 H 223.385 3.83448 0.551931 0
M  V30 2294 H 223.799 5.08832 -1.27243 0
M  V30 2295 H 225.273 5.5065 0.385848 0
M  V30 2296 H 225.75 4.15792 1.41471 0
M  V30 2297 H 226.356 4.24534 -0.255209 0
M  V30 2298 N 224.671 0.411399 1.52136 0
M  V30 2299 C 225.919 -0.163322 2.01439 0
M  V30 2300 C 226.24 -1.45453 1.29879 0
M  V30 2301 O 225.51 -1.91225 0.4254 0
M  V30 2302 H 224.09 -0.0633447 0.744309 0
M  V30 2303 H 226.752 0.548161 1.87033 0
M  V30 2304 H 225.848 -0.357817 3.10042 0
M  V30 2305 N 226.149 -1.5696 0.141893 0
M  V30 2306 C 227.377 -2.00322 -0.517579 0
M  V30 2307 C 227.792 -1.02193 -1.58752 0
M  V30 2308 O 227.149 -0.0181619 -1.82491 0
M  V30 2309 C 227.2 -3.43618 -1.12289 0
M  V30 2310 O 226.921 -4.37995 -0.0956929 0
M  V30 2311 C 228.422 -4.02231 -1.86347 0
M  V30 2312 H 225.642 -0.657243 -0.135177 0
M  V30 2313 H 228.186 -2.03146 0.234973 0
M  V30 2314 H 226.341 -3.41662 -1.82609 0
M  V30 2315 H 226.755 -5.21729 -0.538469 0
M  V30 2316 H 228.229 -5.04509 -2.23997 0
M  V30 2317 H 228.706 -3.42655 -2.74744 0
M  V30 2318 H 229.312 -4.07802 -1.20737 0
M  V30 2319 N 227.627 0.131896 -1.57047 0
M  V30 2320 C 228.875 0.840269 -1.83804 0
M  V30 2321 C 229.196 1.81017 -0.72512 0
M  V30 2322 O 228.466 1.94272 0.251995 0
M  V30 2323 H 227.046 0.313294 -0.678127 0
M  V30 2324 H 229.708 0.122294 -1.94516 0
M  V30 2325 H 228.804 1.39335 -2.79271 0
M  V30 2326 N 229.106 1.52395 0.401703 0
M  V30 2327 C 230.331 1.70972 1.17403 0
M  V30 2328 C 230.756 0.421615 1.83314 0
M  V30 2329 O 230.114 -0.621564 1.70312 0
M  V30 2330 C 230.162 2.85151 2.20728 0
M  V30 2331 O 229.266 2.51238 3.27037 0
M  V30 2332 H 228.607 0.568927 0.342372 0
M  V30 2333 H 231.137 1.99131 0.469891 0
M  V30 2334 H 231.147 3.10279 2.64936 0
M  V30 2335 H 229.822 3.78603 1.7214 0
M  V30 2336 H 228.399 2.36808 2.88057 0
M  V30 2337 N 230.584 -0.659388 1.43143 0
M  V30 2338 C 231.531 -1.77249 1.47822 0
M  V30 2339 C 232.501 -1.62818 0.328558 0
M  V30 2340 O 233.686 -1.83151 0.534838 0
M  V30 2341 C 230.826 -3.15371 1.40126 0
M  V30 2342 C 229.939 -3.4098 2.65249 0
M  V30 2343 C 229.074 -4.68915 2.49584 0
M  V30 2344 C 228.113 -4.87608 3.70006 0
M  V30 2345 N 227.25 -6.06796 3.53189 0
M  V30 2346 H 232.09 -1.72584 2.42938 0
M  V30 2347 H 229.627 -0.842297 1.20598 0
M  V30 2348 H 231.585 -3.9521 1.33659 0
M  V30 2349 H 230.215 -3.19121 0.485964 0
M  V30 2350 H 229.267 -2.55282 2.8202 0
M  V30 2351 H 230.579 -3.50681 3.54717 0
M  V30 2352 H 229.733 -5.56871 2.4079 0
M  V30 2353 H 228.472 -4.61524 1.5763 0
M  V30 2354 H 227.477 -3.9809 3.79215 0
M  V30 2355 H 228.702 -4.96834 4.62961 0
M  V30 2356 H 226.648 -6.00549 2.63965 0
M  V30 2357 H 226.565 -6.17428 4.36255 0
M  V30 2358 H 227.833 -6.9739 3.48236 0
M  V30 2359 N 232.062 -1.29571 -0.897171 0
M  V30 2360 C 233.308 -1.17863 -1.65034 0
M  V30 2361 C 233.641 0.268729 -1.92332 0
M  V30 2362 O 232.916 1.19378 -1.53555 0
M  V30 2363 C 233.199 -1.995 -2.99786 0
M  V30 2364 C 233.052 -3.5239 -2.79538 0
M  V30 2365 C 234.371 -1.82335 -4.00552 0
M  V30 2366 H 231.49 -0.429528 -0.598895 0
M  V30 2367 H 234.132 -1.59072 -1.03905 0
M  V30 2368 H 232.282 -1.64485 -3.51962 0
M  V30 2369 H 233.954 -3.97401 -2.34244 0
M  V30 2370 H 232.197 -3.77187 -2.14273 0
M  V30 2371 H 232.868 -4.04787 -3.75302 0
M  V30 2372 H 235.344 -2.12924 -3.57495 0
M  V30 2373 H 234.22 -2.41801 -4.92771 0
M  V30 2374 H 234.481 -0.779209 -4.35179 0
M  V30 2375 N 233.54 1.10788 -1.12088 0
M  V30 2376 C 234.788 1.8231 -0.872205 0
M  V30 2377 C 235.109 1.85419 0.603709 0
M  V30 2378 O 234.379 1.32963 1.43867 0
M  V30 2379 H 232.959 0.675137 -0.319686 0
M  V30 2380 H 235.621 1.34068 -1.41463 0
M  V30 2381 H 234.717 2.85955 -1.25045 0
M  V30 2382 N 235.018 0.912232 1.28515 0
M  V30 2383 C 235.965 0.397954 2.27343 0
M  V30 2384 C 236.935 -0.526766 1.57526 0
M  V30 2385 O 238.12 -0.449292 1.85435 0
M  V30 2386 C 235.26 -0.357263 3.43246 0
M  V30 2387 C 234.373 0.599788 4.27816 0
M  V30 2388 C 233.508 -0.173725 5.30916 0
M  V30 2389 C 232.547 0.777039 6.07148 0
M  V30 2390 N 231.684 0.0371398 7.0209 0
M  V30 2391 H 236.524 1.24577 2.70711 0
M  V30 2392 H 234.061 0.625612 1.33133 0
M  V30 2393 H 236.019 -0.8113 4.09236 0
M  V30 2394 H 234.649 -1.16943 3.00872 0
M  V30 2395 H 233.701 1.17235 3.61884 0
M  V30 2396 H 235.013 1.32704 4.80823 0
M  V30 2397 H 234.167 -0.688394 6.02782 0
M  V30 2398 H 232.906 -0.934041 4.78672 0
M  V30 2399 H 231.911 1.3031 5.34134 0
M  V30 2400 H 233.136 1.53689 6.61481 0
M  V30 2401 H 231.082 -0.705213 6.52198 0
M  V30 2402 H 230.999 0.704249 7.52713 0
M  V30 2403 H 232.267 -0.457383 7.78157 0
M  V30 2404 N 236.496 -1.42363 0.676048 0
M  V30 2405 C 237.426 -2.33497 0.0124832 0
M  V30 2406 C 238.407 -1.50748 -0.787981 0
M  V30 2407 O 239.592 -1.79346 -0.744884 0
M  V30 2408 C 236.722 -3.34377 -0.938582 0
M  V30 2409 C 235.676 -4.27289 -0.246622 0
M  V30 2410 C 235.002 -5.18386 -1.31071 0
M  V30 2411 C 236.302 -5.14916 0.875125 0
M  V30 2412 H 237.996 -2.89233 0.773593 0
M  V30 2413 H 235.542 -1.39073 0.37346 0
M  V30 2414 H 237.495 -3.97044 -1.41188 0
M  V30 2415 H 236.219 -2.76947 -1.73113 0
M  V30 2416 H 234.878 -3.66018 0.206456 0
M  V30 2417 H 234.526 -4.57282 -2.09528 0
M  V30 2418 H 234.226 -5.81378 -0.852839 0
M  V30 2419 H 235.75 -5.83929 -1.78492 0
M  V30 2420 H 237.164 -5.71262 0.482983 0
M  V30 2421 H 235.561 -5.86747 1.25887 0
M  V30 2422 H 236.631 -4.53242 1.72335 0
M  V30 2423 N 237.974 -0.419461 -1.51915 0
M  V30 2424 C 239.202 0.152136 -2.0634 0
M  V30 2425 C 239.617 1.37988 -1.28859 0
M  V30 2426 O 238.974 1.79243 -0.343232 0
M  V30 2427 C 239.025 0.492266 -3.58133 0
M  V30 2428 O 238.746 -0.686736 -4.32684 0
M  V30 2429 C 240.247 1.11648 -4.2901 0
M  V30 2430 H 237.467 0.0158325 -0.670813 0
M  V30 2431 H 240.011 -0.593394 -1.95702 0
M  V30 2432 H 238.166 1.18769 -3.68745 0
M  V30 2433 H 238.58 -0.400341 -5.2297 0
M  V30 2434 H 240.054 1.3046 -5.36362 0
M  V30 2435 H 240.531 2.09251 -3.86148 0
M  V30 2436 H 241.137 0.460958 -4.22795 0
M  V30 2437 N 239.452 1.56882 -0.150215 0
M  V30 2438 C 240.382 2.19935 0.784284 0
M  V30 2439 C 241.363 1.14854 1.25469 0
M  V30 2440 O 242.548 1.43209 1.31168 0
M  V30 2441 C 239.678 2.82349 2.02229 0
M  V30 2442 C 238.632 3.93285 1.68853 0
M  V30 2443 C 237.958 4.42649 2.99944 0
M  V30 2444 C 239.258 5.13904 0.932714 0
M  V30 2445 H 240.952 2.9828 0.258781 0
M  V30 2446 H 238.498 1.43473 0.123029 0
M  V30 2447 H 240.451 3.25126 2.68088 0
M  V30 2448 H 239.175 2.0134 2.57157 0
M  V30 2449 H 237.834 3.5113 1.05371 0
M  V30 2450 H 237.482 3.58458 3.52869 0
M  V30 2451 H 237.182 5.17476 2.78374 0
M  V30 2452 H 238.706 4.88099 3.66868 0
M  V30 2453 H 240.12 5.53506 1.49345 0
M  V30 2454 H 238.517 5.94515 0.81684 0
M  V30 2455 H 239.587 4.84842 -0.0749568 0
M  V30 2456 N 240.93 -0.123565 1.57115 0
M  V30 2457 C 241.877 -1.15177 2.00007 0
M  V30 2458 C 242.847 -1.41403 0.871454 0
M  V30 2459 O 244.032 -1.53346 1.13533 0
M  V30 2460 C 241.172 -2.47436 2.40561 0
M  V30 2461 C 240.285 -2.28184 3.66819 0
M  V30 2462 C 239.42 -3.53641 3.96373 0
M  V30 2463 C 238.459 -3.29528 5.15827 0
M  V30 2464 N 237.596 -4.47175 5.41275 0
M  V30 2465 H 242.436 -0.779008 2.87638 0
M  V30 2466 H 239.973 -0.373166 1.42288 0
M  V30 2467 H 241.931 -3.24584 2.62109 0
M  V30 2468 H 240.561 -2.82614 1.55978 0
M  V30 2469 H 239.613 -1.41976 3.52912 0
M  V30 2470 H 240.925 -2.0634 4.5412 0
M  V30 2471 H 240.079 -4.39209 4.18545 0
M  V30 2472 H 238.818 -3.78512 3.07538 0
M  V30 2473 H 237.823 -2.42349 4.93505 0
M  V30 2474 H 239.048 -3.06031 6.06236 0
M  V30 2475 H 236.994 -4.72175 4.55397 0
M  V30 2476 H 236.911 -4.28419 6.22891 0
M  V30 2477 H 238.179 -5.3389 5.67963 0
M  V30 2478 N 242.408 -1.52605 -0.393616 0
M  V30 2479 C 243.636 -1.71294 -1.16043 0
M  V30 2480 C 244.051 -0.429259 -1.83855 0
M  V30 2481 O 243.408 0.595921 -1.72496 0
M  V30 2482 C 243.459 -2.8593 -2.21193 0
M  V30 2483 O 243.18 -4.09329 -1.56146 0
M  V30 2484 C 244.681 -3.16259 -3.10636 0
M  V30 2485 H 241.901 -0.573641 -0.348104 0
M  V30 2486 H 244.445 -1.99234 -0.461092 0
M  V30 2487 H 242.6 -2.60465 -2.86769 0
M  V30 2488 H 243.014 -4.73323 -2.25978 0
M  V30 2489 H 244.488 -3.99946 -3.80456 0
M  V30 2490 H 244.965 -2.3045 -3.73884 0
M  V30 2491 H 245.571 -3.43547 -2.50711 0
M  V30 2492 N 243.887 0.651787 -1.4349 0
M  V30 2493 C 245.115 1.43937 -1.48626 0
M  V30 2494 C 245.53 1.8851 -0.104587 0
M  V30 2495 O 244.887 1.5958 0.885464 0
M  V30 2496 C 244.938 2.6734 -2.43334 0
M  V30 2497 O 244.659 2.24631 -3.76128 0
M  V30 2498 C 246.16 3.60683 -2.57726 0
M  V30 2499 H 243.38 0.44213 -0.504739 0
M  V30 2500 H 245.924 0.798944 -1.88248 0
M  V30 2501 H 244.079 3.2752 -2.06904 0
M  V30 2502 H 244.493 3.04485 -4.2707 0
M  V30 2503 H 245.967 4.43933 -3.28067 0
M  V30 2504 H 246.444 4.08126 -1.62265 0
M  V30 2505 H 247.05 3.06384 -2.94973 0
M  V30 2506 N 245.365 1.30045 0.890287 0
M  V30 2507 C 246.275 1.17885 2.02831 0
M  V30 2508 C 247.291 0.0999609 1.73713 0
M  V30 2509 O 248.467 0.313867 1.98939 0
M  V30 2510 C 245.532 0.866079 3.35708 0
M  V30 2511 C 244.593 2.02979 3.78283 0
M  V30 2512 C 243.826 1.73184 5.0482 0
M  V30 2513 O 244.049 0.657237 5.66601 0
M  V30 2514 O 242.983 2.58267 5.43674 0
M  V30 2515 H 246.809 2.13474 2.16015 0
M  V30 2516 H 244.394 1.09587 1.01543 0
M  V30 2517 H 246.276 0.706623 4.15433 0
M  V30 2518 H 244.951 -0.0599443 3.23644 0
M  V30 2519 H 243.858 2.24454 2.99285 0
M  V30 2520 H 245.191 2.93734 3.94944 0
M  V30 2521 N 246.843 -1.10192 1.12674 0
M  V30 2522 C 247.776 -2.15847 0.740625 0
M  V30 2523 C 248.754 -1.60352 -0.269421 0
M  V30 2524 O 249.938 -1.87796 -0.16278 0
M  V30 2525 C 247.065 -3.38562 0.096641 0
M  V30 2526 C 246.111 -4.12758 1.07391 0
M  V30 2527 S 246.944 -4.67997 2.60267 0
M  V30 2528 C 248.1 -5.94021 1.97206 0
M  V30 2529 H 248.333 -2.48266 1.63558 0
M  V30 2530 H 245.866 -1.22019 0.946087 0
M  V30 2531 H 247.824 -4.09621 -0.268535 0
M  V30 2532 H 246.485 -3.04377 -0.775462 0
M  V30 2533 H 245.678 -5.00755 0.570997 0
M  V30 2534 H 245.28 -3.47523 1.38216 0
M  V30 2535 H 247.572 -6.64589 1.31634 0
M  V30 2536 H 248.515 -6.48979 2.83253 0
M  V30 2537 H 248.923 -5.46169 1.42686 0
M  V30 2538 N 248.321 -0.919034 -1.28029 0
M  V30 2539 C 249.231 -0.416756 -2.30869 0
M  V30 2540 C 250.247 0.498235 -1.66714 0
M  V30 2541 O 251.423 0.383144 -1.97722 0
M  V30 2542 C 248.488 0.330274 -3.45123 0
M  V30 2543 C 247.549 -0.618578 -4.2482 0
M  V30 2544 C 246.782 0.0928959 -5.33619 0
M  V30 2545 O 247.005 1.31375 -5.55065 0
M  V30 2546 O 245.939 -0.574499 -5.99152 0
M  V30 2547 H 249.765 -1.27043 -2.75851 0
M  V30 2548 H 247.35 -0.684052 -1.3282 0
M  V30 2549 H 249.232 0.751972 -4.14636 0
M  V30 2550 H 247.907 1.1597 -3.02213 0
M  V30 2551 H 246.814 -1.08978 -3.57875 0
M  V30 2552 H 248.147 -1.41497 -4.71423 0
M  V30 2553 N 249.799 1.42003 -0.683588 0
M  V30 2554 C 251.027 2.05746 -0.218182 0
M  V30 2555 C 251.442 1.51396 1.12804 0
M  V30 2556 O 250.799 0.657303 1.70252 0
M  V30 2557 C 250.85 3.61171 -0.154131 0
M  V30 2558 O 250.571 4.13508 -1.44716 0
M  V30 2559 C 252.072 4.42042 0.333713 0
M  V30 2560 H 249.292 0.662888 -0.10402 0
M  V30 2561 H 251.836 1.81987 -0.9328 0
M  V30 2562 H 249.991 3.84012 0.511231 0
M  V30 2563 H 250.405 5.07453 -1.32632 0
M  V30 2564 H 251.879 5.51028 0.327423 0
M  V30 2565 H 252.356 4.17269 1.37053 0
M  V30 2566 H 252.962 4.24239 -0.300222 0
M  V30 2567 N 251.277 0.427512 1.51691 0
M  V30 2568 C 252.526 -0.143679 2.01188 0
M  V30 2569 C 252.839 -1.44642 1.31674 0
M  V30 2570 O 254.045 -2.09997 1.72086 0
M  V30 2571 C 252.501 -0.306602 3.58592 0
M  V30 2572 C 252.109 0.985125 4.37035 0
M  V30 2573 C 253.853 -0.832091 4.16265 0
M  V30 2574 C 251.76 0.788382 5.86122 0
M  V30 2575 H 250.69 -0.0574701 0.751807 0
M  V30 2576 H 253.341 0.555772 1.74881 0
M  V30 2577 H 251.723 -1.06882 3.81303 0
M  V30 2578 H 252.897 1.75492 4.26074 0
M  V30 2579 H 251.212 1.4384 3.90767 0
M  V30 2580 H 253.809 -0.995617 5.25349 0
M  V30 2581 H 254.152 -1.81186 3.74803 0
M  V30 2582 H 254.685 -0.128444 3.97593 0
M  V30 2583 H 251.424 1.74025 6.31978 0
M  V30 2584 H 250.944 0.0582143 5.99772 0
M  V30 2585 H 252.623 0.437722 6.45518 0
M  V30 2586 N 252.755 -1.56801 0.158532 0
M  V30 2587 C 253.985 -2.00568 -0.495583 0
M  V30 2588 C 254.393 -1.03774 -1.58201 0
M  V30 2589 O 253.736 -0.0285797 -1.83678 0
M  V30 2590 C 253.798 -3.40768 -1.14532 0
M  V30 2591 C 253.462 -4.56553 -0.202101 0
M  V30 2592 C 254.459 -5.16714 0.574675 0
M  V30 2593 C 252.144 -5.02197 -0.101648 0
M  V30 2594 C 254.138 -6.20939 1.43924 0
M  V30 2595 C 251.825 -6.06274 0.766508 0
M  V30 2596 C 252.823 -6.65515 1.53555 0
M  V30 2597 O 252.511 -7.67575 2.38922 0
M  V30 2598 H 252.243 -0.662893 -0.13247 0
M  V30 2599 H 254.797 -2.03829 0.253559 0
M  V30 2600 H 253.027 -3.34381 -1.94233 0
M  V30 2601 H 254.716 -3.6857 -1.70033 0
M  V30 2602 H 255.482 -4.82341 0.507167 0
M  V30 2603 H 251.361 -4.55807 -0.689994 0
M  V30 2604 H 254.905 -6.67107 2.03996 0
M  V30 2605 H 250.802 -6.40073 0.835266 0
M  V30 2606 H 251.57 -7.84844 2.32296 0
M  V30 2607 N 254.233 0.115231 -1.57178 0
M  V30 2608 C 255.51 0.852873 -1.76027 0
M  V30 2609 C 255.89 1.97892 -0.73498 0
M  V30 2610 O 255.238 2.27232 0.24036 0
M  V30 2611 C 255.448 1.36608 -3.21153 0
M  V30 2612 C 256.796 1.81692 -3.83762 0
M  V30 2613 O 257.82 1.46278 -3.24779 0
M  V30 2614 O 256.679 2.47104 -4.87444 0
M  V30 2615 H 253.773 0.405296 -0.720877 0
M  V30 2616 H 256.319 0.0986785 -1.69413 0
M  V30 2617 H 255.091 0.558357 -3.87296 0
M  V30 2618 H 254.714 2.18287 -3.3232 0
M  V30 2619 N 255.711 1.52812 0.385517 0
M  V30 2620 C 256.641 1.80808 1.47752 0
M  V30 2621 C 257.622 0.660318 1.5676 0
M  V30 2622 O 258.807 0.908246 1.71652 0
M  V30 2623 C 255.937 1.98008 2.85324 0
M  V30 2624 C 254.891 3.13709 2.91154 0
M  V30 2625 C 254.217 3.16169 4.31209 0
M  V30 2626 C 255.517 4.52709 2.60483 0
M  V30 2627 H 257.211 2.72253 1.24573 0
M  V30 2628 H 254.757 1.31003 0.597839 0
M  V30 2629 H 256.71 2.16176 3.61726 0
M  V30 2630 H 255.434 1.03255 3.09848 0
M  V30 2631 H 254.093 2.95329 2.17201 0
M  V30 2632 H 253.741 2.19092 4.52778 0
M  V30 2633 H 253.441 3.93894 4.36029 0
M  V30 2634 H 254.965 3.36496 5.09512 0
M  V30 2635 H 256.379 4.71173 3.26602 0
M  V30 2636 H 254.776 5.32528 2.76648 0
M  V30 2637 H 255.846 4.59186 1.55809 0
M  V30 2638 N 257.189 -0.644168 1.43834 0
M  V30 2639 C 258.437 -1.40117 1.45642 0
M  V30 2640 C 258.758 -1.94814 0.0852413 0
M  V30 2641 O 258.028 -1.74988 -0.880688 0
M  V30 2642 H 256.608 -0.52005 0.536243 0
M  V30 2643 H 259.27 -0.7591 1.7951 0
M  V30 2644 H 258.366 -2.23902 2.17427 0
M  V30 2645 N 258.668 -1.30515 -0.883378 0
M  V30 2646 C 259.896 -1.22359 -1.66841 0
M  V30 2647 C 260.311 0.213296 -1.87591 0
M  V30 2648 O 259.668 1.14075 -1.42454 0
M  V30 2649 C 259.719 -1.95011 -3.04389 0
M  V30 2650 O 259.44 -3.3309 -2.84575 0
M  V30 2651 C 260.941 -1.93532 -3.98824 0
M  V30 2652 H 258.161 -0.423371 -0.520575 0
M  V30 2653 H 260.705 -1.72167 -1.10357 0
M  V30 2654 H 258.86 -1.48997 -3.57601 0
M  V30 2655 H 259.274 -3.69907 -3.71846 0
M  V30 2656 H 260.748 -2.48902 -4.92699 0
M  V30 2657 H 261.225 -0.914627 -4.29571 0
M  V30 2658 H 261.831 -2.39364 -3.51547 0
M  V30 2659 N 260.146 1.09593 -1.13257 0
M  V30 2660 C 261.093 2.1618 -0.808381 0
M  V30 2661 C 262.063 1.64517 0.228754 0
M  V30 2662 O 263.248 1.9053 0.101381 0
M  V30 2663 C 260.388 3.43973 -0.278675 0
M  V30 2664 C 259.501 4.09545 -1.37466 0
M  V30 2665 C 258.636 5.25088 -0.803479 0
M  V30 2666 C 257.675 5.82579 -1.87799 0
M  V30 2667 N 256.812 6.89486 -1.32488 0
M  V30 2668 H 261.652 2.43254 -1.72138 0
M  V30 2669 H 259.189 1.19392 -0.859294 0
M  V30 2670 H 261.147 4.17174 0.0465583 0
M  V30 2671 H 259.777 3.17223 0.597459 0
M  V30 2672 H 258.829 3.34226 -1.81652 0
M  V30 2673 H 260.141 4.48307 -2.18684 0
M  V30 2674 H 259.295 6.05178 -0.429427 0
M  V30 2675 H 258.034 4.87684 0.0397956 0
M  V30 2676 H 257.039 5.01152 -2.26113 0
M  V30 2677 H 258.264 6.22045 -2.72463 0
M  V30 2678 H 256.21 6.54064 -0.503575 0
M  V30 2679 H 256.127 7.27007 -2.07355 0
M  V30 2680 H 257.395 7.73336 -0.978336 0
M  V30 2681 N 261.624 0.925811 1.2754 0
M  V30 2682 C 262.557 0.367836 2.25216 0
M  V30 2683 C 263.535 -0.534738 1.53556 0
M  V30 2684 O 264.719 -0.475672 1.824 0
M  V30 2685 C 261.846 -0.47298 3.35381 0
M  V30 2686 C 260.892 0.365898 4.24928 0
M  V30 2687 S 261.725 1.78025 5.05042 0
M  V30 2688 C 262.881 0.947068 6.18693 0
M  V30 2689 H 263.114 1.19568 2.72196 0
M  V30 2690 H 260.647 0.727867 1.36167 0
M  V30 2691 H 262.605 -0.952242 3.99303 0
M  V30 2692 H 261.266 -1.27533 2.87044 0
M  V30 2693 H 260.459 -0.277582 5.03235 0
M  V30 2694 H 260.061 0.779261 3.65792 0
M  V30 2695 H 262.353 0.182201 6.77255 0
M  V30 2696 H 263.296 1.70309 6.87314 0
M  V30 2697 H 263.704 0.489913 5.6237 0
M  V30 2698 N 263.102 -1.41638 0.69111 0
M  V30 2699 C 264.351 -2.00526 0.217318 0
M  V30 2700 C 264.664 -1.55353 -1.18848 0
M  V30 2701 O 265.87 -2.06769 -1.75951 0
M  V30 2702 C 264.326 -3.58313 0.337639 0
M  V30 2703 C 263.934 -4.12469 1.74852 0
M  V30 2704 C 265.678 -4.24431 -0.0766066 0
M  V30 2705 C 263.585 -5.62675 1.82074 0
M  V30 2706 H 262.515 -0.750008 0.0774893 0
M  V30 2707 H 265.166 -1.6217 0.858661 0
M  V30 2708 H 263.548 -3.9425 -0.371879 0
M  V30 2709 H 264.722 -3.8796 2.48644 0
M  V30 2710 H 263.037 -3.58861 2.11205 0
M  V30 2711 H 265.634 -5.34683 -0.0430284 0
M  V30 2712 H 265.977 -4.01101 -1.1146 0
M  V30 2713 H 266.51 -3.93512 0.582476 0
M  V30 2714 H 263.249 -5.90826 2.83911 0
M  V30 2715 H 262.769 -5.89124 1.12661 0
M  V30 2716 H 264.448 -6.27371 1.58159 0
M  V30 2717 N 264.58 -0.43555 -1.51462 0
M  V30 2718 C 265.49 0.383001 -2.31453 0
M  V30 2719 C 266.506 1.02931 -1.4029 0
M  V30 2720 O 267.682 1.02507 -1.73362 0
M  V30 2721 C 264.747 1.47043 -3.13973 0
M  V30 2722 C 263.808 0.844433 -4.20913 0
M  V30 2723 C 263.041 1.88004 -4.9949 0
M  V30 2724 O 263.264 3.10199 -4.78678 0
M  V30 2725 O 262.198 1.47157 -5.83634 0
M  V30 2726 H 266.024 -0.269964 -3.02498 0
M  V30 2727 H 263.609 -0.19813 -1.4808 0
M  V30 2728 H 265.491 2.10113 -3.65281 0
M  V30 2729 H 264.166 2.10751 -2.45695 0
M  V30 2730 H 263.073 0.175729 -3.73687 0
M  V30 2731 H 264.406 0.250869 -4.9156 0
M  V30 2732 N 266.058 1.56714 -0.166846 0
M  V30 2733 C 267.283 2.01557 0.488833 0
M  V30 2734 C 267.708 1.0463 1.56314 0
M  V30 2735 O 267.066 0.0251304 1.81283 0
M  V30 2736 C 267.114 3.4503 1.04818 0
M  V30 2737 O 266.218 3.51163 2.16236 0
M  V30 2738 H 265.559 0.653516 0.117526 0
M  V30 2739 H 268.089 2.02818 -0.269421 0
M  V30 2740 H 268.099 3.84243 1.37191 0
M  V30 2741 H 266.774 4.15077 0.261572 0
M  V30 2742 H 265.351 3.23807 1.84942 0
M  V30 2743 N 267.536 -0.106894 1.57237 0
M  V30 2744 C 268.466 -1.13148 2.04254 0
M  V30 2745 C 269.447 -1.42476 0.929224 0
M  V30 2746 O 270.632 -1.52709 1.19973 0
M  V30 2747 C 267.762 -2.4545 2.45706 0
M  V30 2748 C 266.716 -2.30558 3.60592 0
M  V30 2749 C 266.042 -3.67931 3.87983 0
M  V30 2750 C 267.342 -1.75597 4.91897 0
M  V30 2751 H 269.036 -0.740374 2.90101 0
M  V30 2752 H 266.582 -0.354696 1.39563 0
M  V30 2753 H 268.535 -3.17389 2.77205 0
M  V30 2754 H 267.259 -2.86475 1.56843 0
M  V30 2755 H 265.918 -1.61067 3.29322 0
M  V30 2756 H 265.566 -4.06462 2.96306 0
M  V30 2757 H 265.266 -3.58817 4.65322 0
M  V30 2758 H 266.79 -4.41356 4.21945 0
M  V30 2759 H 268.204 -2.37364 5.21854 0
M  V30 2760 H 266.601 -1.77272 5.73319 0
M  V30 2761 H 267.671 -0.714451 4.79608 0
M  V30 2762 N 269.014 -1.53014 -0.377408 0
M  V30 2763 C 270.242 -1.72515 -1.14219 0
M  V30 2764 C 270.657 -0.448735 -1.8339 0
M  V30 2765 O 270.014 0.577592 -1.73119 0
M  V30 2766 C 270.065 -2.8826 -2.18148 0
M  V30 2767 O 269.786 -4.10962 -1.51795 0
M  V30 2768 C 271.287 -3.19536 -3.07264 0
M  V30 2769 H 268.507 -0.577301 -0.342001 0
M  V30 2770 H 271.051 -1.99712 -0.439935 0
M  V30 2771 H 269.206 -2.63492 -2.83991 0
M  V30 2772 H 269.62 -4.75693 -2.20945 0
M  V30 2773 H 271.094 -4.03959 -3.76193 0
M  V30 2774 H 271.571 -2.34403 -3.71419 0
M  V30 2775 H 272.177 -3.46186 -2.47053 0
M  V30 2776 N 270.492 0.636531 -1.44174 0
M  V30 2777 C 271.439 1.74875 -1.50624 0
M  V30 2778 C 272.409 1.62275 -0.35442 0
M  V30 2779 O 273.594 1.82276 -0.563908 0
M  V30 2780 C 270.734 3.13102 -1.45125 0
M  V30 2781 C 269.847 3.36717 -2.7064 0
M  V30 2782 C 268.982 4.64885 -2.57013 0
M  V30 2783 C 268.021 4.8166 -3.77717 0
M  V30 2784 N 267.158 6.01101 -3.62798 0
M  V30 2785 H 271.998 1.68697 -2.45653 0
M  V30 2786 H 269.535 0.823004 -1.21922 0
M  V30 2787 H 271.493 3.93034 -1.39929 0
M  V30 2788 H 270.123 3.18308 -0.536671 0
M  V30 2789 H 269.175 2.50763 -2.86046 0
M  V30 2790 H 270.487 3.44993 -3.60252 0
M  V30 2791 H 269.641 5.52969 -2.49619 0
M  V30 2792 H 268.38 4.58957 -1.64953 0
M  V30 2793 H 267.385 3.92007 -3.85501 0
M  V30 2794 H 268.61 4.89406 -4.70807 0
M  V30 2795 H 266.556 5.96273 -2.73486 0
M  V30 2796 H 266.473 6.10409 -4.46023 0
M  V30 2797 H 267.741 6.91761 -3.59286 0
M  V30 2798 N 271.97 1.30982 0.876444 0
M  V30 2799 C 273.247 1.10942 1.61094 0
M  V30 2800 C 273.627 -0.338223 2.08373 0
M  V30 2801 O 272.975 -1.33122 1.85717 0
M  V30 2802 C 273.185 2.11789 2.77392 0
M  V30 2803 C 274.533 2.43965 3.47514 0
M  V30 2804 O 275.557 2.10166 2.87591 0
M  V30 2805 O 274.416 3.01817 4.55597 0
M  V30 2806 H 271.51 0.42667 0.708436 0
M  V30 2807 H 274.056 1.42438 0.922474 0
M  V30 2808 H 272.828 3.09194 2.39823 0
M  V30 2809 H 272.451 1.81161 3.5393 0
M  V30 2810 N 273.449 -1.08991 1.13837 0
M  V30 2811 C 274.396 -2.15748 0.819835 0
M  V30 2812 C 275.366 -1.64636 -0.220026 0
M  V30 2813 O 276.551 -1.90582 -0.0912757 0
M  V30 2814 C 273.691 -3.4382 0.296913 0
M  V30 2815 C 272.804 -4.0881 1.39636 0
M  V30 2816 C 271.939 -5.24655 0.831314 0
M  V30 2817 C 270.978 -5.81575 1.90886 0
M  V30 2818 N 270.115 -6.88774 1.36142 0
M  V30 2819 H 274.955 -2.42338 1.73426 0
M  V30 2820 H 272.492 -1.18935 0.865613 0
M  V30 2821 H 274.45 -4.17193 -0.0244339 0
M  V30 2822 H 273.08 -3.17535 -0.580628 0
M  V30 2823 H 272.132 -3.33258 1.83422 0
M  V30 2824 H 273.444 -4.47141 2.21058 0
M  V30 2825 H 272.598 -6.04942 0.461515 0
M  V30 2826 H 271.337 -4.87698 -0.013932 0
M  V30 2827 H 270.342 -4.99946 2.28767 0
M  V30 2828 H 271.567 -6.20592 2.75758 0
M  V30 2829 H 269.513 -6.53788 0.538254 0
M  V30 2830 H 269.43 -7.25898 2.11208 0
M  V30 2831 H 270.698 -7.72806 1.01933 0
M  V30 2832 N 274.927 -0.932562 -1.27047 0
M  V30 2833 C 276.173 -0.576412 -1.94436 0
M  V30 2834 C 276.506 0.880891 -1.73072 0
M  V30 2835 O 275.781 1.62905 -1.06264 0
M  V30 2836 C 276.064 -0.909031 -3.48437 0
M  V30 2837 C 275.917 -2.42044 -3.79123 0
M  V30 2838 C 277.236 -0.418341 -4.38107 0
M  V30 2839 H 274.355 -0.210888 -0.706184 0
M  V30 2840 H 276.997 -1.16522 -1.50075 0
M  V30 2841 H 275.147 -0.407947 -3.86352 0
M  V30 2842 H 276.819 -2.99359 -3.50973 0
M  V30 2843 H 275.062 -2.86758 -3.25503 0
M  V30 2844 H 275.733 -2.6037 -4.86736 0
M  V30 2845 H 278.209 -0.847856 -4.0737 0
M  V30 2846 H 277.085 -0.679981 -5.44672 0
M  V30 2847 H 277.346 0.681642 -4.36814 0
M  V30 2848 N 276.405 1.4127 -0.698611 0
M  V30 2849 C 277.337 2.292 0.00399731 0
M  V30 2850 C 278.35 1.44944 0.741279 0
M  V30 2851 O 279.539 1.68416 0.591477 0
M  V30 2852 C 276.639 3.22875 1.02979 0
M  V30 2853 C 275.812 4.35904 0.36151 0
M  V30 2854 C 274.871 5.10134 1.29033 0
M  V30 2855 O 273.897 5.63809 0.781562 0
M  V30 2856 N 275.099 5.17885 2.6225 0
M  V30 2857 H 277.864 2.9014 -0.750921 0
M  V30 2858 H 275.425 1.52455 -0.544882 0
M  V30 2859 H 277.417 3.69404 1.65296 0
M  V30 2860 H 275.987 2.63221 1.68622 0
M  V30 2861 H 275.207 3.91719 -0.441584 0
M  V30 2862 H 276.495 5.08696 -0.103055 0
M  V30 2863 H 275.893 4.7573 3.061 0
M  V30 2864 H 274.45 5.6798 3.19754 0
M  V30 2865 N 277.883 0.443576 1.51229 0
M  V30 2866 C 278.846 -0.353132 2.26463 0
M  V30 2867 C 279.846 -0.944338 1.3015 0
M  V30 2868 O 281.036 -0.817813 1.5381 0
M  V30 2869 C 278.168 -1.50023 3.06114 0
M  V30 2870 H 279.361 0.3063 2.98332 0
M  V30 2871 H 276.914 0.196902 1.55055 0
M  V30 2872 H 277.649 -2.19553 2.38677 0
M  V30 2873 H 277.434 -1.08241 3.76864 0
M  V30 2874 H 278.924 -2.06296 3.63087 0
M  V30 2875 N 279.361 -1.56624 0.175154 0
M  V30 2876 C 280.609 -1.96609 -0.467885 0
M  V30 2877 C 280.93 -1.06238 -1.63519 0
M  V30 2878 O 280.2 -0.129523 -1.95471 0
M  V30 2879 H 278.78 -0.726008 -0.175845 0
M  V30 2880 H 281.442 -1.93195 0.257234 0
M  V30 2881 H 280.538 -3.00989 -0.825342 0
M  V30 2882 N 280.839 0.0985539 -1.57292 0
M  V30 2883 C 282.116 0.834155 -1.76921 0
M  V30 2884 C 282.496 1.97101 -0.755928 0
M  V30 2885 O 281.844 2.27474 0.216245 0
M  V30 2886 C 282.054 1.33194 -3.22584 0
M  V30 2887 C 283.402 1.77611 -3.85668 0
M  V30 2888 O 284.426 1.42825 -3.26312 0
M  V30 2889 O 283.285 2.4192 -4.90038 0
M  V30 2890 H 280.379 0.397628 -0.725135 0
M  V30 2891 H 282.925 0.0807044 -1.69508 0
M  V30 2892 H 281.697 0.517248 -3.87866 0
M  V30 2893 H 281.32 2.1475 -3.34616 0
M  V30 2894 N 282.317 1.53212 0.369288 0
M  V30 2895 C 283.563 1.69466 1.11397 0
M  V30 2896 C 283.896 0.443257 1.89074 0
M  V30 2897 O 283.171 -0.559386 1.86282 0
M  V30 2898 C 283.454 2.9422 2.07621 0
M  V30 2899 C 283.307 4.29508 1.33577 0
M  V30 2900 C 284.626 3.14565 3.07794 0
M  V30 2901 H 281.745 0.616667 0.403597 0
M  V30 2902 H 284.387 1.85845 0.395179 0
M  V30 2903 H 282.537 2.80387 2.68916 0
M  V30 2904 H 284.209 4.55147 0.750955 0
M  V30 2905 H 282.452 4.29088 0.637618 0
M  V30 2906 H 283.123 5.12926 2.03989 0
M  V30 2907 H 285.599 3.2756 2.56601 0
M  V30 2908 H 284.475 4.03297 3.72348 0
M  V30 2909 H 284.736 2.29675 3.77759 0
M  V30 2910 N 283.795 -0.628877 1.44509 0
M  V30 2911 C 285.044 -1.38437 1.4669 0
M  V30 2912 C 285.357 -1.95322 0.104272 0
M  V30 2913 O 286.563 -2.715 0.00362163 0
M  V30 2914 C 285.019 -2.50659 2.5826 0
M  V30 2915 C 284.627 -2.00277 4.0074 0
M  V30 2916 C 286.371 -3.27844 2.69664 0
M  V30 2917 C 284.278 -3.09854 5.0373 0
M  V30 2918 H 283.208 -0.520245 0.545766 0
M  V30 2919 H 285.859 -0.676313 1.70582 0
M  V30 2920 H 284.241 -3.2405 2.27612 0
M  V30 2921 H 285.415 -1.33736 4.40966 0
M  V30 2922 H 283.73 -1.35901 3.93599 0
M  V30 2923 H 286.327 -4.09534 3.43781 0
M  V30 2924 H 286.67 -3.77471 1.75559 0
M  V30 2925 H 287.203 -2.61543 2.99733 0
M  V30 2926 H 283.942 -2.65168 5.99472 0
M  V30 2927 H 283.462 -3.7503 4.68095 0
M  V30 2928 H 285.141 -3.74592 5.27532 0
M  V30 2929 N 285.273 -1.31445 -0.869486 0
M  V30 2930 C 286.501 -1.24122 -1.65534 0
M  V30 2931 C 286.916 0.193387 -1.87807 0
M  V30 2932 O 286.273 1.12557 -1.43656 0
M  V30 2933 C 286.324 -1.98229 -3.02304 0
M  V30 2934 O 286.045 -3.3609 -2.81026 0
M  V30 2935 C 287.546 -1.97751 -3.96749 0
M  V30 2936 H 284.766 -0.428868 -0.516055 0
M  V30 2937 H 287.31 -1.73328 -1.08525 0
M  V30 2938 H 285.465 -1.52782 -3.56001 0
M  V30 2939 H 285.879 -3.7383 -3.67902 0
M  V30 2940 H 287.353 -2.54114 -4.90031 0
M  V30 2941 H 287.83 -0.960137 -4.28577 0
M  V30 2942 H 288.436 -2.43079 -3.48988 0
M  V30 2943 N 286.751 1.08385 -1.14413 0
M  V30 2944 C 288 1.80153 -0.907076 0
M  V30 2945 C 288.313 1.87176 0.567851 0
M  V30 2946 O 289.519 2.55359 0.922172 0
M  V30 2947 C 287.975 3.23687 -1.57336 0
M  V30 2948 C 287.583 3.24897 -3.08457 0
M  V30 2949 C 289.327 4.00136 -1.41744 0
M  V30 2950 C 287.234 4.6302 -3.67921 0
M  V30 2951 H 286.164 0.675139 -0.335714 0
M  V30 2952 H 288.815 1.21733 -1.37307 0
M  V30 2953 H 287.197 3.82234 -1.03505 0
M  V30 2954 H 288.371 2.76055 -3.68958 0
M  V30 2955 H 286.686 2.61943 -3.2369 0
M  V30 2956 H 289.283 5.02201 -1.83572 0
M  V30 2957 H 289.626 4.14709 -0.363576 0
M  V30 2958 H 290.159 3.48058 -1.92614 0
M  V30 2959 H 286.898 4.5365 -4.73161 0
M  V30 2960 H 286.418 5.12143 -3.12201 0
M  V30 2961 H 288.097 5.31994 -3.68227 0
M  V30 2962 N 288.23 0.939286 1.26551 0
M  V30 2963 C 289.507 0.5038 1.89001 0
M  V30 2964 C 289.887 -1.01854 1.84903 0
M  V30 2965 O 289.235 -1.87773 1.30206 0
M  V30 2966 C 289.445 1.063 3.32417 0
M  V30 2967 C 290.793 1.13051 4.09273 0
M  V30 2968 O 291.817 1.01345 3.41479 0
M  V30 2969 O 290.676 1.31233 5.30509 0
M  V30 2970 H 287.77 0.163897 0.810597 0
M  V30 2971 H 290.316 1.03173 1.34735 0
M  V30 2972 H 289.088 2.10665 3.29752 0
M  V30 2973 H 288.711 0.517408 3.94219 0
M  V30 2974 N 289.708 -1.40897 0.706093 0
M  V30 2975 C 290.655 -2.30751 0.0474474 0
M  V30 2976 C 291.625 -1.47678 -0.76029 0
M  V30 2977 O 292.81 -1.76441 -0.726177 0
M  V30 2978 C 289.95 -3.33815 -0.875309 0
M  V30 2979 C 289.063 -4.31961 -0.0580623 0
M  V30 2980 C 288.198 -5.22093 -0.979425 0
M  V30 2981 C 287.237 -6.11902 -0.155706 0
M  V30 2982 N 286.374 -6.94482 -1.03144 0
M  V30 2983 H 291.214 -2.86513 0.819413 0
M  V30 2984 H 288.751 -1.41102 0.415783 0
M  V30 2985 H 290.709 -3.92129 -1.42446 0
M  V30 2986 H 289.339 -2.79579 -1.61356 0
M  V30 2987 H 288.391 -3.75507 0.608147 0
M  V30 2988 H 289.703 -4.95415 0.580082 0
M  V30 2989 H 288.857 -5.85292 -1.59744 0
M  V30 2990 H 287.596 -4.5889 -1.65141 0
M  V30 2991 H 286.601 -5.47742 0.475309 0
M  V30 2992 H 287.826 -6.77162 0.512635 0
M  V30 2993 H 285.772 -6.33877 -1.68924 0
M  V30 2994 H 285.689 -7.54665 -0.449108 0
M  V30 2995 H 286.957 -7.6214 -1.63593 0
M  V30 2996 N 291.186 -0.45159 -1.50991 0
M  V30 2997 C 292.149 0.341117 -2.26647 0
M  V30 2998 C 293.149 0.937422 -1.30649 0
M  V30 2999 O 294.339 0.809644 -1.54241 0
M  V30 3000 C 291.471 1.48398 -3.06905 0
M  V30 3001 H 292.664 -0.322117 -2.98165 0
M  V30 3002 H 290.217 -0.205122 -1.54948 0
M  V30 3003 H 290.952 2.18284 -2.39838 0
M  V30 3004 H 290.737 1.06241 -3.77432 0
M  V30 3005 H 292.227 2.04367 -3.64176 0
M  V30 3006 N 292.664 1.56529 -0.183458 0
M  V30 3007 C 293.892 2.01623 0.464285 0
M  V30 3008 C 294.307 1.06366 1.55986 0
M  V30 3009 O 293.664 0.0665398 1.82379 0
M  V30 3010 C 293.715 3.46475 1.03139 0
M  V30 3011 O 293.436 4.38095 -0.0204675 0
M  V30 3012 C 294.937 4.0703 1.75617 0
M  V30 3013 H 292.157 0.660596 0.117704 0
M  V30 3014 H 294.701 2.02451 -0.288751 0
M  V30 3015 H 292.856 3.46383 1.73486 0
M  V30 3016 H 293.27 5.22973 0.399952 0
M  V30 3017 H 294.744 5.10271 2.10542 0
M  V30 3018 H 295.221 3.49819 2.65563 0
M  V30 3019 H 295.827 4.1086 1.09882 0
M  V30 3020 N 294.142 -0.090211 1.57342 0
M  V30 3021 C 295.39 -0.791241 1.85967 0
M  V30 3022 C 295.711 -1.7903 0.772859 0
M  V30 3023 O 294.981 -1.94872 -0.200398 0
M  V30 3024 H 293.561 -0.295205 0.686195 0
M  V30 3025 H 296.223 -0.0706782 1.94772 0
M  V30 3026 H 295.319 -1.31882 2.82867 0
M  V30 3027 N 295.62 -1.53406 -0.361157 0
M  V30 3028 C 296.567 -1.80156 -1.44265 0
M  V30 3029 C 297.537 -0.646183 -1.53015 0
M  V30 3030 O 298.722 -0.888818 -1.68833 0
M  V30 3031 C 295.862 -2.00116 -2.81154 0
M  V30 3032 C 294.975 -3.27833 -2.81335 0
M  V30 3033 C 294.11 -3.37957 -4.09828 0
M  V30 3034 C 293.149 -4.59689 -4.04168 0
M  V30 3035 N 292.286 -4.66942 -5.24318 0
M  V30 3036 H 297.126 -2.72438 -1.20754 0
M  V30 3037 H 294.663 -1.34954 -0.585296 0
M  V30 3038 H 296.621 -2.09677 -3.60682 0
M  V30 3039 H 295.251 -1.11167 -3.03054 0
M  V30 3040 H 294.303 -3.27204 -1.94014 0
M  V30 3041 H 295.615 -4.17442 -2.73027 0
M  V30 3042 H 294.769 -3.46853 -4.97773 0
M  V30 3043 H 293.508 -2.46372 -4.20894 0
M  V30 3044 H 292.513 -4.50889 -3.14609 0
M  V30 3045 H 293.738 -5.5262 -3.947 0
M  V30 3046 H 291.684 -3.7826 -5.35962 0
M  V30 3047 H 291.601 -5.50462 -5.18197 0
M  V30 3048 H 292.869 -4.80127 -6.14084 0
M  V30 3049 N 297.098 0.621204 -1.44841 0
M  V30 3050 C 298.347 1.37658 -1.47422 0
M  V30 3051 C 298.66 1.95264 -0.114629 0
M  V30 3052 O 299.866 2.71494 -0.0180199 0
M  V30 3053 C 298.322 2.49285 -2.59586 0
M  V30 3054 C 297.93 1.98149 -4.01797 0
M  V30 3055 C 299.674 3.26409 -2.71399 0
M  V30 3056 C 297.581 3.07178 -5.05367 0
M  V30 3057 H 296.511 0.517344 -0.548517 0
M  V30 3058 H 299.162 0.667257 -1.70938 0
M  V30 3059 H 297.544 3.22839 -2.29328 0
M  V30 3060 H 298.718 1.31395 -4.41669 0
M  V30 3061 H 297.033 1.33812 -3.94314 0
M  V30 3062 H 299.63 4.07706 -3.45948 0
M  V30 3063 H 299.973 3.76535 -1.77559 0
M  V30 3064 H 300.506 2.5995 -3.01116 0
M  V30 3065 H 297.245 2.61985 -6.00869 0
M  V30 3066 H 296.765 3.72542 -4.70077 0
M  V30 3067 H 298.444 3.71789 -5.29511 0
M  V30 3068 N 298.576 1.31904 0.862503 0
M  V30 3069 C 299.801 1.25135 1.65397 0
M  V30 3070 C 300.226 -0.179 1.87246 0
M  V30 3071 O 299.584 -1.1277 1.4196 0
M  V30 3072 C 299.632 2.00832 2.99498 0
M  V30 3073 O 298.736 1.35075 3.89652 0
M  V30 3074 H 298.077 0.431655 0.504549 0
M  V30 3075 H 300.607 1.74094 1.07483 0
M  V30 3076 H 300.617 2.10709 3.49379 0
M  V30 3077 H 299.292 3.04847 2.82916 0
M  V30 3078 H 297.869 1.33696 3.48109 0
M  V30 3079 N 300.054 -1.07777 1.14986 0
M  V30 3080 C 301.001 -2.14867 0.842672 0
M  V30 3081 C 301.971 -1.6486 -0.202552 0
M  V30 3082 O 303.156 -1.90668 -0.0710568 0
M  V30 3083 C 300.296 -3.43486 0.333363 0
M  V30 3084 C 299.409 -4.07306 1.43965 0
M  V30 3085 C 298.544 -5.23744 0.886914 0
M  V30 3086 C 297.583 -5.79517 1.97043 0
M  V30 3087 N 296.72 -6.87291 1.4344 0
M  V30 3088 H 301.56 -2.40485 1.75986 0
M  V30 3089 H 299.097 -1.1801 0.878179 0
M  V30 3090 H 301.055 -4.17195 0.0198163 0
M  V30 3091 H 299.685 -3.18133 -0.546916 0
M  V30 3092 H 298.737 -3.31293 1.86946 0
M  V30 3093 H 300.049 -4.44771 2.25788 0
M  V30 3094 H 299.203 -6.04419 0.525651 0
M  V30 3095 H 297.942 -4.87685 0.0377957 0
M  V30 3096 H 296.947 -4.97491 2.34057 0
M  V30 3097 H 298.172 -6.17632 2.82325 0
M  V30 3098 H 296.118 -6.5318 0.607567 0
M  V30 3099 H 296.035 -7.23617 2.18895 0
M  V30 3100 H 297.303 -7.71682 1.10124 0
M  V30 3101 N 301.532 -0.945985 -1.26051 0
M  V30 3102 C 302.462 -0.477172 -2.28572 0
M  V30 3103 C 303.443 0.472032 -1.63419 0
M  V30 3104 O 304.628 0.372853 -1.90587 0
M  V30 3105 C 301.758 0.253975 -3.4637 0
M  V30 3106 C 300.712 -0.609135 -4.23643 0
M  V30 3107 C 300.038 0.252252 -5.34105 0
M  V30 3108 C 301.338 -1.8829 -4.8718 0
M  V30 3109 H 303.032 -1.33402 -2.68038 0
M  V30 3110 H 300.578 -0.642904 -1.28852 0
M  V30 3111 H 302.531 0.593016 -4.17207 0
M  V30 3112 H 301.255 1.145 -3.05871 0
M  V30 3113 H 299.914 -0.931138 -3.54578 0
M  V30 3114 H 299.562 1.14278 -4.89846 0
M  V30 3115 H 299.262 -0.32188 -5.86718 0
M  V30 3116 H 300.786 0.586454 -6.07777 0
M  V30 3117 H 302.2 -1.61081 -5.50205 0
M  V30 3118 H 300.597 -2.40199 -5.49931 0
M  V30 3119 H 301.667 -2.59134 -4.09851 0
M  V30 3120 N 303.011 1.40521 -0.713556 0
M  V30 3121 C 304.259 2.00527 -0.251692 0
M  V30 3122 C 304.58 1.56857 1.15848 0
M  V30 3123 O 303.85 0.807127 1.785 0
M  V30 3124 H 302.43 0.741551 -0.0900646 0
M  V30 3125 H 305.092 1.71887 -0.918733 0
M  V30 3126 H 304.188 3.10813 -0.283192 0
M  V30 3127 N 304.489 0.459591 1.5075 0
M  V30 3128 C 305.905 0.113092 1.59199 0
M  V30 3129 C 306.105 -1.37951 1.46874 0
M  V30 3130 O 305.161 -2.15168 1.32132 0
M  V30 3131 C 306.474 0.653043 2.93523 0
M  V30 3132 C 308.022 0.615449 3.0689 0
M  V30 3133 C 308.497 1.13275 4.43771 0
M  V30 3134 N 309.988 1.09167 4.50152 0
M  V30 3135 C 310.723 1.46256 5.54434 0
M  V30 3136 N 310.219 1.90739 6.66026 0
M  V30 3137 N 312.012 1.37932 5.44914 0
M  V30 3138 H 304.163 1.43049 1.57005 0
M  V30 3139 H 306.426 0.590861 0.741341 0
M  V30 3140 H 306.132 1.69822 3.07983 0
M  V30 3141 H 306.006 0.0902132 3.77092 0
M  V30 3142 H 308.393 -0.420793 2.92084 0
M  V30 3143 H 308.474 1.21495 2.25106 0
M  V30 3144 H 308.118 2.16757 4.59324 0
M  V30 3145 H 308.048 0.509576 5.24129 0
M  V30 3146 H 310.539 0.76528 3.7007 0
M  V30 3147 H 310.852 2.17218 7.41644 0
M  V30 3148 H 309.197 1.94683 6.67176 0
M  V30 3149 H 312.388 1.0303 4.56621 0
M  V30 3150 H 312.561 1.67164 6.26067 0
M  V30 3151 N 305.967 -1.56429 0.191757 0
M  V30 3152 C 307.192 -2.02309 -0.456706 0
M  V30 3153 C 307.617 -1.07103 -1.5463 0
M  V30 3154 O 306.975 -0.0539677 -1.8122 0
M  V30 3155 C 307.023 -3.46654 -0.993159 0
M  V30 3156 O 306.127 -3.54559 -2.10622 0
M  V30 3157 H 305.468 -0.655303 -0.107114 0
M  V30 3158 H 307.998 -2.02364 0.301653 0
M  V30 3159 H 308.008 -3.86377 -1.31061 0
M  V30 3160 H 306.683 -4.1544 -0.195504 0
M  V30 3161 H 305.26 -3.26708 -1.79767 0
M  V30 3162 N 307.445 0.0818655 -1.57387 0
M  V30 3163 C 308.692 0.782914 -1.86753 0
M  V30 3164 C 309.02 1.78082 -0.782118 0
M  V30 3165 O 308.275 1.94426 0.22295 0
M  V30 3166 C 308.574 1.53513 -3.22752 0
M  V30 3167 C 308.24 0.678134 -4.45771 0
M  V30 3168 C 306.902 0.441929 -4.79166 0
M  V30 3169 C 309.254 0.0832243 -5.21134 0
M  V30 3170 C 306.582 -0.398833 -5.85343 0
M  V30 3171 C 308.934 -0.744935 -6.28199 0
M  V30 3172 C 307.598 -0.991107 -6.60101 0
M  V30 3173 H 306.868 0.286489 -0.683378 0
M  V30 3174 H 309.515 0.0439808 -1.91449 0
M  V30 3175 H 307.82 2.34599 -3.138 0
M  V30 3176 H 309.517 2.08218 -3.42705 0
M  V30 3177 H 306.107 0.872357 -4.19628 0
M  V30 3178 H 310.291 0.252847 -4.95655 0
M  V30 3179 H 305.547 -0.598405 -6.08465 0
M  V30 3180 H 309.721 -1.21271 -6.8576 0
M  V30 3181 H 307.348 -1.64437 -7.42202 0
M  V30 3182 N 308.923 1.53595 0.353017 0
M  V30 3183 C 310.151 1.74311 1.1146 0
M  V30 3184 C 310.566 0.477854 1.82653 0
M  V30 3185 O 309.923 -0.549977 1.74016 0
M  V30 3186 C 309.974 2.91694 2.13534 0
M  V30 3187 O 309.695 4.13325 1.45238 0
M  V30 3188 C 311.196 3.24384 3.02142 0
M  V30 3189 H 308.416 0.582669 0.332773 0
M  V30 3190 H 310.96 2.00386 0.408107 0
M  V30 3191 H 309.115 2.67977 2.79763 0
M  V30 3192 H 309.529 4.79148 2.13349 0
M  V30 3193 H 311.003 4.09893 3.69718 0
M  V30 3194 H 311.48 2.40282 3.67643 0
M  V30 3195 H 312.086 3.50073 2.41514 0
M  V30 3196 N 310.401 -0.613514 1.45168 0
M  V30 3197 C 311.817 -0.933629 1.29443 0
M  V30 3198 C 312.017 -2.00028 0.243101 0
M  V30 3199 O 311.073 -2.49848 -0.364992 0
M  V30 3200 C 312.386 -1.38018 2.67155 0
M  V30 3201 C 313.934 -1.49471 2.75004 0
M  V30 3202 C 314.409 -1.97503 4.13227 0
M  V30 3203 N 315.9 -2.04746 4.15491 0
M  V30 3204 C 316.635 -2.43121 5.19307 0
M  V30 3205 N 316.131 -2.80506 6.33473 0
M  V30 3206 N 317.924 -2.43408 5.06664 0
M  V30 3207 H 310.075 0.0916097 2.12202 0
M  V30 3208 H 312.338 -0.0216655 0.947752 0
M  V30 3209 H 312.044 -0.670625 3.45247 0
M  V30 3210 H 311.918 -2.34784 2.95222 0
M  V30 3211 H 314.305 -2.19519 1.9722 0
M  V30 3212 H 314.386 -0.510342 2.50657 0
M  V30 3213 H 314.03 -1.28045 4.91495 0
M  V30 3214 H 313.96 -2.96843 4.34962 0
M  V30 3215 H 316.451 -1.78468 3.33103 0
M  V30 3216 H 316.764 -3.08652 7.08487 0
M  V30 3217 H 315.109 -2.78216 6.36884 0
M  V30 3218 H 318.3 -2.13604 4.16523 0
M  V30 3219 H 318.473 -2.72989 5.87691 0
M  V30 3220 N 311.879 -1.3236 -0.855495 0
M  V30 3221 C 312.842 -1.21164 -1.94556 0
M  V30 3222 C 313.842 -0.134908 -1.60233 0
M  V30 3223 O 315.032 -0.385249 -1.69887 0
M  V30 3224 C 312.164 -0.863192 -3.29791 0
M  V30 3225 H 313.357 -2.18038 -2.05911 0
M  V30 3226 H 310.91 -1.16179 -1.04557 0
M  V30 3227 H 311.645 0.103769 -3.24134 0
M  V30 3228 H 311.43 -1.64166 -3.56078 0
M  V30 3229 H 312.92 -0.809156 -4.09686 0
M  V30 3230 N 313.357 1.07166 -1.15556 0
M  V30 3231 C 314.773 1.31899 -0.898603 0
M  V30 3232 C 314.973 1.96333 0.453383 0
M  V30 3233 O 314.029 2.22438 1.19489 0
M  V30 3234 C 315.342 2.20826 -2.04099 0
M  V30 3235 C 316.89 2.34269 -2.07574 0
M  V30 3236 C 317.365 3.26546 -3.21141 0
M  V30 3237 N 318.856 3.34127 -3.20801 0
M  V30 3238 C 319.591 4.05595 -4.05315 0
M  V30 3239 N 319.087 4.79661 -4.99897 0
M  V30 3240 N 320.88 4.01555 -3.93332 0
M  V30 3241 H 313.031 0.637302 -2.02613 0
M  V30 3242 H 315.294 0.343468 -0.883591 0
M  V30 3243 H 315 1.80744 -3.01703 0
M  V30 3244 H 314.874 3.21364 -1.97496 0
M  V30 3245 H 317.261 2.73603 -1.10568 0
M  V30 3246 H 317.342 1.33429 -2.18244 0
M  V30 3247 H 316.986 2.87931 -4.184 0
M  V30 3248 H 316.916 4.27345 -3.07708 0
M  V30 3249 H 319.407 2.81336 -2.52306 0
M  V30 3250 H 319.72 5.31694 -5.60822 0
M  V30 3251 H 318.065 4.78671 -5.03884 0
M  V30 3252 H 321.256 3.42806 -3.18751 0
M  V30 3253 H 321.429 4.56987 -4.5942 0
M  V30 3254 N 314.835 0.952656 1.25548 0
M  V30 3255 C 316.112 0.523818 1.88456 0
M  V30 3256 C 316.492 -0.998871 1.85973 0
M  V30 3257 O 315.84 -1.86381 1.3219 0
M  V30 3258 C 316.05 1.0982 3.31271 0
M  V30 3259 C 317.398 1.17385 4.08051 0
M  V30 3260 O 318.422 1.04961 3.40384 0
M  V30 3261 O 317.281 1.36852 5.29088 0
M  V30 3262 H 314.375 0.172485 0.808813 0
M  V30 3263 H 316.921 1.04596 1.33633 0
M  V30 3264 H 315.693 2.1415 3.27499 0
M  V30 3265 H 315.316 0.559191 3.93648 0
M  V30 3266 N 316.313 -1.40141 0.720998 0
M  V30 3267 C 317.543 -2.04798 0.27226 0
M  V30 3268 C 317.951 -1.54442 -1.09289 0
M  V30 3269 O 317.294 -0.698342 -1.69908 0
M  V30 3270 C 317.356 -3.59048 0.18027 0
M  V30 3271 C 317.02 -4.32317 1.48159 0
M  V30 3272 C 318.017 -4.59902 2.42458 0
M  V30 3273 C 315.702 -4.71125 1.74202 0
M  V30 3274 C 317.696 -5.25288 3.61042 0
M  V30 3275 C 315.383 -5.36242 2.93066 0
M  V30 3276 C 316.381 -5.63254 3.86308 0
M  V30 3277 O 316.069 -6.27024 5.03086 0
M  V30 3278 H 315.801 -0.665419 0.119139 0
M  V30 3279 H 318.355 -1.80436 0.981432 0
M  V30 3280 H 316.585 -3.82251 -0.58489 0
M  V30 3281 H 318.274 -4.05221 -0.234618 0
M  V30 3282 H 319.04 -4.30379 2.23604 0
M  V30 3283 H 314.919 -4.49466 1.02477 0
M  V30 3284 H 318.463 -5.46289 4.33837 0
M  V30 3285 H 314.36 -5.65185 3.11826 0
M  V30 3286 H 315.128 -6.4552 5.03235 0
M  V30 3287 N 317.792 -0.46758 -1.50504 0
M  V30 3288 C 319.069 0.15003 -1.95024 0
M  V30 3289 C 319.449 1.57304 -1.40779 0
M  V30 3290 O 318.797 2.20281 -0.607319 0
M  V30 3291 C 319.007 0.0969324 -3.48865 0
M  V30 3292 C 320.355 0.287565 -4.23625 0
M  V30 3293 O 321.379 0.173678 -3.55776 0
M  V30 3294 O 320.238 0.517186 -5.44047 0
M  V30 3295 H 317.332 0.113582 -0.819163 0
M  V30 3296 H 319.878 -0.52773 -1.61286 0
M  V30 3297 H 318.65 -0.896732 -3.80886 0
M  V30 3298 H 318.273 0.816303 -3.8913 0
M  V30 3299 N 319.27 1.56325 -0.20005 0
M  V30 3300 C 320.233 2.18084 0.705132 0
M  V30 3301 C 321.233 1.13666 1.1374 0
M  V30 3302 O 322.423 1.39023 1.04968 0
M  V30 3303 C 319.555 2.78689 1.96329 0
M  V30 3304 H 320.748 2.99435 0.167023 0
M  V30 3305 H 318.301 1.56221 0.0495725 0
M  V30 3306 H 319.036 2.0115 2.5438 0
M  V30 3307 H 318.821 3.55133 1.66202 0
M  V30 3308 H 320.311 3.26096 2.60866 0
M  V30 3309 N 320.748 -0.0735177 1.57428 0
M  V30 3310 C 321.681 -1.11932 1.98863 0
M  V30 3311 C 322.659 -1.37666 0.865266 0
M  V30 3312 O 323.843 -1.51068 1.12742 0
M  V30 3313 C 320.97 -2.46403 2.32386 0
M  V30 3314 C 320.016 -2.36815 3.54713 0
M  V30 3315 S 320.849 -1.76392 5.05614 0
M  V30 3316 C 322.005 -3.12444 5.42337 0
M  V30 3317 H 322.238 -0.766212 2.87257 0
M  V30 3318 H 319.771 -0.281987 1.51803 0
M  V30 3319 H 321.729 -3.23755 2.52375 0
M  V30 3320 H 320.39 -2.78876 1.44524 0
M  V30 3321 H 319.583 -3.35977 3.7568 0
M  V30 3322 H 319.185 -1.67598 3.34345 0
M  V30 3323 H 321.477 -4.08753 5.40303 0
M  V30 3324 H 322.42 -2.96258 6.43146 0
M  V30 3325 H 322.828 -3.1297 4.69798 0
M  V30 3326 N 322.226 -1.5378 -0.344866 0
M  V30 3327 C 323.474 -1.70625 -1.08311 0
M  V30 3328 C 323.795 -0.471447 -1.89215 0
M  V30 3329 O 323.065 0.514616 -1.8902 0
M  V30 3330 H 321.645 -0.629058 -0.402859 0
M  V30 3331 H 324.307 -1.9103 -0.386459 0
M  V30 3332 H 323.403 -2.57656 -1.76124 0
M  V30 3333 N 323.704 0.605807 -1.45491 0
M  V30 3334 C 324.929 1.39625 -1.53361 0
M  V30 3335 C 325.354 1.87351 -0.167645 0
M  V30 3336 O 324.712 1.60243 0.848051 0
M  V30 3337 C 324.76 2.57559 -2.5238 0
M  V30 3338 O 323.864 3.58248 -2.04285 0
M  V30 3339 H 323.205 0.416771 -0.516912 0
M  V30 3340 H 325.735 0.737103 -1.90861 0
M  V30 3341 H 325.745 3.0478 -2.71244 0
M  V30 3342 H 324.42 2.22171 -3.51586 0
M  V30 3343 H 322.997 3.17664 -1.95305 0
M  V30 3344 N 325.182 1.32811 0.848464 0
M  V30 3345 C 326.114 1.18095 1.96433 0
M  V30 3346 C 327.127 0.114354 1.62398 0
M  V30 3347 O 328.316 0.363892 1.74751 0
M  V30 3348 C 325.416 0.786798 3.2964 0
M  V30 3349 C 324.589 1.943 3.91875 0
M  V30 3350 C 323.648 1.53138 5.03423 0
M  V30 3351 O 322.674 2.24432 5.23086 0
M  V30 3352 N 323.876 0.430915 5.78898 0
M  V30 3353 H 326.641 2.14218 2.09597 0
M  V30 3354 H 324.202 1.2543 1.02367 0
M  V30 3355 H 326.194 0.493715 4.01677 0
M  V30 3356 H 324.764 -0.0834541 3.12489 0
M  V30 3357 H 323.984 2.40224 3.12547 0
M  V30 3358 H 325.272 2.71689 4.30189 0
M  V30 3359 H 324.67 -0.162333 5.65467 0
M  V30 3360 H 323.227 0.197466 6.51501 0
M  V30 3361 N 326.66 -1.06551 1.16123 0
M  V30 3362 C 327.888 -1.83005 0.965237 0
M  V30 3363 C 328.303 -1.82423 -0.486542 0
M  V30 3364 O 327.66 -1.24152 -1.33763 0
M  V30 3365 C 327.711 -3.29733 1.48183 0
M  V30 3366 O 327.432 -3.30416 2.87674 0
M  V30 3367 C 328.933 -4.22926 1.32848 0
M  V30 3368 H 326.153 -0.577118 0.342309 0
M  V30 3369 H 328.697 -1.3445 1.54089 0
M  V30 3370 H 326.852 -3.75609 0.948517 0
M  V30 3371 H 327.266 -4.22149 3.11272 0
M  V30 3372 H 328.74 -5.23916 1.73827 0
M  V30 3373 H 329.217 -4.38346 0.273692 0
M  V30 3374 H 329.823 -3.82894 1.85127 0
M  V30 3375 N 328.138 -0.959301 -1.25041 0
M  V30 3376 C 329.085 -0.482057 -2.2571 0
M  V30 3377 C 330.055 0.467939 -1.59372 0
M  V30 3378 O 331.24 0.380159 -1.86974 0
M  V30 3379 C 328.38 0.229623 -3.44335 0
M  V30 3380 C 327.493 -0.758156 -4.25295 0
M  V30 3381 C 326.628 -0.0234403 -5.31195 0
M  V30 3382 C 325.667 -1.00184 -6.03846 0
M  V30 3383 N 324.804 -0.29769 -7.01469 0
M  V30 3384 H 329.644 -1.34538 -2.65901 0
M  V30 3385 H 327.181 -0.674592 -1.3072 0
M  V30 3386 H 329.139 0.658856 -4.11965 0
M  V30 3387 H 327.769 1.05696 -3.05005 0
M  V30 3388 H 326.821 -1.30586 -3.57284 0
M  V30 3389 H 328.133 -1.50458 -4.75567 0
M  V30 3390 H 327.287 0.464201 -6.04922 0
M  V30 3391 H 326.026 0.755741 -4.81809 0
M  V30 3392 H 325.031 -1.50044 -5.2893 0
M  V30 3393 H 326.256 -1.78133 -6.55321 0
M  V30 3394 H 324.202 0.462668 -6.54366 0
M  V30 3395 H 324.119 -0.983128 -7.4958 0
M  V30 3396 H 325.387 0.16826 -7.79318 0
M  V30 3397 N 329.616 1.39756 -0.72842 0
M  V30 3398 C 330.863 2.00645 -0.273487 0
M  V30 3399 C 331.191 1.57786 1.13727 0
M  V30 3400 O 330.446 0.794886 1.7883 0
M  V30 3401 C 330.745 3.56002 -0.315776 0
M  V30 3402 C 330.411 4.18489 -1.67863 0
M  V30 3403 C 329.073 4.3527 -2.05166 0
M  V30 3404 C 331.425 4.53219 -2.57375 0
M  V30 3405 C 328.753 4.84069 -3.31503 0
M  V30 3406 C 331.105 5.03423 -3.83077 0
M  V30 3407 C 329.769 5.18413 -4.20481 0
M  V30 3408 H 329.039 0.734211 -0.100076 0
M  V30 3409 H 331.686 1.6718 -0.933972 0
M  V30 3410 H 329.991 3.89452 0.428285 0
M  V30 3411 H 331.688 4.00963 0.0542575 0
M  V30 3412 H 328.278 4.05824 -1.37858 0
M  V30 3413 H 332.462 4.39878 -2.29827 0
M  V30 3414 H 327.718 4.93859 -3.60435 0
M  V30 3415 H 331.892 5.2927 -4.52599 0
M  V30 3416 H 329.519 5.55987 -5.18443 0
M  V30 3417 N 331.094 0.475555 1.50254 0
M  V30 3418 C 332.34 -0.0780073 2.0265 0
M  V30 3419 C 332.673 -1.38968 1.35652 0
M  V30 3420 O 331.948 -1.8839 0.483691 0
M  V30 3421 C 332.231 -0.257161 3.59181 0
M  V30 3422 C 332.084 1.07585 4.36744 0
M  V30 3423 C 333.403 -1.00965 4.28362 0
M  V30 3424 H 330.522 -0.0268758 0.73651 0
M  V30 3425 H 333.164 0.622015 1.7953 0
M  V30 3426 H 331.314 -0.853412 3.79011 0
M  V30 3427 H 332.986 1.70902 4.28474 0
M  V30 3428 H 331.229 1.6714 4.00308 0
M  V30 3429 H 331.9 0.904088 5.44546 0
M  V30 3430 H 334.376 -0.504214 4.13034 0
M  V30 3431 H 333.252 -1.10381 5.37687 0
M  V30 3432 H 333.513 -2.04731 3.91839 0
M  V30 3433 N 332.573 -1.56217 0.208337 0
M  V30 3434 C 333.505 -2.1695 -0.739276 0
M  V30 3435 C 334.518 -1.13492 -1.1672 0
M  V30 3436 O 335.707 -1.40529 -1.10063 0
M  V30 3437 C 332.807 -2.72755 -2.01142 0
M  V30 3438 C 331.98 -4.0125 -1.74118 0
M  V30 3439 C 331.039 -4.41749 -2.85909 0
M  V30 3440 O 330.065 -5.08912 -2.54946 0
M  V30 3441 N 331.267 -4.06342 -4.14568 0
M  V30 3442 H 334.032 -2.98893 -0.219837 0
M  V30 3443 H 331.593 -1.61878 0.0268445 0
M  V30 3444 H 333.585 -2.96826 -2.75094 0
M  V30 3445 H 332.155 -1.95191 -2.4417 0
M  V30 3446 H 331.375 -3.85173 -0.838775 0
M  V30 3447 H 332.663 -4.851 -1.53477 0
M  V30 3448 H 332.061 -3.52345 -4.42571 0
M  V30 3449 H 330.618 -4.35335 -4.85105 0
M  V30 3450 N 334.051 0.0651679 -1.57465 0
M  V30 3451 C 335.291 0.768329 -1.8941 0
M  V30 3452 C 335.655 1.74406 -0.802894 0
M  V30 3453 O 336.856 2.49281 -1.0056 0
M  V30 3454 C 335.127 1.45199 -3.26576 0
M  V30 3455 S 336.686 2.1893 -3.80283 0
M  V30 3456 H 333.504 0.255359 -0.663561 0
M  V30 3457 H 336.106 0.024167 -1.95485 0
M  V30 3458 H 334.81 0.728123 -4.03889 0
M  V30 3459 H 334.341 2.23545 -3.23715 0
M  V30 3460 H 336.356 3.45551 -3.56102 0
M  V30 3461 N 335.529 1.53961 0.336706 0
M  V30 3462 C 336.94 1.62914 0.911925 0
M  V30 3463 C 337.291 0.514795 1.89326 0
M  V30 3464 O 336.416 -0.354395 2.13478 0
M  V30 3465 C 337.011 2.95304 1.66076 0
M  V30 3466 C 335.57 3.06496 2.18489 0
M  V30 3467 C 334.717 2.58403 1.00613 0
M  V30 3468 H 337.668 1.58285 0.114649 0
M  V30 3469 H 337.689 2.84727 2.5241 0
M  V30 3470 H 337.201 3.76387 0.946276 0
M  V30 3471 H 335.302 2.3006 2.93092 0
M  V30 3472 H 335.415 4.1208 2.44391 0
M  V30 3473 H 333.779 2.13977 1.38152 0
M  V30 3474 H 334.562 3.41932 0.306179 0
M  V30 3475 N 337.007 -0.598083 1.45811 0
M  V30 3476 C 338.284 -1.35777 1.40797 0
M  V30 3477 C 338.664 -2.10935 0.083462 0
M  V30 3478 O 338.012 -2.08505 -0.934763 0
M  V30 3479 C 338.222 -2.29666 2.62783 0
M  V30 3480 C 339.57 -2.91977 3.08277 0
M  V30 3481 O 340.594 -2.39984 2.63223 0
M  V30 3482 O 339.453 -3.86376 3.86491 0
M  V30 3483 H 336.547 -0.609291 0.55919 0
M  V30 3484 H 339.093 -0.620379 1.57954 0
M  V30 3485 H 337.865 -1.73454 3.50756 0
M  V30 3486 H 337.488 -3.1077 2.48008 0
M  V30 3487 N 338.485 -1.33259 -0.841409 0
M  V30 3488 C 339.733 -1.24326 -1.59334 0
M  V30 3489 C 340.054 0.191564 -1.94057 0
M  V30 3490 O 339.324 1.11967 -1.60749 0
M  V30 3491 H 337.904 -0.457174 -0.590763 0
M  V30 3492 H 340.566 -1.66947 -1.00571 0
M  V30 3493 H 339.662 -1.8352 -2.52442 0
M  V30 3494 N 339.963 1.05934 -1.16686 0
M  V30 3495 C 340.873 2.17014 -0.891183 0
M  V30 3496 C 341.889 1.73453 0.137907 0
M  V30 3497 O 343.065 2.01361 -0.039592 0
M  V30 3498 C 340.13 3.44384 -0.400099 0
M  V30 3499 C 339.191 4.02433 -1.49486 0
M  V30 3500 C 338.424 5.23723 -1.02711 0
M  V30 3501 O 338.647 5.7027 0.121716 0
M  V30 3502 O 337.581 5.7382 -1.81699 0
M  V30 3503 H 341.407 2.43113 -1.82015 0
M  V30 3504 H 338.992 1.15541 -0.947132 0
M  V30 3505 H 340.874 4.21189 -0.133392 0
M  V30 3506 H 339.549 3.19802 0.500817 0
M  V30 3507 H 338.456 3.27102 -1.81535 0
M  V30 3508 H 339.789 4.31317 -2.37121 0
M  V30 3509 N 341.441 0.965919 1.2453 0
M  V30 3510 C 342.371 0.513476 2.27784 0
M  V30 3511 C 343.352 -0.445974 1.6415 0
M  V30 3512 O 344.537 -0.342485 1.91156 0
M  V30 3513 C 341.667 -0.198839 3.4673 0
M  V30 3514 C 340.621 0.676456 4.2262 0
M  V30 3515 C 339.947 -0.167248 5.34438 0
M  V30 3516 C 341.247 1.96017 4.84123 0
M  V30 3517 H 342.941 1.3765 2.65881 0
M  V30 3518 H 340.487 0.663321 1.27813 0
M  V30 3519 H 342.44 -0.526567 4.18097 0
M  V30 3520 H 341.164 -1.0962 3.07654 0
M  V30 3521 H 339.823 0.98743 3.53052 0
M  V30 3522 H 339.471 -1.0647 4.91603 0
M  V30 3523 H 339.171 0.415181 5.86131 0
M  V30 3524 H 340.695 -0.489688 6.08633 0
M  V30 3525 H 342.109 1.69814 5.47573 0
M  V30 3526 H 340.506 2.48918 5.4604 0
M  V30 3527 H 341.576 2.65622 4.05676 0
M  V30 3528 N 342.919 -1.39368 0.735821 0
M  V30 3529 C 343.851 -2.2913 0.0567723 0
M  V30 3530 C 344.864 -1.46859 -0.702589 0
M  V30 3531 O 346.053 -1.69925 -0.546616 0
M  V30 3532 C 343.153 -3.25492 -0.943823 0
M  V30 3533 C 342.326 -4.36709 -0.24581 0
M  V30 3534 C 341.385 -5.13376 -1.15463 0
M  V30 3535 O 340.411 -5.65683 -0.631803 0
M  V30 3536 N 341.613 -5.24656 -2.48427 0
M  V30 3537 H 344.378 -2.88047 0.827582 0
M  V30 3538 H 341.939 -1.50957 0.585112 0
M  V30 3539 H 343.931 -3.73657 -1.55443 0
M  V30 3540 H 342.501 -2.676 -1.61583 0
M  V30 3541 H 341.721 -3.9041 0.545286 0
M  V30 3542 H 343.009 -5.08244 0.237891 0
M  V30 3543 H 342.407 -4.83679 -2.93379 0
M  V30 3544 H 340.964 -5.76258 -3.04582 0
M  V30 3545 N 344.397 -0.483516 -1.5 0
M  V30 3546 C 345.344 0.304164 -2.28787 0
M  V30 3547 C 346.314 0.976114 -1.34392 0
M  V30 3548 O 347.499 0.986156 -1.63339 0
M  V30 3549 C 344.639 1.37298 -3.16612 0
M  V30 3550 C 343.752 0.714561 -4.26049 0
M  V30 3551 C 342.887 1.76232 -5.01114 0
M  V30 3552 C 341.926 1.08483 -6.0241 0
M  V30 3553 N 341.063 2.076 -6.70706 0
M  V30 3554 H 345.903 -0.373981 -2.95644 0
M  V30 3555 H 343.44 -0.196275 -1.45785 0
M  V30 3556 H 345.398 2.00445 -3.65893 0
M  V30 3557 H 344.028 2.02012 -2.51776 0
M  V30 3558 H 343.08 -0.0297798 -3.80388 0
M  V30 3559 H 344.392 0.180383 -4.98474 0
M  V30 3560 H 343.546 2.46929 -5.54176 0
M  V30 3561 H 342.285 2.33033 -4.28424 0
M  V30 3562 H 341.29 0.363545 -5.48597 0
M  V30 3563 H 342.515 0.523551 -6.77079 0
M  V30 3564 H 340.461 2.63394 -6.00799 0
M  V30 3565 H 340.378 1.59201 -7.39047 0
M  V30 3566 H 341.646 2.77639 -7.2838 0
M  V30 3567 N 345.875 1.56104 -0.216619 0
M  V30 3568 C 347.291 1.58995 0.13886 0
M  V30 3569 C 347.491 1.23333 1.59346 0
M  V30 3570 O 346.547 0.966234 2.33281 0
M  V30 3571 C 347.86 3.00143 -0.182968 0
M  V30 3572 C 349.408 3.12751 -0.124807 0
M  V30 3573 C 349.883 4.56068 -0.420241 0
M  V30 3574 N 351.374 4.61723 -0.369634 0
M  V30 3575 C 352.109 5.70542 -0.571789 0
M  V30 3576 N 351.605 6.87744 -0.835453 0
M  V30 3577 N 353.398 5.59831 -0.504563 0
M  V30 3578 H 345.549 1.77562 -1.16557 0
M  V30 3579 H 347.812 0.825091 -0.466828 0
M  V30 3580 H 347.518 3.30871 -1.19237 0
M  V30 3581 H 347.392 3.73813 0.504367 0
M  V30 3582 H 349.779 2.81822 0.875223 0
M  V30 3583 H 349.86 2.41421 -0.845544 0
M  V30 3584 H 349.504 4.87713 -1.41769 0
M  V30 3585 H 349.434 5.25617 0.321631 0
M  V30 3586 H 351.925 3.77502 -0.173338 0
M  V30 3587 H 352.238 7.66587 -0.977938 0
M  V30 3588 H 350.583 6.895 -0.872592 0
M  V30 3589 H 353.774 4.67145 -0.298842 0
M  V30 3590 H 353.947 6.44573 -0.665519 0
M  V30 3591 N 347.353 -0.0568162 1.57498 0
M  V30 3592 C 348.3 -1.06591 2.04712 0
M  V30 3593 C 349.27 -1.3758 0.930644 0
M  V30 3594 O 350.455 -1.48392 1.19935 0
M  V30 3595 C 347.595 -2.3701 2.50839 0
M  V30 3596 C 346.708 -2.12421 3.76167 0
M  V30 3597 C 345.843 -3.36511 4.11015 0
M  V30 3598 C 344.882 -3.07353 5.2934 0
M  V30 3599 N 344.019 -4.23816 5.59754 0
M  V30 3600 H 348.859 -0.65631 2.90683 0
M  V30 3601 H 346.396 -0.312481 1.43743 0
M  V30 3602 H 348.354 -3.13175 2.7564 0
M  V30 3603 H 346.984 -2.75744 1.67825 0
M  V30 3604 H 346.036 -1.2688 3.58616 0
M  V30 3605 H 347.348 -1.86894 4.62463 0
M  V30 3606 H 346.502 -4.21062 4.36797 0
M  V30 3607 H 345.241 -3.65128 3.23315 0
M  V30 3608 H 344.246 -2.212 5.03339 0
M  V30 3609 H 345.471 -2.80043 6.1867 0
M  V30 3610 H 343.417 -4.52436 4.75014 0
M  V30 3611 H 343.334 -4.01614 6.40501 0
M  V30 3612 H 344.602 -5.0932 5.90096 0
M  V30 3613 N 348.832 -1.54138 -0.328536 0
M  V30 3614 C 349.742 -1.86192 -1.42723 0
M  V30 3615 C 350.758 -0.753382 -1.56844 0
M  V30 3616 O 351.934 -1.04718 -1.72035 0
M  V30 3617 C 348.999 -2.07824 -2.77507 0
M  V30 3618 C 348.06 -3.31641 -2.72603 0
M  V30 3619 C 347.293 -3.52232 -4.00959 0
M  V30 3620 O 347.516 -2.7636 -4.9898 0
M  V30 3621 O 346.45 -4.45699 -4.0452 0
M  V30 3622 H 350.276 -2.79608 -1.18547 0
M  V30 3623 H 347.861 -1.3998 -0.522104 0
M  V30 3624 H 349.743 -2.23411 -3.57303 0
M  V30 3625 H 348.418 -1.17596 -3.01584 0
M  V30 3626 H 347.325 -3.21444 -1.91376 0
M  V30 3627 H 348.658 -4.2191 -2.53481 0
M  V30 3628 N 350.31 0.590341 -1.46126 0
M  V30 3629 C 351.556 1.35082 -1.51264 0
M  V30 3630 C 351.889 1.93534 -0.160711 0
M  V30 3631 O 351.164 1.76045 0.826956 0
M  V30 3632 C 351.447 2.48588 -2.6053 0
M  V30 3633 C 351.3 1.95221 -4.05227 0
M  V30 3634 C 352.619 3.50662 -2.6594 0
M  V30 3635 H 349.738 0.489803 -0.550692 0
M  V30 3636 H 352.38 0.663887 -1.78024 0
M  V30 3637 H 350.53 3.07186 -2.37843 0
M  V30 3638 H 352.202 1.41139 -4.39178 0
M  V30 3639 H 350.445 1.26101 -4.15068 0
M  V30 3640 H 351.116 2.77121 -4.77397 0
M  V30 3641 H 353.592 3.01934 -2.86313 0
M  V30 3642 H 352.468 4.27551 -3.44226 0
M  V30 3643 H 352.729 4.07399 -1.71694 0
M  V30 3644 N 351.788 1.33704 0.83433 0
M  V30 3645 C 353.034 1.25603 1.59222 0
M  V30 3646 C 353.367 -0.176659 1.93395 0
M  V30 3647 O 352.642 -1.11915 1.59076 0
M  V30 3648 C 352.925 2.13576 2.89926 0
M  V30 3649 C 352.778 3.65326 2.62406 0
M  V30 3650 C 354.097 2.01238 3.91397 0
M  V30 3651 H 351.216 0.457613 0.577719 0
M  V30 3652 H 353.858 1.63848 0.961972 0
M  V30 3653 H 352.008 1.8109 3.43713 0
M  V30 3654 H 353.68 4.08124 2.15017 0
M  V30 3655 H 351.923 3.8698 1.96033 0
M  V30 3656 H 352.594 4.22232 3.55562 0
M  V30 3657 H 355.07 2.29738 3.46929 0
M  V30 3658 H 353.946 2.65036 4.80673 0
M  V30 3659 H 354.207 0.985951 4.30966 0
M  V30 3660 N 353.266 -1.05314 1.17247 0
M  V30 3661 C 354.216 -2.11313 0.856196 0
M  V30 3662 C 355.2 -1.60013 -0.168694 0
M  V30 3663 O 356.392 -1.76968 0.0335624 0
M  V30 3664 C 353.521 -3.41301 0.369917 0
M  V30 3665 C 352.607 -3.99401 1.42616 0
M  V30 3666 N 352.998 -4.31481 2.63928 0
M  V30 3667 C 351.296 -4.27126 1.28373 0
M  V30 3668 C 351.997 -4.77799 3.31787 0
M  V30 3669 N 350.973 -4.77843 2.59166 0
M  V30 3670 H 354.775 -2.33976 1.77856 0
M  V30 3671 H 352.289 -1.2295 1.06099 0
M  V30 3672 H 354.286 -4.16713 0.124897 0
M  V30 3673 H 352.946 -3.20072 -0.546253 0
M  V30 3674 H 353.957 -4.21519 3.00902 0
M  V30 3675 H 350.634 -4.15289 0.429111 0
M  V30 3676 H 352.024 -5.11743 4.35395 0
M  V30 3677 N 354.744 -0.972509 -1.24016 0
M  V30 3678 C 355.972 -0.654803 -1.96265 0
M  V30 3679 C 356.387 0.776708 -1.72083 0
M  V30 3680 O 355.744 1.52171 -1.00748 0
M  V30 3681 C 355.795 -0.92592 -3.49441 0
M  V30 3682 O 355.516 -2.30116 -3.72798 0
M  V30 3683 C 357.017 -0.623068 -4.38899 0
M  V30 3684 H 354.237 -0.243907 -0.6251 0
M  V30 3685 H 356.781 -1.30175 -1.57717 0
M  V30 3686 H 354.936 -0.325108 -3.86033 0
M  V30 3687 H 355.35 -2.38483 -4.67147 0
M  V30 3688 H 356.824 -0.863189 -5.45209 0
M  V30 3689 H 357.301 0.442754 -4.36963 0
M  V30 3690 H 357.907 -1.204 -4.07902 0
M  V30 3691 N 356.222 1.38976 -0.743202 0
M  V30 3692 C 357.468 2.0064 -0.295189 0
M  V30 3693 C 357.801 1.5885 1.11716 0
M  V30 3694 O 357.076 0.821181 1.76315 0
M  V30 3695 C 357.359 3.578 -0.406318 0
M  V30 3696 C 357.212 4.09586 -1.85903 0
M  V30 3697 C 358.531 4.39616 0.206439 0
M  V30 3698 H 355.65 0.728935 -0.108733 0
M  V30 3699 H 358.292 1.65067 -0.940897 0
M  V30 3700 H 356.442 3.88235 0.143419 0
M  V30 3701 H 358.114 3.89837 -2.46627 0
M  V30 3702 H 356.357 3.6284 -2.3776 0
M  V30 3703 H 357.028 5.18708 -1.888 0
M  V30 3704 H 359.504 4.15273 -0.262283 0
M  V30 3705 H 358.38 5.48812 0.0983819 0
M  V30 3706 H 358.641 4.22754 1.2935 0
M  V30 3707 N 357.7 0.491464 1.49741 0
M  V30 3708 C 358.925 -0.0557177 2.07325 0
M  V30 3709 C 359.35 -1.30925 1.35056 0
M  V30 3710 O 358.708 -1.76733 0.404365 0
M  V30 3711 C 358.756 -0.302074 3.59333 0
M  V30 3712 O 357.86 -1.37868 3.88672 0
M  V30 3713 H 357.201 0.0219956 0.663636 0
M  V30 3714 H 359.731 0.688352 1.92673 0
M  V30 3715 H 359.741 -0.536464 4.04458 0
M  V30 3716 H 358.416 0.61383 4.11345 0
M  V30 3717 H 356.993 -1.12999 3.55367 0
M  V30 3718 N 359.178 -1.55987 0.224894 0
M  V30 3719 C 360.108 -2.23426 -0.678457 0
M  V30 3720 C 361.089 -1.20709 -1.19847 0
M  V30 3721 O 362.274 -1.49304 -1.24186 0
M  V30 3722 C 359.404 -2.91676 -1.88527 0
M  V30 3723 C 358.358 -4.00893 -1.49896 0
M  V30 3724 C 357.684 -4.56455 -2.78483 0
M  V30 3725 C 358.984 -5.17769 -0.686461 0
M  V30 3726 H 360.678 -2.99175 -0.116173 0
M  V30 3727 H 358.224 -1.43897 -0.054436 0
M  V30 3728 H 360.177 -3.37547 -2.5227 0
M  V30 3729 H 358.901 -2.1338 -2.47258 0
M  V30 3730 H 357.56 -3.55758 -0.884985 0
M  V30 3731 H 357.208 -3.74886 -3.35365 0
M  V30 3732 H 356.908 -5.30169 -2.53368 0
M  V30 3733 H 358.432 -5.05047 -3.43162 0
M  V30 3734 H 359.846 -5.60001 -1.22767 0
M  V30 3735 H 358.243 -5.97735 -0.532259 0
M  V30 3736 H 359.313 -4.83932 0.306196 0
M  V30 3737 N 360.656 0.0484629 -1.57525 0
M  V30 3738 C 361.606 1.06246 -2.01732 0
M  V30 3739 C 362.59 1.33155 -0.903245 0
M  V30 3740 O 363.782 1.33065 -1.16717 0
M  V30 3741 C 360.911 2.36943 -2.48421 0
M  V30 3742 C 359.997 2.13208 -3.6661 0
M  V30 3743 N 360.388 1.5947 -4.80003 0
M  V30 3744 C 358.686 2.43581 -3.7361 0
M  V30 3745 C 359.387 1.51092 -5.61735 0
M  V30 3746 N 358.363 1.9797 -5.0627 0
M  V30 3747 H 362.165 0.640675 -2.86832 0
M  V30 3748 H 359.679 0.255134 -1.60383 0
M  V30 3749 H 361.676 3.10374 -2.78341 0
M  V30 3750 H 360.336 2.79818 -1.64718 0
M  V30 3751 H 361.347 1.28008 -5.01831 0
M  V30 3752 H 358.024 2.89662 -3.00669 0
M  V30 3753 H 359.414 1.10199 -6.62801 0
M  V30 3754 N 362.134 1.5431 0.320358 0
M  V30 3755 C 363.044 1.86946 1.41734 0
M  V30 3756 C 364.06 0.761689 1.56443 0
M  V30 3757 O 365.236 1.05629 1.71477 0
M  V30 3758 C 362.301 2.09293 2.76401 0
M  V30 3759 C 361.362 3.33082 2.70841 0
M  V30 3760 C 360.595 3.54353 3.99086 0
M  V30 3761 O 360.818 2.79002 4.97508 0
M  V30 3762 O 359.752 4.47838 4.0215 0
M  V30 3763 H 363.578 2.80232 1.17062 0
M  V30 3764 H 361.163 1.40255 0.514673 0
M  V30 3765 H 363.045 2.25303 3.56113 0
M  V30 3766 H 361.72 1.19194 3.00956 0
M  V30 3767 H 360.627 3.22454 1.89668 0
M  V30 3768 H 361.96 4.23249 2.5124 0
M  V30 3769 N 363.613 -0.582584 1.46437 0
M  V30 3770 C 364.862 -1.337 1.5102 0
M  V30 3771 C 365.175 -1.94891 0.166359 0
M  V30 3772 O 366.381 -2.71351 0.0899954 0
M  V30 3773 C 364.837 -2.42315 2.66104 0
M  V30 3774 C 364.445 -1.87427 4.06909 0
M  V30 3775 C 366.189 -3.19099 2.79958 0
M  V30 3776 C 364.096 -2.93672 5.13333 0
M  V30 3777 H 363.026 -0.502619 0.562041 0
M  V30 3778 H 365.677 -0.621701 1.72647 0
M  V30 3779 H 364.059 -3.16645 2.37807 0
M  V30 3780 H 365.233 -1.19639 4.44998 0
M  V30 3781 H 363.548 -1.2331 3.97723 0
M  V30 3782 H 366.145 -3.9839 3.56636 0
M  V30 3783 H 366.488 -3.71695 1.87479 0
M  V30 3784 H 367.021 -2.51875 3.07902 0
M  V30 3785 H 363.76 -2.45962 6.07604 0
M  V30 3786 H 363.28 -3.59948 4.79789 0
M  V30 3787 H 364.959 -3.5762 5.39182 0
M  V30 3788 N 365.091 -1.34144 -0.827227 0
M  V30 3789 C 366.368 -1.16844 -1.56865 0
M  V30 3790 C 366.748 0.260654 -2.09485 0
M  V30 3791 O 366.096 1.26138 -1.9053 0
M  V30 3792 C 366.306 -2.21939 -2.6934 0
M  V30 3793 C 367.654 -2.56695 -3.3822 0
M  V30 3794 O 368.678 -2.20695 -2.79593 0
M  V30 3795 O 367.537 -3.18518 -4.44082 0
M  V30 3796 H 364.631 -0.452669 -0.692112 0
M  V30 3797 H 367.177 -1.45763 -0.868973 0
M  V30 3798 H 365.949 -3.17882 -2.28182 0
M  V30 3799 H 365.572 -1.94172 -3.46962 0
M  V30 3800 N 366.569 1.04691 -1.17803 0
M  V30 3801 C 367.815 1.78045 -0.970969 0
M  V30 3802 C 368.148 1.87686 0.498751 0
M  V30 3803 O 367.423 1.38035 1.37027 0
M  V30 3804 C 367.706 3.2166 -1.61884 0
M  V30 3805 C 367.559 3.20001 -3.161 0
M  V30 3806 C 368.878 4.1962 -1.3269 0
M  V30 3807 H 365.997 0.64633 -0.354155 0
M  V30 3808 H 368.639 1.22333 -1.45378 0
M  V30 3809 H 366.789 3.69232 -1.20831 0
M  V30 3810 H 368.461 2.80467 -3.66246 0
M  V30 3811 H 366.704 2.58203 -3.48588 0
M  V30 3812 H 367.375 4.21386 -3.56564 0
M  V30 3813 H 369.851 3.80567 -1.68249 0
M  V30 3814 H 368.727 5.18339 -1.80599 0
M  V30 3815 H 368.988 4.414 -0.248622 0
M  V30 3816 N 368.047 0.979072 1.23499 0
M  V30 3817 C 369.296 0.642751 1.91185 0
M  V30 3818 C 369.609 -0.827253 1.77245 0
M  V30 3819 O 370.815 -1.27458 2.39722 0
M  V30 3820 C 369.271 1.09901 3.42709 0
M  V30 3821 C 368.879 2.59327 3.65313 0
M  V30 3822 C 370.623 0.836371 4.16179 0
M  V30 3823 C 368.53 2.98627 5.10467 0
M  V30 3824 H 367.46 0.236698 0.715884 0
M  V30 3825 H 370.111 1.1868 1.39955 0
M  V30 3826 H 368.493 0.48319 3.93041 0
M  V30 3827 H 369.667 3.26136 3.25533 0
M  V30 3828 H 367.982 2.83323 3.05151 0
M  V30 3829 H 370.579 1.10586 5.23139 0
M  V30 3830 H 370.922 -0.227509 4.15678 0
M  V30 3831 H 371.455 1.41371 3.71832 0
M  V30 3832 H 368.194 4.04133 5.16098 0
M  V30 3833 H 367.714 2.3651 5.51201 0
M  V30 3834 H 369.393 2.89159 5.78788 0
M  V30 3835 N 369.525 -1.3858 0.750561 0
M  V30 3836 C 370.473 -2.32339 0.110162 0
M  V30 3837 C 371.467 -1.53864 -0.708674 0
M  V30 3838 O 372.673 -1.69417 -0.608112 0
M  V30 3839 H 369.048 -0.751812 0.0168275 0
M  V30 3840 H 371.019 -2.83959 0.917053 0
M  V30 3841 C 369.768 -3.39043 -0.771067 0
M  V30 3842 H 369.091 -3.99517 -0.150374 0
M  V30 3843 H 370.531 -4.07061 -1.1865 0
M  V30 3844 C 368.99 -2.77365 -1.91234 0
M  V30 3845 O 369.52 -2.66434 -3.00626 0
M  V30 3846 N 367.726 -2.35219 -1.70646 0
M  V30 3847 H 367.273 -2.4431 -0.81673 0
M  V30 3848 H 367.231 -1.94294 -2.47178 0
M  V30 3849 N 371.003 -0.499398 -1.49478 0
M  V30 3850 C 372.228 0.044722 -2.07352 0
M  V30 3851 C 372.653 1.30207 -1.35749 0
M  V30 3852 O 372.011 1.76516 -0.413732 0
M  V30 3853 C 372.059 0.283013 -3.59488 0
M  V30 3854 O 371.163 1.35804 -3.89398 0
M  V30 3855 H 370.504 -0.0255147 -0.66351 0
M  V30 3856 H 373.034 -0.698561 -1.92305 0
M  V30 3857 H 373.044 0.515007 -4.04737 0
M  V30 3858 H 371.719 -0.635636 -4.11014 0
M  V30 3859 H 370.296 1.11113 -3.55961 0
M  V30 3860 N 372.481 1.55866 -0.233164 0
M  V30 3861 C 373.897 1.59133 0.121988 0
M  V30 3862 C 374.097 1.25016 1.58029 0
M  V30 3863 O 373.153 0.990922 2.32243 0
M  V30 3864 C 374.466 2.99932 -0.214792 0
M  V30 3865 C 376.014 3.12601 -0.157971 0
M  V30 3866 C 376.489 4.55597 -0.46859 0
M  V30 3867 N 377.98 4.61305 -0.418585 0
M  V30 3868 C 378.715 5.69903 -0.63227 0
M  V30 3869 N 378.211 6.86819 -0.90835 0
M  V30 3870 N 380.004 5.59264 -0.563913 0
M  V30 3871 H 372.155 1.76315 -1.18434 0
M  V30 3872 H 374.418 0.820093 -0.475553 0
M  V30 3873 H 374.124 3.29588 -1.22739 0
M  V30 3874 H 373.998 3.74327 0.464691 0
M  V30 3875 H 376.385 2.82735 0.845283 0
M  V30 3876 H 376.466 2.40511 -0.871102 0
M  V30 3877 H 376.11 4.86182 -1.46934 0
M  V30 3878 H 376.04 5.25928 0.265865 0
M  V30 3879 H 378.531 3.77297 -0.213368 0
M  V30 3880 H 378.844 7.65507 -1.05919 0
M  V30 3881 H 377.189 6.88536 -0.945673 0
M  V30 3882 H 380.38 4.66802 -0.348372 0
M  V30 3883 H 380.553 6.43831 -0.733847 0
M  V30 3884 N 373.959 -0.0401083 1.57549 0
M  V30 3885 C 375.187 -0.745196 1.93014 0
M  V30 3886 C 375.602 -1.6948 0.831984 0
M  V30 3887 O 374.959 -1.81482 -0.192463 0
M  V30 3888 C 375.01 -1.51176 3.28372 0
M  V30 3889 O 374.731 -0.600284 4.33968 0
M  V30 3890 C 376.232 -2.315 3.78051 0
M  V30 3891 H 373.452 -0.210088 0.637263 0
M  V30 3892 H 375.996 -0.000924689 2.045 0
M  V30 3893 H 374.151 -2.20801 3.18317 0
M  V30 3894 H 374.565 -1.13669 5.12035 0
M  V30 3895 H 376.039 -2.80697 4.75303 0
M  V30 3896 H 376.516 -3.12436 3.08675 0
M  V30 3897 H 377.122 -1.66971 3.91153 0
M  V30 3898 N 375.437 -1.54477 -0.31217 0
M  V30 3899 C 376.369 -1.81011 -1.40598 0
M  V30 3900 C 377.382 -0.692546 -1.47335 0
M  V30 3901 O 378.571 -0.969847 -1.49854 0
M  V30 3902 C 375.671 -1.92307 -2.79054 0
M  V30 3903 C 374.844 -3.22594 -2.95384 0
M  V30 3904 C 373.903 -3.24448 -4.1427 0
M  V30 3905 O 372.929 -3.98035 -4.06887 0
M  V30 3906 N 374.131 -2.49042 -5.24365 0
M  V30 3907 H 376.896 -2.75408 -1.18196 0
M  V30 3908 H 374.457 -1.53914 -0.502202 0
M  V30 3909 H 376.449 -1.90962 -3.56813 0
M  V30 3910 H 375.019 -1.04955 -2.94454 0
M  V30 3911 H 374.239 -3.36806 -2.04831 0
M  V30 3912 H 375.527 -4.08593 -3.03198 0
M  V30 3913 H 374.925 -1.88867 -5.33241 0
M  V30 3914 H 373.482 -2.53463 -6.005 0
M  V30 3915 N 376.915 0.57481 -1.46744 0
M  V30 3916 C 378.163 1.33009 -1.52161 0
M  V30 3917 C 378.484 1.94185 -0.178092 0
M  V30 3918 O 377.754 1.7899 0.796196 0
M  V30 3919 H 376.334 0.493873 -0.560445 0
M  V30 3920 H 378.996 0.672589 -1.82927 0
M  V30 3921 H 378.092 2.13273 -2.27862 0
M  V30 3922 N 378.394 1.34581 0.820102 0
M  V30 3923 C 379.641 1.27096 1.57648 0
M  V30 3924 C 379.969 -0.158317 1.93855 0
M  V30 3925 O 379.224 -1.12028 1.60463 0
M  V30 3926 C 379.523 2.10997 2.8847 0
M  V30 3927 C 379.189 3.59966 2.71543 0
M  V30 3928 C 377.851 4.00575 2.66634 0
M  V30 3929 C 380.203 4.54548 2.55021 0
M  V30 3930 C 377.531 5.33953 2.43128 0
M  V30 3931 C 379.883 5.88109 2.33047 0
M  V30 3932 C 378.547 6.27878 2.26552 0
M  V30 3933 H 377.817 0.465078 0.576874 0
M  V30 3934 H 380.464 1.6635 0.948671 0
M  V30 3935 H 378.769 1.6458 3.55557 0
M  V30 3936 H 380.466 2.0255 3.46084 0
M  V30 3937 H 377.056 3.27733 2.76205 0
M  V30 3938 H 381.24 4.24069 2.57835 0
M  V30 3939 H 376.496 5.63781 2.3656 0
M  V30 3940 H 380.67 6.60985 2.19251 0
M  V30 3941 H 378.297 7.31162 2.081 0
M  V30 3942 N 379.872 -1.04064 1.18357 0
M  V30 3943 C 380.802 -2.14001 0.934113 0
M  V30 3944 C 381.783 -1.69616 -0.128186 0
M  V30 3945 O 382.968 -1.94185 0.0244093 0
M  V30 3946 C 380.098 -3.44253 0.459066 0
M  V30 3947 C 379.052 -4.02261 1.46185 0
M  V30 3948 C 378.378 -5.27992 0.844322 0
M  V30 3949 C 379.678 -4.38432 2.83856 0
M  V30 3950 H 381.372 -2.35127 1.85352 0
M  V30 3951 H 378.918 -1.12998 0.892604 0
M  V30 3952 H 380.871 -4.20522 0.271907 0
M  V30 3953 H 379.595 -3.22813 -0.495912 0
M  V30 3954 H 378.254 -3.28074 1.63595 0
M  V30 3955 H 377.902 -5.02862 -0.117845 0
M  V30 3956 H 377.602 -5.67765 1.51384 0
M  V30 3957 H 379.126 -6.06938 0.667693 0
M  V30 3958 H 380.54 -5.05688 2.70098 0
M  V30 3959 H 378.937 -4.89254 3.47491 0
M  V30 3960 H 380.007 -3.4826 3.37406 0
M  V30 3961 N 381.35 -0.985608 -1.22978 0
M  V30 3962 C 382.313 -0.535071 -2.22867 0
M  V30 3963 C 383.313 0.378123 -1.56291 0
M  V30 3964 O 384.503 0.171092 -1.73358 0
M  V30 3965 C 381.635 0.222702 -3.40172 0
M  V30 3966 H 382.828 -1.41835 -2.6424 0
M  V30 3967 H 380.381 -0.772042 -1.35901 0
M  V30 3968 H 381.116 1.12229 -3.04262 0
M  V30 3969 H 380.901 -0.43288 -3.89703 0
M  V30 3970 H 382.391 0.526335 -4.1427 0
M  V30 3971 N 382.828 1.3818 -0.7579 0
M  V30 3972 C 383.758 2.33027 -0.148597 0
M  V30 3973 C 384.739 1.55085 0.69875 0
M  V30 3974 O 385.924 1.83384 0.639053 0
M  V30 3975 C 383.054 3.3928 0.742034 0
M  V30 3976 C 382.008 4.28 -0.00291946 0
M  V30 3977 C 381.334 5.25146 1.00625 0
M  V30 3978 C 382.634 5.08938 -1.17385 0
M  V30 3979 H 384.328 2.84231 -0.940909 0
M  V30 3980 H 381.874 1.36659 -0.453908 0
M  V30 3981 H 383.827 4.046 1.17799 0
M  V30 3982 H 382.551 2.86569 1.56671 0
M  V30 3983 H 381.21 3.64192 -0.419504 0
M  V30 3984 H 380.858 4.68721 1.8251 0
M  V30 3985 H 380.558 5.85361 0.512428 0
M  V30 3986 H 382.082 5.93342 1.44143 0
M  V30 3987 H 383.496 5.67474 -0.815224 0
M  V30 3988 H 381.893 5.7841 -1.59882 0
M  V30 3989 H 382.963 4.42424 -1.98468 0
M  V30 3990 N 384.306 0.507319 1.49211 0
M  V30 3991 C 385.553 -0.0349529 2.0247 0
M  V30 3992 C 385.881 -1.36409 1.38647 0
M  V30 3993 O 385.136 -1.88841 0.513566 0
M  V30 3994 C 385.435 -0.229513 3.56662 0
M  V30 3995 C 385.101 1.02241 4.39156 0
M  V30 3996 C 383.763 1.36557 4.61417 0
M  V30 3997 C 386.115 1.85428 4.871 0
M  V30 3998 C 383.443 2.53999 5.28868 0
M  V30 3999 C 385.795 3.02028 5.55843 0
M  V30 4000 C 384.459 3.36717 5.76349 0
M  V30 4001 H 383.729 -0.0127902 0.74089 0
M  V30 4002 H 386.376 0.668756 1.79443 0
M  V30 4003 H 384.681 -1.0158 3.78403 0
M  V30 4004 H 386.378 -0.663641 3.9547 0
M  V30 4005 H 382.968 0.745124 4.22073 0
M  V30 4006 H 387.152 1.6023 4.69723 0
M  V30 4007 H 382.408 2.81105 5.42946 0
M  V30 4008 H 386.582 3.66808 5.91967 0
M  V30 4009 H 384.209 4.27821 6.28389 0
M  V30 4010 N 385.784 -1.5574 0.241426 0
M  V30 4011 C 387.009 -2.0366 -0.392111 0
M  V30 4012 C 387.434 -1.11969 -1.51144 0
M  V30 4013 O 386.792 -0.111594 -1.80956 0
M  V30 4014 C 386.84 -3.49638 -0.882371 0
M  V30 4015 O 385.944 -3.6108 -1.99235 0
M  V30 4016 H 385.285 -0.658379 -0.0862122 0
M  V30 4017 H 387.815 -2.01302 0.365881 0
M  V30 4018 H 387.825 -3.90351 -1.18702 0
M  V30 4019 H 386.5 -4.15852 -0.0632361 0
M  V30 4020 H 385.077 -3.32262 -1.69282 0
M  V30 4021 N 387.262 0.0317525 -1.57568 0
M  V30 4022 C 388.51 0.721676 -1.88776 0
M  V30 4023 C 388.831 1.76039 -0.838772 0
M  V30 4024 O 388.101 1.95482 0.127935 0
M  V30 4025 H 386.681 0.269534 -0.696678 0
M  V30 4026 H 389.343 -0.00165879 -1.949 0
M  V30 4027 H 388.439 1.21293 -2.87566 0
M  V30 4028 N 388.74 1.54641 0.303973 0
M  V30 4029 C 390.017 1.64455 1.05896 0
M  V30 4030 C 390.397 0.490923 2.05312 0
M  V30 4031 O 389.745 -0.512685 2.22674 0
M  V30 4032 C 389.955 3.02331 1.74347 0
M  V30 4033 C 391.303 3.59045 2.26653 0
M  V30 4034 O 392.327 3.04764 1.84384 0
M  V30 4035 O 391.186 4.54081 3.04093 0
M  V30 4036 H 388.28 0.666729 0.489287 0
M  V30 4037 H 390.826 1.66986 0.302298 0
M  V30 4038 H 389.598 3.77734 1.02142 0
M  V30 4039 H 389.221 3.03565 2.56777 0
M  V30 4040 N 390.218 -0.567019 1.47046 0
M  V30 4041 C 391.446 -1.35027 1.56765 0
M  V30 4042 C 391.861 -1.8758 0.214316 0
M  V30 4043 O 391.218 -1.64471 -0.790919 0
M  V30 4044 C 391.269 -2.52698 2.58507 0
M  V30 4045 O 390.99 -2.0232 3.88585 0
M  V30 4046 C 392.491 -3.45043 2.78316 0
M  V30 4047 H 389.711 -0.41195 0.529658 0
M  V30 4048 H 392.255 -0.687832 1.92585 0
M  V30 4049 H 390.41 -3.149 2.25648 0
M  V30 4050 H 390.824 -2.79068 4.44096 0
M  V30 4051 H 392.298 -4.2405 3.53391 0
M  V30 4052 H 392.775 -3.97971 1.85784 0
M  V30 4053 H 393.381 -2.88665 3.12334 0
M  V30 4054 N 391.696 -1.35014 -0.812953 0
M  V30 4055 C 392.944 -1.27678 -1.56661 0
M  V30 4056 C 393.265 0.150359 -1.94419 0
M  V30 4057 O 392.535 1.08532 -1.63088 0
M  V30 4058 H 391.115 -0.469602 -0.580933 0
M  V30 4059 H 393.777 -1.69043 -0.970076 0
M  V30 4060 H 392.873 -1.88833 -2.48492 0
M  V30 4061 N 393.175 1.03435 -1.18907 0
M  V30 4062 C 394.085 2.15075 -0.937015 0
M  V30 4063 C 395.101 1.73706 0.101085 0
M  V30 4064 O 396.277 2.01232 -0.0822948 0
M  V30 4065 C 393.342 3.43458 -0.473057 0
M  V30 4066 C 392.403 3.99172 -1.57989 0
M  V30 4067 C 391.636 5.21427 -1.13797 0
M  V30 4068 O 391.859 5.704 0.000725941 0
M  V30 4069 O 390.793 5.69837 -1.9383 0
M  V30 4070 H 394.619 2.39198 -1.87131 0
M  V30 4071 H 392.204 1.13506 -0.971427 0
M  V30 4072 H 394.086 4.20811 -0.222702 0
M  V30 4073 H 392.761 3.20793 0.432869 0
M  V30 4074 H 391.668 3.23178 -1.88433 0
M  V30 4075 H 393.001 4.2619 -2.46217 0
M  V30 4076 N 394.653 0.992116 1.22453 0
M  V30 4077 C 395.902 0.662992 1.90492 0
M  V30 4078 C 396.215 -0.808407 1.78113 0
M  V30 4079 O 397.421 -1.24908 2.41061 0
M  V30 4080 C 395.877 1.1353 3.41524 0
M  V30 4081 C 395.485 2.63187 3.62542 0
M  V30 4082 C 397.229 0.880465 4.15269 0
M  V30 4083 C 395.136 3.04024 5.0727 0
M  V30 4084 H 394.066 0.244278 0.713333 0
M  V30 4085 H 396.717 1.20157 1.38688 0
M  V30 4086 H 395.099 0.52485 3.92506 0
M  V30 4087 H 396.273 3.2957 3.22056 0
M  V30 4088 H 394.588 2.86543 3.02129 0
M  V30 4089 H 397.185 1.16128 5.21937 0
M  V30 4090 H 397.528 -0.183408 4.15896 0
M  V30 4091 H 398.061 1.45307 3.70312 0
M  V30 4092 H 394.8 4.09584 5.11782 0
M  V30 4093 H 394.32 2.42343 5.48662 0
M  V30 4094 H 395.999 2.95282 5.75689 0
M  V30 4095 N 396.131 -1.37776 0.765217 0
M  V30 4096 C 397.078 -2.30342 0.145274 0
M  V30 4097 C 398.048 -1.5077 -0.696971 0
M  V30 4098 O 399.233 -1.79362 -0.650689 0
M  V30 4099 C 396.373 -3.37227 -0.732939 0
M  V30 4100 C 395.486 -4.31819 0.125199 0
M  V30 4101 C 394.621 -5.25777 -0.757107 0
M  V30 4102 C 393.66 -6.12012 0.103963 0
M  V30 4103 N 392.797 -6.98232 -0.735953 0
M  V30 4104 H 397.637 -2.8278 0.940195 0
M  V30 4105 H 395.174 -1.39211 0.475255 0
M  V30 4106 H 397.132 -3.97818 -1.25686 0
M  V30 4107 H 395.762 -2.86171 -1.49353 0
M  V30 4108 H 394.814 -3.7259 0.766865 0
M  V30 4109 H 396.126 -4.92509 0.789683 0
M  V30 4110 H 395.28 -5.91541 -1.34776 0
M  V30 4111 H 394.019 -4.65481 -1.45529 0
M  V30 4112 H 393.024 -5.45233 0.707197 0
M  V30 4113 H 394.249 -6.74379 0.799381 0
M  V30 4114 H 392.195 -6.40472 -1.41887 0
M  V30 4115 H 392.112 -7.55891 -0.128624 0
M  V30 4116 H 393.38 -7.68393 -1.31121 0
M  V30 4117 N 397.609 -0.515225 -1.4894 0
M  V30 4118 C 398.834 0.022727 -2.07388 0
M  V30 4119 C 399.259 1.2876 -1.37122 0
M  V30 4120 O 398.617 1.76067 -0.432431 0
M  V30 4121 C 398.665 0.244869 -3.59768 0
M  V30 4122 O 397.769 1.31667 -3.90817 0
M  V30 4123 H 397.11 -0.0325506 -0.663202 0
M  V30 4124 H 399.64 -0.718918 -1.91553 0
M  V30 4125 H 399.65 0.47205 -4.0526 0
M  V30 4126 H 398.325 -0.679194 -4.10317 0
M  V30 4127 H 396.902 1.07331 -3.5712 0
M  V30 4128 N 399.087 1.5561 -0.249682 0
M  V30 4129 C 399.997 2.25143 0.659375 0
M  V30 4130 C 401.013 1.2685 1.19101 0
M  V30 4131 O 402.189 1.59732 1.22669 0
M  V30 4132 C 399.254 2.93945 1.8384 0
M  V30 4133 C 398.315 4.07655 1.34596 0
M  V30 4134 C 397.548 4.73167 2.46878 0
M  V30 4135 O 397.771 4.37768 3.65671 0
M  V30 4136 O 396.705 5.61623 2.16478 0
M  V30 4137 H 400.531 3.03545 0.0968698 0
M  V30 4138 H 398.116 1.49389 -0.018074 0
M  V30 4139 H 399.998 3.37271 2.52638 0
M  V30 4140 H 398.673 2.18481 2.38847 0
M  V30 4141 H 397.58 3.68839 0.625174 0
M  V30 4142 H 398.913 4.84946 0.841941 0
M  V30 4143 N 400.565 -0.0233959 1.57583 0
M  V30 4144 C 401.811 -0.714119 1.89811 0
M  V30 4145 C 402.144 -1.74702 0.848113 0
M  V30 4146 O 401.419 -1.94023 -0.136135 0
M  V30 4147 C 401.702 -1.37853 3.32669 0
M  V30 4148 C 401.555 -0.358764 4.48367 0
M  V30 4149 C 402.874 -2.31101 3.7454 0
M  V30 4150 H 399.993 -0.25814 0.690314 0
M  V30 4151 H 402.635 0.0230927 1.89986 0
M  V30 4152 H 400.785 -2.00689 3.3265 0
M  V30 4153 H 402.457 0.268115 4.6052 0
M  V30 4154 H 400.7 0.321387 4.32608 0
M  V30 4155 H 401.371 -0.862242 5.45224 0
M  V30 4156 H 403.847 -1.78304 3.75961 0
M  V30 4157 H 402.723 -2.74567 4.75294 0
M  V30 4158 H 402.984 -3.18018 3.0711 0
M  V30 4159 N 402.043 -1.548 -0.295768 0
M  V30 4160 C 403.459 -1.4613 -0.641722 0
M  V30 4161 C 403.659 -0.656771 -1.90496 0
M  V30 4162 O 402.715 -0.166547 -2.5195 0
M  V30 4163 C 404.028 -2.90141 -0.789852 0
M  V30 4164 C 405.576 -3.00216 -0.885396 0
M  V30 4165 C 406.051 -4.45434 -1.06548 0
M  V30 4166 N 407.542 -4.49166 -1.13156 0
M  V30 4167 C 408.277 -5.58717 -1.28929 0
M  V30 4168 N 407.773 -6.78182 -1.41567 0
M  V30 4169 N 409.566 -5.46415 -1.31859 0
M  V30 4170 H 401.717 -2.05574 0.534147 0
M  V30 4171 H 403.98 -0.931259 0.177372 0
M  V30 4172 H 403.686 -3.51635 0.0675598 0
M  V30 4173 H 403.56 -3.37859 -1.67724 0
M  V30 4174 H 405.947 -2.38833 -1.73329 0
M  V30 4175 H 406.028 -2.55787 0.0261185 0
M  V30 4176 H 405.672 -5.07413 -0.222335 0
M  V30 4177 H 405.602 -4.87499 -1.9913 0
M  V30 4178 H 408.093 -3.631 -1.04721 0
M  V30 4179 H 408.406 -7.57428 -1.53372 0
M  V30 4180 H 406.751 -6.81037 -1.38613 0
M  V30 4181 H 409.942 -4.5203 -1.21601 0
M  V30 4182 H 410.115 -6.31841 -1.43808 0
M  V30 4183 N 403.521 0.559213 -1.47345 0
M  V30 4184 C 404.431 1.69388 -1.62311 0
M  V30 4185 C 405.447 1.6648 -0.505993 0
M  V30 4186 O 406.623 1.85964 -0.773262 0
M  V30 4187 C 403.688 3.05894 -1.63185 0
M  V30 4188 C 402.749 3.19885 -2.86307 0
M  V30 4189 C 401.982 4.49879 -2.87131 0
M  V30 4190 O 402.205 5.35217 -1.97229 0
M  V30 4191 O 401.139 4.67618 -3.78968 0
M  V30 4192 H 404.965 1.59706 -2.58317 0
M  V30 4193 H 402.55 0.728989 -1.30407 0
M  V30 4194 H 404.432 3.87133 -1.66451 0
M  V30 4195 H 403.107 3.15964 -0.70345 0
M  V30 4196 H 402.014 2.38052 -2.88587 0
M  V30 4197 H 403.347 3.14718 -3.78435 0
M  V30 4198 N 404.999 1.35443 0.805782 0
M  V30 4199 C 405.931 1.24285 1.92577 0
M  V30 4200 C 406.944 0.165962 1.61952 0
M  V30 4201 O 408.133 0.419303 1.73505 0
M  V30 4202 C 405.233 0.891272 3.2697 0
M  V30 4203 C 404.406 2.06669 3.85495 0
M  V30 4204 C 403.465 1.69077 4.98297 0
M  V30 4205 O 402.491 2.4096 5.15681 0
M  V30 4206 N 403.693 0.614869 5.77234 0
M  V30 4207 H 406.458 2.20777 2.02676 0
M  V30 4208 H 404.019 1.28623 0.983243 0
M  V30 4209 H 406.011 0.621256 3.99903 0
M  V30 4210 H 404.581 0.016004 3.12596 0
M  V30 4211 H 403.801 2.50046 3.04747 0
M  V30 4212 H 405.089 2.85237 4.21328 0
M  V30 4213 H 404.487 0.017648 5.65697 0
M  V30 4214 H 403.044 0.404636 6.50543 0
M  V30 4215 N 406.477 -1.02803 1.19454 0
M  V30 4216 C 407.726 -1.7562 0.991996 0
M  V30 4217 C 408.039 -1.89672 -0.477901 0
M  V30 4218 O 409.245 -2.59468 -0.799287 0
M  V30 4219 C 407.701 -3.15812 1.72601 0
M  V30 4220 C 407.309 -3.0981 3.23607 0
M  V30 4221 C 409.053 -3.92918 1.60674 0
M  V30 4222 C 406.96 -4.44939 3.89594 0
M  V30 4223 H 405.89 -0.658352 0.367543 0
M  V30 4224 H 408.541 -1.15044 1.42959 0
M  V30 4225 H 406.923 -3.7686 1.21624 0
M  V30 4226 H 408.097 -2.58138 3.81709 0
M  V30 4227 H 406.412 -2.46201 3.35819 0
M  V30 4228 H 409.009 -4.9287 2.07323 0
M  V30 4229 H 409.352 -4.12502 0.561025 0
M  V30 4230 H 409.885 -3.38472 2.09001 0
M  V30 4231 H 406.624 -4.30559 4.94267 0
M  V30 4232 H 406.144 -4.96664 3.36281 0
M  V30 4233 H 407.823 -5.1382 3.93189 0
M  V30 4234 N 407.956 -0.998596 -1.21925 0
M  V30 4235 C 408.904 -0.546641 -2.26085 0
M  V30 4236 C 409.898 0.405576 -1.64473 0
M  V30 4237 O 411.104 0.277471 -1.77849 0
M  V30 4238 H 407.479 -0.158403 -0.735127 0
M  V30 4239 H 409.45 -1.43645 -2.61551 0
M  V30 4240 C 408.199 0.117388 -3.47502 0
M  V30 4241 H 407.522 -0.606277 -3.95176 0
M  V30 4242 H 408.962 0.396993 -4.22137 0
M  V30 4243 C 407.421 1.35455 -3.0847 0
M  V30 4244 O 407.951 2.44944 -3.18379 0
M  V30 4245 N 406.157 1.23191 -2.63196 0
M  V30 4246 H 405.704 0.341006 -2.55333 0
M  V30 4247 H 405.662 2.06071 -2.37449 0
M  V30 4248 N 409.434 1.37368 -0.772513 0
M  V30 4249 C 410.397 2.28601 -0.165541 0
M  V30 4250 C 411.397 1.48062 0.627238 0
M  V30 4251 O 412.587 1.68268 0.450715 0
M  V30 4252 C 409.719 3.32023 0.772897 0
M  V30 4253 H 410.912 2.83787 -0.969787 0
M  V30 4254 H 408.465 1.46647 -0.540775 0
M  V30 4255 H 409.2 2.81962 1.60212 0
M  V30 4256 H 408.985 3.91555 0.206585 0
M  V30 4257 H 410.475 4.00197 1.19298 0
M  V30 4258 N 410.912 0.523116 1.48665 0
M  V30 4259 C 411.859 -0.243398 2.29513 0
M  V30 4260 C 412.829 -0.940139 1.36933 0
M  V30 4261 O 414.014 -0.942503 1.65896 0
M  V30 4262 C 411.154 -1.28855 3.20141 0
M  V30 4263 C 410.267 -0.60135 4.27794 0
M  V30 4264 C 409.402 -1.62884 5.05611 0
M  V30 4265 C 408.441 -0.924726 6.05075 0
M  V30 4266 N 407.578 -1.89744 6.75975 0
M  V30 4267 H 412.418 0.452234 2.94549 0
M  V30 4268 H 409.955 0.234858 1.45213 0
M  V30 4269 H 411.913 -1.90674 3.71079 0
M  V30 4270 H 410.543 -1.95266 2.57043 0
M  V30 4271 H 409.595 0.130623 3.80176 0
M  V30 4272 H 410.907 -0.0481585 4.98777 0
M  V30 4273 H 410.061 -2.32149 5.60528 0
M  V30 4274 H 408.8 -2.21592 4.34452 0
M  V30 4275 H 407.805 -0.217966 5.49368 0
M  V30 4276 H 409.03 -0.343851 6.78229 0
M  V30 4277 H 406.976 -2.47373 6.07571 0
M  V30 4278 H 406.893 -1.3955 7.43009 0
M  V30 4279 H 408.161 -2.58229 7.35485 0
M  V30 4280 N 412.39 -1.55475 0.257931 0
M  V30 4281 C 413.636 -1.99502 -0.364266 0
M  V30 4282 C 413.969 -1.146 -1.56782 0
M  V30 4283 O 413.244 -0.211968 -1.93342 0
M  V30 4284 C 413.527 -3.51917 -0.763333 0
M  V30 4285 C 413.38 -4.4758 0.446371 0
M  V30 4286 C 414.699 -4.09742 -1.60623 0
M  V30 4287 H 411.818 -0.725277 -0.130929 0
M  V30 4288 H 414.46 -1.8653 0.361446 0
M  V30 4289 H 412.61 -3.63101 -1.38166 0
M  V30 4290 H 414.282 -4.48362 1.08487 0
M  V30 4291 H 412.525 -4.19947 1.08753 0
M  V30 4292 H 413.196 -5.51862 0.123645 0
M  V30 4293 H 415.672 -4.01727 -1.08418 0
M  V30 4294 H 414.548 -5.16631 -1.85429 0
M  V30 4295 H 414.809 -3.58889 -2.58169 0
M  V30 4296 N 413.868 0.0150385 -1.57593 0
M  V30 4297 C 414.831 0.995996 -2.06428 0
M  V30 4298 C 415.831 1.2818 -0.970903 0
M  V30 4299 O 417.021 1.22949 -1.23406 0
M  V30 4300 C 414.153 2.32506 -2.49307 0
M  V30 4301 H 415.346 0.573873 -2.94358 0
M  V30 4302 H 412.899 0.262186 -1.54085 0
M  V30 4303 H 413.634 2.79438 -1.64575 0
M  V30 4304 H 413.419 2.13087 -3.29145 0
M  V30 4305 H 414.909 3.02906 -2.87468 0
M  V30 4306 N 415.346 1.54954 0.287554 0
M  V30 4307 C 416.256 1.8991 1.37736 0
M  V30 4308 C 417.272 0.794701 1.54792 0
M  V30 4309 O 418.448 1.09243 1.69198 0
M  V30 4310 C 415.513 2.15108 2.71899 0
M  V30 4311 C 414.574 3.38752 2.63715 0
M  V30 4312 C 413.807 3.62739 3.91479 0
M  V30 4313 O 414.03 2.89492 4.91478 0
M  V30 4314 O 412.964 4.56267 3.92561 0
M  V30 4315 H 416.79 2.82652 1.11092 0
M  V30 4316 H 414.375 1.41315 0.484807 0
M  V30 4317 H 416.257 2.32806 3.51254 0
M  V30 4318 H 414.932 1.25551 2.9836 0
M  V30 4319 H 413.839 3.26405 1.82786 0
M  V30 4320 H 415.172 4.28483 2.42205 0
M  V30 4321 N 416.824 -0.551391 1.4764 0
M  V30 4322 C 418.07 -1.30789 1.55774 0
M  V30 4323 C 418.425 -1.91143 0.219562 0
M  V30 4324 O 417.718 -1.7521 -0.775375 0
M  V30 4325 C 417.912 -2.43469 2.61644 0
M  V30 4326 C 417.741 -1.94157 4.05627 0
M  V30 4327 C 416.511 -1.77734 4.7301 0
M  V30 4328 C 418.709 -1.48262 4.92466 0
M  V30 4329 N 416.691 -1.22823 6.01488 0
M  V30 4330 C 418.062 -1.05156 6.11017 0
M  V30 4331 C 420.117 -1.36367 4.78862 0
M  V30 4332 C 418.82 -0.513357 7.17466 0
M  V30 4333 C 420.846 -0.839484 5.85411 0
M  V30 4334 C 420.208 -0.418377 7.03156 0
M  V30 4335 H 416.307 -0.470406 0.624694 0
M  V30 4336 H 418.891 -0.624331 1.84419 0
M  V30 4337 H 417.062 -3.09348 2.34859 0
M  V30 4338 H 418.794 -3.10477 2.59589 0
M  V30 4339 H 415.549 -2.00623 4.29007 0
M  V30 4340 H 415.973 -0.974393 6.69951 0
M  V30 4341 H 420.615 -1.67535 3.88191 0
M  V30 4342 H 418.333 -0.189318 8.07878 0
M  V30 4343 H 421.919 -0.750921 5.76934 0
M  V30 4344 H 420.799 -0.0190538 7.84198 0
M  V30 4345 N 418.302 -1.35869 -0.798587 0
M  V30 4346 C 419.718 -1.16082 -1.09532 0
M  V30 4347 C 419.918 0.0213124 -2.01489 0
M  V30 4348 O 418.974 0.689488 -2.42904 0
M  V30 4349 C 420.287 -2.46748 -1.7186 0
M  V30 4350 C 421.835 -2.53028 -1.84244 0
M  V30 4351 C 422.31 -3.83758 -2.49988 0
M  V30 4352 N 423.801 -3.85053 -2.57465 0
M  V30 4353 C 424.536 -4.8294 -3.09122 0
M  V30 4354 N 424.032 -5.91217 -3.61157 0
M  V30 4355 N 425.825 -4.70369 -3.0775 0
M  V30 4356 H 417.976 -2.11571 -0.187461 0
M  V30 4357 H 420.239 -0.936726 -0.145765 0
M  V30 4358 H 419.945 -3.33471 -1.11759 0
M  V30 4359 H 419.819 -2.61883 -2.71472 0
M  V30 4360 H 422.206 -1.66729 -2.43486 0
M  V30 4361 H 422.287 -2.418 -0.834643 0
M  V30 4362 H 421.931 -4.70459 -1.91393 0
M  V30 4363 H 421.861 -3.92278 -3.5132 0
M  V30 4364 H 424.352 -3.06822 -2.20609 0
M  V30 4365 H 424.665 -6.61892 -3.98896 0
M  V30 4366 H 423.01 -5.94899 -3.59333 0
M  V30 4367 H 426.201 -3.84914 -2.66381 0
M  V30 4368 H 426.374 -5.46816 -3.47701 0
M  V30 4369 N 419.78 1.02168 -1.19998 0
M  V30 4370 C 420.69 2.14069 -0.959774 0
M  V30 4371 C 421.706 1.73804 0.082655 0
M  V30 4372 O 422.882 2.01133 -0.103633 0
M  V30 4373 C 419.947 3.42936 -0.509459 0
M  V30 4374 C 419.008 3.97474 -1.62213 0
M  V30 4375 C 418.241 5.2019 -1.19321 0
M  V30 4376 O 418.464 5.70369 -0.0597726 0
M  V30 4377 O 417.398 5.67749 -1.99863 0
M  V30 4378 H 421.224 2.37199 -1.89658 0
M  V30 4379 H 418.809 1.12469 -0.983411 0
M  V30 4380 H 420.691 4.20551 -0.267322 0
M  V30 4381 H 419.366 3.21234 0.398821 0
M  V30 4382 H 418.273 3.21161 -1.9185 0
M  V30 4383 H 419.606 4.23555 -2.50723 0
M  V30 4384 N 421.258 1.00505 1.21394 0
M  V30 4385 C 422.168 0.574806 2.27449 0
M  V30 4386 C 423.184 -0.382206 1.6975 0
M  V30 4387 O 424.36 -0.246027 1.99892 0
M  V30 4388 C 421.425 -0.0917414 3.46579 0
M  V30 4389 C 420.486 0.909758 4.1955 0
M  V30 4390 C 419.719 0.274924 5.32991 0
M  V30 4391 O 419.942 -0.928254 5.62796 0
M  V30 4392 O 418.876 0.985877 5.93771 0
M  V30 4393 H 422.702 1.45744 2.66444 0
M  V30 4394 H 420.287 0.773923 1.27792 0
M  V30 4395 H 422.169 -0.464551 4.18832 0
M  V30 4396 H 420.844 -0.948755 3.09484 0
M  V30 4397 H 419.751 1.33372 3.49518 0
M  V30 4398 H 421.084 1.73636 4.60555 0
M  V30 4399 N 422.737 -1.36956 0.779787 0
M  V30 4400 C 423.985 -1.99097 0.347079 0
M  V30 4401 C 424.306 -1.62206 -1.08232 0
M  V30 4402 O 423.576 -0.891373 -1.74446 0
M  V30 4403 H 422.156 -0.736409 0.125342 0
M  V30 4404 H 424.818 -1.67308 0.999696 0
M  V30 4405 H 423.914 -3.09107 0.431162 0
M  V30 4406 N 424.215 -0.530993 -1.48385 0
M  V30 4407 C 425.162 0.231223 -2.29639 0
M  V30 4408 C 426.132 0.932864 -1.37429 0
M  V30 4409 O 427.317 0.933692 -1.66394 0
M  V30 4410 C 424.457 1.27155 -3.2082 0
M  V30 4411 C 423.57 0.578655 -4.28107 0
M  V30 4412 C 422.705 1.602 -5.06467 0
M  V30 4413 C 421.744 0.892625 -6.05556 0
M  V30 4414 N 420.881 1.86157 -6.76971 0
M  V30 4415 H 425.721 -0.467848 -2.94305 0
M  V30 4416 H 423.258 -0.242556 -1.45086 0
M  V30 4417 H 425.216 1.88703 -3.72085 0
M  V30 4418 H 423.846 1.939 -2.58075 0
M  V30 4419 H 422.898 -0.150782 -3.80101 0
M  V30 4420 H 424.21 0.0217065 -4.98795 0
M  V30 4421 H 423.364 2.29173 -5.61751 0
M  V30 4422 H 422.103 2.19285 -4.35621 0
M  V30 4423 H 421.108 0.188829 -5.49476 0
M  V30 4424 H 422.333 0.307878 -6.78402 0
M  V30 4425 H 420.279 2.44147 -6.08875 0
M  V30 4426 H 420.196 1.35608 -7.43738 0
M  V30 4427 H 421.464 2.54325 -7.36844 0
M  V30 4428 N 425.693 1.55336 -0.266172 0
M  V30 4429 C 426.656 2.20878 0.612001 0
M  V30 4430 C 427.656 1.18388 1.08816 0
M  V30 4431 O 428.846 1.4335 0.989774 0
M  V30 4432 C 425.978 2.86765 1.84332 0
M  V30 4433 H 427.171 2.99873 0.0398718 0
M  V30 4434 H 424.724 1.56291 -0.0167309 0
M  V30 4435 H 425.459 2.11759 2.45619 0
M  V30 4436 H 425.244 3.61862 1.5099 0
M  V30 4437 H 426.734 3.36867 2.46801 0
M  V30 4438 N 427.171 -0.0066808 1.57599 0
M  V30 4439 C 428.081 -1.01671 2.11424 0
M  V30 4440 C 429.097 -1.38143 1.05795 0
M  V30 4441 O 430.273 -1.47011 1.37658 0
M  V30 4442 C 427.338 -2.29192 2.60139 0
M  V30 4443 C 426.399 -1.99094 3.80342 0
M  V30 4444 C 425.632 -3.20535 4.26724 0
M  V30 4445 O 425.855 -4.3199 3.72479 0
M  V30 4446 O 424.789 -3.04924 5.18946 0
M  V30 4447 H 428.615 -0.589181 2.9793 0
M  V30 4448 H 426.2 -0.225091 1.47695 0
M  V30 4449 H 428.082 -3.0412 2.917 0
M  V30 4450 H 426.757 -2.71195 1.76733 0
M  V30 4451 H 425.664 -1.21663 3.53764 0
M  V30 4452 H 426.997 -1.61931 4.648 0
M  V30 4453 N 428.649 -1.55105 -0.279332 0
M  V30 4454 C 429.898 -1.74618 -1.00952 0
M  V30 4455 C 430.211 -0.551096 -1.87676 0
M  V30 4456 O 431.417 -0.628507 -2.64125 0
M  V30 4457 C 429.873 -3.09025 -1.84476 0
M  V30 4458 C 429.481 -4.36081 -1.0265 0
M  V30 4459 C 431.225 -3.37891 -2.56963 0
M  V30 4460 C 429.132 -5.6153 -1.85576 0
M  V30 4461 H 428.062 -0.650868 -0.38064 0
M  V30 4462 H 430.713 -1.81569 -0.265475 0
M  V30 4463 H 429.095 -2.96095 -2.62952 0
M  V30 4464 H 430.269 -4.59909 -0.286354 0
M  V30 4465 H 428.584 -4.14312 -0.416464 0
M  V30 4466 H 431.181 -4.28822 -3.19399 0
M  V30 4467 H 431.524 -2.57737 -3.26921 0
M  V30 4468 H 432.057 -3.5189 -1.85522 0
M  V30 4469 H 428.796 -6.44413 -1.2005 0
M  V30 4470 H 428.316 -5.41854 -2.57204 0
M  V30 4471 H 429.995 -5.99594 -2.43096 0
M  V30 4472 N 430.127 0.543554 -1.4793 0
M  V30 4473 C 431.376 1.29649 -1.54512 0
M  V30 4474 C 431.689 1.94382 -0.217973 0
M  V30 4475 O 432.895 2.71017 -0.161908 0
M  V30 4476 C 431.351 2.35175 -2.72435 0
M  V30 4477 C 430.959 1.76572 -4.11736 0
M  V30 4478 C 432.703 3.11564 -2.8832 0
M  V30 4479 C 430.61 2.79958 -5.20939 0
M  V30 4480 H 429.54 0.487541 -0.57517 0
M  V30 4481 H 432.191 0.575708 -1.74235 0
M  V30 4482 H 430.573 3.10229 -2.46118 0
M  V30 4483 H 431.747 1.07799 -4.48013 0
M  V30 4484 H 430.062 1.12722 -4.00852 0
M  V30 4485 H 432.659 3.88794 -3.67074 0
M  V30 4486 H 433.002 3.66594 -1.97268 0
M  V30 4487 H 433.535 2.43623 -3.14472 0
M  V30 4488 H 430.274 2.29766 -6.13912 0
M  V30 4489 H 429.794 3.47101 -4.89164 0
M  V30 4490 H 431.473 3.43198 -5.48474 0
M  V30 4491 N 431.605 1.3629 0.791371 0
M  V30 4492 C 433.016 1.27225 1.36641 0
M  V30 4493 C 433.367 -0.0887968 1.95999 0
M  V30 4494 O 432.492 -0.990207 1.92416 0
M  V30 4495 C 433.087 2.30375 2.48421 0
M  V30 4496 C 431.646 2.25004 3.01746 0
M  V30 4497 C 430.793 2.15259 1.7481 0
M  V30 4498 H 433.744 1.47198 0.593173 0
M  V30 4499 H 433.765 1.93905 3.27385 0
M  V30 4500 H 433.277 3.29422 2.05189 0
M  V30 4501 H 431.378 1.29417 3.49403 0
M  V30 4502 H 431.491 3.1761 3.58693 0
M  V30 4503 H 429.855 1.61482 1.96966 0
M  V30 4504 H 430.638 3.16191 1.33709 0
M  V30 4505 N 433.083 -1.0153 1.20538 0
M  V30 4506 C 434.331 -1.74803 1.01432 0
M  V30 4507 C 434.652 -1.8963 -0.454456 0
M  V30 4508 O 433.922 -1.43975 -1.32846 0
M  V30 4509 H 432.502 -0.647598 0.372324 0
M  V30 4510 H 435.164 -1.22402 1.5167 0
M  V30 4511 H 434.26 -2.75114 1.47373 0
M  V30 4512 N 434.561 -1.01147 -1.20859 0
M  V30 4513 C 435.807 -0.698899 -1.90377 0
M  V30 4514 C 436.14 0.76904 -1.78324 0
M  V30 4515 O 435.415 1.55817 -1.16409 0
M  V30 4516 C 435.698 -1.12878 -3.41951 0
M  V30 4517 C 435.551 -2.65665 -3.62963 0
M  V30 4518 C 436.87 -0.696114 -4.3456 0
M  V30 4519 H 433.989 -0.255372 -0.691342 0
M  V30 4520 H 436.631 -1.25831 -1.42361 0
M  V30 4521 H 434.781 -0.652827 -3.82976 0
M  V30 4522 H 436.453 -3.21074 -3.31224 0
M  V30 4523 H 434.696 -3.06878 -3.06608 0
M  V30 4524 H 435.367 -2.90797 -4.69192 0
M  V30 4525 H 437.843 -1.10521 -4.01154 0
M  V30 4526 H 436.719 -1.025 -5.39245 0
M  V30 4527 H 436.98 0.402465 -4.40264 0
M  V30 4528 N 436.039 1.36541 -0.78704 0
M  V30 4529 C 436.969 2.32659 -0.197992 0
M  V30 4530 C 437.95 1.56533 0.665697 0
M  V30 4531 O 439.135 1.84698 0.60001 0
M  V30 4532 C 436.265 3.40778 0.669901 0
M  V30 4533 C 435.219 4.27897 -0.0937039 0
M  V30 4534 C 434.545 5.27163 0.894629 0
M  V30 4535 C 435.845 5.06334 -1.28154 0
M  V30 4536 H 437.539 2.82171 -1.00099 0
M  V30 4537 H 435.085 1.35665 -0.482793 0
M  V30 4538 H 437.038 4.07008 1.09191 0
M  V30 4539 H 435.762 2.89827 1.50558 0
M  V30 4540 H 434.421 3.6322 -0.49666 0
M  V30 4541 H 434.069 4.72486 1.72527 0
M  V30 4542 H 433.769 5.86317 0.388149 0
M  V30 4543 H 435.293 5.96266 1.31525 0
M  V30 4544 H 436.707 5.65617 -0.93541 0
M  V30 4545 H 435.104 5.74888 -1.72115 0
M  V30 4546 H 436.174 4.38114 -2.07807 0
M  V30 4547 N 437.518 0.538854 1.48102 0
M  V30 4548 C 438.765 0.0080018 2.02498 0
M  V30 4549 C 439.093 -1.33437 1.41509 0
M  V30 4550 O 438.348 -1.87709 0.553507 0
M  V30 4551 C 438.647 -0.153808 3.57069 0
M  V30 4552 C 438.313 1.11533 4.36888 0
M  V30 4553 C 436.975 1.46314 4.58417 0
M  V30 4554 C 439.327 1.95718 4.83057 0
M  V30 4555 C 436.655 2.6516 5.23361 0
M  V30 4556 C 439.007 3.13751 5.49312 0
M  V30 4557 C 437.671 3.48866 5.69077 0
M  V30 4558 H 436.941 0.00292807 0.740994 0
M  V30 4559 H 439.588 0.706668 1.77984 0
M  V30 4560 H 437.893 -0.935309 3.80472 0
M  V30 4561 H 439.59 -0.579607 3.96789 0
M  V30 4562 H 436.18 0.834484 4.20398 0
M  V30 4563 H 440.364 1.70158 4.66219 0
M  V30 4564 H 435.62 2.92558 5.36861 0
M  V30 4565 H 439.794 3.79282 5.84053 0
M  V30 4566 H 437.421 4.41054 6.19173 0
M  V30 4567 N 438.996 -1.55193 0.274407 0
M  V30 4568 C 440.245 -1.98758 -0.343213 0
M  V30 4569 C 440.558 -1.16624 -1.5703 0
M  V30 4570 O 441.764 -1.5033 -2.26082 0
M  V30 4571 C 440.22 -3.53759 -0.661996 0
M  V30 4572 C 439.828 -4.4467 0.54524 0
M  V30 4573 C 441.572 -4.05916 -1.24228 0
M  V30 4574 C 439.479 -5.91058 0.201084 0
M  V30 4575 H 438.409 -0.742353 -0.132014 0
M  V30 4576 H 441.06 -1.79545 0.378948 0
M  V30 4577 H 439.442 -3.68772 -1.44304 0
M  V30 4578 H 440.616 -4.41426 1.32212 0
M  V30 4579 H 438.931 -4.03143 1.04232 0
M  V30 4580 H 441.528 -5.12831 -1.51357 0
M  V30 4581 H 441.871 -3.54908 -2.17592 0
M  V30 4582 H 442.404 -3.9434 -0.523542 0
M  V30 4583 H 439.143 -6.46161 1.10258 0
M  V30 4584 H 438.663 -5.97373 -0.539045 0
M  V30 4585 H 440.342 -6.46669 -0.206954 0
M  V30 4586 N 440.474 -0.00167713 -1.576 0
M  V30 4587 C 441.751 0.719951 -1.81868 0
M  V30 4588 C 442.131 1.91895 -0.879747 0
M  V30 4589 O 441.479 2.28389 0.0711423 0
M  V30 4590 C 441.689 1.12409 -3.30402 0
M  V30 4591 C 443.037 1.52724 -3.96182 0
M  V30 4592 O 444.061 1.21784 -3.34734 0
M  V30 4593 O 442.92 2.10265 -5.04431 0
M  V30 4594 H 440.014 0.350707 -0.748955 0
M  V30 4595 H 442.56 -0.0272597 -1.69678 0
M  V30 4596 H 441.332 0.269532 -3.90371 0
M  V30 4597 H 440.955 1.93035 -3.47596 0
M  V30 4598 N 441.952 1.55251 0.271103 0
M  V30 4599 C 442.862 1.9136 1.35714 0
M  V30 4600 C 443.878 0.811075 1.5394 0
M  V30 4601 O 445.054 1.11031 1.6803 0
M  V30 4602 C 442.119 2.1798 2.69603 0
M  V30 4603 C 441.18 3.4153 2.60107 0
M  V30 4604 C 440.413 3.66871 3.8761 0
M  V30 4605 O 440.636 2.94689 4.8838 0
M  V30 4606 O 439.57 4.60405 3.87699 0
M  V30 4607 H 443.396 2.83815 1.08088 0
M  V30 4608 H 440.981 1.41821 0.469792 0
M  V30 4609 H 442.863 2.36518 3.48765 0
M  V30 4610 H 441.538 1.28708 2.97012 0
M  V30 4611 H 440.445 3.28325 1.79314 0
M  V30 4612 H 441.778 4.31027 2.37647 0
M  V30 4613 N 443.43 -0.535701 1.48216 0
M  V30 4614 C 444.676 -1.29375 1.56173 0
M  V30 4615 C 445.009 -1.92804 0.232429 0
M  V30 4616 O 444.284 -1.78992 -0.761048 0
M  V30 4617 C 444.567 -2.38747 2.69577 0
M  V30 4618 C 444.42 -1.80046 4.12193 0
M  V30 4619 C 445.739 -3.40551 2.78771 0
M  V30 4620 H 442.858 -0.469027 0.568491 0
M  V30 4621 H 445.5 -0.597358 1.80365 0
M  V30 4622 H 443.65 -2.98147 2.4908 0
M  V30 4623 H 445.322 -1.24742 4.44114 0
M  V30 4624 H 443.565 -1.10609 4.19462 0
M  V30 4625 H 444.236 -2.59212 4.87353 0
M  V30 4626 H 446.712 -2.91099 2.97322 0
M  V30 4627 H 445.588 -4.1448 3.59857 0
M  V30 4628 H 445.849 -4.00746 1.86696 0
M  V30 4629 N 444.908 -1.36708 -0.784132 0
M  V30 4630 C 445.858 -1.2799 -1.88686 0
M  V30 4631 C 446.842 -0.170282 -1.59996 0
M  V30 4632 O 448.034 -0.403571 -1.72338 0
M  V30 4633 C 445.163 -1.07674 -3.25977 0
M  V30 4634 C 444.249 -2.23127 -3.60659 0
M  V30 4635 N 444.64 -3.48467 -3.66612 0
M  V30 4636 C 442.938 -2.15009 -3.90752 0
M  V30 4637 C 443.639 -4.24525 -3.97685 0
M  V30 4638 N 442.615 -3.53524 -4.12943 0
M  V30 4639 H 446.417 -2.22927 -1.91522 0
M  V30 4640 H 443.931 -1.29503 -0.979933 0
M  V30 4641 H 445.928 -0.995151 -4.04849 0
M  V30 4642 H 444.588 -0.13643 -3.24413 0
M  V30 4643 H 445.599 -3.82534 -3.49125 0
M  V30 4644 H 442.276 -1.28963 -3.97083 0
M  V30 4645 H 443.666 -5.32944 -4.0917 0
M  V30 4646 N 446.386 1.0089 -1.21074 0
M  V30 4647 C 447.319 2.09279 -0.909806 0
M  V30 4648 C 448.297 1.61986 0.141145 0
M  V30 4649 O 449.481 1.88495 0.0130332 0
M  V30 4650 C 446.608 3.36723 -0.365374 0
M  V30 4651 C 445.654 4.02919 -1.39852 0
M  V30 4652 S 446.487 4.45835 -2.96633 0
M  V30 4653 C 447.643 5.76471 -2.43786 0
M  V30 4654 H 447.876 2.34484 -1.82769 0
M  V30 4655 H 445.409 1.14115 -1.04006 0
M  V30 4656 H 447.367 4.10459 -0.0578203 0
M  V30 4657 H 446.028 3.09577 0.531136 0
M  V30 4658 H 445.221 4.94634 -0.967117 0
M  V30 4659 H 444.823 3.35441 -1.65395 0
M  V30 4660 H 447.115 6.52027 -1.84029 0
M  V30 4661 H 448.058 6.24418 -3.33928 0
M  V30 4662 H 448.466 5.33104 -1.85636 0
M  V30 4663 N 447.864 1.01787 1.20321 0
M  V30 4664 C 448.794 0.609625 2.25401 0
M  V30 4665 C 449.775 -0.375951 1.65893 0
M  V30 4666 O 450.96 -0.261101 1.92437 0
M  V30 4667 C 448.09 -0.0515995 3.47262 0
M  V30 4668 C 447.044 0.855095 4.19371 0
M  V30 4669 C 446.37 0.0595757 5.34667 0
M  V30 4670 C 447.67 2.16374 4.75373 0
M  V30 4671 H 449.364 1.48803 2.59804 0
M  V30 4672 H 446.91 0.716934 1.24884 0
M  V30 4673 H 448.863 -0.348764 4.19954 0
M  V30 4674 H 447.587 -0.964726 3.12027 0
M  V30 4675 H 446.246 1.13628 3.48546 0
M  V30 4676 H 445.894 -0.85524 4.95676 0
M  V30 4677 H 445.594 0.663406 5.83843 0
M  V30 4678 H 447.118 -0.231105 6.10162 0
M  V30 4679 H 448.532 1.92885 5.39878 0
M  V30 4680 H 446.929 2.71853 5.34991 0
M  V30 4681 H 447.999 2.82589 3.94045 0
M  V30 4682 N 449.342 -1.36122 0.79427 0
M  V30 4683 C 450.619 -1.93398 0.292685 0
M  V30 4684 C 450.999 -1.72567 -1.21589 0
M  V30 4685 O 450.347 -1.08745 -2.00965 0
M  V30 4686 C 450.557 -3.42099 0.690614 0
M  V30 4687 C 451.905 -4.19231 0.673105 0
M  V30 4688 O 452.929 -3.50559 0.631389 0
M  V30 4689 O 451.788 -5.41732 0.720362 0
M  V30 4690 H 448.882 -0.823712 0.0736693 0
M  V30 4691 H 451.428 -1.45273 0.87714 0
M  V30 4692 H 450.2 -3.50938 1.73085 0
M  V30 4693 H 449.823 -3.97519 0.0803036 0
M  V30 4694 N 450.82 -0.546701 -1.47814 0
M  V30 4695 C 452.069 -0.0166497 -2.01693 0
M  V30 4696 C 452.382 1.33721 -1.42752 0
M  V30 4697 O 453.588 1.95658 -1.8823 0
M  V30 4698 C 452.044 0.0206769 -3.59894 0
M  V30 4699 C 451.652 -1.3293 -4.27824 0
M  V30 4700 C 453.396 0.498674 -4.21561 0
M  V30 4701 C 451.303 -1.25165 -5.78003 0
M  V30 4702 H 450.233 -0.0024541 -0.753996 0
M  V30 4703 H 452.884 -0.692984 -1.69912 0
M  V30 4704 H 451.266 0.76244 -3.88591 0
M  V30 4705 H 452.44 -2.08795 -4.10781 0
M  V30 4706 H 450.755 -1.74438 -3.78101 0
M  V30 4707 H 453.352 0.575 -5.31599 0
M  V30 4708 H 453.695 1.5083 -3.88016 0
M  V30 4709 H 454.228 -0.18791 -3.97356 0
M  V30 4710 H 450.967 -2.23695 -6.1615 0
M  V30 4711 H 450.487 -0.53464 -5.97412 0
M  V30 4712 H 452.166 -0.949299 -6.39998 0
M  V30 4713 N 452.299 1.55045 -0.282633 0
M  V30 4714 C 453.209 2.26491 0.61147 0
M  V30 4715 C 454.225 1.29348 1.16384 0
M  V30 4716 O 455.401 1.62298 1.19253 0
M  V30 4717 C 452.466 2.97779 1.77563 0
M  V30 4718 C 451.527 4.10418 1.25919 0
M  V30 4719 C 450.76 4.78297 2.36786 0
M  V30 4720 O 450.983 4.45426 3.56303 0
M  V30 4721 O 449.917 5.66089 2.04517 0
M  V30 4722 H 453.743 3.03683 0.0324615 0
M  V30 4723 H 451.328 1.49317 -0.0497576 0
M  V30 4724 H 453.21 3.42554 2.45427 0
M  V30 4725 H 451.885 2.23498 2.34159 0
M  V30 4726 H 450.792 3.70082 0.546797 0
M  V30 4727 H 452.125 4.86622 0.738887 0
M  V30 4728 N 453.777 0.010035 1.57597 0
M  V30 4729 C 455.002 -0.687021 1.95691 0
M  V30 4730 C 455.427 -1.65952 0.885519 0
M  V30 4731 O 454.785 -1.80633 -0.15543 0
M  V30 4732 C 454.833 -1.3864 3.32884 0
M  V30 4733 O 453.937 -2.50115 3.27897 0
M  V30 4734 H 453.278 -0.181989 0.638573 0
M  V30 4735 H 455.808 0.0662122 2.04493 0
M  V30 4736 H 455.818 -1.74754 3.6868 0
M  V30 4737 H 454.493 -0.673411 4.10412 0
M  V30 4738 H 453.07 -2.16253 3.03791 0
M  V30 4739 N 455.255 -1.55392 -0.262866 0
M  V30 4740 C 456.502 -1.76476 -0.993109 0
M  V30 4741 C 456.83 -0.571479 -1.85915 0
M  V30 4742 O 456.085 0.445733 -1.90556 0
M  V30 4743 C 456.384 -3.02889 -1.89718 0
M  V30 4744 C 456.05 -4.34974 -1.18781 0
M  V30 4745 C 454.712 -4.7087 -0.991699 0
M  V30 4746 C 457.064 -5.16695 -0.683798 0
M  V30 4747 C 454.392 -5.86036 -0.279024 0
M  V30 4748 C 456.744 -6.32598 0.0153327 0
M  V30 4749 C 455.408 -6.67127 0.223062 0
M  V30 4750 H 454.678 -0.64577 -0.363404 0
M  V30 4751 H 457.325 -1.89664 -0.264525 0
M  V30 4752 H 455.63 -2.84644 -2.6923 0
M  V30 4753 H 457.327 -3.16399 -2.46359 0
M  V30 4754 H 453.917 -4.06765 -1.35058 0
M  V30 4755 H 458.101 -4.8943 -0.8229 0
M  V30 4756 H 453.357 -6.11306 -0.107456 0
M  V30 4757 H 457.531 -6.95171 0.413584 0
M  V30 4758 H 455.158 -7.56216 0.777265 0
M  V30 4759 N 456.733 0.527833 -1.48498 0
M  V30 4760 C 457.958 1.313 -1.60546 0
M  V30 4761 C 458.383 1.86199 -0.26672 0
M  V30 4762 O 457.741 1.64513 0.761918 0
M  V30 4763 C 457.789 2.43818 -2.65678 0
M  V30 4764 O 456.893 3.46916 -2.22987 0
M  V30 4765 H 456.234 0.388784 -0.538277 0
M  V30 4766 H 458.764 0.634896 -1.945 0
M  V30 4767 H 458.774 2.89973 -2.87018 0
M  V30 4768 H 457.449 2.03222 -3.62869 0
M  V30 4769 H 456.026 3.06864 -2.11869 0
M  V30 4770 N 458.211 1.37122 0.776871 0
M  V30 4771 C 459.458 1.32047 1.53524 0
M  V30 4772 C 459.786 -0.0965631 1.9426 0
M  V30 4773 O 459.041 -1.06866 1.63945 0
M  V30 4774 C 459.34 2.20068 2.81611 0
M  V30 4775 C 459.006 3.68423 2.59953 0
M  V30 4776 C 457.668 4.08854 2.53755 0
M  V30 4777 C 460.02 4.62431 2.40431 0
M  V30 4778 C 457.348 5.41417 2.26018 0
M  V30 4779 C 459.7 5.95225 2.14219 0
M  V30 4780 C 458.364 6.34767 2.06462 0
M  V30 4781 H 457.634 0.483196 0.561785 0
M  V30 4782 H 460.281 1.69284 0.895268 0
M  V30 4783 H 458.586 1.75809 3.50141 0
M  V30 4784 H 460.283 2.13458 3.39465 0
M  V30 4785 H 456.873 3.36354 2.65638 0
M  V30 4786 H 461.057 4.32057 2.44213 0
M  V30 4787 H 456.313 5.71022 2.18504 0
M  V30 4788 H 460.487 6.67626 1.98112 0
M  V30 4789 H 458.114 7.37413 1.84733 0
M  V30 4790 N 459.689 -1.00246 1.21608 0
M  V30 4791 C 460.619 -2.10921 1.00172 0
M  V30 4792 C 461.6 -1.69938 -0.0741587 0
M  V30 4793 O 462.785 -1.94009 0.0861753 0
M  V30 4794 C 459.915 -3.42618 0.568355 0
M  V30 4795 C 458.869 -3.97407 1.58909 0
M  V30 4796 C 458.195 -5.25038 1.01187 0
M  V30 4797 C 459.495 -4.2918 2.97661 0
M  V30 4798 H 461.189 -2.29112 1.92739 0
M  V30 4799 H 458.735 -1.10101 0.928102 0
M  V30 4800 H 460.688 -4.19444 0.405555 0
M  V30 4801 H 459.412 -3.24227 -0.392961 0
M  V30 4802 H 458.071 -3.22703 1.73949 0
M  V30 4803 H 457.719 -5.02982 0.0421965 0
M  V30 4804 H 457.419 -5.62661 1.6937 0
M  V30 4805 H 458.943 -6.04507 0.860448 0
M  V30 4806 H 460.357 -4.96839 2.86049 0
M  V30 4807 H 458.754 -4.77952 3.6288 0
M  V30 4808 H 459.824 -3.3735 3.48315 0
M  V30 4809 N 461.167 -1.02423 -1.1978 0
M  V30 4810 C 462.115 -0.594474 -2.24875 0
M  V30 4811 C 463.109 0.370598 -1.65296 0
M  V30 4812 O 464.315 0.239684 -1.78397 0
M  V30 4813 H 460.69 -0.173961 -0.731602 0
M  V30 4814 H 462.661 -1.4916 -2.58445 0
M  V30 4815 C 461.41 0.0436512 -3.47673 0
M  V30 4816 H 460.733 -0.689963 -3.93801 0
M  V30 4817 H 462.173 0.307362 -4.22884 0
M  V30 4818 C 460.632 1.28881 -3.11274 0
M  V30 4819 O 461.162 2.38135 -3.23503 0
M  V30 4820 N 459.368 1.1758 -2.6575 0
M  V30 4821 H 458.915 0.286769 -2.55999 0
M  V30 4822 H 458.873 2.00988 -2.41767 0
M  V30 4823 N 462.645 1.35699 -0.801477 0
M  V30 4824 C 464.061 1.52065 -0.484596 0
M  V30 4825 C 464.261 1.75215 0.995084 0
M  V30 4826 O 463.317 1.79061 1.78026 0
M  V30 4827 C 464.63 2.69908 -1.32552 0
M  V30 4828 C 466.178 2.83784 -1.32044 0
M  V30 4829 C 466.653 4.04646 -2.14536 0
M  V30 4830 N 468.144 4.11814 -2.12046 0
M  V30 4831 C 468.879 5.04437 -2.72636 0
M  V30 4832 N 468.375 6.02426 -3.42133 0
M  V30 4833 N 470.168 4.97144 -2.62305 0
M  V30 4834 H 462.319 1.18928 -1.75983 0
M  V30 4835 H 464.582 0.581455 -0.748741 0
M  V30 4836 H 464.288 2.59363 -2.37537 0
M  V30 4837 H 464.162 3.64376 -0.975181 0
M  V30 4838 H 466.549 2.93783 -0.27846 0
M  V30 4839 H 466.63 1.90188 -1.71062 0
M  V30 4840 H 466.274 3.95407 -3.18772 0
M  V30 4841 H 466.204 4.97413 -1.72882 0
M  V30 4842 H 468.695 3.41664 -1.61476 0
M  V30 4843 H 469.008 6.69688 -3.85666 0
M  V30 4844 H 467.353 6.02615 -3.46237 0
M  V30 4845 H 470.544 4.19546 -2.07603 0
M  V30 4846 H 470.717 5.69138 -3.09815 0
M  V30 4847 N 464.123 0.554532 1.47522 0
M  V30 4848 C 465.086 -0.184174 2.28459 0
M  V30 4849 C 466.086 -0.845195 1.36796 0
M  V30 4850 O 467.276 -0.701467 1.59452 0
M  V30 4851 C 464.408 -1.26903 3.16399 0
M  V30 4852 H 465.601 0.526751 2.95238 0
M  V30 4853 H 463.154 0.311375 1.53167 0
M  V30 4854 H 463.889 -2.01244 2.54306 0
M  V30 4855 H 463.674 -0.799883 3.83854 0
M  V30 4856 H 465.164 -1.78794 3.77389 0
M  V30 4857 N 465.601 -1.54893 0.290851 0
M  V30 4858 C 466.531 -2.26103 -0.583084 0
M  V30 4859 C 467.512 -1.25684 -1.14619 0
M  V30 4860 O 468.697 -1.54436 -1.17741 0
M  V30 4861 C 465.827 -2.99409 -1.75987 0
M  V30 4862 C 464.781 -4.0689 -1.32758 0
M  V30 4863 C 464.107 -4.67856 -2.58872 0
M  V30 4864 C 465.407 -5.20215 -0.46624 0
M  V30 4865 H 467.101 -2.99398 0.0108214 0
M  V30 4866 H 464.647 -1.43998 0.00664468 0
M  V30 4867 H 466.6 -3.47943 -2.37727 0
M  V30 4868 H 465.324 -2.23675 -2.37985 0
M  V30 4869 H 463.983 -3.59191 -0.733299 0
M  V30 4870 H 463.631 -3.88772 -3.19163 0
M  V30 4871 H 463.331 -5.40438 -2.30653 0
M  V30 4872 H 464.855 -5.19147 -3.21433 0
M  V30 4873 H 466.269 -5.64704 -0.989047 0
M  V30 4874 H 464.666 -5.99455 -0.27826 0
M  V30 4875 H 465.736 -4.82198 0.511173 0
M  V30 4876 N 467.08 -0.0183926 -1.57589 0
M  V30 4877 C 467.99 0.982943 -2.13015 0
M  V30 4878 C 469.006 1.36443 -1.07979 0
M  V30 4879 O 470.182 1.44802 -1.3998 0
M  V30 4880 C 467.247 2.25024 -2.63752 0
M  V30 4881 C 466.308 1.93018 -3.83461 0
M  V30 4882 C 465.541 3.13706 -4.31769 0
M  V30 4883 O 465.764 4.2601 -3.79305 0
M  V30 4884 O 464.698 2.96629 -5.23732 0
M  V30 4885 H 468.524 0.541709 -2.9883 0
M  V30 4886 H 466.109 0.201565 -1.48034 0
M  V30 4887 H 467.991 2.99441 -2.96502 0
M  V30 4888 H 466.666 2.68349 -1.81026 0
M  V30 4889 H 465.573 1.16019 -3.55655 0
M  V30 4890 H 466.906 1.54516 -4.67317 0
M  V30 4891 N 468.558 1.5553 0.254621 0
M  V30 4892 C 469.783 1.81383 1.00573 0
M  V30 4893 C 470.208 0.594419 1.78461 0
M  V30 4894 O 469.566 -0.456403 1.75461 0
M  V30 4895 C 469.614 3.04892 1.92545 0
M  V30 4896 O 468.718 2.81266 3.01601 0
M  V30 4897 H 468.059 0.598969 0.286587 0
M  V30 4898 H 470.589 2.02703 0.277952 0
M  V30 4899 H 470.599 3.34119 2.34155 0
M  V30 4900 H 469.274 3.93287 1.3527 0
M  V30 4901 H 467.851 2.63185 2.64174 0
M  V30 4902 N 470.036 -0.519951 1.48776 0
M  V30 4903 C 471.313 -1.28123 1.47797 0
M  V30 4904 C 471.693 -2.10196 0.195157 0
M  V30 4905 O 471.041 -2.13167 -0.822925 0
M  V30 4906 C 471.251 -2.15413 2.74587 0
M  V30 4907 C 472.599 -2.75225 3.23321 0
M  V30 4908 O 473.623 -2.25694 2.75574 0
M  V30 4909 O 472.482 -3.65346 4.06429 0
M  V30 4910 H 469.576 -0.578793 0.590701 0
M  V30 4911 H 472.122 -0.535779 1.6102 0
M  V30 4912 H 470.894 -1.54617 3.59457 0
M  V30 4913 H 470.517 -2.97186 2.64132 0
M  V30 4914 N 471.514 -1.37532 -0.769588 0
M  V30 4915 C 472.447 -1.27839 -1.8903 0
M  V30 4916 C 473.425 -0.158504 -1.61826 0
M  V30 4917 O 474.609 -0.333086 -1.85534 0
M  V30 4918 C 471.736 -0.977072 -3.24301 0
M  V30 4919 C 470.782 -2.11414 -3.70414 0
M  V30 4920 S 471.615 -3.73409 -3.83831 0
M  V30 4921 C 472.771 -3.45432 -5.21946 0
M  V30 4922 H 473.004 -2.22694 -1.96963 0
M  V30 4923 H 470.537 -1.2318 -0.930914 0
M  V30 4924 H 472.495 -0.810049 -4.02428 0
M  V30 4925 H 471.156 -0.0459701 -3.14066 0
M  V30 4926 H 470.349 -1.85837 -4.68488 0
M  V30 4927 H 469.951 -2.24141 -2.99394 0
M  V30 4928 H 472.243 -3.00554 -6.07185 0
M  V30 4929 H 473.186 -4.42841 -5.52537 0
M  V30 4930 H 473.594 -2.80311 -4.89986 0
M  V30 4931 N 472.992 0.995999 -1.22138 0
M  V30 4932 C 473.955 2.06711 -0.990109 0
M  V30 4933 C 474.955 1.60744 0.0422978 0
M  V30 4934 O 476.145 1.73095 -0.195895 0
M  V30 4935 C 473.277 3.37288 -0.49491 0
M  V30 4936 H 474.47 2.28661 -1.94047 0
M  V30 4937 H 472.023 1.16711 -1.03963 0
M  V30 4938 H 472.758 3.21022 0.459948 0
M  V30 4939 H 472.543 3.71986 -1.23971 0
M  V30 4940 H 474.033 4.16103 -0.353253 0
M  V30 4941 N 474.47 1.03057 1.19235 0
M  V30 4942 C 475.881 0.757449 1.70645 0
M  V30 4943 C 476.232 -0.722735 1.82403 0
M  V30 4944 O 475.357 -1.56325 1.49638 0
M  V30 4945 C 475.952 1.36833 3.09939 0
M  V30 4946 C 474.511 1.14375 3.58602 0
M  V30 4947 C 473.658 1.46533 2.35422 0
M  V30 4948 H 476.609 1.19828 1.04052 0
M  V30 4949 H 476.63 0.766184 3.72706 0
M  V30 4950 H 476.142 2.44562 3.01349 0
M  V30 4951 H 474.243 0.0847542 3.72504 0
M  V30 4952 H 474.356 1.83366 4.42622 0
M  V30 4953 H 472.72 0.884712 2.38841 0
M  V30 4954 H 473.503 2.55349 2.2946 0
M  V30 4955 N 475.948 -1.35272 0.808662 0
M  V30 4956 C 477.194 -1.99003 0.390581 0
M  V30 4957 C 477.527 -1.63999 -1.0401 0
M  V30 4958 O 476.802 -0.904368 -1.72196 0
M  V30 4959 C 477.085 -3.55454 0.576566 0
M  V30 4960 C 476.938 -4.00249 2.05233 0
M  V30 4961 C 478.257 -4.401 0.00354277 0
M  V30 4962 H 475.376 -0.722917 0.143388 0
M  V30 4963 H 478.018 -1.6039 1.01858 0
M  V30 4964 H 476.168 -3.88477 0.0419766 0
M  V30 4965 H 477.84 -3.77626 2.64946 0
M  V30 4966 H 476.083 -3.51082 2.54801 0
M  V30 4967 H 476.754 -5.0911 2.13333 0
M  V30 4968 H 479.23 -4.13548 0.460117 0
M  V30 4969 H 478.106 -5.48656 0.163575 0
M  V30 4970 H 478.367 -4.28444 -1.09032 0
M  V30 4971 N 477.426 -0.562348 -1.47226 0
M  V30 4972 C 478.356 0.170627 -2.32876 0
M  V30 4973 C 479.337 0.903748 -1.44106 0
M  V30 4974 O 480.522 0.883206 -1.72954 0
M  V30 4975 C 477.652 1.19786 -3.25989 0
M  V30 4976 C 476.606 0.580875 -4.2404 0
M  V30 4977 C 475.932 1.71311 -5.06514 0
M  V30 4978 C 477.232 -0.468714 -5.20193 0
M  V30 4979 H 478.926 -0.544441 -2.94408 0
M  V30 4980 H 476.472 -0.263271 -1.41573 0
M  V30 4981 H 478.425 1.71884 -3.84752 0
M  V30 4982 H 477.149 1.94294 -2.62521 0
M  V30 4983 H 475.808 0.0811538 -3.6651 0
M  V30 4984 H 475.456 2.44736 -4.39447 0
M  V30 4985 H 475.156 1.30604 -5.72902 0
M  V30 4986 H 476.68 2.23725 -5.68137 0
M  V30 4987 H 478.094 -0.0336028 -5.7329 0
M  V30 4988 H 476.491 -0.794957 -5.94811 0
M  V30 4989 H 477.561 -1.36269 -4.65359 0
M  V30 4990 N 478.904 1.54736 -0.299062 0
M  V30 4991 C 480.153 1.99279 0.311549 0
M  V30 4992 C 480.466 1.19107 1.55154 0
M  V30 4993 O 481.672 1.53908 2.23662 0
M  V30 4994 C 480.128 3.54768 0.605632 0
M  V30 4995 C 479.736 4.43746 -0.615914 0
M  V30 4996 C 481.48 4.07841 1.17754 0
M  V30 4997 C 479.387 5.90663 -0.29509 0
M  V30 4998 H 478.317 0.744359 0.120187 0
M  V30 4999 H 480.968 1.78919 -0.407464 0
M  V30 5000 H 479.35 3.71021 1.38419 0
M  V30 5001 H 480.524 4.39267 -1.39218 0
M  V30 5002 H 478.839 4.01434 -1.10633 0
M  V30 5003 H 481.436 5.15174 1.43179 0
M  V30 5004 H 481.779 3.58324 2.11918 0
M  V30 5005 H 482.312 3.95123 0.460739 0
M  V30 5006 H 479.051 6.44325 -1.20524 0
M  V30 5007 H 478.571 5.98155 0.44394 0
M  V30 5008 H 480.25 6.46916 0.104048 0
M  V30 5009 N 480.382 0.0267497 1.57577 0
M  V30 5010 C 481.315 -0.99059 2.05579 0
M  V30 5011 C 482.293 -1.31884 0.951065 0
M  V30 5012 O 483.477 -1.43592 1.22121 0
M  V30 5013 C 480.604 -2.31125 2.47586 0
M  V30 5014 C 479.65 -2.13777 3.69055 0
M  V30 5015 S 480.483 -1.4388 5.15809 0
M  V30 5016 C 481.639 -2.77321 5.6111 0
M  V30 5017 H 481.872 -0.581976 2.91548 0
M  V30 5018 H 479.405 -0.184876 1.53289 0
M  V30 5019 H 481.363 -3.07049 2.72454 0
M  V30 5020 H 480.024 -2.6912 1.61967 0
M  V30 5021 H 479.217 -3.11405 3.96287 0
M  V30 5022 H 478.819 -1.45996 3.44327 0
M  V30 5023 H 481.111 -3.73565 5.65204 0
M  V30 5024 H 482.054 -2.54756 6.60685 0
M  V30 5025 H 482.462 -2.82459 4.88751 0
M  V30 5026 N 481.861 -1.55662 -0.24637 0
M  V30 5027 C 482.824 -1.89558 -1.28842 0
M  V30 5028 C 483.824 -0.772082 -1.41052 0
M  V30 5029 O 485.014 -1.04007 -1.39743 0
M  V30 5030 C 482.146 -2.12449 -2.66605 0
M  V30 5031 H 483.339 -2.82735 -1.00004 0
M  V30 5032 H 480.892 -1.48562 -0.485684 0
M  V30 5033 H 481.627 -1.21742 -3.00582 0
M  V30 5034 H 481.412 -2.94273 -2.59125 0
M  V30 5035 H 482.902 -2.39854 -3.41847 0
M  V30 5036 N 483.339 0.512053 -1.4905 0
M  V30 5037 C 484.567 1.29116 -1.61669 0
M  V30 5038 C 484.982 1.86655 -0.283787 0
M  V30 5039 O 484.339 1.67293 0.729331 0
M  V30 5040 C 484.39 2.4293 -2.67707 0
M  V30 5041 O 484.111 1.87758 -3.95826 0
M  V30 5042 C 485.612 3.34476 -2.90931 0
M  V30 5043 H 482.832 0.392009 -0.544583 0
M  V30 5044 H 485.376 0.615881 -1.95006 0
M  V30 5045 H 483.531 3.06308 -2.37179 0
M  V30 5046 H 483.945 2.62393 -4.54148 0
M  V30 5047 H 485.419 4.10642 -3.68886 0
M  V30 5048 H 485.896 3.90801 -2.00427 0
M  V30 5049 H 486.502 2.76874 -3.22832 0
M  V30 5050 N 484.817 1.37938 0.762283 0
M  V30 5051 C 485.765 1.34569 1.89721 0
M  V30 5052 C 486.759 0.232929 1.67791 0
M  V30 5053 O 487.965 0.401485 1.75465 0
M  V30 5054 H 484.34 0.419594 0.624055 0
M  V30 5055 H 486.311 2.30357 1.8968 0
M  V30 5056 C 485.06 1.17898 3.27101 0
M  V30 5057 H 484.383 2.02781 3.44558 0
M  V30 5058 H 485.823 1.19593 4.06784 0
M  V30 5059 C 484.282 -0.114728 3.36705 0
M  V30 5060 O 484.812 -1.0949 3.8649 0
M  V30 5061 N 483.018 -0.16863 2.9011 0
M  V30 5062 H 482.565 0.62967 2.49786 0
M  V30 5063 H 482.523 -1.03383 2.96916 0
M  V30 5064 N 486.295 -0.989507 1.22664 0
M  V30 5065 C 487.711 -1.25395 0.987331 0
M  V30 5066 C 487.911 -1.9899 -0.317056 0
M  V30 5067 O 486.967 -2.30141 -1.03882 0
M  V30 5068 C 488.28 -2.06242 2.18826 0
M  V30 5069 C 489.828 -2.19413 2.23219 0
M  V30 5070 C 490.303 -3.03648 3.42873 0
M  V30 5071 N 491.794 -3.11234 3.43056 0
M  V30 5072 C 492.529 -3.7671 4.32293 0
M  V30 5073 N 492.025 -4.44085 5.31752 0
M  V30 5074 N 493.818 -3.73505 4.2006 0
M  V30 5075 H 485.969 -0.496212 2.06522 0
M  V30 5076 H 488.232 -0.281784 0.905153 0
M  V30 5077 H 487.938 -1.59531 3.13437 0
M  V30 5078 H 487.812 -3.06996 2.19165 0
M  V30 5079 H 490.199 -2.65336 1.29154 0
M  V30 5080 H 490.28 -1.18078 2.26917 0
M  V30 5081 H 489.924 -2.58424 4.37241 0
M  V30 5082 H 489.854 -4.05132 3.36416 0
M  V30 5083 H 492.345 -2.63287 2.71088 0
M  V30 5084 H 492.658 -4.91797 5.96117 0
M  V30 5085 H 491.003 -4.42822 5.35662 0
M  V30 5086 H 494.194 -3.20033 3.41609 0
M  V30 5087 H 494.367 -4.24253 4.8981 0
M  V30 5088 N 487.773 -1.03688 -1.18687 0
M  V30 5089 C 489.021 -0.736572 -1.88199 0
M  V30 5090 C 489.342 0.737665 -1.80509 0
M  V30 5091 O 488.612 1.53204 -1.22088 0
M  V30 5092 H 487.192 -0.269466 -0.696704 0
M  V30 5093 H 489.854 -1.31282 -1.44052 0
M  V30 5094 H 488.95 -1.03802 -2.94332 0
M  V30 5095 N 489.251 1.34841 -0.815825 0
M  V30 5096 C 490.5 1.97755 -0.396976 0
M  V30 5097 C 490.813 1.65422 1.04379 0
M  V30 5098 O 492.019 2.21771 1.5662 0
M  V30 5099 C 490.475 3.53818 -0.658869 0
M  V30 5100 C 490.083 3.95051 -2.11278 0
M  V30 5101 C 491.827 4.23397 -0.305834 0
M  V30 5102 C 489.734 5.43997 -2.31994 0
M  V30 5103 H 488.664 0.739985 -0.1447 0
M  V30 5104 H 491.315 1.53781 -1.00118 0
M  V30 5105 H 489.697 3.95997 0.0154112 0
M  V30 5106 H 490.871 3.63998 -2.82564 0
M  V30 5107 H 489.186 3.38388 -2.42657 0
M  V30 5108 H 491.783 5.32899 -0.43854 0
M  V30 5109 H 492.126 4.09508 0.748952 0
M  V30 5110 H 492.659 3.8667 -0.934403 0
M  V30 5111 H 489.398 5.62865 -3.35952 0
M  V30 5112 H 488.918 5.76589 -1.65244 0
M  V30 5113 H 490.597 6.10584 -2.14001 0
M  V30 5114 N 490.729 0.570148 1.46925 0
M  V30 5115 C 491.957 0.0561966 2.06824 0
M  V30 5116 C 492.372 -1.24326 1.42086 0
M  V30 5117 O 491.729 -1.74882 0.521794 0
M  V30 5118 C 491.78 -0.129517 3.61268 0
M  V30 5119 O 491.501 1.1185 4.23581 0
M  V30 5120 C 493.002 -0.679266 4.38065 0
M  V30 5121 H 490.222 0.0517261 0.669003 0
M  V30 5122 H 492.766 0.787243 1.8874 0
M  V30 5123 H 490.921 -0.810739 3.78822 0
M  V30 5124 H 491.335 0.924375 5.1629 0
M  V30 5125 H 492.809 -0.758445 5.46765 0
M  V30 5126 H 493.286 -1.69346 4.05239 0
M  V30 5127 H 493.892 -0.0333237 4.25287 0
M  V30 5128 N 492.207 -1.54576 0.307264 0
M  V30 5129 C 493.623 -1.59534 -0.0459251 0
M  V30 5130 C 493.823 -1.32414 -1.51884 0
M  V30 5131 O 492.879 -1.1006 -2.27251 0
M  V30 5132 C 494.192 -2.98566 0.357649 0
M  V30 5133 C 495.74 -3.11491 0.306937 0
M  V30 5134 C 496.215 -4.52842 0.685427 0
M  V30 5135 N 497.706 -4.58782 0.638203 0
M  V30 5136 C 498.441 -5.66238 0.903458 0
M  V30 5137 N 497.937 -6.81703 1.23501 0
M  V30 5138 N 499.73 -5.55937 0.830102 0
M  V30 5139 H 491.881 -1.70464 1.26712 0
M  V30 5140 H 494.144 -0.79647 0.514139 0
M  V30 5141 H 493.85 -3.23356 1.38325 0
M  V30 5142 H 493.724 -3.76117 -0.285565 0
M  V30 5143 H 496.111 -2.86446 -0.709424 0
M  V30 5144 H 496.192 -2.36081 0.984861 0
M  V30 5145 H 495.836 -4.78618 1.69963 0
M  V30 5146 H 495.766 -5.26598 -0.0146346 0
M  V30 5147 H 498.257 -3.75849 0.393138 0
M  V30 5148 H 498.57 -7.59582 1.42322 0
M  V30 5149 H 496.915 -6.8324 1.27311 0
M  V30 5150 H 500.106 -4.64608 0.570693 0
M  V30 5151 H 500.279 -6.39597 1.04019 0
M  V30 5152 N 493.685 -0.035106 -1.57561 0
M  V30 5153 C 494.934 0.641604 -1.91223 0
M  V30 5154 C 495.247 1.72944 -0.913761 0
M  V30 5155 O 496.453 2.46321 -1.14185 0
M  V30 5156 C 494.909 1.19249 -3.3957 0
M  V30 5157 C 494.517 0.137616 -4.47789 0
M  V30 5158 C 496.261 1.84537 -3.82291 0
M  V30 5159 C 494.168 0.700478 -5.87237 0
M  V30 5160 H 493.098 0.243417 -0.713627 0
M  V30 5161 H 495.749 -0.101382 -1.8322 0
M  V30 5162 H 494.131 1.98728 -3.42525 0
M  V30 5163 H 495.305 -0.635153 -4.56402 0
M  V30 5164 H 493.62 -0.416855 -4.14308 0
M  V30 5165 H 496.217 2.27616 -4.83834 0
M  V30 5166 H 496.56 2.69054 -3.17672 0
M  V30 5167 H 497.093 1.11739 -3.81784 0
M  V30 5168 H 493.832 -0.106693 -6.55413 0
M  V30 5169 H 493.352 1.4416 -5.82218 0
M  V30 5170 H 495.031 1.18837 -6.35993 0
M  V30 5171 N 495.163 1.55791 0.238111 0
M  V30 5172 C 496.579 1.48411 0.587045 0
M  V30 5173 C 496.779 0.72702 1.87927 0
M  V30 5174 O 495.835 0.259942 2.51158 0
M  V30 5175 C 497.148 2.92873 0.681623 0
M  V30 5176 C 498.696 3.03295 0.773363 0
M  V30 5177 C 499.171 4.49082 0.899428 0
M  V30 5178 N 500.662 4.53056 0.964075 0
M  V30 5179 C 501.397 5.63117 1.08104 0
M  V30 5180 N 500.893 6.82969 1.16299 0
M  V30 5181 N 502.686 5.50933 1.11488 0
M  V30 5182 H 494.837 2.0345 -0.610076 0
M  V30 5183 H 497.1 0.924034 -0.211813 0
M  V30 5184 H 496.806 3.51142 -0.19802 0
M  V30 5185 H 496.68 3.43851 1.55069 0
M  V30 5186 H 499.067 2.45101 1.64346 0
M  V30 5187 H 499.148 2.55513 -0.121034 0
M  V30 5188 H 498.792 5.07889 0.0338586 0
M  V30 5189 H 498.722 4.94553 1.809 0
M  V30 5190 H 501.213 3.66737 0.91173 0
M  V30 5191 H 501.526 7.62598 1.25155 0
M  V30 5192 H 499.871 6.85712 1.13241 0
M  V30 5193 H 503.062 4.56231 1.0474 0
M  V30 5194 H 503.235 6.36743 1.20259 0
M  V30 5195 N 496.642 -0.504142 1.49319 0
M  V30 5196 C 497.89 -1.25598 1.58334 0
M  V30 5197 C 498.211 -1.93114 0.270538 0
M  V30 5198 O 497.481 -1.82585 -0.709891 0
M  V30 5199 H 496.061 -0.466571 0.58337 0
M  V30 5200 H 498.723 -0.584547 1.85928 0
M  V30 5201 H 497.819 -2.02159 2.37778 0
M  V30 5202 N 498.12 -1.38341 -0.754957 0
M  V30 5203 C 499.348 -1.37704 -1.54419 0
M  V30 5204 C 499.763 0.0335243 -1.8877 0
M  V30 5205 O 499.12 0.999773 -1.52679 0
M  V30 5206 C 499.171 -2.23136 -2.84416 0
M  V30 5207 O 498.892 -3.58697 -2.51531 0
M  V30 5208 C 500.393 -2.30664 -3.78562 0
M  V30 5209 H 497.613 -0.471061 -0.477852 0
M  V30 5210 H 500.157 -1.81902 -0.934446 0
M  V30 5211 H 498.312 -1.82403 -3.41772 0
M  V30 5212 H 498.726 -4.03665 -3.34896 0
M  V30 5213 H 500.2 -2.9473 -4.66732 0
M  V30 5214 H 500.677 -1.3199 -4.18898 0
M  V30 5215 H 501.283 -2.71781 -3.27131 0
M  V30 5216 N 499.598 0.982988 -1.23187 0
M  V30 5217 C 500.823 1.76455 -1.08988 0
M  V30 5218 C 501.248 1.84726 0.354691 0
M  V30 5219 O 500.606 1.30699 1.25649 0
M  V30 5220 C 500.654 3.17094 -1.71708 0
M  V30 5221 O 499.758 4.00648 -0.977477 0
M  V30 5222 H 499.099 0.542988 -0.382177 0
M  V30 5223 H 501.629 1.23413 -1.63188 0
M  V30 5224 H 501.639 3.67684 -1.76841 0
M  V30 5225 H 500.314 3.10389 -2.76823 0
M  V30 5226 H 498.891 3.59161 -1.0029 0
M  V30 5227 N 501.076 1.04316 1.18135 0
M  V30 5228 C 502.306 0.767003 1.91835 0
M  V30 5229 C 502.714 -0.68002 1.76557 0
M  V30 5230 O 502.057 -1.47548 1.09432 0
M  V30 5231 C 502.119 1.05674 3.43618 0
M  V30 5232 C 501.783 2.49818 3.82675 0
M  V30 5233 C 502.78 3.48003 3.86251 0
M  V30 5234 C 500.465 2.84596 4.13897 0
M  V30 5235 C 502.459 4.79016 4.20503 0
M  V30 5236 C 500.146 4.15813 4.4782 0
M  V30 5237 C 501.144 5.12834 4.51099 0
M  V30 5238 O 500.832 6.41699 4.84229 0
M  V30 5239 H 500.564 0.278948 0.615763 0
M  V30 5240 H 503.118 1.3946 1.50798 0
M  V30 5241 H 501.348 0.372029 3.84906 0
M  V30 5242 H 503.037 0.767994 3.98568 0
M  V30 5243 H 503.803 3.22475 3.62264 0
M  V30 5244 H 499.682 2.09748 4.1052 0
M  V30 5245 H 503.226 5.54739 4.22978 0
M  V30 5246 H 499.123 4.41109 4.71268 0
M  V30 5247 H 499.891 6.46387 5.02121 0
M  V30 5248 N 502.554 -1.34406 0.822964 0
M  V30 5249 C 503.486 -2.28305 0.202375 0
M  V30 5250 C 504.499 -1.5103 -0.60777 0
M  V30 5251 O 505.688 -1.73057 -0.437444 0
M  V30 5252 C 502.788 -3.30836 -0.734911 0
M  V30 5253 C 501.961 -4.37388 0.0324177 0
M  V30 5254 C 501.02 -5.1968 -0.825803 0
M  V30 5255 O 500.046 -5.68556 -0.270771 0
M  V30 5256 N 501.248 -5.39393 -2.14558 0
M  V30 5257 H 504.013 -2.82201 1.00909 0
M  V30 5258 H 501.574 -1.4693 0.67993 0
M  V30 5259 H 503.566 -3.82786 -1.31365 0
M  V30 5260 H 502.136 -2.77334 -1.44238 0
M  V30 5261 H 501.356 -3.86152 0.792469 0
M  V30 5262 H 502.644 -5.05702 0.560633 0
M  V30 5263 H 502.042 -5.01357 -2.62025 0
M  V30 5264 H 500.599 -5.94461 -2.67318 0
M  V30 5265 N 504.032 -0.577932 -1.46621 0
M  V30 5266 C 505.257 -0.0652536 -2.07297 0
M  V30 5267 C 505.682 1.22828 -1.4246 0
M  V30 5268 O 505.04 1.74075 -0.506718 0
M  V30 5269 C 505.088 0.0920589 -3.60482 0
M  V30 5270 O 504.192 1.14972 -3.96049 0
M  V30 5271 H 503.533 -0.06065 -0.661224 0
M  V30 5272 H 506.063 -0.799515 -1.88332 0
M  V30 5273 H 506.073 0.299741 -4.06897 0
M  V30 5274 H 504.748 -0.852612 -4.07067 0
M  V30 5275 H 503.325 0.920879 -3.61351 0
M  V30 5276 N 505.51 1.54411 -0.315457 0
M  V30 5277 C 506.921 1.85885 0.174265 0
M  V30 5278 C 507.272 1.23723 1.52273 0
M  V30 5279 O 506.397 0.540246 2.09548 0
M  V30 5280 C 506.992 3.37257 0.322981 0
M  V30 5281 C 505.551 3.68711 0.756922 0
M  V30 5282 C 504.698 2.77013 -0.126195 0
M  V30 5283 H 507.649 1.49374 -0.536007 0
M  V30 5284 H 507.67 3.62539 1.15522 0
M  V30 5285 H 507.182 3.82471 -0.658602 0
M  V30 5286 H 505.283 3.29024 1.74854 0
M  V30 5287 H 505.396 4.75741 0.566291 0
M  V30 5288 H 503.76 2.51588 0.39692 0
M  V30 5289 H 504.543 3.25051 -1.1044 0
M  V30 5290 N 506.988 0.0434614 1.5754 0
M  V30 5291 C 507.938 -0.943039 2.07583 0
M  V30 5292 C 508.922 -1.27662 0.979342 0
M  V30 5293 O 510.114 -1.26034 1.24276 0
M  V30 5294 C 507.243 -2.22056 2.61813 0
M  V30 5295 C 506.329 -1.91471 3.78417 0
M  V30 5296 N 506.72 -1.31214 4.88484 0
M  V30 5297 C 505.018 -2.21384 3.87176 0
M  V30 5298 C 505.719 -1.18084 5.69588 0
M  V30 5299 N 504.695 -1.68116 5.16951 0
M  V30 5300 H 508.497 -0.472354 2.90079 0
M  V30 5301 H 506.011 -0.161191 1.61598 0
M  V30 5302 H 508.008 -2.93618 2.95963 0
M  V30 5303 H 506.668 -2.69738 1.80752 0
M  V30 5304 H 507.679 -0.985318 5.08441 0
M  V30 5305 H 504.356 -2.7164 3.17046 0
M  V30 5306 H 505.746 -0.713684 6.68099 0
M  V30 5307 N 508.466 -1.55915 -0.229846 0
M  V30 5308 C 509.714 -1.7819 -0.953565 0
M  V30 5309 C 510.035 -0.610504 -1.85197 0
M  V30 5310 O 509.305 0.372988 -1.92316 0
M  V30 5311 H 507.885 -0.657208 -0.355087 0
M  V30 5312 H 510.547 -1.9337 -0.243693 0
M  V30 5313 H 509.643 -2.70011 -1.56527 0
M  V30 5314 N 509.944 0.496216 -1.49584 0
M  V30 5315 C 511.193 1.24668 -1.58558 0
M  V30 5316 C 511.506 1.9359 -0.279703 0
M  V30 5317 O 512.712 2.70365 -0.248048 0
M  V30 5318 C 511.168 2.26388 -2.79779 0
M  V30 5319 C 510.776 1.63384 -4.17145 0
M  V30 5320 C 512.52 3.02233 -2.98086 0
M  V30 5321 C 510.427 2.63243 -5.29582 0
M  V30 5322 H 509.357 0.468995 -0.590389 0
M  V30 5323 H 512.008 0.519985 -1.75978 0
M  V30 5324 H 510.39 3.02241 -2.55863 0
M  V30 5325 H 511.564 0.93491 -4.51216 0
M  V30 5326 H 509.879 0.999121 -4.04236 0
M  V30 5327 H 512.476 3.76919 -3.79257 0
M  V30 5328 H 512.819 3.60132 -2.08831 0
M  V30 5329 H 513.352 2.33495 -3.22063 0
M  V30 5330 H 510.091 2.10119 -6.20911 0
M  V30 5331 H 509.611 3.31363 -4.99959 0
M  V30 5332 H 511.29 3.25575 -5.59115 0
M  V30 5333 N 511.423 1.38739 0.74761 0
M  V30 5334 C 512.834 1.31507 1.32524 0
M  V30 5335 C 513.185 -0.0263963 1.96182 0
M  V30 5336 O 512.31 -0.92849 1.95469 0
M  V30 5337 C 512.905 2.38162 2.40966 0
M  V30 5338 C 511.464 2.34489 2.94434 0
M  V30 5339 C 510.611 2.20712 1.67873 0
M  V30 5340 H 513.562 1.4901 0.546043 0
M  V30 5341 H 513.583 2.04222 3.21051 0
M  V30 5342 H 513.095 3.35783 1.94605 0
M  V30 5343 H 511.196 1.40467 3.45108 0
M  V30 5344 H 511.309 3.28861 3.48407 0
M  V30 5345 H 509.673 1.67667 1.91729 0
M  V30 5346 H 510.456 3.20285 1.23582 0
M  V30 5347 N 512.901 -0.976442 1.23707 0
M  V30 5348 C 514.15 -1.71254 1.06559 0
M  V30 5349 C 514.463 -1.91528 -0.397024 0
M  V30 5350 O 515.669 -2.62625 -0.688518 0
M  V30 5351 C 514.125 -3.08207 1.8584 0
M  V30 5352 C 513.733 -2.95806 3.36456 0
M  V30 5353 C 515.477 -3.85749 1.77194 0
M  V30 5354 C 513.384 -4.28015 4.08114 0
M  V30 5355 H 512.314 -0.642171 0.395136 0
M  V30 5356 H 514.965 -1.08877 1.4771 0
M  V30 5357 H 513.347 -3.71363 1.37498 0
M  V30 5358 H 514.521 -2.41716 3.92314 0
M  V30 5359 H 512.836 -2.31736 3.45959 0
M  V30 5360 H 515.433 -4.83633 2.28041 0
M  V30 5361 H 515.776 -4.09752 0.735477 0
M  V30 5362 H 516.309 -3.29303 2.23169 0
M  V30 5363 H 513.048 -4.09208 5.12083 0
M  V30 5364 H 512.568 -4.81955 3.57043 0
M  V30 5365 H 514.247 -4.96681 4.14629 0
M  V30 5366 N 514.379 -1.04941 -1.1758 0
M  V30 5367 C 515.656 -0.671918 -1.83697 0
M  V30 5368 C 516.036 0.847929 -1.93322 0
M  V30 5369 O 515.384 1.75287 -1.46583 0
M  V30 5370 C 515.594 -1.35797 -3.21497 0
M  V30 5371 C 516.942 -1.4944 -3.97433 0
M  V30 5372 O 517.966 -1.31678 -3.30967 0
M  V30 5373 O 516.825 -1.78463 -5.1654 0
M  V30 5374 H 513.919 -0.236212 -0.792548 0
M  V30 5375 H 516.465 -1.14884 -1.24899 0
M  V30 5376 H 515.237 -2.39498 -3.09446 0
M  V30 5377 H 514.86 -0.870236 -3.8796 0
M  V30 5378 N 515.857 1.33968 -0.830081 0
M  V30 5379 C 516.787 2.31911 -0.271911 0
M  V30 5380 C 517.768 1.58571 0.61556 0
M  V30 5381 O 518.953 1.86514 0.540946 0
M  V30 5382 C 516.083 3.42737 0.561146 0
M  V30 5383 C 515.037 4.27383 -0.229789 0
M  V30 5384 C 514.363 5.29742 0.726463 0
M  V30 5385 C 515.663 5.02 -1.44197 0
M  V30 5386 H 517.357 2.78844 -1.09025 0
M  V30 5387 H 514.903 1.34061 -0.52571 0
M  V30 5388 H 516.856 4.10276 0.961867 0
M  V30 5389 H 515.58 2.94471 1.41261 0
M  V30 5390 H 514.239 3.61456 -0.611964 0
M  V30 5391 H 513.887 4.77736 1.57408 0
M  V30 5392 H 513.587 5.87255 0.20142 0
M  V30 5393 H 515.111 6.00149 1.12489 0
M  V30 5394 H 516.525 5.62355 -1.11488 0
M  V30 5395 H 514.922 5.69122 -1.90317 0
M  V30 5396 H 515.992 4.31281 -2.2164 0
M  V30 5397 N 517.335 0.585699 1.46312 0
M  V30 5398 C 518.265 -0.133556 2.33118 0
M  V30 5399 C 519.246 -0.880707 1.45525 0
M  V30 5400 O 520.431 -0.855579 1.74337 0
M  V30 5401 C 517.561 -1.14585 3.27853 0
M  V30 5402 C 516.515 -0.513341 4.2491 0
M  V30 5403 C 515.841 -1.63231 5.09175 0
M  V30 5404 C 517.141 0.551413 5.19381 0
M  V30 5405 H 518.835 0.59121 2.93505 0
M  V30 5406 H 516.381 0.285761 1.41136 0
M  V30 5407 H 518.334 -1.65741 3.87438 0
M  V30 5408 H 517.058 -1.90093 2.65579 0
M  V30 5409 H 515.717 -0.0228349 3.66593 0
M  V30 5410 H 515.365 -2.37713 4.43285 0
M  V30 5411 H 515.065 -1.21473 5.74907 0
M  V30 5412 H 516.589 -2.14658 5.71624 0
M  V30 5413 H 518.003 0.124804 5.73164 0
M  V30 5414 H 516.4 0.889486 5.93471 0
M  V30 5415 H 517.47 1.43655 4.63132 0
M  V30 5416 N 518.813 -1.54241 0.323641 0
M  V30 5417 C 520.09 -1.92741 -0.333181 0
M  V30 5418 C 520.47 -1.25326 -1.69872 0
M  V30 5419 O 519.818 -0.396991 -2.25025 0
M  V30 5420 C 520.028 -3.46399 -0.425322 0
M  V30 5421 C 521.376 -4.19029 -0.68557 0
M  V30 5422 O 522.4 -3.52555 -0.50824 0
M  V30 5423 O 521.259 -5.36751 -1.02767 0
M  V30 5424 H 518.353 -0.804811 -0.190286 0
M  V30 5425 H 520.899 -1.65542 0.373361 0
M  V30 5426 H 519.671 -3.87643 0.533737 0
M  V30 5427 H 519.294 -3.79704 -1.17944 0
M  V30 5428 N 520.291 -0.0518155 -1.57515 0
M  V30 5429 C 521.707 0.304735 -1.56664 0
M  V30 5430 C 521.907 1.71395 -1.05953 0
M  V30 5431 O 520.963 2.42123 -0.716414 0
M  V30 5432 C 522.276 0.132614 -3.00407 0
M  V30 5433 C 523.824 0.20367 -3.12337 0
M  V30 5434 C 524.299 0.0600706 -4.57961 0
M  V30 5435 N 525.79 0.116326 -4.63054 0
M  V30 5436 C 526.525 0.0293363 -5.73392 0
M  V30 5437 N 526.021 -0.110038 -6.92713 0
M  V30 5438 N 527.814 0.0849651 -5.62036 0
M  V30 5439 H 519.965 -0.973056 -1.888 0
M  V30 5440 H 522.228 -0.377781 -0.869474 0
M  V30 5441 H 521.934 -0.839019 -3.41546 0
M  V30 5442 H 521.808 0.893376 -3.66468 0
M  V30 5443 H 524.195 1.16578 -2.71097 0
M  V30 5444 H 524.276 -0.587857 -2.48954 0
M  V30 5445 H 523.92 -0.898715 -4.99886 0
M  V30 5446 H 523.85 0.87075 -5.19351 0
M  V30 5447 H 526.341 0.22327 -3.7724 0
M  V30 5448 H 526.654 -0.169104 -7.72615 0
M  V30 5449 H 524.999 -0.145132 -6.94848 0
M  V30 5450 H 528.19 0.192411 -4.67704 0
M  V30 5451 H 528.363 0.0137131 -6.47999 0
M  V30 5452 N 521.769 1.56035 0.221574 0
M  V30 5453 C 522.699 1.95434 1.2778 0
M  V30 5454 C 523.68 0.822564 1.48889 0
M  V30 5455 O 524.865 1.08486 1.61072 0
M  V30 5456 C 521.995 2.27102 2.62759 0
M  V30 5457 C 520.949 3.4277 2.56306 0
M  V30 5458 C 520.275 3.60043 3.95314 0
M  V30 5459 C 521.575 4.77742 2.11093 0
M  V30 5460 H 523.269 2.83912 0.950504 0
M  V30 5461 H 520.815 1.36596 0.455791 0
M  V30 5462 H 522.768 2.53256 3.36807 0
M  V30 5463 H 521.492 1.35478 2.97176 0
M  V30 5464 H 520.151 3.16664 1.84715 0
M  V30 5465 H 519.799 2.65794 4.27039 0
M  V30 5466 H 519.499 4.37841 3.91879 0
M  V30 5467 H 521.023 3.88545 4.71025 0
M  V30 5468 H 522.437 5.03102 2.74885 0
M  V30 5469 H 520.834 5.58823 2.18716 0
M  V30 5470 H 521.904 4.731 1.06321 0
M  V30 5471 N 523.247 -0.488276 1.49845 0
M  V30 5472 C 524.177 -1.59675 1.70371 0
M  V30 5473 C 525.158 -1.60878 0.552473 0
M  V30 5474 O 526.343 -1.77417 0.78973 0
M  V30 5475 C 523.473 -2.98098 1.782 0
M  V30 5476 C 522.427 -3.11761 2.93239 0
M  V30 5477 C 521.753 -4.51661 2.86193 0
M  V30 5478 C 523.053 -2.90589 4.33999 0
M  V30 5479 H 524.747 -1.42752 2.63177 0
M  V30 5480 H 522.293 -0.685317 1.26647 0
M  V30 5481 H 524.246 -3.75555 1.91144 0
M  V30 5482 H 522.97 -3.16138 0.820018 0
M  V30 5483 H 521.629 -2.36732 2.79917 0
M  V30 5484 H 521.277 -4.66595 1.87877 0
M  V30 5485 H 520.977 -4.61742 3.63412 0
M  V30 5486 H 522.501 -5.31162 3.01163 0
M  V30 5487 H 523.915 -3.57807 4.47936 0
M  V30 5488 H 522.312 -3.1213 5.12538 0
M  V30 5489 H 523.382 -1.86595 4.4756 0
M  V30 5490 N 524.725 -1.39134 -0.740242 0
M  V30 5491 C 525.974 -1.35384 -1.49512 0
M  V30 5492 C 526.287 0.04919 -1.95538 0
M  V30 5493 O 527.493 0.209257 -2.70692 0
M  V30 5494 C 525.949 -2.37812 -2.70136 0
M  V30 5495 C 525.557 -3.83804 -2.31081 0
M  V30 5496 C 527.301 -2.4313 -3.47977 0
M  V30 5497 C 525.208 -4.77886 -3.48395 0
M  V30 5498 H 524.138 -0.503297 -0.561434 0
M  V30 5499 H 526.789 -1.64754 -0.807974 0
M  V30 5500 H 525.171 -2.01505 -3.40899 0
M  V30 5501 H 526.345 -4.29123 -1.67898 0
M  V30 5502 H 524.66 -3.81732 -1.66343 0
M  V30 5503 H 527.257 -3.10614 -4.35228 0
M  V30 5504 H 527.6 -1.45423 -3.90074 0
M  V30 5505 H 528.133 -2.78304 -2.84239 0
M  V30 5506 H 524.872 -5.76836 -3.11353 0
M  V30 5507 H 524.392 -4.3725 -4.10576 0
M  V30 5508 H 526.071 -4.96538 -4.148 0
M  V30 5509 N 526.204 0.969867 -1.24223 0
M  V30 5510 C 527.45 1.7151 -1.08223 0
M  V30 5511 C 527.783 1.90478 0.37838 0
M  V30 5512 O 527.058 1.4647 1.27971 0
M  V30 5513 C 527.341 3.10714 -1.82013 0
M  V30 5514 C 527.194 2.9925 -3.35811 0
M  V30 5515 C 528.513 4.10332 -1.59108 0
M  V30 5516 H 525.632 0.622499 -0.394543 0
M  V30 5517 H 528.274 1.1284 -1.52863 0
M  V30 5518 H 526.424 3.608 -1.44068 0
M  V30 5519 H 528.096 2.56608 -3.83341 0
M  V30 5520 H 526.339 2.35512 -3.64303 0
M  V30 5521 H 527.01 3.97857 -3.82641 0
M  V30 5522 H 529.486 3.69097 -1.92111 0
M  V30 5523 H 528.362 5.05804 -2.13198 0
M  V30 5524 H 528.623 4.38926 -0.528832 0
M  V30 5525 N 527.682 1.05563 1.17022 0
M  V30 5526 C 528.907 0.788437 1.91829 0
M  V30 5527 C 529.332 -0.650356 1.76499 0
M  V30 5528 O 528.69 -1.45229 1.08527 0
M  V30 5529 C 528.738 1.1786 3.40795 0
M  V30 5530 O 527.842 0.312965 4.11211 0
M  V30 5531 H 527.183 0.288794 0.597908 0
M  V30 5532 H 529.713 1.40948 1.48307 0
M  V30 5533 H 529.723 1.14697 3.91546 0
M  V30 5534 H 528.398 2.22666 3.51273 0
M  V30 5535 H 526.975 0.405515 3.70689 0
M  V30 5536 N 529.16 -1.33526 0.837174 0
M  V30 5537 C 530.388 -2.02047 0.445494 0
M  V30 5538 C 530.803 -1.62995 -0.952788 0
M  V30 5539 O 530.16 -0.842447 -1.61892 0
M  V30 5540 C 530.211 -3.57221 0.554577 0
M  V30 5541 O 529.932 -3.94863 1.89776 0
M  V30 5542 C 531.433 -4.43012 0.159634 0
M  V30 5543 H 528.653 -0.647221 0.177048 0
M  V30 5544 H 531.197 -1.70492 1.12928 0
M  V30 5545 H 529.352 -3.87315 -0.0812781 0
M  V30 5546 H 529.766 -4.89569 1.88208 0
M  V30 5547 H 531.24 -5.51253 0.28701 0
M  V30 5548 H 531.717 -4.29916 -0.898289 0
M  V30 5549 H 532.323 -4.18274 0.769855 0
M  V30 5550 N 530.638 -0.59345 -1.46 0
M  V30 5551 C 531.866 -0.0890934 -2.06708 0
M  V30 5552 C 532.281 1.2205 -1.44046 0
M  V30 5553 O 531.638 1.74029 -0.549551 0
M  V30 5554 C 531.689 0.0720263 -3.61428 0
M  V30 5555 O 531.41 -1.18574 -4.21748 0
M  V30 5556 C 532.911 0.609487 -4.3909 0
M  V30 5557 H 530.131 -0.0623628 -0.668096 0
M  V30 5558 H 532.675 -0.817171 -1.87464 0
M  V30 5559 H 530.83 0.750369 -3.80063 0
M  V30 5560 H 531.244 -1.0064 -5.14754 0
M  V30 5561 H 532.718 0.671363 -5.47902 0
M  V30 5562 H 533.195 1.62878 -4.07882 0
M  V30 5563 H 533.801 -0.03434 -4.25286 0
M  V30 5564 N 532.116 1.54067 -0.331816 0
M  V30 5565 C 533.527 1.86059 0.15454 0
M  V30 5566 C 533.878 1.25331 1.50952 0
M  V30 5567 O 533.003 0.562441 2.08963 0
M  V30 5568 C 533.598 3.37581 0.287192 0
M  V30 5569 C 532.157 3.69493 0.717773 0
M  V30 5570 C 531.304 2.76863 -0.155569 0
M  V30 5571 H 534.255 1.48797 -0.55182 0
M  V30 5572 H 534.276 3.63744 1.11671 0
M  V30 5573 H 533.788 3.81751 -0.699131 0
M  V30 5574 H 531.889 3.3086 1.71354 0
M  V30 5575 H 532.002 4.76315 0.5158 0
M  V30 5576 H 530.366 2.51995 0.370213 0
M  V30 5577 H 531.149 3.23861 -1.13881 0
M  V30 5578 N 533.594 0.0601682 1.57485 0
M  V30 5579 C 534.824 -0.620037 1.97076 0
M  V30 5580 C 535.232 -1.64381 0.936784 0
M  V30 5581 O 534.575 -1.83497 -0.0863377 0
M  V30 5582 C 534.637 -1.35617 3.32939 0
M  V30 5583 C 534.301 -0.487208 4.54396 0
M  V30 5584 C 535.298 0.250428 5.19297 0
M  V30 5585 C 532.983 -0.415494 5.00579 0
M  V30 5586 C 534.977 1.04812 6.28723 0
M  V30 5587 C 532.664 0.385879 6.0988 0
M  V30 5588 C 533.662 1.11637 6.73815 0
M  V30 5589 O 533.35 1.90454 7.81014 0
M  V30 5590 H 533.082 -0.173664 0.653312 0
M  V30 5591 H 535.636 0.1256 2.05016 0
M  V30 5592 H 533.866 -2.14763 3.2158 0
M  V30 5593 H 535.555 -1.92749 3.57215 0
M  V30 5594 H 536.321 0.204546 4.84568 0
M  V30 5595 H 532.2 -0.973679 4.506 0
M  V30 5596 H 535.744 1.6188 6.78558 0
M  V30 5597 H 531.641 0.433366 6.44044 0
M  V30 5598 H 532.409 1.82762 7.97835 0
M  V30 5599 N 535.072 -1.5615 -0.213296 0
M  V30 5600 C 536.297 -1.83986 -0.957282 0
M  V30 5601 C 536.722 -0.641526 -1.76822 0
M  V30 5602 O 536.08 0.409722 -1.7661 0
M  V30 5603 C 536.128 -3.09889 -1.84393 0
M  V30 5604 O 535.232 -2.89163 -2.94038 0
M  V30 5605 H 534.573 -0.606357 -0.270605 0
M  V30 5606 H 537.103 -2.03369 -0.224111 0
M  V30 5607 H 537.113 -3.40209 -2.25215 0
M  V30 5608 H 535.788 -3.96735 -1.24795 0
M  V30 5609 H 534.365 -2.70097 -2.57103 0
M  V30 5610 N 536.55 0.480323 -1.50102 0
M  V30 5611 C 537.46 1.60547 -1.71061 0
M  V30 5612 C 538.476 1.63564 -0.593529 0
M  V30 5613 O 539.652 1.81604 -0.870751 0
M  V30 5614 C 536.717 2.96814 -1.79171 0
M  V30 5615 C 535.778 3.04259 -3.02861 0
M  V30 5616 C 535.011 4.34027 -3.10574 0
M  V30 5617 O 535.234 5.24009 -2.25323 0
M  V30 5618 O 534.168 4.46873 -4.03223 0
M  V30 5619 H 537.994 1.45788 -2.6642 0
M  V30 5620 H 535.579 0.658838 -1.34088 0
M  V30 5621 H 537.461 3.77765 -1.86738 0
M  V30 5622 H 536.136 3.11791 -0.869947 0
M  V30 5623 H 535.043 2.22419 -3.008 0
M  V30 5624 H 536.376 2.94216 -3.94586 0
M  V30 5625 N 538.028 1.39524 0.732853 0
M  V30 5626 C 538.975 1.38416 1.84688 0
M  V30 5627 C 539.945 0.243539 1.64305 0
M  V30 5628 O 541.13 0.438979 1.85681 0
M  V30 5629 C 538.27 1.23555 3.22224 0
M  V30 5630 C 537.383 2.47179 3.54298 0
M  V30 5631 C 536.518 2.2489 4.81246 0
M  V30 5632 C 535.557 3.44178 5.0617 0
M  V30 5633 N 534.694 3.21192 6.24323 0
M  V30 5634 H 539.534 2.33645 1.84971 0
M  V30 5635 H 537.071 1.16059 0.903804 0
M  V30 5636 H 539.029 1.12949 4.0162 0
M  V30 5637 H 537.659 0.31954 3.21215 0
M  V30 5638 H 536.711 2.68379 2.69587 0
M  V30 5639 H 538.023 3.36022 3.68633 0
M  V30 5640 H 537.177 2.11538 5.68627 0
M  V30 5641 H 535.916 1.33443 4.69089 0
M  V30 5642 H 534.921 3.58025 4.17251 0
M  V30 5643 H 536.146 4.36528 5.20212 0
M  V30 5644 H 534.092 2.32413 6.1345 0
M  V30 5645 H 534.009 4.03594 6.39256 0
M  V30 5646 H 535.277 3.1154 7.14537 0
M  V30 5647 N 539.506 -0.963266 1.24736 0
M  V30 5648 C 540.783 -1.68248 0.9976 0
M  V30 5649 C 541.163 -2.05599 -0.478776 0
M  V30 5650 O 540.511 -1.7626 -1.45412 0
M  V30 5651 C 540.721 -2.91118 1.92487 0
M  V30 5652 C 542.069 -3.63261 2.19833 0
M  V30 5653 O 543.093 -3.01184 1.90176 0
M  V30 5654 O 541.952 -4.75019 2.7022 0
M  V30 5655 H 539.046 -0.735744 0.377637 0
M  V30 5656 H 541.592 -1.01696 1.35853 0
M  V30 5657 H 540.364 -2.60242 2.92215 0
M  V30 5658 H 539.987 -3.65402 1.56738 0
M  V30 5659 N 540.985 -1.06182 -1.16461 0
M  V30 5660 C 542.213 -0.798583 -1.90867 0
M  V30 5661 C 542.628 0.646921 -1.77371 0
M  V30 5662 O 541.985 1.44279 -1.11758 0
M  V30 5663 C 542.036 -1.18258 -3.4161 0
M  V30 5664 O 541.757 -2.57135 -3.54701 0
M  V30 5665 C 543.258 -0.946917 -4.33069 0
M  V30 5666 H 540.478 -0.289603 -0.605286 0
M  V30 5667 H 543.022 -1.41515 -1.47627 0
M  V30 5668 H 541.177 -0.610562 -3.82558 0
M  V30 5669 H 541.591 -2.72477 -4.4817 0
M  V30 5670 H 543.065 -1.26523 -5.37304 0
M  V30 5671 H 543.542 0.117406 -4.39043 0
M  V30 5672 H 544.148 -1.50326 -3.97847 0
M  V30 5673 N 542.463 1.3308 -0.844243 0
M  V30 5674 C 543.41 2.29104 -0.279323 0
M  V30 5675 C 544.38 1.54577 0.607882 0
M  V30 5676 O 545.565 1.8285 0.545009 0
M  V30 5677 C 542.705 3.40927 0.53508 0
M  V30 5678 C 541.818 4.30354 -0.376749 0
M  V30 5679 C 540.953 5.29297 0.449276 0
M  V30 5680 C 539.992 6.10365 -0.460606 0
M  V30 5681 N 539.129 7.01335 0.327612 0
M  V30 5682 H 543.969 2.76817 -1.10346 0
M  V30 5683 H 541.506 1.36203 -0.555611 0
M  V30 5684 H 543.464 4.04469 1.02278 0
M  V30 5685 H 542.094 2.94391 1.32414 0
M  V30 5686 H 541.146 3.67485 -0.982791 0
M  V30 5687 H 542.458 4.87067 -1.07549 0
M  V30 5688 H 541.612 5.98392 1.00058 0
M  V30 5689 H 540.351 4.73174 1.18143 0
M  V30 5690 H 539.356 5.40182 -1.02388 0
M  V30 5691 H 540.581 6.68571 -1.1912 0
M  V30 5692 H 538.527 6.47655 1.04305 0
M  V30 5693 H 538.444 7.55355 -0.3123 0
M  V30 5694 H 539.712 7.74731 0.86098 0
M  V30 5695 N 543.941 0.601185 1.45683 0
M  V30 5696 C 544.873 -0.159446 2.28645 0
M  V30 5697 C 545.886 -0.837882 1.39583 0
M  V30 5698 O 547.075 -0.704344 1.64016 0
M  V30 5699 C 544.175 -1.24641 3.15147 0
M  V30 5700 C 543.348 -0.656334 4.32448 0
M  V30 5701 C 542.407 -1.63337 5.00208 0
M  V30 5702 O 541.433 -1.16217 5.57209 0
M  V30 5703 N 542.635 -2.96773 4.98905 0
M  V30 5704 H 545.4 0.5524 2.94565 0
M  V30 5705 H 542.961 0.440223 1.558 0
M  V30 5706 H 544.953 -1.8997 3.57342 0
M  V30 5707 H 543.523 -1.86087 2.51178 0
M  V30 5708 H 542.743 0.174879 3.93812 0
M  V30 5709 H 544.031 -0.242211 5.08223 0
M  V30 5710 H 543.429 -3.37662 4.53873 0
M  V30 5711 H 541.986 -3.57541 5.44984 0
M  V30 5712 N 545.419 -1.53889 0.339982 0
M  V30 5713 C 546.668 -2.00035 -0.258604 0
M  V30 5714 C 546.981 -1.23179 -1.51942 0
M  V30 5715 O 548.187 -1.59784 -2.19503 0
M  V30 5716 C 546.643 -3.56249 -0.511359 0
M  V30 5717 C 546.251 -4.41957 0.733349 0
M  V30 5718 C 547.995 -4.1082 -1.069 0
M  V30 5719 C 545.902 -5.89673 0.451591 0
M  V30 5720 H 544.832 -0.747284 -0.10041 0
M  V30 5721 H 547.483 -1.77776 0.454758 0
M  V30 5722 H 545.865 -3.7456 -1.28533 0
M  V30 5723 H 547.039 -4.35421 1.50815 0
M  V30 5724 H 545.354 -3.9836 1.21237 0
M  V30 5725 H 547.951 -5.18789 -1.2947 0
M  V30 5726 H 548.294 -3.63817 -2.02343 0
M  V30 5727 H 548.827 -3.96205 -0.355817 0
M  V30 5728 H 545.566 -6.40903 1.37565 0
M  V30 5729 H 545.086 -5.99122 -0.285193 0
M  V30 5730 H 546.765 -6.46965 0.0675067 0
M  V30 5731 N 546.897 -0.0685191 -1.57451 0
M  V30 5732 C 547.827 0.89747 -2.15564 0
M  V30 5733 C 548.808 1.31266 -1.08181 0
M  V30 5734 O 549.993 1.38429 -1.36202 0
M  V30 5735 C 547.123 2.16623 -2.71463 0
M  V30 5736 C 546.077 1.89054 -3.83982 0
M  V30 5737 C 545.403 3.22532 -4.26471 0
M  V30 5738 C 546.703 1.1984 -5.08366 0
M  V30 5739 H 548.397 0.413373 -2.96533 0
M  V30 5740 H 545.943 0.197391 -1.42641 0
M  V30 5741 H 547.896 2.84614 -3.10761 0
M  V30 5742 H 546.62 2.67269 -1.8771 0
M  V30 5743 H 545.279 1.23469 -3.45183 0
M  V30 5744 H 544.927 3.71013 -3.39644 0
M  V30 5745 H 544.627 3.04879 -5.02317 0
M  V30 5746 H 546.151 3.91727 -4.68383 0
M  V30 5747 H 547.565 1.77896 -5.45001 0
M  V30 5748 H 545.962 1.12456 -5.89469 0
M  V30 5749 H 547.032 0.176996 -4.84577 0
M  V30 5750 N 548.375 1.56261 0.205012 0
M  V30 5751 C 549.791 1.49623 0.555433 0
M  V30 5752 C 549.991 0.766719 1.86343 0
M  V30 5753 O 549.047 0.313158 2.50551 0
M  V30 5754 C 550.36 2.94253 0.619347 0
M  V30 5755 C 551.908 3.04868 0.708855 0
M  V30 5756 C 552.383 4.50888 0.803969 0
M  V30 5757 N 553.874 4.54999 0.867758 0
M  V30 5758 C 554.609 5.65284 0.96135 0
M  V30 5759 N 554.105 6.85282 1.01786 0
M  V30 5760 N 555.898 5.53174 0.997771 0
M  V30 5761 H 548.049 2.0211 -0.653094 0
M  V30 5762 H 550.312 0.919333 -0.231366 0
M  V30 5763 H 550.018 3.50643 -0.272458 0
M  V30 5764 H 549.892 3.47063 1.47741 0
M  V30 5765 H 552.279 2.48532 1.5911 0
M  V30 5766 H 552.36 2.55199 -0.175205 0
M  V30 5767 H 552.004 5.07846 -0.0738798 0
M  V30 5768 H 551.934 4.98279 1.70369 0
M  V30 5769 H 554.425 3.68588 0.833735 0
M  V30 5770 H 554.738 7.65081 1.08951 0
M  V30 5771 H 553.083 6.8796 0.986706 0
M  V30 5772 H 556.274 4.5835 0.950392 0
M  V30 5773 H 556.447 6.39151 1.06725 0
M  V30 5774 N 549.853 -0.472356 1.50355 0
M  V30 5775 C 551.102 -1.2213 1.60522 0
M  V30 5776 C 551.415 -1.9312 0.310466 0
M  V30 5777 O 552.621 -2.69936 0.291029 0
M  V30 5778 C 551.077 -2.21909 2.83345 0
M  V30 5779 C 550.685 -1.56727 4.19691 0
M  V30 5780 C 552.429 -2.97453 3.02856 0
M  V30 5781 C 550.336 -2.54785 5.33703 0
M  V30 5782 H 549.266 -0.459543 0.597776 0
M  V30 5783 H 551.917 -0.491922 1.76783 0
M  V30 5784 H 550.299 -2.98133 2.60639 0
M  V30 5785 H 551.473 -0.863007 4.52646 0
M  V30 5786 H 549.788 -0.934685 4.05774 0
M  V30 5787 H 552.385 -3.70838 3.85205 0
M  V30 5788 H 552.728 -3.56764 2.14534 0
M  V30 5789 H 553.261 -2.28342 3.25737 0
M  V30 5790 H 550 -2.00214 6.24175 0
M  V30 5791 H 549.52 -3.23367 5.05167 0
M  V30 5792 H 551.199 -3.16639 5.64224 0
M  V30 5793 N 551.331 -1.39911 -0.725443 0
M  V30 5794 C 552.747 -1.21725 -1.03224 0
M  V30 5795 C 552.947 -0.0855224 -2.01318 0
M  V30 5796 O 552.003 0.55976 -2.46217 0
M  V30 5797 C 553.316 -2.55511 -1.58539 0
M  V30 5798 C 554.864 -2.62439 -1.70572 0
M  V30 5799 C 555.339 -3.9647 -2.29294 0
M  V30 5800 N 556.83 -3.98159 -2.36692 0
M  V30 5801 C 557.565 -4.98647 -2.83088 0
M  V30 5802 N 557.061 -6.0953 -3.2931 0
M  V30 5803 N 558.854 -4.8602 -2.82384 0
M  V30 5804 H 551.005 -2.12267 -0.075048 0
M  V30 5805 H 553.268 -0.943136 -0.0959066 0
M  V30 5806 H 552.974 -3.38926 -0.939249 0
M  V30 5807 H 552.848 -2.75905 -2.57208 0
M  V30 5808 H 555.235 -1.79401 -2.34306 0
M  V30 5809 H 555.316 -2.45885 -0.705297 0
M  V30 5810 H 554.96 -4.79942 -1.66186 0
M  V30 5811 H 554.89 -4.10349 -3.30032 0
M  V30 5812 H 557.381 -3.18085 -2.04035 0
M  V30 5813 H 557.694 -6.82106 -3.6325 0
M  V30 5814 H 556.039 -6.1311 -3.27294 0
M  V30 5815 H 559.23 -3.98493 -2.45603 0
M  V30 5816 H 559.403 -5.64478 -3.18226 0
M  V30 5817 N 552.809 0.956637 -1.25245 0
M  V30 5818 C 554.049 1.71585 -1.11076 0
M  V30 5819 C 554.413 1.88916 0.34277 0
M  V30 5820 O 555.614 2.61875 0.606227 0
M  V30 5821 C 553.885 3.06267 -1.84215 0
M  V30 5822 S 555.444 3.97469 -1.85914 0
M  V30 5823 H 552.262 0.589803 -0.397055 0
M  V30 5824 H 554.864 1.14114 -1.58739 0
M  V30 5825 H 553.568 2.91322 -2.89067 0
M  V30 5826 H 553.099 3.688 -1.36931 0
M  V30 5827 H 555.114 4.87316 -0.93474 0
M  V30 5828 N 554.287 1.06798 1.15896 0
M  V30 5829 C 555.197 0.694564 2.24083 0
M  V30 5830 C 556.213 -0.291687 1.71538 0
M  V30 5831 O 557.389 -0.139723 2.00915 0
M  V30 5832 C 554.454 0.0921014 3.46578 0
M  V30 5833 C 553.515 1.13087 4.14137 0
M  V30 5834 C 552.748 0.557064 5.30785 0
M  V30 5835 O 552.971 -0.628623 5.66925 0
M  V30 5836 O 551.905 1.29924 5.8771 0
M  V30 5837 H 555.731 1.59663 2.58344 0
M  V30 5838 H 553.316 0.840575 1.2351 0
M  V30 5839 H 555.198 -0.241884 4.20705 0
M  V30 5840 H 553.873 -0.78337 3.14078 0
M  V30 5841 H 552.78 1.51712 3.41957 0
M  V30 5842 H 554.113 1.97805 4.50704 0
M  V30 5843 N 555.766 -1.3263 0.851289 0
M  V30 5844 C 556.676 -2.32722 0.296268 0
M  V30 5845 C 557.692 -1.63901 -0.584162 0
M  V30 5846 O 558.868 -1.95465 -0.485334 0
M  V30 5847 C 555.933 -3.42942 -0.509103 0
M  V30 5848 C 554.994 -4.2746 0.397069 0
M  V30 5849 C 554.227 -5.32416 -0.36996 0
M  V30 5850 O 554.45 -5.47491 -1.6003 0
M  V30 5851 O 553.384 -6.01327 0.262493 0
M  V30 5852 H 557.21 -2.82078 1.12543 0
M  V30 5853 H 554.795 -1.36194 0.614135 0
M  V30 5854 H 556.677 -4.1017 -0.96634 0
M  V30 5855 H 555.352 -2.95781 -1.31512 0
M  V30 5856 H 554.259 -3.63053 0.902411 0
M  V30 5857 H 555.592 -4.78136 1.16818 0
M  V30 5858 N 557.244 -0.608902 -1.45362 0
M  V30 5859 C 558.154 0.110969 -2.34337 0
M  V30 5860 C 559.17 0.859007 -1.51318 0
M  V30 5861 O 560.346 0.816296 -1.84116 0
M  V30 5862 C 557.411 1.09494 -3.28956 0
M  V30 5863 C 556.472 0.348718 -4.27881 0
M  V30 5864 C 555.705 1.28582 -5.17979 0
M  V30 5865 O 555.928 2.52369 -5.11533 0
M  V30 5866 O 554.862 0.782172 -5.96796 0
M  V30 5867 H 558.688 -0.620258 -2.97299 0
M  V30 5868 H 556.273 -0.36916 -1.44767 0
M  V30 5869 H 558.155 1.66163 -3.87257 0
M  V30 5870 H 556.83 1.80717 -2.68557 0
M  V30 5871 H 555.737 -0.260465 -3.73192 0
M  V30 5872 H 557.07 -0.323049 -4.91139 0
M  V30 5873 N 558.722 1.53707 -0.348139 0
M  V30 5874 C 559.999 1.93247 0.302475 0
M  V30 5875 C 560.379 1.28012 1.67857 0
M  V30 5876 O 559.727 0.43274 2.24365 0
M  V30 5877 C 559.937 3.47031 0.370159 0
M  V30 5878 C 561.285 4.20066 0.61882 0
M  V30 5879 O 562.309 3.53319 0.452087 0
M  V30 5880 O 561.168 5.38318 0.94215 0
M  V30 5881 H 558.262 0.807736 0.177458 0
M  V30 5882 H 560.808 1.64927 -0.399651 0
M  V30 5883 H 559.58 3.86745 -0.59534 0
M  V30 5884 H 559.203 3.81532 1.11888 0
M  V30 5885 N 560.2 0.0768682 1.57412 0
M  V30 5886 C 561.446 -0.591961 1.93968 0
M  V30 5887 C 561.779 -1.68954 0.9575 0
M  V30 5888 O 561.054 -1.94496 -0.0124675 0
M  V30 5889 C 561.337 -1.16418 3.40762 0
M  V30 5890 C 561.19 -0.0728933 4.49741 0
M  V30 5891 C 562.509 -2.06814 3.88479 0
M  V30 5892 H 559.628 -0.213716 0.705333 0
M  V30 5893 H 562.27 0.14387 1.89455 0
M  V30 5894 H 560.42 -1.79128 3.4474 0
M  V30 5895 H 562.092 0.560446 4.57883 0
M  V30 5896 H 560.335 0.595859 4.29688 0
M  V30 5897 H 561.006 -0.513755 5.49604 0
M  V30 5898 H 563.482 -1.54033 3.8654 0
M  V30 5899 H 562.358 -2.43785 4.91793 0
M  V30 5900 H 562.619 -2.97844 3.26713 0
M  V30 5901 N 561.678 -1.56367 -0.196722 0
M  V30 5902 C 562.588 -1.97617 -1.2643 0
M  V30 5903 C 563.604 -0.883598 -1.49895 0
M  V30 5904 O 564.78 -1.18921 -1.62541 0
M  V30 5905 C 561.845 -2.30595 -2.58895 0
M  V30 5906 C 560.906 -3.53551 -2.43516 0
M  V30 5907 C 560.139 -3.84946 -3.69665 0
M  V30 5908 O 560.362 -3.17655 -4.73763 0
M  V30 5909 O 559.296 -4.78379 -3.65291 0
M  V30 5910 H 563.122 -2.88648 -0.944233 0
M  V30 5911 H 560.707 -1.43901 -0.401592 0
M  V30 5912 H 562.589 -2.52889 -3.37083 0
M  V30 5913 H 561.264 -1.42732 -2.90533 0
M  V30 5914 H 560.171 -3.36507 -1.63445 0
M  V30 5915 H 561.504 -4.41875 -2.16812 0
M  V30 5916 N 563.156 0.464375 -1.50603 0
M  V30 5917 C 564.089 1.58052 -1.64605 0
M  V30 5918 C 565.067 1.54914 -0.494016 0
M  V30 5919 O 566.251 1.74438 -0.714393 0
M  V30 5920 C 563.378 2.96634 -1.63481 0
M  V30 5921 C 562.424 3.17901 -2.84325 0
M  V30 5922 S 563.257 2.97083 -4.45536 0
M  V30 5923 C 564.413 4.37994 -4.47115 0
M  V30 5924 H 564.646 1.45937 -2.59017 0
M  V30 5925 H 562.179 0.652189 -1.39949 0
M  V30 5926 H 564.137 3.76527 -1.63517 0
M  V30 5927 H 562.798 3.06134 -0.702928 0
M  V30 5928 H 561.991 4.19158 -2.79862 0
M  V30 5929 H 561.593 2.45792 -2.81891 0
M  V30 5930 H 563.885 5.30743 -4.21091 0
M  V30 5931 H 564.828 4.47499 -5.48772 0
M  V30 5932 H 565.236 4.20386 -3.76743 0
M  V30 5933 N 564.634 1.40294 0.718013 0
M  V30 5934 C 565.859 1.41941 1.5122 0
M  V30 5935 C 566.284 0.0202371 1.88089 0
M  V30 5936 O 565.642 -0.971078 1.53101 0
M  V30 5937 C 565.69 2.3141 2.76554 0
M  V30 5938 O 564.794 1.75567 3.73162 0
M  V30 5939 H 564.135 0.482644 0.456016 0
M  V30 5940 H 566.665 1.84494 0.884478 0
M  V30 5941 H 566.675 2.46513 3.25108 0
M  V30 5942 H 565.35 3.33085 2.49053 0
M  V30 5943 H 563.927 1.69798 3.31999 0
M  V30 5944 N 566.112 -0.949982 1.2575 0
M  V30 5945 C 567.022 -2.08109 1.08295 0
M  V30 5946 C 568.038 -1.7399 0.0188181 0
M  V30 5947 O 569.214 -2.00187 0.220724 0
M  V30 5948 C 566.279 -3.39383 0.708534 0
M  V30 5949 C 565.34 -3.8734 1.85111 0
M  V30 5950 C 564.573 -5.12349 1.49447 0
M  V30 5951 O 564.796 -5.6905 0.392212 0
M  V30 5952 O 563.73 -5.5513 2.32624 0
M  V30 5953 H 567.556 -2.25738 2.03165 0
M  V30 5954 H 565.141 -1.06545 1.04731 0
M  V30 5955 H 567.023 -4.18277 0.512061 0
M  V30 5956 H 565.698 -3.23013 -0.210854 0
M  V30 5957 H 564.605 -3.09429 2.10248 0
M  V30 5958 H 565.938 -4.08216 2.74991 0
M  V30 5959 N 567.59 -1.07411 -1.15328 0
M  V30 5960 C 568.867 -0.710732 -1.82231 0
M  V30 5961 C 569.247 0.806732 -1.95077 0
M  V30 5962 O 568.595 1.72139 -1.50268 0
M  V30 5963 C 568.805 -1.42586 -3.18544 0
M  V30 5964 C 570.153 -1.57836 -3.94174 0
M  V30 5965 O 571.177 -1.38669 -3.281 0
M  V30 5966 O 570.036 -1.8938 -5.12638 0
M  V30 5967 H 567.13 -0.25297 -0.78736 0
M  V30 5968 H 569.676 -1.17508 -1.22434 0
M  V30 5969 H 568.448 -2.46008 -3.04296 0
M  V30 5970 H 568.071 -0.952332 -3.86026 0
M  V30 5971 N 569.068 1.32177 -0.85831 0
M  V30 5972 C 570.031 2.27086 -0.310588 0
M  V30 5973 C 571.031 1.51751 0.531806 0
M  V30 5974 O 572.221 1.70794 0.34279 0
M  V30 5975 C 569.353 3.36266 0.560179 0
M  V30 5976 H 570.546 2.77045 -1.1483 0
M  V30 5977 H 568.099 1.42911 -0.632942 0
M  V30 5978 H 568.834 2.9158 1.41956 0
M  V30 5979 H 568.619 3.92077 -0.0428473 0
M  V30 5980 H 570.109 4.06974 0.936056 0
M  V30 5981 N 570.547 0.616602 1.45037 0
M  V30 5982 C 571.777 0.121791 2.06241 0
M  V30 5983 C 572.185 -1.20289 1.46038 0
M  V30 5984 O 571.528 -1.7456 0.572242 0
M  V30 5985 C 571.59 -0.0827345 3.59405 0
M  V30 5986 C 571.254 1.16153 4.41993 0
M  V30 5987 C 572.251 2.08183 4.76399 0
M  V30 5988 C 569.936 1.39288 4.82601 0
M  V30 5989 C 571.93 3.21668 5.5028 0
M  V30 5990 C 569.617 2.53073 5.56235 0
M  V30 5991 C 570.615 3.44091 5.89992 0
M  V30 5992 O 570.303 4.55894 6.6213 0
M  V30 5993 H 570.035 0.0701667 0.672349 0
M  V30 5994 H 572.589 0.846877 1.87129 0
M  V30 5995 H 570.819 -0.862812 3.76952 0
M  V30 5996 H 572.508 -0.530273 4.02421 0
M  V30 5997 H 573.274 1.91538 4.45576 0
M  V30 5998 H 569.153 0.693396 4.55755 0
M  V30 5999 H 572.697 3.92733 5.76547 0
M  V30 6000 H 568.594 2.69667 5.86472 0
M  V30 6001 H 569.362 4.5469 6.80587 0
M  V30 6002 N 572.025 -1.5352 0.356285 0
M  V30 6003 C 573.253 -2.05534 -0.237328 0
M  V30 6004 C 573.668 -1.23043 -1.43199 0
M  V30 6005 O 573.025 -0.268821 -1.80509 0
M  V30 6006 C 573.076 -3.55791 -0.639933 0
M  V30 6007 O 572.797 -4.35154 0.507233 0
M  V30 6008 C 574.298 -4.24027 -1.29292 0
M  V30 6009 H 571.518 -0.669585 -0.0435572 0
M  V30 6010 H 574.062 -1.97988 0.511963 0
M  V30 6011 H 572.217 -3.63518 -1.33915 0
M  V30 6012 H 572.631 -5.24178 0.18375 0
M  V30 6013 H 574.105 -5.30509 -1.52527 0
M  V30 6014 H 574.582 -3.77166 -2.25039 0
M  V30 6015 H 575.188 -4.20527 -0.63539 0
M  V30 6016 N 573.503 -0.0852151 -1.57369 0
M  V30 6017 C 574.749 0.581666 -1.94279 0
M  V30 6018 C 575.082 1.68444 -0.966446 0
M  V30 6019 O 574.357 1.945 0.00215277 0
M  V30 6020 C 574.64 1.14609 -3.41375 0
M  V30 6021 C 574.493 0.0490414 -4.49773 0
M  V30 6022 C 575.812 2.04751 -3.8957 0
M  V30 6023 H 572.931 0.209972 -0.706456 0
M  V30 6024 H 575.573 -0.153915 -1.89376 0
M  V30 6025 H 573.723 1.77297 -3.45685 0
M  V30 6026 H 575.395 -0.584721 -4.57579 0
M  V30 6027 H 573.638 -0.618638 -4.29366 0
M  V30 6028 H 574.309 0.484601 -5.49869 0
M  V30 6029 H 576.785 1.51981 -3.87351 0
M  V30 6030 H 575.661 2.41173 -4.93079 0
M  V30 6031 H 575.922 2.96107 -3.28288 0
M  V30 6032 N 574.981 1.5647 0.188427 0
M  V30 6033 C 575.911 1.98101 1.23606 0
M  V30 6034 C 576.892 0.853961 1.47111 0
M  V30 6035 O 578.077 1.11879 1.58735 0
M  V30 6036 C 575.207 2.32624 2.57882 0
M  V30 6037 C 574.161 3.48129 2.48978 0
M  V30 6038 C 573.487 3.68347 3.87588 0
M  V30 6039 C 574.787 4.82112 2.00911 0
M  V30 6040 H 576.481 2.85864 0.890068 0
M  V30 6041 H 574.027 1.37532 0.426714 0
M  V30 6042 H 575.98 2.60343 3.3136 0
M  V30 6043 H 574.704 1.41751 2.94235 0
M  V30 6044 H 573.363 3.20511 1.77956 0
M  V30 6045 H 573.011 2.74793 4.21305 0
M  V30 6046 H 572.711 4.46055 3.82503 0
M  V30 6047 H 574.235 3.98449 4.62678 0
M  V30 6048 H 575.649 5.08819 2.64151 0
M  V30 6049 H 574.046 5.63337 2.06814 0
M  V30 6050 H 575.116 4.75249 0.96262 0
M  V30 6051 N 576.459 -0.456382 1.50847 0
M  V30 6052 C 577.687 -1.23026 1.66349 0
M  V30 6053 C 578.102 -1.85473 0.352868 0
M  V30 6054 O 577.459 -1.69885 -0.666739 0
M  V30 6055 C 577.51 -2.32827 2.76539 0
M  V30 6056 O 577.231 -1.72938 4.02522 0
M  V30 6057 C 578.732 -3.23448 3.03144 0
M  V30 6058 H 575.952 -0.371527 0.558756 0
M  V30 6059 H 578.496 -0.543082 1.97157 0
M  V30 6060 H 576.651 -2.97294 2.48384 0
M  V30 6061 H 577.065 -2.45357 4.63573 0
M  V30 6062 H 578.539 -3.96669 3.83872 0
M  V30 6063 H 579.016 -3.83094 2.14793 0
M  V30 6064 H 579.622 -2.64702 3.32886 0
M  V30 6065 N 577.937 -1.40673 -0.710563 0
M  V30 6066 C 579.353 -1.22813 -1.01928 0
M  V30 6067 C 579.553 -0.10687 -2.01216 0
M  V30 6068 O 578.609 0.533614 -2.46797 0
M  V30 6069 C 579.922 -2.57178 -1.5582 0
M  V30 6070 C 581.47 -2.64233 -1.67779 0
M  V30 6071 C 581.945 -3.98879 -2.25076 0
M  V30 6072 N 583.436 -4.00647 -2.32456 0
M  V30 6073 C 584.171 -5.01621 -2.77784 0
M  V30 6074 N 583.667 -6.12989 -3.22826 0
M  V30 6075 N 585.46 -4.88988 -2.77213 0
M  V30 6076 H 577.611 -2.12335 -0.05253 0
M  V30 6077 H 579.874 -0.9441 -0.085898 0
M  V30 6078 H 579.58 -3.39903 -0.903249 0
M  V30 6079 H 579.454 -2.78618 -2.54267 0
M  V30 6080 H 581.841 -1.81876 -2.3239 0
M  V30 6081 H 581.922 -2.46619 -0.679178 0
M  V30 6082 H 581.566 -4.81678 -1.61086 0
M  V30 6083 H 581.496 -4.13826 -3.25661 0
M  V30 6084 H 583.987 -3.20231 -2.0065 0
M  V30 6085 H 584.3 -6.85921 -3.55995 0
M  V30 6086 H 582.645 -6.16547 -3.20773 0
M  V30 6087 H 585.836 -4.01075 -2.41363 0
M  V30 6088 H 586.009 -5.67822 -3.12221 0
M  V30 6089 N 579.415 0.9433 -1.26252 0
M  V30 6090 C 580.664 1.68369 -1.11062 0
M  V30 6091 C 580.977 1.92514 0.346104 0
M  V30 6092 O 582.183 2.64358 0.618646 0
M  V30 6093 C 580.639 3.03171 -1.93946 0
M  V30 6094 C 580.247 2.86782 -3.4418 0
M  V30 6095 C 581.991 3.80916 -1.87359 0
M  V30 6096 C 579.898 4.17044 -4.19319 0
M  V30 6097 H 578.828 0.631469 -0.412023 0
M  V30 6098 H 581.479 1.04922 -1.50544 0
M  V30 6099 H 579.861 3.67587 -1.47296 0
M  V30 6100 H 581.035 2.31229 -3.98585 0
M  V30 6101 H 579.35 2.22482 -3.51981 0
M  V30 6102 H 581.947 4.77417 -2.40784 0
M  V30 6103 H 582.29 4.07658 -0.843857 0
M  V30 6104 H 582.823 3.2327 -2.31821 0
M  V30 6105 H 579.562 3.95487 -5.22753 0
M  V30 6106 H 579.082 4.72319 -3.69696 0
M  V30 6107 H 580.761 4.85513 -4.27651 0
M  V30 6108 N 580.893 1.08022 1.14757 0
M  V30 6109 C 582.141 0.805913 1.85336 0
M  V30 6110 C 582.462 -0.670162 1.83122 0
M  V30 6111 O 581.732 -1.48567 1.2769 0
M  V30 6112 H 580.312 0.295138 0.686223 0
M  V30 6113 H 582.974 1.36538 1.3908 0
M  V30 6114 H 582.07 1.14655 2.90277 0
M  V30 6115 N 582.371 -1.3172 0.865308 0
M  V30 6116 C 583.301 -2.31109 0.333302 0
M  V30 6117 C 584.282 -1.60148 -0.573301 0
M  V30 6118 O 585.467 -1.87882 -0.491305 0
M  V30 6119 C 582.597 -3.44104 -0.470078 0
M  V30 6120 C 581.551 -4.26623 0.343021 0
M  V30 6121 C 580.877 -5.31482 -0.585756 0
M  V30 6122 C 582.177 -4.98001 1.57456 0
M  V30 6123 H 583.871 -2.75855 1.1638 0
M  V30 6124 H 581.417 -1.3262 0.561069 0
M  V30 6125 H 583.37 -4.12682 -0.852752 0
M  V30 6126 H 582.094 -2.98112 -1.33404 0
M  V30 6127 H 580.753 -3.59707 0.707583 0
M  V30 6128 H 580.401 -4.81741 -1.44686 0
M  V30 6129 H 580.101 -5.87582 -0.0456494 0
M  V30 6130 H 581.625 -6.0292 -0.965375 0
M  V30 6131 H 583.039 -5.59201 1.26359 0
M  V30 6132 H 581.436 -5.63876 2.05339 0
M  V30 6133 H 582.506 -4.25253 2.32997 0
M  V30 6134 N 583.85 -0.624285 -1.44708 0
M  V30 6135 C 584.76 0.0861083 -2.34442 0
M  V30 6136 C 585.776 0.84291 -1.5222 0
M  V30 6137 O 586.952 0.796723 -1.84971 0
M  V30 6138 C 584.017 1.05999 -3.30099 0
M  V30 6139 C 583.077 0.303316 -4.28227 0
M  V30 6140 C 582.311 1.23081 -5.19314 0
M  V30 6141 O 582.534 2.46929 -5.14181 0
M  V30 6142 O 581.468 0.71883 -5.97592 0
M  V30 6143 H 585.293 -0.651756 -2.96624 0
M  V30 6144 H 582.879 -0.384493 -1.44368 0
M  V30 6145 H 584.76 1.62046 -3.88997 0
M  V30 6146 H 583.436 1.77859 -2.70459 0
M  V30 6147 H 582.343 -0.300033 -3.72895 0
M  V30 6148 H 583.676 -0.375123 -4.90768 0
M  V30 6149 N 585.328 1.53329 -0.364422 0
M  V30 6150 C 586.556 2.05657 0.226424 0
M  V30 6151 C 586.971 1.23801 1.42544 0
M  V30 6152 O 586.328 0.27839 1.80364 0
M  V30 6153 C 586.379 3.56125 0.621056 0
M  V30 6154 O 586.1 4.34879 -0.530304 0
M  V30 6155 C 587.601 4.24706 1.27041 0
M  V30 6156 H 584.821 0.669806 0.0400056 0
M  V30 6157 H 587.365 1.97714 -0.522456 0
M  V30 6158 H 585.52 3.64223 1.31985 0
M  V30 6159 H 585.934 5.24073 -0.211546 0
M  V30 6160 H 587.408 5.3131 1.49711 0
M  V30 6161 H 587.885 3.78354 2.23036 0
M  V30 6162 H 588.491 4.20858 0.613079 0
M  V30 6163 N 586.806 0.0935595 1.57322 0
M  V30 6164 C 588.031 -0.582324 1.99057 0
M  V30 6165 C 588.456 -1.61025 0.972242 0
M  V30 6166 O 587.814 -1.81202 -0.0594622 0
M  V30 6167 C 587.862 -1.20799 3.39765 0
M  V30 6168 O 586.966 -2.32382 3.40694 0
M  V30 6169 H 586.307 -0.147884 0.647323 0
M  V30 6170 H 588.837 0.174516 2.03854 0
M  V30 6171 H 588.847 -1.54966 3.77425 0
M  V30 6172 H 587.522 -0.454914 4.13405 0
M  V30 6173 H 586.099 -1.99845 3.14827 0
M  V30 6174 N 588.284 -1.56567 -0.180126 0
M  V30 6175 C 589.214 -1.98753 -1.22553 0
M  V30 6176 C 590.195 -0.86175 -1.46656 0
M  V30 6177 O 591.38 -1.12719 -1.58139 0
M  V30 6178 C 588.51 -2.33988 -2.56645 0
M  V30 6179 C 587.464 -3.49445 -2.47128 0
M  V30 6180 C 586.79 -3.70397 -3.8563 0
M  V30 6181 C 588.09 -4.83171 -1.98352 0
M  V30 6182 H 589.784 -2.86332 -0.874896 0
M  V30 6183 H 587.33 -1.37757 -0.419414 0
M  V30 6184 H 589.283 -2.62097 -3.29974 0
M  V30 6185 H 588.007 -1.43309 -2.93479 0
M  V30 6186 H 586.666 -3.2145 -1.76254 0
M  V30 6187 H 586.314 -2.77023 -4.19842 0
M  V30 6188 H 586.014 -4.48077 -3.80132 0
M  V30 6189 H 587.538 -4.00897 -4.60558 0
M  V30 6190 H 588.952 -5.10213 -2.61449 0
M  V30 6191 H 587.349 -5.64425 -2.03823 0
M  V30 6192 H 588.419 -4.75753 -0.937402 0
M  V30 6193 N 589.762 0.448376 -1.51087 0
M  V30 6194 C 591.178 0.783984 -1.39017 0
M  V30 6195 C 591.378 1.96087 -0.463904 0
M  V30 6196 O 590.434 2.52357 0.0850534 0
M  V30 6197 C 591.747 1.07471 -2.80839 0
M  V30 6198 C 593.295 1.17981 -2.89913 0
M  V30 6199 C 593.77 1.50354 -4.32617 0
M  V30 6200 N 595.261 1.57301 -4.35673 0
M  V30 6201 C 595.996 1.839 -5.4311 0
M  V30 6202 N 595.492 2.08365 -6.60724 0
M  V30 6203 N 597.285 1.8559 -5.30578 0
M  V30 6204 H 589.436 -0.326881 -2.0987 0
M  V30 6205 H 591.699 -0.0838006 -0.944289 0
M  V30 6206 H 591.405 0.282768 -3.50561 0
M  V30 6207 H 591.279 2.00519 -3.19487 0
M  V30 6208 H 593.666 1.9624 -2.20395 0
M  V30 6209 H 593.747 0.228603 -2.54776 0
M  V30 6210 H 593.391 0.726273 -5.0268 0
M  V30 6211 H 593.321 2.46663 -4.65258 0
M  V30 6212 H 595.812 1.40342 -3.50874 0
M  V30 6213 H 596.125 2.27999 -7.38401 0
M  V30 6214 H 594.47 2.0571 -6.63859 0
M  V30 6215 H 597.661 1.65989 -4.37682 0
M  V30 6216 H 597.834 2.05983 -6.1439 0
M  V30 6217 N 591.24 1.41047 0.703093 0
M  V30 6218 C 592.47 1.43133 1.48985 0
M  V30 6219 C 592.878 0.0328537 1.89171 0
M  V30 6220 O 592.221 -0.956469 1.56835 0
M  V30 6221 C 592.283 2.26991 2.78775 0
M  V30 6222 C 591.947 3.7525 2.60837 0
M  V30 6223 C 592.944 4.67591 2.27276 0
M  V30 6224 C 590.629 4.19208 2.76712 0
M  V30 6225 C 592.623 6.01877 2.09817 0
M  V30 6226 C 590.31 5.53561 2.5887 0
M  V30 6227 C 591.308 6.4471 2.25472 0
M  V30 6228 O 590.996 7.76584 2.07778 0
M  V30 6229 H 590.728 0.489788 0.465922 0
M  V30 6230 H 593.282 1.85886 0.873822 0
M  V30 6231 H 591.512 1.79038 3.42757 0
M  V30 6232 H 593.201 2.20867 3.40547 0
M  V30 6233 H 593.967 4.34923 2.14633 0
M  V30 6234 H 589.846 3.48572 3.01693 0
M  V30 6235 H 593.39 6.72986 1.83671 0
M  V30 6236 H 589.287 5.85811 2.71102 0
M  V30 6237 H 590.055 7.87649 2.22601 0
M  V30 6238 N 592.718 -0.936591 1.26751 0
M  V30 6239 C 593.681 -2.01752 1.08761 0
M  V30 6240 C 594.681 -1.60763 0.0344435 0
M  V30 6241 O 595.871 -1.71963 0.278258 0
M  V30 6242 C 593.003 -3.34543 0.655271 0
M  V30 6243 H 594.196 -2.19143 2.04735 0
M  V30 6244 H 591.749 -1.11618 1.09413 0
M  V30 6245 H 592.484 -3.22851 -0.30626 0
M  V30 6246 H 592.269 -3.65647 1.41578 0
M  V30 6247 H 593.759 -4.13944 0.551378 0
M  V30 6248 N 594.196 -1.08629 -1.14182 0
M  V30 6249 C 595.445 -0.812271 -1.84621 0
M  V30 6250 C 595.758 0.664313 -1.83973 0
M  V30 6251 O 596.964 1.05357 -2.50224 0
M  V30 6252 C 595.42 -1.4031 -3.31423 0
M  V30 6253 C 595.028 -2.91164 -3.40481 0
M  V30 6254 C 596.772 -1.20767 -4.06959 0
M  V30 6255 C 594.679 -3.43373 -4.81507 0
M  V30 6256 H 593.609 -0.30019 -0.691666 0
M  V30 6257 H 596.26 -1.30798 -1.28701 0
M  V30 6258 H 594.642 -0.835096 -3.87094 0
M  V30 6259 H 595.816 -3.5412 -2.94848 0
M  V30 6260 H 594.131 -3.09646 -2.78403 0
M  V30 6261 H 596.728 -1.57237 -5.11058 0
M  V30 6262 H 597.071 -0.147664 -4.16038 0
M  V30 6263 H 597.604 -1.74274 -3.57594 0
M  V30 6264 H 594.343 -4.48958 -4.77616 0
M  V30 6265 H 593.863 -2.85176 -5.27669 0
M  V30 6266 H 595.542 -3.40095 -5.50404 0
M  V30 6267 N 595.674 1.31259 -0.872281 0
M  V30 6268 C 596.606 2.27396 -0.28697 0
M  V30 6269 C 597.619 1.53181 0.551297 0
M  V30 6270 O 598.808 1.74561 0.372914 0
M  V30 6271 C 595.908 3.33335 0.611617 0
M  V30 6272 C 595.081 4.36966 -0.194729 0
M  V30 6273 C 594.14 5.22387 0.632358 0
M  V30 6274 O 593.166 5.69169 0.0595691 0
M  V30 6275 N 594.368 5.46985 1.94391 0
M  V30 6276 H 597.133 2.78261 -1.11314 0
M  V30 6277 H 594.694 1.44306 -0.733994 0
M  V30 6278 H 596.686 3.87398 1.17068 0
M  V30 6279 H 595.256 2.82496 1.33846 0
M  V30 6280 H 594.476 3.82945 -0.935241 0
M  V30 6281 H 595.764 5.03273 -0.747935 0
M  V30 6282 H 595.162 5.10737 2.43237 0
M  V30 6283 H 593.719 6.03973 2.45071 0
M  V30 6284 N 597.152 0.631951 1.44375 0
M  V30 6285 C 598.082 -0.0593243 2.33425 0
M  V30 6286 C 599.063 -0.833964 1.48253 0
M  V30 6287 O 600.248 -0.799682 1.76971 0
M  V30 6288 C 597.378 -1.04096 3.31333 0
M  V30 6289 C 596.332 -0.377899 4.26328 0
M  V30 6290 C 595.658 -1.4695 5.14111 0
M  V30 6291 C 596.958 0.716371 5.17364 0
M  V30 6292 H 598.652 0.684287 2.91475 0
M  V30 6293 H 596.198 0.330518 1.40156 0
M  V30 6294 H 598.151 -1.53331 3.92514 0
M  V30 6295 H 596.875 -1.81547 2.71493 0
M  V30 6296 H 595.534 0.0938054 3.6648 0
M  V30 6297 H 595.182 -2.2349 4.50623 0
M  V30 6298 H 594.882 -1.03121 5.78481 0
M  V30 6299 H 596.406 -1.96363 5.78164 0
M  V30 6300 H 597.82 0.307089 5.72477 0
M  V30 6301 H 596.217 1.07784 5.90341 0
M  V30 6302 H 597.287 1.58316 4.58327 0
M  V30 6303 N 598.631 -1.53133 0.372548 0
M  V30 6304 C 599.88 -2.00539 -0.216115 0
M  V30 6305 C 600.193 -1.26374 -1.49295 0
M  V30 6306 O 601.399 -1.64404 -2.16064 0
M  V30 6307 C 599.855 -3.57253 -0.435678 0
M  V30 6308 C 599.463 -4.40302 0.82693 0
M  V30 6309 C 601.207 -4.12995 -0.981618 0
M  V30 6310 C 599.114 -5.88583 0.576567 0
M  V30 6311 H 598.044 -0.749246 -0.084536 0
M  V30 6312 H 600.695 -1.76771 0.492364 0
M  V30 6313 H 599.077 -3.77202 -1.20559 0
M  V30 6314 H 600.251 -4.32124 1.60017 0
M  V30 6315 H 598.566 -3.95699 1.29659 0
M  V30 6316 H 601.163 -5.21418 -1.18436 0
M  V30 6317 H 601.506 -3.68027 -1.94581 0
M  V30 6318 H 602.039 -3.96871 -0.271696 0
M  V30 6319 H 598.778 -6.37841 1.51128 0
M  V30 6320 H 598.298 -5.99592 -0.158047 0
M  V30 6321 H 599.977 -6.46676 0.204722 0
M  V30 6322 N 600.109 -0.101901 -1.5727 0
M  V30 6323 C 601.337 0.568392 -1.98939 0
M  V30 6324 C 601.752 1.61301 -0.981194 0
M  V30 6325 O 601.109 1.82478 0.0282869 0
M  V30 6326 C 601.16 1.20997 -3.40649 0
M  V30 6327 O 600.881 0.207129 -4.3761 0
M  V30 6328 C 602.382 1.96523 -3.97358 0
M  V30 6329 H 599.602 0.15186 -0.65359 0
M  V30 6330 H 602.146 -0.183198 -2.03678 0
M  V30 6331 H 600.301 1.91245 -3.36904 0
M  V30 6332 H 600.715 0.671071 -5.20189 0
M  V30 6333 H 602.189 2.36764 -4.98645 0
M  V30 6334 H 602.666 2.83376 -3.35552 0
M  V30 6335 H 603.272 1.31076 -4.04598 0
M  V30 6336 N 601.587 1.56661 0.17182 0
M  V30 6337 C 602.55 1.9549 1.19651 0
M  V30 6338 C 603.55 0.838501 1.37207 0
M  V30 6339 O 604.74 1.10556 1.34622 0
M  V30 6340 C 601.872 2.24927 2.56166 0
M  V30 6341 H 603.065 2.87184 0.864007 0
M  V30 6342 H 600.618 1.50711 0.41425 0
M  V30 6343 H 601.353 1.35944 2.94431 0
M  V30 6344 H 601.138 3.06301 2.4479 0
M  V30 6345 H 602.628 2.55891 3.30014 0
M  V30 6346 N 603.065 -0.440357 1.51323 0
M  V30 6347 C 604.028 -1.51679 1.71832 0
M  V30 6348 C 605.028 -1.49648 0.588386 0
M  V30 6349 O 606.218 -1.51724 0.855891 0
M  V30 6350 C 603.35 -2.91228 1.77199 0
M  V30 6351 H 604.543 -1.34799 2.67898 0
M  V30 6352 H 602.096 -0.66883 1.41267 0
M  V30 6353 H 602.831 -3.13516 0.829363 0
M  V30 6354 H 602.616 -2.94107 2.59314 0
M  V30 6355 H 604.106 -3.69321 1.94915 0
M  V30 6356 N 604.543 -1.41418 -0.695603 0
M  V30 6357 C 605.768 -1.44329 -1.48942 0
M  V30 6358 C 606.193 -0.0501579 -1.88033 0
M  V30 6359 O 605.551 0.946598 -1.54626 0
M  V30 6360 C 605.599 -2.3578 -2.72837 0
M  V30 6361 O 604.703 -1.81482 -3.70322 0
M  V30 6362 H 604.044 -0.489838 -0.44828 0
M  V30 6363 H 606.574 -1.85878 -0.855014 0
M  V30 6364 H 606.584 -2.51654 -3.21145 0
M  V30 6365 H 605.259 -3.37005 -2.43722 0
M  V30 6366 H 603.836 -1.75058 -3.29255 0
M  V30 6367 N 606.021 0.929856 -1.27246 0
M  V30 6368 C 606.951 2.04722 -1.12299 0
M  V30 6369 C 607.932 1.70082 -0.0250464 0
M  V30 6370 O 609.117 1.93176 -0.199141 0
M  V30 6371 C 606.247 3.38721 -0.767145 0
M  V30 6372 C 605.201 3.87466 -1.81808 0
M  V30 6373 C 604.527 5.18246 -1.31626 0
M  V30 6374 C 605.827 4.11095 -3.22177 0
M  V30 6375 H 607.521 2.17485 -2.05769 0
M  V30 6376 H 605.067 1.04503 -0.990715 0
M  V30 6377 H 607.02 4.16366 -0.649413 0
M  V30 6378 H 605.744 3.25967 0.203259 0
M  V30 6379 H 604.403 3.12012 -1.92468 0
M  V30 6380 H 604.051 5.01881 -0.335378 0
M  V30 6381 H 603.751 5.51829 -2.01887 0
M  V30 6382 H 605.275 5.98462 -1.21143 0
M  V30 6383 H 606.689 4.79316 -3.1453 0
M  V30 6384 H 605.086 4.55982 -3.90129 0
M  V30 6385 H 606.156 3.16468 -3.67391 0
M  V30 6386 N 607.499 1.09233 1.13605 0
M  V30 6387 C 608.745 0.828385 1.8511 0
M  V30 6388 C 609.078 -0.64437 1.83198 0
M  V30 6389 O 608.353 -1.47428 1.26867 0
M  V30 6390 C 608.636 1.36167 3.33363 0
M  V30 6391 C 608.489 2.90038 3.438 0
M  V30 6392 C 609.808 0.993819 4.28732 0
M  V30 6393 H 606.927 0.30239 0.672108 0
M  V30 6394 H 609.569 1.35339 1.33355 0
M  V30 6395 H 607.719 0.9151 3.77569 0
M  V30 6396 H 609.391 3.43128 3.08319 0
M  V30 6397 H 607.634 3.27271 2.84739 0
M  V30 6398 H 608.305 3.22428 4.48045 0
M  V30 6399 H 610.781 1.37893 3.92587 0
M  V30 6400 H 609.657 1.39403 5.30903 0
M  V30 6401 H 609.918 -0.0982206 4.41991 0
M  V30 6402 N 608.977 -1.30795 0.87923 0
M  V30 6403 C 610.217 -1.98155 0.50141 0
M  V30 6404 C 610.581 -1.67925 -0.930863 0
M  V30 6405 O 611.782 -2.28572 -1.41451 0
M  V30 6406 C 610.053 -3.49184 0.761937 0
M  V30 6407 S 611.612 -4.36107 0.485361 0
M  V30 6408 H 608.43 -0.686025 0.186792 0
M  V30 6409 H 611.032 -1.59018 1.13726 0
M  V30 6410 H 609.736 -3.68676 1.80295 0
M  V30 6411 H 609.267 -3.93236 0.113432 0
M  V30 6412 H 611.282 -4.9154 -0.678467 0
M  V30 6413 N 610.455 -0.639598 -1.44038 0
M  V30 6414 C 611.871 -0.305953 -1.5664 0
M  V30 6415 C 612.071 1.19055 -1.62567 0
M  V30 6416 O 611.127 1.97492 -1.57331 0
M  V30 6417 C 612.44 -1.00533 -2.83397 0
M  V30 6418 C 613.988 -0.984278 -2.97121 0
M  V30 6419 C 614.463 -1.66428 -4.26691 0
M  V30 6420 N 615.954 -1.63127 -4.33525 0
M  V30 6421 C 616.689 -2.12629 -5.32519 0
M  V30 6422 N 616.185 -2.70359 -6.3787 0
M  V30 6423 N 617.978 -2.03208 -5.24083 0
M  V30 6424 H 610.129 -1.6109 -1.38434 0
M  V30 6425 H 612.392 -0.676672 -0.663942 0
M  V30 6426 H 612.098 -2.06034 -2.85032 0
M  V30 6427 H 611.972 -0.548362 -3.73193 0
M  V30 6428 H 614.359 0.0622792 -2.95034 0
M  V30 6429 H 614.44 -1.47981 -2.08651 0
M  V30 6430 H 614.084 -2.71034 -4.29538 0
M  V30 6431 H 614.014 -1.14351 -5.14034 0
M  V30 6432 H 616.505 -1.20987 -3.58009 0
M  V30 6433 H 616.818 -3.05842 -7.09704 0
M  V30 6434 H 615.163 -2.74414 -6.38531 0
M  V30 6435 H 618.354 -1.57823 -4.40692 0
M  V30 6436 H 618.527 -2.42097 -6.01077 0
M  V30 6437 N 611.933 1.52934 -0.380664 0
M  V30 6438 C 612.88 2.26197 0.458641 0
M  V30 6439 C 613.85 1.27462 1.06502 0
M  V30 6440 O 615.035 1.56274 1.09467 0
M  V30 6441 C 612.175 3.06571 1.58456 0
M  V30 6442 C 611.288 4.20222 1.00189 0
M  V30 6443 C 610.423 4.88007 2.09815 0
M  V30 6444 C 609.462 5.93665 1.49092 0
M  V30 6445 N 608.599 6.55081 2.52613 0
M  V30 6446 H 613.439 2.975 -0.172595 0
M  V30 6447 H 610.976 1.4678 -0.0969426 0
M  V30 6448 H 612.934 3.51455 2.24801 0
M  V30 6449 H 611.564 2.37494 2.18624 0
M  V30 6450 H 610.616 3.79714 0.228292 0
M  V30 6451 H 611.928 4.96102 0.518064 0
M  V30 6452 H 611.082 5.36151 2.83948 0
M  V30 6453 H 609.821 4.11632 2.61555 0
M  V30 6454 H 608.826 5.44868 0.7348 0
M  V30 6455 H 610.051 6.71969 0.981582 0
M  V30 6456 H 607.997 5.8155 3.03538 0
M  V30 6457 H 607.914 7.26548 2.08961 0
M  V30 6458 H 609.182 7.07871 3.26402 0
M  V30 6459 N 613.412 0.11024 1.57214 0
M  V30 6460 C 614.828 -0.24638 1.57687 0
M  V30 6461 C 615.028 -1.67344 1.12241 0
M  V30 6462 O 614.084 -2.39298 0.805783 0
M  V30 6463 C 615.397 -0.0210288 3.00693 0
M  V30 6464 C 616.945 -0.0876077 3.12877 0
M  V30 6465 C 617.42 0.10994 4.57868 0
M  V30 6466 N 618.911 0.0556135 4.63167 0
M  V30 6467 C 619.646 0.183495 5.73106 0
M  V30 6468 N 619.142 0.367058 6.91827 0
M  V30 6469 N 620.935 0.123689 5.61964 0
M  V30 6470 H 613.086 1.04246 1.85058 0
M  V30 6471 H 615.349 0.40979 0.854854 0
M  V30 6472 H 615.055 0.965203 3.38196 0
M  V30 6473 H 614.929 -0.756748 3.69531 0
M  V30 6474 H 617.316 -1.06436 2.75237 0
M  V30 6475 H 617.397 0.67985 2.466 0
M  V30 6476 H 617.041 1.08362 4.96206 0
M  V30 6477 H 616.971 -0.677397 5.22225 0
M  V30 6478 H 619.462 -0.0831062 3.77809 0
M  V30 6479 H 619.775 0.455739 7.71455 0
M  V30 6480 H 618.12 0.40292 6.93831 0
M  V30 6481 H 621.311 -0.0186928 4.68096 0
M  V30 6482 H 621.484 0.226797 6.47603 0
M  V30 6483 N 614.89 -1.56749 -0.16351 0
M  V30 6484 C 615.837 -1.97011 -1.2023 0
M  V30 6485 C 616.807 -0.835186 -1.43575 0
M  V30 6486 O 617.992 -1.09594 -1.56185 0
M  V30 6487 C 615.132 -2.34186 -2.53478 0
M  V30 6488 C 614.245 -3.60893 -2.37446 0
M  V30 6489 C 613.38 -3.87245 -3.63614 0
M  V30 6490 C 612.419 -5.07274 -3.42548 0
M  V30 6491 N 611.556 -5.29719 -4.60806 0
M  V30 6492 H 616.396 -2.85562 -0.851958 0
M  V30 6493 H 613.933 -1.41292 -0.409257 0
M  V30 6494 H 615.891 -2.53764 -3.31149 0
M  V30 6495 H 614.521 -1.48736 -2.86492 0
M  V30 6496 H 613.573 -3.49185 -1.50911 0
M  V30 6497 H 614.885 -4.48722 -2.1783 0
M  V30 6498 H 614.039 -4.07232 -4.49719 0
M  V30 6499 H 612.778 -2.97806 -3.86216 0
M  V30 6500 H 611.783 -4.87177 -2.5483 0
M  V30 6501 H 613.008 -5.98251 -3.2136 0
M  V30 6502 H 610.954 -4.43233 -4.83612 0
M  V30 6503 H 610.871 -6.11786 -4.44132 0
M  V30 6504 H 612.139 -5.54192 -5.48171 0
M  V30 6505 N 616.368 0.432326 -1.51554 0
M  V30 6506 C 617.616 1.17901 -1.64146 0
M  V30 6507 C 617.937 1.91604 -0.362367 0
M  V30 6508 O 617.207 1.85764 0.621968 0
M  V30 6509 H 615.787 0.438206 -0.604966 0
M  V30 6510 H 618.449 0.495172 -1.88505 0
M  V30 6511 H 617.545 1.90584 -2.47152 0
M  V30 6512 N 617.846 1.41785 0.688094 0
M  V30 6513 C 619.074 1.44915 1.47673 0
M  V30 6514 C 619.489 0.0565786 1.88715 0
M  V30 6515 O 618.846 -0.92579 1.57275 0
M  V30 6516 C 618.897 2.36452 2.73446 0
M  V30 6517 O 618.618 3.7029 2.34131 0
M  V30 6518 C 620.119 2.48463 3.67125 0
M  V30 6519 H 617.339 0.493324 0.454832 0
M  V30 6520 H 619.883 1.86153 0.846594 0
M  V30 6521 H 618.038 1.98502 3.3268 0
M  V30 6522 H 618.452 4.19183 3.15255 0
M  V30 6523 H 619.926 3.16662 4.52138 0
M  V30 6524 H 620.403 1.51826 4.12123 0
M  V30 6525 H 621.009 2.8708 3.13792 0
M  V30 6526 N 619.324 -0.923095 1.27737 0
M  V30 6527 C 620.234 -2.05765 1.12685 0
M  V30 6528 C 621.25 -1.73911 0.0557197 0
M  V30 6529 O 622.426 -1.99674 0.263137 0
M  V30 6530 C 619.491 -3.37804 0.780363 0
M  V30 6531 C 618.552 -3.83326 1.93286 0
M  V30 6532 C 617.785 -5.09064 1.60281 0
M  V30 6533 O 618.008 -5.6809 0.512828 0
M  V30 6534 O 616.942 -5.50071 2.44347 0
M  V30 6535 H 620.768 -2.21378 2.07907 0
M  V30 6536 H 618.353 -1.04299 1.06968 0
M  V30 6537 H 620.235 -4.17097 0.600668 0
M  V30 6538 H 618.91 -3.23387 -0.142291 0
M  V30 6539 H 617.817 -3.049 2.16764 0
M  V30 6540 H 619.15 -4.02292 2.83588 0
M  V30 6541 N 620.802 -1.09834 -1.13024 0
M  V30 6542 C 622.048 -0.83819 -1.84668 0
M  V30 6543 C 622.381 0.634645 -1.83537 0
M  V30 6544 O 621.656 1.46753 -1.27647 0
M  V30 6545 C 621.939 -1.37933 -3.32636 0
M  V30 6546 C 621.792 -2.91857 -3.42257 0
M  V30 6547 C 623.111 -1.01654 -4.28199 0
M  V30 6548 H 620.23 -0.30595 -0.670495 0
M  V30 6549 H 622.872 -1.36044 -1.32635 0
M  V30 6550 H 621.022 -0.935111 -3.77078 0
M  V30 6551 H 622.694 -3.44759 -3.06495 0
M  V30 6552 H 620.937 -3.28776 -2.83 0
M  V30 6553 H 621.608 -3.24799 -4.46329 0
M  V30 6554 H 624.084 -1.39973 -3.9185 0
M  V30 6555 H 622.96 -1.42217 -5.30156 0
M  V30 6556 H 623.221 0.0747794 -4.42037 0
M  V30 6557 N 622.28 1.30327 -0.886154 0
M  V30 6558 C 623.212 2.27079 -0.311072 0
M  V30 6559 C 624.225 1.53758 0.53502 0
M  V30 6560 O 625.414 1.74947 0.354378 0
M  V30 6561 C 622.514 3.33965 0.576228 0
M  V30 6562 C 621.687 4.36735 -0.241064 0
M  V30 6563 C 620.746 5.23028 0.576916 0
M  V30 6564 O 619.772 5.692 -0.000802231 0
M  V30 6565 N 620.974 5.49016 1.88579 0
M  V30 6566 H 623.739 2.77065 -1.14259 0
M  V30 6567 H 621.3 1.43519 -0.749258 0
M  V30 6568 H 623.292 3.88618 1.12953 0
M  V30 6569 H 621.862 2.839 1.30842 0
M  V30 6570 H 621.082 3.81932 -0.975805 0
M  V30 6571 H 622.37 5.02451 -0.801272 0
M  V30 6572 H 621.768 5.13288 2.37806 0
M  V30 6573 H 620.325 6.06539 2.38651 0
M  V30 6574 N 623.758 0.647228 1.43697 0
M  V30 6575 C 625.004 0.158422 2.0218 0
M  V30 6576 C 625.337 -1.22233 1.50907 0
M  V30 6577 O 624.612 -1.81478 0.699702 0
M  V30 6578 C 624.895 0.1627 3.59732 0
M  V30 6579 C 624.748 1.57694 4.21251 0
M  V30 6580 C 626.067 -0.504138 4.37203 0
M  V30 6581 H 623.186 0.059042 0.734631 0
M  V30 6582 H 625.828 0.826772 1.71069 0
M  V30 6583 H 623.978 -0.406414 3.86368 0
M  V30 6584 H 625.65 2.19618 4.05667 0
M  V30 6585 H 623.893 2.12603 3.7813 0
M  V30 6586 H 624.564 1.53183 5.3032 0
M  V30 6587 H 627.04 -0.0199841 4.16095 0
M  V30 6588 H 625.916 -0.470394 5.46881 0
M  V30 6589 H 626.177 -1.57726 4.13007 0
M  V30 6590 N 625.236 -1.5273 0.388769 0
M  V30 6591 C 626.513 -1.93981 -0.251133 0
M  V30 6592 C 626.893 -1.32418 -1.64404 0
M  V30 6593 O 626.241 -0.492074 -2.23139 0
M  V30 6594 C 626.451 -3.47891 -0.27802 0
M  V30 6595 C 627.799 -4.21559 -0.507229 0
M  V30 6596 O 628.823 -3.54394 -0.358252 0
M  V30 6597 O 627.682 -5.40626 -0.799094 0
M  V30 6598 H 624.776 -0.812157 -0.15598 0
M  V30 6599 H 627.322 -1.63809 0.443237 0
M  V30 6600 H 626.094 -3.8503 0.697669 0
M  V30 6601 H 625.717 -3.84364 -1.01733 0
M  V30 6602 N 626.714 -0.118576 -1.57153 0
M  V30 6603 C 627.991 0.583062 -1.86708 0
M  V30 6604 C 628.371 1.84841 -1.01967 0
M  V30 6605 O 627.719 2.28288 -0.0984673 0
M  V30 6606 C 627.929 0.875912 -3.3783 0
M  V30 6607 C 629.277 1.22916 -4.0642 0
M  V30 6608 O 630.301 0.966188 -3.42846 0
M  V30 6609 O 629.16 1.72269 -5.18638 0
M  V30 6610 H 626.254 0.294185 -0.772906 0
M  V30 6611 H 628.8 -0.153048 -1.69008 0
M  V30 6612 H 627.572 -0.0207776 -3.91294 0
M  V30 6613 H 627.195 1.66719 -3.60958 0
M  V30 6614 N 628.193 1.56834 0.155195 0
M  V30 6615 C 629.442 1.82088 0.867567 0
M  V30 6616 C 629.755 0.69849 1.82703 0
M  V30 6617 O 630.961 0.836407 2.58295 0
M  V30 6618 C 629.417 3.22707 1.59336 0
M  V30 6619 C 629.025 4.42859 0.676719 0
M  V30 6620 C 630.769 3.57242 2.293 0
M  V30 6621 C 628.676 5.74501 1.40367 0
M  V30 6622 H 627.606 0.679057 0.327715 0
M  V30 6623 H 630.257 1.83105 0.120351 0
M  V30 6624 H 628.639 3.16054 2.38591 0
M  V30 6625 H 629.813 4.60731 -0.0800196 0
M  V30 6626 H 628.128 4.16311 0.0859129 0
M  V30 6627 H 630.725 4.52847 2.84312 0
M  V30 6628 H 631.068 2.82901 3.05406 0
M  V30 6629 H 631.601 3.6552 1.56972 0
M  V30 6630 H 628.34 6.51915 0.684623 0
M  V30 6631 H 627.86 5.60579 2.13332 0
M  V30 6632 H 629.539 6.17016 1.94681 0
M  V30 6633 N 629.671 -0.424282 1.51781 0
M  V30 6634 C 630.618 -1.51591 1.74037 0
M  V30 6635 C 631.588 -1.55556 0.582358 0
M  V30 6636 O 632.773 -1.72364 0.818245 0
M  V30 6637 C 629.913 -2.89188 1.8832 0
M  V30 6638 C 629.026 -2.9465 3.1592 0
M  V30 6639 C 628.161 -4.23452 3.20721 0
M  V30 6640 C 627.2 -4.22831 4.42584 0
M  V30 6641 N 626.337 -5.43178 4.44862 0
M  V30 6642 H 631.177 -1.31917 2.67212 0
M  V30 6643 H 628.714 -0.640599 1.32419 0
M  V30 6644 H 630.672 -3.69044 1.94583 0
M  V30 6645 H 629.302 -3.07392 0.985402 0
M  V30 6646 H 628.354 -2.07378 3.18902 0
M  V30 6647 H 629.666 -2.90055 4.05795 0
M  V30 6648 H 628.82 -5.1169 3.25973 0
M  V30 6649 H 627.559 -4.30722 2.28757 0
M  V30 6650 H 626.564 -3.32984 4.37495 0
M  V30 6651 H 627.789 -4.17213 5.35826 0
M  V30 6652 H 625.735 -5.51145 3.55775 0
M  V30 6653 H 625.652 -5.40515 5.28563 0
M  V30 6654 H 626.92 -6.33412 4.54324 0
M  V30 6655 N 631.149 -1.42148 -0.680565 0
M  V30 6656 C 632.565 -1.24947 -0.992995 0
M  V30 6657 C 632.765 -0.149527 -2.00944 0
M  V30 6658 O 631.821 0.481145 -2.47873 0
M  V30 6659 C 633.134 -2.60426 -1.5033 0
M  V30 6660 C 634.682 -2.67733 -1.62137 0
M  V30 6661 C 635.157 -4.03564 -2.16565 0
M  V30 6662 N 636.648 -4.05488 -2.23905 0
M  V30 6663 C 637.383 -5.07401 -2.67081 0
M  V30 6664 N 636.879 -6.19698 -3.09751 0
M  V30 6665 N 638.672 -4.94758 -2.66778 0
M  V30 6666 H 630.823 -2.12399 -0.0074788 0
M  V30 6667 H 633.086 -0.94571 -0.0658529 0
M  V30 6668 H 632.792 -3.41743 -0.830947 0
M  V30 6669 H 632.666 -2.83949 -2.483 0
M  V30 6670 H 635.053 -1.86765 -2.2848 0
M  V30 6671 H 635.134 -2.48004 -0.626713 0
M  V30 6672 H 634.778 -4.84987 -1.50833 0
M  V30 6673 H 634.708 -4.20641 -3.1681 0
M  V30 6674 H 637.199 -3.24415 -1.93812 0
M  V30 6675 H 637.512 -6.93318 -3.41365 0
M  V30 6676 H 635.857 -6.23212 -3.07623 0
M  V30 6677 H 639.048 -4.06105 -2.32801 0
M  V30 6678 H 639.221 -5.74317 -3.00107 0
M  V30 6679 N 632.627 0.916307 -1.28225 0
M  V30 6680 C 633.873 1.66765 -1.154 0
M  V30 6681 C 634.206 1.91912 0.297251 0
M  V30 6682 O 633.481 1.51766 1.21644 0
M  V30 6683 C 633.764 3.02715 -1.95028 0
M  V30 6684 C 633.617 2.84738 -3.48201 0
M  V30 6685 C 634.936 4.03215 -1.76369 0
M  V30 6686 H 632.055 0.605205 -0.42059 0
M  V30 6687 H 634.697 1.06255 -1.57512 0
M  V30 6688 H 632.847 3.54365 -1.59242 0
M  V30 6689 H 634.519 2.40118 -3.9388 0
M  V30 6690 H 632.762 2.19848 -3.73964 0
M  V30 6691 H 633.433 3.8127 -3.99171 0
M  V30 6692 H 635.909 3.60617 -2.07593 0
M  V30 6693 H 634.785 4.96306 -2.34459 0
M  V30 6694 H 635.046 4.36288 -0.71452 0
M  V30 6695 N 634.105 1.10431 1.1244 0
M  V30 6696 C 635.335 0.867612 1.87499 0
M  V30 6697 C 635.743 -0.585475 1.79913 0
M  V30 6698 O 635.086 -1.41539 1.171 0
M  V30 6699 C 635.148 1.2374 3.37533 0
M  V30 6700 C 634.812 2.69751 3.68895 0
M  V30 6701 C 635.809 3.67988 3.67261 0
M  V30 6702 C 633.494 3.06135 3.98229 0
M  V30 6703 C 635.488 5.00632 3.9452 0
M  V30 6704 C 633.175 4.38967 4.25149 0
M  V30 6705 C 634.173 5.36025 4.23281 0
M  V30 6706 O 633.861 6.66465 4.49533 0
M  V30 6707 H 633.593 0.311196 0.600111 0
M  V30 6708 H 636.147 1.47257 1.43194 0
M  V30 6709 H 634.377 0.575537 3.82393 0
M  V30 6710 H 636.066 0.978187 3.93937 0
M  V30 6711 H 636.832 3.41224 3.44661 0
M  V30 6712 H 632.711 2.31214 3.98825 0
M  V30 6713 H 636.255 5.7638 3.92978 0
M  V30 6714 H 632.152 4.6547 4.47223 0
M  V30 6715 H 632.92 6.72095 4.67152 0
M  V30 6716 N 635.583 -1.29855 0.893053 0
M  V30 6717 C 636.808 -2.00512 0.530066 0
M  V30 6718 C 637.233 -1.66446 -0.876199 0
M  V30 6719 O 636.591 -0.885446 -1.58207 0
M  V30 6720 C 636.639 -3.53308 0.721505 0
M  V30 6721 O 635.743 -4.11764 -0.228994 0
M  V30 6722 H 635.084 -0.630617 0.207891 0
M  V30 6723 H 637.614 -1.6551 1.20282 0
M  V30 6724 H 637.624 -4.03206 0.623599 0
M  V30 6725 H 636.299 -3.77439 1.74678 0
M  V30 6726 H 634.876 -3.72805 -0.0841034 0
M  V30 6727 N 637.061 -0.65484 -1.43351 0
M  V30 6728 C 637.991 0.0221809 -2.33489 0
M  V30 6729 C 638.972 0.810272 -1.49561 0
M  V30 6730 O 640.157 0.771426 -1.78221 0
M  V30 6731 C 637.287 0.988117 -3.32947 0
M  V30 6732 C 636.241 0.310026 -4.26876 0
M  V30 6733 C 635.567 1.38752 -5.16384 0
M  V30 6734 C 636.867 -0.798589 -5.16159 0
M  V30 6735 H 638.561 -0.730571 -2.9035 0
M  V30 6736 H 636.107 -0.352773 -1.39612 0
M  V30 6737 H 638.06 1.47067 -3.94904 0
M  V30 6738 H 636.784 1.77205 -2.74346 0
M  V30 6739 H 635.443 -0.152097 -3.66284 0
M  V30 6740 H 635.091 2.16293 -4.54121 0
M  V30 6741 H 634.791 0.939051 -5.80048 0
M  V30 6742 H 636.315 1.87141 -5.81215 0
M  V30 6743 H 637.729 -0.398126 -5.71916 0
M  V30 6744 H 636.126 -1.17163 -5.88552 0
M  V30 6745 H 637.196 -1.65588 -4.55751 0
M  V30 6746 N 638.539 1.52521 -0.396863 0
M  V30 6747 C 639.786 2.01672 0.182898 0
M  V30 6748 C 640.114 1.28302 1.46181 0
M  V30 6749 O 639.369 0.374118 1.92091 0
M  V30 6750 C 639.668 3.5403 0.489677 0
M  V30 6751 C 639.334 4.45456 -0.698581 0
M  V30 6752 C 637.996 4.70166 -1.02454 0
M  V30 6753 C 640.348 4.99354 -1.49316 0
M  V30 6754 C 637.676 5.46024 -2.1465 0
M  V30 6755 C 640.028 5.76439 -2.60579 0
M  V30 6756 C 638.692 5.99426 -2.93675 0
M  V30 6757 H 637.962 0.737971 0.066927 0
M  V30 6758 H 640.609 1.83853 -0.535764 0
M  V30 6759 H 638.914 3.69963 1.28976 0
M  V30 6760 H 640.611 3.8956 0.951018 0
M  V30 6761 H 637.201 4.26392 -0.434525 0
M  V30 6762 H 641.385 4.80182 -1.25457 0
M  V30 6763 H 636.641 5.62046 -2.40654 0
M  V30 6764 H 640.815 6.17202 -3.22544 0
M  V30 6765 H 638.442 6.57988 -3.80731 0
M  V30 6766 N 640.017 0.126909 1.57088 0
M  V30 6767 C 640.947 -0.816847 2.18746 0
M  V30 6768 C 641.928 -1.27161 1.12979 0
M  V30 6769 O 643.113 -1.33279 1.41246 0
M  V30 6770 C 640.243 -2.06398 2.79315 0
M  V30 6771 C 639.197 -1.74673 3.90735 0
M  V30 6772 C 638.523 -3.06482 4.38147 0
M  V30 6773 C 639.823 -1.0089 5.12463 0
M  V30 6774 H 641.517 -0.303032 2.97863 0
M  V30 6775 H 639.063 -0.144314 1.43275 0
M  V30 6776 H 641.016 -2.72885 3.2111 0
M  V30 6777 H 639.74 -2.60118 1.975 0
M  V30 6778 H 638.399 -1.10572 3.49527 0
M  V30 6779 H 638.047 -3.58152 3.5318 0
M  V30 6780 H 637.747 -2.86025 5.13287 0
M  V30 6781 H 639.271 -3.74073 4.82599 0
M  V30 6782 H 640.685 -1.57546 5.51228 0
M  V30 6783 H 639.082 -0.905006 5.93237 0
M  V30 6784 H 640.152 0.00297335 4.849 0
M  V30 6785 N 641.495 -1.56914 -0.146875 0
M  V30 6786 C 642.772 -1.74273 -0.888165 0
M  V30 6787 C 643.152 -0.69496 -1.99333 0
M  V30 6788 O 642.5 0.286093 -2.26702 0
M  V30 6789 C 642.71 -3.18336 -1.43051 0
M  V30 6790 C 644.058 -3.80024 -1.89387 0
M  V30 6791 O 645.082 -3.21765 -1.52792 0
M  V30 6792 O 643.941 -4.82367 -2.56874 0
M  V30 6793 H 641.035 -0.712565 -0.419738 0
M  V30 6794 H 643.581 -1.6918 -0.132791 0
M  V30 6795 H 642.353 -3.86092 -0.636274 0
M  V30 6796 H 641.976 -3.27854 -2.24938 0
M  V30 6797 N 642.974 0.416227 -1.52004 0
M  V30 6798 C 643.884 1.53147 -1.77717 0
M  V30 6799 C 644.9 1.609 -0.662368 0
M  V30 6800 O 646.076 1.77747 -0.946991 0
M  V30 6801 C 643.141 2.88948 -1.91598 0
M  V30 6802 C 642.202 2.9114 -3.15493 0
M  V30 6803 C 641.435 4.20464 -3.28703 0
M  V30 6804 O 641.658 5.13981 -2.47345 0
M  V30 6805 O 640.592 4.29368 -4.21813 0
M  V30 6806 H 644.418 1.34357 -2.72363 0
M  V30 6807 H 642.003 0.601373 -1.36762 0
M  V30 6808 H 643.885 3.69505 -2.02593 0
M  V30 6809 H 642.56 3.07821 -1.00141 0
M  V30 6810 H 641.467 2.09461 -3.09962 0
M  V30 6811 H 642.8 2.77216 -4.06709 0
M  V30 6812 N 644.452 1.42507 0.673017 0
M  V30 6813 C 645.677 1.4668 1.46627 0
M  V30 6814 C 646.102 0.080066 1.8793 0
M  V30 6815 O 645.46 -0.921879 1.56112 0
M  V30 6816 C 645.508 2.40091 2.69051 0
M  V30 6817 O 644.612 1.8735 3.67387 0
M  V30 6818 H 643.953 0.496908 0.44043 0
M  V30 6819 H 646.483 1.87215 0.825334 0
M  V30 6820 H 646.493 2.56731 3.17101 0
M  V30 6821 H 645.168 3.4084 2.3833 0
M  V30 6822 H 643.745 1.80274 3.26429 0
M  V30 6823 N 645.93 -0.909495 1.28709 0
M  V30 6824 C 647.346 -1.18862 1.06508 0
M  V30 6825 C 647.546 -2.00604 -0.189864 0
M  V30 6826 O 646.602 -2.36281 -0.890355 0
M  V30 6827 C 647.915 -1.91908 2.31499 0
M  V30 6828 C 649.463 -2.04773 2.36721 0
M  V30 6829 C 649.938 -2.81228 3.6149 0
M  V30 6830 N 651.429 -2.88787 3.62155 0
M  V30 6831 C 652.164 -3.48455 4.55375 0
M  V30 6832 N 651.66 -4.09369 5.58918 0
M  V30 6833 N 653.453 -3.46035 4.42963 0
M  V30 6834 H 645.604 -0.363867 2.0926 0
M  V30 6835 H 647.867 -0.223649 0.921241 0
M  V30 6836 H 647.573 -1.39275 3.22948 0
M  V30 6837 H 647.447 -2.92436 2.38245 0
M  V30 6838 H 649.834 -2.56585 1.45767 0
M  V30 6839 H 649.915 -1.03408 2.33967 0
M  V30 6840 H 649.559 -2.30094 4.5279 0
M  V30 6841 H 649.489 -3.82917 3.61499 0
M  V30 6842 H 651.98 -2.45514 2.87283 0
M  V30 6843 H 652.293 -4.52891 6.26187 0
M  V30 6844 H 650.638 -4.0786 5.62739 0
M  V30 6845 H 653.829 -2.9766 3.6127 0
M  V30 6846 H 654.002 -3.92244 5.15799 0
M  V30 6847 N 647.408 -1.11026 -1.11852 0
M  V30 6848 C 648.633 -0.879064 -1.87849 0
M  V30 6849 C 649.058 0.565406 -1.79401 0
M  V30 6850 O 648.416 1.39886 -1.15333 0
M  V30 6851 C 648.464 -1.33985 -3.34784 0
M  V30 6852 O 647.568 -0.508803 -4.09249 0
M  V30 6853 H 646.909 -0.316992 -0.583448 0
M  V30 6854 H 649.439 -1.47863 -1.41413 0
M  V30 6855 H 649.449 -1.33248 -3.85628 0
M  V30 6856 H 648.124 -2.39172 -3.40249 0
M  V30 6857 H 646.701 -0.581913 -3.68332 0
M  V30 6858 N 648.886 1.2938 -0.899927 0
M  V30 6859 C 650.114 1.99691 -0.541386 0
M  V30 6860 C 650.529 1.67355 0.873936 0
M  V30 6861 O 649.886 0.918728 1.57688 0
M  V30 6862 C 649.937 3.54168 -0.72438 0
M  V30 6863 O 649.658 3.85359 -2.08399 0
M  V30 6864 C 651.159 4.41746 -0.370819 0
M  V30 6865 H 648.379 0.638037 -0.207726 0
M  V30 6866 H 650.923 1.6491 -1.20934 0
M  V30 6867 H 649.078 3.87261 -0.103607 0
M  V30 6868 H 649.492 4.80032 -2.11352 0
M  V30 6869 H 650.966 5.49256 -0.549693 0
M  V30 6870 H 651.443 4.33712 0.692148 0
M  V30 6871 H 652.049 4.14125 -0.968543 0
M  V30 6872 N 650.364 0.662433 1.43002 0
M  V30 6873 C 651.296 -0.062326 2.29115 0
M  V30 6874 C 652.309 -0.777926 1.43011 0
M  V30 6875 O 653.498 -0.634146 1.66856 0
M  V30 6876 C 650.598 -1.11163 3.2015 0
M  V30 6877 C 649.771 -0.472327 4.34842 0
M  V30 6878 C 648.83 -1.41974 5.06685 0
M  V30 6879 O 647.856 -0.924795 5.61637 0
M  V30 6880 N 649.058 -2.75345 5.11043 0
M  V30 6881 H 651.823 0.676838 2.91957 0
M  V30 6882 H 649.384 0.505907 1.53793 0
M  V30 6883 H 651.376 -1.74643 3.65078 0
M  V30 6884 H 649.946 -1.75266 2.58845 0
M  V30 6885 H 649.166 0.341751 3.92716 0
M  V30 6886 H 650.454 -0.0264381 5.08793 0
M  V30 6887 H 649.852 -3.18108 4.67786 0
M  V30 6888 H 648.409 -3.34105 5.59658 0
M  V30 6889 N 651.842 -1.52309 0.404946 0
M  V30 6890 C 653.072 -2.05886 -0.171569 0
M  V30 6891 C 653.48 -1.27527 -1.39762 0
M  V30 6892 O 652.823 -0.319215 -1.80905 0
M  V30 6893 C 652.885 -3.54609 -0.590983 0
M  V30 6894 C 652.549 -4.53989 0.523757 0
M  V30 6895 C 653.546 -5.01084 1.38604 0
M  V30 6896 C 651.231 -4.97465 0.695255 0
M  V30 6897 C 653.225 -5.90295 2.4048 0
M  V30 6898 C 650.912 -5.86473 1.71733 0
M  V30 6899 C 651.91 -6.32782 2.57051 0
M  V30 6900 O 651.598 -7.20029 3.57509 0
M  V30 6901 H 651.33 -0.675508 -0.0257763 0
M  V30 6902 H 653.884 -1.97238 0.573278 0
M  V30 6903 H 652.114 -3.60929 -1.38805 0
M  V30 6904 H 653.803 -3.90853 -1.09494 0
M  V30 6905 H 654.569 -4.68214 1.26492 0
M  V30 6906 H 650.448 -4.60982 0.0408447 0
M  V30 6907 H 653.992 -6.26363 3.07108 0
M  V30 6908 H 649.889 -6.18756 1.83877 0
M  V30 6909 H 650.657 -7.3813 3.53703 0
M  V30 6910 N 653.32 -0.135238 -1.57019 0
M  V30 6911 C 654.253 0.846618 -2.11914 0
M  V30 6912 C 655.231 1.25019 -1.03966 0
M  V30 6913 O 656.415 1.34838 -1.31723 0
M  V30 6914 C 653.542 2.1352 -2.6292 0
M  V30 6915 C 652.588 1.87846 -3.82905 0
M  V30 6916 S 653.421 1.08005 -5.24495 0
M  V30 6917 C 654.577 2.38008 -5.78881 0
M  V30 6918 H 654.81 0.379752 -2.94865 0
M  V30 6919 H 652.343 0.0788387 -1.54199 0
M  V30 6920 H 654.301 2.87551 -2.92958 0
M  V30 6921 H 652.962 2.57323 -1.80121 0
M  V30 6922 H 652.155 2.83365 -4.16797 0
M  V30 6923 H 651.757 1.21929 -3.53567 0
M  V30 6924 H 654.049 3.33742 -5.89595 0
M  V30 6925 H 654.992 2.08638 -6.76665 0
M  V30 6926 H 655.4 2.48119 -5.07048 0
M  V30 6927 N 654.798 1.5699 0.138552 0
M  V30 6928 C 655.745 1.98899 1.17081 0
M  V30 6929 C 656.715 0.857922 1.42228 0
M  V30 6930 O 657.9 1.12065 1.54422 0
M  V30 6931 C 655.04 2.38189 2.4972 0
M  V30 6932 C 654.153 3.64624 2.31674 0
M  V30 6933 C 653.288 3.9298 3.57407 0
M  V30 6934 C 652.327 5.1266 3.34435 0
M  V30 6935 N 651.464 5.36983 4.5232 0
M  V30 6936 H 656.304 2.86881 0.80642 0
M  V30 6937 H 653.841 1.41925 0.386727 0
M  V30 6938 H 655.799 2.59 3.2707 0
M  V30 6939 H 654.429 1.53275 2.84089 0
M  V30 6940 H 653.481 3.51542 1.45337 0
M  V30 6941 H 654.793 4.52131 2.10664 0
M  V30 6942 H 653.947 4.14335 4.43183 0
M  V30 6943 H 652.686 3.03912 3.8143 0
M  V30 6944 H 651.691 4.9117 2.47048 0
M  V30 6945 H 652.916 6.03288 3.11802 0
M  V30 6946 H 650.862 4.50871 4.76499 0
M  V30 6947 H 650.779 6.18775 4.34343 0
M  V30 6948 H 652.047 5.62842 5.39285 0
M  V30 6949 N 656.276 -0.40816 1.52223 0
M  V30 6950 C 657.186 -1.52202 1.78526 0
M  V30 6951 C 658.202 -1.60546 0.670892 0
M  V30 6952 O 659.378 -1.77242 0.956404 0
M  V30 6953 C 656.443 -2.87928 1.93128 0
M  V30 6954 C 655.504 -2.89463 3.17033 0
M  V30 6955 C 654.737 -4.18715 3.30929 0
M  V30 6956 O 654.96 -5.12662 2.50067 0
M  V30 6957 O 653.894 -4.27125 4.24084 0
M  V30 6958 H 657.72 -1.32911 2.73072 0
M  V30 6959 H 655.305 -0.594112 1.37079 0
M  V30 6960 H 657.187 -3.68426 2.04549 0
M  V30 6961 H 655.862 -3.07285 1.01772 0
M  V30 6962 H 654.769 -2.07815 3.11069 0
M  V30 6963 H 656.102 -2.75055 4.08174 0
M  V30 6964 N 657.755 -1.42862 -0.66545 0
M  V30 6965 C 658.985 -1.47032 -1.45138 0
M  V30 6966 C 659.393 -0.0829977 -1.89018 0
M  V30 6967 O 658.736 0.914551 -1.59316 0
M  V30 6968 C 658.798 -2.34302 -2.72659 0
M  V30 6969 C 658.462 -3.82034 -2.50796 0
M  V30 6970 C 659.459 -4.73453 -2.14799 0
M  V30 6971 C 657.144 -4.26397 -2.655 0
M  V30 6972 C 659.138 -6.07228 -1.93785 0
M  V30 6973 C 656.825 -5.6023 -2.44103 0
M  V30 6974 C 657.823 -6.50462 -2.08299 0
M  V30 6975 O 657.511 -7.8182 -1.87116 0
M  V30 6976 H 657.243 -0.501969 -0.452772 0
M  V30 6977 H 659.797 -1.88137 -0.82423 0
M  V30 6978 H 658.027 -1.88063 -3.37889 0
M  V30 6979 H 659.716 -2.29818 -3.34572 0
M  V30 6980 H 660.482 -4.4046 -2.03026 0
M  V30 6981 H 656.361 -3.56448 -2.92345 0
M  V30 6982 H 659.905 -6.7762 -1.65763 0
M  V30 6983 H 655.802 -5.92793 -2.55475 0
M  V30 6984 H 656.57 -7.93274 -2.01639 0
M  V30 6985 N 659.233 0.902656 -1.29189 0
M  V30 6986 C 660.165 2.01149 -1.09872 0
M  V30 6987 C 661.178 1.62732 -0.0471046 0
M  V30 6988 O 662.367 1.76107 -0.29132 0
M  V30 6989 C 659.467 3.32612 -0.649818 0
M  V30 6990 C 658.64 3.99574 -1.7793 0
M  V30 6991 C 657.699 5.09325 -1.32191 0
M  V30 6992 O 656.725 5.31919 -2.02611 0
M  V30 6993 N 657.927 5.80185 -0.191171 0
M  V30 6994 H 660.692 2.18276 -2.05368 0
M  V30 6995 H 658.253 1.07466 -1.2109 0
M  V30 6996 H 660.245 4.03375 -0.327199 0
M  V30 6997 H 658.815 3.11876 0.212597 0
M  V30 6998 H 658.035 3.22213 -2.27095 0
M  V30 6999 H 659.323 4.41056 -2.53668 0
M  V30 7000 H 658.721 5.64312 0.396016 0
M  V30 7001 H 657.278 6.5176 0.0721001 0
M  V30 7002 N 660.711 1.11618 1.11262 0
M  V30 7003 C 661.988 0.777876 1.79467 0
M  V30 7004 C 662.368 -0.733774 1.97937 0
M  V30 7005 O 661.716 -1.66443 1.56554 0
M  V30 7006 C 661.926 1.5431 3.13032 0
M  V30 7007 C 663.274 1.72357 3.88044 0
M  V30 7008 O 664.298 1.5075 3.22727 0
M  V30 7009 O 663.157 2.08276 5.05256 0
M  V30 7010 H 660.251 0.282018 0.777428 0
M  V30 7011 H 662.797 1.21971 1.17988 0
M  V30 7012 H 661.569 2.57132 2.94956 0
M  V30 7013 H 661.192 1.09495 3.82226 0
M  V30 7014 N 662.189 -1.289 0.906776 0
M  V30 7015 C 663.152 -2.25777 0.394656 0
M  V30 7016 C 664.152 -1.53621 -0.475119 0
M  V30 7017 O 665.342 -1.71949 -0.279165 0
M  V30 7018 C 662.474 -3.38113 -0.43499 0
M  V30 7019 H 663.667 -2.72592 1.25033 0
M  V30 7020 H 661.22 -1.40463 0.685547 0
M  V30 7021 H 661.955 -2.96648 -1.31036 0
M  V30 7022 H 661.74 -3.91647 0.188334 0
M  V30 7023 H 663.23 -4.10168 -0.784365 0
M  V30 7024 N 663.667 -0.670007 -1.42649 0
M  V30 7025 C 664.914 -0.190286 -2.01604 0
M  V30 7026 C 665.242 1.20155 -1.52948 0
M  V30 7027 O 664.497 1.81964 -0.72026 0
M  V30 7028 C 664.796 -0.168298 -3.57004 0
M  V30 7029 C 664.462 -1.50415 -4.25072 0
M  V30 7030 C 663.124 -1.86992 -4.43382 0
M  V30 7031 C 665.476 -2.38414 -4.63474 0
M  V30 7032 C 662.804 -3.11203 -4.97363 0
M  V30 7033 C 665.156 -3.61933 -5.18833 0
M  V30 7034 C 663.82 -3.98685 -5.35356 0
M  V30 7035 H 663.09 -0.0696305 -0.737721 0
M  V30 7036 H 665.737 -0.864044 -1.70899 0
M  V30 7037 H 664.042 0.588958 -3.87348 0
M  V30 7038 H 665.739 0.22001 -4.00396 0
M  V30 7039 H 662.329 -1.20959 -4.11177 0
M  V30 7040 H 666.513 -2.11442 -4.49006 0
M  V30 7041 H 661.769 -3.39705 -5.08341 0
M  V30 7042 H 665.943 -4.30326 -5.47533 0
M  V30 7043 H 663.57 -4.95009 -5.76949 0
M  V30 7044 N 665.145 1.52092 -0.413018 0
M  V30 7045 C 666.075 2.30021 0.401567 0
M  V30 7046 C 667.056 1.34395 1.04269 0
M  V30 7047 O 668.241 1.63304 1.05097 0
M  V30 7048 C 665.371 3.12447 1.51638 0
M  V30 7049 C 664.325 4.16153 1.00005 0
M  V30 7050 C 663.651 4.86948 2.20875 0
M  V30 7051 C 664.951 5.22275 0.0513757 0
M  V30 7052 H 666.645 2.98365 -0.248704 0
M  V30 7053 H 664.191 1.4349 -0.121052 0
M  V30 7054 H 666.144 3.65733 2.09326 0
M  V30 7055 H 664.868 2.41879 2.19458 0
M  V30 7056 H 663.527 3.63882 0.445549 0
M  V30 7057 H 663.175 4.12905 2.8726 0
M  V30 7058 H 662.875 5.57057 1.86978 0
M  V30 7059 H 664.399 5.43048 2.79162 0
M  V30 7060 H 665.813 5.70778 0.537176 0
M  V30 7061 H 664.21 5.9977 -0.198977 0
M  V30 7062 H 665.28 4.76611 -0.892736 0
M  V30 7063 N 666.623 0.143563 1.56945 0
M  V30 7064 C 667.87 -0.508407 1.96014 0
M  V30 7065 C 668.198 -1.65099 1.02824 0
M  V30 7066 O 667.453 -1.95618 0.0567764 0
M  V30 7067 C 667.752 -1.05885 3.41355 0
M  V30 7068 C 667.418 -0.0350809 4.50886 0
M  V30 7069 C 666.08 0.246362 4.80569 0
M  V30 7070 C 668.432 0.661282 5.16988 0
M  V30 7071 C 665.76 1.23003 5.73661 0
M  V30 7072 C 668.112 1.63375 6.11139 0
M  V30 7073 C 666.776 1.92292 6.39203 0
M  V30 7074 H 666.046 -0.186039 0.717266 0
M  V30 7075 H 668.693 0.229667 1.90118 0
M  V30 7076 H 666.998 -1.87419 3.44066 0
M  V30 7077 H 668.695 -1.57183 3.6891 0
M  V30 7078 H 665.285 -0.264622 4.27782 0
M  V30 7079 H 669.469 0.457038 4.94191 0
M  V30 7080 H 664.725 1.46056 5.93698 0
M  V30 7081 H 668.899 2.17887 6.61436 0
M  V30 7082 H 666.526 2.68666 7.11142 0
M  V30 7083 N 668.101 -1.57061 -0.130224 0
M  V30 7084 C 669.049 -2.00486 -1.17933 0
M  V30 7085 C 670.043 -0.899933 -1.43519 0
M  V30 7086 O 671.249 -1.08514 -1.43613 0
M  V30 7087 H 667.624 -0.638441 -0.397363 0
M  V30 7088 H 669.595 -2.87848 -0.786501 0
M  V30 7089 C 668.344 -2.41565 -2.50084 0
M  V30 7090 H 667.667 -3.26148 -2.31231 0
M  V30 7091 H 669.107 -2.75757 -3.22078 0
M  V30 7092 C 667.566 -1.27485 -3.11848 0
M  V30 7093 O 668.096 -0.584688 -3.97422 0
M  V30 7094 N 666.302 -1.03478 -2.71552 0
M  V30 7095 H 665.849 -1.59779 -2.02061 0
M  V30 7096 H 665.807 -0.27341 -3.13209 0
M  V30 7097 N 669.579 0.400081 -1.52437 0
M  V30 7098 C 670.489 1.51253 -1.79331 0
M  V30 7099 C 671.505 1.60188 -0.679396 0
M  V30 7100 O 672.681 1.76733 -0.965791 0
M  V30 7101 C 669.746 2.869 -1.94652 0
M  V30 7102 C 668.807 2.87777 -3.18564 0
M  V30 7103 C 668.04 4.16954 -3.33145 0
M  V30 7104 O 668.263 5.11329 -2.52783 0
M  V30 7105 O 667.197 4.2487 -4.26343 0
M  V30 7106 H 671.023 1.31461 -2.73773 0
M  V30 7107 H 668.608 0.586834 -1.37392 0
M  V30 7108 H 670.49 3.67336 -2.065 0
M  V30 7109 H 669.165 3.06741 -1.034 0
M  V30 7110 H 668.072 2.06162 -3.12167 0
M  V30 7111 H 669.405 2.72886 -4.09627 0
M  V30 7112 N 671.057 1.43213 0.657864 0
M  V30 7113 C 671.987 1.50815 1.78262 0
M  V30 7114 C 672.968 0.363211 1.66177 0
M  V30 7115 O 674.153 0.579806 1.85343 0
M  V30 7116 C 671.283 1.42625 3.16663 0
M  V30 7117 C 670.237 2.5532 3.43505 0
M  V30 7118 C 669.563 2.32184 4.81658 0
M  V30 7119 C 670.863 3.97583 3.38711 0
M  V30 7120 H 672.557 2.44954 1.72157 0
M  V30 7121 H 670.103 1.17896 0.82683 0
M  V30 7122 H 672.056 1.46548 3.95097 0
M  V30 7123 H 670.78 0.449877 3.23487 0
M  V30 7124 H 669.439 2.50742 2.6744 0
M  V30 7125 H 669.087 1.32801 4.85153 0
M  V30 7126 H 668.787 3.07724 5.00579 0
M  V30 7127 H 670.311 2.37883 5.62356 0
M  V30 7128 H 671.725 4.03673 4.07089 0
M  V30 7129 H 670.122 4.73112 3.69168 0
M  V30 7130 H 671.192 4.23049 2.36976 0
M  V30 7131 N 672.536 -0.895792 1.29666 0
M  V30 7132 C 673.483 -2.00035 1.15129 0
M  V30 7133 C 674.453 -1.66043 0.0435819 0
M  V30 7134 O 675.638 -1.89621 0.211811 0
M  V30 7135 C 672.778 -3.34774 0.83787 0
M  V30 7136 C 671.891 -3.81525 2.0264 0
M  V30 7137 C 671.026 -5.04858 1.65201 0
M  V30 7138 C 670.065 -5.43988 2.80612 0
M  V30 7139 N 669.202 -6.58507 2.43544 0
M  V30 7140 H 674.042 -2.11802 2.09628 0
M  V30 7141 H 671.579 -1.03719 1.04311 0
M  V30 7142 H 673.537 -4.12311 0.636824 0
M  V30 7143 H 672.167 -3.22724 -0.0702314 0
M  V30 7144 H 671.219 -2.9999 2.33903 0
M  V30 7145 H 672.531 -4.06472 2.89106 0
M  V30 7146 H 671.685 -5.8999 1.41408 0
M  V30 7147 H 670.424 -4.81759 0.758893 0
M  V30 7148 H 669.429 -4.57388 3.05083 0
M  V30 7149 H 670.654 -5.69066 3.70595 0
M  V30 7150 H 668.6 -6.37004 1.56724 0
M  V30 7151 H 668.517 -6.83269 3.23542 0
M  V30 7152 H 669.785 -7.46897 2.2308 0
M  V30 7153 N 674.014 -1.12206 -1.10668 0
M  V30 7154 C 675.262 -0.874144 -1.82217 0
M  V30 7155 C 675.583 0.601736 -1.85484 0
M  V30 7156 O 674.853 1.43725 -1.33116 0
M  V30 7157 H 673.433 -0.320404 -0.674797 0
M  V30 7158 H 676.095 -1.41606 -1.33917 0
M  V30 7159 H 675.191 -1.25349 -2.85822 0
M  V30 7160 N 675.492 1.28418 -0.913599 0
M  V30 7161 C 676.402 2.31043 -0.406965 0
M  V30 7162 C 677.418 1.66501 0.505298 0
M  V30 7163 O 678.594 1.97558 0.391522 0
M  V30 7164 C 675.659 3.4498 0.344901 0
M  V30 7165 C 674.72 4.25078 -0.600563 0
M  V30 7166 C 673.953 5.33575 0.115516 0
M  V30 7167 O 674.176 5.54503 1.33727 0
M  V30 7168 O 673.11 5.9939 -0.549095 0
M  V30 7169 H 676.936 2.76387 -1.25873 0
M  V30 7170 H 674.521 1.33109 -0.678415 0
M  V30 7171 H 676.403 4.14314 0.769542 0
M  V30 7172 H 675.078 3.01719 1.1725 0
M  V30 7173 H 673.985 3.58334 -1.0746 0
M  V30 7174 H 675.318 4.72018 -1.39497 0
M  V30 7175 N 676.97 0.677563 1.42291 0
M  V30 7176 C 678.198 0.209459 2.05837 0
M  V30 7177 C 678.613 -1.13444 1.50917 0
M  V30 7178 O 677.97 -1.70529 0.65008 0
M  V30 7179 C 678.021 0.138819 3.61233 0
M  V30 7180 O 677.742 1.42962 4.14118 0
M  V30 7181 C 679.243 -0.352449 4.41897 0
M  V30 7182 H 676.463 0.101209 0.663323 0
M  V30 7183 H 679.007 0.925077 1.8238 0
M  V30 7184 H 677.162 -0.527505 3.83792 0
M  V30 7185 H 677.576 1.3048 5.08011 0
M  V30 7186 H 679.05 -0.350778 5.50884 0
M  V30 7187 H 679.527 -1.3882 4.16684 0
M  V30 7188 H 680.133 0.282236 4.24362 0
M  V30 7189 N 678.448 -1.51871 0.421078 0
M  V30 7190 C 679.381 -2.23851 -0.443369 0
M  V30 7191 C 680.359 -1.25142 -1.03818 0
M  V30 7192 O 681.543 -1.5423 -1.08377 0
M  V30 7193 C 678.67 -2.97637 -1.61648 0
M  V30 7194 C 677.716 -4.10873 -1.14391 0
M  V30 7195 S 678.549 -5.35408 -0.0992403 0
M  V30 7196 C 679.705 -6.12726 -1.27739 0
M  V30 7197 H 679.938 -2.96826 0.167786 0
M  V30 7198 H 677.471 -1.53027 0.205461 0
M  V30 7199 H 679.429 -3.40751 -2.28909 0
M  V30 7200 H 678.09 -2.24282 -2.199 0
M  V30 7201 H 677.283 -4.61718 -2.02069 0
M  V30 7202 H 676.885 -3.69937 -0.549775 0
M  V30 7203 H 679.177 -6.40827 -2.19881 0
M  V30 7204 H 680.12 -7.03461 -0.809239 0
M  V30 7205 H 680.528 -5.43968 -1.5086 0
M  V30 7206 N 679.926 -0.151884 -1.56866 0
M  V30 7207 C 681.203 0.543328 -1.87902 0
M  V30 7208 C 681.583 1.82636 -1.05864 0
M  V30 7209 O 680.931 2.28028 -0.146868 0
M  V30 7210 C 681.141 0.804056 -3.39611 0
M  V30 7211 C 682.489 1.14267 -4.08935 0
M  V30 7212 O 683.513 0.893248 -3.44818 0
M  V30 7213 O 682.372 1.61229 -5.22176 0
M  V30 7214 H 679.466 0.277724 -0.778973 0
M  V30 7215 H 682.012 -0.188862 -1.68646 0
M  V30 7216 H 680.784 -0.103772 -3.91162 0
M  V30 7217 H 680.407 1.59025 -3.64413 0
M  V30 7218 N 681.404 1.57128 0.121893 0
M  V30 7219 C 682.632 1.88883 0.844451 0
M  V30 7220 C 683.047 0.742824 1.73573 0
M  V30 7221 O 682.404 -0.286475 1.80238 0
M  V30 7222 C 682.455 3.20076 1.68029 0
M  V30 7223 O 682.176 4.30264 0.824898 0
M  V30 7224 C 683.677 3.65515 2.50826 0
M  V30 7225 H 680.897 0.62549 0.242907 0
M  V30 7226 H 683.441 2.04219 0.107151 0
M  V30 7227 H 681.596 3.06418 2.37038 0
M  V30 7228 H 682.01 5.05439 1.40113 0
M  V30 7229 H 683.484 4.60081 3.05008 0
M  V30 7230 H 683.961 2.92029 3.28048 0
M  V30 7231 H 684.567 3.81952 1.87064 0
M  V30 7232 N 682.882 -0.391992 1.52647 0
M  V30 7233 C 684.107 -1.16312 1.71716 0
M  V30 7234 C 684.532 -1.83042 0.433279 0
M  V30 7235 O 683.89 -1.70705 -0.610707 0
M  V30 7236 C 683.938 -2.18908 2.86551 0
M  V30 7237 O 683.042 -3.2543 2.53316 0
M  V30 7238 H 682.383 -0.338743 0.571095 0
M  V30 7239 H 684.913 -0.457202 1.99426 0
M  V30 7240 H 684.923 -2.62954 3.1196 0
M  V30 7241 H 683.598 -1.69726 3.79692 0
M  V30 7242 H 682.175 -2.86543 2.38637 0
M  V30 7243 O 684.399 -1.52278 -0.537924 0
M  V30 7244 H 685.09 -1.52597 -1.19306 0
M  V30 END ATOM
M  V30 BEGIN BOND
M  V30 END BOND
M  V30 END CTAB
M  END
$$$$
