drugbank_target|Q9WXS0 Transcriptional regulator, IclR family (DB01942)
 OpenBabel12092120233D

  0  0  0     0  0            999 V3000
M  V30 BEGIN CTAB
M  V30 COUNTS 4024 4058 0 0 0
M  V30 BEGIN ATOM
M  V30 1 H -0.908 1.98254 -0.117106 0
M  V30 2 N 0 1.576 0 0
M  V30 3 C 0.933 2.03868 1.02534 0
M  V30 4 C 1.911 0.928543 1.3348 0
M  V30 5 O 3.095 1.19667 1.45644 0
M  V30 6 C 0.222 2.43627 2.35294 0
M  V30 7 C -0.732 3.65373 2.2001 0
M  V30 8 S 0.101 5.13292 1.52614 0
M  V30 9 C 1.257 5.56322 2.86805 0
M  V30 10 H 1.49 2.90518 0.631377 0
M  V30 11 H -0.977 1.52953 0.210867 0
M  V30 12 H 0.981 2.67203 3.11629 0
M  V30 13 H -0.358 1.57376 2.7183 0
M  V30 14 H -1.165 3.90944 3.18086 0
M  V30 15 H -1.563 3.418 1.51819 0
M  V30 16 H 0.729 5.58782 3.83104 0
M  V30 17 H 1.672 6.56266 2.65933 0
M  V30 18 H 2.08 4.83886 2.90714 0
M  V30 19 N 1.4781 -0.272755 1.55222 0
M  V30 20 C 2.4261 -1.35705 1.88909 0
M  V30 21 C 3.4201 -1.5112 0.765456 0
M  V30 22 O 4.6261 -1.52901 0.949802 0
M  V30 23 H 1.0011 -0.453868 0.59959 0
M  V30 24 H 2.9721 -1.04544 2.79487 0
M  V30 25 C 1.7211 -2.71049 2.17779 0
M  V30 26 H 1.0441 -2.59979 3.03728 0
M  V30 27 H 2.4841 -3.45858 2.45272 0
M  V30 28 C 0.9431 -3.22165 0.985473 0
M  V30 29 O 1.4731 -4.01096 0.220233 0
M  V30 30 N -0.3209 -2.7985 0.783108 0
M  V30 31 H -0.7739 -2.15775 1.40708 0
M  V30 32 H -0.8159 -3.14397 -0.0130392 0
M  V30 33 N 2.9562 -1.48159 -0.537278 0
M  V30 34 C 4.1842 -1.59454 -1.31841 0
M  V30 35 C 4.5992 -0.252065 -1.8711 0
M  V30 36 O 3.9562 0.757621 -1.66031 0
M  V30 37 C 4.0072 -2.63546 -2.47439 0
M  V30 38 O 3.7282 -3.92583 -1.94449 0
M  V30 39 C 5.2292 -2.85212 -3.39366 0
M  V30 40 H 2.4492 -0.53785 -0.401196 0
M  V30 41 H 4.9932 -1.93932 -0.648891 0
M  V30 42 H 3.1482 -2.31946 -3.1029 0
M  V30 43 H 3.5622 -4.49629 -2.70063 0
M  V30 44 H 5.0362 -3.61863 -4.16844 0
M  V30 45 H 5.5132 -1.93765 -3.94147 0
M  V30 46 H 6.1192 -3.18086 -2.82314 0
M  V30 47 N 4.4343 0.785586 -1.36625 0
M  V30 48 C 5.3643 1.91259 -1.33949 0
M  V30 49 C 6.3453 1.68795 -0.210325 0
M  V30 50 O 7.5303 1.89854 -0.408561 0
M  V30 51 C 4.6603 3.28339 -1.13186 0
M  V30 52 C 3.6143 3.65335 -2.22967 0
M  V30 53 C 2.9403 5.00806 -1.87342 0
M  V30 54 C 4.2403 3.7352 -3.65075 0
M  V30 55 H 5.9343 1.93755 -2.28253 0
M  V30 56 H 3.4803 0.930788 -1.09874 0
M  V30 57 H 5.4333 4.06804 -1.09948 0
M  V30 58 H 4.1573 3.2624 -0.153332 0
M  V30 59 H 2.8163 2.89169 -2.25337 0
M  V30 60 H 2.4643 4.95233 -0.880545 0
M  V30 61 H 2.1643 5.26529 -2.60846 0
M  V30 62 H 3.6883 5.81687 -1.85667 0
M  V30 63 H 5.1023 4.42168 -3.64911 0
M  V30 64 H 3.4993 4.10731 -4.37516 0
M  V30 65 H 4.5693 2.74527 -3.99703 0
M  V30 66 N 5.9124 1.20967 1.01018 0
M  V30 67 C 6.8594 0.964281 2.09691 0
M  V30 68 C 7.8294 -0.107853 1.65749 0
M  V30 69 O 9.0144 0.0381987 1.90762 0
M  V30 70 C 6.1544 0.52943 3.41015 0
M  V30 71 C 5.2674 1.67043 3.98398 0
M  V30 72 C 4.4024 1.18525 5.17808 0
M  V30 73 C 3.4414 2.29892 5.67288 0
M  V30 74 N 2.5784 1.82546 6.77954 0
M  V30 75 H 7.4184 1.89463 2.30017 0
M  V30 76 H 4.9554 0.944289 1.1279 0
M  V30 77 H 6.9134 0.258588 4.16398 0
M  V30 78 H 5.5434 -0.363919 3.20742 0
M  V30 79 H 4.5954 2.05603 3.20049 0
M  V30 80 H 5.9074 2.50877 4.31117 0
M  V30 81 H 5.0614 0.870762 6.00419 0
M  V30 82 H 3.8004 0.316887 4.86669 0
M  V30 83 H 2.8054 2.6215 4.83278 0
M  V30 84 H 4.0304 3.17216 6.00459 0
M  V30 85 H 1.9764 0.980454 6.48632 0
M  V30 86 H 1.8934 2.59956 7.09901 0
M  V30 87 H 3.1614 1.54115 7.64113 0
M  V30 88 N 7.3905 -1.2043 1.01659 0
M  V30 89 C 8.3375 -2.23215 0.586822 0
M  V30 90 C 9.3075 -1.61382 -0.393085 0
M  V30 91 O 10.4925 -1.88544 -0.292525 0
M  V30 92 C 7.6325 -3.45032 -0.0687464 0
M  V30 93 C 6.7455 -4.21296 0.955724 0
M  V30 94 C 5.8805 -5.30507 0.271208 0
M  V30 95 C 4.9195 -5.98515 1.28244 0
M  V30 96 N 4.0565 -6.99316 0.62459 0
M  V30 97 H 8.8965 -2.59336 1.46796 0
M  V30 98 H 6.4335 -1.27431 0.734836 0
M  V30 99 H 8.3915 -4.1459 -0.465965 0
M  V30 100 H 7.0215 -3.09604 -0.913529 0
M  V30 101 H 6.0735 -3.50803 1.4711 0
M  V30 102 H 7.3855 -4.6803 1.72479 0
M  V30 103 H 6.5395 -6.06428 -0.18151 0
M  V30 104 H 5.2785 -4.8481 -0.530163 0
M  V30 105 H 4.2835 -5.21355 1.74554 0
M  V30 106 H 5.5085 -6.46298 2.08509 0
M  V30 107 H 3.4545 -6.55812 -0.156914 0
M  V30 108 H 3.3715 -7.44178 1.33172 0
M  V30 109 H 4.6395 -7.79255 0.195462 0
M  V30 110 N 8.8686 -0.792821 -1.36206 0
M  V30 111 C 9.8316 -0.199459 -2.2833 0
M  V30 112 C 10.8316 0.605189 -1.48977 0
M  V30 113 O 12.0216 0.425685 -1.68919 0
M  V30 114 C 9.1536 0.723523 -3.33134 0
M  V30 115 H 10.3466 -1.01181 -2.82316 0
M  V30 116 H 7.8996 -0.562485 -1.45828 0
M  V30 117 H 8.6346 1.56008 -2.84309 0
M  V30 118 H 8.4196 0.148436 -3.91819 0
M  V30 119 H 9.9096 1.13344 -4.01924 0
M  V30 120 N 10.3467 1.47872 -0.545128 0
M  V30 121 C 11.5937 2.02493 -0.0165858 0
M  V30 122 C 11.9217 1.42073 1.32836 0
M  V30 123 O 11.1767 0.561459 1.87473 0
M  V30 124 C 11.4757 3.57131 0.13867 0
M  V30 125 C 11.1417 4.36411 -1.13384 0
M  V30 126 C 9.8037 4.57792 -1.48256 0
M  V30 127 C 12.1557 4.82223 -1.97764 0
M  V30 128 C 9.4837 5.22233 -2.67376 0
M  V30 129 C 11.8357 5.47977 -3.16076 0
M  V30 130 C 10.4997 5.67593 -3.51275 0
M  V30 131 H 9.7697 0.740975 -0.00606918 0
M  V30 132 H 12.4167 1.77683 -0.714207 0
M  V30 133 H 10.7217 3.80865 0.919172 0
M  V30 134 H 12.4187 3.97031 0.562782 0
M  V30 135 H 9.0087 4.2004 -0.852297 0
M  V30 136 H 13.1927 4.65493 -1.72132 0
M  V30 137 H 8.4487 5.35616 -2.94831 0
M  V30 138 H 12.6227 5.8244 -3.81755 0
M  V30 139 H 10.2497 6.17298 -4.43675 0
M  V30 140 N 11.8248 0.280983 1.55075 0
M  V30 141 C 12.7348 -0.61388 2.26426 0
M  V30 142 C 13.7508 -1.16521 1.29224 0
M  V30 143 O 14.9268 -1.19426 1.62171 0
M  V30 144 C 11.9918 -1.7788 2.9759 0
M  V30 145 C 11.0528 -1.26355 4.10284 0
M  V30 146 C 10.2858 -2.37295 4.78045 0
M  V30 147 O 10.5088 -3.56777 4.45047 0
M  V30 148 O 9.4428 -2.05119 5.65871 0
M  V30 149 H 13.2688 -0.0356932 3.03679 0
M  V30 150 H 10.8538 0.0481686 1.49322 0
M  V30 151 H 12.7358 -2.45791 3.42293 0
M  V30 152 H 11.4108 -2.34397 2.23249 0
M  V30 153 H 10.3178 -0.550735 3.70024 0
M  V30 154 H 11.6508 -0.744065 4.86543 0
M  V30 155 N 13.3029 -1.57598 0.00835791 0
M  V30 156 C 14.5519 -1.90107 -0.673968 0
M  V30 157 C 14.8649 -0.884275 -1.7447 0
M  V30 158 O 16.0709 -1.09987 -2.48224 0
M  V30 159 C 14.5269 -3.37497 -1.24995 0
M  V30 160 C 14.1349 -4.47491 -0.2136 0
M  V30 161 C 15.8789 -3.79104 -1.90999 0
M  V30 162 C 13.7859 -5.85963 -0.80005 0
M  V30 163 H 12.7159 -0.709393 -0.255495 0
M  V30 164 H 15.3669 -1.83365 0.0702693 0
M  V30 165 H 13.7489 -3.39102 -2.04513 0
M  V30 166 H 14.9229 -4.57414 0.557596 0
M  V30 167 H 13.2379 -4.14956 0.346474 0
M  V30 168 H 15.8349 -4.79901 -2.35795 0
M  V30 169 H 16.1779 -3.1306 -2.74407 0
M  V30 170 H 16.7109 -3.79833 -1.18203 0
M  V30 171 H 13.4499 -6.555 -0.00456708 0
M  V30 172 H 12.9699 -5.79687 -1.54021 0
M  V30 173 H 14.6489 -6.33884 -1.29615 0
M  V30 174 N 14.781 0.264519 -1.55364 0
M  V30 175 C 15.711 1.33121 -1.91836 0
M  V30 176 C 16.692 1.51101 -0.781192 0
M  V30 177 O 17.877 1.64003 -1.04003 0
M  V30 178 C 15.007 2.68921 -2.19769 0
M  V30 179 C 13.961 2.65661 -3.35571 0
M  V30 180 C 13.287 4.05093 -3.49004 0
M  V30 181 C 14.587 2.24187 -4.71739 0
M  V30 182 H 16.281 1.02844 -2.81182 0
M  V30 183 H 13.827 0.493286 -1.35287 0
M  V30 184 H 15.78 3.43663 -2.43872 0
M  V30 185 H 14.504 3.00799 -1.27231 0
M  V30 186 H 13.163 1.93377 -3.1145 0
M  V30 187 H 12.811 4.34206 -2.53917 0
M  V30 188 H 12.511 4.03804 -4.26868 0
M  V30 189 H 14.035 4.81561 -3.75408 0
M  V30 190 H 15.449 2.88654 -4.9533 0
M  V30 191 H 13.846 2.34044 -5.52579 0
M  V30 192 H 14.916 1.19327 -4.69988 0
M  V30 193 N 16.2591 1.48442 0.529413 0
M  V30 194 C 17.5361 1.46978 1.29062 0
M  V30 195 C 17.9161 0.181769 2.10316 0
M  V30 196 O 17.2641 -0.836481 2.12639 0
M  V30 197 C 17.4741 2.7321 2.17157 0
M  V30 198 C 18.8221 3.21562 2.77278 0
M  V30 199 O 19.8461 2.74131 2.27444 0
M  V30 200 O 18.7051 4.04094 3.67927 0
M  V30 201 H 15.7991 0.587003 0.582543 0
M  V30 202 H 18.3451 1.60676 0.546021 0
M  V30 203 H 17.1171 3.58465 1.56903 0
M  V30 204 H 16.7401 2.62235 2.98862 0
M  V30 205 N 17.7372 -0.778329 1.37039 0
M  V30 206 C 18.9842 -1.53665 1.31884 0
M  V30 207 C 19.3122 -1.9425 -0.0986303 0
M  V30 208 O 18.5672 -1.63832 -1.07041 0
M  V30 209 C 18.8662 -2.81845 2.19768 0
M  V30 210 C 18.5322 -2.60345 3.68146 0
M  V30 211 C 17.1942 -2.5419 4.08584 0
M  V30 212 C 19.5462 -2.40923 4.62175 0
M  V30 213 C 16.8742 -2.26594 5.41177 0
M  V30 214 C 19.2262 -2.14852 5.94997 0
M  V30 215 C 17.8902 -2.07137 6.34547 0
M  V30 216 H 17.1602 -0.562299 0.482598 0
M  V30 217 H 19.8072 -0.897069 1.69189 0
M  V30 218 H 18.1122 -3.50328 1.75436 0
M  V30 219 H 19.8092 -3.39692 2.13097 0
M  V30 220 H 16.3992 -2.65996 3.36072 0
M  V30 221 H 20.5832 -2.44673 4.31797 0
M  V30 222 H 15.8392 -2.19111 5.70789 0
M  V30 223 H 20.0132 -1.98822 6.67415 0
M  V30 224 H 17.6402 -1.85518 7.37216 0
M  V30 225 N 19.2153 -1.21501 -1.00376 0
M  V30 226 C 20.4643 -1.02718 -1.73586 0
M  V30 227 C 20.7773 0.439589 -1.90596 0
M  V30 228 O 21.9833 0.746848 -2.61026 0
M  V30 229 C 20.4393 -1.78929 -3.1227 0
M  V30 230 C 20.0473 -3.29783 -3.03228 0
M  V30 231 C 21.7913 -1.68557 -3.89601 0
M  V30 232 C 19.6983 -3.98479 -4.36999 0
M  V30 233 H 18.6283 -0.380733 -0.650814 0
M  V30 234 H 21.2793 -1.45248 -1.1214 0
M  V30 235 H 19.6613 -1.29192 -3.74333 0
M  V30 236 H 20.8353 -3.86832 -2.50395 0
M  V30 237 H 19.1503 -3.40711 -2.39385 0
M  V30 238 H 21.7473 -2.17211 -4.88593 0
M  V30 239 H 22.0903 -0.644021 -4.11288 0
M  V30 240 H 22.6233 -2.15778 -3.34193 0
M  V30 241 H 19.3623 -5.02841 -4.20513 0
M  V30 242 H 18.8823 -3.46219 -4.89788 0
M  V30 243 H 20.5613 -4.03462 -5.05794 0
M  V30 244 N 20.6934 1.19889 -1.02296 0
M  V30 245 C 21.9394 1.89701 -0.717033 0
M  V30 246 C 22.2724 1.7905 0.751989 0
M  V30 247 O 21.5474 1.17891 1.547 0
M  V30 248 C 21.8304 3.40858 -1.16136 0
M  V30 249 C 21.6834 3.60411 -2.69117 0
M  V30 250 C 23.0024 4.33876 -0.737549 0
M  V30 251 H 20.1214 0.688874 -0.261957 0
M  V30 252 H 22.7634 1.41154 -1.27183 0
M  V30 253 H 20.9134 3.82335 -0.689342 0
M  V30 254 H 22.5854 3.28145 -3.2422 0
M  V30 255 H 20.8284 3.03665 -3.0979 0
M  V30 256 H 21.4994 4.66396 -2.95261 0
M  V30 257 H 23.9754 4.00081 -1.14344 0
M  V30 258 H 22.8514 5.38242 -1.0764 0
M  V30 259 H 23.1124 4.40628 0.360436 0
M  V30 260 N 22.1715 0.800033 1.35784 0
M  V30 261 C 23.1185 0.203848 2.29898 0
M  V30 262 C 24.0885 -0.658375 1.52495 0
M  V30 263 O 25.2735 -0.604832 1.8096 0
M  V30 264 C 22.4135 -0.64688 3.38983 0
M  V30 265 C 21.5265 0.235054 4.3136 0
M  V30 266 C 20.6615 -0.623054 5.27533 0
M  V30 267 C 19.7005 0.259682 6.11549 0
M  V30 268 N 18.8375 -0.558019 6.99879 0
M  V30 269 H 23.6775 1.01186 2.80295 0
M  V30 270 H 21.2145 0.51053 1.37957 0
M  V30 271 H 23.1725 -1.15521 4.00887 0
M  V30 272 H 21.8025 -1.42021 2.89879 0
M  V30 273 H 20.8545 0.861438 3.70518 0
M  V30 274 H 22.1665 0.914768 4.9034 0
M  V30 275 H 21.3205 -1.19678 5.94779 0
M  V30 276 H 20.0595 -1.33636 4.69034 0
M  V30 277 H 19.0645 0.845726 5.43256 0
M  V30 278 H 20.2895 0.970748 6.72126 0
M  V30 279 H 18.2355 -1.25542 6.43875 0
M  V30 280 H 18.1525 0.0637872 7.55973 0
M  V30 281 H 19.4205 -1.11523 7.71481 0
M  V30 282 N 23.6496 -1.47581 0.552962 0
M  V30 283 C 24.5976 -2.31648 -0.21023 0
M  V30 284 C 25.5916 -1.42663 -0.913432 0
M  V30 285 O 26.7976 -1.5945 -0.835201 0
M  V30 286 H 23.1726 -0.746989 -0.0866676 0
M  V30 287 H 25.1436 -2.93869 0.518051 0
M  V30 288 C 23.8926 -3.25226 -1.22976 0
M  V30 289 H 23.2156 -3.93658 -0.698077 0
M  V30 290 H 24.6556 -3.86889 -1.73473 0
M  V30 291 C 23.1146 -2.48448 -2.27542 0
M  V30 292 O 23.6446 -2.22585 -3.34393 0
M  V30 293 N 21.8506 -2.09532 -2.01357 0
M  V30 294 H 21.3976 -2.30765 -1.14478 0
M  V30 295 H 21.3556 -1.58476 -2.71538 0
M  V30 296 N 25.1277 -0.289203 -1.54924 0
M  V30 297 C 26.5387 0.205791 -1.85562 0
M  V30 298 C 26.8897 1.54351 -1.2112 0
M  V30 299 O 26.0147 2.10435 -0.504601 0
M  V30 300 C 26.6097 0.380177 -3.3666 0
M  V30 301 C 25.1687 0.819395 -3.67373 0
M  V30 302 C 24.3157 -0.079159 -2.77187 0
M  V30 303 H 27.2667 -0.510577 -1.50262 0
M  V30 304 H 27.2877 1.21659 -3.60526 0
M  V30 305 H 26.7997 -0.593589 -3.83534 0
M  V30 306 H 24.9007 1.80413 -3.26009 0
M  V30 307 H 25.0137 0.646957 -4.74712 0
M  V30 308 H 23.3777 0.439565 -2.50878 0
M  V30 309 H 24.1607 -1.04906 -3.26878 0
M  V30 310 N 26.6058 1.57591 -0.0167156 0
M  V30 311 C 27.8538 1.90906 0.663285 0
M  V30 312 C 28.1748 0.892509 1.73376 0
M  V30 313 O 27.4448 -0.0677623 1.95783 0
M  V30 314 H 26.0248 0.704637 0.247983 0
M  V30 315 H 28.6868 1.94803 -0.0615909 0
M  V30 316 H 27.7828 2.9116 1.12393 0
M  V30 317 N 28.0839 -0.256276 1.55502 0
M  V30 318 C 29.3609 -1.00789 1.67633 0
M  V30 319 C 29.7409 -2.03706 0.553826 0
M  V30 320 O 29.0889 -2.24145 -0.443969 0
M  V30 321 C 29.2989 -1.64968 3.07549 0
M  V30 322 C 30.6469 -2.15505 3.65845 0
M  V30 323 O 31.6709 -1.74925 3.1029 0
M  V30 324 O 30.5299 -2.89986 4.63217 0
M  V30 325 H 27.6239 -0.468553 0.681459 0
M  V30 326 H 30.1699 -0.250806 1.67836 0
M  V30 327 H 28.9419 -0.904785 3.80696 0
M  V30 328 H 28.5649 -2.47321 3.11317 0
M  V30 329 N 29.562 -1.4872 -0.521534 0
M  V30 330 C 30.808 -1.574 -1.27879 0
M  V30 331 C 31.141 -0.250817 -1.92573 0
M  V30 332 O 30.416 0.743934 -1.79711 0
M  V30 333 C 30.699 -2.71843 -2.36164 0
M  V30 334 C 30.552 -4.13893 -1.76105 0
M  V30 335 C 31.871 -2.82008 -3.37875 0
M  V30 336 H 28.99 -0.572941 -0.463581 0
M  V30 337 H 31.632 -1.80927 -0.580119 0
M  V30 338 H 29.782 -2.51914 -2.95756 0
M  V30 339 H 31.454 -4.45284 -1.20499 0
M  V30 340 H 29.697 -4.20498 -1.06601 0
M  V30 341 H 30.368 -4.89804 -2.5455 0
M  V30 342 H 32.844 -3.00086 -2.88249 0
M  V30 343 H 31.72 -3.63796 -4.11028 0
M  V30 344 H 31.981 -1.90511 -3.98946 0
M  V30 345 N 31.0401 0.771051 -1.3745 0
M  V30 346 C 32.2651 1.56529 -1.36065 0
M  V30 347 C 32.6901 1.88029 0.0515859 0
M  V30 348 O 32.0481 1.49282 1.02882 0
M  V30 349 C 32.0961 2.85187 -2.20683 0
M  V30 350 O 31.2001 3.79593 -1.61193 0
M  V30 351 H 30.5411 0.47411 -0.464883 0
M  V30 352 H 33.0711 0.954269 -1.80983 0
M  V30 353 H 33.0811 3.34283 -2.33921 0
M  V30 354 H 31.7561 2.61588 -3.23334 0
M  V30 355 H 30.3331 3.38239 -1.56999 0
M  V30 356 N 32.5182 1.22032 0.997298 0
M  V30 357 C 33.7642 1.04376 1.73878 0
M  V30 358 C 34.0972 -0.420716 1.89588 0
M  V30 359 O 33.3722 -1.31202 1.43583 0
M  V30 360 C 33.6552 1.75047 3.14691 0
M  V30 361 C 33.5082 3.29062 3.06656 0
M  V30 362 C 34.8272 1.49928 4.13775 0
M  V30 363 H 31.9462 0.380578 0.631133 0
M  V30 364 H 34.5882 1.50312 1.16217 0
M  V30 365 H 32.7382 1.35996 3.63919 0
M  V30 366 H 34.4102 3.7753 2.65083 0
M  V30 367 H 32.6532 3.58967 2.43568 0
M  V30 368 H 33.3242 3.73683 4.06282 0
M  V30 369 H 35.8002 1.83842 3.73285 0
M  V30 370 H 34.6762 2.01878 5.10428 0
M  V30 371 H 34.9372 0.430929 4.39995 0
M  V30 372 N 33.9963 -1.19345 1.0293 0
M  V30 373 C 35.2213 -1.93538 0.745511 0
M  V30 374 C 35.6463 -1.75007 -0.689511 0
M  V30 375 O 35.0043 -1.05265 -1.47611 0
M  V30 376 C 35.0523 -3.43336 1.10239 0
M  V30 377 O 34.1563 -4.11806 0.221289 0
M  V30 378 H 33.4973 -0.604193 0.275404 0
M  V30 379 H 36.0273 -1.5141 1.37609 0
M  V30 380 H 36.0373 -3.94004 1.05947 0
M  V30 381 H 34.7123 -3.56146 2.14786 0
M  V30 382 H 33.2893 -3.715 0.322842 0
M  V30 383 N 35.4744 -0.807222 -1.35358 0
M  V30 384 C 36.3844 -0.219594 -2.3357 0
M  V30 385 C 37.4004 0.637734 -1.61892 0
M  V30 386 O 38.5764 0.549336 -1.93763 0
M  V30 387 C 35.6414 0.62158 -3.41083 0
M  V30 388 C 34.7024 -0.256315 -4.28534 0
M  V30 389 C 33.9354 0.544807 -5.30912 0
M  V30 390 O 34.1584 1.77944 -5.41934 0
M  V30 391 O 33.0924 -0.0646478 -6.01865 0
M  V30 392 H 36.9184 -1.03208 -2.85625 0
M  V30 393 H 34.5034 -0.569025 -1.38139 0
M  V30 394 H 36.3854 1.10067 -4.06772 0
M  V30 395 H 35.0604 1.41165 -2.91297 0
M  V30 396 H 33.9674 -0.782559 -3.65823 0
M  V30 397 H 35.3004 -1.01034 -4.81719 0
M  V30 398 N 36.9525 1.47285 -0.560781 0
M  V30 399 C 38.2015 2.01668 -0.035895 0
M  V30 400 C 38.5145 1.44021 1.32353 0
M  V30 401 O 39.7205 1.90088 1.93853 0
M  V30 402 C 38.1765 3.59897 -0.0136659 0
M  V30 403 C 37.7845 4.26536 -1.37006 0
M  V30 404 C 39.5285 4.22017 0.458425 0
M  V30 405 C 37.4355 5.76782 -1.30675 0
M  V30 406 H 36.3655 0.753938 -0.00964879 0
M  V30 407 H 39.0165 1.69243 -0.709166 0
M  V30 408 H 37.3985 3.89301 0.725325 0
M  V30 409 H 38.5725 4.0877 -2.12705 0
M  V30 410 H 36.8875 3.76419 -1.78038 0
M  V30 411 H 39.4845 5.32124 0.524247 0
M  V30 412 H 39.8275 3.89437 1.4712 0
M  V30 413 H 40.3605 3.97159 -0.225818 0
M  V30 414 H 37.0995 6.13988 -2.29564 0
M  V30 415 H 36.6195 5.96875 -0.591622 0
M  V30 416 H 38.2985 6.39063 -1.01033 0
M  V30 417 N 38.4306 0.297415 1.54768 0
M  V30 418 C 39.3936 -0.567375 2.22066 0
M  V30 419 C 40.3936 -1.06409 1.20556 0
M  V30 420 O 41.5836 -0.960691 1.45315 0
M  V30 421 C 38.7156 -1.78517 2.90421 0
M  V30 422 H 39.9086 0.0205534 2.99893 0
M  V30 423 H 37.4616 0.0482163 1.56226 0
M  V30 424 H 38.1966 -2.41303 2.16664 0
M  V30 425 H 37.9816 -1.43669 3.64831 0
M  V30 426 H 39.4716 -2.39964 3.41771 0
M  V30 427 N 39.9087 -1.5758 0.0250728 0
M  V30 428 C 40.8187 -2.1343 -0.973905 0
M  V30 429 C 41.8347 -1.08556 -1.35984 0
M  V30 430 O 43.0107 -1.40592 -1.44207 0
M  V30 431 C 40.0757 -2.64703 -2.23904 0
M  V30 432 C 39.1367 -3.84276 -1.91391 0
M  V30 433 C 38.3697 -4.33095 -3.11873 0
M  V30 434 O 38.5927 -3.81107 -4.24398 0
M  V30 435 O 37.5267 -5.24984 -2.94406 0
M  V30 436 H 41.3527 -2.99057 -0.529036 0
M  V30 437 H 38.9377 -1.48118 -0.195288 0
M  V30 438 H 40.8197 -2.97769 -2.98181 0
M  V30 439 H 39.4947 -1.82161 -2.6758 0
M  V30 440 H 38.4017 -3.56143 -1.14511 0
M  V30 441 H 39.7347 -4.67968 -1.52534 0
M  V30 442 N 41.3868 0.248026 -1.55636 0
M  V30 443 C 42.3338 1.30707 -1.90222 0
M  V30 444 C 43.3038 1.47881 -0.756332 0
M  V30 445 O 44.4888 1.61883 -1.00988 0
M  V30 446 C 41.6288 2.65769 -2.20138 0
M  V30 447 C 40.7418 2.56612 -3.47526 0
M  V30 448 C 39.8768 3.8402 -3.67017 0
M  V30 449 C 38.9158 3.69476 -4.8801 0
M  V30 450 N 38.0528 4.88774 -5.04029 0
M  V30 451 H 42.8928 1.00512 -2.80538 0
M  V30 452 H 40.4298 0.485055 -1.38873 0
M  V30 453 H 42.3878 3.44386 -2.35487 0
M  V30 454 H 41.0178 2.94115 -1.33027 0
M  V30 455 H 40.0698 1.69571 -3.40514 0
M  V30 456 H 41.3818 2.41774 -4.36287 0
M  V30 457 H 40.5358 4.7108 -3.8232 0
M  V30 458 H 39.2748 4.01754 -2.76487 0
M  V30 459 H 38.2798 2.80799 -4.72686 0
M  V30 460 H 39.5048 3.53238 -5.8 0
M  V30 461 H 37.4508 5.0687 -4.16435 0
M  V30 462 H 37.3678 4.76562 -5.86877 0
M  V30 463 H 38.6358 5.77335 -5.23741 0
M  V30 464 N 42.8649 1.48995 0.513639 0
M  V30 465 C 44.1119 1.57843 1.26854 0
M  V30 466 C 44.4399 0.259501 1.92761 0
M  V30 467 O 43.6949 -0.75159 1.80692 0
M  V30 468 C 43.9939 2.67756 2.36731 0
M  V30 469 C 43.6599 4.09669 1.88368 0
M  V30 470 C 42.3219 4.48291 1.74896 0
M  V30 471 C 44.6739 4.98537 1.52021 0
M  V30 472 C 42.0019 5.73568 1.23438 0
M  V30 473 C 44.3539 6.24319 1.0202 0
M  V30 474 C 43.0179 6.61783 0.871778 0
M  V30 475 H 42.2879 0.577587 0.464192 0
M  V30 476 H 44.9349 1.82778 0.571366 0
M  V30 477 H 43.2399 2.36743 3.12185 0
M  V30 478 H 44.9369 2.71813 2.9482 0
M  V30 479 H 41.5269 3.79176 1.99808 0
M  V30 480 H 45.7109 4.69363 1.61281 0
M  V30 481 H 40.9669 6.01304 1.10648 0
M  V30 482 H 45.1409 6.92566 0.729722 0
M  V30 483 H 42.7679 7.5874 0.470852 0
M  V30 484 N 44.343 -0.763751 1.37857 0
M  V30 485 C 45.291 -1.89864 1.34367 0
M  V30 486 C 46.285 -1.67816 0.231143 0
M  V30 487 O 47.491 -1.75508 0.399617 0
M  V30 488 H 43.866 -0.624501 0.41893 0
M  V30 489 H 45.837 -1.89925 2.30155 0
M  V30 490 C 44.586 -3.27227 1.1755 0
M  V30 491 H 43.909 -3.44773 2.02414 0
M  V30 492 H 45.349 -4.06911 1.1916 0
M  V30 493 C 43.808 -3.36692 -0.118311 0
M  V30 494 O 44.338 -3.86374 -1.09902 0
M  V30 495 N 42.544 -2.90092 -0.171717 0
M  V30 496 H 42.091 -2.49853 0.627012 0
M  V30 497 H 42.049 -2.96806 -1.03699 0
M  V30 498 N 45.8211 -1.22559 -0.990812 0
M  V30 499 C 46.7541 -0.940773 -2.07905 0
M  V30 500 C 47.7321 0.117082 -1.62178 0
M  V30 501 O 48.9161 -0.0149506 -1.88494 0
M  V30 502 C 46.0431 -0.415321 -3.36144 0
M  V30 503 C 45.0891 -1.45818 -4.00799 0
M  V30 504 S 45.9221 -3.03219 -4.41382 0
M  V30 505 C 47.0781 -2.52317 -5.72789 0
M  V30 506 H 47.3111 -1.8623 -2.31745 0
M  V30 507 H 44.8441 -1.05688 -1.12558 0
M  V30 508 H 46.8021 -0.118747 -4.10328 0
M  V30 509 H 45.4631 0.485121 -3.10331 0
M  V30 510 H 44.6561 -1.04044 -4.93144 0
M  V30 511 H 44.2581 -1.70356 -3.32949 0
M  V30 512 H 46.5501 -1.93688 -6.49224 0
M  V30 513 H 47.4931 -3.43161 -6.19392 0
M  V30 514 H 47.9011 -1.93529 -5.30289 0
M  V30 515 N 47.2992 1.18797 -1.03562 0
M  V30 516 C 48.5242 1.9314 -0.755764 0
M  V30 517 C 48.9492 1.7537 0.68022 0
M  V30 518 O 48.3072 1.06046 1.47051 0
M  V30 519 C 48.3552 3.42747 -1.12058 0
M  V30 520 O 47.4592 4.11683 -0.243124 0
M  V30 521 H 46.8002 0.602724 -0.278604 0
M  V30 522 H 49.3302 1.50678 -1.3841 0
M  V30 523 H 49.3402 3.93437 -1.08035 0
M  V30 524 H 48.0152 3.55002 -2.16672 0
M  V30 525 H 46.5922 3.71323 -0.342539 0
M  V30 526 N 48.7773 0.814389 1.34928 0
M  V30 527 C 50.0233 0.399013 1.98836 0
M  V30 528 C 50.3563 -1.03314 1.64438 0
M  V30 529 O 49.6313 -1.71811 0.911659 0
M  V30 530 C 49.9143 0.591629 3.55207 0
M  V30 531 C 49.7673 2.06928 3.99376 0
M  V30 532 C 51.0863 0.022199 4.40094 0
M  V30 533 H 48.2053 0.146451 0.722303 0
M  V30 534 H 50.8473 1.02537 1.59957 0
M  V30 535 H 48.9973 0.0584441 3.88456 0
M  V30 536 H 50.6693 2.66544 3.76499 0
M  V30 537 H 48.9123 2.56287 3.49999 0
M  V30 538 H 49.5833 2.1549 5.08201 0
M  V30 539 H 52.0593 0.477643 4.13349 0
M  V30 540 H 50.9353 0.186832 5.48582 0
M  V30 541 H 51.1963 -1.07215 4.28902 0
M  V30 542 N 50.2554 -1.46986 0.568584 0
M  V30 543 C 51.4804 -2.07335 0.0520528 0
M  V30 544 C 51.9054 -1.41675 -1.23733 0
M  V30 545 O 51.2634 -0.495623 -1.74394 0
M  V30 546 C 51.3114 -3.60417 -0.11501 0
M  V30 547 O 50.4154 -3.95309 -1.17492 0
M  V30 548 H 49.7564 -0.661597 0.0564385 0
M  V30 549 H 52.2864 -1.88837 0.787507 0
M  V30 550 H 52.2964 -4.06698 -0.325644 0
M  V30 551 H 50.9714 -4.07601 0.826675 0
M  V30 552 H 49.5484 -3.60757 -0.943869 0
M  V30 553 N 51.7335 -0.305618 -1.54608 0
M  V30 554 C 52.6815 0.584119 -2.25146 0
M  V30 555 C 53.6755 1.13326 -1.25911 0
M  V30 556 O 54.8815 1.08337 -1.43747 0
M  V30 557 H 51.2565 0.206983 -0.722954 0
M  V30 558 H 53.2275 -0.033291 -2.98381 0
M  V30 559 C 51.9765 1.74225 -3.009 0
M  V30 560 H 51.2995 1.32892 -3.77067 0
M  V30 561 H 52.7395 2.34077 -3.53531 0
M  V30 562 C 51.1985 2.64914 -2.0814 0
M  V30 563 O 51.7285 3.66137 -1.65246 0
M  V30 564 N 49.9345 2.3275 -1.74 0
M  V30 565 H 49.4815 1.50479 -2.09078 0
M  V30 566 H 49.4395 2.93694 -1.12211 0
M  V30 567 N 53.2116 1.57565 -0.0334293 0
M  V30 568 C 54.1746 2.09393 0.932048 0
M  V30 569 C 55.1746 1.00986 1.25134 0
M  V30 570 O 56.3646 1.27129 1.19096 0
M  V30 571 C 53.4966 2.56338 2.2473 0
M  V30 572 H 54.6896 2.95984 0.483085 0
M  V30 573 H 52.2426 1.54819 0.21468 0
M  V30 574 H 52.9776 1.7309 2.74245 0
M  V30 575 H 52.7626 3.35542 2.02865 0
M  V30 576 H 54.2526 2.96646 2.93923 0
M  V30 577 N 54.6897 -0.239769 1.55765 0
M  V30 578 C 55.9197 -0.982743 1.8173 0
M  V30 579 C 56.3277 -1.7917 0.607835 0
M  V30 580 O 55.6707 -1.78525 -0.432973 0
M  V30 581 C 55.7327 -1.96332 3.01155 0
M  V30 582 C 55.3967 -1.34062 4.36894 0
M  V30 583 C 56.3937 -0.739539 5.14613 0
M  V30 584 C 54.0787 -1.35784 4.83599 0
M  V30 585 C 56.0727 -0.163989 6.37189 0
M  V30 586 C 53.7597 -0.778441 6.06122 0
M  V30 587 C 54.7577 -0.182548 6.82756 0
M  V30 588 O 54.4457 0.387887 8.02964 0
M  V30 589 H 54.1777 -0.294481 0.608487 0
M  V30 590 H 56.7317 -0.26572 2.03674 0
M  V30 591 H 54.9617 -2.71884 2.74984 0
M  V30 592 H 56.6507 -2.57032 3.14149 0
M  V30 593 H 57.4167 -0.718687 4.79646 0
M  V30 594 H 53.2957 -1.81105 4.23936 0
M  V30 595 H 56.8397 0.301753 6.96947 0
M  V30 596 H 52.7367 -0.796645 6.40565 0
M  V30 597 H 53.5047 0.28044 8.18019 0
M  V30 598 N 56.1678 -1.49265 -0.50573 0
M  V30 599 C 57.1148 -1.65585 -1.6078 0
M  V30 600 C 58.0848 -0.497396 -1.58478 0
M  V30 601 O 59.2698 -0.72385 -1.76536 0
M  V30 602 C 56.4098 -1.72408 -2.98948 0
M  V30 603 C 55.5228 -2.99525 -3.11301 0
M  V30 604 C 54.6578 -2.97356 -4.40174 0
M  V30 605 C 53.6968 -4.19074 -4.46143 0
M  V30 606 N 52.8338 -4.14841 -5.66437 0
M  V30 607 H 57.6738 -2.59688 -1.46172 0
M  V30 608 H 55.2108 -1.28761 -0.711261 0
M  V30 609 H 57.1688 -1.74344 -3.79025 0
M  V30 610 H 55.7988 -0.817753 -3.1227 0
M  V30 611 H 54.8508 -3.07222 -2.24318 0
M  V30 612 H 56.1628 -3.89518 -3.11572 0
M  V30 613 H 55.3168 -2.97829 -5.28567 0
M  V30 614 H 54.0558 -2.05133 -4.42461 0
M  V30 615 H 53.0608 -4.1885 -3.56153 0
M  V30 616 H 54.2858 -5.12483 -4.45575 0
M  V30 617 H 52.2318 -3.25453 -5.69575 0
M  V30 618 H 52.1488 -4.98564 -5.68304 0
M  V30 619 H 53.4168 -4.1941 -6.57051 0
M  V30 620 N 57.6459 0.756429 -1.3826 0
M  V30 621 C 58.8759 1.54341 -1.3734 0
M  V30 622 C 59.2839 1.89159 0.0393917 0
M  V30 623 O 58.6269 1.5307 1.01565 0
M  V30 624 C 58.6889 2.87238 -2.16182 0
M  V30 625 C 58.3529 2.74973 -3.65019 0
M  V30 626 C 59.3499 2.44962 -4.58574 0
M  V30 627 C 57.0349 2.92515 -4.08338 0
M  V30 628 C 59.0289 2.32642 -5.93428 0
M  V30 629 C 56.7159 2.79815 -5.43274 0
M  V30 630 C 57.7139 2.49921 -6.35632 0
M  V30 631 O 57.4019 2.37275 -7.68086 0
M  V30 632 H 57.1339 0.484281 -0.471643 0
M  V30 633 H 59.6879 0.944152 -1.82414 0
M  V30 634 H 57.9179 3.49342 -1.65822 0
M  V30 635 H 59.6069 3.48731 -2.07705 0
M  V30 636 H 60.3729 2.31081 -4.26412 0
M  V30 637 H 56.2519 3.14781 -3.368 0
M  V30 638 H 59.7959 2.0923 -6.65484 0
M  V30 639 H 55.6929 2.93269 -5.75034 0
M  V30 640 H 56.4609 2.52509 -7.78577 0
M  V30 641 N 59.124 1.23083 0.984299 0
M  V30 642 C 60.057 0.951786 2.07404 0
M  V30 643 C 61.035 -0.10848 1.62238 0
M  V30 644 O 62.219 0.0249467 1.88483 0
M  V30 645 C 59.346 0.433142 3.35919 0
M  V30 646 C 58.392 1.47941 4.0002 0
M  V30 647 S 59.225 3.05556 4.39768 0
M  V30 648 C 60.381 2.55351 5.71442 0
M  V30 649 H 60.614 1.87456 2.30754 0
M  V30 650 H 58.147 1.06284 1.11996 0
M  V30 651 H 60.105 0.140506 4.10259 0
M  V30 652 H 58.766 -0.468656 3.10584 0
M  V30 653 H 57.959 1.06658 4.92585 0
M  V30 654 H 57.561 1.7212 3.3204 0
M  V30 655 H 59.853 1.97128 6.48187 0
M  V30 656 H 60.796 3.46441 6.17563 0
M  V30 657 H 61.204 1.96339 5.29255 0
M  V30 658 N 60.6021 -1.18246 1.0419 0
M  V30 659 C 61.8481 -1.88536 0.747122 0
M  V30 660 C 62.1811 -1.80223 -0.723409 0
M  V30 661 O 61.4561 -1.20337 -1.52804 0
M  V30 662 C 61.7391 -3.38968 1.21544 0
M  V30 663 C 61.5921 -3.56084 2.74816 0
M  V30 664 C 62.9111 -4.32648 0.806482 0
M  V30 665 H 60.0301 -0.684619 0.272883 0
M  V30 666 H 62.6721 -1.39113 1.29413 0
M  V30 667 H 60.8221 -3.8119 0.750081 0
M  V30 668 H 62.4941 -3.22946 3.29399 0
M  V30 669 H 60.7371 -2.98699 3.14582 0
M  V30 670 H 61.4081 -4.61639 3.02644 0
M  V30 671 H 63.8841 -3.98211 1.20695 0
M  V30 672 H 62.7601 -5.36462 1.1619 0
M  V30 673 H 63.0211 -4.41146 -0.29029 0
M  V30 674 N 62.0802 -0.821533 -1.34494 0
M  V30 675 C 63.3262 -0.409552 -1.98622 0
M  V30 676 C 63.6592 1.0244 -1.64984 0
M  V30 677 O 62.9342 1.71325 -0.920758 0
M  V30 678 C 63.2172 -0.610458 -3.54888 0
M  V30 679 C 63.0702 -2.09043 -3.98273 0
M  V30 680 C 64.3892 -0.0455379 -4.40076 0
M  V30 681 H 61.5082 -0.15028 -0.721516 0
M  V30 682 H 64.1502 -1.03384 -1.59411 0
M  V30 683 H 62.3002 -0.079044 -3.8842 0
M  V30 684 H 63.9722 -2.68537 -3.75081 0
M  V30 685 H 62.2152 -2.58139 -3.48635 0
M  V30 686 H 62.8862 -2.18182 -5.07051 0
M  V30 687 H 65.3622 -0.499557 -4.1309 0
M  V30 688 H 64.2382 -0.215922 -5.48475 0
M  V30 689 H 64.4992 1.04939 -4.29465 0
M  V30 690 N 63.5583 1.46682 -0.576371 0
M  V30 691 C 64.4883 2.33028 0.148397 0
M  V30 692 C 65.4693 1.44961 0.889956 0
M  V30 693 O 66.6543 1.73789 0.866662 0
M  V30 694 C 63.7843 3.27117 1.1667 0
M  V30 695 C 62.7383 4.24575 0.540386 0
M  V30 696 C 62.0643 5.08126 1.6647 0
M  V30 697 C 63.3643 5.19722 -0.518331 0
M  V30 698 H 65.0583 2.93875 -0.572509 0
M  V30 699 H 62.6043 1.41315 -0.276768 0
M  V30 700 H 64.5573 3.86374 1.68204 0
M  V30 701 H 63.2813 2.64364 1.9178 0
M  V30 702 H 61.9403 3.66571 0.0461769 0
M  V30 703 H 61.5883 4.41762 2.40531 0
M  V30 704 H 61.2883 5.74122 1.25131 0
M  V30 705 H 62.8123 5.70246 2.18293 0
M  V30 706 H 64.2263 5.73232 -0.0883058 0
M  V30 707 H 62.6233 5.94026 -0.851679 0
M  V30 708 H 63.6933 4.64037 -1.40703 0
M  V30 709 N 65.0364 0.313813 1.54444 0
M  V30 710 C 65.9464 -0.565714 2.27677 0
M  V30 711 C 66.9624 -1.13754 1.31666 0
M  V30 712 O 68.1384 -1.15959 1.64668 0
M  V30 713 C 65.2034 -1.71528 3.01296 0
M  V30 714 C 64.2644 -1.17624 4.12872 0
M  V30 715 C 63.4974 -2.27102 4.8297 0
M  V30 716 O 63.7204 -3.47256 4.52514 0
M  V30 717 O 62.6544 -1.9307 5.70094 0
M  V30 718 H 66.4804 0.0287296 3.03686 0
M  V30 719 H 64.0654 0.0798312 1.49187 0
M  V30 720 H 65.9474 -2.38476 3.4743 0
M  V30 721 H 64.6224 -2.29608 2.2817 0
M  V30 722 H 63.5294 -0.472124 3.71109 0
M  V30 723 H 64.8624 -0.640695 4.88012 0
M  V30 724 N 66.5145 -1.57545 0.0417849 0
M  V30 725 C 67.4245 -2.14451 -0.951213 0
M  V30 726 C 68.4405 -1.09992 -1.34825 0
M  V30 727 O 69.6165 -1.42114 -1.42708 0
M  V30 728 C 66.6815 -2.67063 -2.21084 0
M  V30 729 C 65.7425 -3.86284 -1.87304 0
M  V30 730 C 64.9755 -4.36378 -3.07261 0
M  V30 731 O 65.1985 -3.85587 -4.20332 0
M  V30 732 O 64.1325 -5.28077 -2.88822 0
M  V30 733 H 67.9585 -2.99601 -0.497287 0
M  V30 734 H 65.5435 -1.48317 -0.179567 0
M  V30 735 H 67.4255 -3.00914 -2.95006 0
M  V30 736 H 66.1005 -1.84989 -2.65633 0
M  V30 737 H 65.0075 -3.57338 -1.10727 0
M  V30 738 H 66.3405 -4.6956 -1.47562 0
M  V30 739 N 67.9926 0.231505 -1.5589 0
M  V30 740 C 68.9396 1.28682 -1.91598 0
M  V30 741 C 69.9096 1.47071 -0.771974 0
M  V30 742 O 71.0946 1.60802 -1.027 0
M  V30 743 C 68.2346 2.6342 -2.22944 0
M  V30 744 C 67.3476 2.52912 -3.50228 0
M  V30 745 C 66.4826 3.80106 -3.7107 0
M  V30 746 C 65.5216 3.64279 -4.91902 0
M  V30 747 N 64.6586 4.834 -5.09184 0
M  V30 748 H 69.4986 0.975305 -2.81588 0
M  V30 749 H 67.0356 0.470299 -1.39379 0
M  V30 750 H 68.9936 3.41869 -2.39126 0
M  V30 751 H 67.6236 2.92687 -1.36139 0
M  V30 752 H 66.6756 1.6595 -3.42294 0
M  V30 753 H 67.9876 2.37133 -4.38827 0
M  V30 754 H 67.1416 4.66999 -3.87295 0
M  V30 755 H 65.8806 3.98799 -2.80733 0
M  V30 756 H 64.8856 2.7577 -4.75637 0
M  V30 757 H 66.1106 3.47067 -5.83714 0
M  V30 758 H 64.0566 5.02425 -4.21788 0
M  V30 759 H 63.9736 4.70311 -5.91898 0
M  V30 760 H 65.2416 5.71747 -5.29835 0
M  V30 761 N 69.4707 1.49531 0.497807 0
M  V30 762 C 70.7187 1.58865 1.24926 0
M  V30 763 C 71.0397 0.278721 1.92998 0
M  V30 764 O 70.3097 -0.702144 1.82885 0
M  V30 765 H 68.8897 0.585343 0.464094 0
M  V30 766 H 71.5517 1.86174 0.57666 0
M  V30 767 H 70.6477 2.38633 2.01149 0
M  V30 768 N 70.9488 -0.749086 1.3866 0
M  V30 769 C 72.1958 -1.50833 1.35114 0
M  V30 770 C 72.5238 -1.94415 -0.0574049 0
M  V30 771 O 71.7788 -1.66065 -1.03541 0
M  V30 772 C 72.0778 -2.7712 2.25697 0
M  V30 773 C 71.7438 -2.52477 3.73585 0
M  V30 774 C 70.4058 -2.45466 4.13884 0
M  V30 775 C 72.7578 -2.31066 4.67181 0
M  V30 776 C 70.0858 -2.15064 5.45861 0
M  V30 777 C 72.4378 -2.02183 5.9942 0
M  V30 778 C 71.1018 -1.93631 6.38798 0
M  V30 779 H 70.3718 -0.551936 0.494416 0
M  V30 780 H 73.0188 -0.860979 1.71054 0
M  V30 781 H 71.3238 -3.46528 1.82827 0
M  V30 782 H 73.0208 -3.35096 2.20254 0
M  V30 783 H 69.6108 -2.58807 3.41638 0
M  V30 784 H 73.7948 -2.35459 4.3689 0
M  V30 785 H 69.0508 -2.06954 5.75308 0
M  V30 786 H 73.2248 -1.8462 6.71482 0
M  V30 787 H 70.8518 -1.69839 7.40985 0
M  V30 788 N 72.4269 -1.23603 -0.977757 0
M  V30 789 C 73.6729 -1.07129 -1.72195 0
M  V30 790 C 74.0059 0.390501 -1.90233 0
M  V30 791 O 73.2809 1.28902 -1.45653 0
M  V30 792 C 73.5639 -1.80031 -3.11867 0
M  V30 793 C 73.4169 -3.33899 -3.01383 0
M  V30 794 C 74.7359 -1.56492 -4.11337 0
M  V30 795 H 71.8549 -0.390571 -0.624999 0
M  V30 796 H 74.4969 -1.52142 -1.13811 0
M  V30 797 H 72.6469 -1.41768 -3.6171 0
M  V30 798 H 74.3189 -3.81699 -2.59043 0
M  V30 799 H 72.5619 -3.62796 -2.37827 0
M  V30 800 H 73.2329 -3.801 -4.00285 0
M  V30 801 H 75.7089 -1.89757 -3.70313 0
M  V30 802 H 74.5849 -2.09973 -5.07151 0
M  V30 803 H 74.8459 -0.500874 -4.39254 0
M  V30 804 N 73.905 1.17692 -1.04816 0
M  V30 805 C 74.835 2.23777 -0.666791 0
M  V30 806 C 75.816 1.66796 0.33361 0
M  V30 807 O 77.001 1.93039 0.212042 0
M  V30 808 C 74.131 3.47281 -0.0367933 0
M  V30 809 C 73.085 4.17059 -0.961546 0
M  V30 810 C 72.411 5.34342 -0.195626 0
M  V30 811 C 73.711 4.69713 -2.28402 0
M  V30 812 H 75.405 2.55933 -1.55367 0
M  V30 813 H 72.951 1.23019 -0.748484 0
M  V30 814 H 74.904 4.20706 0.241775 0
M  V30 815 H 73.628 3.14381 0.885004 0
M  V30 816 H 72.287 3.45541 -1.22462 0
M  V30 817 H 71.935 4.97692 0.728816 0
M  V30 818 H 71.635 5.81966 -0.811775 0
M  V30 819 H 73.159 6.10553 0.0757473 0
M  V30 820 H 74.573 5.34794 -2.06563 0
M  V30 821 H 72.97 5.279 -2.8538 0
M  V30 822 H 74.04 3.86726 -2.92525 0
M  V30 823 N 75.3831 0.828654 1.34056 0
M  V30 824 C 76.7991 0.515135 1.51058 0
M  V30 825 C 76.9991 -0.959581 1.77184 0
M  V30 826 O 76.0551 -1.74382 1.82612 0
M  V30 827 C 77.3681 1.37963 2.67183 0
M  V30 828 C 78.9161 1.37735 2.81066 0
M  V30 829 C 79.3911 2.22645 4.00241 0
M  V30 830 N 80.8821 2.203 4.07458 0
M  V30 831 C 81.6171 2.82744 4.98842 0
M  V30 832 N 81.1131 3.54201 5.9541 0
M  V30 833 N 82.9061 2.72268 4.91759 0
M  V30 834 H 75.0571 1.78343 1.15358 0
M  V30 835 H 77.3201 0.760304 0.566252 0
M  V30 836 H 77.0261 2.42714 2.54525 0
M  V30 837 H 76.9001 1.0484 3.62338 0
M  V30 838 H 79.2871 0.337593 2.93163 0
M  V30 839 H 79.3681 1.74859 1.86703 0
M  V30 840 H 79.0121 3.26674 3.88905 0
M  V30 841 H 78.9421 1.82869 4.93829 0
M  V30 842 H 81.4331 1.68327 3.38341 0
M  V30 843 H 81.7461 3.9908 6.61782 0
M  V30 844 H 80.0911 3.58308 5.95517 0
M  V30 845 H 83.2821 2.16014 4.15278 0
M  V30 846 H 83.4551 3.21219 5.62781 0
M  V30 847 N 76.8612 -1.46375 0.584142 0
M  V30 848 C 77.8082 -2.30323 -0.148286 0
M  V30 849 C 78.7782 -1.40703 -0.882713 0
M  V30 850 O 79.9632 -1.69651 -0.873099 0
M  V30 851 C 77.1032 -3.25196 -1.15507 0
M  V30 852 C 76.2162 -4.29915 -0.423943 0
M  V30 853 C 75.3512 -5.11914 -1.41838 0
M  V30 854 C 74.3902 -6.08381 -0.673736 0
M  V30 855 N 73.5272 -6.83242 -1.6163 0
M  V30 856 H 78.3672 -2.92427 0.573644 0
M  V30 857 H 75.9042 -1.44118 0.294703 0
M  V30 858 H 77.8622 -3.78646 -1.75166 0
M  V30 859 H 76.4922 -2.64898 -1.8447 0
M  V30 860 H 75.5442 -3.7931 0.287714 0
M  V30 861 H 76.8562 -4.98549 0.158128 0
M  V30 862 H 76.0102 -5.69648 -2.08773 0
M  V30 863 H 74.7492 -4.43243 -2.03438 0
M  V30 864 H 73.7542 -5.49799 0.00938483 0
M  V30 865 H 74.9792 -6.79071 -0.0631082 0
M  V30 866 H 72.9252 -6.1728 -2.22038 0
M  V30 867 H 72.8422 -7.48144 -1.08707 0
M  V30 868 H 74.1102 -7.45534 -2.27596 0
M  V30 869 N 78.3393 -0.321999 -1.54275 0
M  V30 870 C 79.2863 0.544664 -2.24281 0
M  V30 871 C 80.2563 1.1129 -1.23303 0
M  V30 872 O 81.4413 1.15354 -1.51981 0
M  V30 873 C 78.5813 1.70045 -3.00298 0
M  V30 874 C 77.6943 1.16159 -4.1609 0
M  V30 875 C 76.8293 2.28293 -4.79641 0
M  V30 876 C 75.8683 1.71648 -5.8754 0
M  V30 877 N 75.0053 2.77438 -6.44959 0
M  V30 878 H 79.8453 -0.0588907 -2.97942 0
M  V30 879 H 77.3823 -0.0408345 -1.47043 0
M  V30 880 H 79.3403 2.38054 -3.42616 0
M  V30 881 H 77.9703 2.27531 -2.28975 0
M  V30 882 H 77.0223 0.373092 -3.78566 0
M  V30 883 H 78.3343 0.707087 -4.93763 0
M  V30 884 H 77.4883 3.0421 -5.2492 0
M  V30 885 H 76.2273 2.77079 -4.01346 0
M  V30 886 H 75.2323 0.942282 -5.41665 0
M  V30 887 H 76.4573 1.23741 -6.67731 0
M  V30 888 H 74.4033 3.25519 -5.69538 0
M  V30 889 H 74.3203 2.36547 -7.1804 0
M  V30 890 H 75.5883 3.53189 -6.94894 0
M  V30 891 N 79.8174 1.5752 -0.0501392 0
M  V30 892 C 81.0944 1.83996 0.663685 0
M  V30 893 C 81.4744 0.938339 1.89099 0
M  V30 894 O 80.8224 -0.00087759 2.285 0
M  V30 895 C 81.0324 3.33702 1.02196 0
M  V30 896 C 82.3804 4.00691 1.40469 0
M  V30 897 O 83.4044 3.38321 1.11433 0
M  V30 898 O 82.2634 5.10658 1.94654 0
M  V30 899 H 79.3574 0.759385 0.32751 0
M  V30 900 H 81.9034 1.69514 -0.0794238 0
M  V30 901 H 80.6754 3.91015 0.149364 0
M  V30 902 H 80.2984 3.53368 1.82255 0
M  V30 903 N 81.2955 -0.223234 1.56011 0
M  V30 904 C 82.2425 -1.27664 1.92277 0
M  V30 905 C 83.2125 -1.46659 0.779763 0
M  V30 906 O 84.3975 -1.60256 1.03551 0
M  V30 907 C 81.5375 -2.62234 2.24338 0
M  V30 908 C 80.6505 -2.51051 3.51564 0
M  V30 909 C 79.7855 -3.78133 3.7308 0
M  V30 910 C 78.8245 -3.61665 4.93827 0
M  V30 911 N 77.9615 -4.80693 5.11741 0
M  V30 912 H 82.8015 -0.960358 2.82101 0
M  V30 913 H 80.3385 -0.462901 1.39627 0
M  V30 914 H 82.2965 -3.40596 2.40936 0
M  V30 915 H 80.9265 -2.91961 1.3769 0
M  V30 916 H 79.9785 -1.64132 3.43169 0
M  V30 917 H 81.2905 -2.34803 4.40079 0
M  V30 918 H 80.4445 -4.64938 3.89766 0
M  V30 919 H 79.1835 -3.97304 2.82844 0
M  V30 920 H 78.1885 -2.73244 4.77093 0
M  V30 921 H 79.4135 -3.43966 5.85546 0
M  V30 922 H 77.3595 -5.00181 4.24446 0
M  V30 923 H 77.2765 -4.67165 5.94384 0
M  V30 924 H 78.5445 -5.6893 5.3286 0
M  V30 925 N 82.7736 -1.49793 -0.48987 0
M  V30 926 C 84.1896 -1.36803 -0.822022 0
M  V30 927 C 84.3896 -0.409652 -1.97292 0
M  V30 928 O 83.4456 0.154614 -2.52026 0
M  V30 929 C 84.7586 -2.77768 -1.15175 0
M  V30 930 C 86.3066 -2.86549 -1.25931 0
M  V30 931 C 86.7816 -4.28306 -1.62228 0
M  V30 932 N 88.2726 -4.31169 -1.69256 0
M  V30 933 C 89.0076 -5.37832 -1.98807 0
M  V30 934 N 88.5036 -6.54726 -2.26507 0
M  V30 935 N 90.2966 -5.25258 -2.00152 0
M  V30 936 H 82.4476 -2.10691 0.268881 0
M  V30 937 H 84.7106 -0.946241 0.057728 0
M  V30 938 H 84.4166 -3.49648 -0.379335 0
M  V30 939 H 84.2906 -3.13836 -2.09253 0
M  V30 940 H 86.6776 -2.14899 -2.02243 0
M  V30 941 H 86.7586 -2.54049 -0.298776 0
M  V30 942 H 86.4026 -5.00486 -0.864622 0
M  V30 943 H 86.3326 -4.58279 -2.594 0
M  V30 944 H 88.8236 -3.4687 -1.49965 0
M  V30 945 H 89.1366 -7.31833 -2.48276 0
M  V30 946 H 87.4816 -6.57933 -2.23939 0
M  V30 947 H 90.6726 -4.32938 -1.77996 0
M  V30 948 H 90.8456 -6.08476 -2.22848 0
M  V30 949 N 84.2517 0.741722 -1.39055 0
M  V30 950 C 85.4817 1.52876 -1.3897 0
M  V30 951 C 85.8897 1.8919 0.0193266 0
M  V30 952 O 85.2327 1.54138 0.999356 0
M  V30 953 C 85.2947 2.84929 -2.19216 0
M  V30 954 C 84.9587 2.71086 -3.67915 0
M  V30 955 C 85.9557 2.40084 -4.61146 0
M  V30 956 C 83.6407 2.88168 -4.11418 0
M  V30 957 C 85.6347 2.26335 -5.95862 0
M  V30 958 C 83.3217 2.74037 -5.46211 0
M  V30 959 C 84.3197 2.43166 -6.38247 0
M  V30 960 O 84.0077 2.29115 -7.70559 0
M  V30 961 H 83.7397 0.479252 -0.476753 0
M  V30 962 H 86.2937 0.924751 -1.83405 0
M  V30 963 H 84.5237 3.47564 -1.69518 0
M  V30 964 H 86.2127 3.46509 -2.11392 0
M  V30 965 H 86.9787 2.26545 -4.28838 0
M  V30 966 H 82.8577 3.11191 -3.40119 0
M  V30 967 H 86.4017 2.0216 -6.67665 0
M  V30 968 H 82.2987 2.87153 -5.78112 0
M  V30 969 H 83.0667 2.44237 -7.81211 0
M  V30 970 N 85.7298 1.2412 0.971189 0
M  V30 971 C 86.9758 1.08041 1.71625 0
M  V30 972 C 87.3088 -0.380407 1.90438 0
M  V30 973 O 86.5838 -1.28127 1.46334 0
M  V30 974 C 86.8668 1.81682 3.10908 0
M  V30 975 C 86.7198 3.35493 2.99608 0
M  V30 976 C 88.0388 1.58671 4.10501 0
M  V30 977 H 85.1578 0.39388 0.622919 0
M  V30 978 H 87.7998 1.52743 1.13003 0
M  V30 979 H 85.9498 1.43684 3.60953 0
M  V30 980 H 87.6218 3.83068 2.57015 0
M  V30 981 H 85.8648 3.64052 2.35899 0
M  V30 982 H 86.5358 3.82217 3.98264 0
M  V30 983 H 89.0118 1.91719 3.69301 0
M  V30 984 H 87.8878 2.1266 5.06031 0
M  V30 985 H 88.1488 0.524161 4.38982 0
M  V30 986 N 87.2079 -1.17134 1.05439 0
M  V30 987 C 88.6189 -1.69084 0.791676 0
M  V30 988 C 88.9699 -1.83822 -0.685839 0
M  V30 989 O 88.0949 -1.52757 -1.53278 0
M  V30 990 C 88.6899 -3.07119 1.4305 0
M  V30 991 C 87.2489 -3.56225 1.21577 0
M  V30 992 C 86.3959 -2.32421 1.51247 0
M  V30 993 H 89.3469 -1.01617 1.219 0
M  V30 994 H 89.3679 -3.71087 0.84112 0
M  V30 995 H 88.8799 -2.9636 2.50584 0
M  V30 996 H 86.9809 -3.72257 0.159787 0
M  V30 997 H 87.0939 -4.38837 1.92246 0
M  V30 998 H 85.4579 -2.3701 0.932653 0
M  V30 999 H 86.2409 -2.24268 2.5992 0
M  V30 1000 N 88.686 -0.835752 -1.33615 0
M  V30 1001 C 89.934 -0.429109 -1.97492 0
M  V30 1002 C 90.255 1.01433 -1.66543 0
M  V30 1003 O 89.525 1.70611 -0.962744 0
M  V30 1004 H 88.105 -0.155686 -0.730596 0
M  V30 1005 H 90.767 -1.06802 -1.63031 0
M  V30 1006 H 89.863 -0.55861 -3.0706 0
M  V30 1007 N 90.1641 1.46063 -0.591896 0
M  V30 1008 C 91.3941 2.06418 -0.0867676 0
M  V30 1009 C 91.8021 1.43975 1.22751 0
M  V30 1010 O 91.1451 0.542531 1.75506 0
M  V30 1011 C 91.2071 3.59213 0.143725 0
M  V30 1012 C 90.8711 4.439 -1.08635 0
M  V30 1013 C 91.8681 4.79864 -2.00067 0
M  V30 1014 C 89.5531 4.84896 -1.31077 0
M  V30 1015 C 91.5471 5.55661 -3.12282 0
M  V30 1016 C 89.2341 5.6045 -2.43596 0
M  V30 1017 C 90.2321 5.95747 -3.34027 0
M  V30 1018 O 89.9201 6.69772 -4.4459 0
M  V30 1019 H 89.6521 0.673443 -0.0587447 0
M  V30 1020 H 92.2061 1.88539 -0.814994 0
M  V30 1021 H 90.4361 3.75433 0.926668 0
M  V30 1022 H 92.1251 4.01463 0.5985 0
M  V30 1023 H 92.8911 4.48763 -1.83947 0
M  V30 1024 H 88.7701 4.56867 -0.61594 0
M  V30 1025 H 92.3141 5.8313 -3.82891 0
M  V30 1026 H 88.2111 5.90965 -2.59674 0
M  V30 1027 H 88.9791 6.88207 -4.43073 0
M  V30 1028 N 91.6422 0.330177 1.54103 0
M  V30 1029 C 92.5892 -0.532762 2.24567 0
M  V30 1030 C 93.5592 -1.10635 1.23892 0
M  V30 1031 O 94.7442 -1.14546 1.5259 0
M  V30 1032 C 91.8842 -1.6845 3.01195 0
M  V30 1033 C 90.9972 -1.13951 4.167 0
M  V30 1034 C 90.1322 -2.25746 4.80845 0
M  V30 1035 C 89.1712 -1.6853 5.88442 0
M  V30 1036 N 88.3082 -2.74014 6.46421 0
M  V30 1037 H 93.1482 0.0746905 2.97906 0
M  V30 1038 H 90.6852 0.048632 1.4702 0
M  V30 1039 H 92.6432 -2.36234 3.43874 0
M  V30 1040 H 91.2732 -2.26314 2.30178 0
M  V30 1041 H 90.3252 -0.35301 3.78758 0
M  V30 1042 H 91.6372 -0.680892 4.94131 0
M  V30 1043 H 90.7912 -3.01422 5.26526 0
M  V30 1044 H 89.5302 -2.74947 4.0281 0
M  V30 1045 H 88.5352 -0.913543 5.42157 0
M  V30 1046 H 89.7602 -1.20198 6.68378 0
M  V30 1047 H 87.7062 -3.22494 5.71256 0
M  V30 1048 H 87.6232 -2.32735 7.19285 0
M  V30 1049 H 88.8912 -3.49499 6.96757 0
M  V30 1050 N 93.1203 -1.57491 0.0584922 0
M  V30 1051 C 94.0503 -2.14988 -0.911178 0
M  V30 1052 C 95.0313 -1.07343 -1.31952 0
M  V30 1053 O 96.2163 -1.35318 -1.39294 0
M  V30 1054 C 93.3463 -2.70078 -2.18347 0
M  V30 1055 C 92.3003 -3.82771 -1.91495 0
M  V30 1056 C 91.6263 -4.24408 -3.25241 0
M  V30 1057 C 92.9263 -5.07592 -1.23075 0
M  V30 1058 H 94.6203 -2.96263 -0.432246 0
M  V30 1059 H 92.1663 -1.42512 -0.206469 0
M  V30 1060 H 94.1193 -3.08943 -2.86587 0
M  V30 1061 H 92.8433 -1.86005 -2.68458 0
M  V30 1062 H 91.5023 -3.44389 -1.25664 0
M  V30 1063 H 91.1503 -3.37275 -3.73168 0
M  V30 1064 H 90.8503 -5.00366 -3.08071 0
M  V30 1065 H 92.3743 -4.65879 -3.94701 0
M  V30 1066 H 93.7883 -5.43857 -1.81362 0
M  V30 1067 H 92.1853 -5.88741 -1.16207 0
M  V30 1068 H 93.2553 -4.84454 -0.207847 0
M  V30 1069 N 94.5984 0.214957 -1.56127 0
M  V30 1070 C 95.8474 0.936451 -1.78643 0
M  V30 1071 C 96.1604 1.85237 -0.628229 0
M  V30 1072 O 97.3664 2.613 -0.737186 0
M  V30 1073 C 95.8224 1.7154 -3.16389 0
M  V30 1074 C 95.4304 0.845299 -4.39953 0
M  V30 1075 C 97.1744 2.42772 -3.48227 0
M  V30 1076 C 95.0814 1.62198 -5.68723 0
M  V30 1077 H 94.0114 0.353401 -0.666051 0
M  V30 1078 H 96.6624 0.190169 -1.82512 0
M  V30 1079 H 95.0444 2.50484 -3.06715 0
M  V30 1080 H 96.2184 0.0959353 -4.607 0
M  V30 1081 H 94.5334 0.244789 -4.1568 0
M  V30 1082 H 97.1304 3.01394 -4.41663 0
M  V30 1083 H 97.4734 3.15984 -2.71035 0
M  V30 1084 H 98.0064 1.70813 -3.5926 0
M  V30 1085 H 94.7454 0.933011 -6.48826 0
M  V30 1086 H 94.2654 2.34579 -5.52026 0
M  V30 1087 H 95.9444 2.18095 -6.09133 0
M  V30 1088 N 96.0765 1.50051 0.48192 0
M  V30 1089 C 96.9865 1.7089 1.60728 0
M  V30 1090 C 98.0025 0.591788 1.63627 0
M  V30 1091 O 99.1785 0.868817 1.81696 0
M  V30 1092 C 96.2435 1.78855 2.97005 0
M  V30 1093 C 95.3045 3.02537 3.04581 0
M  V30 1094 C 94.5375 3.10112 4.34357 0
M  V30 1095 O 94.7605 2.24765 5.24249 0
M  V30 1096 O 93.6945 4.02747 4.47301 0
M  V30 1097 H 97.5205 2.66264 1.46072 0
M  V30 1098 H 95.1055 1.34018 0.660264 0
M  V30 1099 H 96.9875 1.86336 3.77964 0
M  V30 1100 H 95.6625 0.866628 3.11883 0
M  V30 1101 H 94.5695 3.00563 2.22739 0
M  V30 1102 H 95.9025 3.94272 2.94636 0
M  V30 1103 N 97.5546 -0.734337 1.39446 0
M  V30 1104 C 98.7846 -1.52137 1.39778 0
M  V30 1105 C 99.1926 -1.89198 -0.00929312 0
M  V30 1106 O 98.5356 -1.54666 -0.991168 0
M  V30 1107 C 98.5976 -2.83762 2.20724 0
M  V30 1108 C 98.2616 -2.69131 3.69347 0
M  V30 1109 C 99.2586 -2.37635 4.62413 0
M  V30 1110 C 96.9436 -2.85982 4.1294 0
M  V30 1111 C 98.9376 -2.23172 5.97054 0
M  V30 1112 C 96.6246 -2.71137 5.47657 0
M  V30 1113 C 97.6226 -2.39777 6.39528 0
M  V30 1114 O 97.3106 -2.25026 7.71763 0
M  V30 1115 H 97.0426 -0.476717 0.479288 0
M  V30 1116 H 99.5966 -0.915012 1.83893 0
M  V30 1117 H 97.8266 -3.4666 1.71359 0
M  V30 1118 H 99.5156 -3.45383 2.13226 0
M  V30 1119 H 100.282 -2.24267 4.30034 0
M  V30 1120 H 96.1606 -3.09383 3.41765 0
M  V30 1121 H 99.7046 -1.98617 6.68728 0
M  V30 1122 H 95.6016 -2.84083 5.79626 0
M  V30 1123 H 96.3696 -2.40091 7.82495 0
M  V30 1124 N 99.0327 -1.24633 -0.964593 0
M  V30 1125 C 100.281 -1.08573 -1.70459 0
M  V30 1126 C 100.602 0.375655 -1.91347 0
M  V30 1127 O 99.8717 1.26779 -1.49345 0
M  V30 1128 H 98.4517 -0.398784 -0.631649 0
M  V30 1129 H 101.114 -1.56601 -1.16026 0
M  V30 1130 H 100.21 -1.58623 -2.68785 0
M  V30 1131 N 100.511 1.16574 -1.06058 0
M  V30 1132 C 101.736 1.91493 -0.796562 0
M  V30 1133 C 102.161 1.76773 0.642868 0
M  V30 1134 O 101.519 1.09142 1.44768 0
M  V30 1135 C 101.567 3.40293 -1.19303 0
M  V30 1136 O 100.671 4.11074 -0.330394 0
M  V30 1137 H 100.012 0.596678 -0.291326 0
M  V30 1138 H 102.542 1.47708 -1.41575 0
M  V30 1139 H 102.552 3.91057 -1.16356 0
M  V30 1140 H 101.227 3.50326 -2.24153 0
M  V30 1141 H 99.8038 3.70513 -0.421225 0
M  V30 1142 N 101.989 0.842826 1.3317 0
M  V30 1143 C 103.236 0.440447 1.97652 0
M  V30 1144 C 103.564 -1.00123 1.6675 0
M  V30 1145 O 102.819 -1.7155 0.941761 0
M  V30 1146 C 103.118 0.612607 3.52111 0
M  V30 1147 C 102.784 2.02297 4.02972 0
M  V30 1148 C 101.446 2.40874 4.16573 0
M  V30 1149 C 103.798 2.94402 4.30089 0
M  V30 1150 C 101.126 3.70852 4.54627 0
M  V30 1151 C 103.478 4.23865 4.69597 0
M  V30 1152 C 102.142 4.62392 4.81404 0
M  V30 1153 H 101.412 0.161171 0.72326 0
M  V30 1154 H 104.059 1.07061 1.58777 0
M  V30 1155 H 102.364 -0.100849 3.9167 0
M  V30 1156 H 104.061 0.2815 4.00011 0
M  V30 1157 H 100.651 1.71338 3.92863 0
M  V30 1158 H 104.835 2.65835 4.19101 0
M  V30 1159 H 100.091 4.00501 4.61962 0
M  V30 1160 H 104.265 4.95306 4.89536 0
M  V30 1161 H 101.892 5.63154 5.10648 0
M  V30 1162 N 103.467 -1.45747 0.599634 0
M  V30 1163 C 104.713 -2.02592 0.0918643 0
M  V30 1164 C 105.046 -1.46806 -1.27128 0
M  V30 1165 O 104.321 -0.639658 -1.83681 0
M  V30 1166 C 104.604 -3.60073 0.0443398 0
M  V30 1167 C 104.457 -4.26208 1.43759 0
M  V30 1168 C 105.776 -4.35309 -0.647608 0
M  V30 1169 H 102.895 -0.736175 0.034857 0
M  V30 1170 H 105.537 -1.73694 0.770081 0
M  V30 1171 H 103.687 -3.84823 -0.533224 0
M  V30 1172 H 105.359 -4.12668 2.06162 0
M  V30 1173 H 103.602 -3.84916 2.00056 0
M  V30 1174 H 104.273 -5.35069 1.35665 0
M  V30 1175 H 106.749 -4.15805 -0.156776 0
M  V30 1176 H 105.625 -5.45038 -0.649942 0
M  V30 1177 H 105.886 -4.07598 -1.71219 0
M  V30 1178 N 104.945 -0.338344 -1.53925 0
M  V30 1179 C 105.875 0.51328 -2.27789 0
M  V30 1180 C 106.856 1.107 -1.29149 0
M  V30 1181 O 108.041 1.12937 -1.57984 0
M  V30 1182 C 105.171 1.66697 -3.04679 0
M  V30 1183 C 104.125 1.20183 -4.1078 0
M  V30 1184 C 103.451 2.44363 -4.75595 0
M  V30 1185 C 104.751 0.30605 -5.21403 0
M  V30 1186 H 106.445 -0.102883 -2.99223 0
M  V30 1187 H 103.991 -0.0509219 -1.4391 0
M  V30 1188 H 105.944 2.26915 -3.55088 0
M  V30 1189 H 104.668 2.30995 -2.30887 0
M  V30 1190 H 103.327 0.622499 -3.61276 0
M  V30 1191 H 102.975 3.07057 -3.98403 0
M  V30 1192 H 102.675 2.13925 -5.47275 0
M  V30 1193 H 104.199 3.05317 -5.28786 0
M  V30 1194 H 105.613 0.814929 -5.67478 0
M  V30 1195 H 104.01 0.0937929 -6.00027 0
M  V30 1196 H 105.08 -0.65921 -4.80398 0
M  V30 1197 N 106.423 1.57458 -0.0668435 0
M  V30 1198 C 107.839 1.56947 0.289772 0
M  V30 1199 C 108.039 1.07584 1.70376 0
M  V30 1200 O 107.095 0.739486 2.41429 0
M  V30 1201 C 108.408 3.0052 0.103943 0
M  V30 1202 C 109.956 3.12517 0.173857 0
M  V30 1203 C 110.431 4.57997 0.0163682 0
M  V30 1204 N 111.922 4.63144 0.0721352 0
M  V30 1205 C 112.657 5.73394 -0.0253794 0
M  V30 1206 N 112.153 6.92576 -0.176133 0
M  V30 1207 N 113.946 5.62091 0.0313305 0
M  V30 1208 H 106.097 1.87863 -0.991027 0
M  V30 1209 H 108.36 0.86583 -0.38606 0
M  V30 1210 H 108.066 3.40729 -0.871572 0
M  V30 1211 H 107.94 3.67304 0.858366 0
M  V30 1212 H 110.327 2.72197 1.13985 0
M  V30 1213 H 110.408 2.48381 -0.611586 0
M  V30 1214 H 110.052 4.99005 -0.946374 0
M  V30 1215 H 109.982 5.20158 0.821153 0
M  V30 1216 H 112.473 3.77436 0.187263 0
M  V30 1217 H 112.786 7.72418 -0.242821 0
M  V30 1218 H 111.131 6.94678 -0.211429 0
M  V30 1219 H 114.322 4.67867 0.147773 0
M  V30 1220 H 114.495 6.47982 -0.048121 0
M  V30 1221 N 107.901 -0.206675 1.56239 0
M  V30 1222 C 109.317 -0.557025 1.49564 0
M  V30 1223 C 109.517 -1.86424 0.764735 0
M  V30 1224 O 108.573 -2.50584 0.310491 0
M  V30 1225 C 109.886 -0.622478 2.94186 0
M  V30 1226 C 111.434 -0.712099 3.04792 0
M  V30 1227 C 111.909 -0.808767 4.50803 0
M  V30 1228 N 113.4 -0.8726 4.54907 0
M  V30 1229 C 114.135 -0.967365 5.65181 0
M  V30 1230 N 113.631 -1.02515 6.85173 0
M  V30 1231 N 115.424 -1.00366 5.53067 0
M  V30 1232 H 107.575 0.650943 2.02179 0
M  V30 1233 H 109.838 0.230387 0.919579 0
M  V30 1234 H 109.544 0.268727 3.50672 0
M  V30 1235 H 109.418 -1.4811 3.46905 0
M  V30 1236 H 111.805 -1.59374 2.48363 0
M  V30 1237 H 111.886 0.172489 2.55218 0
M  V30 1238 H 111.53 0.0684754 5.07854 0
M  V30 1239 H 111.46 -1.70899 4.98098 0
M  V30 1240 H 113.951 -0.837657 3.68499 0
M  V30 1241 H 114.264 -1.09765 7.64965 0
M  V30 1242 H 112.609 -0.994026 6.87855 0
M  V30 1243 H 115.8 -0.95527 4.58249 0
M  V30 1244 H 115.973 -1.07405 6.39037 0
M  V30 1245 N 109.379 -1.50304 -0.473955 0
M  V30 1246 C 110.626 -1.6115 -1.22625 0
M  V30 1247 C 110.954 -0.310517 -1.92005 0
M  V30 1248 O 110.209 0.703419 -1.82621 0
M  V30 1249 C 110.508 -2.73938 -2.29549 0
M  V30 1250 C 110.174 -4.14519 -1.7744 0
M  V30 1251 C 108.836 -4.5277 -1.62949 0
M  V30 1252 C 111.188 -5.02392 -1.3875 0
M  V30 1253 C 108.516 -5.76639 -1.08187 0
M  V30 1254 C 110.868 -6.26805 -0.854309 0
M  V30 1255 C 109.532 -6.63861 -0.696011 0
M  V30 1256 H 108.802 -0.589691 -0.448715 0
M  V30 1257 H 111.449 -1.84228 -0.522705 0
M  V30 1258 H 109.754 -2.44937 -3.05799 0
M  V30 1259 H 111.451 -2.79534 -2.87509 0
M  V30 1260 H 108.041 -3.8434 -1.89685 0
M  V30 1261 H 112.225 -4.73474 -1.4878 0
M  V30 1262 H 107.481 -6.04027 -0.946666 0
M  V30 1263 H 111.655 -6.94258 -0.545843 0
M  V30 1264 H 109.282 -7.59722 -0.26952 0
M  V30 1265 N 110.857 0.726932 -1.39834 0
M  V30 1266 C 111.805 1.86235 -1.39353 0
M  V30 1267 C 112.799 1.67144 -0.275555 0
M  V30 1268 O 114.005 1.74387 -0.44601 0
M  V30 1269 H 110.38 0.613174 -0.43534 0
M  V30 1270 H 112.351 1.83756 -2.35109 0
M  V30 1271 C 111.1 3.23995 -1.26185 0
M  V30 1272 H 110.423 3.39285 -2.11484 0
M  V30 1273 H 111.863 4.03609 -1.29907 0
M  V30 1274 C 110.322 3.36888 0.0290018 0
M  V30 1275 O 110.852 3.89152 0.99619 0
M  V30 1276 N 109.058 2.90446 0.0947437 0
M  V30 1277 H 108.605 2.48102 -0.693035 0
M  V30 1278 H 108.563 2.99451 0.957932 0
M  V30 1279 N 112.336 1.25143 0.95797 0
M  V30 1280 C 113.585 1.0909 1.69654 0
M  V30 1281 C 113.898 -0.368548 1.92097 0
M  V30 1282 O 115.104 -0.649455 2.63618 0
M  V30 1283 C 113.56 1.90395 3.05414 0
M  V30 1284 C 113.168 3.4081 2.90779 0
M  V30 1285 C 114.912 1.82901 3.83076 0
M  V30 1286 C 112.819 4.14423 4.21909 0
M  V30 1287 H 111.749 0.404625 0.636235 0
M  V30 1288 H 114.4 1.4931 1.06672 0
M  V30 1289 H 112.782 1.42996 3.69281 0
M  V30 1290 H 113.956 3.95859 2.35865 0
M  V30 1291 H 112.271 3.49361 2.26575 0
M  V30 1292 H 114.868 2.35196 4.80195 0
M  V30 1293 H 115.211 0.796224 4.08615 0
M  V30 1294 H 115.744 2.28033 3.25954 0
M  V30 1295 H 112.483 5.18102 4.01561 0
M  V30 1296 H 112.003 3.64159 4.76601 0
M  V30 1297 H 113.682 4.21956 4.90471 0
M  V30 1298 N 113.814 -1.1601 1.06675 0
M  V30 1299 C 115.23 -1.38622 0.790948 0
M  V30 1300 C 115.43 -1.92109 -0.607965 0
M  V30 1301 O 114.486 -2.12239 -1.36787 0
M  V30 1302 C 115.799 -2.36347 1.85905 0
M  V30 1303 C 117.347 -2.50023 1.88301 0
M  V30 1304 C 117.822 -3.51033 2.94176 0
M  V30 1305 N 119.313 -3.58563 2.93235 0
M  V30 1306 C 120.048 -4.36521 3.71803 0
M  V30 1307 N 119.544 -5.17869 4.602 0
M  V30 1308 N 121.337 -4.31541 3.60178 0
M  V30 1309 H 113.488 -0.796294 1.96908 0
M  V30 1310 H 115.751 -0.412597 0.853503 0
M  V30 1311 H 115.457 -2.04147 2.86386 0
M  V30 1312 H 115.331 -3.36042 1.71334 0
M  V30 1313 H 117.718 -2.81524 0.884769 0
M  V30 1314 H 117.799 -1.5035 2.06951 0
M  V30 1315 H 117.443 -3.20268 3.94196 0
M  V30 1316 H 117.373 -4.50445 2.72776 0
M  V30 1317 H 119.864 -3.00496 2.29152 0
M  V30 1318 H 120.177 -5.74578 5.16797 0
M  V30 1319 H 118.522 -5.17199 4.64253 0
M  V30 1320 H 121.713 -3.67051 2.90502 0
M  V30 1321 H 121.886 -4.9205 4.21653 0
M  V30 1322 N 115.292 -0.849877 -1.32721 0
M  V30 1323 C 116.569 -0.372405 -1.92022 0
M  V30 1324 C 116.949 1.1435 -1.77447 0
M  V30 1325 O 116.297 1.96296 -1.16962 0
M  V30 1326 C 116.507 -0.831482 -3.3895 0
M  V30 1327 C 117.855 -0.845882 -4.16089 0
M  V30 1328 O 118.879 -0.775806 -3.47649 0
M  V30 1329 O 117.738 -0.943753 -5.38289 0
M  V30 1330 H 114.832 -0.107667 -0.819961 0
M  V30 1331 H 117.378 -0.93646 -1.41522 0
M  V30 1332 H 116.15 -1.87448 -3.4348 0
M  V30 1333 H 115.773 -0.24461 -3.96847 0
M  V30 1334 N 116.77 1.45427 -0.607355 0
M  V30 1335 C 118.019 2.01452 -0.100036 0
M  V30 1336 C 118.332 1.48159 1.27704 0
M  V30 1337 O 119.538 1.96159 1.87707 0
M  V30 1338 C 117.994 3.59672 -0.128158 0
M  V30 1339 C 117.602 4.21962 -1.50507 0
M  V30 1340 C 119.346 4.23262 0.323932 0
M  V30 1341 C 117.253 5.72333 -1.48959 0
M  V30 1342 H 116.183 0.75325 -0.0336299 0
M  V30 1343 H 118.834 1.66901 -0.76265 0
M  V30 1344 H 117.216 3.91411 0.601105 0
M  V30 1345 H 118.39 4.01796 -2.25602 0
M  V30 1346 H 116.705 3.70565 -1.89923 0
M  V30 1347 H 119.302 5.33522 0.354691 0
M  V30 1348 H 119.645 3.93921 1.34656 0
M  V30 1349 H 120.178 3.96239 -0.352056 0
M  V30 1350 H 116.917 6.06373 -2.48981 0
M  V30 1351 H 116.437 5.94691 -0.781214 0
M  V30 1352 H 118.116 6.35525 -1.21313 0
M  V30 1353 N 118.248 0.346503 1.53744 0
M  V30 1354 C 119.211 -0.496439 2.23759 0
M  V30 1355 C 120.211 -1.0252 1.2388 0
M  V30 1356 O 121.401 -0.913974 1.48297 0
M  V30 1357 C 118.533 -1.69187 2.95954 0
M  V30 1358 H 119.726 0.115952 2.99676 0
M  V30 1359 H 117.279 0.0978939 1.55993 0
M  V30 1360 H 118.014 -2.34288 2.24231 0
M  V30 1361 H 117.799 -1.31989 3.69217 0
M  V30 1362 H 119.289 -2.28969 3.49232 0
M  V30 1363 N 119.726 -1.57421 0.075193 0
M  V30 1364 C 120.676 -2.09441 -0.901025 0
M  V30 1365 C 121.66 -1.00486 -1.25663 0
M  V30 1366 O 122.852 -1.2679 -1.23504 0
M  V30 1367 C 119.981 -2.66233 -2.16737 0
M  V30 1368 C 119.067 -3.82198 -1.83808 0
M  V30 1369 N 119.458 -4.91028 -1.21345 0
M  V30 1370 C 117.756 -3.91558 -2.13538 0
M  V30 1371 C 118.457 -5.71852 -1.06585 0
M  V30 1372 N 117.433 -5.20233 -1.57667 0
M  V30 1373 H 121.235 -2.90972 -0.413815 0
M  V30 1374 H 118.749 -1.6189 -0.128601 0
M  V30 1375 H 120.746 -3.01819 -2.87595 0
M  V30 1376 H 119.406 -1.8615 -2.66042 0
M  V30 1377 H 120.417 -5.10323 -0.88268 0
M  V30 1378 H 117.094 -3.22454 -2.65197 0
M  V30 1379 H 118.484 -6.69401 -0.578933 0
M  V30 1380 N 121.204 0.198386 -1.56346 0
M  V30 1381 C 122.481 0.944982 -1.71258 0
M  V30 1382 C 122.861 2.0151 -0.629048 0
M  V30 1383 O 122.209 2.25639 0.360473 0
M  V30 1384 C 122.419 1.5344 -3.1346 0
M  V30 1385 C 123.767 2.01778 -3.73591 0
M  V30 1386 O 124.791 1.63288 -3.16568 0
M  V30 1387 O 123.65 2.72594 -4.73661 0
M  V30 1388 H 120.744 0.442939 -0.69838 0
M  V30 1389 H 123.29 0.188342 -1.68652 0
M  V30 1390 H 122.062 0.762869 -3.83792 0
M  V30 1391 H 121.685 2.35596 -3.20282 0
M  V30 1392 N 122.682 1.50554 0.465978 0
M  V30 1393 C 123.632 1.66177 1.56106 0
M  V30 1394 C 124.616 0.516265 1.52393 0
M  V30 1395 O 125.808 0.770906 1.5933 0
M  V30 1396 C 122.937 1.76396 2.94515 0
M  V30 1397 C 122.023 2.9664 3.03093 0
M  V30 1398 N 122.414 4.20245 2.81474 0
M  V30 1399 C 120.712 2.95304 3.34233 0
M  V30 1400 C 121.413 5.01259 2.95151 0
M  V30 1401 N 120.389 4.35318 3.25576 0
M  V30 1402 H 124.191 2.59434 1.38099 0
M  V30 1403 H 121.705 1.47808 0.6728 0
M  V30 1404 H 123.702 1.85694 3.73261 0
M  V30 1405 H 122.362 0.843017 3.13565 0
M  V30 1406 H 123.373 4.4966 2.56956 0
M  V30 1407 H 120.05 2.12729 3.59239 0
M  V30 1408 H 121.44 6.09564 2.82632 0
M  V30 1409 N 124.16 -0.719506 1.40217 0
M  V30 1410 C 125.09 -1.8465 1.42922 0
M  V30 1411 C 126.071 -1.67599 0.29062 0
M  V30 1412 O 127.256 -1.87688 0.498677 0
M  V30 1413 C 124.386 -3.22565 1.28722 0
M  V30 1414 C 123.34 -3.54281 2.40144 0
M  V30 1415 C 122.666 -4.91298 2.11023 0
M  V30 1416 C 123.966 -3.55676 3.82481 0
M  V30 1417 H 125.66 -1.82644 2.37237 0
M  V30 1418 H 123.206 -0.877305 1.1419 0
M  V30 1419 H 125.159 -4.01095 1.29232 0
M  V30 1420 H 123.883 -3.25137 0.308811 0
M  V30 1421 H 122.542 -2.78088 2.38877 0
M  V30 1422 H 122.19 -4.90468 1.11582 0
M  V30 1423 H 121.89 -5.13485 2.8567 0
M  V30 1424 H 123.414 -5.72166 2.13209 0
M  V30 1425 H 124.828 -4.24254 3.85592 0
M  V30 1426 H 123.225 -3.89388 4.56614 0
M  V30 1427 H 124.295 -2.55144 4.12346 0
M  V30 1428 N 125.638 -1.25649 -0.95132 0
M  V30 1429 C 126.884 -1.10757 -1.69884 0
M  V30 1430 C 127.217 0.350061 -1.91019 0
M  V30 1431 O 126.492 1.25783 -1.48354 0
M  V30 1432 C 126.775 -1.86606 -3.07978 0
M  V30 1433 C 126.628 -3.40217 -2.94232 0
M  V30 1434 C 127.947 -1.65182 -4.07925 0
M  V30 1435 H 125.066 -0.40374 -0.616574 0
M  V30 1436 H 127.708 -1.54521 -1.10558 0
M  V30 1437 H 125.858 -1.49409 -3.58621 0
M  V30 1438 H 127.53 -3.87108 -2.50889 0
M  V30 1439 H 125.773 -3.67759 -2.30078 0
M  V30 1440 H 126.444 -3.88505 -3.92133 0
M  V30 1441 H 128.92 -1.9757 -3.66204 0
M  V30 1442 H 127.796 -2.20683 -5.02583 0
M  V30 1443 H 128.057 -0.593933 -4.38092 0
M  V30 1444 N 127.117 1.15442 -1.07289 0
M  V30 1445 C 128.394 1.82306 -0.708792 0
M  V30 1446 C 128.774 1.94991 0.808807 0
M  V30 1447 O 128.122 1.50085 1.72298 0
M  V30 1448 C 128.332 3.18695 -1.42247 0
M  V30 1449 C 129.68 3.94341 -1.57417 0
M  V30 1450 O 130.704 3.28247 -1.38319 0
M  V30 1451 O 129.563 5.12839 -1.88834 0
M  V30 1452 H 126.657 0.787628 -0.252132 0
M  V30 1453 H 129.203 1.22559 -1.17377 0
M  V30 1454 H 127.975 3.04557 -2.45684 0
M  V30 1455 H 127.598 3.86128 -0.948223 0
M  V30 1456 N 128.595 0.856903 1.32268 0
M  V30 1457 C 129.844 0.457599 1.96441 0
M  V30 1458 C 130.157 -0.992426 1.68553 0
M  V30 1459 O 131.363 -1.49727 2.26482 0
M  V30 1460 C 129.819 0.767358 3.51624 0
M  V30 1461 C 129.427 2.23326 3.88367 0
M  V30 1462 C 131.171 0.435887 4.22256 0
M  V30 1463 C 129.078 2.48613 5.36606 0
M  V30 1464 H 128.008 0.167387 0.735185 0
M  V30 1465 H 130.659 1.048 1.5063 0
M  V30 1466 H 129.041 0.106367 3.95857 0
M  V30 1467 H 130.215 2.93623 3.55137 0
M  V30 1468 H 128.53 2.52948 3.30766 0
M  V30 1469 H 131.127 0.602202 5.31298 0
M  V30 1470 H 131.47 -0.622672 4.11617 0
M  V30 1471 H 132.003 1.05286 3.83614 0
M  V30 1472 H 128.742 3.53101 5.52268 0
M  V30 1473 H 128.262 1.82896 5.71235 0
M  V30 1474 H 129.941 2.32676 6.03714 0
M  V30 1475 N 130.073 -1.45103 0.615059 0
M  V30 1476 C 131.006 -2.27717 -0.148408 0
M  V30 1477 C 131.984 -1.37584 -0.866572 0
M  V30 1478 O 133.168 -1.67017 -0.87393 0
M  V30 1479 C 130.295 -3.16136 -1.21557 0
M  V30 1480 C 129.341 -4.22263 -0.599712 0
M  V30 1481 S 130.174 -5.3215 0.598081 0
M  V30 1482 C 131.33 -6.24137 -0.469484 0
M  V30 1483 H 131.563 -2.92121 0.552483 0
M  V30 1484 H 129.096 -1.49054 0.402778 0
M  V30 1485 H 131.054 -3.67633 -1.82638 0
M  V30 1486 H 129.715 -2.50982 -1.88857 0
M  V30 1487 H 128.908 -4.84081 -1.4029 0
M  V30 1488 H 128.51 -3.73945 -0.063876 0
M  V30 1489 H 130.802 -6.63984 -1.34652 0
M  V30 1490 H 131.745 -7.0801 0.112725 0
M  V30 1491 H 132.153 -5.58971 -0.788168 0
M  V30 1492 N 131.551 -0.354651 -1.53558 0
M  V30 1493 C 132.498 0.496968 -2.25386 0
M  V30 1494 C 133.468 1.0865 -1.25636 0
M  V30 1495 O 134.653 1.12104 -1.54394 0
M  V30 1496 C 131.793 1.63637 -3.03837 0
M  V30 1497 C 130.906 1.07307 -4.18461 0
M  V30 1498 C 130.041 2.18068 -4.84376 0
M  V30 1499 C 129.08 1.59147 -5.91049 0
M  V30 1500 N 128.217 2.63695 -6.50699 0
M  V30 1501 H 133.057 -0.122075 -2.9775 0
M  V30 1502 H 130.594 -0.0720154 -1.46924 0
M  V30 1503 H 132.552 2.30734 -3.47589 0
M  V30 1504 H 131.182 2.22623 -2.33749 0
M  V30 1505 H 130.234 0.292708 -3.79272 0
M  V30 1506 H 131.546 0.602193 -4.95152 0
M  V30 1507 H 130.7 2.93007 -5.31255 0
M  V30 1508 H 129.439 2.68504 -4.07133 0
M  V30 1509 H 128.444 0.827175 -5.43542 0
M  V30 1510 H 129.669 1.09549 -6.70206 0
M  V30 1511 H 127.615 3.13365 -5.76315 0
M  V30 1512 H 127.532 2.21263 -7.22896 0
M  V30 1513 H 128.8 3.3837 -7.02229 0
M  V30 1514 N 133.029 1.57378 -0.0835403 0
M  V30 1515 C 134.445 1.57246 0.273109 0
M  V30 1516 C 134.645 1.09385 1.69225 0
M  V30 1517 O 133.701 0.765051 2.40631 0
M  V30 1518 C 135.014 3.00614 0.0720628 0
M  V30 1519 C 136.562 3.12684 0.1407 0
M  V30 1520 C 137.037 4.57989 -0.0322094 0
M  V30 1521 N 138.528 4.63194 0.0230085 0
M  V30 1522 C 139.263 5.73335 -0.0861941 0
M  V30 1523 N 138.759 6.9235 -0.24958 0
M  V30 1524 N 140.552 5.62093 -0.0282886 0
M  V30 1525 H 132.703 1.86801 -1.0109 0
M  V30 1526 H 134.966 0.861687 -0.395222 0
M  V30 1527 H 134.672 3.39786 -0.907662 0
M  V30 1528 H 134.546 3.68193 0.81936 0
M  V30 1529 H 136.933 2.73391 1.11092 0
M  V30 1530 H 137.014 2.47719 -0.637896 0
M  V30 1531 H 136.658 4.97973 -0.999247 0
M  V30 1532 H 136.588 5.21 0.765937 0
M  V30 1533 H 139.079 3.77613 0.14722 0
M  V30 1534 H 139.392 7.72117 -0.324733 0
M  V30 1535 H 137.737 6.94415 -0.285097 0
M  V30 1536 H 140.928 4.67997 0.0981408 0
M  V30 1537 H 141.101 6.47895 -0.116845 0
M  V30 1538 N 134.507 -0.190092 1.56449 0
M  V30 1539 C 135.735 -0.925772 1.85033 0
M  V30 1540 C 136.15 -1.76638 0.666658 0
M  V30 1541 O 135.507 -1.78822 -0.364565 0
M  V30 1542 C 135.558 -1.81786 3.12468 0
M  V30 1543 O 135.279 -1.01118 4.26271 0
M  V30 1544 C 136.78 -2.6648 3.54265 0
M  V30 1545 H 134 -0.269872 0.614337 0
M  V30 1546 H 136.544 -0.195837 2.0356 0
M  V30 1547 H 134.699 -2.50136 2.95822 0
M  V30 1548 H 135.113 -1.61956 4.98869 0
M  V30 1549 H 136.587 -3.24722 4.46385 0
M  V30 1550 H 137.064 -3.40434 2.77491 0
M  V30 1551 H 137.67 -2.03493 3.73458 0
M  V30 1552 N 135.985 -1.50799 -0.457987 0
M  V30 1553 C 137.233 -1.62121 -1.2067 0
M  V30 1554 C 137.554 -0.329793 -1.92191 0
M  V30 1555 O 136.824 0.653409 -1.84682 0
M  V30 1556 H 135.404 -0.597441 -0.448411 0
M  V30 1557 H 138.066 -1.87637 -0.527096 0
M  V30 1558 H 137.162 -2.43882 -1.94751 0
M  V30 1559 N 137.463 0.71206 -1.40597 0
M  V30 1560 C 138.373 1.8562 -1.43466 0
M  V30 1561 C 139.389 1.70902 -0.326902 0
M  V30 1562 O 140.565 1.93105 -0.572043 0
M  V30 1563 C 137.63 3.21451 -1.29884 0
M  V30 1564 C 136.691 3.48398 -2.50833 0
M  V30 1565 C 135.924 4.77749 -2.3789 0
M  V30 1566 O 136.147 5.53089 -1.39459 0
M  V30 1567 O 135.081 5.05111 -3.27333 0
M  V30 1568 H 138.907 1.86155 -2.39958 0
M  V30 1569 H 136.492 0.86295 -1.21957 0
M  V30 1570 H 138.374 4.02579 -1.24531 0
M  V30 1571 H 137.049 3.21636 -0.364997 0
M  V30 1572 H 135.956 2.67265 -2.61763 0
M  V30 1573 H 137.289 3.53014 -3.4299 0
M  V30 1574 N 138.941 1.26152 0.944643 0
M  V30 1575 C 140.169 1.14259 1.72489 0
M  V30 1576 C 140.584 -0.302555 1.8636 0
M  V30 1577 O 139.941 -1.20741 1.36849 0
M  V30 1578 C 139.992 1.80266 3.13347 0
M  V30 1579 O 139.713 3.19133 3.00143 0
M  V30 1580 C 141.214 1.74283 4.07603 0
M  V30 1581 H 138.434 0.398051 0.540181 0
M  V30 1582 H 140.978 1.66706 1.18446 0
M  V30 1583 H 139.133 1.31766 3.64303 0
M  V30 1584 H 139.547 3.51744 3.89071 0
M  V30 1585 H 141.021 2.25111 5.04013 0
M  V30 1586 H 141.498 0.708631 4.33446 0
M  V30 1587 H 142.104 2.22319 3.62567 0
M  V30 1588 N 140.419 -1.14872 1.07899 0
M  V30 1589 C 141.665 -1.86064 0.806725 0
M  V30 1590 C 141.998 -1.82434 -0.665706 0
M  V30 1591 O 141.273 -1.25138 -1.48899 0
M  V30 1592 C 141.556 -3.34929 1.32267 0
M  V30 1593 C 141.409 -3.47161 2.86006 0
M  V30 1594 C 142.728 -4.29863 0.943717 0
M  V30 1595 H 139.847 -0.675591 0.294526 0
M  V30 1596 H 142.489 -1.34925 1.33773 0
M  V30 1597 H 140.639 -3.78611 0.870974 0
M  V30 1598 H 142.311 -3.12302 3.39507 0
M  V30 1599 H 140.554 -2.88539 3.23925 0
M  V30 1600 H 141.225 -4.51777 3.17177 0
M  V30 1601 H 143.701 -3.9417 1.33302 0
M  V30 1602 H 142.577 -5.32494 1.33198 0
M  V30 1603 H 142.838 -4.41846 -0.149796 0
M  V30 1604 N 141.898 -0.863906 -1.31812 0
M  V30 1605 C 142.848 -0.286898 -2.26188 0
M  V30 1606 C 143.832 0.572577 -1.50367 0
M  V30 1607 O 145.024 0.420447 -1.71934 0
M  V30 1608 C 142.153 0.515849 -3.39402 0
M  V30 1609 C 141.239 -0.356531 -4.22599 0
M  V30 1610 N 141.63 -1.44716 -4.84656 0
M  V30 1611 C 139.928 -0.147898 -4.45755 0
M  V30 1612 C 140.629 -1.98462 -5.46798 0
M  V30 1613 N 139.605 -1.28247 -5.28255 0
M  V30 1614 H 143.407 -1.12055 -2.717 0
M  V30 1615 H 140.921 -0.711012 -1.46008 0
M  V30 1616 H 142.918 0.945701 -4.06032 0
M  V30 1617 H 141.578 1.34718 -2.95434 0
M  V30 1618 H 142.589 -1.83008 -4.84488 0
M  V30 1619 H 139.266 0.647973 -4.12441 0
M  V30 1620 H 140.656 -2.89932 -6.06126 0
M  V30 1621 N 143.376 1.44774 -0.622745 0
M  V30 1622 C 144.306 2.33382 0.0741861 0
M  V30 1623 C 145.287 1.47719 0.843387 0
M  V30 1624 O 146.472 1.76458 0.810934 0
M  V30 1625 C 143.602 3.30663 1.06204 0
M  V30 1626 C 142.556 4.26079 0.405037 0
M  V30 1627 C 141.882 5.13165 1.5022 0
M  V30 1628 C 143.182 5.1781 -0.683414 0
M  V30 1629 H 144.876 2.91905 -0.665713 0
M  V30 1630 H 142.422 1.40363 -0.321587 0
M  V30 1631 H 144.375 3.9153 1.55827 0
M  V30 1632 H 143.099 2.70331 1.83272 0
M  V30 1633 H 141.758 3.66532 -0.0704683 0
M  V30 1634 H 141.406 4.49191 2.26355 0
M  V30 1635 H 141.106 5.77812 1.06803 0
M  V30 1636 H 142.63 5.76902 2.00041 0
M  V30 1637 H 144.044 5.72661 -0.270631 0
M  V30 1638 H 142.441 5.91015 -1.04023 0
M  V30 1639 H 143.511 4.59326 -1.55395 0
M  V30 1640 N 144.854 0.36279 1.53368 0
M  V30 1641 C 146.103 -0.22888 2.00397 0
M  V30 1642 C 146.416 -1.50096 1.25421 0
M  V30 1643 O 147.622 -2.17106 1.63025 0
M  V30 1644 C 146.078 -0.458417 3.56969 0
M  V30 1645 C 145.686 0.798877 4.4082 0
M  V30 1646 C 147.43 -1.00789 4.12361 0
M  V30 1647 C 145.337 0.539078 5.88938 0
M  V30 1648 H 144.267 -0.089305 0.748693 0
M  V30 1649 H 146.918 0.481099 1.77081 0
M  V30 1650 H 145.3 -1.22959 3.76427 0
M  V30 1651 H 146.474 1.57262 4.33134 0
M  V30 1652 H 144.789 1.27137 3.96516 0
M  V30 1653 H 147.386 -1.21754 5.20653 0
M  V30 1654 H 147.729 -1.9692 3.66781 0
M  V30 1655 H 148.262 -0.296961 3.9669 0
M  V30 1656 H 145.001 1.47064 6.3879 0
M  V30 1657 H 144.521 -0.196222 5.99479 0
M  V30 1658 H 146.2 0.163542 6.46793 0
M  V30 1659 N 146.332 -1.57332 0.0918853 0
M  V30 1660 C 147.262 -2.16872 -0.865371 0
M  V30 1661 C 148.243 -1.10118 -1.29646 0
M  V30 1662 O 149.428 -1.38242 -1.36392 0
M  V30 1663 C 146.558 -2.74649 -2.12569 0
M  V30 1664 C 145.512 -3.86747 -1.83333 0
M  V30 1665 C 144.838 -4.31212 -3.16166 0
M  V30 1666 C 146.138 -5.10089 -1.1228 0
M  V30 1667 H 147.832 -2.97114 -0.369307 0
M  V30 1668 H 145.378 -1.42918 -0.176194 0
M  V30 1669 H 147.331 -3.14952 -2.7997 0
M  V30 1670 H 146.055 -1.91657 -2.64452 0
M  V30 1671 H 144.714 -3.46978 -1.18331 0
M  V30 1672 H 144.362 -3.45115 -3.6593 0
M  V30 1673 H 144.062 -5.06788 -2.97388 0
M  V30 1674 H 145.586 -4.74146 -3.84731 0
M  V30 1675 H 147 -5.47582 -1.69785 0
M  V30 1676 H 145.397 -5.91073 -1.03693 0
M  V30 1677 H 146.467 -4.84786 -0.105041 0
M  V30 1678 N 147.81 0.181792 -1.56548 0
M  V30 1679 C 148.757 1.22521 -1.95595 0
M  V30 1680 C 149.727 1.4454 -0.818373 0
M  V30 1681 O 150.912 1.57454 -1.07763 0
M  V30 1682 C 148.052 2.56193 -2.31212 0
M  V30 1683 C 147.165 2.41641 -3.58097 0
M  V30 1684 C 146.3 3.68108 -3.82975 0
M  V30 1685 C 145.339 3.48445 -5.03242 0
M  V30 1686 N 144.476 4.66956 -5.24306 0
M  V30 1687 H 149.316 0.885226 -2.84548 0
M  V30 1688 H 146.853 0.425718 -1.40805 0
M  V30 1689 H 148.811 3.34088 -2.49882 0
M  V30 1690 H 147.441 2.88208 -1.45382 0
M  V30 1691 H 146.493 1.54976 -3.474 0
M  V30 1692 H 147.805 2.23052 -4.46149 0
M  V30 1693 H 146.959 4.54441 -4.01956 0
M  V30 1694 H 145.698 3.89666 -2.93278 0
M  V30 1695 H 144.703 2.60499 -4.8417 0
M  V30 1696 H 145.928 3.2832 -5.9446 0
M  V30 1697 H 143.874 4.88752 -4.37559 0
M  V30 1698 H 143.791 4.51242 -6.06561 0
M  V30 1699 H 145.059 5.54602 -5.47756 0
M  V30 1700 N 149.288 1.51039 0.449983 0
M  V30 1701 C 150.565 1.53612 1.21089 0
M  V30 1702 C 150.945 0.292997 2.09057 0
M  V30 1703 O 150.293 -0.72259 2.16774 0
M  V30 1704 C 150.503 2.84337 2.0237 0
M  V30 1705 C 151.851 3.35807 2.59843 0
M  V30 1706 O 152.875 2.85802 2.12593 0
M  V30 1707 O 151.734 4.23029 3.45989 0
M  V30 1708 H 148.828 0.617057 0.550608 0
M  V30 1709 H 151.374 1.63344 0.460082 0
M  V30 1710 H 150.146 3.66278 1.37681 0
M  V30 1711 H 149.769 2.77708 2.84542 0
M  V30 1712 N 150.766 -0.704594 1.40972 0
M  V30 1713 C 152.014 -1.46169 1.39568 0
M  V30 1714 C 152.335 -1.95 0.00253745 0
M  V30 1715 O 151.605 -1.71095 -0.954114 0
M  V30 1716 H 150.185 -0.542326 0.513704 0
M  V30 1717 H 152.847 -0.834553 1.76128 0
M  V30 1718 H 151.943 -2.32922 2.07735 0
M  V30 1719 N 152.244 -1.26651 -0.937939 0
M  V30 1720 C 153.491 -1.12387 -1.6845 0
M  V30 1721 C 153.819 0.332208 -1.91642 0
M  V30 1722 O 153.074 1.2602 -1.49725 0
M  V30 1723 C 153.373 -1.84168 -3.06295 0
M  V30 1724 C 153.039 -3.34056 -3.02849 0
M  V30 1725 C 151.701 -3.74942 -3.01616 0
M  V30 1726 C 154.053 -4.29741 -2.9491 0
M  V30 1727 C 151.381 -5.09894 -2.90215 0
M  V30 1728 C 153.733 -5.64738 -2.8505 0
M  V30 1729 C 152.397 -6.0493 -2.82162 0
M  V30 1730 H 151.667 -0.411252 -0.616403 0
M  V30 1731 H 154.314 -1.57134 -1.09459 0
M  V30 1732 H 152.619 -1.319 -3.6893 0
M  V30 1733 H 154.316 -1.70569 -3.62915 0
M  V30 1734 H 150.906 -3.01534 -3.0459 0
M  V30 1735 H 155.09 -3.99133 -2.94969 0
M  V30 1736 H 150.346 -5.40194 -2.86358 0
M  V30 1737 H 154.52 -6.38561 -2.77872 0
M  V30 1738 H 152.147 -7.09457 -2.73084 0
M  V30 1739 N 153.722 1.14298 -1.08507 0
M  V30 1740 C 154.632 2.23027 -0.727753 0
M  V30 1741 C 155.648 1.71952 0.26619 0
M  V30 1742 O 156.824 2.011 0.109882 0
M  V30 1743 C 153.889 3.46403 -0.143541 0
M  V30 1744 C 152.95 4.12413 -1.19223 0
M  V30 1745 C 152.183 5.29899 -0.635798 0
M  V30 1746 O 152.406 5.67796 0.544393 0
M  V30 1747 O 151.34 5.85717 -1.38634 0
M  V30 1748 H 155.166 2.55945 -1.63481 0
M  V30 1749 H 152.751 1.22248 -0.858817 0
M  V30 1750 H 154.633 4.21018 0.179404 0
M  V30 1751 H 153.308 3.15206 0.736659 0
M  V30 1752 H 152.215 3.39667 -1.56772 0
M  V30 1753 H 153.548 4.47718 -2.04474 0
M  V30 1754 N 155.201 0.870884 1.31352 0
M  V30 1755 C 156.449 0.48132 1.96285 0
M  V30 1756 C 156.77 -0.969813 1.69173 0
M  V30 1757 O 156.04 -1.67998 1.00764 0
M  V30 1758 H 154.62 0.175002 0.726212 0
M  V30 1759 H 157.282 1.11087 1.60143 0
M  V30 1760 H 156.378 0.639825 3.05471 0
M  V30 1761 N 156.679 -1.44442 0.630414 0
M  V30 1762 C 157.925 -2.02351 0.134816 0
M  V30 1763 C 158.258 -1.4947 -1.23986 0
M  V30 1764 O 157.533 -0.678475 -1.82283 0
M  V30 1765 C 157.816 -3.59898 0.120707 0
M  V30 1766 C 157.669 -4.23063 1.52767 0
M  V30 1767 C 158.988 -4.36585 -0.555127 0
M  V30 1768 H 156.107 -0.73527 0.0504646 0
M  V30 1769 H 158.749 -1.72022 0.806751 0
M  V30 1770 H 156.899 -3.85868 -0.451477 0
M  V30 1771 H 158.571 -4.08202 2.14869 0
M  V30 1772 H 156.814 -3.80586 2.08175 0
M  V30 1773 H 157.485 -5.32071 1.46984 0
M  V30 1774 H 159.961 -4.16044 -0.0685429 0
M  V30 1775 H 158.837 -5.46294 -0.534185 0
M  V30 1776 H 159.098 -4.11138 -1.62535 0
M  V30 1777 N 158.157 -0.370918 -1.53173 0
M  V30 1778 C 159.387 0.217389 -2.05453 0
M  V30 1779 C 159.795 1.42568 -1.24382 0
M  V30 1780 O 159.138 1.81571 -0.278839 0
M  V30 1781 C 159.2 0.669827 -3.53205 0
M  V30 1782 C 158.864 -0.4225 -4.55043 0
M  V30 1783 C 159.861 -1.27407 -5.04047 0
M  V30 1784 C 157.546 -0.58427 -4.9889 0
M  V30 1785 C 159.54 -2.27271 -5.95505 0
M  V30 1786 C 157.227 -1.58627 -5.90153 0
M  V30 1787 C 158.225 -2.42892 -6.38351 0
M  V30 1788 O 157.913 -3.41382 -7.27814 0
M  V30 1789 H 157.645 0.0408171 -0.674767 0
M  V30 1790 H 160.199 -0.5292 -1.98466 0
M  V30 1791 H 158.429 1.4681 -3.57748 0
M  V30 1792 H 160.118 1.18173 -3.88317 0
M  V30 1793 H 160.884 -1.16031 -4.70916 0
M  V30 1794 H 156.763 0.061851 -4.60959 0
M  V30 1795 H 160.307 -2.93079 -6.33049 0
M  V30 1796 H 156.204 -1.70048 -6.22699 0
M  V30 1797 H 156.972 -3.37173 -7.45826 0
M  V30 1798 N 159.635 1.57281 -0.100228 0
M  V30 1799 C 160.884 1.93713 0.561984 0
M  V30 1800 C 161.197 0.984492 1.69018 0
M  V30 1801 O 162.403 1.24273 2.41389 0
M  V30 1802 C 160.859 3.4421 1.05106 0
M  V30 1803 C 160.467 4.47975 -0.0476628 0
M  V30 1804 C 162.211 3.89595 1.68571 0
M  V30 1805 C 160.118 5.89631 0.457055 0
M  V30 1806 H 159.048 0.723082 0.2137 0
M  V30 1807 H 161.699 1.82644 -0.177057 0
M  V30 1808 H 160.081 3.50449 1.84395 0
M  V30 1809 H 161.255 4.53385 -0.823333 0
M  V30 1810 H 159.57 4.1223 -0.587816 0
M  V30 1811 H 162.167 4.92832 2.07414 0
M  V30 1812 H 162.51 3.28526 2.55688 0
M  V30 1813 H 163.043 3.86078 0.958562 0
M  V30 1814 H 159.782 6.54411 -0.377616 0
M  V30 1815 H 159.302 5.87681 1.19962 0
M  V30 1816 H 160.981 6.40363 0.92437 0
M  V30 1817 N 161.113 -0.173488 1.56642 0
M  V30 1818 C 162.39 -0.917617 1.7274 0
M  V30 1819 C 162.77 -2.00484 0.661027 0
M  V30 1820 O 162.118 -2.26184 -0.32453 0
M  V30 1821 C 162.328 -1.48433 3.15862 0
M  V30 1822 C 163.676 -1.95809 3.76754 0
M  V30 1823 O 164.7 -1.58231 3.19126 0
M  V30 1824 O 163.559 -2.65024 4.77938 0
M  V30 1825 H 160.653 -0.431772 0.705338 0
M  V30 1826 H 163.199 -0.161487 1.6893 0
M  V30 1827 H 161.971 -0.701715 3.84957 0
M  V30 1828 H 161.594 -2.30471 3.23989 0
M  V30 1829 N 162.591 -1.51276 -0.441967 0
M  V30 1830 C 163.538 -1.72256 -1.53612 0
M  V30 1831 C 164.508 -0.564164 -1.56225 0
M  V30 1832 O 165.693 -0.798074 -1.73307 0
M  V30 1833 C 162.833 -1.84932 -2.91366 0
M  V30 1834 C 161.946 -3.12459 -2.98317 0
M  V30 1835 C 161.081 -3.15758 -4.27166 0
M  V30 1836 C 160.12 -4.37619 -4.27967 0
M  V30 1837 N 159.257 -4.38493 -5.48333 0
M  V30 1838 H 164.097 -2.65654 -1.35026 0
M  V30 1839 H 161.634 -1.31662 -0.656009 0
M  V30 1840 H 163.592 -1.90263 -3.7129 0
M  V30 1841 H 162.222 -0.949461 -3.08521 0
M  V30 1842 H 161.274 -3.1646 -2.11086 0
M  V30 1843 H 162.586 -4.02382 -2.94771 0
M  V30 1844 H 161.74 -3.19979 -5.15459 0
M  V30 1845 H 160.479 -2.23715 -4.33362 0
M  V30 1846 H 159.484 -4.33579 -3.38067 0
M  V30 1847 H 160.709 -5.30921 -4.23438 0
M  V30 1848 H 158.655 -3.49318 -5.55259 0
M  V30 1849 H 158.572 -5.22219 -5.46647 0
M  V30 1850 H 159.84 -4.469 -6.38671 0
M  V30 1851 N 164.069 0.697108 -1.41344 0
M  V30 1852 C 165.315 1.4593 -1.40827 0
M  V30 1853 C 165.648 1.94193 -0.0167098 0
M  V30 1854 O 164.923 1.69425 0.955263 0
M  V30 1855 C 165.206 2.67229 -2.41373 0
M  V30 1856 C 165.059 2.24741 -3.8963 0
M  V30 1857 C 166.378 3.69423 -2.39196 0
M  V30 1858 H 163.497 0.529303 -0.512842 0
M  V30 1859 H 166.139 0.794112 -1.72609 0
M  V30 1860 H 164.289 3.23982 -2.14401 0
M  V30 1861 H 165.961 1.73327 -4.27499 0
M  V30 1862 H 164.204 1.56542 -4.0457 0
M  V30 1863 H 164.875 3.1177 -4.55525 0
M  V30 1864 H 167.351 3.2234 -2.63128 0
M  V30 1865 H 166.227 4.51907 -3.11563 0
M  V30 1866 H 166.488 4.19012 -1.41001 0
M  V30 1867 N 165.547 1.27147 0.931209 0
M  V30 1868 C 166.457 1.11372 2.06478 0
M  V30 1869 C 167.473 0.044645 1.73943 0
M  V30 1870 O 168.649 0.250417 1.99837 0
M  V30 1871 C 165.714 0.758838 3.38294 0
M  V30 1872 C 164.775 1.90841 3.84549 0
M  V30 1873 C 164.008 1.57036 5.10074 0
M  V30 1874 O 164.231 0.476645 5.68405 0
M  V30 1875 O 163.165 2.40839 5.51616 0
M  V30 1876 H 166.991 2.06493 2.22698 0
M  V30 1877 H 164.576 1.06301 1.04978 0
M  V30 1878 H 166.458 0.574098 4.17471 0
M  V30 1879 H 165.133 -0.162879 3.2329 0
M  V30 1880 H 164.04 2.14819 3.06274 0
M  V30 1881 H 165.373 2.81021 4.04089 0
M  V30 1882 N 167.025 -1.13721 1.09112 0
M  V30 1883 C 168.273 -1.84559 0.823562 0
M  V30 1884 C 168.594 -1.83754 -0.652658 0
M  V30 1885 O 167.864 -1.29102 -1.47342 0
M  V30 1886 H 166.444 -0.683376 0.301673 0
M  V30 1887 H 169.106 -1.37771 1.37859 0
M  V30 1888 H 168.202 -2.8917 1.17419 0
M  V30 1889 N 168.503 -0.877838 -1.30888 0
M  V30 1890 C 169.413 -0.343096 -2.32078 0
M  V30 1891 C 170.429 0.551022 -1.65045 0
M  V30 1892 O 171.605 0.445854 -1.96403 0
M  V30 1893 C 168.67 0.439905 -3.43898 0
M  V30 1894 C 167.731 -0.483111 -4.26573 0
M  V30 1895 C 166.964 0.262616 -5.33053 0
M  V30 1896 O 167.187 1.48967 -5.50604 0
M  V30 1897 O 166.121 -0.383593 -6.00676 0
M  V30 1898 H 169.947 -1.18203 -2.79753 0
M  V30 1899 H 167.532 -0.64145 -1.34929 0
M  V30 1900 H 169.414 0.883504 -4.12034 0
M  V30 1901 H 168.089 1.25526 -2.98371 0
M  V30 1902 H 166.996 -0.975374 -3.61161 0
M  V30 1903 H 168.329 -1.26427 -4.75686 0
M  V30 1904 N 169.982 1.44106 -0.638065 0
M  V30 1905 C 170.914 2.28976 0.101205 0
M  V30 1906 C 171.927 1.4167 0.802088 0
M  V30 1907 O 173.116 1.65755 0.662375 0
M  V30 1908 C 170.216 3.18217 1.16581 0
M  V30 1909 C 169.389 4.33978 0.546066 0
M  V30 1910 C 168.448 5.04202 1.50554 0
M  V30 1911 O 167.474 5.59986 1.01999 0
M  V30 1912 N 168.676 5.06296 2.8398 0
M  V30 1913 H 171.441 2.93064 -0.627186 0
M  V30 1914 H 169.002 1.54629 -0.479731 0
M  V30 1915 H 170.994 3.62061 1.80815 0
M  V30 1916 H 169.564 2.55833 1.79634 0
M  V30 1917 H 168.784 3.93239 -0.275046 0
M  V30 1918 H 170.072 5.08675 0.112793 0
M  V30 1919 H 169.47 4.62319 3.26002 0
M  V30 1920 H 168.027 5.53907 3.43556 0
M  V30 1921 N 171.46 0.379036 1.52974 0
M  V30 1922 C 172.685 -0.209353 2.06341 0
M  V30 1923 C 173.11 -1.40583 1.24972 0
M  V30 1924 O 172.468 -1.79246 0.272155 0
M  V30 1925 C 172.516 -0.567786 3.56102 0
M  V30 1926 O 171.62 -1.66318 3.77375 0
M  V30 1927 H 170.961 -0.0272919 0.663439 0
M  V30 1928 H 173.491 0.543536 1.97248 0
M  V30 1929 H 173.501 -0.835003 3.99364 0
M  V30 1930 H 172.176 0.307013 4.14765 0
M  V30 1931 H 170.753 -1.39048 3.46006 0
M  V30 1932 N 172.938 -1.57226 0.108567 0
M  V30 1933 C 174.187 -1.94008 -0.551703 0
M  V30 1934 C 174.5 -0.993442 -1.68494 0
M  V30 1935 O 175.706 -1.25551 -2.40726 0
M  V30 1936 C 174.162 -3.44763 -1.03279 0
M  V30 1937 C 173.77 -4.47943 0.0714193 0
M  V30 1938 C 175.514 -3.90483 -1.66503 0
M  V30 1939 C 173.421 -5.89865 -0.425779 0
M  V30 1940 H 172.351 -0.724206 -0.209863 0
M  V30 1941 H 175.002 -1.82547 0.186741 0
M  V30 1942 H 173.384 -3.51422 -1.82533 0
M  V30 1943 H 174.558 -4.52942 0.847365 0
M  V30 1944 H 172.873 -4.11913 0.609669 0
M  V30 1945 H 175.47 -4.93925 -2.04798 0
M  V30 1946 H 175.813 -3.29877 -2.53942 0
M  V30 1947 H 176.346 -3.86581 -0.938074 0
M  V30 1948 H 173.085 -6.54202 0.412316 0
M  V30 1949 H 172.605 -5.88309 -1.16843 0
M  V30 1950 H 174.284 -6.40844 -0.890397 0
M  V30 1951 N 174.416 0.165178 -1.56732 0
M  V30 1952 C 175.827 0.727046 -1.71962 0
M  V30 1953 C 176.178 1.82508 -0.720078 0
M  V30 1954 O 175.303 2.16082 0.117242 0
M  V30 1955 C 175.898 1.32559 -3.11791 0
M  V30 1956 C 174.457 1.83422 -3.28684 0
M  V30 1957 C 173.604 0.715567 -2.67908 0
M  V30 1958 H 176.555 -0.0602896 -1.58585 0
M  V30 1959 H 176.576 2.19533 -3.10782 0
M  V30 1960 H 176.088 0.526195 -3.84516 0
M  V30 1961 H 174.189 2.65986 -2.60926 0
M  V30 1962 H 174.302 1.97543 -4.36478 0
M  V30 1963 H 172.666 1.13758 -2.27884 0
M  V30 1964 H 173.449 -0.0720836 -3.43224 0
M  V30 1965 N 175.894 1.51508 0.433938 0
M  V30 1966 C 176.827 1.67756 1.54704 0
M  V30 1967 C 177.805 0.525127 1.53887 0
M  V30 1968 O 178.989 0.749393 1.72963 0
M  V30 1969 C 176.116 1.69424 2.9328 0
M  V30 1970 C 175.162 2.90673 3.12108 0
M  V30 1971 S 175.995 4.51431 2.88046 0
M  V30 1972 C 177.151 4.55849 4.28897 0
M  V30 1973 H 177.384 2.61904 1.40689 0
M  V30 1974 H 174.917 1.41235 0.62386 0
M  V30 1975 H 176.875 1.7107 3.73156 0
M  V30 1976 H 175.536 0.764464 3.04655 0
M  V30 1977 H 174.729 2.88251 4.13434 0
M  V30 1978 H 174.331 2.86786 2.40062 0
M  V30 1979 H 176.623 4.31699 5.22152 0
M  V30 1980 H 177.566 5.57676 4.36351 0
M  V30 1981 H 177.974 3.85137 4.12711 0
M  V30 1982 N 177.372 -0.689602 1.41712 0
M  V30 1983 C 178.618 -1.45181 1.41599 0
M  V30 1984 C 178.951 -1.94181 0.0270081 0
M  V30 1985 O 178.226 -1.6993 -0.946265 0
M  V30 1986 C 178.509 -2.65945 2.42787 0
M  V30 1987 C 178.362 -2.22672 3.90816 0
M  V30 1988 C 179.681 -3.68149 2.41151 0
M  V30 1989 H 176.8 -0.526576 0.515642 0
M  V30 1990 H 179.442 -0.784947 1.73028 0
M  V30 1991 H 177.592 -3.2284 2.16116 0
M  V30 1992 H 179.264 -1.71058 4.28412 0
M  V30 1993 H 177.507 -1.54394 4.05395 0
M  V30 1994 H 178.178 -3.0935 4.57172 0
M  V30 1995 H 180.654 -3.2094 2.64834 0
M  V30 1996 H 179.53 -4.50248 3.13955 0
M  V30 1997 H 179.791 -4.18259 1.43221 0
M  V30 1998 N 178.85 -1.27639 -0.924453 0
M  V30 1999 C 180.075 -1.17101 -1.71179 0
M  V30 2000 C 180.5 0.268134 -1.86179 0
M  V30 2001 O 179.858 1.19415 -1.36418 0
M  V30 2002 C 179.906 -1.86313 -3.08739 0
M  V30 2003 O 179.01 -1.16331 -3.95652 0
M  V30 2004 H 178.351 -0.407091 -0.524569 0
M  V30 2005 H 180.881 -1.68767 -1.15666 0
M  V30 2006 H 180.891 -1.938 -3.59034 0
M  V30 2007 H 179.566 -2.91001 -2.97138 0
M  V30 2008 H 178.143 -1.16935 -3.54091 0
M  V30 2009 N 180.328 1.1314 -1.09713 0
M  V30 2010 C 181.744 1.36477 -0.827423 0
M  V30 2011 C 181.944 1.93654 0.556817 0
M  V30 2012 O 181 2.15791 1.31112 0
M  V30 2013 C 182.313 2.31334 -1.92106 0
M  V30 2014 C 183.861 2.44943 -1.94864 0
M  V30 2015 C 184.336 3.4311 -3.0338 0
M  V30 2016 N 185.827 3.50662 -3.02639 0
M  V30 2017 C 186.562 4.2651 -3.83246 0
M  V30 2018 N 186.058 5.05485 -4.73768 0
M  V30 2019 N 187.851 4.2184 -3.71493 0
M  V30 2020 H 180.002 0.743807 -1.9895 0
M  V30 2021 H 182.265 0.389823 -0.864143 0
M  V30 2022 H 181.971 1.96483 -2.91698 0
M  V30 2023 H 181.845 3.31381 -1.80184 0
M  V30 2024 H 184.232 2.79079 -0.959099 0
M  V30 2025 H 184.313 1.4481 -2.10864 0
M  V30 2026 H 183.957 3.09704 -4.02549 0
M  V30 2027 H 183.887 4.43055 -2.84622 0
M  V30 2028 H 186.378 2.94315 -2.37039 0
M  V30 2029 H 186.691 5.60675 -5.3185 0
M  V30 2030 H 185.036 5.04708 -4.77802 0
M  V30 2031 H 188.227 3.5922 -3.00131 0
M  V30 2032 H 188.4 4.80697 -4.3455 0
M  V30 2033 N 181.806 0.884767 1.30421 0
M  V30 2034 C 182.736 0.367574 2.30589 0
M  V30 2035 C 183.717 -0.549464 1.60981 0
M  V30 2036 O 184.902 -0.46336 1.88591 0
M  V30 2037 C 182.032 -0.418944 3.44764 0
M  V30 2038 C 180.986 0.406316 4.26067 0
M  V30 2039 C 180.312 -0.506793 5.32293 0
M  V30 2040 C 181.612 1.64832 4.95608 0
M  V30 2041 H 183.306 1.20462 2.74097 0
M  V30 2042 H 180.852 0.580695 1.31772 0
M  V30 2043 H 182.805 -0.791395 4.13902 0
M  V30 2044 H 181.529 -1.28964 3.0006 0
M  V30 2045 H 180.188 0.760903 3.58617 0
M  V30 2046 H 179.836 -1.37519 4.83836 0
M  V30 2047 H 179.536 0.0415828 5.87585 0
M  V30 2048 H 181.06 -0.875764 6.04287 0
M  V30 2049 H 182.474 1.34646 5.57264 0
M  V30 2050 H 180.871 2.13688 5.60765 0
M  V30 2051 H 181.941 2.39284 4.21748 0
M  V30 2052 N 183.284 -1.43765 0.645699 0
M  V30 2053 C 184.532 -2.01499 0.155731 0
M  V30 2054 C 184.853 -1.51151 -1.232 0
M  V30 2055 O 184.123 -0.721044 -1.82148 0
M  V30 2056 H 182.703 -0.745003 0.0545817 0
M  V30 2057 H 185.365 -1.76075 0.835677 0
M  V30 2058 H 184.461 -3.1181 0.134577 0
M  V30 2059 N 184.763 -0.387143 -1.52771 0
M  V30 2060 C 185.696 0.493123 -2.22808 0
M  V30 2061 C 186.674 1.0658 -1.22798 0
M  V30 2062 O 187.858 1.11785 -1.51777 0
M  V30 2063 C 184.985 1.68238 -2.93962 0
M  V30 2064 C 184.031 1.23515 -4.08223 0
M  V30 2065 S 184.864 0.21848 -5.35054 0
M  V30 2066 C 186.02 1.41357 -6.09729 0
M  V30 2067 H 186.253 -0.101625 -2.97126 0
M  V30 2068 H 183.786 -0.171323 -1.53447 0
M  V30 2069 H 185.744 2.36443 -3.35567 0
M  V30 2070 H 184.405 2.24842 -2.19328 0
M  V30 2071 H 183.598 2.12304 -4.57103 0
M  V30 2072 H 183.2 0.632044 -3.68621 0
M  V30 2073 H 185.492 2.34101 -6.3577 0
M  V30 2074 H 186.435 0.965736 -7.01484 0
M  V30 2075 H 186.843 1.6294 -5.40473 0
M  V30 2076 N 186.241 1.57166 -0.116904 0
M  V30 2077 C 187.188 2.15202 0.83408 0
M  V30 2078 C 188.158 1.07644 1.26499 0
M  V30 2079 O 189.343 1.35541 1.34288 0
M  V30 2080 C 186.483 2.75405 2.07957 0
M  V30 2081 C 185.596 3.97264 1.69721 0
M  V30 2082 C 184.731 4.45561 2.89221 0
M  V30 2083 C 183.77 5.59956 2.47215 0
M  V30 2084 N 182.907 6.03006 3.59622 0
M  V30 2085 H 187.747 2.96141 0.332335 0
M  V30 2086 H 185.284 1.46309 0.152349 0
M  V30 2087 H 187.242 3.08439 2.80929 0
M  V30 2088 H 185.872 1.97159 2.55594 0
M  V30 2089 H 184.924 3.70404 0.866316 0
M  V30 2090 H 186.236 4.80226 1.34849 0
M  V30 2091 H 185.39 4.80493 3.7042 0
M  V30 2092 H 184.129 3.61544 3.27318 0
M  V30 2093 H 183.134 5.2463 1.64448 0
M  V30 2094 H 184.359 6.45738 2.10238 0
M  V30 2095 H 182.305 5.21931 3.97396 0
M  V30 2096 H 182.222 6.80819 3.28667 0
M  V30 2097 H 183.49 6.42576 4.41267 0
M  V30 2098 N 187.719 -0.156864 1.56817 0
M  V30 2099 C 188.965 -0.872416 1.83076 0
M  V30 2100 C 189.298 -1.81261 0.697001 0
M  V30 2101 O 188.573 -1.92171 -0.30008 0
M  V30 2102 C 188.856 -1.65551 3.19789 0
M  V30 2103 C 188.709 -0.737467 4.43713 0
M  V30 2104 C 190.028 -2.62012 3.53606 0
M  V30 2105 H 187.147 -0.315715 0.665953 0
M  V30 2106 H 189.789 -0.138004 1.89498 0
M  V30 2107 H 187.939 -2.28159 3.14445 0
M  V30 2108 H 189.611 -0.123143 4.61136 0
M  V30 2109 H 187.854 -0.0464067 4.33775 0
M  V30 2110 H 188.525 -1.32122 5.35955 0
M  V30 2111 H 191.001 -2.09525 3.59497 0
M  V30 2112 H 189.877 -3.13861 4.50314 0
M  V30 2113 H 190.138 -3.42902 2.79053 0
M  V30 2114 N 189.197 -1.51736 -0.425897 0
M  V30 2115 C 190.474 -1.55519 -1.1863 0
M  V30 2116 C 190.854 -0.326219 -2.08564 0
M  V30 2117 O 190.202 0.688012 -2.17896 0
M  V30 2118 C 190.412 -2.87521 -1.9782 0
M  V30 2119 C 191.76 -3.39899 -2.54468 0
M  V30 2120 O 192.784 -2.89148 -2.08019 0
M  V30 2121 O 191.643 -4.2848 -3.39215 0
M  V30 2122 H 188.737 -0.625739 -0.540721 0
M  V30 2123 H 191.283 -1.64055 -0.434038 0
M  V30 2124 H 190.055 -3.68422 -1.31836 0
M  V30 2125 H 189.678 -2.822 -2.80088 0
M  V30 2126 N 190.675 0.682077 -1.42076 0
M  V30 2127 C 191.605 1.80796 -1.47767 0
M  V30 2128 C 192.586 1.6677 -0.334954 0
M  V30 2129 O 193.771 1.863 -0.548264 0
M  V30 2130 C 190.901 3.19038 -1.37229 0
M  V30 2131 C 189.855 3.47789 -2.49453 0
M  V30 2132 C 189.181 4.8553 -2.23975 0
M  V30 2133 C 190.481 3.45411 -3.91776 0
M  V30 2134 H 192.175 1.7629 -2.41997 0
M  V30 2135 H 189.721 0.846721 -1.16476 0
M  V30 2136 H 191.674 3.97528 -1.39821 0
M  V30 2137 H 190.398 3.24204 -0.394907 0
M  V30 2138 H 189.057 2.71657 -2.46166 0
M  V30 2139 H 188.705 4.87337 -1.24547 0
M  V30 2140 H 188.405 5.0573 -2.99184 0
M  V30 2141 H 189.929 5.66312 -2.28304 0
M  V30 2142 H 191.343 4.13882 -3.96705 0
M  V30 2143 H 189.74 3.77145 -4.66778 0
M  V30 2144 H 190.81 2.44122 -4.18966 0
M  V30 2145 N 192.153 1.28127 0.917671 0
M  V30 2146 C 193.383 1.17722 1.6978 0
M  V30 2147 C 193.791 -0.267261 1.87303 0
M  V30 2148 O 193.134 -1.19286 1.39702 0
M  V30 2149 C 193.196 1.79958 3.11216 0
M  V30 2150 C 192.86 3.29187 3.16993 0
M  V30 2151 C 193.857 4.25679 2.98485 0
M  V30 2152 C 191.542 3.70075 3.39632 0
M  V30 2153 C 193.536 5.61035 3.02521 0
M  V30 2154 C 191.223 5.05557 3.433 0
M  V30 2155 C 192.221 6.00847 3.24764 0
M  V30 2156 O 191.909 7.33859 3.28187 0
M  V30 2157 H 191.641 0.409788 0.537634 0
M  V30 2158 H 194.195 1.69694 1.15728 0
M  V30 2159 H 192.425 1.22475 3.66793 0
M  V30 2160 H 194.114 1.64125 3.71238 0
M  V30 2161 H 194.88 3.95426 2.80826 0
M  V30 2162 H 190.759 2.96373 3.53106 0
M  V30 2163 H 194.303 6.35388 2.87971 0
M  V30 2164 H 190.2 5.35462 3.60486 0
M  V30 2165 H 190.968 7.42436 3.44575 0
M  V30 2166 N 193.631 -1.12557 1.10312 0
M  V30 2167 C 194.856 -1.88405 0.867085 0
M  V30 2168 C 195.281 -1.79038 -0.576817 0
M  V30 2169 O 194.639 -1.14439 -1.40618 0
M  V30 2170 C 194.687 -3.3563 1.31851 0
M  V30 2171 O 193.791 -4.09565 0.482734 0
M  V30 2172 H 193.132 -0.585455 0.313271 0
M  V30 2173 H 195.662 -1.42352 1.4696 0
M  V30 2174 H 195.672 -3.86469 1.3079 0
M  V30 2175 H 194.347 -3.41765 2.37001 0
M  V30 2176 H 192.924 -3.68695 0.558448 0
M  V30 2177 N 195.109 -0.891671 -1.2995 0
M  V30 2178 C 196.337 -0.52866 -2.00032 0
M  V30 2179 C 196.752 0.884574 -1.66795 0
M  V30 2180 O 196.109 1.5827 -0.908669 0
M  V30 2181 C 196.16 -0.701814 -3.54622 0
M  V30 2182 O 195.881 -2.05942 -3.86678 0
M  V30 2183 C 197.382 -0.342683 -4.41973 0
M  V30 2184 H 194.602 -0.203659 -0.639347 0
M  V30 2185 H 197.146 -1.19881 -1.65677 0
M  V30 2186 H 195.301 -0.0789468 -3.8732 0
M  V30 2187 H 195.715 -2.08291 -4.81368 0
M  V30 2188 H 197.189 -0.514709 -5.49595 0
M  V30 2189 H 197.666 0.71975 -4.33262 0
M  V30 2190 H 198.272 -0.942154 -4.14733 0
M  V30 2191 N 196.587 1.43421 -0.653314 0
M  V30 2192 C 197.55 2.29182 0.0287951 0
M  V30 2193 C 198.55 1.42213 0.750465 0
M  V30 2194 O 199.74 1.63843 0.591701 0
M  V30 2195 C 196.872 3.24278 1.05151 0
M  V30 2196 H 198.065 2.90985 -0.725786 0
M  V30 2197 H 195.618 1.50702 -0.414545 0
M  V30 2198 H 196.353 2.6737 1.83532 0
M  V30 2199 H 196.138 3.88396 0.537687 0
M  V30 2200 H 197.628 3.88647 1.52786 0
M  V30 2201 N 198.065 0.39524 1.52563 0
M  V30 2202 C 199.29 -0.187456 2.06551 0
M  V30 2203 C 199.715 -1.39249 1.26457 0
M  V30 2204 O 199.073 -1.78947 0.291151 0
M  V30 2205 C 199.121 -0.529985 3.56684 0
M  V30 2206 O 198.225 -1.62307 3.79118 0
M  V30 2207 H 197.566 -0.0202537 0.663691 0
M  V30 2208 H 200.096 0.564426 1.96661 0
M  V30 2209 H 200.106 -0.792598 4.00227 0
M  V30 2210 H 198.781 0.350987 4.14416 0
M  V30 2211 H 197.358 -1.3537 3.47461 0
M  V30 2212 N 199.544 -1.57102 0.125237 0
M  V30 2213 C 200.792 -1.95021 -0.530198 0
M  V30 2214 C 201.113 -1.00982 -1.66816 0
M  V30 2215 O 200.383 -0.0672693 -1.95784 0
M  V30 2216 H 198.963 -0.720046 -0.198853 0
M  V30 2217 H 201.625 -1.93916 0.19564 0
M  V30 2218 H 200.721 -2.98211 -0.920681 0
M  V30 2219 N 201.022 0.148545 -1.56898 0
M  V30 2220 C 201.969 1.18345 -1.98149 0
M  V30 2221 C 202.939 1.42772 -0.848848 0
M  V30 2222 O 204.124 1.55132 -1.11079 0
M  V30 2223 C 201.264 2.51231 -2.36594 0
M  V30 2224 C 200.377 2.33991 -3.63142 0
M  V30 2225 C 199.512 3.59902 -3.90697 0
M  V30 2226 C 198.551 3.37692 -5.1052 0
M  V30 2227 N 197.688 4.5573 -5.34092 0
M  V30 2228 H 202.528 0.82467 -2.86362 0
M  V30 2229 H 200.065 0.395756 -1.41676 0
M  V30 2230 H 202.023 3.28713 -2.56912 0
M  V30 2231 H 200.653 2.85059 -1.51463 0
M  V30 2232 H 199.705 1.47572 -3.50609 0
M  V30 2233 H 201.017 2.13539 -4.5078 0
M  V30 2234 H 200.171 4.45813 -4.11505 0
M  V30 2235 H 198.91 3.83357 -3.01477 0
M  V30 2236 H 197.915 2.5017 -4.89587 0
M  V30 2237 H 199.14 3.15637 -6.0129 0
M  V30 2238 H 197.086 4.79361 -4.47827 0
M  V30 2239 H 197.003 4.38274 -6.15996 0
M  V30 2240 H 198.271 5.42858 -5.59397 0
M  V30 2241 N 202.5 1.5196 0.417844 0
M  V30 2242 C 203.725 1.69717 1.1921 0
M  V30 2243 C 204.15 0.402148 1.83751 0
M  V30 2244 O 203.508 -0.639593 1.69643 0
M  V30 2245 C 203.556 2.82794 2.2374 0
M  V30 2246 O 202.66 2.47756 3.29683 0
M  V30 2247 H 202.001 0.565263 0.348387 0
M  V30 2248 H 204.531 1.98621 0.490985 0
M  V30 2249 H 204.541 3.07452 2.68212 0
M  V30 2250 H 203.216 3.76756 1.76146 0
M  V30 2251 H 201.793 2.33739 2.90552 0
M  V30 2252 N 203.978 -0.674533 1.42435 0
M  V30 2253 C 205.227 -1.43034 1.42212 0
M  V30 2254 C 205.54 -1.95555 0.0420788 0
M  V30 2255 O 206.746 -2.71374 -0.0827558 0
M  V30 2256 C 205.202 -2.58748 2.50155 0
M  V30 2257 C 204.81 -2.12925 3.94166 0
M  V30 2258 C 206.554 -3.36257 2.59098 0
M  V30 2259 C 204.461 -3.25723 4.93618 0
M  V30 2260 H 203.391 -0.537345 0.528939 0
M  V30 2261 H 206.042 -0.73024 1.68344 0
M  V30 2262 H 204.424 -3.31128 2.17188 0
M  V30 2263 H 205.598 -1.47697 4.36488 0
M  V30 2264 H 203.913 -1.48354 3.89076 0
M  V30 2265 H 206.51 -4.20264 3.30578 0
M  V30 2266 H 206.853 -3.82866 1.63461 0
M  V30 2267 H 207.386 -2.70947 2.9126 0
M  V30 2268 H 204.125 -2.84105 5.90732 0
M  V30 2269 H 203.645 -3.89732 4.55926 0
M  V30 2270 H 205.324 -3.91186 5.15347 0
M  V30 2271 N 205.456 -1.28612 -0.910864 0
M  V30 2272 C 206.386 -1.15326 -2.03032 0
M  V30 2273 C 207.367 -0.0502924 -1.70026 0
M  V30 2274 O 208.552 -0.227797 -1.92859 0
M  V30 2275 C 205.682 -0.817343 -3.37545 0
M  V30 2276 C 204.636 -1.8754 -3.84724 0
M  V30 2277 C 203.962 -1.39305 -5.16235 0
M  V30 2278 C 205.262 -3.28244 -4.06267 0
M  V30 2279 H 206.956 -2.08975 -2.14406 0
M  V30 2280 H 204.502 -1.00612 -1.03021 0
M  V30 2281 H 206.455 -0.711151 -4.15356 0
M  V30 2282 H 205.179 0.154846 -3.26233 0
M  V30 2283 H 203.838 -1.97079 -3.09121 0
M  V30 2284 H 203.486 -0.409846 -5.01328 0
M  V30 2285 H 203.186 -2.10057 -5.48771 0
M  V30 2286 H 204.71 -1.30014 -5.96598 0
M  V30 2287 H 206.124 -3.21611 -4.74594 0
M  V30 2288 H 204.521 -3.96855 -4.5014 0
M  V30 2289 H 205.591 -3.72048 -3.10979 0
M  V30 2290 N 206.934 1.1197 -1.10907 0
M  V30 2291 C 207.897 2.16031 -0.765707 0
M  V30 2292 C 208.897 1.59393 0.212235 0
M  V30 2293 O 210.087 1.74196 -0.0115441 0
M  V30 2294 C 207.219 3.40632 -0.135053 0
M  V30 2295 H 208.412 2.47919 -1.68748 0
M  V30 2296 H 205.965 1.27061 -0.910226 0
M  V30 2297 H 206.7 3.14348 0.797218 0
M  V30 2298 H 206.485 3.8302 -0.838937 0
M  V30 2299 H 207.975 4.17505 0.0892469 0
M  V30 2300 N 208.412 0.89855 1.29475 0
M  V30 2301 C 209.659 0.523882 1.95606 0
M  V30 2302 C 209.987 -0.929608 1.70847 0
M  V30 2303 O 209.242 -1.67401 1.01367 0
M  V30 2304 C 209.541 0.761398 3.49195 0
M  V30 2305 C 209.207 2.19207 3.94029 0
M  V30 2306 C 207.869 2.58326 4.05982 0
M  V30 2307 C 210.221 3.12379 4.17216 0
M  V30 2308 C 207.549 3.898 4.38489 0
M  V30 2309 C 209.901 4.43401 4.51197 0
M  V30 2310 C 208.565 4.82394 4.61359 0
M  V30 2311 H 207.835 0.191702 0.715773 0
M  V30 2312 H 210.482 1.13699 1.54094 0
M  V30 2313 H 208.787 0.0653622 3.91745 0
M  V30 2314 H 210.484 0.450904 3.98457 0
M  V30 2315 H 207.074 1.87846 3.85242 0
M  V30 2316 H 211.258 2.83371 4.07449 0
M  V30 2317 H 206.514 4.19734 4.44559 0
M  V30 2318 H 210.688 5.15623 4.68087 0
M  V30 2319 H 208.315 5.84306 4.86303 0
M  V30 2320 N 209.89 -1.43072 0.660911 0
M  V30 2321 C 211.136 -2.0202 0.177708 0
M  V30 2322 C 211.469 -1.52066 -1.20787 0
M  V30 2323 O 210.744 -0.716987 -1.80802 0
M  V30 2324 C 211.027 -3.59561 0.197019 0
M  V30 2325 C 210.88 -4.19727 1.61706 0
M  V30 2326 C 212.199 -4.37664 -0.462396 0
M  V30 2327 H 209.318 -0.734034 0.0660494 0
M  V30 2328 H 211.96 -1.70272 0.843058 0
M  V30 2329 H 210.11 -3.86739 -0.369527 0
M  V30 2330 H 211.782 -4.03553 2.23479 0
M  V30 2331 H 210.025 -3.76084 2.16201 0
M  V30 2332 H 210.696 -5.28834 1.58237 0
M  V30 2333 H 213.172 -4.16095 0.0197215 0
M  V30 2334 H 212.048 -5.47305 -0.418188 0
M  V30 2335 H 212.309 -4.14493 -1.53778 0
M  V30 2336 N 211.368 -0.403325 -1.52352 0
M  V30 2337 C 212.779 0.0675782 -1.86578 0
M  V30 2338 C 213.13 1.44941 -1.32236 0
M  V30 2339 O 212.255 2.06112 -0.659307 0
M  V30 2340 C 212.85 0.129404 -3.38553 0
M  V30 2341 C 211.409 0.544629 -3.72439 0
M  V30 2342 C 210.556 -0.284551 -2.75836 0
M  V30 2343 H 213.507 -0.620631 -1.46061 0
M  V30 2344 H 213.528 0.94581 -3.68558 0
M  V30 2345 H 213.04 -0.87645 -3.78074 0
M  V30 2346 H 211.141 1.55734 -3.38493 0
M  V30 2347 H 211.254 0.293046 -4.78203 0
M  V30 2348 H 209.618 0.252258 -2.53448 0
M  V30 2349 H 210.401 -1.28865 -3.18196 0
M  V30 2350 N 212.846 1.57033 -0.133567 0
M  V30 2351 C 213.756 2.19632 0.824564 0
M  V30 2352 C 214.772 1.17666 1.28182 0
M  V30 2353 O 215.948 1.50193 1.3418 0
M  V30 2354 C 213.013 2.79499 2.05137 0
M  V30 2355 C 212.074 3.96548 1.64464 0
M  V30 2356 C 211.307 4.5355 2.81297 0
M  V30 2357 O 211.53 4.09438 3.97136 0
M  V30 2358 O 210.464 5.44018 2.57542 0
M  V30 2359 H 214.29 3.01991 0.321766 0
M  V30 2360 H 211.875 1.49112 0.0927889 0
M  V30 2361 H 213.757 3.17602 2.7696 0
M  V30 2362 H 212.432 2.00162 2.54395 0
M  V30 2363 H 211.339 3.63186 0.897048 0
M  V30 2364 H 212.672 4.77364 1.19934 0
M  V30 2365 N 214.325 -0.140222 1.56975 0
M  V30 2366 C 215.272 -1.17292 1.98774 0
M  V30 2367 C 216.242 -1.4232 0.856408 0
M  V30 2368 O 217.427 -1.54541 1.119 0
M  V30 2369 C 214.567 -2.49973 2.37923 0
M  V30 2370 C 213.68 -2.32062 3.64378 0
M  V30 2371 C 212.815 -3.57825 3.926 0
M  V30 2372 C 211.854 -3.3498 5.12303 0
M  V30 2373 N 210.991 -4.52891 5.36502 0
M  V30 2374 H 215.831 -0.809472 2.86795 0
M  V30 2375 H 213.368 -0.388237 1.41884 0
M  V30 2376 H 215.326 -3.27346 2.58652 0
M  V30 2377 H 213.956 -2.84252 1.52972 0
M  V30 2378 H 213.008 -1.45711 3.51387 0
M  V30 2379 H 214.32 -2.11145 4.51906 0
M  V30 2380 H 213.474 -4.43624 4.13863 0
M  V30 2381 H 212.213 -3.81753 3.03506 0
M  V30 2382 H 211.218 -2.4757 4.90906 0
M  V30 2383 H 212.443 -3.12444 6.02956 0
M  V30 2384 H 210.389 -4.76979 4.50363 0
M  V30 2385 H 210.306 -4.35001 6.18312 0
M  V30 2386 H 211.574 -5.39884 5.62268 0
M  V30 2387 N 215.803 -1.52179 -0.40978 0
M  V30 2388 C 216.713 -1.78364 -1.52392 0
M  V30 2389 C 217.729 -0.669183 -1.60617 0
M  V30 2390 O 218.905 -0.954518 -1.77344 0
M  V30 2391 C 215.97 -1.92822 -2.88133 0
M  V30 2392 C 215.031 -3.16725 -2.898 0
M  V30 2393 C 214.264 -3.30483 -4.19067 0
M  V30 2394 O 214.487 -2.49522 -5.12928 0
M  V30 2395 O 213.421 -4.2363 -4.27576 0
M  V30 2396 H 217.247 -2.72931 -1.33201 0
M  V30 2397 H 214.832 -1.37016 -0.59557 0
M  V30 2398 H 216.714 -2.04157 -3.68643 0
M  V30 2399 H 215.389 -1.01444 -3.07393 0
M  V30 2400 H 214.296 -3.10848 -2.08146 0
M  V30 2401 H 215.629 -4.07881 -2.75489 0
M  V30 2402 N 217.281 0.66697 -1.42791 0
M  V30 2403 C 218.211 1.79218 -1.49677 0
M  V30 2404 C 219.192 1.66405 -0.352623 0
M  V30 2405 O 220.377 1.85708 -0.567993 0
M  V30 2406 C 217.507 3.17565 -1.40605 0
M  V30 2407 C 216.461 3.45124 -2.53127 0
M  V30 2408 C 215.787 4.83127 -2.29112 0
M  V30 2409 C 217.087 3.41236 -3.95418 0
M  V30 2410 H 218.781 1.73713 -2.43853 0
M  V30 2411 H 216.327 0.83432 -1.17367 0
M  V30 2412 H 218.28 3.96022 -1.44029 0
M  V30 2413 H 217.004 3.23767 -0.429271 0
M  V30 2414 H 215.663 2.69031 -2.49034 0
M  V30 2415 H 215.311 4.85988 -1.29709 0
M  V30 2416 H 215.011 5.02528 -3.04531 0
M  V30 2417 H 216.535 5.63859 -2.34297 0
M  V30 2418 H 217.949 4.09651 -4.01073 0
M  V30 2419 H 216.346 3.72173 -4.70752 0
M  V30 2420 H 217.416 2.39665 -4.21532 0
M  V30 2421 N 218.759 1.29093 0.90403 0
M  V30 2422 C 219.706 1.13853 2.00764 0
M  V30 2423 C 220.676 0.0330084 1.66067 0
M  V30 2424 O 221.861 0.199733 1.89752 0
M  V30 2425 C 219.001 0.816537 3.35301 0
M  V30 2426 C 218.114 2.00206 3.82807 0
M  V30 2427 C 217.249 1.61983 5.059 0
M  V30 2428 C 216.288 2.77143 5.45764 0
M  V30 2429 N 215.425 2.39346 6.60044 0
M  V30 2430 H 220.265 2.08276 2.13132 0
M  V30 2431 H 217.802 1.03648 1.04381 0
M  V30 2432 H 219.76 0.610557 4.12708 0
M  V30 2433 H 218.39 -0.090779 3.22672 0
M  V30 2434 H 217.442 2.31988 3.01473 0
M  V30 2435 H 218.754 2.86512 4.08304 0
M  V30 2436 H 217.908 1.37649 5.90879 0
M  V30 2437 H 216.647 0.728202 4.82233 0
M  V30 2438 H 215.652 3.02165 4.59322 0
M  V30 2439 H 216.877 3.66964 5.71414 0
M  V30 2440 H 214.823 1.52665 6.37989 0
M  V30 2441 H 214.74 3.19185 6.85315 0
M  V30 2442 H 216.008 2.1832 7.48303 0
M  V30 2443 N 220.237 -1.11381 1.11499 0
M  V30 2444 C 221.147 -2.21019 0.786628 0
M  V30 2445 C 222.163 -1.72597 -0.220507 0
M  V30 2446 O 223.339 -2.01321 -0.0565251 0
M  V30 2447 C 220.404 -3.459 0.235333 0
M  V30 2448 C 219.465 -4.09107 1.30115 0
M  V30 2449 C 218.698 -5.28027 0.776068 0
M  V30 2450 O 218.921 -5.6904 -0.393661 0
M  V30 2451 O 217.855 -5.81835 1.54114 0
M  V30 2452 H 221.681 -2.51521 1.70209 0
M  V30 2453 H 219.266 -1.19928 0.890928 0
M  V30 2454 H 221.148 -4.21346 -0.067715 0
M  V30 2455 H 219.823 -3.17049 -0.652828 0
M  V30 2456 H 218.73 -3.35391 1.65722 0
M  V30 2457 H 220.063 -4.42139 2.16273 0
M  V30 2458 N 221.715 -0.905404 -1.28997 0
M  V30 2459 C 222.945 -0.549049 -1.99171 0
M  V30 2460 C 223.353 0.87203 -1.67906 0
M  V30 2461 O 222.696 1.58796 -0.923561 0
M  V30 2462 C 222.758 -0.668306 -3.53234 0
M  V30 2463 C 222.422 -2.0574 -4.08069 0
M  V30 2464 C 223.419 -3.0292 -4.22534 0
M  V30 2465 C 221.104 -2.36833 -4.42962 0
M  V30 2466 C 223.098 -4.29314 -4.71135 0
M  V30 2467 C 220.785 -3.63467 -4.91258 0
M  V30 2468 C 221.783 -4.59522 -5.053 0
M  V30 2469 O 221.471 -5.83907 -5.52546 0
M  V30 2470 H 221.203 -0.208784 -0.64295 0
M  V30 2471 H 223.757 -1.21836 -1.65363 0
M  V30 2472 H 221.987 0.0580547 -3.86656 0
M  V30 2473 H 223.676 -0.320273 -4.04634 0
M  V30 2474 H 224.442 -2.80216 -3.95859 0
M  V30 2475 H 220.321 -1.62824 -4.31288 0
M  V30 2476 H 223.865 -5.04293 -4.8201 0
M  V30 2477 H 219.762 -3.86 -5.17372 0
M  V30 2478 H 220.53 -5.86578 -5.70849 0
M  V30 2479 N 223.193 1.4272 -0.668489 0
M  V30 2480 C 224.123 2.335 -0.000100175 0
M  V30 2481 C 225.104 1.50328 0.795964 0
M  V30 2482 O 226.289 1.78949 0.754385 0
M  V30 2483 C 223.419 3.33874 0.956302 0
M  V30 2484 C 222.373 4.27152 0.269278 0
M  V30 2485 C 221.699 5.17684 1.33818 0
M  V30 2486 C 222.999 5.15373 -0.847805 0
M  V30 2487 H 224.693 2.89639 -0.758244 0
M  V30 2488 H 222.239 1.39269 -0.366079 0
M  V30 2489 H 224.192 3.9629 1.43292 0
M  V30 2490 H 222.916 2.76025 1.74579 0
M  V30 2491 H 221.575 3.66123 -0.187042 0
M  V30 2492 H 221.223 4.56165 2.1195 0
M  V30 2493 H 220.923 5.80918 0.883659 0
M  V30 2494 H 222.447 5.82974 1.81586 0
M  V30 2495 H 223.861 5.7151 -0.452681 0
M  V30 2496 H 222.258 5.87407 -1.22773 0
M  V30 2497 H 223.328 4.5415 -1.69929 0
M  V30 2498 N 224.671 0.411399 1.52136 0
M  V30 2499 C 225.618 -0.412975 2.27075 0
M  V30 2500 C 226.588 -1.03912 1.29582 0
M  V30 2501 O 227.773 -1.06296 1.58448 0
M  V30 2502 C 224.913 -1.52247 3.09701 0
M  V30 2503 C 224.026 -0.917021 4.22155 0
M  V30 2504 C 223.161 -1.9994 4.92135 0
M  V30 2505 C 222.2 -1.37101 5.96548 0
M  V30 2506 N 221.337 -2.39364 6.60038 0
M  V30 2507 H 226.177 0.232499 2.97092 0
M  V30 2508 H 223.714 0.126496 1.46555 0
M  V30 2509 H 225.672 -2.17674 3.55913 0
M  V30 2510 H 224.302 -2.13794 2.41851 0
M  V30 2511 H 223.354 -0.151742 3.80097 0
M  V30 2512 H 224.666 -0.418006 4.97045 0
M  V30 2513 H 223.82 -2.73088 5.41763 0
M  V30 2514 H 222.559 -2.53208 4.16818 0
M  V30 2515 H 221.564 -0.624873 5.46237 0
M  V30 2516 H 222.789 -0.845998 6.7381 0
M  V30 2517 H 220.735 -2.91759 5.87548 0
M  V30 2518 H 220.652 -1.9428 7.3061 0
M  V30 2519 H 221.92 -3.12074 7.14304 0
M  V30 2520 N 226.149 -1.5696 0.141893 0
M  V30 2521 C 227.398 -1.95135 -0.510427 0
M  V30 2522 C 227.711 -1.02896 -1.66348 0
M  V30 2523 O 228.917 -1.30629 -2.38009 0
M  V30 2524 C 227.373 -3.46876 -0.959427 0
M  V30 2525 C 226.981 -4.47691 0.166419 0
M  V30 2526 C 228.725 -3.93927 -1.58183 0
M  V30 2527 C 226.632 -5.90636 -0.300565 0
M  V30 2528 H 225.562 -0.728494 -0.194454 0
M  V30 2529 H 228.213 -1.8211 0.22542 0
M  V30 2530 H 226.595 -3.55215 -1.75038 0
M  V30 2531 H 227.769 -4.51043 0.94325 0
M  V30 2532 H 226.084 -4.10527 0.696905 0
M  V30 2533 H 228.681 -4.98158 -1.94275 0
M  V30 2534 H 229.024 -3.3519 -2.46888 0
M  V30 2535 H 229.557 -3.88484 -0.855863 0
M  V30 2536 H 226.296 -6.5318 0.550989 0
M  V30 2537 H 225.816 -5.90655 -1.04338 0
M  V30 2538 H 227.495 -6.42588 -0.754265 0
M  V30 2539 N 227.627 0.131896 -1.57047 0
M  V30 2540 C 228.873 0.843179 -1.84441 0
M  V30 2541 C 229.206 1.80129 -0.725749 0
M  V30 2542 O 228.481 1.92624 0.269469 0
M  V30 2543 C 228.764 1.60442 -3.22382 0
M  V30 2544 C 228.617 0.666782 -4.4483 0
M  V30 2545 C 229.936 2.56354 -3.5773 0
M  V30 2546 H 227.055 0.305081 -0.670891 0
M  V30 2547 H 229.697 0.107839 -1.89694 0
M  V30 2548 H 227.847 2.23128 -3.18035 0
M  V30 2549 H 229.519 0.0497646 -4.61273 0
M  V30 2550 H 227.762 -0.022609 -4.33794 0
M  V30 2551 H 228.433 1.23579 -5.37989 0
M  V30 2552 H 230.909 2.0378 -3.62785 0
M  V30 2553 H 229.785 3.06657 -4.5525 0
M  V30 2554 H 230.046 3.38419 -2.84473 0
M  V30 2555 N 229.106 1.52395 0.401703 0
M  V30 2556 C 230.016 1.7917 1.51444 0
M  V30 2557 C 231.032 0.677691 1.6026 0
M  V30 2558 O 232.208 0.963909 1.76835 0
M  V30 2559 C 229.273 1.94347 2.87107 0
M  V30 2560 C 228.334 3.18257 2.88116 0
M  V30 2561 C 227.567 3.32701 4.17308 0
M  V30 2562 O 227.79 2.52238 5.11598 0
M  V30 2563 O 226.724 4.25891 4.25324 0
M  V30 2564 H 230.55 2.73633 1.31752 0
M  V30 2565 H 228.135 1.3733 0.588296 0
M  V30 2566 H 230.017 2.06109 3.67555 0
M  V30 2567 H 228.692 1.03073 3.06851 0
M  V30 2568 H 227.599 3.11947 2.06494 0
M  V30 2569 H 228.932 4.09336 2.73322 0
M  V30 2570 N 230.584 -0.659388 1.43143 0
M  V30 2571 C 231.514 -1.78422 1.50625 0
M  V30 2572 C 232.495 -1.66216 0.361443 0
M  V30 2573 O 233.68 -1.85404 0.577834 0
M  V30 2574 C 230.81 -3.16815 1.42287 0
M  V30 2575 C 229.764 -3.43777 2.54954 0
M  V30 2576 C 229.09 -4.81905 2.31671 0
M  V30 2577 C 230.39 -3.39134 3.97222 0
M  V30 2578 H 232.084 -1.72417 2.44771 0
M  V30 2579 H 229.63 -0.828084 1.17808 0
M  V30 2580 H 231.583 -3.95253 1.46127 0
M  V30 2581 H 230.307 -3.23534 0.446435 0
M  V30 2582 H 228.966 -2.67707 2.50457 0
M  V30 2583 H 228.614 -4.85294 1.32284 0
M  V30 2584 H 228.314 -5.00906 3.07192 0
M  V30 2585 H 229.838 -5.62609 2.37284 0
M  V30 2586 H 231.252 -4.07518 4.03239 0
M  V30 2587 H 229.649 -3.69671 4.72719 0
M  V30 2588 H 230.719 -2.37426 4.22797 0
M  V30 2589 N 232.062 -1.29571 -0.897171 0
M  V30 2590 C 233.009 -1.14916 -2.00158 0
M  V30 2591 C 233.979 -0.0418149 -1.66047 0
M  V30 2592 O 235.164 -0.209793 -1.89643 0
M  V30 2593 C 232.304 -0.834307 -3.34863 0
M  V30 2594 C 231.417 -2.02234 -3.8174 0
M  V30 2595 C 230.552 -1.64664 -5.05034 0
M  V30 2596 C 229.591 -2.80033 -5.44286 0
M  V30 2597 N 228.728 -2.42843 -6.58765 0
M  V30 2598 H 233.568 -2.09403 -2.12025 0
M  V30 2599 H 231.105 -1.042 -1.0383 0
M  V30 2600 H 233.063 -0.632436 -4.12379 0
M  V30 2601 H 231.693 0.0736656 -3.22716 0
M  V30 2602 H 230.745 -2.33583 -3.00238 0
M  V30 2603 H 232.057 -2.88673 -4.06779 0
M  V30 2604 H 231.211 -1.4078 -5.9014 0
M  V30 2605 H 229.95 -0.753766 -4.8184 0
M  V30 2606 H 228.955 -3.04596 -4.57713 0
M  V30 2607 H 230.18 -3.69989 -5.6946 0
M  V30 2608 H 228.126 -1.56046 -6.3717 0
M  V30 2609 H 228.043 -3.22815 -6.83613 0
M  V30 2610 H 229.311 -2.22285 -7.47134 0
M  V30 2611 N 233.54 1.10788 -1.12088 0
M  V30 2612 C 234.951 1.64181 -0.88891 0
M  V30 2613 C 235.302 1.87508 0.577498 0
M  V30 2614 O 234.427 1.61434 1.44112 0
M  V30 2615 C 235.022 2.98257 -1.60712 0
M  V30 2616 C 233.581 3.4853 -1.42139 0
M  V30 2617 C 232.728 2.23208 -1.6454 0
M  V30 2618 H 235.679 0.943368 -1.27618 0
M  V30 2619 H 235.7 3.65552 -1.05604 0
M  V30 2620 H 235.212 2.81246 -2.67436 0
M  V30 2621 H 233.313 3.70692 -0.376552 0
M  V30 2622 H 233.426 4.26882 -2.17505 0
M  V30 2623 H 231.79 2.31169 -1.06925 0
M  V30 2624 H 232.573 2.08733 -2.72554 0
M  V30 2625 N 235.018 0.912232 1.28515 0
M  V30 2626 C 235.965 0.397954 2.27343 0
M  V30 2627 C 236.935 -0.526766 1.57526 0
M  V30 2628 O 238.12 -0.449292 1.85435 0
M  V30 2629 C 235.26 -0.357263 3.43246 0
M  V30 2630 C 234.373 0.599788 4.27816 0
M  V30 2631 C 233.508 -0.173725 5.30916 0
M  V30 2632 C 232.547 0.777039 6.07148 0
M  V30 2633 N 231.684 0.0371398 7.0209 0
M  V30 2634 H 236.524 1.24577 2.70711 0
M  V30 2635 H 234.061 0.625612 1.33133 0
M  V30 2636 H 236.019 -0.8113 4.09236 0
M  V30 2637 H 234.649 -1.16943 3.00872 0
M  V30 2638 H 233.701 1.17235 3.61884 0
M  V30 2639 H 235.013 1.32704 4.80823 0
M  V30 2640 H 234.167 -0.688394 6.02782 0
M  V30 2641 H 232.906 -0.934041 4.78672 0
M  V30 2642 H 231.911 1.3031 5.34134 0
M  V30 2643 H 233.136 1.53689 6.61481 0
M  V30 2644 H 231.082 -0.705213 6.52198 0
M  V30 2645 H 230.999 0.704249 7.52713 0
M  V30 2646 H 232.267 -0.457383 7.78157 0
M  V30 2647 N 236.496 -1.42363 0.676048 0
M  V30 2648 C 237.724 -2.05859 0.207268 0
M  V30 2649 C 238.139 -1.50796 -1.13605 0
M  V30 2650 O 237.496 -0.648265 -1.70598 0
M  V30 2651 C 237.547 -3.61248 0.134975 0
M  V30 2652 O 237.268 -4.1427 1.42521 0
M  V30 2653 C 238.769 -4.41859 -0.357151 0
M  V30 2654 H 235.989 -0.663431 0.100503 0
M  V30 2655 H 238.533 -1.82479 0.923136 0
M  V30 2656 H 236.688 -3.83735 -0.531588 0
M  V30 2657 H 237.102 -5.0815 1.29939 0
M  V30 2658 H 238.576 -5.50847 -0.356641 0
M  V30 2659 H 239.053 -4.16536 -1.39264 0
M  V30 2660 H 239.659 -4.24392 0.27772 0
M  V30 2661 N 237.974 -0.419461 -1.51915 0
M  V30 2662 C 239.385 0.0477853 -1.86639 0
M  V30 2663 C 239.736 1.43531 -1.33766 0
M  V30 2664 O 238.861 2.05401 -0.68113 0
M  V30 2665 C 239.456 0.0934885 -3.38671 0
M  V30 2666 C 238.015 0.505097 -3.72996 0
M  V30 2667 C 237.162 -0.313792 -2.75519 0
M  V30 2668 H 240.113 -0.636088 -1.45395 0
M  V30 2669 H 240.134 0.906667 -3.6954 0
M  V30 2670 H 239.646 -0.916501 -3.77123 0
M  V30 2671 H 237.747 1.52135 -3.40126 0
M  V30 2672 H 237.86 0.242309 -4.78487 0
M  V30 2673 H 236.224 0.225363 -2.53701 0
M  V30 2674 H 237.007 -1.32232 -3.16812 0
M  V30 2675 N 239.452 1.56882 -0.150215 0
M  V30 2676 C 240.4 2.18214 0.805313 0
M  V30 2677 C 241.394 1.14006 1.25296 0
M  V30 2678 O 242.6 1.3225 1.22107 0
M  V30 2679 H 238.975 0.698762 0.277913 0
M  V30 2680 H 240.946 2.97231 0.263862 0
M  V30 2681 C 239.695 2.82065 2.03309 0
M  V30 2682 H 239.018 3.61968 1.69763 0
M  V30 2683 H 240.458 3.28477 2.68103 0
M  V30 2684 C 238.917 1.80739 2.84315 0
M  V30 2685 O 239.447 1.27983 3.80767 0
M  V30 2686 N 237.653 1.4997 2.48913 0
M  V30 2687 H 237.2 1.93062 1.70542 0
M  V30 2688 H 237.158 0.824217 3.03404 0
M  V30 2689 N 240.93 -0.123565 1.57115 0
M  V30 2690 C 242.158 -0.846461 1.88793 0
M  V30 2691 C 242.573 -1.73652 0.740976 0
M  V30 2692 O 241.93 -1.80207 -0.288393 0
M  V30 2693 C 241.981 -1.6837 3.19897 0
M  V30 2694 O 241.702 -0.829477 4.30176 0
M  V30 2695 C 243.203 -2.51214 3.65248 0
M  V30 2696 H 240.423 -0.243573 0.625231 0
M  V30 2697 H 242.967 -0.109324 2.04208 0
M  V30 2698 H 241.122 -2.37364 3.06165 0
M  V30 2699 H 241.536 -1.40651 5.0529 0
M  V30 2700 H 243.01 -3.05497 4.59756 0
M  V30 2701 H 243.487 -3.28359 2.9168 0
M  V30 2702 H 244.093 -1.8747 3.81752 0
M  V30 2703 N 242.408 -1.52605 -0.393616 0
M  V30 2704 C 243.657 -1.66649 -1.13627 0
M  V30 2705 C 243.97 -0.410364 -1.91247 0
M  V30 2706 O 245.176 -0.430854 -2.68059 0
M  V30 2707 C 243.632 -2.9449 -2.06891 0
M  V30 2708 C 243.24 -4.27266 -1.34714 0
M  V30 2709 C 244.984 -3.17899 -2.81319 0
M  V30 2710 C 242.891 -5.46217 -2.26717 0
M  V30 2711 H 241.821 -0.62084 -0.427871 0
M  V30 2712 H 244.472 -1.791 -0.399428 0
M  V30 2713 H 242.854 -2.75774 -2.84191 0
M  V30 2714 H 244.028 -4.56518 -0.626714 0
M  V30 2715 H 242.343 -4.10081 -0.722643 0
M  V30 2716 H 244.94 -4.03949 -3.50328 0
M  V30 2717 H 245.283 -2.32777 -3.45139 0
M  V30 2718 H 245.816 -3.37159 -2.11113 0
M  V30 2719 H 242.555 -6.33733 -1.67521 0
M  V30 2720 H 242.075 -5.21283 -2.96689 0
M  V30 2721 H 243.754 -5.7991 -2.86903 0
M  V30 2722 N 243.887 0.651787 -1.4349 0
M  V30 2723 C 245.115 1.43937 -1.48626 0
M  V30 2724 C 245.53 1.8851 -0.104587 0
M  V30 2725 O 244.887 1.5958 0.885464 0
M  V30 2726 C 244.938 2.6734 -2.43334 0
M  V30 2727 O 244.659 2.24631 -3.76128 0
M  V30 2728 C 246.16 3.60683 -2.57726 0
M  V30 2729 H 243.38 0.44213 -0.504739 0
M  V30 2730 H 245.924 0.798944 -1.88248 0
M  V30 2731 H 244.079 3.2752 -2.06904 0
M  V30 2732 H 244.493 3.04485 -4.2707 0
M  V30 2733 H 245.967 4.43933 -3.28067 0
M  V30 2734 H 246.444 4.08126 -1.62265 0
M  V30 2735 H 247.05 3.06384 -2.94973 0
M  V30 2736 N 245.365 1.30045 0.890287 0
M  V30 2737 C 246.313 1.15873 2.01683 0
M  V30 2738 C 247.307 0.0719403 1.69247 0
M  V30 2739 O 248.513 0.232414 1.78493 0
M  V30 2740 H 244.888 0.358203 0.661207 0
M  V30 2741 H 246.859 2.11229 2.10772 0
M  V30 2742 C 245.608 0.861842 3.36849 0
M  V30 2743 H 244.931 1.69016 3.62317 0
M  V30 2744 H 246.371 0.802762 4.16331 0
M  V30 2745 C 244.83 -0.435132 3.34078 0
M  V30 2746 O 245.36 -1.4583 3.74295 0
M  V30 2747 N 243.566 -0.444377 2.87182 0
M  V30 2748 H 243.113 0.388723 2.5465 0
M  V30 2749 H 243.071 -1.31213 2.85711 0
M  V30 2750 N 246.843 -1.10192 1.12674 0
M  V30 2751 C 248.254 -1.63707 0.897604 0
M  V30 2752 C 248.605 -1.87812 -0.567546 0
M  V30 2753 O 247.73 -1.62196 -1.43253 0
M  V30 2754 C 248.325 -2.974 1.62292 0
M  V30 2755 C 246.884 -3.47772 1.43986 0
M  V30 2756 C 246.031 -2.22332 1.65722 0
M  V30 2757 H 248.982 -0.936587 1.28116 0
M  V30 2758 H 249.003 -3.64986 1.07541 0
M  V30 2759 H 248.515 -2.79824 2.68924 0
M  V30 2760 H 246.616 -3.70487 0.396206 0
M  V30 2761 H 246.729 -4.25723 2.19765 0
M  V30 2762 H 245.093 -2.30599 1.08149 0
M  V30 2763 H 245.876 -2.07285 2.73657 0
M  V30 2764 N 248.321 -0.919034 -1.28029 0
M  V30 2765 C 249.737 -0.617972 -1.4715 0
M  V30 2766 C 249.937 0.835242 -1.83374 0
M  V30 2767 O 248.993 1.61388 -1.94191 0
M  V30 2768 C 250.306 -1.56041 -2.57044 0
M  V30 2769 C 251.854 -1.56769 -2.7091 0
M  V30 2770 C 252.329 -2.49688 -3.83953 0
M  V30 2771 N 253.82 -2.47845 -3.91314 0
M  V30 2772 C 254.555 -3.16437 -4.78179 0
M  V30 2773 N 254.051 -3.94376 -5.69596 0
M  V30 2774 N 255.844 -3.05498 -4.71834 0
M  V30 2775 H 247.995 -1.85866 -1.02798 0
M  V30 2776 H 250.258 -0.797506 -0.512531 0
M  V30 2777 H 249.964 -2.59671 -2.372 0
M  V30 2778 H 249.838 -1.29551 -3.54255 0
M  V30 2779 H 252.225 -0.538745 -2.90141 0
M  V30 2780 H 252.306 -1.87305 -1.74214 0
M  V30 2781 H 251.95 -3.52688 -3.65477 0
M  V30 2782 H 251.88 -2.16453 -4.80058 0
M  V30 2783 H 254.371 -1.91234 -3.25941 0
M  V30 2784 H 254.684 -4.43721 -6.32718 0
M  V30 2785 H 253.029 -3.98481 -5.69419 0
M  V30 2786 H 256.22 -2.44108 -3.99411 0
M  V30 2787 H 256.393 -3.59225 -5.39316 0
M  V30 2788 N 249.799 1.42003 -0.683588 0
M  V30 2789 C 251.045 2.01712 -0.209825 0
M  V30 2790 C 251.378 1.53968 1.18353 0
M  V30 2791 O 250.653 0.745661 1.79639 0
M  V30 2792 C 250.936 3.59202 -0.254197 0
M  V30 2793 C 250.789 4.17102 -1.68363 0
M  V30 2794 C 252.108 4.38344 0.392709 0
M  V30 2795 H 249.227 0.732891 -0.0777189 0
M  V30 2796 H 251.869 1.68909 -0.87004 0
M  V30 2797 H 250.019 3.87278 0.307954 0
M  V30 2798 H 251.691 3.99946 -2.29871 0
M  V30 2799 H 249.934 3.72597 -2.22157 0
M  V30 2800 H 250.605 5.26249 -1.6663 0
M  V30 2801 H 253.081 4.16011 -0.0859162 0
M  V30 2802 H 251.957 5.47901 0.331063 0
M  V30 2803 H 252.218 4.16887 1.47164 0
M  V30 2804 N 251.277 0.427512 1.51691 0
M  V30 2805 C 252.207 -0.3796 2.30394 0
M  V30 2806 C 253.188 -1.02982 1.35384 0
M  V30 2807 O 254.373 -1.03534 1.643 0
M  V30 2808 C 251.503 -1.48649 3.1388 0
M  V30 2809 C 250.457 -0.960294 4.17088 0
M  V30 2810 C 249.783 -2.16219 4.89033 0
M  V30 2811 C 251.083 -0.00153679 5.223 0
M  V30 2812 H 252.777 0.277164 2.98114 0
M  V30 2813 H 250.323 0.134739 1.43368 0
M  V30 2814 H 252.276 -2.05826 3.67714 0
M  V30 2815 H 251 -2.1714 2.43962 0
M  V30 2816 H 249.659 -0.410806 3.64291 0
M  V30 2817 H 249.307 -2.83307 4.15628 0
M  V30 2818 H 249.007 -1.81654 5.58816 0
M  V30 2819 H 250.531 -2.73968 5.45687 0
M  V30 2820 H 251.945 -0.482687 5.71264 0
M  V30 2821 H 250.342 0.256199 5.99553 0
M  V30 2822 H 251.412 0.938174 4.75738 0
M  V30 2823 N 252.755 -1.56801 0.158532 0
M  V30 2824 C 253.702 -2.17337 -0.776729 0
M  V30 2825 C 254.672 -1.1096 -1.23601 0
M  V30 2826 O 255.857 -1.39054 -1.30647 0
M  V30 2827 C 252.997 -2.80822 -2.00582 0
M  V30 2828 C 252.11 -4.01624 -1.59129 0
M  V30 2829 C 251.245 -4.53072 -2.77306 0
M  V30 2830 C 250.284 -5.66314 -2.32282 0
M  V30 2831 N 249.421 -6.12329 -3.43508 0
M  V30 2832 H 254.261 -2.96918 -0.253701 0
M  V30 2833 H 251.798 -1.46661 -0.113504 0
M  V30 2834 H 253.756 -3.15779 -2.72652 0
M  V30 2835 H 252.386 -2.03866 -2.50277 0
M  V30 2836 H 251.438 -3.72571 -0.767806 0
M  V30 2837 H 252.75 -4.83633 -1.2207 0
M  V30 2838 H 251.904 -4.90145 -3.57551 0
M  V30 2839 H 250.643 -3.70095 -3.17617 0
M  V30 2840 H 249.648 -5.28806 -1.5048 0
M  V30 2841 H 250.873 -6.51085 -1.93043 0
M  V30 2842 H 248.819 -5.32284 -3.83418 0
M  V30 2843 H 248.736 -6.89293 -3.105 0
M  V30 2844 H 250.004 -6.5405 -4.24075 0
M  V30 2845 N 254.233 0.115231 -1.57178 0
M  V30 2846 C 255.649 0.468877 -1.52557 0
M  V30 2847 C 255.849 1.81649 -0.872125 0
M  V30 2848 O 254.905 2.48347 -0.45606 0
M  V30 2849 C 256.218 0.4499 -2.97315 0
M  V30 2850 C 257.766 0.533185 -3.08425 0
M  V30 2851 C 258.241 0.54456 -4.54751 0
M  V30 2852 N 259.732 0.605892 -4.5922 0
M  V30 2853 C 260.467 0.636203 -5.6986 0
M  V30 2854 N 259.963 0.623931 -6.89985 0
M  V30 2855 N 261.756 0.679496 -5.57978 0
M  V30 2856 H 253.907 -0.767712 -1.9804 0
M  V30 2857 H 256.17 -0.283609 -0.904583 0
M  V30 2858 H 255.876 -0.472721 -3.48509 0
M  V30 2859 H 255.75 1.27632 -3.5495 0
M  V30 2860 H 258.137 1.44623 -2.57232 0
M  V30 2861 H 258.218 -0.320995 -2.53778 0
M  V30 2862 H 257.862 -0.364452 -5.06591 0
M  V30 2863 H 257.792 1.41568 -5.07214 0
M  V30 2864 H 260.283 0.621386 -3.72756 0
M  V30 2865 H 260.596 0.649787 -7.70063 0
M  V30 2866 H 258.941 0.591296 -6.9248 0
M  V30 2867 H 262.132 0.686472 -4.63039 0
M  V30 2868 H 262.305 0.69965 -6.44212 0
M  V30 2869 N 255.711 1.52812 0.385517 0
M  V30 2870 C 256.621 1.80766 1.49535 0
M  V30 2871 C 257.637 0.694651 1.59532 0
M  V30 2872 O 258.813 0.982611 1.75803 0
M  V30 2873 C 255.878 1.97381 2.85029 0
M  V30 2874 C 254.939 3.21295 2.84724 0
M  V30 2875 C 254.172 3.37108 4.13756 0
M  V30 2876 O 254.395 2.5765 5.08893 0
M  V30 2877 O 253.329 4.30378 4.20783 0
M  V30 2878 H 257.155 2.75015 1.28842 0
M  V30 2879 H 254.74 1.37946 0.573697 0
M  V30 2880 H 256.622 2.09996 3.65349 0
M  V30 2881 H 255.297 1.06322 3.05741 0
M  V30 2882 H 254.204 3.1412 2.03174 0
M  V30 2883 H 255.537 4.12212 2.68965 0
M  V30 2884 N 257.189 -0.644168 1.43834 0
M  V30 2885 C 258.119 -1.76814 1.52509 0
M  V30 2886 C 259.1 -1.65823 0.379052 0
M  V30 2887 O 260.285 -1.84781 0.597466 0
M  V30 2888 C 257.415 -3.15288 1.4564 0
M  V30 2889 C 256.369 -3.41053 2.58586 0
M  V30 2890 C 255.695 -4.79421 2.36769 0
M  V30 2891 C 256.995 -3.34902 4.00797 0
M  V30 2892 H 258.689 -1.69812 2.46586 0
M  V30 2893 H 256.235 -0.815542 1.1868 0
M  V30 2894 H 258.188 -3.93681 1.50311 0
M  V30 2895 H 256.912 -3.23043 0.480725 0
M  V30 2896 H 255.571 -2.65035 2.53282 0
M  V30 2897 H 255.219 -4.83863 1.37424 0
M  V30 2898 H 254.919 -4.9762 3.12487 0
M  V30 2899 H 256.443 -5.6006 2.43238 0
M  V30 2900 H 257.857 -4.03218 4.07539 0
M  V30 2901 H 256.254 -3.64637 4.76613 0
M  V30 2902 H 257.324 -2.32928 4.25291 0
M  V30 2903 N 258.668 -1.30515 -0.883378 0
M  V30 2904 C 259.578 -1.18959 -2.02203 0
M  V30 2905 C 260.594 -0.109172 -1.73657 0
M  V30 2906 O 261.77 -0.324413 -1.9877 0
M  V30 2907 C 258.835 -0.883871 -3.35244 0
M  V30 2908 C 257.896 -2.04982 -3.77201 0
M  V30 2909 C 257.129 -1.75859 -5.03894 0
M  V30 2910 O 257.352 -0.687276 -5.66244 0
M  V30 2911 O 256.286 -2.61146 -5.42297 0
M  V30 2912 H 260.112 -2.14616 -2.1488 0
M  V30 2913 H 257.697 -1.10124 -1.0096 0
M  V30 2914 H 259.579 -0.728644 -4.15053 0
M  V30 2915 H 258.254 0.0427798 -3.23672 0
M  V30 2916 H 257.161 -2.26038 -2.9809 0
M  V30 2917 H 258.494 -2.95825 -3.93381 0
M  V30 2918 N 260.146 1.09593 -1.13257 0
M  V30 2919 C 261.093 2.1618 -0.808381 0
M  V30 2920 C 262.063 1.64517 0.228754 0
M  V30 2921 O 263.248 1.9053 0.101381 0
M  V30 2922 C 260.388 3.43973 -0.278675 0
M  V30 2923 C 259.501 4.09545 -1.37466 0
M  V30 2924 C 258.636 5.25088 -0.803479 0
M  V30 2925 C 257.675 5.82579 -1.87799 0
M  V30 2926 N 256.812 6.89486 -1.32488 0
M  V30 2927 H 261.652 2.43254 -1.72138 0
M  V30 2928 H 259.189 1.19392 -0.859294 0
M  V30 2929 H 261.147 4.17174 0.0465583 0
M  V30 2930 H 259.777 3.17223 0.597459 0
M  V30 2931 H 258.829 3.34226 -1.81652 0
M  V30 2932 H 260.141 4.48307 -2.18684 0
M  V30 2933 H 259.295 6.05178 -0.429427 0
M  V30 2934 H 258.034 4.87684 0.0397956 0
M  V30 2935 H 257.039 5.01152 -2.26113 0
M  V30 2936 H 258.264 6.22045 -2.72463 0
M  V30 2937 H 256.21 6.54064 -0.503575 0
M  V30 2938 H 256.127 7.27007 -2.07355 0
M  V30 2939 H 257.395 7.73336 -0.978336 0
M  V30 2940 N 261.624 0.925811 1.2754 0
M  V30 2941 C 262.873 0.561084 1.93739 0
M  V30 2942 C 263.186 -0.901685 1.73577 0
M  V30 2943 O 264.392 -1.37511 2.34101 0
M  V30 2944 C 262.848 0.952668 3.47062 0
M  V30 2945 C 262.456 2.43599 3.75983 0
M  V30 2946 C 264.2 0.659103 4.19352 0
M  V30 2947 C 262.107 2.76707 5.22673 0
M  V30 2948 H 261.037 0.206122 0.725279 0
M  V30 2949 H 263.688 1.12637 1.44863 0
M  V30 2950 H 262.07 0.316053 3.94737 0
M  V30 2951 H 263.244 3.12035 3.39073 0
M  V30 2952 H 261.559 2.70125 3.16893 0
M  V30 2953 H 264.156 0.882985 5.27359 0
M  V30 2954 H 264.499 -0.403607 4.14339 0
M  V30 2955 H 265.032 1.25473 3.77494 0
M  V30 2956 H 261.771 3.8188 5.32774 0
M  V30 2957 H 261.291 2.12919 5.60737 0
M  V30 2958 H 262.97 2.6435 5.90532 0
M  V30 2959 N 263.102 -1.41638 0.69111 0
M  V30 2960 C 264.518 -1.55435 0.362224 0
M  V30 2961 C 264.718 -1.66754 -1.13117 0
M  V30 2962 O 263.774 -1.64348 -1.91692 0
M  V30 2963 C 265.087 -2.79588 1.10684 0
M  V30 2964 C 266.635 -2.9338 1.09075 0
M  V30 2965 C 267.11 -4.20414 1.81703 0
M  V30 2966 N 268.601 -4.27362 1.7865 0
M  V30 2967 C 269.336 -5.24507 2.31689 0
M  V30 2968 N 268.832 -6.27708 2.93179 0
M  V30 2969 N 270.625 -5.16416 2.2197 0
M  V30 2970 H 262.776 -1.32536 1.65976 0
M  V30 2971 H 265.039 -0.639115 0.700168 0
M  V30 2972 H 264.745 -2.77419 2.16175 0
M  V30 2973 H 264.619 -3.70973 0.682545 0
M  V30 2974 H 267.006 -2.95067 0.0441238 0
M  V30 2975 H 267.087 -2.0318 1.55407 0
M  V30 2976 H 266.731 -4.19488 2.86343 0
M  V30 2977 H 266.661 -5.09578 1.32808 0
M  V30 2978 H 269.152 -3.53415 1.33815 0
M  V30 2979 H 269.465 -6.98217 3.31229 0
M  V30 2980 H 267.81 -6.28223 2.97255 0
M  V30 2981 H 271.001 -4.34716 1.73607 0
M  V30 2982 H 271.174 -5.91958 2.63609 0
M  V30 2983 N 264.58 -0.43555 -1.51462 0
M  V30 2984 C 265.527 0.376797 -2.27703 0
M  V30 2985 C 266.497 1.01838 -1.31219 0
M  V30 2986 O 267.682 1.03762 -1.60119 0
M  V30 2987 C 264.822 1.47301 -3.12084 0
M  V30 2988 C 263.935 0.849744 -4.2356 0
M  V30 2989 C 263.07 1.92086 -4.95254 0
M  V30 2990 C 262.109 1.27593 -5.98654 0
M  V30 2991 N 261.246 2.28833 -6.63762 0
M  V30 2992 H 266.086 -0.279734 -2.96684 0
M  V30 2993 H 263.623 -0.149795 -1.46335 0
M  V30 2994 H 265.581 2.11984 -3.59331 0
M  V30 2995 H 264.211 2.0992 -2.45221 0
M  V30 2996 H 263.263 0.0912529 -3.80291 0
M  V30 2997 H 264.575 0.338878 -4.97648 0
M  V30 2998 H 263.729 2.64435 -5.46039 0
M  V30 2999 H 262.468 2.46545 -4.20793 0
M  V30 3000 H 261.473 0.537893 -5.47162 0
M  V30 3001 H 262.698 0.738693 -6.7507 0
M  V30 3002 H 260.644 2.82375 -5.92115 0
M  V30 3003 H 260.561 1.82632 -7.33608 0
M  V30 3004 H 261.829 3.00671 -7.19178 0
M  V30 3005 N 266.058 1.56714 -0.166846 0
M  V30 3006 C 267.474 1.58473 0.189372 0
M  V30 3007 C 267.674 1.18201 1.63189 0
M  V30 3008 O 266.73 0.891528 2.36237 0
M  V30 3009 C 268.043 3.00573 -0.0873872 0
M  V30 3010 C 269.591 3.1299 -0.0252443 0
M  V30 3011 C 270.066 4.57174 -0.274934 0
M  V30 3012 N 271.557 4.62665 -0.222553 0
M  V30 3013 C 272.292 5.72072 -0.389985 0
M  V30 3014 N 271.788 6.90054 -0.616229 0
M  V30 3015 N 273.581 5.61153 -0.326202 0
M  V30 3016 H 265.732 1.8118 -1.10849 0
M  V30 3017 H 267.995 0.839525 -0.440342 0
M  V30 3018 H 267.701 3.34497 -1.0865 0
M  V30 3019 H 267.575 3.72019 0.623037 0
M  V30 3020 H 269.962 2.78895 0.96444 0
M  V30 3021 H 270.043 2.43989 -0.768309 0
M  V30 3022 H 269.687 4.91976 -1.26181 0
M  V30 3023 H 269.617 5.24328 0.48869 0
M  V30 3024 H 272.108 3.77863 -0.0531512 0
M  V30 3025 H 272.421 7.69311 -0.733559 0
M  V30 3026 H 270.766 6.91927 -0.652791 0
M  V30 3027 H 273.957 4.67859 -0.150072 0
M  V30 3028 H 274.13 6.46364 -0.460116 0
M  V30 3029 N 267.536 -0.106894 1.57237 0
M  V30 3030 C 268.784 -0.810921 1.85117 0
M  V30 3031 C 269.105 -1.7984 0.753827 0
M  V30 3032 O 268.375 -1.94649 -0.221056 0
M  V30 3033 H 266.955 -0.302466 0.683025 0
M  V30 3034 H 269.617 -0.0913324 1.94686 0
M  V30 3035 H 268.713 -1.34875 2.81452 0
M  V30 3036 N 269.014 -1.53014 -0.377408 0
M  V30 3037 C 270.244 -1.72265 -1.14054 0
M  V30 3038 C 270.652 -0.44601 -1.83868 0
M  V30 3039 O 269.995 0.590095 -1.73964 0
M  V30 3040 C 270.057 -2.82492 -2.22348 0
M  V30 3041 C 269.721 -4.23233 -1.72402 0
M  V30 3042 C 270.718 -5.05992 -1.19448 0
M  V30 3043 C 268.403 -4.696 -1.78273 0
M  V30 3044 C 270.397 -6.33203 -0.730268 0
M  V30 3045 C 268.084 -5.96792 -1.31464 0
M  V30 3046 C 269.082 -6.78424 -0.789297 0
M  V30 3047 O 268.77 -8.0323 -0.328077 0
M  V30 3048 H 268.502 -0.579873 -0.347453 0
M  V30 3049 H 271.056 -2.00502 -0.445882 0
M  V30 3050 H 269.286 -2.49702 -2.95272 0
M  V30 3051 H 270.975 -2.90034 -2.83963 0
M  V30 3052 H 271.741 -4.71349 -1.14259 0
M  V30 3053 H 267.62 -4.06142 -2.18106 0
M  V30 3054 H 271.164 -6.96868 -0.319542 0
M  V30 3055 H 267.061 -6.30937 -1.36342 0
M  V30 3056 H 267.829 -8.1727 -0.448493 0
M  V30 3057 N 270.492 0.636531 -1.44174 0
M  V30 3058 C 271.455 1.73063 -1.50273 0
M  V30 3059 C 272.455 1.56113 -0.385397 0
M  V30 3060 O 273.645 1.61707 -0.64781 0
M  V30 3061 C 270.777 3.12096 -1.37145 0
M  V30 3062 H 271.97 1.69031 -2.47727 0
M  V30 3063 H 269.523 0.849706 -1.31186 0
M  V30 3064 H 270.258 3.21728 -0.407636 0
M  V30 3065 H 270.043 3.25805 -2.18159 0
M  V30 3066 H 271.533 3.91846 -1.44382 0
M  V30 3067 N 271.97 1.30982 0.876444 0
M  V30 3068 C 273.216 1.20474 1.63138 0
M  V30 3069 C 273.549 -0.238096 1.92735 0
M  V30 3070 O 272.824 -1.1692 1.55435 0
M  V30 3071 C 273.107 2.04244 2.96574 0
M  V30 3072 C 272.96 3.56793 2.73896 0
M  V30 3073 C 274.279 1.88684 3.97601 0
M  V30 3074 H 271.398 0.439001 0.591985 0
M  V30 3075 H 274.04 1.60704 1.01361 0
M  V30 3076 H 272.19 1.70063 3.493 0
M  V30 3077 H 273.862 4.01077 2.27892 0
M  V30 3078 H 272.105 3.80548 2.08245 0
M  V30 3079 H 272.776 4.10706 3.68815 0
M  V30 3080 H 275.252 2.18584 3.54062 0
M  V30 3081 H 274.128 2.4961 4.88862 0
M  V30 3082 H 274.389 0.848343 4.33884 0
M  V30 3083 N 273.449 -1.08991 1.13837 0
M  V30 3084 C 274.726 -1.77863 0.813876 0
M  V30 3085 C 275.106 -1.99375 -0.693746 0
M  V30 3086 O 274.454 -1.59875 -1.63255 0
M  V30 3087 C 274.664 -3.0986 1.60586 0
M  V30 3088 C 276.012 -3.84493 1.8014 0
M  V30 3089 O 277.036 -3.19624 1.57222 0
M  V30 3090 O 275.895 -5.00957 2.18413 0
M  V30 3091 H 272.989 -0.771589 0.297624 0
M  V30 3092 H 275.535 -1.15507 1.24323 0
M  V30 3093 H 274.307 -2.89715 2.63022 0
M  V30 3094 H 273.93 -3.79942 1.17173 0
M  V30 3095 N 274.927 -0.932562 -1.27047 0
M  V30 3096 C 275.875 -0.42603 -2.28665 0
M  V30 3097 C 276.869 0.49219 -1.62092 0
M  V30 3098 O 278.075 0.371355 -1.76128 0
M  V30 3099 H 274.45 -0.119213 -0.742491 0
M  V30 3100 H 276.421 -1.29579 -2.68797 0
M  V30 3101 C 275.17 0.301426 -3.46391 0
M  V30 3102 H 274.493 -0.39595 -3.97834 0
M  V30 3103 H 275.933 0.6202 -4.1944 0
M  V30 3104 C 274.392 1.51616 -3.00856 0
M  V30 3105 O 274.922 2.61476 -3.04948 0
M  V30 3106 N 273.128 1.36969 -2.56296 0
M  V30 3107 H 272.675 0.475873 -2.53166 0
M  V30 3108 H 272.633 2.18368 -2.26192 0
M  V30 3109 N 276.405 1.4127 -0.698611 0
M  V30 3110 C 277.315 2.34573 -0.0357891 0
M  V30 3111 C 278.331 1.56393 0.762701 0
M  V30 3112 O 279.507 1.8886 0.699564 0
M  V30 3113 C 276.572 3.35159 0.887089 0
M  V30 3114 C 275.633 4.29225 0.0804634 0
M  V30 3115 C 274.866 5.25006 0.959387 0
M  V30 3116 O 275.089 5.26314 2.19886 0
M  V30 3117 O 274.023 6.00519 0.407439 0
M  V30 3118 H 277.849 2.92838 -0.804957 0
M  V30 3119 H 275.434 1.42175 -0.458966 0
M  V30 3120 H 277.316 3.9689 1.41621 0
M  V30 3121 H 275.991 2.79333 1.6357 0
M  V30 3122 H 274.898 3.70833 -0.493328 0
M  V30 3123 H 276.231 4.88157 -0.629547 0
M  V30 3124 N 277.883 0.443576 1.51229 0
M  V30 3125 C 278.793 -0.370721 2.31652 0
M  V30 3126 C 279.809 -1.02186 1.40833 0
M  V30 3127 O 280.985 -1.01586 1.73903 0
M  V30 3128 C 278.05 -1.45376 3.14749 0
M  V30 3129 C 277.111 -0.822099 4.21355 0
M  V30 3130 C 276.344 -1.85353 5.0048 0
M  V30 3131 O 276.567 -3.07656 4.80316 0
M  V30 3132 O 275.501 -1.4406 5.84406 0
M  V30 3133 H 279.327 0.286002 3.0235 0
M  V30 3134 H 276.912 0.20598 1.47973 0
M  V30 3135 H 278.794 -2.08173 3.66391 0
M  V30 3136 H 277.469 -2.09445 2.46809 0
M  V30 3137 H 276.376 -0.155909 3.73775 0
M  V30 3138 H 277.709 -0.224797 4.91686 0
M  V30 3139 N 279.361 -1.56624 0.175154 0
M  V30 3140 C 280.309 -2.19468 -0.770495 0
M  V30 3141 C 281.303 -1.15985 -1.23466 0
M  V30 3142 O 282.509 -1.34176 -1.19987 0
M  V30 3143 H 278.884 -0.703095 -0.266761 0
M  V30 3144 H 280.855 -2.97613 -0.216542 0
M  V30 3145 C 279.604 -2.85264 -1.98796 0
M  V30 3146 H 278.927 -3.64623 -1.63983 0
M  V30 3147 H 280.367 -3.327 -2.62843 0
M  V30 3148 C 278.826 -1.85239 -2.81404 0
M  V30 3149 O 279.356 -1.34024 -3.78682 0
M  V30 3150 N 277.562 -1.53911 -2.46495 0
M  V30 3151 H 277.109 -1.95751 -1.67449 0
M  V30 3152 H 277.067 -0.872382 -3.02054 0
M  V30 3153 N 280.839 0.0985539 -1.57292 0
M  V30 3154 C 281.749 1.13824 -2.05137 0
M  V30 3155 C 282.765 1.44076 -0.975604 0
M  V30 3156 O 283.941 1.54786 -1.28853 0
M  V30 3157 C 281.006 2.43969 -2.46333 0
M  V30 3158 C 280.067 2.2093 -3.68087 0
M  V30 3159 C 279.3 3.44869 -4.0731 0
M  V30 3160 O 279.523 4.52972 -3.46659 0
M  V30 3161 O 278.457 3.34661 -5.00285 0
M  V30 3162 H 282.283 0.761881 -2.93988 0
M  V30 3163 H 279.868 0.310818 -1.46131 0
M  V30 3164 H 281.75 3.20609 -2.73473 0
M  V30 3165 H 280.425 2.81038 -1.60621 0
M  V30 3166 H 279.332 1.42081 -3.46069 0
M  V30 3167 H 280.665 1.88755 -4.54568 0
M  V30 3168 N 282.317 1.53212 0.369288 0
M  V30 3169 C 283.566 1.68436 1.10961 0
M  V30 3170 C 283.879 0.440738 1.9057 0
M  V30 3171 O 285.085 0.473446 2.6734 0
M  V30 3172 C 283.541 2.97744 2.0218 0
M  V30 3173 C 283.149 4.29355 1.279 0
M  V30 3174 C 284.893 3.22334 2.76226 0
M  V30 3175 C 282.8 5.49755 2.17999 0
M  V30 3176 H 281.73 0.627568 0.41794 0
M  V30 3177 H 284.381 1.79713 0.370884 0
M  V30 3178 H 282.763 2.8026 2.79768 0
M  V30 3179 H 283.937 4.57458 0.554007 0
M  V30 3180 H 282.252 4.11179 0.657311 0
M  V30 3181 H 284.849 4.09471 3.43857 0
M  V30 3182 H 285.192 2.38238 3.41392 0
M  V30 3183 H 285.725 3.40475 2.05723 0
M  V30 3184 H 282.464 6.36318 1.57417 0
M  V30 3185 H 281.984 5.25937 2.88359 0
M  V30 3186 H 283.663 5.84401 2.77641 0
M  V30 3187 N 283.795 -0.628877 1.44509 0
M  V30 3188 C 285.043 -1.38565 1.4712 0
M  V30 3189 C 285.364 -1.94712 0.105899 0
M  V30 3190 O 284.634 -1.75912 -0.862079 0
M  V30 3191 H 283.214 -0.514333 0.541729 0
M  V30 3192 H 285.876 -0.740018 1.80305 0
M  V30 3193 H 284.972 -2.21583 2.19789 0
M  V30 3194 N 285.273 -1.31445 -0.869486 0
M  V30 3195 C 286.522 -1.20517 -1.61736 0
M  V30 3196 C 286.835 0.235341 -1.94179 0
M  V30 3197 O 288.041 0.466312 -2.67465 0
M  V30 3198 C 286.497 -2.10982 -2.91573 0
M  V30 3199 C 286.105 -3.60032 -2.66611 0
M  V30 3200 C 287.849 -2.08856 -3.69567 0
M  V30 3201 C 285.756 -4.42503 -3.92358 0
M  V30 3202 H 284.686 -0.447493 -0.606849 0
M  V30 3203 H 287.337 -1.56303 -0.96133 0
M  V30 3204 H 285.719 -1.68095 -3.58553 0
M  V30 3205 H 286.893 -4.11167 -2.08035 0
M  V30 3206 H 285.208 -3.64139 -2.0197 0
M  V30 3207 H 287.805 -2.67716 -4.62852 0
M  V30 3208 H 288.148 -1.07582 -4.02159 0
M  V30 3209 H 288.681 -2.49945 -3.09471 0
M  V30 3210 H 285.42 -5.44533 -3.64916 0
M  V30 3211 H 284.94 -3.96125 -4.50383 0
M  V30 3212 H 286.619 -4.54741 -4.60238 0
M  V30 3213 N 286.751 1.08385 -1.14413 0
M  V30 3214 C 287.684 2.14642 -0.774871 0
M  V30 3215 C 288.662 1.60761 0.243876 0
M  V30 3216 O 289.846 1.88031 0.132883 0
M  V30 3217 C 286.973 3.38366 -0.150491 0
M  V30 3218 C 286.019 4.10997 -1.13945 0
M  V30 3219 S 286.852 4.63797 -2.67679 0
M  V30 3220 C 288.008 5.90808 -2.06631 0
M  V30 3221 H 288.241 2.45633 -1.67487 0
M  V30 3222 H 285.774 1.20498 -0.96538 0
M  V30 3223 H 287.732 4.09996 0.203334 0
M  V30 3224 H 286.393 3.05572 0.72694 0
M  V30 3225 H 285.586 4.99783 -0.65059 0
M  V30 3226 H 285.188 3.4528 -1.43727 0
M  V30 3227 H 287.48 6.62411 -1.4219 0
M  V30 3228 H 288.423 6.4439 -2.93542 0
M  V30 3229 H 288.831 5.4383 -1.51357 0
M  V30 3230 N 288.23 0.939286 1.26551 0
M  V30 3231 C 289.47 0.5933 1.956 0
M  V30 3232 C 289.834 -0.851515 1.72085 0
M  V30 3233 O 291.035 -1.30634 2.34921 0
M  V30 3234 C 289.306 0.923996 3.45249 0
M  V30 3235 S 290.865 0.688269 4.33369 0
M  V30 3236 H 287.683 0.218591 0.676564 0
M  V30 3237 H 290.285 1.2102 1.5354 0
M  V30 3238 H 288.989 1.97297 3.59864 0
M  V30 3239 H 288.52 0.296746 3.92279 0
M  V30 3240 H 290.535 -0.448434 4.9417 0
M  V30 3241 N 289.708 -1.40897 0.706093 0
M  V30 3242 C 290.954 -2.01352 0.241889 0
M  V30 3243 C 291.287 -1.55832 -1.15888 0
M  V30 3244 O 290.562 -0.774145 -1.7843 0
M  V30 3245 C 290.845 -3.58752 0.311311 0
M  V30 3246 C 290.698 -4.1437 1.74978 0
M  V30 3247 C 292.017 -4.38914 -0.322922 0
M  V30 3248 H 289.136 -0.731562 0.0893687 0
M  V30 3249 H 291.778 -1.67504 0.896802 0
M  V30 3250 H 289.928 -3.87718 -0.246302 0
M  V30 3251 H 291.6 -3.96239 2.36205 0
M  V30 3252 H 289.843 -3.69016 2.28057 0
M  V30 3253 H 290.514 -5.23532 1.74981 0
M  V30 3254 H 292.99 -4.15822 0.152089 0
M  V30 3255 H 291.866 -5.48358 -0.243855 0
M  V30 3256 H 292.127 -4.19176 -1.40513 0
M  V30 3257 N 291.186 -0.45159 -1.50991 0
M  V30 3258 C 292.434 0.109857 -2.01801 0
M  V30 3259 C 292.755 1.41958 -1.3369 0
M  V30 3260 O 292.025 1.9003 -0.475951 0
M  V30 3261 H 290.605 0.0435884 -0.745727 0
M  V30 3262 H 293.267 -0.597557 -1.85514 0
M  V30 3263 H 292.363 0.275489 -3.10882 0
M  V30 3264 N 292.664 1.56529 -0.183458 0
M  V30 3265 C 293.91 1.97537 0.459036 0
M  V30 3266 C 294.243 1.06989 1.62071 0
M  V30 3267 O 293.518 0.11948 1.94133 0
M  V30 3268 C 293.801 3.47874 0.930368 0
M  V30 3269 C 293.654 4.492 -0.232317 0
M  V30 3270 C 294.973 4.01612 1.79989 0
M  V30 3271 H 292.092 0.718204 0.165383 0
M  V30 3272 H 294.734 1.88042 -0.272038 0
M  V30 3273 H 292.884 3.56095 1.55333 0
M  V30 3274 H 294.556 4.53027 -0.86972 0
M  V30 3275 H 292.799 4.24657 -0.885928 0
M  V30 3276 H 293.47 5.51823 0.139796 0
M  V30 3277 H 295.946 3.96097 1.27461 0
M  V30 3278 H 294.822 5.07195 2.09867 0
M  V30 3279 H 295.083 3.46163 2.74998 0
M  V30 3280 N 294.142 -0.090211 1.57342 0
M  V30 3281 C 295.553 -0.644173 1.75235 0
M  V30 3282 C 295.904 -1.78865 0.806335 0
M  V30 3283 O 295.029 -2.16395 -0.0140128 0
M  V30 3284 C 295.624 -1.17532 3.1776 0
M  V30 3285 C 294.183 -1.67531 3.37061 0
M  V30 3286 C 293.33 -0.58693 2.71017 0
M  V30 3287 H 296.281 0.135884 1.58117 0
M  V30 3288 H 296.302 -2.04455 3.20902 0
M  V30 3289 H 295.814 -0.342138 3.86589 0
M  V30 3290 H 293.915 -2.53234 2.73319 0
M  V30 3291 H 294.028 -1.76493 4.45406 0
M  V30 3292 H 292.392 -1.02756 2.33052 0
M  V30 3293 H 293.175 0.235758 3.4249 0
M  V30 3294 N 295.62 -1.53406 -0.361157 0
M  V30 3295 C 296.869 -1.69022 -1.10066 0
M  V30 3296 C 297.182 -0.450838 -1.90333 0
M  V30 3297 O 298.388 -0.487617 -2.67085 0
M  V30 3298 C 296.844 -2.98812 -2.00598 0
M  V30 3299 C 296.452 -4.30027 -1.25621 0
M  V30 3300 C 298.196 -3.23795 -2.74513 0
M  V30 3301 C 296.103 -5.50903 -2.1508 0
M  V30 3302 H 295.033 -0.629776 -0.414606 0
M  V30 3303 H 297.684 -1.79907 -0.361348 0
M  V30 3304 H 296.066 -2.8174 -2.78278 0
M  V30 3305 H 297.24 -4.57745 -0.529739 0
M  V30 3306 H 295.555 -4.11522 -0.635496 0
M  V30 3307 H 298.152 -4.11289 -3.41681 0
M  V30 3308 H 298.495 -2.40045 -3.40123 0
M  V30 3309 H 299.028 -3.41561 -2.03914 0
M  V30 3310 H 295.767 -6.37143 -1.54041 0
M  V30 3311 H 295.287 -5.27459 -2.85565 0
M  V30 3312 H 296.966 -5.85865 -2.74538 0
M  V30 3313 N 297.098 0.621204 -1.44841 0
M  V30 3314 C 298.345 1.38055 -1.48145 0
M  V30 3315 C 298.673 1.94143 -0.117867 0
M  V30 3316 O 297.928 1.74713 0.881694 0
M  V30 3317 C 298.227 2.55675 -2.4973 0
M  V30 3318 C 297.893 2.17817 -3.94799 0
M  V30 3319 C 296.555 2.07205 -4.34303 0
M  V30 3320 C 298.907 1.88065 -4.86087 0
M  V30 3321 C 296.235 1.65045 -5.63007 0
M  V30 3322 C 298.587 1.47394 -6.15189 0
M  V30 3323 C 297.251 1.35331 -6.53637 0
M  V30 3324 H 296.521 0.505181 -0.542101 0
M  V30 3325 H 299.168 0.703477 -1.78111 0
M  V30 3326 H 297.473 3.2866 -2.13284 0
M  V30 3327 H 299.17 3.13904 -2.4953 0
M  V30 3328 H 295.76 2.26998 -3.63552 0
M  V30 3329 H 299.944 1.95168 -4.56315 0
M  V30 3330 H 295.2 1.54317 -5.91605 0
M  V30 3331 H 299.374 1.23415 -6.85377 0
M  V30 3332 H 297.001 1.02435 -7.53267 0
M  V30 3333 N 298.576 1.31904 0.862503 0
M  V30 3334 C 299.853 1.12644 1.59908 0
M  V30 3335 C 300.233 -0.316104 2.0872 0
M  V30 3336 O 299.581 -1.31145 1.87118 0
M  V30 3337 C 299.791 2.1472 2.7513 0
M  V30 3338 C 301.139 2.47637 3.44907 0
M  V30 3339 O 302.163 2.13205 2.85346 0
M  V30 3340 O 301.022 3.06632 4.52371 0
M  V30 3341 H 298.116 0.43416 0.703871 0
M  V30 3342 H 300.662 1.43408 0.907314 0
M  V30 3343 H 299.434 3.1172 2.3653 0
M  V30 3344 H 299.057 1.84905 3.51989 0
M  V30 3345 N 300.054 -1.07777 1.14986 0
M  V30 3346 C 301.004 -2.13082 0.811181 0
M  V30 3347 C 301.988 -1.59619 -0.202597 0
M  V30 3348 O 303.18 -1.77 -0.00398275 0
M  V30 3349 C 300.309 -3.42009 0.297439 0
M  V30 3350 C 299.395 -4.02337 1.34112 0
M  V30 3351 N 299.786 -4.36982 2.54716 0
M  V30 3352 C 298.084 -4.29752 1.19285 0
M  V30 3353 C 298.785 -4.84729 3.21578 0
M  V30 3354 N 297.761 -4.83233 2.48972 0
M  V30 3355 H 301.563 -2.37696 1.72853 0
M  V30 3356 H 299.077 -1.25173 1.03468 0
M  V30 3357 H 301.074 -4.16884 0.0364777 0
M  V30 3358 H 299.734 -3.18841 -0.614022 0
M  V30 3359 H 300.745 -4.27807 2.91894 0
M  V30 3360 H 297.422 -4.16106 0.340926 0
M  V30 3361 H 298.812 -5.20863 4.24442 0
M  V30 3362 N 301.532 -0.945985 -1.26051 0
M  V30 3363 C 302.48 -0.450259 -2.282 0
M  V30 3364 C 303.474 0.47497 -1.62605 0
M  V30 3365 O 304.68 0.352653 -1.76512 0
M  V30 3366 H 301.055 -0.127081 -0.741184 0
M  V30 3367 H 303.026 -1.32422 -2.67408 0
M  V30 3368 C 301.775 0.26467 -3.46691 0
M  V30 3369 H 301.098 -0.438123 -3.97392 0
M  V30 3370 H 302.538 0.575678 -4.20074 0
M  V30 3371 C 300.997 1.48416 -3.02447 0
M  V30 3372 O 301.527 2.58227 -3.07704 0
M  V30 3373 N 299.733 1.34243 -2.57735 0
M  V30 3374 H 299.28 0.448994 -2.53657 0
M  V30 3375 H 299.238 2.15957 -2.28495 0
M  V30 3376 N 303.011 1.40521 -0.713556 0
M  V30 3377 C 304.259 2.00527 -0.251692 0
M  V30 3378 C 304.58 1.56857 1.15848 0
M  V30 3379 O 303.85 0.807127 1.785 0
M  V30 3380 H 302.43 0.741551 -0.0900646 0
M  V30 3381 H 305.092 1.71887 -0.918733 0
M  V30 3382 H 304.188 3.10813 -0.283192 0
M  V30 3383 N 304.489 0.459591 1.5075 0
M  V30 3384 C 305.719 -0.0972338 2.06371 0
M  V30 3385 C 306.127 -1.35074 1.32483 0
M  V30 3386 O 305.47 -1.79637 0.384226 0
M  V30 3387 C 305.532 -0.462759 3.56509 0
M  V30 3388 C 305.196 0.687084 4.51805 0
M  V30 3389 C 306.193 1.56578 4.95761 0
M  V30 3390 C 303.878 0.874144 4.94635 0
M  V30 3391 C 305.872 2.61604 5.81242 0
M  V30 3392 C 303.559 1.92765 5.79901 0
M  V30 3393 C 304.557 2.79697 6.23104 0
M  V30 3394 O 304.245 3.83235 7.06673 0
M  V30 3395 H 303.977 -0.00140687 0.675999 0
M  V30 3396 H 306.531 0.644011 1.95043 0
M  V30 3397 H 304.761 -1.25703 3.65699 0
M  V30 3398 H 306.45 -0.953323 3.94546 0
M  V30 3399 H 307.216 1.4329 4.6335 0
M  V30 3400 H 303.095 0.207006 4.60535 0
M  V30 3401 H 306.639 3.29489 6.14884 0
M  V30 3402 H 302.536 2.06064 6.11725 0
M  V30 3403 H 303.304 3.80084 7.24899 0
M  V30 3404 N 305.967 -1.56429 0.191757 0
M  V30 3405 C 307.378 -1.83912 -0.321428 0
M  V30 3406 C 307.729 -1.11231 -1.61623 0
M  V30 3407 O 306.854 -0.37202 -2.13178 0
M  V30 3408 C 307.449 -3.33624 -0.589961 0
M  V30 3409 C 306.008 -3.6153 -1.04753 0
M  V30 3410 C 305.155 -2.7714 -0.0943327 0
M  V30 3411 H 308.106 -1.53161 0.415612 0
M  V30 3412 H 308.127 -3.52213 -1.43966 0
M  V30 3413 H 307.639 -3.86495 0.352588 0
M  V30 3414 H 305.74 -3.14089 -2.00447 0
M  V30 3415 H 305.853 -4.69737 -0.942549 0
M  V30 3416 H 304.217 -2.47638 -0.595589 0
M  V30 3417 H 305 -3.32799 0.842601 0
M  V30 3418 N 307.445 0.0818655 -1.57387 0
M  V30 3419 C 308.691 0.784074 -1.8703 0
M  V30 3420 C 309.024 1.77729 -0.782689 0
M  V30 3421 O 308.299 1.93384 0.208051 0
M  V30 3422 C 308.582 1.50105 -3.27323 0
M  V30 3423 C 308.435 0.524925 -4.46727 0
M  V30 3424 C 309.754 2.44843 -3.65705 0
M  V30 3425 H 306.873 0.283582 -0.680257 0
M  V30 3426 H 309.515 0.0474352 -1.89941 0
M  V30 3427 H 307.665 2.12897 -3.24972 0
M  V30 3428 H 309.337 -0.0970111 -4.61198 0
M  V30 3429 H 307.58 -0.160606 -4.33503 0
M  V30 3430 H 308.251 1.064 -5.41648 0
M  V30 3431 H 310.727 1.92135 -3.69085 0
M  V30 3432 H 309.603 2.92018 -4.64776 0
M  V30 3433 H 309.864 3.29197 -2.95096 0
M  V30 3434 N 308.923 1.53595 0.353017 0
M  V30 3435 C 309.886 1.80232 1.41594 0
M  V30 3436 C 310.886 0.673081 1.46035 0
M  V30 3437 O 312.076 0.941335 1.46576 0
M  V30 3438 C 309.208 1.93578 2.80607 0
M  V30 3439 H 310.401 2.75174 1.19244 0
M  V30 3440 H 307.954 1.44864 0.586872 0
M  V30 3441 H 308.689 1.00746 3.08254 0
M  V30 3442 H 308.474 2.75724 2.78781 0
M  V30 3443 H 309.964 2.15735 3.57558 0
M  V30 3444 N 310.401 -0.613514 1.45168 0
M  V30 3445 C 311.649 -1.36997 1.48581 0
M  V30 3446 C 311.97 -1.94589 0.126545 0
M  V30 3447 O 311.24 -1.76816 -0.843372 0
M  V30 3448 H 309.82 -0.508558 0.547154 0
M  V30 3449 H 312.482 -0.720853 1.81079 0
M  V30 3450 H 311.578 -2.1924 2.22127 0
M  V30 3451 N 311.879 -1.3236 -0.855495 0
M  V30 3452 C 313.125 -1.23054 -1.612 0
M  V30 3453 C 313.458 0.207404 -1.93089 0
M  V30 3454 O 312.733 1.14432 -1.57275 0
M  V30 3455 C 313.016 -2.08937 -2.93287 0
M  V30 3456 C 312.869 -3.61105 -2.68185 0
M  V30 3457 C 314.188 -1.94986 -3.94549 0
M  V30 3458 H 311.307 -0.448364 -0.584926 0
M  V30 3459 H 313.949 -1.62297 -0.987917 0
M  V30 3460 H 312.099 -1.75599 -3.46551 0
M  V30 3461 H 313.771 -4.04652 -2.21483 0
M  V30 3462 H 312.014 -3.83813 -2.02164 0
M  V30 3463 H 312.685 -4.16522 -3.62234 0
M  V30 3464 H 315.161 -2.24189 -3.5054 0
M  V30 3465 H 314.037 -2.57356 -4.84829 0
M  V30 3466 H 314.298 -0.917263 -4.3248 0
M  V30 3467 N 313.357 1.07166 -1.15556 0
M  V30 3468 C 314.582 1.84053 -0.955988 0
M  V30 3469 C 315.007 1.81586 0.490739 0
M  V30 3470 O 314.365 1.21018 1.34997 0
M  V30 3471 C 314.413 3.28957 -1.47714 0
M  V30 3472 O 313.517 4.06795 -0.677593 0
M  V30 3473 H 312.858 0.569842 -0.340847 0
M  V30 3474 H 315.388 1.35178 -1.53584 0
M  V30 3475 H 315.398 3.79788 -1.4908 0
M  V30 3476 H 314.073 3.30068 -2.53037 0
M  V30 3477 H 312.65 3.6561 -0.733721 0
M  V30 3478 N 314.835 0.952656 1.25548 0
M  V30 3479 C 316.084 0.602053 1.92505 0
M  V30 3480 C 316.397 -0.864663 1.75451 0
M  V30 3481 O 317.603 -1.32514 2.36965 0
M  V30 3482 C 316.059 1.02607 3.44963 0
M  V30 3483 C 315.667 2.51519 3.70732 0
M  V30 3484 C 317.411 0.747905 4.1786 0
M  V30 3485 C 315.318 2.87732 5.16686 0
M  V30 3486 H 314.248 0.22146 0.720744 0
M  V30 3487 H 316.899 1.15684 1.42441 0
M  V30 3488 H 315.281 0.399712 3.93978 0
M  V30 3489 H 316.455 3.19157 3.32378 0
M  V30 3490 H 314.77 2.76786 3.11092 0
M  V30 3491 H 317.367 0.994647 5.25367 0
M  V30 3492 H 317.71 -0.315629 4.15102 0
M  V30 3493 H 318.243 1.33452 3.74747 0
M  V30 3494 H 314.982 3.93095 5.24554 0
M  V30 3495 H 314.502 2.24765 5.56094 0
M  V30 3496 H 316.181 2.76817 5.84792 0
M  V30 3497 N 316.313 -1.40141 0.720998 0
M  V30 3498 C 317.538 -2.05618 0.271258 0
M  V30 3499 C 317.963 -1.53978 -1.08039 0
M  V30 3500 O 317.321 -0.677463 -1.68167 0
M  V30 3501 C 317.369 -3.59609 0.267197 0
M  V30 3502 O 316.473 -4.05526 -0.749814 0
M  V30 3503 H 315.814 -0.651904 0.126162 0
M  V30 3504 H 318.344 -1.79439 0.982997 0
M  V30 3505 H 318.354 -4.0786 0.106744 0
M  V30 3506 H 317.029 -3.96559 1.25354 0
M  V30 3507 H 315.606 -3.68722 -0.556644 0
M  V30 3508 N 317.792 -0.46758 -1.50504 0
M  V30 3509 C 319.04 0.0884469 -2.01906 0
M  V30 3510 C 319.361 1.40532 -1.35188 0
M  V30 3511 O 318.631 1.89515 -0.496079 0
M  V30 3512 H 317.211 0.0356765 -0.746148 0
M  V30 3513 H 319.873 -0.6172 -1.84869 0
M  V30 3514 H 318.969 0.2425 -3.11156 0
M  V30 3515 N 319.27 1.56325 -0.20005 0
M  V30 3516 C 320.516 1.98012 0.438059 0
M  V30 3517 C 320.849 1.08702 1.60927 0
M  V30 3518 O 320.124 0.140064 1.93995 0
M  V30 3519 C 320.407 3.48841 0.893419 0
M  V30 3520 C 320.26 4.48928 -0.279947 0
M  V30 3521 C 321.579 4.03498 1.75719 0
M  V30 3522 H 318.698 0.719918 0.157757 0
M  V30 3523 H 321.34 1.87743 -0.291968 0
M  V30 3524 H 319.49 3.57723 1.51547 0
M  V30 3525 H 321.162 4.52079 -0.91772 0
M  V30 3526 H 319.405 4.23694 -0.930919 0
M  V30 3527 H 320.076 5.5194 0.0812601 0
M  V30 3528 H 322.552 3.97427 1.23253 0
M  V30 3529 H 321.428 5.09393 2.04476 0
M  V30 3530 H 321.689 3.4906 2.71311 0
M  V30 3531 N 320.748 -0.0735177 1.57428 0
M  V30 3532 C 321.711 -1.07192 2.02589 0
M  V30 3533 C 322.711 -1.31695 0.922661 0
M  V30 3534 O 323.901 -1.27445 1.18758 0
M  V30 3535 C 321.033 -2.41599 2.40506 0
M  V30 3536 H 322.226 -0.682727 2.92025 0
M  V30 3537 H 319.779 -0.319193 1.53006 0
M  V30 3538 H 320.514 -2.85354 1.5409 0
M  V30 3539 H 320.299 -2.25156 3.21009 0
M  V30 3540 H 321.789 -3.13367 2.76027 0
M  V30 3541 N 322.226 -1.5378 -0.344866 0
M  V30 3542 C 323.642 -1.44015 -0.687888 0
M  V30 3543 C 323.842 -0.595834 -1.92489 0
M  V30 3544 O 322.898 -0.0863064 -2.52352 0
M  V30 3545 C 324.211 -2.87481 -0.881758 0
M  V30 3546 C 325.759 -2.97247 -0.980459 0
M  V30 3547 C 326.234 -4.41819 -1.20665 0
M  V30 3548 N 327.725 -4.45339 -1.27389 0
M  V30 3549 C 328.46 -5.54333 -1.46639 0
M  V30 3550 N 327.956 -6.73335 -1.63071 0
M  V30 3551 N 329.749 -5.41944 -1.49176 0
M  V30 3552 H 321.9 -2.07169 0.468475 0
M  V30 3553 H 324.163 -0.93643 0.147655 0
M  V30 3554 H 323.869 -3.51672 -0.0443444 0
M  V30 3555 H 323.743 -3.32352 -1.78388 0
M  V30 3556 H 326.13 -2.33197 -1.8084 0
M  V30 3557 H 326.211 -2.5574 -0.0552713 0
M  V30 3558 H 325.855 -5.06449 -0.383652 0
M  V30 3559 H 325.785 -4.80917 -2.14539 0
M  V30 3560 H 328.276 -3.59585 -1.1622 0
M  V30 3561 H 328.589 -7.52165 -1.77391 0
M  V30 3562 H 326.934 -6.76282 -1.60209 0
M  V30 3563 H 330.125 -4.47932 -1.3592 0
M  V30 3564 H 330.298 -6.26946 -1.63837 0
M  V30 3565 N 323.704 0.605807 -1.45491 0
M  V30 3566 C 324.651 1.7164 -1.54299 0
M  V30 3567 C 325.621 1.61486 -0.388761 0
M  V30 3568 O 326.806 1.81039 -0.602445 0
M  V30 3569 C 323.946 3.09953 -1.51734 0
M  V30 3570 C 323.059 3.309 -2.77721 0
M  V30 3571 C 322.194 4.59329 -2.66816 0
M  V30 3572 C 321.233 4.7354 -3.87848 0
M  V30 3573 N 320.37 5.9327 -3.75467 0
M  V30 3574 H 325.21 1.63449 -2.49176 0
M  V30 3575 H 322.747 0.796957 -1.23641 0
M  V30 3576 H 324.705 3.89977 -1.48235 0
M  V30 3577 H 323.335 3.17098 -0.604068 0
M  V30 3578 H 322.387 2.44639 -2.913 0
M  V30 3579 H 323.699 3.37274 -3.67488 0
M  V30 3580 H 322.853 5.4755 -2.61292 0
M  V30 3581 H 321.592 4.55355 -1.74651 0
M  V30 3582 H 320.597 3.83741 -3.93729 0
M  V30 3583 H 321.822 4.79309 -4.81082 0
M  V30 3584 H 319.768 5.90338 -2.86072 0
M  V30 3585 H 319.685 6.00811 -4.5887 0
M  V30 3586 H 320.953 6.83984 -3.73879 0
M  V30 3587 N 325.182 1.32811 0.848464 0
M  V30 3588 C 326.429 1.23724 1.60308 0
M  V30 3589 C 326.757 -0.1994 1.93475 0
M  V30 3590 O 326.012 -1.15406 1.5805 0
M  V30 3591 C 326.311 2.04831 2.92881 0
M  V30 3592 C 325.977 3.54125 2.79117 0
M  V30 3593 C 324.639 3.94829 2.7507 0
M  V30 3594 C 326.991 4.49036 2.64606 0
M  V30 3595 C 324.319 5.28675 2.544 0
M  V30 3596 C 326.671 5.83033 2.4547 0
M  V30 3597 C 325.335 6.22931 2.39819 0
M  V30 3598 H 324.605 0.452737 0.586609 0
M  V30 3599 H 327.252 1.64301 0.983743 0
M  V30 3600 H 325.557 1.57001 3.58968 0
M  V30 3601 H 327.254 1.95164 3.50303 0
M  V30 3602 H 323.844 3.21801 2.83094 0
M  V30 3603 H 328.028 4.18505 2.66772 0
M  V30 3604 H 323.284 5.58637 2.48465 0
M  V30 3605 H 327.458 6.56186 2.33222 0
M  V30 3606 H 325.085 7.26584 2.23562 0
M  V30 3607 N 326.66 -1.06551 1.16123 0
M  V30 3608 C 327.888 -1.83005 0.965237 0
M  V30 3609 C 328.303 -1.82423 -0.486542 0
M  V30 3610 O 327.66 -1.24152 -1.33763 0
M  V30 3611 C 327.711 -3.29733 1.48183 0
M  V30 3612 O 327.432 -3.30416 2.87674 0
M  V30 3613 C 328.933 -4.22926 1.32848 0
M  V30 3614 H 326.153 -0.577118 0.342309 0
M  V30 3615 H 328.697 -1.3445 1.54089 0
M  V30 3616 H 326.852 -3.75609 0.948517 0
M  V30 3617 H 327.266 -4.22149 3.11272 0
M  V30 3618 H 328.74 -5.23916 1.73827 0
M  V30 3619 H 329.217 -4.38346 0.273692 0
M  V30 3620 H 329.823 -3.82894 1.85127 0
M  V30 3621 N 328.138 -0.959301 -1.25041 0
M  V30 3622 C 329.048 -0.489994 -2.29426 0
M  V30 3623 C 330.064 0.444944 -1.68215 0
M  V30 3624 O 331.24 0.320046 -1.98841 0
M  V30 3625 C 328.305 0.220309 -3.45999 0
M  V30 3626 C 327.366 -0.753418 -4.22637 0
M  V30 3627 C 326.599 -0.076918 -5.33645 0
M  V30 3628 O 326.822 1.13649 -5.58963 0
M  V30 3629 O 325.756 -0.764824 -5.97021 0
M  V30 3630 H 329.582 -1.35755 -2.71669 0
M  V30 3631 H 327.167 -0.725961 -1.30576 0
M  V30 3632 H 329.049 0.619677 -4.16819 0
M  V30 3633 H 327.724 1.06296 -3.0575 0
M  V30 3634 H 326.631 -1.20308 -3.54227 0
M  V30 3635 H 327.964 -1.56423 -4.66683 0
M  V30 3636 N 329.616 1.39756 -0.72842 0
M  V30 3637 C 330.526 2.34444 -0.0855374 0
M  V30 3638 C 331.542 1.57976 0.729356 0
M  V30 3639 O 332.718 1.90301 0.659346 0
M  V30 3640 C 329.783 3.36965 0.815798 0
M  V30 3641 C 328.844 4.29299 -0.0105996 0
M  V30 3642 C 328.077 5.26923 0.84781 0
M  V30 3643 O 328.3 5.30859 2.08673 0
M  V30 3644 O 327.234 6.01249 0.279969 0
M  V30 3645 H 331.06 2.91065 -0.866892 0
M  V30 3646 H 328.645 1.4117 -0.48902 0
M  V30 3647 H 330.527 3.99804 1.33171 0
M  V30 3648 H 329.202 2.82739 1.57608 0
M  V30 3649 H 328.109 3.69703 -0.571877 0
M  V30 3650 H 329.442 4.86712 -0.73295 0
M  V30 3651 N 331.094 0.475555 1.50254 0
M  V30 3652 C 332.041 -0.316293 2.28622 0
M  V30 3653 C 333.011 -0.983227 1.33873 0
M  V30 3654 O 334.196 -0.994805 1.62814 0
M  V30 3655 C 331.336 -1.38975 3.1588 0
M  V30 3656 C 330.449 -0.737146 4.25664 0
M  V30 3657 C 329.584 -1.78887 5.00173 0
M  V30 3658 C 328.623 -1.11676 6.01826 0
M  V30 3659 N 327.76 -2.11154 6.69596 0
M  V30 3660 H 332.6 0.358297 2.95838 0
M  V30 3661 H 330.137 0.188541 1.45887 0
M  V30 3662 H 332.095 -2.02383 3.64825 0
M  V30 3663 H 330.725 -2.03344 2.50701 0
M  V30 3664 H 329.777 0.0096065 3.80399 0
M  V30 3665 H 331.089 -0.206816 4.98371 0
M  V30 3666 H 330.243 -2.49865 5.52859 0
M  V30 3667 H 328.982 -2.35302 4.27182 0
M  V30 3668 H 327.987 -0.392633 5.48396 0
M  V30 3669 H 329.212 -0.55945 6.76792 0
M  V30 3670 H 327.158 -2.66577 5.99394 0
M  V30 3671 H 327.075 -1.63118 7.38193 0
M  V30 3672 H 328.343 -2.81497 7.26897 0
M  V30 3673 N 332.573 -1.56217 0.208337 0
M  V30 3674 C 333.822 -1.97124 -0.427204 0
M  V30 3675 C 334.135 -1.09859 -1.61835 0
M  V30 3676 O 335.341 -1.40606 -2.32255 0
M  V30 3677 C 333.797 -3.50633 -0.811442 0
M  V30 3678 C 333.405 -4.46582 0.35615 0
M  V30 3679 C 335.149 -4.00282 -1.41332 0
M  V30 3680 C 333.056 -5.91379 -0.0497852 0
M  V30 3681 H 331.986 -0.736086 -0.163381 0
M  V30 3682 H 334.637 -1.8099 0.302456 0
M  V30 3683 H 333.019 -3.62319 -1.59815 0
M  V30 3684 H 334.193 -4.46636 1.1337 0
M  V30 3685 H 332.508 -4.07202 0.870396 0
M  V30 3686 H 335.105 -5.0595 -1.72972 0
M  V30 3687 H 335.448 -3.45359 -2.32449 0
M  V30 3688 H 335.981 -3.91764 -0.690323 0
M  V30 3689 H 332.72 -6.50255 0.827529 0
M  V30 3690 H 332.24 -5.94549 -0.791926 0
M  V30 3691 H 333.919 -6.45209 -0.481042 0
M  V30 3692 N 334.051 0.0651679 -1.57465 0
M  V30 3693 C 334.961 1.09448 -2.07505 0
M  V30 3694 C 335.977 1.41974 -1.00595 0
M  V30 3695 O 337.153 1.52018 -1.32107 0
M  V30 3696 C 334.218 2.38689 -2.51453 0
M  V30 3697 C 333.279 2.13073 -3.72691 0
M  V30 3698 C 332.512 3.36152 -4.14533 0
M  V30 3699 O 332.735 4.45517 -3.56189 0
M  V30 3700 O 331.669 3.23974 -5.07272 0
M  V30 3701 H 335.495 0.69935 -2.95538 0
M  V30 3702 H 333.08 0.279752 -1.46757 0
M  V30 3703 H 334.962 3.14736 -2.80212 0
M  V30 3704 H 333.637 2.77568 -1.66546 0
M  V30 3705 H 332.544 1.34709 -3.49005 0
M  V30 3706 H 333.877 1.79071 -4.5847 0
M  V30 3707 N 335.529 1.53961 0.336706 0
M  V30 3708 C 336.439 1.85432 1.43708 0
M  V30 3709 C 337.455 0.745053 1.57242 0
M  V30 3710 O 338.631 1.03804 1.72588 0
M  V30 3711 C 335.696 2.06349 2.78605 0
M  V30 3712 C 334.757 3.30191 2.74358 0
M  V30 3713 C 333.99 3.50101 4.02822 0
M  V30 3714 O 334.213 2.7371 5.00439 0
M  V30 3715 O 333.147 4.43547 4.06878 0
M  V30 3716 H 336.973 2.78975 1.20028 0
M  V30 3717 H 334.558 1.39701 0.52952 0
M  V30 3718 H 336.44 2.21513 3.58483 0
M  V30 3719 H 335.115 1.15995 3.02203 0
M  V30 3720 H 334.022 3.20425 1.93078 0
M  V30 3721 H 335.355 4.2056 2.55715 0
M  V30 3722 N 337.007 -0.598083 1.45811 0
M  V30 3723 C 338.237 -1.38121 1.53643 0
M  V30 3724 C 338.645 -1.88425 0.171081 0
M  V30 3725 O 337.988 -1.63409 -0.839237 0
M  V30 3726 C 338.05 -2.61432 2.46766 0
M  V30 3727 C 337.714 -2.32702 3.93318 0
M  V30 3728 C 338.711 -1.92479 4.82957 0
M  V30 3729 C 336.396 -2.45321 4.38318 0
M  V30 3730 C 338.39 -1.65248 6.15607 0
M  V30 3731 C 336.077 -2.17703 5.71007 0
M  V30 3732 C 337.075 -1.7773 6.5947 0
M  V30 3733 O 336.763 -1.50441 7.89698 0
M  V30 3734 H 336.495 -0.428863 0.522544 0
M  V30 3735 H 339.049 -0.73557 1.91777 0
M  V30 3736 H 337.279 -3.28749 2.0362 0
M  V30 3737 H 338.968 -3.23487 2.45175 0
M  V30 3738 H 339.734 -1.82258 4.49452 0
M  V30 3739 H 335.613 -2.75399 3.69697 0
M  V30 3740 H 339.157 -1.33973 6.84614 0
M  V30 3741 H 335.054 -2.27544 6.04065 0
M  V30 3742 H 335.822 -1.64415 8.01817 0
M  V30 3743 N 338.485 -1.33259 -0.841409 0
M  V30 3744 C 339.71 -1.2775 -1.63385 0
M  V30 3745 C 340.135 0.149188 -1.87507 0
M  V30 3746 O 339.493 1.10498 -1.43736 0
M  V30 3747 C 339.541 -2.05571 -2.96265 0
M  V30 3748 O 338.645 -1.41257 -3.87453 0
M  V30 3749 H 337.986 -0.439627 -0.497618 0
M  V30 3750 H 340.516 -1.75782 -1.04699 0
M  V30 3751 H 340.526 -2.16241 -3.45982 0
M  V30 3752 H 339.201 -3.09309 -2.7803 0
M  V30 3753 H 337.778 -1.39217 -3.45938 0
M  V30 3754 N 339.963 1.05934 -1.16686 0
M  V30 3755 C 341.24 1.75643 -0.860747 0
M  V30 3756 C 341.62 2.01144 0.640641 0
M  V30 3757 O 340.968 1.64147 1.58959 0
M  V30 3758 C 341.178 3.05493 -1.68745 0
M  V30 3759 C 342.526 3.79581 -1.90271 0
M  V30 3760 O 343.55 3.15344 -1.65641 0
M  V30 3761 O 342.409 4.9499 -2.31618 0
M  V30 3762 H 339.503 0.763426 -0.317977 0
M  V30 3763 H 342.049 1.1217 -1.27342 0
M  V30 3764 H 340.821 2.8264 -2.70611 0
M  V30 3765 H 340.444 3.76702 -1.27206 0
M  V30 3766 N 341.441 0.965919 1.2453 0
M  V30 3767 C 342.687 0.62776 1.92839 0
M  V30 3768 C 343.02 -0.834694 1.75347 0
M  V30 3769 O 342.295 -1.60031 1.10546 0
M  V30 3770 C 342.578 1.00109 3.45905 0
M  V30 3771 C 342.431 2.52011 3.72573 0
M  V30 3772 C 343.75 0.53435 4.36844 0
M  V30 3773 H 340.869 0.229537 0.700344 0
M  V30 3774 H 343.511 1.2046 1.46933 0
M  V30 3775 H 341.661 0.510238 3.85135 0
M  V30 3776 H 343.333 3.08559 3.42912 0
M  V30 3777 H 341.576 2.95287 3.17786 0
M  V30 3778 H 342.247 2.73183 4.79661 0
M  V30 3779 H 344.723 0.955565 4.04979 0
M  V30 3780 H 343.599 0.824152 5.42678 0
M  V30 3781 H 343.86 -0.565589 4.38467 0
M  V30 3782 N 342.919 -1.39368 0.735821 0
M  V30 3783 C 343.849 -2.33234 0.111506 0
M  V30 3784 C 344.83 -1.53954 -0.723334 0
M  V30 3785 O 346.015 -1.82344 -0.668147 0
M  V30 3786 C 343.145 -3.38057 -0.795917 0
M  V30 3787 C 342.099 -4.2795 -0.065172 0
M  V30 3788 C 341.425 -5.23479 -1.08967 0
M  V30 3789 C 342.725 -5.10741 1.09273 0
M  V30 3790 H 344.419 -2.85692 0.895571 0
M  V30 3791 H 341.965 -1.37364 0.432109 0
M  V30 3792 H 343.918 -4.02675 -1.24221 0
M  V30 3793 H 342.642 -2.8404 -1.61211 0
M  V30 3794 H 341.301 -3.64813 0.361511 0
M  V30 3795 H 340.949 -4.65758 -1.89944 0
M  V30 3796 H 340.649 -5.84472 -0.605489 0
M  V30 3797 H 342.173 -5.90974 -1.53565 0
M  V30 3798 H 343.587 -5.68699 0.724841 0
M  V30 3799 H 341.984 -5.8088 1.50659 0
M  V30 3800 H 343.054 -4.45525 1.91404 0
M  V30 3801 N 344.397 -0.483516 -1.5 0
M  V30 3802 C 345.344 0.304164 -2.28787 0
M  V30 3803 C 346.314 0.976114 -1.34392 0
M  V30 3804 O 347.499 0.986156 -1.63339 0
M  V30 3805 C 344.639 1.37298 -3.16612 0
M  V30 3806 C 343.752 0.714561 -4.26049 0
M  V30 3807 C 342.887 1.76232 -5.01114 0
M  V30 3808 C 341.926 1.08483 -6.0241 0
M  V30 3809 N 341.063 2.076 -6.70706 0
M  V30 3810 H 345.903 -0.373981 -2.95644 0
M  V30 3811 H 343.44 -0.196275 -1.45785 0
M  V30 3812 H 345.398 2.00445 -3.65893 0
M  V30 3813 H 344.028 2.02012 -2.51776 0
M  V30 3814 H 343.08 -0.0297798 -3.80388 0
M  V30 3815 H 344.392 0.180383 -4.98474 0
M  V30 3816 H 343.546 2.46929 -5.54176 0
M  V30 3817 H 342.285 2.33033 -4.28424 0
M  V30 3818 H 341.29 0.363545 -5.48597 0
M  V30 3819 H 342.515 0.523551 -6.77079 0
M  V30 3820 H 340.461 2.63394 -6.00799 0
M  V30 3821 H 340.378 1.59201 -7.39047 0
M  V30 3822 H 341.646 2.77639 -7.2838 0
M  V30 3823 N 345.875 1.56104 -0.216619 0
M  V30 3824 C 346.785 2.23694 0.706982 0
M  V30 3825 C 347.801 1.24295 1.21765 0
M  V30 3826 O 348.977 1.57094 1.2603 0
M  V30 3827 C 346.042 2.8998 1.90033 0
M  V30 3828 C 345.103 4.04708 1.43213 0
M  V30 3829 C 344.336 4.67824 2.56859 0
M  V30 3830 O 344.559 4.29913 3.74874 0
M  V30 3831 O 343.493 5.56905 2.28343 0
M  V30 3832 H 347.319 3.03272 0.161235 0
M  V30 3833 H 344.904 1.49394 0.0136177 0
M  V30 3834 H 346.786 3.31837 2.59735 0
M  V30 3835 H 345.461 2.13365 2.43428 0
M  V30 3836 H 344.368 3.6743 0.70327 0
M  V30 3837 H 345.701 4.83051 0.944615 0
M  V30 3838 N 347.353 -0.0568162 1.57498 0
M  V30 3839 C 348.3 -1.06591 2.04712 0
M  V30 3840 C 349.27 -1.3758 0.930644 0
M  V30 3841 O 350.455 -1.48392 1.19935 0
M  V30 3842 C 347.595 -2.3701 2.50839 0
M  V30 3843 C 346.708 -2.12421 3.76167 0
M  V30 3844 C 345.843 -3.36511 4.11015 0
M  V30 3845 C 344.882 -3.07353 5.2934 0
M  V30 3846 N 344.019 -4.23816 5.59754 0
M  V30 3847 H 348.859 -0.65631 2.90683 0
M  V30 3848 H 346.396 -0.312481 1.43743 0
M  V30 3849 H 348.354 -3.13175 2.7564 0
M  V30 3850 H 346.984 -2.75744 1.67825 0
M  V30 3851 H 346.036 -1.2688 3.58616 0
M  V30 3852 H 347.348 -1.86894 4.62463 0
M  V30 3853 H 346.502 -4.21062 4.36797 0
M  V30 3854 H 345.241 -3.65128 3.23315 0
M  V30 3855 H 344.246 -2.212 5.03339 0
M  V30 3856 H 345.471 -2.80043 6.1867 0
M  V30 3857 H 343.417 -4.52436 4.75014 0
M  V30 3858 H 343.334 -4.01614 6.40501 0
M  V30 3859 H 344.602 -5.0932 5.90096 0
M  V30 3860 N 348.832 -1.54138 -0.328536 0
M  V30 3861 C 349.795 -1.82462 -1.38709 0
M  V30 3862 C 350.795 -0.696229 -1.44946 0
M  V30 3863 O 351.985 -0.964535 -1.4506 0
M  V30 3864 C 349.117 -1.98018 -2.77492 0
M  V30 3865 H 350.31 -2.77037 -1.14851 0
M  V30 3866 H 347.863 -1.45779 -0.563751 0
M  V30 3867 H 348.598 -1.05637 -3.06613 0
M  V30 3868 H 348.383 -2.80124 -2.74359 0
M  V30 3869 H 349.873 -2.21396 -3.54081 0
M  V30 3870 N 350.31 0.590341 -1.46126 0
M  V30 3871 C 351.22 1.72793 -1.58681 0
M  V30 3872 C 352.236 1.67516 -0.470566 0
M  V30 3873 O 353.412 1.87562 -0.733642 0
M  V30 3874 C 350.477 3.09287 -1.5666 0
M  V30 3875 C 349.538 3.25886 -2.79458 0
M  V30 3876 C 348.771 4.55869 -2.77524 0
M  V30 3877 O 348.994 5.3928 -1.85832 0
M  V30 3878 O 347.928 4.75552 -3.68964 0
M  V30 3879 H 351.754 1.65149 -2.54872 0
M  V30 3880 H 349.339 0.756486 -1.28832 0
M  V30 3881 H 351.221 3.90577 -1.58202 0
M  V30 3882 H 349.896 3.17385 -0.636271 0
M  V30 3883 H 348.803 2.44119 -2.83472 0
M  V30 3884 H 350.136 3.22675 -3.71674 0
M  V30 3885 N 351.788 1.33704 0.83433 0
M  V30 3886 C 352.698 1.26382 1.97648 0
M  V30 3887 C 353.714 0.173548 1.73132 0
M  V30 3888 O 354.89 0.397962 1.97429 0
M  V30 3889 C 351.955 1.00769 3.31733 0
M  V30 3890 C 351.016 2.1884 3.69334 0
M  V30 3891 C 350.249 1.9444 4.9702 0
M  V30 3892 O 350.472 0.896961 5.63303 0
M  V30 3893 O 349.406 2.81093 5.32231 0
M  V30 3894 H 353.232 2.22444 2.06767 0
M  V30 3895 H 350.817 1.13795 0.968037 0
M  V30 3896 H 352.699 0.882186 4.12062 0
M  V30 3897 H 351.374 0.0773783 3.23608 0
M  V30 3898 H 350.281 2.36946 2.89495 0
M  V30 3899 H 351.614 3.10221 3.82131 0
M  V30 3900 N 353.266 -1.05314 1.17247 0
M  V30 3901 C 354.515 -1.77685 0.954521 0
M  V30 3902 C 354.828 -1.88616 -0.518025 0
M  V30 3903 O 356.034 -2.57714 -0.854144 0
M  V30 3904 C 354.49 -3.19402 1.65863 0
M  V30 3905 C 354.098 -3.16605 3.16963 0
M  V30 3906 C 355.842 -3.96237 1.52303 0
M  V30 3907 C 353.749 -4.53103 3.80068 0
M  V30 3908 H 352.679 -0.666 0.353496 0
M  V30 3909 H 355.33 -1.1805 1.40486 0
M  V30 3910 H 353.712 -3.79355 1.13602 0
M  V30 3911 H 354.886 -2.66176 3.76148 0
M  V30 3912 H 353.201 -2.53268 3.30521 0
M  V30 3913 H 355.798 -4.97157 1.96822 0
M  V30 3914 H 356.141 -4.136 0.473401 0
M  V30 3915 H 356.674 -3.42829 2.01775 0
M  V30 3916 H 353.413 -4.40946 4.85023 0
M  V30 3917 H 352.933 -5.03686 3.2567 0
M  V30 3918 H 354.612 -5.22045 3.82202 0
M  V30 3919 N 354.744 -0.972509 -1.24016 0
M  V30 3920 C 355.969 -0.654417 -1.96805 0
M  V30 3921 C 356.394 0.770398 -1.716 0
M  V30 3922 O 355.752 1.52361 -0.982647 0
M  V30 3923 C 355.8 -0.941031 -3.48105 0
M  V30 3924 O 354.904 -0.0289472 -4.1239 0
M  V30 3925 H 354.245 -0.24692 -0.616382 0
M  V30 3926 H 356.775 -1.30396 -1.57664 0
M  V30 3927 H 356.785 -0.87452 -3.98517 0
M  V30 3928 H 355.46 -1.97939 -3.65777 0
M  V30 3929 H 354.037 -0.149192 -3.72601 0
M  V30 3930 N 356.222 1.38976 -0.743202 0
M  V30 3931 C 357.638 1.53984 -0.419664 0
M  V30 3932 C 357.838 1.70837 1.0685 0
M  V30 3933 O 356.894 1.7135 1.8546 0
M  V30 3934 C 358.207 2.75287 -1.20985 0
M  V30 3935 C 359.755 2.89129 -1.19889 0
M  V30 3936 C 360.23 4.13381 -1.97181 0
M  V30 3937 N 361.721 4.20437 -1.94389 0
M  V30 3938 C 362.456 5.15547 -2.50996 0
M  V30 3939 N 361.952 6.16395 -3.16274 0
M  V30 3940 N 363.745 5.07822 -2.40984 0
M  V30 3941 H 355.896 1.26285 -1.7078 0
M  V30 3942 H 358.159 0.612689 -0.723406 0
M  V30 3943 H 357.865 2.69204 -2.26323 0
M  V30 3944 H 357.739 3.68184 -0.819759 0
M  V30 3945 H 360.126 2.947 -0.153606 0
M  V30 3946 H 360.207 1.97272 -1.62841 0
M  V30 3947 H 359.851 4.08572 -3.01714 0
M  V30 3948 H 359.781 5.04298 -1.51629 0
M  V30 3949 H 362.272 3.48205 -1.46839 0
M  V30 3950 H 362.585 6.85443 -3.56915 0
M  V30 3951 H 360.93 6.16758 -3.20367 0
M  V30 3952 H 364.121 4.27973 -1.89622 0
M  V30 3953 H 364.294 5.81767 -2.85397 0
M  V30 3954 N 357.7 0.491464 1.49741 0
M  V30 3955 C 358.647 -0.292027 2.28945 0
M  V30 3956 C 359.617 -0.968973 1.34908 0
M  V30 3957 O 360.802 -0.97748 1.6386 0
M  V30 3958 C 357.942 -1.35617 3.17336 0
M  V30 3959 C 357.055 -0.691957 4.26422 0
M  V30 3960 C 356.19 -1.73572 5.02042 0
M  V30 3961 C 355.229 -1.05286 6.02977 0
M  V30 3962 N 354.366 -2.0404 6.71798 0
M  V30 3963 H 359.206 0.389654 2.95442 0
M  V30 3964 H 356.743 0.204003 1.45679 0
M  V30 3965 H 358.701 -1.98502 3.66951 0
M  V30 3966 H 357.331 -2.00674 2.52844 0
M  V30 3967 H 356.383 0.0499523 3.80367 0
M  V30 3968 H 357.695 -0.153946 4.98562 0
M  V30 3969 H 356.849 -2.43987 5.55478 0
M  V30 3970 H 355.588 -2.30757 4.29654 0
M  V30 3971 H 354.593 -0.334446 5.48782 0
M  V30 3972 H 355.818 -0.487636 6.77347 0
M  V30 3973 H 353.764 -2.60205 6.02187 0
M  V30 3974 H 353.681 -1.55279 7.39881 0
M  V30 3975 H 354.949 -2.73772 7.29842 0
M  V30 3976 N 359.178 -1.55987 0.224894 0
M  V30 3977 C 360.108 -2.23426 -0.678457 0
M  V30 3978 C 361.089 -1.20709 -1.19847 0
M  V30 3979 O 362.274 -1.49304 -1.24186 0
M  V30 3980 C 359.404 -2.91676 -1.88527 0
M  V30 3981 C 358.358 -4.00893 -1.49896 0
M  V30 3982 C 357.684 -4.56455 -2.78483 0
M  V30 3983 C 358.984 -5.17769 -0.686461 0
M  V30 3984 H 360.678 -2.99175 -0.116173 0
M  V30 3985 H 358.224 -1.43897 -0.054436 0
M  V30 3986 H 360.177 -3.37547 -2.5227 0
M  V30 3987 H 358.901 -2.1338 -2.47258 0
M  V30 3988 H 357.56 -3.55758 -0.884985 0
M  V30 3989 H 357.208 -3.74886 -3.35365 0
M  V30 3990 H 356.908 -5.30169 -2.53368 0
M  V30 3991 H 358.432 -5.05047 -3.43162 0
M  V30 3992 H 359.846 -5.60001 -1.22767 0
M  V30 3993 H 358.243 -5.97735 -0.532259 0
M  V30 3994 H 359.313 -4.83932 0.306196 0
M  V30 3995 N 360.656 0.0484629 -1.57525 0
M  V30 3996 C 361.904 0.741657 -1.88 0
M  V30 3997 C 362.225 1.76918 -0.820054 0
M  V30 3998 O 361.495 1.95335 0.148661 0
M  V30 3999 H 360.075 0.276908 -0.69378 0
M  V30 4000 H 362.737 0.019013 -1.94891 0
M  V30 4001 H 361.833 1.24336 -2.86264 0
M  V30 4002 N 362.134 1.5431 0.320358 0
M  V30 4003 C 363.364 1.7638 1.07582 0
M  V30 4004 C 363.772 0.513944 1.82086 0
M  V30 4005 O 363.115 -0.525123 1.76035 0
M  V30 4006 C 363.177 2.9055 2.1171 0
M  V30 4007 C 362.841 4.2934 1.56575 0
M  V30 4008 C 363.838 5.10077 1.00586 0
M  V30 4009 C 361.523 4.75893 1.60722 0
M  V30 4010 C 363.517 6.35477 0.494756 0
M  V30 4011 C 361.204 6.0126 1.09224 0
M  V30 4012 C 362.202 6.80886 0.53696 0
M  V30 4013 O 361.89 8.03894 0.0297371 0
M  V30 4014 H 361.622 0.592369 0.325692 0
M  V30 4015 H 364.176 2.02019 0.37116 0
M  V30 4016 H 362.406 2.60489 2.85801 0
M  V30 4017 H 364.095 3.00373 2.73003 0
M  V30 4018 H 364.861 4.75265 0.966869 0
M  V30 4019 H 360.74 4.13957 2.02882 0
M  V30 4020 H 364.284 6.97574 0.0606842 0
M  V30 4021 H 360.181 6.35562 1.12831 0
M  V30 4022 H 360.949 8.18372 0.14486 0
M  V30 4023 O 363.651 -0.466303 1.54622 0
M  V30 4024 H 364.342 -1.12058 1.57996 0
M  V30 END ATOM
M  V30 BEGIN BOND
M  V30 END BOND
M  V30 END CTAB
M  END
$$$$
