drugbank_target|Q5MYR6 1-cys peroxiredoxin (DB03661)
 OpenBabel12092120283D

  0  0  0     0  0            999 V3000
M  V30 BEGIN CTAB
M  V30 COUNTS 3951 3989 0 0 0
M  V30 BEGIN ATOM
M  V30 1 H -0.908 1.98254 -0.117106 0
M  V30 2 N 0 1.576 0 0
M  V30 3 C 0.933 2.03868 1.02534 0
M  V30 4 C 1.911 0.928543 1.3348 0
M  V30 5 O 3.095 1.19667 1.45644 0
M  V30 6 C 0.222 2.43627 2.35294 0
M  V30 7 C -0.732 3.65373 2.2001 0
M  V30 8 S 0.101 5.13292 1.52614 0
M  V30 9 C 1.257 5.56322 2.86805 0
M  V30 10 H 1.49 2.90518 0.631377 0
M  V30 11 H -0.977 1.52953 0.210867 0
M  V30 12 H 0.981 2.67203 3.11629 0
M  V30 13 H -0.358 1.57376 2.7183 0
M  V30 14 H -1.165 3.90944 3.18086 0
M  V30 15 H -1.563 3.418 1.51819 0
M  V30 16 H 0.729 5.58782 3.83104 0
M  V30 17 H 1.672 6.56266 2.65933 0
M  V30 18 H 2.08 4.83886 2.90714 0
M  V30 19 N 1.4781 -0.272755 1.55222 0
M  V30 20 C 2.8941 -0.619959 1.47067 0
M  V30 21 C 3.0941 -1.895 0.684978 0
M  V30 22 O 2.1501 -2.51675 0.203931 0
M  V30 23 C 3.4631 -0.746693 2.91282 0
M  V30 24 C 5.0111 -0.840731 3.01497 0
M  V30 25 C 5.4861 -0.99924 4.46967 0
M  V30 26 N 6.9771 -1.06476 4.50796 0
M  V30 27 C 7.7121 -1.20621 5.6057 0
M  V30 28 N 7.2081 -1.31483 6.80209 0
M  V30 29 N 9.0011 -1.23733 5.48312 0
M  V30 30 H 1.1521 0.564606 2.04758 0
M  V30 31 H 3.4151 0.191177 0.928523 0
M  V30 32 H 3.1211 0.119753 3.51496 0
M  V30 33 H 2.9951 -1.6269 3.40311 0
M  V30 34 H 5.3821 -1.69764 2.41379 0
M  V30 35 H 5.4631 0.0640874 2.5572 0
M  V30 36 H 5.1071 -0.146984 5.07687 0
M  V30 37 H 5.0371 -1.91871 4.90401 0
M  V30 38 H 7.5281 -0.993196 3.64615 0
M  V30 39 H 7.8411 -1.42111 7.59621 0
M  V30 40 H 6.1861 -1.28487 6.8302 0
M  V30 41 H 9.3771 -1.14877 4.53785 0
M  V30 42 H 9.5501 -1.34412 6.33906 0
M  V30 43 N 2.9562 -1.48159 -0.537278 0
M  V30 44 C 3.8892 -1.567 -1.65893 0
M  V30 45 C 4.8672 -0.41787 -1.57139 0
M  V30 46 O 6.0512 -0.628461 -1.77715 0
M  V30 47 C 3.1782 -1.48818 -3.04255 0
M  V30 48 C 2.2242 -2.68482 -3.31391 0
M  V30 49 S 3.0572 -4.30516 -3.1846 0
M  V30 50 C 4.2132 -4.2522 -4.59281 0
M  V30 51 H 4.4462 -2.5159 -1.58397 0
M  V30 52 H 1.9792 -1.36602 -0.719672 0
M  V30 53 H 3.9372 -1.44958 -3.84054 0
M  V30 54 H 2.5982 -0.552777 -3.09198 0
M  V30 55 H 1.7912 -2.59085 -4.32309 0
M  V30 56 H 1.3932 -2.69567 -2.59248 0
M  V30 57 H 3.6852 -3.94703 -5.5065 0
M  V30 58 H 4.6282 -5.26292 -4.73732 0
M  V30 59 H 5.0362 -3.55791 -4.38261 0
M  V30 60 N 4.4343 0.785586 -1.36625 0
M  V30 61 C 5.8503 1.08419 -1.17122 0
M  V30 62 C 6.0503 2.015 0.00208491 0
M  V30 63 O 5.1063 2.43551 0.666278 0
M  V30 64 C 6.4193 1.69498 -2.48377 0
M  V30 65 C 7.9673 1.81821 -2.54775 0
M  V30 66 C 8.4423 2.46315 -3.86126 0
M  V30 67 N 9.9333 2.53779 -3.87492 0
M  V30 68 C 10.6683 3.045 -4.85868 0
M  V30 69 N 10.1643 3.55499 -5.94637 0
M  V30 70 N 11.9573 3.03247 -4.73284 0
M  V30 71 H 4.1083 0.167264 -2.1174 0
M  V30 72 H 6.3713 0.13682 -0.938075 0
M  V30 73 H 6.0773 1.08571 -3.34522 0
M  V30 74 H 5.9513 2.6896 -2.64462 0
M  V30 75 H 8.3383 2.41884 -1.69045 0
M  V30 76 H 8.4193 0.811532 -2.42586 0
M  V30 77 H 8.0633 1.86895 -4.72263 0
M  V30 78 H 7.9933 3.47561 -3.95612 0
M  V30 79 H 10.4843 2.17672 -3.08913 0
M  V30 80 H 10.7973 3.92562 -6.65669 0
M  V30 81 H 9.1423 3.5364 -5.98301 0
M  V30 82 H 12.3333 2.62696 -3.87438 0
M  V30 83 H 12.5063 3.42467 -5.50109 0
M  V30 84 N 5.9124 1.20967 1.01018 0
M  V30 85 C 7.3284 0.965905 1.27053 0
M  V30 86 C 7.5284 -0.350785 1.98423 0
M  V30 87 O 6.5844 -1.07773 2.28344 0
M  V30 88 C 7.8974 2.15294 2.09926 0
M  V30 89 C 9.4454 2.19463 2.23171 0
M  V30 90 C 9.9204 3.3767 3.09424 0
M  V30 91 N 11.4114 3.37724 3.17012 0
M  V30 92 C 12.1464 4.25837 3.83993 0
M  V30 93 N 11.6424 5.24138 4.53047 0
M  V30 94 N 13.4354 4.1366 3.80581 0
M  V30 95 H 5.5864 2.0565 0.531194 0
M  V30 96 H 7.8494 0.90024 0.297106 0
M  V30 97 H 7.5554 3.10684 1.64828 0
M  V30 98 H 7.4294 2.13923 3.10672 0
M  V30 99 H 9.8164 1.24632 2.6749 0
M  V30 100 H 9.8974 2.2488 1.21912 0
M  V30 101 H 9.5414 4.32791 2.65808 0
M  V30 102 H 9.4714 3.29491 4.10784 0
M  V30 103 H 11.9624 2.6658 2.6785 0
M  V30 104 H 12.2754 5.87684 5.01844 0
M  V30 105 H 10.6204 5.28068 4.5185 0
M  V30 106 H 13.8114 3.36127 3.25785 0
M  V30 107 H 13.9844 4.82538 4.32505 0
M  V30 108 N 7.3905 -1.2043 1.01659 0
M  V30 109 C 8.6185 -1.93777 0.725132 0
M  V30 110 C 9.0335 -1.74772 -0.714166 0
M  V30 111 O 8.3905 -1.06169 -1.4844 0
M  V30 112 C 8.4415 -3.45876 1.05129 0
M  V30 113 O 8.1625 -3.6426 2.43406 0
M  V30 114 C 9.6635 -4.36368 0.780891 0
M  V30 115 H 6.8835 -0.615901 0.266284 0
M  V30 116 H 9.4275 -1.52922 1.35776 0
M  V30 117 H 7.5825 -3.8461 0.464065 0
M  V30 118 H 7.9965 -4.58246 2.55169 0
M  V30 119 H 9.4705 -5.41743 1.05918 0
M  V30 120 H 9.9475 -4.38275 -0.284937 0
M  V30 121 H 10.5535 -4.03296 1.35027 0
M  V30 122 N 8.8686 -0.792821 -1.36206 0
M  V30 123 C 10.1176 -0.363353 -1.984 0
M  V30 124 C 10.4306 1.07172 -1.63626 0
M  V30 125 O 11.6366 1.60362 -2.19081 0
M  V30 126 C 10.0926 -0.59872 -3.54885 0
M  V30 127 C 9.7006 -2.04543 -3.9858 0
M  V30 128 C 11.4446 -0.233926 -4.23855 0
M  V30 129 C 9.3516 -2.22727 -5.47856 0
M  V30 130 H 8.2816 -0.13212 -0.742334 0
M  V30 131 H 10.9326 -0.974935 -1.55458 0
M  V30 132 H 9.3146 0.0826222 -3.95914 0
M  V30 133 H 10.4886 -2.76345 -3.68741 0
M  V30 134 H 8.8036 -2.36879 -3.42458 0
M  V30 135 H 11.4006 -0.348027 -5.33566 0
M  V30 136 H 11.7436 0.818351 -4.08177 0
M  V30 137 H 12.2766 -0.868639 -3.882 0
M  V30 138 H 9.0156 -3.2635 -5.68486 0
M  V30 139 H 8.5356 -1.55434 -5.7931 0
M  V30 140 H 10.2146 -2.03607 -6.14128 0
M  V30 141 N 10.3467 1.47872 -0.545128 0
M  V30 142 C 11.2767 2.32661 0.197793 0
M  V30 143 C 12.2577 1.43041 0.920504 0
M  V30 144 O 13.4427 1.71912 0.90333 0
M  V30 145 C 10.5727 3.24569 1.23582 0
M  V30 146 C 9.5267 4.23333 0.630323 0
M  V30 147 C 8.8527 5.0448 1.77211 0
M  V30 148 C 10.1527 5.20704 -0.407974 0
M  V30 149 H 11.8467 2.95024 -0.510045 0
M  V30 150 H 9.3927 1.4187 -0.246731 0
M  V30 151 H 11.3457 3.8272 1.76362 0
M  V30 152 H 10.0697 2.60236 1.97344 0
M  V30 153 H 8.7287 3.6639 0.123922 0
M  V30 154 H 8.3767 4.36561 2.49847 0
M  V30 155 H 8.0767 5.71339 1.37281 0
M  V30 156 H 9.6007 5.65487 2.3034 0
M  V30 157 H 11.0147 5.7329 0.033305 0
M  V30 158 H 9.4117 5.95699 -0.725486 0
M  V30 159 H 10.4817 4.66917 -1.30828 0
M  V30 160 N 11.8248 0.280983 1.55075 0
M  V30 161 C 13.0738 -0.334784 1.98902 0
M  V30 162 C 13.3868 -1.56534 1.17288 0
M  V30 163 O 14.5928 -2.25443 1.51287 0
M  V30 164 C 13.0488 -0.646994 3.54037 0
M  V30 165 C 12.6568 0.564085 4.44435 0
M  V30 166 C 14.4008 -1.22506 4.06439 0
M  V30 167 C 12.3078 0.226137 5.90967 0
M  V30 168 H 11.2378 -0.128866 0.742906 0
M  V30 169 H 13.8888 0.386556 1.79382 0
M  V30 170 H 12.2708 -1.42739 3.6938 0
M  V30 171 H 13.4448 1.34082 4.40861 0
M  V30 172 H 11.7598 1.0594 4.02698 0
M  V30 173 H 14.3568 -1.49182 5.13468 0
M  V30 174 H 14.6998 -2.16085 3.55827 0
M  V30 175 H 15.2328 -0.50682 3.94558 0
M  V30 176 H 11.9718 1.12996 6.45687 0
M  V30 177 H 11.4918 -0.513717 5.97596 0
M  V30 178 H 13.1708 -0.179539 6.46751 0
M  V30 179 N 13.3029 -1.57598 0.00835791 0
M  V30 180 C 14.5499 -1.90928 -0.674732 0
M  V30 181 C 14.8779 -0.88277 -1.73313 0
M  V30 182 O 14.1329 0.111294 -1.95383 0
M  V30 183 C 14.4319 -3.3101 -1.34787 0
M  V30 184 C 14.0979 -4.48922 -0.421861 0
M  V30 185 C 12.7599 -4.8091 -0.166927 0
M  V30 186 C 15.1119 -5.20755 0.215211 0
M  V30 187 C 12.4399 -5.821 0.733232 0
M  V30 188 C 14.7919 -6.22905 1.1033 0
M  V30 189 C 13.4559 -6.53346 1.36733 0
M  V30 190 H 12.7259 -0.698656 -0.246902 0
M  V30 191 H 15.3729 -1.91387 0.0656779 0
M  V30 192 H 13.6779 -3.26714 -2.16253 0
M  V30 193 H 15.3749 -3.54061 -1.8826 0
M  V30 194 H 11.9649 -4.23934 -0.630729 0
M  V30 195 H 16.1489 -4.9629 0.0312829 0
M  V30 196 H 11.4049 -6.04042 0.945712 0
M  V30 197 H 15.5789 -6.77694 1.60325 0
M  V30 198 H 13.2059 -7.31573 2.06652 0
M  V30 199 N 14.781 0.264519 -1.55364 0
M  V30 200 C 16.009 1.013 -1.80405 0
M  V30 201 C 16.424 1.79618 -0.581622 0
M  V30 202 O 15.781 1.76879 0.449468 0
M  V30 203 C 15.832 1.96487 -3.03439 0
M  V30 204 O 15.553 1.21341 -4.20961 0
M  V30 205 C 17.054 2.83079 -3.41147 0
M  V30 206 H 14.274 0.298875 -0.600762 0
M  V30 207 H 16.818 0.292736 -2.02394 0
M  V30 208 H 14.973 2.63965 -2.83551 0
M  V30 209 H 15.387 1.85573 -4.90574 0
M  V30 210 H 16.861 3.4565 -4.30384 0
M  V30 211 H 17.338 3.53286 -2.60932 0
M  V30 212 H 17.944 2.2108 -3.63323 0
M  V30 213 N 16.2591 1.48442 0.529413 0
M  V30 214 C 17.5051 1.5672 1.28711 0
M  V30 215 C 17.8381 0.2406 1.92704 0
M  V30 216 O 17.1131 -0.753454 1.79313 0
M  V30 217 C 17.3961 2.70587 2.37603 0
M  V30 218 C 17.2491 4.12953 1.78297 0
M  V30 219 C 18.5681 2.80212 3.39366 0
M  V30 220 H 15.6871 0.570474 0.466613 0
M  V30 221 H 18.3291 1.80617 0.589706 0
M  V30 222 H 16.4791 2.50342 2.97088 0
M  V30 223 H 18.1511 4.44639 1.22858 0
M  V30 224 H 16.3941 4.19927 1.0883 0
M  V30 225 H 17.0651 4.88448 2.57144 0
M  V30 226 H 19.5411 2.98553 2.89836 0
M  V30 227 H 18.4171 3.61611 4.12951 0
M  V30 228 H 18.6781 1.88393 3.99951 0
M  V30 229 N 17.7372 -0.778329 1.37039 0
M  V30 230 C 18.9862 -1.53189 1.3121 0
M  V30 231 C 19.2992 -1.95328 -0.103095 0
M  V30 232 O 20.5052 -2.70012 -0.283826 0
M  V30 233 C 18.9612 -2.76591 2.30272 0
M  V30 234 C 18.5692 -2.41577 3.77286 0
M  V30 235 C 20.3132 -3.5455 2.33441 0
M  V30 236 C 18.2202 -3.61441 4.68096 0
M  V30 237 H 17.1502 -0.5751 0.487622 0
M  V30 238 H 19.8012 -0.853101 1.62464 0
M  V30 239 H 18.1832 -3.46326 1.92027 0
M  V30 240 H 19.3572 -1.79668 4.2433 0
M  V30 241 H 17.6722 -1.76806 3.76999 0
M  V30 242 H 20.2692 -4.43628 2.98493 0
M  V30 243 H 20.6122 -3.93936 1.34611 0
M  V30 244 H 21.1452 -2.91805 2.7036 0
M  V30 245 H 17.8842 -3.27142 5.6803 0
M  V30 246 H 17.4042 -4.22478 4.25761 0
M  V30 247 H 19.0832 -4.28335 4.8491 0
M  V30 248 N 19.2153 -1.21501 -1.00376 0
M  V30 249 C 20.1453 -0.999478 -2.11028 0
M  V30 250 C 21.1263 0.0759671 -1.6993 0
M  V30 251 O 22.3113 -0.0841106 -1.94018 0
M  V30 252 C 19.4413 -0.564709 -3.42678 0
M  V30 253 C 18.3953 -1.58486 -3.97576 0
M  V30 254 C 17.7213 -1.00628 -5.25146 0
M  V30 255 C 19.0213 -2.97204 -4.29496 0
M  V30 256 H 20.7153 -1.92495 -2.29317 0
M  V30 257 H 18.2613 -0.92693 -1.102 0
M  V30 258 H 20.2143 -0.401091 -4.19487 0
M  V30 259 H 18.9383 0.396411 -3.24185 0
M  V30 260 H 17.5973 -1.73606 -3.22888 0
M  V30 261 H 17.2453 -0.0368439 -5.02987 0
M  V30 262 H 16.9453 -1.68771 -5.62841 0
M  V30 263 H 18.4693 -0.854015 -6.04598 0
M  V30 264 H 19.8833 -2.8552 -4.97143 0
M  V30 265 H 18.2803 -3.62372 -4.78338 0
M  V30 266 H 19.3503 -3.47956 -3.3772 0
M  V30 267 N 20.6934 1.19889 -1.02296 0
M  V30 268 C 21.9424 1.88743 -0.711257 0
M  V30 269 C 22.2554 1.80112 0.762817 0
M  V30 270 O 23.4614 2.44161 1.18733 0
M  V30 271 C 21.9174 3.38525 -1.22185 0
M  V30 272 C 21.5254 3.55727 -2.72328 0
M  V30 273 C 23.2694 4.12893 -0.985864 0
M  V30 274 C 21.1764 4.99369 -3.16835 0
M  V30 275 H 20.1064 0.706885 -0.262353 0
M  V30 276 H 22.7574 1.35586 -1.23648 0
M  V30 277 H 21.1394 3.91044 -0.624571 0
M  V30 278 H 22.3134 3.13564 -3.3766 0
M  V30 279 H 20.6284 2.94739 -2.9414 0
M  V30 280 H 23.2254 5.18813 -1.29374 0
M  V30 281 H 23.5684 4.16228 0.0775055 0
M  V30 282 H 24.1014 3.66494 -1.54684 0
M  V30 283 H 20.8404 5.01193 -4.22476 0
M  V30 284 H 20.3604 5.42317 -2.56228 0
M  V30 285 H 22.0394 5.67988 -3.09837 0
M  V30 286 N 22.1715 0.800033 1.35784 0
M  V30 287 C 23.5825 0.439142 1.81462 0
M  V30 288 C 23.9335 -1.03813 1.66485 0
M  V30 289 O 23.0585 -1.80626 1.19177 0
M  V30 290 C 23.6535 0.790314 3.29453 0
M  V30 291 C 22.2125 0.482111 3.733 0
M  V30 292 C 21.3595 1.01938 2.57883 0
M  V30 293 H 24.3105 0.992254 1.23855 0
M  V30 294 H 24.3315 0.0853677 3.80404 0
M  V30 295 H 23.8435 1.86554 3.40322 0
M  V30 296 H 21.9445 -0.584652 3.67984 0
M  V30 297 H 22.0575 1.01015 4.6833 0
M  V30 298 H 20.4215 0.442043 2.50835 0
M  V30 299 H 21.2045 2.10059 2.71533 0
M  V30 300 N 23.6496 -1.47581 0.552962 0
M  V30 301 C 24.5796 -2.32762 -0.185451 0
M  V30 302 C 25.5606 -1.43527 -0.912905 0
M  V30 303 O 26.7456 -1.72388 -0.894201 0
M  V30 304 C 23.8756 -3.25219 -1.21859 0
M  V30 305 C 22.8296 -4.23661 -0.607864 0
M  V30 306 C 22.1556 -5.05413 -1.74533 0
M  V30 307 C 23.4556 -5.20481 0.435582 0
M  V30 308 H 25.1496 -2.94749 0.525684 0
M  V30 309 H 22.6956 -1.41738 0.254251 0
M  V30 310 H 24.6486 -3.8365 -1.7433 0
M  V30 311 H 23.3726 -2.61279 -1.95961 0
M  V30 312 H 22.0316 -3.66451 -0.104489 0
M  V30 313 H 21.6796 -4.3788 -2.47529 0
M  V30 314 H 21.3796 -5.72059 -1.34249 0
M  V30 315 H 22.9036 -5.66701 -2.27338 0
M  V30 316 H 24.3176 -5.733 -0.00290157 0
M  V30 317 H 22.7146 -5.95305 0.757067 0
M  V30 318 H 23.7846 -4.66217 1.33303 0
M  V30 319 N 25.1277 -0.289203 -1.54924 0
M  V30 320 C 26.3557 0.326463 -2.04308 0
M  V30 321 C 26.7707 1.48413 -1.16701 0
M  V30 322 O 26.1277 1.81507 -0.190087 0
M  V30 323 C 26.1787 0.794014 -3.52672 0
M  V30 324 O 25.8997 -0.317564 -4.36948 0
M  V30 325 C 27.4007 1.47605 -4.18004 0
M  V30 326 H 24.6207 0.0726272 -0.667058 0
M  V30 327 H 27.1647 -0.425401 -2.00026 0
M  V30 328 H 25.3197 1.49593 -3.57352 0
M  V30 329 H 25.7337 0.0443186 -5.24481 0
M  V30 330 H 27.2077 1.75447 -5.23376 0
M  V30 331 H 27.6847 2.41224 -3.67025 0
M  V30 332 H 28.2907 0.81762 -4.17367 0
M  V30 333 N 26.6058 1.57591 -0.0167156 0
M  V30 334 C 27.8528 1.91283 0.664597 0
M  V30 335 C 28.1808 0.891949 1.72842 0
M  V30 336 O 27.4358 -0.100931 1.9544 0
M  V30 337 C 27.7348 3.3172 1.33029 0
M  V30 338 C 27.4008 4.4914 0.398047 0
M  V30 339 C 26.0628 4.80992 0.141421 0
M  V30 340 C 28.4148 5.20634 -0.242825 0
M  V30 341 C 25.7428 5.81703 -0.764092 0
M  V30 342 C 28.0948 6.22311 -1.13632 0
M  V30 343 C 26.7588 6.52611 -1.40196 0
M  V30 344 H 26.0288 0.699956 0.243193 0
M  V30 345 H 28.6758 1.9135 -0.0758267 0
M  V30 346 H 26.9808 3.27856 2.14517 0
M  V30 347 H 28.6778 3.55055 1.86379 0
M  V30 348 H 25.2678 4.24262 0.608238 0
M  V30 349 H 29.4518 4.96267 -0.0576019 0
M  V30 350 H 24.7078 6.03532 -0.977732 0
M  V30 351 H 28.8818 6.76834 -1.63917 0
M  V30 352 H 26.5088 7.30467 -2.10529 0
M  V30 353 N 28.0839 -0.256276 1.55502 0
M  V30 354 C 29.3239 -0.993081 1.78654 0
M  V30 355 C 29.6879 -1.8288 0.584724 0
M  V30 356 O 30.8889 -2.59665 0.694822 0
M  V30 357 C 29.1599 -1.83856 3.06483 0
M  V30 358 S 30.7189 -2.63573 3.5082 0
M  V30 359 H 27.5369 -0.334199 0.62756 0
M  V30 360 H 30.1389 -0.26184 1.93739 0
M  V30 361 H 28.8429 -1.21414 3.92029 0
M  V30 362 H 28.3739 -2.61271 2.94111 0
M  V30 363 H 30.3889 -3.86312 3.11412 0
M  V30 364 N 29.562 -1.4872 -0.521534 0
M  V30 365 C 30.809 -1.57168 -1.27689 0
M  V30 366 C 31.137 -0.249275 -1.92896 0
M  V30 367 O 30.392 0.761162 -1.80291 0
M  V30 368 C 30.691 -2.66497 -2.38148 0
M  V30 369 C 30.357 -4.08664 -1.90538 0
M  V30 370 C 29.019 -4.47357 -1.77271 0
M  V30 371 C 31.371 -4.97724 -1.54663 0
M  V30 372 C 28.699 -5.72905 -1.26478 0
M  V30 373 C 31.051 -6.2377 -1.05329 0
M  V30 374 C 29.715 -6.61311 -0.906861 0
M  V30 375 H 28.985 -0.575117 -0.467249 0
M  V30 376 H 31.632 -1.82472 -0.581051 0
M  V30 377 H 29.937 -2.35085 -3.13437 0
M  V30 378 H 31.634 -2.70246 -2.96257 0
M  V30 379 H 28.224 -3.78111 -2.01816 0
M  V30 380 H 32.408 -4.68501 -1.63768 0
M  V30 381 H 27.664 -6.00709 -1.13835 0
M  V30 382 H 31.838 -6.9217 -0.76644 0
M  V30 383 H 29.465 -7.5848 -0.511083 0
M  V30 384 N 31.0401 0.771051 -1.3745 0
M  V30 385 C 31.9871 1.88435 -1.3327 0
M  V30 386 C 32.9571 1.64914 -0.198136 0
M  V30 387 O 34.1421 1.86821 -0.387606 0
M  V30 388 C 31.2821 3.25509 -1.14622 0
M  V30 389 C 30.3951 3.60979 -2.37314 0
M  V30 390 C 29.5301 4.87265 -2.11533 0
M  V30 391 C 28.5691 5.15469 -3.30088 0
M  V30 392 N 27.7061 6.32944 -3.03853 0
M  V30 393 H 32.5461 1.91344 -2.28455 0
M  V30 394 H 30.0831 0.935466 -1.13523 0
M  V30 395 H 32.0411 4.04582 -1.01831 0
M  V30 396 H 30.6711 3.21974 -0.230837 0
M  V30 397 H 29.7231 2.76885 -2.60842 0
M  V30 398 H 31.0351 3.77759 -3.25729 0
M  V30 399 H 30.1891 5.74244 -1.95777 0
M  V30 400 H 28.9281 4.7259 -1.20457 0
M  V30 401 H 27.9331 4.26966 -3.46382 0
M  V30 402 H 29.1581 5.32052 -4.22016 0
M  V30 403 H 27.1041 6.19625 -2.15407 0
M  V30 404 H 27.0211 6.50143 -3.85812 0
M  V30 405 H 28.2891 7.22857 -2.91716 0
M  V30 406 N 32.5182 1.22032 0.997298 0
M  V30 407 C 33.4662 0.983634 2.10778 0
M  V30 408 C 34.4602 -0.0717564 1.69248 0
M  V30 409 O 35.6662 0.080304 1.79821 0
M  V30 410 H 32.0412 0.300877 0.689186 0
M  V30 411 H 34.0122 1.92606 2.27916 0
M  V30 412 C 32.7612 0.57326 3.42942 0
M  V30 413 H 32.0842 1.37702 3.75338 0
M  V30 414 H 33.5242 0.447031 4.21637 0
M  V30 415 C 31.9832 -0.7167 3.29188 0
M  V30 416 O 32.5132 -1.77027 3.60589 0
M  V30 417 N 30.7192 -0.686167 2.82383 0
M  V30 418 H 30.2662 0.171507 2.57028 0
M  V30 419 H 30.2242 -1.54955 2.73562 0
M  V30 420 N 33.9963 -1.19345 1.0293 0
M  V30 421 C 34.9593 -2.20793 0.615069 0
M  V30 422 C 35.9593 -1.57553 -0.321533 0
M  V30 423 O 37.1493 -1.73862 -0.108483 0
M  V30 424 C 34.2813 -3.40754 -0.0999222 0
M  V30 425 H 35.4743 -2.58955 1.51269 0
M  V30 426 H 33.0273 -1.3303 0.820534 0
M  V30 427 H 33.7623 -3.0811 -1.01187 0
M  V30 428 H 33.5473 -3.87889 0.57309 0
M  V30 429 H 35.0373 -4.15898 -0.376645 0
M  V30 430 N 35.4744 -0.807222 -1.35358 0
M  V30 431 C 36.4044 -0.232509 -2.3234 0
M  V30 432 C 37.3854 0.642386 -1.57504 0
M  V30 433 O 38.5704 0.572526 -1.85569 0
M  V30 434 C 35.7004 0.619238 -3.41735 0
M  V30 435 C 34.6544 -0.157215 -4.27711 0
M  V30 436 C 33.9804 0.816273 -5.28433 0
M  V30 437 C 35.2804 -1.35656 -5.04376 0
M  V30 438 H 36.9744 -1.04276 -2.80654 0
M  V30 439 H 34.5204 -0.50288 -1.34934 0
M  V30 440 H 36.4734 1.03137 -4.08584 0
M  V30 441 H 35.1974 1.46239 -2.92031 0
M  V30 442 H 33.8564 -0.550525 -3.62443 0
M  V30 443 H 33.5044 1.65494 -4.74996 0
M  V30 444 H 33.2044 0.301067 -5.86828 0
M  V30 445 H 34.7284 1.22659 -5.98153 0
M  V30 446 H 36.1424 -1.01927 -5.64166 0
M  V30 447 H 34.5394 -1.8063 -5.7227 0
M  V30 448 H 35.6094 -2.14288 -4.34981 0
M  V30 449 N 36.9525 1.47285 -0.560781 0
M  V30 450 C 38.2015 2.01668 -0.035895 0
M  V30 451 C 38.5145 1.44021 1.32353 0
M  V30 452 O 39.7205 1.90088 1.93853 0
M  V30 453 C 38.1765 3.59897 -0.0136659 0
M  V30 454 C 37.7845 4.26536 -1.37006 0
M  V30 455 C 39.5285 4.22017 0.458425 0
M  V30 456 C 37.4355 5.76782 -1.30675 0
M  V30 457 H 36.3655 0.753938 -0.00964879 0
M  V30 458 H 39.0165 1.69243 -0.709166 0
M  V30 459 H 37.3985 3.89301 0.725325 0
M  V30 460 H 38.5725 4.0877 -2.12705 0
M  V30 461 H 36.8875 3.76419 -1.78038 0
M  V30 462 H 39.4845 5.32124 0.524247 0
M  V30 463 H 39.8275 3.89437 1.4712 0
M  V30 464 H 40.3605 3.97159 -0.225818 0
M  V30 465 H 37.0995 6.13988 -2.29564 0
M  V30 466 H 36.6195 5.96875 -0.591622 0
M  V30 467 H 38.2985 6.39063 -1.01033 0
M  V30 468 N 38.4306 0.297415 1.54768 0
M  V30 469 C 39.3776 -0.580276 2.23386 0
M  V30 470 C 40.3476 -1.13238 1.21517 0
M  V30 471 O 41.5326 -1.17757 1.50126 0
M  V30 472 C 38.6726 -1.74801 2.97555 0
M  V30 473 C 37.7856 -1.22764 4.1419 0
M  V30 474 C 36.9206 -2.35895 4.75949 0
M  V30 475 C 35.9596 -1.80974 5.84735 0
M  V30 476 N 35.0966 -2.87664 6.40464 0
M  V30 477 H 39.9366 0.0114833 2.97998 0
M  V30 478 H 37.4736 0.0174361 1.4709 0
M  V30 479 H 39.4316 -2.43475 3.38786 0
M  V30 480 H 38.0616 -2.31145 2.25326 0
M  V30 481 H 37.1136 -0.433271 3.77924 0
M  V30 482 H 38.4256 -0.785551 4.92575 0
M  V30 483 H 37.5796 -3.12523 5.20014 0
M  V30 484 H 36.3186 -2.83429 3.96887 0
M  V30 485 H 35.3236 -1.02834 5.40097 0
M  V30 486 H 36.5486 -1.34348 6.65678 0
M  V30 487 H 34.4946 -3.34538 5.64287 0
M  V30 488 H 34.4116 -2.4794 7.14186 0
M  V30 489 H 35.6796 -3.642 6.89187 0
M  V30 490 N 39.9087 -1.5758 0.0250728 0
M  V30 491 C 40.8587 -2.06468 -0.967201 0
M  V30 492 C 41.8427 -0.964376 -1.28797 0
M  V30 493 O 43.0347 -1.22797 -1.27475 0
M  V30 494 C 40.1637 -2.59203 -2.25097 0
M  V30 495 C 39.2497 -3.76157 -1.95874 0
M  V30 496 N 39.6407 -4.86919 -1.36905 0
M  V30 497 C 37.9387 -3.84566 -2.25887 0
M  V30 498 C 38.6397 -5.68172 -1.24724 0
M  V30 499 N 37.6157 -5.14953 -1.74138 0
M  V30 500 H 41.4177 -2.89508 -0.506176 0
M  V30 501 H 38.9317 -1.61399 -0.18004 0
M  V30 502 H 40.9287 -2.92517 -2.97052 0
M  V30 503 H 39.5887 -1.77592 -2.71829 0
M  V30 504 H 40.5997 -5.07256 -1.04459 0
M  V30 505 H 37.2767 -3.13854 -2.75321 0
M  V30 506 H 38.6667 -6.67221 -0.791605 0
M  V30 507 N 41.3868 0.248026 -1.55636 0
M  V30 508 C 42.6118 0.998028 -1.81808 0
M  V30 509 C 43.0368 1.78207 -0.601979 0
M  V30 510 O 42.3948 1.75653 0.448961 0
M  V30 511 C 42.4428 1.9125 -3.05705 0
M  V30 512 O 41.5468 3.00406 -2.82542 0
M  V30 513 H 40.8878 0.284045 -0.600179 0
M  V30 514 H 43.4178 0.269357 -2.02819 0
M  V30 515 H 43.4278 2.32737 -3.35108 0
M  V30 516 H 42.1028 1.33602 -3.93857 0
M  V30 517 H 40.6798 2.63056 -2.64303 0
M  V30 518 N 42.8649 1.48995 0.513639 0
M  V30 519 C 44.1139 1.57093 1.2651 0
M  V30 520 C 44.4269 0.257091 1.93903 0
M  V30 521 O 45.6329 0.216478 2.70636 0
M  V30 522 C 44.0889 2.77118 2.29638 0
M  V30 523 C 43.6969 4.15209 1.68241 0
M  V30 524 C 45.4409 2.94538 3.05692 0
M  V30 525 C 43.3479 5.26474 2.69406 0
M  V30 526 H 42.2779 0.584876 0.475854 0
M  V30 527 H 44.9289 1.7536 0.540487 0
M  V30 528 H 43.3109 2.52319 3.05207 0
M  V30 529 H 44.4849 4.50094 0.987505 0
M  V30 530 H 42.7999 4.03042 1.04623 0
M  V30 531 H 45.3969 3.74832 3.8132 0
M  V30 532 H 45.7399 2.04614 3.62545 0
M  V30 533 H 46.2729 3.19316 2.37238 0
M  V30 534 H 43.0119 6.18417 2.17351 0
M  V30 535 H 42.5319 4.96058 3.37175 0
M  V30 536 H 44.2109 5.55277 3.32078 0
M  V30 537 N 44.343 -0.763751 1.37857 0
M  V30 538 C 45.291 -1.89864 1.34367 0
M  V30 539 C 46.285 -1.67816 0.231143 0
M  V30 540 O 47.491 -1.75508 0.399617 0
M  V30 541 H 43.866 -0.624501 0.41893 0
M  V30 542 H 45.837 -1.89925 2.30155 0
M  V30 543 C 44.586 -3.27227 1.1755 0
M  V30 544 H 43.909 -3.44773 2.02414 0
M  V30 545 H 45.349 -4.06911 1.1916 0
M  V30 546 C 43.808 -3.36692 -0.118311 0
M  V30 547 O 44.338 -3.86374 -1.09902 0
M  V30 548 N 42.544 -2.90092 -0.171717 0
M  V30 549 H 42.091 -2.49853 0.627012 0
M  V30 550 H 42.049 -2.96806 -1.03699 0
M  V30 551 N 45.8211 -1.22559 -0.990812 0
M  V30 552 C 47.0701 -1.04553 -1.72486 0
M  V30 553 C 47.3831 0.419349 -1.91052 0
M  V30 554 O 48.5891 0.719121 -2.61803 0
M  V30 555 C 47.0451 -1.82231 -3.10355 0
M  V30 556 C 46.6531 -3.32981 -2.99713 0
M  V30 557 C 48.3971 -1.7268 -3.87791 0
M  V30 558 C 46.3041 -4.03091 -4.32748 0
M  V30 559 H 45.2341 -0.387614 -0.646739 0
M  V30 560 H 47.8851 -1.46429 -1.10593 0
M  V30 561 H 46.2671 -1.33155 -3.72942 0
M  V30 562 H 47.4411 -3.89466 -2.46278 0
M  V30 563 H 45.7561 -3.43231 -2.35758 0
M  V30 564 H 48.3531 -2.22381 -4.86262 0
M  V30 565 H 48.6961 -0.687607 -4.10582 0
M  V30 566 H 49.2291 -2.1931 -3.31885 0
M  V30 567 H 45.9681 -5.07273 -4.15156 0
M  V30 568 H 45.4881 -3.51394 -4.86089 0
M  V30 569 H 47.1671 -4.08804 -5.01486 0
M  V30 570 N 47.2992 1.18797 -1.03562 0
M  V30 571 C 48.5452 1.8893 -0.737113 0
M  V30 572 C 48.8782 1.79837 0.732956 0
M  V30 573 O 48.1532 1.19525 1.5344 0
M  V30 574 C 48.4362 3.39607 -1.19745 0
M  V30 575 C 48.2892 3.57537 -2.72924 0
M  V30 576 C 49.6082 4.33069 -0.783526 0
M  V30 577 H 46.7272 0.686057 -0.269249 0
M  V30 578 H 49.3692 1.39797 -1.28673 0
M  V30 579 H 47.5192 3.81583 -0.729855 0
M  V30 580 H 49.1912 3.24688 -3.27682 0
M  V30 581 H 47.4342 3.00363 -3.12993 0
M  V30 582 H 48.1052 4.63238 -3.00191 0
M  V30 583 H 50.5812 3.98846 -1.18581 0
M  V30 584 H 49.4572 5.3707 -1.13343 0
M  V30 585 H 49.7182 4.40986 0.313681 0
M  V30 586 N 48.7773 0.814389 1.34928 0
M  V30 587 C 50.0023 0.410097 2.03305 0
M  V30 588 C 50.4273 -0.973464 1.60951 0
M  V30 589 O 49.7853 -1.63185 0.789964 0
M  V30 590 C 49.8333 0.51049 3.56968 0
M  V30 591 O 48.9373 -0.473035 4.09678 0
M  V30 592 H 48.2783 0.170088 0.641846 0
M  V30 593 H 50.8083 1.10244 1.72358 0
M  V30 594 H 50.8183 0.383135 4.06197 0
M  V30 595 H 49.4933 1.51963 3.87144 0
M  V30 596 H 48.0703 -0.305272 3.71648 0
M  V30 597 N 50.2554 -1.46986 0.568584 0
M  V30 598 C 51.2024 -2.30153 -0.172707 0
M  V30 599 C 52.1724 -1.39759 -0.897586 0
M  V30 600 O 53.3574 -1.68716 -0.891044 0
M  V30 601 C 50.4974 -3.23952 -1.1895 0
M  V30 602 C 49.6104 -4.29441 -0.469517 0
M  V30 603 C 48.7454 -5.1038 -1.47259 0
M  V30 604 C 47.7844 -6.07632 -0.738225 0
M  V30 605 N 46.9214 -6.8149 -1.68868 0
M  V30 606 H 51.7614 -2.93019 0.542596 0
M  V30 607 H 49.2984 -1.44422 0.279401 0
M  V30 608 H 51.2564 -3.76767 -1.79173 0
M  V30 609 H 49.8864 -2.62926 -1.87269 0
M  V30 610 H 48.9384 -3.79594 0.247467 0
M  V30 611 H 50.2504 -4.98689 0.105241 0
M  V30 612 H 49.4044 -5.67402 -2.14803 0
M  V30 613 H 48.1434 -4.4106 -2.08128 0
M  V30 614 H 47.1484 -5.49778 -0.0489293 0
M  V30 615 H 48.3734 -6.78966 -0.135129 0
M  V30 616 H 46.3194 -6.14891 -2.28573 0
M  V30 617 H 46.2364 -7.46948 -1.16636 0
M  V30 618 H 47.5044 -7.43078 -2.3549 0
M  V30 619 N 51.7335 -0.305618 -1.54608 0
M  V30 620 C 53.1495 0.0476228 -1.59529 0
M  V30 621 C 53.3495 1.52025 -1.32252 0
M  V30 622 O 52.4055 2.27368 -1.09818 0
M  V30 623 C 53.7185 -0.354471 -2.98603 0
M  V30 624 C 55.2665 -0.303622 -3.11524 0
M  V30 625 C 55.7415 -0.680608 -4.52915 0
M  V30 626 N 57.2325 -0.63332 -4.5885 0
M  V30 627 C 57.9675 -0.897432 -5.66334 0
M  V30 628 N 57.4635 -1.22775 -6.81834 0
M  V30 629 N 59.2565 -0.824186 -5.56025 0
M  V30 630 H 51.4075 -1.2653 -1.70599 0
M  V30 631 H 53.6705 -0.513291 -0.797017 0
M  V30 632 H 53.3765 -1.3798 -3.23503 0
M  V30 633 H 53.2505 0.289568 -3.76087 0
M  V30 634 H 55.6375 0.712472 -2.8637 0
M  V30 635 H 55.7185 -0.982348 -2.36185 0
M  V30 636 H 55.3625 -1.69453 -4.78799 0
M  V30 637 H 55.2925 0.0202385 -5.26596 0
M  V30 638 H 57.7835 -0.389138 -3.75891 0
M  V30 639 H 58.0965 -1.41513 -7.59733 0
M  V30 640 H 56.4415 -1.26583 -6.83375 0
M  V30 641 H 59.6325 -0.565748 -4.64669 0
M  V30 642 H 59.8055 -1.03338 -6.39707 0
M  V30 643 N 53.2116 1.57565 -0.0334293 0
M  V30 644 C 54.4596 1.91598 0.642999 0
M  V30 645 C 54.7806 0.910847 1.7242 0
M  V30 646 O 54.0506 -0.0469931 1.95844 0
M  V30 647 H 52.6306 0.707228 0.240496 0
M  V30 648 H 55.2926 1.94726 -0.0822488 0
M  V30 649 H 54.3886 2.92336 1.09298 0
M  V30 650 N 54.6897 -0.239769 1.55765 0
M  V30 651 C 55.6377 -1.31668 1.91745 0
M  V30 652 C 56.6317 -1.49462 0.797338 0
M  V30 653 O 57.8377 -1.50852 0.982021 0
M  V30 654 H 54.2127 -0.441048 0.609082 0
M  V30 655 H 56.1837 -0.985923 2.81642 0
M  V30 656 C 54.9327 -2.66368 2.2348 0
M  V30 657 H 54.2557 -2.53478 3.09175 0
M  V30 658 H 55.6957 -3.40578 2.52553 0
M  V30 659 C 54.1547 -3.20002 1.05359 0
M  V30 660 O 54.6847 -4.00538 0.305261 0
M  V30 661 N 52.8907 -2.78126 0.842292 0
M  V30 662 H 52.4377 -2.12742 1.45253 0
M  V30 663 H 52.3957 -3.14354 0.053652 0
M  V30 664 N 56.1678 -1.49265 -0.50573 0
M  V30 665 C 57.3928 -1.62478 -1.28902 0
M  V30 666 C 57.8178 -0.294332 -1.85783 0
M  V30 667 O 57.1758 0.737412 -1.65626 0
M  V30 668 C 57.2238 -2.69268 -2.39848 0
M  V30 669 O 56.3278 -2.28113 -3.43567 0
M  V30 670 H 55.6688 -0.54399 -0.380751 0
M  V30 671 H 58.1988 -1.95421 -0.605952 0
M  V30 672 H 58.2088 -2.91291 -2.85681 0
M  V30 673 H 56.8838 -3.65846 -1.97812 0
M  V30 674 H 55.4608 -2.16401 -3.03685 0
M  V30 675 N 57.6459 0.756429 -1.3826 0
M  V30 676 C 58.5929 1.87011 -1.35261 0
M  V30 677 C 59.5629 1.64695 -0.215616 0
M  V30 678 O 60.7479 1.864 -0.407399 0
M  V30 679 C 57.8879 3.24275 -1.18068 0
M  V30 680 C 57.0009 3.58442 -2.41129 0
M  V30 681 C 56.1359 4.84994 -2.16689 0
M  V30 682 C 55.1749 5.11939 -3.35537 0
M  V30 683 N 54.3119 6.29685 -3.10549 0
M  V30 684 H 59.1519 1.8891 -2.30472 0
M  V30 685 H 56.6889 0.923373 -1.14509 0
M  V30 686 H 58.6469 4.03479 -1.06116 0
M  V30 687 H 57.2769 3.21711 -0.264973 0
M  V30 688 H 56.3289 2.74103 -2.63764 0
M  V30 689 H 57.6409 3.74283 -3.29717 0
M  V30 690 H 56.7949 5.72135 -2.01857 0
M  V30 691 H 55.5339 4.71286 -1.25462 0
M  V30 692 H 54.5389 4.23268 -3.50891 0
M  V30 693 H 55.7639 5.27546 -4.27635 0
M  V30 694 H 53.7099 6.17306 -2.21967 0
M  V30 695 H 53.6269 6.46014 -3.92686 0
M  V30 696 H 54.8949 7.19722 -2.99367 0
M  V30 697 N 59.124 1.23083 0.984299 0
M  V30 698 C 60.072 1.00593 2.09723 0
M  V30 699 C 61.066 -0.0538014 1.69315 0
M  V30 700 O 62.272 0.0993719 1.79725 0
M  V30 701 H 58.647 0.30817 0.685956 0
M  V30 702 H 60.618 1.95012 2.2586 0
M  V30 703 C 59.367 0.609601 3.42314 0
M  V30 704 H 58.69 1.41675 3.73856 0
M  V30 705 H 60.13 0.491726 4.21139 0
M  V30 706 C 58.589 -0.681745 3.2993 0
M  V30 707 O 59.119 -1.73192 3.62446 0
M  V30 708 N 57.325 -0.656178 2.83095 0
M  V30 709 H 56.872 0.198759 2.56832 0
M  V30 710 H 56.83 -1.52044 2.75191 0
M  V30 711 N 60.6021 -1.18246 1.0419 0
M  V30 712 C 62.0181 -1.40269 0.761366 0
M  V30 713 C 62.2181 -1.90777 -0.648578 0
M  V30 714 O 61.2741 -2.0929 -1.41258 0
M  V30 715 C 62.5871 -2.40237 1.8085 0
M  V30 716 C 64.1351 -2.53961 1.82955 0
M  V30 717 C 64.6101 -3.57194 2.86664 0
M  V30 718 N 66.1011 -3.64702 2.85563 0
M  V30 719 C 66.8361 -4.44309 3.6246 0
M  V30 720 N 66.3321 -5.27514 4.49111 0
M  V30 721 N 68.1251 -4.39084 3.50944 0
M  V30 722 H 60.2761 -0.837882 1.95175 0
M  V30 723 H 62.5391 -0.430608 0.84456 0
M  V30 724 H 62.2451 -2.10176 2.81991 0
M  V30 725 H 62.1191 -3.39601 1.64168 0
M  V30 726 H 64.5061 -2.83338 0.824855 0
M  V30 727 H 64.5871 -1.54706 2.03715 0
M  V30 728 H 64.2311 -3.28558 3.87314 0
M  V30 729 H 64.1611 -4.5613 2.6316 0
M  V30 730 H 66.6521 -3.05289 2.22727 0
M  V30 731 H 66.9651 -5.85411 5.04493 0
M  V30 732 H 65.3101 -5.2693 4.53178 0
M  V30 733 H 68.5011 -3.7313 2.82651 0
M  V30 734 H 68.6741 -5.00883 4.11121 0
M  V30 735 N 62.0802 -0.821533 -1.34494 0
M  V30 736 C 63.3272 -0.408946 -1.98328 0
M  V30 737 C 63.6552 1.02764 -1.65136 0
M  V30 738 O 62.9102 1.73026 -0.914349 0
M  V30 739 C 63.2092 -0.556512 -3.53041 0
M  V30 740 C 62.8752 -1.95861 -4.0614 0
M  V30 741 C 61.5372 -2.34217 -4.20352 0
M  V30 742 C 63.8892 -2.87523 -4.34718 0
M  V30 743 C 61.2172 -3.63572 -4.6047 0
M  V30 744 C 63.5692 -4.1634 -4.76281 0
M  V30 745 C 62.2332 -4.54675 -4.88699 0
M  V30 746 H 61.5032 -0.149644 -0.725732 0
M  V30 747 H 64.1502 -1.04521 -1.6046 0
M  V30 748 H 62.4552 0.163148 -3.9146 0
M  V30 749 H 64.1522 -0.217826 -4.00408 0
M  V30 750 H 60.7422 -1.65066 -3.95539 0
M  V30 751 H 64.9262 -2.59133 -4.23277 0
M  V30 752 H 60.1822 -3.93101 -4.68275 0
M  V30 753 H 64.3562 -4.87455 -4.97354 0
M  V30 754 H 61.9832 -5.54959 -5.19542 0
M  V30 755 N 63.5583 1.46682 -0.576371 0
M  V30 756 C 64.7833 2.07304 -0.0630475 0
M  V30 757 C 65.2083 1.42329 1.2298 0
M  V30 758 O 64.5663 0.504865 1.74129 0
M  V30 759 C 64.6143 3.60472 0.095895 0
M  V30 760 O 63.7183 3.95927 1.15394 0
M  V30 761 H 63.0593 0.661288 -0.0599463 0
M  V30 762 H 65.5893 1.88417 -0.797511 0
M  V30 763 H 65.5993 4.06865 0.304071 0
M  V30 764 H 64.2743 4.07157 -0.84828 0
M  V30 765 H 62.8513 3.61252 0.924724 0
M  V30 766 N 65.0364 0.313813 1.54444 0
M  V30 767 C 65.9684 -0.590425 2.21465 0
M  V30 768 C 66.9814 -1.08753 1.21147 0
M  V30 769 O 68.1704 -1.00278 1.4767 0
M  V30 770 C 65.2704 -1.82179 2.85769 0
M  V30 771 C 64.4434 -1.46502 4.12136 0
M  V30 772 C 63.5024 -2.55288 4.60124 0
M  V30 773 O 62.5284 -2.19842 5.25032 0
M  V30 774 N 63.7304 -3.86053 4.33525 0
M  V30 775 H 66.4954 -0.0166033 2.99695 0
M  V30 776 H 64.0564 0.136578 1.61323 0
M  V30 777 H 66.0484 -2.54328 3.14801 0
M  V30 778 H 64.6184 -2.30369 2.11303 0
M  V30 779 H 63.8384 -0.575595 3.89975 0
M  V30 780 H 65.1264 -1.20221 4.94393 0
M  V30 781 H 64.5244 -4.17654 3.81552 0
M  V30 782 H 63.0814 -4.54461 4.67235 0
M  V30 783 N 66.5145 -1.57545 0.0417849 0
M  V30 784 C 67.4615 -2.10977 -0.935805 0
M  V30 785 C 68.4315 -1.01486 -1.31491 0
M  V30 786 O 69.6165 -1.2898 -1.40602 0
M  V30 787 C 66.7565 -2.65169 -2.2086 0
M  V30 788 C 65.8695 -3.88714 -1.88482 0
M  V30 789 C 65.0045 -4.31254 -3.1015 0
M  V30 790 C 64.0435 -5.47524 -2.7365 0
M  V30 791 N 63.1805 -5.85162 -3.87982 0
M  V30 792 H 68.0205 -2.94218 -0.473249 0
M  V30 793 H 65.5575 -1.45415 -0.221981 0
M  V30 794 H 67.5155 -2.94685 -2.95325 0
M  V30 795 H 66.1455 -1.8474 -2.64709 0
M  V30 796 H 65.1975 -3.65849 -1.04205 0
M  V30 797 H 66.5095 -4.73245 -1.57608 0
M  V30 798 H 65.6635 -4.62273 -3.92923 0
M  V30 799 H 64.4025 -3.45516 -3.44195 0
M  V30 800 H 63.4075 -5.16187 -1.89291 0
M  V30 801 H 64.6325 -6.34971 -2.40807 0
M  V30 802 H 62.5785 -5.02377 -4.21846 0
M  V30 803 H 62.4955 -6.64362 -3.60775 0
M  V30 804 H 63.7635 -6.20791 -4.71422 0
M  V30 805 N 67.9926 0.231505 -1.5589 0
M  V30 806 C 69.2386 0.95877 -1.78705 0
M  V30 807 C 69.5716 1.8438 -0.609725 0
M  V30 808 O 68.8466 1.90521 0.391426 0
M  V30 809 C 69.1296 1.8062 -3.11526 0
M  V30 810 C 68.9826 0.948328 -4.39689 0
M  V30 811 C 70.3016 2.78585 -3.40703 0
M  V30 812 H 67.4206 0.347129 -0.650131 0
M  V30 813 H 70.0626 0.228259 -1.88624 0
M  V30 814 H 68.2126 2.42902 -3.03201 0
M  V30 815 H 69.8846 0.343016 -4.60023 0
M  V30 816 H 68.1276 0.253314 -4.3306 0
M  V30 817 H 68.7986 1.57543 -5.29041 0
M  V30 818 H 71.2746 2.26439 -3.49091 0
M  V30 819 H 70.1506 3.34988 -4.34826 0
M  V30 820 H 70.4116 3.55825 -2.62375 0
M  V30 821 N 69.4707 1.49531 0.497807 0
M  V30 822 C 70.7007 1.62657 1.27382 0
M  V30 823 C 71.1087 0.298488 1.86831 0
M  V30 824 O 70.4517 -0.72647 1.68725 0
M  V30 825 C 70.5137 2.6393 2.44093 0
M  V30 826 C 70.1777 4.08195 2.05489 0
M  V30 827 C 71.1747 4.949 1.59279 0
M  V30 828 C 68.8597 4.53948 2.15026 0
M  V30 829 C 70.8537 6.25397 1.23113 0
M  V30 830 C 68.5407 5.84458 1.78473 0
M  V30 831 C 69.5387 6.70006 1.32591 0
M  V30 832 O 69.2267 7.98083 0.965327 0
M  V30 833 H 68.9587 0.550429 0.392434 0
M  V30 834 H 71.5127 1.96325 0.603801 0
M  V30 835 H 69.7427 2.25449 3.14181 0
M  V30 836 H 71.4317 2.66552 3.06113 0
M  V30 837 H 72.1977 4.60779 1.51354 0
M  V30 838 H 68.0767 3.87525 2.4969 0
M  V30 839 H 71.6207 6.92125 0.872299 0
M  V30 840 H 67.5177 6.18107 1.86048 0
M  V30 841 H 68.2857 8.11122 1.09652 0
M  V30 842 N 70.9488 -0.749086 1.3866 0
M  V30 843 C 71.8588 -1.89358 1.38494 0
M  V30 844 C 72.8748 -1.71708 0.281476 0
M  V30 845 O 74.0508 -1.94554 0.520643 0
M  V30 846 C 71.1158 -3.24782 1.21316 0
M  V30 847 C 70.1768 -3.54926 2.41508 0
M  V30 848 C 69.4098 -4.83888 2.2514 0
M  V30 849 O 69.6328 -5.56592 1.24746 0
M  V30 850 O 68.5668 -5.13612 3.13826 0
M  V30 851 H 72.3928 -1.92452 2.34938 0
M  V30 852 H 69.9778 -0.894981 1.19626 0
M  V30 853 H 71.8598 -4.05739 1.13814 0
M  V30 854 H 70.5348 -3.2249 0.279592 0
M  V30 855 H 69.4418 -2.74112 2.54585 0
M  V30 856 H 70.7748 -3.61983 3.3351 0
M  V30 857 N 72.4269 -1.23603 -0.977757 0
M  V30 858 C 73.6519 -1.09735 -1.75991 0
M  V30 859 C 74.0769 0.346858 -1.84874 0
M  V30 860 O 73.4349 1.25093 -1.3123 0
M  V30 861 C 73.4829 -1.73051 -3.16363 0
M  V30 862 O 72.5869 -0.994452 -4.0023 0
M  V30 863 H 71.9279 -0.384476 -0.541364 0
M  V30 864 H 74.4579 -1.6371 -1.2272 0
M  V30 865 H 74.4679 -1.78398 -3.66931 0
M  V30 866 H 73.1429 -2.78137 -3.09213 0
M  V30 867 H 71.7199 -1.01812 -3.58732 0
M  V30 868 N 73.905 1.17692 -1.04816 0
M  V30 869 C 74.852 2.21581 -0.645797 0
M  V30 870 C 75.822 1.62367 0.350159 0
M  V30 871 O 77.007 1.89254 0.242433 0
M  V30 872 C 74.147 3.45092 -0.0227568 0
M  V30 873 C 73.26 4.18613 -1.06709 0
M  V30 874 C 72.395 5.29602 -0.411767 0
M  V30 875 C 71.434 5.94904 -1.44067 0
M  V30 876 N 70.571 6.97414 -0.809781 0
M  V30 877 H 75.411 2.55353 -1.5362 0
M  V30 878 H 72.948 1.25438 -0.768364 0
M  V30 879 H 74.906 4.15679 0.35588 0
M  V30 880 H 73.536 3.11917 0.831122 0
M  V30 881 H 72.588 3.46779 -1.5636 0
M  V30 882 H 73.9 4.63293 -1.84827 0
M  V30 883 H 73.054 6.06696 0.0206623 0
M  V30 884 H 71.793 4.86045 0.401438 0
M  V30 885 H 70.798 5.16544 -1.88316 0
M  V30 886 H 72.023 6.40542 -2.25571 0
M  V30 887 H 69.969 6.55998 -0.0170186 0
M  V30 888 H 69.886 7.40386 -1.52856 0
M  V30 889 H 71.154 7.78463 -0.401999 0
M  V30 890 N 75.3831 0.828654 1.34056 0
M  V30 891 C 76.3311 0.242973 2.31327 0
M  V30 892 C 77.3251 -0.61944 1.57668 0
M  V30 893 O 78.5311 -0.51014 1.7262 0
M  V30 894 H 74.9061 0.059834 0.749616 0
M  V30 895 H 76.8771 1.07809 2.78244 0
M  V30 896 C 75.6261 -0.575733 3.429 0
M  V30 897 H 74.9491 0.0785582 3.99723 0
M  V30 898 H 76.3891 -0.951547 4.13185 0
M  V30 899 C 74.8481 -1.75044 2.87856 0
M  V30 900 O 75.3781 -2.84882 2.83205 0
M  V30 901 N 73.5841 -1.56903 2.44602 0
M  V30 902 H 73.1311 -0.675547 2.48584 0
M  V30 903 H 73.0891 -2.35652 2.08124 0
M  V30 904 N 76.8612 -1.46375 0.584142 0
M  V30 905 C 78.1102 -2.01585 0.0679741 0
M  V30 906 C 78.4232 -1.46109 -1.30045 0
M  V30 907 O 79.6292 -1.93148 -1.90804 0
M  V30 908 C 78.0852 -3.5983 0.0709207 0
M  V30 909 C 77.6932 -4.24303 1.43775 0
M  V30 910 C 79.4372 -4.22693 -0.391228 0
M  V30 911 C 77.3442 -5.74631 1.39834 0
M  V30 912 H 76.2742 -0.753689 0.0216421 0
M  V30 913 H 78.9252 -1.68093 0.736001 0
M  V30 914 H 77.3072 -3.90405 -0.663299 0
M  V30 915 H 78.4812 -4.05335 2.19181 0
M  V30 916 H 76.7962 -3.73539 1.84004 0
M  V30 917 H 79.3932 -5.3289 -0.439524 0
M  V30 918 H 79.7362 -3.91728 -1.40906 0
M  V30 919 H 80.2692 -3.96749 0.288974 0
M  V30 920 H 77.0082 -6.10258 2.39303 0
M  V30 921 H 76.5282 -5.95858 0.686505 0
M  V30 922 H 78.2072 -6.37375 1.11187 0
M  V30 923 N 78.3393 -0.321999 -1.54275 0
M  V30 924 C 79.6163 0.335232 -1.92706 0
M  V30 925 C 79.9963 1.70006 -1.25145 0
M  V30 926 O 79.3443 2.25067 -0.394596 0
M  V30 927 C 79.5543 0.429008 -3.46353 0
M  V30 928 C 80.9023 0.690029 -4.18956 0
M  V30 929 O 81.9263 0.511992 -3.52501 0
M  V30 930 O 80.7853 1.03338 -5.36641 0
M  V30 931 H 77.8793 0.191143 -0.804608 0
M  V30 932 H 80.4253 -0.3716 -1.65581 0
M  V30 933 H 79.1973 -0.529611 -3.87699 0
M  V30 934 H 78.8203 1.18348 -3.79578 0
M  V30 935 N 79.8174 1.5752 -0.0501392 0
M  V30 936 C 80.7474 2.14502 0.922566 0
M  V30 937 C 81.7284 1.06642 1.3252 0
M  V30 938 O 82.9134 1.34577 1.4001 0
M  V30 939 C 80.0434 2.68916 2.19776 0
M  V30 940 C 78.9974 3.8175 1.93523 0
M  V30 941 C 78.3234 4.22677 3.27487 0
M  V30 942 C 79.6234 5.06932 1.25765 0
M  V30 943 H 81.3174 2.9603 0.447952 0
M  V30 944 H 78.8634 1.42401 0.214024 0
M  V30 945 H 80.8164 3.07419 2.88222 0
M  V30 946 H 79.5404 1.84578 2.69441 0
M  V30 947 H 78.1994 3.43718 1.27489 0
M  V30 948 H 77.8474 3.35291 3.74952 0
M  V30 949 H 77.5474 4.98725 3.1072 0
M  V30 950 H 79.0714 4.63779 3.97166 0
M  V30 951 H 80.4854 5.42888 1.84244 0
M  V30 952 H 78.8824 5.88116 1.19328 0
M  V30 953 H 79.9524 4.84337 0.233536 0
M  V30 954 N 81.2955 -0.223234 1.56011 0
M  V30 955 C 82.2055 -1.29766 1.95443 0
M  V30 956 C 83.2215 -1.51373 0.858028 0
M  V30 957 O 84.3975 -1.64536 1.16146 0
M  V30 958 C 81.4625 -2.62772 2.26167 0
M  V30 959 C 80.5235 -2.49482 3.49367 0
M  V30 960 C 79.7565 -3.76145 3.78616 0
M  V30 961 O 79.9795 -4.79087 3.09568 0
M  V30 962 O 78.9135 -3.73358 4.72109 0
M  V30 963 H 82.7395 -0.99309 2.87004 0
M  V30 964 H 80.3245 -0.425958 1.43199 0
M  V30 965 H 82.2065 -3.41327 2.47131 0
M  V30 966 H 80.8815 -2.92913 1.37781 0
M  V30 967 H 79.7885 -1.69133 3.33684 0
M  V30 968 H 81.1215 -2.2428 4.38131 0
M  V30 969 N 82.7736 -1.49793 -0.48987 0
M  V30 970 C 83.7216 -1.67783 -1.61095 0
M  V30 971 C 84.7156 -0.543683 -1.60438 0
M  V30 972 O 85.9216 -0.723647 -1.64813 0
M  V30 973 H 82.2966 -0.529255 -0.534222 0
M  V30 974 H 84.2676 -2.61861 -1.43078 0
M  V30 975 C 83.0166 -1.77191 -2.99164 0
M  V30 976 H 82.3396 -2.63841 -3.0038 0
M  V30 977 H 83.7796 -1.93809 -3.77113 0
M  V30 978 C 82.2386 -0.519203 -3.32875 0
M  V30 979 O 82.7686 0.350124 -4.00171 0
M  V30 980 N 80.9746 -0.378816 -2.8812 0
M  V30 981 H 80.5216 -1.08725 -2.33531 0
M  V30 982 H 80.4796 0.458239 -3.11043 0
M  V30 983 N 84.2517 0.741722 -1.39055 0
M  V30 984 C 85.5287 1.49252 -1.26425 0
M  V30 985 C 85.9087 2.10705 0.129144 0
M  V30 986 O 85.2567 1.98045 1.13976 0
M  V30 987 C 85.4667 2.54934 -2.38347 0
M  V30 988 C 86.8147 3.21506 -2.77343 0
M  V30 989 O 87.8387 2.65245 -2.37747 0
M  V30 990 O 86.6977 4.23294 -3.45665 0
M  V30 991 H 83.7917 0.662451 -0.495064 0
M  V30 992 H 86.3377 0.776121 -1.50912 0
M  V30 993 H 85.1097 2.07857 -3.31529 0
M  V30 994 H 84.7327 3.34141 -2.15489 0
M  V30 995 N 85.7298 1.2412 0.971189 0
M  V30 996 C 86.9788 1.07284 1.70801 0
M  V30 997 C 87.2918 -0.388902 1.91695 0
M  V30 998 O 88.4978 -0.677379 2.62914 0
M  V30 999 C 86.9538 1.87145 3.07416 0
M  V30 1000 C 86.5618 3.37707 2.94377 0
M  V30 1001 C 88.3058 1.78828 3.84995 0
M  V30 1002 C 86.2128 4.09925 4.26281 0
M  V30 1003 H 85.1428 0.397854 0.64049 0
M  V30 1004 H 87.7938 1.4817 1.0825 0
M  V30 1005 H 86.1758 1.39071 3.70777 0
M  V30 1006 H 87.3498 3.93335 2.4005 0
M  V30 1007 H 85.6648 3.46938 2.30267 0
M  V30 1008 H 88.2618 2.30089 4.82662 0
M  V30 1009 H 88.6048 0.75284 4.09436 0
M  V30 1010 H 89.1378 2.24563 3.28354 0
M  V30 1011 H 85.8768 5.13813 4.07033 0
M  V30 1012 H 85.3968 3.59083 4.80437 0
M  V30 1013 H 87.0758 4.1673 4.94919 0
M  V30 1014 N 87.2079 -1.17134 1.05439 0
M  V30 1015 C 88.1549 -2.21235 0.657539 0
M  V30 1016 C 89.1249 -1.62551 -0.341543 0
M  V30 1017 O 90.3099 -1.89379 -0.232393 0
M  V30 1018 C 87.4499 -3.45076 0.0410575 0
M  V30 1019 C 86.5629 -4.18042 1.08927 0
M  V30 1020 C 85.6979 -5.29376 0.439848 0
M  V30 1021 C 84.7369 -5.94132 1.4722 0
M  V30 1022 N 83.8739 -6.96975 0.846756 0
M  V30 1023 H 88.7139 -2.54534 1.54972 0
M  V30 1024 H 86.2509 -1.25028 0.775006 0
M  V30 1025 H 88.2089 -4.15862 -0.33383 0
M  V30 1026 H 86.8389 -3.12353 -0.814568 0
M  V30 1027 H 85.8909 -3.45945 1.58196 0
M  V30 1028 H 87.2029 -4.62306 1.87282 0
M  V30 1029 H 86.3569 -6.06699 0.0115125 0
M  V30 1030 H 85.0959 -4.86251 -0.375656 0
M  V30 1031 H 84.1009 -5.15538 1.91052 0
M  V30 1032 H 85.3259 -6.39337 2.28965 0
M  V30 1033 H 83.2719 -6.5598 0.0518075 0
M  V30 1034 H 83.1889 -7.39565 1.5678 0
M  V30 1035 H 84.4569 -7.78239 0.443277 0
M  V30 1036 N 88.686 -0.835752 -1.33615 0
M  V30 1037 C 89.596 -0.269088 -2.33052 0
M  V30 1038 C 90.612 0.603251 -1.63208 0
M  V30 1039 O 91.788 0.508112 -1.94885 0
M  V30 1040 C 88.853 0.549091 -3.42324 0
M  V30 1041 C 87.914 -0.347156 -4.27894 0
M  V30 1042 C 87.147 0.43207 -5.31948 0
M  V30 1043 O 87.37 1.66409 -5.45586 0
M  V30 1044 O 86.304 -0.192298 -6.01593 0
M  V30 1045 H 90.13 -1.09243 -2.83372 0
M  V30 1046 H 87.715 -0.598198 -1.36901 0
M  V30 1047 H 89.597 1.01414 -4.09015 0
M  V30 1048 H 88.272 1.34955 -2.94226 0
M  V30 1049 H 87.179 -0.859979 -3.64081 0
M  V30 1050 H 88.512 -1.1123 -4.79467 0
M  V30 1051 N 90.1641 1.46063 -0.591896 0
M  V30 1052 C 91.1121 2.32124 0.148739 0
M  V30 1053 C 92.1061 1.45035 0.875286 0
M  V30 1054 O 93.3121 1.61609 0.792632 0
M  V30 1055 H 89.6871 0.749024 0.066832 0
M  V30 1056 H 91.6581 2.92392 -0.595783 0
M  V30 1057 C 90.4071 3.28373 1.1431 0
M  V30 1058 H 89.7301 3.95371 0.59346 0
M  V30 1059 H 91.1701 3.91352 1.63155 0
M  V30 1060 C 89.6291 2.54393 2.20875 0
M  V30 1061 O 90.1591 2.31373 3.28374 0
M  V30 1062 N 88.3651 2.14797 1.95731 0
M  V30 1063 H 87.9121 2.33719 1.08319 0
M  V30 1064 H 87.8701 1.65619 2.67241 0
M  V30 1065 N 91.6422 0.330177 1.54103 0
M  V30 1066 C 92.9192 -0.325007 1.92881 0
M  V30 1067 C 93.2992 -1.6934 1.26045 0
M  V30 1068 O 92.6472 -2.24855 0.406526 0
M  V30 1069 C 92.8572 -0.410634 3.46576 0
M  V30 1070 C 94.2052 -0.667801 4.19316 0
M  V30 1071 O 95.2292 -0.49329 3.52768 0
M  V30 1072 O 94.0882 -1.00491 5.37181 0
M  V30 1073 H 91.1822 -0.186873 0.80561 0
M  V30 1074 H 93.7282 0.380376 1.65382 0
M  V30 1075 H 92.5002 0.550164 3.87413 0
M  V30 1076 H 92.1232 -1.16333 3.802 0
M  V30 1077 N 93.1203 -1.57491 0.0584922 0
M  V30 1078 C 94.0503 -2.14988 -0.911178 0
M  V30 1079 C 95.0313 -1.07343 -1.31952 0
M  V30 1080 O 96.2163 -1.35318 -1.39294 0
M  V30 1081 C 93.3463 -2.70078 -2.18347 0
M  V30 1082 C 92.3003 -3.82771 -1.91495 0
M  V30 1083 C 91.6263 -4.24408 -3.25241 0
M  V30 1084 C 92.9263 -5.07592 -1.23075 0
M  V30 1085 H 94.6203 -2.96263 -0.432246 0
M  V30 1086 H 92.1663 -1.42512 -0.206469 0
M  V30 1087 H 94.1193 -3.08943 -2.86587 0
M  V30 1088 H 92.8433 -1.86005 -2.68458 0
M  V30 1089 H 91.5023 -3.44389 -1.25664 0
M  V30 1090 H 91.1503 -3.37275 -3.73168 0
M  V30 1091 H 90.8503 -5.00366 -3.08071 0
M  V30 1092 H 92.3743 -4.65879 -3.94701 0
M  V30 1093 H 93.7883 -5.43857 -1.81362 0
M  V30 1094 H 92.1853 -5.88741 -1.16207 0
M  V30 1095 H 93.2553 -4.84454 -0.207847 0
M  V30 1096 N 94.5984 0.214957 -1.56127 0
M  V30 1097 C 95.8474 0.936451 -1.78643 0
M  V30 1098 C 96.1604 1.85237 -0.628229 0
M  V30 1099 O 97.3664 2.613 -0.737186 0
M  V30 1100 C 95.8224 1.7154 -3.16389 0
M  V30 1101 C 95.4304 0.845299 -4.39953 0
M  V30 1102 C 97.1744 2.42772 -3.48227 0
M  V30 1103 C 95.0814 1.62198 -5.68723 0
M  V30 1104 H 94.0114 0.353401 -0.666051 0
M  V30 1105 H 96.6624 0.190169 -1.82512 0
M  V30 1106 H 95.0444 2.50484 -3.06715 0
M  V30 1107 H 96.2184 0.0959353 -4.607 0
M  V30 1108 H 94.5334 0.244789 -4.1568 0
M  V30 1109 H 97.1304 3.01394 -4.41663 0
M  V30 1110 H 97.4734 3.15984 -2.71035 0
M  V30 1111 H 98.0064 1.70813 -3.5926 0
M  V30 1112 H 94.7454 0.933011 -6.48826 0
M  V30 1113 H 94.2654 2.34579 -5.52026 0
M  V30 1114 H 95.9444 2.18095 -6.09133 0
M  V30 1115 N 96.0765 1.50051 0.48192 0
M  V30 1116 C 97.4875 1.5348 1.06305 0
M  V30 1117 C 97.8385 0.331997 1.93371 0
M  V30 1118 O 96.9635 -0.556256 2.09129 0
M  V30 1119 C 97.5585 2.7813 1.93466 0
M  V30 1120 C 96.1175 2.84275 2.46707 0
M  V30 1121 C 95.2645 2.47637 1.24785 0
M  V30 1122 H 98.2155 1.56472 0.264995 0
M  V30 1123 H 98.2365 2.59372 2.78399 0
M  V30 1124 H 97.7485 3.65654 1.30072 0
M  V30 1125 H 95.8495 2.01077 3.13686 0
M  V30 1126 H 95.9625 3.8691 2.82555 0
M  V30 1127 H 94.3265 1.99835 1.57918 0
M  V30 1128 H 95.1095 3.37457 0.630694 0
M  V30 1129 N 97.5546 -0.734337 1.39446 0
M  V30 1130 C 98.5026 -1.86971 1.38364 0
M  V30 1131 C 99.4966 -1.67288 0.266687 0
M  V30 1132 O 100.703 -1.74621 0.436755 0
M  V30 1133 H 97.0776 -0.615474 0.432082 0
M  V30 1134 H 99.0486 -1.85 2.34132 0
M  V30 1135 C 97.7976 -3.2466 1.24465 0
M  V30 1136 H 97.1206 -3.40402 2.09682 0
M  V30 1137 H 98.5606 -4.04292 1.27764 0
M  V30 1138 C 97.0196 -3.36867 -0.0468674 0
M  V30 1139 O 97.5496 -3.88618 -1.01681 0
M  V30 1140 N 95.7556 -2.90391 -0.110145 0
M  V30 1141 H 95.3026 -2.48466 0.679868 0
M  V30 1142 H 95.2606 -2.98939 -0.973799 0
M  V30 1143 N 99.0327 -1.24633 -0.964593 0
M  V30 1144 C 100.279 -1.08949 -1.71049 0
M  V30 1145 C 100.612 0.370302 -1.90637 0
M  V30 1146 O 99.8867 1.27349 -1.47011 0
M  V30 1147 C 100.17 -1.83329 -3.0994 0
M  V30 1148 C 100.023 -3.37077 -2.97824 0
M  V30 1149 C 101.342 -1.60846 -4.09654 0
M  V30 1150 H 98.4607 -0.397178 -0.620821 0
M  V30 1151 H 101.103 -1.5334 -1.12191 0
M  V30 1152 H 99.2527 -1.45597 -3.60186 0
M  V30 1153 H 100.925 -3.84425 -2.5498 0
M  V30 1154 H 99.1677 -3.65298 -2.33965 0
M  V30 1155 H 99.8387 -3.84324 -3.96231 0
M  V30 1156 H 102.315 -1.93674 -3.68279 0
M  V30 1157 H 101.191 -2.1534 -5.04896 0
M  V30 1158 H 101.452 -0.547434 -4.38698 0
M  V30 1159 N 100.511 1.16574 -1.06058 0
M  V30 1160 C 101.458 2.20883 -0.669263 0
M  V30 1161 C 102.428 1.62729 0.332918 0
M  V30 1162 O 103.613 1.895 0.222346 0
M  V30 1163 C 100.753 3.45049 -0.0593572 0
M  V30 1164 C 99.8658 4.17458 -1.11143 0
M  V30 1165 C 99.0008 5.29135 -0.467916 0
M  V30 1166 C 98.0398 5.93343 -1.50369 0
M  V30 1167 N 97.1768 6.96516 -0.883706 0
M  V30 1168 H 102.017 2.53709 -1.5632 0
M  V30 1169 H 99.5538 1.24616 -0.781625 0
M  V30 1170 H 101.512 4.16033 0.311771 0
M  V30 1171 H 100.142 3.12781 0.797992 0
M  V30 1172 H 99.1938 3.45101 -1.60029 0
M  V30 1173 H 100.506 4.61307 -1.89731 0
M  V30 1174 H 99.6598 6.06684 -0.0436871 0
M  V30 1175 H 98.3988 4.86443 0.349864 0
M  V30 1176 H 97.4038 5.14517 -1.93784 0
M  V30 1177 H 98.6288 6.38114 -2.32352 0
M  V30 1178 H 96.5748 6.55943 -0.086595 0
M  V30 1179 H 96.4918 7.38723 -1.607 0
M  V30 1180 H 97.7598 7.77993 -0.484543 0
M  V30 1181 N 101.989 0.842826 1.3317 0
M  V30 1182 C 103.235 0.441099 1.97945 0
M  V30 1183 C 103.568 -0.998024 1.66593 0
M  V30 1184 O 102.843 -1.69839 0.947898 0
M  V30 1185 C 103.126 0.666841 3.53872 0
M  V30 1186 C 102.979 2.15352 3.94897 0
M  V30 1187 C 104.298 0.115544 4.39948 0
M  V30 1188 H 101.417 0.161739 0.719034 0
M  V30 1189 H 104.059 1.05907 1.57746 0
M  V30 1190 H 102.209 0.140828 3.88245 0
M  V30 1191 H 103.881 2.7447 3.70761 0
M  V30 1192 H 102.124 2.63653 3.44484 0
M  V30 1193 H 102.795 2.26221 5.03516 0
M  V30 1194 H 105.271 0.565213 4.12243 0
M  V30 1195 H 104.147 0.303152 5.48062 0
M  V30 1196 H 104.408 -0.980935 4.3108 0
M  V30 1197 N 103.467 -1.45747 0.599634 0
M  V30 1198 C 104.4 -2.27547 -0.172552 0
M  V30 1199 C 105.378 -1.36657 -0.881116 0
M  V30 1200 O 106.562 -1.66081 -0.891595 0
M  V30 1201 C 103.689 -3.14829 -1.24903 0
M  V30 1202 C 102.735 -4.21603 -0.644465 0
M  V30 1203 S 103.568 -5.32754 0.541606 0
M  V30 1204 C 104.724 -6.23604 -0.535656 0
M  V30 1205 H 104.957 -2.92691 0.521468 0
M  V30 1206 H 102.49 -1.49473 0.386947 0
M  V30 1207 H 104.448 -3.65675 -1.86527 0
M  V30 1208 H 103.109 -2.48965 -1.91508 0
M  V30 1209 H 102.302 -4.82566 -1.45417 0
M  V30 1210 H 101.904 -3.73857 -0.103534 0
M  V30 1211 H 104.196 -6.62519 -1.41686 0
M  V30 1212 H 105.139 -7.0809 0.0376246 0
M  V30 1213 H 105.547 -5.58103 -0.84741 0
M  V30 1214 N 104.945 -0.338344 -1.53925 0
M  V30 1215 C 106.194 0.260732 -2.00008 0
M  V30 1216 C 106.507 1.52073 -1.23017 0
M  V30 1217 O 107.713 2.19672 -1.5955 0
M  V30 1218 C 106.169 0.51515 -3.56194 0
M  V30 1219 C 105.777 -0.728645 -4.42035 0
M  V30 1220 C 107.521 1.07337 -4.10706 0
M  V30 1221 C 105.428 -0.445315 -5.89721 0
M  V30 1222 H 104.358 0.101205 -0.747177 0
M  V30 1223 H 107.009 -0.452866 -1.77824 0
M  V30 1224 H 105.391 1.28932 -3.74423 0
M  V30 1225 H 106.565 -1.50352 -4.35581 0
M  V30 1226 H 104.88 -1.20813 -3.98489 0
M  V30 1227 H 107.477 1.30022 -5.18651 0
M  V30 1228 H 107.82 2.0273 -3.63602 0
M  V30 1229 H 108.353 0.360034 -3.96167 0
M  V30 1230 H 105.092 -1.36883 -6.41049 0
M  V30 1231 H 104.612 0.291569 -5.99091 0
M  V30 1232 H 106.291 -0.0606218 -6.46972 0
M  V30 1233 N 106.423 1.57458 -0.0668435 0
M  V30 1234 C 107.7 1.8469 0.644132 0
M  V30 1235 C 108.08 0.958343 1.88093 0
M  V30 1236 O 107.428 0.0233579 2.28488 0
M  V30 1237 C 107.638 3.34767 0.986509 0
M  V30 1238 C 108.986 4.02159 1.36212 0
M  V30 1239 O 110.01 3.39484 1.07839 0
M  V30 1240 O 108.869 5.12694 1.89227 0
M  V30 1241 H 105.963 0.762816 0.319437 0
M  V30 1242 H 108.509 1.6942 -0.0973986 0
M  V30 1243 H 107.281 3.91151 0.107883 0
M  V30 1244 H 106.904 3.55281 1.78497 0
M  V30 1245 N 107.901 -0.206675 1.56239 0
M  V30 1246 C 109.147 -0.930218 1.80208 0
M  V30 1247 C 109.48 -1.83387 0.638981 0
M  V30 1248 O 108.755 -1.91119 -0.361066 0
M  V30 1249 C 109.038 -1.75641 3.1436 0
M  V30 1250 C 108.891 -0.878257 4.41142 0
M  V30 1251 C 110.21 -2.73129 3.45092 0
M  V30 1252 H 107.329 -0.336742 0.655571 0
M  V30 1253 H 109.971 -0.198222 1.88963 0
M  V30 1254 H 108.121 -2.38048 3.07027 0
M  V30 1255 H 109.793 -0.269787 4.6051 0
M  V30 1256 H 108.036 -0.184385 4.33408 0
M  V30 1257 H 108.707 -1.49106 5.3148 0
M  V30 1258 H 111.183 -2.20856 3.52649 0
M  V30 1259 H 110.059 -3.28028 4.40101 0
M  V30 1260 H 110.32 -3.51606 2.68003 0
M  V30 1261 N 109.379 -1.50304 -0.473955 0
M  V30 1262 C 110.795 -1.37667 -0.807466 0
M  V30 1263 C 110.995 -0.430555 -1.96846 0
M  V30 1264 O 110.051 0.127874 -2.52176 0
M  V30 1265 C 111.364 -2.78974 -1.12223 0
M  V30 1266 C 112.912 -2.87868 -1.22885 0
M  V30 1267 C 113.387 -4.30003 -1.57676 0
M  V30 1268 N 114.878 -4.3294 -1.64673 0
M  V30 1269 C 115.613 -5.3991 -1.93091 0
M  V30 1270 N 115.109 -6.57092 -2.1955 0
M  V30 1271 N 116.902 -5.27351 -1.94569 0
M  V30 1272 H 109.053 -2.10394 0.291212 0
M  V30 1273 H 111.316 -0.945575 0.0677609 0
M  V30 1274 H 111.022 -3.50031 -0.342229 0
M  V30 1275 H 110.896 -3.16038 -2.05913 0
M  V30 1276 H 113.283 -2.17032 -1.99953 0
M  V30 1277 H 113.364 -2.54352 -0.271814 0
M  V30 1278 H 113.008 -5.01375 -0.81149 0
M  V30 1279 H 112.938 -4.61004 -2.54525 0
M  V30 1280 H 115.429 -3.48441 -1.46277 0
M  V30 1281 H 115.742 -7.34425 -2.405 0
M  V30 1282 H 114.087 -6.60272 -2.16948 0
M  V30 1283 H 117.278 -4.34801 -1.73394 0
M  V30 1284 H 117.451 -6.10805 -2.16381 0
M  V30 1285 N 110.857 0.726932 -1.39834 0
M  V30 1286 C 111.805 1.86235 -1.39353 0
M  V30 1287 C 112.799 1.67144 -0.275555 0
M  V30 1288 O 114.005 1.74387 -0.44601 0
M  V30 1289 H 110.38 0.613174 -0.43534 0
M  V30 1290 H 112.351 1.83756 -2.35109 0
M  V30 1291 C 111.1 3.23995 -1.26185 0
M  V30 1292 H 110.423 3.39285 -2.11484 0
M  V30 1293 H 111.863 4.03609 -1.29907 0
M  V30 1294 C 110.322 3.36888 0.0290018 0
M  V30 1295 O 110.852 3.89152 0.99619 0
M  V30 1296 N 109.058 2.90446 0.0947437 0
M  V30 1297 H 108.605 2.48102 -0.693035 0
M  V30 1298 H 108.563 2.99451 0.957932 0
M  V30 1299 N 112.336 1.25143 0.95797 0
M  V30 1300 C 113.269 0.995565 2.05338 0
M  V30 1301 C 114.247 -0.0740423 1.62431 0
M  V30 1302 O 115.431 0.0649212 1.88388 0
M  V30 1303 C 112.558 0.504298 3.34925 0
M  V30 1304 C 111.604 1.56393 3.96792 0
M  V30 1305 S 112.437 3.14815 4.33188 0
M  V30 1306 C 113.593 2.67415 5.65898 0
M  V30 1307 H 113.826 1.92309 2.26726 0
M  V30 1308 H 111.359 1.08635 1.09716 0
M  V30 1309 H 113.317 0.227497 4.09869 0
M  V30 1310 H 111.978 -0.402671 3.11508 0
M  V30 1311 H 111.171 1.17082 4.90212 0
M  V30 1312 H 110.773 1.79124 3.28315 0
M  V30 1313 H 113.065 2.10833 6.4386 0
M  V30 1314 H 114.008 3.59463 6.10076 0
M  V30 1315 H 114.416 2.07521 5.24972 0
M  V30 1316 N 113.814 -1.1601 1.06675 0
M  V30 1317 C 114.762 -2.22586 0.675157 0
M  V30 1318 C 115.756 -1.66525 -0.310766 0
M  V30 1319 O 116.962 -1.79145 -0.175215 0
M  V30 1320 H 113.337 -0.724855 0.200223 0
M  V30 1321 H 115.308 -2.52899 1.58381 0
M  V30 1322 C 114.057 -3.47604 0.0817162 0
M  V30 1323 H 113.38 -3.91058 0.831484 0
M  V30 1324 H 114.82 -4.23718 -0.154708 0
M  V30 1325 C 113.279 -3.15718 -1.17576 0
M  V30 1326 O 113.809 -3.31878 -2.26318 0
M  V30 1327 N 112.015 -2.69816 -1.07923 0
M  V30 1328 H 111.562 -2.56866 -0.194293 0
M  V30 1329 H 111.52 -2.48855 -1.92141 0
M  V30 1330 N 115.292 -0.849877 -1.32721 0
M  V30 1331 C 116.24 -0.279745 -2.30912 0
M  V30 1332 C 117.234 0.594278 -1.58634 0
M  V30 1333 O 118.44 0.482613 -1.73409 0
M  V30 1334 H 114.815 -0.0717521 -0.748569 0
M  V30 1335 H 116.786 -1.12222 -2.76494 0
M  V30 1336 C 115.535 0.521108 -3.43773 0
M  V30 1337 H 114.858 -0.142141 -3.99547 0
M  V30 1338 H 116.298 0.885693 -4.14646 0
M  V30 1339 C 114.757 1.70442 -2.90605 0
M  V30 1340 O 115.287 2.8034 -2.87702 0
M  V30 1341 N 113.493 1.52991 -2.47067 0
M  V30 1342 H 113.04 0.635914 -2.49628 0
M  V30 1343 H 112.998 2.32311 -2.11847 0
M  V30 1344 N 116.77 1.45427 -0.607355 0
M  V30 1345 C 118.019 2.01452 -0.100036 0
M  V30 1346 C 118.332 1.48159 1.27704 0
M  V30 1347 O 119.538 1.96159 1.87707 0
M  V30 1348 C 117.994 3.59672 -0.128158 0
M  V30 1349 C 117.602 4.21962 -1.50507 0
M  V30 1350 C 119.346 4.23262 0.323932 0
M  V30 1351 C 117.253 5.72333 -1.48959 0
M  V30 1352 H 116.183 0.75325 -0.0336299 0
M  V30 1353 H 118.834 1.66901 -0.76265 0
M  V30 1354 H 117.216 3.91411 0.601105 0
M  V30 1355 H 118.39 4.01796 -2.25602 0
M  V30 1356 H 116.705 3.70565 -1.89923 0
M  V30 1357 H 119.302 5.33522 0.354691 0
M  V30 1358 H 119.645 3.93921 1.34656 0
M  V30 1359 H 120.178 3.96239 -0.352056 0
M  V30 1360 H 116.917 6.06373 -2.48981 0
M  V30 1361 H 116.437 5.94691 -0.781214 0
M  V30 1362 H 118.116 6.35525 -1.21313 0
M  V30 1363 N 118.248 0.346503 1.53744 0
M  V30 1364 C 119.473 -0.253074 2.0585 0
M  V30 1365 C 119.898 -1.43202 1.21962 0
M  V30 1366 O 119.256 -1.79783 0.234073 0
M  V30 1367 C 119.304 -0.643193 3.54817 0
M  V30 1368 O 118.408 -1.74286 3.73762 0
M  V30 1369 H 117.749 -0.0413583 0.662711 0
M  V30 1370 H 120.279 0.501574 1.98357 0
M  V30 1371 H 120.289 -0.919526 3.97503 0
M  V30 1372 H 118.964 0.218966 4.15323 0
M  V30 1373 H 117.541 -1.46356 3.42979 0
M  V30 1374 N 119.726 -1.57421 0.075193 0
M  V30 1375 C 121.003 -1.85029 -0.634329 0
M  V30 1376 C 121.383 -0.968305 -1.87582 0
M  V30 1377 O 120.731 -0.0354749 -2.28472 0
M  V30 1378 C 120.941 -3.35286 -0.968742 0
M  V30 1379 C 122.289 -4.02875 -1.34077 0
M  V30 1380 O 123.313 -3.40051 -1.06037 0
M  V30 1381 O 122.172 -5.13691 -1.86506 0
M  V30 1382 H 119.266 -0.7645 -0.315387 0
M  V30 1383 H 121.812 -1.69366 0.106382 0
M  V30 1384 H 120.584 -3.91203 -0.0871376 0
M  V30 1385 H 120.207 -3.56223 -1.7661 0
M  V30 1386 N 121.204 0.198386 -1.56346 0
M  V30 1387 C 122.432 0.935572 -1.84539 0
M  V30 1388 C 122.847 1.76989 -0.657281 0
M  V30 1389 O 122.204 1.78626 0.374043 0
M  V30 1390 C 122.255 1.8344 -3.11499 0
M  V30 1391 O 121.976 1.03377 -4.25728 0
M  V30 1392 C 123.477 2.68355 -3.52846 0
M  V30 1393 H 120.697 0.273126 -0.612897 0
M  V30 1394 H 123.241 0.20663 -2.03453 0
M  V30 1395 H 121.396 2.51701 -2.94492 0
M  V30 1396 H 121.81 1.64599 -4.98003 0
M  V30 1397 H 123.284 3.27085 -4.44657 0
M  V30 1398 H 123.761 3.41901 -2.75681 0
M  V30 1399 H 124.367 2.05471 -3.72373 0
M  V30 1400 N 122.682 1.50554 0.465978 0
M  V30 1401 C 123.959 1.5232 1.22712 0
M  V30 1402 C 124.339 0.270807 2.09356 0
M  V30 1403 O 123.687 -0.745541 2.15995 0
M  V30 1404 C 123.897 2.82175 2.05374 0
M  V30 1405 C 125.245 3.33033 2.6339 0
M  V30 1406 O 126.269 2.83531 2.15612 0
M  V30 1407 O 125.128 4.19336 3.50456 0
M  V30 1408 H 122.222 0.611183 0.557122 0
M  V30 1409 H 124.768 1.62847 0.477381 0
M  V30 1410 H 123.54 3.64797 1.41558 0
M  V30 1411 H 123.163 2.74675 2.87471 0
M  V30 1412 N 124.16 -0.719506 1.40217 0
M  V30 1413 C 125.408 -1.47641 1.3801 0
M  V30 1414 C 125.729 -1.94992 -0.018145 0
M  V30 1415 O 124.999 -1.70073 -0.972207 0
M  V30 1416 H 123.579 -0.547744 0.507923 0
M  V30 1417 H 126.241 -0.853187 1.75233 0
M  V30 1418 H 125.337 -2.35112 2.05253 0
M  V30 1419 N 125.638 -1.25649 -0.95132 0
M  V30 1420 C 126.863 -1.13443 -1.73624 0
M  V30 1421 C 127.288 0.307565 -1.85568 0
M  V30 1422 O 126.646 1.22282 -1.33854 0
M  V30 1423 C 126.694 -1.79723 -3.12621 0
M  V30 1424 O 125.798 -1.07912 -3.98031 0
M  V30 1425 H 125.139 -0.395872 -0.533086 0
M  V30 1426 H 127.669 -1.66276 -1.1922 0
M  V30 1427 H 127.679 -1.86141 -3.63064 0
M  V30 1428 H 126.354 -2.84633 -3.03244 0
M  V30 1429 H 124.931 -1.09398 -3.56492 0
M  V30 1430 N 127.117 1.15442 -1.07289 0
M  V30 1431 C 128.528 1.67803 -0.818475 0
M  V30 1432 C 128.879 1.8489 0.656507 0
M  V30 1433 O 128.004 1.55176 1.50829 0
M  V30 1434 C 128.599 3.04805 -1.47917 0
M  V30 1435 C 127.158 3.54245 -1.27229 0
M  V30 1436 C 126.305 2.29986 -1.54925 0
M  V30 1437 H 129.256 0.996646 -1.23502 0
M  V30 1438 H 129.277 3.69702 -0.90005 0
M  V30 1439 H 128.789 2.92336 -2.55267 0
M  V30 1440 H 126.89 3.71956 -0.21899 0
M  V30 1441 H 127.003 4.35723 -1.99203 0
M  V30 1442 H 125.367 2.35496 -0.970242 0
M  V30 1443 H 126.15 2.20105 -2.63455 0
M  V30 1444 N 128.595 0.856903 1.32268 0
M  V30 1445 C 129.543 0.291987 2.3076 0
M  V30 1446 C 130.537 -0.585857 1.58947 0
M  V30 1447 O 131.743 -0.47341 1.73663 0
M  V30 1448 H 128.118 0.075721 0.748178 0
M  V30 1449 H 130.089 1.13687 2.75895 0
M  V30 1450 C 128.838 -0.502869 3.44044 0
M  V30 1451 H 128.161 0.163328 3.99466 0
M  V30 1452 H 129.601 -0.863691 4.1511 0
M  V30 1453 C 128.06 -1.68898 2.91505 0
M  V30 1454 O 128.59 -2.78811 2.89184 0
M  V30 1455 N 126.796 -1.51679 2.47875 0
M  V30 1456 H 126.343 -0.622666 2.49961 0
M  V30 1457 H 126.301 -2.31184 2.13076 0
M  V30 1458 N 130.073 -1.45103 0.615059 0
M  V30 1459 C 131.35 -1.95549 0.0448276 0
M  V30 1460 C 131.73 -1.55737 -1.4251 0
M  V30 1461 O 131.078 -0.823556 -2.13143 0
M  V30 1462 C 131.288 -3.48098 0.250785 0
M  V30 1463 C 132.636 -4.24384 0.135509 0
M  V30 1464 O 133.66 -3.55738 0.181299 0
M  V30 1465 O 132.519 -5.46493 0.0268878 0
M  V30 1466 H 129.613 -0.8264 -0.0314845 0
M  V30 1467 H 132.159 -1.55232 0.685642 0
M  V30 1468 H 130.931 -3.7007 1.27139 0
M  V30 1469 H 130.554 -3.95323 -0.424937 0
M  V30 1470 N 131.551 -0.354651 -1.53558 0
M  V30 1471 C 132.798 0.238443 -2.01091 0
M  V30 1472 C 133.126 1.49663 -1.24222 0
M  V30 1473 O 132.381 1.93049 -0.321003 0
M  V30 1474 C 132.68 0.587121 -3.52545 0
M  V30 1475 C 132.346 -0.575472 -4.47213 0
M  V30 1476 C 131.008 -0.894497 -4.72813 0
M  V30 1477 C 133.36 -1.35489 -5.03281 0
M  V30 1478 C 130.688 -1.99511 -5.51736 0
M  V30 1479 C 133.04 -2.44583 -5.83405 0
M  V30 1480 C 131.704 -2.77033 -6.07296 0
M  V30 1481 H 130.974 0.0872526 -0.735845 0
M  V30 1482 H 133.621 -0.484859 -1.8526 0
M  V30 1483 H 131.926 1.39129 -3.66265 0
M  V30 1484 H 133.623 1.05809 -3.86789 0
M  V30 1485 H 130.213 -0.316774 -4.27428 0
M  V30 1486 H 134.397 -1.12167 -4.83459 0
M  V30 1487 H 129.653 -2.25063 -5.68469 0
M  V30 1488 H 133.827 -3.05401 -6.25862 0
M  V30 1489 H 131.454 -3.6244 -6.68237 0
M  V30 1490 N 133.029 1.57378 -0.0835403 0
M  V30 1491 C 134.257 1.98263 0.59157 0
M  V30 1492 C 134.672 0.962302 1.62435 0
M  V30 1493 O 134.029 -0.049581 1.82433 0
M  V30 1494 C 134.08 3.39214 1.24965 0
M  V30 1495 O 133.801 4.37339 0.258186 0
M  V30 1496 C 135.302 3.95038 2.01147 0
M  V30 1497 H 132.522 0.651773 0.159477 0
M  V30 1498 H 135.066 2.03878 -0.159415 0
M  V30 1499 H 133.221 3.34649 1.95164 0
M  V30 1500 H 133.635 5.19371 0.731734 0
M  V30 1501 H 135.109 4.95848 2.42567 0
M  V30 1502 H 135.586 3.32222 2.87272 0
M  V30 1503 H 136.192 4.0304 1.35789 0
M  V30 1504 N 134.507 -0.190092 1.56449 0
M  V30 1505 C 135.732 -0.929864 1.85387 0
M  V30 1506 C 136.157 -1.7585 0.667704 0
M  V30 1507 O 135.515 -1.77198 -0.383459 0
M  V30 1508 C 135.563 -1.79773 3.12593 0
M  V30 1509 O 134.667 -2.89713 2.93496 0
M  V30 1510 H 134.008 -0.261574 0.610307 0
M  V30 1511 H 136.538 -0.193896 2.03679 0
M  V30 1512 H 136.548 -2.20139 3.43515 0
M  V30 1513 H 135.223 -1.18892 3.98544 0
M  V30 1514 H 133.8 -2.53065 2.73884 0
M  V30 1515 N 135.985 -1.50799 -0.457987 0
M  V30 1516 C 137.234 -1.6168 -1.20593 0
M  V30 1517 C 137.547 -0.32888 -1.92815 0
M  V30 1518 O 138.753 -0.316773 -2.69646 0
M  V30 1519 C 137.209 -2.8545 -2.19195 0
M  V30 1520 C 136.817 -4.21168 -1.52715 0
M  V30 1521 C 138.561 -3.05681 -2.94549 0
M  V30 1522 C 136.468 -5.3611 -2.4968 0
M  V30 1523 H 135.398 -0.602134 -0.453818 0
M  V30 1524 H 138.049 -1.77245 -0.475031 0
M  V30 1525 H 136.431 -2.63472 -2.95632 0
M  V30 1526 H 137.605 -4.53449 -0.819775 0
M  V30 1527 H 135.92 -4.06648 -0.895922 0
M  V30 1528 H 138.517 -3.88727 -3.67145 0
M  V30 1529 H 138.86 -2.17929 -3.54701 0
M  V30 1530 H 139.393 -3.27901 -2.25223 0
M  V30 1531 H 136.132 -6.26057 -1.94249 0
M  V30 1532 H 135.652 -5.0823 -3.18532 0
M  V30 1533 H 137.331 -5.6722 -3.11241 0
M  V30 1534 N 137.463 0.71206 -1.40597 0
M  V30 1535 C 138.74 1.46536 -1.29563 0
M  V30 1536 C 139.12 2.10931 0.0844217 0
M  V30 1537 O 138.468 2.00418 1.0975 0
M  V30 1538 C 138.678 2.49821 -2.43701 0
M  V30 1539 C 140.026 3.15551 -2.841 0
M  V30 1540 O 141.05 2.60142 -2.4332 0
M  V30 1541 O 139.909 4.15867 -3.54566 0
M  V30 1542 H 137.003 0.651801 -0.509004 0
M  V30 1543 H 139.549 0.743935 -1.52524 0
M  V30 1544 H 138.321 2.00778 -3.35863 0
M  V30 1545 H 137.944 3.29495 -2.22528 0
M  V30 1546 N 138.941 1.26152 0.944643 0
M  V30 1547 C 140.169 1.14259 1.72489 0
M  V30 1548 C 140.584 -0.302555 1.8636 0
M  V30 1549 O 139.941 -1.20741 1.36849 0
M  V30 1550 C 139.992 1.80266 3.13347 0
M  V30 1551 O 139.713 3.19133 3.00143 0
M  V30 1552 C 141.214 1.74283 4.07603 0
M  V30 1553 H 138.434 0.398051 0.540181 0
M  V30 1554 H 140.978 1.66706 1.18446 0
M  V30 1555 H 139.133 1.31766 3.64303 0
M  V30 1556 H 139.547 3.51744 3.89071 0
M  V30 1557 H 141.021 2.25111 5.04013 0
M  V30 1558 H 141.498 0.708631 4.33446 0
M  V30 1559 H 142.104 2.22319 3.62567 0
M  V30 1560 N 140.419 -1.14872 1.07899 0
M  V30 1561 C 141.369 -2.17809 0.674027 0
M  V30 1562 C 142.353 -1.58008 -0.303699 0
M  V30 1563 O 143.545 -1.76616 -0.11654 0
M  V30 1564 C 140.674 -3.43208 0.0793318 0
M  V30 1565 C 139.76 -4.10051 1.08253 0
M  V30 1566 N 140.151 -4.52296 2.2641 0
M  V30 1567 C 138.449 -4.36469 0.917124 0
M  V30 1568 C 139.15 -5.04199 2.901 0
M  V30 1569 N 138.126 -4.98088 2.17736 0
M  V30 1570 H 141.928 -2.48207 1.57386 0
M  V30 1571 H 139.442 -1.315 0.952976 0
M  V30 1572 H 141.439 -4.16272 -0.228719 0
M  V30 1573 H 140.099 -3.14291 -0.815551 0
M  V30 1574 H 141.11 -4.45504 2.64096 0
M  V30 1575 H 137.787 -4.17432 0.0756078 0
M  V30 1576 H 139.177 -5.46802 3.90458 0
M  V30 1577 N 141.898 -0.863906 -1.31812 0
M  V30 1578 C 142.808 -0.318461 -2.32428 0
M  V30 1579 C 143.824 0.568496 -1.64451 0
M  V30 1580 O 145 0.46666 -1.95919 0
M  V30 1581 C 142.065 0.476355 -3.43412 0
M  V30 1582 C 141.126 -0.43784 -4.27061 0
M  V30 1583 C 140.359 0.319138 -5.32745 0
M  V30 1584 O 140.582 1.54799 -5.48993 0
M  V30 1585 O 139.516 -0.319861 -6.01049 0
M  V30 1586 H 143.342 -1.15229 -2.80991 0
M  V30 1587 H 140.927 -0.627103 -1.35602 0
M  V30 1588 H 142.809 0.927156 -4.11074 0
M  V30 1589 H 141.484 1.28683 -2.97022 0
M  V30 1590 H 140.391 -0.937013 -3.62175 0
M  V30 1591 H 141.724 -1.21375 -4.77 0
M  V30 1592 N 143.376 1.44774 -0.622745 0
M  V30 1593 C 144.306 2.33382 0.0741861 0
M  V30 1594 C 145.287 1.47719 0.843387 0
M  V30 1595 O 146.472 1.76458 0.810934 0
M  V30 1596 C 143.602 3.30663 1.06204 0
M  V30 1597 C 142.556 4.26079 0.405037 0
M  V30 1598 C 141.882 5.13165 1.5022 0
M  V30 1599 C 143.182 5.1781 -0.683414 0
M  V30 1600 H 144.876 2.91905 -0.665713 0
M  V30 1601 H 142.422 1.40363 -0.321587 0
M  V30 1602 H 144.375 3.9153 1.55827 0
M  V30 1603 H 143.099 2.70331 1.83272 0
M  V30 1604 H 141.758 3.66532 -0.0704683 0
M  V30 1605 H 141.406 4.49191 2.26355 0
M  V30 1606 H 141.106 5.77812 1.06803 0
M  V30 1607 H 142.63 5.76902 2.00041 0
M  V30 1608 H 144.044 5.72661 -0.270631 0
M  V30 1609 H 142.441 5.91015 -1.04023 0
M  V30 1610 H 143.511 4.59326 -1.55395 0
M  V30 1611 N 144.854 0.36279 1.53368 0
M  V30 1612 C 146.101 -0.227776 2.01215 0
M  V30 1613 C 146.429 -1.49003 1.25014 0
M  V30 1614 O 145.684 -1.92876 0.331236 0
M  V30 1615 C 145.983 -0.568417 3.52851 0
M  V30 1616 C 145.649 0.59918 4.46901 0
M  V30 1617 C 144.311 0.919559 4.72332 0
M  V30 1618 C 146.663 1.38156 5.02556 0
M  V30 1619 C 143.991 2.02434 5.5067 0
M  V30 1620 C 146.343 2.47674 5.821 0
M  V30 1621 C 145.007 2.8025 6.05819 0
M  V30 1622 H 144.277 -0.083349 0.736297 0
M  V30 1623 H 146.924 0.494677 1.85001 0
M  V30 1624 H 145.229 -1.37185 3.66998 0
M  V30 1625 H 146.926 -1.03756 3.87344 0
M  V30 1626 H 143.516 0.339437 4.27254 0
M  V30 1627 H 147.7 1.14729 4.82857 0
M  V30 1628 H 142.956 2.28075 5.67267 0
M  V30 1629 H 147.13 3.08716 6.24234 0
M  V30 1630 H 144.757 3.65979 6.66306 0
M  V30 1631 N 146.332 -1.57332 0.0918853 0
M  V30 1632 C 147.28 -2.15075 -0.885747 0
M  V30 1633 C 148.274 -1.09277 -1.29441 0
M  V30 1634 O 149.48 -1.27627 -1.26931 0
M  V30 1635 H 145.855 -0.687966 -0.303656 0
M  V30 1636 H 147.826 -2.96047 -0.373995 0
M  V30 1637 C 146.575 -2.74325 -2.13638 0
M  V30 1638 H 145.898 -3.55418 -1.8308 0
M  V30 1639 H 147.338 -3.183 -2.80109 0
M  V30 1640 C 145.797 -1.70062 -2.90827 0
M  V30 1641 O 146.327 -1.13763 -3.85254 0
M  V30 1642 N 144.533 -1.40628 -2.54307 0
M  V30 1643 H 144.08 -1.866 -1.7759 0
M  V30 1644 H 144.038 -0.711043 -3.06254 0
M  V30 1645 N 147.81 0.181792 -1.56548 0
M  V30 1646 C 148.758 1.24461 -1.965 0
M  V30 1647 C 149.752 1.464 -0.852261 0
M  V30 1648 O 150.958 1.47103 -1.03733 0
M  V30 1649 H 147.333 0.418138 -0.625031 0
M  V30 1650 H 149.304 0.880714 -2.85107 0
M  V30 1651 C 148.053 2.57891 -2.33212 0
M  V30 1652 H 147.376 2.41829 -3.18369 0
M  V30 1653 H 148.816 3.3097 -2.65019 0
M  V30 1654 C 147.275 3.15871 -1.17163 0
M  V30 1655 O 147.805 3.9913 -0.453708 0
M  V30 1656 N 146.011 2.74808 -0.944936 0
M  V30 1657 H 145.558 2.07205 -1.53049 0
M  V30 1658 H 145.516 3.13939 -0.170286 0
M  V30 1659 N 149.288 1.51039 0.449983 0
M  V30 1660 C 150.235 1.71439 1.54523 0
M  V30 1661 C 151.205 0.555871 1.56522 0
M  V30 1662 O 152.39 0.788871 1.73728 0
M  V30 1663 C 149.53 1.83384 2.92343 0
M  V30 1664 C 148.643 3.10873 2.9997 0
M  V30 1665 C 147.778 3.13488 4.28834 0
M  V30 1666 C 146.817 4.35343 4.30282 0
M  V30 1667 N 145.954 4.35579 5.5065 0
M  V30 1668 H 150.794 2.64934 1.36433 0
M  V30 1669 H 148.331 1.31312 0.662982 0
M  V30 1670 H 150.289 1.88291 3.72293 0
M  V30 1671 H 148.919 0.933086 3.0902 0
M  V30 1672 H 147.971 3.15336 2.12761 0
M  V30 1673 H 149.283 4.00814 2.96901 0
M  V30 1674 H 148.437 3.17241 5.17149 0
M  V30 1675 H 147.176 2.21414 4.34543 0
M  V30 1676 H 146.181 4.3178 3.40362 0
M  V30 1677 H 147.406 5.28668 4.26248 0
M  V30 1678 H 145.352 3.46369 5.57104 0
M  V30 1679 H 145.269 5.19313 5.49409 0
M  V30 1680 H 146.537 4.43507 6.41032 0
M  V30 1681 N 150.766 -0.704594 1.40972 0
M  V30 1682 C 151.713 -1.81862 1.42109 0
M  V30 1683 C 152.683 -1.63781 0.276593 0
M  V30 1684 O 153.868 -1.84759 0.4763 0
M  V30 1685 C 151.008 -3.19669 1.30022 0
M  V30 1686 C 150.121 -3.49246 2.54267 0
M  V30 1687 C 149.256 -4.76618 2.3454 0
M  V30 1688 C 148.295 -4.99133 3.54306 0
M  V30 1689 N 147.432 -6.17726 3.33706 0
M  V30 1690 H 152.272 -1.80226 2.37324 0
M  V30 1691 H 149.809 -0.880238 1.17857 0
M  V30 1692 H 151.767 -3.99263 1.21018 0
M  V30 1693 H 150.397 -3.20506 0.384192 0
M  V30 1694 H 149.449 -2.64125 2.73756 0
M  V30 1695 H 150.761 -3.61788 3.43381 0
M  V30 1696 H 149.915 -5.64249 2.22952 0
M  V30 1697 H 148.654 -4.66305 1.42867 0
M  V30 1698 H 147.659 -4.09953 3.66359 0
M  V30 1699 H 148.884 -5.11311 4.4692 0
M  V30 1700 H 146.83 -6.08642 2.44725 0
M  V30 1701 H 146.747 -6.30995 4.16391 0
M  V30 1702 H 148.015 -7.08115 3.25873 0
M  V30 1703 N 152.244 -1.26651 -0.937939 0
M  V30 1704 C 153.493 -1.11775 -1.67897 0
M  V30 1705 C 153.806 0.33794 -1.92659 0
M  V30 1706 O 155.012 0.607434 -2.64618 0
M  V30 1707 C 153.468 -1.9523 -3.02346 0
M  V30 1708 C 153.076 -3.45393 -2.8532 0
M  V30 1709 C 154.82 -1.88972 -3.80118 0
M  V30 1710 C 152.727 -4.21083 -4.15263 0
M  V30 1711 H 151.657 -0.414696 -0.629717 0
M  V30 1712 H 154.308 -1.50988 -1.04283 0
M  V30 1713 H 152.69 -1.48853 -3.66959 0
M  V30 1714 H 153.864 -3.99561 -2.29537 0
M  V30 1715 H 152.179 -3.52921 -2.20988 0
M  V30 1716 H 154.776 -2.42805 -4.76392 0
M  V30 1717 H 155.119 -0.86113 -4.07296 0
M  V30 1718 H 155.652 -2.33189 -3.22285 0
M  V30 1719 H 152.391 -5.24425 -3.93267 0
M  V30 1720 H 151.911 -3.71695 -4.70747 0
M  V30 1721 H 153.59 -4.29706 -4.83696 0
M  V30 1722 N 153.722 1.14298 -1.08507 0
M  V30 1723 C 154.652 2.21542 -0.737646 0
M  V30 1724 C 155.633 1.67773 0.280377 0
M  V30 1725 O 156.818 1.93616 0.150521 0
M  V30 1726 C 153.948 3.46988 -0.147259 0
M  V30 1727 C 152.902 4.13789 -1.09374 0
M  V30 1728 C 152.228 5.33449 -0.365524 0
M  V30 1729 C 153.528 4.62208 -2.4323 0
M  V30 1730 H 155.222 2.5086 -1.6343 0
M  V30 1731 H 152.768 1.20576 -0.787243 0
M  V30 1732 H 154.721 4.21262 0.107808 0
M  V30 1733 H 153.445 3.17037 0.784538 0
M  V30 1734 H 152.104 3.4147 -1.33393 0
M  V30 1735 H 151.752 4.99759 0.57011 0
M  V30 1736 H 151.452 5.79088 -0.996512 0
M  V30 1737 H 152.976 6.10485 -0.118534 0
M  V30 1738 H 154.39 5.27952 -2.23472 0
M  V30 1739 H 152.787 5.18553 -3.02031 0
M  V30 1740 H 153.857 3.77224 -3.04681 0
M  V30 1741 N 155.201 0.870884 1.31352 0
M  V30 1742 C 156.131 0.343096 2.30966 0
M  V30 1743 C 157.112 -0.566507 1.60389 0
M  V30 1744 O 158.297 -0.483336 1.88089 0
M  V30 1745 C 155.427 -0.455487 3.443 0
M  V30 1746 C 154.381 0.361103 4.26474 0
M  V30 1747 C 153.707 -0.563221 5.31725 0
M  V30 1748 C 155.007 1.59566 4.97329 0
M  V30 1749 H 156.701 1.17548 2.75359 0
M  V30 1750 H 154.247 0.566686 1.32381 0
M  V30 1751 H 156.2 -0.83525 4.13039 0
M  V30 1752 H 154.924 -1.32139 2.98675 0
M  V30 1753 H 153.583 0.722825 3.59403 0
M  V30 1754 H 153.231 -1.42643 4.82351 0
M  V30 1755 H 152.931 -0.0207409 5.87596 0
M  V30 1756 H 154.455 -0.939808 6.03324 0
M  V30 1757 H 155.869 1.28728 5.58661 0
M  V30 1758 H 154.266 2.07728 5.63 0
M  V30 1759 H 155.336 2.34798 4.24262 0
M  V30 1760 N 156.679 -1.44442 0.630414 0
M  V30 1761 C 157.928 -2.01267 0.132073 0
M  V30 1762 C 158.241 -1.50172 -1.25331 0
M  V30 1763 O 159.447 -1.9912 -1.84562 0
M  V30 1764 C 157.903 -3.59422 0.185362 0
M  V30 1765 C 157.511 -4.19514 1.57201 0
M  V30 1766 C 159.255 -4.23724 -0.256553 0
M  V30 1767 C 157.162 -5.69891 1.58045 0
M  V30 1768 H 156.092 -0.752619 0.0456092 0
M  V30 1769 H 158.743 -1.65666 0.789106 0
M  V30 1770 H 157.125 -3.92318 -0.538759 0
M  V30 1771 H 158.299 -3.98156 2.31966 0
M  V30 1772 H 156.614 -3.67496 1.95795 0
M  V30 1773 H 159.211 -5.34019 -0.269767 0
M  V30 1774 H 159.554 -3.96013 -1.28372 0
M  V30 1775 H 160.087 -3.95629 0.41505 0
M  V30 1776 H 156.826 -6.02336 2.58597 0
M  V30 1777 H 156.346 -5.93373 0.875725 0
M  V30 1778 H 158.025 -6.33515 1.31408 0
M  V30 1779 N 158.157 -0.370918 -1.53173 0
M  V30 1780 C 159.382 0.220293 -2.06227 0
M  V30 1781 C 159.807 1.41243 -1.24225 0
M  V30 1782 O 159.165 1.79387 -0.262645 0
M  V30 1783 C 159.213 0.586663 -3.55796 0
M  V30 1784 O 158.317 1.68317 -3.76488 0
M  V30 1785 H 157.658 0.0308099 -0.663285 0
M  V30 1786 H 160.188 -0.533068 -1.97534 0
M  V30 1787 H 160.198 0.85617 -3.98916 0
M  V30 1788 H 158.873 -0.285013 -4.14922 0
M  V30 1789 H 157.45 1.40881 -3.45264 0
M  V30 1790 N 159.635 1.57281 -0.100228 0
M  V30 1791 C 160.565 2.17328 0.853857 0
M  V30 1792 C 161.546 1.10804 1.2906 0
M  V30 1793 O 162.731 1.38963 1.35657 0
M  V30 1794 C 159.861 2.75772 2.11109 0
M  V30 1795 C 158.815 3.87713 1.81279 0
M  V30 1796 C 158.141 4.32882 3.13874 0
M  V30 1797 C 159.441 5.10677 1.09574 0
M  V30 1798 H 161.135 2.97305 0.353545 0
M  V30 1799 H 158.681 1.43009 0.168612 0
M  V30 1800 H 160.634 3.16433 2.78296 0
M  V30 1801 H 159.358 1.93057 2.63432 0
M  V30 1802 H 158.017 3.476 1.16489 0
M  V30 1803 H 157.665 3.47051 3.64095 0
M  V30 1804 H 157.365 5.08358 2.94696 0
M  V30 1805 H 158.889 4.7618 3.82211 0
M  V30 1806 H 160.303 5.48474 1.66879 0
M  V30 1807 H 158.7 5.91615 1.00557 0
M  V30 1808 H 159.77 4.84835 0.0793299 0
M  V30 1809 N 161.113 -0.173488 1.56642 0
M  V30 1810 C 162.524 -0.736155 1.71574 0
M  V30 1811 C 162.875 -1.82888 0.710389 0
M  V30 1812 O 162 -2.16017 -0.1287 0
M  V30 1813 C 162.595 -1.34211 3.11083 0
M  V30 1814 C 161.154 -1.85162 3.27707 0
M  V30 1815 C 160.301 -0.729765 2.67525 0
M  V30 1816 H 163.252 0.0518786 1.58615 0
M  V30 1817 H 163.273 -2.21178 3.09613 0
M  V30 1818 H 162.785 -0.546579 3.84232 0
M  V30 1819 H 160.886 -2.67366 2.59512 0
M  V30 1820 H 160.999 -1.99855 4.35425 0
M  V30 1821 H 159.363 -1.14965 2.27278 0
M  V30 1822 H 160.146 0.0538806 3.43258 0
M  V30 1823 N 162.591 -1.51276 -0.441967 0
M  V30 1824 C 163.839 -1.63392 -1.18943 0
M  V30 1825 C 164.16 -0.350159 -1.9183 0
M  V30 1826 O 163.43 0.633784 -1.85364 0
M  V30 1827 H 162.01 -0.602164 -0.442049 0
M  V30 1828 H 164.672 -1.88186 -0.507165 0
M  V30 1829 H 163.768 -2.45934 -1.92154 0
M  V30 1830 N 164.069 0.697108 -1.41344 0
M  V30 1831 C 165.032 1.79281 -1.42797 0
M  V30 1832 C 166.032 1.57607 -0.318837 0
M  V30 1833 O 167.222 1.64309 -0.578642 0
M  V30 1834 C 164.354 3.17632 -1.23785 0
M  V30 1835 H 165.547 1.79385 -2.40335 0
M  V30 1836 H 163.1 0.904582 -1.27464 0
M  V30 1837 H 163.835 3.23167 -0.270814 0
M  V30 1838 H 163.62 3.34765 -2.04144 0
M  V30 1839 H 165.11 3.97617 -1.27633 0
M  V30 1840 N 165.547 1.27147 0.931209 0
M  V30 1841 C 166.794 1.13278 1.67852 0
M  V30 1842 C 167.122 -0.32204 1.91815 0
M  V30 1843 O 166.377 -1.25224 1.50391 0
M  V30 1844 C 166.676 1.8579 3.05314 0
M  V30 1845 C 166.342 3.35657 3.01073 0
M  V30 1846 C 165.004 3.76536 2.99623 0
M  V30 1847 C 167.356 4.31299 2.92627 0
M  V30 1848 C 164.684 5.11426 2.87506 0
M  V30 1849 C 167.036 5.66242 2.82051 0
M  V30 1850 C 165.7 6.06418 2.7895 0
M  V30 1851 H 164.97 0.414515 0.614214 0
M  V30 1852 H 167.617 1.57712 1.08624 0
M  V30 1853 H 165.922 1.33854 3.68226 0
M  V30 1854 H 167.619 1.72491 3.62005 0
M  V30 1855 H 164.209 3.03146 3.02986 0
M  V30 1856 H 168.393 4.00692 2.92848 0
M  V30 1857 H 163.649 5.41705 2.83489 0
M  V30 1858 H 167.823 6.40026 2.74481 0
M  V30 1859 H 165.45 7.10895 2.69318 0
M  V30 1860 N 167.025 -1.13721 1.09112 0
M  V30 1861 C 168.253 -1.88773 0.846899 0
M  V30 1862 C 168.668 -1.7896 -0.601572 0
M  V30 1863 O 168.025 -1.15394 -1.41388 0
M  V30 1864 C 168.076 -3.3849 1.26913 0
M  V30 1865 O 167.797 -3.48043 2.66079 0
M  V30 1866 C 169.298 -4.30518 1.05682 0
M  V30 1867 H 166.518 -0.59772 0.304914 0
M  V30 1868 H 169.062 -1.43977 1.45227 0
M  V30 1869 H 167.217 -3.80881 0.707723 0
M  V30 1870 H 167.631 -4.4109 2.83795 0
M  V30 1871 H 169.105 -5.3391 1.40156 0
M  V30 1872 H 169.582 -4.392 -0.00563416 0
M  V30 1873 H 170.188 -3.93893 1.60402 0
M  V30 1874 N 168.503 -0.877838 -1.30888 0
M  V30 1875 C 169.914 -0.544193 -1.78593 0
M  V30 1876 C 170.265 0.939301 -1.72254 0
M  V30 1877 O 169.39 1.7337 -1.29505 0
M  V30 1878 C 169.985 -0.98105 -3.24285 0
M  V30 1879 C 168.544 -0.698935 -3.69854 0
M  V30 1880 C 167.691 -1.168 -2.51502 0
M  V30 1881 H 170.642 -1.06278 -1.17859 0
M  V30 1882 H 170.663 -0.307009 -3.79259 0
M  V30 1883 H 170.175 -2.06079 -3.28866 0
M  V30 1884 H 168.276 0.369112 -3.70767 0
M  V30 1885 H 168.389 -1.28148 -4.61644 0
M  V30 1886 H 166.753 -0.587535 -2.47831 0
M  V30 1887 H 167.536 -2.25533 -2.58824 0
M  V30 1888 N 169.982 1.44106 -0.638065 0
M  V30 1889 C 171.21 2.06336 -0.152615 0
M  V30 1890 C 171.625 1.47731 1.17563 0
M  V30 1891 O 170.982 0.602806 1.72257 0
M  V30 1892 C 171.033 3.61479 -0.0391491 0
M  V30 1893 O 170.754 4.17903 -1.31487 0
M  V30 1894 C 172.255 4.40757 0.474176 0
M  V30 1895 H 169.475 0.665862 -0.0828776 0
M  V30 1896 H 172.019 1.84862 -0.87443 0
M  V30 1897 H 170.174 3.82191 0.633142 0
M  V30 1898 H 170.588 5.11416 -1.16421 0
M  V30 1899 H 172.062 5.49707 0.502562 0
M  V30 1900 H 172.539 4.12697 1.50258 0
M  V30 1901 H 173.145 4.24979 -0.165102 0
M  V30 1902 N 171.46 0.379036 1.52974 0
M  V30 1903 C 172.7 -0.206325 2.03356 0
M  V30 1904 C 173.064 -1.44892 1.25977 0
M  V30 1905 O 174.265 -2.11078 1.66432 0
M  V30 1906 C 172.536 -0.477887 3.54191 0
M  V30 1907 S 174.095 -1.035 4.26419 0
M  V30 1908 H 170.913 -0.0590259 0.708546 0
M  V30 1909 H 173.515 0.525013 1.88319 0
M  V30 1910 H 172.219 0.433745 4.08101 0
M  V30 1911 H 171.75 -1.23793 3.73415 0
M  V30 1912 H 173.765 -2.31821 4.38718 0
M  V30 1913 N 172.938 -1.57226 0.108567 0
M  V30 1914 C 174.163 -1.99604 -0.563303 0
M  V30 1915 C 174.588 -0.987563 -1.6009 0
M  V30 1916 O 173.946 0.0421687 -1.81251 0
M  V30 1917 C 173.994 -3.40902 -1.17552 0
M  V30 1918 O 173.098 -3.42896 -2.2912 0
M  V30 1919 H 172.439 -0.648704 -0.1417 0
M  V30 1920 H 174.969 -2.03679 0.193961 0
M  V30 1921 H 174.979 -3.78886 -1.51357 0
M  V30 1922 H 173.654 -4.1382 -0.415445 0
M  V30 1923 H 172.231 -3.1672 -1.96832 0
M  V30 1924 N 174.416 0.165178 -1.56732 0
M  V30 1925 C 175.644 0.896218 -1.86482 0
M  V30 1926 C 176.059 1.75555 -0.694675 0
M  V30 1927 O 175.416 1.79379 0.33607 0
M  V30 1928 C 175.467 1.76792 -3.1532 0
M  V30 1929 O 175.188 0.943239 -4.27825 0
M  V30 1930 C 176.689 2.6081 -3.58459 0
M  V30 1931 H 173.909 0.260064 -0.618553 0
M  V30 1932 H 176.453 0.163428 -2.03846 0
M  V30 1933 H 174.608 2.45398 -2.99764 0
M  V30 1934 H 175.022 1.53998 -5.01383 0
M  V30 1935 H 176.496 3.17579 -4.51495 0
M  V30 1936 H 176.973 3.35977 -2.82872 0
M  V30 1937 H 177.579 1.97526 -3.76648 0
M  V30 1938 N 175.894 1.51508 0.433938 0
M  V30 1939 C 176.841 1.73068 1.52696 0
M  V30 1940 C 177.811 0.572441 1.55924 0
M  V30 1941 O 178.996 0.807253 1.72882 0
M  V30 1942 C 176.136 1.86474 2.90381 0
M  V30 1943 C 175.249 3.14037 2.96656 0
M  V30 1944 C 174.384 3.18019 4.25485 0
M  V30 1945 C 173.423 4.39882 4.2564 0
M  V30 1946 N 172.56 4.41394 5.45999 0
M  V30 1947 H 177.4 2.66366 1.33615 0
M  V30 1948 H 174.937 1.32008 0.649018 0
M  V30 1949 H 176.895 1.92229 3.70275 0
M  V30 1950 H 175.525 0.965809 3.08013 0
M  V30 1951 H 174.577 3.17575 2.09404 0
M  V30 1952 H 175.889 4.0394 2.92633 0
M  V30 1953 H 175.043 3.22708 5.13755 0
M  V30 1954 H 173.782 2.2601 4.3217 0
M  V30 1955 H 172.787 4.35366 3.35763 0
M  V30 1956 H 174.012 5.33159 4.20617 0
M  V30 1957 H 171.958 3.52258 5.53399 0
M  V30 1958 H 171.875 5.25111 5.4387 0
M  V30 1959 H 173.143 4.50281 6.36292 0
M  V30 1960 N 177.372 -0.689602 1.41712 0
M  V30 1961 C 178.305 -1.81403 1.3845 0
M  V30 1962 C 179.283 -1.60653 0.250874 0
M  V30 1963 O 180.467 -1.83323 0.43874 0
M  V30 1964 C 177.594 -3.18176 1.1611 0
M  V30 1965 C 176.64 -3.57705 2.3227 0
M  V30 1966 S 177.473 -3.61827 3.94767 0
M  V30 1967 C 178.629 -5.01318 3.74742 0
M  V30 1968 H 178.862 -1.83893 2.33603 0
M  V30 1969 H 176.395 -0.858878 1.28307 0
M  V30 1970 H 178.353 -3.97132 1.03907 0
M  V30 1971 H 177.014 -3.13288 0.225668 0
M  V30 1972 H 176.207 -4.57082 2.12349 0
M  V30 1973 H 175.809 -2.86073 2.40911 0
M  V30 1974 H 178.101 -5.88986 3.34817 0
M  V30 1975 H 179.044 -5.26283 4.73743 0
M  V30 1976 H 179.452 -4.73138 3.07898 0
M  V30 1977 N 178.85 -1.27639 -0.924453 0
M  V30 1978 C 180.099 -1.13549 -1.66702 0
M  V30 1979 C 180.412 0.317487 -1.93006 0
M  V30 1980 O 181.618 0.579333 -2.65247 0
M  V30 1981 C 180.074 -1.98426 -3.00259 0
M  V30 1982 C 179.682 -3.484 -2.81641 0
M  V30 1983 C 181.426 -1.92993 -3.78092 0
M  V30 1984 C 179.333 -4.25464 -4.10773 0
M  V30 1985 H 178.263 -0.421351 -0.625283 0
M  V30 1986 H 180.914 -1.52085 -1.02676 0
M  V30 1987 H 179.296 -1.52736 -3.6536 0
M  V30 1988 H 180.47 -4.01973 -2.25287 0
M  V30 1989 H 178.785 -3.55245 -2.17232 0
M  V30 1990 H 181.382 -2.47844 -4.7379 0
M  V30 1991 H 181.725 -0.904281 -4.0636 0
M  V30 1992 H 182.258 -2.36595 -3.19793 0
M  V30 1993 H 178.997 -5.28566 -3.87683 0
M  V30 1994 H 178.517 -3.76667 -4.66779 0
M  V30 1995 H 180.196 -4.34812 -4.79111 0
M  V30 1996 N 180.328 1.1314 -1.09713 0
M  V30 1997 C 181.739 1.66029 -0.853885 0
M  V30 1998 C 182.09 1.86241 0.617142 0
M  V30 1999 O 181.215 1.5834 1.47503 0
M  V30 2000 C 181.81 3.01599 -1.5435 0
M  V30 2001 C 180.369 3.51467 -1.34714 0
M  V30 2002 C 179.516 2.26648 -1.59769 0
M  V30 2003 H 182.467 0.970226 -1.25588 0
M  V30 2004 H 182.488 3.67709 -0.978267 0
M  V30 2005 H 182 2.86856 -2.6141 0
M  V30 2006 H 180.101 3.71408 -0.297838 0
M  V30 2007 H 180.214 4.314 -2.08401 0
M  V30 2008 H 178.578 2.33385 -1.01998 0
M  V30 2009 H 179.361 2.14467 -2.68065 0
M  V30 2010 N 181.806 0.884767 1.30421 0
M  V30 2011 C 183.054 0.502112 1.95763 0
M  V30 2012 C 183.375 -0.951815 1.70192 0
M  V30 2013 O 182.645 -1.6692 1.0254 0
M  V30 2014 H 181.225 0.182694 0.724315 0
M  V30 2015 H 183.887 1.1278 1.58955 0
M  V30 2016 H 182.983 0.672188 3.04775 0
M  V30 2017 N 183.284 -1.43765 0.645699 0
M  V30 2018 C 184.514 -2.05953 0.163318 0
M  V30 2019 C 184.922 -1.48432 -1.17322 0
M  V30 2020 O 184.265 -0.607295 -1.73371 0
M  V30 2021 C 184.327 -3.59499 -0.0103065 0
M  V30 2022 C 183.991 -4.39563 1.25035 0
M  V30 2023 C 184.988 -4.72108 2.17739 0
M  V30 2024 C 182.673 -4.79697 1.48983 0
M  V30 2025 C 184.667 -5.43688 3.3269 0
M  V30 2026 C 182.354 -5.51023 2.64229 0
M  V30 2027 C 183.352 -5.8294 3.55908 0
M  V30 2028 O 183.04 -6.5281 4.69142 0
M  V30 2029 H 182.772 -0.670798 0.0836986 0
M  V30 2030 H 185.326 -1.85384 0.884407 0
M  V30 2031 H 183.556 -3.78613 -0.78669 0
M  V30 2032 H 185.245 -4.03408 -0.449087 0
M  V30 2033 H 186.011 -4.41627 2.00476 0
M  V30 2034 H 181.89 -4.54266 0.785078 0
M  V30 2035 H 185.434 -5.68517 4.04269 0
M  V30 2036 H 181.331 -5.8092 2.81429 0
M  V30 2037 H 182.099 -6.71288 4.6831 0
M  V30 2038 N 184.763 -0.387143 -1.52771 0
M  V30 2039 C 185.673 0.456442 -2.30117 0
M  V30 2040 C 186.689 1.07342 -1.36944 0
M  V30 2041 O 187.865 1.07971 -1.70013 0
M  V30 2042 C 184.93 1.56957 -3.09136 0
M  V30 2043 C 183.991 0.977916 -4.18014 0
M  V30 2044 C 183.224 2.038 -4.93256 0
M  V30 2045 O 183.447 3.25271 -4.68567 0
M  V30 2046 O 182.381 1.6565 -5.78657 0
M  V30 2047 H 186.207 -0.17359 -3.03203 0
M  V30 2048 H 183.792 -0.150919 -1.48636 0
M  V30 2049 H 185.674 2.21628 -3.58412 0
M  V30 2050 H 184.349 2.18461 -2.38865 0
M  V30 2051 H 183.256 0.294525 -3.72939 0
M  V30 2052 H 184.589 0.407128 -4.90513 0
M  V30 2053 N 186.241 1.57166 -0.116904 0
M  V30 2054 C 187.151 2.18745 0.847812 0
M  V30 2055 C 188.167 1.163 1.29423 0
M  V30 2056 O 189.343 1.48761 1.35765 0
M  V30 2057 C 186.408 2.77307 2.0809 0
M  V30 2058 C 185.469 3.94781 1.68661 0
M  V30 2059 C 184.702 4.50541 2.86091 0
M  V30 2060 O 184.925 4.05202 4.01456 0
M  V30 2061 O 183.859 5.41256 2.63298 0
M  V30 2062 H 187.685 3.01632 0.353778 0
M  V30 2063 H 185.27 1.49005 0.108599 0
M  V30 2064 H 187.152 3.14647 2.80313 0
M  V30 2065 H 185.827 1.97452 2.56504 0
M  V30 2066 H 184.734 3.62214 0.935518 0
M  V30 2067 H 186.067 4.76065 1.24991 0
M  V30 2068 N 187.719 -0.156864 1.56817 0
M  V30 2069 C 188.629 -1.2136 2.00771 0
M  V30 2070 C 189.645 -1.47598 0.921459 0
M  V30 2071 O 190.821 -1.59462 1.2302 0
M  V30 2072 C 187.886 -2.52943 2.37109 0
M  V30 2073 C 186.947 -2.34439 3.59634 0
M  V30 2074 C 186.18 -3.59748 3.94229 0
M  V30 2075 O 186.403 -4.65526 3.29609 0
M  V30 2076 O 185.337 -3.52998 4.8752 0
M  V30 2077 H 189.163 -0.870468 2.90958 0
M  V30 2078 H 186.748 -0.36484 1.44877 0
M  V30 2079 H 188.63 -3.30538 2.61386 0
M  V30 2080 H 187.305 -2.86806 1.5008 0
M  V30 2081 H 186.212 -1.54828 3.40557 0
M  V30 2082 H 187.545 -2.05496 4.4725 0
M  V30 2083 N 189.197 -1.51736 -0.425897 0
M  V30 2084 C 190.427 -1.68549 -1.19476 0
M  V30 2085 C 190.835 -0.387288 -1.85194 0
M  V30 2086 O 190.178 0.645142 -1.71999 0
M  V30 2087 C 190.24 -2.75275 -2.31223 0
M  V30 2088 C 189.904 -4.17534 -1.8578 0
M  V30 2089 C 190.901 -5.01936 -1.35485 0
M  V30 2090 C 188.586 -4.6369 -1.93123 0
M  V30 2091 C 190.58 -6.30559 -0.931347 0
M  V30 2092 C 188.267 -5.92307 -1.50384 0
M  V30 2093 C 189.265 -6.75569 -1.00473 0
M  V30 2094 O 188.953 -8.0178 -0.583452 0
M  V30 2095 H 188.685 -0.568525 -0.365725 0
M  V30 2096 H 191.239 -1.98982 -0.509444 0
M  V30 2097 H 189.469 -2.40182 -3.03067 0
M  V30 2098 H 191.158 -2.80853 -2.93047 0
M  V30 2099 H 191.924 -4.67475 -1.29197 0
M  V30 2100 H 187.803 -3.98997 -2.30916 0
M  V30 2101 H 191.347 -6.95498 -0.541084 0
M  V30 2102 H 187.244 -6.2628 -1.56346 0
M  V30 2103 H 188.012 -8.1543 -0.708275 0
M  V30 2104 N 190.675 0.682077 -1.42076 0
M  V30 2105 C 191.952 1.43755 -1.32642 0
M  V30 2106 C 192.332 2.11063 0.0396611 0
M  V30 2107 O 191.68 2.02701 1.05474 0
M  V30 2108 C 191.89 2.44596 -2.48946 0
M  V30 2109 C 193.238 3.09454 -2.9073 0
M  V30 2110 O 194.262 2.54922 -2.48783 0
M  V30 2111 O 193.121 4.08253 -3.63307 0
M  V30 2112 H 190.215 0.640857 -0.522715 0
M  V30 2113 H 192.761 0.711415 -1.54068 0
M  V30 2114 H 191.533 1.93609 -3.40046 0
M  V30 2115 H 191.156 3.24701 -2.29467 0
M  V30 2116 N 192.153 1.28127 0.917671 0
M  V30 2117 C 193.383 1.17722 1.6978 0
M  V30 2118 C 193.791 -0.267261 1.87303 0
M  V30 2119 O 193.134 -1.19286 1.39702 0
M  V30 2120 C 193.196 1.79958 3.11216 0
M  V30 2121 C 192.86 3.29187 3.16993 0
M  V30 2122 C 193.857 4.25679 2.98485 0
M  V30 2123 C 191.542 3.70075 3.39632 0
M  V30 2124 C 193.536 5.61035 3.02521 0
M  V30 2125 C 191.223 5.05557 3.433 0
M  V30 2126 C 192.221 6.00847 3.24764 0
M  V30 2127 O 191.909 7.33859 3.28187 0
M  V30 2128 H 191.641 0.409788 0.537634 0
M  V30 2129 H 194.195 1.69694 1.15728 0
M  V30 2130 H 192.425 1.22475 3.66793 0
M  V30 2131 H 194.114 1.64125 3.71238 0
M  V30 2132 H 194.88 3.95426 2.80826 0
M  V30 2133 H 190.759 2.96373 3.53106 0
M  V30 2134 H 194.303 6.35388 2.87971 0
M  V30 2135 H 190.2 5.35462 3.60486 0
M  V30 2136 H 190.968 7.42436 3.44575 0
M  V30 2137 N 193.631 -1.12557 1.10312 0
M  V30 2138 C 194.878 -1.84038 0.844759 0
M  V30 2139 C 195.206 -1.84026 -0.629668 0
M  V30 2140 O 194.461 -1.28026 -1.48013 0
M  V30 2141 C 194.76 -3.31462 1.33669 0
M  V30 2142 C 194.426 -3.51647 2.82232 0
M  V30 2143 C 193.088 -3.56864 3.22802 0
M  V30 2144 C 195.44 -3.58867 3.77974 0
M  V30 2145 C 192.768 -3.66844 4.57867 0
M  V30 2146 C 195.12 -3.70375 5.1284 0
M  V30 2147 C 193.784 -3.73848 5.52986 0
M  V30 2148 H 193.054 -0.673444 0.309119 0
M  V30 2149 H 195.701 -1.32824 1.37949 0
M  V30 2150 H 194.006 -3.85091 0.721949 0
M  V30 2151 H 195.703 -3.85236 1.11329 0
M  V30 2152 H 192.293 -3.48249 2.49842 0
M  V30 2153 H 196.477 -3.54107 3.47738 0
M  V30 2154 H 191.733 -3.67804 4.88396 0
M  V30 2155 H 195.907 -3.74904 5.86873 0
M  V30 2156 H 193.534 -3.81333 6.57639 0
M  V30 2157 N 195.109 -0.891671 -1.2995 0
M  V30 2158 C 196.358 -0.509521 -1.95158 0
M  V30 2159 C 196.671 0.947388 -1.71125 0
M  V30 2160 O 197.877 1.43669 -2.30372 0
M  V30 2161 C 196.333 -0.860315 -3.49466 0
M  V30 2162 C 195.941 -2.33545 -3.8231 0
M  V30 2163 C 197.685 -0.547687 -4.20952 0
M  V30 2164 C 195.592 -2.62752 -5.29826 0
M  V30 2165 H 194.522 -0.18682 -0.730489 0
M  V30 2166 H 197.173 -1.08756 -1.47798 0
M  V30 2167 H 195.555 -0.211285 -3.95436 0
M  V30 2168 H 196.729 -3.02936 -3.47227 0
M  V30 2169 H 195.044 -2.61629 -3.23944 0
M  V30 2170 H 197.641 -0.742854 -5.29515 0
M  V30 2171 H 197.984 0.51332 -4.13123 0
M  V30 2172 H 198.517 -1.1542 -3.80688 0
M  V30 2173 H 195.256 -3.6762 -5.42712 0
M  V30 2174 H 194.776 -1.97977 -5.66185 0
M  V30 2175 H 196.455 -2.48601 -5.97333 0
M  V30 2176 N 196.587 1.43421 -0.653314 0
M  V30 2177 C 197.534 2.30768 0.0382271 0
M  V30 2178 C 198.504 1.44755 0.814576 0
M  V30 2179 O 199.689 1.73624 0.791162 0
M  V30 2180 C 196.829 3.30336 0.998599 0
M  V30 2181 C 195.942 4.31448 0.218342 0
M  V30 2182 C 195.077 5.18098 1.17252 0
M  V30 2183 C 194.116 6.10902 0.382702 0
M  V30 2184 N 193.253 6.90176 1.28848 0
M  V30 2185 H 198.093 2.89357 -0.712511 0
M  V30 2186 H 195.63 1.42548 -0.363128 0
M  V30 2187 H 197.588 3.86572 1.56901 0
M  V30 2188 H 196.218 2.73397 1.71621 0
M  V30 2189 H 195.27 3.77506 -0.46836 0
M  V30 2190 H 196.582 4.97227 -0.395812 0
M  V30 2191 H 195.736 5.7896 1.81356 0
M  V30 2192 H 194.475 4.52444 1.82058 0
M  V30 2193 H 193.48 5.49128 -0.27169 0
M  V30 2194 H 194.705 6.78598 -0.260957 0
M  V30 2195 H 192.651 6.27171 1.92334 0
M  V30 2196 H 192.568 7.52478 0.728887 0
M  V30 2197 H 193.836 7.55543 1.91766 0
M  V30 2198 N 198.065 0.39524 1.52563 0
M  V30 2199 C 198.975 -0.444232 2.30356 0
M  V30 2200 C 199.991 -1.06615 1.37511 0
M  V30 2201 O 201.167 -1.07067 1.70583 0
M  V30 2202 C 198.232 -1.55315 3.09964 0
M  V30 2203 C 197.293 -0.955734 4.18526 0
M  V30 2204 C 196.526 -2.01181 4.9433 0
M  V30 2205 O 196.749 -3.22781 4.70285 0
M  V30 2206 O 195.683 -1.62579 5.79527 0
M  V30 2207 H 199.509 0.189667 3.03107 0
M  V30 2208 H 197.094 0.1588 1.48554 0
M  V30 2209 H 198.976 -2.19724 3.59582 0
M  V30 2210 H 197.651 -2.17191 2.4002 0
M  V30 2211 H 196.558 -0.274743 3.7309 0
M  V30 2212 H 197.891 -0.381109 4.90722 0
M  V30 2213 N 199.544 -1.57102 0.125237 0
M  V30 2214 C 200.492 -2.16905 -0.839927 0
M  V30 2215 C 201.486 -1.11998 -1.27094 0
M  V30 2216 O 202.692 -1.3029 -1.24195 0
M  V30 2217 H 199.067 -0.694252 -0.288995 0
M  V30 2218 H 201.038 -2.96774 -0.311115 0
M  V30 2219 C 199.787 -2.78795 -2.07771 0
M  V30 2220 H 199.11 -3.59221 -1.755 0
M  V30 2221 H 200.55 -3.2417 -2.73295 0
M  V30 2222 C 199.009 -1.76193 -2.87155 0
M  V30 2223 O 199.539 -1.21909 -3.82755 0
M  V30 2224 N 197.745 -1.45991 -2.51267 0
M  V30 2225 H 197.292 -1.90325 -1.73592 0
M  V30 2226 H 197.25 -0.775844 -3.04677 0
M  V30 2227 N 201.022 0.148545 -1.56898 0
M  V30 2228 C 201.97 1.20265 -1.99096 0
M  V30 2229 C 202.964 1.44559 -0.883123 0
M  V30 2230 O 204.17 1.4487 -1.0683 0
M  V30 2231 H 200.545 0.404786 -0.63376 0
M  V30 2232 H 202.516 0.82004 -2.86911 0
M  V30 2233 C 201.265 2.52886 -2.3863 0
M  V30 2234 H 200.588 2.35021 -3.23427 0
M  V30 2235 H 202.028 3.25274 -2.7198 0
M  V30 2236 C 200.487 3.13315 -1.23837 0
M  V30 2237 O 201.017 3.98077 -0.538268 0
M  V30 2238 N 199.223 2.72742 -1.00301 0
M  V30 2239 H 198.77 2.03912 -1.5741 0
M  V30 2240 H 198.728 3.13507 -0.236838 0
M  V30 2241 N 202.5 1.5196 0.417844 0
M  V30 2242 C 203.747 1.65591 1.16559 0
M  V30 2243 C 204.075 0.381565 1.90721 0
M  V30 2244 O 203.33 -0.635156 1.85106 0
M  V30 2245 C 203.629 2.82269 2.19223 0
M  V30 2246 C 203.295 4.20819 1.61933 0
M  V30 2247 C 201.957 4.58506 1.46033 0
M  V30 2248 C 204.309 5.07196 1.20008 0
M  V30 2249 C 201.637 5.80257 0.867113 0
M  V30 2250 C 203.989 6.29544 0.621086 0
M  V30 2251 C 202.653 6.65987 0.449144 0
M  V30 2252 H 201.923 0.605939 0.42652 0
M  V30 2253 H 204.57 1.86041 0.45397 0
M  V30 2254 H 202.875 2.56118 2.96498 0
M  V30 2255 H 204.572 2.90012 2.76936 0
M  V30 2256 H 201.162 3.91116 1.7529 0
M  V30 2257 H 205.346 4.7867 1.31105 0
M  V30 2258 H 200.602 6.07124 0.721833 0
M  V30 2259 H 204.776 6.95805 0.287798 0
M  V30 2260 H 202.403 7.60199 -0.012632 0
M  V30 2261 N 203.978 -0.674533 1.42435 0
M  V30 2262 C 205.255 -1.4305 1.33402 0
M  V30 2263 C 205.635 -2.11081 -0.0284674 0
M  V30 2264 O 204.983 -2.03257 -1.04397 0
M  V30 2265 C 205.193 -2.43272 2.50239 0
M  V30 2266 C 206.541 -3.07907 2.92367 0
M  V30 2267 O 207.565 -2.53599 2.50132 0
M  V30 2268 O 206.424 -4.0632 3.65467 0
M  V30 2269 H 203.518 -0.638076 0.526106 0
M  V30 2270 H 206.064 -0.703235 1.54443 0
M  V30 2271 H 204.836 -1.91803 3.41068 0
M  V30 2272 H 204.459 -3.23479 2.31186 0
M  V30 2273 N 205.456 -1.28612 -0.910864 0
M  V30 2274 C 206.733 -1.06632 -1.63979 0
M  V30 2275 C 207.113 0.393351 -2.07403 0
M  V30 2276 O 206.461 1.37999 -1.82122 0
M  V30 2277 C 206.671 -2.0436 -2.8291 0
M  V30 2278 C 208.019 -2.34666 -3.5386 0
M  V30 2279 O 209.043 -2.02467 -2.93062 0
M  V30 2280 O 207.902 -2.89631 -4.63439 0
M  V30 2281 H 204.996 -0.407737 -0.7195 0
M  V30 2282 H 207.542 -1.39942 -0.959914 0
M  V30 2283 H 206.314 -3.02727 -2.47936 0
M  V30 2284 H 205.937 -1.71714 -3.58609 0
M  V30 2285 N 206.934 1.1197 -1.10907 0
M  V30 2286 C 208.183 1.82947 -0.849302 0
M  V30 2287 C 208.496 1.85275 0.627112 0
M  V30 2288 O 209.702 2.52296 1.00295 0
M  V30 2289 C 208.158 3.28529 -1.46959 0
M  V30 2290 C 207.766 3.34546 -2.97965 0
M  V30 2291 C 209.51 4.04443 -1.28942 0
M  V30 2292 C 207.417 4.74491 -3.53004 0
M  V30 2293 H 206.347 0.685477 -0.314065 0
M  V30 2294 H 208.998 1.2604 -1.33365 0
M  V30 2295 H 207.38 3.85333 -0.912917 0
M  V30 2296 H 208.554 2.87654 -3.59989 0
M  V30 2297 H 206.869 2.72108 -3.15192 0
M  V30 2298 H 209.466 5.07787 -1.67502 0
M  V30 2299 H 209.809 4.15656 -0.231456 0
M  V30 2300 H 210.342 3.5401 -1.81443 0
M  V30 2301 H 207.081 4.68474 -4.58489 0
M  V30 2302 H 206.601 5.21816 -2.9575 0
M  V30 2303 H 208.28 5.4344 -3.51115 0
M  V30 2304 N 208.412 0.89855 1.29475 0
M  V30 2305 C 209.642 0.538479 1.99459 0
M  V30 2306 C 210.05 -0.880922 1.67441 0
M  V30 2307 O 209.393 -1.59283 0.915127 0
M  V30 2308 C 209.455 0.649564 3.53583 0
M  V30 2309 C 209.119 2.03573 4.09154 0
M  V30 2310 C 210.116 3.00675 4.24135 0
M  V30 2311 C 207.801 2.3448 4.44212 0
M  V30 2312 C 209.795 4.26809 4.73405 0
M  V30 2313 C 207.482 3.60857 4.93179 0
M  V30 2314 C 208.48 4.56836 5.0773 0
M  V30 2315 O 208.168 5.80969 5.55635 0
M  V30 2316 H 207.9 0.205372 0.644048 0
M  V30 2317 H 210.454 1.20958 1.66007 0
M  V30 2318 H 208.684 -0.0785592 3.8662 0
M  V30 2319 H 210.373 0.29881 4.04799 0
M  V30 2320 H 211.139 2.78112 3.97339 0
M  V30 2321 H 207.018 1.60534 4.32145 0
M  V30 2322 H 210.562 5.0173 4.84678 0
M  V30 2323 H 206.459 3.83251 5.19412 0
M  V30 2324 H 207.227 5.83542 5.73952 0
M  V30 2325 N 209.89 -1.43072 0.660911 0
M  V30 2326 C 211.13 -2.03596 0.181146 0
M  V30 2327 C 211.494 -1.51057 -1.18515 0
M  V30 2328 O 212.695 -2.03275 -1.75877 0
M  V30 2329 C 210.966 -3.56845 0.19911 0
M  V30 2330 S 212.525 -4.38289 -0.211684 0
M  V30 2331 H 209.343 -0.706954 0.0757479 0
M  V30 2332 H 211.945 -1.75027 0.870965 0
M  V30 2333 H 210.649 -3.92583 1.1961 0
M  V30 2334 H 210.18 -3.90067 -0.510996 0
M  V30 2335 H 212.195 -4.74583 -1.44863 0
M  V30 2336 N 211.368 -0.403325 -1.52352 0
M  V30 2337 C 212.617 0.175668 -2.00934 0
M  V30 2338 C 212.93 1.46718 -1.29356 0
M  V30 2339 O 214.136 2.12708 -1.68724 0
M  V30 2340 C 212.592 0.363612 -3.58058 0
M  V30 2341 C 212.2 -0.915472 -4.38547 0
M  V30 2342 C 213.944 0.89821 -4.14888 0
M  V30 2343 C 211.851 -0.695035 -5.87302 0
M  V30 2344 H 210.781 0.0694234 -0.750797 0
M  V30 2345 H 213.432 -0.527879 -1.75743 0
M  V30 2346 H 211.814 1.12935 -3.79555 0
M  V30 2347 H 212.988 -1.68691 -4.28812 0
M  V30 2348 H 211.303 -1.37606 -3.93006 0
M  V30 2349 H 213.9 1.07907 -5.23699 0
M  V30 2350 H 214.243 1.87126 -3.71873 0
M  V30 2351 H 214.776 0.191681 -3.97338 0
M  V30 2352 H 211.515 -1.63948 -6.34666 0
M  V30 2353 H 211.035 0.0372116 -5.99788 0
M  V30 2354 H 212.714 -0.33497 -6.46132 0
M  V30 2355 N 212.846 1.57033 -0.133567 0
M  V30 2356 C 214.074 2.00044 0.528195 0
M  V30 2357 C 214.489 1.01349 1.59291 0
M  V30 2358 O 213.846 0.00848369 1.82498 0
M  V30 2359 C 213.897 3.43018 1.1411 0
M  V30 2360 O 213.618 4.37939 0.11892 0
M  V30 2361 C 215.119 4.01237 1.88477 0
M  V30 2362 H 212.339 0.656517 0.138661 0
M  V30 2363 H 214.883 2.03267 -0.224196 0
M  V30 2364 H 213.038 3.40688 1.84418 0
M  V30 2365 H 213.452 5.21436 0.56613 0
M  V30 2366 H 214.926 5.03314 2.26669 0
M  V30 2367 H 215.403 3.41193 2.76558 0
M  V30 2368 H 216.009 4.07156 1.22898 0
M  V30 2369 N 214.325 -0.140222 1.56975 0
M  V30 2370 C 215.273 -1.19207 1.99731 0
M  V30 2371 C 216.267 -1.44089 0.890777 0
M  V30 2372 O 217.473 -1.44301 1.07597 0
M  V30 2373 H 213.848 -0.40142 0.635898 0
M  V30 2374 H 215.819 -0.804813 2.87342 0
M  V30 2375 C 214.568 -2.51617 2.39967 0
M  V30 2376 H 213.891 -2.33303 3.24669 0
M  V30 2377 H 215.331 -3.23827 2.73701 0
M  V30 2378 C 213.79 -3.12654 1.25496 0
M  V30 2379 O 214.32 -3.97786 0.559371 0
M  V30 2380 N 212.526 -2.72206 1.01746 0
M  V30 2381 H 212.073 -2.03074 1.58489 0
M  V30 2382 H 212.031 -3.13377 0.253461 0
M  V30 2383 N 215.803 -1.52179 -0.40978 0
M  V30 2384 C 216.751 -1.76086 -1.51975 0
M  V30 2385 C 217.745 -0.627964 -1.57331 0
M  V30 2386 O 218.951 -0.809993 -1.60745 0
M  V30 2387 H 215.326 -0.556829 -0.505416 0
M  V30 2388 H 217.297 -2.69077 -1.28996 0
M  V30 2389 C 216.046 -1.92799 -2.8935 0
M  V30 2390 H 215.369 -2.79392 -2.85972 0
M  V30 2391 H 216.809 -2.13527 -3.66309 0
M  V30 2392 C 215.268 -0.694923 -3.29655 0
M  V30 2393 O 215.798 0.13751 -4.01465 0
M  V30 2394 N 214.004 -0.53101 -2.85707 0
M  V30 2395 H 213.551 -1.20952 -2.27439 0
M  V30 2396 H 213.509 0.292718 -3.13034 0
M  V30 2397 N 217.281 0.66697 -1.42791 0
M  V30 2398 C 218.558 1.4234 -1.34159 0
M  V30 2399 C 218.938 2.11093 0.0172729 0
M  V30 2400 O 218.286 2.03808 1.03318 0
M  V30 2401 C 218.496 2.41942 -2.51526 0
M  V30 2402 C 219.844 3.06353 -2.93995 0
M  V30 2403 O 220.868 2.52269 -2.51473 0
M  V30 2404 O 219.727 4.04376 -3.67617 0
M  V30 2405 H 216.821 0.635277 -0.529483 0
M  V30 2406 H 219.367 0.695034 -1.54814 0
M  V30 2407 H 218.139 1.89991 -3.42081 0
M  V30 2408 H 217.762 3.22249 -2.32898 0
M  V30 2409 N 218.759 1.29093 0.90403 0
M  V30 2410 C 220.008 1.16187 1.64874 0
M  V30 2411 C 220.321 -0.286742 1.93487 0
M  V30 2412 O 221.527 -0.537062 2.66135 0
M  V30 2413 C 219.983 2.03177 2.97064 0
M  V30 2414 C 219.591 3.52836 2.76062 0
M  V30 2415 C 221.335 1.98984 3.74974 0
M  V30 2416 C 219.242 4.31945 4.03952 0
M  V30 2417 H 218.172 0.431246 0.618501 0
M  V30 2418 H 220.823 1.53699 1.00243 0
M  V30 2419 H 219.205 1.5853 3.62883 0
M  V30 2420 H 220.379 4.05507 2.18863 0
M  V30 2421 H 218.694 3.58656 2.11553 0
M  V30 2422 H 221.291 2.55351 4.69787 0
M  V30 2423 H 221.634 0.968815 4.0487 0
M  V30 2424 H 222.167 2.41652 3.15989 0
M  V30 2425 H 218.906 5.34667 3.79225 0
M  V30 2426 H 218.426 3.84045 4.60727 0
M  V30 2427 H 220.105 4.42379 4.72133 0
M  V30 2428 N 220.237 -1.11381 1.11499 0
M  V30 2429 C 221.467 -1.86663 0.885464 0
M  V30 2430 C 221.875 -1.80464 -0.568281 0
M  V30 2431 O 221.218 -1.18445 -1.40415 0
M  V30 2432 C 221.28 -3.36337 1.26956 0
M  V30 2433 C 220.944 -3.66304 2.73259 0
M  V30 2434 C 221.941 -3.63733 3.71476 0
M  V30 2435 C 219.626 -3.9529 3.09921 0
M  V30 2436 C 221.62 -3.89725 5.04374 0
M  V30 2437 C 219.307 -4.20941 4.43004 0
M  V30 2438 C 220.305 -4.18147 5.40039 0
M  V30 2439 O 219.993 -4.43153 6.70724 0
M  V30 2440 H 219.725 -0.597114 0.316908 0
M  V30 2441 H 222.279 -1.41782 1.48617 0
M  V30 2442 H 220.509 -3.81826 0.611999 0
M  V30 2443 H 222.198 -3.92986 1.01573 0
M  V30 2444 H 222.964 -3.41389 3.44498 0
M  V30 2445 H 218.843 -3.966 2.35009 0
M  V30 2446 H 222.387 -3.8746 5.80104 0
M  V30 2447 H 218.284 -4.42761 4.69716 0
M  V30 2448 H 219.052 -4.60717 6.76522 0
M  V30 2449 N 221.715 -0.905404 -1.28997 0
M  V30 2450 C 222.961 -0.535039 -1.95615 0
M  V30 2451 C 223.294 0.917404 -1.71165 0
M  V30 2452 O 222.569 1.65123 -1.02785 0
M  V30 2453 C 222.852 -0.834918 -3.50287 0
M  V30 2454 C 222.705 -2.33948 -3.84172 0
M  V30 2455 C 224.024 -0.325318 -4.38896 0
M  V30 2456 H 221.143 -0.195861 -0.710498 0
M  V30 2457 H 223.785 -1.13313 -1.52513 0
M  V30 2458 H 221.935 -0.325904 -3.87131 0
M  V30 2459 H 223.607 -2.91847 -3.57243 0
M  V30 2460 H 221.85 -2.79789 -3.31513 0
M  V30 2461 H 222.521 -2.49987 -4.92149 0
M  V30 2462 H 224.997 -0.761256 -4.09077 0
M  V30 2463 H 223.873 -0.564295 -5.45992 0
M  V30 2464 H 224.134 0.774144 -4.35269 0
M  V30 2465 N 223.193 1.4272 -0.668489 0
M  V30 2466 C 224.123 2.335 -0.000100175 0
M  V30 2467 C 225.104 1.50328 0.795964 0
M  V30 2468 O 226.289 1.78949 0.754385 0
M  V30 2469 C 223.419 3.33874 0.956302 0
M  V30 2470 C 222.373 4.27152 0.269278 0
M  V30 2471 C 221.699 5.17684 1.33818 0
M  V30 2472 C 222.999 5.15373 -0.847805 0
M  V30 2473 H 224.693 2.89639 -0.758244 0
M  V30 2474 H 222.239 1.39269 -0.366079 0
M  V30 2475 H 224.192 3.9629 1.43292 0
M  V30 2476 H 222.916 2.76025 1.74579 0
M  V30 2477 H 221.575 3.66123 -0.187042 0
M  V30 2478 H 221.223 4.56165 2.1195 0
M  V30 2479 H 220.923 5.80918 0.883659 0
M  V30 2480 H 222.447 5.82974 1.81586 0
M  V30 2481 H 223.861 5.7151 -0.452681 0
M  V30 2482 H 222.258 5.87407 -1.22773 0
M  V30 2483 H 223.328 4.5415 -1.69929 0
M  V30 2484 N 224.671 0.411399 1.52136 0
M  V30 2485 C 225.618 -0.412975 2.27075 0
M  V30 2486 C 226.588 -1.03912 1.29582 0
M  V30 2487 O 227.773 -1.06296 1.58448 0
M  V30 2488 C 224.913 -1.52247 3.09701 0
M  V30 2489 C 224.026 -0.917021 4.22155 0
M  V30 2490 C 223.161 -1.9994 4.92135 0
M  V30 2491 C 222.2 -1.37101 5.96548 0
M  V30 2492 N 221.337 -2.39364 6.60038 0
M  V30 2493 H 226.177 0.232499 2.97092 0
M  V30 2494 H 223.714 0.126496 1.46555 0
M  V30 2495 H 225.672 -2.17674 3.55913 0
M  V30 2496 H 224.302 -2.13794 2.41851 0
M  V30 2497 H 223.354 -0.151742 3.80097 0
M  V30 2498 H 224.666 -0.418006 4.97045 0
M  V30 2499 H 223.82 -2.73088 5.41763 0
M  V30 2500 H 222.559 -2.53208 4.16818 0
M  V30 2501 H 221.564 -0.624873 5.46237 0
M  V30 2502 H 222.789 -0.845998 6.7381 0
M  V30 2503 H 220.735 -2.91759 5.87548 0
M  V30 2504 H 220.652 -1.9428 7.3061 0
M  V30 2505 H 221.92 -3.12074 7.14304 0
M  V30 2506 N 226.149 -1.5696 0.141893 0
M  V30 2507 C 227.374 -2.00754 -0.520838 0
M  V30 2508 C 227.799 -1.0213 -1.57959 0
M  V30 2509 O 227.157 0.00371324 -1.813 0
M  V30 2510 C 227.205 -3.43318 -1.10294 0
M  V30 2511 O 226.309 -3.47679 -2.21795 0
M  V30 2512 H 225.65 -0.651564 -0.127908 0
M  V30 2513 H 228.18 -2.03221 0.23712 0
M  V30 2514 H 228.19 -3.82012 -1.43287 0
M  V30 2515 H 226.865 -4.14608 -0.327574 0
M  V30 2516 H 225.442 -3.20824 -1.9007 0
M  V30 2517 N 227.627 0.131896 -1.57047 0
M  V30 2518 C 228.873 0.838268 -1.85323 0
M  V30 2519 C 229.228 1.78098 -0.727937 0
M  V30 2520 O 228.521 1.89645 0.27304 0
M  V30 2521 C 228.715 1.63703 -3.17704 0
M  V30 2522 C 228.544 0.773167 -4.43004 0
M  V30 2523 C 227.314 0.432956 -5.03442 0
M  V30 2524 C 229.512 0.0966216 -5.14209 0
M  V30 2525 N 227.494 -0.442924 -6.123 0
M  V30 2526 C 228.865 -0.638778 -6.16701 0
M  V30 2527 C 230.92 0.018861 -4.97896 0
M  V30 2528 C 229.623 -1.44462 -7.04644 0
M  V30 2529 C 231.649 -0.773762 -5.86316 0
M  V30 2530 C 231.011 -1.4974 -6.883 0
M  V30 2531 H 227.11 0.284086 -0.728573 0
M  V30 2532 H 229.694 0.102731 -1.94429 0
M  V30 2533 H 227.865 2.3437 -3.09718 0
M  V30 2534 H 229.597 2.28774 -3.33833 0
M  V30 2535 H 226.352 0.772237 -4.67262 0
M  V30 2536 H 226.776 -0.872332 -6.71356 0
M  V30 2537 H 231.418 0.56397 -4.19022 0
M  V30 2538 H 229.136 -2.00093 -7.82936 0
M  V30 2539 H 232.722 -0.83612 -5.75761 0
M  V30 2540 H 231.602 -2.10087 -7.55535 0
M  V30 2541 N 229.106 1.52395 0.401703 0
M  V30 2542 C 230.353 1.66817 1.14796 0
M  V30 2543 C 230.681 0.401772 1.90305 0
M  V30 2544 O 229.936 -0.615487 1.85769 0
M  V30 2545 C 230.235 2.84578 2.16217 0
M  V30 2546 C 229.901 4.22513 1.5746 0
M  V30 2547 C 228.563 4.60029 1.41161 0
M  V30 2548 C 230.915 5.0844 1.14622 0
M  V30 2549 C 228.243 5.81144 0.80552 0
M  V30 2550 C 230.595 6.30167 0.55428 0
M  V30 2551 C 229.259 6.66426 0.378482 0
M  V30 2552 H 228.529 0.610428 0.420069 0
M  V30 2553 H 231.176 1.86512 0.434212 0
M  V30 2554 H 229.481 2.59248 2.93764 0
M  V30 2555 H 231.178 2.92933 2.73845 0
M  V30 2556 H 227.768 3.92953 1.71132 0
M  V30 2557 H 231.952 4.80034 1.26021 0
M  V30 2558 H 227.208 6.07855 0.657399 0
M  V30 2559 H 231.382 6.96071 0.213983 0
M  V30 2560 H 229.009 7.60143 -0.0932606 0
M  V30 2561 N 230.584 -0.659388 1.43143 0
M  V30 2562 C 231.531 -1.77249 1.47822 0
M  V30 2563 C 232.501 -1.62818 0.328558 0
M  V30 2564 O 233.686 -1.83151 0.534838 0
M  V30 2565 C 230.826 -3.15371 1.40126 0
M  V30 2566 C 229.939 -3.4098 2.65249 0
M  V30 2567 C 229.074 -4.68915 2.49584 0
M  V30 2568 C 228.113 -4.87608 3.70006 0
M  V30 2569 N 227.25 -6.06796 3.53189 0
M  V30 2570 H 232.09 -1.72584 2.42938 0
M  V30 2571 H 229.627 -0.842297 1.20598 0
M  V30 2572 H 231.585 -3.9521 1.33659 0
M  V30 2573 H 230.215 -3.19121 0.485964 0
M  V30 2574 H 229.267 -2.55282 2.8202 0
M  V30 2575 H 230.579 -3.50681 3.54717 0
M  V30 2576 H 229.733 -5.56871 2.4079 0
M  V30 2577 H 228.472 -4.61524 1.5763 0
M  V30 2578 H 227.477 -3.9809 3.79215 0
M  V30 2579 H 228.702 -4.96834 4.62961 0
M  V30 2580 H 226.648 -6.00549 2.63965 0
M  V30 2581 H 226.565 -6.17428 4.36255 0
M  V30 2582 H 227.833 -6.9739 3.48236 0
M  V30 2583 N 232.062 -1.29571 -0.897171 0
M  V30 2584 C 233.287 -1.20705 -1.68656 0
M  V30 2585 C 233.712 0.228582 -1.86706 0
M  V30 2586 O 233.07 1.16494 -1.3892 0
M  V30 2587 C 233.118 -1.9282 -3.04717 0
M  V30 2588 O 232.222 -1.24697 -3.93096 0
M  V30 2589 H 231.563 -0.418126 -0.515816 0
M  V30 2590 H 234.093 -1.71183 -1.12061 0
M  V30 2591 H 234.103 -2.01372 -3.54843 0
M  V30 2592 H 232.778 -2.97239 -2.90899 0
M  V30 2593 H 231.355 -1.2442 -3.51531 0
M  V30 2594 N 233.54 1.10788 -1.12088 0
M  V30 2595 C 234.473 2.16237 -0.729168 0
M  V30 2596 C 235.451 1.60207 0.277921 0
M  V30 2597 O 236.635 1.87707 0.172737 0
M  V30 2598 C 233.762 3.38609 -0.0786848 0
M  V30 2599 C 232.808 4.13322 -1.05201 0
M  V30 2600 S 233.641 4.69371 -2.57781 0
M  V30 2601 C 234.797 5.95058 -1.94053 0
M  V30 2602 H 235.03 2.4913 -1.62239 0
M  V30 2603 H 232.563 1.22519 -0.939603 0
M  V30 2604 H 234.521 4.09473 0.290254 0
M  V30 2605 H 233.182 3.03962 0.791593 0
M  V30 2606 H 232.375 5.01051 -0.544433 0
M  V30 2607 H 231.977 3.48251 -1.36371 0
M  V30 2608 H 234.269 6.65278 -1.28107 0
M  V30 2609 H 235.212 6.50472 -2.79807 0
M  V30 2610 H 235.62 5.46918 -1.39787 0
M  V30 2611 N 235.018 0.912232 1.28515 0
M  V30 2612 C 236.295 0.463597 1.90027 0
M  V30 2613 C 236.675 -1.05753 1.82701 0
M  V30 2614 O 236.023 -1.90492 1.26194 0
M  V30 2615 C 236.233 0.992253 3.34597 0
M  V30 2616 C 237.581 1.04344 4.11579 0
M  V30 2617 O 238.605 0.94079 3.43551 0
M  V30 2618 O 237.464 1.1995 5.33174 0
M  V30 2619 H 234.558 0.146666 0.813891 0
M  V30 2620 H 237.104 1.00292 1.36893 0
M  V30 2621 H 235.876 2.03623 3.34146 0
M  V30 2622 H 235.499 0.433672 3.95228 0
M  V30 2623 N 236.496 -1.42363 0.676048 0
M  V30 2624 C 237.745 -2.00745 0.196037 0
M  V30 2625 C 238.058 -1.54083 -1.20489 0
M  V30 2626 O 239.264 -2.04891 -1.78134 0
M  V30 2627 C 237.72 -3.58651 0.299616 0
M  V30 2628 C 237.328 -4.143 1.70468 0
M  V30 2629 C 239.072 -4.24326 -0.121619 0
M  V30 2630 C 236.979 -5.64574 1.76096 0
M  V30 2631 H 235.909 -0.750787 0.0695301 0
M  V30 2632 H 238.56 -1.63072 0.841412 0
M  V30 2633 H 236.942 -3.93833 -0.413673 0
M  V30 2634 H 238.116 -3.90575 2.44515 0
M  V30 2635 H 236.431 -3.61081 2.07387 0
M  V30 2636 H 239.028 -5.34607 -0.0997362 0
M  V30 2637 H 239.371 -3.99897 -1.15708 0
M  V30 2638 H 239.904 -3.94108 0.540706 0
M  V30 2639 H 236.643 -5.93804 2.77628 0
M  V30 2640 H 236.163 -5.90286 1.06406 0
M  V30 2641 H 237.842 -6.29013 1.51496 0
M  V30 2642 N 237.974 -0.419461 -1.51915 0
M  V30 2643 C 238.921 0.400927 -2.27291 0
M  V30 2644 C 239.891 1.03224 -1.30131 0
M  V30 2645 O 241.076 1.05455 -1.59009 0
M  V30 2646 C 238.216 1.50603 -3.10504 0
M  V30 2647 C 237.329 0.89462 -4.22635 0
M  V30 2648 C 236.464 1.97328 -4.93189 0
M  V30 2649 C 235.503 1.33935 -5.97267 0
M  V30 2650 N 234.64 2.3586 -6.61298 0
M  V30 2651 H 239.48 -0.248251 -2.96964 0
M  V30 2652 H 237.017 -0.134266 -1.46486 0
M  V30 2653 H 238.975 2.15783 -3.57062 0
M  V30 2654 H 237.605 2.12509 -2.42981 0
M  V30 2655 H 236.657 0.131583 -3.80172 0
M  V30 2656 H 237.969 0.391641 -4.9726 0
M  V30 2657 H 237.123 2.70211 -5.43204 0
M  V30 2658 H 235.862 2.50994 -4.18155 0
M  V30 2659 H 234.867 0.595896 -5.46561 0
M  V30 2660 H 236.092 0.810252 -6.74249 0
M  V30 2661 H 234.038 2.88639 -5.89087 0
M  V30 2662 H 233.955 1.90403 -7.3163 0
M  V30 2663 H 235.223 3.08282 -7.15949 0
M  V30 2664 N 239.452 1.56882 -0.150215 0
M  V30 2665 C 240.399 2.16922 0.788244 0
M  V30 2666 C 241.369 1.10303 1.24187 0
M  V30 2667 O 242.554 1.38359 1.31383 0
M  V30 2668 C 239.694 2.79754 2.02068 0
M  V30 2669 C 238.807 4.00775 1.61257 0
M  V30 2670 C 237.942 4.51595 2.79705 0
M  V30 2671 C 236.981 5.65074 2.35282 0
M  V30 2672 N 236.118 6.10499 3.4675 0
M  V30 2673 H 240.958 2.96779 0.269444 0
M  V30 2674 H 238.495 1.46599 0.12128 0
M  V30 2675 H 240.453 3.14329 2.74323 0
M  V30 2676 H 239.083 2.02536 2.51354 0
M  V30 2677 H 238.135 3.72158 0.787553 0
M  V30 2678 H 239.447 4.82978 1.24633 0
M  V30 2679 H 238.601 4.88242 3.60145 0
M  V30 2680 H 237.34 3.68406 3.19576 0
M  V30 2681 H 236.345 5.28 1.53283 0
M  V30 2682 H 237.57 6.50052 1.96493 0
M  V30 2683 H 235.516 5.30243 3.86236 0
M  V30 2684 H 235.433 6.87637 3.14152 0
M  V30 2685 H 236.701 6.51791 4.27537 0
M  V30 2686 N 240.93 -0.123565 1.57115 0
M  V30 2687 C 242.179 -0.830704 1.83799 0
M  V30 2688 C 242.492 -1.81259 0.735158 0
M  V30 2689 O 243.698 -2.56558 0.888278 0
M  V30 2690 C 242.154 -1.52802 3.25852 0
M  V30 2691 C 241.762 -0.587356 4.44133 0
M  V30 2692 C 243.506 -2.22056 3.61789 0
M  V30 2693 C 241.413 -1.28764 5.77212 0
M  V30 2694 H 240.343 -0.313967 0.685522 0
M  V30 2695 H 242.994 -0.0834359 1.8331 0
M  V30 2696 H 241.376 -2.32175 3.20797 0
M  V30 2697 H 242.55 0.172829 4.60476 0
M  V30 2698 H 240.865 -0.00201892 4.164 0
M  V30 2699 H 243.462 -2.75131 4.58483 0
M  V30 2700 H 243.805 -2.99644 2.88997 0
M  V30 2701 H 244.338 -1.49576 3.68608 0
M  V30 2702 H 241.077 -0.55314 6.53162 0
M  V30 2703 H 240.597 -2.01995 5.64764 0
M  V30 2704 H 242.276 -1.8221 6.20813 0
M  V30 2705 N 242.408 -1.52605 -0.393616 0
M  V30 2706 C 243.355 -1.77055 -1.48054 0
M  V30 2707 C 244.325 -0.61358 -1.54352 0
M  V30 2708 O 245.51 -0.852806 -1.70681 0
M  V30 2709 C 242.65 -1.94108 -2.85335 0
M  V30 2710 C 241.763 -3.21792 -2.88226 0
M  V30 2711 C 240.898 -3.29188 -4.16904 0
M  V30 2712 C 239.937 -4.51013 -4.13828 0
M  V30 2713 N 239.074 -4.55716 -5.34105 0
M  V30 2714 H 243.914 -2.69815 -1.26506 0
M  V30 2715 H 241.451 -1.33683 -0.61379 0
M  V30 2716 H 243.409 -2.01979 -3.65049 0
M  V30 2717 H 242.039 -1.04713 -3.05344 0
M  V30 2718 H 241.091 -3.23015 -2.00911 0
M  V30 2719 H 242.403 -4.11557 -2.8182 0
M  V30 2720 H 241.557 -3.36216 -5.05018 0
M  V30 2721 H 240.296 -2.37389 -4.26026 0
M  V30 2722 H 239.301 -4.44115 -3.24102 0
M  V30 2723 H 240.526 -5.44123 -4.06333 0
M  V30 2724 H 238.472 -3.66807 -5.43865 0
M  V30 2725 H 238.389 -5.39346 -5.29756 0
M  V30 2726 H 239.657 -4.66993 -6.2413 0
M  V30 2727 N 243.887 0.651787 -1.4349 0
M  V30 2728 C 245.117 1.43728 -1.48411 0
M  V30 2729 C 245.525 1.8893 -0.10103 0
M  V30 2730 O 244.868 1.60182 0.899307 0
M  V30 2731 C 244.93 2.70411 -2.36893 0
M  V30 2732 C 244.594 2.4714 -3.8441 0
M  V30 2733 C 245.591 2.10271 -4.75481 0
M  V30 2734 C 243.276 2.6142 -4.28912 0
M  V30 2735 C 245.27 1.87982 -6.0905 0
M  V30 2736 C 242.957 2.38746 -5.62533 0
M  V30 2737 C 243.955 2.02083 -6.5242 0
M  V30 2738 O 243.643 1.79647 -7.8357 0
M  V30 2739 H 243.375 0.447962 -0.506267 0
M  V30 2740 H 245.929 0.80624 -1.88915 0
M  V30 2741 H 244.159 3.36079 -1.91278 0
M  V30 2742 H 245.848 3.32364 -2.33 0
M  V30 2743 H 246.614 1.98814 -4.42378 0
M  V30 2744 H 242.493 2.88931 -3.59222 0
M  V30 2745 H 246.037 1.5929 -6.7917 0
M  V30 2746 H 241.934 2.49806 -5.95203 0
M  V30 2747 H 242.702 1.9406 -7.95162 0
M  V30 2748 N 245.365 1.30045 0.890287 0
M  V30 2749 C 246.614 1.17929 1.63633 0
M  V30 2750 C 246.927 -0.266204 1.9378 0
M  V30 2751 O 248.133 -0.508804 2.6669 0
M  V30 2752 C 246.589 2.06317 2.94892 0
M  V30 2753 C 246.197 3.55745 2.72305 0
M  V30 2754 C 247.941 2.0295 3.72843 0
M  V30 2755 C 245.848 4.36205 3.99348 0
M  V30 2756 H 244.778 0.437782 0.613892 0
M  V30 2757 H 247.429 1.54754 0.986075 0
M  V30 2758 H 245.811 1.6237 3.61182 0
M  V30 2759 H 246.985 4.07805 2.1455 0
M  V30 2760 H 245.3 3.6088 2.07737 0
M  V30 2761 H 247.897 2.60319 4.67053 0
M  V30 2762 H 248.24 1.0117 4.0382 0
M  V30 2763 H 248.773 2.4499 3.13408 0
M  V30 2764 H 245.512 5.38659 3.73533 0
M  V30 2765 H 245.032 3.8891 4.56628 0
M  V30 2766 H 246.711 4.47362 4.67415 0
M  V30 2767 N 246.843 -1.10192 1.12674 0
M  V30 2768 C 248.068 -1.86523 0.906853 0
M  V30 2769 C 248.493 -1.80221 -0.538711 0
M  V30 2770 O 247.851 -1.17396 -1.38158 0
M  V30 2771 C 247.899 -3.32758 1.3894 0
M  V30 2772 O 247.003 -4.08449 0.5695 0
M  V30 2773 H 246.344 -0.578678 0.325619 0
M  V30 2774 H 248.874 -1.39203 1.49946 0
M  V30 2775 H 248.884 -3.83608 1.38958 0
M  V30 2776 H 247.559 -3.36661 2.44197 0
M  V30 2777 H 246.136 -3.67427 0.636528 0
M  V30 2778 N 248.321 -0.919034 -1.28029 0
M  V30 2779 C 249.598 -0.473668 -1.89778 0
M  V30 2780 C 249.978 1.04783 -1.83259 0
M  V30 2781 O 249.326 1.8982 -1.27202 0
M  V30 2782 C 249.536 -1.00998 -3.34066 0
M  V30 2783 C 250.884 -1.06525 -4.1102 0
M  V30 2784 O 251.908 -0.958996 -3.43048 0
M  V30 2785 O 250.767 -1.22776 -5.3253 0
M  V30 2786 H 247.861 -0.15098 -0.813101 0
M  V30 2787 H 250.407 -1.01016 -1.36359 0
M  V30 2788 H 249.179 -2.05392 -3.33061 0
M  V30 2789 H 248.802 -0.454626 -3.94992 0
M  V30 2790 N 249.799 1.42003 -0.683588 0
M  V30 2791 C 251.047 2.01015 -0.209101 0
M  V30 2792 C 251.368 1.54365 1.19149 0
M  V30 2793 O 250.638 0.769083 1.80172 0
M  V30 2794 H 249.218 0.743294 -0.074315 0
M  V30 2795 H 251.88 1.73798 -0.882066 0
M  V30 2796 H 250.976 3.11343 -0.2172 0
M  V30 2797 N 251.277 0.427512 1.51691 0
M  V30 2798 C 252.225 -0.403359 2.29076 0
M  V30 2799 C 253.219 -1.02962 1.34518 0
M  V30 2800 O 254.425 -0.965715 1.51901 0
M  V30 2801 H 250.8 -0.148879 0.737115 0
M  V30 2802 H 252.771 0.270295 2.97173 0
M  V30 2803 C 251.52 -1.49763 3.13794 0
M  V30 2804 H 250.843 -1.02508 3.86435 0
M  V30 2805 H 252.283 -2.05244 3.71014 0
M  V30 2806 C 250.742 -2.47536 2.28533 0
M  V30 2807 O 251.272 -3.51848 1.93819 0
M  V30 2808 N 249.478 -2.18187 1.91945 0
M  V30 2809 H 249.025 -1.33389 2.20375 0
M  V30 2810 H 248.983 -2.83848 1.35195 0
M  V30 2811 N 252.755 -1.56801 0.158532 0
M  V30 2812 C 253.98 -2.01295 -0.499516 0
M  V30 2813 C 254.405 -1.03799 -1.56867 0
M  V30 2814 O 253.763 -0.0155162 -1.81293 0
M  V30 2815 C 253.811 -3.44469 -1.06647 0
M  V30 2816 O 252.915 -3.50012 -2.18095 0
M  V30 2817 H 252.256 -0.652884 -0.12099 0
M  V30 2818 H 254.786 -2.02958 0.258661 0
M  V30 2819 H 254.796 -3.8351 -1.39227 0
M  V30 2820 H 253.471 -4.14932 -0.283581 0
M  V30 2821 H 252.048 -3.22822 -1.86656 0
M  V30 2822 N 254.233 0.115231 -1.57178 0
M  V30 2823 C 255.458 0.840354 -1.89612 0
M  V30 2824 C 255.883 1.72464 -0.750845 0
M  V30 2825 O 255.241 1.78826 0.298478 0
M  V30 2826 C 255.289 1.64654 -3.20814 0
M  V30 2827 O 254.393 2.7538 -3.06985 0
M  V30 2828 H 253.734 0.232158 -0.622092 0
M  V30 2829 H 256.264 0.0964977 -2.04372 0
M  V30 2830 H 256.274 2.03499 -3.53627 0
M  V30 2831 H 254.949 0.997416 -4.03763 0
M  V30 2832 H 253.526 2.3971 -2.85646 0
M  V30 2833 N 255.711 1.52812 0.385517 0
M  V30 2834 C 256.958 1.68026 1.1302 0
M  V30 2835 C 257.286 0.421934 1.89868 0
M  V30 2836 O 256.541 -0.595749 1.86412 0
M  V30 2837 C 256.84 2.86856 2.13187 0
M  V30 2838 C 256.506 4.24159 1.5297 0
M  V30 2839 C 255.168 4.61501 1.36274 0
M  V30 2840 C 257.52 5.09627 1.09223 0
M  V30 2841 C 254.848 5.81966 0.743837 0
M  V30 2842 C 257.2 6.30719 0.487411 0
M  V30 2843 C 255.864 6.6679 0.307777 0
M  V30 2844 H 255.134 0.614849 0.413571 0
M  V30 2845 H 257.781 1.86962 0.414405 0
M  V30 2846 H 256.086 2.6235 2.90998 0
M  V30 2847 H 257.783 2.95821 2.70722 0
M  V30 2848 H 254.373 3.94746 1.66954 0
M  V30 2849 H 258.557 4.81343 1.20922 0
M  V30 2850 H 253.813 6.08519 0.592891 0
M  V30 2851 H 257.987 6.96259 0.140143 0
M  V30 2852 H 255.614 7.60001 -0.173879 0
M  V30 2853 N 257.189 -0.644168 1.43834 0
M  V30 2854 C 258.417 -1.43147 1.49387 0
M  V30 2855 C 258.832 -1.88452 0.114583 0
M  V30 2856 O 258.189 -1.60047 -0.876989 0
M  V30 2857 C 258.24 -2.66046 2.44748 0
M  V30 2858 O 257.961 -2.22633 3.77314 0
M  V30 2859 C 259.462 -3.59311 2.59635 0
M  V30 2860 H 256.682 -0.439447 0.507077 0
M  V30 2861 H 259.226 -0.78895 1.88669 0
M  V30 2862 H 257.381 -3.26418 2.08638 0
M  V30 2863 H 257.795 -3.02216 4.28679 0
M  V30 2864 H 259.269 -4.42187 3.30416 0
M  V30 2865 H 259.746 -4.07259 1.64427 0
M  V30 2866 H 260.352 -3.04816 2.96593 0
M  V30 2867 N 258.668 -1.30515 -0.883378 0
M  V30 2868 C 259.578 -1.18959 -2.02203 0
M  V30 2869 C 260.594 -0.109172 -1.73657 0
M  V30 2870 O 261.77 -0.324413 -1.9877 0
M  V30 2871 C 258.835 -0.883871 -3.35244 0
M  V30 2872 C 257.896 -2.04982 -3.77201 0
M  V30 2873 C 257.129 -1.75859 -5.03894 0
M  V30 2874 O 257.352 -0.687276 -5.66244 0
M  V30 2875 O 256.286 -2.61146 -5.42297 0
M  V30 2876 H 260.112 -2.14616 -2.1488 0
M  V30 2877 H 257.697 -1.10124 -1.0096 0
M  V30 2878 H 259.579 -0.728644 -4.15053 0
M  V30 2879 H 258.254 0.0427798 -3.23672 0
M  V30 2880 H 257.161 -2.26038 -2.9809 0
M  V30 2881 H 258.494 -2.95825 -3.93381 0
M  V30 2882 N 260.146 1.09593 -1.13257 0
M  V30 2883 C 261.371 1.8604 -0.916732 0
M  V30 2884 C 261.796 1.80504 0.529146 0
M  V30 2885 O 261.154 1.18127 1.37534 0
M  V30 2886 C 261.202 3.32017 -1.40703 0
M  V30 2887 O 260.306 4.08141 -0.591153 0
M  V30 2888 H 259.647 0.576943 -0.328683 0
M  V30 2889 H 262.177 1.38405 -1.50682 0
M  V30 2890 H 262.187 3.82865 -1.4099 0
M  V30 2891 H 260.862 3.35361 -2.45979 0
M  V30 2892 H 259.439 3.67084 -0.656005 0
M  V30 2893 N 261.624 0.925811 1.2754 0
M  V30 2894 C 262.557 0.367836 2.25216 0
M  V30 2895 C 263.535 -0.534738 1.53556 0
M  V30 2896 O 264.719 -0.475672 1.824 0
M  V30 2897 C 261.846 -0.47298 3.35381 0
M  V30 2898 C 260.892 0.365898 4.24928 0
M  V30 2899 S 261.725 1.78025 5.05042 0
M  V30 2900 C 262.881 0.947068 6.18693 0
M  V30 2901 H 263.114 1.19568 2.72196 0
M  V30 2902 H 260.647 0.727867 1.36167 0
M  V30 2903 H 262.605 -0.952242 3.99303 0
M  V30 2904 H 261.266 -1.27533 2.87044 0
M  V30 2905 H 260.459 -0.277582 5.03235 0
M  V30 2906 H 260.061 0.779261 3.65792 0
M  V30 2907 H 262.353 0.182201 6.77255 0
M  V30 2908 H 263.296 1.70309 6.87314 0
M  V30 2909 H 263.704 0.489913 5.6237 0
M  V30 2910 N 263.102 -1.41638 0.69111 0
M  V30 2911 C 264.05 -2.32597 0.0115199 0
M  V30 2912 C 265.044 -1.5072 -0.773296 0
M  V30 2913 O 266.25 -1.66685 -0.67942 0
M  V30 2914 H 262.625 -0.751849 -0.0150746 0
M  V30 2915 H 264.596 -2.87593 0.795791 0
M  V30 2916 C 263.345 -3.35467 -0.914172 0
M  V30 2917 H 262.668 -3.9852 -0.319687 0
M  V30 2918 H 264.108 -4.01662 -1.35808 0
M  V30 2919 C 262.567 -2.69004 -2.02826 0
M  V30 2920 O 263.097 -2.53444 -3.11655 0
M  V30 2921 N 261.303 -2.2777 -1.80469 0
M  V30 2922 H 260.85 -2.40626 -0.919615 0
M  V30 2923 H 260.808 -1.83635 -2.55197 0
M  V30 2924 N 264.58 -0.43555 -1.51462 0
M  V30 2925 C 265.513 0.421989 -2.24264 0
M  V30 2926 C 266.491 1.02619 -1.26127 0
M  V30 2927 O 267.675 1.069 -1.55257 0
M  V30 2928 C 264.802 1.588 -2.99166 0
M  V30 2929 C 263.848 1.10465 -4.11946 0
M  V30 2930 S 264.681 0.048146 -5.35478 0
M  V30 2931 C 265.837 1.21887 -6.13917 0
M  V30 2932 H 266.07 -0.196102 -2.96653 0
M  V30 2933 H 263.603 -0.220054 -1.52824 0
M  V30 2934 H 265.561 2.25647 -3.42919 0
M  V30 2935 H 264.222 2.1775 -2.26371 0
M  V30 2936 H 263.415 1.97654 -4.63626 0
M  V30 2937 H 263.017 0.51445 -3.70445 0
M  V30 2938 H 265.309 2.13756 -6.42895 0
M  V30 2939 H 266.252 0.742076 -7.04201 0
M  V30 2940 H 266.66 1.45663 -5.45383 0
M  V30 2941 N 266.058 1.56714 -0.166846 0
M  V30 2942 C 266.988 2.20754 0.760913 0
M  V30 2943 C 267.969 1.16178 1.24244 0
M  V30 2944 O 269.154 1.44592 1.29641 0
M  V30 2945 C 266.284 2.84478 1.99223 0
M  V30 2946 C 265.238 3.95053 1.64672 0
M  V30 2947 C 264.564 4.45805 2.95232 0
M  V30 2948 C 265.864 5.14865 0.878155 0
M  V30 2949 H 267.558 2.98537 0.22713 0
M  V30 2950 H 265.104 1.43596 0.107805 0
M  V30 2951 H 267.057 3.27951 2.64624 0
M  V30 2952 H 265.781 2.04056 2.55007 0
M  V30 2953 H 264.44 3.52228 1.01641 0
M  V30 2954 H 264.088 3.62181 3.49047 0
M  V30 2955 H 263.788 5.204 2.7287 0
M  V30 2956 H 265.312 4.91962 3.6167 0
M  V30 2957 H 266.726 5.55059 1.43466 0
M  V30 2958 H 265.123 5.95348 0.753738 0
M  V30 2959 H 266.193 4.84735 -0.126377 0
M  V30 2960 N 267.536 -0.106894 1.57237 0
M  V30 2961 C 268.782 -0.81373 1.85759 0
M  V30 2962 C 269.115 -1.78952 0.754315 0
M  V30 2963 O 268.39 -1.93029 -0.23879 0
M  V30 2964 C 268.673 -1.55293 3.24894 0
M  V30 2965 C 268.526 -0.595929 4.45835 0
M  V30 2966 C 269.845 -2.5063 3.61763 0
M  V30 2967 H 266.964 -0.294369 0.67566 0
M  V30 2968 H 269.606 -0.0776472 1.89841 0
M  V30 2969 H 267.756 -2.1804 3.21544 0
M  V30 2970 H 269.428 0.0236262 4.61294 0
M  V30 2971 H 267.671 0.0916191 4.33703 0
M  V30 2972 H 268.342 -1.15004 5.39887 0
M  V30 2973 H 270.818 -1.97982 3.65981 0
M  V30 2974 H 269.694 -2.99376 4.60071 0
M  V30 2975 H 269.955 -3.3385 2.89821 0
M  V30 2976 N 269.014 -1.53014 -0.377408 0
M  V30 2977 C 270.291 -1.59215 -1.13622 0
M  V30 2978 C 270.671 -0.392407 -2.07421 0
M  V30 2979 O 270.019 0.618342 -2.19975 0
M  V30 2980 C 270.229 -2.93669 -1.88573 0
M  V30 2981 C 271.577 -3.47822 -2.43526 0
M  V30 2982 O 272.601 -2.9562 -1.98715 0
M  V30 2983 O 271.46 -4.39055 -3.25412 0
M  V30 2984 H 268.554 -0.642625 -0.52054 0
M  V30 2985 H 271.1 -1.65353 -0.381625 0
M  V30 2986 H 269.872 -3.7243 -1.20048 0
M  V30 2987 H 269.495 -2.90968 -2.70968 0
M  V30 2988 N 270.492 0.636531 -1.44174 0
M  V30 2989 C 271.439 1.74875 -1.50624 0
M  V30 2990 C 272.409 1.62275 -0.35442 0
M  V30 2991 O 273.594 1.82276 -0.563908 0
M  V30 2992 C 270.734 3.13102 -1.45125 0
M  V30 2993 C 269.847 3.36717 -2.7064 0
M  V30 2994 C 268.982 4.64885 -2.57013 0
M  V30 2995 C 268.021 4.8166 -3.77717 0
M  V30 2996 N 267.158 6.01101 -3.62798 0
M  V30 2997 H 271.998 1.68697 -2.45653 0
M  V30 2998 H 269.535 0.823004 -1.21922 0
M  V30 2999 H 271.493 3.93034 -1.39929 0
M  V30 3000 H 270.123 3.18308 -0.536671 0
M  V30 3001 H 269.175 2.50763 -2.86046 0
M  V30 3002 H 270.487 3.44993 -3.60252 0
M  V30 3003 H 269.641 5.52969 -2.49619 0
M  V30 3004 H 268.38 4.58957 -1.64953 0
M  V30 3005 H 267.385 3.92007 -3.85501 0
M  V30 3006 H 268.61 4.89406 -4.70807 0
M  V30 3007 H 266.556 5.96273 -2.73486 0
M  V30 3008 H 266.473 6.10409 -4.46023 0
M  V30 3009 H 267.741 6.91761 -3.59286 0
M  V30 3010 N 271.97 1.30982 0.876444 0
M  V30 3011 C 273.195 1.23373 1.66715 0
M  V30 3012 C 273.62 -0.19885 1.87046 0
M  V30 3013 O 272.978 -1.1427 1.40756 0
M  V30 3014 C 273.026 1.97644 3.01611 0
M  V30 3015 O 272.13 1.30935 3.91062 0
M  V30 3016 H 271.471 0.426279 0.509099 0
M  V30 3017 H 274.001 1.72944 1.09323 0
M  V30 3018 H 274.011 2.06992 3.51594 0
M  V30 3019 H 272.686 3.01829 2.86133 0
M  V30 3020 H 271.263 1.29996 3.49507 0
M  V30 3021 N 273.449 -1.08991 1.13837 0
M  V30 3022 C 274.397 -2.17841 0.815347 0
M  V30 3023 C 275.391 -1.68164 -0.204233 0
M  V30 3024 O 276.597 -1.79897 -0.0609304 0
M  V30 3025 H 272.972 -0.710654 0.245915 0
M  V30 3026 H 274.943 -2.42315 1.74143 0
M  V30 3027 C 273.692 -3.46381 0.302614 0
M  V30 3028 H 273.015 -3.84979 1.0785 0
M  V30 3029 H 274.455 -4.23844 0.115074 0
M  V30 3030 C 272.914 -3.22556 -0.972591 0
M  V30 3031 O 273.444 -3.45599 -2.04754 0
M  V30 3032 N 271.65 -2.76134 -0.905455 0
M  V30 3033 H 271.197 -2.57582 -0.0305421 0
M  V30 3034 H 271.155 -2.60571 -1.75926 0
M  V30 3035 N 274.927 -0.932562 -1.27047 0
M  V30 3036 C 276.174 -0.575559 -1.94148 0
M  V30 3037 C 276.502 0.883984 -1.73251 0
M  V30 3038 O 275.757 1.64655 -1.0577 0
M  V30 3039 C 276.056 -0.853713 -3.47054 0
M  V30 3040 C 275.722 -2.29577 -3.88079 0
M  V30 3041 C 274.384 -2.68999 -3.9899 0
M  V30 3042 C 276.736 -3.23331 -4.08787 0
M  V30 3043 C 274.064 -4.01289 -4.28 0
M  V30 3044 C 276.416 -4.55207 -4.39282 0
M  V30 3045 C 275.08 -4.94457 -4.48407 0
M  V30 3046 H 274.35 -0.210612 -0.710439 0
M  V30 3047 H 276.997 -1.17744 -1.51025 0
M  V30 3048 H 275.302 -0.169204 -3.91434 0
M  V30 3049 H 276.999 -0.55639 -3.97121 0
M  V30 3050 H 273.589 -1.97994 -3.80127 0
M  V30 3051 H 277.773 -2.94074 -3.99793 0
M  V30 3052 H 273.029 -4.31374 -4.33275 0
M  V30 3053 H 277.203 -5.27852 -4.54252 0
M  V30 3054 H 274.83 -5.96994 -4.7064 0
M  V30 3055 N 276.405 1.4127 -0.698611 0
M  V30 3056 C 277.652 2.0118 -0.230865 0
M  V30 3057 C 277.98 1.55338 1.17049 0
M  V30 3058 O 277.235 0.756775 1.80475 0
M  V30 3059 C 277.534 3.56592 -0.240192 0
M  V30 3060 C 277.2 4.21955 -1.58948 0
M  V30 3061 C 275.862 4.39524 -1.95887 0
M  V30 3062 C 278.214 4.58576 -2.47704 0
M  V30 3063 C 275.542 4.90992 -3.2116 0
M  V30 3064 C 277.894 5.11435 -3.72313 0
M  V30 3065 C 276.558 5.27215 -4.0939 0
M  V30 3066 H 275.828 0.736169 -0.0844796 0
M  V30 3067 H 278.475 1.69124 -0.8983 0
M  V30 3068 H 276.78 3.88456 0.510797 0
M  V30 3069 H 278.477 4.00758 0.139296 0
M  V30 3070 H 275.067 4.08657 -1.29219 0
M  V30 3071 H 279.251 4.44654 -2.20445 0
M  V30 3072 H 274.507 5.01393 -3.49878 0
M  V30 3073 H 278.681 5.38752 -4.4127 0
M  V30 3074 H 276.308 5.66859 -5.06533 0
M  V30 3075 N 277.883 0.443576 1.51229 0
M  V30 3076 C 278.816 -0.410089 2.24485 0
M  V30 3077 C 279.794 -1.01949 1.26669 0
M  V30 3078 O 280.978 -1.06075 1.55821 0
M  V30 3079 C 278.105 -1.57211 3.00004 0
M  V30 3080 C 277.151 -1.08279 4.12526 0
M  V30 3081 S 277.984 -0.0197476 5.35496 0
M  V30 3082 C 279.14 -1.18629 6.14555 0
M  V30 3083 H 279.373 0.211832 2.96544 0
M  V30 3084 H 276.906 0.228156 1.52705 0
M  V30 3085 H 278.864 -2.23825 3.44111 0
M  V30 3086 H 277.525 -2.16547 2.27522 0
M  V30 3087 H 276.718 -1.95193 4.64667 0
M  V30 3088 H 276.32 -0.494797 3.70713 0
M  V30 3089 H 278.612 -2.10344 6.4402 0
M  V30 3090 H 279.555 -0.70472 7.04584 0
M  V30 3091 H 279.963 -1.42768 5.46148 0
M  V30 3092 N 279.361 -1.56624 0.175154 0
M  V30 3093 C 280.609 -1.96609 -0.467885 0
M  V30 3094 C 280.93 -1.06238 -1.63519 0
M  V30 3095 O 280.2 -0.129523 -1.95471 0
M  V30 3096 H 278.78 -0.726008 -0.175845 0
M  V30 3097 H 281.442 -1.93195 0.257234 0
M  V30 3098 H 280.538 -3.00989 -0.825342 0
M  V30 3099 N 280.839 0.0985539 -1.57292 0
M  V30 3100 C 281.772 1.15082 -1.97057 0
M  V30 3101 C 282.75 1.39025 -0.843255 0
M  V30 3102 O 283.934 1.52842 -1.10325 0
M  V30 3103 C 281.061 2.50069 -2.28437 0
M  V30 3104 C 280.107 2.42428 -3.509 0
M  V30 3105 S 280.94 1.84414 -5.02744 0
M  V30 3106 C 282.096 3.21032 -5.37298 0
M  V30 3107 H 282.329 0.811815 -2.86002 0
M  V30 3108 H 279.862 0.306102 -1.51335 0
M  V30 3109 H 281.82 3.27729 -2.47192 0
M  V30 3110 H 280.481 2.8114 -1.40069 0
M  V30 3111 H 279.674 3.41911 -3.70288 0
M  V30 3112 H 279.276 1.72896 -3.31637 0
M  V30 3113 H 281.568 4.17297 -5.33731 0
M  V30 3114 H 282.511 3.06452 -6.38352 0
M  V30 3115 H 282.919 3.20404 -4.64759 0
M  V30 3116 N 282.317 1.53212 0.369288 0
M  V30 3117 C 283.733 1.42902 0.710712 0
M  V30 3118 C 283.933 0.565135 1.93413 0
M  V30 3119 O 282.989 0.0461484 2.52458 0
M  V30 3120 C 284.302 2.86042 0.927382 0
M  V30 3121 C 285.85 2.9565 1.02762 0
M  V30 3122 C 286.325 4.39843 1.27679 0
M  V30 3123 N 287.816 4.43256 1.34457 0
M  V30 3124 C 288.551 5.51929 1.55439 0
M  V30 3125 N 288.047 6.70655 1.73762 0
M  V30 3126 N 289.84 5.39502 1.57779 0
M  V30 3127 H 281.991 2.07888 -0.435457 0
M  V30 3128 H 284.254 0.938661 -0.132739 0
M  V30 3129 H 283.96 3.51557 0.100287 0
M  V30 3130 H 283.834 3.29472 1.83653 0
M  V30 3131 H 286.221 2.30291 1.84527 0
M  V30 3132 H 286.302 2.5562 0.0959504 0
M  V30 3133 H 285.946 5.05774 0.464175 0
M  V30 3134 H 285.876 4.77443 2.22162 0
M  V30 3135 H 288.367 3.5769 1.21926 0
M  V30 3136 H 288.68 7.49248 1.89335 0
M  V30 3137 H 287.025 6.73648 1.70948 0
M  V30 3138 H 290.216 4.45713 1.43029 0
M  V30 3139 H 290.389 6.2426 1.7379 0
M  V30 3140 N 283.795 -0.628877 1.44509 0
M  V30 3141 C 285.206 -1.21054 1.42137 0
M  V30 3142 C 285.557 -1.95715 0.137881 0
M  V30 3143 O 284.682 -2.02554 -0.761645 0
M  V30 3144 C 285.277 -2.20189 2.57493 0
M  V30 3145 C 283.836 -2.73777 2.58308 0
M  V30 3146 C 282.983 -1.48813 2.33987 0
M  V30 3147 H 285.934 -0.41942 1.53057 0
M  V30 3148 H 285.955 -3.02833 2.30375 0
M  V30 3149 H 285.467 -1.6582 3.50892 0
M  V30 3150 H 283.568 -3.32142 1.68856 0
M  V30 3151 H 283.681 -3.19662 3.56865 0
M  V30 3152 H 282.045 -1.77024 1.83124 0
M  V30 3153 H 282.828 -0.963442 3.29504 0
M  V30 3154 N 285.273 -1.31445 -0.869486 0
M  V30 3155 C 286.519 -1.22347 -1.62489 0
M  V30 3156 C 286.874 0.216204 -1.91181 0
M  V30 3157 O 286.167 1.14977 -1.53268 0
M  V30 3158 C 286.361 -2.00145 -2.96102 0
M  V30 3159 C 286.19 -3.51531 -2.80456 0
M  V30 3160 C 284.96 -4.20882 -2.79618 0
M  V30 3161 C 287.158 -4.46471 -2.5528 0
M  V30 3162 N 285.14 -5.58421 -2.55027 0
M  V30 3163 C 286.511 -5.71682 -2.39957 0
M  V30 3164 C 288.566 -4.35892 -2.40629 0
M  V30 3165 C 287.269 -6.87511 -2.11472 0
M  V30 3166 C 289.295 -5.51505 -2.13532 0
M  V30 3167 C 288.657 -6.75707 -1.98998 0
M  V30 3168 H 284.756 -0.502815 -0.598917 0
M  V30 3169 H 287.34 -1.65639 -1.02332 0
M  V30 3170 H 285.511 -1.59221 -3.54264 0
M  V30 3171 H 287.243 -1.83063 -3.60929 0
M  V30 3172 H 283.998 -3.72857 -2.92018 0
M  V30 3173 H 284.422 -6.30841 -2.45701 0
M  V30 3174 H 289.064 -3.40533 -2.50593 0
M  V30 3175 H 286.782 -7.82897 -2.00245 0
M  V30 3176 H 290.368 -5.45238 -2.02995 0
M  V30 3177 H 289.248 -7.63655 -1.78326 0
M  V30 3178 N 286.751 1.08385 -1.14413 0
M  V30 3179 C 288.167 1.32844 -0.884563 0
M  V30 3180 C 288.367 1.95841 0.474181 0
M  V30 3181 O 287.423 2.21158 1.21842 0
M  V30 3182 C 288.736 2.22978 -2.01745 0
M  V30 3183 C 290.284 2.36458 -2.05077 0
M  V30 3184 C 290.759 3.29934 -3.1766 0
M  V30 3185 N 292.25 3.37511 -3.17239 0
M  V30 3186 C 292.985 4.09871 -4.0099 0
M  V30 3187 N 292.481 4.84936 -4.94781 0
M  V30 3188 N 294.274 4.05704 -3.89051 0
M  V30 3189 H 286.425 0.658756 -2.01926 0
M  V30 3190 H 288.688 0.352821 -0.879899 0
M  V30 3191 H 288.394 1.83934 -2.99769 0
M  V30 3192 H 288.268 3.23441 -1.94077 0
M  V30 3193 H 290.655 2.7476 -1.0766 0
M  V30 3194 H 290.736 1.35736 -2.16816 0
M  V30 3195 H 290.38 2.92352 -4.15322 0
M  V30 3196 H 290.31 4.30584 -3.03158 0
M  V30 3197 H 292.801 2.83996 -2.49308 0
M  V30 3198 H 293.114 5.37612 -5.55151 0
M  V30 3199 H 291.459 4.83988 -4.98779 0
M  V30 3200 H 294.65 3.46167 -3.15097 0
M  V30 3201 H 294.823 4.61834 -4.54547 0
M  V30 3202 N 288.23 0.939286 1.26551 0
M  V30 3203 C 289.477 0.585847 1.9384 0
M  V30 3204 C 289.805 -0.874784 1.73718 0
M  V30 3205 O 289.06 -1.64092 1.06642 0
M  V30 3206 C 289.359 0.872106 3.46596 0
M  V30 3207 C 289.025 2.31632 3.86856 0
M  V30 3208 C 287.687 2.71111 3.97558 0
M  V30 3209 C 290.039 3.25494 4.07066 0
M  V30 3210 C 287.367 4.03553 4.25866 0
M  V30 3211 C 289.719 4.57531 4.36862 0
M  V30 3212 C 288.383 4.96828 4.45778 0
M  V30 3213 H 287.653 0.214377 0.709312 0
M  V30 3214 H 290.3 1.18544 1.50398 0
M  V30 3215 H 288.605 0.18996 3.91339 0
M  V30 3216 H 290.302 0.577442 3.96821 0
M  V30 3217 H 286.892 2.00008 3.79071 0
M  V30 3218 H 291.076 2.9619 3.98227 0
M  V30 3219 H 286.332 4.33665 4.30981 0
M  V30 3220 H 290.506 5.30254 4.51446 0
M  V30 3221 H 288.133 5.99482 4.67468 0
M  V30 3222 N 289.708 -1.40897 0.706093 0
M  V30 3223 C 290.954 -2.01352 0.241889 0
M  V30 3224 C 291.287 -1.55832 -1.15888 0
M  V30 3225 O 290.562 -0.774145 -1.7843 0
M  V30 3226 C 290.845 -3.58752 0.311311 0
M  V30 3227 C 290.698 -4.1437 1.74978 0
M  V30 3228 C 292.017 -4.38914 -0.322922 0
M  V30 3229 H 289.136 -0.731562 0.0893687 0
M  V30 3230 H 291.778 -1.67504 0.896802 0
M  V30 3231 H 289.928 -3.87718 -0.246302 0
M  V30 3232 H 291.6 -3.96239 2.36205 0
M  V30 3233 H 289.843 -3.69016 2.28057 0
M  V30 3234 H 290.514 -5.23532 1.74981 0
M  V30 3235 H 292.99 -4.15822 0.152089 0
M  V30 3236 H 291.866 -5.48358 -0.243855 0
M  V30 3237 H 292.127 -4.19176 -1.40513 0
M  V30 3238 N 291.186 -0.45159 -1.50991 0
M  V30 3239 C 292.149 0.341117 -2.26647 0
M  V30 3240 C 293.149 0.937422 -1.30649 0
M  V30 3241 O 294.339 0.809644 -1.54241 0
M  V30 3242 C 291.471 1.48398 -3.06905 0
M  V30 3243 H 292.664 -0.322117 -2.98165 0
M  V30 3244 H 290.217 -0.205122 -1.54948 0
M  V30 3245 H 290.952 2.18284 -2.39838 0
M  V30 3246 H 290.737 1.06241 -3.77432 0
M  V30 3247 H 292.227 2.04367 -3.64176 0
M  V30 3248 N 292.664 1.56529 -0.183458 0
M  V30 3249 C 293.913 1.96419 0.458511 0
M  V30 3250 C 294.226 1.0727 1.63562 0
M  V30 3251 O 295.432 1.36893 2.34462 0
M  V30 3252 C 293.888 3.49298 0.867122 0
M  V30 3253 C 293.496 4.47092 -0.285057 0
M  V30 3254 C 295.24 3.97983 1.47683 0
M  V30 3255 C 293.147 5.91225 0.143862 0
M  V30 3256 H 292.077 0.733394 0.175071 0
M  V30 3257 H 294.728 1.81448 -0.273624 0
M  V30 3258 H 293.11 3.59731 1.65559 0
M  V30 3259 H 294.284 4.48383 -1.0625 0
M  V30 3260 H 292.599 4.08535 -0.805503 0
M  V30 3261 H 295.196 5.03134 1.80999 0
M  V30 3262 H 295.539 3.41618 2.37914 0
M  V30 3263 H 296.072 3.90617 0.752562 0
M  V30 3264 H 292.811 6.5149 -0.723974 0
M  V30 3265 H 292.331 5.93214 0.886413 0
M  V30 3266 H 294.01 6.44362 0.583628 0
M  V30 3267 N 294.142 -0.090211 1.57342 0
M  V30 3268 C 295.388 -0.793982 1.86611 0
M  V30 3269 C 295.721 -1.78142 0.773252 0
M  V30 3270 O 294.996 -1.93271 -0.218304 0
M  V30 3271 C 295.279 -1.51839 3.26523 0
M  V30 3272 C 295.132 -0.548609 4.46442 0
M  V30 3273 C 296.451 -2.46779 3.64401 0
M  V30 3274 H 293.57 -0.287186 0.678744 0
M  V30 3275 H 296.212 -0.0575076 1.89913 0
M  V30 3276 H 294.362 -2.14617 3.23839 0
M  V30 3277 H 296.034 0.0725513 4.61243 0
M  V30 3278 H 294.277 0.137614 4.33582 0
M  V30 3279 H 294.948 -1.09271 5.41076 0
M  V30 3280 H 297.424 -1.94089 3.68061 0
M  V30 3281 H 296.3 -2.94479 4.63221 0
M  V30 3282 H 296.561 -3.30758 2.93346 0
M  V30 3283 N 295.62 -1.53406 -0.361157 0
M  V30 3284 C 296.53 -1.83122 -1.4664 0
M  V30 3285 C 297.546 -0.719943 -1.58407 0
M  V30 3286 O 298.722 -1.01046 -1.74218 0
M  V30 3287 C 295.787 -2.01891 -2.81853 0
M  V30 3288 C 294.848 -3.25784 -2.79577 0
M  V30 3289 C 294.081 -3.43648 -4.0834 0
M  V30 3290 O 294.304 -2.65714 -5.0473 0
M  V30 3291 O 293.238 -4.37018 -4.13883 0
M  V30 3292 H 297.064 -2.7703 -1.24451 0
M  V30 3293 H 294.649 -1.38841 -0.551678 0
M  V30 3294 H 296.531 -2.15782 -3.61962 0
M  V30 3295 H 295.206 -1.11173 -3.0401 0
M  V30 3296 H 294.113 -3.17312 -1.98151 0
M  V30 3297 H 295.446 -4.16439 -2.62373 0
M  V30 3298 N 297.098 0.621204 -1.44841 0
M  V30 3299 C 298.046 1.75385 -1.52784 0
M  V30 3300 C 299.04 1.64639 -0.398779 0
M  V30 3301 O 300.246 1.70598 -0.574137 0
M  V30 3302 H 296.621 0.579193 -0.479625 0
M  V30 3303 H 298.592 1.6581 -2.48092 0
M  V30 3304 C 297.341 3.13742 -1.4987 0
M  V30 3305 H 296.664 3.22663 -2.36069 0
M  V30 3306 H 298.104 3.92861 -1.59487 0
M  V30 3307 C 296.563 3.36175 -0.220973 0
M  V30 3308 O 297.093 3.95469 0.704782 0
M  V30 3309 N 295.299 2.90348 -0.120963 0
M  V30 3310 H 294.846 2.42278 -0.875162 0
M  V30 3311 H 294.804 3.05732 0.733168 0
M  V30 3312 N 298.576 1.31904 0.862503 0
M  V30 3313 C 299.524 1.20125 1.9918 0
M  V30 3314 C 300.518 0.107824 1.69056 0
M  V30 3315 O 301.724 0.270223 1.7796 0
M  V30 3316 H 298.099 0.372148 0.65346 0
M  V30 3317 H 300.07 2.15652 2.06244 0
M  V30 3318 C 298.819 0.933099 3.34946 0
M  V30 3319 H 298.142 1.76664 3.5865 0
M  V30 3320 H 299.582 0.890892 4.14535 0
M  V30 3321 C 298.041 -0.364172 3.34926 0
M  V30 3322 O 298.571 -1.37858 3.77304 0
M  V30 3323 N 296.777 -0.383362 2.8806 0
M  V30 3324 H 296.324 0.442651 2.53768 0
M  V30 3325 H 296.282 -1.25123 2.8843 0
M  V30 3326 N 300.054 -1.07777 1.14986 0
M  V30 3327 C 301.303 -1.79669 0.916617 0
M  V30 3328 C 301.616 -1.87474 -0.557917 0
M  V30 3329 O 302.822 -2.55845 -0.908617 0
M  V30 3330 C 301.278 -3.22848 1.59051 0
M  V30 3331 C 300.886 -3.23257 3.10176 0
M  V30 3332 C 302.63 -3.99379 1.43864 0
M  V30 3333 C 300.537 -4.61063 3.70372 0
M  V30 3334 H 299.467 -0.673349 0.33929 0
M  V30 3335 H 302.118 -1.21003 1.37951 0
M  V30 3336 H 300.5 -3.8168 1.0553 0
M  V30 3337 H 301.674 -2.74095 3.70417 0
M  V30 3338 H 299.989 -2.60222 3.25074 0
M  V30 3339 H 302.586 -5.0122 1.86232 0
M  V30 3340 H 302.929 -4.14511 0.385564 0
M  V30 3341 H 303.462 -3.47032 1.94457 0
M  V30 3342 H 300.201 -4.51135 4.7556 0
M  V30 3343 H 299.721 -5.1048 3.14913 0
M  V30 3344 H 301.4 -5.30034 3.71043 0
M  V30 3345 N 301.532 -0.945985 -1.26051 0
M  V30 3346 C 302.462 -0.477172 -2.28572 0
M  V30 3347 C 303.443 0.472032 -1.63419 0
M  V30 3348 O 304.628 0.372853 -1.90587 0
M  V30 3349 C 301.758 0.253975 -3.4637 0
M  V30 3350 C 300.712 -0.609135 -4.23643 0
M  V30 3351 C 300.038 0.252252 -5.34105 0
M  V30 3352 C 301.338 -1.8829 -4.8718 0
M  V30 3353 H 303.032 -1.33402 -2.68038 0
M  V30 3354 H 300.578 -0.642904 -1.28852 0
M  V30 3355 H 302.531 0.593016 -4.17207 0
M  V30 3356 H 301.255 1.145 -3.05871 0
M  V30 3357 H 299.914 -0.931138 -3.54578 0
M  V30 3358 H 299.562 1.14278 -4.89846 0
M  V30 3359 H 299.262 -0.32188 -5.86718 0
M  V30 3360 H 300.786 0.586454 -6.07777 0
M  V30 3361 H 302.2 -1.61081 -5.50205 0
M  V30 3362 H 300.597 -2.40199 -5.49931 0
M  V30 3363 H 301.667 -2.59134 -4.09851 0
M  V30 3364 N 303.011 1.40521 -0.713556 0
M  V30 3365 C 304.257 2.01221 -0.252564 0
M  V30 3366 C 304.59 1.56444 1.1506 0
M  V30 3367 O 303.865 0.783597 1.78017 0
M  V30 3368 C 304.148 3.58582 -0.330332 0
M  V30 3369 C 304.001 4.13437 -1.77173 0
M  V30 3370 C 305.32 4.39079 0.299641 0
M  V30 3371 H 302.439 0.731077 -0.0932471 0
M  V30 3372 H 305.081 1.67026 -0.905673 0
M  V30 3373 H 303.231 3.87844 0.225737 0
M  V30 3374 H 304.903 3.9498 -2.38303 0
M  V30 3375 H 303.146 3.67801 -2.3001 0
M  V30 3376 H 303.817 5.22597 -1.77755 0
M  V30 3377 H 306.293 4.15735 -0.174139 0
M  V30 3378 H 305.169 5.4848 0.214771 0
M  V30 3379 H 305.43 4.19915 1.38288 0
M  V30 3380 N 304.489 0.459591 1.5075 0
M  V30 3381 C 305.436 -0.340524 2.28274 0
M  V30 3382 C 306.406 -0.997371 1.32822 0
M  V30 3383 O 307.591 -1.01202 1.61749 0
M  V30 3384 C 304.731 -1.42317 3.14388 0
M  V30 3385 C 303.844 -0.782251 4.24859 0
M  V30 3386 C 302.979 -1.84182 4.98247 0
M  V30 3387 C 302.018 -1.18053 6.00608 0
M  V30 3388 N 301.155 -2.18244 6.67319 0
M  V30 3389 H 305.995 0.326899 2.96202 0
M  V30 3390 H 303.532 0.173057 1.46078 0
M  V30 3391 H 305.49 -2.06241 3.62658 0
M  V30 3392 H 304.12 -2.05992 2.4853 0
M  V30 3393 H 303.172 -0.0307404 3.80388 0
M  V30 3394 H 304.484 -0.259663 4.98124 0
M  V30 3395 H 303.638 -2.55714 5.50177 0
M  V30 3396 H 302.377 -2.39819 4.24662 0
M  V30 3397 H 301.382 -0.450776 5.47949 0
M  V30 3398 H 302.607 -0.631202 6.7616 0
M  V30 3399 H 300.553 -2.72919 5.96533 0
M  V30 3400 H 300.47 -1.70938 7.36421 0
M  V30 3401 H 301.738 -2.89191 7.23871 0
M  V30 3402 N 305.967 -1.56429 0.191757 0
M  V30 3403 C 306.9 -2.14829 -0.76967 0
M  V30 3404 C 307.878 -1.08405 -1.2119 0
M  V30 3405 O 309.062 -1.36498 -1.30002 0
M  V30 3406 C 306.189 -2.70446 -2.03903 0
M  V30 3407 C 305.235 -3.89428 -1.7392 0
M  V30 3408 S 306.068 -5.28048 -0.890265 0
M  V30 3409 C 307.224 -5.87085 -2.16984 0
M  V30 3410 H 307.457 -2.96042 -0.273204 0
M  V30 3411 H 304.99 -1.54383 -0.0231975 0
M  V30 3412 H 306.948 -3.03134 -2.76803 0
M  V30 3413 H 305.609 -1.89281 -2.50662 0
M  V30 3414 H 304.802 -4.26742 -2.68155 0
M  V30 3415 H 304.404 -3.57732 -1.09103 0
M  V30 3416 H 306.696 -6.01244 -3.12269 0
M  V30 3417 H 307.639 -6.83747 -1.84108 0
M  V30 3418 H 308.047 -5.15663 -2.29678 0
M  V30 3419 N 307.445 0.0818655 -1.57387 0
M  V30 3420 C 308.692 0.782914 -1.86753 0
M  V30 3421 C 309.02 1.78082 -0.782118 0
M  V30 3422 O 308.275 1.94426 0.22295 0
M  V30 3423 C 308.574 1.53513 -3.22752 0
M  V30 3424 C 308.24 0.678134 -4.45771 0
M  V30 3425 C 306.902 0.441929 -4.79166 0
M  V30 3426 C 309.254 0.0832243 -5.21134 0
M  V30 3427 C 306.582 -0.398833 -5.85343 0
M  V30 3428 C 308.934 -0.744935 -6.28199 0
M  V30 3429 C 307.598 -0.991107 -6.60101 0
M  V30 3430 H 306.868 0.286489 -0.683378 0
M  V30 3431 H 309.515 0.0439808 -1.91449 0
M  V30 3432 H 307.82 2.34599 -3.138 0
M  V30 3433 H 309.517 2.08218 -3.42705 0
M  V30 3434 H 306.107 0.872357 -4.19628 0
M  V30 3435 H 310.291 0.252847 -4.95655 0
M  V30 3436 H 305.547 -0.598405 -6.08465 0
M  V30 3437 H 309.721 -1.21271 -6.8576 0
M  V30 3438 H 307.348 -1.64437 -7.42202 0
M  V30 3439 N 308.923 1.53595 0.353017 0
M  V30 3440 C 309.855 1.77219 1.45348 0
M  V30 3441 C 310.868 0.65324 1.49119 0
M  V30 3442 O 312.057 0.929775 1.52373 0
M  V30 3443 C 309.157 1.84841 2.84055 0
M  V30 3444 C 308.33 3.14649 3.03833 0
M  V30 3445 C 307.389 3.13351 4.22727 0
M  V30 3446 O 306.415 3.87107 4.17297 0
M  V30 3447 N 307.617 2.35052 5.30783 0
M  V30 3448 H 310.382 2.72178 1.25457 0
M  V30 3449 H 307.943 1.52528 0.542833 0
M  V30 3450 H 309.935 1.81435 3.61751 0
M  V30 3451 H 308.505 0.971114 2.97133 0
M  V30 3452 H 307.725 3.31256 2.13689 0
M  V30 3453 H 309.013 4.00411 3.13925 0
M  V30 3454 H 308.411 1.74663 5.38061 0
M  V30 3455 H 306.968 2.37453 6.07009 0
M  V30 3456 N 310.401 -0.613514 1.45168 0
M  V30 3457 C 311.311 -1.75296 1.55912 0
M  V30 3458 C 312.327 -1.68244 0.443856 0
M  V30 3459 O 313.503 -1.88706 0.70371 0
M  V30 3460 C 310.568 -3.1174 1.5172 0
M  V30 3461 C 309.629 -3.30291 2.74238 0
M  V30 3462 C 308.862 -4.60226 2.70236 0
M  V30 3463 O 309.085 -5.42168 1.77229 0
M  V30 3464 O 308.019 -4.81361 3.61352 0
M  V30 3465 H 311.845 -1.69183 2.52212 0
M  V30 3466 H 309.43 -0.776886 1.27612 0
M  V30 3467 H 311.312 -3.93044 1.51968 0
M  V30 3468 H 309.987 -3.18357 0.585697 0
M  V30 3469 H 308.894 -2.48598 2.79553 0
M  V30 3470 H 310.227 -3.28547 3.66494 0
M  V30 3471 N 311.879 -1.3236 -0.855495 0
M  V30 3472 C 312.826 -1.21225 -1.964 0
M  V30 3473 C 313.796 -0.0946204 -1.6583 0
M  V30 3474 O 314.981 -0.27002 -1.8888 0
M  V30 3475 C 312.121 -0.940419 -3.32039 0
M  V30 3476 C 311.234 -2.14276 -3.75113 0
M  V30 3477 C 310.369 -1.80648 -4.9954 0
M  V30 3478 C 309.408 -2.97208 -5.35102 0
M  V30 3479 N 308.545 -2.63678 -6.50706 0
M  V30 3480 H 313.385 -2.16042 -2.05255 0
M  V30 3481 H 310.922 -1.07451 -1.00463 0
M  V30 3482 H 312.88 -0.763311 -4.10158 0
M  V30 3483 H 311.51 -0.0290413 -3.22787 0
M  V30 3484 H 310.562 -2.43017 -2.92655 0
M  V30 3485 H 311.874 -3.01468 -3.97389 0
M  V30 3486 H 311.028 -1.59484 -5.85363 0
M  V30 3487 H 309.767 -0.906678 -4.79198 0
M  V30 3488 H 308.772 -3.19004 -4.47791 0
M  V30 3489 H 309.997 -3.87918 -5.57401 0
M  V30 3490 H 307.943 -1.76238 -6.31883 0
M  V30 3491 H 307.86 -3.444 -6.72997 0
M  V30 3492 H 309.128 -2.45942 -7.39684 0
M  V30 3493 N 313.357 1.07166 -1.15556 0
M  V30 3494 C 314.634 1.76546 -0.842069 0
M  V30 3495 C 315.014 2.00453 0.661939 0
M  V30 3496 O 314.362 1.62452 1.60691 0
M  V30 3497 C 314.572 3.07266 -1.65495 0
M  V30 3498 C 315.92 3.81578 -1.86234 0
M  V30 3499 O 316.944 3.17083 -1.62287 0
M  V30 3500 O 315.803 4.97419 -2.26355 0
M  V30 3501 H 312.897 0.766756 -0.309862 0
M  V30 3502 H 315.443 1.13514 -1.26145 0
M  V30 3503 H 314.215 2.85494 -2.67598 0
M  V30 3504 H 313.838 3.7803 -1.23203 0
M  V30 3505 N 314.835 0.952656 1.25548 0
M  V30 3506 C 315.782 0.47008 2.25962 0
M  V30 3507 C 316.752 -0.476384 1.59122 0
M  V30 3508 O 317.937 -0.39007 1.8677 0
M  V30 3509 C 315.077 -0.247881 3.44209 0
M  V30 3510 C 314.19 0.735591 4.25691 0
M  V30 3511 C 313.325 -0.0047306 5.312 0
M  V30 3512 C 312.364 0.969805 6.04368 0
M  V30 3513 N 311.501 0.260486 7.01617 0
M  V30 3514 H 316.341 1.33126 2.66611 0
M  V30 3515 H 313.878 0.66765 1.31076 0
M  V30 3516 H 315.836 -0.680695 4.1161 0
M  V30 3517 H 314.466 -1.07312 3.0444 0
M  V30 3518 H 313.518 1.28689 3.57971 0
M  V30 3519 H 314.83 1.47934 4.76358 0
M  V30 3520 H 313.984 -0.496275 6.04667 0
M  V30 3521 H 312.723 -0.781282 4.81401 0
M  V30 3522 H 311.728 1.47237 5.29718 0
M  V30 3523 H 312.953 1.74655 6.56256 0
M  V30 3524 H 310.899 -0.497364 6.54112 0
M  V30 3525 H 310.816 0.943362 7.50091 0
M  V30 3526 H 312.084 -0.209587 7.79218 0
M  V30 3527 N 316.313 -1.40141 0.720998 0
M  V30 3528 C 317.245 -2.29177 0.0324669 0
M  V30 3529 C 318.258 -1.46105 -0.718126 0
M  V30 3530 O 319.447 -1.69335 -0.564608 0
M  V30 3531 C 316.547 -3.24473 -0.978292 0
M  V30 3532 C 315.72 -4.36423 -0.292115 0
M  V30 3533 C 314.779 -5.12122 -1.20901 0
M  V30 3534 O 313.805 -5.64981 -0.691766 0
M  V30 3535 N 315.007 -5.21992 -2.53978 0
M  V30 3536 H 317.772 -2.88909 0.796984 0
M  V30 3537 H 315.333 -1.51569 0.569068 0
M  V30 3538 H 317.325 -3.71987 -1.59398 0
M  V30 3539 H 315.895 -2.65871 -1.64413 0
M  V30 3540 H 315.115 -3.90967 0.503847 0
M  V30 3541 H 316.403 -5.08467 0.183971 0
M  V30 3542 H 315.801 -4.8054 -2.98493 0
M  V30 3543 H 314.358 -5.72995 -3.10677 0
M  V30 3544 N 317.792 -0.46758 -1.50504 0
M  V30 3545 C 318.742 0.34698 -2.25344 0
M  V30 3546 C 319.726 0.964469 -1.2879 0
M  V30 3547 O 320.918 0.8776 -1.53711 0
M  V30 3548 C 318.047 1.43042 -3.1208 0
M  V30 3549 C 317.133 0.82084 -4.16081 0
M  V30 3550 N 317.524 -0.0567602 -5.05768 0
M  V30 3551 C 315.822 1.08517 -4.32597 0
M  V30 3552 C 316.523 -0.402343 -5.80307 0
M  V30 3553 N 315.499 0.221607 -5.43148 0
M  V30 3554 H 319.301 -0.329129 -2.92051 0
M  V30 3555 H 316.815 -0.281508 -1.59942 0
M  V30 3556 H 318.812 2.02712 -3.64299 0
M  V30 3557 H 317.472 2.10856 -2.46921 0
M  V30 3558 H 318.483 -0.425349 -5.1615 0
M  V30 3559 H 315.16 1.75855 -3.78657 0
M  V30 3560 H 316.55 -1.11834 -6.62528 0
M  V30 3561 N 319.27 1.56325 -0.20005 0
M  V30 3562 C 320.218 2.20666 0.735482 0
M  V30 3563 C 321.212 1.17934 1.21605 0
M  V30 3564 O 322.418 1.36068 1.17837 0
M  V30 3565 H 318.793 0.70725 0.255542 0
M  V30 3566 H 320.764 2.9792 0.169166 0
M  V30 3567 C 319.513 2.88391 1.94232 0
M  V30 3568 H 318.836 3.67185 1.58161 0
M  V30 3569 H 320.276 3.3684 2.57517 0
M  V30 3570 C 318.735 1.89692 2.78421 0
M  V30 3571 O 319.265 1.40032 3.76502 0
M  V30 3572 N 317.471 1.57813 2.44015 0
M  V30 3573 H 317.018 1.9839 1.64314 0
M  V30 3574 H 316.976 0.920325 3.00628 0
M  V30 3575 N 320.748 -0.0735177 1.57428 0
M  V30 3576 C 321.997 -0.771809 1.86349 0
M  V30 3577 C 322.31 -1.78828 0.792452 0
M  V30 3578 O 323.516 -2.53602 0.96945 0
M  V30 3579 C 321.972 -1.42358 3.30548 0
M  V30 3580 C 321.58 -0.445761 4.45777 0
M  V30 3581 C 323.324 -2.10434 3.6867 0
M  V30 3582 C 321.231 -1.10335 5.81016 0
M  V30 3583 H 320.161 -0.291999 0.695164 0
M  V30 3584 H 322.812 -0.0250749 1.83483 0
M  V30 3585 H 321.194 -2.21852 3.28021 0
M  V30 3586 H 322.368 0.319239 4.59693 0
M  V30 3587 H 320.683 0.130457 4.16196 0
M  V30 3588 H 323.28 -2.60405 4.67004 0
M  V30 3589 H 323.623 -2.90298 2.98383 0
M  V30 3590 H 324.156 -1.37773 3.7318 0
M  V30 3591 H 320.895 -0.345061 6.54591 0
M  V30 3592 H 320.415 -1.83925 5.70904 0
M  V30 3593 H 322.094 -1.62367 6.26295 0
M  V30 3594 N 322.226 -1.5378 -0.344866 0
M  V30 3595 C 323.158 -1.77988 -1.44406 0
M  V30 3596 C 324.171 -0.661138 -1.48771 0
M  V30 3597 O 325.36 -0.937842 -1.51877 0
M  V30 3598 C 322.46 -1.86345 -2.8307 0
M  V30 3599 C 321.633 -3.16256 -3.0216 0
M  V30 3600 C 320.692 -3.15588 -4.21059 0
M  V30 3601 O 319.718 -3.89314 -4.15239 0
M  V30 3602 N 320.92 -2.37864 -5.29529 0
M  V30 3603 H 323.685 -2.72839 -1.24012 0
M  V30 3604 H 321.246 -1.52814 -0.534737 0
M  V30 3605 H 323.238 -1.83351 -3.60783 0
M  V30 3606 H 321.808 -0.986858 -2.96614 0
M  V30 3607 H 321.028 -3.32385 -2.11929 0
M  V30 3608 H 322.316 -4.0207 -3.11797 0
M  V30 3609 H 321.714 -1.77514 -5.37127 0
M  V30 3610 H 320.271 -2.40668 -6.05741 0
M  V30 3611 N 323.704 0.605807 -1.45491 0
M  V30 3612 C 324.932 1.39136 -1.5313 0
M  V30 3613 C 325.347 1.88082 -0.164507 0
M  V30 3614 O 324.704 1.62316 0.834247 0
M  V30 3615 C 324.755 2.59463 -2.51716 0
M  V30 3616 O 324.476 2.12551 -3.83084 0
M  V30 3617 C 325.977 3.52301 -2.6907 0
M  V30 3618 H 323.197 0.425849 -0.51855 0
M  V30 3619 H 325.741 0.73865 -1.90694 0
M  V30 3620 H 323.896 3.20772 -2.17219 0
M  V30 3621 H 324.31 2.90744 -4.36541 0
M  V30 3622 H 325.784 4.33271 -3.42024 0
M  V30 3623 H 326.261 4.02757 -1.75167 0
M  V30 3624 H 326.867 2.96845 -3.04571 0
M  V30 3625 N 325.182 1.32811 0.848464 0
M  V30 3626 C 326.459 1.14334 1.58704 0
M  V30 3627 C 326.839 -0.293948 2.09043 0
M  V30 3628 O 326.187 -1.29153 1.88499 0
M  V30 3629 C 326.397 2.17626 2.72837 0
M  V30 3630 C 327.745 2.51282 3.42261 0
M  V30 3631 O 328.769 2.16219 2.83068 0
M  V30 3632 O 327.628 3.11413 4.49093 0
M  V30 3633 H 324.722 0.441601 0.699226 0
M  V30 3634 H 327.268 1.44362 0.892053 0
M  V30 3635 H 326.04 3.14211 2.3321 0
M  V30 3636 H 325.663 1.88628 3.50008 0
M  V30 3637 N 326.66 -1.06551 1.16123 0
M  V30 3638 C 328.071 -1.60768 0.949232 0
M  V30 3639 C 328.422 -1.89523 -0.507508 0
M  V30 3640 O 327.547 -1.66671 -1.38021 0
M  V30 3641 C 328.142 -2.92086 1.71671 0
M  V30 3642 C 326.701 -3.43015 1.54977 0
M  V30 3643 C 325.848 -2.16947 1.72711 0
M  V30 3644 H 328.799 -0.895354 1.31031 0
M  V30 3645 H 328.82 -3.6138 1.19099 0
M  V30 3646 H 328.332 -2.71127 2.7769 0
M  V30 3647 H 326.433 -3.69039 0.513873 0
M  V30 3648 H 326.546 -4.18516 2.33198 0
M  V30 3649 H 324.91 -2.27041 1.15431 0
M  V30 3650 H 325.693 -1.98473 2.80113 0
M  V30 3651 N 328.138 -0.959301 -1.25041 0
M  V30 3652 C 329.368 -0.63303 -1.96663 0
M  V30 3653 C 329.776 0.800031 -1.71453 0
M  V30 3654 O 329.119 1.54736 -0.99008 0
M  V30 3655 C 329.181 -0.817523 -3.50081 0
M  V30 3656 C 328.845 -2.22863 -3.98975 0
M  V30 3657 C 329.842 -3.20569 -4.09306 0
M  V30 3658 C 327.527 -2.55407 -4.32519 0
M  V30 3659 C 329.521 -4.4891 -4.52503 0
M  V30 3660 C 327.208 -3.83976 -4.754 0
M  V30 3661 C 328.206 -4.8054 -4.85356 0
M  V30 3662 O 327.894 -6.06817 -5.27284 0
M  V30 3663 H 327.626 -0.235866 -0.633516 0
M  V30 3664 H 330.18 -1.2874 -1.60047 0
M  V30 3665 H 328.41 -0.105992 -3.86555 0
M  V30 3666 H 330.099 -0.491604 -4.02912 0
M  V30 3667 H 330.865 -2.96753 -3.83618 0
M  V30 3668 H 326.744 -1.8097 -4.23994 0
M  V30 3669 H 330.288 -5.24283 -4.60188 0
M  V30 3670 H 326.185 -4.07596 -5.00535 0
M  V30 3671 H 326.953 -6.10262 -5.45457 0
M  V30 3672 N 329.616 1.39756 -0.72842 0
M  V30 3673 C 330.893 1.94574 -0.200079 0
M  V30 3674 C 331.273 1.66569 1.29684 0
M  V30 3675 O 330.621 0.990326 2.05924 0
M  V30 3676 C 330.831 3.45004 -0.526608 0
M  V30 3677 C 332.179 4.21965 -0.472318 0
M  V30 3678 O 333.203 3.53173 -0.463413 0
M  V30 3679 O 332.062 5.44552 -0.461075 0
M  V30 3680 H 329.156 0.826289 -0.0342851 0
M  V30 3681 H 331.702 1.49293 -0.806829 0
M  V30 3682 H 330.474 3.58796 -1.56144 0
M  V30 3683 H 330.097 3.97449 0.109449 0
M  V30 3684 N 331.094 0.475555 1.50254 0
M  V30 3685 C 332.343 -0.0795996 2.01543 0
M  V30 3686 C 332.656 -1.4038 1.36209 0
M  V30 3687 O 333.862 -2.04415 1.7868 0
M  V30 3688 C 332.318 -0.192363 3.59386 0
M  V30 3689 C 331.926 1.12367 4.33679 0
M  V30 3690 C 333.67 -0.699238 4.18701 0
M  V30 3691 C 331.577 0.974453 5.83317 0
M  V30 3692 H 330.507 -0.0335228 0.753254 0
M  V30 3693 H 333.158 0.611128 1.73025 0
M  V30 3694 H 331.54 -0.946974 3.84511 0
M  V30 3695 H 332.714 1.88958 4.20276 0
M  V30 3696 H 331.029 1.562 3.85993 0
M  V30 3697 H 333.626 -0.827978 5.28251 0
M  V30 3698 H 333.969 -1.69171 3.80377 0
M  V30 3699 H 334.502 -0.00188807 3.978 0
M  V30 3700 H 331.241 1.94042 6.26121 0
M  V30 3701 H 330.761 0.248998 5.99283 0
M  V30 3702 H 332.44 0.642867 6.43798 0
M  V30 3703 N 332.573 -1.56217 0.208337 0
M  V30 3704 C 333.798 -2.02782 -0.435222 0
M  V30 3705 C 334.223 -1.08738 -1.53485 0
M  V30 3706 O 333.581 -0.0731855 -1.81152 0
M  V30 3707 C 333.629 -3.47687 -0.956335 0
M  V30 3708 O 332.733 -3.56773 -2.06849 0
M  V30 3709 H 332.074 -0.656403 -0.100158 0
M  V30 3710 H 334.604 -2.02033 0.3231 0
M  V30 3711 H 334.614 -3.87745 -1.26955 0
M  V30 3712 H 333.289 -4.15624 -0.15143 0
M  V30 3713 H 331.866 -3.28597 -1.76292 0
M  V30 3714 N 334.051 0.0651679 -1.57465 0
M  V30 3715 C 335.279 0.775808 -1.91804 0
M  V30 3716 C 335.694 1.70782 -0.804916 0
M  V30 3717 O 335.051 1.81153 0.221311 0
M  V30 3718 C 335.102 1.56381 -3.25925 0
M  V30 3719 O 334.823 0.669248 -4.32958 0
M  V30 3720 C 336.324 2.37485 -3.7432 0
M  V30 3721 H 333.544 0.2202 -0.63384 0
M  V30 3722 H 336.088 0.0334587 -2.04473 0
M  V30 3723 H 334.243 2.25837 -3.14764 0
M  V30 3724 H 334.657 1.21801 -5.10162 0
M  V30 3725 H 336.131 2.88223 -4.70778 0
M  V30 3726 H 336.608 3.17307 -3.03666 0
M  V30 3727 H 337.214 1.73173 -3.88447 0
M  V30 3728 N 335.529 1.53961 0.336706 0
M  V30 3729 C 336.775 1.7179 1.07777 0
M  V30 3730 C 337.108 0.483263 1.88091 0
M  V30 3731 O 336.383 -0.519747 1.87427 0
M  V30 3732 C 336.666 2.98558 2.01334 0
M  V30 3733 C 336.519 4.32245 1.24437 0
M  V30 3734 C 337.838 3.21023 3.01052 0
M  V30 3735 H 334.957 0.625089 0.390426 0
M  V30 3736 H 337.599 1.86641 0.35567 0
M  V30 3737 H 335.749 2.86028 2.62908 0
M  V30 3738 H 337.421 4.56637 0.654243 0
M  V30 3739 H 335.664 4.30344 0.546458 0
M  V30 3740 H 336.335 5.17137 1.93063 0
M  V30 3741 H 338.811 3.32929 2.49595 0
M  V30 3742 H 337.687 4.11104 3.6371 0
M  V30 3743 H 337.948 2.37637 3.72802 0
M  V30 3744 N 337.007 -0.598083 1.45811 0
M  V30 3745 C 337.955 -1.72932 1.55555 0
M  V30 3746 C 338.949 -1.63984 0.424921 0
M  V30 3747 O 340.155 -1.69663 0.601205 0
M  V30 3748 H 336.53 -0.571489 0.488779 0
M  V30 3749 H 338.501 -1.61842 2.50699 0
M  V30 3750 C 337.25 -3.11318 1.54843 0
M  V30 3751 H 336.573 -3.18867 2.41172 0
M  V30 3752 H 338.013 -3.90274 1.65717 0
M  V30 3753 C 336.472 -3.3578 0.274427 0
M  V30 3754 O 337.002 -3.9654 -0.641778 0
M  V30 3755 N 335.208 -2.90119 0.167139 0
M  V30 3756 H 334.755 -2.40855 0.913596 0
M  V30 3757 H 334.713 -3.0686 -0.684435 0
M  V30 3758 N 338.485 -1.33259 -0.841409 0
M  V30 3759 C 339.433 -1.23279 -1.97244 0
M  V30 3760 C 340.427 -0.134706 -1.68864 0
M  V30 3761 O 341.633 -0.298501 -1.77508 0
M  V30 3762 H 338.008 -0.382497 -0.647457 0
M  V30 3763 H 339.979 -2.18906 -2.02787 0
M  V30 3764 C 338.728 -0.986268 -3.33419 0
M  V30 3765 H 338.051 -1.82347 -3.55794 0
M  V30 3766 H 339.491 -0.956728 -4.13065 0
M  V30 3767 C 337.95 0.310842 -3.35463 0
M  V30 3768 O 338.48 1.31838 -3.79449 0
M  V30 3769 N 336.686 0.337485 -2.88634 0
M  V30 3770 H 336.233 -0.482967 -2.53032 0
M  V30 3771 H 336.191 1.20518 -2.90384 0
M  V30 3772 N 339.963 1.05934 -1.16686 0
M  V30 3773 C 341.209 1.79065 -0.95203 0
M  V30 3774 C 341.542 1.87147 0.518629 0
M  V30 3775 O 340.817 1.36574 1.38484 0
M  V30 3776 C 341.1 3.23359 -1.58464 0
M  V30 3777 C 340.953 3.23336 -3.12689 0
M  V30 3778 C 342.272 4.21004 -1.28232 0
M  V30 3779 H 339.391 0.65005 -0.34728 0
M  V30 3780 H 342.033 1.23868 -1.44072 0
M  V30 3781 H 340.183 3.70493 -1.16908 0
M  V30 3782 H 341.855 2.84336 -3.6325 0
M  V30 3783 H 340.098 2.61886 -3.4583 0
M  V30 3784 H 340.769 4.25144 -3.52075 0
M  V30 3785 H 343.245 3.8233 -1.64203 0
M  V30 3786 H 342.121 5.20225 -1.75092 0
M  V30 3787 H 342.382 4.41639 -0.201791 0
M  V30 3788 N 341.441 0.965919 1.2453 0
M  V30 3789 C 342.388 0.49402 2.25451 0
M  V30 3790 C 343.358 -0.45948 1.59618 0
M  V30 3791 O 344.543 -0.370238 1.87173 0
M  V30 3792 C 341.683 -0.211359 3.44452 0
M  V30 3793 C 340.796 0.7807 4.24887 0
M  V30 3794 C 339.931 0.0516105 5.31175 0
M  V30 3795 C 338.97 1.03385 6.03306 0
M  V30 3796 N 338.107 0.334887 7.01301 0
M  V30 3797 H 342.947 1.35946 2.65184 0
M  V30 3798 H 340.484 0.681515 1.3036 0
M  V30 3799 H 342.442 -0.637 4.12308 0
M  V30 3800 H 341.072 -1.04077 3.05562 0
M  V30 3801 H 340.124 1.32479 3.56586 0
M  V30 3802 H 341.436 1.52978 4.74762 0
M  V30 3803 H 340.59 -0.432114 6.05159 0
M  V30 3804 H 339.329 -0.730179 4.82203 0
M  V30 3805 H 338.334 1.52847 5.28127 0
M  V30 3806 H 339.559 1.81606 6.54367 0
M  V30 3807 H 337.505 -0.427959 6.54603 0
M  V30 3808 H 337.422 1.02287 7.49048 0
M  V30 3809 H 338.69 -0.126928 7.79397 0
M  V30 3810 N 342.919 -1.39368 0.735821 0
M  V30 3811 C 343.829 -2.34395 0.0979693 0
M  V30 3812 C 344.845 -1.58361 -0.720968 0
M  V30 3813 O 346.021 -1.90648 -0.649245 0
M  V30 3814 C 343.086 -3.37393 -0.797916 0
M  V30 3815 C 342.147 -4.29287 0.0333662 0
M  V30 3816 C 341.38 -5.27365 -0.819854 0
M  V30 3817 O 341.603 -5.31959 -2.05855 0
M  V30 3818 O 340.537 -6.01389 -0.248079 0
M  V30 3819 H 344.363 -2.90601 0.882315 0
M  V30 3820 H 341.948 -1.40909 0.4965 0
M  V30 3821 H 343.83 -4.00505 -1.31048 0
M  V30 3822 H 342.505 -2.83571 -1.56106 0
M  V30 3823 H 341.412 -3.69395 0.591475 0
M  V30 3824 H 342.745 -4.86317 0.758752 0
M  V30 3825 N 344.397 -0.483516 -1.5 0
M  V30 3826 C 345.644 0.0671597 -2.02389 0
M  V30 3827 C 345.972 1.38597 -1.36459 0
M  V30 3828 O 345.227 1.89634 -0.483458 0
M  V30 3829 C 345.526 0.286226 -3.56252 0
M  V30 3830 C 345.192 -0.952416 -4.40726 0
M  V30 3831 C 343.854 -1.29199 -4.63531 0
M  V30 3832 C 346.206 -1.77655 -4.89988 0
M  V30 3833 C 343.534 -2.45553 -5.32842 0
M  V30 3834 C 345.886 -2.93147 -5.60578 0
M  V30 3835 C 344.55 -3.27505 -5.81633 0
M  V30 3836 H 343.82 0.0245755 -0.740592 0
M  V30 3837 H 346.467 -0.640124 -1.80485 0
M  V30 3838 H 344.772 1.07587 -3.76739 0
M  V30 3839 H 346.469 0.726473 -3.94365 0
M  V30 3840 H 343.059 -0.677881 -4.23205 0
M  V30 3841 H 347.243 -1.52737 -4.72213 0
M  V30 3842 H 342.499 -2.72431 -5.47349 0
M  V30 3843 H 346.673 -3.57344 -5.97727 0
M  V30 3844 H 344.3 -4.1777 -6.35116 0
M  V30 3845 N 345.875 1.56104 -0.216619 0
M  V30 3846 C 346.805 2.23063 0.690296 0
M  V30 3847 C 347.786 1.20072 1.20485 0
M  V30 3848 O 348.971 1.48643 1.24976 0
M  V30 3849 C 346.101 2.90672 1.90072 0
M  V30 3850 C 345.055 4.00092 1.5202 0
M  V30 3851 C 344.381 4.54972 2.80899 0
M  V30 3852 C 345.681 5.17398 0.71391 0
M  V30 3853 H 347.375 2.99109 0.132038 0
M  V30 3854 H 344.921 1.43866 0.0620664 0
M  V30 3855 H 346.874 3.36204 2.54057 0
M  V30 3856 H 345.598 2.12066 2.48386 0
M  V30 3857 H 344.257 3.55283 0.903839 0
M  V30 3858 H 343.905 3.73102 3.37348 0
M  V30 3859 H 343.605 5.28817 2.56176 0
M  V30 3860 H 345.129 5.0322 3.45836 0
M  V30 3861 H 346.543 5.59342 1.25735 0
M  V30 3862 H 344.94 5.97444 0.563951 0
M  V30 3863 H 346.01 4.84088 -0.280527 0
M  V30 3864 N 347.353 -0.0568162 1.57498 0
M  V30 3865 C 348.3 -1.06591 2.04712 0
M  V30 3866 C 349.27 -1.3758 0.930644 0
M  V30 3867 O 350.455 -1.48392 1.19935 0
M  V30 3868 C 347.595 -2.3701 2.50839 0
M  V30 3869 C 346.708 -2.12421 3.76167 0
M  V30 3870 C 345.843 -3.36511 4.11015 0
M  V30 3871 C 344.882 -3.07353 5.2934 0
M  V30 3872 N 344.019 -4.23816 5.59754 0
M  V30 3873 H 348.859 -0.65631 2.90683 0
M  V30 3874 H 346.396 -0.312481 1.43743 0
M  V30 3875 H 348.354 -3.13175 2.7564 0
M  V30 3876 H 346.984 -2.75744 1.67825 0
M  V30 3877 H 346.036 -1.2688 3.58616 0
M  V30 3878 H 347.348 -1.86894 4.62463 0
M  V30 3879 H 346.502 -4.21062 4.36797 0
M  V30 3880 H 345.241 -3.65128 3.23315 0
M  V30 3881 H 344.246 -2.212 5.03339 0
M  V30 3882 H 345.471 -2.80043 6.1867 0
M  V30 3883 H 343.417 -4.52436 4.75014 0
M  V30 3884 H 343.334 -4.01614 6.40501 0
M  V30 3885 H 344.602 -5.0932 5.90096 0
M  V30 3886 N 348.832 -1.54138 -0.328536 0
M  V30 3887 C 349.78 -1.83894 -1.42428 0
M  V30 3888 C 350.774 -0.710478 -1.53781 0
M  V30 3889 O 351.98 -0.894062 -1.56226 0
M  V30 3890 H 348.355 -0.582837 -0.475189 0
M  V30 3891 H 350.326 -2.75537 -1.14552 0
M  V30 3892 C 349.075 -2.07866 -2.78724 0
M  V30 3893 H 348.398 -2.94158 -2.7076 0
M  V30 3894 H 349.838 -2.32644 -3.54476 0
M  V30 3895 C 348.297 -0.868689 -3.25508 0
M  V30 3896 O 348.827 -0.0754908 -4.01629 0
M  V30 3897 N 347.033 -0.681711 -2.82491 0
M  V30 3898 H 346.58 -1.32838 -2.20708 0
M  V30 3899 H 346.538 0.126374 -3.14146 0
M  V30 3900 N 350.31 0.590341 -1.46126 0
M  V30 3901 C 351.258 1.72105 -1.5647 0
M  V30 3902 C 352.252 1.63756 -0.433612 0
M  V30 3903 O 353.458 1.69342 -0.610194 0
M  V30 3904 H 349.833 0.568889 -0.491802 0
M  V30 3905 H 351.804 1.6051 -2.51553 0
M  V30 3906 C 350.553 3.10493 -1.56491 0
M  V30 3907 H 349.876 3.17583 -2.4286 0
M  V30 3908 H 351.316 3.8939 -1.67785 0
M  V30 3909 C 349.775 3.3563 -0.292231 0
M  V30 3910 O 350.305 3.96875 0.620739 0
M  V30 3911 N 348.511 2.90026 -0.182523 0
M  V30 3912 H 348.058 2.40367 -0.926356 0
M  V30 3913 H 348.016 3.07218 0.668152 0
M  V30 3914 N 351.788 1.33704 0.83433 0
M  V30 3915 C 352.72 1.20172 1.9517 0
M  V30 3916 C 353.733 0.131572 1.62267 0
M  V30 3917 O 354.922 0.382406 1.74356 0
M  V30 3918 C 352.022 0.821716 3.28787 0
M  V30 3919 C 351.195 1.98446 3.89792 0
M  V30 3920 C 350.254 1.58469 5.01771 0
M  V30 3921 O 349.28 2.29968 5.20676 0
M  V30 3922 N 350.482 0.492291 5.78409 0
M  V30 3923 H 353.247 2.16429 2.07313 0
M  V30 3924 H 350.808 1.26509 1.0103 0
M  V30 3925 H 352.8 0.536291 4.01131 0
M  V30 3926 H 351.37 -0.0503058 3.1256 0
M  V30 3927 H 350.59 2.43526 3.09982 0
M  V30 3928 H 351.878 2.76236 4.27283 0
M  V30 3929 H 351.276 -0.102349 5.65607 0
M  V30 3930 H 349.833 0.266555 6.51255 0
M  V30 3931 N 353.266 -1.05314 1.17247 0
M  V30 3932 C 354.196 -2.1498 0.911362 0
M  V30 3933 C 355.177 -1.69471 -0.146169 0
M  V30 3934 O 356.362 -1.942 0.003812 0
M  V30 3935 C 353.492 -3.4472 0.422528 0
M  V30 3936 C 352.446 -4.03789 1.4191 0
M  V30 3937 C 351.772 -5.28858 0.788274 0
M  V30 3938 C 353.072 -4.41418 2.7919 0
M  V30 3939 H 354.766 -2.3708 1.82848 0
M  V30 3940 H 352.312 -1.13938 0.880569 0
M  V30 3941 H 354.265 -4.20787 0.227289 0
M  V30 3942 H 352.989 -3.22269 -0.530123 0
M  V30 3943 H 351.648 -3.2979 1.60106 0
M  V30 3944 H 351.296 -5.02709 -0.171173 0
M  V30 3945 H 350.996 -5.69338 1.45353 0
M  V30 3946 H 352.52 -6.07612 0.603282 0
M  V30 3947 H 353.934 -5.08524 2.64719 0
M  V30 3948 H 352.331 -4.92913 3.42282 0
M  V30 3949 H 353.401 -3.51819 3.33693 0
M  V30 3950 O 354.783 -1.10174 -1.18084 0
M  V30 3951 H 355.474 -0.801769 -1.76327 0
M  V30 END ATOM
M  V30 BEGIN BOND
M  V30 END BOND
M  V30 END CTAB
M  END
$$$$
