drugbank_target|P14649 Myosin light chain 6B (DB08378)
 OpenBabel12092120503D

  0  0  0     0  0            999 V3000
M  V30 BEGIN CTAB
M  V30 COUNTS 3210 3242 0 0 0
M  V30 BEGIN ATOM
M  V30 1 H -0.908 1.98254 -0.117106 0
M  V30 2 N 0 1.576 0 0
M  V30 3 C 0.933 2.03868 1.02534 0
M  V30 4 C 1.911 0.928543 1.3348 0
M  V30 5 O 3.095 1.19667 1.45644 0
M  V30 6 C 0.222 2.43627 2.35294 0
M  V30 7 C -0.732 3.65373 2.2001 0
M  V30 8 S 0.101 5.13292 1.52614 0
M  V30 9 C 1.257 5.56322 2.86805 0
M  V30 10 H 1.49 2.90518 0.631377 0
M  V30 11 H -0.977 1.52953 0.210867 0
M  V30 12 H 0.981 2.67203 3.11629 0
M  V30 13 H -0.358 1.57376 2.7183 0
M  V30 14 H -1.165 3.90944 3.18086 0
M  V30 15 H -1.563 3.418 1.51819 0
M  V30 16 H 0.729 5.58782 3.83104 0
M  V30 17 H 1.672 6.56266 2.65933 0
M  V30 18 H 2.08 4.83886 2.90714 0
M  V30 19 N 1.4781 -0.272755 1.55222 0
M  V30 20 C 2.8891 -0.84378 1.66545 0
M  V30 21 C 3.2401 -1.87035 0.592641 0
M  V30 22 O 2.3651 -2.14761 -0.265818 0
M  V30 23 C 2.9601 -1.53723 3.01918 0
M  V30 24 C 1.5191 -2.05628 3.15268 0
M  V30 25 C 0.6661 -0.898424 2.62343 0
M  V30 26 H 3.6171 -0.0490998 1.58624 0
M  V30 27 H 3.6381 -2.40421 2.94921 0
M  V30 28 H 3.1501 -0.78983 3.79978 0
M  V30 29 H 1.2511 -2.83329 2.41983 0
M  V30 30 H 1.3641 -2.27142 4.21833 0
M  V30 31 H -0.2719 -1.29186 2.19506 0
M  V30 32 H 0.5111 -0.164528 3.42906 0
M  V30 33 N 2.9562 -1.48159 -0.537278 0
M  V30 34 C 4.3672 -1.49429 -1.11928 0
M  V30 35 C 4.7182 -0.26 -1.9447 0
M  V30 36 O 3.8432 0.633489 -2.0692 0
M  V30 37 C 4.4382 -2.70758 -2.03656 0
M  V30 38 C 2.9972 -2.74923 -2.57088 0
M  V30 39 C 2.1442 -2.42835 -1.3389 0
M  V30 40 H 5.0952 -1.55381 -0.322886 0
M  V30 41 H 5.1162 -2.48861 -2.87834 0
M  V30 42 H 4.6282 -3.60575 -1.43553 0
M  V30 43 H 2.7292 -1.89296 -3.20933 0
M  V30 44 H 2.8422 -3.76157 -2.9672 0
M  V30 45 H 1.2062 -1.93836 -1.65226 0
M  V30 46 H 1.9892 -3.34884 -0.755504 0
M  V30 47 N 4.4343 0.785586 -1.36625 0
M  V30 48 C 5.3813 1.89838 -1.31264 0
M  V30 49 C 6.3513 1.65115 -0.180633 0
M  V30 50 O 7.5363 1.87222 -0.36777 0
M  V30 51 C 4.6763 3.26706 -1.11163 0
M  V30 52 C 3.7893 3.63476 -2.33472 0
M  V30 53 C 2.9243 4.89481 -2.06353 0
M  V30 54 C 1.9633 5.18941 -3.24602 0
M  V30 55 N 1.1003 6.36131 -2.97123 0
M  V30 56 H 5.9403 1.93756 -2.26413 0
M  V30 57 H 3.4773 0.947454 -1.12524 0
M  V30 58 H 5.4353 4.05639 -0.975337 0
M  V30 59 H 4.0653 3.222 -0.196674 0
M  V30 60 H 3.1173 2.79636 -2.57891 0
M  V30 61 H 4.4293 3.81193 -3.21704 0
M  V30 62 H 3.5833 5.76288 -1.89675 0
M  V30 63 H 2.3223 4.73841 -1.15437 0
M  V30 64 H 1.3273 4.30615 -3.41834 0
M  V30 65 H 2.5523 5.36498 -4.16349 0
M  V30 66 H 0.4983 6.21875 -2.08823 0
M  V30 67 H 0.4153 6.54198 -3.78894 0
M  V30 68 H 1.6833 7.2591 -2.84033 0
M  V30 69 N 5.9124 1.20967 1.01018 0
M  V30 70 C 6.8594 0.964281 2.09691 0
M  V30 71 C 7.8294 -0.107853 1.65749 0
M  V30 72 O 9.0144 0.0381987 1.90762 0
M  V30 73 C 6.1544 0.52943 3.41015 0
M  V30 74 C 5.2674 1.67043 3.98398 0
M  V30 75 C 4.4024 1.18525 5.17808 0
M  V30 76 C 3.4414 2.29892 5.67288 0
M  V30 77 N 2.5784 1.82546 6.77954 0
M  V30 78 H 7.4184 1.89463 2.30017 0
M  V30 79 H 4.9554 0.944289 1.1279 0
M  V30 80 H 6.9134 0.258588 4.16398 0
M  V30 81 H 5.5434 -0.363919 3.20742 0
M  V30 82 H 4.5954 2.05603 3.20049 0
M  V30 83 H 5.9074 2.50877 4.31117 0
M  V30 84 H 5.0614 0.870762 6.00419 0
M  V30 85 H 3.8004 0.316887 4.86669 0
M  V30 86 H 2.8054 2.6215 4.83278 0
M  V30 87 H 4.0304 3.17216 6.00459 0
M  V30 88 H 1.9764 0.980454 6.48632 0
M  V30 89 H 1.8934 2.59956 7.09901 0
M  V30 90 H 3.1614 1.54115 7.64113 0
M  V30 91 N 7.3905 -1.2043 1.01659 0
M  V30 92 C 8.6675 -1.8548 0.621004 0
M  V30 93 C 9.0475 -1.9091 -0.900919 0
M  V30 94 O 8.3955 -1.41694 -1.79263 0
M  V30 95 C 8.6055 -3.25119 1.2688 0
M  V30 96 C 9.9535 -4.01403 1.38423 0
M  V30 97 O 10.9775 -3.34473 1.22501 0
M  V30 98 O 9.8365 -5.21265 1.64151 0
M  V30 99 H 6.9305 -0.798761 0.214266 0
M  V30 100 H 9.4765 -1.28019 1.11396 0
M  V30 101 H 8.2485 -3.15932 2.30873 0
M  V30 102 H 7.8715 -3.90212 0.762917 0
M  V30 103 N 8.8686 -0.792821 -1.36206 0
M  V30 104 C 10.1146 -0.36733 -1.99446 0
M  V30 105 C 10.4476 1.05917 -1.62774 0
M  V30 106 O 9.7226 1.7324 -0.88421 0
M  V30 107 C 10.0056 -0.535044 -3.56103 0
M  V30 108 C 9.8586 -2.00548 -4.02617 0
M  V30 109 C 11.1776 0.0478191 -4.40074 0
M  V30 110 H 8.2966 -0.134941 -0.724541 0
M  V30 111 H 10.9386 -0.999794 -1.61568 0
M  V30 112 H 9.0886 0.00336329 -3.885 0
M  V30 113 H 10.7606 -2.60521 -3.80692 0
M  V30 114 H 9.0036 -2.50686 -3.54032 0
M  V30 115 H 9.6746 -2.07377 -5.11565 0
M  V30 116 H 12.1506 -0.411822 -4.14057 0
M  V30 117 H 11.0266 -0.0995336 -5.4881 0
M  V30 118 H 11.2876 1.14025 -4.27142 0
M  V30 119 N 10.3467 1.47872 -0.545128 0
M  V30 120 C 11.7577 1.86384 -0.108581 0
M  V30 121 C 12.1087 1.45309 1.31832 0
M  V30 122 O 11.2337 0.850641 1.9898 0
M  V30 123 C 11.8287 3.38265 -0.190274 0
M  V30 124 C 10.3877 3.75914 0.191164 0
M  V30 125 C 9.5347 2.71926 -0.543273 0
M  V30 126 H 12.4857 1.39561 -0.755537 0
M  V30 127 H 12.5067 3.75831 0.594217 0
M  V30 128 H 12.0187 3.6813 -1.2289 0
M  V30 129 H 10.1197 3.51665 1.23136 0
M  V30 130 H 10.2327 4.78836 -0.158987 0
M  V30 131 H 8.5967 2.54697 0.0122495 0
M  V30 132 H 9.3797 3.04634 -1.58282 0
M  V30 133 N 11.8248 0.280983 1.55075 0
M  V30 134 C 13.0708 -0.33461 2.00021 0
M  V30 135 C 13.4038 -1.55063 1.16915 0
M  V30 136 O 12.6788 -1.93006 0.240646 0
M  V30 137 C 12.9618 -0.711007 3.53011 0
M  V30 138 C 12.8148 0.512766 4.46868 0
M  V30 139 C 14.1338 -1.54522 4.12081 0
M  V30 140 H 11.2528 -0.120147 0.727141 0
M  V30 141 H 13.8948 0.389097 1.85973 0
M  V30 142 H 12.0448 -1.32761 3.65112 0
M  V30 143 H 13.7168 1.15131 4.46702 0
M  V30 144 H 11.9598 1.14975 4.18286 0
M  V30 145 H 12.6308 0.205556 5.51617 0
M  V30 146 H 15.1068 -1.02442 4.03293 0
M  V30 147 H 13.9828 -1.77739 5.19327 0
M  V30 148 H 14.2438 -2.52813 3.62682 0
M  V30 149 N 13.3029 -1.57598 0.00835791 0
M  V30 150 C 14.2499 -2.08945 -0.980346 0
M  V30 151 C 15.2199 -0.986738 -1.33614 0
M  V30 152 O 16.4049 -1.25968 -1.43306 0
M  V30 153 C 13.5449 -2.60425 -2.26435 0
M  V30 154 C 12.6579 -3.84628 -1.96685 0
M  V30 155 C 11.7929 -4.24579 -3.19228 0
M  V30 156 C 10.8319 -5.41596 -2.85202 0
M  V30 157 N 9.9689 -5.768 -4.00307 0
M  V30 158 H 14.8089 -2.93148 -0.535551 0
M  V30 159 H 12.3459 -1.44912 -0.252776 0
M  V30 160 H 14.3039 -2.88354 -3.01509 0
M  V30 161 H 12.9339 -1.79083 -2.68568 0
M  V30 162 H 11.9859 -3.63556 -1.11942 0
M  V30 163 H 13.2979 -4.69796 -1.67611 0
M  V30 164 H 12.4519 -4.53834 -4.02641 0
M  V30 165 H 11.1909 -3.38137 -3.51447 0
M  V30 166 H 10.1959 -5.12056 -2.00198 0
M  V30 167 H 11.4209 -6.29721 -2.54222 0
M  V30 168 H 9.3669 -4.93316 -4.32407 0
M  V30 169 H 9.2839 -6.5656 -3.74786 0
M  V30 170 H 10.5519 -6.10652 -4.84484 0
M  V30 171 N 14.781 0.264519 -1.55364 0
M  V30 172 C 15.728 1.32717 -1.88825 0
M  V30 173 C 16.698 1.48675 -0.740605 0
M  V30 174 O 17.883 1.62945 -0.992657 0
M  V30 175 C 15.023 2.68089 -2.17307 0
M  V30 176 C 14.136 2.60284 -3.44785 0
M  V30 177 C 13.271 3.87892 -3.62924 0
M  V30 178 C 12.31 3.74631 -4.84064 0
M  V30 179 N 11.447 4.94092 -4.98816 0
M  V30 180 H 16.287 1.03481 -2.79456 0
M  V30 181 H 13.824 0.499757 -1.3835 0
M  V30 182 H 15.782 3.46864 -2.31821 0
M  V30 183 H 14.412 2.95509 -1.299 0
M  V30 184 H 13.464 1.73173 -3.38697 0
M  V30 185 H 14.776 2.46388 -4.33698 0
M  V30 186 H 13.93 4.75109 -3.77302 0
M  V30 187 H 12.669 4.04664 -2.7221 0
M  V30 188 H 11.674 2.85797 -4.69681 0
M  V30 189 H 12.899 3.5937 -5.76221 0
M  V30 190 H 10.845 5.11259 -4.11036 0
M  V30 191 H 10.762 4.8276 -5.81789 0
M  V30 192 H 12.03 5.82857 -5.17588 0
M  V30 193 N 16.2591 1.48442 0.529413 0
M  V30 194 C 17.6701 1.5002 1.11134 0
M  V30 195 C 18.0211 0.27031 1.94329 0
M  V30 196 O 17.1461 -0.622507 2.07253 0
M  V30 197 C 17.7411 2.71834 2.02217 0
M  V30 198 C 16.3001 2.76283 2.55627 0
M  V30 199 C 15.4471 2.43542 1.326 0
M  V30 200 H 18.3981 1.5555 0.314641 0
M  V30 201 H 18.4191 2.50384 2.8651 0
M  V30 202 H 17.9311 3.61331 1.41639 0
M  V30 203 H 16.0321 1.90995 3.19924 0
M  V30 204 H 16.1451 3.77725 2.94721 0
M  V30 205 H 14.5091 1.94709 1.64196 0
M  V30 206 H 15.2921 3.3528 0.737734 0
M  V30 207 N 17.7372 -0.778329 1.37039 0
M  V30 208 C 18.7002 -1.87301 1.32102 0
M  V30 209 C 19.7002 -1.59198 0.226405 0
M  V30 210 O 20.8902 -1.67403 0.481861 0
M  V30 211 C 18.0222 -3.24309 1.05055 0
M  V30 212 H 19.2152 -1.93093 2.29467 0
M  V30 213 H 16.7682 -0.977358 1.21973 0
M  V30 214 H 17.5032 -3.24196 0.0819373 0
M  V30 215 H 17.2882 -3.46098 1.84279 0
M  V30 216 H 18.7782 -4.04382 1.04234 0
M  V30 217 N 19.2153 -1.21501 -1.00376 0
M  V30 218 C 20.4633 -1.03095 -1.73827 0
M  V30 219 C 20.7843 0.436341 -1.90055 0
M  V30 220 O 20.0543 1.31466 -1.45236 0
M  V30 221 H 18.6343 -0.378487 -0.644016 0
M  V30 222 H 21.2963 -1.52831 -1.20949 0
M  V30 223 H 20.3923 -1.49991 -2.73695 0
M  V30 224 N 20.6934 1.19889 -1.02296 0
M  V30 225 C 22.1044 1.71124 -0.746568 0
M  V30 226 C 22.4554 1.81939 0.734335 0
M  V30 227 O 21.5804 1.48639 1.57275 0
M  V30 228 C 22.1754 3.10804 -1.34857 0
M  V30 229 C 20.7344 3.59323 -1.1209 0
M  V30 230 C 19.8814 2.3635 -1.45031 0
M  V30 231 H 22.8324 1.04813 -1.19163 0
M  V30 232 H 22.8534 3.73186 -0.742437 0
M  V30 233 H 22.3654 3.029 -2.42638 0
M  V30 234 H 20.4664 3.7255 -0.0610337 0
M  V30 235 H 20.5794 4.4378 -1.80544 0
M  V30 236 H 18.9434 2.39399 -0.869487 0
M  V30 237 H 19.7264 2.31081 -2.53883 0
M  V30 238 N 22.1715 0.800033 1.35784 0
M  V30 239 C 23.3965 0.388511 2.03729 0
M  V30 240 C 23.8215 -0.990481 1.5991 0
M  V30 241 O 23.1795 -1.64013 0.772612 0
M  V30 242 C 23.2275 0.4726 3.5749 0
M  V30 243 O 22.3315 -0.51646 4.09153 0
M  V30 244 H 21.6725 0.163271 0.643614 0
M  V30 245 H 24.2025 1.0841 1.73518 0
M  V30 246 H 24.2125 0.34003 4.06581 0
M  V30 247 H 22.8875 1.47848 3.88734 0
M  V30 248 H 21.4645 -0.344673 3.71304 0
M  V30 249 N 23.6496 -1.47581 0.552962 0
M  V30 250 C 24.8986 -2.01684 0.0251995 0
M  V30 251 C 25.2116 -1.43317 -1.33115 0
M  V30 252 O 26.4176 -1.89057 -1.94858 0
M  V30 253 C 24.8736 -3.599 -0.00542052 0
M  V30 254 C 24.4816 -4.27257 1.34742 0
M  V30 255 C 26.2256 -4.21768 -0.4808 0
M  V30 256 C 24.1326 -5.77467 1.27614 0
M  V30 257 H 23.0626 -0.753979 0.00565033 0
M  V30 258 H 25.7136 -1.69616 0.70018 0
M  V30 259 H 24.0956 -3.88911 -0.745961 0
M  V30 260 H 25.2696 -4.09893 2.10534 0
M  V30 261 H 23.5846 -3.77358 1.76039 0
M  V30 262 H 26.1816 -5.31838 -0.55246 0
M  V30 263 H 26.5246 -3.88651 -1.49184 0
M  V30 264 H 27.0576 -3.97273 0.204752 0
M  V30 265 H 23.7966 -6.15196 2.26304 0
M  V30 266 H 23.3166 -5.9718 0.55996 0
M  V30 267 H 24.9956 -6.3959 0.976421 0
M  V30 268 N 25.1277 -0.289203 -1.54924 0
M  V30 269 C 26.3527 0.329299 -2.04769 0
M  V30 270 C 26.7777 1.4763 -1.16564 0
M  V30 271 O 26.1357 1.80527 -0.167186 0
M  V30 272 C 26.1837 0.774438 -3.52186 0
M  V30 273 O 25.2877 1.88038 -3.67036 0
M  V30 274 H 24.6287 0.0659259 -0.660719 0
M  V30 275 H 27.1587 -0.42761 -2.00082 0
M  V30 276 H 27.1687 1.06642 -3.93816 0
M  V30 277 H 25.8437 -0.0646707 -4.1585 0
M  V30 278 H 24.4207 1.58985 -3.3731 0
M  V30 279 N 26.6058 1.57591 -0.0167156 0
M  V30 280 C 27.5528 2.09462 0.969251 0
M  V30 281 C 28.5228 0.99381 1.33089 0
M  V30 282 O 29.7078 1.26726 1.42636 0
M  V30 283 C 26.8478 2.61622 2.25051 0
M  V30 284 C 25.9608 3.85666 1.94642 0
M  V30 285 C 25.0958 4.26266 3.16972 0
M  V30 286 C 24.1348 5.43101 2.82326 0
M  V30 287 N 23.2718 5.78915 3.97243 0
M  V30 288 H 28.1118 2.93428 0.519997 0
M  V30 289 H 25.6488 1.45044 0.245087 0
M  V30 290 H 27.6068 2.89949 2.99976 0
M  V30 291 H 26.2368 1.80505 2.67615 0
M  V30 292 H 25.2888 3.64145 1.10013 0
M  V30 293 H 26.6008 4.70678 1.65117 0
M  V30 294 H 25.7548 4.55963 4.00228 0
M  V30 295 H 24.4938 3.39996 3.49648 0
M  V30 296 H 23.4988 5.1311 1.97479 0
M  V30 297 H 24.7238 6.3106 2.50879 0
M  V30 298 H 22.6698 4.95602 4.29785 0
M  V30 299 H 22.5868 6.58539 3.71299 0
M  V30 300 H 23.8548 6.13212 4.81239 0
M  V30 301 N 28.0839 -0.256276 1.55502 0
M  V30 302 C 29.4949 -0.826068 1.67431 0
M  V30 303 C 29.8459 -1.86396 0.612446 0
M  V30 304 O 28.9709 -2.15031 -0.243025 0
M  V30 305 C 29.5659 -1.50512 3.03532 0
M  V30 306 C 28.1249 -2.02273 3.17431 0
M  V30 307 C 27.2719 -0.870548 2.63281 0
M  V30 308 H 30.2229 -0.0322728 1.58667 0
M  V30 309 H 30.2439 -2.37279 2.97454 0
M  V30 310 H 29.7559 -0.749484 3.80794 0
M  V30 311 H 27.8569 -2.80746 2.44974 0
M  V30 312 H 27.9699 -2.22655 4.24219 0
M  V30 313 H 26.3339 -1.26851 2.20864 0
M  V30 314 H 27.1169 -0.128149 3.43061 0
M  V30 315 N 29.562 -1.4872 -0.521534 0
M  V30 316 C 30.525 -1.63379 -1.60748 0
M  V30 317 C 31.525 -0.50661 -1.52611 0
M  V30 318 O 32.715 -0.772601 -1.5613 0
M  V30 319 C 29.847 -1.61192 -3.00383 0
M  V30 320 H 31.04 -2.60217 -1.49087 0
M  V30 321 H 28.593 -1.37444 -0.744235 0
M  V30 322 H 29.328 -0.65863 -3.17541 0
M  V30 323 H 29.113 -2.43032 -3.07698 0
M  V30 324 H 30.603 -1.7466 -3.7932 0
M  V30 325 N 31.0401 0.771051 -1.3745 0
M  V30 326 C 32.0031 1.86598 -1.33093 0
M  V30 327 C 33.0031 1.59076 -0.234845 0
M  V30 328 O 34.1931 1.67145 -0.490732 0
M  V30 329 C 31.3251 3.23747 -1.06773 0
M  V30 330 H 32.5181 1.91873 -2.30488 0
M  V30 331 H 30.0711 0.970876 -1.2249 0
M  V30 332 H 30.8061 3.24148 -0.099129 0
M  V30 333 H 30.5911 3.45115 -1.86112 0
M  V30 334 H 32.0811 4.03824 -1.06377 0
M  V30 335 N 32.5182 1.22032 0.997298 0
M  V30 336 C 33.4652 0.986467 2.08656 0
M  V30 337 C 34.4352 -0.0902671 1.65855 0
M  V30 338 O 35.6202 0.0584294 1.90711 0
M  V30 339 C 32.7602 0.565569 3.40434 0
M  V30 340 C 31.8732 1.71259 3.96604 0
M  V30 341 C 31.0082 1.24011 5.16522 0
M  V30 342 C 30.0472 2.35896 5.64818 0
M  V30 343 N 29.1842 1.89726 6.7598 0
M  V30 344 H 34.0242 1.91892 2.27994 0
M  V30 345 H 31.5612 0.956199 1.11782 0
M  V30 346 H 33.5192 0.302738 4.161 0
M  V30 347 H 32.1492 -0.329879 3.2111 0
M  V30 348 H 31.2012 2.08986 3.17851 0
M  V30 349 H 32.5132 2.55436 4.28432 0
M  V30 350 H 31.6672 0.934395 5.99461 0
M  V30 351 H 30.4062 0.368487 4.86306 0
M  V30 352 H 29.4112 2.67261 4.8047 0
M  V30 353 H 30.6362 3.23567 5.97061 0
M  V30 354 H 28.5822 1.0492 6.47555 0
M  V30 355 H 28.4992 2.67471 7.07103 0
M  V30 356 H 29.7672 1.62211 7.62435 0
M  V30 357 N 33.9963 -1.19345 1.0293 0
M  V30 358 C 35.4073 -1.70725 0.755633 0
M  V30 359 C 35.7583 -1.82326 -0.724676 0
M  V30 360 O 34.8833 -1.49471 -1.56484 0
M  V30 361 C 35.4783 -3.10084 1.36503 0
M  V30 362 C 34.0373 -3.58723 1.13994 0
M  V30 363 C 33.1843 -2.35577 1.46283 0
M  V30 364 H 36.1353 -1.0418 1.19718 0
M  V30 365 H 36.1563 -3.72787 0.762217 0
M  V30 366 H 35.6683 -3.01609 2.44241 0
M  V30 367 H 33.7693 -3.72512 0.0807901 0
M  V30 368 H 33.8823 -4.42816 1.82894 0
M  V30 369 H 32.2463 -2.38935 0.88217 0
M  V30 370 H 33.0293 -2.29731 2.55105 0
M  V30 371 N 35.4744 -0.807222 -1.35358 0
M  V30 372 C 36.4374 -0.223665 -2.28106 0
M  V30 373 C 37.4374 0.589354 -1.4961 0
M  V30 374 O 38.6274 0.407745 -1.69361 0
M  V30 375 C 35.7594 0.688149 -3.33882 0
M  V30 376 H 36.9524 -1.04169 -2.81227 0
M  V30 377 H 34.5054 -0.577921 -1.45223 0
M  V30 378 H 35.2404 1.52984 -2.85948 0
M  V30 379 H 35.0254 0.10687 -3.91954 0
M  V30 380 H 36.5154 1.09075 -4.03104 0
M  V30 381 N 36.9525 1.47285 -0.560781 0
M  V30 382 C 37.9155 2.28535 0.174488 0
M  V30 383 C 38.9155 1.37153 0.839388 0
M  V30 384 O 40.1055 1.59748 0.694702 0
M  V30 385 C 37.2375 3.16934 1.25561 0
M  V30 386 H 38.4305 2.95012 -0.539262 0
M  V30 387 H 35.9835 1.53034 -0.317865 0
M  V30 388 H 36.7185 2.55157 2.00164 0
M  V30 389 H 36.5035 3.8419 0.783604 0
M  V30 390 H 37.9935 3.78143 1.77193 0
M  V30 391 N 38.4306 0.297415 1.54768 0
M  V30 392 C 39.3936 -0.567375 2.22066 0
M  V30 393 C 40.3936 -1.06409 1.20556 0
M  V30 394 O 41.5836 -0.960691 1.45315 0
M  V30 395 C 38.7156 -1.78517 2.90421 0
M  V30 396 H 39.9086 0.0205534 2.99893 0
M  V30 397 H 37.4616 0.0482163 1.56226 0
M  V30 398 H 38.1966 -2.41303 2.16664 0
M  V30 399 H 37.9816 -1.43669 3.64831 0
M  V30 400 H 39.4716 -2.39964 3.41771 0
M  V30 401 N 39.9087 -1.5758 0.0250728 0
M  V30 402 C 41.1567 -1.91255 -0.653151 0
M  V30 403 C 41.4777 -0.901691 -1.729 0
M  V30 404 O 40.7477 0.0573785 -1.95816 0
M  V30 405 H 39.3277 -0.705942 -0.244243 0
M  V30 406 H 41.9897 -1.94767 0.0719209 0
M  V30 407 H 41.0857 -2.91752 -1.10847 0
M  V30 408 N 41.3868 0.248026 -1.55636 0
M  V30 409 C 42.3498 1.29044 -1.89421 0
M  V30 410 C 43.3498 1.41134 -0.770581 0
M  V30 411 O 44.5398 1.39854 -1.03858 0
M  V30 412 C 41.6718 2.66831 -2.12165 0
M  V30 413 H 42.8648 1.00305 -2.82629 0
M  V30 414 H 40.4178 0.487265 -1.48511 0
M  V30 415 H 41.1528 3.00711 -1.21422 0
M  V30 416 H 40.9378 2.59438 -2.93997 0
M  V30 417 H 42.4278 3.42103 -2.3949 0
M  V30 418 N 42.8649 1.48995 0.513639 0
M  V30 419 C 44.2759 1.5119 1.09537 0
M  V30 420 C 44.6269 0.290906 1.94031 0
M  V30 421 O 43.7519 -0.60049 2.07902 0
M  V30 422 C 44.3469 2.73964 1.99322 0
M  V30 423 C 42.9059 2.78978 2.52682 0
M  V30 424 C 42.0529 2.44934 1.30009 0
M  V30 425 H 45.0039 1.55875 0.298125 0
M  V30 426 H 45.0249 2.53409 2.83838 0
M  V30 427 H 44.5369 3.62813 1.37799 0
M  V30 428 H 42.6379 1.94378 3.1788 0
M  V30 429 H 42.7509 3.8083 2.90698 0
M  V30 430 H 41.1149 1.9644 1.62122 0
M  V30 431 H 41.8979 3.36043 0.702131 0
M  V30 432 N 44.343 -0.763751 1.37857 0
M  V30 433 C 45.754 -1.3405 1.29952 0
M  V30 434 C 46.105 -1.96138 -0.0492898 0
M  V30 435 O 45.23 -1.94372 -0.951239 0
M  V30 436 C 45.825 -2.43729 2.35333 0
M  V30 437 C 44.384 -2.97151 2.31037 0
M  V30 438 C 43.531 -1.70438 2.18738 0
M  V30 439 H 46.482 -0.563396 1.48363 0
M  V30 440 H 46.503 -3.23412 2.00462 0
M  V30 441 H 46.015 -1.9851 3.33489 0
M  V30 442 H 44.116 -3.46724 1.3643 0
M  V30 443 H 44.229 -3.52221 3.24772 0
M  V30 444 H 42.593 -1.93673 1.65418 0
M  V30 445 H 43.376 -1.27312 3.18821 0
M  V30 446 N 45.8211 -1.22559 -0.990812 0
M  V30 447 C 46.7841 -0.998863 -2.0629 0
M  V30 448 C 47.7841 0.0354834 -1.60761 0
M  V30 449 O 48.9741 -0.203231 -1.7301 0
M  V30 450 C 46.1061 -0.509203 -3.37076 0
M  V30 451 H 47.2991 -1.95014 -2.27837 0
M  V30 452 H 44.8521 -1.04456 -1.16269 0
M  V30 453 H 45.5871 0.446335 -3.21214 0
M  V30 454 H 45.3721 -1.25547 -3.71457 0
M  V30 455 H 46.8621 -0.370888 -4.1595 0
M  V30 456 N 47.2992 1.18797 -1.03562 0
M  V30 457 C 48.2462 2.22253 -0.622259 0
M  V30 458 C 49.2162 1.61987 0.36736 0
M  V30 459 O 50.4012 1.88986 0.262492 0
M  V30 460 C 47.5412 3.45097 0.0138462 0
M  V30 461 C 46.6542 4.19722 -1.02263 0
M  V30 462 C 45.7892 5.30009 -0.355573 0
M  V30 463 C 44.8282 5.96399 -1.37749 0
M  V30 464 N 43.9652 6.98234 -0.735766 0
M  V30 465 H 48.8052 2.56968 -1.50903 0
M  V30 466 H 46.3422 1.26245 -0.755017 0
M  V30 467 H 48.3002 4.15279 0.399948 0
M  V30 468 H 46.9302 3.11018 0.864158 0
M  V30 469 H 45.9822 3.48418 -1.52673 0
M  V30 470 H 47.2942 4.65227 -1.79903 0
M  V30 471 H 46.4482 6.0664 0.0850095 0
M  V30 472 H 45.1872 4.85592 0.452967 0
M  V30 473 H 44.1922 5.18512 -1.82826 0
M  V30 474 H 45.4172 6.42899 -2.18764 0
M  V30 475 H 43.3632 6.55979 0.0525597 0
M  V30 476 H 43.2802 7.41965 -1.44995 0
M  V30 477 H 44.5482 7.78845 -0.31941 0
M  V30 478 N 48.7773 0.814389 1.34928 0
M  V30 479 C 50.0053 0.411136 2.02774 0
M  V30 480 C 50.4203 -0.980316 1.61354 0
M  V30 481 O 49.7773 -1.63299 0.814847 0
M  V30 482 C 49.8283 0.493865 3.58111 0
M  V30 483 O 49.5493 1.83047 3.98027 0
M  V30 484 C 51.0503 0.0844174 4.4322 0
M  V30 485 H 48.2703 0.166037 0.650133 0
M  V30 486 H 50.8143 1.10018 1.72384 0
M  V30 487 H 48.9693 -0.147006 3.87121 0
M  V30 488 H 49.3833 1.79872 4.92693 0
M  V30 489 H 50.8573 0.193404 5.51661 0
M  V30 490 H 51.3343 -0.97113 4.28329 0
M  V30 491 H 51.9403 0.69875 4.19521 0
M  V30 492 N 50.2554 -1.46986 0.568584 0
M  V30 493 C 51.2024 -2.30153 -0.172707 0
M  V30 494 C 52.1724 -1.39759 -0.897586 0
M  V30 495 O 53.3574 -1.68716 -0.891044 0
M  V30 496 C 50.4974 -3.23952 -1.1895 0
M  V30 497 C 49.6104 -4.29441 -0.469517 0
M  V30 498 C 48.7454 -5.1038 -1.47259 0
M  V30 499 C 47.7844 -6.07632 -0.738225 0
M  V30 500 N 46.9214 -6.8149 -1.68868 0
M  V30 501 H 51.7614 -2.93019 0.542596 0
M  V30 502 H 49.2984 -1.44422 0.279401 0
M  V30 503 H 51.2564 -3.76767 -1.79173 0
M  V30 504 H 49.8864 -2.62926 -1.87269 0
M  V30 505 H 48.9384 -3.79594 0.247467 0
M  V30 506 H 50.2504 -4.98689 0.105241 0
M  V30 507 H 49.4044 -5.67402 -2.14803 0
M  V30 508 H 48.1434 -4.4106 -2.08128 0
M  V30 509 H 47.1484 -5.49778 -0.0489293 0
M  V30 510 H 48.3734 -6.78966 -0.135129 0
M  V30 511 H 46.3194 -6.14891 -2.28573 0
M  V30 512 H 46.2364 -7.46948 -1.16636 0
M  V30 513 H 47.5044 -7.43078 -2.3549 0
M  V30 514 N 51.7335 -0.305618 -1.54608 0
M  V30 515 C 52.6965 0.555591 -2.22364 0
M  V30 516 C 53.6965 1.05768 -1.21119 0
M  V30 517 O 54.8865 0.952972 -1.45822 0
M  V30 518 C 52.0185 1.76974 -2.91364 0
M  V30 519 H 53.2115 -0.0364572 -2.99878 0
M  V30 520 H 50.7645 -0.0565007 -1.56198 0
M  V30 521 H 51.4995 2.40151 -2.17941 0
M  V30 522 H 51.2845 1.41732 -3.65588 0
M  V30 523 H 52.7745 2.38148 -3.43038 0
M  V30 524 N 53.2116 1.57565 -0.0334293 0
M  V30 525 C 54.1216 2.13943 0.962572 0
M  V30 526 C 55.1376 1.09276 1.35406 0
M  V30 527 O 56.3136 1.41355 1.4346 0
M  V30 528 C 53.3786 2.65887 2.22497 0
M  V30 529 C 52.4396 3.85286 1.8935 0
M  V30 530 C 51.6726 4.34743 3.09571 0
M  V30 531 O 51.8956 3.83352 4.22371 0
M  V30 532 O 50.8296 5.26538 2.91618 0
M  V30 533 H 54.6556 2.99333 0.513169 0
M  V30 534 H 52.2406 1.4822 0.18743 0
M  V30 535 H 54.1226 2.99346 2.96598 0
M  V30 536 H 52.7976 1.83578 2.6661 0
M  V30 537 H 51.7046 3.56746 1.1262 0
M  V30 538 H 53.0376 4.68771 1.5005 0
M  V30 539 N 54.6897 -0.239769 1.55765 0
M  V30 540 C 56.1007 -0.808263 1.68297 0
M  V30 541 C 56.4517 -1.85736 0.632181 0
M  V30 542 O 55.5767 -2.15277 -0.220204 0
M  V30 543 C 56.1717 -1.47284 3.05111 0
M  V30 544 C 54.7307 -1.98895 3.19559 0
M  V30 545 C 53.8777 -0.842575 2.64189 0
M  V30 546 H 56.8287 -0.0154422 1.58692 0
M  V30 547 H 56.8497 -2.34111 2.99954 0
M  V30 548 H 56.3617 -0.709053 3.81568 0
M  V30 549 H 54.4627 -2.78132 2.47938 0
M  V30 550 H 54.5757 -2.18143 4.26556 0
M  V30 551 H 52.9397 -1.24501 2.22197 0
M  V30 552 H 53.7227 -0.0917552 3.43177 0
M  V30 553 N 56.1678 -1.49265 -0.50573 0
M  V30 554 C 57.1308 -1.65075 -1.59006 0
M  V30 555 C 58.1308 -0.522768 -1.52065 0
M  V30 556 O 59.3208 -0.789117 -1.55302 0
M  V30 557 C 56.4528 -1.64369 -2.98656 0
M  V30 558 H 57.6458 -2.61784 -1.46319 0
M  V30 559 H 55.1988 -1.38226 -0.729616 0
M  V30 560 H 55.9338 -0.692272 -3.16825 0
M  V30 561 H 55.7188 -2.46282 -3.05103 0
M  V30 562 H 57.2088 -1.78674 -3.77446 0
M  V30 563 N 57.6459 0.756429 -1.3826 0
M  V30 564 C 58.8919 1.51772 -1.34511 0
M  V30 565 C 59.2249 1.94089 0.0656691 0
M  V30 566 O 58.4999 1.65221 1.02626 0
M  V30 567 C 58.7829 2.77226 -2.29821 0
M  V30 568 C 58.6359 2.41065 -3.79747 0
M  V30 569 C 59.9549 3.79236 -2.23312 0
M  V30 570 H 57.0739 0.550578 -0.489931 0
M  V30 571 H 59.7159 0.866607 -1.69086 0
M  V30 572 H 57.8659 3.32784 -2.00467 0
M  V30 573 H 59.5379 1.91303 -4.19763 0
M  V30 574 H 57.7809 1.7356 -3.97567 0
M  V30 575 H 58.4519 3.3081 -4.41892 0
M  V30 576 H 60.9279 3.3321 -2.49219 0
M  V30 577 H 59.8039 4.64714 -2.92116 0
M  V30 578 H 60.0649 4.24615 -1.23102 0
M  V30 579 N 59.124 1.23083 0.984299 0
M  V30 580 C 60.535 1.05609 1.5396 0
M  V30 581 C 60.886 -0.377793 1.92528 0
M  V30 582 O 60.011 -1.26398 1.75649 0
M  V30 583 C 60.606 1.91087 2.7977 0
M  V30 584 C 59.165 1.77885 3.31713 0
M  V30 585 C 58.312 1.87028 2.04733 0
M  V30 586 H 61.263 1.36802 0.804419 0
M  V30 587 H 61.284 1.43336 3.5247 0
M  V30 588 H 60.796 2.9544 2.51668 0
M  V30 589 H 58.897 0.762995 3.64704 0
M  V30 590 H 59.01 2.61047 4.01735 0
M  V30 591 H 57.374 1.30565 2.18689 0
M  V30 592 H 58.157 2.92929 1.79017 0
M  V30 593 N 60.6021 -1.18246 1.0419 0
M  V30 594 C 61.5341 -2.2142 0.592088 0
M  V30 595 C 62.5471 -1.59233 -0.338909 0
M  V30 596 O 63.7361 -1.78002 -0.133231 0
M  V30 597 C 60.8361 -3.38546 -0.154854 0
M  V30 598 C 60.0091 -4.3031 0.784328 0
M  V30 599 C 59.0681 -5.26138 0.0804583 0
M  V30 600 O 58.0941 -5.64738 0.711292 0
M  V30 601 N 59.2961 -5.68261 -1.18574 0
M  V30 602 H 62.0611 -2.60636 1.47949 0
M  V30 603 H 59.6221 -1.33044 0.922544 0
M  V30 604 H 61.6141 -3.99678 -0.635606 0
M  V30 605 H 60.1841 -2.98012 -0.943811 0
M  V30 606 H 59.4041 -3.66764 1.44491 0
M  V30 607 H 60.6921 -4.8852 1.42218 0
M  V30 608 H 60.0901 -5.38957 -1.71876 0
M  V30 609 H 58.6471 -6.31584 -1.61074 0
M  V30 610 N 62.0802 -0.821533 -1.34494 0
M  V30 611 C 63.0432 -0.247847 -2.27856 0
M  V30 612 C 64.0432 0.573453 -1.50227 0
M  V30 613 O 65.2332 0.389759 -1.69784 0
M  V30 614 C 62.3652 0.652698 -3.34593 0
M  V30 615 H 63.5582 -1.07146 -2.80107 0
M  V30 616 H 61.1112 -0.593291 -1.44602 0
M  V30 617 H 61.8462 1.49943 -2.87555 0
M  V30 618 H 61.6312 0.065292 -3.92046 0
M  V30 619 H 63.1212 1.04793 -4.04238 0
M  V30 620 N 63.5583 1.46682 -0.576371 0
M  V30 621 C 64.9693 1.86112 -0.148091 0
M  V30 622 C 65.3203 1.48073 1.2872 0
M  V30 623 O 64.4453 0.892656 1.97131 0
M  V30 624 C 65.0403 3.37786 -0.261982 0
M  V30 625 C 63.5993 3.76235 0.111384 0
M  V30 626 C 62.7463 2.70713 -0.60083 0
M  V30 627 H 65.6973 1.37927 -0.78497 0
M  V30 628 H 65.7183 3.77007 0.514364 0
M  V30 629 H 65.2303 3.6544 -1.30671 0
M  V30 630 H 63.3313 3.54198 1.15649 0
M  V30 631 H 63.4443 4.78391 -0.26052 0
M  V30 632 H 61.8083 2.54666 -0.0417783 0
M  V30 633 H 62.5913 3.01208 -1.64708 0
M  V30 634 N 65.0364 0.313813 1.54444 0
M  V30 635 C 65.9684 -0.590425 2.21465 0
M  V30 636 C 66.9814 -1.08753 1.21147 0
M  V30 637 O 68.1704 -1.00278 1.4767 0
M  V30 638 C 65.2704 -1.82179 2.85769 0
M  V30 639 C 64.4434 -1.46502 4.12136 0
M  V30 640 C 63.5024 -2.55288 4.60124 0
M  V30 641 O 62.5284 -2.19842 5.25032 0
M  V30 642 N 63.7304 -3.86053 4.33525 0
M  V30 643 H 66.4954 -0.0166033 2.99695 0
M  V30 644 H 64.0564 0.136578 1.61323 0
M  V30 645 H 66.0484 -2.54328 3.14801 0
M  V30 646 H 64.6184 -2.30369 2.11303 0
M  V30 647 H 63.8384 -0.575595 3.89975 0
M  V30 648 H 65.1264 -1.20221 4.94393 0
M  V30 649 H 64.5244 -4.17654 3.81552 0
M  V30 650 H 63.0814 -4.54461 4.67235 0
M  V30 651 N 66.5145 -1.57545 0.0417849 0
M  V30 652 C 67.4615 -2.10977 -0.935805 0
M  V30 653 C 68.4315 -1.01486 -1.31491 0
M  V30 654 O 69.6165 -1.2898 -1.40602 0
M  V30 655 C 66.7565 -2.65169 -2.2086 0
M  V30 656 C 65.8695 -3.88714 -1.88482 0
M  V30 657 C 65.0045 -4.31254 -3.1015 0
M  V30 658 C 64.0435 -5.47524 -2.7365 0
M  V30 659 N 63.1805 -5.85162 -3.87982 0
M  V30 660 H 68.0205 -2.94218 -0.473249 0
M  V30 661 H 65.5575 -1.45415 -0.221981 0
M  V30 662 H 67.5155 -2.94685 -2.95325 0
M  V30 663 H 66.1455 -1.8474 -2.64709 0
M  V30 664 H 65.1975 -3.65849 -1.04205 0
M  V30 665 H 66.5095 -4.73245 -1.57608 0
M  V30 666 H 65.6635 -4.62273 -3.92923 0
M  V30 667 H 64.4025 -3.45516 -3.44195 0
M  V30 668 H 63.4075 -5.16187 -1.89291 0
M  V30 669 H 64.6325 -6.34971 -2.40807 0
M  V30 670 H 62.5785 -5.02377 -4.21846 0
M  V30 671 H 62.4955 -6.64362 -3.60775 0
M  V30 672 H 63.7635 -6.20791 -4.71422 0
M  V30 673 N 67.9926 0.231505 -1.5589 0
M  V30 674 C 69.2206 0.974505 -1.82513 0
M  V30 675 C 69.6356 1.78344 -0.619591 0
M  V30 676 O 68.9926 1.77792 0.411848 0
M  V30 677 C 69.0436 1.90007 -3.07538 0
M  V30 678 O 68.7646 1.12385 -4.2344 0
M  V30 679 C 70.2656 2.75779 -3.47075 0
M  V30 680 H 67.4856 0.286065 -0.606966 0
M  V30 681 H 70.0296 0.249739 -2.02969 0
M  V30 682 H 68.1846 2.57891 -2.89086 0
M  V30 683 H 68.5986 1.75125 -4.944 0
M  V30 684 H 70.0726 3.36443 -4.37619 0
M  V30 685 H 70.5496 3.47672 -2.68367 0
M  V30 686 H 71.1556 2.13323 -3.67931 0
M  V30 687 N 69.4707 1.49531 0.497807 0
M  V30 688 C 70.4027 1.62559 1.61578 0
M  V30 689 C 71.4157 0.508134 1.54667 0
M  V30 690 O 72.6047 0.780309 1.60541 0
M  V30 691 C 69.7047 1.56925 3.00379 0
M  V30 692 C 68.8777 2.84257 3.3244 0
M  V30 693 C 67.9367 2.71632 4.50669 0
M  V30 694 O 66.9627 3.4557 4.52294 0
M  V30 695 N 68.1647 1.83391 5.5077 0
M  V30 696 H 70.9297 2.58981 1.50828 0
M  V30 697 H 68.4907 1.4666 0.685743 0
M  V30 698 H 70.4827 1.46129 3.77397 0
M  V30 699 H 69.0527 0.683483 3.05037 0
M  V30 700 H 68.2727 3.09381 2.44289 0
M  V30 701 H 69.5607 3.68666 3.5066 0
M  V30 702 H 68.9587 1.22583 5.52259 0
M  V30 703 H 67.5157 1.78515 6.26878 0
M  V30 704 N 70.9488 -0.749086 1.3866 0
M  V30 705 C 71.8588 -1.89358 1.38494 0
M  V30 706 C 72.8748 -1.71708 0.281476 0
M  V30 707 O 74.0508 -1.94554 0.520643 0
M  V30 708 C 71.1158 -3.24782 1.21316 0
M  V30 709 C 70.1768 -3.54926 2.41508 0
M  V30 710 C 69.4098 -4.83888 2.2514 0
M  V30 711 O 69.6328 -5.56592 1.24746 0
M  V30 712 O 68.5668 -5.13612 3.13826 0
M  V30 713 H 72.3928 -1.92452 2.34938 0
M  V30 714 H 69.9778 -0.894981 1.19626 0
M  V30 715 H 71.8598 -4.05739 1.13814 0
M  V30 716 H 70.5348 -3.2249 0.279592 0
M  V30 717 H 69.4418 -2.74112 2.54585 0
M  V30 718 H 70.7748 -3.61983 3.3351 0
M  V30 719 N 72.4269 -1.23603 -0.977757 0
M  V30 720 C 73.8379 -1.06424 -1.53398 0
M  V30 721 C 74.1889 0.367578 -1.92726 0
M  V30 722 O 73.3139 1.25465 -1.76316 0
M  V30 723 C 73.9089 -1.92568 -2.78753 0
M  V30 724 C 72.4679 -1.79642 -3.30765 0
M  V30 725 C 71.6149 -1.88111 -2.03739 0
M  V30 726 H 74.5659 -1.37227 -0.797152 0
M  V30 727 H 74.5869 -1.45203 -3.51705 0
M  V30 728 H 74.0989 -2.96771 -2.50098 0
M  V30 729 H 72.1999 -0.782325 -3.64294 0
M  V30 730 H 72.3129 -2.63174 -4.00345 0
M  V30 731 H 70.6769 -1.31723 -2.17994 0
M  V30 732 H 71.4599 -2.93875 -1.77461 0
M  V30 733 N 73.905 1.17692 -1.04816 0
M  V30 734 C 75.316 1.69501 -0.782698 0
M  V30 735 C 75.667 1.83456 0.695577 0
M  V30 736 O 74.792 1.51942 1.54086 0
M  V30 737 C 75.387 3.07874 -1.41419 0
M  V30 738 C 73.946 3.56864 -1.19686 0
M  V30 739 C 73.093 2.3322 -1.50012 0
M  V30 740 H 76.044 1.02262 -1.2136 0
M  V30 741 H 76.065 3.71528 -0.821428 0
M  V30 742 H 75.577 2.97685 -2.49009 0
M  V30 743 H 73.678 3.72337 -0.140043 0
M  V30 744 H 73.791 4.39851 -1.89916 0
M  V30 745 H 72.155 2.37501 -0.920071 0
M  V30 746 H 72.938 2.25644 -2.58727 0
M  V30 747 N 75.3831 0.828654 1.34056 0
M  V30 748 C 76.6291 0.42008 1.98402 0
M  V30 749 C 76.9621 -1.01564 1.65525 0
M  V30 750 O 76.2371 -1.70834 0.929831 0
M  V30 751 C 76.5201 0.62927 3.54559 0
M  V30 752 C 76.3731 2.11152 3.97159 0
M  V30 753 C 77.6921 0.0688756 4.40046 0
M  V30 754 H 74.8111 0.154104 0.720709 0
M  V30 755 H 77.4531 1.04228 1.5886 0
M  V30 756 H 75.6031 0.0996418 3.88372 0
M  V30 757 H 77.2751 2.70522 3.73651 0
M  V30 758 H 75.5181 2.59985 3.47261 0
M  V30 759 H 76.1891 2.20868 5.05887 0
M  V30 760 H 78.6651 0.521458 4.1282 0
M  V30 761 H 77.5411 0.245006 5.48353 0
M  V30 762 H 77.8021 -1.0266 4.30015 0
M  V30 763 N 76.8612 -1.46375 0.584142 0
M  V30 764 C 78.1382 -1.956 0.0033388 0
M  V30 765 C 78.5182 -1.52679 -1.45782 0
M  V30 766 O 77.8662 -0.77816 -2.14842 0
M  V30 767 C 78.0762 -3.48551 0.176891 0
M  V30 768 C 79.4242 -4.24576 0.0454609 0
M  V30 769 O 80.4482 -3.56043 0.105801 0
M  V30 770 O 79.3072 -5.46427 -0.0890376 0
M  V30 771 H 76.4012 -0.825547 -0.0490066 0
M  V30 772 H 78.9472 -1.56652 0.65256 0
M  V30 773 H 77.7192 -3.72683 1.1926 0
M  V30 774 H 77.3422 -3.94332 -0.508695 0
M  V30 775 N 78.3393 -0.321999 -1.54275 0
M  V30 776 C 79.2693 0.537411 -2.27231 0
M  V30 777 C 80.2503 1.12064 -1.27968 0
M  V30 778 O 81.4353 1.14606 -1.56777 0
M  V30 779 C 78.5653 1.69919 -3.02894 0
M  V30 780 C 77.5193 1.24534 -4.09482 0
M  V30 781 C 76.8453 2.49394 -4.72977 0
M  V30 782 C 78.1453 0.361335 -5.21049 0
M  V30 783 H 79.8393 -0.0711406 -2.99315 0
M  V30 784 H 77.3853 -0.0356555 -1.43956 0
M  V30 785 H 79.3383 2.30668 -3.52662 0
M  V30 786 H 78.0623 2.33431 -2.28424 0
M  V30 787 H 76.7213 0.660782 -3.60596 0
M  V30 788 H 76.3693 3.11265 -3.95124 0
M  V30 789 H 76.0693 2.19718 -5.44975 0
M  V30 790 H 77.5933 3.10908 -5.25517 0
M  V30 791 H 79.0073 0.875072 -5.66582 0
M  V30 792 H 77.4043 0.157428 -5.99893 0
M  V30 793 H 78.4743 -0.60822 -4.8107 0
M  V30 794 N 79.8174 1.5752 -0.0501392 0
M  V30 795 C 81.0424 1.97376 0.636997 0
M  V30 796 C 81.4674 0.927466 1.63645 0
M  V30 797 O 80.8254 -0.10941 1.8097 0
M  V30 798 C 80.8734 3.36304 1.30123 0
M  V30 799 O 79.9774 3.34156 2.41689 0
M  V30 800 H 79.3184 0.642998 0.165679 0
M  V30 801 H 81.8484 2.04258 -0.118233 0
M  V30 802 H 81.8584 3.73008 1.65315 0
M  V30 803 H 80.5334 4.11993 0.568746 0
M  V30 804 H 79.1104 3.09196 2.08451 0
M  V30 805 N 81.2955 -0.223234 1.56011 0
M  V30 806 C 82.2425 -1.27664 1.92277 0
M  V30 807 C 83.2125 -1.46659 0.779763 0
M  V30 808 O 84.3975 -1.60256 1.03551 0
M  V30 809 C 81.5375 -2.62234 2.24338 0
M  V30 810 C 80.6505 -2.51051 3.51564 0
M  V30 811 C 79.7855 -3.78133 3.7308 0
M  V30 812 C 78.8245 -3.61665 4.93827 0
M  V30 813 N 77.9615 -4.80693 5.11741 0
M  V30 814 H 82.8015 -0.960358 2.82101 0
M  V30 815 H 80.3385 -0.462901 1.39627 0
M  V30 816 H 82.2965 -3.40596 2.40936 0
M  V30 817 H 80.9265 -2.91961 1.3769 0
M  V30 818 H 79.9785 -1.64132 3.43169 0
M  V30 819 H 81.2905 -2.34803 4.40079 0
M  V30 820 H 80.4445 -4.64938 3.89766 0
M  V30 821 H 79.1835 -3.97304 2.82844 0
M  V30 822 H 78.1885 -2.73244 4.77093 0
M  V30 823 H 79.4135 -3.43966 5.85546 0
M  V30 824 H 77.3595 -5.00181 4.24446 0
M  V30 825 H 77.2765 -4.67165 5.94384 0
M  V30 826 H 78.5445 -5.6893 5.3286 0
M  V30 827 N 82.7736 -1.49793 -0.48987 0
M  V30 828 C 84.0196 -1.60078 -1.24511 0
M  V30 829 C 84.3526 -0.291608 -1.91998 0
M  V30 830 O 83.6276 0.705647 -1.81248 0
M  V30 831 C 83.9106 -2.76791 -2.30345 0
M  V30 832 C 83.7636 -4.17535 -1.67286 0
M  V30 833 C 85.0826 -2.89111 -3.31817 0
M  V30 834 H 82.2016 -0.582645 -0.451324 0
M  V30 835 H 84.8436 -1.82117 -0.541612 0
M  V30 836 H 82.9936 -2.5813 -2.90346 0
M  V30 837 H 84.6656 -4.4774 -1.11026 0
M  V30 838 H 82.9086 -4.22665 -0.976577 0
M  V30 839 H 83.5796 -4.95094 -2.44103 0
M  V30 840 H 86.0556 -3.06133 -2.81819 0
M  V30 841 H 84.9316 -3.72433 -4.03219 0
M  V30 842 H 85.1926 -1.9893 -3.94815 0
M  V30 843 N 84.2517 0.741722 -1.39055 0
M  V30 844 C 85.4977 1.50336 -1.36113 0
M  V30 845 C 85.8307 1.94148 0.0450796 0
M  V30 846 O 85.1057 1.66301 1.00868 0
M  V30 847 C 85.3887 2.74773 -2.32749 0
M  V30 848 C 85.2417 2.37023 -3.82283 0
M  V30 849 C 86.5607 3.76846 -2.27322 0
M  V30 850 H 83.6797 0.545351 -0.495743 0
M  V30 851 H 86.3217 0.848624 -1.69995 0
M  V30 852 H 84.4717 3.30639 -2.03986 0
M  V30 853 H 86.1437 1.8684 -4.21768 0
M  V30 854 H 84.3867 1.69334 -3.99385 0
M  V30 855 H 85.0577 3.26104 -4.45376 0
M  V30 856 H 87.5337 3.30548 -2.5274 0
M  V30 857 H 86.4097 4.6159 -2.97028 0
M  V30 858 H 86.6707 4.23286 -1.27599 0
M  V30 859 N 85.7298 1.2412 0.971189 0
M  V30 860 C 86.9788 1.07284 1.70801 0
M  V30 861 C 87.2918 -0.388902 1.91695 0
M  V30 862 O 88.4978 -0.677379 2.62914 0
M  V30 863 C 86.9538 1.87145 3.07416 0
M  V30 864 C 86.5618 3.37707 2.94377 0
M  V30 865 C 88.3058 1.78828 3.84995 0
M  V30 866 C 86.2128 4.09925 4.26281 0
M  V30 867 H 85.1428 0.397854 0.64049 0
M  V30 868 H 87.7938 1.4817 1.0825 0
M  V30 869 H 86.1758 1.39071 3.70777 0
M  V30 870 H 87.3498 3.93335 2.4005 0
M  V30 871 H 85.6648 3.46938 2.30267 0
M  V30 872 H 88.2618 2.30089 4.82662 0
M  V30 873 H 88.6048 0.75284 4.09436 0
M  V30 874 H 89.1378 2.24563 3.28354 0
M  V30 875 H 85.8768 5.13813 4.07033 0
M  V30 876 H 85.3968 3.59083 4.80437 0
M  V30 877 H 87.0758 4.1673 4.94919 0
M  V30 878 N 87.2079 -1.17134 1.05439 0
M  V30 879 C 88.1179 -2.24878 0.668365 0
M  V30 880 C 89.1339 -1.71186 -0.311687 0
M  V30 881 O 90.3099 -2.00738 -0.163161 0
M  V30 882 C 87.3749 -3.46662 0.051648 0
M  V30 883 C 86.4359 -4.15429 1.08246 0
M  V30 884 C 85.6689 -5.31399 0.495082 0
M  V30 885 O 85.8919 -5.66153 -0.694743 0
M  V30 886 O 84.8259 -5.89187 1.23056 0
M  V30 887 H 88.6519 -2.60189 1.56637 0
M  V30 888 H 86.2369 -1.24482 0.826104 0
M  V30 889 H 88.1189 -4.20394 -0.290966 0
M  V30 890 H 86.7939 -3.13142 -0.819971 0
M  V30 891 H 85.7009 -3.43704 1.47711 0
M  V30 892 H 87.0339 -4.52982 1.92532 0
M  V30 893 N 88.686 -0.835752 -1.33615 0
M  V30 894 C 89.933 -0.429959 -1.97883 0
M  V30 895 C 90.261 1.01006 -1.66217 0
M  V30 896 O 89.516 1.72047 -0.93265 0
M  V30 897 C 89.815 -0.593925 -3.52431 0
M  V30 898 C 89.481 -2.00158 -4.04039 0
M  V30 899 C 88.143 -2.38662 -4.17844 0
M  V30 900 C 90.495 -2.92117 -4.31644 0
M  V30 901 C 87.823 -3.68435 -4.56588 0
M  V30 902 C 90.175 -4.21368 -4.71838 0
M  V30 903 C 88.839 -4.59833 -4.83849 0
M  V30 904 H 88.109 -0.157333 -0.724104 0
M  V30 905 H 90.756 -1.06217 -1.59343 0
M  V30 906 H 89.061 0.121619 -3.91611 0
M  V30 907 H 90.758 -0.260282 -4.00154 0
M  V30 908 H 87.348 -1.69252 -3.93766 0
M  V30 909 H 91.532 -2.63608 -4.20505 0
M  V30 910 H 86.788 -3.98046 -4.64079 0
M  V30 911 H 90.962 -4.92703 -4.92155 0
M  V30 912 H 88.589 -5.60438 -5.13627 0
M  V30 913 N 90.1641 1.46063 -0.591896 0
M  V30 914 C 91.1121 2.32124 0.148739 0
M  V30 915 C 92.1061 1.45035 0.875286 0
M  V30 916 O 93.3121 1.61609 0.792632 0
M  V30 917 H 89.6871 0.749024 0.066832 0
M  V30 918 H 91.6581 2.92392 -0.595783 0
M  V30 919 C 90.4071 3.28373 1.1431 0
M  V30 920 H 89.7301 3.95371 0.59346 0
M  V30 921 H 91.1701 3.91352 1.63155 0
M  V30 922 C 89.6291 2.54393 2.20875 0
M  V30 923 O 90.1591 2.31373 3.28374 0
M  V30 924 N 88.3651 2.14797 1.95731 0
M  V30 925 H 87.9121 2.33719 1.08319 0
M  V30 926 H 87.8701 1.65619 2.67241 0
M  V30 927 N 91.6422 0.330177 1.54103 0
M  V30 928 C 92.5892 -0.532762 2.24567 0
M  V30 929 C 93.5592 -1.10635 1.23892 0
M  V30 930 O 94.7442 -1.14546 1.5259 0
M  V30 931 C 91.8842 -1.6845 3.01195 0
M  V30 932 C 90.9972 -1.13951 4.167 0
M  V30 933 C 90.1322 -2.25746 4.80845 0
M  V30 934 C 89.1712 -1.6853 5.88442 0
M  V30 935 N 88.3082 -2.74014 6.46421 0
M  V30 936 H 93.1482 0.0746905 2.97906 0
M  V30 937 H 90.6852 0.048632 1.4702 0
M  V30 938 H 92.6432 -2.36234 3.43874 0
M  V30 939 H 91.2732 -2.26314 2.30178 0
M  V30 940 H 90.3252 -0.35301 3.78758 0
M  V30 941 H 91.6372 -0.680892 4.94131 0
M  V30 942 H 90.7912 -3.01422 5.26526 0
M  V30 943 H 89.5302 -2.74947 4.0281 0
M  V30 944 H 88.5352 -0.913543 5.42157 0
M  V30 945 H 89.7602 -1.20198 6.68378 0
M  V30 946 H 87.7062 -3.22494 5.71256 0
M  V30 947 H 87.6232 -2.32735 7.19285 0
M  V30 948 H 88.8912 -3.49499 6.96757 0
M  V30 949 N 93.1203 -1.57491 0.0584922 0
M  V30 950 C 94.3973 -1.84346 -0.653918 0
M  V30 951 C 94.7773 -0.948355 -1.88599 0
M  V30 952 O 94.1253 -0.0112403 -2.28497 0
M  V30 953 C 94.3353 -3.34239 -1.00425 0
M  V30 954 C 95.6833 -4.01431 -1.38342 0
M  V30 955 O 96.7073 -3.38907 -1.09637 0
M  V30 956 O 95.5663 -5.11683 -1.91943 0
M  V30 957 H 92.6603 -0.761112 -0.323478 0
M  V30 958 H 95.2063 -1.6947 0.0884125 0
M  V30 959 H 93.9783 -3.91089 -0.128625 0
M  V30 960 H 93.6013 -3.54329 -1.80378 0
M  V30 961 N 94.5984 0.214957 -1.56127 0
M  V30 962 C 95.5304 1.29004 -1.89448 0
M  V30 963 C 96.5434 1.42716 -0.783326 0
M  V30 964 O 97.7324 1.43496 -1.06166 0
M  V30 965 C 94.8324 2.66482 -2.09381 0
M  V30 966 C 94.0054 2.74633 -3.40434 0
M  V30 967 C 93.0644 3.9317 -3.49719 0
M  V30 968 O 92.0904 3.812 -4.227 0
M  V30 969 N 93.2924 5.07765 -2.81346 0
M  V30 970 H 96.0574 1.00743 -2.82261 0
M  V30 971 H 93.6184 0.40497 -1.56753 0
M  V30 972 H 95.6104 3.44173 -2.12901 0
M  V30 973 H 94.1804 2.87314 -1.23163 0
M  V30 974 H 93.4004 1.83368 -3.48955 0
M  V30 975 H 94.6884 2.77054 -4.26754 0
M  V30 976 H 94.0864 5.20386 -2.21843 0
M  V30 977 H 92.6434 5.83474 -2.90519 0
M  V30 978 N 96.0765 1.50051 0.48192 0
M  V30 979 C 97.0065 1.71046 1.58951 0
M  V30 980 C 97.9875 0.559288 1.60642 0
M  V30 981 O 99.1725 0.797243 1.77081 0
M  V30 982 C 96.3025 1.79462 2.97339 0
M  V30 983 C 95.2565 2.94558 3.10515 0
M  V30 984 C 94.5825 2.88105 4.50444 0
M  V30 985 C 95.8825 4.35227 2.88747 0
M  V30 986 H 97.5765 2.6378 1.41635 0
M  V30 987 H 95.1225 1.26936 0.679942 0
M  V30 988 H 97.0755 1.92734 3.74742 0
M  V30 989 H 95.7995 0.833412 3.15788 0
M  V30 990 H 94.4585 2.80918 2.35543 0
M  V30 991 H 94.1065 1.89853 4.65795 0
M  V30 992 H 93.8065 3.65366 4.60197 0
M  V30 993 H 95.3305 3.03412 5.29881 0
M  V30 994 H 96.7445 4.49449 3.55905 0
M  V30 995 H 95.1415 5.13856 3.09955 0
M  V30 996 H 96.2115 4.48347 1.84696 0
M  V30 997 N 97.5546 -0.734337 1.39446 0
M  V30 998 C 98.4646 -1.87879 1.40495 0
M  V30 999 C 99.4806 -1.714 0.299672 0
M  V30 1000 O 100.657 -1.93991 0.541249 0
M  V30 1001 C 97.7216 -3.23477 1.24754 0
M  V30 1002 C 96.7826 -3.52344 2.45259 0
M  V30 1003 C 96.0156 -4.81473 2.30259 0
M  V30 1004 O 96.2386 -5.55237 1.30643 0
M  V30 1005 O 95.1726 -5.10254 3.19256 0
M  V30 1006 H 98.9986 -1.89949 2.36966 0
M  V30 1007 H 96.5836 -0.882243 1.20569 0
M  V30 1008 H 98.4656 -4.04509 1.18111 0
M  V30 1009 H 97.1406 -3.22176 0.313781 0
M  V30 1010 H 96.0476 -2.71396 2.57478 0
M  V30 1011 H 97.3806 -3.58426 3.37331 0
M  V30 1012 N 99.0327 -1.24633 -0.964593 0
M  V30 1013 C 99.9427 -1.05859 -2.09359 0
M  V30 1014 C 100.959 0.00148855 -1.74 0
M  V30 1015 O 102.135 -0.197346 -2.00431 0
M  V30 1016 C 99.1997 -0.668879 -3.40187 0
M  V30 1017 C 98.2607 -1.80578 -3.89474 0
M  V30 1018 C 97.4937 -1.43457 -5.14058 0
M  V30 1019 O 97.7167 -0.325775 -5.69469 0
M  V30 1020 O 96.6507 -2.2613 -5.57807 0
M  V30 1021 H 100.477 -2.00516 -2.28094 0
M  V30 1022 H 98.0617 -1.03481 -1.0776 0
M  V30 1023 H 99.9437 -0.463211 -4.18846 0
M  V30 1024 H 98.6187 0.248536 -3.22744 0
M  V30 1025 H 97.5257 -2.06623 -3.11862 0
M  V30 1026 H 98.8587 -2.70208 -4.11398 0
M  V30 1027 N 100.511 1.16574 -1.06058 0
M  V30 1028 C 101.758 1.87047 -0.775873 0
M  V30 1029 C 102.086 1.81562 0.697534 0
M  V30 1030 O 101.341 1.22445 1.52662 0
M  V30 1031 C 101.64 3.36195 -1.21275 0
M  V30 1032 C 101.306 3.6188 -2.68986 0
M  V30 1033 C 99.9678 3.68599 -3.09335 0
M  V30 1034 C 102.32 3.72648 -3.64394 0
M  V30 1035 C 99.6478 3.83584 -4.43937 0
M  V30 1036 C 102 3.89154 -4.98741 0
M  V30 1037 C 100.664 3.94114 -5.3873 0
M  V30 1038 H 99.9338 0.684452 -0.283912 0
M  V30 1039 H 102.581 1.37853 -1.32925 0
M  V30 1040 H 100.886 3.87505 -0.578528 0
M  V30 1041 H 102.583 3.89103 -0.969542 0
M  V30 1042 H 99.1728 3.57281 -2.36744 0
M  V30 1043 H 103.357 3.66769 -3.34356 0
M  V30 1044 H 98.6128 3.85677 -4.74409 0
M  V30 1045 H 102.787 3.96427 -5.72554 0
M  V30 1046 H 100.414 4.05478 -6.43033 0
M  V30 1047 N 101.989 0.842826 1.3317 0
M  V30 1048 C 102.936 0.276885 2.29133 0
M  V30 1049 C 103.906 -0.609527 1.54512 0
M  V30 1050 O 105.091 -0.546955 1.82792 0
M  V30 1051 C 102.231 -0.538707 3.40869 0
M  V30 1052 C 101.344 0.372169 4.30394 0
M  V30 1053 C 100.479 -0.454908 5.29249 0
M  V30 1054 C 99.5179 0.45411 6.10413 0
M  V30 1055 N 98.6549 -0.335075 7.013 0
M  V30 1056 H 103.495 1.10052 2.76934 0
M  V30 1057 H 101.032 0.554161 1.36262 0
M  V30 1058 H 102.99 -1.02709 4.0436 0
M  V30 1059 H 101.62 -1.32727 2.9425 0
M  V30 1060 H 100.672 0.97888 3.6759 0
M  V30 1061 H 101.984 1.0703 4.87182 0
M  V30 1062 H 101.138 -1.00695 5.98285 0
M  V30 1063 H 99.8769 -1.18646 4.73048 0
M  V30 1064 H 98.8819 1.01813 5.40291 0
M  V30 1065 H 100.107 1.18409 6.68697 0
M  V30 1066 H 98.0529 -1.04994 6.47543 0
M  V30 1067 H 97.9699 0.304262 7.55387 0
M  V30 1068 H 99.2379 -0.869224 7.74638 0
M  V30 1069 N 103.467 -1.45747 0.599634 0
M  V30 1070 C 104.377 -2.34262 -0.125888 0
M  V30 1071 C 105.393 -1.50768 -0.868625 0
M  V30 1072 O 106.569 -1.83592 -0.828003 0
M  V30 1073 C 103.634 -3.28252 -1.11587 0
M  V30 1074 C 102.695 -4.27651 -0.375956 0
M  V30 1075 C 101.928 -5.1715 -1.31877 0
M  V30 1076 O 102.151 -5.09916 -2.55621 0
M  V30 1077 O 101.085 -5.96286 -0.820157 0
M  V30 1078 H 104.911 -2.97688 0.601315 0
M  V30 1079 H 102.496 -1.44999 0.359934 0
M  V30 1080 H 104.378 -3.86191 -1.68626 0
M  V30 1081 H 103.053 -2.67401 -1.82424 0
M  V30 1082 H 101.96 -3.7335 0.236698 0
M  V30 1083 H 103.293 -4.91334 0.29177 0
M  V30 1084 N 104.945 -0.338344 -1.53925 0
M  V30 1085 C 105.908 0.508299 -2.23493 0
M  V30 1086 C 106.908 1.03175 -1.23335 0
M  V30 1087 O 108.098 0.921826 -1.47811 0
M  V30 1088 C 105.23 1.70754 -2.95052 0
M  V30 1089 H 106.423 -0.100058 -2.99733 0
M  V30 1090 H 103.976 -0.0896198 -1.56043 0
M  V30 1091 H 104.711 2.35474 -2.22986 0
M  V30 1092 H 104.496 1.33946 -3.68512 0
M  V30 1093 H 105.986 2.30818 -3.48013 0
M  V30 1094 N 106.423 1.57458 -0.0668435 0
M  V30 1095 C 107.67 1.93301 0.603406 0
M  V30 1096 C 107.998 0.946486 1.69917 0
M  V30 1097 O 107.253 -0.0387021 1.95662 0
M  V30 1098 C 107.552 3.35784 1.22409 0
M  V30 1099 C 107.218 4.50179 0.254955 0
M  V30 1100 C 105.88 4.81199 -0.0116746 0
M  V30 1101 C 108.232 5.19598 -0.408338 0
M  V30 1102 C 105.56 5.78978 -0.94877 0
M  V30 1103 C 107.912 6.18381 -1.33372 0
M  V30 1104 C 106.576 6.47821 -1.60887 0
M  V30 1105 H 105.846 0.707338 0.220802 0
M  V30 1106 H 108.493 1.91012 -0.136665 0
M  V30 1107 H 106.798 3.34515 2.03978 0
M  V30 1108 H 108.495 3.60804 1.74989 0
M  V30 1109 H 105.085 4.25983 0.472954 0
M  V30 1110 H 109.269 4.95832 -0.215456 0
M  V30 1111 H 104.525 6.00115 -1.16925 0
M  V30 1112 H 108.699 6.71277 -1.85367 0
M  V30 1113 H 106.326 7.23399 -2.33661 0
M  V30 1114 N 107.901 -0.206675 1.56239 0
M  V30 1115 C 108.811 -1.27686 1.96808 0
M  V30 1116 C 109.827 -1.50455 0.874035 0
M  V30 1117 O 111.003 -1.63295 1.17884 0
M  V30 1118 C 108.068 -2.60358 2.28942 0
M  V30 1119 C 107.129 -2.45762 3.51994 0
M  V30 1120 C 106.362 -3.72108 3.82585 0
M  V30 1121 O 106.585 -4.75776 3.14631 0
M  V30 1122 O 105.519 -3.6833 4.76043 0
M  V30 1123 H 109.345 -0.962593 2.88041 0
M  V30 1124 H 106.93 -0.410746 1.43643 0
M  V30 1125 H 108.812 -3.38687 2.50737 0
M  V30 1126 H 107.487 -2.91435 1.4088 0
M  V30 1127 H 106.394 -1.65584 3.35459 0
M  V30 1128 H 107.727 -2.19621 4.40486 0
M  V30 1129 N 109.379 -1.50304 -0.473955 0
M  V30 1130 C 110.309 -1.71886 -1.58042 0
M  V30 1131 C 111.29 -0.567799 -1.60344 0
M  V30 1132 O 112.475 -0.806623 -1.76656 0
M  V30 1133 C 109.605 -1.81036 -2.96384 0
M  V30 1134 C 108.559 -2.962 -3.08949 0
M  V30 1135 C 107.885 -2.9049 -4.48909 0
M  V30 1136 C 109.185 -4.36752 -2.86434 0
M  V30 1137 H 110.879 -2.64527 -1.40234 0
M  V30 1138 H 108.425 -1.27295 -0.673201 0
M  V30 1139 H 110.378 -1.94719 -3.73714 0
M  V30 1140 H 109.102 -0.850147 -3.15341 0
M  V30 1141 H 107.761 -2.82164 -2.3405 0
M  V30 1142 H 107.409 -1.92321 -4.64781 0
M  V30 1143 H 107.109 -3.67802 -4.58253 0
M  V30 1144 H 108.633 -3.06218 -5.28264 0
M  V30 1145 H 110.047 -4.5133 -3.53517 0
M  V30 1146 H 108.444 -5.15493 -3.07225 0
M  V30 1147 H 109.514 -4.49321 -1.82316 0
M  V30 1148 N 110.857 0.726932 -1.39834 0
M  V30 1149 C 112.104 1.48664 -1.37496 0
M  V30 1150 C 112.432 1.94482 0.0264678 0
M  V30 1151 O 111.687 1.67692 1.00886 0
M  V30 1152 C 111.986 2.73495 -2.30077 0
M  V30 1153 C 111.652 2.46502 -3.77555 0
M  V30 1154 C 110.314 2.3885 -4.17737 0
M  V30 1155 C 112.666 2.23604 -4.70798 0
M  V30 1156 C 109.994 2.06352 -5.49214 0
M  V30 1157 C 112.346 1.92622 -6.02561 0
M  V30 1158 C 111.01 1.83444 -6.41798 0
M  V30 1159 H 110.28 0.544001 -0.503135 0
M  V30 1160 H 112.927 0.833657 -1.72402 0
M  V30 1161 H 111.232 3.43575 -1.88317 0
M  V30 1162 H 112.929 3.31549 -2.25558 0
M  V30 1163 H 109.519 2.5334 -3.45712 0
M  V30 1164 H 113.703 2.28479 -4.40581 0
M  V30 1165 H 108.959 1.97776 -5.78528 0
M  V30 1166 H 113.133 1.73914 -6.74334 0
M  V30 1167 H 110.76 1.58029 -7.43593 0
M  V30 1168 N 112.336 1.25143 0.95797 0
M  V30 1169 C 113.613 1.00472 1.67823 0
M  V30 1170 C 113.993 -0.470056 2.058 0
M  V30 1171 O 113.341 -1.44663 1.76875 0
M  V30 1172 C 113.551 1.9372 2.90299 0
M  V30 1173 C 114.899 2.21371 3.62326 0
M  V30 1174 O 115.923 1.91451 3.00375 0
M  V30 1175 O 114.782 2.72231 4.7387 0
M  V30 1176 H 111.876 0.380752 0.734137 0
M  V30 1177 H 114.422 1.36283 1.01119 0
M  V30 1178 H 113.194 2.93316 2.59001 0
M  V30 1179 H 112.817 1.58286 3.64735 0
M  V30 1180 N 113.814 -1.1601 1.06675 0
M  V30 1181 C 115.23 -1.38622 0.790948 0
M  V30 1182 C 115.43 -1.92109 -0.607965 0
M  V30 1183 O 114.486 -2.12239 -1.36787 0
M  V30 1184 C 115.799 -2.36347 1.85905 0
M  V30 1185 C 117.347 -2.50023 1.88301 0
M  V30 1186 C 117.822 -3.51033 2.94176 0
M  V30 1187 N 119.313 -3.58563 2.93235 0
M  V30 1188 C 120.048 -4.36521 3.71803 0
M  V30 1189 N 119.544 -5.17869 4.602 0
M  V30 1190 N 121.337 -4.31541 3.60178 0
M  V30 1191 H 113.488 -0.796294 1.96908 0
M  V30 1192 H 115.751 -0.412597 0.853503 0
M  V30 1193 H 115.457 -2.04147 2.86386 0
M  V30 1194 H 115.331 -3.36042 1.71334 0
M  V30 1195 H 117.718 -2.81524 0.884769 0
M  V30 1196 H 117.799 -1.5035 2.06951 0
M  V30 1197 H 117.443 -3.20268 3.94196 0
M  V30 1198 H 117.373 -4.50445 2.72776 0
M  V30 1199 H 119.864 -3.00496 2.29152 0
M  V30 1200 H 120.177 -5.74578 5.16797 0
M  V30 1201 H 118.522 -5.17199 4.64253 0
M  V30 1202 H 121.713 -3.67051 2.90502 0
M  V30 1203 H 121.886 -4.9205 4.21653 0
M  V30 1204 N 115.292 -0.849877 -1.32721 0
M  V30 1205 C 116.538 -0.451591 -1.97708 0
M  V30 1206 C 116.871 0.989175 -1.6712 0
M  V30 1207 O 116.146 1.69334 -0.956891 0
M  V30 1208 C 116.429 -0.685598 -3.53513 0
M  V30 1209 C 116.282 -2.17444 -3.93749 0
M  V30 1210 C 117.601 -0.138874 -4.39881 0
M  V30 1211 H 114.72 -0.16555 -0.718166 0
M  V30 1212 H 117.362 -1.06742 -1.57182 0
M  V30 1213 H 115.512 -0.161416 -3.88165 0
M  V30 1214 H 117.184 -2.76433 -3.693 0
M  V30 1215 H 115.427 -2.65476 -3.43081 0
M  V30 1216 H 116.098 -2.28888 -5.02309 0
M  V30 1217 H 118.574 -0.587068 -4.11938 0
M  V30 1218 H 117.45 -0.332213 -5.47894 0
M  V30 1219 H 117.711 0.95806 -4.31594 0
M  V30 1220 N 116.77 1.45427 -0.607355 0
M  V30 1221 C 118.018 2.01841 -0.102253 0
M  V30 1222 C 118.339 1.47832 1.27164 0
M  V30 1223 O 117.609 0.672497 1.83995 0
M  V30 1224 H 116.189 0.746188 -0.0348101 0
M  V30 1225 H 118.851 1.78229 -0.7887 0
M  V30 1226 H 117.947 3.12057 -0.0518585 0
M  V30 1227 N 118.248 0.346503 1.53744 0
M  V30 1228 C 119.525 -0.304532 1.93215 0
M  V30 1229 C 119.905 -1.67993 1.27834 0
M  V30 1230 O 119.253 -2.24411 0.430352 0
M  V30 1231 C 119.463 -0.373852 3.46992 0
M  V30 1232 C 120.811 -0.62329 4.2 0
M  V30 1233 O 121.835 -0.455847 3.53271 0
M  V30 1234 O 120.694 -0.947879 5.38217 0
M  V30 1235 H 117.788 -0.178318 0.807547 0
M  V30 1236 H 120.334 0.397895 1.64969 0
M  V30 1237 H 119.106 0.591224 3.86808 0
M  V30 1238 H 118.729 -1.12294 3.81413 0
M  V30 1239 N 119.726 -1.57421 0.075193 0
M  V30 1240 C 120.974 -1.93236 -0.591974 0
M  V30 1241 C 121.295 -0.956241 -1.69944 0
M  V30 1242 O 120.565 -0.00494792 -1.95899 0
M  V30 1243 H 119.145 -0.713355 -0.22166 0
M  V30 1244 H 121.807 -1.9444 0.133848 0
M  V30 1245 H 120.903 -2.95131 -1.01509 0
M  V30 1246 N 121.204 0.198386 -1.56346 0
M  V30 1247 C 122.151 1.24589 -1.94284 0
M  V30 1248 C 123.121 1.454 -0.802997 0
M  V30 1249 O 124.306 1.58588 -1.06087 0
M  V30 1250 C 121.446 2.58631 -2.28482 0
M  V30 1251 C 120.559 2.45426 -3.55514 0
M  V30 1252 C 119.694 3.7215 -3.79049 0
M  V30 1253 C 118.733 3.53763 -4.99518 0
M  V30 1254 N 117.87 4.72491 -5.19323 0
M  V30 1255 H 122.71 0.915356 -2.83593 0
M  V30 1256 H 120.247 0.440629 -1.40346 0
M  V30 1257 H 122.205 3.3672 -2.46324 0
M  V30 1258 H 120.835 2.89734 -1.42317 0
M  V30 1259 H 119.887 1.58652 -3.45737 0
M  V30 1260 H 121.199 2.27772 -4.43758 0
M  V30 1261 H 120.353 4.58679 -3.97113 0
M  V30 1262 H 119.092 3.92754 -2.89129 0
M  V30 1263 H 118.097 2.65619 -4.8138 0
M  V30 1264 H 119.322 3.34607 -5.90944 0
M  V30 1265 H 117.268 4.93365 -4.3235 0
M  V30 1266 H 117.185 4.5765 -6.01741 0
M  V30 1267 H 118.453 5.6038 -5.41843 0
M  V30 1268 N 122.682 1.50554 0.465978 0
M  V30 1269 C 123.931 1.61038 1.21448 0
M  V30 1270 C 124.244 0.31865 1.92987 0
M  V30 1271 O 125.45 0.302469 2.6981 0
M  V30 1272 C 123.906 2.84283 2.20706 0
M  V30 1273 C 123.514 4.20352 1.54946 0
M  V30 1274 C 125.258 3.04115 2.96166 0
M  V30 1275 C 123.165 5.34778 2.5252 0
M  V30 1276 H 122.095 0.599718 0.457005 0
M  V30 1277 H 124.746 1.7699 0.484424 0
M  V30 1278 H 123.128 2.61901 2.97025 0
M  V30 1279 H 124.302 4.53008 0.843811 0
M  V30 1280 H 122.617 4.06167 0.917475 0
M  V30 1281 H 125.214 3.86774 3.69202 0
M  V30 1282 H 125.557 2.16045 3.55852 0
M  V30 1283 H 126.09 3.26702 2.26959 0
M  V30 1284 H 122.829 6.25018 1.97566 0
M  V30 1285 H 122.349 5.06534 3.21222 0
M  V30 1286 H 124.028 5.65561 3.14245 0
M  V30 1287 N 124.16 -0.719506 1.40217 0
M  V30 1288 C 125.09 -1.8465 1.42922 0
M  V30 1289 C 126.071 -1.67599 0.29062 0
M  V30 1290 O 127.256 -1.87688 0.498677 0
M  V30 1291 C 124.386 -3.22565 1.28722 0
M  V30 1292 C 123.34 -3.54281 2.40144 0
M  V30 1293 C 122.666 -4.91298 2.11023 0
M  V30 1294 C 123.966 -3.55676 3.82481 0
M  V30 1295 H 125.66 -1.82644 2.37237 0
M  V30 1296 H 123.206 -0.877305 1.1419 0
M  V30 1297 H 125.159 -4.01095 1.29232 0
M  V30 1298 H 123.883 -3.25137 0.308811 0
M  V30 1299 H 122.542 -2.78088 2.38877 0
M  V30 1300 H 122.19 -4.90468 1.11582 0
M  V30 1301 H 121.89 -5.13485 2.8567 0
M  V30 1302 H 123.414 -5.72166 2.13209 0
M  V30 1303 H 124.828 -4.24254 3.85592 0
M  V30 1304 H 123.225 -3.89388 4.56614 0
M  V30 1305 H 124.295 -2.55144 4.12346 0
M  V30 1306 N 125.638 -1.25649 -0.95132 0
M  V30 1307 C 126.868 -1.13179 -1.72841 0
M  V30 1308 C 127.276 0.316827 -1.86528 0
M  V30 1309 O 126.619 1.22948 -1.3649 0
M  V30 1310 C 126.681 -1.71644 -3.15878 0
M  V30 1311 C 126.345 -3.20667 -3.25609 0
M  V30 1312 C 127.342 -4.17616 -3.09666 0
M  V30 1313 C 125.027 -3.6094 -3.49324 0
M  V30 1314 C 127.021 -5.52817 -3.17289 0
M  V30 1315 C 124.708 -4.96278 -3.56584 0
M  V30 1316 C 125.706 -5.92025 -3.40581 0
M  V30 1317 O 125.394 -7.24899 -3.47528 0
M  V30 1318 H 125.126 -0.395389 -0.54831 0
M  V30 1319 H 127.68 -1.66566 -1.20187 0
M  V30 1320 H 125.91 -1.12707 -3.69911 0
M  V30 1321 H 127.599 -1.54225 -3.75459 0
M  V30 1322 H 128.365 -3.87842 -2.91211 0
M  V30 1323 H 124.244 -2.86907 -3.6084 0
M  V30 1324 H 127.788 -6.2753 -3.04716 0
M  V30 1325 H 123.685 -5.25716 -3.74556 0
M  V30 1326 H 124.453 -7.33039 -3.64138 0
M  V30 1327 N 127.117 1.15442 -1.07289 0
M  V30 1328 C 128.342 1.90638 -0.816828 0
M  V30 1329 C 128.767 1.77445 0.624083 0
M  V30 1330 O 128.125 1.10671 1.43602 0
M  V30 1331 C 128.173 3.39008 -1.22906 0
M  V30 1332 O 127.277 4.10701 -0.373975 0
M  V30 1333 H 126.618 0.593555 -0.297638 0
M  V30 1334 H 129.148 1.46198 -1.43134 0
M  V30 1335 H 129.158 3.89801 -1.20497 0
M  V30 1336 H 127.833 3.47929 -2.27856 0
M  V30 1337 H 126.41 3.70046 -0.460499 0
M  V30 1338 N 128.595 0.856903 1.32268 0
M  V30 1339 C 129.527 0.260412 2.27716 0
M  V30 1340 C 130.54 -0.569137 1.52528 0
M  V30 1341 O 131.729 -0.39326 1.74114 0
M  V30 1342 C 128.829 -0.650477 3.32599 0
M  V30 1343 C 128.002 0.14372 4.37164 0
M  V30 1344 C 127.061 -0.69328 5.21613 0
M  V30 1345 O 126.087 -0.12599 5.69061 0
M  V30 1346 N 127.289 -2.00761 5.44679 0
M  V30 1347 H 130.054 1.08059 2.79541 0
M  V30 1348 H 127.615 0.717103 1.45152 0
M  V30 1349 H 129.607 -1.21581 3.86005 0
M  V30 1350 H 128.177 -1.37133 2.80915 0
M  V30 1351 H 127.397 0.890486 3.8401 0
M  V30 1352 H 128.685 0.68915 5.04111 0
M  V30 1353 H 128.083 -2.49181 5.07863 0
M  V30 1354 H 126.64 -2.52103 6.01072 0
M  V30 1355 N 130.073 -1.45103 0.615059 0
M  V30 1356 C 131.313 -2.04069 0.116282 0
M  V30 1357 C 131.677 -1.4721 -1.2326 0
M  V30 1358 O 132.878 -1.97577 -1.82255 0
M  V30 1359 C 131.149 -3.57298 0.085482 0
M  V30 1360 S 132.708 -4.37394 -0.351015 0
M  V30 1361 H 129.526 -0.709006 0.0532183 0
M  V30 1362 H 132.128 -1.77709 0.81484 0
M  V30 1363 H 130.832 -3.9619 1.0706 0
M  V30 1364 H 130.363 -3.88244 -0.634835 0
M  V30 1365 H 132.378 -4.69734 -1.59889 0
M  V30 1366 N 131.551 -0.354651 -1.53558 0
M  V30 1367 C 132.799 0.237972 -2.00694 0
M  V30 1368 C 133.12 1.50173 -1.24391 0
M  V30 1369 O 132.39 1.92673 -0.354135 0
M  V30 1370 H 130.97 0.0909256 -0.741446 0
M  V30 1371 H 133.632 -0.478368 -1.88938 0
M  V30 1372 H 132.728 0.47264 -3.085 0
M  V30 1373 N 133.029 1.57378 -0.0835403 0
M  V30 1374 C 134.306 1.85363 0.624507 0
M  V30 1375 C 134.686 0.978239 1.87066 0
M  V30 1376 O 134.034 0.0475908 2.2845 0
M  V30 1377 C 134.244 3.35795 0.950947 0
M  V30 1378 C 135.592 4.03581 1.31939 0
M  V30 1379 O 136.616 3.40609 1.04232 0
M  V30 1380 O 135.475 5.14672 1.83779 0
M  V30 1381 H 132.569 0.766162 0.311329 0
M  V30 1382 H 135.115 1.69307 -0.115362 0
M  V30 1383 H 133.887 3.91244 0.0663899 0
M  V30 1384 H 133.51 3.57154 1.74719 0
M  V30 1385 N 134.507 -0.190092 1.56449 0
M  V30 1386 C 135.753 -0.911052 1.81184 0
M  V30 1387 C 136.086 -1.82699 0.658396 0
M  V30 1388 O 135.361 -1.91491 -0.340775 0
M  V30 1389 C 135.644 -1.72297 3.16205 0
M  V30 1390 C 135.497 -0.831419 4.42049 0
M  V30 1391 C 136.816 -2.69454 3.47969 0
M  V30 1392 H 133.935 -0.32977 0.659106 0
M  V30 1393 H 136.577 -0.178169 1.89163 0
M  V30 1394 H 134.727 -2.34778 3.09534 0
M  V30 1395 H 136.399 -0.220929 4.60771 0
M  V30 1396 H 134.642 -0.138406 4.33579 0
M  V30 1397 H 135.313 -1.43461 5.33032 0
M  V30 1398 H 137.789 -2.17104 3.54972 0
M  V30 1399 H 136.665 -3.23342 4.43555 0
M  V30 1400 H 136.926 -3.48744 2.71717 0
M  V30 1401 N 135.985 -1.50799 -0.457987 0
M  V30 1402 C 136.918 -1.65273 -1.57353 0
M  V30 1403 C 137.896 -0.500578 -1.54703 0
M  V30 1404 O 139.08 -0.721781 -1.74134 0
M  V30 1405 C 136.207 -1.64737 -2.95938 0
M  V30 1406 C 135.253 -2.8567 -3.16693 0
M  V30 1407 S 136.086 -4.46791 -2.95191 0
M  V30 1408 C 137.242 -4.48968 -4.36095 0
M  V30 1409 H 137.475 -2.59633 -1.44838 0
M  V30 1410 H 135.008 -1.40225 -0.64625 0
M  V30 1411 H 136.966 -1.65112 -3.7583 0
M  V30 1412 H 135.627 -0.715899 -3.05833 0
M  V30 1413 H 134.82 -2.81637 -4.17967 0
M  V30 1414 H 134.422 -2.8293 -2.44594 0
M  V30 1415 H 136.714 -4.23337 -5.28954 0
M  V30 1416 H 137.657 -5.50664 -4.45168 0
M  V30 1417 H 138.065 -3.78522 -4.18786 0
M  V30 1418 N 137.463 0.71206 -1.40597 0
M  V30 1419 C 138.879 1.02058 -1.22704 0
M  V30 1420 C 139.079 2.01228 -0.104729 0
M  V30 1421 O 138.135 2.4674 0.53624 0
M  V30 1422 C 139.448 1.56094 -2.57012 0
M  V30 1423 C 140.996 1.6806 -2.64054 0
M  V30 1424 C 141.471 2.25501 -3.9864 0
M  V30 1425 N 142.962 2.32882 -4.004 0
M  V30 1426 C 143.697 2.78317 -5.01325 0
M  V30 1427 N 143.193 3.23478 -6.12645 0
M  V30 1428 N 144.986 2.77733 -4.88693 0
M  V30 1429 H 137.137 0.0547896 -2.12329 0
M  V30 1430 H 139.4 0.0869027 -0.944008 0
M  V30 1431 H 139.106 0.906865 -3.39807 0
M  V30 1432 H 138.98 2.54564 -2.78347 0
M  V30 1433 H 141.367 2.32583 -1.81629 0
M  V30 1434 H 141.448 0.681802 -2.46546 0
M  V30 1435 H 141.092 1.61598 -4.81506 0
M  V30 1436 H 141.022 3.26102 -4.13479 0
M  V30 1437 H 143.513 2.00991 -3.20017 0
M  V30 1438 H 143.826 3.56725 -6.85542 0
M  V30 1439 H 142.171 3.21429 -6.16205 0
M  V30 1440 H 145.362 2.4179 -4.00818 0
M  V30 1441 H 145.535 3.12826 -5.67489 0
M  V30 1442 N 138.941 1.26152 0.944643 0
M  V30 1443 C 139.904 1.07474 2.0244 0
M  V30 1444 C 140.904 0.0242064 1.60782 0
M  V30 1445 O 142.094 0.267302 1.72137 0
M  V30 1446 C 139.226 0.633956 3.34953 0
M  V30 1447 H 140.419 2.03336 2.20442 0
M  V30 1448 H 137.972 1.087 1.12312 0
M  V30 1449 H 138.707 -0.326811 3.22649 0
M  V30 1450 H 138.492 1.39247 3.66542 0
M  V30 1451 H 139.982 0.52501 4.14287 0
M  V30 1452 N 140.419 -1.14872 1.07899 0
M  V30 1453 C 141.349 -2.2193 0.725887 0
M  V30 1454 C 142.33 -1.67622 -0.28927 0
M  V30 1455 O 143.515 -1.93533 -0.160787 0
M  V30 1456 C 140.645 -3.47061 0.128856 0
M  V30 1457 C 139.599 -4.14363 1.07178 0
M  V30 1458 C 138.925 -5.33636 0.337229 0
M  V30 1459 C 140.225 -4.63492 2.40775 0
M  V30 1460 H 141.919 -2.51724 1.62097 0
M  V30 1461 H 139.465 -1.20991 0.780838 0
M  V30 1462 H 141.418 -4.21199 -0.130147 0
M  V30 1463 H 140.142 -3.16617 -0.80134 0
M  V30 1464 H 138.801 -3.42173 1.3158 0
M  V30 1465 H 138.449 -4.99449 -0.596606 0
M  V30 1466 H 138.149 -5.79609 0.965788 0
M  V30 1467 H 139.673 -6.10539 0.0861567 0
M  V30 1468 H 141.087 -5.2913 2.20669 0
M  V30 1469 H 139.484 -5.20148 2.99276 0
M  V30 1470 H 140.554 -3.78834 3.02676 0
M  V30 1471 N 141.898 -0.863906 -1.31812 0
M  V30 1472 C 143.146 -0.470904 -1.96537 0
M  V30 1473 C 143.467 0.978771 -1.68657 0
M  V30 1474 O 142.737 1.6853 -0.998717 0
M  V30 1475 H 141.317 -0.171148 -0.72713 0
M  V30 1476 H 143.979 -1.10236 -1.60729 0
M  V30 1477 H 143.075 -0.623616 -3.05806 0
M  V30 1478 N 143.376 1.44774 -0.622745 0
M  V30 1479 C 144.308 2.28856 0.125485 0
M  V30 1480 C 145.321 1.40811 0.817069 0
M  V30 1481 O 146.51 1.65044 0.679918 0
M  V30 1482 C 143.61 3.16963 1.19949 0
M  V30 1483 C 142.783 4.33374 0.592064 0
M  V30 1484 C 141.842 5.02577 1.55893 0
M  V30 1485 O 140.868 5.58873 1.07933 0
M  V30 1486 N 142.07 5.03256 2.89334 0
M  V30 1487 H 144.835 2.93713 -0.596068 0
M  V30 1488 H 142.396 1.55129 -0.463303 0
M  V30 1489 H 144.388 3.60123 1.84644 0
M  V30 1490 H 142.958 2.53913 1.82337 0
M  V30 1491 H 142.178 3.93509 -0.233322 0
M  V30 1492 H 143.466 5.08527 0.166738 0
M  V30 1493 H 142.864 4.58836 3.30887 0
M  V30 1494 H 141.421 5.50232 3.49412 0
M  V30 1495 N 144.854 0.36279 1.53368 0
M  V30 1496 C 145.802 -0.500155 2.27159 0
M  V30 1497 C 146.796 -1.08575 1.3003 0
M  V30 1498 O 148.002 -1.02927 1.47668 0
M  V30 1499 H 144.377 -0.180009 0.730138 0
M  V30 1500 H 146.348 0.14401 2.98052 0
M  V30 1501 C 145.097 -1.62937 3.07159 0
M  V30 1502 H 144.42 -1.18806 3.8174 0
M  V30 1503 H 145.86 -2.20795 3.61975 0
M  V30 1504 C 144.319 -2.57007 2.17829 0
M  V30 1505 O 144.849 -3.59752 1.78721 0
M  V30 1506 N 143.055 -2.26131 1.82518 0
M  V30 1507 H 142.602 -1.42616 2.14519 0
M  V30 1508 H 142.56 -2.89327 1.23034 0
M  V30 1509 N 146.332 -1.57332 0.0918853 0
M  V30 1510 C 147.743 -1.81496 -0.437739 0
M  V30 1511 C 148.094 -1.00727 -1.6837 0
M  V30 1512 O 147.219 -0.235694 -2.15113 0
M  V30 1513 C 147.814 -3.29197 -0.800939 0
M  V30 1514 C 146.373 -3.54136 -1.27532 0
M  V30 1515 C 145.52 -2.75979 -0.270392 0
M  V30 1516 H 148.471 -1.55494 0.317366 0
M  V30 1517 H 148.492 -3.42344 -1.66074 0
M  V30 1518 H 148.004 -3.87955 0.106078 0
M  V30 1519 H 146.105 -3.00705 -2.20016 0
M  V30 1520 H 146.218 -4.62792 -1.23938 0
M  V30 1521 H 144.582 -2.43349 -0.751872 0
M  V30 1522 H 145.365 -3.37484 0.629248 0
M  V30 1523 N 147.81 0.181792 -1.56548 0
M  V30 1524 C 149.038 0.915947 -1.85521 0
M  V30 1525 C 149.453 1.76282 -0.676016 0
M  V30 1526 O 148.81 1.79012 0.355077 0
M  V30 1527 C 148.861 1.80126 -3.13427 0
M  V30 1528 O 148.582 0.988562 -4.26801 0
M  V30 1529 C 150.083 2.64597 -3.55673 0
M  V30 1530 H 147.303 0.26661 -0.61576 0
M  V30 1531 H 149.847 0.185039 -2.03661 0
M  V30 1532 H 148.002 2.48563 -2.97145 0
M  V30 1533 H 148.416 1.59308 -4.99721 0
M  V30 1534 H 149.89 3.2235 -4.48101 0
M  V30 1535 H 150.367 3.38958 -2.79292 0
M  V30 1536 H 150.973 2.0151 -3.74532 0
M  V30 1537 N 149.288 1.51039 0.449983 0
M  V30 1538 C 150.236 1.71995 1.5659 0
M  V30 1539 C 151.23 0.586029 1.5894 0
M  V30 1540 O 152.436 0.76709 1.62837 0
M  V30 1541 H 148.811 0.543233 0.520001 0
M  V30 1542 H 150.782 2.65562 1.36085 0
M  V30 1543 C 149.531 1.8506 2.9436 0
M  V30 1544 H 148.854 2.71712 2.93279 0
M  V30 1545 H 150.294 2.0374 3.71842 0
M  V30 1546 C 148.753 0.607277 3.31382 0
M  V30 1547 O 149.283 -0.243903 4.00959 0
M  V30 1548 N 147.489 0.455073 2.87015 0
M  V30 1549 H 147.036 1.14879 2.30566 0
M  V30 1550 H 146.994 -0.375611 3.12148 0
M  V30 1551 N 150.766 -0.704594 1.40972 0
M  V30 1552 C 151.729 -1.80035 1.41845 0
M  V30 1553 C 152.729 -1.57774 0.310474 0
M  V30 1554 O 153.919 -1.64613 0.56992 0
M  V30 1555 C 151.051 -3.18284 1.22098 0
M  V30 1556 H 152.244 -1.80658 2.3938 0
M  V30 1557 H 149.797 -0.911329 1.26982 0
M  V30 1558 H 150.532 -3.23306 0.253672 0
M  V30 1559 H 150.317 -3.35843 2.02366 0
M  V30 1560 H 151.807 -3.98289 1.25522 0
M  V30 1561 N 152.244 -1.26651 -0.937939 0
M  V30 1562 C 153.154 -1.10276 -2.07066 0
M  V30 1563 C 154.17 -0.0354197 -1.73964 0
M  V30 1564 O 155.346 -0.239816 -1.99967 0
M  V30 1565 C 152.411 -0.740887 -3.38691 0
M  V30 1566 C 151.472 -1.88799 -3.85556 0
M  V30 1567 C 150.705 -1.54329 -5.10899 0
M  V30 1568 O 150.928 -0.446494 -5.6865 0
M  V30 1569 O 149.862 -2.37911 -5.52885 0
M  V30 1570 H 153.688 -2.05309 -2.23789 0
M  V30 1571 H 151.273 -1.05743 -1.0554 0
M  V30 1572 H 153.155 -0.55195 -4.1777 0
M  V30 1573 H 151.83 0.180022 -3.23199 0
M  V30 1574 H 150.737 -2.13191 -3.07409 0
M  V30 1575 H 152.07 -2.78874 -4.05574 0
M  V30 1576 N 153.722 1.14298 -1.08507 0
M  V30 1577 C 154.968 1.85633 -0.816581 0
M  V30 1578 C 155.301 1.82784 0.656021 0
M  V30 1579 O 154.576 1.25926 1.48233 0
M  V30 1580 C 154.859 3.34223 -1.34041 0
M  V30 1581 C 154.712 3.45639 -2.87843 0
M  V30 1582 C 156.031 4.29356 -0.9665 0
M  V30 1583 H 153.15 0.67402 -0.298104 0
M  V30 1584 H 155.792 1.34214 -1.34487 0
M  V30 1585 H 153.942 3.78144 -0.89104 0
M  V30 1586 H 155.614 3.10498 -3.41158 0
M  V30 1587 H 153.857 2.86817 -3.25451 0
M  V30 1588 H 154.528 4.50089 -3.19569 0
M  V30 1589 H 157.004 3.93457 -1.35391 0
M  V30 1590 H 155.88 5.3178 -1.3602 0
M  V30 1591 H 156.141 4.41919 0.126362 0
M  V30 1592 N 155.201 0.870884 1.31352 0
M  V30 1593 C 156.131 0.343096 2.30966 0
M  V30 1594 C 157.112 -0.566507 1.60389 0
M  V30 1595 O 158.297 -0.483336 1.88089 0
M  V30 1596 C 155.427 -0.455487 3.443 0
M  V30 1597 C 154.381 0.361103 4.26474 0
M  V30 1598 C 153.707 -0.563221 5.31725 0
M  V30 1599 C 155.007 1.59566 4.97329 0
M  V30 1600 H 156.701 1.17548 2.75359 0
M  V30 1601 H 154.247 0.566686 1.32381 0
M  V30 1602 H 156.2 -0.83525 4.13039 0
M  V30 1603 H 154.924 -1.32139 2.98675 0
M  V30 1604 H 153.583 0.722825 3.59403 0
M  V30 1605 H 153.231 -1.42643 4.82351 0
M  V30 1606 H 152.931 -0.0207409 5.87596 0
M  V30 1607 H 154.455 -0.939808 6.03324 0
M  V30 1608 H 155.869 1.28728 5.58661 0
M  V30 1609 H 154.266 2.07728 5.63 0
M  V30 1610 H 155.336 2.34798 4.24262 0
M  V30 1611 N 156.679 -1.44442 0.630414 0
M  V30 1612 C 157.626 -2.30678 -0.0749355 0
M  V30 1613 C 158.596 -1.4344 -0.837502 0
M  V30 1614 O 159.781 -1.72343 -0.818684 0
M  V30 1615 C 156.921 -3.28706 -1.05103 0
M  V30 1616 C 156.034 -4.31046 -0.286954 0
M  V30 1617 C 155.169 -5.16167 -1.2548 0
M  V30 1618 C 154.208 -6.10216 -0.479843 0
M  V30 1619 N 153.345 -6.88039 -1.39811 0
M  V30 1620 H 158.185 -2.90454 0.666386 0
M  V30 1621 H 155.722 -1.43107 0.340404 0
M  V30 1622 H 157.68 -3.84027 -1.63031 0
M  V30 1623 H 156.31 -2.70632 -1.75949 0
M  V30 1624 H 155.362 -3.78203 0.408243 0
M  V30 1625 H 156.674 -4.97794 0.316657 0
M  V30 1626 H 155.828 -5.76002 -1.90544 0
M  V30 1627 H 154.567 -4.49491 -1.89233 0
M  V30 1628 H 153.572 -5.49491 0.184295 0
M  V30 1629 H 154.797 -6.78928 0.152965 0
M  V30 1630 H 152.743 -6.24032 -2.02287 0
M  V30 1631 H 152.66 -7.51223 -0.848508 0
M  V30 1632 H 153.928 -7.52397 -2.03762 0
M  V30 1633 N 158.157 -0.370918 -1.53173 0
M  V30 1634 C 159.403 0.217423 -2.01631 0
M  V30 1635 C 159.736 1.47983 -1.25756 0
M  V30 1636 O 159.011 1.91274 -0.352764 0
M  V30 1637 C 159.294 0.503982 -3.56556 0
M  V30 1638 C 159.147 -0.77243 -4.43118 0
M  V30 1639 C 160.466 1.30234 -4.20389 0
M  V30 1640 H 157.585 0.0775486 -0.732909 0
M  V30 1641 H 160.227 -0.496863 -1.83388 0
M  V30 1642 H 158.377 1.11248 -3.72231 0
M  V30 1643 H 160.049 -1.4098 -4.39229 0
M  V30 1644 H 158.292 -1.39167 -4.10871 0
M  V30 1645 H 158.963 -0.526815 -5.4948 0
M  V30 1646 H 161.439 0.787546 -4.08579 0
M  V30 1647 H 160.315 1.47158 -5.28806 0
M  V30 1648 H 160.576 2.31237 -3.76805 0
M  V30 1649 N 159.635 1.57281 -0.100228 0
M  V30 1650 C 160.565 2.17328 0.853857 0
M  V30 1651 C 161.546 1.10804 1.2906 0
M  V30 1652 O 162.731 1.38963 1.35657 0
M  V30 1653 C 159.861 2.75772 2.11109 0
M  V30 1654 C 158.815 3.87713 1.81279 0
M  V30 1655 C 158.141 4.32882 3.13874 0
M  V30 1656 C 159.441 5.10677 1.09574 0
M  V30 1657 H 161.135 2.97305 0.353545 0
M  V30 1658 H 158.681 1.43009 0.168612 0
M  V30 1659 H 160.634 3.16433 2.78296 0
M  V30 1660 H 159.358 1.93057 2.63432 0
M  V30 1661 H 158.017 3.476 1.16489 0
M  V30 1662 H 157.665 3.47051 3.64095 0
M  V30 1663 H 157.365 5.08358 2.94696 0
M  V30 1664 H 158.889 4.7618 3.82211 0
M  V30 1665 H 160.303 5.48474 1.66879 0
M  V30 1666 H 158.7 5.91615 1.00557 0
M  V30 1667 H 159.77 4.84835 0.0793299 0
M  V30 1668 N 161.113 -0.173488 1.56642 0
M  V30 1669 C 162.361 -0.888706 1.81512 0
M  V30 1670 C 162.682 -1.82875 0.676872 0
M  V30 1671 O 161.952 -1.93536 -0.303414 0
M  V30 1672 H 160.532 -0.331164 0.669582 0
M  V30 1673 H 163.194 -0.173823 1.94123 0
M  V30 1674 H 162.29 -1.46691 2.75478 0
M  V30 1675 N 162.591 -1.51276 -0.441967 0
M  V30 1676 C 163.539 -1.72823 -1.55676 0
M  V30 1677 C 164.533 -0.59445 -1.58627 0
M  V30 1678 O 165.739 -0.775715 -1.62427 0
M  V30 1679 H 162.114 -0.545983 -0.517113 0
M  V30 1680 H 164.085 -2.6628 -1.34675 0
M  V30 1681 C 162.834 -1.86619 -2.93375 0
M  V30 1682 H 162.157 -2.73264 -2.91834 0
M  V30 1683 H 163.597 -2.05709 -3.70756 0
M  V30 1684 C 162.056 -0.624842 -3.31055 0
M  V30 1685 O 162.586 0.222636 -4.01083 0
M  V30 1686 N 160.792 -0.470288 -2.86769 0
M  V30 1687 H 160.339 -1.161 -2.29953 0
M  V30 1688 H 160.297 0.359051 -3.12343 0
M  V30 1689 N 164.069 0.697108 -1.41344 0
M  V30 1690 C 165.48 1.27697 -1.36199 0
M  V30 1691 C 165.831 1.9615 -0.0443463 0
M  V30 1692 O 164.956 1.98689 0.857419 0
M  V30 1693 C 165.551 2.32223 -2.46694 0
M  V30 1694 C 164.11 2.8579 -2.44952 0
M  V30 1695 C 163.257 1.59807 -2.26621 0
M  V30 1696 H 166.208 0.491968 -1.50882 0
M  V30 1697 H 166.229 3.1348 -2.15664 0
M  V30 1698 H 165.741 1.82373 -3.42581 0
M  V30 1699 H 163.842 3.3982 -1.52817 0
M  V30 1700 H 163.955 3.36325 -3.41207 0
M  V30 1701 H 162.319 1.8556 -1.7447 0
M  V30 1702 H 163.102 1.11956 -3.24532 0
M  V30 1703 N 165.547 1.27147 0.931209 0
M  V30 1704 C 166.494 1.09568 2.03134 0
M  V30 1705 C 167.464 -0.00222433 1.661 0
M  V30 1706 O 168.649 0.159439 1.90133 0
M  V30 1707 C 165.789 0.745231 3.36957 0
M  V30 1708 C 164.902 1.92041 3.86968 0
M  V30 1709 C 164.037 1.51216 5.09222 0
M  V30 1710 C 163.076 2.65504 5.5152 0
M  V30 1711 N 162.213 2.25291 6.64972 0
M  V30 1712 H 167.053 2.03708 2.17502 0
M  V30 1713 H 164.59 1.01411 1.06556 0
M  V30 1714 H 166.548 0.522878 4.1391 0
M  V30 1715 H 165.178 -0.159202 3.22407 0
M  V30 1716 H 164.23 2.25541 3.06326 0
M  V30 1717 H 165.542 2.77787 4.1429 0
M  V30 1718 H 164.696 1.25084 5.93666 0
M  V30 1719 H 163.435 0.625749 4.83669 0
M  V30 1720 H 162.44 2.92354 4.65628 0
M  V30 1721 H 163.665 3.54761 5.7907 0
M  V30 1722 H 161.611 1.39098 6.41083 0
M  V30 1723 H 161.528 3.04577 6.91931 0
M  V30 1724 H 162.796 2.02398 7.52765 0
M  V30 1725 N 167.025 -1.13721 1.09112 0
M  V30 1726 C 168.25 -1.89314 0.847053 0
M  V30 1727 C 168.675 -1.78416 -0.595774 0
M  V30 1728 O 168.033 -1.12942 -1.41823 0
M  V30 1729 C 168.081 -3.3701 1.28284 0
M  V30 1730 O 167.185 -4.10054 0.439267 0
M  V30 1731 H 166.526 -0.588745 0.307044 0
M  V30 1732 H 169.056 -1.43902 1.45442 0
M  V30 1733 H 169.066 -3.87834 1.26683 0
M  V30 1734 H 167.741 -3.4426 2.33363 0
M  V30 1735 H 166.318 -3.69266 0.519312 0
M  V30 1736 N 168.503 -0.877838 -1.30888 0
M  V30 1737 C 169.78 -0.413052 -1.91189 0
M  V30 1738 C 170.16 1.1056 -1.79832 0
M  V30 1739 O 169.508 1.93771 -1.21099 0
M  V30 1740 C 169.718 -0.903191 -3.3711 0
M  V30 1741 C 171.066 -0.93395 -4.14201 0
M  V30 1742 O 172.09 -0.849373 -3.45925 0
M  V30 1743 O 170.949 -1.05772 -5.36167 0
M  V30 1744 H 168.043 -0.125035 -0.817493 0
M  V30 1745 H 170.589 -0.966269 -1.39504 0
M  V30 1746 H 169.361 -1.94692 -3.39427 0
M  V30 1747 H 168.984 -0.328732 -3.96239 0
M  V30 1748 N 169.982 1.44106 -0.638065 0
M  V30 1749 C 170.892 2.34513 0.0637334 0
M  V30 1750 C 171.908 1.53018 0.828346 0
M  V30 1751 O 173.084 1.85723 0.779036 0
M  V30 1752 C 170.149 3.31095 1.02844 0
M  V30 1753 C 169.21 4.28497 0.26244 0
M  V30 1754 C 168.443 5.20465 1.1812 0
M  V30 1755 O 168.666 5.16514 2.42011 0
M  V30 1756 O 167.6 5.98251 0.661774 0
M  V30 1757 H 171.426 2.95989 -0.68003 0
M  V30 1758 H 169.011 1.43994 -0.398252 0
M  V30 1759 H 170.893 3.90526 1.58327 0
M  V30 1760 H 169.568 2.72144 1.7527 0
M  V30 1761 H 168.475 3.72592 -0.335602 0
M  V30 1762 H 169.808 4.90388 -0.421936 0
M  V30 1763 N 171.46 0.379036 1.52974 0
M  V30 1764 C 172.39 -0.452706 2.29069 0
M  V30 1765 C 173.371 -1.07237 1.32039 0
M  V30 1766 O 174.556 -1.08708 1.60923 0
M  V30 1767 C 171.686 -1.5856 3.08992 0
M  V30 1768 C 170.64 -1.0925 4.13822 0
M  V30 1769 C 169.966 -2.31668 4.81907 0
M  V30 1770 C 171.266 -0.167702 5.22031 0
M  V30 1771 H 172.96 0.182181 2.98845 0
M  V30 1772 H 170.506 0.0890592 1.43724 0
M  V30 1773 H 172.459 -2.1742 3.6098 0
M  V30 1774 H 171.183 -2.24792 2.36931 0
M  V30 1775 H 169.842 -0.526494 3.628 0
M  V30 1776 H 169.49 -2.96386 4.06404 0
M  V30 1777 H 169.19 -1.9934 5.52754 0
M  V30 1778 H 170.714 -2.91189 5.36695 0
M  V30 1779 H 172.128 -0.664186 5.6944 0
M  V30 1780 H 170.525 0.0653265 6.00064 0
M  V30 1781 H 171.595 0.786347 4.78482 0
M  V30 1782 N 172.938 -1.57226 0.108567 0
M  V30 1783 C 173.885 -2.14756 -0.845481 0
M  V30 1784 C 174.855 -1.06971 -1.27068 0
M  V30 1785 O 176.04 -1.34827 -1.35005 0
M  V30 1786 C 173.18 -2.74298 -2.09415 0
M  V30 1787 C 172.293 -3.96358 -1.71826 0
M  V30 1788 C 171.428 -4.44021 -2.9158 0
M  V30 1789 C 170.467 -5.58637 -2.50181 0
M  V30 1790 N 169.604 -6.01091 -3.62814 0
M  V30 1791 H 174.444 -2.95961 -0.348035 0
M  V30 1792 H 171.981 -1.46226 -0.160106 0
M  V30 1793 H 173.939 -3.06945 -2.82561 0
M  V30 1794 H 172.569 -1.95801 -2.56636 0
M  V30 1795 H 171.621 -3.69939 -0.885947 0
M  V30 1796 H 172.933 -4.79504 -1.37394 0
M  V30 1797 H 172.087 -4.78522 -3.72963 0
M  V30 1798 H 170.826 -3.59803 -3.29231 0
M  V30 1799 H 169.831 -5.23751 -1.67228 0
M  V30 1800 H 171.056 -6.44613 -2.13659 0
M  V30 1801 H 169.002 -5.19817 -4.00158 0
M  V30 1802 H 168.919 -6.79066 -3.32273 0
M  V30 1803 H 170.187 -6.40227 -4.44668 0
M  V30 1804 N 174.416 0.165178 -1.56732 0
M  V30 1805 C 175.641 0.900253 -1.86843 0
M  V30 1806 C 176.066 1.74766 -0.695596 0
M  V30 1807 O 175.424 1.77786 0.35522 0
M  V30 1808 C 175.472 1.74777 -3.15413 0
M  V30 1809 O 174.576 2.85007 -2.98068 0
M  V30 1810 H 173.917 0.251832 -0.614391 0
M  V30 1811 H 176.447 0.161468 -2.03962 0
M  V30 1812 H 176.457 2.14646 -3.46974 0
M  V30 1813 H 175.132 1.12537 -4.00385 0
M  V30 1814 H 173.709 2.48676 -2.77875 0
M  V30 1815 N 175.894 1.51508 0.433938 0
M  V30 1816 C 177.31 1.39759 0.770682 0
M  V30 1817 C 177.51 0.482594 1.95636 0
M  V30 1818 O 176.566 -0.0609691 2.52426 0
M  V30 1819 C 177.879 2.81851 1.04787 0
M  V30 1820 C 179.427 2.91025 1.1521 0
M  V30 1821 C 179.902 4.34032 1.46219 0
M  V30 1822 N 181.393 4.37154 1.53136 0
M  V30 1823 C 182.128 5.4484 1.78709 0
M  V30 1824 N 181.624 6.62682 2.02051 0
M  V30 1825 N 183.417 5.32324 1.80519 0
M  V30 1826 H 175.568 2.09548 -0.346892 0
M  V30 1827 H 177.831 0.943446 -0.0928074 0
M  V30 1828 H 177.537 3.50815 0.249304 0
M  V30 1829 H 177.411 3.21386 1.97461 0
M  V30 1830 H 179.798 2.22257 1.94128 0
M  V30 1831 H 179.879 2.54983 0.204281 0
M  V30 1832 H 179.523 5.03351 0.678274 0
M  V30 1833 H 179.453 4.6759 2.42212 0
M  V30 1834 H 181.944 3.52197 1.36987 0
M  V30 1835 H 182.257 7.40543 2.20943 0
M  V30 1836 H 180.602 6.65791 1.99366 0
M  V30 1837 H 183.793 4.39246 1.61805 0
M  V30 1838 H 183.966 6.16328 2.00111 0
M  V30 1839 N 177.372 -0.689602 1.41712 0
M  V30 1840 C 178.788 -1.00093 1.24312 0
M  V30 1841 C 178.988 -2.01036 0.136729 0
M  V30 1842 O 178.044 -2.47562 -0.496918 0
M  V30 1843 C 179.357 -1.51985 2.59463 0
M  V30 1844 C 180.905 -1.63838 2.66695 0
M  V30 1845 C 181.38 -2.1913 4.02177 0
M  V30 1846 N 182.871 -2.26483 4.04054 0
M  V30 1847 C 183.606 -2.70306 5.0569 0
M  V30 1848 N 183.102 -3.13691 6.17713 0
M  V30 1849 N 184.895 -2.69923 4.9305 0
M  V30 1850 H 177.046 -0.0210029 2.1239 0
M  V30 1851 H 179.309 -0.0718733 0.945272 0
M  V30 1852 H 179.015 -0.85269 3.41207 0
M  V30 1853 H 178.889 -2.50103 2.82362 0
M  V30 1854 H 181.276 -2.29664 1.85306 0
M  V30 1855 H 181.357 -0.642492 2.476 0
M  V30 1856 H 181.001 -1.53918 4.84016 0
M  V30 1857 H 180.931 -3.19482 4.18615 0
M  V30 1858 H 183.422 -1.95874 3.23174 0
M  V30 1859 H 183.735 -3.45773 6.9113 0
M  V30 1860 H 182.08 -3.11585 6.21241 0
M  V30 1861 H 185.271 -2.35382 4.04614 0
M  V30 1862 H 185.444 -3.03758 5.72394 0
M  V30 1863 N 178.85 -1.27639 -0.924453 0
M  V30 1864 C 180.096 -1.14336 -1.67497 0
M  V30 1865 C 180.429 0.309465 -1.91718 0
M  V30 1866 O 179.704 1.22608 -1.50989 0
M  V30 1867 C 179.987 -1.93096 -3.0395 0
M  V30 1868 C 179.84 -3.46381 -2.8695 0
M  V30 1869 C 181.159 -1.73798 -4.0433 0
M  V30 1870 H 178.278 -0.416728 -0.607871 0
M  V30 1871 H 180.92 -1.56832 -1.07256 0
M  V30 1872 H 179.07 -1.56982 -3.55372 0
M  V30 1873 H 180.742 -3.92343 -2.42621 0
M  V30 1874 H 178.985 -3.72557 -2.22225 0
M  V30 1875 H 179.656 -3.96735 -3.83804 0
M  V30 1876 H 182.132 -2.05293 -3.61931 0
M  V30 1877 H 181.008 -2.31294 -4.97789 0
M  V30 1878 H 181.269 -0.686725 -4.36734 0
M  V30 1879 N 180.328 1.1314 -1.09713 0
M  V30 1880 C 181.605 1.80762 -0.747302 0
M  V30 1881 C 181.985 1.96663 0.767265 0
M  V30 1882 O 181.333 1.53706 1.69076 0
M  V30 1883 C 181.543 3.15606 -1.48975 0
M  V30 1884 C 182.891 3.90914 -1.65746 0
M  V30 1885 O 183.915 3.25239 -1.45251 0
M  V30 1886 O 182.774 5.08718 -1.9967 0
M  V30 1887 H 179.868 0.782103 -0.268782 0
M  V30 1888 H 182.414 1.20041 -1.19951 0
M  V30 1889 H 181.186 2.99278 -2.52088 0
M  V30 1890 H 180.809 3.84029 -1.02991 0
M  V30 1891 N 181.806 0.884767 1.30421 0
M  V30 1892 C 183.053 0.503105 1.96151 0
M  V30 1893 C 183.381 -0.947676 1.69851 0
M  V30 1894 O 182.636 -1.68467 0.995861 0
M  V30 1895 C 182.935 0.724318 3.49983 0
M  V30 1896 C 182.601 2.15015 3.96332 0
M  V30 1897 C 181.263 2.54005 4.08699 0
M  V30 1898 C 183.615 3.07936 4.20505 0
M  V30 1899 C 180.943 3.85128 4.42599 0
M  V30 1900 C 183.295 4.3859 4.55874 0
M  V30 1901 C 181.959 4.77474 4.66449 0
M  V30 1902 H 181.229 0.184099 0.717766 0
M  V30 1903 H 183.876 1.12058 1.55291 0
M  V30 1904 H 182.181 0.0238086 3.91793 0
M  V30 1905 H 183.878 0.408617 3.98913 0
M  V30 1906 H 180.468 1.8375 3.87213 0
M  V30 1907 H 184.652 2.79033 4.10431 0
M  V30 1908 H 179.908 4.14996 4.48986 0
M  V30 1909 H 184.082 5.10629 4.7353 0
M  V30 1910 H 181.709 5.79115 4.92473 0
M  V30 1911 N 183.284 -1.43765 0.645699 0
M  V30 1912 C 184.194 -2.34544 -0.0512957 0
M  V30 1913 C 185.21 -1.53455 -0.82022 0
M  V30 1914 O 186.386 -1.86133 -0.769176 0
M  V30 1915 C 183.451 -3.31636 -1.01087 0
M  V30 1916 C 182.512 -4.2863 -0.239712 0
M  V30 1917 C 181.745 -5.21084 -1.15358 0
M  V30 1918 O 181.968 -5.1779 -2.39269 0
M  V30 1919 O 180.902 -5.98593 -0.630038 0
M  V30 1920 H 184.728 -2.95624 0.695718 0
M  V30 1921 H 182.313 -1.43781 0.405882 0
M  V30 1922 H 184.195 -3.9136 -1.56254 0
M  V30 1923 H 182.87 -2.73069 -1.73824 0
M  V30 1924 H 181.777 -3.72408 0.355356 0
M  V30 1925 H 183.11 -4.90157 0.447936 0
M  V30 1926 N 184.763 -0.387143 -1.52771 0
M  V30 1927 C 185.991 0.195869 -2.05971 0
M  V30 1928 C 186.406 1.40691 -1.25903 0
M  V30 1929 O 185.763 1.79931 -0.305134 0
M  V30 1930 C 185.814 0.56812 -3.57008 0
M  V30 1931 O 185.535 -0.594803 -4.34043 0
M  V30 1932 C 187.036 1.20723 -4.26545 0
M  V30 1933 H 184.256 0.0300578 -0.670326 0
M  V30 1934 H 186.8 -0.551749 -1.96916 0
M  V30 1935 H 184.955 1.26564 -3.66143 0
M  V30 1936 H 185.369 -0.289322 -5.23701 0
M  V30 1937 H 186.843 1.41807 -5.33474 0
M  V30 1938 H 187.32 2.17395 -3.81623 0
M  V30 1939 H 187.926 0.550535 -4.21722 0
M  V30 1940 N 186.241 1.57166 -0.116904 0
M  V30 1941 C 187.488 1.95123 0.541603 0
M  V30 1942 C 187.816 1.00006 1.6682 0
M  V30 1943 O 187.071 0.0235658 1.95686 0
M  V30 1944 C 187.37 3.39508 1.11664 0
M  V30 1945 C 187.036 4.50762 0.111606 0
M  V30 1946 C 185.698 4.80918 -0.164758 0
M  V30 1947 C 188.05 5.18036 -0.573438 0
M  V30 1948 C 185.378 5.75666 -1.13249 0
M  V30 1949 C 187.73 6.13824 -1.52978 0
M  V30 1950 C 186.394 6.42374 -1.81415 0
M  V30 1951 H 185.664 0.714005 0.198187 0
M  V30 1952 H 188.311 1.9048 -0.197365 0
M  V30 1953 H 186.616 3.40835 1.93232 0
M  V30 1954 H 188.313 3.66189 1.63422 0
M  V30 1955 H 184.903 4.27272 0.337192 0
M  V30 1956 H 189.087 4.94896 -0.373092 0
M  V30 1957 H 184.343 5.96092 -1.35958 0
M  V30 1958 H 188.517 6.65039 -2.06629 0
M  V30 1959 H 186.144 7.15599 -2.56557 0
M  V30 1960 N 187.719 -0.156864 1.56817 0
M  V30 1961 C 188.649 -1.19589 2.00551 0
M  V30 1962 C 189.63 -1.4536 0.883426 0
M  V30 1963 O 190.815 -1.56449 1.15054 0
M  V30 1964 C 187.945 -2.53143 2.37773 0
M  V30 1965 C 186.899 -2.41913 3.53075 0
M  V30 1966 C 186.225 -3.80088 3.76081 0
M  V30 1967 C 187.525 -1.91157 4.86062 0
M  V30 1968 H 189.219 -0.832293 2.87599 0
M  V30 1969 H 186.765 -0.398918 1.38364 0
M  V30 1970 H 188.718 -3.26047 2.66967 0
M  V30 1971 H 187.442 -2.91319 1.4765 0
M  V30 1972 H 186.101 -1.71462 3.24031 0
M  V30 1973 H 185.749 -4.15683 2.83225 0
M  V30 1974 H 185.449 -3.73439 4.53671 0
M  V30 1975 H 186.973 -4.54556 4.0769 0
M  V30 1976 H 188.387 -2.53846 5.14038 0
M  V30 1977 H 186.784 -1.95422 5.67389 0
M  V30 1978 H 187.854 -0.866673 4.77092 0
M  V30 1979 N 189.197 -1.51736 -0.425897 0
M  V30 1980 C 190.608 -1.5732 -1.00536 0
M  V30 1981 C 190.959 -0.403537 -1.92005 0
M  V30 1982 O 190.084 0.478256 -2.11049 0
M  V30 1983 C 190.679 -2.85119 -1.8301 0
M  V30 1984 C 189.238 -2.93236 -2.35987 0
M  V30 1985 C 188.385 -2.52098 -1.15508 0
M  V30 1986 H 191.336 -1.57348 -0.206739 0
M  V30 1987 H 191.357 -2.69526 -2.68581 0
M  V30 1988 H 190.869 -3.7023 -1.16411 0
M  V30 1989 H 188.97 -2.12581 -3.06007 0
M  V30 1990 H 189.083 -3.9713 -2.68001 0
M  V30 1991 H 187.447 -2.05558 -1.50393 0
M  V30 1992 H 188.23 -3.39565 -0.505014 0
M  V30 1993 N 190.675 0.682077 -1.42076 0
M  V30 1994 C 191.608 1.80666 -1.3941 0
M  V30 1995 C 192.586 1.60518 -0.25939 0
M  V30 1996 O 193.77 1.83088 -0.448456 0
M  V30 1997 C 190.897 3.17556 -1.17796 0
M  V30 1998 C 189.943 3.56468 -2.34164 0
M  V30 1999 S 190.776 3.59729 -3.96681 0
M  V30 2000 C 191.932 4.99323 -3.77395 0
M  V30 2001 H 192.165 1.82652 -2.34575 0
M  V30 2002 H 189.698 0.852062 -1.2876 0
M  V30 2003 H 191.656 3.96575 -1.06012 0
M  V30 2004 H 190.317 3.13164 -0.242279 0
M  V30 2005 H 189.51 4.5595 -2.1477 0
M  V30 2006 H 189.112 2.84792 -2.42425 0
M  V30 2007 H 191.404 5.87202 -3.37935 0
M  V30 2008 H 192.347 5.23763 -4.76527 0
M  V30 2009 H 192.755 4.71498 -3.10403 0
M  V30 2010 N 192.153 1.28127 0.917671 0
M  V30 2011 C 193.083 1.14248 2.03641 0
M  V30 2012 C 194.064 0.0412748 1.7005 0
M  V30 2013 O 195.249 0.217566 1.92977 0
M  V30 2014 C 192.379 0.799431 3.37974 0
M  V30 2015 C 191.333 1.85497 3.85713 0
M  V30 2016 C 190.659 1.36565 5.16966 0
M  V30 2017 C 191.959 3.26085 4.08002 0
M  V30 2018 H 193.653 2.07835 2.15511 0
M  V30 2019 H 191.199 1.00064 1.03553 0
M  V30 2020 H 193.152 0.689114 4.15727 0
M  V30 2021 H 191.876 -0.172145 3.26146 0
M  V30 2022 H 190.535 1.95437 3.10161 0
M  V30 2023 H 190.183 0.383253 5.01538 0
M  V30 2024 H 189.883 2.07143 5.49878 0
M  V30 2025 H 191.407 1.26848 5.97279 0
M  V30 2026 H 192.821 3.19089 4.76293 0
M  V30 2027 H 191.218 3.94462 4.52238 0
M  V30 2028 H 192.288 3.70394 3.12948 0
M  V30 2029 N 193.631 -1.12557 1.10312 0
M  V30 2030 C 194.563 -2.17971 0.708625 0
M  V30 2031 C 195.576 -1.60806 -0.254027 0
M  V30 2032 O 196.765 -1.78458 -0.0386891 0
M  V30 2033 C 193.865 -3.38891 0.0248198 0
M  V30 2034 C 193.038 -4.25548 1.01132 0
M  V30 2035 C 192.097 -5.24972 0.35924 0
M  V30 2036 O 191.123 -5.60174 1.00965 0
M  V30 2037 N 192.325 -5.73747 -0.882847 0
M  V30 2038 H 195.09 -2.52427 1.61557 0
M  V30 2039 H 192.651 -1.27967 0.991771 0
M  V30 2040 H 194.643 -4.02485 -0.422852 0
M  V30 2041 H 193.213 -3.02596 -0.784514 0
M  V30 2042 H 192.433 -3.58589 1.6373 0
M  V30 2043 H 193.721 -4.80294 1.67914 0
M  V30 2044 H 193.119 -5.4731 -1.43065 0
M  V30 2045 H 191.676 -6.39234 -1.27369 0
M  V30 2046 N 195.109 -0.891671 -1.2995 0
M  V30 2047 C 196.072 -0.36828 -2.26222 0
M  V30 2048 C 197.072 0.493014 -1.53056 0
M  V30 2049 O 198.262 0.299213 -1.71611 0
M  V30 2050 C 195.394 0.47442 -3.37583 0
M  V30 2051 H 196.587 -1.21844 -2.74033 0
M  V30 2052 H 194.14 -0.669107 -1.41254 0
M  V30 2053 H 194.875 1.34489 -2.95099 0
M  V30 2054 H 194.66 -0.142615 -3.91841 0
M  V30 2055 H 196.15 0.83218 -4.09224 0
M  V30 2056 N 196.587 1.43421 -0.653314 0
M  V30 2057 C 197.833 2.02111 -0.166992 0
M  V30 2058 C 198.166 1.51423 1.21592 0
M  V30 2059 O 197.441 0.707389 1.8118 0
M  V30 2060 C 197.724 3.5966 -0.177948 0
M  V30 2061 C 197.577 4.20579 -1.59478 0
M  V30 2062 C 198.896 4.37413 0.4856 0
M  V30 2063 H 196.015 0.734374 -0.0621557 0
M  V30 2064 H 198.657 1.70717 -0.834016 0
M  V30 2065 H 196.807 3.86537 0.390032 0
M  V30 2066 H 198.479 4.04732 -2.21336 0
M  V30 2067 H 196.722 3.77226 -2.14204 0
M  V30 2068 H 197.393 5.29665 -1.5543 0
M  V30 2069 H 199.869 4.161 0.00234528 0
M  V30 2070 H 198.745 5.47075 0.447207 0
M  V30 2071 H 199.006 4.13672 1.55974 0
M  V30 2072 N 198.065 0.39524 1.52563 0
M  V30 2073 C 199.028 -0.425001 2.25225 0
M  V30 2074 C 200.028 -0.985266 1.27079 0
M  V30 2075 O 201.218 -0.866332 1.5113 0
M  V30 2076 C 198.35 -1.59686 3.01186 0
M  V30 2077 H 199.543 0.211233 2.99155 0
M  V30 2078 H 197.096 0.147472 1.55603 0
M  V30 2079 H 197.831 -2.27035 2.31572 0
M  V30 2080 H 197.616 -1.20176 3.73229 0
M  V30 2081 H 199.106 -2.17743 3.5634 0
M  V30 2082 N 199.544 -1.57102 0.125237 0
M  V30 2083 C 200.491 -2.15641 -0.822655 0
M  V30 2084 C 201.461 -1.08313 -1.25927 0
M  V30 2085 O 202.646 -1.36251 -1.33567 0
M  V30 2086 C 199.786 -2.76504 -2.06494 0
M  V30 2087 C 198.899 -3.98158 -1.67612 0
M  V30 2088 C 198.034 -4.47088 -2.86854 0
M  V30 2089 C 197.073 -5.6126 -2.44242 0
M  V30 2090 N 196.21 -6.04905 -3.56419 0
M  V30 2091 H 201.05 -2.96313 -0.316625 0
M  V30 2092 H 198.587 -1.46388 -0.144588 0
M  V30 2093 H 200.545 -3.09925 -2.79289 0
M  V30 2094 H 199.175 -1.98512 -2.54545 0
M  V30 2095 H 198.227 -3.70858 -0.846661 0
M  V30 2096 H 199.539 -4.80934 -1.32301 0
M  V30 2097 H 198.693 -4.82451 -3.67867 0
M  V30 2098 H 197.432 -3.63275 -3.25396 0
M  V30 2099 H 196.437 -5.25495 -1.61663 0
M  V30 2100 H 197.662 -6.46843 -2.0681 0
M  V30 2101 H 195.608 -5.24032 -3.94623 0
M  V30 2102 H 195.525 -6.82552 -3.25051 0
M  V30 2103 H 196.793 -6.44907 -4.37853 0
M  V30 2104 N 201.022 0.148545 -1.56898 0
M  V30 2105 C 201.97 1.20265 -1.99096 0
M  V30 2106 C 202.964 1.44559 -0.883123 0
M  V30 2107 O 204.17 1.4487 -1.0683 0
M  V30 2108 H 200.545 0.404786 -0.63376 0
M  V30 2109 H 202.516 0.82004 -2.86911 0
M  V30 2110 C 201.265 2.52886 -2.3863 0
M  V30 2111 H 200.588 2.35021 -3.23427 0
M  V30 2112 H 202.028 3.25274 -2.7198 0
M  V30 2113 C 200.487 3.13315 -1.23837 0
M  V30 2114 O 201.017 3.98077 -0.538268 0
M  V30 2115 N 199.223 2.72742 -1.00301 0
M  V30 2116 H 198.77 2.03912 -1.5741 0
M  V30 2117 H 198.728 3.13507 -0.236838 0
M  V30 2118 N 202.5 1.5196 0.417844 0
M  V30 2119 C 203.916 1.40569 0.755816 0
M  V30 2120 C 204.116 0.503316 1.95113 0
M  V30 2121 O 203.172 -0.0341925 2.52477 0
M  V30 2122 C 204.485 2.82947 1.01791 0
M  V30 2123 C 206.033 2.92231 1.12116 0
M  V30 2124 C 206.508 4.35559 1.41608 0
M  V30 2125 N 207.999 4.38753 1.48491 0
M  V30 2126 C 208.734 5.46705 1.7292 0
M  V30 2127 N 208.23 6.64788 1.95011 0
M  V30 2128 N 210.023 5.34209 1.74863 0
M  V30 2129 H 202.174 2.09168 -0.369098 0
M  V30 2130 H 204.437 0.942409 -0.102809 0
M  V30 2131 H 204.143 3.5106 0.212081 0
M  V30 2132 H 204.017 3.23462 1.94042 0
M  V30 2133 H 206.404 2.24304 1.9176 0
M  V30 2134 H 206.485 2.55185 0.177225 0
M  V30 2135 H 206.129 5.04042 0.624848 0
M  V30 2136 H 206.059 4.70133 2.37239 0
M  V30 2137 H 208.55 3.5363 1.33244 0
M  V30 2138 H 208.863 7.42845 2.13076 0
M  V30 2139 H 207.208 6.67869 1.92293 0
M  V30 2140 H 210.399 4.40937 1.57137 0
M  V30 2141 H 210.572 6.18415 1.93563 0
M  V30 2142 N 203.978 -0.674533 1.42435 0
M  V30 2143 C 205.226 -1.43175 1.42637 0
M  V30 2144 C 205.547 -1.94951 0.0438992 0
M  V30 2145 O 204.817 -1.7308 -0.917607 0
M  V30 2146 H 203.397 -0.531307 0.525092 0
M  V30 2147 H 206.059 -0.797006 1.77859 0
M  V30 2148 H 205.155 -2.28463 2.12629 0
M  V30 2149 N 205.456 -1.28612 -0.910864 0
M  V30 2150 C 206.388 -1.08589 -2.01844 0
M  V30 2151 C 207.401 -0.0367419 -1.62759 0
M  V30 2152 O 208.59 -0.280101 -1.76289 0
M  V30 2153 C 205.69 -0.628626 -3.33019 0
M  V30 2154 C 204.863 -1.75382 -4.00699 0
M  V30 2155 C 203.922 -1.28945 -5.10156 0
M  V30 2156 O 202.948 -1.9922 -5.33198 0
M  V30 2157 N 204.15 -0.154224 -5.80295 0
M  V30 2158 H 206.915 -2.03973 -2.19579 0
M  V30 2159 H 204.476 -1.20403 -1.08234 0
M  V30 2160 H 206.468 -0.301508 -4.03575 0
M  V30 2161 H 205.038 0.232451 -3.11735 0
M  V30 2162 H 204.258 -2.25039 -3.23653 0
M  V30 2163 H 205.546 -2.50854 -4.42662 0
M  V30 2164 H 204.944 0.43194 -5.64049 0
M  V30 2165 H 203.501 0.113599 -6.51701 0
M  V30 2166 N 206.934 1.1197 -1.10907 0
M  V30 2167 C 208.182 1.83225 -0.852819 0
M  V30 2168 C 208.503 1.84769 0.623341 0
M  V30 2169 O 207.773 1.3143 1.45269 0
M  V30 2170 H 206.353 0.67849 -0.312507 0
M  V30 2171 H 209.015 1.3556 -1.40033 0
M  V30 2172 H 208.111 2.87265 -1.22005 0
M  V30 2173 N 208.412 0.89855 1.29475 0
M  V30 2174 C 209.64 0.539261 1.99749 0
M  V30 2175 C 210.055 -0.875716 1.67262 0
M  V30 2176 O 209.412 -1.57786 0.917049 0
M  V30 2177 C 209.463 0.72061 3.54245 0
M  V30 2178 O 209.184 2.07989 3.8558 0
M  V30 2179 C 210.685 0.366118 4.41786 0
M  V30 2180 H 207.905 0.207047 0.638258 0
M  V30 2181 H 210.449 1.20758 1.65039 0
M  V30 2182 H 208.604 0.0994862 3.87272 0
M  V30 2183 H 209.018 2.10841 4.80257 0
M  V30 2184 H 210.492 0.543848 5.49314 0
M  V30 2185 H 210.969 -0.696763 4.33638 0
M  V30 2186 H 211.575 0.964135 4.14228 0
M  V30 2187 N 209.89 -1.43072 0.660911 0
M  V30 2188 C 211.12 -2.05769 0.185153 0
M  V30 2189 C 211.528 -1.49668 -1.15742 0
M  V30 2190 O 210.871 -0.625649 -1.72717 0
M  V30 2191 C 210.933 -3.59489 0.0278237 0
M  V30 2192 C 210.597 -4.38212 1.2969 0
M  V30 2193 C 211.594 -4.69772 2.22734 0
M  V30 2194 C 209.279 -4.7809 1.54063 0
M  V30 2195 C 211.273 -5.40129 3.38437 0
M  V30 2196 C 208.96 -5.4819 2.70058 0
M  V30 2197 C 209.958 -5.79132 3.62071 0
M  V30 2198 O 209.646 -6.47798 4.76039 0
M  V30 2199 H 209.378 -0.669873 0.0908086 0
M  V30 2200 H 211.932 -1.84436 0.90402 0
M  V30 2201 H 210.162 -3.79426 -0.746489 0
M  V30 2202 H 211.851 -4.03862 -0.406275 0
M  V30 2203 H 212.617 -4.39476 2.05149 0
M  V30 2204 H 208.496 -4.53408 0.833215 0
M  V30 2205 H 212.04 -5.64198 4.10277 0
M  V30 2206 H 207.937 -5.77902 2.87574 0
M  V30 2207 H 208.705 -6.66283 4.75404 0
M  V30 2208 N 211.368 -0.403325 -1.52352 0
M  V30 2209 C 212.278 0.432009 -2.30588 0
M  V30 2210 C 213.294 1.05884 -1.38075 0
M  V30 2211 O 214.47 1.06161 -1.71148 0
M  V30 2212 C 211.535 1.53669 -3.10784 0
M  V30 2213 C 210.596 0.933525 -4.19027 0
M  V30 2214 C 209.829 1.98557 -4.9539 0
M  V30 2215 O 210.052 3.20283 -4.71991 0
M  V30 2216 O 208.986 1.59504 -5.80381 0
M  V30 2217 H 212.812 -0.205739 -3.03002 0
M  V30 2218 H 210.397 -0.166675 -1.48467 0
M  V30 2219 H 212.279 2.17814 -3.60742 0
M  V30 2220 H 210.954 2.15915 -2.41169 0
M  V30 2221 H 209.861 0.254954 -3.7323 0
M  V30 2222 H 211.194 0.35508 -4.90918 0
M  V30 2223 N 212.846 1.57033 -0.133567 0
M  V30 2224 C 214.123 1.87256 0.56522 0
M  V30 2225 C 214.503 1.03726 1.83859 0
M  V30 2226 O 213.851 0.120247 2.28183 0
M  V30 2227 C 214.061 3.3865 0.843636 0
M  V30 2228 C 215.409 4.07574 1.19032 0
M  V30 2229 O 216.433 3.43752 0.933429 0
M  V30 2230 O 215.292 5.20259 1.67312 0
M  V30 2231 H 212.386 0.775678 0.286796 0
M  V30 2232 H 214.932 1.68855 -0.169168 0
M  V30 2233 H 213.704 3.91257 -0.0581149 0
M  V30 2234 H 213.327 3.62532 1.63268 0
M  V30 2235 N 214.325 -0.140222 1.56975 0
M  V30 2236 C 215.555 -0.865181 1.87612 0
M  V30 2237 C 215.963 -1.74942 0.72055 0
M  V30 2238 O 215.306 -1.80917 -0.318561 0
M  V30 2239 C 215.368 -1.76782 3.13031 0
M  V30 2240 C 215.032 -1.06005 4.44536 0
M  V30 2241 C 216.029 -0.410768 5.18275 0
M  V30 2242 C 213.714 -1.04754 4.91255 0
M  V30 2243 C 215.708 0.241572 6.36942 0
M  V30 2244 C 213.395 -0.391394 6.09845 0
M  V30 2245 C 214.393 0.252029 6.82535 0
M  V30 2246 O 214.081 0.897757 7.98871 0
M  V30 2247 H 213.813 -0.255188 0.625983 0
M  V30 2248 H 216.367 -0.135653 2.04952 0
M  V30 2249 H 214.597 -2.53846 2.91718 0
M  V30 2250 H 216.286 -2.36533 3.29859 0
M  V30 2251 H 217.052 -0.412195 4.83245 0
M  V30 2252 H 212.931 -1.53777 4.34596 0
M  V30 2253 H 216.475 0.744375 6.93617 0
M  V30 2254 H 212.372 -0.387656 6.44335 0
M  V30 2255 H 213.14 0.800102 8.1458 0
M  V30 2256 N 215.803 -1.52179 -0.40978 0
M  V30 2257 C 216.733 -1.78435 -1.5061 0
M  V30 2258 C 217.714 -0.635295 -1.57791 0
M  V30 2259 O 218.899 -0.880823 -1.73076 0
M  V30 2260 C 216.029 -1.93444 -2.88439 0
M  V30 2261 C 214.983 -3.09038 -2.96108 0
M  V30 2262 C 214.309 -3.09268 -4.36185 0
M  V30 2263 C 215.609 -4.48508 -2.67652 0
M  V30 2264 H 217.303 -2.70237 -1.28889 0
M  V30 2265 H 214.849 -1.30036 -0.618605 0
M  V30 2266 H 216.802 -2.10394 -3.65119 0
M  V30 2267 H 215.526 -0.983129 -3.11452 0
M  V30 2268 H 214.185 -2.91837 -2.21872 0
M  V30 2269 H 213.833 -2.11861 -4.56206 0
M  V30 2270 H 213.533 -3.86907 -4.42241 0
M  V30 2271 H 215.057 -3.28348 -5.14801 0
M  V30 2272 H 216.471 -4.65918 -3.34056 0
M  V30 2273 H 214.868 -5.28059 -2.85085 0
M  V30 2274 H 215.938 -4.56649 -1.63095 0
M  V30 2275 N 217.281 0.66697 -1.42791 0
M  V30 2276 C 218.191 1.80962 -1.49299 0
M  V30 2277 C 219.207 1.69775 -0.381108 0
M  V30 2278 O 220.383 1.91188 -0.633188 0
M  V30 2279 C 217.448 3.17156 -1.40045 0
M  V30 2280 C 216.509 3.40242 -2.6179 0
M  V30 2281 C 215.742 4.69939 -2.52969 0
M  V30 2282 O 215.965 5.48372 -1.56985 0
M  V30 2283 O 214.899 4.94441 -3.43237 0
M  V30 2284 H 218.725 1.78427 -2.45759 0
M  V30 2285 H 216.31 0.823713 -1.24641 0
M  V30 2286 H 218.192 3.98413 -1.37276 0
M  V30 2287 H 216.867 3.20312 -0.467138 0
M  V30 2288 H 215.774 2.58802 -2.70134 0
M  V30 2289 H 217.107 3.41923 -3.54047 0
M  V30 2290 N 218.759 1.29093 0.90403 0
M  V30 2291 C 220.007 1.16583 1.65085 0
M  V30 2292 C 220.328 -0.283933 1.92922 0
M  V30 2293 O 219.598 -1.19509 1.55224 0
M  V30 2294 H 218.178 0.428467 0.611903 0
M  V30 2295 H 220.84 1.61959 1.08422 0
M  V30 2296 H 219.936 1.71266 2.6091 0
M  V30 2297 N 220.237 -1.11381 1.11499 0
M  V30 2298 C 221.484 -1.83132 0.864231 0
M  V30 2299 C 221.812 -1.84683 -0.610114 0
M  V30 2300 O 221.067 -1.29589 -1.46646 0
M  V30 2301 C 221.366 -3.30026 1.37177 0
M  V30 2302 C 221.032 -3.48634 2.85946 0
M  V30 2303 C 219.694 -3.53421 3.26569 0
M  V30 2304 C 222.046 -3.54837 3.81759 0
M  V30 2305 C 219.374 -3.61967 4.61733 0
M  V30 2306 C 221.726 -3.64915 5.1674 0
M  V30 2307 C 220.39 -3.67962 5.5692 0
M  V30 2308 H 219.66 -0.670127 0.316245 0
M  V30 2309 H 222.307 -1.31354 1.3935 0
M  V30 2310 H 220.612 -3.84304 0.762753 0
M  V30 2311 H 222.309 -3.84034 1.15408 0
M  V30 2312 H 218.899 -3.45579 2.53521 0
M  V30 2313 H 223.083 -3.50399 3.51474 0
M  V30 2314 H 218.339 -3.62603 4.92269 0
M  V30 2315 H 222.513 -3.68658 5.90816 0
M  V30 2316 H 220.14 -3.74336 6.61647 0
M  V30 2317 N 221.715 -0.905404 -1.28997 0
M  V30 2318 C 223.131 -0.60233 -1.47798 0
M  V30 2319 C 223.331 0.854645 -1.82478 0
M  V30 2320 O 222.387 1.63439 -1.92468 0
M  V30 2321 C 223.7 -1.53306 -2.58685 0
M  V30 2322 C 225.248 -1.53887 -2.72558 0
M  V30 2323 C 225.723 -2.45602 -3.86579 0
M  V30 2324 N 227.214 -2.43681 -3.93921 0
M  V30 2325 C 227.949 -3.11347 -4.81509 0
M  V30 2326 N 227.445 -3.88313 -5.73746 0
M  V30 2327 N 229.238 -3.00476 -4.75048 0
M  V30 2328 H 221.389 -1.84765 -1.04764 0
M  V30 2329 H 223.652 -0.792025 -0.520961 0
M  V30 2330 H 223.358 -2.57141 -2.39941 0
M  V30 2331 H 223.232 -1.25787 -3.55609 0
M  V30 2332 H 225.619 -0.507941 -2.90696 0
M  V30 2333 H 225.7 -1.85447 -1.76191 0
M  V30 2334 H 225.344 -3.48792 -3.69197 0
M  V30 2335 H 225.274 -2.11349 -4.82327 0
M  V30 2336 H 227.765 -1.87767 -3.27951 0
M  V30 2337 H 228.078 -4.36985 -6.37389 0
M  V30 2338 H 226.423 -3.92419 -5.73614 0
M  V30 2339 H 229.614 -2.39858 -4.01977 0
M  V30 2340 H 229.787 -3.53485 -5.43095 0
M  V30 2341 N 223.193 1.4272 -0.668489 0
M  V30 2342 C 224.439 2.01923 -0.188419 0
M  V30 2343 C 224.772 1.52704 1.19979 0
M  V30 2344 O 224.047 0.726566 1.8042 0
M  V30 2345 C 224.33 3.59451 -0.216085 0
M  V30 2346 C 224.183 4.18864 -1.6393 0
M  V30 2347 C 225.502 4.37903 0.439179 0
M  V30 2348 H 222.621 0.733674 -0.0699412 0
M  V30 2349 H 225.263 1.69822 -0.852076 0
M  V30 2350 H 223.413 3.86929 0.349012 0
M  V30 2351 H 225.085 4.02362 -2.25616 0
M  V30 2352 H 223.328 3.74933 -2.18193 0
M  V30 2353 H 223.999 5.27987 -1.61039 0
M  V30 2354 H 226.475 4.16079 -0.0417878 0
M  V30 2355 H 225.351 5.47519 0.389157 0
M  V30 2356 H 225.612 4.15303 1.51577 0
M  V30 2357 N 224.671 0.411399 1.52136 0
M  V30 2358 C 225.918 -0.163645 2.01838 0
M  V30 2359 C 226.246 -1.4495 1.29691 0
M  V30 2360 O 225.501 -1.91725 0.392431 0
M  V30 2361 C 225.8 -0.455872 3.54481 0
M  V30 2362 C 225.466 0.741055 4.44769 0
M  V30 2363 C 224.128 1.06936 4.69167 0
M  V30 2364 C 226.48 1.54075 4.97906 0
M  V30 2365 C 223.808 2.19851 5.43951 0
M  V30 2366 C 226.16 2.66067 5.73926 0
M  V30 2367 C 224.824 2.99381 5.96596 0
M  V30 2368 H 224.094 -0.0598821 0.738576 0
M  V30 2369 H 226.741 0.553283 1.83333 0
M  V30 2370 H 225.046 -1.2544 3.71177 0
M  V30 2371 H 226.743 -0.913802 3.90449 0
M  V30 2372 H 223.333 0.475192 4.25958 0
M  V30 2373 H 227.517 1.30033 4.78963 0
M  V30 2374 H 222.773 2.46006 5.59724 0
M  V30 2375 H 226.947 3.28419 6.14096 0
M  V30 2376 H 224.574 3.86992 6.54325 0
M  V30 2377 N 226.149 -1.5696 0.141893 0
M  V30 2378 C 227.426 -1.87553 -0.555281 0
M  V30 2379 C 227.806 -1.04699 -1.83306 0
M  V30 2380 O 227.154 -0.132346 -2.28116 0
M  V30 2381 C 227.364 -3.39093 -0.825664 0
M  V30 2382 C 228.712 -4.08199 -1.16869 0
M  V30 2383 O 229.736 -3.44242 -0.915185 0
M  V30 2384 O 228.595 -5.21139 -1.6455 0
M  V30 2385 H 225.689 -0.777188 -0.282679 0
M  V30 2386 H 228.235 -1.68763 0.17812 0
M  V30 2387 H 227.007 -3.91221 0.0788633 0
M  V30 2388 H 226.63 -3.63393 -1.61343 0
M  V30 2389 N 227.627 0.131896 -1.57047 0
M  V30 2390 C 228.574 1.16236 -1.99393 0
M  V30 2391 C 229.544 1.41863 -0.863943 0
M  V30 2392 O 230.729 1.53946 -1.12718 0
M  V30 2393 C 227.869 2.48708 -2.39245 0
M  V30 2394 C 226.982 2.30127 -3.65603 0
M  V30 2395 C 226.117 3.55738 -3.94492 0
M  V30 2396 C 225.156 3.32259 -5.14073 0
M  V30 2397 N 224.293 4.50039 -5.38896 0
M  V30 2398 H 229.133 0.794251 -2.87221 0
M  V30 2399 H 226.67 0.380707 -1.42088 0
M  V30 2400 H 228.628 3.25969 -2.60384 0
M  V30 2401 H 227.258 2.83437 -1.54478 0
M  V30 2402 H 226.31 1.43845 -3.52154 0
M  V30 2403 H 227.622 2.08746 -4.5302 0
M  V30 2404 H 226.776 4.41423 -4.1621 0
M  V30 2405 H 225.515 3.80138 -3.05526 0
M  V30 2406 H 224.52 2.44963 -4.92212 0
M  V30 2407 H 225.745 3.09242 -6.04604 0
M  V30 2408 H 223.691 4.74584 -4.52886 0
M  V30 2409 H 223.608 4.31716 -6.2061 0
M  V30 2410 H 224.876 5.36895 -5.65123 0
M  V30 2411 N 229.106 1.52395 0.401703 0
M  V30 2412 C 230.016 1.7917 1.51444 0
M  V30 2413 C 231.032 0.677691 1.6026 0
M  V30 2414 O 232.208 0.963909 1.76835 0
M  V30 2415 C 229.273 1.94347 2.87107 0
M  V30 2416 C 228.334 3.18257 2.88116 0
M  V30 2417 C 227.567 3.32701 4.17308 0
M  V30 2418 O 227.79 2.52238 5.11598 0
M  V30 2419 O 226.724 4.25891 4.25324 0
M  V30 2420 H 230.55 2.73633 1.31752 0
M  V30 2421 H 228.135 1.3733 0.588296 0
M  V30 2422 H 230.017 2.06109 3.67555 0
M  V30 2423 H 228.692 1.03073 3.06851 0
M  V30 2424 H 227.599 3.11947 2.06494 0
M  V30 2425 H 228.932 4.09336 2.73322 0
M  V30 2426 N 230.584 -0.659388 1.43143 0
M  V30 2427 C 231.832 -1.41654 1.44147 0
M  V30 2428 C 232.153 -1.94893 0.0645739 0
M  V30 2429 O 231.423 -1.74044 -0.899198 0
M  V30 2430 H 230.003 -0.525708 0.530697 0
M  V30 2431 H 232.665 -0.778097 1.78694 0
M  V30 2432 H 231.761 -2.26195 2.1504 0
M  V30 2433 N 232.062 -1.29571 -0.897171 0
M  V30 2434 C 233.01 -1.14802 -2.02295 0
M  V30 2435 C 234.004 -0.0629637 -1.69283 0
M  V30 2436 O 235.21 -0.222945 -1.78614 0
M  V30 2437 H 231.585 -0.354692 -0.663097 0
M  V30 2438 H 233.556 -2.10108 -2.11889 0
M  V30 2439 C 232.305 -0.843966 -3.37302 0
M  V30 2440 H 231.628 -1.67093 -3.63208 0
M  V30 2441 H 233.068 -0.780672 -4.16751 0
M  V30 2442 C 231.527 0.452843 -3.33843 0
M  V30 2443 O 232.057 1.47813 -3.73516 0
M  V30 2444 N 230.263 0.459601 -2.86943 0
M  V30 2445 H 229.81 -0.375213 -2.54853 0
M  V30 2446 H 229.768 1.32726 -2.85011 0
M  V30 2447 N 233.54 1.10788 -1.12088 0
M  V30 2448 C 234.788 1.8231 -0.872205 0
M  V30 2449 C 235.109 1.85419 0.603709 0
M  V30 2450 O 234.379 1.32963 1.43867 0
M  V30 2451 H 232.959 0.675137 -0.319686 0
M  V30 2452 H 235.621 1.34068 -1.41463 0
M  V30 2453 H 234.717 2.85955 -1.25045 0
M  V30 2454 N 235.018 0.912232 1.28515 0
M  V30 2455 C 235.965 0.397954 2.27343 0
M  V30 2456 C 236.935 -0.526766 1.57526 0
M  V30 2457 O 238.12 -0.449292 1.85435 0
M  V30 2458 C 235.26 -0.357263 3.43246 0
M  V30 2459 C 234.373 0.599788 4.27816 0
M  V30 2460 C 233.508 -0.173725 5.30916 0
M  V30 2461 C 232.547 0.777039 6.07148 0
M  V30 2462 N 231.684 0.0371398 7.0209 0
M  V30 2463 H 236.524 1.24577 2.70711 0
M  V30 2464 H 234.061 0.625612 1.33133 0
M  V30 2465 H 236.019 -0.8113 4.09236 0
M  V30 2466 H 234.649 -1.16943 3.00872 0
M  V30 2467 H 233.701 1.17235 3.61884 0
M  V30 2468 H 235.013 1.32704 4.80823 0
M  V30 2469 H 234.167 -0.688394 6.02782 0
M  V30 2470 H 232.906 -0.934041 4.78672 0
M  V30 2471 H 231.911 1.3031 5.34134 0
M  V30 2472 H 233.136 1.53689 6.61481 0
M  V30 2473 H 231.082 -0.705213 6.52198 0
M  V30 2474 H 230.999 0.704249 7.52713 0
M  V30 2475 H 232.267 -0.457383 7.78157 0
M  V30 2476 N 236.496 -1.42363 0.676048 0
M  V30 2477 C 237.742 -2.0182 0.199125 0
M  V30 2478 C 238.075 -1.53339 -1.19168 0
M  V30 2479 O 237.35 -0.736124 -1.80032 0
M  V30 2480 C 237.633 -3.59331 0.235144 0
M  V30 2481 C 237.486 -4.17989 1.66149 0
M  V30 2482 C 238.805 -4.3813 -0.41595 0
M  V30 2483 H 235.924 -0.733293 0.0738311 0
M  V30 2484 H 238.566 -1.69368 0.86107 0
M  V30 2485 H 236.716 -3.87109 -0.328487 0
M  V30 2486 H 238.388 -4.0116 2.27747 0
M  V30 2487 H 236.631 -3.7377 2.20178 0
M  V30 2488 H 237.302 -5.27126 1.63837 0
M  V30 2489 H 239.778 -4.16051 0.0638529 0
M  V30 2490 H 238.654 -5.47717 -0.360115 0
M  V30 2491 H 238.915 -4.16101 -1.49373 0
M  V30 2492 N 237.974 -0.419461 -1.51915 0
M  V30 2493 C 238.907 0.445751 -2.23804 0
M  V30 2494 C 239.885 1.03951 -1.25031 0
M  V30 2495 O 241.069 1.08541 -1.54114 0
M  V30 2496 C 238.196 1.61964 -2.97465 0
M  V30 2497 C 237.242 1.14828 -4.10751 0
M  V30 2498 S 238.075 0.104938 -5.35397 0
M  V30 2499 C 239.231 1.28391 -6.1259 0
M  V30 2500 H 239.464 -0.164627 -2.96844 0
M  V30 2501 H 236.997 -0.203833 -1.53049 0
M  V30 2502 H 238.955 2.29271 -3.40507 0
M  V30 2503 H 237.616 2.20139 -2.24048 0
M  V30 2504 H 236.809 2.02561 -4.61503 0
M  V30 2505 H 236.411 0.553712 -3.69878 0
M  V30 2506 H 238.703 2.20563 -6.40592 0
M  V30 2507 H 239.646 0.816724 -7.03374 0
M  V30 2508 H 240.054 1.51439 -5.43807 0
M  V30 2509 N 239.452 1.56882 -0.150215 0
M  V30 2510 C 240.7 1.9584 0.499105 0
M  V30 2511 C 241.021 1.03623 1.65188 0
M  V30 2512 O 240.291 0.0984084 1.95653 0
M  V30 2513 H 238.871 0.723119 0.187373 0
M  V30 2514 H 241.533 1.9358 -0.226466 0
M  V30 2515 H 240.629 2.99638 0.873122 0
M  V30 2516 N 240.93 -0.123565 1.57115 0
M  V30 2517 C 241.893 -1.13583 1.99076 0
M  V30 2518 C 242.893 -1.34564 0.880296 0
M  V30 2519 O 244.083 -1.31158 1.14644 0
M  V30 2520 C 241.215 -2.49128 2.32698 0
M  V30 2521 H 242.408 -0.775287 2.89706 0
M  V30 2522 H 239.961 -0.36771 1.51913 0
M  V30 2523 H 240.696 -2.90111 1.44934 0
M  V30 2524 H 240.481 -2.35255 3.13684 0
M  V30 2525 H 241.971 -3.2199 2.65918 0
M  V30 2526 N 242.408 -1.52605 -0.393616 0
M  V30 2527 C 243.318 -1.79971 -1.50492 0
M  V30 2528 C 244.334 -0.686181 -1.59899 0
M  V30 2529 O 245.51 -0.973274 -1.76322 0
M  V30 2530 C 242.575 -1.95867 -2.86072 0
M  V30 2531 C 241.636 -3.19781 -2.86424 0
M  V30 2532 C 240.869 -3.34909 -4.15538 0
M  V30 2533 O 241.092 -2.54948 -5.10253 0
M  V30 2534 O 240.026 -4.28141 -4.23059 0
M  V30 2535 H 243.852 -2.74328 -1.30299 0
M  V30 2536 H 241.437 -1.3764 -0.581005 0
M  V30 2537 H 243.319 -2.08056 -3.66457 0
M  V30 2538 H 241.994 -1.04699 -3.063 0
M  V30 2539 H 240.901 -3.13038 -2.04837 0
M  V30 2540 H 242.234 -4.1078 -2.71147 0
M  V30 2541 N 243.887 0.651787 -1.4349 0
M  V30 2542 C 244.817 1.77621 -1.51569 0
M  V30 2543 C 245.798 1.66022 -0.370253 0
M  V30 2544 O 246.983 1.85095 -0.587658 0
M  V30 2545 C 244.113 3.16056 -1.43966 0
M  V30 2546 C 243.067 3.4242 -2.56774 0
M  V30 2547 C 242.393 4.8067 -2.34223 0
M  V30 2548 C 243.693 3.37023 -3.99015 0
M  V30 2549 H 245.387 1.71117 -2.45681 0
M  V30 2550 H 242.933 0.821825 -1.18246 0
M  V30 2551 H 244.886 3.94472 -1.48221 0
M  V30 2552 H 243.61 3.23293 -0.463586 0
M  V30 2553 H 242.269 2.66375 -2.51873 0
M  V30 2554 H 241.917 4.84585 -1.34856 0
M  V30 2555 H 241.617 4.9927 -3.09844 0
M  V30 2556 H 243.141 5.61342 -2.40265 0
M  V30 2557 H 244.555 4.05374 -4.05395 0
M  V30 2558 H 242.952 3.67159 -4.74673 0
M  V30 2559 H 244.022 2.3518 -4.2405 0
M  V30 2560 N 245.365 1.30045 0.890287 0
M  V30 2561 C 246.781 1.08261 1.17268 0
M  V30 2562 C 246.981 -0.160063 2.00863 0
M  V30 2563 O 246.037 -0.855181 2.37577 0
M  V30 2564 C 247.35 2.34323 1.8845 0
M  V30 2565 C 248.898 2.39735 2.01237 0
M  V30 2566 C 249.373 3.65625 2.7583 0
M  V30 2567 N 250.864 3.66402 2.83379 0
M  V30 2568 C 251.599 4.60498 3.41657 0
M  V30 2569 N 251.095 5.64933 4.01026 0
M  V30 2570 N 252.888 4.48051 3.39421 0
M  V30 2571 H 245.039 2.09777 0.332762 0
M  V30 2572 H 247.302 0.92446 0.209948 0
M  V30 2573 H 247.008 3.2498 1.34465 0
M  V30 2574 H 246.882 2.4256 2.88867 0
M  V30 2575 H 249.269 1.4956 2.54393 0
M  V30 2576 H 249.35 2.35476 0.999232 0
M  V30 2577 H 248.994 4.56156 2.23347 0
M  V30 2578 H 248.924 3.67144 3.77509 0
M  V30 2579 H 251.415 2.90896 2.41222 0
M  V30 2580 H 251.728 6.32841 4.43545 0
M  V30 2581 H 250.073 5.68732 3.99461 0
M  V30 2582 H 253.264 3.65649 2.92264 0
M  V30 2583 H 253.437 5.21565 3.84544 0
M  V30 2584 N 246.843 -1.10192 1.12674 0
M  V30 2585 C 247.793 -2.14754 0.765801 0
M  V30 2586 C 248.777 -1.59154 -0.236409 0
M  V30 2587 O 249.969 -1.76951 -0.0415261 0
M  V30 2588 C 247.098 -3.42563 0.224827 0
M  V30 2589 C 246.184 -4.05091 1.25548 0
M  V30 2590 N 246.575 -4.42287 2.4539 0
M  V30 2591 C 244.873 -4.32186 1.10142 0
M  V30 2592 C 245.574 -4.91441 3.11224 0
M  V30 2593 N 244.55 -4.88405 2.38666 0
M  V30 2594 H 248.352 -2.41309 1.67772 0
M  V30 2595 H 245.866 -1.27339 1.00789 0
M  V30 2596 H 247.863 -4.16868 -0.0519578 0
M  V30 2597 H 246.523 -3.17467 -0.681515 0
M  V30 2598 H 247.534 -4.33902 2.82754 0
M  V30 2599 H 244.211 -4.16735 0.252587 0
M  V30 2600 H 245.601 -5.29749 4.13298 0
M  V30 2601 N 248.321 -0.919034 -1.28029 0
M  V30 2602 C 249.567 -0.555757 -1.95036 0
M  V30 2603 C 249.9 0.899198 -1.72128 0
M  V30 2604 O 249.175 1.64023 -1.04531 0
M  V30 2605 C 249.458 -0.872024 -3.49382 0
M  V30 2606 C 249.311 -2.3801 -3.81669 0
M  V30 2607 C 250.63 -0.37185 -4.38526 0
M  V30 2608 H 247.749 -0.203386 -0.708381 0
M  V30 2609 H 250.391 -1.14924 -1.51303 0
M  V30 2610 H 248.541 -0.366946 -3.86763 0
M  V30 2611 H 250.213 -2.9562 -3.54128 0
M  V30 2612 H 248.456 -2.83289 -3.28526 0
M  V30 2613 H 249.127 -2.55192 -4.8947 0
M  V30 2614 H 251.603 -0.804602 -4.08247 0
M  V30 2615 H 250.479 -0.622173 -5.45362 0
M  V30 2616 H 250.74 0.727934 -4.36066 0
M  V30 2617 N 249.799 1.42003 -0.683588 0
M  V30 2618 C 250.729 2.33487 -0.024866 0
M  V30 2619 C 251.71 1.51163 0.779975 0
M  V30 2620 O 252.895 1.79739 0.735362 0
M  V30 2621 C 250.025 3.3487 0.920836 0
M  V30 2622 C 248.979 4.27414 0.223958 0
M  V30 2623 C 248.305 5.19074 1.2832 0
M  V30 2624 C 249.605 5.14445 -0.90242 0
M  V30 2625 H 251.299 2.88819 -0.788921 0
M  V30 2626 H 248.845 1.38873 -0.38083 0
M  V30 2627 H 250.798 3.97787 1.39081 0
M  V30 2628 H 249.522 2.77861 1.71642 0
M  V30 2629 H 248.181 3.65904 -0.225864 0
M  V30 2630 H 247.829 4.58387 2.071 0
M  V30 2631 H 247.529 5.81822 0.821995 0
M  V30 2632 H 249.053 5.84867 1.75392 0
M  V30 2633 H 250.467 5.70998 -0.513272 0
M  V30 2634 H 248.864 5.86072 -1.28997 0
M  V30 2635 H 249.934 4.52322 -1.74737 0
M  V30 2636 N 251.277 0.427512 1.51691 0
M  V30 2637 C 252.505 -0.141191 2.06418 0
M  V30 2638 C 252.92 -1.37303 1.29589 0
M  V30 2639 O 252.277 -1.79059 0.352732 0
M  V30 2640 C 252.328 -0.473266 3.58389 0
M  V30 2641 O 252.049 0.709673 4.32314 0
M  V30 2642 C 253.55 -1.09371 4.29596 0
M  V30 2643 H 250.77 -0.0122747 0.670888 0
M  V30 2644 H 253.314 0.603764 1.95384 0
M  V30 2645 H 251.469 -1.16812 3.69369 0
M  V30 2646 H 251.883 0.42807 5.2275 0
M  V30 2647 H 253.357 -1.27613 5.37046 0
M  V30 2648 H 253.834 -2.072 3.87253 0
M  V30 2649 H 254.44 -0.43853 4.23033 0
M  V30 2650 N 252.755 -1.56801 0.158532 0
M  V30 2651 C 253.983 -2.00859 -0.496303 0
M  V30 2652 C 254.398 -1.03871 -1.57659 0
M  V30 2653 O 253.755 -0.0375165 -1.82461 0
M  V30 2654 C 253.806 -3.4479 -1.08638 0
M  V30 2655 O 253.527 -4.38072 -0.0492322 0
M  V30 2656 C 255.028 -4.04185 -1.8207 0
M  V30 2657 H 252.248 -0.65864 -0.128199 0
M  V30 2658 H 254.792 -2.02885 0.256506 0
M  V30 2659 H 252.947 -3.43579 -1.78975 0
M  V30 2660 H 253.361 -5.2227 -0.483102 0
M  V30 2661 H 254.835 -5.06857 -2.18633 0
M  V30 2662 H 255.312 -3.45549 -2.71095 0
M  V30 2663 H 255.918 -4.0906 -1.16405 0
M  V30 2664 N 254.233 0.115231 -1.57178 0
M  V30 2665 C 255.163 1.1423 -2.03651 0
M  V30 2666 C 256.144 1.42967 -0.921655 0
M  V30 2667 O 257.329 1.53343 -1.19162 0
M  V30 2668 C 254.459 2.4675 -2.44401 0
M  V30 2669 C 253.413 2.32467 -3.59365 0
M  V30 2670 C 252.739 3.69984 -3.86026 0
M  V30 2671 C 254.039 1.78203 -4.90959 0
M  V30 2672 H 255.733 0.755749 -2.89705 0
M  V30 2673 H 253.279 0.362093 -1.39373 0
M  V30 2674 H 255.232 3.18854 -2.75517 0
M  V30 2675 H 253.956 2.87302 -1.55322 0
M  V30 2676 H 252.615 1.62811 -3.28463 0
M  V30 2677 H 252.263 4.08028 -2.94147 0
M  V30 2678 H 251.963 3.61279 -4.63412 0
M  V30 2679 H 253.487 4.43587 -4.19599 0
M  V30 2680 H 254.901 2.40128 -5.20587 0
M  V30 2681 H 253.298 1.8031 -5.72371 0
M  V30 2682 H 254.368 0.739876 -4.79222 0
M  V30 2683 N 255.711 1.52812 0.385517 0
M  V30 2684 C 256.959 1.67694 1.12797 0
M  V30 2685 C 257.28 0.421115 1.90399 0
M  V30 2686 O 256.55 -0.564551 1.87589 0
M  V30 2687 H 255.13 0.618155 0.419396 0
M  V30 2688 H 257.792 1.89938 0.436972 0
M  V30 2689 H 256.888 2.52896 1.82894 0
M  V30 2690 N 257.189 -0.644168 1.43834 0
M  V30 2691 C 258.099 -1.78563 1.52159 0
M  V30 2692 C 259.115 -1.69147 0.408069 0
M  V30 2693 O 260.291 -1.90156 0.663524 0
M  V30 2694 C 257.356 -3.14888 1.45073 0
M  V30 2695 C 256.417 -3.36034 2.6717 0
M  V30 2696 C 255.65 -4.65855 2.60413 0
M  V30 2697 O 255.873 -5.45805 1.65689 0
M  V30 2698 O 254.807 -4.88918 3.5106 0
M  V30 2699 H 258.633 -1.74494 2.48567 0
M  V30 2700 H 256.218 -0.80378 1.25935 0
M  V30 2701 H 258.1 -3.96179 1.43597 0
M  V30 2702 H 256.775 -3.19528 0.518037 0
M  V30 2703 H 255.682 -2.54472 2.74217 0
M  V30 2704 H 257.015 -3.36247 3.59442 0
M  V30 2705 N 258.668 -1.30515 -0.883378 0
M  V30 2706 C 259.615 -1.17032 -1.98927 0
M  V30 2707 C 260.585 -0.0594241 -1.65994 0
M  V30 2708 O 261.77 -0.229895 -1.8941 0
M  V30 2709 C 258.91 -0.869777 -3.33959 0
M  V30 2710 C 258.023 -2.06271 -3.79574 0
M  V30 2711 C 257.158 -1.70011 -5.03259 0
M  V30 2712 C 256.197 -2.8579 -5.41286 0
M  V30 2713 N 255.334 -2.49816 -6.56153 0
M  V30 2714 H 260.174 -2.1164 -2.09792 0
M  V30 2715 H 257.711 -1.05296 -1.02719 0
M  V30 2716 H 259.669 -0.676138 -4.11685 0
M  V30 2717 H 258.299 0.0394332 -3.22776 0
M  V30 2718 H 257.351 -2.36755 -2.97744 0
M  V30 2719 H 258.663 -2.92971 -4.03694 0
M  V30 2720 H 257.817 -1.47032 -5.88614 0
M  V30 2721 H 256.556 -0.804829 -4.81013 0
M  V30 2722 H 255.561 -3.09434 -4.54456 0
M  V30 2723 H 256.786 -3.76008 -5.65504 0
M  V30 2724 H 254.732 -1.62795 -6.35479 0
M  V30 2725 H 254.649 -3.30048 -6.8015 0
M  V30 2726 H 255.917 -2.30197 -7.44735 0
M  V30 2727 N 260.146 1.09593 -1.13257 0
M  V30 2728 C 261.079 2.15451 -0.752061 0
M  V30 2729 C 262.057 1.60493 0.260913 0
M  V30 2730 O 263.241 1.8788 0.152819 0
M  V30 2731 C 260.368 3.38506 -0.114594 0
M  V30 2732 C 259.414 4.12183 -1.09579 0
M  V30 2733 S 260.247 4.6661 -2.62745 0
M  V30 2734 C 261.403 5.92966 -2.00354 0
M  V30 2735 H 261.636 2.47395 -1.64872 0
M  V30 2736 H 259.169 1.21515 -0.952545 0
M  V30 2737 H 261.127 4.09757 0.246808 0
M  V30 2738 H 259.788 3.04784 0.759309 0
M  V30 2739 H 258.981 5.00445 -0.597545 0
M  V30 2740 H 258.583 3.46785 -1.40057 0
M  V30 2741 H 260.875 6.63882 -1.35156 0
M  V30 2742 H 261.818 6.47467 -2.86691 0
M  V30 2743 H 262.226 5.45405 -1.4558 0
M  V30 2744 N 261.624 0.925811 1.2754 0
M  V30 2745 C 262.852 0.581509 1.9856 0
M  V30 2746 C 263.267 -0.840041 1.69082 0
M  V30 2747 O 262.624 -1.55805 0.950312 0
M  V30 2748 C 262.675 0.795589 3.52637 0
M  V30 2749 O 262.396 2.16121 3.81082 0
M  V30 2750 C 263.897 0.459744 4.4091 0
M  V30 2751 H 261.117 0.220538 0.633722 0
M  V30 2752 H 263.661 1.24232 1.6244 0
M  V30 2753 H 261.816 0.18161 3.86974 0
M  V30 2754 H 262.23 2.2098 4.75676 0
M  V30 2755 H 263.704 0.660244 5.48037 0
M  V30 2756 H 264.181 -0.604625 4.35018 0
M  V30 2757 H 264.787 1.05178 4.12089 0
M  V30 2758 N 263.102 -1.41638 0.69111 0
M  V30 2759 C 264.012 -2.34588 0.0233487 0
M  V30 2760 C 265.028 -1.55987 -0.770984 0
M  V30 2761 O 266.204 -1.88486 -0.709569 0
M  V30 2762 C 263.269 -3.34684 -0.904851 0
M  V30 2763 C 262.33 -4.29176 -0.103225 0
M  V30 2764 C 261.563 -5.2449 -0.987216 0
M  V30 2765 O 261.786 -5.2514 -2.22674 0
M  V30 2766 O 260.72 -6.00295 -0.439281 0
M  V30 2767 H 264.546 -2.93261 0.789416 0
M  V30 2768 H 262.131 -1.42417 0.45142 0
M  V30 2769 H 264.013 -3.96133 -1.43724 0
M  V30 2770 H 262.688 -2.78461 -1.65049 0
M  V30 2771 H 261.595 -3.71089 0.473655 0
M  V30 2772 H 262.928 -4.88484 0.60365 0
M  V30 2773 N 264.58 -0.43555 -1.51462 0
M  V30 2774 C 265.49 0.383001 -2.31453 0
M  V30 2775 C 266.506 1.02931 -1.4029 0
M  V30 2776 O 267.682 1.02507 -1.73362 0
M  V30 2777 C 264.747 1.47043 -3.13973 0
M  V30 2778 C 263.808 0.844433 -4.20913 0
M  V30 2779 C 263.041 1.88004 -4.9949 0
M  V30 2780 O 263.264 3.10199 -4.78678 0
M  V30 2781 O 262.198 1.47157 -5.83634 0
M  V30 2782 H 266.024 -0.269964 -3.02498 0
M  V30 2783 H 263.609 -0.19813 -1.4808 0
M  V30 2784 H 265.491 2.10113 -3.65281 0
M  V30 2785 H 264.166 2.10751 -2.45695 0
M  V30 2786 H 263.073 0.175729 -3.73687 0
M  V30 2787 H 264.406 0.250869 -4.9156 0
M  V30 2788 N 266.058 1.56714 -0.166846 0
M  V30 2789 C 266.968 2.21331 0.777791 0
M  V30 2790 C 267.984 1.20358 1.25658 0
M  V30 2791 O 269.16 1.53005 1.30964 0
M  V30 2792 C 266.225 2.83787 1.99163 0
M  V30 2793 C 265.286 3.99947 1.56016 0
M  V30 2794 C 264.519 4.59415 2.71613 0
M  V30 2795 O 264.742 4.17769 3.88362 0
M  V30 2796 O 263.676 5.49359 2.45945 0
M  V30 2797 H 267.502 3.02605 0.257636 0
M  V30 2798 H 265.087 1.49275 0.0611393 0
M  V30 2799 H 266.969 3.23405 2.70161 0
M  V30 2800 H 265.644 2.05513 2.50092 0
M  V30 2801 H 264.551 3.65007 0.819809 0
M  V30 2802 H 265.884 4.79801 1.09782 0
M  V30 2803 N 267.536 -0.106894 1.57237 0
M  V30 2804 C 268.782 -0.81373 1.85759 0
M  V30 2805 C 269.115 -1.78952 0.754315 0
M  V30 2806 O 268.39 -1.93029 -0.23879 0
M  V30 2807 C 268.673 -1.55293 3.24894 0
M  V30 2808 C 268.526 -0.595929 4.45835 0
M  V30 2809 C 269.845 -2.5063 3.61763 0
M  V30 2810 H 266.964 -0.294369 0.67566 0
M  V30 2811 H 269.606 -0.0776472 1.89841 0
M  V30 2812 H 267.756 -2.1804 3.21544 0
M  V30 2813 H 269.428 0.0236262 4.61294 0
M  V30 2814 H 267.671 0.0916191 4.33703 0
M  V30 2815 H 268.342 -1.15004 5.39887 0
M  V30 2816 H 270.818 -1.97982 3.65981 0
M  V30 2817 H 269.694 -2.99376 4.60071 0
M  V30 2818 H 269.955 -3.3385 2.89821 0
M  V30 2819 N 269.014 -1.53014 -0.377408 0
M  V30 2820 C 269.924 -1.81557 -1.48574 0
M  V30 2821 C 270.94 -0.703102 -1.59162 0
M  V30 2822 O 272.116 -0.99192 -1.75279 0
M  V30 2823 C 269.181 -1.9889 -2.83978 0
M  V30 2824 C 268.242 -3.22801 -2.83016 0
M  V30 2825 C 267.475 -3.39298 -4.11962 0
M  V30 2826 O 267.698 -2.60345 -5.0752 0
M  V30 2827 O 266.632 -4.32604 -4.18494 0
M  V30 2828 H 270.458 -2.75695 -1.27382 0
M  V30 2829 H 268.043 -1.38248 -0.566373 0
M  V30 2830 H 269.925 -2.11931 -3.6423 0
M  V30 2831 H 268.6 -1.07942 -3.05172 0
M  V30 2832 H 267.507 -3.15193 -2.01505 0
M  V30 2833 H 268.84 -4.13632 -2.66775 0
M  V30 2834 N 270.492 0.636531 -1.44174 0
M  V30 2835 C 271.72 1.42353 -1.50144 0
M  V30 2836 C 272.135 1.88389 -0.124575 0
M  V30 2837 O 271.492 1.6051 0.868489 0
M  V30 2838 C 271.543 2.64744 -2.46156 0
M  V30 2839 O 271.264 2.20629 -3.7849 0
M  V30 2840 C 272.765 3.57929 -2.61537 0
M  V30 2841 H 269.985 0.436752 -0.5094 0
M  V30 2842 H 272.529 0.778933 -1.89084 0
M  V30 2843 H 270.684 3.25307 -2.10366 0
M  V30 2844 H 271.098 2.99938 -4.30276 0
M  V30 2845 H 272.572 4.40428 -3.32757 0
M  V30 2846 H 273.049 4.06382 -1.66585 0
M  V30 2847 H 273.655 3.03238 -2.98206 0
M  V30 2848 N 271.97 1.30982 0.876444 0
M  V30 2849 C 273.216 1.20474 1.63138 0
M  V30 2850 C 273.549 -0.238096 1.92735 0
M  V30 2851 O 272.824 -1.1692 1.55435 0
M  V30 2852 C 273.107 2.04244 2.96574 0
M  V30 2853 C 272.96 3.56793 2.73896 0
M  V30 2854 C 274.279 1.88684 3.97601 0
M  V30 2855 H 271.398 0.439001 0.591985 0
M  V30 2856 H 274.04 1.60704 1.01361 0
M  V30 2857 H 272.19 1.70063 3.493 0
M  V30 2858 H 273.862 4.01077 2.27892 0
M  V30 2859 H 272.105 3.80548 2.08245 0
M  V30 2860 H 272.776 4.10706 3.68815 0
M  V30 2861 H 275.252 2.18584 3.54062 0
M  V30 2862 H 274.128 2.4961 4.88862 0
M  V30 2863 H 274.389 0.848343 4.33884 0
M  V30 2864 N 273.449 -1.08991 1.13837 0
M  V30 2865 C 274.379 -2.17771 0.842507 0
M  V30 2866 C 275.36 -1.6892 -0.20001 0
M  V30 2867 O 276.545 -1.94113 -0.0579731 0
M  V30 2868 C 273.675 -3.4589 0.312644 0
M  V30 2869 C 272.629 -4.08099 1.28992 0
M  V30 2870 C 271.955 -5.31098 0.619623 0
M  V30 2871 C 273.255 -4.50077 2.65005 0
M  V30 2872 H 274.949 -2.42777 1.75213 0
M  V30 2873 H 272.495 -1.16682 0.843875 0
M  V30 2874 H 274.448 -4.21297 0.0933043 0
M  V30 2875 H 273.172 -3.20419 -0.632382 0
M  V30 2876 H 271.831 -3.34717 1.49533 0
M  V30 2877 H 271.479 -5.0191 -0.33102 0
M  V30 2878 H 271.179 -5.73674 1.27167 0
M  V30 2879 H 272.703 -6.09224 0.409669 0
M  V30 2880 H 274.117 -5.16688 2.48407 0
M  V30 2881 H 272.514 -5.03553 3.26427 0
M  V30 2882 H 273.584 -3.62257 3.22332 0
M  V30 2883 N 274.927 -0.932562 -1.27047 0
M  V30 2884 C 275.89 -0.440064 -2.24936 0
M  V30 2885 C 276.89 0.444071 -1.54547 0
M  V30 2886 O 278.08 0.244465 -1.72476 0
M  V30 2887 C 275.212 0.36678 -3.38921 0
M  V30 2888 H 276.405 -1.305 -2.70018 0
M  V30 2889 H 273.958 -0.713707 -1.39054 0
M  V30 2890 H 274.693 1.25033 -2.99228 0
M  V30 2891 H 274.478 -0.267204 -3.91188 0
M  V30 2892 H 275.968 0.701567 -4.11665 0
M  V30 2893 N 276.405 1.4127 -0.698611 0
M  V30 2894 C 277.653 2.00782 -0.230409 0
M  V30 2895 C 277.974 1.5562 1.17505 0
M  V30 2896 O 277.244 0.78815 1.79346 0
M  V30 2897 H 275.824 0.742464 -0.0821944 0
M  V30 2898 H 278.486 1.72852 -0.90045 0
M  V30 2899 H 277.582 3.11095 -0.25021 0
M  V30 2900 N 277.883 0.443576 1.51229 0
M  V30 2901 C 278.833 -0.382787 2.24764 0
M  V30 2902 C 279.817 -0.984836 1.27239 0
M  V30 2903 O 281.009 -0.901943 1.52296 0
M  V30 2904 C 278.138 -1.47989 3.09765 0
M  V30 2905 C 277.224 -0.886931 4.14722 0
M  V30 2906 N 277.615 -0.0237103 5.05794 0
M  V30 2907 C 275.913 -1.15385 4.30816 0
M  V30 2908 C 276.614 0.309971 5.80874 0
M  V30 2909 N 275.59 -0.307989 5.42727 0
M  V30 2910 H 279.392 0.282624 2.92538 0
M  V30 2911 H 276.906 0.256027 1.60369 0
M  V30 2912 H 278.903 -2.08482 3.61027 0
M  V30 2913 H 277.563 -2.14758 2.43535 0
M  V30 2914 H 278.574 0.34318 5.16762 0
M  V30 2915 H 275.251 -1.81857 3.75812 0
M  V30 2916 H 276.641 1.01279 6.64223 0
M  V30 2917 N 279.361 -1.56624 0.175154 0
M  V30 2918 C 280.271 -2.21741 -0.766042 0
M  V30 2919 C 281.287 -1.21023 -1.25018 0
M  V30 2920 O 282.463 -1.53697 -1.3015 0
M  V30 2921 C 279.528 -2.84839 -1.97655 0
M  V30 2922 C 278.589 -4.00769 -1.53892 0
M  V30 2923 C 277.822 -4.60849 -2.69173 0
M  V30 2924 O 278.045 -4.19823 -3.86141 0
M  V30 2925 O 276.979 -5.50655 -2.43028 0
M  V30 2926 H 280.805 -3.02738 -0.241585 0
M  V30 2927 H 278.39 -1.49305 -0.053222 0
M  V30 2928 H 280.272 -3.24834 -2.68442 0
M  V30 2929 H 278.947 -2.06836 -2.48999 0
M  V30 2930 H 277.854 -3.65436 -0.80044 0
M  V30 2931 H 279.187 -4.80376 -1.07236 0
M  V30 2932 N 280.839 0.0985539 -1.57292 0
M  V30 2933 C 282.116 0.834155 -1.76921 0
M  V30 2934 C 282.496 1.97101 -0.755928 0
M  V30 2935 O 281.844 2.27474 0.216245 0
M  V30 2936 C 282.054 1.33194 -3.22584 0
M  V30 2937 C 283.402 1.77611 -3.85668 0
M  V30 2938 O 284.426 1.42825 -3.26312 0
M  V30 2939 O 283.285 2.4192 -4.90038 0
M  V30 2940 H 280.379 0.397628 -0.725135 0
M  V30 2941 H 282.925 0.0807044 -1.69508 0
M  V30 2942 H 281.697 0.517248 -3.87866 0
M  V30 2943 H 281.32 2.1475 -3.34616 0
M  V30 2944 N 282.317 1.53212 0.369288 0
M  V30 2945 C 283.542 1.73423 1.1375 0
M  V30 2946 C 283.967 0.460404 1.82378 0
M  V30 2947 O 283.325 -0.585298 1.71592 0
M  V30 2948 C 283.373 2.89769 2.1463 0
M  V30 2949 O 282.477 2.58119 3.21634 0
M  V30 2950 H 281.818 0.576061 0.330227 0
M  V30 2951 H 284.348 2.00083 0.427547 0
M  V30 2952 H 284.358 3.15829 2.58294 0
M  V30 2953 H 283.033 3.8217 1.64071 0
M  V30 2954 H 281.61 2.42864 2.82969 0
M  V30 2955 N 283.795 -0.628877 1.44509 0
M  V30 2956 C 284.743 -1.76193 1.51852 0
M  V30 2957 C 285.737 -1.64849 0.390042 0
M  V30 2958 O 286.943 -1.709 0.565082 0
M  V30 2959 H 283.318 -0.581728 0.476547 0
M  V30 2960 H 285.289 -1.67123 2.47209 0
M  V30 2961 C 284.038 -3.14533 1.48204 0
M  V30 2962 H 283.361 -3.23911 2.34354 0
M  V30 2963 H 284.801 -3.93701 1.57402 0
M  V30 2964 C 283.26 -3.36287 0.203142 0
M  V30 2965 O 283.79 -3.9509 -0.725745 0
M  V30 2966 N 281.996 -2.90408 0.105563 0
M  V30 2967 H 281.543 -2.42739 0.862301 0
M  V30 2968 H 281.501 -3.05339 -0.749371 0
M  V30 2969 N 285.273 -1.31445 -0.869486 0
M  V30 2970 C 286.521 -1.20918 -1.61936 0
M  V30 2971 C 286.842 0.232683 -1.93607 0
M  V30 2972 O 286.112 1.15352 -1.58338 0
M  V30 2973 H 284.692 -0.44454 -0.600328 0
M  V30 2974 H 287.354 -1.64776 -1.0409 0
M  V30 2975 H 286.45 -1.78124 -2.56278 0
M  V30 2976 N 286.751 1.08385 -1.14413 0
M  V30 2977 C 287.991 1.8238 -0.922868 0
M  V30 2978 C 288.355 1.84225 0.540842 0
M  V30 2979 O 289.556 2.53985 0.880058 0
M  V30 2980 C 287.827 3.24048 -1.50757 0
M  V30 2981 S 289.386 4.14917 -1.4279 0
M  V30 2982 H 286.204 0.628524 -0.332384 0
M  V30 2983 H 288.806 1.30278 -1.45766 0
M  V30 2984 H 287.51 3.20288 -2.56601 0
M  V30 2985 H 287.041 3.81224 -0.971178 0
M  V30 2986 H 289.056 4.94473 -0.413582 0
M  V30 2987 N 288.23 0.939286 1.26551 0
M  V30 2988 C 289.479 0.581601 1.93133 0
M  V30 2989 C 289.792 -0.883224 1.74524 0
M  V30 2990 O 290.998 -1.3502 2.35546 0
M  V30 2991 C 289.454 0.989425 3.46032 0
M  V30 2992 C 289.062 2.47573 3.73379 0
M  V30 2993 C 290.806 0.703544 4.18629 0
M  V30 2994 C 288.713 2.82235 5.19709 0
M  V30 2995 H 287.643 0.213803 0.723052 0
M  V30 2996 H 290.294 1.14167 1.4366 0
M  V30 2997 H 288.676 0.357902 3.94379 0
M  V30 2998 H 289.85 3.15614 3.35744 0
M  V30 2999 H 288.165 2.73471 3.1401 0
M  V30 3000 H 290.762 0.938869 5.26393 0
M  V30 3001 H 291.105 -0.359639 4.14744 0
M  V30 3002 H 291.638 1.2947 3.76141 0
M  V30 3003 H 288.377 3.87509 5.28694 0
M  V30 3004 H 287.897 2.18854 5.58447 0
M  V30 3005 H 289.576 2.70599 5.87695 0
M  V30 3006 N 289.708 -1.40897 0.706093 0
M  V30 3007 C 290.656 -2.32572 0.0361893 0
M  V30 3008 C 291.65 -1.51532 -0.757266 0
M  V30 3009 O 292.856 -1.67396 -0.661703 0
M  V30 3010 H 289.231 -0.751966 -0.00709935 0
M  V30 3011 H 291.202 -2.86733 0.826249 0
M  V30 3012 C 289.951 -3.36418 -0.87854 0
M  V30 3013 H 289.274 -3.98836 -0.277401 0
M  V30 3014 H 290.714 -4.0308 -1.3154 0
M  V30 3015 C 289.173 -2.71141 -1.99961 0
M  V30 3016 O 289.703 -2.56735 -3.0895 0
M  V30 3017 N 287.909 -2.29671 -1.78043 0
M  V30 3018 H 287.456 -2.41588 -0.894042 0
M  V30 3019 H 287.414 -1.86332 -2.53235 0
M  V30 3020 N 291.186 -0.45159 -1.50991 0
M  V30 3021 C 292.416 0.108177 -2.06317 0
M  V30 3022 C 292.824 1.35774 -1.31765 0
M  V30 3023 O 292.167 1.79838 -0.374694 0
M  V30 3024 C 292.229 0.481659 -3.56259 0
M  V30 3025 C 291.893 -0.663114 -4.52163 0
M  V30 3026 C 292.89 -1.53947 -4.96585 0
M  V30 3027 C 290.575 -0.8479 -4.95092 0
M  V30 3028 C 292.569 -2.58518 -5.82621 0
M  V30 3029 C 290.256 -1.89686 -5.80915 0
M  V30 3030 C 291.254 -2.76388 -6.24579 0
M  V30 3031 O 290.942 -3.79482 -7.08695 0
M  V30 3032 H 290.674 0.00499183 -0.675982 0
M  V30 3033 H 293.228 -0.633659 -1.95381 0
M  V30 3034 H 291.458 1.27641 -3.65027 0
M  V30 3035 H 293.147 0.974233 -3.94035 0
M  V30 3036 H 293.913 -1.4083 -4.64103 0
M  V30 3037 H 289.792 -0.18258 -4.60638 0
M  V30 3038 H 293.336 -3.26224 -6.16623 0
M  V30 3039 H 289.233 -2.02817 -6.12809 0
M  V30 3040 H 290.001 -3.76234 -7.26905 0
M  V30 3041 N 292.664 1.56529 -0.183458 0
M  V30 3042 C 293.574 2.22144 0.754272 0
M  V30 3043 C 294.59 1.21684 1.24374 0
M  V30 3044 O 295.766 1.54385 1.29333 0
M  V30 3045 C 292.831 2.85884 1.96141 0
M  V30 3046 C 291.892 4.01579 1.51765 0
M  V30 3047 C 291.125 4.6227 2.66725 0
M  V30 3048 O 291.348 4.21865 3.83909 0
M  V30 3049 O 290.282 5.51936 2.40104 0
M  V30 3050 H 294.108 3.02861 0.225527 0
M  V30 3051 H 291.693 1.49331 0.0453032 0
M  V30 3052 H 293.575 3.26253 2.66715 0
M  V30 3053 H 292.25 2.08154 2.47899 0
M  V30 3054 H 291.157 3.65856 0.781049 0
M  V30 3055 H 292.49 4.80938 1.04686 0
M  V30 3056 N 294.142 -0.090211 1.57342 0
M  V30 3057 C 295.105 -1.09335 2.01441 0
M  V30 3058 C 296.105 -1.32666 0.908641 0
M  V30 3059 O 297.295 -1.28697 1.174 0
M  V30 3060 C 294.427 -2.44136 2.3793 0
M  V30 3061 H 295.62 -0.713662 2.91285 0
M  V30 3062 H 293.173 -0.335404 1.52659 0
M  V30 3063 H 293.908 -2.86972 1.51055 0
M  V30 3064 H 293.693 -2.28548 3.18603 0
M  V30 3065 H 295.183 -3.16277 2.72688 0
M  V30 3066 N 295.62 -1.53406 -0.361157 0
M  V30 3067 C 296.867 -1.69802 -1.10333 0
M  V30 3068 C 297.195 -0.452087 -1.89173 0
M  V30 3069 O 296.45 0.566017 -1.87336 0
M  V30 3070 C 296.749 -2.90211 -2.08596 0
M  V30 3071 C 296.415 -4.26539 -1.46203 0
M  V30 3072 C 295.077 -4.6361 -1.28915 0
M  V30 3073 C 297.429 -5.113 -1.01101 0
M  V30 3074 C 294.757 -5.83075 -0.651157 0
M  V30 3075 C 297.109 -6.31415 -0.387007 0
M  V30 3076 C 295.773 -6.67195 -0.201657 0
M  V30 3077 H 295.043 -0.621351 -0.403737 0
M  V30 3078 H 297.69 -1.87598 -0.384609 0
M  V30 3079 H 295.995 -2.66946 -2.86788 0
M  V30 3080 H 297.692 -3.00091 -2.65982 0
M  V30 3081 H 294.282 -3.97352 -1.60653 0
M  V30 3082 H 298.466 -4.83206 -1.13249 0
M  V30 3083 H 293.722 -6.09385 -0.496006 0
M  V30 3084 H 297.896 -6.96394 -0.0293563 0
M  V30 3085 H 295.523 -7.59628 0.294766 0
M  V30 3086 N 297.098 0.621204 -1.44841 0
M  V30 3087 C 298.028 1.74366 -1.55303 0
M  V30 3088 C 299.009 1.65199 -0.405385 0
M  V30 3089 O 300.194 1.83807 -0.626787 0
M  V30 3090 C 297.324 3.12931 -1.50637 0
M  V30 3091 C 296.278 3.36896 -2.63979 0
M  V30 3092 C 295.604 4.75594 -2.44366 0
M  V30 3093 C 296.904 3.28483 -4.06074 0
M  V30 3094 H 298.598 1.65867 -2.49256 0
M  V30 3095 H 296.144 0.796558 -1.19962 0
M  V30 3096 H 298.097 3.9124 -1.56555 0
M  V30 3097 H 296.821 3.22237 -0.532057 0
M  V30 3098 H 295.48 2.60972 -2.57467 0
M  V30 3099 H 295.128 4.81616 -1.45105 0
M  V30 3100 H 294.828 4.92586 -3.20364 0
M  V30 3101 H 296.352 5.5612 -2.52117 0
M  V30 3102 H 297.766 3.96684 -4.13902 0
M  V30 3103 H 296.163 3.57008 -4.82354 0
M  V30 3104 H 297.233 2.26133 -4.28943 0
M  V30 3105 N 298.576 1.31904 0.862503 0
M  V30 3106 C 299.523 1.20182 1.9704 0
M  V30 3107 C 300.493 0.0858247 1.65878 0
M  V30 3108 O 301.678 0.26 1.8902 0
M  V30 3109 C 298.818 0.922797 3.32533 0
M  V30 3110 C 297.931 2.12284 3.76244 0
M  V30 3111 C 297.066 1.77996 5.00491 0
M  V30 3112 C 296.105 2.94366 5.36671 0
M  V30 3113 N 295.242 2.60223 6.52095 0
M  V30 3114 H 300.082 2.14951 2.06398 0
M  V30 3115 H 297.619 1.06917 1.01031 0
M  V30 3116 H 299.577 0.741548 4.10557 0
M  V30 3117 H 298.207 0.0119227 3.22798 0
M  V30 3118 H 297.259 2.41461 2.9394 0
M  V30 3119 H 298.571 2.99357 3.98982 0
M  V30 3120 H 297.725 1.56377 5.862 0
M  V30 3121 H 296.464 0.881252 4.79672 0
M  V30 3122 H 295.469 3.16625 4.49476 0
M  V30 3123 H 296.694 3.84957 5.59451 0
M  V30 3124 H 294.64 1.72884 6.32809 0
M  V30 3125 H 294.557 3.40827 6.74814 0
M  V30 3126 H 295.825 2.42016 7.40978 0
M  V30 3127 N 300.054 -1.07777 1.14986 0
M  V30 3128 C 301.004 -2.13082 0.811181 0
M  V30 3129 C 301.988 -1.59619 -0.202597 0
M  V30 3130 O 303.18 -1.77 -0.00398275 0
M  V30 3131 C 300.309 -3.42009 0.297439 0
M  V30 3132 C 299.395 -4.02337 1.34112 0
M  V30 3133 N 299.786 -4.36982 2.54716 0
M  V30 3134 C 298.084 -4.29752 1.19285 0
M  V30 3135 C 298.785 -4.84729 3.21578 0
M  V30 3136 N 297.761 -4.83233 2.48972 0
M  V30 3137 H 301.563 -2.37696 1.72853 0
M  V30 3138 H 299.077 -1.25173 1.03468 0
M  V30 3139 H 301.074 -4.16884 0.0364777 0
M  V30 3140 H 299.734 -3.18841 -0.614022 0
M  V30 3141 H 300.745 -4.27807 2.91894 0
M  V30 3142 H 297.422 -4.16106 0.340926 0
M  V30 3143 H 298.812 -5.20863 4.24442 0
M  V30 3144 N 301.532 -0.945985 -1.26051 0
M  V30 3145 C 302.781 -0.591836 -1.92822 0
M  V30 3146 C 303.094 0.873956 -1.7499 0
M  V30 3147 O 304.3 1.33769 -2.36259 0
M  V30 3148 C 302.756 -1.00776 -3.45503 0
M  V30 3149 C 302.364 -2.4955 -3.7206 0
M  V30 3150 C 304.108 -0.725735 -4.1825 0
M  V30 3151 C 302.015 -2.84988 -5.18205 0
M  V30 3152 H 300.945 -0.217635 -0.721908 0
M  V30 3153 H 303.596 -1.14927 -1.43052 0
M  V30 3154 H 301.978 -0.378812 -3.94184 0
M  V30 3155 H 303.152 -3.1739 -3.34066 0
M  V30 3156 H 301.467 -2.75133 -3.12555 0
M  V30 3157 H 304.064 -0.966771 -5.25887 0
M  V30 3158 H 304.407 0.337639 -4.14929 0
M  V30 3159 H 304.94 -1.31463 -3.7545 0
M  V30 3160 H 301.679 -3.90307 -5.26631 0
M  V30 3161 H 301.199 -2.21813 -5.57278 0
M  V30 3162 H 302.878 -2.73712 -5.86252 0
M  V30 3163 N 303.011 1.40521 -0.713556 0
M  V30 3164 C 303.941 2.33381 -0.0743864 0
M  V30 3165 C 304.922 1.52784 0.747735 0
M  V30 3166 O 306.107 1.81258 0.697071 0
M  V30 3167 C 303.237 3.36748 0.849598 0
M  V30 3168 C 302.191 4.27793 0.133247 0
M  V30 3169 C 301.517 5.21679 1.17281 0
M  V30 3170 C 302.817 5.12415 -1.01134 0
M  V30 3171 H 304.511 2.87081 -0.850007 0
M  V30 3172 H 302.057 1.38034 -0.410201 0
M  V30 3173 H 304.01 4.00648 1.30612 0
M  V30 3174 H 302.734 2.81439 1.65709 0
M  V30 3175 H 301.393 3.65342 -0.303426 0
M  V30 3176 H 301.041 4.62677 1.9733 0
M  V30 3177 H 300.741 5.83435 0.698397 0
M  V30 3178 H 302.265 5.88456 1.62947 0
M  V30 3179 H 303.679 5.69781 -0.634274 0
M  V30 3180 H 302.076 5.83203 -1.41399 0
M  V30 3181 H 303.146 4.48514 -1.84292 0
M  V30 3182 N 304.489 0.459591 1.5075 0
M  V30 3183 C 305.714 -0.0996819 2.0716 0
M  V30 3184 C 306.139 -1.33761 1.32249 0
M  V30 3185 O 305.497 -1.77551 0.366786 0
M  V30 3186 C 305.545 -0.378226 3.58611 0
M  V30 3187 O 304.649 -1.46081 3.85661 0
M  V30 3188 H 303.99 0.00791392 0.663953 0
M  V30 3189 H 306.52 0.647329 1.9409 0
M  V30 3190 H 306.53 -0.622135 4.03229 0
M  V30 3191 H 305.205 0.526439 4.12555 0
M  V30 3192 H 303.782 -1.20511 3.5289 0
M  V30 3193 N 305.967 -1.56429 0.191757 0
M  V30 3194 C 307.213 -1.97777 -0.448554 0
M  V30 3195 C 307.546 -1.07847 -1.61501 0
M  V30 3196 O 306.821 -0.129774 -1.94067 0
M  V30 3197 C 307.104 -3.48362 -0.911906 0
M  V30 3198 C 306.957 -4.4907 0.256136 0
M  V30 3199 C 308.276 -4.02561 -1.77857 0
M  V30 3200 H 305.395 -0.719071 -0.161572 0
M  V30 3201 H 308.037 -1.87896 0.282007 0
M  V30 3202 H 306.187 -3.56914 -1.53442 0
M  V30 3203 H 307.859 -4.5256 0.893733 0
M  V30 3204 H 306.102 -4.24181 0.908436 0
M  V30 3205 H 306.773 -5.51889 -0.11053 0
M  V30 3206 H 309.249 -3.96767 -1.25359 0
M  V30 3207 H 308.125 -5.08301 -2.07174 0
M  V30 3208 H 308.386 -3.47616 -2.73158 0
M  V30 3209 O 307.484 -0.0545306 -1.61408 0
M  V30 3210 H 308.175 0.554314 -1.85599 0
M  V30 END ATOM
M  V30 BEGIN BOND
M  V30 END BOND
M  V30 END CTAB
M  END
$$$$
