drugbank_target|P49788 Retinoic acid receptor responder protein 1 (DB00755)
 OpenBabel12092119363D

  0  0  0     0  0            999 V3000
M  V30 BEGIN CTAB
M  V30 COUNTS 4697 4760 0 0 0
M  V30 BEGIN ATOM
M  V30 1 H -0.908 1.98254 -0.117106 0
M  V30 2 N 0 1.576 0 0
M  V30 3 C 0.933 2.03868 1.02534 0
M  V30 4 C 1.911 0.928543 1.3348 0
M  V30 5 O 3.095 1.19667 1.45644 0
M  V30 6 C 0.222 2.43627 2.35294 0
M  V30 7 C -0.732 3.65373 2.2001 0
M  V30 8 S 0.101 5.13292 1.52614 0
M  V30 9 C 1.257 5.56322 2.86805 0
M  V30 10 H 1.49 2.90518 0.631377 0
M  V30 11 H -0.977 1.52953 0.210867 0
M  V30 12 H 0.981 2.67203 3.11629 0
M  V30 13 H -0.358 1.57376 2.7183 0
M  V30 14 H -1.165 3.90944 3.18086 0
M  V30 15 H -1.563 3.418 1.51819 0
M  V30 16 H 0.729 5.58782 3.83104 0
M  V30 17 H 1.672 6.56266 2.65933 0
M  V30 18 H 2.08 4.83886 2.90714 0
M  V30 19 N 1.4781 -0.272755 1.55222 0
M  V30 20 C 2.4101 -1.35946 1.8453 0
M  V30 21 C 3.4231 -1.45525 0.729818 0
M  V30 22 O 4.6121 -1.47337 1.00767 0
M  V30 23 C 1.7121 -2.74069 1.99347 0
M  V30 24 C 0.8851 -2.87079 3.30007 0
M  V30 25 C -0.0559 -4.05879 3.34886 0
M  V30 26 O -1.0299 -3.96626 4.08261 0
M  V30 27 N 0.1721 -5.17857 2.62307 0
M  V30 28 H 2.9371 -1.11149 2.78327 0
M  V30 29 H 0.4981 -0.462869 1.55142 0
M  V30 30 H 2.4901 -3.51838 1.99981 0
M  V30 31 H 1.0601 -2.91688 1.12415 0
M  V30 32 H 0.2801 -1.96193 3.41909 0
M  V30 33 H 1.5681 -2.92701 4.16177 0
M  V30 34 H 0.9661 -5.28261 2.02377 0
M  V30 35 H -0.4769 -5.93855 2.68663 0
M  V30 36 N 2.9562 -1.48159 -0.537278 0
M  V30 37 C 4.3672 -1.49429 -1.11928 0
M  V30 38 C 4.7182 -0.26 -1.9447 0
M  V30 39 O 3.8432 0.633489 -2.0692 0
M  V30 40 C 4.4382 -2.70758 -2.03656 0
M  V30 41 C 2.9972 -2.74923 -2.57088 0
M  V30 42 C 2.1442 -2.42835 -1.3389 0
M  V30 43 H 5.0952 -1.55381 -0.322886 0
M  V30 44 H 5.1162 -2.48861 -2.87834 0
M  V30 45 H 4.6282 -3.60575 -1.43553 0
M  V30 46 H 2.7292 -1.89296 -3.20933 0
M  V30 47 H 2.8422 -3.76157 -2.9672 0
M  V30 48 H 1.2062 -1.93836 -1.65226 0
M  V30 49 H 1.9892 -3.34884 -0.755504 0
M  V30 50 N 4.4343 0.785586 -1.36625 0
M  V30 51 C 5.8503 1.08419 -1.17122 0
M  V30 52 C 6.0503 2.015 0.00208491 0
M  V30 53 O 5.1063 2.43551 0.666278 0
M  V30 54 C 6.4193 1.69498 -2.48377 0
M  V30 55 C 7.9673 1.81821 -2.54775 0
M  V30 56 C 8.4423 2.46315 -3.86126 0
M  V30 57 N 9.9333 2.53779 -3.87492 0
M  V30 58 C 10.6683 3.045 -4.85868 0
M  V30 59 N 10.1643 3.55499 -5.94637 0
M  V30 60 N 11.9573 3.03247 -4.73284 0
M  V30 61 H 4.1083 0.167264 -2.1174 0
M  V30 62 H 6.3713 0.13682 -0.938075 0
M  V30 63 H 6.0773 1.08571 -3.34522 0
M  V30 64 H 5.9513 2.6896 -2.64462 0
M  V30 65 H 8.3383 2.41884 -1.69045 0
M  V30 66 H 8.4193 0.811532 -2.42586 0
M  V30 67 H 8.0633 1.86895 -4.72263 0
M  V30 68 H 7.9933 3.47561 -3.95612 0
M  V30 69 H 10.4843 2.17672 -3.08913 0
M  V30 70 H 10.7973 3.92562 -6.65669 0
M  V30 71 H 9.1423 3.5364 -5.98301 0
M  V30 72 H 12.3333 2.62696 -3.87438 0
M  V30 73 H 12.5063 3.42467 -5.50109 0
M  V30 74 N 5.9124 1.20967 1.01018 0
M  V30 75 C 7.3284 0.965905 1.27053 0
M  V30 76 C 7.5284 -0.350785 1.98423 0
M  V30 77 O 6.5844 -1.07773 2.28344 0
M  V30 78 C 7.8974 2.15294 2.09926 0
M  V30 79 C 9.4454 2.19463 2.23171 0
M  V30 80 C 9.9204 3.3767 3.09424 0
M  V30 81 N 11.4114 3.37724 3.17012 0
M  V30 82 C 12.1464 4.25837 3.83993 0
M  V30 83 N 11.6424 5.24138 4.53047 0
M  V30 84 N 13.4354 4.1366 3.80581 0
M  V30 85 H 5.5864 2.0565 0.531194 0
M  V30 86 H 7.8494 0.90024 0.297106 0
M  V30 87 H 7.5554 3.10684 1.64828 0
M  V30 88 H 7.4294 2.13923 3.10672 0
M  V30 89 H 9.8164 1.24632 2.6749 0
M  V30 90 H 9.8974 2.2488 1.21912 0
M  V30 91 H 9.5414 4.32791 2.65808 0
M  V30 92 H 9.4714 3.29491 4.10784 0
M  V30 93 H 11.9624 2.6658 2.6785 0
M  V30 94 H 12.2754 5.87684 5.01844 0
M  V30 95 H 10.6204 5.28068 4.5185 0
M  V30 96 H 13.8114 3.36127 3.25785 0
M  V30 97 H 13.9844 4.82538 4.32505 0
M  V30 98 N 7.3905 -1.2043 1.01659 0
M  V30 99 C 8.3225 -2.22626 0.544988 0
M  V30 100 C 9.3355 -1.58479 -0.372609 0
M  V30 101 O 10.5245 -1.77679 -0.170958 0
M  V30 102 C 7.6245 -3.38141 -0.22663 0
M  V30 103 C 6.7975 -4.31877 0.692876 0
M  V30 104 C 5.8565 -5.26191 -0.0311616 0
M  V30 105 O 4.8825 -5.6612 0.591343 0
M  V30 106 N 6.0845 -5.65618 -1.30601 0
M  V30 107 H 8.8495 -2.63716 1.42388 0
M  V30 108 H 6.4105 -1.34971 0.894116 0
M  V30 109 H 8.4025 -3.98239 -0.72024 0
M  V30 110 H 6.9725 -2.95943 -1.00681 0
M  V30 111 H 6.1925 -3.69746 1.36679 0
M  V30 112 H 7.4805 -4.91426 1.31824 0
M  V30 113 H 6.8785 -5.3519 -1.83269 0
M  V30 114 H 5.4355 -6.28025 -1.74435 0
M  V30 115 N 8.8686 -0.792821 -1.36206 0
M  V30 116 C 10.2846 -0.474903 -1.52371 0
M  V30 117 C 10.4846 1.00622 -1.74578 0
M  V30 118 O 9.5406 1.79162 -1.77924 0
M  V30 119 C 10.8536 -1.3083 -2.70747 0
M  V30 120 C 12.4016 -1.30234 -2.84619 0
M  V30 121 C 12.8766 -2.11956 -4.06004 0
M  V30 122 N 14.3676 -2.09419 -4.13156 0
M  V30 123 C 15.1026 -2.69419 -5.06163 0
M  V30 124 N 14.5986 -3.3829 -6.04592 0
M  V30 125 N 16.3916 -2.59134 -4.98804 0
M  V30 126 H 8.5426 -1.75222 -1.20046 0
M  V30 127 H 10.8056 -0.745024 -0.586211 0
M  V30 128 H 10.5116 -2.35881 -2.6087 0
M  V30 129 H 10.3856 -0.95196 -3.6499 0
M  V30 130 H 12.7726 -0.259748 -2.93955 0
M  V30 131 H 12.8536 -1.69847 -1.91274 0
M  V30 132 H 12.4976 -3.16248 -3.97429 0
M  V30 133 H 12.4276 -1.69711 -4.98503 0
M  V30 134 H 14.9186 -1.59297 -3.42685 0
M  V30 135 H 15.2316 -3.81394 -6.7213 0
M  V30 136 H 13.5766 -3.42393 -6.04807 0
M  V30 137 H 16.7676 -2.04927 -4.20859 0
M  V30 138 H 16.9406 -3.06185 -5.711 0
M  V30 139 N 10.3467 1.47872 -0.545128 0
M  V30 140 C 11.2767 2.32661 0.197793 0
M  V30 141 C 12.2577 1.43041 0.920504 0
M  V30 142 O 13.4427 1.71912 0.90333 0
M  V30 143 C 10.5727 3.24569 1.23582 0
M  V30 144 C 9.5267 4.23333 0.630323 0
M  V30 145 C 8.8527 5.0448 1.77211 0
M  V30 146 C 10.1527 5.20704 -0.407974 0
M  V30 147 H 11.8467 2.95024 -0.510045 0
M  V30 148 H 9.3927 1.4187 -0.246731 0
M  V30 149 H 11.3457 3.8272 1.76362 0
M  V30 150 H 10.0697 2.60236 1.97344 0
M  V30 151 H 8.7287 3.6639 0.123922 0
M  V30 152 H 8.3767 4.36561 2.49847 0
M  V30 153 H 8.0767 5.71339 1.37281 0
M  V30 154 H 9.6007 5.65487 2.3034 0
M  V30 155 H 11.0147 5.7329 0.033305 0
M  V30 156 H 9.4117 5.95699 -0.725486 0
M  V30 157 H 10.4817 4.66917 -1.30828 0
M  V30 158 N 11.8248 0.280983 1.55075 0
M  V30 159 C 13.2358 -0.215629 1.85451 0
M  V30 160 C 13.5868 -1.54991 1.203 0
M  V30 161 O 12.7118 -2.10699 0.493435 0
M  V30 162 C 13.3068 -0.398026 3.36454 0
M  V30 163 C 11.8658 -0.838866 3.66933 0
M  V30 164 C 11.0128 0.064458 2.77225 0
M  V30 165 H 13.9638 0.502601 1.50531 0
M  V30 166 H 13.9848 -1.23569 3.59876 0
M  V30 167 H 13.4968 0.573241 3.83843 0
M  V30 168 H 11.5978 -1.8214 3.25048 0
M  V30 169 H 11.7108 -0.672123 4.74362 0
M  V30 170 H 10.0748 -0.452863 2.50642 0
M  V30 171 H 10.8578 1.03172 3.2743 0
M  V30 172 N 13.3029 -1.57598 0.00835791 0
M  V30 173 C 14.2659 -2.07884 -0.965242 0
M  V30 174 C 15.2659 -0.989825 -1.26725 0
M  V30 175 O 16.4559 -1.25218 -1.21104 0
M  V30 176 C 13.5879 -2.52731 -2.28779 0
M  V30 177 H 14.7809 -2.95178 -0.530112 0
M  V30 178 H 12.3339 -1.54458 -0.239283 0
M  V30 179 H 13.0689 -1.68705 -2.76964 0
M  V30 180 H 12.8539 -3.32272 -2.08177 0
M  V30 181 H 14.3439 -2.91933 -2.98605 0
M  V30 182 N 14.781 0.264519 -1.55364 0
M  V30 183 C 16.192 0.834936 -1.6699 0
M  V30 184 C 16.543 1.86718 -0.602552 0
M  V30 185 O 15.668 2.14899 0.254425 0
M  V30 186 C 16.263 1.5212 -3.02729 0
M  V30 187 C 14.822 2.03954 -3.16354 0
M  V30 188 C 13.969 0.884498 -2.62815 0
M  V30 189 H 16.92 0.0406869 -1.58648 0
M  V30 190 H 16.941 2.38853 -2.96191 0
M  V30 191 H 16.453 0.769668 -3.80392 0
M  V30 192 H 14.554 2.82041 -2.43482 0
M  V30 193 H 14.667 2.24902 -4.23032 0
M  V30 194 H 13.031 1.2802 -2.20188 0
M  V30 195 H 13.814 0.14634 -3.42988 0
M  V30 196 N 16.2591 1.48442 0.529413 0
M  V30 197 C 17.5051 1.57699 1.28463 0
M  V30 198 C 17.8601 0.247913 1.90796 0
M  V30 199 O 17.1531 -0.749279 1.76342 0
M  V30 200 C 17.3471 2.6523 2.39558 0
M  V30 201 C 17.1761 4.08464 1.88114 0
M  V30 202 C 15.9461 4.75596 1.70693 0
M  V30 203 C 18.1441 4.94613 1.40935 0
M  V30 204 N 16.1261 6.03245 1.13881 0
M  V30 205 C 17.4971 6.12511 0.960734 0
M  V30 206 C 19.5521 4.80833 1.29243 0
M  V30 207 C 18.2551 7.18149 0.406792 0
M  V30 208 C 20.2811 5.86593 0.752487 0
M  V30 209 C 19.6431 7.037 0.313946 0
M  V30 210 H 15.7421 0.631608 0.46108 0
M  V30 211 H 18.3261 1.85325 0.596886 0
M  V30 212 H 16.4971 2.39425 3.05827 0
M  V30 213 H 18.2291 2.64169 3.06589 0
M  V30 214 H 14.9841 4.31938 1.94232 0
M  V30 215 H 15.4081 6.71324 0.874831 0
M  V30 216 H 20.0501 3.90635 1.61754 0
M  V30 217 H 17.7681 8.0807 0.0693671 0
M  V30 218 H 21.3541 5.77985 0.665192 0
M  V30 219 H 20.2341 7.8414 -0.0973632 0
M  V30 220 N 17.7372 -0.778329 1.37039 0
M  V30 221 C 18.9622 -1.57248 1.35233 0
M  V30 222 C 19.3872 -1.87999 -0.0615568 0
M  V30 223 O 18.7452 -1.48734 -1.03672 0
M  V30 224 C 18.7932 -2.86353 2.19167 0
M  V30 225 O 17.8972 -3.80442 1.59178 0
M  V30 226 H 17.2382 -0.476569 0.462362 0
M  V30 227 H 19.7682 -0.963853 1.80474 0
M  V30 228 H 19.7782 -3.35519 2.32145 0
M  V30 229 H 18.4532 -2.63299 3.21942 0
M  V30 230 H 17.0302 -3.39067 1.55203 0
M  V30 231 N 19.2153 -1.21501 -1.00376 0
M  V30 232 C 20.4633 -1.03095 -1.73827 0
M  V30 233 C 20.7843 0.436341 -1.90055 0
M  V30 234 O 20.0543 1.31466 -1.45236 0
M  V30 235 H 18.6343 -0.378487 -0.644016 0
M  V30 236 H 21.2963 -1.52831 -1.20949 0
M  V30 237 H 20.3923 -1.49991 -2.73695 0
M  V30 238 N 20.6934 1.19889 -1.02296 0
M  V30 239 C 22.1044 1.71124 -0.746568 0
M  V30 240 C 22.4554 1.81939 0.734335 0
M  V30 241 O 21.5804 1.48639 1.57275 0
M  V30 242 C 22.1754 3.10804 -1.34857 0
M  V30 243 C 20.7344 3.59323 -1.1209 0
M  V30 244 C 19.8814 2.3635 -1.45031 0
M  V30 245 H 22.8324 1.04813 -1.19163 0
M  V30 246 H 22.8534 3.73186 -0.742437 0
M  V30 247 H 22.3654 3.029 -2.42638 0
M  V30 248 H 20.4664 3.7255 -0.0610337 0
M  V30 249 H 20.5794 4.4378 -1.80544 0
M  V30 250 H 18.9434 2.39399 -0.869487 0
M  V30 251 H 19.7264 2.31081 -2.53883 0
M  V30 252 N 22.1715 0.800033 1.35784 0
M  V30 253 C 23.5875 0.482977 1.52117 0
M  V30 254 C 23.7875 -0.996948 1.75109 0
M  V30 255 O 22.8435 -1.78216 1.78872 0
M  V30 256 C 24.1565 1.32264 2.70049 0
M  V30 257 C 25.7045 1.31742 2.83924 0
M  V30 258 C 26.1795 2.14106 4.04874 0
M  V30 259 N 27.6705 2.11607 4.12039 0
M  V30 260 C 28.4055 2.72099 5.04727 0
M  V30 261 N 27.9015 3.41492 6.02789 0
M  V30 262 N 29.6945 2.61776 4.97423 0
M  V30 263 H 21.8455 1.75856 1.19115 0
M  V30 264 H 24.1085 0.748122 0.582252 0
M  V30 265 H 23.8145 2.37261 2.59616 0
M  V30 266 H 23.6885 0.971303 3.6448 0
M  V30 267 H 26.0755 0.275333 2.93813 0
M  V30 268 H 26.1565 1.70859 1.9037 0
M  V30 269 H 25.8005 3.18351 3.95746 0
M  V30 270 H 25.7305 1.72353 4.97596 0
M  V30 271 H 28.2215 1.61112 3.41835 0
M  V30 272 H 28.5345 3.84953 6.70098 0
M  V30 273 H 26.8795 3.45596 6.02983 0
M  V30 274 H 30.0705 2.07157 4.19766 0
M  V30 275 H 30.2435 3.0921 5.69468 0
M  V30 276 N 23.6496 -1.47581 0.552962 0
M  V30 277 C 24.8976 -2.02082 0.0272703 0
M  V30 278 C 25.2186 -1.4301 -1.32563 0
M  V30 279 O 24.4886 -0.603745 -1.86365 0
M  V30 280 H 23.0686 -0.746966 0.00709182 0
M  V30 281 H 25.7306 -1.81033 0.722008 0
M  V30 282 H 24.8266 -3.12034 -0.0639951 0
M  V30 283 N 25.1277 -0.289203 -1.54924 0
M  V30 284 C 26.5387 0.205791 -1.85562 0
M  V30 285 C 26.8897 1.54351 -1.2112 0
M  V30 286 O 26.0147 2.10435 -0.504601 0
M  V30 287 C 26.6097 0.380177 -3.3666 0
M  V30 288 C 25.1687 0.819395 -3.67373 0
M  V30 289 C 24.3157 -0.079159 -2.77187 0
M  V30 290 H 27.2667 -0.510577 -1.50262 0
M  V30 291 H 27.2877 1.21659 -3.60526 0
M  V30 292 H 26.7997 -0.593589 -3.83534 0
M  V30 293 H 24.9007 1.80413 -3.26009 0
M  V30 294 H 25.0137 0.646957 -4.74712 0
M  V30 295 H 23.3777 0.439565 -2.50878 0
M  V30 296 H 24.1607 -1.04906 -3.26878 0
M  V30 297 N 26.6058 1.57591 -0.0167156 0
M  V30 298 C 28.0218 1.55946 0.339557 0
M  V30 299 C 28.2218 1.02109 1.73713 0
M  V30 300 O 27.2778 0.662303 2.43659 0
M  V30 301 C 28.5908 3.00037 0.199499 0
M  V30 302 C 30.1388 3.11805 0.273193 0
M  V30 303 C 30.6138 4.57713 0.162068 0
M  V30 304 N 32.1048 4.6268 0.219444 0
M  V30 305 C 32.8398 5.73185 0.157054 0
M  V30 306 N 32.3358 6.92786 0.0442936 0
M  V30 307 N 34.1288 5.61707 0.21014 0
M  V30 308 H 26.2798 1.90921 -0.930758 0
M  V30 309 H 28.5428 0.877674 -0.358319 0
M  V30 310 H 28.2488 3.4333 -0.76273 0
M  V30 311 H 28.1228 3.64387 0.974786 0
M  V30 312 H 30.5098 2.68433 1.22587 0
M  V30 313 H 30.5908 2.50201 -0.532256 0
M  V30 314 H 30.2348 5.01763 -0.78714 0
M  V30 315 H 30.1648 5.17283 0.986222 0
M  V30 316 H 32.6558 3.76649 0.307246 0
M  V30 317 H 32.9688 7.728 0.00304069 0
M  V30 318 H 31.3138 6.94999 0.00968457 0
M  V30 319 H 34.5048 4.6716 0.296546 0
M  V30 320 H 34.6778 6.47807 0.158054 0
M  V30 321 N 28.0839 -0.256276 1.55502 0
M  V30 322 C 29.4949 -0.826068 1.67431 0
M  V30 323 C 29.8459 -1.86396 0.612446 0
M  V30 324 O 28.9709 -2.15031 -0.243025 0
M  V30 325 C 29.5659 -1.50512 3.03532 0
M  V30 326 C 28.1249 -2.02273 3.17431 0
M  V30 327 C 27.2719 -0.870548 2.63281 0
M  V30 328 H 30.2229 -0.0322728 1.58667 0
M  V30 329 H 30.2439 -2.37279 2.97454 0
M  V30 330 H 29.7559 -0.749484 3.80794 0
M  V30 331 H 27.8569 -2.80746 2.44974 0
M  V30 332 H 27.9699 -2.22655 4.24219 0
M  V30 333 H 26.3339 -1.26851 2.20864 0
M  V30 334 H 27.1169 -0.128149 3.43061 0
M  V30 335 N 29.562 -1.4872 -0.521534 0
M  V30 336 C 30.79 -1.60843 -1.30142 0
M  V30 337 C 31.205 -0.271897 -1.86832 0
M  V30 338 O 30.562 0.739969 -1.66825 0
M  V30 339 C 30.613 -2.66155 -2.4463 0
M  V30 340 O 30.334 -3.94623 -1.90275 0
M  V30 341 C 31.835 -2.88795 -3.36322 0
M  V30 342 H 29.055 -0.542075 -0.395468 0
M  V30 343 H 31.599 -1.94609 -0.628285 0
M  V30 344 H 29.754 -2.35224 -3.07812 0
M  V30 345 H 30.168 -4.52468 -2.65279 0
M  V30 346 H 31.642 -3.66264 -4.12983 0
M  V30 347 H 32.119 -1.97934 -3.9207 0
M  V30 348 H 32.725 -3.21063 -2.78924 0
M  V30 349 N 31.0401 0.771051 -1.3745 0
M  V30 350 C 32.0031 1.86598 -1.33093 0
M  V30 351 C 33.0031 1.59076 -0.234845 0
M  V30 352 O 34.1931 1.67145 -0.490732 0
M  V30 353 C 31.3251 3.23747 -1.06773 0
M  V30 354 H 32.5181 1.91873 -2.30488 0
M  V30 355 H 30.0711 0.970876 -1.2249 0
M  V30 356 H 30.8061 3.24148 -0.099129 0
M  V30 357 H 30.5911 3.45115 -1.86112 0
M  V30 358 H 32.0811 4.03824 -1.06377 0
M  V30 359 N 32.5182 1.22032 0.997298 0
M  V30 360 C 33.9292 1.0397 1.55071 0
M  V30 361 C 34.2802 -0.398192 1.92117 0
M  V30 362 O 33.4052 -1.28254 1.74298 0
M  V30 363 C 34.0002 1.88109 2.81781 0
M  V30 364 C 32.5592 1.74357 3.33581 0
M  V30 365 C 31.7062 1.84846 2.06706 0
M  V30 366 H 34.6572 1.35941 0.818883 0
M  V30 367 H 34.6782 1.39589 3.53971 0
M  V30 368 H 34.1902 2.92754 2.54787 0
M  V30 369 H 32.2912 0.72427 3.65493 0
M  V30 370 H 32.4042 2.56772 4.04481 0
M  V30 371 H 30.7682 1.28238 2.20062 0
M  V30 372 H 31.5512 2.91014 1.82114 0
M  V30 373 N 33.9963 -1.19345 1.0293 0
M  V30 374 C 34.9263 -2.2481 0.631105 0
M  V30 375 C 35.9073 -1.66245 -0.360104 0
M  V30 376 O 37.0923 -1.92677 -0.242726 0
M  V30 377 C 34.2223 -3.47295 -0.0184607 0
M  V30 378 C 33.1763 -4.18536 0.895073 0
M  V30 379 C 32.5023 -5.34586 0.110592 0
M  V30 380 C 33.8023 -4.73287 2.209 0
M  V30 381 H 35.4963 -2.58372 1.51275 0
M  V30 382 H 33.0423 -1.24194 0.728818 0
M  V30 383 H 34.9953 -4.20268 -0.308675 0
M  V30 384 H 33.7193 -3.12933 -0.934907 0
M  V30 385 H 32.3783 -3.47446 1.16949 0
M  V30 386 H 32.0263 -4.96469 -0.807902 0
M  V30 387 H 31.7263 -5.83183 0.719087 0
M  V30 388 H 33.2503 -6.10355 -0.172871 0
M  V30 389 H 34.6643 -5.38013 1.98028 0
M  V30 390 H 33.0613 -5.32373 2.76946 0
M  V30 391 H 34.1313 -3.91331 2.86336 0
M  V30 392 N 35.4744 -0.807222 -1.35358 0
M  V30 393 C 36.4044 -0.232509 -2.3234 0
M  V30 394 C 37.3854 0.642386 -1.57504 0
M  V30 395 O 38.5704 0.572526 -1.85569 0
M  V30 396 C 35.7004 0.619238 -3.41735 0
M  V30 397 C 34.6544 -0.157215 -4.27711 0
M  V30 398 C 33.9804 0.816273 -5.28433 0
M  V30 399 C 35.2804 -1.35656 -5.04376 0
M  V30 400 H 36.9744 -1.04276 -2.80654 0
M  V30 401 H 34.5204 -0.50288 -1.34934 0
M  V30 402 H 36.4734 1.03137 -4.08584 0
M  V30 403 H 35.1974 1.46239 -2.92031 0
M  V30 404 H 33.8564 -0.550525 -3.62443 0
M  V30 405 H 33.5044 1.65494 -4.74996 0
M  V30 406 H 33.2044 0.301067 -5.86828 0
M  V30 407 H 34.7284 1.22659 -5.98153 0
M  V30 408 H 36.1424 -1.01927 -5.64166 0
M  V30 409 H 34.5394 -1.8063 -5.7227 0
M  V30 410 H 35.6094 -2.14288 -4.34981 0
M  V30 411 N 36.9525 1.47285 -0.560781 0
M  V30 412 C 37.9155 2.28535 0.174488 0
M  V30 413 C 38.9155 1.37153 0.839388 0
M  V30 414 O 40.1055 1.59748 0.694702 0
M  V30 415 C 37.2375 3.16934 1.25561 0
M  V30 416 H 38.4305 2.95012 -0.539262 0
M  V30 417 H 35.9835 1.53034 -0.317865 0
M  V30 418 H 36.7185 2.55157 2.00164 0
M  V30 419 H 36.5035 3.8419 0.783604 0
M  V30 420 H 37.9935 3.78143 1.77193 0
M  V30 421 N 38.4306 0.297415 1.54768 0
M  V30 422 C 39.3606 -0.573494 2.26348 0
M  V30 423 C 40.3416 -1.14085 1.26169 0
M  V30 424 O 41.5266 -1.17086 1.54934 0
M  V30 425 C 38.6566 -1.74716 3.00153 0
M  V30 426 C 37.6106 -1.31032 4.07449 0
M  V30 427 C 36.9366 -2.56887 4.68949 0
M  V30 428 C 38.2366 -0.444183 5.20408 0
M  V30 429 H 39.9306 0.0235131 2.99391 0
M  V30 430 H 37.4766 0.0127488 1.43994 0
M  V30 431 H 39.4296 -2.3625 3.48947 0
M  V30 432 H 38.1536 -2.37035 2.24682 0
M  V30 433 H 36.8126 -0.718066 3.59499 0
M  V30 434 H 36.4606 -3.17512 3.90122 0
M  V30 435 H 36.1606 -2.2836 5.41411 0
M  V30 436 H 37.6846 -3.19229 5.20505 0
M  V30 437 H 39.0986 -0.9651 5.65118 0
M  V30 438 H 37.4956 -0.252846 5.99567 0
M  V30 439 H 38.5656 0.531609 4.81977 0
M  V30 440 N 39.9087 -1.5758 0.0250728 0
M  V30 441 C 40.8387 -2.13007 -0.956575 0
M  V30 442 C 41.8197 -1.0452 -1.342 0
M  V30 443 O 43.0047 -1.32332 -1.42133 0
M  V30 444 C 40.1347 -2.65386 -2.24026 0
M  V30 445 C 39.0887 -3.78623 -1.99571 0
M  V30 446 C 38.4147 -4.17414 -3.3417 0
M  V30 447 C 39.7147 -5.04867 -1.33814 0
M  V30 448 H 41.4087 -2.9528 -0.494991 0
M  V30 449 H 38.9547 -1.42042 -0.236651 0
M  V30 450 H 40.9077 -3.02794 -2.93076 0
M  V30 451 H 39.6317 -1.80268 -2.72343 0
M  V30 452 H 38.2907 -3.41646 -1.32941 0
M  V30 453 H 37.9387 -3.29284 -3.80238 0
M  V30 454 H 37.6387 -4.93719 -3.18615 0
M  V30 455 H 39.1627 -4.57402 -4.04495 0
M  V30 456 H 40.5767 -5.39888 -1.92857 0
M  V30 457 H 38.9737 -5.86144 -1.28669 0
M  V30 458 H 40.0437 -4.83904 -0.310561 0
M  V30 459 N 41.3868 0.248026 -1.55636 0
M  V30 460 C 42.3168 1.31079 -1.93237 0
M  V30 461 C 43.2978 1.50264 -0.797174 0
M  V30 462 O 44.4828 1.62891 -1.05737 0
M  V30 463 C 41.6128 2.66575 -2.22609 0
M  V30 464 C 40.5668 2.62087 -3.3837 0
M  V30 465 C 39.8928 4.01369 -3.53281 0
M  V30 466 C 41.1928 2.19171 -4.7409 0
M  V30 467 H 42.8868 0.998556 -2.82257 0
M  V30 468 H 40.4328 0.47891 -1.35803 0
M  V30 469 H 42.3858 3.41057 -2.47503 0
M  V30 470 H 41.1098 2.99432 -1.30414 0
M  V30 471 H 39.7688 1.90063 -3.13483 0
M  V30 472 H 39.4168 4.31489 -2.58508 0
M  V30 473 H 39.1168 3.99254 -4.31127 0
M  V30 474 H 40.6408 4.77552 -3.80495 0
M  V30 475 H 42.0548 2.83384 -4.98363 0
M  V30 476 H 40.4518 2.2817 -5.5503 0
M  V30 477 H 41.5218 1.14336 -4.71227 0
M  V30 478 N 42.8649 1.48995 0.513639 0
M  V30 479 C 43.7949 1.67636 1.62544 0
M  V30 480 C 44.7759 0.525087 1.61793 0
M  V30 481 O 45.9609 0.759502 1.78732 0
M  V30 482 C 43.0909 1.73114 3.01079 0
M  V30 483 C 42.0449 2.87905 3.16693 0
M  V30 484 C 41.3709 2.78486 4.56453 0
M  V30 485 C 42.6709 4.29005 2.97913 0
M  V30 486 H 44.3649 2.60716 1.47198 0
M  V30 487 H 41.9109 1.25465 0.706714 0
M  V30 488 H 43.8639 1.84742 3.78746 0
M  V30 489 H 42.5879 0.766241 3.17484 0
M  V30 490 H 41.2469 2.75859 2.41448 0
M  V30 491 H 40.8949 1.7993 4.69717 0
M  V30 492 H 40.5949 3.55523 4.67843 0
M  V30 493 H 42.1189 2.92104 5.36197 0
M  V30 494 H 43.5329 4.41798 3.65359 0
M  V30 495 H 41.9299 5.07166 3.20785 0
M  V30 496 H 42.9999 4.44329 1.94165 0
M  V30 497 N 44.343 -0.763751 1.37857 0
M  V30 498 C 45.273 -1.89103 1.36975 0
M  V30 499 C 46.254 -1.68439 0.237152 0
M  V30 500 O 47.439 -1.8918 0.438713 0
M  V30 501 C 44.569 -3.26496 1.18395 0
M  V30 502 C 43.523 -3.61741 2.28751 0
M  V30 503 C 42.849 -4.97762 1.95286 0
M  V30 504 C 44.149 -3.67665 3.70972 0
M  V30 505 H 45.843 -1.90099 2.31307 0
M  V30 506 H 43.389 -0.91319 1.11341 0
M  V30 507 H 45.342 -4.05003 1.16406 0
M  V30 508 H 44.066 -3.25955 0.205215 0
M  V30 509 H 42.725 -2.85547 2.29909 0
M  V30 510 H 42.373 -4.93769 0.959221 0
M  V30 511 H 42.073 -5.22313 2.69189 0
M  V30 512 H 43.597 -5.7866 1.94898 0
M  V30 513 H 45.011 -4.36307 3.719 0
M  V30 514 H 43.408 -4.03718 4.43995 0
M  V30 515 H 44.478 -2.68134 4.0402 0
M  V30 516 N 45.8211 -1.22559 -0.990812 0
M  V30 517 C 46.7841 -0.998863 -2.0629 0
M  V30 518 C 47.7841 0.0354834 -1.60761 0
M  V30 519 O 48.9741 -0.203231 -1.7301 0
M  V30 520 C 46.1061 -0.509203 -3.37076 0
M  V30 521 H 47.2991 -1.95014 -2.27837 0
M  V30 522 H 44.8521 -1.04456 -1.16269 0
M  V30 523 H 45.5871 0.446335 -3.21214 0
M  V30 524 H 45.3721 -1.25547 -3.71457 0
M  V30 525 H 46.8621 -0.370888 -4.1595 0
M  V30 526 N 47.2992 1.18797 -1.03562 0
M  V30 527 C 48.7102 1.70322 -0.764676 0
M  V30 528 C 49.0612 1.82708 0.714996 0
M  V30 529 O 48.1862 1.50299 1.55689 0
M  V30 530 C 48.7812 3.09356 -1.38145 0
M  V30 531 C 47.3402 3.58114 -1.15895 0
M  V30 532 C 46.4872 2.34798 -1.4753 0
M  V30 533 H 49.4382 1.03543 -1.20268 0
M  V30 534 H 49.4592 3.72378 -0.781977 0
M  V30 535 H 48.9712 3.00309 -2.45837 0
M  V30 536 H 47.0722 3.72464 -0.100544 0
M  V30 537 H 47.1852 4.4184 -1.8524 0
M  V30 538 H 45.5492 2.38464 -0.894829 0
M  V30 539 H 46.3322 2.28375 -2.56319 0
M  V30 540 N 48.7773 0.814389 1.34928 0
M  V30 541 C 50.0233 0.399013 1.98836 0
M  V30 542 C 50.3563 -1.03314 1.64438 0
M  V30 543 O 49.6313 -1.71811 0.911659 0
M  V30 544 C 49.9143 0.591629 3.55207 0
M  V30 545 C 49.7673 2.06928 3.99376 0
M  V30 546 C 51.0863 0.022199 4.40094 0
M  V30 547 H 48.2053 0.146451 0.722303 0
M  V30 548 H 50.8473 1.02537 1.59957 0
M  V30 549 H 48.9973 0.0584441 3.88456 0
M  V30 550 H 50.6693 2.66544 3.76499 0
M  V30 551 H 48.9123 2.56287 3.49999 0
M  V30 552 H 49.5833 2.1549 5.08201 0
M  V30 553 H 52.0593 0.477643 4.13349 0
M  V30 554 H 50.9353 0.186832 5.48582 0
M  V30 555 H 51.1963 -1.07215 4.28902 0
M  V30 556 N 50.2554 -1.46986 0.568584 0
M  V30 557 C 51.2184 -2.28624 -0.162366 0
M  V30 558 C 52.2184 -1.37596 -0.832103 0
M  V30 559 O 53.4084 -1.60115 -0.68622 0
M  V30 560 C 50.5404 -3.17596 -1.23878 0
M  V30 561 H 51.7334 -2.94722 0.554899 0
M  V30 562 H 49.2864 -1.52863 0.325976 0
M  V30 563 H 50.0214 -2.56214 -1.98808 0
M  V30 564 H 49.8064 -3.846 -0.763219 0
M  V30 565 H 51.2964 -3.79078 -1.75185 0
M  V30 566 N 51.7335 -0.305618 -1.54608 0
M  V30 567 C 52.6965 0.555591 -2.22364 0
M  V30 568 C 53.6965 1.05768 -1.21119 0
M  V30 569 O 54.8865 0.952972 -1.45822 0
M  V30 570 C 52.0185 1.76974 -2.91364 0
M  V30 571 H 53.2115 -0.0364572 -2.99878 0
M  V30 572 H 50.7645 -0.0565007 -1.56198 0
M  V30 573 H 51.4995 2.40151 -2.17941 0
M  V30 574 H 51.2845 1.41732 -3.65588 0
M  V30 575 H 52.7745 2.38148 -3.43038 0
M  V30 576 N 53.2116 1.57565 -0.0334293 0
M  V30 577 C 54.6226 1.79746 0.504798 0
M  V30 578 C 54.9736 0.944091 1.71992 0
M  V30 579 O 54.0986 0.155694 2.15839 0
M  V30 580 C 54.6936 3.25997 0.922567 0
M  V30 581 C 53.2526 3.49159 1.40588 0
M  V30 582 C 52.3996 2.74785 0.372633 0
M  V30 583 H 55.3506 1.56565 -0.259436 0
M  V30 584 H 55.3716 3.35945 1.78666 0
M  V30 585 H 54.8836 3.88081 0.0379825 0
M  V30 586 H 52.9846 2.92332 2.31025 0
M  V30 587 H 53.0976 4.57873 1.41028 0
M  V30 588 H 51.4616 2.40391 0.841672 0
M  V30 589 H 52.2446 3.39587 -0.503559 0
M  V30 590 N 54.6897 -0.239769 1.55765 0
M  V30 591 C 55.6527 -1.28038 1.90103 0
M  V30 592 C 56.6527 -1.40723 0.778055 0
M  V30 593 O 57.8427 -1.39301 1.04599 0
M  V30 594 C 54.9747 -2.65702 2.13577 0
M  V30 595 H 56.1677 -0.988048 2.83157 0
M  V30 596 H 53.7207 -0.479382 1.48767 0
M  V30 597 H 54.4557 -3.00063 1.23015 0
M  V30 598 H 54.2407 -2.57875 2.95369 0
M  V30 599 H 55.7307 -3.40828 2.41301 0
M  V30 600 N 56.1678 -1.49265 -0.50573 0
M  V30 601 C 57.4158 -1.582 -1.25766 0
M  V30 602 C 57.7368 -0.268482 -1.93143 0
M  V30 603 O 57.0068 0.711833 -1.8251 0
M  V30 604 H 55.5868 -0.582873 -0.467191 0
M  V30 605 H 58.2488 -1.85865 -0.586525 0
M  V30 606 H 57.3448 -2.37563 -2.02412 0
M  V30 607 N 57.6459 0.756429 -1.3826 0
M  V30 608 C 58.8709 1.55077 -1.37717 0
M  V30 609 C 59.2959 1.88073 0.03164 0
M  V30 610 O 58.6539 1.50364 1.01293 0
M  V30 611 C 58.7019 2.8283 -2.23695 0
M  V30 612 O 57.8059 3.77862 -1.6521 0
M  V30 613 H 57.1469 0.469152 -0.469885 0
M  V30 614 H 59.6769 0.935019 -1.81985 0
M  V30 615 H 59.6869 3.31783 -2.37453 0
M  V30 616 H 58.3619 2.58144 -3.2609 0
M  V30 617 H 56.9389 3.36555 -1.60578 0
M  V30 618 N 59.124 1.23083 0.984299 0
M  V30 619 C 60.372 1.05848 1.72165 0
M  V30 620 C 60.693 -0.406049 1.90726 0
M  V30 621 O 59.963 -1.29139 1.47309 0
M  V30 622 H 58.543 0.388685 0.637913 0
M  V30 623 H 61.205 1.54736 1.18503 0
M  V30 624 H 60.301 1.54327 2.71274 0
M  V30 625 N 60.6021 -1.18246 1.0419 0
M  V30 626 C 61.8791 -1.84121 0.660208 0
M  V30 627 C 62.2591 -1.92778 -0.860221 0
M  V30 628 O 61.6071 -1.45464 -1.76217 0
M  V30 629 C 61.8171 -3.22355 1.33747 0
M  V30 630 C 63.1651 -3.98376 1.46906 0
M  V30 631 O 64.1891 -3.31799 1.29568 0
M  V30 632 O 63.0481 -5.17665 1.75171 0
M  V30 633 H 60.1421 -0.794036 0.231161 0
M  V30 634 H 62.6881 -1.25628 1.14087 0
M  V30 635 H 61.4601 -3.10964 2.37522 0
M  V30 636 H 61.0831 -3.88506 0.845515 0
M  V30 637 N 62.0802 -0.821533 -1.34494 0
M  V30 638 C 63.4912 -0.467956 -1.8074 0
M  V30 639 C 63.8422 1.01151 -1.68116 0
M  V30 640 O 62.9672 1.78707 -1.22036 0
M  V30 641 C 63.5622 -0.842627 -3.28154 0
M  V30 642 C 62.1212 -0.541439 -3.72485 0
M  V30 643 C 61.2682 -1.06028 -2.56229 0
M  V30 644 H 64.2192 -1.01183 -1.22261 0
M  V30 645 H 64.2402 -0.145876 -3.8022 0
M  V30 646 H 63.7522 -1.91945 -3.37311 0
M  V30 647 H 61.8532 0.526034 -3.68868 0
M  V30 648 H 61.9662 -1.08453 -4.66663 0
M  V30 649 H 60.3302 -0.481892 -2.501 0
M  V30 650 H 61.1132 -2.14352 -2.68157 0
M  V30 651 N 63.5583 1.46682 -0.576371 0
M  V30 652 C 64.8353 1.95599 0.00703437 0
M  V30 653 C 65.2153 1.51904 1.46589 0
M  V30 654 O 64.5633 0.766755 2.15251 0
M  V30 655 C 64.7733 3.4864 -0.158404 0
M  V30 656 C 66.1213 4.24594 -0.0229439 0
M  V30 657 O 67.1453 3.56094 -0.0869173 0
M  V30 658 O 66.0043 5.46373 0.118015 0
M  V30 659 H 63.0983 0.825275 0.053384 0
M  V30 660 H 65.6443 1.56996 -0.644244 0
M  V30 661 H 64.4163 3.7331 -1.17282 0
M  V30 662 H 64.0393 3.94057 0.5296 0
M  V30 663 N 65.0364 0.313813 1.54444 0
M  V30 664 C 66.3134 -0.345447 1.92525 0
M  V30 665 C 66.6934 -1.70667 1.24242 0
M  V30 666 O 66.0414 -2.25273 0.382654 0
M  V30 667 C 66.2514 -0.44737 3.46121 0
M  V30 668 C 67.5994 -0.712238 4.18584 0
M  V30 669 O 68.6234 -0.530678 3.52225 0
M  V30 670 O 67.4824 -1.06183 5.36085 0
M  V30 671 H 64.5764 -0.195407 0.803583 0
M  V30 672 H 67.1224 0.362813 1.65776 0
M  V30 673 H 65.8944 0.509043 3.87975 0
M  V30 674 H 65.5174 -1.20359 3.78945 0
M  V30 675 N 66.5145 -1.57545 0.0417849 0
M  V30 676 C 67.9255 -1.80011 -0.495259 0
M  V30 677 C 68.2765 -0.953199 -1.71489 0
M  V30 678 O 67.4015 -0.167138 -2.15754 0
M  V30 679 C 67.9965 -3.26482 -0.905265 0
M  V30 680 C 66.5555 -3.499 -1.38734 0
M  V30 681 C 65.7025 -2.74979 -0.358056 0
M  V30 682 H 68.6535 -1.56425 0.267736 0
M  V30 683 H 68.6745 -3.36887 -1.76882 0
M  V30 684 H 68.1865 -3.88096 -0.017401 0
M  V30 685 H 66.2875 -2.93553 -2.29471 0
M  V30 686 H 66.4005 -4.58615 -1.38598 0
M  V30 687 H 64.7645 -2.40834 -0.828912 0
M  V30 688 H 65.5475 -3.39315 0.521561 0
M  V30 689 N 67.9926 0.231505 -1.5589 0
M  V30 690 C 69.2406 0.955461 -1.78088 0
M  V30 691 C 69.5616 1.85262 -0.608533 0
M  V30 692 O 68.8316 1.92277 0.375035 0
M  V30 693 H 67.4116 0.355787 -0.656829 0
M  V30 694 H 70.0736 0.245751 -1.93344 0
M  V30 695 H 69.1696 1.56814 -2.69844 0
M  V30 696 N 69.4707 1.49531 0.497807 0
M  V30 697 C 70.4027 1.62559 1.61578 0
M  V30 698 C 71.4157 0.508134 1.54667 0
M  V30 699 O 72.6047 0.780309 1.60541 0
M  V30 700 C 69.7047 1.56925 3.00379 0
M  V30 701 C 68.8777 2.84257 3.3244 0
M  V30 702 C 67.9367 2.71632 4.50669 0
M  V30 703 O 66.9627 3.4557 4.52294 0
M  V30 704 N 68.1647 1.83391 5.5077 0
M  V30 705 H 70.9297 2.58981 1.50828 0
M  V30 706 H 68.4907 1.4666 0.685743 0
M  V30 707 H 70.4827 1.46129 3.77397 0
M  V30 708 H 69.0527 0.683483 3.05037 0
M  V30 709 H 68.2727 3.09381 2.44289 0
M  V30 710 H 69.5607 3.68666 3.5066 0
M  V30 711 H 68.9587 1.22583 5.52259 0
M  V30 712 H 67.5157 1.78515 6.26878 0
M  V30 713 N 70.9488 -0.749086 1.3866 0
M  V30 714 C 72.3598 -1.32664 1.31366 0
M  V30 715 C 72.7108 -1.96179 -0.028484 0
M  V30 716 O 71.8358 -1.9537 -0.93057 0
M  V30 717 C 72.4308 -2.41219 2.37905 0
M  V30 718 C 70.9898 -2.94684 2.34176 0
M  V30 719 C 70.1368 -1.68108 2.20533 0
M  V30 720 H 73.0878 -0.547628 1.48952 0
M  V30 721 H 73.1088 -3.21268 2.0388 0
M  V30 722 H 72.6208 -1.94962 3.35576 0
M  V30 723 H 70.7218 -3.45258 1.401 0
M  V30 724 H 70.8348 -3.48757 3.2849 0
M  V30 725 H 69.1988 -1.91907 1.67463 0
M  V30 726 H 69.9818 -1.23923 3.20153 0
M  V30 727 N 72.4269 -1.23603 -0.977757 0
M  V30 728 C 73.3589 -0.977369 -2.07317 0
M  V30 729 C 74.3719 0.0495845 -1.62724 0
M  V30 730 O 75.5609 -0.186261 -1.77526 0
M  V30 731 C 72.6609 -0.451216 -3.35883 0
M  V30 732 C 71.8339 -1.53896 -4.09432 0
M  V30 733 C 70.8929 -1.01721 -5.16274 0
M  V30 734 O 69.9189 -1.70676 -5.43009 0
M  V30 735 N 71.1209 0.153594 -5.80297 0
M  V30 736 H 73.8859 -1.92047 -2.30082 0
M  V30 737 H 71.4469 -1.14497 -1.14465 0
M  V30 738 H 73.4389 -0.0871574 -4.04606 0
M  V30 739 H 72.0089 0.397368 -3.10064 0
M  V30 740 H 71.2289 -2.07566 -3.35127 0
M  V30 741 H 72.5169 -2.27037 -4.55337 0
M  V30 742 H 71.9149 0.730323 -5.60966 0
M  V30 743 H 70.4719 0.458892 -6.50183 0
M  V30 744 N 73.905 1.17692 -1.04816 0
M  V30 745 C 75.182 1.83768 -0.669963 0
M  V30 746 C 75.562 1.93232 0.849986 0
M  V30 747 O 74.91 1.46397 1.75443 0
M  V30 748 C 75.12 3.21641 -1.35455 0
M  V30 749 C 76.468 3.97592 -1.49017 0
M  V30 750 O 77.492 3.31107 -1.31326 0
M  V30 751 O 76.351 5.16729 -1.77914 0
M  V30 752 H 73.445 0.792799 -0.235368 0
M  V30 753 H 75.991 1.25021 -1.14751 0
M  V30 754 H 74.763 3.097 -2.39168 0
M  V30 755 H 74.386 3.88052 -0.866107 0
M  V30 756 N 75.3831 0.828654 1.34056 0
M  V30 757 C 76.3461 0.259927 2.27721 0
M  V30 758 C 77.3461 -0.565478 1.50529 0
M  V30 759 O 78.5361 -0.38075 1.69988 0
M  V30 760 C 75.6681 -0.634944 3.34935 0
M  V30 761 H 76.8611 1.0863 2.79534 0
M  V30 762 H 74.4141 0.600951 1.44285 0
M  V30 763 H 75.1491 -1.48416 2.88346 0
M  V30 764 H 74.9341 -0.0444999 3.92075 0
M  V30 765 H 76.4241 -1.02648 4.04788 0
M  V30 766 N 76.8612 -1.46375 0.584142 0
M  V30 767 C 78.1092 -2.01978 0.0701287 0
M  V30 768 C 78.4302 -1.4579 -1.295 0
M  V30 769 O 77.7002 -0.64314 -1.85042 0
M  V30 770 H 76.2802 -0.746648 0.0229345 0
M  V30 771 H 78.9422 -1.79461 0.760245 0
M  V30 772 H 78.0382 -3.121 0.0022064 0
M  V30 773 N 78.3393 -0.321999 -1.54275 0
M  V30 774 C 79.5853 0.281461 -2.00837 0
M  V30 775 C 79.9183 1.51909 -1.20985 0
M  V30 776 O 79.1933 1.923 -0.291733 0
M  V30 777 C 79.4763 0.617162 -3.54772 0
M  V30 778 C 79.3293 -0.631064 -4.45351 0
M  V30 779 C 80.6483 1.43542 -4.16033 0
M  V30 780 H 77.7673 0.100826 -0.730071 0
M  V30 781 H 80.4093 -0.438268 -1.84876 0
M  V30 782 H 78.5593 1.23034 -3.68504 0
M  V30 783 H 80.2313 -1.26934 -4.43492 0
M  V30 784 H 78.4743 -1.26025 -4.15091 0
M  V30 785 H 79.1453 -0.351735 -5.50878 0
M  V30 786 H 81.6213 0.917134 -4.05867 0
M  V30 787 H 80.4973 1.63907 -5.23856 0
M  V30 788 H 80.7583 2.43108 -3.69257 0
M  V30 789 N 79.8174 1.5752 -0.0501392 0
M  V30 790 C 81.2284 1.80271 0.485705 0
M  V30 791 C 81.5794 0.96228 1.70981 0
M  V30 792 O 80.7044 0.178578 2.15662 0
M  V30 793 C 81.2994 3.26957 0.887938 0
M  V30 794 C 79.8584 3.5063 1.36877 0
M  V30 795 C 79.0054 2.75165 0.343468 0
M  V30 796 H 81.9564 1.56281 -0.276028 0
M  V30 797 H 81.9774 3.37821 1.75093 0
M  V30 798 H 81.4894 3.881 -0.0031809 0
M  V30 799 H 79.5904 2.94766 2.27911 0
M  V30 800 H 79.7034 4.59343 1.36164 0
M  V30 801 H 78.0674 2.4127 0.816128 0
M  V30 802 H 78.8504 3.39034 -0.539548 0
M  V30 803 N 81.2955 -0.223234 1.56011 0
M  V30 804 C 82.7115 -0.572856 1.48965 0
M  V30 805 C 82.9115 -1.87225 0.74492 0
M  V30 806 O 81.9675 -2.50899 0.283896 0
M  V30 807 C 83.2805 -0.653646 2.9351 0
M  V30 808 C 84.8285 -0.744386 3.0402 0
M  V30 809 C 85.3035 -0.856535 4.49919 0
M  V30 810 N 86.7945 -0.9208 4.53955 0
M  V30 811 C 87.5295 -1.02726 5.64123 0
M  V30 812 N 87.0255 -1.09777 6.84047 0
M  V30 813 N 88.8185 -1.06226 5.51971 0
M  V30 814 H 80.9695 0.629462 2.02858 0
M  V30 815 H 83.2325 0.220621 0.921971 0
M  V30 816 H 82.9385 0.231518 3.50937 0
M  V30 817 H 82.8125 -1.51781 3.45315 0
M  V30 818 H 85.1995 -1.61999 2.46658 0
M  V30 819 H 85.2805 0.14541 2.55386 0
M  V30 820 H 84.9245 0.0146069 5.07898 0
M  V30 821 H 84.8545 -1.76172 4.96257 0
M  V30 822 H 87.3455 -0.876694 3.6759 0
M  V30 823 H 87.6585 -1.17872 7.63758 0
M  V30 824 H 86.0035 -1.06693 6.86762 0
M  V30 825 H 89.1945 -1.00382 4.5721 0
M  V30 826 H 89.3675 -1.14177 6.37862 0
M  V30 827 N 82.7736 -1.49793 -0.48987 0
M  V30 828 C 84.1896 -1.36803 -0.822022 0
M  V30 829 C 84.3896 -0.409652 -1.97292 0
M  V30 830 O 83.4456 0.154614 -2.52026 0
M  V30 831 C 84.7586 -2.77768 -1.15175 0
M  V30 832 C 86.3066 -2.86549 -1.25931 0
M  V30 833 C 86.7816 -4.28306 -1.62228 0
M  V30 834 N 88.2726 -4.31169 -1.69256 0
M  V30 835 C 89.0076 -5.37832 -1.98807 0
M  V30 836 N 88.5036 -6.54726 -2.26507 0
M  V30 837 N 90.2966 -5.25258 -2.00152 0
M  V30 838 H 82.4476 -2.10691 0.268881 0
M  V30 839 H 84.7106 -0.946241 0.057728 0
M  V30 840 H 84.4166 -3.49648 -0.379335 0
M  V30 841 H 84.2906 -3.13836 -2.09253 0
M  V30 842 H 86.6776 -2.14899 -2.02243 0
M  V30 843 H 86.7586 -2.54049 -0.298776 0
M  V30 844 H 86.4026 -5.00486 -0.864622 0
M  V30 845 H 86.3326 -4.58279 -2.594 0
M  V30 846 H 88.8236 -3.4687 -1.49965 0
M  V30 847 H 89.1366 -7.31833 -2.48276 0
M  V30 848 H 87.4816 -6.57933 -2.23939 0
M  V30 849 H 90.6726 -4.32938 -1.77996 0
M  V30 850 H 90.8456 -6.08476 -2.22848 0
M  V30 851 N 84.2517 0.741722 -1.39055 0
M  V30 852 C 85.1817 1.869 -1.39966 0
M  V30 853 C 86.1627 1.6804 -0.26392 0
M  V30 854 O 87.3477 1.88458 -0.468755 0
M  V30 855 C 84.4777 3.24572 -1.23574 0
M  V30 856 C 83.4317 3.58056 -2.34477 0
M  V30 857 C 82.7577 4.94593 -2.0318 0
M  V30 858 C 84.0577 3.61716 -3.76774 0
M  V30 859 H 85.7517 1.86395 -2.34302 0
M  V30 860 H 83.2977 0.895361 -1.1278 0
M  V30 861 H 85.2507 4.031 -1.22834 0
M  V30 862 H 83.9747 3.25587 -0.257045 0
M  V30 863 H 82.6337 2.81854 -2.34423 0
M  V30 864 H 82.2817 4.92181 -1.03765 0
M  V30 865 H 81.9817 5.17964 -2.77465 0
M  V30 866 H 83.5057 5.75486 -2.04079 0
M  V30 867 H 84.9197 4.30335 -3.78794 0
M  V30 868 H 83.3167 3.96603 -4.50362 0
M  V30 869 H 84.3867 2.61672 -4.08235 0
M  V30 870 N 85.7298 1.2412 0.971189 0
M  V30 871 C 86.6598 1.05508 2.08304 0
M  V30 872 C 87.6408 -0.0308864 1.70072 0
M  V30 873 O 88.8258 0.135521 1.93727 0
M  V30 874 C 85.9558 0.655365 3.4106 0
M  V30 875 C 84.9098 1.68971 3.93234 0
M  V30 876 C 84.2358 1.14516 5.22293 0
M  V30 877 C 85.5358 3.08487 4.21465 0
M  V30 878 H 87.2298 1.98507 2.24132 0
M  V30 879 H 84.7758 0.955821 1.07704 0
M  V30 880 H 86.7288 0.51217 4.18276 0
M  V30 881 H 85.4528 -0.31032 3.25122 0
M  V30 882 H 84.1118 1.82106 3.18171 0
M  V30 883 H 83.7598 0.170189 5.02712 0
M  V30 884 H 83.4598 1.83635 5.58168 0
M  V30 885 H 84.9838 1.01401 6.02121 0
M  V30 886 H 86.3978 2.98601 4.89398 0
M  V30 887 H 84.7948 3.74926 4.68562 0
M  V30 888 H 85.8648 3.56787 3.28376 0
M  V30 889 N 87.2079 -1.17134 1.05439 0
M  V30 890 C 88.1399 -2.2078 0.615539 0
M  V30 891 C 89.1529 -1.59584 -0.322001 0
M  V30 892 O 90.3419 -1.78133 -0.114344 0
M  V30 893 C 87.4419 -3.38691 -0.118938 0
M  V30 894 C 86.6149 -4.29454 0.829924 0
M  V30 895 C 85.6739 -5.26024 0.136258 0
M  V30 896 O 84.6999 -5.63952 0.77115 0
M  V30 897 N 85.9019 -5.69487 -1.1254 0
M  V30 898 H 88.6669 -2.59052 1.50705 0
M  V30 899 H 86.2279 -1.32058 0.936603 0
M  V30 900 H 88.2199 -4.00329 -0.593179 0
M  V30 901 H 86.7899 -2.98996 -0.91215 0
M  V30 902 H 86.0099 -3.65211 1.48373 0
M  V30 903 H 87.2979 -4.86984 1.47392 0
M  V30 904 H 86.6959 -5.4075 -1.6615 0
M  V30 905 H 85.2529 -6.33257 -1.54366 0
M  V30 906 N 88.686 -0.835752 -1.33615 0
M  V30 907 C 89.618 -0.224151 -2.28101 0
M  V30 908 C 90.631 0.593331 -1.51603 0
M  V30 909 O 91.82 0.420911 -1.73466 0
M  V30 910 C 88.92 0.703309 -3.31522 0
M  V30 911 C 88.093 -0.0741528 -4.37337 0
M  V30 912 C 87.152 0.776176 -5.20444 0
M  V30 913 O 86.178 0.216506 -5.68788 0
M  V30 914 N 87.38 2.09401 -5.41416 0
M  V30 915 H 90.145 -1.03598 -2.81225 0
M  V30 916 H 87.706 -0.69392 -1.46275 0
M  V30 917 H 89.698 1.27707 -3.84022 0
M  V30 918 H 88.268 1.41585 -2.78698 0
M  V30 919 H 87.488 -0.82928 -3.85378 0
M  V30 920 H 88.776 -0.608863 -5.05144 0
M  V30 921 H 88.174 2.57229 -5.03835 0
M  V30 922 H 86.731 2.61633 -5.96985 0
M  V30 923 N 90.1641 1.46063 -0.591896 0
M  V30 924 C 91.1271 2.28854 0.125973 0
M  V30 925 C 92.1271 1.38903 0.810107 0
M  V30 926 O 93.3171 1.61186 0.66066 0
M  V30 927 C 90.4491 3.19526 1.1881 0
M  V30 928 H 91.6421 2.93802 -0.601717 0
M  V30 929 H 89.1951 1.52325 -0.350254 0
M  V30 930 H 89.9301 2.59345 1.94707 0
M  V30 931 H 89.7151 3.85766 0.701936 0
M  V30 932 H 91.2051 3.81817 1.69132 0
M  V30 933 N 91.6422 0.330177 1.54103 0
M  V30 934 C 92.6052 -0.520144 2.2322 0
M  V30 935 C 93.6052 -1.03828 1.22786 0
M  V30 936 O 94.7952 -0.929652 1.4732 0
M  V30 937 C 91.9272 -1.72317 2.94142 0
M  V30 938 H 93.1202 0.0841605 2.99782 0
M  V30 939 H 90.6732 0.0813433 1.56088 0
M  V30 940 H 91.4082 -2.36653 2.21734 0
M  V30 941 H 91.1932 -1.35898 3.67796 0
M  V30 942 H 92.6832 -2.3266 3.46784 0
M  V30 943 N 93.1203 -1.57491 0.0584922 0
M  V30 944 C 94.5363 -1.56792 -0.298091 0
M  V30 945 C 94.7363 -1.06679 -1.70944 0
M  V30 946 O 93.7923 -0.726672 -2.41818 0
M  V30 947 C 95.1053 -3.00461 -0.119879 0
M  V30 948 C 96.6533 -3.1242 -0.190428 0
M  V30 949 C 97.1283 -4.57982 -0.0406567 0
M  V30 950 N 98.6193 -4.63099 -0.0966958 0
M  V30 951 C 99.3543 -5.734 -0.00502943 0
M  V30 952 N 98.8503 -6.9266 0.139402 0
M  V30 953 N 100.643 -5.62067 -0.0611391 0
M  V30 954 H 92.7943 -1.88386 0.98105 0
M  V30 955 H 95.0573 -0.867865 0.381463 0
M  V30 956 H 94.7633 -3.41187 0.85349 0
M  V30 957 H 94.6373 -3.66843 -0.877833 0
M  V30 958 H 97.0243 -2.71589 -1.15427 0
M  V30 959 H 97.1053 -2.48702 0.598405 0
M  V30 960 H 96.7493 -4.995 0.919897 0
M  V30 961 H 96.6793 -5.19715 -0.848727 0
M  V30 962 H 99.1703 -3.77331 -0.207277 0
M  V30 963 H 99.4833 -7.72536 0.201855 0
M  V30 964 H 97.8283 -6.94781 0.174586 0
M  V30 965 H 101.019 -4.67782 -0.172583 0
M  V30 966 H 101.192 -6.47999 0.0137562 0
M  V30 967 N 94.5984 0.214957 -1.56127 0
M  V30 968 C 95.5614 1.24997 -1.92116 0
M  V30 969 C 96.5614 1.39467 -0.800344 0
M  V30 970 O 97.7514 1.37619 -1.06802 0
M  V30 971 C 94.8834 2.62271 -2.17777 0
M  V30 972 H 96.0764 0.942875 -2.84693 0
M  V30 973 H 93.6294 0.455654 -1.49511 0
M  V30 974 H 94.3644 2.98068 -1.27773 0
M  V30 975 H 94.1494 2.53143 -2.99434 0
M  V30 976 H 95.6394 3.36946 -2.46693 0
M  V30 977 N 96.0765 1.50051 0.48192 0
M  V30 978 C 97.0395 1.67584 1.5636 0
M  V30 979 C 98.0395 0.546894 1.51214 0
M  V30 980 O 99.2295 0.813725 1.54026 0
M  V30 981 C 96.3615 1.691 2.96003 0
M  V30 982 H 97.5545 2.64078 1.42136 0
M  V30 983 H 95.1075 1.39369 0.707533 0
M  V30 984 H 95.8425 0.742589 3.15684 0
M  V30 985 H 95.6275 2.51105 3.01146 0
M  V30 986 H 97.1175 1.84656 3.74556 0
M  V30 987 N 97.5546 -0.734337 1.39446 0
M  V30 988 C 98.4846 -1.86155 1.40955 0
M  V30 989 C 99.4656 -1.67898 0.272827 0
M  V30 990 O 100.651 -1.88207 0.478743 0
M  V30 991 C 97.7806 -3.23912 1.25294 0
M  V30 992 C 96.7346 -3.56808 2.36373 0
M  V30 993 C 96.0606 -4.93508 2.058 0
M  V30 994 C 97.3606 -3.59713 3.78687 0
M  V30 995 H 99.0546 -1.8515 2.35287 0
M  V30 996 H 96.6006 -0.889367 1.13253 0
M  V30 997 H 98.5536 -4.02443 1.2497 0
M  V30 998 H 97.2776 -3.25446 0.274308 0
M  V30 999 H 95.9366 -2.80606 2.35914 0
M  V30 1000 H 95.5846 -4.91623 1.06374 0
M  V30 1001 H 95.2846 -5.16486 2.80208 0
M  V30 1002 H 96.8086 -5.74396 2.07128 0
M  V30 1003 H 98.2226 -4.2832 3.81071 0
M  V30 1004 H 96.6196 -3.94209 4.52459 0
M  V30 1005 H 97.6896 -2.59504 4.09617 0
M  V30 1006 N 99.0327 -1.24633 -0.964593 0
M  V30 1007 C 99.9827 -1.00841 -2.04487 0
M  V30 1008 C 100.967 0.0512468 -1.60818 0
M  V30 1009 O 102.159 -0.162865 -1.76249 0
M  V30 1010 C 99.2877 -0.618474 -3.37683 0
M  V30 1011 C 98.3737 -1.71437 -3.87905 0
M  V30 1012 N 98.7647 -2.9477 -4.11029 0
M  V30 1013 C 97.0627 -1.5926 -4.16596 0
M  V30 1014 C 97.7637 -3.65834 -4.52261 0
M  V30 1015 N 96.7397 -2.9341 -4.57615 0
M  V30 1016 H 100.542 -1.94487 -2.20345 0
M  V30 1017 H 98.0557 -1.14805 -1.14863 0
M  V30 1018 H 100.053 -0.429247 -4.14684 0
M  V30 1019 H 98.7127 0.310766 -3.23209 0
M  V30 1020 H 99.7237 -3.30917 -3.9839 0
M  V30 1021 H 96.4007 -0.731606 -4.1104 0
M  V30 1022 H 97.7907 -4.71646 -4.78539 0
M  V30 1023 N 100.511 1.16574 -1.06058 0
M  V30 1024 C 101.758 1.87047 -0.775873 0
M  V30 1025 C 102.086 1.81562 0.697534 0
M  V30 1026 O 101.341 1.22445 1.52662 0
M  V30 1027 C 101.64 3.36195 -1.21275 0
M  V30 1028 C 101.306 3.6188 -2.68986 0
M  V30 1029 C 99.9678 3.68599 -3.09335 0
M  V30 1030 C 102.32 3.72648 -3.64394 0
M  V30 1031 C 99.6478 3.83584 -4.43937 0
M  V30 1032 C 102 3.89154 -4.98741 0
M  V30 1033 C 100.664 3.94114 -5.3873 0
M  V30 1034 H 99.9338 0.684452 -0.283912 0
M  V30 1035 H 102.581 1.37853 -1.32925 0
M  V30 1036 H 100.886 3.87505 -0.578528 0
M  V30 1037 H 102.583 3.89103 -0.969542 0
M  V30 1038 H 99.1728 3.57281 -2.36744 0
M  V30 1039 H 103.357 3.66769 -3.34356 0
M  V30 1040 H 98.6128 3.85677 -4.74409 0
M  V30 1041 H 102.787 3.96427 -5.72554 0
M  V30 1042 H 100.414 4.05478 -6.43033 0
M  V30 1043 N 101.989 0.842826 1.3317 0
M  V30 1044 C 103.236 0.440447 1.97652 0
M  V30 1045 C 103.564 -1.00123 1.6675 0
M  V30 1046 O 102.819 -1.7155 0.941761 0
M  V30 1047 C 103.118 0.612607 3.52111 0
M  V30 1048 C 102.784 2.02297 4.02972 0
M  V30 1049 C 101.446 2.40874 4.16573 0
M  V30 1050 C 103.798 2.94402 4.30089 0
M  V30 1051 C 101.126 3.70852 4.54627 0
M  V30 1052 C 103.478 4.23865 4.69597 0
M  V30 1053 C 102.142 4.62392 4.81404 0
M  V30 1054 H 101.412 0.161171 0.72326 0
M  V30 1055 H 104.059 1.07061 1.58777 0
M  V30 1056 H 102.364 -0.100849 3.9167 0
M  V30 1057 H 104.061 0.2815 4.00011 0
M  V30 1058 H 100.651 1.71338 3.92863 0
M  V30 1059 H 104.835 2.65835 4.19101 0
M  V30 1060 H 100.091 4.00501 4.61962 0
M  V30 1061 H 104.265 4.95306 4.89536 0
M  V30 1062 H 101.892 5.63154 5.10648 0
M  V30 1063 N 103.467 -1.45747 0.599634 0
M  V30 1064 C 104.415 -2.322 -0.136426 0
M  V30 1065 C 105.409 -1.45497 -0.867583 0
M  V30 1066 O 106.615 -1.62027 -0.78405 0
M  V30 1067 H 102.99 -0.749368 -0.0628588 0
M  V30 1068 H 104.961 -2.92072 0.611281 0
M  V30 1069 C 103.71 -3.28974 -1.12567 0
M  V30 1070 H 103.033 -3.9568 -0.572484 0
M  V30 1071 H 104.473 -3.92212 -1.61077 0
M  V30 1072 C 102.932 -2.55561 -2.19523 0
M  V30 1073 O 103.462 -2.33111 -3.27143 0
M  V30 1074 N 101.668 -2.15832 -1.94589 0
M  V30 1075 H 101.215 -2.3429 -1.07078 0
M  V30 1076 H 101.173 -1.67034 -2.66359 0
M  V30 1077 N 104.945 -0.338344 -1.53925 0
M  V30 1078 C 106.192 0.259758 -2.00827 0
M  V30 1079 C 106.52 1.50973 -1.22628 0
M  V30 1080 O 105.775 1.93379 -0.300509 0
M  V30 1081 C 106.074 0.62448 -3.51902 0
M  V30 1082 C 105.74 -0.528006 -4.47798 0
M  V30 1083 C 104.402 -0.844298 -4.73735 0
M  V30 1084 C 106.754 -1.30143 -5.0469 0
M  V30 1085 C 104.082 -1.93648 -5.53821 0
M  V30 1086 C 106.434 -2.38382 -5.85967 0
M  V30 1087 C 105.098 -2.70576 -6.10201 0
M  V30 1088 H 104.368 0.0950523 -0.734878 0
M  V30 1089 H 107.015 -0.465182 -1.85764 0
M  V30 1090 H 105.32 1.43006 -3.64769 0
M  V30 1091 H 107.017 1.09905 -3.85645 0
M  V30 1092 H 103.607 -0.271421 -4.2774 0
M  V30 1093 H 107.791 -1.07033 -4.84621 0
M  V30 1094 H 103.047 -2.19021 -5.70824 0
M  V30 1095 H 107.221 -2.98746 -6.29066 0
M  V30 1096 H 104.848 -3.55333 -6.72044 0
M  V30 1097 N 106.423 1.57458 -0.0668435 0
M  V30 1098 C 107.839 1.56947 0.289772 0
M  V30 1099 C 108.039 1.07584 1.70376 0
M  V30 1100 O 107.095 0.739486 2.41429 0
M  V30 1101 C 108.408 3.0052 0.103943 0
M  V30 1102 C 109.956 3.12517 0.173857 0
M  V30 1103 C 110.431 4.57997 0.0163682 0
M  V30 1104 N 111.922 4.63144 0.0721352 0
M  V30 1105 C 112.657 5.73394 -0.0253794 0
M  V30 1106 N 112.153 6.92576 -0.176133 0
M  V30 1107 N 113.946 5.62091 0.0313305 0
M  V30 1108 H 106.097 1.87863 -0.991027 0
M  V30 1109 H 108.36 0.86583 -0.38606 0
M  V30 1110 H 108.066 3.40729 -0.871572 0
M  V30 1111 H 107.94 3.67304 0.858366 0
M  V30 1112 H 110.327 2.72197 1.13985 0
M  V30 1113 H 110.408 2.48381 -0.611586 0
M  V30 1114 H 110.052 4.99005 -0.946374 0
M  V30 1115 H 109.982 5.20158 0.821153 0
M  V30 1116 H 112.473 3.77436 0.187263 0
M  V30 1117 H 112.786 7.72418 -0.242821 0
M  V30 1118 H 111.131 6.94678 -0.211429 0
M  V30 1119 H 114.322 4.67867 0.147773 0
M  V30 1120 H 114.495 6.47982 -0.048121 0
M  V30 1121 N 107.901 -0.206675 1.56239 0
M  V30 1122 C 109.126 -0.949474 1.8439 0
M  V30 1123 C 109.551 -1.76549 0.649016 0
M  V30 1124 O 108.909 -1.76782 -0.402231 0
M  V30 1125 C 108.957 -1.83078 3.10668 0
M  V30 1126 O 108.061 -2.9281 2.90407 0
M  V30 1127 H 107.402 -0.268033 0.607499 0
M  V30 1128 H 109.932 -0.215488 2.03462 0
M  V30 1129 H 109.942 -2.2377 3.41161 0
M  V30 1130 H 108.617 -1.23112 3.97261 0
M  V30 1131 H 107.194 -2.55956 2.71184 0
M  V30 1132 N 109.379 -1.50304 -0.473955 0
M  V30 1133 C 110.627 -1.60832 -1.22382 0
M  V30 1134 C 110.948 -0.30939 -1.9253 0
M  V30 1135 O 110.218 0.67296 -1.83978 0
M  V30 1136 H 108.798 -0.592652 -0.454723 0
M  V30 1137 H 111.46 -1.87068 -0.546968 0
M  V30 1138 H 110.556 -2.41803 -1.97327 0
M  V30 1139 N 110.857 0.726932 -1.39834 0
M  V30 1140 C 112.082 1.52121 -1.40976 0
M  V30 1141 C 112.507 1.88098 -0.00826029 0
M  V30 1142 O 111.865 1.52479 0.980807 0
M  V30 1143 C 111.913 2.78021 -2.29644 0
M  V30 1144 O 111.017 3.74272 -1.73188 0
M  V30 1145 H 110.358 0.45908 -0.479731 0
M  V30 1146 H 112.888 0.896207 -1.83927 0
M  V30 1147 H 112.898 3.26671 -2.44438 0
M  V30 1148 H 111.573 2.51169 -3.31492 0
M  V30 1149 H 110.15 3.33073 -1.6768 0
M  V30 1150 N 112.336 1.25143 0.95797 0
M  V30 1151 C 113.747 1.08851 1.51685 0
M  V30 1152 C 114.098 -0.33687 1.93286 0
M  V30 1153 O 113.223 -1.22644 1.7829 0
M  V30 1154 C 113.818 1.96978 2.75654 0
M  V30 1155 C 112.377 1.84881 3.27866 0
M  V30 1156 C 111.524 1.91329 2.0072 0
M  V30 1157 H 114.475 1.38478 0.77522 0
M  V30 1158 H 114.496 1.5078 3.4935 0
M  V30 1159 H 114.008 3.00712 2.45345 0
M  V30 1160 H 112.109 0.840182 3.63004 0
M  V30 1161 H 112.222 2.6951 3.96107 0
M  V30 1162 H 110.586 1.35174 2.15871 0
M  V30 1163 H 111.369 2.96661 1.72764 0
M  V30 1164 N 113.814 -1.1601 1.06675 0
M  V30 1165 C 115.039 -1.91068 0.806706 0
M  V30 1166 C 115.464 -1.77112 -0.633485 0
M  V30 1167 O 114.822 -1.09908 -1.44187 0
M  V30 1168 C 114.87 -3.39655 1.21106 0
M  V30 1169 O 113.974 -4.10893 0.352189 0
M  V30 1170 H 113.315 -0.595125 0.294486 0
M  V30 1171 H 115.845 -1.46955 1.42356 0
M  V30 1172 H 115.855 -3.90434 1.18428 0
M  V30 1173 H 114.53 -3.49132 2.26008 0
M  V30 1174 H 113.107 -3.70285 0.440868 0
M  V30 1175 N 115.292 -0.849877 -1.32721 0
M  V30 1176 C 116.255 -0.296122 -2.27279 0
M  V30 1177 C 117.255 0.541458 -1.5141 0
M  V30 1178 O 118.445 0.353658 -1.70572 0
M  V30 1179 C 115.577 0.581579 -3.35902 0
M  V30 1180 H 116.77 -1.13064 -2.77771 0
M  V30 1181 H 114.323 -0.62383 -1.43311 0
M  V30 1182 H 115.058 1.43809 -2.9067 0
M  V30 1183 H 114.843 -0.0178814 -3.92096 0
M  V30 1184 H 116.333 0.961951 -4.0637 0
M  V30 1185 N 116.77 1.45427 -0.607355 0
M  V30 1186 C 117.7 2.3329 0.0989352 0
M  V30 1187 C 118.681 1.46816 0.859007 0
M  V30 1188 O 119.866 1.75588 0.829604 0
M  V30 1189 C 116.996 3.29518 1.09705 0
M  V30 1190 C 115.95 4.25626 0.450206 0
M  V30 1191 C 115.276 5.11542 1.55655 0
M  V30 1192 C 116.576 5.18505 -0.628455 0
M  V30 1193 H 118.27 2.92595 -0.634716 0
M  V30 1194 H 115.816 1.40696 -0.306681 0
M  V30 1195 H 117.769 3.89855 1.59971 0
M  V30 1196 H 116.493 2.68372 1.86129 0
M  V30 1197 H 115.152 3.66586 -0.0315886 0
M  V30 1198 H 114.8 4.46765 2.31107 0
M  V30 1199 H 114.5 5.76647 1.12925 0
M  V30 1200 H 116.024 5.74748 2.06148 0
M  V30 1201 H 117.438 5.72916 -0.209877 0
M  V30 1202 H 115.835 5.92085 -0.977489 0
M  V30 1203 H 116.905 4.60948 -1.50514 0
M  V30 1204 N 118.248 0.346503 1.53744 0
M  V30 1205 C 119.664 -0.00530975 1.59599 0
M  V30 1206 C 119.864 -1.48465 1.36236 0
M  V30 1207 O 118.92 -2.24376 1.15808 0
M  V30 1208 C 120.233 0.433516 2.97559 0
M  V30 1209 C 121.781 0.386111 3.10609 0
M  V30 1210 C 122.256 0.800451 4.50951 0
M  V30 1211 N 123.747 0.754753 4.5701 0
M  V30 1212 C 124.482 1.04727 5.63755 0
M  V30 1213 N 123.978 1.4081 6.7834 0
M  V30 1214 N 125.771 0.971316 5.53644 0
M  V30 1215 H 117.922 1.31009 1.67184 0
M  V30 1216 H 120.185 0.534242 0.783128 0
M  V30 1217 H 119.891 1.46509 3.19731 0
M  V30 1218 H 119.765 -0.189753 3.76722 0
M  V30 1219 H 122.152 -0.636295 2.88158 0
M  V30 1220 H 122.233 1.04462 2.33498 0
M  V30 1221 H 121.877 1.82088 4.74137 0
M  V30 1222 H 121.807 0.119386 5.26465 0
M  V30 1223 H 124.298 0.488662 3.74727 0
M  V30 1224 H 124.611 1.61607 7.55714 0
M  V30 1225 H 122.956 1.44657 6.79779 0
M  V30 1226 H 126.147 0.688748 4.63005 0
M  V30 1227 H 126.32 1.20263 6.36742 0
M  V30 1228 N 119.726 -1.57421 0.075193 0
M  V30 1229 C 120.972 -1.93905 -0.594025 0
M  V30 1230 C 121.305 -0.955701 -1.69056 0
M  V30 1231 O 120.58 0.0145373 -1.94495 0
M  V30 1232 C 120.863 -3.40638 -1.1678 0
M  V30 1233 C 120.716 -4.49733 -0.0776792 0
M  V30 1234 C 122.035 -3.88259 -2.07228 0
M  V30 1235 H 119.154 -0.705105 -0.214466 0
M  V30 1236 H 121.796 -1.8947 0.141854 0
M  V30 1237 H 119.946 -3.44549 -1.79494 0
M  V30 1238 H 121.618 -4.57942 0.555573 0
M  V30 1239 H 119.861 -4.29751 0.591286 0
M  V30 1240 H 120.532 -5.49549 -0.519603 0
M  V30 1241 H 123.008 -3.86376 -1.54445 0
M  V30 1242 H 121.884 -4.91533 -2.44308 0
M  V30 1243 H 122.145 -3.26396 -2.98191 0
M  V30 1244 N 121.204 0.198386 -1.56346 0
M  V30 1245 C 122.134 1.24865 -1.9731 0
M  V30 1246 C 123.115 1.47651 -0.844576 0
M  V30 1247 O 124.3 1.59444 -1.10866 0
M  V30 1248 C 121.43 2.59358 -2.30977 0
M  V30 1249 C 120.384 2.5119 -3.46537 0
M  V30 1250 C 119.71 3.89926 -3.65871 0
M  V30 1251 C 121.01 2.03977 -4.80823 0
M  V30 1252 H 122.704 0.908252 -2.85291 0
M  V30 1253 H 120.25 0.435462 -1.37258 0
M  V30 1254 H 122.203 3.33011 -2.58228 0
M  V30 1255 H 120.927 2.95132 -1.39874 0
M  V30 1256 H 119.586 1.79993 -3.19371 0
M  V30 1257 H 119.234 4.23046 -2.72105 0
M  V30 1258 H 118.934 3.85336 -4.4361 0
M  V30 1259 H 120.458 4.65205 -3.95495 0
M  V30 1260 H 121.872 2.67386 -5.07127 0
M  V30 1261 H 120.269 2.10397 -5.62008 0
M  V30 1262 H 121.339 0.992861 -4.74626 0
M  V30 1263 N 122.682 1.50554 0.465978 0
M  V30 1264 C 123.645 1.69233 1.54574 0
M  V30 1265 C 124.645 0.562901 1.50626 0
M  V30 1266 O 125.835 0.830016 1.53155 0
M  V30 1267 C 122.967 1.7223 2.94193 0
M  V30 1268 H 124.16 2.65571 1.39327 0
M  V30 1269 H 121.713 1.40111 0.692711 0
M  V30 1270 H 122.448 0.77603 3.14878 0
M  V30 1271 H 122.233 2.54285 2.98466 0
M  V30 1272 H 123.723 1.88618 3.72576 0
M  V30 1273 N 124.16 -0.719506 1.40217 0
M  V30 1274 C 125.07 -1.86378 1.42479 0
M  V30 1275 C 126.086 -1.71073 0.317834 0
M  V30 1276 O 127.262 -1.93406 0.561794 0
M  V30 1277 C 124.327 -3.22136 1.28178 0
M  V30 1278 C 123.388 -3.49723 2.48982 0
M  V30 1279 C 122.621 -4.79004 2.35353 0
M  V30 1280 O 122.844 -5.53821 1.36524 0
M  V30 1281 O 121.778 -5.06839 3.2465 0
M  V30 1282 H 125.604 -1.87425 2.38968 0
M  V30 1283 H 123.189 -0.869405 1.21498 0
M  V30 1284 H 125.071 -4.03234 1.22395 0
M  V30 1285 H 123.746 -3.21825 0.347934 0
M  V30 1286 H 122.653 -2.6865 2.60342 0
M  V30 1287 H 123.986 -3.54828 3.41113 0
M  V30 1288 N 125.638 -1.25649 -0.95132 0
M  V30 1289 C 126.884 -1.10757 -1.69884 0
M  V30 1290 C 127.217 0.350061 -1.91019 0
M  V30 1291 O 126.492 1.25783 -1.48354 0
M  V30 1292 C 126.775 -1.86606 -3.07978 0
M  V30 1293 C 126.628 -3.40217 -2.94232 0
M  V30 1294 C 127.947 -1.65182 -4.07925 0
M  V30 1295 H 125.066 -0.40374 -0.616574 0
M  V30 1296 H 127.708 -1.54521 -1.10558 0
M  V30 1297 H 125.858 -1.49409 -3.58621 0
M  V30 1298 H 127.53 -3.87108 -2.50889 0
M  V30 1299 H 125.773 -3.67759 -2.30078 0
M  V30 1300 H 126.444 -3.88505 -3.92133 0
M  V30 1301 H 128.92 -1.9757 -3.66204 0
M  V30 1302 H 127.796 -2.20683 -5.02583 0
M  V30 1303 H 128.057 -0.593933 -4.38092 0
M  V30 1304 N 127.117 1.15442 -1.07289 0
M  V30 1305 C 128.049 2.19773 -0.650585 0
M  V30 1306 C 129.062 1.60076 0.296572 0
M  V30 1307 O 130.251 1.78293 0.0859905 0
M  V30 1308 C 127.351 3.38838 0.0650398 0
M  V30 1309 C 126.524 4.2808 -0.898141 0
M  V30 1310 C 125.583 5.2574 -0.219926 0
M  V30 1311 O 124.609 5.62654 -0.860773 0
M  V30 1312 N 125.811 5.71205 1.03466 0
M  V30 1313 H 128.576 2.56622 -1.54808 0
M  V30 1314 H 126.137 1.30551 -0.957494 0
M  V30 1315 H 128.129 4.01222 0.529415 0
M  V30 1316 H 126.699 3.00409 0.864466 0
M  V30 1317 H 125.919 3.62804 -1.54165 0
M  V30 1318 H 127.207 4.84577 -1.5512 0
M  V30 1319 H 126.605 5.43325 1.57526 0
M  V30 1320 H 125.162 6.35633 1.44272 0
M  V30 1321 N 128.595 0.856903 1.32268 0
M  V30 1322 C 129.505 0.306131 2.32594 0
M  V30 1323 C 130.521 -0.577209 1.64147 0
M  V30 1324 O 131.697 -0.477043 1.95669 0
M  V30 1325 C 128.762 -0.494561 3.43154 0
M  V30 1326 C 127.823 0.415186 4.27288 0
M  V30 1327 C 127.056 -0.347387 5.32568 0
M  V30 1328 O 127.279 -1.57708 5.48165 0
M  V30 1329 O 126.213 0.287982 6.01211 0
M  V30 1330 H 130.039 1.13737 2.81598 0
M  V30 1331 H 127.624 0.619902 1.35932 0
M  V30 1332 H 129.506 -0.948944 4.10576 0
M  V30 1333 H 128.181 -1.30257 2.96336 0
M  V30 1334 H 127.088 0.917793 3.62667 0
M  V30 1335 H 128.421 1.18844 4.77637 0
M  V30 1336 N 130.073 -1.45103 0.615059 0
M  V30 1337 C 131.321 -2.01784 0.112955 0
M  V30 1338 C 131.642 -1.48504 -1.26378 0
M  V30 1339 O 130.912 -0.682245 -1.83636 0
M  V30 1340 H 129.492 -0.745993 0.0387668 0
M  V30 1341 H 132.154 -1.77808 0.798141 0
M  V30 1342 H 131.25 -3.12025 0.0684069 0
M  V30 1343 N 131.551 -0.354651 -1.53558 0
M  V30 1344 C 132.967 -0.00315426 -1.596 0
M  V30 1345 C 133.167 1.47741 -1.37021 0
M  V30 1346 O 132.223 2.23759 -1.16996 0
M  V30 1347 C 133.536 -0.44929 -2.97325 0
M  V30 1348 C 135.084 -0.402578 -3.104 0
M  V30 1349 C 135.559 -0.824355 -4.5052 0
M  V30 1350 N 137.05 -0.778979 -4.56603 0
M  V30 1351 C 137.785 -1.07715 -5.63192 0
M  V30 1352 N 137.281 -1.44405 -6.77583 0
M  V30 1353 N 139.074 -1.00066 -5.53121 0
M  V30 1354 H 131.225 -1.31893 -1.66487 0
M  V30 1355 H 133.488 -0.538388 -0.780284 0
M  V30 1356 H 133.194 -1.48202 -3.1895 0
M  V30 1357 H 133.068 0.169772 -3.76818 0
M  V30 1358 H 135.455 0.621004 -2.88492 0
M  V30 1359 H 135.536 -1.05699 -2.32941 0
M  V30 1360 H 135.18 -1.846 -4.73165 0
M  V30 1361 H 135.11 -0.147304 -5.26394 0
M  V30 1362 H 137.601 -0.508528 -3.74463 0
M  V30 1363 H 137.914 -1.65612 -7.54846 0
M  V30 1364 H 136.259 -1.4826 -6.79002 0
M  V30 1365 H 139.45 -0.713293 -4.62633 0
M  V30 1366 H 139.623 -1.23638 -6.36096 0
M  V30 1367 N 133.029 1.57378 -0.0835403 0
M  V30 1368 C 133.992 2.12252 0.864959 0
M  V30 1369 C 134.992 1.04916 1.21858 0
M  V30 1370 O 136.182 1.30853 1.14991 0
M  V30 1371 C 133.314 2.63358 2.16461 0
M  V30 1372 H 134.507 2.97371 0.388676 0
M  V30 1373 H 132.06 1.55423 0.165317 0
M  V30 1374 H 132.795 1.81727 2.686 0
M  V30 1375 H 132.58 3.41826 1.92087 0
M  V30 1376 H 134.07 3.05847 2.84337 0
M  V30 1377 N 134.507 -0.190092 1.56449 0
M  V30 1378 C 135.753 -0.906472 1.82084 0
M  V30 1379 C 136.108 -1.80677 0.661335 0
M  V30 1380 O 135.401 -1.88501 -0.343237 0
M  V30 1381 C 135.595 -1.75382 3.1141 0
M  V30 1382 C 135.424 -0.937053 4.39829 0
M  V30 1383 C 134.194 -0.619507 5.01488 0
M  V30 1384 C 136.392 -0.2874 5.13496 0
M  V30 1385 N 134.374 0.215367 6.13522 0
M  V30 1386 C 135.745 0.409454 6.18646 0
M  V30 1387 C 137.8 -0.203639 4.97483 0
M  V30 1388 C 136.503 1.1821 7.0952 0
M  V30 1389 C 138.529 0.555622 5.88784 0
M  V30 1390 C 137.891 1.24091 6.93384 0
M  V30 1391 H 133.99 -0.310931 0.717528 0
M  V30 1392 H 136.574 -0.174821 1.93914 0
M  V30 1393 H 134.745 -2.45703 3.00806 0
M  V30 1394 H 136.477 -2.41006 3.25112 0
M  V30 1395 H 133.232 -0.945126 4.64074 0
M  V30 1396 H 133.656 0.622562 6.74131 0
M  V30 1397 H 138.298 -0.719099 4.1664 0
M  V30 1398 H 136.016 1.70897 7.89823 0
M  V30 1399 H 139.602 0.621854 5.78467 0
M  V30 1400 H 138.482 1.81901 7.62812 0
M  V30 1401 N 135.985 -1.50799 -0.457987 0
M  V30 1402 C 137.234 -1.6168 -1.20593 0
M  V30 1403 C 137.547 -0.32888 -1.92815 0
M  V30 1404 O 138.753 -0.316773 -2.69646 0
M  V30 1405 C 137.209 -2.8545 -2.19195 0
M  V30 1406 C 136.817 -4.21168 -1.52715 0
M  V30 1407 C 138.561 -3.05681 -2.94549 0
M  V30 1408 C 136.468 -5.3611 -2.4968 0
M  V30 1409 H 135.398 -0.602134 -0.453818 0
M  V30 1410 H 138.049 -1.77245 -0.475031 0
M  V30 1411 H 136.431 -2.63472 -2.95632 0
M  V30 1412 H 137.605 -4.53449 -0.819775 0
M  V30 1413 H 135.92 -4.06648 -0.895922 0
M  V30 1414 H 138.517 -3.88727 -3.67145 0
M  V30 1415 H 138.86 -2.17929 -3.54701 0
M  V30 1416 H 139.393 -3.27901 -2.25223 0
M  V30 1417 H 136.132 -6.26057 -1.94249 0
M  V30 1418 H 135.652 -5.0823 -3.18532 0
M  V30 1419 H 137.331 -5.6722 -3.11241 0
M  V30 1420 N 137.463 0.71206 -1.40597 0
M  V30 1421 C 138.411 1.84746 -1.41321 0
M  V30 1422 C 139.405 1.66842 -0.293268 0
M  V30 1423 O 140.611 1.73904 -0.464481 0
M  V30 1424 H 136.986 0.608522 -0.441819 0
M  V30 1425 H 138.957 1.81252 -2.37045 0
M  V30 1426 C 137.706 3.22638 -1.29614 0
M  V30 1427 H 137.029 3.37023 -2.15071 0
M  V30 1428 H 138.469 4.02209 -1.3418 0
M  V30 1429 C 136.928 3.36899 -0.00673121 0
M  V30 1430 O 137.458 3.90186 0.954859 0
M  V30 1431 N 135.664 2.9053 0.0639327 0
M  V30 1432 H 135.211 2.47353 -0.719311 0
M  V30 1433 H 135.169 3.0045 0.926118 0
M  V30 1434 N 138.941 1.26152 0.944643 0
M  V30 1435 C 140.352 1.10454 1.50522 0
M  V30 1436 C 140.703 -0.31635 1.93633 0
M  V30 1437 O 139.828 -1.20746 1.79581 0
M  V30 1438 C 140.423 1.99891 2.73549 0
M  V30 1439 C 138.982 1.88348 3.25886 0
M  V30 1440 C 138.129 1.93447 1.9868 0
M  V30 1441 H 141.08 1.39292 0.760489 0
M  V30 1442 H 141.101 1.54477 3.47732 0
M  V30 1443 H 140.613 3.03297 2.42141 0
M  V30 1444 H 138.714 0.878636 3.62092 0
M  V30 1445 H 138.827 2.73696 3.93227 0
M  V30 1446 H 137.191 1.37456 2.14425 0
M  V30 1447 H 137.974 2.98476 1.69607 0
M  V30 1448 N 140.419 -1.14872 1.07899 0
M  V30 1449 C 141.366 -2.19791 0.704319 0
M  V30 1450 C 142.336 -1.63238 -0.306987 0
M  V30 1451 O 143.521 -1.8983 -0.192171 0
M  V30 1452 C 140.661 -3.44911 0.114244 0
M  V30 1453 C 139.774 -4.15637 1.1777 0
M  V30 1454 C 138.909 -5.28324 0.552037 0
M  V30 1455 C 137.948 -5.90875 1.59789 0
M  V30 1456 N 137.085 -6.95022 0.994404 0
M  V30 1457 H 141.925 -2.5119 1.60336 0
M  V30 1458 H 139.462 -1.23356 0.801352 0
M  V30 1459 H 141.42 -4.16477 -0.245544 0
M  V30 1460 H 140.05 -3.14011 -0.74813 0
M  V30 1461 H 139.102 -3.42512 1.65499 0
M  V30 1462 H 140.414 -4.5823 1.97046 0
M  V30 1463 H 139.568 -6.06538 0.1402 0
M  V30 1464 H 138.307 -4.86939 -0.272431 0
M  V30 1465 H 137.312 -5.11369 2.01945 0
M  V30 1466 H 138.537 -6.34337 2.42474 0
M  V30 1467 H 136.483 -6.55722 0.190939 0
M  V30 1468 H 136.4 -7.36073 1.72432 0
M  V30 1469 H 137.668 -7.77123 0.608253 0
M  V30 1470 N 141.898 -0.863906 -1.31812 0
M  V30 1471 C 142.808 -0.318461 -2.32428 0
M  V30 1472 C 143.824 0.568496 -1.64451 0
M  V30 1473 O 145 0.46666 -1.95919 0
M  V30 1474 C 142.065 0.476355 -3.43412 0
M  V30 1475 C 141.126 -0.43784 -4.27061 0
M  V30 1476 C 140.359 0.319138 -5.32745 0
M  V30 1477 O 140.582 1.54799 -5.48993 0
M  V30 1478 O 139.516 -0.319861 -6.01049 0
M  V30 1479 H 143.342 -1.15229 -2.80991 0
M  V30 1480 H 140.927 -0.627103 -1.35602 0
M  V30 1481 H 142.809 0.927156 -4.11074 0
M  V30 1482 H 141.484 1.28683 -2.97022 0
M  V30 1483 H 140.391 -0.937013 -3.62175 0
M  V30 1484 H 141.724 -1.21375 -4.77 0
M  V30 1485 N 143.376 1.44774 -0.622745 0
M  V30 1486 C 144.624 2.01721 -0.123655 0
M  V30 1487 C 144.945 1.49172 1.25589 0
M  V30 1488 O 144.215 0.691974 1.83272 0
M  V30 1489 H 142.795 0.745777 -0.0427225 0
M  V30 1490 H 145.457 1.77382 -0.807559 0
M  V30 1491 H 144.553 3.11984 -0.0849534 0
M  V30 1492 N 144.854 0.36279 1.53368 0
M  V30 1493 C 146.094 -0.227882 2.03126 0
M  V30 1494 C 146.458 -1.4622 1.24434 0
M  V30 1495 O 147.659 -2.12831 1.64184 0
M  V30 1496 C 145.93 -0.515427 3.53664 0
M  V30 1497 S 147.489 -1.08017 4.25297 0
M  V30 1498 H 144.307 -0.0665377 0.70788 0
M  V30 1499 H 146.909 0.50501 1.88865 0
M  V30 1500 H 145.613 0.390436 4.08539 0
M  V30 1501 H 145.144 -1.27747 3.72081 0
M  V30 1502 H 147.159 -2.36462 4.36234 0
M  V30 1503 N 146.332 -1.57332 0.0918853 0
M  V30 1504 C 147.279 -2.13847 -0.868211 0
M  V30 1505 C 148.249 -1.05618 -1.28196 0
M  V30 1506 O 149.434 -1.33387 -1.36427 0
M  V30 1507 C 146.574 -2.72062 -2.12312 0
M  V30 1508 C 145.687 -3.94514 -1.7602 0
M  V30 1509 C 144.822 -4.40903 -2.96273 0
M  V30 1510 C 143.861 -5.55953 -2.56092 0
M  V30 1511 N 142.998 -5.97209 -3.69169 0
M  V30 1512 H 147.838 -2.95575 -0.379406 0
M  V30 1513 H 145.375 -1.46048 -0.175606 0
M  V30 1514 H 147.333 -3.03931 -2.858 0
M  V30 1515 H 145.963 -1.93068 -2.58698 0
M  V30 1516 H 145.015 -3.68979 -0.925135 0
M  V30 1517 H 146.327 -4.7802 -1.42472 0
M  V30 1518 H 145.481 -4.74539 -3.78018 0
M  V30 1519 H 144.22 -3.56291 -3.33029 0
M  V30 1520 H 143.225 -5.21948 -1.72773 0
M  V30 1521 H 144.45 -6.42311 -2.20484 0
M  V30 1522 H 142.396 -5.15543 -4.05649 0
M  V30 1523 H 142.313 -6.75504 -3.39456 0
M  V30 1524 H 143.581 -6.35475 -4.51434 0
M  V30 1525 N 147.81 0.181792 -1.56548 0
M  V30 1526 C 149.056 0.901431 -1.81665 0
M  V30 1527 C 149.389 1.82347 -0.668075 0
M  V30 1528 O 148.664 1.91669 0.330615 0
M  V30 1529 C 148.947 1.70618 -3.17115 0
M  V30 1530 C 148.8 0.807964 -4.42484 0
M  V30 1531 C 150.119 2.67605 -3.49393 0
M  V30 1532 H 147.238 0.32627 -0.660846 0
M  V30 1533 H 149.88 0.168134 -1.89255 0
M  V30 1534 H 148.03 2.33133 -3.10775 0
M  V30 1535 H 149.702 0.19649 -4.60881 0
M  V30 1536 H 147.945 0.115411 -4.33646 0
M  V30 1537 H 148.616 1.40632 -5.33785 0
M  V30 1538 H 151.092 2.15218 -3.56118 0
M  V30 1539 H 149.968 3.20985 -4.45264 0
M  V30 1540 H 150.229 3.47298 -2.73563 0
M  V30 1541 N 149.288 1.51039 0.449983 0
M  V30 1542 C 150.238 1.67824 1.54335 0
M  V30 1543 C 151.222 0.5324 1.51836 0
M  V30 1544 O 152.414 0.787762 1.58503 0
M  V30 1545 C 149.543 1.7951 2.92628 0
M  V30 1546 C 148.629 2.99838 2.9993 0
M  V30 1547 N 149.02 4.23207 2.77001 0
M  V30 1548 C 147.318 2.98832 3.31082 0
M  V30 1549 C 148.019 5.04361 2.89818 0
M  V30 1550 N 146.995 4.38746 3.2094 0
M  V30 1551 H 150.797 2.60884 1.35339 0
M  V30 1552 H 148.311 1.48513 0.657085 0
M  V30 1553 H 150.308 1.89642 3.7127 0
M  V30 1554 H 148.968 0.876227 3.12654 0
M  V30 1555 H 149.979 4.5236 2.52172 0
M  V30 1556 H 146.656 2.16527 3.56963 0
M  V30 1557 H 148.046 6.12528 2.76151 0
M  V30 1558 N 150.766 -0.704594 1.40972 0
M  V30 1559 C 152.012 -1.46675 1.40051 0
M  V30 1560 C 152.345 -1.94199 0.00641102 0
M  V30 1561 O 151.62 -1.68916 -0.964235 0
M  V30 1562 C 151.903 -2.68505 2.39952 0
M  V30 1563 C 151.756 -2.26805 3.88432 0
M  V30 1564 C 153.075 -3.70686 2.37233 0
M  V30 1565 H 150.194 -0.532015 0.510028 0
M  V30 1566 H 152.836 -0.803255 1.72185 0
M  V30 1567 H 150.986 -3.25114 2.1268 0
M  V30 1568 H 152.658 -1.75592 4.26574 0
M  V30 1569 H 150.901 -1.58685 4.03734 0
M  V30 1570 H 151.572 -3.14181 4.53866 0
M  V30 1571 H 154.048 -3.23731 2.61415 0
M  V30 1572 H 152.924 -4.53553 3.09162 0
M  V30 1573 H 153.185 -4.19754 1.38777 0
M  V30 1574 N 152.244 -1.26651 -0.937939 0
M  V30 1575 C 153.49 -1.12553 -1.687 0
M  V30 1576 C 153.823 0.329782 -1.91379 0
M  V30 1577 O 153.098 1.24202 -1.4968 0
M  V30 1578 C 153.381 -1.89862 -3.05981 0
M  V30 1579 C 153.234 -3.43318 -2.90607 0
M  V30 1580 C 154.553 -1.69499 -4.0615 0
M  V30 1581 H 151.672 -0.410257 -0.612257 0
M  V30 1582 H 154.314 -1.55685 -1.08913 0
M  V30 1583 H 152.464 -1.53204 -3.57017 0
M  V30 1584 H 154.136 -3.89747 -2.46769 0
M  V30 1585 H 152.379 -3.70179 -2.26164 0
M  V30 1586 H 153.05 -3.92642 -3.8799 0
M  V30 1587 H 155.526 -2.01442 -3.64088 0
M  V30 1588 H 154.402 -2.26002 -5.00214 0
M  V30 1589 H 154.663 -0.640365 -4.37438 0
M  V30 1590 N 153.722 1.14298 -1.08507 0
M  V30 1591 C 154.969 1.85359 -0.815373 0
M  V30 1592 C 155.297 1.83001 0.658865 0
M  V30 1593 O 154.552 1.25655 1.50031 0
M  V30 1594 C 154.851 3.33547 -1.28379 0
M  V30 1595 C 154.517 3.56093 -2.76602 0
M  V30 1596 C 153.179 3.61955 -3.17084 0
M  V30 1597 C 155.531 3.64834 -3.72217 0
M  V30 1598 C 152.859 3.74082 -4.51973 0
M  V30 1599 C 155.211 3.78487 -5.06883 0
M  V30 1600 C 153.875 3.82598 -5.46969 0
M  V30 1601 H 153.145 0.678276 -0.298366 0
M  V30 1602 H 155.792 1.35002 -1.35819 0
M  V30 1603 H 154.097 3.86191 -0.660593 0
M  V30 1604 H 155.794 3.86959 -1.05186 0
M  V30 1605 H 152.384 3.52179 -2.4427 0
M  V30 1606 H 156.568 3.59595 -3.42061 0
M  V30 1607 H 151.824 3.75527 -4.82483 0
M  V30 1608 H 155.998 3.84193 -5.80834 0
M  V30 1609 H 153.625 3.91747 -6.51489 0
M  V30 1610 N 155.201 0.870884 1.31352 0
M  V30 1611 C 156.426 0.495957 2.01383 0
M  V30 1612 C 156.851 -0.904324 1.64935 0
M  V30 1613 O 156.209 -1.59687 0.858466 0
M  V30 1614 C 156.257 0.661433 3.54482 0
M  V30 1615 O 155.361 -0.298851 4.11316 0
M  V30 1616 H 154.702 0.197158 0.634054 0
M  V30 1617 H 157.232 1.17455 1.67527 0
M  V30 1618 H 157.242 0.555072 4.04207 0
M  V30 1619 H 155.917 1.68246 3.8035 0
M  V30 1620 H 154.494 -0.147368 3.72609 0
M  V30 1621 N 156.679 -1.44442 0.630414 0
M  V30 1622 C 157.907 -2.06414 0.141671 0
M  V30 1623 C 158.322 -1.47105 -1.18345 0
M  V30 1624 O 157.679 -0.593662 -1.72574 0
M  V30 1625 C 157.73 -3.61494 0.0199784 0
M  V30 1626 O 157.451 -4.18594 1.29269 0
M  V30 1627 C 158.952 -4.40499 -0.497544 0
M  V30 1628 H 156.172 -0.666292 0.0793452 0
M  V30 1629 H 158.716 -1.85323 0.864614 0
M  V30 1630 H 156.871 -3.8185 -0.653402 0
M  V30 1631 H 157.285 -5.12026 1.13707 0
M  V30 1632 H 158.759 -5.49433 -0.531708 0
M  V30 1633 H 159.236 -4.11895 -1.52445 0
M  V30 1634 H 159.842 -4.25061 0.142562 0
M  V30 1635 N 158.157 -0.370918 -1.53173 0
M  V30 1636 C 159.067 0.480823 -2.2962 0
M  V30 1637 C 160.083 1.08789 -1.35798 0
M  V30 1638 O 161.259 1.09768 -1.68858 0
M  V30 1639 C 158.324 1.60227 -3.07454 0
M  V30 1640 C 157.385 1.0222 -4.16953 0
M  V30 1641 C 156.618 2.0902 -4.91066 0
M  V30 1642 O 156.841 3.30222 -4.65091 0
M  V30 1643 O 155.775 1.71778 -5.76867 0
M  V30 1644 H 159.601 -0.141421 -3.03371 0
M  V30 1645 H 157.186 -0.135146 -1.48787 0
M  V30 1646 H 159.068 2.25417 -3.56041 0
M  V30 1647 H 157.743 2.20982 -2.36535 0
M  V30 1648 H 156.65 0.334064 -3.72605 0
M  V30 1649 H 157.983 0.459131 -4.90054 0
M  V30 1650 N 159.635 1.57281 -0.100228 0
M  V30 1651 C 161.051 1.57527 0.256416 0
M  V30 1652 C 161.251 1.11173 1.68056 0
M  V30 1653 O 160.307 0.79053 2.39806 0
M  V30 1654 C 161.62 3.00673 0.0401747 0
M  V30 1655 C 163.168 3.12815 0.107528 0
M  V30 1656 C 163.643 4.57929 -0.0807834 0
M  V30 1657 N 165.134 4.63193 -0.0261207 0
M  V30 1658 C 165.869 5.73212 -0.146999 0
M  V30 1659 N 165.365 6.92047 -0.322999 0
M  V30 1660 N 167.158 5.62031 -0.0879044 0
M  V30 1661 H 159.309 1.85718 -1.03065 0
M  V30 1662 H 161.572 0.857446 -0.404339 0
M  V30 1663 H 161.278 3.38804 -0.943649 0
M  V30 1664 H 161.152 3.69042 0.780262 0
M  V30 1665 H 163.539 2.74554 1.08186 0
M  V30 1666 H 163.62 2.47028 -0.664134 0
M  V30 1667 H 163.264 4.96886 -1.05201 0
M  V30 1668 H 163.194 5.21783 0.710635 0
M  V30 1669 H 165.685 3.77748 0.107161 0
M  V30 1670 H 165.998 7.7173 -0.406608 0
M  V30 1671 H 164.343 6.94074 -0.358733 0
M  V30 1672 H 167.534 4.68075 0.048498 0
M  V30 1673 H 167.707 6.47734 -0.185557 0
M  V30 1674 N 161.113 -0.173488 1.56642 0
M  V30 1675 C 162.343 -0.904781 1.85734 0
M  V30 1676 C 162.751 -1.76431 0.68328 0
M  V30 1677 O 162.094 -1.802 -0.356865 0
M  V30 1678 C 162.156 -1.83382 3.09211 0
M  V30 1679 C 161.82 -1.15411 4.42187 0
M  V30 1680 C 162.817 -0.520609 5.17287 0
M  V30 1681 C 160.502 -1.15151 4.88923 0
M  V30 1682 C 162.496 0.106412 6.37311 0
M  V30 1683 C 160.183 -0.520664 6.08878 0
M  V30 1684 C 161.181 0.107196 6.82916 0
M  V30 1685 O 160.869 0.728102 8.00596 0
M  V30 1686 H 160.601 -0.268408 0.62043 0
M  V30 1687 H 163.155 -0.179096 2.04618 0
M  V30 1688 H 161.385 -2.59976 2.86268 0
M  V30 1689 H 163.074 -2.43476 3.24768 0
M  V30 1690 H 163.84 -0.514606 4.82262 0
M  V30 1691 H 159.719 -1.62961 4.31236 0
M  V30 1692 H 163.263 0.597081 6.9504 0
M  V30 1693 H 159.16 -0.524242 6.43368 0
M  V30 1694 H 159.928 0.627138 8.16094 0
M  V30 1695 N 162.591 -1.51276 -0.441967 0
M  V30 1696 C 163.539 -1.72823 -1.55676 0
M  V30 1697 C 164.533 -0.59445 -1.58627 0
M  V30 1698 O 165.739 -0.775715 -1.62427 0
M  V30 1699 H 162.114 -0.545983 -0.517113 0
M  V30 1700 H 164.085 -2.6628 -1.34675 0
M  V30 1701 C 162.834 -1.86619 -2.93375 0
M  V30 1702 H 162.157 -2.73264 -2.91834 0
M  V30 1703 H 163.597 -2.05709 -3.70756 0
M  V30 1704 C 162.056 -0.624842 -3.31055 0
M  V30 1705 O 162.586 0.222636 -4.01083 0
M  V30 1706 N 160.792 -0.470288 -2.86769 0
M  V30 1707 H 160.339 -1.161 -2.29953 0
M  V30 1708 H 160.297 0.359051 -3.12343 0
M  V30 1709 N 164.069 0.697108 -1.41344 0
M  V30 1710 C 165.48 1.27697 -1.36199 0
M  V30 1711 C 165.831 1.9615 -0.0443463 0
M  V30 1712 O 164.956 1.98689 0.857419 0
M  V30 1713 C 165.551 2.32223 -2.46694 0
M  V30 1714 C 164.11 2.8579 -2.44952 0
M  V30 1715 C 163.257 1.59807 -2.26621 0
M  V30 1716 H 166.208 0.491968 -1.50882 0
M  V30 1717 H 166.229 3.1348 -2.15664 0
M  V30 1718 H 165.741 1.82373 -3.42581 0
M  V30 1719 H 163.842 3.3982 -1.52817 0
M  V30 1720 H 163.955 3.36325 -3.41207 0
M  V30 1721 H 162.319 1.8556 -1.7447 0
M  V30 1722 H 163.102 1.11956 -3.24532 0
M  V30 1723 N 165.547 1.27147 0.931209 0
M  V30 1724 C 166.457 1.11372 2.06478 0
M  V30 1725 C 167.473 0.044645 1.73943 0
M  V30 1726 O 168.649 0.250417 1.99837 0
M  V30 1727 C 165.714 0.758838 3.38294 0
M  V30 1728 C 164.775 1.90841 3.84549 0
M  V30 1729 C 164.008 1.57036 5.10074 0
M  V30 1730 O 164.231 0.476645 5.68405 0
M  V30 1731 O 163.165 2.40839 5.51616 0
M  V30 1732 H 166.991 2.06493 2.22698 0
M  V30 1733 H 164.576 1.06301 1.04978 0
M  V30 1734 H 166.458 0.574098 4.17471 0
M  V30 1735 H 165.133 -0.162879 3.2329 0
M  V30 1736 H 164.04 2.14819 3.06274 0
M  V30 1737 H 165.373 2.81021 4.04089 0
M  V30 1738 N 167.025 -1.13721 1.09112 0
M  V30 1739 C 168.25 -1.89314 0.847053 0
M  V30 1740 C 168.675 -1.78416 -0.595774 0
M  V30 1741 O 168.033 -1.12942 -1.41823 0
M  V30 1742 C 168.081 -3.3701 1.28284 0
M  V30 1743 O 167.185 -4.10054 0.439267 0
M  V30 1744 H 166.526 -0.588745 0.307044 0
M  V30 1745 H 169.056 -1.43902 1.45442 0
M  V30 1746 H 169.066 -3.87834 1.26683 0
M  V30 1747 H 167.741 -3.4426 2.33363 0
M  V30 1748 H 166.318 -3.69266 0.519312 0
M  V30 1749 N 168.503 -0.877838 -1.30888 0
M  V30 1750 C 169.433 -0.35534 -2.3078 0
M  V30 1751 C 170.414 0.557994 -1.60687 0
M  V30 1752 O 171.599 0.473355 -1.88343 0
M  V30 1753 C 168.729 0.437221 -3.44537 0
M  V30 1754 C 167.683 -0.383715 -4.26276 0
M  V30 1755 C 167.009 0.535014 -5.32017 0
M  V30 1756 C 168.309 -1.62201 -4.96476 0
M  V30 1757 H 170.003 -1.19007 -2.74732 0
M  V30 1758 H 167.549 -0.573698 -1.32078 0
M  V30 1759 H 169.502 0.813334 -4.13477 0
M  V30 1760 H 168.226 1.30553 -2.99372 0
M  V30 1761 H 166.885 -0.741874 -3.59015 0
M  V30 1762 H 166.533 1.40083 -4.831 0
M  V30 1763 H 166.233 -0.0104211 -5.87599 0
M  V30 1764 H 167.757 0.907799 -6.03814 0
M  V30 1765 H 169.171 -1.31689 -5.5797 0
M  V30 1766 H 167.568 -2.10711 -5.61891 0
M  V30 1767 H 168.638 -2.37044 -4.23011 0
M  V30 1768 N 169.982 1.44106 -0.638065 0
M  V30 1769 C 170.912 2.33448 0.0494287 0
M  V30 1770 C 171.893 1.48606 0.827672 0
M  V30 1771 O 173.078 1.77308 0.792173 0
M  V30 1772 C 170.208 3.31771 1.02691 0
M  V30 1773 C 169.162 4.26485 0.359823 0
M  V30 1774 C 168.488 5.14729 1.44769 0
M  V30 1775 C 169.788 5.17056 -0.738296 0
M  V30 1776 H 171.482 2.91183 -0.696636 0
M  V30 1777 H 169.028 1.40014 -0.336456 0
M  V30 1778 H 170.981 3.93161 1.51666 0
M  V30 1779 H 169.705 2.7226 1.80395 0
M  V30 1780 H 168.364 3.66437 -0.10934 0
M  V30 1781 H 168.012 4.51566 2.21578 0
M  V30 1782 H 167.712 5.78913 1.00668 0
M  V30 1783 H 169.236 5.78991 1.93911 0
M  V30 1784 H 170.65 5.72342 -0.331354 0
M  V30 1785 H 169.047 5.89879 -1.10286 0
M  V30 1786 H 170.117 4.57652 -1.60258 0
M  V30 1787 N 171.46 0.379036 1.52974 0
M  V30 1788 C 172.392 -0.495963 2.2377 0
M  V30 1789 C 173.405 -1.03517 1.25651 0
M  V30 1790 O 174.594 -0.939249 1.51791 0
M  V30 1791 C 171.694 -1.69894 2.93239 0
M  V30 1792 C 170.867 -1.2889 4.17979 0
M  V30 1793 C 169.926 -2.35543 4.70538 0
M  V30 1794 O 168.952 -1.97375 5.33883 0
M  V30 1795 N 170.154 -3.67318 4.49508 0
M  V30 1796 H 172.919 0.110523 2.99496 0
M  V30 1797 H 170.48 0.204878 1.60598 0
M  V30 1798 H 172.472 -2.40747 3.25304 0
M  V30 1799 H 171.042 -2.212 2.20883 0
M  V30 1800 H 170.262 -0.409676 3.92065 0
M  V30 1801 H 171.55 -0.991443 4.99047 0
M  V30 1802 H 170.948 -4.01095 3.98923 0
M  V30 1803 H 169.505 -4.34235 4.8609 0
M  V30 1804 N 172.938 -1.57226 0.108567 0
M  V30 1805 C 173.848 -2.18292 -0.859401 0
M  V30 1806 C 174.864 -1.15612 -1.30038 0
M  V30 1807 O 176.04 -1.48039 -1.36552 0
M  V30 1808 C 173.105 -2.762 -2.09558 0
M  V30 1809 C 172.166 -3.93881 -1.70752 0
M  V30 1810 C 171.399 -4.49018 -2.88477 0
M  V30 1811 O 171.622 -4.03068 -4.036 0
M  V30 1812 O 170.556 -5.39852 -2.66164 0
M  V30 1813 H 174.382 -3.01441 -0.369769 0
M  V30 1814 H 171.967 -1.48945 -0.1165 0
M  V30 1815 H 173.849 -3.13156 -2.81978 0
M  V30 1816 H 172.524 -1.96089 -2.57548 0
M  V30 1817 H 171.431 -3.61713 -0.954714 0
M  V30 1818 H 172.764 -4.75396 -1.27513 0
M  V30 1819 N 174.416 0.165178 -1.56732 0
M  V30 1820 C 175.664 0.879068 -1.8198 0
M  V30 1821 C 175.985 1.82514 -0.686561 0
M  V30 1822 O 175.255 1.93694 0.293146 0
M  V30 1823 H 173.835 0.327608 -0.671329 0
M  V30 1824 H 176.497 0.163526 -1.94213 0
M  V30 1825 H 175.593 1.45228 -2.76252 0
M  V30 1826 N 175.894 1.51508 0.433938 0
M  V30 1827 C 176.804 1.75917 1.5521 0
M  V30 1828 C 177.82 0.643545 1.61662 0
M  V30 1829 O 178.996 0.926183 1.7884 0
M  V30 1830 C 176.061 1.88213 2.91164 0
M  V30 1831 C 175.122 3.12074 2.94802 0
M  V30 1832 C 174.355 3.23774 4.24271 0
M  V30 1833 O 174.578 2.4133 5.16833 0
M  V30 1834 O 173.512 4.16774 4.34262 0
M  V30 1835 H 177.338 2.70777 1.37527 0
M  V30 1836 H 174.923 1.36051 0.617293 0
M  V30 1837 H 176.805 1.98267 3.71845 0
M  V30 1838 H 175.48 0.965413 3.08968 0
M  V30 1839 H 174.387 3.07497 2.13065 0
M  V30 1840 H 175.72 4.03446 2.81943 0
M  V30 1841 N 177.372 -0.689602 1.41712 0
M  V30 1842 C 178.62 -1.4468 1.4111 0
M  V30 1843 C 178.941 -1.94986 0.0232196 0
M  V30 1844 O 178.211 -1.72097 -0.935913 0
M  V30 1845 H 176.791 -0.536847 0.519427 0
M  V30 1846 H 179.453 -0.815825 1.77004 0
M  V30 1847 H 178.549 -2.30706 2.10193 0
M  V30 1848 N 178.85 -1.27639 -0.924453 0
M  V30 1849 C 180.266 -1.05113 -1.20097 0
M  V30 1850 C 180.466 0.213262 -2.00368 0
M  V30 1851 O 179.522 0.91787 -2.35226 0
M  V30 1852 C 180.835 -2.29244 -1.94596 0
M  V30 1853 C 182.383 -2.34315 -2.07522 0
M  V30 1854 C 182.858 -3.58183 -2.85427 0
M  V30 1855 N 184.349 -3.5876 -2.92994 0
M  V30 1856 C 185.084 -4.51277 -3.53746 0
M  V30 1857 N 184.58 -5.54102 -4.15863 0
M  V30 1858 N 186.373 -4.38894 -3.51181 0
M  V30 1859 H 178.524 -2.08821 -0.388264 0
M  V30 1860 H 180.787 -0.918568 -0.234385 0
M  V30 1861 H 180.493 -3.21301 -1.43034 0
M  V30 1862 H 180.367 -2.34816 -2.95197 0
M  V30 1863 H 182.754 -1.42762 -2.58269 0
M  V30 1864 H 182.835 -2.32744 -1.06131 0
M  V30 1865 H 182.479 -4.50074 -2.35363 0
M  V30 1866 H 182.409 -3.57006 -3.8711 0
M  V30 1867 H 184.9 -2.84398 -2.4885 0
M  V30 1868 H 185.213 -6.20859 -4.60168 0
M  V30 1869 H 183.558 -5.57941 -4.144 0
M  V30 1870 H 186.749 -3.57772 -3.01856 0
M  V30 1871 H 186.922 -5.11186 -3.98237 0
M  V30 1872 N 180.328 1.1314 -1.09713 0
M  V30 1873 C 181.258 2.20748 -0.761102 0
M  V30 1874 C 182.239 1.68061 0.262566 0
M  V30 1875 O 183.424 1.93765 0.129977 0
M  V30 1876 C 180.554 3.46812 -0.184054 0
M  V30 1877 C 179.508 4.12606 -1.13757 0
M  V30 1878 C 178.834 5.33031 -0.422083 0
M  V30 1879 C 180.134 4.59603 -2.48118 0
M  V30 1880 H 181.828 2.49113 -1.66082 0
M  V30 1881 H 179.374 1.19734 -0.799987 0
M  V30 1882 H 181.327 4.21353 0.0631215 0
M  V30 1883 H 180.051 3.17851 0.750868 0
M  V30 1884 H 178.71 3.40036 -1.37007 0
M  V30 1885 H 178.358 5.00335 0.517072 0
M  V30 1886 H 178.058 5.77999 -1.05788 0
M  V30 1887 H 179.582 6.10325 -0.183277 0
M  V30 1888 H 180.996 5.25552 -2.29059 0
M  V30 1889 H 179.393 5.15321 -3.07514 0
M  V30 1890 H 180.463 3.73971 -3.08665 0
M  V30 1891 N 181.806 0.884767 1.30421 0
M  V30 1892 C 183.054 0.502112 1.95763 0
M  V30 1893 C 183.375 -0.951815 1.70192 0
M  V30 1894 O 182.645 -1.6692 1.0254 0
M  V30 1895 H 181.225 0.182694 0.724315 0
M  V30 1896 H 183.887 1.1278 1.58955 0
M  V30 1897 H 182.983 0.672188 3.04775 0
M  V30 1898 N 183.284 -1.43765 0.645699 0
M  V30 1899 C 184.231 -2.30745 -0.0504648 0
M  V30 1900 C 185.201 -1.4432 -0.822241 0
M  V30 1901 O 186.386 -1.73202 -0.800358 0
M  V30 1902 C 183.526 -3.29802 -1.0161 0
M  V30 1903 C 182.639 -4.31326 -0.241219 0
M  V30 1904 C 181.774 -5.17469 -1.19998 0
M  V30 1905 C 180.813 -6.10691 -0.415094 0
M  V30 1906 N 179.95 -6.89483 -1.32506 0
M  V30 1907 H 184.79 -2.8973 0.697155 0
M  V30 1908 H 182.327 -1.42738 0.355563 0
M  V30 1909 H 184.285 -3.85734 -1.58949 0
M  V30 1910 H 182.915 -2.72483 -1.73069 0
M  V30 1911 H 181.967 -3.77749 0.448334 0
M  V30 1912 H 183.279 -4.9743 0.369437 0
M  V30 1913 H 182.433 -5.7799 -1.84424 0
M  V30 1914 H 181.172 -4.51473 -1.84455 0
M  V30 1915 H 180.177 -5.49265 0.242565 0
M  V30 1916 H 181.402 -6.78727 0.224966 0
M  V30 1917 H 179.348 -6.26142 -1.95657 0
M  V30 1918 H 179.265 -7.52081 -0.768783 0
M  V30 1919 H 180.533 -7.54516 -1.9577 0
M  V30 1920 N 184.763 -0.387143 -1.52771 0
M  V30 1921 C 186.003 0.195537 -2.03463 0
M  V30 1922 C 186.367 1.44222 -1.26744 0
M  V30 1923 O 187.568 2.10192 -1.67549 0
M  V30 1924 C 185.839 0.459097 -3.54439 0
M  V30 1925 S 187.398 1.01237 -4.26962 0
M  V30 1926 H 184.216 0.0552675 -0.708849 0
M  V30 1927 H 186.818 -0.534992 -1.88037 0
M  V30 1928 H 185.522 -0.455382 -4.07866 0
M  V30 1929 H 185.053 1.21811 -3.74066 0
M  V30 1930 H 187.068 2.29492 -4.39941 0
M  V30 1931 N 186.241 1.57166 -0.116904 0
M  V30 1932 C 187.466 1.999 0.55271 0
M  V30 1933 C 187.891 0.996039 1.59564 0
M  V30 1934 O 187.249 -0.032556 1.81271 0
M  V30 1935 C 187.297 3.4152 1.15742 0
M  V30 1936 O 186.401 3.44106 2.27299 0
M  V30 1937 H 185.742 0.649447 0.138258 0
M  V30 1938 H 188.272 2.03573 -0.204759 0
M  V30 1939 H 188.282 3.79684 1.49346 0
M  V30 1940 H 186.957 4.14034 0.393493 0
M  V30 1941 H 185.534 3.17759 1.9515 0
M  V30 1942 N 187.719 -0.156864 1.56817 0
M  V30 1943 C 188.682 -1.17781 1.96622 0
M  V30 1944 C 189.682 -1.36401 0.851555 0
M  V30 1945 O 190.872 -1.33561 1.11836 0
M  V30 1946 C 188.004 -2.54008 2.27361 0
M  V30 1947 H 189.197 -0.836564 2.87996 0
M  V30 1948 H 186.75 -0.39985 1.51099 0
M  V30 1949 H 187.485 -2.9312 1.38748 0
M  V30 1950 H 187.27 -2.41856 3.08623 0
M  V30 1951 H 188.76 -3.27558 2.59029 0
M  V30 1952 N 189.197 -1.51736 -0.425897 0
M  V30 1953 C 190.613 -1.40166 -0.76326 0
M  V30 1954 C 190.813 -0.492962 -1.95377 0
M  V30 1955 O 189.869 0.0475815 -2.52455 0
M  V30 1956 C 191.182 -2.82403 -1.03291 0
M  V30 1957 C 192.73 -2.91632 -1.13665 0
M  V30 1958 C 193.205 -4.34801 -1.43916 0
M  V30 1959 N 194.696 -4.3796 -1.50816 0
M  V30 1960 C 195.431 -5.4578 -1.75817 0
M  V30 1961 N 194.927 -6.63744 -1.98534 0
M  V30 1962 N 196.72 -5.33274 -1.77694 0
M  V30 1963 H 188.871 -2.09361 0.358 0
M  V30 1964 H 191.134 -0.942941 0.0978094 0
M  V30 1965 H 190.84 -3.50943 -0.230696 0
M  V30 1966 H 190.714 -3.22428 -1.95754 0
M  V30 1967 H 193.101 -2.23284 -1.92947 0
M  V30 1968 H 193.182 -2.55088 -0.190756 0
M  V30 1969 H 192.826 -5.03703 -0.65157 0
M  V30 1970 H 192.756 -4.68868 -2.39729 0
M  V30 1971 H 195.247 -3.52919 -1.35118 0
M  V30 1972 H 195.56 -7.41704 -2.17013 0
M  V30 1973 H 193.905 -6.66839 -1.95832 0
M  V30 1974 H 197.096 -4.40098 -1.59473 0
M  V30 1975 H 197.269 -6.1738 -1.9684 0
M  V30 1976 N 190.675 0.682077 -1.42076 0
M  V30 1977 C 191.921 1.44428 -1.42367 0
M  V30 1978 C 192.254 1.94164 -0.0373056 0
M  V30 1979 O 191.529 1.70429 0.937239 0
M  V30 1980 C 191.812 2.64654 -2.44194 0
M  V30 1981 C 191.665 2.20596 -3.91991 0
M  V30 1982 C 192.984 3.66865 -2.431 0
M  V30 1983 H 190.103 0.523834 -0.518428 0
M  V30 1984 H 192.745 0.77576 -1.73442 0
M  V30 1985 H 190.895 3.2169 -2.17826 0
M  V30 1986 H 192.567 1.68783 -4.29313 0
M  V30 1987 H 190.81 1.52242 -4.06208 0
M  V30 1988 H 191.481 3.06921 -4.58807 0
M  V30 1989 H 193.957 3.19531 -2.66532 0
M  V30 1990 H 192.833 4.48577 -3.16339 0
M  V30 1991 H 193.094 4.17493 -1.45437 0
M  V30 1992 N 192.153 1.28127 0.917671 0
M  V30 1993 C 193.4 1.15052 1.66641 0
M  V30 1994 C 193.728 -0.301677 1.92146 0
M  V30 1995 O 192.983 -1.23622 1.51711 0
M  V30 1996 C 193.282 1.89018 3.03327 0
M  V30 1997 C 192.948 3.38832 2.97496 0
M  V30 1998 C 191.61 3.79693 2.95613 0
M  V30 1999 C 193.962 4.34378 2.88036 0
M  V30 2000 C 191.29 5.14447 2.82066 0
M  V30 2001 C 193.642 5.69201 2.7603 0
M  V30 2002 C 192.306 6.09343 2.72502 0
M  V30 2003 H 191.576 0.421006 0.609783 0
M  V30 2004 H 194.223 1.58855 1.06945 0
M  V30 2005 H 192.528 1.37752 3.66785 0
M  V30 2006 H 194.225 1.76321 3.60156 0
M  V30 2007 H 190.815 3.06342 2.99754 0
M  V30 2008 H 194.999 4.03775 2.88581 0
M  V30 2009 H 190.255 5.44681 2.77728 0
M  V30 2010 H 194.429 6.42901 2.67678 0
M  V30 2011 H 192.056 7.13712 2.61762 0
M  V30 2012 N 193.631 -1.12557 1.10312 0
M  V30 2013 C 194.878 -1.84038 0.844759 0
M  V30 2014 C 195.206 -1.84026 -0.629668 0
M  V30 2015 O 194.461 -1.28026 -1.48013 0
M  V30 2016 C 194.76 -3.31462 1.33669 0
M  V30 2017 C 194.426 -3.51647 2.82232 0
M  V30 2018 C 193.088 -3.56864 3.22802 0
M  V30 2019 C 195.44 -3.58867 3.77974 0
M  V30 2020 C 192.768 -3.66844 4.57867 0
M  V30 2021 C 195.12 -3.70375 5.1284 0
M  V30 2022 C 193.784 -3.73848 5.52986 0
M  V30 2023 H 193.054 -0.673444 0.309119 0
M  V30 2024 H 195.701 -1.32824 1.37949 0
M  V30 2025 H 194.006 -3.85091 0.721949 0
M  V30 2026 H 195.703 -3.85236 1.11329 0
M  V30 2027 H 192.293 -3.48249 2.49842 0
M  V30 2028 H 196.477 -3.54107 3.47738 0
M  V30 2029 H 191.733 -3.67804 4.88396 0
M  V30 2030 H 195.907 -3.74904 5.86873 0
M  V30 2031 H 193.534 -3.81333 6.57639 0
M  V30 2032 N 195.109 -0.891671 -1.2995 0
M  V30 2033 C 196.056 -0.361736 -2.27948 0
M  V30 2034 C 197.026 0.551761 -1.56668 0
M  V30 2035 O 198.211 0.478736 -1.84696 0
M  V30 2036 C 195.351 0.411825 -3.42634 0
M  V30 2037 C 194.464 -0.531651 -4.28716 0
M  V30 2038 C 193.599 0.258167 -5.30572 0
M  V30 2039 C 192.638 -0.680349 -6.08307 0
M  V30 2040 N 191.775 0.0745613 -7.0206 0
M  V30 2041 H 196.615 -1.20254 -2.72659 0
M  V30 2042 H 194.152 -0.604352 -1.34112 0
M  V30 2043 H 196.11 0.876304 -4.07893 0
M  V30 2044 H 194.74 1.21715 -2.98974 0
M  V30 2045 H 193.792 -1.11463 -3.63703 0
M  V30 2046 H 195.104 -1.25038 -4.82874 0
M  V30 2047 H 194.258 0.784204 -6.0161 0
M  V30 2048 H 192.997 1.01008 -4.77126 0
M  V30 2049 H 192.002 -1.21796 -5.3614 0
M  V30 2050 H 193.227 -1.43145 -6.63842 0
M  V30 2051 H 191.173 0.808883 -6.50994 0
M  V30 2052 H 191.09 -0.584409 -7.53738 0
M  V30 2053 H 192.358 0.581123 -7.77331 0
M  V30 2054 N 196.587 1.43421 -0.653314 0
M  V30 2055 C 197.535 2.32546 0.0501531 0
M  V30 2056 C 198.529 1.48617 0.812985 0
M  V30 2057 O 199.735 1.64825 0.723375 0
M  V30 2058 H 196.11 0.751185 0.0350032 0
M  V30 2059 H 198.081 2.89602 -0.719261 0
M  V30 2060 C 196.83 3.32925 1.00279 0
M  V30 2061 H 196.153 3.97532 0.425236 0
M  V30 2062 H 197.593 3.9792 1.46409 0
M  V30 2063 C 196.052 2.63532 2.09886 0
M  V30 2064 O 196.582 2.45092 3.18265 0
M  V30 2065 N 194.788 2.22905 1.86445 0
M  V30 2066 H 194.335 2.38103 0.98309 0
M  V30 2067 H 194.293 1.76805 2.59976 0
M  V30 2068 N 198.065 0.39524 1.52563 0
M  V30 2069 C 198.997 -0.472201 2.24283 0
M  V30 2070 C 200.01 -1.02178 1.26742 0
M  V30 2071 O 201.199 -0.923097 1.52778 0
M  V30 2072 C 198.299 -1.66775 2.95024 0
M  V30 2073 C 197.472 -1.2445 4.19322 0
M  V30 2074 C 196.531 -2.30539 4.7301 0
M  V30 2075 O 195.557 -1.91702 5.35947 0
M  V30 2076 N 196.759 -3.6253 4.53379 0
M  V30 2077 H 199.524 0.142282 2.99362 0
M  V30 2078 H 197.085 0.2219 1.60372 0
M  V30 2079 H 199.077 -2.37283 3.27839 0
M  V30 2080 H 197.647 -2.18845 2.23217 0
M  V30 2081 H 196.867 -0.368069 3.92478 0
M  V30 2082 H 198.155 -0.938457 5.0007 0
M  V30 2083 H 197.553 -3.96841 4.03154 0
M  V30 2084 H 196.11 -4.29055 4.90668 0
M  V30 2085 N 199.544 -1.57102 0.125237 0
M  V30 2086 C 200.491 -2.15641 -0.822655 0
M  V30 2087 C 201.461 -1.08313 -1.25927 0
M  V30 2088 O 202.646 -1.36251 -1.33567 0
M  V30 2089 C 199.786 -2.76504 -2.06494 0
M  V30 2090 C 198.899 -3.98158 -1.67612 0
M  V30 2091 C 198.034 -4.47088 -2.86854 0
M  V30 2092 C 197.073 -5.6126 -2.44242 0
M  V30 2093 N 196.21 -6.04905 -3.56419 0
M  V30 2094 H 201.05 -2.96313 -0.316625 0
M  V30 2095 H 198.587 -1.46388 -0.144588 0
M  V30 2096 H 200.545 -3.09925 -2.79289 0
M  V30 2097 H 199.175 -1.98512 -2.54545 0
M  V30 2098 H 198.227 -3.70858 -0.846661 0
M  V30 2099 H 199.539 -4.80934 -1.32301 0
M  V30 2100 H 198.693 -4.82451 -3.67867 0
M  V30 2101 H 197.432 -3.63275 -3.25396 0
M  V30 2102 H 196.437 -5.25495 -1.61663 0
M  V30 2103 H 197.662 -6.46843 -2.0681 0
M  V30 2104 H 195.608 -5.24032 -3.94623 0
M  V30 2105 H 195.525 -6.82552 -3.25051 0
M  V30 2106 H 196.793 -6.44907 -4.37853 0
M  V30 2107 N 201.022 0.148545 -1.56898 0
M  V30 2108 C 202.433 0.708766 -1.72723 0
M  V30 2109 C 202.784 1.81734 -0.739395 0
M  V30 2110 O 201.909 2.16194 0.0943169 0
M  V30 2111 C 202.504 1.29245 -3.13179 0
M  V30 2112 C 201.063 1.79925 -3.30611 0
M  V30 2113 C 200.21 0.687111 -2.68652 0
M  V30 2114 H 203.161 -0.0771063 -1.58513 0
M  V30 2115 H 203.182 2.16224 -3.13093 0
M  V30 2116 H 202.694 0.485382 -3.85053 0
M  V30 2117 H 200.795 2.63203 -2.63732 0
M  V30 2118 H 200.908 1.92903 -4.38549 0
M  V30 2119 H 199.272 1.11335 -2.29078 0
M  V30 2120 H 200.055 -0.108483 -3.43129 0
M  V30 2121 N 202.5 1.5196 0.417844 0
M  V30 2122 C 203.916 1.40569 0.755816 0
M  V30 2123 C 204.116 0.503316 1.95113 0
M  V30 2124 O 203.172 -0.0341925 2.52477 0
M  V30 2125 C 204.485 2.82947 1.01791 0
M  V30 2126 C 206.033 2.92231 1.12116 0
M  V30 2127 C 206.508 4.35559 1.41608 0
M  V30 2128 N 207.999 4.38753 1.48491 0
M  V30 2129 C 208.734 5.46705 1.7292 0
M  V30 2130 N 208.23 6.64788 1.95011 0
M  V30 2131 N 210.023 5.34209 1.74863 0
M  V30 2132 H 202.174 2.09168 -0.369098 0
M  V30 2133 H 204.437 0.942409 -0.102809 0
M  V30 2134 H 204.143 3.5106 0.212081 0
M  V30 2135 H 204.017 3.23462 1.94042 0
M  V30 2136 H 206.404 2.24304 1.9176 0
M  V30 2137 H 206.485 2.55185 0.177225 0
M  V30 2138 H 206.129 5.04042 0.624848 0
M  V30 2139 H 206.059 4.70133 2.37239 0
M  V30 2140 H 208.55 3.5363 1.33244 0
M  V30 2141 H 208.863 7.42845 2.13076 0
M  V30 2142 H 207.208 6.67869 1.92293 0
M  V30 2143 H 210.399 4.40937 1.57137 0
M  V30 2144 H 210.572 6.18415 1.93563 0
M  V30 2145 N 203.978 -0.674533 1.42435 0
M  V30 2146 C 205.389 -1.25514 1.38214 0
M  V30 2147 C 205.74 -1.96055 0.0755464 0
M  V30 2148 O 204.865 -2.00028 -0.8257 0
M  V30 2149 C 205.46 -2.28269 2.50357 0
M  V30 2150 C 204.019 -2.81856 2.49467 0
M  V30 2151 C 203.166 -1.56182 2.29134 0
M  V30 2152 H 206.117 -0.467902 1.51646 0
M  V30 2153 H 206.138 -3.10009 2.20624 0
M  V30 2154 H 205.65 -1.769 3.45439 0
M  V30 2155 H 203.751 -3.37346 1.58204 0
M  V30 2156 H 203.864 -3.30854 3.46515 0
M  V30 2157 H 202.228 -1.82761 1.774 0
M  V30 2158 H 203.011 -1.06778 3.26272 0
M  V30 2159 N 205.456 -1.28612 -0.910864 0
M  V30 2160 C 206.684 -1.18792 -1.69399 0
M  V30 2161 C 207.099 0.253039 -1.87097 0
M  V30 2162 O 206.456 1.17071 -1.40003 0
M  V30 2163 C 206.507 -1.88511 -3.08457 0
M  V30 2164 O 206.228 -3.26979 -2.91576 0
M  V30 2165 C 207.729 -1.85029 -4.02839 0
M  V30 2166 H 204.949 -0.412233 -0.529438 0
M  V30 2167 H 207.493 -1.69788 -1.13984 0
M  V30 2168 H 205.648 -1.41379 -3.60681 0
M  V30 2169 H 206.062 -3.61936 -3.79608 0
M  V30 2170 H 207.536 -2.38395 -4.97867 0
M  V30 2171 H 208.013 -0.823303 -4.31414 0
M  V30 2172 H 208.619 -2.31853 -3.56545 0
M  V30 2173 N 206.934 1.1197 -1.10907 0
M  V30 2174 C 208.183 1.82947 -0.849302 0
M  V30 2175 C 208.496 1.85275 0.627112 0
M  V30 2176 O 209.702 2.52296 1.00295 0
M  V30 2177 C 208.158 3.28529 -1.46959 0
M  V30 2178 C 207.766 3.34546 -2.97965 0
M  V30 2179 C 209.51 4.04443 -1.28942 0
M  V30 2180 C 207.417 4.74491 -3.53004 0
M  V30 2181 H 206.347 0.685477 -0.314065 0
M  V30 2182 H 208.998 1.2604 -1.33365 0
M  V30 2183 H 207.38 3.85333 -0.912917 0
M  V30 2184 H 208.554 2.87654 -3.59989 0
M  V30 2185 H 206.869 2.72108 -3.15192 0
M  V30 2186 H 209.466 5.07787 -1.67502 0
M  V30 2187 H 209.809 4.15656 -0.231456 0
M  V30 2188 H 210.342 3.5401 -1.81443 0
M  V30 2189 H 207.081 4.68474 -4.58489 0
M  V30 2190 H 206.601 5.21816 -2.9575 0
M  V30 2191 H 208.28 5.4344 -3.51115 0
M  V30 2192 N 208.412 0.89855 1.29475 0
M  V30 2193 C 209.36 0.365253 2.29714 0
M  V30 2194 C 210.354 -0.534993 1.6073 0
M  V30 2195 O 211.56 -0.417921 1.75081 0
M  V30 2196 H 207.935 0.0994853 0.74539 0
M  V30 2197 H 209.906 1.22406 2.72138 0
M  V30 2198 C 208.655 -0.393159 3.4547 0
M  V30 2199 H 207.978 0.290332 3.98744 0
M  V30 2200 H 209.418 -0.731189 4.17648 0
M  V30 2201 C 207.877 -1.59539 2.9673 0
M  V30 2202 O 208.407 -2.69469 2.97908 0
M  V30 2203 N 206.613 -1.43716 2.52575 0
M  V30 2204 H 206.16 -0.542828 2.51816 0
M  V30 2205 H 206.118 -2.24288 2.20323 0
M  V30 2206 N 209.89 -1.43072 0.660911 0
M  V30 2207 C 211.136 -2.0202 0.177708 0
M  V30 2208 C 211.469 -1.52066 -1.20787 0
M  V30 2209 O 210.744 -0.716987 -1.80802 0
M  V30 2210 C 211.027 -3.59561 0.197019 0
M  V30 2211 C 210.88 -4.19727 1.61706 0
M  V30 2212 C 212.199 -4.37664 -0.462396 0
M  V30 2213 H 209.318 -0.734034 0.0660494 0
M  V30 2214 H 211.96 -1.70272 0.843058 0
M  V30 2215 H 210.11 -3.86739 -0.369527 0
M  V30 2216 H 211.782 -4.03553 2.23479 0
M  V30 2217 H 210.025 -3.76084 2.16201 0
M  V30 2218 H 210.696 -5.28834 1.58237 0
M  V30 2219 H 213.172 -4.16095 0.0197215 0
M  V30 2220 H 212.048 -5.47305 -0.418188 0
M  V30 2221 H 212.309 -4.14493 -1.53778 0
M  V30 2222 N 211.368 -0.403325 -1.52352 0
M  V30 2223 C 212.596 0.174012 -2.06167 0
M  V30 2224 C 213.011 1.39347 -1.27388 0
M  V30 2225 O 212.368 1.79597 -0.324201 0
M  V30 2226 C 212.419 0.530223 -3.5759 0
M  V30 2227 O 212.14 -0.640806 -4.33388 0
M  V30 2228 C 213.641 1.16192 -4.27802 0
M  V30 2229 H 210.861 0.0229464 -0.670608 0
M  V30 2230 H 213.405 -0.572604 -1.9632 0
M  V30 2231 H 211.56 1.22673 -3.67464 0
M  V30 2232 H 211.974 -0.344851 -5.23365 0
M  V30 2233 H 213.448 1.36141 -5.34948 0
M  V30 2234 H 213.925 2.13335 -3.83907 0
M  V30 2235 H 214.531 0.505775 -4.22282 0
M  V30 2236 N 212.846 1.57033 -0.133567 0
M  V30 2237 C 214.086 1.97575 0.523789 0
M  V30 2238 C 214.45 1.01605 1.62912 0
M  V30 2239 O 215.651 1.3114 2.3464 0
M  V30 2240 C 213.922 3.42256 1.02935 0
M  V30 2241 S 215.481 4.04817 1.69319 0
M  V30 2242 H 212.299 0.690427 0.169799 0
M  V30 2243 H 214.901 1.94234 -0.222101 0
M  V30 2244 H 213.605 4.09842 0.213917 0
M  V30 2245 H 213.136 3.4928 1.81017 0
M  V30 2246 H 215.151 3.96767 2.97977 0
M  V30 2247 N 214.325 -0.140222 1.56975 0
M  V30 2248 C 215.553 -0.866437 1.87884 0
M  V30 2249 C 215.968 -1.74428 0.722517 0
M  V30 2250 O 215.325 -1.79891 -0.30749 0
M  V30 2251 C 215.376 -1.71753 3.18093 0
M  V30 2252 O 215.097 -0.875056 4.29272 0
M  V30 2253 C 216.598 -2.55074 3.62563 0
M  V30 2254 H 213.818 -0.25019 0.622612 0
M  V30 2255 H 216.362 -0.130977 2.0408 0
M  V30 2256 H 214.517 -2.40598 3.03631 0
M  V30 2257 H 214.931 -1.46002 5.03769 0
M  V30 2258 H 216.405 -3.10356 4.5649 0
M  V30 2259 H 216.882 -3.31434 2.88181 0
M  V30 2260 H 217.488 -1.91509 3.79743 0
M  V30 2261 N 215.803 -1.52179 -0.40978 0
M  V30 2262 C 217.219 -1.40968 -0.74835 0
M  V30 2263 C 217.419 -0.513657 -1.94843 0
M  V30 2264 O 216.475 0.0208026 -2.52491 0
M  V30 2265 C 217.788 -2.83483 -1.0029 0
M  V30 2266 C 219.336 -2.92821 -1.10565 0
M  V30 2267 C 219.811 -4.36303 -1.39296 0
M  V30 2268 N 221.302 -4.39535 -1.46162 0
M  V30 2269 C 222.037 -5.47614 -1.70018 0
M  V30 2270 N 221.533 -6.65812 -1.91483 0
M  V30 2271 N 223.326 -5.35129 -1.72027 0
M  V30 2272 H 215.477 -2.0897 0.380186 0
M  V30 2273 H 217.74 -0.94185 0.107805 0
M  V30 2274 H 217.446 -3.51168 -0.193461 0
M  V30 2275 H 217.32 -3.24487 -1.92323 0
M  V30 2276 H 219.707 -2.25318 -1.90568 0
M  V30 2277 H 219.788 -2.55276 -0.16369 0
M  V30 2278 H 219.432 -5.04366 -0.598109 0
M  V30 2279 H 219.362 -4.71385 -2.34743 0
M  V30 2280 H 221.853 -3.54332 -1.31367 0
M  V30 2281 H 222.166 -7.43964 -2.09134 0
M  V30 2282 H 220.511 -6.68879 -1.88749 0
M  V30 2283 H 223.702 -4.41764 -1.54796 0
M  V30 2284 H 223.875 -6.19433 -1.9028 0
M  V30 2285 N 217.281 0.66697 -1.42791 0
M  V30 2286 C 218.211 1.79218 -1.49677 0
M  V30 2287 C 219.192 1.66405 -0.352623 0
M  V30 2288 O 220.377 1.85708 -0.567993 0
M  V30 2289 C 217.507 3.17565 -1.40605 0
M  V30 2290 C 216.461 3.45124 -2.53127 0
M  V30 2291 C 215.787 4.83127 -2.29112 0
M  V30 2292 C 217.087 3.41236 -3.95418 0
M  V30 2293 H 218.781 1.73713 -2.43853 0
M  V30 2294 H 216.327 0.83432 -1.17367 0
M  V30 2295 H 218.28 3.96022 -1.44029 0
M  V30 2296 H 217.004 3.23767 -0.429271 0
M  V30 2297 H 215.663 2.69031 -2.49034 0
M  V30 2298 H 215.311 4.85988 -1.29709 0
M  V30 2299 H 215.011 5.02528 -3.04531 0
M  V30 2300 H 216.535 5.63859 -2.34297 0
M  V30 2301 H 217.949 4.09651 -4.01073 0
M  V30 2302 H 216.346 3.72173 -4.70752 0
M  V30 2303 H 217.416 2.39665 -4.21532 0
M  V30 2304 N 218.759 1.29093 0.90403 0
M  V30 2305 C 220.008 1.16187 1.64874 0
M  V30 2306 C 220.321 -0.286742 1.93487 0
M  V30 2307 O 221.527 -0.537062 2.66135 0
M  V30 2308 C 219.983 2.03177 2.97064 0
M  V30 2309 C 219.591 3.52836 2.76062 0
M  V30 2310 C 221.335 1.98984 3.74974 0
M  V30 2311 C 219.242 4.31945 4.03952 0
M  V30 2312 H 218.172 0.431246 0.618501 0
M  V30 2313 H 220.823 1.53699 1.00243 0
M  V30 2314 H 219.205 1.5853 3.62883 0
M  V30 2315 H 220.379 4.05507 2.18863 0
M  V30 2316 H 218.694 3.58656 2.11553 0
M  V30 2317 H 221.291 2.55351 4.69787 0
M  V30 2318 H 221.634 0.968815 4.0487 0
M  V30 2319 H 222.167 2.41652 3.15989 0
M  V30 2320 H 218.906 5.34667 3.79225 0
M  V30 2321 H 218.426 3.84045 4.60727 0
M  V30 2322 H 220.105 4.42379 4.72133 0
M  V30 2323 N 220.237 -1.11381 1.11499 0
M  V30 2324 C 221.147 -2.21019 0.786628 0
M  V30 2325 C 222.163 -1.72597 -0.220507 0
M  V30 2326 O 223.339 -2.01321 -0.0565251 0
M  V30 2327 C 220.404 -3.459 0.235333 0
M  V30 2328 C 219.465 -4.09107 1.30115 0
M  V30 2329 C 218.698 -5.28027 0.776068 0
M  V30 2330 O 218.921 -5.6904 -0.393661 0
M  V30 2331 O 217.855 -5.81835 1.54114 0
M  V30 2332 H 221.681 -2.51521 1.70209 0
M  V30 2333 H 219.266 -1.19928 0.890928 0
M  V30 2334 H 221.148 -4.21346 -0.067715 0
M  V30 2335 H 219.823 -3.17049 -0.652828 0
M  V30 2336 H 218.73 -3.35391 1.65722 0
M  V30 2337 H 220.063 -4.42139 2.16273 0
M  V30 2338 N 221.715 -0.905404 -1.28997 0
M  V30 2339 C 222.662 -0.385892 -2.27551 0
M  V30 2340 C 223.632 0.535113 -1.57244 0
M  V30 2341 O 224.817 0.459119 -1.85194 0
M  V30 2342 C 221.957 0.375461 -3.43051 0
M  V30 2343 C 221.07 -0.577092 -4.28128 0
M  V30 2344 C 220.205 0.201879 -5.30816 0
M  V30 2345 C 219.244 -0.744829 -6.07551 0
M  V30 2346 N 218.381 9.42587e-05 -7.021 0
M  V30 2347 H 223.221 -1.23139 -2.71368 0
M  V30 2348 H 220.758 -0.618542 -1.33463 0
M  V30 2349 H 222.716 0.832992 -4.088 0
M  V30 2350 H 221.346 1.18537 -3.00248 0
M  V30 2351 H 220.398 -1.15315 -3.62501 0
M  V30 2352 H 221.71 -1.30152 -4.8152 0
M  V30 2353 H 220.864 0.720351 -6.02408 0
M  V30 2354 H 219.603 0.959413 -4.7817 0
M  V30 2355 H 218.608 -1.27475 -5.34818 0
M  V30 2356 H 219.833 -1.50178 -6.62286 0
M  V30 2357 H 217.779 0.739791 -6.51815 0
M  V30 2358 H 217.696 -0.664321 -7.53076 0
M  V30 2359 H 218.964 0.498644 -7.77903 0
M  V30 2360 N 223.193 1.4272 -0.668489 0
M  V30 2361 C 224.14 2.30796 0.0137489 0
M  V30 2362 C 225.11 1.4561 0.799177 0
M  V30 2363 O 226.295 1.74453 0.772702 0
M  V30 2364 C 223.435 3.31377 0.963507 0
M  V30 2365 C 222.548 4.31655 0.172569 0
M  V30 2366 C 221.683 5.19312 1.1175 0
M  V30 2367 C 220.722 6.11274 0.317886 0
M  V30 2368 N 219.859 6.91504 1.2152 0
M  V30 2369 H 224.699 2.88585 -0.743161 0
M  V30 2370 H 222.236 1.42154 -0.378226 0
M  V30 2371 H 224.194 3.88214 1.52792 0
M  V30 2372 H 222.824 2.75202 1.68712 0
M  V30 2373 H 221.876 3.76988 -0.508374 0
M  V30 2374 H 223.188 4.96779 -0.448527 0
M  V30 2375 H 222.342 5.80851 1.75206 0
M  V30 2376 H 221.081 4.5435 1.77249 0
M  V30 2377 H 220.086 5.48809 -0.329918 0
M  V30 2378 H 221.311 6.78283 -0.332917 0
M  V30 2379 H 219.257 6.29176 1.85671 0
M  V30 2380 H 219.174 7.53209 0.649036 0
M  V30 2381 H 220.442 7.57535 1.83742 0
M  V30 2382 N 224.671 0.411399 1.52136 0
M  V30 2383 C 225.618 -0.412975 2.27075 0
M  V30 2384 C 226.588 -1.03912 1.29582 0
M  V30 2385 O 227.773 -1.06296 1.58448 0
M  V30 2386 C 224.913 -1.52247 3.09701 0
M  V30 2387 C 224.026 -0.917021 4.22155 0
M  V30 2388 C 223.161 -1.9994 4.92135 0
M  V30 2389 C 222.2 -1.37101 5.96548 0
M  V30 2390 N 221.337 -2.39364 6.60038 0
M  V30 2391 H 226.177 0.232499 2.97092 0
M  V30 2392 H 223.714 0.126496 1.46555 0
M  V30 2393 H 225.672 -2.17674 3.55913 0
M  V30 2394 H 224.302 -2.13794 2.41851 0
M  V30 2395 H 223.354 -0.151742 3.80097 0
M  V30 2396 H 224.666 -0.418006 4.97045 0
M  V30 2397 H 223.82 -2.73088 5.41763 0
M  V30 2398 H 222.559 -2.53208 4.16818 0
M  V30 2399 H 221.564 -0.624873 5.46237 0
M  V30 2400 H 222.789 -0.845998 6.7381 0
M  V30 2401 H 220.735 -2.91759 5.87548 0
M  V30 2402 H 220.652 -1.9428 7.3061 0
M  V30 2403 H 221.92 -3.12074 7.14304 0
M  V30 2404 N 226.149 -1.5696 0.141893 0
M  V30 2405 C 227.565 -1.58151 -0.21456 0
M  V30 2406 C 227.765 -1.1559 -1.65049 0
M  V30 2407 O 226.821 -0.853832 -2.37626 0
M  V30 2408 C 228.134 -3.00674 0.0395576 0
M  V30 2409 C 229.682 -3.1299 -0.0245529 0
M  V30 2410 C 230.157 -4.57554 0.202167 0
M  V30 2411 N 231.648 -4.62961 0.148919 0
M  V30 2412 C 232.383 -5.7262 0.298924 0
M  V30 2413 N 231.879 -6.90947 0.50637 0
M  V30 2414 N 233.672 -5.61601 0.236886 0
M  V30 2415 H 225.823 -1.8292 1.07953 0
M  V30 2416 H 228.086 -0.846425 0.42693 0
M  V30 2417 H 227.792 -3.36183 1.03315 0
M  V30 2418 H 227.666 -3.70981 -0.682143 0
M  V30 2419 H 230.053 -2.77326 -1.00869 0
M  V30 2420 H 230.134 -2.4518 0.729396 0
M  V30 2421 H 229.778 -4.93922 1.18338 0
M  V30 2422 H 229.708 -5.23484 -0.572044 0
M  V30 2423 H 232.199 -3.77899 -0.00697015 0
M  V30 2424 H 232.512 -7.7038 0.611076 0
M  V30 2425 H 230.857 -6.92878 0.542628 0
M  V30 2426 H 234.048 -4.68039 0.0756209 0
M  V30 2427 H 234.221 -6.47015 0.357227 0
M  V30 2428 N 227.627 0.131896 -1.57047 0
M  V30 2429 C 228.559 1.1878 -1.9602 0
M  V30 2430 C 229.572 1.38363 -0.857875 0
M  V30 2431 O 230.761 1.37666 -1.13623 0
M  V30 2432 C 227.861 2.55008 -2.23213 0
M  V30 2433 C 227.034 2.56201 -3.54513 0
M  V30 2434 C 226.093 3.7408 -3.70069 0
M  V30 2435 O 225.119 3.58258 -4.42312 0
M  V30 2436 N 226.321 4.92137 -3.07866 0
M  V30 2437 H 229.086 0.85639 -2.87204 0
M  V30 2438 H 226.647 0.321309 -1.5868 0
M  V30 2439 H 228.639 3.32404 -2.30846 0
M  V30 2440 H 227.209 2.80382 -1.3822 0
M  V30 2441 H 226.429 1.64613 -3.58185 0
M  V30 2442 H 227.717 2.54043 -4.4084 0
M  V30 2443 H 227.115 5.07895 -2.49116 0
M  V30 2444 H 225.672 5.67254 -3.21039 0
M  V30 2445 N 229.106 1.52395 0.401703 0
M  V30 2446 C 230.038 1.72505 1.50912 0
M  V30 2447 C 231.051 0.605468 1.51122 0
M  V30 2448 O 232.24 0.880828 1.55254 0
M  V30 2449 C 229.34 1.75711 2.89791 0
M  V30 2450 C 228.513 3.04824 3.1369 0
M  V30 2451 C 227.572 2.99743 4.32482 0
M  V30 2452 O 226.598 3.73635 4.29402 0
M  V30 2453 N 227.8 2.18047 5.37992 0
M  V30 2454 H 230.565 2.68049 1.34052 0
M  V30 2455 H 228.126 1.50724 0.591084 0
M  V30 2456 H 230.118 1.69834 3.6734 0
M  V30 2457 H 228.688 0.876092 3.00072 0
M  V30 2458 H 227.908 3.2429 2.24119 0
M  V30 2459 H 229.196 3.90221 3.26504 0
M  V30 2460 H 228.594 1.57456 5.43345 0
M  V30 2461 H 227.151 2.18021 6.14256 0
M  V30 2462 N 230.584 -0.659388 1.43143 0
M  V30 2463 C 231.494 -1.80167 1.50256 0
M  V30 2464 C 232.51 -1.69571 0.390106 0
M  V30 2465 O 233.686 -1.90849 0.643319 0
M  V30 2466 C 230.751 -3.16409 1.41725 0
M  V30 2467 C 229.812 -3.38848 2.63591 0
M  V30 2468 C 229.045 -4.68591 2.55458 0
M  V30 2469 O 229.268 -5.47532 1.59891 0
M  V30 2470 O 228.202 -4.92614 3.45854 0
M  V30 2471 H 232.028 -1.77121 2.46702 0
M  V30 2472 H 229.613 -0.817092 1.25076 0
M  V30 2473 H 231.495 -3.9768 1.39387 0
M  V30 2474 H 230.17 -3.20059 0.484118 0
M  V30 2475 H 229.077 -2.57366 2.71502 0
M  V30 2476 H 230.41 -3.4004 3.55856 0
M  V30 2477 N 232.062 -1.29571 -0.897171 0
M  V30 2478 C 233.339 -1.08365 -1.62839 0
M  V30 2479 C 233.719 0.371331 -2.07808 0
M  V30 2480 O 233.067 1.3606 -1.83576 0
M  V30 2481 C 233.277 -2.0735 -2.80726 0
M  V30 2482 C 234.625 -2.38406 -3.51351 0
M  V30 2483 O 235.649 -2.05564 -2.90898 0
M  V30 2484 O 234.508 -2.9453 -4.60341 0
M  V30 2485 H 231.602 -0.415345 -0.715134 0
M  V30 2486 H 234.148 -1.40952 -0.945018 0
M  V30 2487 H 232.92 -3.05339 -2.44711 0
M  V30 2488 H 232.543 -1.75507 -3.56767 0
M  V30 2489 N 233.54 1.10788 -1.12088 0
M  V30 2490 C 234.77 1.86191 -0.895351 0
M  V30 2491 C 235.178 1.80763 0.558702 0
M  V30 2492 O 234.521 1.19188 1.39785 0
M  V30 2493 C 234.583 3.35659 -1.28737 0
M  V30 2494 C 234.247 3.64849 -2.75198 0
M  V30 2495 C 235.244 3.61757 -3.734 0
M  V30 2496 C 232.929 3.93641 -3.12013 0
M  V30 2497 C 234.923 3.87045 -5.06434 0
M  V30 2498 C 232.61 4.18585 -4.4523 0
M  V30 2499 C 233.608 4.15277 -5.42249 0
M  V30 2500 O 233.296 4.3959 -6.73065 0
M  V30 2501 H 233.028 0.595425 -0.32007 0
M  V30 2502 H 235.582 1.40992 -1.49367 0
M  V30 2503 H 233.812 3.81497 -0.63224 0
M  V30 2504 H 235.501 3.92441 -1.03656 0
M  V30 2505 H 236.267 3.39557 -3.46303 0
M  V30 2506 H 232.146 3.95348 -2.37109 0
M  V30 2507 H 235.69 3.84378 -5.82151 0
M  V30 2508 H 231.587 4.40264 -4.72057 0
M  V30 2509 H 232.355 4.57123 -6.78956 0
M  V30 2510 N 235.018 0.912232 1.28515 0
M  V30 2511 C 235.948 0.416403 2.29757 0
M  V30 2512 C 236.929 -0.515194 1.6211 0
M  V30 2513 O 238.114 -0.423253 1.89532 0
M  V30 2514 C 235.244 -0.34572 3.45575 0
M  V30 2515 C 234.198 0.496599 4.25109 0
M  V30 2516 C 233.524 -0.393771 5.33248 0
M  V30 2517 C 234.824 1.75307 4.92001 0
M  V30 2518 H 236.518 1.26249 2.7148 0
M  V30 2519 H 234.064 0.608515 1.30511 0
M  V30 2520 H 236.017 -0.703422 4.15488 0
M  V30 2521 H 234.741 -1.2257 3.02728 0
M  V30 2522 H 233.4 0.8368 3.56922 0
M  V30 2523 H 233.048 -1.27225 4.86644 0
M  V30 2524 H 232.748 0.166209 5.87365 0
M  V30 2525 H 234.272 -0.747389 6.06009 0
M  V30 2526 H 235.686 1.46437 5.54283 0
M  V30 2527 H 234.083 2.25534 5.56106 0
M  V30 2528 H 235.153 2.48176 4.16577 0
M  V30 2529 N 236.496 -1.42363 0.676048 0
M  V30 2530 C 237.426 -2.33497 0.0124832 0
M  V30 2531 C 238.407 -1.50748 -0.787981 0
M  V30 2532 O 239.592 -1.79346 -0.744884 0
M  V30 2533 C 236.722 -3.34377 -0.938582 0
M  V30 2534 C 235.676 -4.27289 -0.246622 0
M  V30 2535 C 235.002 -5.18386 -1.31071 0
M  V30 2536 C 236.302 -5.14916 0.875125 0
M  V30 2537 H 237.996 -2.89233 0.773593 0
M  V30 2538 H 235.542 -1.39073 0.37346 0
M  V30 2539 H 237.495 -3.97044 -1.41188 0
M  V30 2540 H 236.219 -2.76947 -1.73113 0
M  V30 2541 H 234.878 -3.66018 0.206456 0
M  V30 2542 H 234.526 -4.57282 -2.09528 0
M  V30 2543 H 234.226 -5.81378 -0.852839 0
M  V30 2544 H 235.75 -5.83929 -1.78492 0
M  V30 2545 H 237.164 -5.71262 0.482983 0
M  V30 2546 H 235.561 -5.86747 1.25887 0
M  V30 2547 H 236.631 -4.53242 1.72335 0
M  V30 2548 N 237.974 -0.419461 -1.51915 0
M  V30 2549 C 239.204 0.151915 -2.06041 0
M  V30 2550 C 239.612 1.38539 -1.28855 0
M  V30 2551 O 238.955 1.80592 -0.336463 0
M  V30 2552 C 239.017 0.557119 -3.55157 0
M  V30 2553 C 238.681 -0.567054 -4.53468 0
M  V30 2554 C 239.678 -1.43379 -4.99738 0
M  V30 2555 C 237.363 -0.742693 -4.96779 0
M  V30 2556 C 239.357 -2.46102 -5.87973 0
M  V30 2557 C 237.044 -1.77322 -5.84808 0
M  V30 2558 C 238.042 -2.63078 -6.30301 0
M  V30 2559 O 237.73 -3.64364 -7.16585 0
M  V30 2560 H 237.462 0.0193293 -0.675724 0
M  V30 2561 H 240.016 -0.592073 -1.96682 0
M  V30 2562 H 238.246 1.35355 -3.62238 0
M  V30 2563 H 239.935 1.05759 -3.9188 0
M  V30 2564 H 240.701 -1.30954 -4.66986 0
M  V30 2565 H 236.58 -0.0848307 -4.60922 0
M  V30 2566 H 240.124 -3.13071 -6.23404 0
M  V30 2567 H 236.021 -1.89773 -6.16974 0
M  V30 2568 H 236.789 -3.60731 -7.34721 0
M  V30 2569 N 239.452 1.56882 -0.150215 0
M  V30 2570 C 240.399 2.16922 0.788244 0
M  V30 2571 C 241.369 1.10303 1.24187 0
M  V30 2572 O 242.554 1.38359 1.31383 0
M  V30 2573 C 239.694 2.79754 2.02068 0
M  V30 2574 C 238.807 4.00775 1.61257 0
M  V30 2575 C 237.942 4.51595 2.79705 0
M  V30 2576 C 236.981 5.65074 2.35282 0
M  V30 2577 N 236.118 6.10499 3.4675 0
M  V30 2578 H 240.958 2.96779 0.269444 0
M  V30 2579 H 238.495 1.46599 0.12128 0
M  V30 2580 H 240.453 3.14329 2.74323 0
M  V30 2581 H 239.083 2.02536 2.51354 0
M  V30 2582 H 238.135 3.72158 0.787553 0
M  V30 2583 H 239.447 4.82978 1.24633 0
M  V30 2584 H 238.601 4.88242 3.60145 0
M  V30 2585 H 237.34 3.68406 3.19576 0
M  V30 2586 H 236.345 5.28 1.53283 0
M  V30 2587 H 237.57 6.50052 1.96493 0
M  V30 2588 H 235.516 5.30243 3.86236 0
M  V30 2589 H 235.433 6.87637 3.14152 0
M  V30 2590 H 236.701 6.51791 4.27537 0
M  V30 2591 N 240.93 -0.123565 1.57115 0
M  V30 2592 C 241.862 -1.17739 1.96648 0
M  V30 2593 C 242.875 -1.37906 0.865201 0
M  V30 2594 O 244.064 -1.37062 1.14351 0
M  V30 2595 C 241.164 -2.53821 2.24562 0
M  V30 2596 C 240.337 -2.54317 3.55867 0
M  V30 2597 C 239.396 -3.72112 3.72047 0
M  V30 2598 O 238.422 -3.55907 4.44206 0
M  V30 2599 N 239.624 -4.90498 3.10471 0
M  V30 2600 H 242.389 -0.841147 2.87654 0
M  V30 2601 H 239.95 -0.31289 1.58848 0
M  V30 2602 H 241.942 -3.31175 2.32606 0
M  V30 2603 H 240.512 -2.79645 1.39705 0
M  V30 2604 H 239.732 -1.62711 3.59053 0
M  V30 2605 H 241.02 -2.51701 4.42181 0
M  V30 2606 H 240.418 -5.06567 2.51806 0
M  V30 2607 H 238.975 -5.65544 3.24043 0
M  V30 2608 N 242.408 -1.52605 -0.393616 0
M  V30 2609 C 243.341 -1.71798 -1.50202 0
M  V30 2610 C 244.319 -0.565743 -1.52441 0
M  V30 2611 O 245.503 -0.794987 -1.70916 0
M  V30 2612 C 242.63 -1.7714 -2.88685 0
M  V30 2613 C 241.676 -2.98845 -3.04292 0
M  V30 2614 S 242.509 -4.58909 -2.75976 0
M  V30 2615 C 243.665 -4.6706 -4.1666 0
M  V30 2616 H 243.898 -2.65542 -1.33696 0
M  V30 2617 H 241.431 -1.42839 -0.586195 0
M  V30 2618 H 243.389 -1.80903 -3.68489 0
M  V30 2619 H 242.05 -0.844969 -3.02521 0
M  V30 2620 H 241.243 -2.99111 -4.05646 0
M  V30 2621 H 240.845 -2.9305 -2.32374 0
M  V30 2622 H 243.137 -4.45391 -5.10523 0
M  V30 2623 H 244.08 -5.6905 -4.21412 0
M  V30 2624 H 244.488 -3.95944 -4.02354 0
M  V30 2625 N 243.887 0.651787 -1.4349 0
M  V30 2626 C 244.834 1.76462 -1.4876 0
M  V30 2627 C 245.804 1.62641 -0.337189 0
M  V30 2628 O 246.989 1.82864 -0.544544 0
M  V30 2629 C 244.129 3.14623 -1.41796 0
M  V30 2630 C 243.242 3.39568 -2.67053 0
M  V30 2631 C 242.377 4.67585 -2.52068 0
M  V30 2632 C 241.416 4.85639 -3.72587 0
M  V30 2633 N 240.553 6.04915 -3.56402 0
M  V30 2634 H 245.393 1.71293 -2.43849 0
M  V30 2635 H 242.93 0.835889 -1.21043 0
M  V30 2636 H 244.888 3.94496 -1.35753 0
M  V30 2637 H 243.518 3.18859 -0.50288 0
M  V30 2638 H 242.57 2.53783 -2.8337 0
M  V30 2639 H 243.882 3.48795 -3.56572 0
M  V30 2640 H 243.036 5.55586 -2.4374 0
M  V30 2641 H 241.775 4.60681 -1.60075 0
M  V30 2642 H 240.78 3.96073 -3.81321 0
M  V30 2643 H 242.005 4.94372 -4.65589 0
M  V30 2644 H 239.951 5.9914 -2.67146 0
M  V30 2645 H 239.868 6.15106 -4.39524 0
M  V30 2646 H 241.136 6.95533 -3.51929 0
M  V30 2647 N 245.365 1.30045 0.890287 0
M  V30 2648 C 246.297 1.11786 2.00091 0
M  V30 2649 C 247.31 0.0626307 1.62679 0
M  V30 2650 O 248.499 0.308112 1.75821 0
M  V30 2651 C 245.599 0.681527 3.31977 0
M  V30 2652 C 244.772 1.81735 3.97858 0
M  V30 2653 C 243.831 1.37045 5.08041 0
M  V30 2654 O 242.857 2.07677 5.29961 0
M  V30 2655 N 244.059 0.246525 5.79976 0
M  V30 2656 H 246.824 2.07441 2.16306 0
M  V30 2657 H 244.385 1.2211 1.06305 0
M  V30 2658 H 246.377 0.365675 4.03045 0
M  V30 2659 H 244.947 -0.182828 3.12065 0
M  V30 2660 H 244.167 2.30159 3.20032 0
M  V30 2661 H 245.455 2.57865 4.38615 0
M  V30 2662 H 244.853 -0.34215 5.64664 0
M  V30 2663 H 243.41 -0.00990438 6.51799 0
M  V30 2664 N 246.843 -1.10192 1.12674 0
M  V30 2665 C 247.773 -2.18652 0.819362 0
M  V30 2666 C 248.754 -1.68698 -0.217915 0
M  V30 2667 O 249.939 -1.94041 -0.0785581 0
M  V30 2668 C 247.069 -3.46202 0.27594 0
M  V30 2669 C 246.023 -4.09444 1.24656 0
M  V30 2670 C 245.349 -5.31725 0.563258 0
M  V30 2671 C 246.649 -4.52863 2.60217 0
M  V30 2672 H 248.343 -2.44622 1.72628 0
M  V30 2673 H 245.889 -1.17571 0.831451 0
M  V30 2674 H 247.842 -4.21372 0.0486149 0
M  V30 2675 H 246.566 -3.1973 -0.666331 0
M  V30 2676 H 245.225 -3.36284 1.45974 0
M  V30 2677 H 244.873 -5.0153 -0.384235 0
M  V30 2678 H 244.573 -5.74991 1.21075 0
M  V30 2679 H 246.097 -6.09624 0.34503 0
M  V30 2680 H 247.511 -5.19294 2.42913 0
M  V30 2681 H 245.908 -5.06986 3.21068 0
M  V30 2682 H 246.978 -3.65656 3.18471 0
M  V30 2683 N 248.321 -0.919034 -1.28029 0
M  V30 2684 C 249.268 -0.410005 -2.27129 0
M  V30 2685 C 250.238 0.518405 -1.57803 0
M  V30 2686 O 251.423 0.439451 -1.8567 0
M  V30 2687 C 248.563 0.339054 -3.4343 0
M  V30 2688 C 247.676 -0.622468 -4.27492 0
M  V30 2689 C 246.811 0.145567 -5.31001 0
M  V30 2690 C 245.85 -0.809226 -6.06727 0
M  V30 2691 N 244.987 -0.0743728 -7.02061 0
M  V30 2692 H 249.827 -1.26011 -2.70047 0
M  V30 2693 H 247.364 -0.632663 -1.328 0
M  V30 2694 H 249.322 0.789586 -4.0966 0
M  V30 2695 H 247.952 1.15346 -3.01488 0
M  V30 2696 H 247.004 -1.19153 -3.61257 0
M  V30 2697 H 248.316 -1.35252 -4.80113 0
M  V30 2698 H 247.47 0.656417 -6.03139 0
M  V30 2699 H 246.209 0.908643 -4.79161 0
M  V30 2700 H 245.214 -1.3314 -5.33436 0
M  V30 2701 H 246.439 -1.57194 -6.60656 0
M  V30 2702 H 244.385 0.670616 -6.52563 0
M  V30 2703 H 244.302 -0.744157 -7.52329 0
M  V30 2704 H 245.57 0.416109 -7.78389 0
M  V30 2705 N 249.799 1.42003 -0.683588 0
M  V30 2706 C 250.747 2.326 0.000815408 0
M  V30 2707 C 251.741 1.50308 0.781278 0
M  V30 2708 O 252.947 1.66322 0.688251 0
M  V30 2709 H 249.322 0.751758 0.0190616 0
M  V30 2710 H 251.293 2.88011 -0.780528 0
M  V30 2711 C 250.042 3.34978 0.93195 0
M  V30 2712 H 249.365 3.98345 0.340817 0
M  V30 2713 H 250.805 4.00936 1.37936 0
M  V30 2714 C 249.264 2.67925 2.04249 0
M  V30 2715 O 249.794 2.51788 3.12995 0
M  V30 2716 N 248 2.2681 1.81675 0
M  V30 2717 H 247.547 2.40135 0.932363 0
M  V30 2718 H 247.505 1.8228 2.56167 0
M  V30 2719 N 251.277 0.427512 1.51691 0
M  V30 2720 C 252.688 -0.0378867 1.86662 0
M  V30 2721 C 253.039 -1.42819 1.34525 0
M  V30 2722 O 252.164 -2.05037 0.692014 0
M  V30 2723 C 252.759 -0.0755266 3.38716 0
M  V30 2724 C 251.318 -0.485309 3.73258 0
M  V30 2725 C 250.465 0.328399 2.75349 0
M  V30 2726 H 253.416 0.64379 1.45055 0
M  V30 2727 H 253.437 -0.887056 3.70016 0
M  V30 2728 H 252.949 0.936487 3.76632 0
M  V30 2729 H 251.05 -1.50329 3.40928 0
M  V30 2730 H 251.163 -0.21693 4.78609 0
M  V30 2731 H 249.527 -0.211905 2.53817 0
M  V30 2732 H 250.31 1.3391 3.16106 0
M  V30 2733 N 252.755 -1.56801 0.158532 0
M  V30 2734 C 253.685 -2.20347 -0.772609 0
M  V30 2735 C 254.666 -1.15518 -1.24859 0
M  V30 2736 O 255.851 -1.43902 -1.30406 0
M  V30 2737 C 252.981 -2.83417 -2.00729 0
M  V30 2738 C 251.935 -3.94174 -1.66765 0
M  V30 2739 C 251.261 -4.44233 -2.97592 0
M  V30 2740 C 252.561 -5.14392 -0.905447 0
M  V30 2741 H 254.255 -2.98413 -0.242959 0
M  V30 2742 H 251.801 -1.43537 -0.115419 0
M  V30 2743 H 253.754 -3.26543 -2.6636 0
M  V30 2744 H 252.478 -2.02701 -2.56086 0
M  V30 2745 H 251.137 -3.51684 -1.03508 0
M  V30 2746 H 250.785 -3.60325 -3.50963 0
M  V30 2747 H 250.485 -5.18945 -2.75626 0
M  V30 2748 H 252.009 -4.90037 -3.64274 0
M  V30 2749 H 253.423 -5.5429 -1.46408 0
M  V30 2750 H 251.82 -5.9494 -0.7853 0
M  V30 2751 H 252.89 -4.84795 0.100668 0
M  V30 2752 N 254.233 0.115231 -1.57178 0
M  V30 2753 C 255.143 1.15994 -2.03918 0
M  V30 2754 C 256.159 1.45103 -0.960268 0
M  V30 2755 O 257.335 1.56144 -1.27204 0
M  V30 2756 C 254.4 2.46568 -2.43732 0
M  V30 2757 C 253.461 2.24822 -3.65723 0
M  V30 2758 C 252.694 3.4917 -4.03629 0
M  V30 2759 O 252.917 4.56623 -3.41835 0
M  V30 2760 O 251.851 3.39949 -4.96708 0
M  V30 2761 H 255.677 0.793019 -2.93164 0
M  V30 2762 H 253.262 0.3263 -1.45793 0
M  V30 2763 H 255.144 3.23492 -2.70057 0
M  V30 2764 H 253.819 2.82726 -1.57631 0
M  V30 2765 H 252.726 1.45744 -3.44542 0
M  V30 2766 H 254.059 1.93566 -4.52541 0
M  V30 2767 N 255.711 1.52812 0.385517 0
M  V30 2768 C 256.96 1.67249 1.12741 0
M  V30 2769 C 257.273 0.4205 1.91027 0
M  V30 2770 O 258.479 0.445064 2.67827 0
M  V30 2771 C 256.935 2.95583 2.05326 0
M  V30 2772 C 256.543 4.27974 1.32447 0
M  V30 2773 C 258.287 3.19386 2.7963 0
M  V30 2774 C 256.194 5.47412 2.23818 0
M  V30 2775 H 255.124 0.6231 0.424573 0
M  V30 2776 H 257.775 1.79309 0.389924 0
M  V30 2777 H 256.157 2.77277 2.82725 0
M  V30 2778 H 257.331 4.56844 0.602495 0
M  V30 2779 H 255.646 4.10459 0.700885 0
M  V30 2780 H 258.243 4.05801 3.48181 0
M  V30 2781 H 258.586 2.34604 3.43899 0
M  V30 2782 H 259.119 3.38274 2.09322 0
M  V30 2783 H 255.858 6.34612 1.64157 0
M  V30 2784 H 255.378 5.22849 2.93921 0
M  V30 2785 H 257.057 5.81423 2.83824 0
M  V30 2786 N 257.189 -0.644168 1.43834 0
M  V30 2787 C 258.435 -1.40603 1.46146 0
M  V30 2788 C 258.768 -1.93997 0.0887717 0
M  V30 2789 O 258.043 -1.72854 -0.891724 0
M  V30 2790 C 258.326 -2.58086 2.51124 0
M  V30 2791 C 258.179 -2.10126 3.97702 0
M  V30 2792 C 259.498 -3.60291 2.52742 0
M  V30 2793 H 256.617 -0.509905 0.532134 0
M  V30 2794 H 259.259 -0.729502 1.75437 0
M  V30 2795 H 257.409 -3.15801 2.26278 0
M  V30 2796 H 259.081 -1.57342 4.33637 0
M  V30 2797 H 257.324 -1.41419 4.10101 0
M  V30 2798 H 257.995 -2.94649 4.66783 0
M  V30 2799 H 260.471 -3.12352 2.7491 0
M  V30 2800 H 259.347 -4.40032 3.28121 0
M  V30 2801 H 259.608 -4.1349 1.56455 0
M  V30 2802 N 258.668 -1.30515 -0.883378 0
M  V30 2803 C 259.893 -1.22487 -1.67367 0
M  V30 2804 C 260.318 0.208767 -1.86938 0
M  V30 2805 O 259.676 1.15015 -1.40148 0
M  V30 2806 C 259.724 -1.96041 -3.02655 0
M  V30 2807 O 258.828 -1.28859 -3.91751 0
M  V30 2808 H 258.169 -0.423573 -0.511353 0
M  V30 2809 H 260.699 -1.72362 -1.10239 0
M  V30 2810 H 260.709 -2.05124 -3.52687 0
M  V30 2811 H 259.384 -3.00307 -2.8773 0
M  V30 2812 H 257.961 -1.28141 -3.50192 0
M  V30 2813 N 260.146 1.09593 -1.13257 0
M  V30 2814 C 261.395 1.81105 -0.887917 0
M  V30 2815 C 261.708 1.86563 0.587672 0
M  V30 2816 O 262.914 2.54367 0.949204 0
M  V30 2817 C 261.37 3.25338 -1.53895 0
M  V30 2818 C 260.978 3.28151 -3.04994 0
M  V30 2819 C 262.722 4.01617 -1.37492 0
M  V30 2820 C 260.629 4.66897 -3.6299 0
M  V30 2821 H 259.559 0.678661 -0.328534 0
M  V30 2822 H 262.21 1.23183 -1.36008 0
M  V30 2823 H 260.592 3.8331 -0.994446 0
M  V30 2824 H 261.766 2.79953 -3.66009 0
M  V30 2825 H 260.081 2.65361 -3.20893 0
M  V30 2826 H 262.678 5.04119 -1.78235 0
M  V30 2827 H 263.021 4.15072 -0.31957 0
M  V30 2828 H 263.554 3.50082 -1.88912 0
M  V30 2829 H 260.293 4.58643 -4.68323 0
M  V30 2830 H 259.813 5.15426 -3.06752 0
M  V30 2831 H 261.492 5.3587 -3.62563 0
M  V30 2832 N 261.624 0.925811 1.2754 0
M  V30 2833 C 263.035 0.610102 1.7645 0
M  V30 2834 C 263.386 -0.874723 1.75622 0
M  V30 2835 O 262.511 -1.68444 1.35851 0
M  V30 2836 C 263.106 1.10073 3.20421 0
M  V30 2837 C 261.665 0.835723 3.67005 0
M  V30 2838 C 260.812 1.26054 2.46993 0
M  V30 2839 H 263.763 1.10579 1.13833 0
M  V30 2840 H 263.784 0.447557 3.77859 0
M  V30 2841 H 263.296 2.18143 3.20991 0
M  V30 2842 H 261.397 -0.231249 3.71882 0
M  V30 2843 H 261.51 1.45193 4.56569 0
M  V30 2844 H 259.874 0.679111 2.45479 0
M  V30 2845 H 260.657 2.34984 2.50275 0
M  V30 2846 N 263.102 -1.41638 0.69111 0
M  V30 2847 C 264.379 -1.95036 0.148421 0
M  V30 2848 C 264.759 -1.63072 -1.34055 0
M  V30 2849 O 264.107 -0.93538 -2.08478 0
M  V30 2850 C 264.317 -3.46279 0.434951 0
M  V30 2851 C 265.665 -4.23069 0.360275 0
M  V30 2852 O 266.689 -3.54277 0.369613 0
M  V30 2853 O 265.548 -5.45583 0.316534 0
M  V30 2854 H 262.642 -0.826908 0.0123654 0
M  V30 2855 H 265.188 -1.5138 0.766963 0
M  V30 2856 H 263.96 -3.6281 1.46576 0
M  V30 2857 H 263.583 -3.97019 -0.214787 0
M  V30 2858 N 264.58 -0.43555 -1.51462 0
M  V30 2859 C 265.528 0.391205 -2.29287 0
M  V30 2860 C 266.522 1.02247 -1.35062 0
M  V30 2861 O 267.728 0.957646 -1.52411 0
M  V30 2862 H 264.103 0.144968 -0.737895 0
M  V30 2863 H 266.074 -0.286051 -2.97026 0
M  V30 2864 C 264.823 1.48096 -3.14583 0
M  V30 2865 H 264.146 1.00457 -3.86973 0
M  V30 2866 H 265.586 2.03273 -3.72097 0
M  V30 2867 C 264.045 2.46321 -2.29843 0
M  V30 2868 O 264.575 3.50815 -1.95682 0
M  V30 2869 N 262.781 2.17166 -1.931 0
M  V30 2870 H 262.328 1.32218 -2.21079 0
M  V30 2871 H 262.286 2.83127 -1.36698 0
M  V30 2872 N 266.058 1.56714 -0.166846 0
M  V30 2873 C 267.008 2.14338 0.777382 0
M  V30 2874 C 267.992 1.07642 1.19591 0
M  V30 2875 O 269.184 1.33775 1.15902 0
M  V30 2876 C 266.313 2.78417 2.00846 0
M  V30 2877 C 265.399 3.92264 1.61212 0
M  V30 2878 N 265.79 4.97268 0.925104 0
M  V30 2879 C 264.088 4.03342 1.90346 0
M  V30 2880 C 264.789 5.77093 0.730627 0
M  V30 2881 N 263.765 5.2854 1.27067 0
M  V30 2882 H 267.567 2.9289 0.243466 0
M  V30 2883 H 265.081 1.62364 0.0339954 0
M  V30 2884 H 267.078 3.18073 2.69509 0
M  V30 2885 H 265.738 2.01344 2.54736 0
M  V30 2886 H 266.749 5.14601 0.583646 0
M  V30 2887 H 263.426 3.37368 2.45946 0
M  V30 2888 H 264.816 6.71638 0.187668 0
M  V30 2889 N 267.536 -0.106894 1.57237 0
M  V30 2890 C 268.784 -0.810921 1.85117 0
M  V30 2891 C 269.105 -1.7984 0.753827 0
M  V30 2892 O 268.375 -1.94649 -0.221056 0
M  V30 2893 H 266.955 -0.302466 0.683025 0
M  V30 2894 H 269.617 -0.0913324 1.94686 0
M  V30 2895 H 268.713 -1.34875 2.81452 0
M  V30 2896 N 269.014 -1.53014 -0.377408 0
M  V30 2897 C 269.964 -1.74996 -1.46152 0
M  V30 2898 C 270.948 -0.604236 -1.49123 0
M  V30 2899 O 272.14 -0.862489 -1.54564 0
M  V30 2900 C 269.269 -1.93267 -2.8373 0
M  V30 2901 C 268.355 -3.13807 -2.85283 0
M  V30 2902 N 268.746 -4.35941 -2.56493 0
M  V30 2903 C 267.044 -3.14288 -3.16448 0
M  V30 2904 C 267.745 -5.17615 -2.65424 0
M  V30 2905 N 266.721 -4.53559 -2.99641 0
M  V30 2906 H 270.523 -2.67044 -1.22738 0
M  V30 2907 H 268.037 -1.51479 -0.585479 0
M  V30 2908 H 270.034 -2.0714 -3.61799 0
M  V30 2909 H 268.694 -1.0244 -3.08117 0
M  V30 2910 H 269.705 -4.63876 -2.30302 0
M  V30 2911 H 266.382 -2.33312 -3.46225 0
M  V30 2912 H 267.772 -6.25006 -2.46612 0
M  V30 2913 N 270.492 0.636531 -1.44174 0
M  V30 2914 C 271.741 1.39213 -1.45954 0
M  V30 2915 C 272.054 1.95374 -0.0939119 0
M  V30 2916 O 273.26 2.71498 0.0107767 0
M  V30 2917 C 271.716 2.52025 -2.56927 0
M  V30 2918 C 271.324 2.024 -3.99673 0
M  V30 2919 C 273.068 3.29269 -2.67922 0
M  V30 2920 C 270.975 3.12521 -5.0208 0
M  V30 2921 H 269.905 0.523132 -0.542999 0
M  V30 2922 H 272.556 0.685349 -1.70221 0
M  V30 2923 H 270.938 3.25253 -2.25891 0
M  V30 2924 H 272.112 1.36073 -4.40251 0
M  V30 2925 H 270.427 1.37987 -3.92872 0
M  V30 2926 H 273.024 4.11352 -3.41605 0
M  V30 2927 H 273.367 3.78397 -1.73555 0
M  V30 2928 H 273.9 2.63129 -2.98342 0
M  V30 2929 H 270.639 2.68343 -5.98057 0
M  V30 2930 H 270.159 3.77507 -4.66099 0
M  V30 2931 H 271.838 3.77385 -5.25538 0
M  V30 2932 N 271.97 1.30982 0.876444 0
M  V30 2933 C 273.247 1.10942 1.61094 0
M  V30 2934 C 273.627 -0.338223 2.08373 0
M  V30 2935 O 272.975 -1.33122 1.85717 0
M  V30 2936 C 273.185 2.11789 2.77392 0
M  V30 2937 C 274.533 2.43965 3.47514 0
M  V30 2938 O 275.557 2.10166 2.87591 0
M  V30 2939 O 274.416 3.01817 4.55597 0
M  V30 2940 H 271.51 0.42667 0.708436 0
M  V30 2941 H 274.056 1.42438 0.922474 0
M  V30 2942 H 272.828 3.09194 2.39823 0
M  V30 2943 H 272.451 1.81161 3.5393 0
M  V30 2944 N 273.449 -1.08991 1.13837 0
M  V30 2945 C 274.86 -1.62746 0.914917 0
M  V30 2946 C 275.211 -1.88403 -0.547594 0
M  V30 2947 O 274.336 -1.63706 -1.41525 0
M  V30 2948 C 274.931 -2.95662 1.65437 0
M  V30 2949 C 273.49 -3.46225 1.47666 0
M  V30 2950 C 272.637 -2.20562 1.6807 0
M  V30 2951 H 275.588 -0.922946 1.29102 0
M  V30 2952 H 275.609 -3.63825 1.11407 0
M  V30 2953 H 275.121 -2.76956 2.71877 0
M  V30 2954 H 273.222 -3.70046 0.435478 0
M  V30 2955 H 273.335 -4.23368 2.24268 0
M  V30 2956 H 271.699 -2.29439 1.10589 0
M  V30 2957 H 272.482 -2.0437 2.7584 0
M  V30 2958 N 274.927 -0.932562 -1.27047 0
M  V30 2959 C 276.152 -0.591474 -1.98787 0
M  V30 2960 C 276.577 0.824601 -1.69062 0
M  V30 2961 O 275.935 1.5541 -0.933677 0
M  V30 2962 C 275.983 -0.829808 -3.50922 0
M  V30 2963 O 275.087 0.102266 -4.12273 0
M  V30 2964 H 274.428 -0.227185 -0.623926 0
M  V30 2965 H 276.958 -1.25314 -1.61733 0
M  V30 2966 H 276.968 -0.747292 -4.01098 0
M  V30 2967 H 275.643 -1.86201 -3.7189 0
M  V30 2968 H 274.22 -0.0305761 -3.72887 0
M  V30 2969 N 276.405 1.4127 -0.698611 0
M  V30 2970 C 277.335 2.33447 -0.049629 0
M  V30 2971 C 278.316 1.51982 0.763898 0
M  V30 2972 O 279.501 1.80509 0.716257 0
M  V30 2973 C 276.631 3.35828 0.885267 0
M  V30 2974 C 275.585 4.27627 0.178613 0
M  V30 2975 C 274.911 5.20406 1.22807 0
M  V30 2976 C 276.211 5.13459 -0.956933 0
M  V30 2977 H 277.905 2.87966 -0.81951 0
M  V30 2978 H 275.451 1.38461 -0.395538 0
M  V30 2979 H 277.404 3.9924 1.34854 0
M  V30 2980 H 276.128 2.79666 1.68685 0
M  V30 2981 H 274.787 3.65643 -0.26466 0
M  V30 2982 H 274.435 4.60558 2.02226 0
M  V30 2983 H 274.135 5.82661 0.760239 0
M  V30 2984 H 275.659 5.86695 1.69179 0
M  V30 2985 H 277.073 5.70421 -0.573805 0
M  V30 2986 H 275.47 5.8467 -1.35205 0
M  V30 2987 H 276.54 4.50443 -1.79524 0
M  V30 2988 N 277.883 0.443576 1.51229 0
M  V30 2989 C 279.299 0.0962001 1.5931 0
M  V30 2990 C 279.499 -1.39501 1.45402 0
M  V30 2991 O 278.555 -2.16557 1.29843 0
M  V30 2992 C 279.868 0.621875 2.94199 0
M  V30 2993 C 281.416 0.582865 3.07525 0
M  V30 2994 C 281.891 1.08562 4.44948 0
M  V30 2995 N 283.382 1.04387 4.51284 0
M  V30 2996 C 284.117 1.40368 5.55954 0
M  V30 2997 N 283.613 1.83664 6.68011 0
M  V30 2998 N 285.406 1.32145 5.46346 0
M  V30 2999 H 277.557 1.41376 1.58514 0
M  V30 3000 H 279.82 0.582965 0.747567 0
M  V30 3001 H 279.526 1.66546 3.09767 0
M  V30 3002 H 279.4 0.0502125 3.77167 0
M  V30 3003 H 281.787 -0.451749 2.91622 0
M  V30 3004 H 281.868 1.191 2.26382 0
M  V30 3005 H 281.512 2.11873 4.61598 0
M  V30 3006 H 281.442 0.453956 5.2464 0
M  V30 3007 H 283.933 0.725986 3.70861 0
M  V30 3008 H 284.246 2.0934 7.43906 0
M  V30 3009 H 282.591 1.87596 6.69203 0
M  V30 3010 H 285.782 0.981808 4.57688 0
M  V30 3011 H 285.955 1.60514 6.27805 0
M  V30 3012 N 279.361 -1.56624 0.175154 0
M  V30 3013 C 280.291 -2.21155 -0.749195 0
M  V30 3014 C 281.272 -1.16836 -1.23626 0
M  V30 3015 O 282.457 -1.45277 -1.28873 0
M  V30 3016 C 279.587 -2.8553 -1.97711 0
M  V30 3017 C 278.541 -3.95921 -1.62575 0
M  V30 3018 C 277.867 -4.47365 -2.92864 0
M  V30 3019 C 279.167 -5.15323 -0.850838 0
M  V30 3020 H 280.861 -2.98653 -0.211295 0
M  V30 3021 H 278.407 -1.43651 -0.100188 0
M  V30 3022 H 280.36 -3.2935 -2.62881 0
M  V30 3023 H 279.084 -2.05406 -2.53921 0
M  V30 3024 H 277.743 -3.52762 -0.997719 0
M  V30 3025 H 277.391 -3.64027 -3.47122 0
M  V30 3026 H 277.091 -5.21839 -2.70106 0
M  V30 3027 H 278.615 -4.93873 -3.59056 0
M  V30 3028 H 280.029 -5.55812 -1.40521 0
M  V30 3029 H 278.426 -5.95739 -0.722154 0
M  V30 3030 H 279.496 -4.84661 0.152082 0
M  V30 3031 N 280.839 0.0985539 -1.57292 0
M  V30 3032 C 282.088 0.801358 -1.85098 0
M  V30 3033 C 282.401 1.80066 -0.763902 0
M  V30 3034 O 283.607 2.55112 -0.928981 0
M  V30 3035 C 282.063 1.47599 -3.28242 0
M  V30 3036 C 281.671 0.516624 -4.45011 0
M  V30 3037 C 283.415 2.16272 -3.65276 0
M  V30 3038 C 281.322 1.19564 -5.79188 0
M  V30 3039 H 280.252 0.303022 -0.69043 0
M  V30 3040 H 282.903 0.0542623 -1.8342 0
M  V30 3041 H 281.285 2.27042 -3.2445 0
M  V30 3042 H 282.459 -0.246065 -4.60143 0
M  V30 3043 H 280.774 -0.064227 -4.1635 0
M  V30 3044 H 283.371 2.67802 -4.62803 0
M  V30 3045 H 283.714 2.95009 -2.93727 0
M  V30 3046 H 284.247 1.43693 -3.70941 0
M  V30 3047 H 280.986 0.449157 -6.53959 0
M  V30 3048 H 280.506 1.92984 -5.67906 0
M  V30 3049 H 282.185 1.7231 -6.23633 0
M  V30 3050 N 282.317 1.53212 0.369288 0
M  V30 3051 C 283.563 1.70413 1.11046 0
M  V30 3052 C 283.918 0.448509 1.87099 0
M  V30 3053 O 283.211 -0.558382 1.83283 0
M  V30 3054 C 283.405 2.89101 2.10132 0
M  V30 3055 C 283.234 4.26084 1.43814 0
M  V30 3056 C 282.004 4.90994 1.19384 0
M  V30 3057 C 284.202 5.06754 0.877802 0
M  V30 3058 N 282.184 6.11911 0.49377 0
M  V30 3059 C 283.555 6.1924 0.306891 0
M  V30 3060 C 285.61 4.91814 0.776129 0
M  V30 3061 C 284.313 7.1842 -0.355774 0
M  V30 3062 C 286.339 5.91263 0.127252 0
M  V30 3063 C 285.701 7.03069 -0.432801 0
M  V30 3064 H 281.8 0.676872 0.391623 0
M  V30 3065 H 284.384 1.90603 0.397334 0
M  V30 3066 H 282.555 2.70456 2.78761 0
M  V30 3067 H 284.287 2.95142 2.76899 0
M  V30 3068 H 281.042 4.50074 1.47413 0
M  V30 3069 H 281.466 6.76813 0.159207 0
M  V30 3070 H 286.108 4.05564 1.19489 0
M  V30 3071 H 283.826 8.04264 -0.786499 0
M  V30 3072 H 287.412 5.81779 0.0495613 0
M  V30 3073 H 286.292 7.78702 -0.926958 0
M  V30 3074 N 283.795 -0.628877 1.44509 0
M  V30 3075 C 285.072 -1.38733 1.37886 0
M  V30 3076 C 285.452 -2.11065 0.0387008 0
M  V30 3077 O 284.8 -2.06476 -0.97878 0
M  V30 3078 C 285.01 -2.35188 2.57852 0
M  V30 3079 C 286.358 -2.9845 3.02014 0
M  V30 3080 O 287.382 -2.45513 2.58073 0
M  V30 3081 O 286.241 -3.94487 3.78209 0
M  V30 3082 H 283.335 -0.621015 0.54614 0
M  V30 3083 H 285.881 -0.653744 1.56602 0
M  V30 3084 H 284.653 -1.80855 3.46998 0
M  V30 3085 H 284.276 -3.1596 2.4136 0
M  V30 3086 N 285.273 -1.31445 -0.869486 0
M  V30 3087 C 286.203 -1.21727 -1.99261 0
M  V30 3088 C 287.184 -0.104359 -1.6978 0
M  V30 3089 O 288.369 -0.289038 -1.92037 0
M  V30 3090 C 285.499 -0.924317 -3.34774 0
M  V30 3091 C 284.453 -1.99685 -3.78563 0
M  V30 3092 C 283.779 -1.55658 -5.11541 0
M  V30 3093 C 285.079 -3.41003 -3.95619 0
M  V30 3094 H 286.773 -2.1569 -2.07649 0
M  V30 3095 H 284.319 -1.03839 -0.997675 0
M  V30 3096 H 286.272 -0.842934 -4.12883 0
M  V30 3097 H 284.996 0.0509793 -3.2656 0
M  V30 3098 H 283.655 -2.06813 -3.02694 0
M  V30 3099 H 283.303 -0.569132 -4.9977 0
M  V30 3100 H 283.003 -2.27409 -5.41811 0
M  V30 3101 H 284.527 -1.48928 -5.92159 0
M  V30 3102 H 285.941 -3.36547 -4.64122 0
M  V30 3103 H 284.338 -4.10975 -4.37286 0
M  V30 3104 H 285.408 -3.81754 -2.98985 0
M  V30 3105 N 286.751 1.08385 -1.14413 0
M  V30 3106 C 287.714 2.13486 -0.834048 0
M  V30 3107 C 288.714 1.59988 0.161418 0
M  V30 3108 O 289.904 1.74071 -0.0669575 0
M  V30 3109 C 287.036 3.4003 -0.243354 0
M  V30 3110 H 288.229 2.42425 -1.7655 0
M  V30 3111 H 285.782 1.24101 -0.950189 0
M  V30 3112 H 286.517 3.16726 0.696807 0
M  V30 3113 H 286.302 3.80157 -0.960367 0
M  V30 3114 H 287.792 4.17577 -0.0436242 0
M  V30 3115 N 288.23 0.939286 1.26551 0
M  V30 3116 C 289.477 0.585847 1.9384 0
M  V30 3117 C 289.805 -0.874784 1.73718 0
M  V30 3118 O 289.06 -1.64092 1.06642 0
M  V30 3119 C 289.359 0.872106 3.46596 0
M  V30 3120 C 289.025 2.31632 3.86856 0
M  V30 3121 C 287.687 2.71111 3.97558 0
M  V30 3122 C 290.039 3.25494 4.07066 0
M  V30 3123 C 287.367 4.03553 4.25866 0
M  V30 3124 C 289.719 4.57531 4.36862 0
M  V30 3125 C 288.383 4.96828 4.45778 0
M  V30 3126 H 287.653 0.214377 0.709312 0
M  V30 3127 H 290.3 1.18544 1.50398 0
M  V30 3128 H 288.605 0.18996 3.91339 0
M  V30 3129 H 290.302 0.577442 3.96821 0
M  V30 3130 H 286.892 2.00008 3.79071 0
M  V30 3131 H 291.076 2.9619 3.98227 0
M  V30 3132 H 286.332 4.33665 4.30981 0
M  V30 3133 H 290.506 5.30254 4.51446 0
M  V30 3134 H 288.133 5.99482 4.67468 0
M  V30 3135 N 289.708 -1.40897 0.706093 0
M  V30 3136 C 290.638 -2.33418 0.0620085 0
M  V30 3137 C 291.619 -1.52385 -0.755827 0
M  V30 3138 O 292.804 -1.80886 -0.706674 0
M  V30 3139 C 289.934 -3.36293 -0.867445 0
M  V30 3140 C 288.888 -4.27716 -0.155932 0
M  V30 3141 C 288.214 -5.2105 -1.20046 0
M  V30 3142 C 289.514 -5.12944 0.984149 0
M  V30 3143 H 291.208 -2.87527 0.83477 0
M  V30 3144 H 288.754 -1.38249 0.402875 0
M  V30 3145 H 290.707 -3.99949 -1.32735 0
M  V30 3146 H 289.431 -2.80556 -1.67199 0
M  V30 3147 H 288.09 -3.65498 0.284047 0
M  V30 3148 H 287.738 -4.61624 -1.99781 0
M  V30 3149 H 287.438 -5.83056 -0.729328 0
M  V30 3150 H 288.962 -5.87584 -1.66066 0
M  V30 3151 H 290.376 -5.70109 0.604048 0
M  V30 3152 H 288.773 -5.83945 1.38304 0
M  V30 3153 H 289.843 -4.49485 1.81911 0
M  V30 3154 N 291.186 -0.45159 -1.50991 0
M  V30 3155 C 292.434 0.109857 -2.01801 0
M  V30 3156 C 292.755 1.41958 -1.3369 0
M  V30 3157 O 292.025 1.9003 -0.475951 0
M  V30 3158 H 290.605 0.0435884 -0.745727 0
M  V30 3159 H 293.267 -0.597557 -1.85514 0
M  V30 3160 H 292.363 0.275489 -3.10882 0
M  V30 3161 N 292.664 1.56529 -0.183458 0
M  V30 3162 C 293.889 2.02064 0.467428 0
M  V30 3163 C 294.314 1.06282 1.55196 0
M  V30 3164 O 293.672 0.0443565 1.81246 0
M  V30 3165 C 293.72 3.46122 1.01153 0
M  V30 3166 O 292.824 3.53437 2.12499 0
M  V30 3167 H 292.165 0.654726 0.110588 0
M  V30 3168 H 294.695 2.02521 -0.290917 0
M  V30 3169 H 294.705 3.85676 1.33108 0
M  V30 3170 H 293.38 4.15331 0.217533 0
M  V30 3171 H 291.957 3.2575 1.81497 0
M  V30 3172 N 294.142 -0.090211 1.57342 0
M  V30 3173 C 295.367 -0.810082 1.90925 0
M  V30 3174 C 295.792 -1.71248 0.778187 0
M  V30 3175 O 295.15 -1.79278 -0.269991 0
M  V30 3176 C 295.198 -1.59529 3.23393 0
M  V30 3177 O 294.302 -2.70461 3.11327 0
M  V30 3178 H 293.643 -0.222231 0.625707 0
M  V30 3179 H 296.173 -0.0639716 2.045 0
M  V30 3180 H 296.183 -1.97847 3.5682 0
M  V30 3181 H 294.858 -0.933055 4.05299 0
M  V30 3182 H 293.435 -2.35135 2.89423 0
M  V30 3183 N 295.62 -1.53406 -0.361157 0
M  V30 3184 C 296.85 -1.73465 -1.1222 0
M  V30 3185 C 297.258 -0.465486 -1.83384 0
M  V30 3186 O 296.601 0.571611 -1.7458 0
M  V30 3187 C 296.663 -2.84834 -2.19339 0
M  V30 3188 C 296.327 -4.25038 -1.67903 0
M  V30 3189 C 297.324 -5.07231 -1.14074 0
M  V30 3190 C 295.009 -4.71464 -1.73282 0
M  V30 3191 C 297.003 -6.33942 -0.663068 0
M  V30 3192 C 294.69 -5.98153 -1.25127 0
M  V30 3193 C 295.688 -6.79223 -0.717296 0
M  V30 3194 O 295.376 -8.03533 -0.242865 0
M  V30 3195 H 295.108 -0.583526 -0.341283 0
M  V30 3196 H 297.662 -2.00964 -0.424591 0
M  V30 3197 H 295.892 -2.5282 -2.92607 0
M  V30 3198 H 297.581 -2.9303 -2.80871 0
M  V30 3199 H 298.347 -4.72534 -1.09254 0
M  V30 3200 H 294.226 -4.08432 -2.13786 0
M  V30 3201 H 297.77 -6.97167 -0.245612 0
M  V30 3202 H 293.667 -6.32347 -1.29642 0
M  V30 3203 H 294.435 -8.177 -0.361786 0
M  V30 3204 N 297.098 0.621204 -1.44841 0
M  V30 3205 C 298.344 1.3826 -1.48365 0
M  V30 3206 C 298.677 1.93831 -0.119624 0
M  V30 3207 O 297.952 1.74251 0.864111 0
M  V30 3208 C 298.235 2.54058 -2.55199 0
M  V30 3209 C 298.088 2.03772 -4.00995 0
M  V30 3210 C 299.407 3.56225 -2.58442 0
M  V30 3211 H 296.526 0.501374 -0.540179 0
M  V30 3212 H 299.168 0.7015 -1.76576 0
M  V30 3213 H 297.318 3.12162 -2.31274 0
M  V30 3214 H 298.99 1.50423 -4.36086 0
M  V30 3215 H 297.233 1.34876 -4.12299 0
M  V30 3216 H 297.904 2.87185 -4.71411 0
M  V30 3217 H 300.38 3.07939 -2.79844 0
M  V30 3218 H 299.256 4.34756 -3.3508 0
M  V30 3219 H 299.517 4.10949 -1.63013 0
M  V30 3220 N 298.576 1.31904 0.862503 0
M  V30 3221 C 299.509 1.14514 1.97388 0
M  V30 3222 C 300.487 0.0466493 1.62533 0
M  V30 3223 O 301.671 0.204484 1.87388 0
M  V30 3224 C 298.798 0.751347 3.30261 0
M  V30 3225 C 297.844 1.85395 3.84098 0
M  V30 3226 S 298.677 3.46081 4.08642 0
M  V30 3227 C 299.833 3.08655 5.44502 0
M  V30 3228 H 300.066 2.08597 2.11836 0
M  V30 3229 H 297.599 1.16475 1.01356 0
M  V30 3230 H 299.557 0.530901 4.07052 0
M  V30 3231 H 298.218 -0.170493 3.13637 0
M  V30 3232 H 297.411 1.53122 4.80177 0
M  V30 3233 H 297.013 2.02984 3.14123 0
M  V30 3234 H 299.305 2.58012 6.26447 0
M  V30 3235 H 300.248 4.03726 5.81731 0
M  V30 3236 H 300.656 2.45891 5.08132 0
M  V30 3237 N 300.054 -1.07777 1.14986 0
M  V30 3238 C 301.3 -1.80719 0.93339 0
M  V30 3239 C 301.655 -1.8484 -0.534019 0
M  V30 3240 O 300.948 -1.31795 -1.3907 0
M  V30 3241 C 301.142 -3.25495 1.47608 0
M  V30 3242 C 300.971 -3.3548 2.99472 0
M  V30 3243 C 299.741 -3.46293 3.6798 0
M  V30 3244 C 301.939 -3.26596 3.97291 0
M  V30 3245 N 299.921 -3.45136 5.07695 0
M  V30 3246 C 301.292 -3.32506 5.23297 0
M  V30 3247 C 303.347 -3.10376 3.89321 0
M  V30 3248 C 302.05 -3.23866 6.42264 0
M  V30 3249 C 304.076 -3.03069 5.07842 0
M  V30 3250 C 303.438 -3.09587 6.32721 0
M  V30 3251 H 299.537 -0.674814 0.395158 0
M  V30 3252 H 302.121 -1.28681 1.46114 0
M  V30 3253 H 300.292 -3.75963 0.975022 0
M  V30 3254 H 302.024 -3.86535 1.19887 0
M  V30 3255 H 298.779 -3.50456 3.18555 0
M  V30 3256 H 299.203 -3.48097 5.80653 0
M  V30 3257 H 303.845 -3.04194 2.93642 0
M  V30 3258 H 301.563 -3.28807 7.38181 0
M  V30 3259 H 305.149 -2.91629 5.03432 0
M  V30 3260 H 304.029 -3.0397 7.22891 0
M  V30 3261 N 301.532 -0.945985 -1.26051 0
M  V30 3262 C 302.442 -0.465633 -2.29933 0
M  V30 3263 C 303.458 0.462761 -1.67733 0
M  V30 3264 O 304.634 0.341118 -1.9849 0
M  V30 3265 C 301.699 0.256994 -3.45746 0
M  V30 3266 C 300.76 -0.708549 -4.23412 0
M  V30 3267 C 299.993 -0.0203135 -5.33696 0
M  V30 3268 O 300.216 1.19571 -5.57726 0
M  V30 3269 O 299.15 -0.701459 -5.97799 0
M  V30 3270 H 302.976 -1.32866 -2.73094 0
M  V30 3271 H 300.561 -0.712071 -1.31339 0
M  V30 3272 H 302.443 0.663852 -4.16138 0
M  V30 3273 H 301.118 1.09533 -3.04605 0
M  V30 3274 H 300.025 -1.16545 -3.55483 0
M  V30 3275 H 301.358 -1.51465 -4.68315 0
M  V30 3276 N 303.011 1.40521 -0.713556 0
M  V30 3277 C 303.944 2.28198 -0.00881422 0
M  V30 3278 C 304.922 1.43227 0.769735 0
M  V30 3279 O 306.106 1.72641 0.756799 0
M  V30 3280 C 303.233 3.23758 0.994899 0
M  V30 3281 C 302.279 4.25391 0.3074 0
M  V30 3282 S 303.112 5.26765 -0.963247 0
M  V30 3283 C 304.268 6.25888 0.0384143 0
M  V30 3284 H 304.501 2.87622 -0.752407 0
M  V30 3285 H 302.034 1.45925 -0.504502 0
M  V30 3286 H 303.992 3.79341 1.56879 0
M  V30 3287 H 302.653 2.63396 1.71118 0
M  V30 3288 H 301.846 4.92596 1.0661 0
M  V30 3289 H 301.448 3.73497 -0.193879 0
M  V30 3290 H 303.74 6.71683 0.885912 0
M  V30 3291 H 304.683 7.05552 -0.60019 0
M  V30 3292 H 305.091 5.63072 0.401233 0
M  V30 3293 N 304.489 0.459591 1.5075 0
M  V30 3294 C 305.717 -0.0973749 2.06671 0
M  V30 3295 C 306.132 -1.34524 1.32472 0
M  V30 3296 O 305.489 -1.7827 0.390634 0
M  V30 3297 C 305.54 -0.39714 3.59312 0
M  V30 3298 O 305.261 0.801214 4.30711 0
M  V30 3299 C 306.762 -1.00234 4.31819 0
M  V30 3300 H 303.982 0.00195854 0.670997 0
M  V30 3301 H 306.526 0.645072 1.94059 0
M  V30 3302 H 304.681 -1.08951 3.71764 0
M  V30 3303 H 305.095 0.538857 5.21725 0
M  V30 3304 H 306.569 -1.16193 5.39632 0
M  V30 3305 H 307.046 -1.98939 3.91561 0
M  V30 3306 H 307.652 -0.348699 4.23868 0
M  V30 3307 N 305.967 -1.56429 0.191757 0
M  V30 3308 C 307.195 -2.01867 -0.453586 0
M  V30 3309 C 307.61 -1.07191 -1.5542 0
M  V30 3310 O 306.967 -0.0762108 -1.82341 0
M  V30 3311 C 307.018 -3.47017 -1.013 0
M  V30 3312 O 306.739 -4.38078 0.0437005 0
M  V30 3313 C 308.24 -4.07956 -1.73456 0
M  V30 3314 H 305.46 -0.661211 -0.114199 0
M  V30 3315 H 308.004 -2.02295 0.299483 0
M  V30 3316 H 306.159 -3.47298 -1.71647 0
M  V30 3317 H 306.573 -5.23178 -0.372212 0
M  V30 3318 H 308.047 -5.1138 -2.07833 0
M  V30 3319 H 308.524 -3.51222 -2.63704 0
M  V30 3320 H 309.13 -4.11437 -1.07702 0
M  V30 3321 N 307.445 0.0818655 -1.57387 0
M  V30 3322 C 308.377 1.12484 -1.997 0
M  V30 3323 C 309.39 1.35564 -0.90146 0
M  V30 3324 O 310.579 1.33982 -1.17945 0
M  V30 3325 C 307.679 2.47778 -2.31213 0
M  V30 3326 C 306.852 2.44793 -3.62485 0
M  V30 3327 C 305.911 3.62117 -3.81782 0
M  V30 3328 O 304.937 3.44005 -4.53486 0
M  V30 3329 N 306.139 4.82094 -3.23367 0
M  V30 3330 H 308.904 0.764585 -2.89783 0
M  V30 3331 H 306.465 0.270664 -1.59621 0
M  V30 3332 H 308.457 3.24891 -2.41304 0
M  V30 3333 H 307.027 2.75843 -1.4707 0
M  V30 3334 H 306.247 1.53134 -3.6324 0
M  V30 3335 H 307.535 2.39889 -4.48699 0
M  V30 3336 H 306.933 4.99713 -2.65148 0
M  V30 3337 H 305.49 5.56753 -3.38923 0
M  V30 3338 N 308.923 1.53595 0.353017 0
M  V30 3339 C 310.169 1.70638 1.09593 0
M  V30 3340 C 310.502 0.463286 1.88593 0
M  V30 3341 O 309.777 -0.539597 1.86865 0
M  V30 3342 C 310.06 2.96406 2.04489 0
M  V30 3343 C 309.913 4.30901 1.29014 0
M  V30 3344 C 311.232 3.17812 3.0444 0
M  V30 3345 H 308.351 0.620913 0.397034 0
M  V30 3346 H 310.993 1.86254 0.375446 0
M  V30 3347 H 309.143 2.83223 2.65927 0
M  V30 3348 H 310.815 4.55917 0.702638 0
M  V30 3349 H 309.058 4.29741 0.592071 0
M  V30 3350 H 309.729 5.1506 1.98537 0
M  V30 3351 H 312.205 3.30263 2.53112 0
M  V30 3352 H 311.081 4.07223 3.6805 0
M  V30 3353 H 311.342 2.33669 3.75301 0
M  V30 3354 N 310.401 -0.613514 1.45168 0
M  V30 3355 C 311.626 -1.40437 1.52618 0
M  V30 3356 C 312.051 -1.87438 0.157707 0
M  V30 3357 O 311.409 -1.59791 -0.856537 0
M  V30 3358 C 311.457 -2.58894 2.51011 0
M  V30 3359 O 310.561 -3.59326 2.02382 0
M  V30 3360 H 309.902 -0.419506 0.514695 0
M  V30 3361 H 312.432 -0.747215 1.90467 0
M  V30 3362 H 312.442 -3.06214 2.69624 0
M  V30 3363 H 311.117 -2.24032 3.50403 0
M  V30 3364 H 309.694 -3.18695 1.93618 0
M  V30 3365 N 311.879 -1.3236 -0.855495 0
M  V30 3366 C 312.829 -1.17809 -1.95205 0
M  V30 3367 C 313.813 -0.0852319 -1.60674 0
M  V30 3368 O 315.005 -0.311651 -1.74235 0
M  V30 3369 C 312.134 -0.902437 -3.31226 0
M  V30 3370 C 311.22 -2.03695 -3.7198 0
M  V30 3371 N 311.611 -3.28544 -3.84568 0
M  V30 3372 C 309.909 -1.93993 -4.016 0
M  V30 3373 C 310.61 -4.02847 -4.19629 0
M  V30 3374 N 309.586 -3.31138 -4.31102 0
M  V30 3375 H 313.388 -2.12462 -2.0307 0
M  V30 3376 H 310.902 -1.24127 -1.0472 0
M  V30 3377 H 312.899 -0.77915 -4.09554 0
M  V30 3378 H 311.559 0.0357267 -3.2468 0
M  V30 3379 H 312.57 -3.6349 -3.68911 0
M  V30 3380 H 309.247 -1.07733 -4.03361 0
M  V30 3381 H 310.637 -5.10506 -4.36845 0
M  V30 3382 N 313.357 1.07166 -1.15556 0
M  V30 3383 C 314.587 1.83248 -0.954133 0
M  V30 3384 C 314.995 1.82449 0.500911 0
M  V30 3385 O 314.338 1.23575 1.35923 0
M  V30 3386 C 314.4 3.31393 -1.39351 0
M  V30 3387 C 314.064 3.5591 -2.86666 0
M  V30 3388 C 315.061 3.49695 -3.8472 0
M  V30 3389 C 312.746 3.83515 -3.24379 0
M  V30 3390 C 314.74 3.70737 -5.18491 0
M  V30 3391 C 312.427 4.04209 -4.58321 0
M  V30 3392 C 313.425 3.97815 -5.55186 0
M  V30 3393 O 313.113 4.17954 -6.86709 0
M  V30 3394 H 312.845 0.584941 -0.338851 0
M  V30 3395 H 315.399 1.36169 -1.53777 0
M  V30 3396 H 313.629 3.79292 -0.75329 0
M  V30 3397 H 315.318 3.88945 -1.16089 0
M  V30 3398 H 316.084 3.28368 -3.56931 0
M  V30 3399 H 311.963 3.87605 -2.49567 0
M  V30 3400 H 315.507 3.65663 -5.94085 0
M  V30 3401 H 311.404 4.25023 -4.85825 0
M  V30 3402 H 312.172 4.35291 -6.93155 0
M  V30 3403 N 314.835 0.952656 1.25548 0
M  V30 3404 C 316.065 0.622592 1.96996 0
M  V30 3405 C 316.473 -0.809112 1.71026 0
M  V30 3406 O 315.816 -1.55258 0.981861 0
M  V30 3407 C 315.878 0.798946 3.5051 0
M  V30 3408 C 315.542 2.20744 4.00151 0
M  V30 3409 C 316.539 3.18394 4.11001 0
M  V30 3410 C 314.224 2.5311 4.33867 0
M  V30 3411 C 316.218 4.46504 4.54877 0
M  V30 3412 C 313.905 3.8145 4.7743 0
M  V30 3413 C 314.903 4.77959 4.87897 0
M  V30 3414 O 314.591 6.04012 5.30494 0
M  V30 3415 H 314.323 0.232503 0.634758 0
M  V30 3416 H 316.877 1.2789 1.60728 0
M  V30 3417 H 315.107 0.0854903 3.86605 0
M  V30 3418 H 316.796 0.47023 4.03167 0
M  V30 3419 H 317.562 2.94715 3.85186 0
M  V30 3420 H 313.441 1.78719 4.24948 0
M  V30 3421 H 316.985 5.21835 4.62962 0
M  V30 3422 H 312.882 4.04936 5.0269 0
M  V30 3423 H 313.65 6.0736 5.48685 0
M  V30 3424 N 316.313 -1.40141 0.720998 0
M  V30 3425 C 317.243 -2.33339 0.0867621 0
M  V30 3426 C 318.224 -1.53178 -0.739622 0
M  V30 3427 O 319.409 -1.81625 -0.687449 0
M  V30 3428 C 316.539 -3.37194 -0.831728 0
M  V30 3429 C 315.493 -4.27857 -0.110558 0
M  V30 3430 C 314.819 -5.22294 -1.14513 0
M  V30 3431 C 316.119 -5.11872 1.0385 0
M  V30 3432 H 317.813 -2.86626 0.865219 0
M  V30 3433 H 315.359 -1.37814 0.417516 0
M  V30 3434 H 317.312 -4.01335 -1.28485 0
M  V30 3435 H 316.036 -2.82314 -1.64214 0
M  V30 3436 H 314.695 -3.65176 0.322797 0
M  V30 3437 H 314.343 -4.63717 -1.94874 0
M  V30 3438 H 314.043 -5.83797 -0.667446 0
M  V30 3439 H 315.567 -5.89312 -1.59824 0
M  V30 3440 H 316.981 -5.69436 0.664482 0
M  V30 3441 H 315.378 -5.82445 1.4449 0
M  V30 3442 H 316.448 -4.4753 1.86668 0
M  V30 3443 N 317.792 -0.46758 -1.50504 0
M  V30 3444 C 318.755 0.317059 -2.26996 0
M  V30 3445 C 319.755 0.923513 -1.31635 0
M  V30 3446 O 320.945 0.793239 -1.55091 0
M  V30 3447 C 318.077 1.45134 -3.08462 0
M  V30 3448 H 319.27 -0.353723 -2.97807 0
M  V30 3449 H 316.823 -0.221545 -1.54722 0
M  V30 3450 H 317.558 2.15728 -2.4214 0
M  V30 3451 H 317.343 1.02232 -3.78538 0
M  V30 3452 H 318.833 2.00493 -3.66323 0
M  V30 3453 N 319.27 1.56325 -0.20005 0
M  V30 3454 C 320.202 2.16555 0.750771 0
M  V30 3455 C 321.215 1.12871 1.1732 0
M  V30 3456 O 322.404 1.39943 1.10807 0
M  V30 3457 C 319.504 2.71684 2.02586 0
M  V30 3458 C 318.677 4.00321 1.76244 0
M  V30 3459 C 317.736 4.40227 2.88248 0
M  V30 3460 O 316.762 5.07552 2.57642 0
M  V30 3461 N 317.964 4.04138 4.16717 0
M  V30 3462 H 320.729 2.98772 0.235685 0
M  V30 3463 H 318.29 1.6189 -0.0182594 0
M  V30 3464 H 320.282 2.95363 2.76664 0
M  V30 3465 H 318.852 1.93893 2.45202 0
M  V30 3466 H 318.072 3.84723 0.85919 0
M  V30 3467 H 319.36 4.84279 1.56048 0
M  V30 3468 H 318.758 3.49993 4.44434 0
M  V30 3469 H 317.315 4.32756 4.87407 0
M  V30 3470 N 320.748 -0.0735177 1.57428 0
M  V30 3471 C 321.678 -1.0879 2.06608 0
M  V30 3472 C 322.659 -1.40473 0.959237 0
M  V30 3473 O 323.844 -1.5013 1.23185 0
M  V30 3474 C 320.974 -2.40183 2.50857 0
M  V30 3475 C 319.928 -2.22858 3.65402 0
M  V30 3476 C 319.254 -3.59619 3.957 0
M  V30 3477 C 320.554 -1.65123 4.95511 0
M  V30 3478 H 322.248 -0.678673 2.91607 0
M  V30 3479 H 319.794 -0.325013 1.40284 0
M  V30 3480 H 321.747 -3.11437 2.83874 0
M  V30 3481 H 320.471 -2.83083 1.62885 0
M  V30 3482 H 319.13 -1.54045 3.32664 0
M  V30 3483 H 318.778 -4.00086 3.04861 0
M  V30 3484 H 318.478 -3.48866 4.72828 0
M  V30 3485 H 320.002 -4.32306 4.31212 0
M  V30 3486 H 321.416 -2.26241 5.26771 0
M  V30 3487 H 319.813 -1.65071 5.7695 0
M  V30 3488 H 320.883 -0.612559 4.81015 0
M  V30 3489 N 322.226 -1.5378 -0.344866 0
M  V30 3490 C 323.454 -1.74899 -1.10534 0
M  V30 3491 C 323.869 -0.487534 -1.82397 0
M  V30 3492 O 323.226 0.540741 -1.74305 0
M  V30 3493 C 323.277 -2.92822 -2.11984 0
M  V30 3494 O 322.998 -4.14089 -1.43044 0
M  V30 3495 C 324.499 -3.25982 -3.00417 0
M  V30 3496 H 321.719 -0.584426 -0.329678 0
M  V30 3497 H 324.263 -2.006 -0.397474 0
M  V30 3498 H 322.418 -2.69457 -2.78338 0
M  V30 3499 H 322.832 -4.80272 -2.10805 0
M  V30 3500 H 324.306 -4.11848 -3.67539 0
M  V30 3501 H 324.783 -2.42228 -3.66363 0
M  V30 3502 H 325.389 -3.51349 -2.39654 0
M  V30 3503 N 323.704 0.605807 -1.45491 0
M  V30 3504 C 324.929 1.39625 -1.53361 0
M  V30 3505 C 325.354 1.87351 -0.167645 0
M  V30 3506 O 324.712 1.60243 0.848051 0
M  V30 3507 C 324.76 2.57559 -2.5238 0
M  V30 3508 O 323.864 3.58248 -2.04285 0
M  V30 3509 H 323.205 0.416771 -0.516912 0
M  V30 3510 H 325.735 0.737103 -1.90861 0
M  V30 3511 H 325.745 3.0478 -2.71244 0
M  V30 3512 H 324.42 2.22171 -3.51586 0
M  V30 3513 H 322.997 3.17664 -1.95305 0
M  V30 3514 N 325.182 1.32811 0.848464 0
M  V30 3515 C 326.428 1.23907 1.60546 0
M  V30 3516 C 326.761 -0.197161 1.93197 0
M  V30 3517 O 326.036 -1.13596 1.5788 0
M  V30 3518 C 326.319 2.10489 2.92175 0
M  V30 3519 C 326.172 3.62522 2.66266 0
M  V30 3520 C 327.491 1.97075 3.93509 0
M  V30 3521 H 324.61 0.451459 0.58254 0
M  V30 3522 H 327.252 1.62818 0.979296 0
M  V30 3523 H 325.402 1.77434 3.45614 0
M  V30 3524 H 327.074 4.05821 2.19334 0
M  V30 3525 H 325.317 3.84879 2.00126 0
M  V30 3526 H 325.988 4.18437 3.6002 0
M  V30 3527 H 328.464 2.26045 3.49346 0
M  V30 3528 H 327.34 2.59923 4.83457 0
M  V30 3529 H 327.601 0.940186 4.31987 0
M  V30 3530 N 326.66 -1.06551 1.16123 0
M  V30 3531 C 328.076 -1.3142 0.905585 0
M  V30 3532 C 328.276 -1.96571 -0.442964 0
M  V30 3533 O 327.332 -2.23068 -1.18308 0
M  V30 3534 C 328.645 -2.19741 2.05267 0
M  V30 3535 C 330.193 -2.33165 2.08813 0
M  V30 3536 C 330.668 -3.24838 3.22868 0
M  V30 3537 N 332.159 -3.32421 3.22568 0
M  V30 3538 C 332.894 -4.0344 4.0746 0
M  V30 3539 N 332.39 -4.77003 5.02434 0
M  V30 3540 N 334.183 -3.99464 3.95456 0
M  V30 3541 H 326.334 -0.626548 2.02949 0
M  V30 3542 H 328.597 -0.338777 0.8854 0
M  V30 3543 H 328.303 -1.79142 3.02657 0
M  V30 3544 H 328.177 -3.20313 1.99198 0
M  V30 3545 H 330.564 -2.73013 1.12018 0
M  V30 3546 H 330.645 -1.3227 2.18948 0
M  V30 3547 H 330.289 -2.85708 4.19921 0
M  V30 3548 H 330.219 -4.25707 3.0997 0
M  V30 3549 H 332.71 -2.79994 2.53795 0
M  V30 3550 H 333.023 -5.28712 5.63634 0
M  V30 3551 H 331.368 -4.75992 5.06415 0
M  V30 3552 H 334.559 -3.4111 3.20564 0
M  V30 3553 H 334.732 -4.54544 4.61837 0
M  V30 3554 N 328.138 -0.959301 -1.25041 0
M  V30 3555 C 329.07 -0.440543 -2.24926 0
M  V30 3556 C 330.083 0.446131 -1.56568 0
M  V30 3557 O 331.272 0.253657 -1.76689 0
M  V30 3558 C 328.372 0.38412 -3.36716 0
M  V30 3559 C 327.545 -0.490658 -4.34639 0
M  V30 3560 C 326.604 0.276587 -5.25473 0
M  V30 3561 O 325.63 -0.326614 -5.68262 0
M  V30 3562 N 326.832 1.56844 -5.5891 0
M  V30 3563 H 329.597 -1.29931 -2.70071 0
M  V30 3564 H 327.158 -0.830181 -1.38995 0
M  V30 3565 H 329.15 0.905228 -3.94446 0
M  V30 3566 H 327.72 1.14377 -2.90924 0
M  V30 3567 H 326.94 -1.19282 -3.7572 0
M  V30 3568 H 328.228 -1.08756 -4.97041 0
M  V30 3569 H 327.626 2.08036 -5.26059 0
M  V30 3570 H 326.183 2.03541 -6.19205 0
M  V30 3571 N 329.616 1.39756 -0.72842 0
M  V30 3572 C 330.862 2.01425 -0.282761 0
M  V30 3573 C 331.217 1.56754 1.11561 0
M  V30 3574 O 330.51 0.783482 1.74849 0
M  V30 3575 C 330.704 3.56002 -0.315776 0
M  V30 3576 C 330.533 4.1568 -1.71582 0
M  V30 3577 C 329.303 4.48555 -2.32651 0
M  V30 3578 C 331.501 4.39667 -2.66829 0
M  V30 3579 N 329.483 4.93698 -3.64877 0
M  V30 3580 C 330.854 4.86942 -3.8378 0
M  V30 3581 C 332.909 4.21724 -2.64675 0
M  V30 3582 C 331.612 5.18158 -4.98904 0
M  V30 3583 C 333.638 4.54049 -3.78937 0
M  V30 3584 C 333 5.01525 -4.94623 0
M  V30 3585 H 329.099 0.76756 -0.149583 0
M  V30 3586 H 331.683 1.69784 -0.952976 0
M  V30 3587 H 329.854 3.87046 0.324057 0
M  V30 3588 H 331.586 4.0443 0.147808 0
M  V30 3589 H 328.341 4.36128 -1.84633 0
M  V30 3590 H 328.765 5.20635 -4.32744 0
M  V30 3591 H 333.407 3.84228 -1.76433 0
M  V30 3592 H 331.125 5.54562 -5.87781 0
M  V30 3593 H 334.711 4.41795 -3.78561 0
M  V30 3594 H 333.591 5.26065 -5.81572 0
M  V30 3595 N 331.094 0.475555 1.50254 0
M  V30 3596 C 332.041 -0.316293 2.28622 0
M  V30 3597 C 333.011 -0.983227 1.33873 0
M  V30 3598 O 334.196 -0.994805 1.62814 0
M  V30 3599 C 331.336 -1.38975 3.1588 0
M  V30 3600 C 330.449 -0.737146 4.25664 0
M  V30 3601 C 329.584 -1.78887 5.00173 0
M  V30 3602 C 328.623 -1.11676 6.01826 0
M  V30 3603 N 327.76 -2.11154 6.69596 0
M  V30 3604 H 332.6 0.358297 2.95838 0
M  V30 3605 H 330.137 0.188541 1.45887 0
M  V30 3606 H 332.095 -2.02383 3.64825 0
M  V30 3607 H 330.725 -2.03344 2.50701 0
M  V30 3608 H 329.777 0.0096065 3.80399 0
M  V30 3609 H 331.089 -0.206816 4.98371 0
M  V30 3610 H 330.243 -2.49865 5.52859 0
M  V30 3611 H 328.982 -2.35302 4.27182 0
M  V30 3612 H 327.987 -0.392633 5.48396 0
M  V30 3613 H 329.212 -0.55945 6.76792 0
M  V30 3614 H 327.158 -2.66577 5.99394 0
M  V30 3615 H 327.075 -1.63118 7.38193 0
M  V30 3616 H 328.343 -2.81497 7.26897 0
M  V30 3617 N 332.573 -1.56217 0.208337 0
M  V30 3618 C 333.801 -2.02337 -0.43215 0
M  V30 3619 C 334.216 -1.08834 -1.54275 0
M  V30 3620 O 333.573 -0.0955462 -1.8225 0
M  V30 3621 C 333.624 -3.48072 -0.976138 0
M  V30 3622 O 333.345 -4.38007 0.0901621 0
M  V30 3623 C 334.846 -4.09773 -1.69119 0
M  V30 3624 H 332.066 -0.662385 -0.10718 0
M  V30 3625 H 334.61 -2.01966 0.320923 0
M  V30 3626 H 332.765 -3.49099 -1.67954 0
M  V30 3627 H 333.179 -5.23543 -0.316701 0
M  V30 3628 H 334.653 -5.13556 -2.02397 0
M  V30 3629 H 335.13 -3.53999 -2.59964 0
M  V30 3630 H 335.736 -4.12556 -1.03332 0
M  V30 3631 N 334.051 0.0651679 -1.57465 0
M  V30 3632 C 334.999 1.09542 -2.05191 0
M  V30 3633 C 335.993 1.39675 -0.958509 0
M  V30 3634 O 337.199 1.39003 -1.14359 0
M  V30 3635 H 333.574 0.370623 -0.654326 0
M  V30 3636 H 335.545 0.666802 -2.90854 0
M  V30 3637 C 334.294 2.39881 -2.51699 0
M  V30 3638 H 333.617 2.17547 -3.3543 0
M  V30 3639 H 335.057 3.104 -2.88839 0
M  V30 3640 C 333.516 3.0631 -1.40271 0
M  V30 3641 O 334.046 3.94664 -0.748523 0
M  V30 3642 N 332.252 2.67041 -1.14618 0
M  V30 3643 H 331.799 1.95281 -1.67997 0
M  V30 3644 H 331.757 3.1181 -0.402688 0
M  V30 3645 N 335.529 1.53961 0.336706 0
M  V30 3646 C 336.806 1.62171 1.09361 0
M  V30 3647 C 337.186 0.447263 2.06307 0
M  V30 3648 O 336.534 -0.559802 2.21537 0
M  V30 3649 C 336.744 2.98565 1.80721 0
M  V30 3650 C 338.092 3.54157 2.34218 0
M  V30 3651 O 339.116 3.00784 1.90807 0
M  V30 3652 O 337.975 4.47528 3.13657 0
M  V30 3653 H 335.069 0.6562 0.503319 0
M  V30 3654 H 337.615 1.66307 0.33765 0
M  V30 3655 H 336.387 3.75482 1.10132 0
M  V30 3656 H 336.01 2.9805 2.63158 0
M  V30 3657 N 337.007 -0.598083 1.45811 0
M  V30 3658 C 338.284 -1.35777 1.40797 0
M  V30 3659 C 338.664 -2.10935 0.083462 0
M  V30 3660 O 338.012 -2.08505 -0.934763 0
M  V30 3661 C 338.222 -2.29666 2.62783 0
M  V30 3662 C 339.57 -2.91977 3.08277 0
M  V30 3663 O 340.594 -2.39984 2.63223 0
M  V30 3664 O 339.453 -3.86376 3.86491 0
M  V30 3665 H 336.547 -0.609291 0.55919 0
M  V30 3666 H 339.093 -0.620379 1.57954 0
M  V30 3667 H 337.865 -1.73454 3.50756 0
M  V30 3668 H 337.488 -3.1077 2.48008 0
M  V30 3669 N 338.485 -1.33259 -0.841409 0
M  V30 3670 C 339.713 -1.27605 -1.62864 0
M  V30 3671 C 340.128 0.153507 -1.88175 0
M  V30 3672 O 339.485 1.09485 -1.46011 0
M  V30 3673 C 339.536 -2.04596 -2.98031 0
M  V30 3674 O 339.257 -3.41975 -2.73834 0
M  V30 3675 C 340.758 -2.06122 -3.92465 0
M  V30 3676 H 337.978 -0.439718 -0.506842 0
M  V30 3677 H 340.522 -1.75591 -1.04824 0
M  V30 3678 H 338.677 -1.60299 -3.5268 0
M  V30 3679 H 339.091 -3.81549 -3.59889 0
M  V30 3680 H 340.565 -2.64451 -4.84531 0
M  V30 3681 H 341.042 -1.05083 -4.26444 0
M  V30 3682 H 341.648 -2.50427 -3.43753 0
M  V30 3683 N 339.963 1.05934 -1.16686 0
M  V30 3684 C 341.212 1.78188 -0.945085 0
M  V30 3685 C 341.525 1.88338 0.528021 0
M  V30 3686 O 342.731 2.57258 0.867799 0
M  V30 3687 C 341.187 3.20277 -1.64167 0
M  V30 3688 C 340.795 3.18281 -3.15279 0
M  V30 3689 C 342.539 3.97039 -1.502 0
M  V30 3690 C 340.446 4.55112 -3.7766 0
M  V30 3691 H 339.376 0.667866 -0.349959 0
M  V30 3692 H 342.027 1.18794 -1.39858 0
M  V30 3693 H 340.409 3.79952 -1.11589 0
M  V30 3694 H 341.583 2.68167 -3.74731 0
M  V30 3695 H 339.898 2.55018 -3.29173 0
M  V30 3696 H 342.495 4.98194 -1.94183 0
M  V30 3697 H 342.838 4.13845 -0.451461 0
M  V30 3698 H 343.371 3.43894 -1.99954 0
M  V30 3699 H 340.11 4.43512 -4.82677 0
M  V30 3700 H 339.63 5.05406 -3.22994 0
M  V30 3701 H 341.309 5.24064 -3.79428 0
M  V30 3702 N 341.441 0.965919 1.2453 0
M  V30 3703 C 342.718 0.543777 1.87889 0
M  V30 3704 C 343.098 -0.97909 1.87021 0
M  V30 3705 O 342.446 -1.84969 1.3416 0
M  V30 3706 C 342.656 1.13327 3.30088 0
M  V30 3707 C 344.004 1.21707 4.06783 0
M  V30 3708 O 345.028 1.08566 3.39252 0
M  V30 3709 O 343.887 1.42456 5.27606 0
M  V30 3710 H 340.981 0.181054 0.806938 0
M  V30 3711 H 343.527 1.06007 1.32516 0
M  V30 3712 H 342.299 2.17612 3.25209 0
M  V30 3713 H 341.922 0.600911 3.93033 0
M  V30 3714 N 342.919 -1.39368 0.735821 0
M  V30 3715 C 344.166 -2.00497 0.284123 0
M  V30 3716 C 344.494 -1.58387 -1.12889 0
M  V30 3717 O 343.749 -0.804359 -1.78406 0
M  V30 3718 C 344.048 -3.5583 0.334651 0
M  V30 3719 C 343.714 -4.17593 1.7008 0
M  V30 3720 C 342.376 -4.34176 2.07472 0
M  V30 3721 C 344.728 -4.51848 2.59775 0
M  V30 3722 C 342.056 -4.82304 3.34065 0
M  V30 3723 C 344.408 -5.01384 3.85741 0
M  V30 3724 C 343.072 -5.16175 4.23225 0
M  V30 3725 H 342.342 -0.73367 0.103968 0
M  V30 3726 H 344.989 -1.66683 0.942825 0
M  V30 3727 H 343.294 -3.89674 -0.407625 0
M  V30 3728 H 344.991 -4.00986 -0.0329927 0
M  V30 3729 H 341.581 -4.05087 1.40008 0
M  V30 3730 H 345.765 -4.38653 2.32157 0
M  V30 3731 H 341.021 -4.91941 3.63049 0
M  V30 3732 H 345.195 -5.26863 4.55399 0
M  V30 3733 H 342.822 -5.5323 5.21384 0
M  V30 3734 N 344.397 -0.483516 -1.5 0
M  V30 3735 C 345.674 0.129337 -1.95172 0
M  V30 3736 C 346.054 1.55802 -1.4244 0
M  V30 3737 O 345.402 2.19625 -0.630649 0
M  V30 3738 C 345.612 0.0599251 -3.48949 0
M  V30 3739 C 346.96 0.242617 -4.23906 0
M  V30 3740 O 347.984 0.135933 -3.55941 0
M  V30 3741 O 346.843 0.459454 -5.44565 0
M  V30 3742 H 343.937 0.104887 -0.820322 0
M  V30 3743 H 346.483 -0.544807 -1.60717 0
M  V30 3744 H 345.255 -0.937079 -3.79914 0
M  V30 3745 H 344.878 0.774984 -3.89974 0
M  V30 3746 N 345.875 1.56104 -0.216619 0
M  V30 3747 C 347.105 2.02269 0.420802 0
M  V30 3748 C 347.513 1.09575 1.5424 0
M  V30 3749 O 346.856 0.0967308 1.83445 0
M  V30 3750 C 346.918 3.44784 1.01806 0
M  V30 3751 C 346.582 4.56988 0.0325154 0
M  V30 3752 C 347.579 5.14225 -0.766055 0
M  V30 3753 C 345.264 5.02228 -0.0848092 0
M  V30 3754 C 347.258 6.15169 -1.6687 0
M  V30 3755 C 344.945 6.03011 -0.990994 0
M  V30 3756 C 345.943 6.59357 -1.78149 0
M  V30 3757 O 345.631 7.58179 -2.67245 0
M  V30 3758 H 345.363 0.667353 0.107776 0
M  V30 3759 H 347.917 2.02747 -0.329034 0
M  V30 3760 H 346.147 3.41359 1.81689 0
M  V30 3761 H 347.836 3.74626 1.56237 0
M  V30 3762 H 348.602 4.80126 -0.685836 0
M  V30 3763 H 344.481 4.58054 0.520349 0
M  V30 3764 H 348.025 6.59076 -2.28615 0
M  V30 3765 H 343.922 6.36532 -1.07225 0
M  V30 3766 H 344.69 7.75682 -2.61265 0
M  V30 3767 N 347.353 -0.0568162 1.57498 0
M  V30 3768 C 348.581 -0.765626 1.92213 0
M  V30 3769 C 348.996 -1.70353 0.813961 0
M  V30 3770 O 348.353 -1.81268 -0.211701 0
M  V30 3771 C 348.404 -1.5465 3.2675 0
M  V30 3772 O 348.125 -0.646278 4.33307 0
M  V30 3773 C 349.626 -2.35497 3.75574 0
M  V30 3774 H 346.846 -0.216835 0.634999 0
M  V30 3775 H 349.39 -0.0226146 2.04487 0
M  V30 3776 H 347.545 -2.24165 3.15957 0
M  V30 3777 H 347.959 -1.19093 5.108 0
M  V30 3778 H 349.433 -2.85722 4.72299 0
M  V30 3779 H 349.91 -3.15692 3.05344 0
M  V30 3780 H 350.516 -1.7111 3.8936 0
M  V30 3781 N 348.832 -1.54138 -0.328536 0
M  V30 3782 C 350.078 -1.7236 -1.06865 0
M  V30 3783 C 350.411 -0.493231 -1.87832 0
M  V30 3784 O 349.686 0.5098 -1.877 0
M  V30 3785 C 349.969 -2.99621 -1.99747 0
M  V30 3786 C 349.822 -4.32899 -1.22143 0
M  V30 3787 C 351.141 -3.22615 -2.99345 0
M  V30 3788 H 348.26 -0.627151 -0.387105 0
M  V30 3789 H 350.902 -1.86827 -0.345767 0
M  V30 3790 H 349.052 -2.87418 -2.61387 0
M  V30 3791 H 350.724 -4.56978 -0.630017 0
M  V30 3792 H 348.967 -4.30628 -0.523628 0
M  V30 3793 H 349.638 -5.18154 -1.90318 0
M  V30 3794 H 352.114 -3.34248 -2.47826 0
M  V30 3795 H 350.99 -4.13027 -3.61524 0
M  V30 3796 H 351.251 -2.3961 -3.71536 0
M  V30 3797 N 350.31 0.590341 -1.46126 0
M  V30 3798 C 351.24 1.71032 -1.58966 0
M  V30 3799 C 352.221 1.64302 -0.440335 0
M  V30 3800 O 353.406 1.82436 -0.665634 0
M  V30 3801 C 350.536 3.09665 -1.57241 0
M  V30 3802 C 349.49 3.31221 -2.71066 0
M  V30 3803 C 348.816 4.70303 -2.54399 0
M  V30 3804 C 350.116 3.19796 -4.1295 0
M  V30 3805 H 351.81 1.60543 -2.52718 0
M  V30 3806 H 349.356 0.770933 -1.21625 0
M  V30 3807 H 351.309 3.87831 -1.64819 0
M  V30 3808 H 350.033 3.21036 -0.600289 0
M  V30 3809 H 348.692 2.55452 -2.62944 0
M  V30 3810 H 348.34 4.78429 -1.55288 0
M  V30 3811 H 348.04 4.85679 -3.30741 0
M  V30 3812 H 349.564 5.50647 -2.63857 0
M  V30 3813 H 350.978 3.87815 -4.22223 0
M  V30 3814 H 349.375 3.46696 -4.89818 0
M  V30 3815 H 350.445 2.16983 -4.33643 0
M  V30 3816 N 351.788 1.33704 0.83433 0
M  V30 3817 C 352.718 1.26967 1.95963 0
M  V30 3818 C 353.699 0.149337 1.69443 0
M  V30 3819 O 354.884 0.339852 1.91203 0
M  V30 3820 C 352.014 1.01275 3.32206 0
M  V30 3821 C 350.968 2.09652 3.73136 0
M  V30 3822 C 350.294 1.69166 5.07235 0
M  V30 3823 C 351.594 3.51372 3.86439 0
M  V30 3824 H 353.288 2.2112 2.01857 0
M  V30 3825 H 350.834 1.06447 0.969793 0
M  V30 3826 H 352.787 0.952106 4.10503 0
M  V30 3827 H 351.511 0.0356203 3.26581 0
M  V30 3828 H 350.17 2.14766 2.97104 0
M  V30 3829 H 349.818 0.701437 4.98085 0
M  V30 3830 H 349.518 2.41694 5.35591 0
M  V30 3831 H 351.042 1.64576 5.88003 0
M  V30 3832 H 352.456 3.48734 4.55036 0
M  V30 3833 H 350.853 4.22425 4.26236 0
M  V30 3834 H 351.923 3.89546 2.88759 0
M  V30 3835 N 353.266 -1.05314 1.17247 0
M  V30 3836 C 354.216 -2.11313 0.856196 0
M  V30 3837 C 355.2 -1.60013 -0.168694 0
M  V30 3838 O 356.392 -1.76968 0.0335624 0
M  V30 3839 C 353.521 -3.41301 0.369917 0
M  V30 3840 C 352.607 -3.99401 1.42616 0
M  V30 3841 N 352.998 -4.31481 2.63928 0
M  V30 3842 C 351.296 -4.27126 1.28373 0
M  V30 3843 C 351.997 -4.77799 3.31787 0
M  V30 3844 N 350.973 -4.77843 2.59166 0
M  V30 3845 H 354.775 -2.33976 1.77856 0
M  V30 3846 H 352.289 -1.2295 1.06099 0
M  V30 3847 H 354.286 -4.16713 0.124897 0
M  V30 3848 H 352.946 -3.20072 -0.546253 0
M  V30 3849 H 353.957 -4.21519 3.00902 0
M  V30 3850 H 350.634 -4.15289 0.429111 0
M  V30 3851 H 352.024 -5.11743 4.35395 0
M  V30 3852 N 354.744 -0.972509 -1.24016 0
M  V30 3853 C 355.654 -0.5143 -2.28893 0
M  V30 3854 C 356.67 0.427078 -1.68677 0
M  V30 3855 O 357.846 0.298939 -1.99169 0
M  V30 3856 C 354.911 0.183598 -3.46214 0
M  V30 3857 C 353.972 -0.798202 -4.21814 0
M  V30 3858 C 353.205 -0.133514 -5.33533 0
M  V30 3859 O 353.428 1.07714 -5.60137 0
M  V30 3860 O 352.362 -0.828103 -5.96176 0
M  V30 3861 H 356.188 -1.38629 -2.70214 0
M  V30 3862 H 353.773 -0.739769 -1.29799 0
M  V30 3863 H 355.655 0.575433 -4.17453 0
M  V30 3864 H 354.33 1.03048 -3.0686 0
M  V30 3865 H 353.237 -1.24059 -3.52931 0
M  V30 3866 H 354.57 -1.61364 -4.64997 0
M  V30 3867 N 356.222 1.38976 -0.743202 0
M  V30 3868 C 357.152 2.33171 -0.123873 0
M  V30 3869 C 358.133 1.54336 0.71516 0
M  V30 3870 O 359.318 1.82696 0.658467 0
M  V30 3871 C 356.448 3.38474 0.777978 0
M  V30 3872 C 355.402 4.27979 0.0424758 0
M  V30 3873 C 354.728 5.2405 1.06189 0
M  V30 3874 C 356.028 5.10155 -1.1198 0
M  V30 3875 H 357.722 2.85213 -0.910709 0
M  V30 3876 H 355.268 1.37133 -0.439388 0
M  V30 3877 H 357.221 4.03328 1.22084 0
M  V30 3878 H 355.945 2.84891 1.59702 0
M  V30 3879 H 354.604 3.64616 -0.380853 0
M  V30 3880 H 354.252 4.66758 1.87472 0
M  V30 3881 H 353.952 5.84785 0.574485 0
M  V30 3882 H 355.476 5.9178 1.50428 0
M  V30 3883 H 356.89 5.68307 -0.75499 0
M  V30 3884 H 355.287 5.80073 -1.53738 0
M  V30 3885 H 356.357 4.44504 -1.93764 0
M  V30 3886 N 357.7 0.491464 1.49741 0
M  V30 3887 C 358.925 -0.0557177 2.07325 0
M  V30 3888 C 359.35 -1.30925 1.35056 0
M  V30 3889 O 358.708 -1.76733 0.404365 0
M  V30 3890 C 358.756 -0.302074 3.59333 0
M  V30 3891 O 357.86 -1.37868 3.88672 0
M  V30 3892 H 357.201 0.0219956 0.663636 0
M  V30 3893 H 359.731 0.688352 1.92673 0
M  V30 3894 H 359.741 -0.536464 4.04458 0
M  V30 3895 H 358.416 0.61383 4.11345 0
M  V30 3896 H 356.993 -1.12999 3.55367 0
M  V30 3897 N 359.178 -1.55987 0.224894 0
M  V30 3898 C 360.406 -2.02784 -0.410665 0
M  V30 3899 C 360.821 -1.10464 -1.53112 0
M  V30 3900 O 360.178 -0.114871 -1.82138 0
M  V30 3901 C 360.229 -3.49087 -0.939165 0
M  V30 3902 O 359.95 -4.37887 0.136614 0
M  V30 3903 C 361.451 -4.11543 -1.64763 0
M  V30 3904 H 358.671 -0.663484 -0.100148 0
M  V30 3905 H 361.215 -2.01614 0.342326 0
M  V30 3906 H 359.37 -3.50861 -1.64242 0
M  V30 3907 H 359.784 -5.23849 -0.261155 0
M  V30 3908 H 361.258 -5.15673 -1.96939 0
M  V30 3909 H 361.735 -3.56736 -2.56195 0
M  V30 3910 H 362.341 -4.13629 -0.989503 0
M  V30 3911 N 360.656 0.0484629 -1.57525 0
M  V30 3912 C 361.588 1.08222 -2.02041 0
M  V30 3913 C 362.601 1.33621 -0.930012 0
M  V30 3914 O 363.79 1.3145 -1.20761 0
M  V30 3915 C 360.89 2.42818 -2.36416 0
M  V30 3916 C 360.063 2.37049 -3.67596 0
M  V30 3917 C 359.122 3.53937 -3.89378 0
M  V30 3918 O 358.148 3.34308 -4.60681 0
M  V30 3919 N 359.35 4.75126 -3.3352 0
M  V30 3920 H 362.115 0.702946 -2.9134 0
M  V30 3921 H 359.676 0.236745 -1.6016 0
M  V30 3922 H 361.668 3.197 -2.48141 0
M  V30 3923 H 360.238 2.72661 -1.52888 0
M  V30 3924 H 359.458 1.45395 -3.66407 0
M  V30 3925 H 360.746 2.30318 -4.53686 0
M  V30 3926 H 360.144 4.93976 -2.75688 0
M  V30 3927 H 358.701 5.49439 -3.50656 0
M  V30 3928 N 362.134 1.5431 0.320358 0
M  V30 3929 C 363.044 1.86946 1.41734 0
M  V30 3930 C 364.06 0.761689 1.56443 0
M  V30 3931 O 365.236 1.05629 1.71477 0
M  V30 3932 C 362.301 2.09293 2.76401 0
M  V30 3933 C 361.362 3.33082 2.70841 0
M  V30 3934 C 360.595 3.54353 3.99086 0
M  V30 3935 O 360.818 2.79002 4.97508 0
M  V30 3936 O 359.752 4.47838 4.0215 0
M  V30 3937 H 363.578 2.80232 1.17062 0
M  V30 3938 H 361.163 1.40255 0.514673 0
M  V30 3939 H 363.045 2.25303 3.56113 0
M  V30 3940 H 361.72 1.19194 3.00956 0
M  V30 3941 H 360.627 3.22454 1.89668 0
M  V30 3942 H 361.96 4.23249 2.5124 0
M  V30 3943 N 363.613 -0.582584 1.46437 0
M  V30 3944 C 364.862 -1.337 1.5102 0
M  V30 3945 C 365.175 -1.94891 0.166359 0
M  V30 3946 O 366.381 -2.71351 0.0899954 0
M  V30 3947 C 364.837 -2.42315 2.66104 0
M  V30 3948 C 364.445 -1.87427 4.06909 0
M  V30 3949 C 366.189 -3.19099 2.79958 0
M  V30 3950 C 364.096 -2.93672 5.13333 0
M  V30 3951 H 363.026 -0.502619 0.562041 0
M  V30 3952 H 365.677 -0.621701 1.72647 0
M  V30 3953 H 364.059 -3.16645 2.37807 0
M  V30 3954 H 365.233 -1.19639 4.44998 0
M  V30 3955 H 363.548 -1.2331 3.97723 0
M  V30 3956 H 366.145 -3.9839 3.56636 0
M  V30 3957 H 366.488 -3.71695 1.87479 0
M  V30 3958 H 367.021 -2.51875 3.07902 0
M  V30 3959 H 363.76 -2.45962 6.07604 0
M  V30 3960 H 363.28 -3.59948 4.79789 0
M  V30 3961 H 364.959 -3.5762 5.39182 0
M  V30 3962 N 365.091 -1.34144 -0.827227 0
M  V30 3963 C 366.34 -1.25602 -1.5782 0
M  V30 3964 C 366.653 0.173445 -1.94829 0
M  V30 3965 O 367.859 0.380984 -2.68814 0
M  V30 3966 C 366.315 -2.20151 -2.84713 0
M  V30 3967 C 365.923 -3.68331 -2.55021 0
M  V30 3968 C 367.667 -2.20508 -3.62735 0
M  V30 3969 C 365.574 -4.54762 -3.78082 0
M  V30 3970 H 364.504 -0.466573 -0.592306 0
M  V30 3971 H 367.155 -1.59283 -0.911116 0
M  V30 3972 H 365.537 -1.79417 -3.53023 0
M  V30 3973 H 366.711 -4.17577 -1.94849 0
M  V30 3974 H 365.026 -3.7038 -1.90283 0
M  V30 3975 H 367.623 -2.82306 -4.54101 0
M  V30 3976 H 367.966 -1.20322 -3.98533 0
M  V30 3977 H 368.499 -2.59664 -3.01362 0
M  V30 3978 H 365.238 -5.55867 -3.47407 0
M  V30 3979 H 364.758 -4.10254 -4.37552 0
M  V30 3980 H 366.437 -4.69153 -4.45538 0
M  V30 3981 N 366.569 1.04691 -1.17803 0
M  V30 3982 C 367.98 1.59238 -0.974689 0
M  V30 3983 C 368.331 1.90306 0.477292 0
M  V30 3984 O 367.456 1.68846 1.35352 0
M  V30 3985 C 368.051 2.89318 -1.76296 0
M  V30 3986 C 366.61 3.40506 -1.60414 0
M  V30 3987 C 365.757 2.14172 -1.76141 0
M  V30 3988 H 368.708 0.874395 -1.32439 0
M  V30 3989 H 368.729 3.5944 -1.24833 0
M  V30 3990 H 368.241 2.66675 -2.81968 0
M  V30 3991 H 366.342 3.68175 -0.572519 0
M  V30 3992 H 366.455 4.14753 -2.39827 0
M  V30 3993 H 364.819 2.25176 -1.19028 0
M  V30 3994 H 365.602 1.93992 -2.83235 0
M  V30 3995 N 368.047 0.979072 1.23499 0
M  V30 3996 C 369.287 0.655228 1.93613 0
M  V30 3997 C 369.651 -0.796336 1.74707 0
M  V30 3998 O 370.852 -1.23094 2.38959 0
M  V30 3999 C 369.123 1.03337 3.42135 0
M  V30 4000 S 370.682 0.825793 4.3096 0
M  V30 4001 H 367.5 0.240004 0.669267 0
M  V30 4002 H 370.102 1.25843 1.49612 0
M  V30 4003 H 368.806 2.08646 3.53405 0
M  V30 4004 H 368.337 0.421397 3.91137 0
M  V30 4005 H 370.352 -0.290991 4.95346 0
M  V30 4006 N 369.525 -1.3858 0.750561 0
M  V30 4007 C 370.941 -1.53759 0.427824 0
M  V30 4008 C 371.141 -1.71401 -1.05943 0
M  V30 4009 O 370.197 -1.72331 -1.84549 0
M  V30 4010 C 371.51 -2.74642 1.22443 0
M  V30 4011 C 373.058 -2.88489 1.2142 0
M  V30 4012 C 373.533 -4.12329 1.9937 0
M  V30 4013 N 375.024 -4.194 1.96616 0
M  V30 4014 C 375.759 -5.14209 2.53727 0
M  V30 4015 N 375.255 -6.14709 3.19539 0
M  V30 4016 N 377.048 -5.06537 2.43673 0
M  V30 4017 H 369.199 -1.25377 1.71447 0
M  V30 4018 H 371.462 -0.608844 0.726645 0
M  V30 4019 H 371.168 -2.68 2.27747 0
M  V30 4020 H 371.042 -3.67745 0.839273 0
M  V30 4021 H 373.429 -2.94614 0.169232 0
M  V30 4022 H 373.51 -1.96406 1.63885 0
M  V30 4023 H 373.154 -4.06966 3.03877 0
M  V30 4024 H 373.084 -5.03486 1.54302 0
M  V30 4025 H 375.575 -3.47421 1.48684 0
M  V30 4026 H 375.888 -6.8354 3.60545 0
M  V30 4027 H 374.233 -6.1505 3.23633 0
M  V30 4028 H 377.424 -4.26962 1.91889 0
M  V30 4029 H 377.597 -5.80245 2.88479 0
M  V30 4030 N 371.003 -0.499398 -1.49478 0
M  V30 4031 C 372.252 0.0475259 -2.01644 0
M  V30 4032 C 372.565 1.38195 -1.38425 0
M  V30 4033 O 373.771 2.01547 -1.8191 0
M  V30 4034 C 372.227 0.135164 -3.59646 0
M  V30 4035 C 371.835 -1.19252 -4.31837 0
M  V30 4036 C 373.579 0.632538 -4.19761 0
M  V30 4037 C 371.486 -1.06713 -5.81693 0
M  V30 4038 H 370.416 0.0215349 -0.753692 0
M  V30 4039 H 373.067 -0.638577 -1.7203 0
M  V30 4040 H 371.449 0.885681 -3.85969 0
M  V30 4041 H 372.623 -1.9562 -4.17216 0
M  V30 4042 H 370.938 -1.62321 -3.83459 0
M  V30 4043 H 373.535 0.743833 -5.29501 0
M  V30 4044 H 373.878 1.63098 -3.83021 0
M  V30 4045 H 374.411 -0.0613987 -3.97753 0
M  V30 4046 H 371.15 -2.03979 -6.22955 0
M  V30 4047 H 370.67 -0.344307 -5.98811 0
M  V30 4048 H 372.349 -0.745208 -6.42694 0
M  V30 4049 N 372.481 1.55866 -0.233164 0
M  V30 4050 C 373.431 2.17442 0.685774 0
M  V30 4051 C 374.415 1.12617 1.14918 0
M  V30 4052 O 375.607 1.3857 1.10124 0
M  V30 4053 C 372.736 2.86685 1.88856 0
M  V30 4054 C 371.822 3.98749 1.4443 0
M  V30 4055 N 372.213 5.00744 0.713364 0
M  V30 4056 C 370.511 4.11052 1.73068 0
M  V30 4057 C 371.212 5.79673 0.485205 0
M  V30 4058 N 370.188 5.33454 1.04536 0
M  V30 4059 H 373.99 2.93659 0.119022 0
M  V30 4060 H 371.504 1.62362 -0.0348995 0
M  V30 4061 H 373.501 3.29218 2.55776 0
M  V30 4062 H 372.161 2.11967 2.45967 0
M  V30 4063 H 373.172 5.16613 0.364861 0
M  V30 4064 H 369.849 3.47495 2.31416 0
M  V30 4065 H 371.239 6.71829 -0.097365 0
M  V30 4066 N 373.959 -0.0401083 1.57549 0
M  V30 4067 C 374.889 -1.04384 2.08869 0
M  V30 4068 C 375.87 -1.38407 0.988817 0
M  V30 4069 O 377.055 -1.47483 1.26342 0
M  V30 4070 C 374.185 -2.34808 2.55895 0
M  V30 4071 C 373.139 -2.15057 3.70047 0
M  V30 4072 C 372.465 -3.51145 4.03239 0
M  V30 4073 C 373.765 -1.54576 4.98902 0
M  V30 4074 H 375.459 -0.616666 2.92981 0
M  V30 4075 H 373.005 -0.295184 1.40942 0
M  V30 4076 H 374.958 -3.05346 2.90417 0
M  V30 4077 H 373.682 -2.79565 1.68853 0
M  V30 4078 H 372.341 -1.46954 3.35857 0
M  V30 4079 H 371.989 -3.93529 3.13279 0
M  V30 4080 H 371.689 -3.38758 4.80122 0
M  V30 4081 H 373.213 -4.23062 4.40285 0
M  V30 4082 H 374.627 -2.15017 5.31451 0
M  V30 4083 H 373.024 -1.52796 5.80322 0
M  V30 4084 H 374.094 -0.51039 4.82206 0
M  V30 4085 N 375.437 -1.54477 -0.31217 0
M  V30 4086 C 376.683 -1.73483 -1.0503 0
M  V30 4087 C 377.016 -0.513125 -1.87298 0
M  V30 4088 O 376.291 0.489864 -1.8823 0
M  V30 4089 C 376.574 -3.01723 -1.96558 0
M  V30 4090 C 376.427 -4.3417 -1.17545 0
M  V30 4091 C 377.746 -3.25772 -2.95907 0
M  V30 4092 H 374.865 -0.631222 -0.380432 0
M  V30 4093 H 377.507 -1.87184 -0.325932 0
M  V30 4094 H 375.657 -2.90174 -2.58324 0
M  V30 4095 H 377.329 -4.5762 -0.581513 0
M  V30 4096 H 375.572 -4.31159 -0.477925 0
M  V30 4097 H 376.243 -5.20143 -1.84811 0
M  V30 4098 H 378.719 -3.36857 -2.44267 0
M  V30 4099 H 377.595 -4.16838 -3.57123 0
M  V30 4100 H 377.856 -2.43537 -3.68974 0
M  V30 4101 N 376.915 0.57481 -1.46744 0
M  V30 4102 C 378.161 1.33251 -1.53674 0
M  V30 4103 C 378.516 1.91468 -0.189125 0
M  V30 4104 O 377.809 1.73954 0.803151 0
M  V30 4105 C 378.003 2.476 -2.57738 0
M  V30 4106 C 377.832 2.00586 -4.02487 0
M  V30 4107 C 376.602 1.85237 -4.70123 0
M  V30 4108 C 378.8 1.56078 -4.90045 0
M  V30 4109 N 376.782 1.32377 -5.99458 0
M  V30 4110 C 378.153 1.14863 -6.09267 0
M  V30 4111 C 380.208 1.43968 -4.76632 0
M  V30 4112 C 378.911 0.627435 -7.16558 0
M  V30 4113 C 380.937 0.932512 -5.84002 0
M  V30 4114 C 380.299 0.53019 -7.02402 0
M  V30 4115 H 376.398 0.480284 -0.617131 0
M  V30 4116 H 378.982 0.653592 -1.83402 0
M  V30 4117 H 377.153 3.13045 -2.29907 0
M  V30 4118 H 378.885 3.14567 -2.54616 0
M  V30 4119 H 375.64 2.07423 -4.25761 0
M  V30 4120 H 376.064 1.08085 -6.68316 0
M  V30 4121 H 380.706 1.73689 -3.85476 0
M  V30 4122 H 378.424 0.317821 -8.07475 0
M  V30 4123 H 382.01 0.842611 -5.75666 0
M  V30 4124 H 380.89 0.14381 -7.84068 0
M  V30 4125 N 378.394 1.34581 0.820102 0
M  V30 4126 C 379.624 1.29991 1.6058 0
M  V30 4127 C 380.032 -0.127588 1.88769 0
M  V30 4128 O 379.375 -1.08595 1.48165 0
M  V30 4129 C 379.437 2.02548 2.9701 0
M  V30 4130 C 379.101 3.51794 2.91701 0
M  V30 4131 C 380.098 4.46647 2.66087 0
M  V30 4132 C 377.783 3.94249 3.11245 0
M  V30 4133 C 379.777 5.81929 2.60071 0
M  V30 4134 C 377.464 5.2963 3.04853 0
M  V30 4135 C 378.462 6.23282 2.793 0
M  V30 4136 O 378.15 7.56181 2.72847 0
M  V30 4137 H 377.882 0.448539 0.505756 0
M  V30 4138 H 380.436 1.77811 1.02822 0
M  V30 4139 H 378.666 1.49345 3.56697 0
M  V30 4140 H 380.355 1.91211 3.58041 0
M  V30 4141 H 381.121 4.15168 2.5072 0
M  V30 4142 H 377 3.21749 3.30149 0
M  V30 4143 H 380.544 6.54999 2.40046 0
M  V30 4144 H 376.441 5.60727 3.19774 0
M  V30 4145 H 377.209 7.6595 2.88553 0
M  V30 4146 N 379.872 -1.04064 1.18357 0
M  V30 4147 C 381.283 -1.58719 0.98312 0
M  V30 4148 C 381.634 -1.90556 -0.467193 0
M  V30 4149 O 380.759 -1.69561 -1.34454 0
M  V30 4150 C 381.354 -2.88379 1.77828 0
M  V30 4151 C 379.913 -3.3965 1.62218 0
M  V30 4152 C 379.06 -2.13235 1.77274 0
M  V30 4153 H 382.011 -0.867359 1.32901 0
M  V30 4154 H 382.032 -3.58773 1.26737 0
M  V30 4155 H 381.544 -2.65176 2.83379 0
M  V30 4156 H 379.645 -3.67866 0.592036 0
M  V30 4157 H 379.758 -4.13475 2.42023 0
M  V30 4158 H 378.122 -2.24542 1.20221 0
M  V30 4159 H 378.905 -1.92487 2.8426 0
M  V30 4160 N 381.35 -0.985608 -1.22978 0
M  V30 4161 C 382.598 -0.656087 -1.91154 0
M  V30 4162 C 382.919 0.813561 -1.77218 0
M  V30 4163 O 382.189 1.58244 -1.1548 0
M  V30 4164 H 380.769 -0.239674 -0.707506 0
M  V30 4165 H 383.431 -1.25054 -1.49491 0
M  V30 4166 H 382.527 -0.912253 -2.9847 0
M  V30 4167 N 382.828 1.3818 -0.7579 0
M  V30 4168 C 383.775 2.30416 -0.133057 0
M  V30 4169 C 384.745 1.50398 0.704957 0
M  V30 4170 O 385.93 1.79014 0.660192 0
M  V30 4171 C 383.07 3.36834 0.750813 0
M  V30 4172 C 382.183 4.31879 -0.102297 0
M  V30 4173 C 381.318 5.25368 0.784979 0
M  V30 4174 C 380.357 6.12058 -0.0715046 0
M  V30 4175 N 379.494 6.97832 0.772972 0
M  V30 4176 H 384.334 2.83274 -0.925186 0
M  V30 4177 H 381.871 1.39461 -0.467866 0
M  V30 4178 H 383.829 3.97145 1.27794 0
M  V30 4179 H 382.459 2.85374 1.50868 0
M  V30 4180 H 381.511 3.72991 -0.747095 0
M  V30 4181 H 382.823 4.92921 -0.763552 0
M  V30 4182 H 381.977 5.90818 1.37911 0
M  V30 4183 H 380.716 4.64703 1.47996 0
M  V30 4184 H 379.721 5.456 -0.678272 0
M  V30 4185 H 380.946 6.74793 -0.763606 0
M  V30 4186 H 378.892 6.3971 1.45282 0
M  V30 4187 H 378.809 7.55812 0.168709 0
M  V30 4188 H 380.077 7.67687 1.35194 0
M  V30 4189 N 384.306 0.507319 1.49211 0
M  V30 4190 C 385.717 0.0611118 1.866 0
M  V30 4191 C 386.068 -1.35488 1.41907 0
M  V30 4192 O 385.193 -2.0108 0.799726 0
M  V30 4193 C 385.788 0.104125 3.3864 0
M  V30 4194 C 384.347 -0.28677 3.75306 0
M  V30 4195 C 383.494 0.473893 2.73221 0
M  V30 4196 H 386.445 0.719775 1.41439 0
M  V30 4197 H 386.466 -0.689672 3.74198 0
M  V30 4198 H 385.978 1.13482 3.71138 0
M  V30 4199 H 384.079 -1.32046 3.48417 0
M  V30 4200 H 384.192 0.0370745 4.79086 0
M  V30 4201 H 382.556 -0.0770644 2.54583 0
M  V30 4202 H 383.339 1.50478 3.08563 0
M  V30 4203 N 385.784 -1.5574 0.241426 0
M  V30 4204 C 386.714 -2.24133 -0.654722 0
M  V30 4205 C 387.695 -1.21974 -1.1856 0
M  V30 4206 O 388.88 -1.50612 -1.22595 0
M  V30 4207 C 386.01 -2.93659 -1.85423 0
M  V30 4208 C 384.964 -4.0246 -1.45636 0
M  V30 4209 C 384.29 -4.59383 -2.73626 0
M  V30 4210 C 385.59 -5.18468 -0.631506 0
M  V30 4211 H 387.284 -2.99281 -0.0844353 0
M  V30 4212 H 384.83 -1.43947 -0.0391707 0
M  V30 4213 H 386.783 -3.40203 -2.48676 0
M  V30 4214 H 385.507 -2.15991 -2.44981 0
M  V30 4215 H 384.166 -3.56676 -0.847202 0
M  V30 4216 H 383.814 -3.78422 -3.3137 0
M  V30 4217 H 383.514 -5.32826 -2.4773 0
M  V30 4218 H 385.038 -5.08658 -3.37786 0
M  V30 4219 H 386.452 -5.61272 -1.1682 0
M  V30 4220 H 384.849 -5.98266 -0.468831 0
M  V30 4221 H 385.919 -4.8358 0.357506 0
M  V30 4222 N 387.262 0.0317525 -1.57568 0
M  V30 4223 C 388.209 1.0332 -2.06382 0
M  V30 4224 C 389.179 1.36082 -0.952414 0
M  V30 4225 O 390.364 1.46466 -1.2228 0
M  V30 4226 C 387.504 2.32989 -2.54578 0
M  V30 4227 C 386.617 2.0641 -3.79498 0
M  V30 4228 C 385.752 3.2993 -4.16317 0
M  V30 4229 C 384.791 2.98893 -5.34162 0
M  V30 4230 N 383.928 4.14857 -5.66426 0
M  V30 4231 H 388.768 0.609982 -2.9169 0
M  V30 4232 H 386.305 0.289573 -1.44222 0
M  V30 4233 H 388.263 3.0875 -2.80587 0
M  V30 4234 H 386.893 2.73039 -1.7219 0
M  V30 4235 H 385.945 1.21158 -3.6059 0
M  V30 4236 H 387.257 1.79513 -4.65378 0
M  V30 4237 H 386.411 4.1406 -4.4344 0
M  V30 4238 H 385.15 3.59938 -3.29083 0
M  V30 4239 H 384.155 2.13164 -5.06795 0
M  V30 4240 H 385.38 2.70165 -6.23047 0
M  V30 4241 H 383.326 4.44821 -4.82151 0
M  V30 4242 H 383.243 3.91374 -6.4681 0
M  V30 4243 H 384.511 4.99868 -5.98124 0
M  V30 4244 N 388.74 1.54641 0.303973 0
M  V30 4245 C 389.986 1.74038 1.04109 0
M  V30 4246 C 390.319 0.523051 1.87024 0
M  V30 4247 O 389.594 -0.479874 1.88487 0
M  V30 4248 C 389.877 3.02761 1.94955 0
M  V30 4249 C 389.73 4.34787 1.1524 0
M  V30 4250 C 391.049 3.27336 2.94175 0
M  V30 4251 H 388.168 0.63323 0.377079 0
M  V30 4252 H 390.81 1.87354 0.316001 0
M  V30 4253 H 388.96 2.9154 2.56782 0
M  V30 4254 H 390.632 4.57922 0.557236 0
M  V30 4255 H 388.875 4.31407 0.455053 0
M  V30 4256 H 389.546 5.21116 1.8205 0
M  V30 4257 H 392.022 3.38148 2.42477 0
M  V30 4258 H 390.898 4.18726 3.54908 0
M  V30 4259 H 391.159 2.45491 3.67677 0
M  V30 4260 N 390.218 -0.567019 1.47046 0
M  V30 4261 C 391.165 -1.67489 1.58796 0
M  V30 4262 C 392.135 -1.60399 0.43144 0
M  V30 4263 O 393.32 -1.79378 0.650233 0
M  V30 4264 C 390.46 -3.05821 1.59899 0
M  V30 4265 C 389.573 -3.2342 2.86397 0
M  V30 4266 C 388.708 -4.52093 2.789 0
M  V30 4267 C 387.747 -4.6309 4.00267 0
M  V30 4268 N 386.884 -5.83106 3.91064 0
M  V30 4269 H 391.724 -1.56785 2.53422 0
M  V30 4270 H 389.261 -0.763896 1.2571 0
M  V30 4271 H 391.219 -3.8591 1.58522 0
M  V30 4272 H 389.849 -3.15384 0.687929 0
M  V30 4273 H 388.901 -2.3683 2.97684 0
M  V30 4274 H 390.213 -3.27412 3.76301 0
M  V30 4275 H 389.367 -5.4043 2.75718 0
M  V30 4276 H 388.106 -4.50565 1.86662 0
M  V30 4277 H 387.111 -3.73168 4.03765 0
M  V30 4278 H 388.336 -4.66386 4.93621 0
M  V30 4279 H 386.282 -5.82546 3.01623 0
M  V30 4280 H 386.199 -5.88434 4.74638 0
M  V30 4281 H 387.467 -6.73831 3.91882 0
M  V30 4282 N 391.696 -1.35014 -0.812953 0
M  V30 4283 C 392.926 -1.30841 -1.59888 0
M  V30 4284 C 393.334 0.117576 -1.88834 0
M  V30 4285 O 392.677 1.07807 -1.48739 0
M  V30 4286 C 392.739 -2.0412 -2.95931 0
M  V30 4287 C 392.403 -3.53336 -2.89832 0
M  V30 4288 C 393.4 -4.48052 -2.63714 0
M  V30 4289 C 391.085 -3.95894 -3.0915 0
M  V30 4290 C 393.079 -5.833 -2.56982 0
M  V30 4291 C 390.766 -5.31239 -3.0204 0
M  V30 4292 C 391.764 -6.24754 -2.75991 0
M  V30 4293 O 391.452 -7.57617 -2.68833 0
M  V30 4294 H 391.184 -0.451215 -0.50337 0
M  V30 4295 H 393.738 -1.78354 -1.01877 0
M  V30 4296 H 391.968 -1.51235 -3.559 0
M  V30 4297 H 393.657 -1.93107 -3.57022 0
M  V30 4298 H 394.423 -4.16492 -2.48515 0
M  V30 4299 H 390.302 -3.23495 -3.28438 0
M  V30 4300 H 393.846 -6.56263 -2.36569 0
M  V30 4301 H 389.743 -5.62415 -3.16796 0
M  V30 4302 H 390.511 -7.67469 -2.84487 0
M  V30 4303 N 393.175 1.03435 -1.18907 0
M  V30 4304 C 394.125 2.09924 -0.889706 0
M  V30 4305 C 395.109 1.60261 0.143216 0
M  V30 4306 O 396.301 1.76892 -0.0617122 0
M  V30 4307 C 393.43 3.40669 -0.424168 0
M  V30 4308 C 392.516 3.97082 -1.48952 0
M  V30 4309 N 392.907 4.27227 -2.70759 0
M  V30 4310 C 391.205 4.25029 -1.35152 0
M  V30 4311 C 391.906 4.7246 -3.39347 0
M  V30 4312 N 390.882 4.7366 -2.66735 0
M  V30 4313 H 394.684 2.31116 -1.81555 0
M  V30 4314 H 392.198 1.21246 -1.08042 0
M  V30 4315 H 394.195 4.16461 -0.191176 0
M  V30 4316 H 392.855 3.20901 0.495263 0
M  V30 4317 H 393.866 4.16678 -3.0757 0
M  V30 4318 H 390.543 4.14554 -0.495126 0
M  V30 4319 H 391.933 5.04751 -4.43481 0
M  V30 4320 N 394.653 0.992116 1.22453 0
M  V30 4321 C 395.893 0.675727 1.92907 0
M  V30 4322 C 396.257 -0.777762 1.75542 0
M  V30 4323 O 397.458 -1.20553 2.40251 0
M  V30 4324 C 395.729 1.0696 3.4102 0
M  V30 4325 S 397.288 0.871456 4.30059 0
M  V30 4326 H 394.106 0.247089 0.666684 0
M  V30 4327 H 396.708 1.27423 1.48269 0
M  V30 4328 H 395.412 2.12383 3.51172 0
M  V30 4329 H 394.943 0.462858 3.90668 0
M  V30 4330 H 396.958 -0.238436 4.95627 0
M  V30 4331 N 396.131 -1.37776 0.765217 0
M  V30 4332 C 397.063 -2.28958 0.105361 0
M  V30 4333 C 398.076 -1.48316 -0.67128 0
M  V30 4334 O 399.265 -1.71046 -0.51045 0
M  V30 4335 C 396.365 -3.27421 -0.874569 0
M  V30 4336 C 395.538 -4.37132 -0.153123 0
M  V30 4337 C 394.597 -5.1571 -1.04547 0
M  V30 4338 O 393.623 -5.66896 -0.511672 0
M  V30 4339 N 394.825 -5.29808 -2.37243 0
M  V30 4340 H 397.59 -2.86227 0.888495 0
M  V30 4341 H 395.151 -1.49682 0.617 0
M  V30 4342 H 397.143 -3.7687 -1.47483 0
M  V30 4343 H 395.713 -2.70967 -1.55871 0
M  V30 4344 H 394.933 -3.89166 0.627975 0
M  V30 4345 H 396.221 -5.07625 0.345643 0
M  V30 4346 H 395.619 -4.89793 -2.83054 0
M  V30 4347 H 394.176 -5.82589 -2.9229 0
M  V30 4348 N 397.609 -0.515225 -1.4894 0
M  V30 4349 C 398.519 0.259774 -2.33157 0
M  V30 4350 C 399.535 0.953501 -1.45548 0
M  V30 4351 O 400.711 0.931735 -1.78552 0
M  V30 4352 C 397.776 1.30193 -3.21326 0
M  V30 4353 C 396.837 0.620129 -4.24797 0
M  V30 4354 C 396.07 1.61263 -5.08753 0
M  V30 4355 O 396.293 2.84389 -4.94448 0
M  V30 4356 O 395.227 1.16013 -5.90614 0
M  V30 4357 H 399.053 -0.429932 -3.00641 0
M  V30 4358 H 396.638 -0.276346 -1.46822 0
M  V30 4359 H 398.52 1.90455 -3.75905 0
M  V30 4360 H 397.195 1.97431 -2.56521 0
M  V30 4361 H 396.102 -0.0226019 -3.74093 0
M  V30 4362 H 397.435 -0.0100493 -4.92199 0
M  V30 4363 N 399.087 1.5561 -0.249682 0
M  V30 4364 C 400.017 2.24477 0.642826 0
M  V30 4365 C 400.998 1.22601 1.17911 0
M  V30 4366 O 402.183 1.5126 1.21795 0
M  V30 4367 C 399.313 2.94638 1.83863 0
M  V30 4368 C 398.267 4.03227 1.435 0
M  V30 4369 C 397.593 4.60828 2.71186 0
M  V30 4370 C 398.893 5.18796 0.604002 0
M  V30 4371 H 400.587 2.99321 0.0685625 0
M  V30 4372 H 398.133 1.43965 0.0315363 0
M  V30 4373 H 400.086 3.41517 2.46868 0
M  V30 4374 H 398.81 2.17287 2.43832 0
M  V30 4375 H 397.469 3.57121 0.828275 0
M  V30 4376 H 397.117 3.80174 3.29358 0
M  V30 4377 H 396.817 5.34132 2.44901 0
M  V30 4378 H 398.341 5.10442 3.35084 0
M  V30 4379 H 399.755 5.61883 1.13842 0
M  V30 4380 H 398.152 5.98506 0.437097 0
M  V30 4381 H 399.222 4.83384 -0.383147 0
M  V30 4382 N 400.565 -0.0233959 1.57583 0
M  V30 4383 C 401.497 -1.04994 2.03737 0
M  V30 4384 C 402.51 -1.32125 0.951152 0
M  V30 4385 O 403.699 -1.29512 1.22837 0
M  V30 4386 C 400.799 -2.39026 2.40249 0
M  V30 4387 C 399.972 -2.31171 3.7132 0
M  V30 4388 C 399.031 -3.47698 3.94959 0
M  V30 4389 O 398.057 -3.26937 4.65941 0
M  V30 4390 N 399.259 -4.6976 3.41037 0
M  V30 4391 H 402.024 -0.656507 2.92421 0
M  V30 4392 H 399.585 -0.211235 1.60516 0
M  V30 4393 H 401.577 -3.15712 2.53196 0
M  V30 4394 H 400.147 -2.70194 1.57207 0
M  V30 4395 H 399.367 -1.39547 3.68674 0
M  V30 4396 H 400.655 -2.23071 4.57293 0
M  V30 4397 H 400.053 -4.89528 2.83512 0
M  V30 4398 H 398.61 -5.43791 3.59353 0
M  V30 4399 N 402.043 -1.548 -0.295768 0
M  V30 4400 C 403.271 -1.78327 -1.04914 0
M  V30 4401 C 403.686 -0.545316 -1.80753 0
M  V30 4402 O 403.043 0.485013 -1.75937 0
M  V30 4403 C 403.094 -2.99418 -2.02561 0
M  V30 4404 O 402.815 -4.18431 -1.29798 0
M  V30 4405 C 404.316 -3.35375 -2.89895 0
M  V30 4406 H 401.536 -0.594618 -0.310918 0
M  V30 4407 H 404.08 -2.01763 -0.333454 0
M  V30 4408 H 402.235 -2.78175 -2.69624 0
M  V30 4409 H 402.649 -4.86736 -1.95419 0
M  V30 4410 H 404.123 -4.23332 -3.54251 0
M  V30 4411 H 404.6 -2.53761 -3.58472 0
M  V30 4412 H 405.206 -3.58796 -2.28355 0
M  V30 4413 N 403.521 0.559213 -1.47345 0
M  V30 4414 C 404.932 1.14134 -1.47751 0
M  V30 4415 C 405.283 1.94834 -0.231103 0
M  V30 4416 O 404.408 2.05957 0.664137 0
M  V30 4417 C 405.003 2.07653 -2.67705 0
M  V30 4418 C 403.562 2.61141 -2.71076 0
M  V30 4419 C 402.709 1.3748 -2.40821 0
M  V30 4420 H 405.66 0.345917 -1.54884 0
M  V30 4421 H 405.681 2.91497 -2.44561 0
M  V30 4422 H 405.193 1.4889 -3.58404 0
M  V30 4423 H 403.294 3.23707 -1.84511 0
M  V30 4424 H 403.407 3.02272 -3.7171 0
M  V30 4425 H 401.771 1.68086 -1.91362 0
M  V30 4426 H 402.554 0.805135 -3.33725 0
M  V30 4427 N 404.999 1.35443 0.805782 0
M  V30 4428 C 405.909 1.30546 1.94923 0
M  V30 4429 C 406.925 0.210233 1.72725 0
M  V30 4430 O 408.101 0.43975 1.9654 0
M  V30 4431 C 405.166 1.07782 3.29521 0
M  V30 4432 C 404.227 2.26625 3.64609 0
M  V30 4433 C 403.46 2.04938 4.92784 0
M  V30 4434 O 403.683 1.01624 5.61274 0
M  V30 4435 O 402.617 2.9232 5.26149 0
M  V30 4436 H 406.443 2.26779 2.02002 0
M  V30 4437 H 404.028 1.15823 0.943682 0
M  V30 4438 H 405.91 0.969392 4.10098 0
M  V30 4439 H 404.585 0.146003 3.23371 0
M  V30 4440 H 403.492 2.43033 2.84404 0
M  V30 4441 H 404.825 3.18257 3.75464 0
M  V30 4442 N 406.477 -1.02803 1.19454 0
M  V30 4443 C 407.387 -2.14575 0.948408 0
M  V30 4444 C 408.403 -1.73757 -0.091871 0
M  V30 4445 O 409.579 -2.01185 0.0929654 0
M  V30 4446 C 406.644 -3.43202 0.491265 0
M  V30 4447 C 405.705 -3.98328 1.60103 0
M  V30 4448 C 404.938 -5.20816 1.16561 0
M  V30 4449 O 405.161 -5.70392 0.0295238 0
M  V30 4450 O 404.095 -5.68801 1.96849 0
M  V30 4451 H 407.921 -2.38202 1.88397 0
M  V30 4452 H 405.506 -1.12989 0.977433 0
M  V30 4453 H 407.388 -4.20687 0.245015 0
M  V30 4454 H 406.063 -3.21018 -0.415851 0
M  V30 4455 H 404.97 -3.22174 1.90144 0
M  V30 4456 H 406.303 -4.24879 2.48473 0
M  V30 4457 N 407.956 -0.998596 -1.21925 0
M  V30 4458 C 408.919 -0.558679 -2.22287 0
M  V30 4459 C 409.919 0.361525 -1.56683 0
M  V30 4460 O 411.109 0.152695 -1.73529 0
M  V30 4461 C 408.241 0.18661 -3.40389 0
M  V30 4462 H 409.434 -1.4463 -2.62721 0
M  V30 4463 H 406.987 -0.786413 -1.35075 0
M  V30 4464 H 407.722 1.08996 -3.05435 0
M  V30 4465 H 407.507 -0.474188 -3.89222 0
M  V30 4466 H 408.997 0.482367 -4.14805 0
M  V30 4467 N 409.434 1.37368 -0.772513 0
M  V30 4468 C 410.659 2.0447 -0.347386 0
M  V30 4469 C 411.084 1.57882 1.0225 0
M  V30 4470 O 410.442 0.73941 1.65537 0
M  V30 4471 C 410.49 3.58369 -0.400479 0
M  V30 4472 O 409.594 4.0803 0.598789 0
M  V30 4473 H 408.935 0.646773 -0.15027 0
M  V30 4474 H 411.465 1.75667 -1.04892 0
M  V30 4475 H 411.475 4.07183 -0.258045 0
M  V30 4476 H 410.15 3.91633 -1.39986 0
M  V30 4477 H 408.727 3.70534 0.419411 0
M  V30 4478 N 410.912 0.523116 1.48665 0
M  V30 4479 C 412.16 -0.0134497 2.02096 0
M  V30 4480 C 412.481 -1.35418 1.40311 0
M  V30 4481 O 411.751 -1.87543 0.566074 0
M  V30 4482 H 410.331 -0.00795915 0.746958 0
M  V30 4483 H 412.993 0.685388 1.82451 0
M  V30 4484 H 412.089 -0.126849 3.11842 0
M  V30 4485 N 412.39 -1.55475 0.257931 0
M  V30 4486 C 413.618 -2.03609 -0.367559 0
M  V30 4487 C 414.033 -1.13687 -1.50734 0
M  V30 4488 O 413.39 -0.153479 -1.81853 0
M  V30 4489 C 413.441 -3.51001 -0.864908 0
M  V30 4490 O 413.162 -4.37499 0.229465 0
M  V30 4491 C 414.663 -4.14946 -1.55997 0
M  V30 4492 H 411.883 -0.665459 -0.0860521 0
M  V30 4493 H 414.427 -2.00843 0.385014 0
M  V30 4494 H 412.582 -3.54266 -1.56762 0
M  V30 4495 H 412.996 -5.24286 -0.14998 0
M  V30 4496 H 414.47 -5.19735 -1.85956 0
M  V30 4497 H 414.947 -3.6209 -2.4857 0
M  V30 4498 H 415.553 -4.15635 -0.901543 0
M  V30 4499 N 413.868 0.0150385 -1.57593 0
M  V30 4500 C 414.778 1.02791 -2.10882 0
M  V30 4501 C 415.794 1.38702 -1.0506 0
M  V30 4502 O 416.97 1.47739 -1.36877 0
M  V30 4503 C 414.035 2.30568 -2.58919 0
M  V30 4504 C 413.096 2.01108 -3.79281 0
M  V30 4505 C 412.329 3.22794 -4.25018 0
M  V30 4506 O 412.552 4.33959 -3.70183 0
M  V30 4507 O 411.486 3.07672 -5.17322 0
M  V30 4508 H 415.312 0.604973 -2.97613 0
M  V30 4509 H 412.897 0.23292 -1.47573 0
M  V30 4510 H 414.779 3.05662 -2.90084 0
M  V30 4511 H 413.454 2.72129 -1.75293 0
M  V30 4512 H 412.361 1.23537 -3.53114 0
M  V30 4513 H 413.694 1.64394 -4.63935 0
M  V30 4514 N 415.346 1.54954 0.287554 0
M  V30 4515 C 416.256 1.8991 1.37736 0
M  V30 4516 C 417.272 0.794701 1.54792 0
M  V30 4517 O 418.448 1.09243 1.69198 0
M  V30 4518 C 415.513 2.15108 2.71899 0
M  V30 4519 C 414.574 3.38752 2.63715 0
M  V30 4520 C 413.807 3.62739 3.91479 0
M  V30 4521 O 414.03 2.89492 4.91478 0
M  V30 4522 O 412.964 4.56267 3.92561 0
M  V30 4523 H 416.79 2.82652 1.11092 0
M  V30 4524 H 414.375 1.41315 0.484807 0
M  V30 4525 H 416.257 2.32806 3.51254 0
M  V30 4526 H 414.932 1.25551 2.9836 0
M  V30 4527 H 413.839 3.26405 1.82786 0
M  V30 4528 H 415.172 4.28483 2.42205 0
M  V30 4529 N 416.824 -0.551391 1.4764 0
M  V30 4530 C 418.072 -1.30572 1.54258 0
M  V30 4531 C 418.393 -1.93877 0.208963 0
M  V30 4532 O 417.663 -1.80234 -0.767619 0
M  V30 4533 H 416.243 -0.484894 0.568231 0
M  V30 4534 H 418.905 -0.643402 1.83974 0
M  V30 4535 H 418.001 -2.09621 2.31226 0
M  V30 4536 N 418.302 -1.35869 -0.798587 0
M  V30 4537 C 419.527 -1.32883 -1.59238 0
M  V30 4538 C 419.952 0.0894587 -1.87887 0
M  V30 4539 O 419.31 1.05869 -1.47178 0
M  V30 4540 C 419.358 -2.14892 -2.89575 0
M  V30 4541 O 418.462 -1.53512 -3.82763 0
M  V30 4542 H 417.803 -0.455236 -0.48338 0
M  V30 4543 H 420.333 -1.79024 -0.990539 0
M  V30 4544 H 420.343 -2.27139 -3.38928 0
M  V30 4545 H 419.018 -3.17998 -2.68049 0
M  V30 4546 H 417.595 -1.50153 -3.41334 0
M  V30 4547 N 419.78 1.02168 -1.19998 0
M  V30 4548 C 420.743 2.08765 -0.94604 0
M  V30 4549 C 421.743 1.60618 0.0763846 0
M  V30 4550 O 422.933 1.73472 -0.159135 0
M  V30 4551 C 420.065 3.38262 -0.423255 0
M  V30 4552 H 421.258 2.32726 -1.89153 0
M  V30 4553 H 418.811 1.1889 -1.01464 0
M  V30 4554 H 419.546 3.19974 0.527938 0
M  V30 4555 H 419.331 3.74532 -1.16053 0
M  V30 4556 H 420.821 4.16759 -0.264911 0
M  V30 4557 N 421.258 1.00505 1.21394 0
M  V30 4558 C 422.504 0.688793 1.90745 0
M  V30 4559 C 422.837 -0.778486 1.77914 0
M  V30 4560 O 422.112 -1.56433 1.15581 0
M  V30 4561 C 422.395 1.11063 3.42545 0
M  V30 4562 C 422.248 2.63737 3.64367 0
M  V30 4563 C 423.567 0.673059 4.34923 0
M  V30 4564 H 420.686 0.251702 0.692687 0
M  V30 4565 H 423.328 1.25074 1.43026 0
M  V30 4566 H 421.478 0.632508 3.83317 0
M  V30 4567 H 423.15 3.19313 3.32922 0
M  V30 4568 H 421.393 3.05248 3.08231 0
M  V30 4569 H 422.064 2.88305 4.70727 0
M  V30 4570 H 424.54 1.08392 4.01734 0
M  V30 4571 H 423.416 0.996383 5.39781 0
M  V30 4572 H 423.677 -0.425808 4.40045 0
M  V30 4573 N 422.737 -1.36956 0.779787 0
M  V30 4574 C 423.983 -1.99787 0.348281 0
M  V30 4575 C 424.316 -1.61756 -1.07465 0
M  V30 4576 O 423.591 -0.867639 -1.74075 0
M  V30 4577 C 423.874 -3.56597 0.50104 0
M  V30 4578 C 423.727 -4.04513 1.96697 0
M  V30 4579 C 425.046 -4.40008 -0.0898097 0
M  V30 4580 H 422.165 -0.725796 0.128022 0
M  V30 4581 H 424.807 -1.62514 0.984331 0
M  V30 4582 H 422.957 -3.88479 -0.0404347 0
M  V30 4583 H 424.629 -3.83161 2.56876 0
M  V30 4584 H 422.872 -3.56408 2.47297 0
M  V30 4585 H 423.543 -5.1352 2.02486 0
M  V30 4586 H 426.019 -4.14431 0.372293 0
M  V30 4587 H 424.895 -5.4888 0.0471605 0
M  V30 4588 H 425.156 -4.26035 -1.18096 0
M  V30 4589 N 424.215 -0.530993 -1.48385 0
M  V30 4590 C 425.626 -0.0907905 -1.86479 0
M  V30 4591 C 425.977 1.33213 -1.44044 0
M  V30 4592 O 425.102 1.99783 -0.831615 0
M  V30 4593 C 425.697 -0.157987 -3.38431 0
M  V30 4594 C 424.256 0.227026 -3.75715 0
M  V30 4595 C 423.403 -0.5173 -2.72432 0
M  V30 4596 H 426.354 -0.742186 -1.40276 0
M  V30 4597 H 426.375 0.630053 -3.75247 0
M  V30 4598 H 425.887 -1.19372 -3.69286 0
M  V30 4599 H 423.988 1.26486 -3.50474 0
M  V30 4600 H 424.101 -0.113288 -4.78966 0
M  V30 4601 H 422.465 0.0365527 -2.54674 0
M  V30 4602 H 423.248 -1.55368 -3.0613 0
M  V30 4603 N 425.693 1.55336 -0.266172 0
M  V30 4604 C 426.921 2.03801 0.356756 0
M  V30 4605 C 427.336 1.14485 1.50129 0
M  V30 4606 O 426.693 0.163121 1.8177 0
M  V30 4607 C 426.744 3.51455 0.846281 0
M  V30 4608 O 426.465 4.37371 -0.252663 0
M  V30 4609 C 427.966 4.15767 1.53794 0
M  V30 4610 H 425.186 0.665906 0.0825218 0
M  V30 4611 H 427.73 2.00636 -0.39566 0
M  V30 4612 H 425.885 3.55092 1.54881 0
M  V30 4613 H 426.299 5.24358 0.122173 0
M  V30 4614 H 427.773 5.20714 1.83198 0
M  V30 4615 H 428.25 3.63404 2.46646 0
M  V30 4616 H 428.856 4.16107 0.879488 0
M  V30 4617 N 427.171 -0.0066808 1.57599 0
M  V30 4618 C 428.081 -1.01671 2.11424 0
M  V30 4619 C 429.097 -1.38143 1.05795 0
M  V30 4620 O 430.273 -1.47011 1.37658 0
M  V30 4621 C 427.338 -2.29192 2.60139 0
M  V30 4622 C 426.399 -1.99094 3.80342 0
M  V30 4623 C 425.632 -3.20535 4.26724 0
M  V30 4624 O 425.855 -4.3199 3.72479 0
M  V30 4625 O 424.789 -3.04924 5.18946 0
M  V30 4626 H 428.615 -0.589181 2.9793 0
M  V30 4627 H 426.2 -0.225091 1.47695 0
M  V30 4628 H 428.082 -3.0412 2.917 0
M  V30 4629 H 426.757 -2.71195 1.76733 0
M  V30 4630 H 425.664 -1.21663 3.53764 0
M  V30 4631 H 426.997 -1.61931 4.648 0
M  V30 4632 N 428.649 -1.55105 -0.279332 0
M  V30 4633 C 429.579 -1.90557 -1.34945 0
M  V30 4634 C 430.56 -0.766738 -1.51839 0
M  V30 4635 O 431.745 -1.02434 -1.64988 0
M  V30 4636 C 428.875 -2.17193 -2.71006 0
M  V30 4637 C 427.829 -3.33021 -2.68851 0
M  V30 4638 C 427.155 -3.45123 -4.08405 0
M  V30 4639 C 428.455 -4.69578 -2.28678 0
M  V30 4640 H 430.149 -2.80188 -1.05522 0
M  V30 4641 H 427.695 -1.34811 -0.506173 0
M  V30 4642 H 429.648 -2.40581 -3.45975 0
M  V30 4643 H 428.372 -1.24355 -3.01999 0
M  V30 4644 H 427.031 -3.0959 -1.9634 0
M  V30 4645 H 426.679 -2.49762 -4.3661 0
M  V30 4646 H 426.379 -4.22995 -4.07859 0
M  V30 4647 H 427.903 -3.70796 -4.85121 0
M  V30 4648 H 429.317 -4.92553 -2.93368 0
M  V30 4649 H 427.714 -5.5032 -2.39306 0
M  V30 4650 H 428.784 -4.68828 -1.23807 0
M  V30 4651 N 430.127 0.543554 -1.4793 0
M  V30 4652 C 431.352 1.32995 -1.59145 0
M  V30 4653 C 431.777 1.86472 -0.246956 0
M  V30 4654 O 431.135 1.63696 0.779324 0
M  V30 4655 C 431.183 2.46623 -2.63077 0
M  V30 4656 O 430.287 3.49261 -2.19295 0
M  V30 4657 H 429.628 0.394472 -0.534124 0
M  V30 4658 H 432.158 0.655489 -1.93816 0
M  V30 4659 H 432.168 2.93001 -2.83926 0
M  V30 4660 H 430.843 2.07059 -3.60693 0
M  V30 4661 H 429.42 3.09094 -2.08603 0
M  V30 4662 N 431.605 1.3629 0.791371 0
M  V30 4663 C 432.553 1.30514 1.92533 0
M  V30 4664 C 433.547 0.197285 1.68247 0
M  V30 4665 O 434.753 0.364176 1.76278 0
M  V30 4666 H 431.128 0.406263 0.632815 0
M  V30 4667 H 433.099 2.26282 1.94523 0
M  V30 4668 C 431.848 1.10933 3.29529 0
M  V30 4669 H 431.171 1.95427 3.48781 0
M  V30 4670 H 432.611 1.10937 4.0923 0
M  V30 4671 C 431.07 -0.186123 3.36385 0
M  V30 4672 O 431.6 -1.17664 3.84081 0
M  V30 4673 N 429.806 -0.230128 2.89687 0
M  V30 4674 H 429.353 0.576545 2.51065 0
M  V30 4675 H 429.311 -1.09658 2.94657 0
M  V30 4676 N 433.083 -1.0153 1.20538 0
M  V30 4677 C 434.33 -1.75149 1.01633 0
M  V30 4678 C 434.658 -1.89189 -0.451399 0
M  V30 4679 O 433.913 -1.41551 -1.35136 0
M  V30 4680 C 434.212 -3.17213 1.64654 0
M  V30 4681 C 433.878 -3.23146 3.14464 0
M  V30 4682 C 432.54 -3.24472 3.55347 0
M  V30 4683 C 434.892 -3.21207 4.10458 0
M  V30 4684 C 432.22 -3.21532 4.90748 0
M  V30 4685 C 434.572 -3.19808 5.45807 0
M  V30 4686 C 433.236 -3.19439 5.86102 0
M  V30 4687 H 432.506 -0.640914 0.3719 0
M  V30 4688 H 435.153 -1.19071 1.49981 0
M  V30 4689 H 433.458 -3.76457 1.08571 0
M  V30 4690 H 435.155 -3.72871 1.4754 0
M  V30 4691 H 431.745 -3.2285 2.81897 0
M  V30 4692 H 435.929 -3.19351 3.79906 0
M  V30 4693 H 431.185 -3.19578 5.21229 0
M  V30 4694 H 435.359 -3.1726 6.19935 0
M  V30 4695 H 432.986 -3.16915 6.90991 0
M  V30 4696 O 434.6 -1.13875 -1.14519 0
M  V30 4697 H 435.291 -0.85746 -1.73687 0
M  V30 END ATOM
M  V30 BEGIN BOND
M  V30 END BOND
M  V30 END CTAB
M  END
$$$$
