drugbank_target|P01593 Ig kappa chain V-I region Bi (DB04147)
 OpenBabel12092120483D

  0  0  0     0  0            999 V3000
M  V30 BEGIN CTAB
M  V30 COUNTS 1670 1690 0 0 0
M  V30 BEGIN ATOM
M  V30 1 H -0.908 1.98254 -0.117106 0
M  V30 2 N 0 1.576 0 0
M  V30 3 C 1.277 1.81792 0.721886 0
M  V30 4 C 1.657 0.877704 1.91988 0
M  V30 5 O 1.005 -0.0735727 2.28382 0
M  V30 6 C 1.215 3.30282 1.12761 0
M  V30 7 C 2.563 3.9602 1.53146 0
M  V30 8 O 3.587 3.34605 1.2214 0
M  V30 9 O 2.446 5.04207 2.10802 0
M  V30 10 H -0.46 0.748582 0.351504 0
M  V30 11 H 2.086 1.69681 -0.025454 0
M  V30 12 H 0.858 3.90342 0.273686 0
M  V30 13 H 0.481 3.47391 1.93405 0
M  V30 14 N 1.4781 -0.272755 1.55222 0
M  V30 15 C 2.7271 -1.00211 1.75045 0
M  V30 16 C 3.0401 -1.87441 0.559046 0
M  V30 17 O 4.2461 -2.63856 0.639698 0
M  V30 18 C 2.7021 -1.83165 3.09804 0
M  V30 19 C 2.3101 -1.008 4.36513 0
M  V30 20 C 4.0541 -2.55529 3.38977 0
M  V30 21 C 1.9611 -1.83194 5.62311 0
M  V30 22 H 0.8911 -0.377878 0.652476 0
M  V30 23 H 3.5421 -0.257776 1.8168 0
M  V30 24 H 1.9241 -2.61694 2.97207 0
M  V30 25 H 3.0981 -0.266855 4.60027 0
M  V30 26 H 1.4131 -0.398897 4.14485 0
M  V30 27 H 4.0101 -3.17578 4.30172 0
M  V30 28 H 4.3531 -3.25825 2.59121 0
M  V30 29 H 4.8861 -1.84029 3.52673 0
M  V30 30 H 1.6251 -1.17318 6.44916 0
M  V30 31 H 1.1451 -2.54905 5.4294 0
M  V30 32 H 2.8241 -2.40552 6.00619 0
M  V30 33 N 2.9562 -1.48159 -0.537278 0
M  V30 34 C 3.8882 -1.58218 -1.65831 0
M  V30 35 C 4.9012 -0.466948 -1.5596 0
M  V30 36 O 6.0902 -0.73747 -1.62553 0
M  V30 37 C 3.1902 -1.48906 -3.04434 0
M  V30 38 C 2.3632 -2.75343 -3.3986 0
M  V30 39 C 1.4222 -2.59588 -4.57712 0
M  V30 40 O 0.4482 -3.33457 -4.61297 0
M  V30 41 N 1.6502 -1.68724 -5.55439 0
M  V30 42 H 4.4152 -2.54891 -1.57641 0
M  V30 43 H 1.9762 -1.4479 -0.724386 0
M  V30 44 H 3.9682 -1.36072 -3.81139 0
M  V30 45 H 2.5382 -0.602368 -3.06741 0
M  V30 46 H 1.7582 -3.02795 -2.52406 0
M  V30 47 H 3.0462 -3.5924 -3.60311 0
M  V30 48 H 2.4442 -1.07898 -5.55315 0
M  V30 49 H 1.0012 -1.61832 -6.3139 0
M  V30 50 N 4.4343 0.785586 -1.36625 0
M  V30 51 C 5.3673 1.90509 -1.25625 0
M  V30 52 C 6.3453 1.62 -0.139607 0
M  V30 53 O 7.5293 1.8591 -0.31141 0
M  V30 54 C 4.6563 3.25419 -0.939158 0
M  V30 55 C 3.7023 3.72856 -2.07077 0
M  V30 56 S 4.5353 3.88162 -3.68904 0
M  V30 57 C 5.6913 5.25942 -3.39317 0
M  V30 58 H 5.9243 1.99549 -2.20381 0
M  V30 59 H 3.4573 0.945226 -1.22085 0
M  V30 60 H 5.4153 4.03346 -0.763029 0
M  V30 61 H 4.0763 3.14099 -0.00931402 0
M  V30 62 H 3.2693 4.70624 -1.80357 0
M  V30 63 H 2.8713 3.01989 -2.20632 0
M  V30 64 H 5.1633 6.10651 -2.93447 0
M  V30 65 H 6.1063 5.57668 -4.36363 0
M  V30 66 H 6.5143 4.93224 -2.74573 0
M  V30 67 N 5.9124 1.20967 1.01018 0
M  V30 68 C 7.1404 1.04956 1.78303 0
M  V30 69 C 7.5554 -0.400915 1.84494 0
M  V30 70 O 6.9124 -1.27826 1.30257 0
M  V30 71 C 6.9634 1.63403 3.22462 0
M  V30 72 O 6.6844 3.02775 3.16637 0
M  V30 73 C 8.1854 1.52432 4.16268 0
M  V30 74 H 5.4054 0.368858 0.560522 0
M  V30 75 H 7.9494 1.60193 1.27116 0
M  V30 76 H 6.1044 1.1227 3.70775 0
M  V30 77 H 6.5184 3.30626 4.07169 0
M  V30 78 H 7.9924 1.98078 5.15237 0
M  V30 79 H 8.4694 0.477875 4.36592 0
M  V30 80 H 9.0754 2.02787 3.73841 0
M  V30 81 N 7.3905 -1.2043 1.01659 0
M  V30 82 C 8.3225 -2.22626 0.544988 0
M  V30 83 C 9.3355 -1.58479 -0.372609 0
M  V30 84 O 10.5245 -1.77679 -0.170958 0
M  V30 85 C 7.6245 -3.38141 -0.22663 0
M  V30 86 C 6.7975 -4.31877 0.692876 0
M  V30 87 C 5.8565 -5.26191 -0.0311616 0
M  V30 88 O 4.8825 -5.6612 0.591343 0
M  V30 89 N 6.0845 -5.65618 -1.30601 0
M  V30 90 H 8.8495 -2.63716 1.42388 0
M  V30 91 H 6.4105 -1.34971 0.894116 0
M  V30 92 H 8.4025 -3.98239 -0.72024 0
M  V30 93 H 6.9725 -2.95943 -1.00681 0
M  V30 94 H 6.1925 -3.69746 1.36679 0
M  V30 95 H 7.4805 -4.91426 1.31824 0
M  V30 96 H 6.8785 -5.3519 -1.83269 0
M  V30 97 H 5.4355 -6.28025 -1.74435 0
M  V30 98 N 8.8686 -0.792821 -1.36206 0
M  V30 99 C 10.0936 -0.377701 -2.03932 0
M  V30 100 C 10.5186 0.998947 -1.59382 0
M  V30 101 O 9.8766 1.64421 -0.763903 0
M  V30 102 C 9.9246 -0.453635 -3.57735 0
M  V30 103 O 9.0286 0.538151 -4.08874 0
M  V30 104 H 8.3696 -0.159855 -0.644471 0
M  V30 105 H 10.8996 -1.07488 -1.7409 0
M  V30 106 H 10.9096 -0.318464 -4.06755 0
M  V30 107 H 9.5846 -1.45784 -3.89512 0
M  V30 108 H 8.1616 0.364359 -3.71116 0
M  V30 109 N 10.3467 1.47872 -0.545128 0
M  V30 110 C 11.7577 1.86384 -0.108581 0
M  V30 111 C 12.1087 1.45309 1.31832 0
M  V30 112 O 11.2337 0.850641 1.9898 0
M  V30 113 C 11.8287 3.38265 -0.190274 0
M  V30 114 C 10.3877 3.75914 0.191164 0
M  V30 115 C 9.5347 2.71926 -0.543273 0
M  V30 116 H 12.4857 1.39561 -0.755537 0
M  V30 117 H 12.5067 3.75831 0.594217 0
M  V30 118 H 12.0187 3.6813 -1.2289 0
M  V30 119 H 10.1197 3.51665 1.23136 0
M  V30 120 H 10.2327 4.78836 -0.158987 0
M  V30 121 H 8.5967 2.54697 0.0122495 0
M  V30 122 H 9.3797 3.04634 -1.58282 0
M  V30 123 N 11.8248 0.280983 1.55075 0
M  V30 124 C 13.0498 -0.340154 2.04592 0
M  V30 125 C 13.4748 -1.48246 1.15779 0
M  V30 126 O 12.8328 -1.80614 0.15761 0
M  V30 127 C 12.8808 -0.793104 3.5177 0
M  V30 128 O 11.9848 -1.89981 3.66034 0
M  V30 129 H 11.3258 -0.0694289 0.66036 0
M  V30 130 H 13.8558 0.416993 2.00306 0
M  V30 131 H 13.8658 -1.08729 3.93245 0
M  V30 132 H 12.5408 0.0426163 4.15878 0
M  V30 133 H 11.1178 -1.60771 3.36463 0
M  V30 134 N 13.3029 -1.57598 0.00835791 0
M  V30 135 C 14.7139 -1.7892 -0.53333 0
M  V30 136 C 15.0649 -0.916609 -1.73473 0
M  V30 137 O 14.1899 -0.121336 -2.1606 0
M  V30 138 C 14.7849 -3.24488 -0.974313 0
M  V30 139 C 13.3439 -3.46878 -1.46125 0
M  V30 140 C 12.4909 -2.74157 -0.416302 0
M  V30 141 H 15.4419 -1.56958 0.234495 0
M  V30 142 H 15.4629 -3.3306 -1.83988 0
M  V30 143 H 14.9749 -3.87972 -0.099718 0
M  V30 144 H 13.0759 -2.8862 -2.35646 0
M  V30 145 H 13.1889 -4.55572 -1.48295 0
M  V30 146 H 11.5529 -2.39022 -0.87981 0
M  V30 147 H 12.3359 -3.40345 0.44947 0
M  V30 148 N 14.781 0.264519 -1.55364 0
M  V30 149 C 15.711 1.33121 -1.91836 0
M  V30 150 C 16.692 1.51101 -0.781192 0
M  V30 151 O 17.877 1.64003 -1.04003 0
M  V30 152 C 15.007 2.68921 -2.19769 0
M  V30 153 C 13.961 2.65661 -3.35571 0
M  V30 154 C 13.287 4.05093 -3.49004 0
M  V30 155 C 14.587 2.24187 -4.71739 0
M  V30 156 H 16.281 1.02844 -2.81182 0
M  V30 157 H 13.827 0.493286 -1.35287 0
M  V30 158 H 15.78 3.43663 -2.43872 0
M  V30 159 H 14.504 3.00799 -1.27231 0
M  V30 160 H 13.163 1.93377 -3.1145 0
M  V30 161 H 12.811 4.34206 -2.53917 0
M  V30 162 H 12.511 4.03804 -4.26868 0
M  V30 163 H 14.035 4.81561 -3.75408 0
M  V30 164 H 15.449 2.88654 -4.9533 0
M  V30 165 H 13.846 2.34044 -5.52579 0
M  V30 166 H 14.916 1.19327 -4.69988 0
M  V30 167 N 16.2591 1.48442 0.529413 0
M  V30 168 C 17.4841 1.60406 1.31471 0
M  V30 169 C 17.9091 0.264738 1.86228 0
M  V30 170 O 17.2671 -0.763668 1.64432 0
M  V30 171 C 17.3151 2.65419 2.44101 0
M  V30 172 O 16.4191 2.22618 3.47153 0
M  V30 173 H 15.7601 0.537863 0.389357 0
M  V30 174 H 18.2901 1.94432 0.636965 0
M  V30 175 H 18.3001 2.86709 2.90279 0
M  V30 176 H 16.9751 3.62652 2.03608 0
M  V30 177 H 15.5521 2.11543 3.0709 0
M  V30 178 N 17.7372 -0.778329 1.37039 0
M  V30 179 C 18.7002 -1.87301 1.32102 0
M  V30 180 C 19.7002 -1.59198 0.226405 0
M  V30 181 O 20.8902 -1.67403 0.481861 0
M  V30 182 C 18.0222 -3.24309 1.05055 0
M  V30 183 H 19.2152 -1.93093 2.29467 0
M  V30 184 H 16.7682 -0.977358 1.21973 0
M  V30 185 H 17.5032 -3.24196 0.0819373 0
M  V30 186 H 17.2882 -3.46098 1.84279 0
M  V30 187 H 18.7782 -4.04382 1.04234 0
M  V30 188 N 19.2153 -1.21501 -1.00376 0
M  V30 189 C 20.4403 -1.05977 -1.78279 0
M  V30 190 C 20.8653 0.385994 -1.84097 0
M  V30 191 O 20.2233 1.27849 -1.28547 0
M  V30 192 C 20.2713 -1.66302 -3.19963 0
M  V30 193 O 19.3753 -0.909333 -4.0225 0
M  V30 194 H 18.7163 -0.372906 -0.549397 0
M  V30 195 H 21.2463 -1.6107 -1.26165 0
M  V30 196 H 21.2563 -1.70574 -3.70632 0
M  V30 197 H 19.9313 -2.71515 -3.15043 0
M  V30 198 H 18.5083 -0.941795 -3.60811 0
M  V30 199 N 20.6934 1.19889 -1.02296 0
M  V30 200 C 21.9394 1.89701 -0.717033 0
M  V30 201 C 22.2724 1.7905 0.751989 0
M  V30 202 O 21.5474 1.17891 1.547 0
M  V30 203 C 21.8304 3.40858 -1.16136 0
M  V30 204 C 21.6834 3.60411 -2.69117 0
M  V30 205 C 23.0024 4.33876 -0.737549 0
M  V30 206 H 20.1214 0.688874 -0.261957 0
M  V30 207 H 22.7634 1.41154 -1.27183 0
M  V30 208 H 20.9134 3.82335 -0.689342 0
M  V30 209 H 22.5854 3.28145 -3.2422 0
M  V30 210 H 20.8284 3.03665 -3.0979 0
M  V30 211 H 21.4994 4.66396 -2.95261 0
M  V30 212 H 23.9754 4.00081 -1.14344 0
M  V30 213 H 22.8514 5.38242 -1.0764 0
M  V30 214 H 23.1124 4.40628 0.360436 0
M  V30 215 N 22.1715 0.800033 1.35784 0
M  V30 216 C 23.4195 0.376597 1.9856 0
M  V30 217 C 23.7405 -1.05812 1.63795 0
M  V30 218 O 23.0105 -1.73103 0.917171 0
M  V30 219 H 21.5905 0.136261 0.734467 0
M  V30 220 H 24.2525 1.02442 1.65806 0
M  V30 221 H 23.3485 0.477002 3.08433 0
M  V30 222 N 23.6496 -1.47581 0.552962 0
M  V30 223 C 24.9266 -1.95563 -0.0381515 0
M  V30 224 C 25.3066 -1.49552 -1.48988 0
M  V30 225 O 24.6546 -0.732414 -2.16444 0
M  V30 226 C 24.8646 -3.48848 0.102919 0
M  V30 227 C 26.2126 -4.24577 -0.0446082 0
M  V30 228 O 27.2366 -3.56187 0.0302548 0
M  V30 229 O 26.0956 -5.46116 -0.204923 0
M  V30 230 H 23.1896 -0.824321 -0.0665067 0
M  V30 231 H 25.7356 -1.58001 0.619186 0
M  V30 232 H 24.5076 -3.75129 1.11328 0
M  V30 233 H 24.1306 -3.93165 -0.592224 0
M  V30 234 N 25.1277 -0.289203 -1.54924 0
M  V30 235 C 26.3527 0.329299 -2.04769 0
M  V30 236 C 26.7777 1.4763 -1.16564 0
M  V30 237 O 26.1357 1.80527 -0.167186 0
M  V30 238 C 26.1837 0.774438 -3.52186 0
M  V30 239 O 25.2877 1.88038 -3.67036 0
M  V30 240 H 24.6287 0.0659259 -0.660719 0
M  V30 241 H 27.1587 -0.42761 -2.00082 0
M  V30 242 H 27.1687 1.06642 -3.93816 0
M  V30 243 H 25.8437 -0.0646707 -4.1585 0
M  V30 244 H 24.4207 1.58985 -3.3731 0
M  V30 245 N 26.6058 1.57591 -0.0167156 0
M  V30 246 C 27.8518 1.91567 0.665582 0
M  V30 247 C 28.1848 0.892298 1.72487 0
M  V30 248 O 27.4598 -0.0867127 1.94307 0
M  V30 249 C 27.7428 3.36069 1.29342 0
M  V30 250 C 27.5958 4.49135 0.244541 0
M  V30 251 C 28.9148 3.803 2.21495 0
M  V30 252 H 26.0338 0.69666 0.240488 0
M  V30 253 H 28.6758 1.89866 -0.0714356 0
M  V30 254 H 26.8258 3.3765 1.92158 0
M  V30 255 H 28.4978 4.59689 -0.385228 0
M  V30 256 H 26.7408 4.3165 -0.431379 0
M  V30 257 H 27.4118 5.47242 0.723207 0
M  V30 258 H 29.8878 3.80377 1.68678 0
M  V30 259 H 28.7638 4.82127 2.62382 0
M  V30 260 H 29.0248 3.15104 3.101 0
M  V30 261 N 28.0839 -0.256276 1.55502 0
M  V30 262 C 29.3119 -1.00342 1.8094 0
M  V30 263 C 29.7269 -1.79307 0.59114 0
M  V30 264 O 29.0839 -1.77114 -0.440081 0
M  V30 265 C 29.1349 -1.94875 3.04476 0
M  V30 266 O 28.8559 -1.19107 4.21598 0
M  V30 267 C 30.3569 -2.81266 3.42644 0
M  V30 268 H 27.5769 -0.295685 0.602338 0
M  V30 269 H 30.1209 -0.281998 2.02546 0
M  V30 270 H 28.2759 -2.62457 2.84947 0
M  V30 271 H 28.6899 -1.82969 4.91551 0
M  V30 272 H 30.1639 -3.43362 4.32211 0
M  V30 273 H 30.6409 -3.51897 2.62802 0
M  V30 274 H 31.2469 -2.1915 3.64491 0
M  V30 275 N 29.562 -1.4872 -0.521534 0
M  V30 276 C 30.811 -1.56419 -1.27341 0
M  V30 277 C 31.124 -0.246805 -1.94037 0
M  V30 278 O 32.33 -0.202122 -2.70747 0
M  V30 279 C 30.786 -2.75896 -2.31105 0
M  V30 280 C 30.394 -4.14311 -1.70441 0
M  V30 281 C 32.138 -2.92913 -3.07249 0
M  V30 282 C 30.045 -5.25038 -2.72194 0
M  V30 283 H 28.975 -0.582344 -0.478949 0
M  V30 284 H 31.626 -1.75071 -0.549779 0
M  V30 285 H 30.008 -2.50697 -3.06541 0
M  V30 286 H 31.182 -4.49564 -1.01136 0
M  V30 287 H 29.497 -4.02482 -1.06759 0
M  V30 288 H 32.094 -3.72805 -3.83302 0
M  V30 289 H 32.437 -2.02689 -3.63625 0
M  V30 290 H 32.97 -3.18054 -2.38928 0
M  V30 291 H 29.709 -6.17255 -2.20627 0
M  V30 292 H 29.229 -4.94263 -3.39801 0
M  V30 293 H 30.908 -5.53508 -3.35019 0
M  V30 294 N 31.0401 0.771051 -1.3745 0
M  V30 295 C 32.2681 1.56015 -1.35893 0
M  V30 296 C 32.6831 1.88718 0.0555523 0
M  V30 297 O 32.0401 1.51502 1.01752 0
M  V30 298 C 32.0911 2.87001 -2.19801 0
M  V30 299 O 31.8121 2.557 -3.55738 0
M  V30 300 C 33.3131 3.81228 -2.26231 0
M  V30 301 H 30.5331 0.483317 -0.465453 0
M  V30 302 H 33.0771 0.955611 -1.80799 0
M  V30 303 H 31.2321 3.43877 -1.78402 0
M  V30 304 H 31.6461 3.39584 -3.99729 0
M  V30 305 H 33.1201 4.70139 -2.89263 0
M  V30 306 H 33.5971 4.20409 -1.27093 0
M  V30 307 H 34.2031 3.30281 -2.67945 0
M  V30 308 N 32.5182 1.22032 0.997298 0
M  V30 309 C 33.7582 1.05375 1.75144 0
M  V30 310 C 34.1222 -0.404696 1.87686 0
M  V30 311 O 35.3232 -0.691998 2.5974 0
M  V30 312 C 33.5942 1.74046 3.12158 0
M  V30 313 S 35.1532 1.72745 4.03366 0
M  V30 314 H 31.9712 0.377449 0.602539 0
M  V30 315 H 34.5732 1.54902 1.19272 0
M  V30 316 H 33.2772 2.79332 3.00669 0
M  V30 317 H 32.8082 1.24731 3.73103 0
M  V30 318 H 34.8232 0.774015 4.90126 0
M  V30 319 N 33.9963 -1.19345 1.0293 0
M  V30 320 C 34.9283 -2.22036 0.56857 0
M  V30 321 C 35.9413 -1.58865 -0.355779 0
M  V30 322 O 37.1303 -1.77851 -0.152103 0
M  V30 323 C 34.2303 -3.38363 -0.190752 0
M  V30 324 C 33.4033 -4.31118 0.738643 0
M  V30 325 C 32.4623 -5.26194 0.0246497 0
M  V30 326 O 31.4883 -5.65461 0.651354 0
M  V30 327 N 32.6903 -5.66971 -1.24594 0
M  V30 328 H 35.4553 -2.6219 1.45177 0
M  V30 329 H 33.0163 -1.34015 0.908381 0
M  V30 330 H 35.0083 -3.98981 -0.677961 0
M  V30 331 H 33.5783 -2.96994 -0.975366 0
M  V30 332 H 32.7983 -3.68276 1.40593 0
M  V30 333 H 34.0863 -4.90001 1.37029 0
M  V30 334 H 33.4843 -5.37104 -1.77583 0
M  V30 335 H 32.0413 -6.2984 -1.67764 0
M  V30 336 N 35.4744 -0.807222 -1.35358 0
M  V30 337 C 36.4374 -0.223665 -2.28106 0
M  V30 338 C 37.4374 0.589354 -1.4961 0
M  V30 339 O 38.6274 0.407745 -1.69361 0
M  V30 340 C 35.7594 0.688149 -3.33882 0
M  V30 341 H 36.9524 -1.04169 -2.81227 0
M  V30 342 H 34.5054 -0.577921 -1.45223 0
M  V30 343 H 35.2404 1.52984 -2.85948 0
M  V30 344 H 35.0254 0.10687 -3.91954 0
M  V30 345 H 36.5154 1.09075 -4.03104 0
M  V30 346 N 36.9525 1.47285 -0.560781 0
M  V30 347 C 38.1775 2.07359 -0.0410566 0
M  V30 348 C 38.6025 1.41017 1.24483 0
M  V30 349 O 37.9605 0.486368 1.74654 0
M  V30 350 C 38.0085 3.6035 0.134123 0
M  V30 351 O 37.1125 3.94681 1.19587 0
M  V30 352 H 36.4535 0.661887 -0.0529291 0
M  V30 353 H 38.9835 1.89252 -0.777482 0
M  V30 354 H 38.9935 4.0652 0.347207 0
M  V30 355 H 37.6685 4.08034 -0.805047 0
M  V30 356 H 36.2455 3.60251 0.962987 0
M  V30 357 N 38.4306 0.297415 1.54768 0
M  V30 358 C 39.3626 -0.613881 2.20826 0
M  V30 359 C 40.3756 -1.10032 1.19987 0
M  V30 360 O 41.5646 -1.01839 1.46598 0
M  V30 361 C 38.6646 -1.852 2.83821 0
M  V30 362 C 37.8376 -1.50865 4.10559 0
M  V30 363 C 36.8966 -2.60154 4.57391 0
M  V30 364 O 35.9226 -2.25398 5.2267 0
M  V30 365 N 37.1246 -3.90629 4.29406 0
M  V30 366 H 39.8896 -0.048389 2.99661 0
M  V30 367 H 37.4506 0.11946 1.61459 0
M  V30 368 H 39.4426 -2.57652 3.12086 0
M  V30 369 H 38.0126 -2.32597 2.08847 0
M  V30 370 H 37.2326 -0.616925 3.89343 0
M  V30 371 H 38.5206 -1.25458 4.9309 0
M  V30 372 H 37.9186 -4.21677 3.77101 0
M  V30 373 H 36.4756 -4.59391 4.62388 0
M  V30 374 N 39.9087 -1.5758 0.0250728 0
M  V30 375 C 41.1857 -1.82917 -0.692873 0
M  V30 376 C 41.5657 -0.908137 -1.90568 0
M  V30 377 O 40.9137 0.0372298 -2.2847 0
M  V30 378 C 41.1237 -3.32034 -1.07492 0
M  V30 379 C 42.4717 -3.98406 -1.46826 0
M  V30 380 O 43.4957 -3.36505 -1.16801 0
M  V30 381 O 42.3547 -5.07497 -2.02754 0
M  V30 382 H 39.4487 -0.754079 -0.33955 0
M  V30 383 H 41.9947 -1.69619 0.0524456 0
M  V30 384 H 40.7667 -3.90728 -0.211552 0
M  V30 385 H 40.3897 -3.50424 -1.87854 0
M  V30 386 N 41.3868 0.248026 -1.55636 0
M  V30 387 C 42.6358 0.974134 -1.76617 0
M  V30 388 C 42.9488 1.86528 -0.588796 0
M  V30 389 O 44.1548 2.62805 -0.681594 0
M  V30 390 C 42.6108 1.78213 -3.12679 0
M  V30 391 C 42.2188 0.93843 -4.38061 0
M  V30 392 C 43.9628 2.50104 -3.42999 0
M  V30 393 C 41.8698 1.74225 -5.65155 0
M  V30 394 H 40.7998 0.36745 -0.658405 0
M  V30 395 H 43.4508 0.22884 -1.82067 0
M  V30 396 H 41.8328 2.56933 -3.01333 0
M  V30 397 H 43.0068 0.193635 -4.60393 0
M  V30 398 H 41.3218 0.332905 -4.15067 0
M  V30 399 H 43.9188 3.10694 -4.3517 0
M  V30 400 H 44.2618 3.21662 -2.64271 0
M  V30 401 H 44.7948 1.78395 -3.55556 0
M  V30 402 H 41.5338 1.07043 -6.46701 0
M  V30 403 H 41.0538 2.46235 -5.46926 0
M  V30 404 H 42.7328 2.30967 -6.0437 0
M  V30 405 N 42.8649 1.48995 0.513639 0
M  V30 406 C 44.2809 1.35478 0.843682 0
M  V30 407 C 44.4809 0.378213 1.97919 0
M  V30 408 O 43.5369 -0.194689 2.51748 0
M  V30 409 C 44.8499 2.75901 1.1958 0
M  V30 410 C 46.3979 2.84509 1.30474 0
M  V30 411 C 46.8729 4.25671 1.69021 0
M  V30 412 N 48.3639 4.28422 1.76094 0
M  V30 413 C 49.0989 5.34601 2.07338 0
M  V30 414 N 48.5949 6.5104 2.36894 0
M  V30 415 N 50.3879 5.22007 2.08483 0
M  V30 416 H 42.5389 2.11092 -0.235328 0
M  V30 417 H 44.8019 0.947039 -0.0426669 0
M  V30 418 H 44.5079 3.49001 0.434913 0
M  V30 419 H 44.3819 3.10467 2.1422 0
M  V30 420 H 46.7689 2.11655 2.05637 0
M  V30 421 H 46.8499 2.53542 0.339155 0
M  V30 422 H 46.4939 4.99048 0.944135 0
M  V30 423 H 46.4239 4.54094 2.66658 0
M  V30 424 H 48.9149 3.44441 1.55464 0
M  V30 425 H 49.2279 7.2779 2.59887 0
M  V30 426 H 47.5729 6.54287 2.34378 0
M  V30 427 H 50.7639 4.30051 1.84861 0
M  V30 428 H 50.9369 6.04854 2.325 0
M  V30 429 N 44.343 -0.763751 1.37857 0
M  V30 430 C 45.291 -1.89864 1.34367 0
M  V30 431 C 46.285 -1.67816 0.231143 0
M  V30 432 O 47.491 -1.75508 0.399617 0
M  V30 433 H 43.866 -0.624501 0.41893 0
M  V30 434 H 45.837 -1.89925 2.30155 0
M  V30 435 C 44.586 -3.27227 1.1755 0
M  V30 436 H 43.909 -3.44773 2.02414 0
M  V30 437 H 45.349 -4.06911 1.1916 0
M  V30 438 C 43.808 -3.36692 -0.118311 0
M  V30 439 O 44.338 -3.86374 -1.09902 0
M  V30 440 N 42.544 -2.90092 -0.171717 0
M  V30 441 H 42.091 -2.49853 0.627012 0
M  V30 442 H 42.049 -2.96806 -1.03699 0
M  V30 443 N 45.8211 -1.22559 -0.990812 0
M  V30 444 C 47.0461 -1.07862 -1.77145 0
M  V30 445 C 47.4711 0.366447 -1.84496 0
M  V30 446 O 46.8291 1.26478 -1.29896 0
M  V30 447 C 46.8771 -1.69686 -3.18181 0
M  V30 448 O 45.9811 -0.951946 -4.01263 0
M  V30 449 H 45.3221 -0.378712 -0.545411 0
M  V30 450 H 47.8521 -1.62399 -1.2445 0
M  V30 451 H 47.8621 -1.74496 -3.68802 0
M  V30 452 H 46.5371 -2.74841 -3.12146 0
M  V30 453 H 45.1141 -0.980011 -3.59792 0
M  V30 454 N 47.2992 1.18797 -1.03562 0
M  V30 455 C 48.2292 2.24472 -0.643019 0
M  V30 456 C 49.2102 1.66433 0.351283 0
M  V30 457 O 50.3952 1.92803 0.232505 0
M  V30 458 C 47.5252 3.473 4.24935e-05 0
M  V30 459 C 46.4792 4.18055 -0.917257 0
M  V30 460 C 45.8052 5.34519 -0.138941 0
M  V30 461 C 47.1052 4.72109 -2.23407 0
M  V30 462 H 48.7992 2.57566 -1.52643 0
M  V30 463 H 46.3452 1.23806 -0.735394 0
M  V30 464 H 48.2982 4.20426 0.286383 0
M  V30 465 H 47.0222 3.13424 0.918299 0
M  V30 466 H 45.6812 3.46821 -1.1879 0
M  V30 467 H 45.3292 4.96891 0.781562 0
M  V30 468 H 45.0292 5.82794 -0.750005 0
M  V30 469 H 46.5532 6.10438 0.1405 0
M  V30 470 H 47.9672 5.36955 -2.00879 0
M  V30 471 H 46.3642 5.30897 -2.79765 0
M  V30 472 H 47.4342 3.89807 -2.88407 0
M  V30 473 N 48.7773 0.814389 1.34928 0
M  V30 474 C 50.0263 0.394871 1.97797 0
M  V30 475 C 50.3393 -1.04555 1.65311 0
M  V30 476 O 51.5453 -1.56856 2.21604 0
M  V30 477 C 50.0013 0.655103 3.53888 0
M  V30 478 C 49.6093 2.10858 3.95276 0
M  V30 479 C 51.3533 0.301329 4.23429 0
M  V30 480 C 49.2603 2.31415 5.44244 0
M  V30 481 H 48.1903 0.143913 0.740139 0
M  V30 482 H 50.8413 0.999544 1.53888 0
M  V30 483 H 49.2233 -0.0196253 3.95995 0
M  V30 484 H 50.3973 2.82176 3.64298 0
M  V30 485 H 48.7123 2.42297 3.38646 0
M  V30 486 H 51.3093 0.432869 5.32945 0
M  V30 487 H 51.6523 -0.75331 4.09428 0
M  V30 488 H 52.1853 0.930288 3.86769 0
M  V30 489 H 48.9243 3.35353 5.63222 0
M  V30 490 H 48.4443 1.6463 5.76764 0
M  V30 491 H 50.1233 2.13352 6.10811 0
M  V30 492 N 50.2554 -1.46986 0.568584 0
M  V30 493 C 51.5014 -2.0332 0.0571487 0
M  V30 494 C 51.8564 -1.43384 -1.28291 0
M  V30 495 O 51.1494 -0.584304 -1.82473 0
M  V30 496 C 51.3434 -3.57306 -0.081836 0
M  V30 497 C 51.1724 -4.32174 1.24321 0
M  V30 498 C 49.9424 -4.71633 1.81358 0
M  V30 499 C 52.1404 -4.66598 2.16312 0
M  V30 500 N 50.1224 -5.31191 3.07748 0
M  V30 501 C 51.4934 -5.26578 3.27285 0
M  V30 502 C 53.5484 -4.48527 2.16166 0
M  V30 503 C 52.2514 -5.70395 4.38226 0
M  V30 504 C 54.2774 -4.93351 3.26127 0
M  V30 505 C 53.6394 -5.5339 4.3582 0
M  V30 506 H 49.7384 -0.77943 0.063351 0
M  V30 507 H 52.3224 -1.79323 0.758378 0
M  V30 508 H 50.4934 -3.81046 -0.752207 0
M  V30 509 H 52.2254 -4.00282 -0.59637 0
M  V30 510 H 48.9804 -4.53946 1.35019 0
M  V30 511 H 49.4044 -5.65505 3.72201 0
M  V30 512 H 54.0464 -4.01456 1.32638 0
M  V30 513 H 51.7644 -6.16452 5.22506 0
M  V30 514 H 55.3504 -4.81131 3.27115 0
M  V30 515 H 54.2304 -5.87441 5.19503 0
M  V30 516 N 51.7335 -0.305618 -1.54608 0
M  V30 517 C 52.9635 0.304333 -2.04346 0
M  V30 518 C 53.3715 1.47715 -1.18224 0
M  V30 519 O 52.7145 1.82591 -0.201577 0
M  V30 520 C 52.7765 0.819031 -3.50046 0
M  V30 521 C 52.4405 -0.22912 -4.56425 0
M  V30 522 C 53.4375 -1.05914 -5.08997 0
M  V30 523 C 51.1225 -0.372148 -5.0092 0
M  V30 524 C 53.1165 -2.01809 -6.04609 0
M  V30 525 C 50.8035 -1.33454 -5.9635 0
M  V30 526 C 51.8015 -2.15599 -6.48079 0
M  V30 527 O 51.4895 -3.10205 -7.41639 0
M  V30 528 H 51.2215 0.0693996 -0.672428 0
M  V30 529 H 53.7755 -0.444548 -2.00532 0
M  V30 530 H 52.0055 1.61852 -3.51199 0
M  V30 531 H 53.6945 1.34537 -3.82955 0
M  V30 532 H 54.4605 -0.959538 -4.75413 0
M  V30 533 H 50.3395 0.257304 -4.60281 0
M  V30 534 H 53.8835 -2.65966 -6.44909 0
M  V30 535 H 49.7805 -1.43485 -6.29351 0
M  V30 536 H 50.5485 -3.05237 -7.59455 0
M  V30 537 N 53.2116 1.57565 -0.0334293 0
M  V30 538 C 54.1436 2.0739 0.975811 0
M  V30 539 C 55.1566 0.998166 1.2861 0
M  V30 540 O 56.3456 1.27426 1.25 0
M  V30 541 C 53.4456 2.4871 2.30209 0
M  V30 542 C 52.6186 3.79413 2.17634 0
M  V30 543 C 51.6776 4.07237 3.33233 0
M  V30 544 O 50.7036 4.77425 3.09927 0
M  V30 545 N 51.9056 3.5775 4.5716 0
M  V30 546 H 54.6706 2.94598 0.55066 0
M  V30 547 H 52.2316 1.61173 0.15323 0
M  V30 548 H 54.2236 2.64413 3.06378 0
M  V30 549 H 52.7936 1.66845 2.64351 0
M  V30 550 H 52.0136 3.73465 1.26165 0
M  V30 551 H 53.3016 4.65038 2.0644 0
M  V30 552 H 52.6996 3.00976 4.78989 0
M  V30 553 H 51.2566 3.78724 5.30482 0
M  V30 554 N 54.6897 -0.239769 1.55765 0
M  V30 555 C 55.6217 -1.32001 1.87372 0
M  V30 556 C 56.6347 -1.43944 0.760522 0
M  V30 557 O 57.8237 -1.45167 1.0387 0
M  V30 558 C 54.9237 -2.69779 2.05115 0
M  V30 559 C 54.0967 -2.80014 3.36022 0
M  V30 560 C 53.1557 -3.98684 3.4342 0
M  V30 561 O 52.1817 -3.87877 4.16582 0
M  V30 562 N 53.3837 -5.12176 2.73232 0
M  V30 563 H 56.1487 -1.0522 2.80622 0
M  V30 564 H 53.7097 -0.429857 1.56089 0
M  V30 565 H 55.7017 -3.47517 2.07399 0
M  V30 566 H 54.2717 -2.89237 1.18577 0
M  V30 567 H 53.4917 -1.88896 3.45994 0
M  V30 568 H 54.7797 -2.83808 4.22292 0
M  V30 569 H 54.1777 -5.2385 2.13536 0
M  V30 570 H 52.7347 -5.88022 2.81199 0
M  V30 571 N 56.1678 -1.49265 -0.50573 0
M  V30 572 C 57.1148 -1.65585 -1.6078 0
M  V30 573 C 58.0848 -0.497396 -1.58478 0
M  V30 574 O 59.2698 -0.72385 -1.76536 0
M  V30 575 C 56.4098 -1.72408 -2.98948 0
M  V30 576 C 55.5228 -2.99525 -3.11301 0
M  V30 577 C 54.6578 -2.97356 -4.40174 0
M  V30 578 C 53.6968 -4.19074 -4.46143 0
M  V30 579 N 52.8338 -4.14841 -5.66437 0
M  V30 580 H 57.6738 -2.59688 -1.46172 0
M  V30 581 H 55.2108 -1.28761 -0.711261 0
M  V30 582 H 57.1688 -1.74344 -3.79025 0
M  V30 583 H 55.7988 -0.817753 -3.1227 0
M  V30 584 H 54.8508 -3.07222 -2.24318 0
M  V30 585 H 56.1628 -3.89518 -3.11572 0
M  V30 586 H 55.3168 -2.97829 -5.28567 0
M  V30 587 H 54.0558 -2.05133 -4.42461 0
M  V30 588 H 53.0608 -4.1885 -3.56153 0
M  V30 589 H 54.2858 -5.12483 -4.45575 0
M  V30 590 H 52.2318 -3.25453 -5.69575 0
M  V30 591 H 52.1488 -4.98564 -5.68304 0
M  V30 592 H 53.4168 -4.1941 -6.57051 0
M  V30 593 N 57.6459 0.756429 -1.3826 0
M  V30 594 C 59.0569 1.33359 -1.30661 0
M  V30 595 C 59.4079 1.96161 0.0388875 0
M  V30 596 O 58.5329 1.94874 0.940918 0
M  V30 597 C 59.1279 2.42477 -2.36622 0
M  V30 598 C 57.6869 2.95922 -2.3261 0
M  V30 599 C 56.8339 1.69275 -2.19639 0
M  V30 600 H 59.7849 0.55552 -1.4866 0
M  V30 601 H 59.8059 3.22345 -2.02174 0
M  V30 602 H 59.3179 1.96739 -3.34538 0
M  V30 603 H 57.4189 3.45996 -1.38267 0
M  V30 604 H 57.5319 3.50494 -3.26636 0
M  V30 605 H 55.8959 1.92793 -1.66442 0
M  V30 606 H 56.6789 1.25619 -3.19491 0
M  V30 607 N 59.124 1.23083 0.984299 0
M  V30 608 C 60.372 1.05848 1.72165 0
M  V30 609 C 60.693 -0.406049 1.90726 0
M  V30 610 O 59.963 -1.29139 1.47309 0
M  V30 611 H 58.543 0.388685 0.637913 0
M  V30 612 H 61.205 1.54736 1.18503 0
M  V30 613 H 60.301 1.54327 2.71274 0
M  V30 614 N 60.6021 -1.18246 1.0419 0
M  V30 615 C 61.5491 -2.2192 0.634037 0
M  V30 616 C 62.5191 -1.62179 -0.358765 0
M  V30 617 O 63.7041 -1.89122 -0.252466 0
M  V30 618 C 60.8441 -3.451 0.00445535 0
M  V30 619 C 59.9571 -4.19174 1.04487 0
M  V30 620 C 59.0921 -5.29813 0.383676 0
M  V30 621 C 58.1311 -5.9566 1.4091 0
M  V30 622 N 57.2681 -6.97834 0.772784 0
M  V30 623 H 62.1081 -2.56164 1.52263 0
M  V30 624 H 59.6451 -1.25843 0.761701 0
M  V30 625 H 61.6031 -4.15485 -0.377919 0
M  V30 626 H 60.2331 -3.11472 -0.847652 0
M  V30 627 H 59.2851 -3.47604 1.54518 0
M  V30 628 H 60.5971 -4.64267 1.82368 0
M  V30 629 H 59.7511 -6.06677 -0.0528366 0
M  V30 630 H 58.4901 -4.85825 -0.427208 0
M  V30 631 H 57.4951 -5.17535 1.85574 0
M  V30 632 H 58.7201 -6.4173 2.22171 0
M  V30 633 H 56.6661 -6.55998 -0.0177708 0
M  V30 634 H 56.5831 -7.41186 1.48928 0
M  V30 635 H 57.8511 -7.78665 0.36071 0
M  V30 636 N 62.0802 -0.821533 -1.34494 0
M  V30 637 C 63.0432 -0.247847 -2.27856 0
M  V30 638 C 64.0432 0.573453 -1.50227 0
M  V30 639 O 65.2332 0.389759 -1.69784 0
M  V30 640 C 62.3652 0.652698 -3.34593 0
M  V30 641 H 63.5582 -1.07146 -2.80107 0
M  V30 642 H 61.1112 -0.593291 -1.44602 0
M  V30 643 H 61.8462 1.49943 -2.87555 0
M  V30 644 H 61.6312 0.065292 -3.92046 0
M  V30 645 H 63.1212 1.04793 -4.04238 0
M  V30 646 N 63.5583 1.46682 -0.576371 0
M  V30 647 C 64.9693 1.86112 -0.148091 0
M  V30 648 C 65.3203 1.48073 1.2872 0
M  V30 649 O 64.4453 0.892656 1.97131 0
M  V30 650 C 65.0403 3.37786 -0.261982 0
M  V30 651 C 63.5993 3.76235 0.111384 0
M  V30 652 C 62.7463 2.70713 -0.60083 0
M  V30 653 H 65.6973 1.37927 -0.78497 0
M  V30 654 H 65.7183 3.77007 0.514364 0
M  V30 655 H 65.2303 3.6544 -1.30671 0
M  V30 656 H 63.3313 3.54198 1.15649 0
M  V30 657 H 63.4443 4.78391 -0.26052 0
M  V30 658 H 61.8083 2.54666 -0.0417783 0
M  V30 659 H 62.5913 3.01208 -1.64708 0
M  V30 660 N 65.0364 0.313813 1.54444 0
M  V30 661 C 65.9834 -0.55655 2.23989 0
M  V30 662 C 66.9534 -1.11943 1.22711 0
M  V30 663 O 68.1384 -1.16158 1.51367 0
M  V30 664 C 65.2784 -1.71635 2.99392 0
M  V30 665 C 64.3914 -1.18364 4.15468 0
M  V30 666 C 63.5264 -2.30834 4.78424 0
M  V30 667 C 62.5654 -1.74762 5.86622 0
M  V30 668 N 61.7024 -2.80855 6.43479 0
M  V30 669 H 66.5424 0.0430893 2.97969 0
M  V30 670 H 64.0794 0.0330359 1.47063 0
M  V30 671 H 66.0374 -2.39868 3.41349 0
M  V30 672 H 64.6674 -2.28742 2.27765 0
M  V30 673 H 63.7194 -0.393163 3.78363 0
M  V30 674 H 65.0314 -0.733262 4.93381 0
M  V30 675 H 64.1854 -3.0699 5.23299 0
M  V30 676 H 62.9244 -2.79204 3.99871 0
M  V30 677 H 61.9294 -0.970995 5.41158 0
M  V30 678 H 63.1544 -1.2728 6.67066 0
M  V30 679 H 61.1004 -3.28535 5.67804 0
M  V30 680 H 61.0174 -2.40351 7.16776 0
M  V30 681 H 62.2854 -3.5687 6.93011 0
M  V30 682 N 66.5145 -1.57545 0.0417849 0
M  V30 683 C 67.7615 -1.92317 -0.634082 0
M  V30 684 C 68.0895 -0.919334 -1.71402 0
M  V30 685 O 67.3445 0.0698253 -1.95575 0
M  V30 686 C 67.6435 -3.33794 -1.27735 0
M  V30 687 C 67.3095 -4.49716 -0.326543 0
M  V30 688 C 65.9715 -4.81156 -0.0648814 0
M  V30 689 C 68.3235 -5.20182 0.325623 0
M  V30 690 C 65.6515 -5.80414 0.856539 0
M  V30 691 C 68.0035 -6.20424 1.23518 0
M  V30 692 C 66.6675 -6.50298 1.5056 0
M  V30 693 H 65.9375 -0.703736 -0.232027 0
M  V30 694 H 68.5845 -1.91205 0.106259 0
M  V30 695 H 66.8895 -3.31228 -2.09274 0
M  V30 696 H 68.5865 -3.57975 -1.80707 0
M  V30 697 H 65.1765 -4.25176 -0.540665 0
M  V30 698 H 69.3605 -4.96112 0.136546 0
M  V30 699 H 64.6165 -6.019 1.07363 0
M  V30 700 H 68.7905 -6.74141 1.74664 0
M  V30 701 H 66.4175 -7.27025 2.22123 0
M  V30 702 N 67.9926 0.231505 -1.5589 0
M  V30 703 C 68.9226 1.29022 -1.94617 0
M  V30 704 C 69.9036 1.4941 -0.813067 0
M  V30 705 O 71.0886 1.6176 -1.07459 0
M  V30 706 C 68.2186 2.64199 -2.25424 0
M  V30 707 C 67.1726 2.58484 -3.41131 0
M  V30 708 C 66.4986 3.97599 -3.57518 0
M  V30 709 C 67.7986 2.1413 -4.76388 0
M  V30 710 H 69.4926 0.968563 -2.83301 0
M  V30 711 H 67.0386 0.464479 -1.36303 0
M  V30 712 H 68.9916 3.38413 -2.51107 0
M  V30 713 H 67.7156 2.98032 -1.33583 0
M  V30 714 H 66.3746 1.86727 -3.15481 0
M  V30 715 H 66.0226 4.28723 -2.6307 0
M  V30 716 H 65.7226 3.94659 -4.35337 0
M  V30 717 H 67.2466 4.7349 -3.85538 0
M  V30 718 H 68.6606 2.78083 -5.01341 0
M  V30 719 H 67.0576 2.2227 -5.57419 0
M  V30 720 H 68.1276 1.09331 -4.72414 0
M  V30 721 N 69.4707 1.49531 0.497807 0
M  V30 722 C 70.7197 1.58426 1.24837 0
M  V30 723 C 71.0327 0.277643 1.93619 0
M  V30 724 O 72.2387 0.24517 2.70391 0
M  V30 725 C 70.6947 2.79538 2.26686 0
M  V30 726 C 70.3027 4.16971 1.63828 0
M  V30 727 C 72.0467 2.97764 3.0255 0
M  V30 728 C 69.9537 5.29301 2.63807 0
M  V30 729 H 68.8837 0.58989 0.469623 0
M  V30 730 H 71.5347 1.75923 0.521857 0
M  V30 731 H 69.9167 2.55542 3.02514 0
M  V30 732 H 71.0907 4.51116 0.939711 0
M  V30 733 H 69.4057 4.04129 1.00342 0
M  V30 734 H 72.0027 3.78856 3.77323 0
M  V30 735 H 72.3457 2.08448 3.60354 0
M  V30 736 H 72.8787 3.21815 2.33838 0
M  V30 737 H 69.6177 6.20687 2.10779 0
M  V30 738 H 69.1377 4.99606 3.31894 0
M  V30 739 H 70.8167 5.58768 3.2617 0
M  V30 740 N 70.9488 -0.749086 1.3866 0
M  V30 741 C 72.1788 -1.53611 1.38157 0
M  V30 742 C 72.5868 -1.89177 -0.0293595 0
M  V30 743 O 71.9298 -1.53606 -1.00752 0
M  V30 744 C 71.9918 -2.86087 2.17702 0
M  V30 745 C 71.6558 -2.73034 3.66472 0
M  V30 746 C 72.6528 -2.42526 4.59866 0
M  V30 747 C 70.3378 -2.90345 4.09884 0
M  V30 748 C 72.3318 -2.29492 5.94653 0
M  V30 749 C 70.0188 -2.7693 5.4475 0
M  V30 750 C 71.0168 -2.46547 6.36949 0
M  V30 751 O 70.7048 -2.33199 7.69333 0
M  V30 752 H 70.4368 -0.481773 0.474205 0
M  V30 753 H 72.9908 -0.934465 1.82912 0
M  V30 754 H 71.2208 -3.48458 1.67672 0
M  V30 755 H 72.9098 -3.47625 2.09551 0
M  V30 756 H 73.6758 -2.28816 4.27631 0
M  V30 757 H 69.5548 -3.1299 3.38464 0
M  V30 758 H 73.0988 -2.05698 6.66584 0
M  V30 759 H 68.9958 -2.90215 5.76581 0
M  V30 760 H 69.7638 -2.48376 7.79905 0
M  V30 761 N 72.4269 -1.23603 -0.977757 0
M  V30 762 C 73.7039 -0.977897 -1.69401 0
M  V30 763 C 74.0839 0.502738 -2.05026 0
M  V30 764 O 73.4319 1.47459 -1.74551 0
M  V30 765 C 73.6419 -1.89077 -2.93345 0
M  V30 766 C 74.9899 -2.15579 -3.65802 0
M  V30 767 O 76.0139 -1.86648 -3.03383 0
M  V30 768 O 74.8729 -2.64658 -4.78141 0
M  V30 769 H 71.9669 -0.369025 -0.740101 0
M  V30 770 H 74.5129 -1.34657 -1.03274 0
M  V30 771 H 73.2849 -2.89158 -2.63634 0
M  V30 772 H 72.9079 -1.52463 -3.67207 0
M  V30 773 N 73.905 1.17692 -1.04816 0
M  V30 774 C 74.868 2.19787 -0.650117 0
M  V30 775 C 75.868 1.58044 0.296427 0
M  V30 776 O 77.058 1.74012 0.0808097 0
M  V30 777 C 74.19 3.40869 0.0456987 0
M  V30 778 H 75.383 2.56516 -1.5537 0
M  V30 779 H 72.936 1.31708 -0.841594 0
M  V30 780 H 73.671 3.09681 0.962726 0
M  V30 781 H 73.456 3.86928 -0.634727 0
M  V30 782 H 74.946 4.16445 0.310432 0
M  V30 783 N 75.3831 0.828654 1.34056 0
M  V30 784 C 76.2931 0.256725 2.33191 0
M  V30 785 C 77.3091 -0.611898 1.62886 0
M  V30 786 O 78.4851 -0.51844 1.94613 0
M  V30 787 C 75.5501 -0.567238 3.42028 0
M  V30 788 C 74.6111 0.324458 4.28072 0
M  V30 789 C 73.8441 -0.460274 5.31712 0
M  V30 790 O 74.0671 -1.693 5.44696 0
M  V30 791 O 73.0011 0.160391 6.01686 0
M  V30 792 H 76.8271 1.07739 2.83947 0
M  V30 793 H 74.4121 0.59093 1.37217 0
M  V30 794 H 76.2941 -1.03582 4.08471 0
M  V30 795 H 74.9691 -1.36513 2.93506 0
M  V30 796 H 73.8761 0.840659 3.64532 0
M  V30 797 H 75.2091 1.08685 4.8005 0
M  V30 798 N 76.8612 -1.46375 0.584142 0
M  V30 799 C 77.8092 -2.32042 -0.161047 0
M  V30 800 C 78.8032 -1.44569 -0.882966 0
M  V30 801 O 80.0092 -1.61186 -0.801191 0
M  V30 802 H 76.3842 -0.748659 -0.0708033 0
M  V30 803 H 78.3552 -2.92704 0.580269 0
M  V30 804 C 77.1042 -3.27762 -1.1605 0
M  V30 805 H 76.4272 -3.95051 -0.614419 0
M  V30 806 H 77.8672 -3.90481 -1.65228 0
M  V30 807 C 76.3262 -2.53218 -2.22221 0
M  V30 808 O 76.8562 -2.29628 -3.29597 0
M  V30 809 N 75.0622 -2.13756 -1.96868 0
M  V30 810 H 74.6092 -2.33142 -1.09557 0
M  V30 811 H 74.5672 -1.642 -2.68115 0
M  V30 812 N 78.3393 -0.321999 -1.54275 0
M  V30 813 C 79.2693 0.537411 -2.27231 0
M  V30 814 C 80.2503 1.12064 -1.27968 0
M  V30 815 O 81.4353 1.14606 -1.56777 0
M  V30 816 C 78.5653 1.69919 -3.02894 0
M  V30 817 C 77.5193 1.24534 -4.09482 0
M  V30 818 C 76.8453 2.49394 -4.72977 0
M  V30 819 C 78.1453 0.361335 -5.21049 0
M  V30 820 H 79.8393 -0.0711406 -2.99315 0
M  V30 821 H 77.3853 -0.0356555 -1.43956 0
M  V30 822 H 79.3383 2.30668 -3.52662 0
M  V30 823 H 78.0623 2.33431 -2.28424 0
M  V30 824 H 76.7213 0.660782 -3.60596 0
M  V30 825 H 76.3693 3.11265 -3.95124 0
M  V30 826 H 76.0693 2.19718 -5.44975 0
M  V30 827 H 77.5933 3.10908 -5.25517 0
M  V30 828 H 79.0073 0.875072 -5.66582 0
M  V30 829 H 77.4043 0.157428 -5.99893 0
M  V30 830 H 78.4743 -0.60822 -4.8107 0
M  V30 831 N 79.8174 1.5752 -0.0501392 0
M  V30 832 C 80.7274 2.14952 0.939827 0
M  V30 833 C 81.7434 1.10706 1.34239 0
M  V30 834 O 82.9194 1.42869 1.41952 0
M  V30 835 C 79.9844 2.68232 2.19665 0
M  V30 836 C 79.0454 3.87272 1.85253 0
M  V30 837 C 78.2784 4.38002 3.04943 0
M  V30 838 O 78.5014 3.87811 4.18281 0
M  V30 839 O 77.4354 5.29602 2.86017 0
M  V30 840 H 81.2614 2.9986 0.481392 0
M  V30 841 H 78.8464 1.4841 0.171699 0
M  V30 842 H 80.7284 3.02475 2.93406 0
M  V30 843 H 79.4034 1.86395 2.64648 0
M  V30 844 H 78.3104 3.5792 1.0883 0
M  V30 845 H 79.6434 4.70336 1.4507 0
M  V30 846 N 81.2955 -0.223234 1.56011 0
M  V30 847 C 82.5445 -0.945912 1.78144 0
M  V30 848 C 82.8575 -1.85567 0.618396 0
M  V30 849 O 84.0635 -2.61688 0.723318 0
M  V30 850 C 82.5195 -1.73216 3.15475 0
M  V30 851 C 82.1275 -0.868619 4.39499 0
M  V30 852 C 83.8715 -2.44615 3.46935 0
M  V30 853 C 81.7785 -1.65212 5.67855 0
M  V30 854 H 80.7085 -0.356929 0.664167 0
M  V30 855 H 83.3595 -0.199845 1.82409 0
M  V30 856 H 81.7415 -2.52107 3.05382 0
M  V30 857 H 82.9155 -0.120366 4.60643 0
M  V30 858 H 81.2305 -0.26683 4.15544 0
M  V30 859 H 83.8275 -3.03732 4.40058 0
M  V30 860 H 84.1705 -3.17417 2.69355 0
M  V30 861 H 84.7035 -1.72715 3.58349 0
M  V30 862 H 81.4425 -0.967407 6.48322 0
M  V30 863 H 80.9625 -2.37503 5.50774 0
M  V30 864 H 82.6415 -2.21322 6.07968 0
M  V30 865 N 82.7736 -1.49793 -0.48987 0
M  V30 866 C 84.0216 -1.59525 -1.24081 0
M  V30 867 C 84.3426 -0.288953 -1.92847 0
M  V30 868 O 83.6126 0.692436 -1.83254 0
M  V30 869 H 82.1926 -0.587796 -0.460983 0
M  V30 870 H 84.8546 -1.86477 -0.566778 0
M  V30 871 H 83.9506 -2.39696 -1.99881 0
M  V30 872 N 84.2517 0.741722 -1.39055 0
M  V30 873 C 85.4977 1.50336 -1.36113 0
M  V30 874 C 85.8307 1.94148 0.0450796 0
M  V30 875 O 85.1057 1.66301 1.00868 0
M  V30 876 C 85.3887 2.74773 -2.32749 0
M  V30 877 C 85.2417 2.37023 -3.82283 0
M  V30 878 C 86.5607 3.76846 -2.27322 0
M  V30 879 H 83.6797 0.545351 -0.495743 0
M  V30 880 H 86.3217 0.848624 -1.69995 0
M  V30 881 H 84.4717 3.30639 -2.03986 0
M  V30 882 H 86.1437 1.8684 -4.21768 0
M  V30 883 H 84.3867 1.69334 -3.99385 0
M  V30 884 H 85.0577 3.26104 -4.45376 0
M  V30 885 H 87.5337 3.30548 -2.5274 0
M  V30 886 H 86.4097 4.6159 -2.97028 0
M  V30 887 H 86.6707 4.23286 -1.27599 0
M  V30 888 N 85.7298 1.2412 0.971189 0
M  V30 889 C 87.1408 1.07236 1.52831 0
M  V30 890 C 87.4918 -0.357352 1.92918 0
M  V30 891 O 86.6168 -1.24528 1.76979 0
M  V30 892 C 87.2118 1.94043 2.77728 0
M  V30 893 C 85.7708 1.81394 3.29808 0
M  V30 894 C 84.9178 1.89189 2.02738 0
M  V30 895 H 87.8688 1.37648 0.789864 0
M  V30 896 H 87.8898 1.47066 3.5093 0
M  V30 897 H 87.4018 2.98093 2.4852 0
M  V30 898 H 85.5028 0.801634 3.63874 0
M  V30 899 H 85.6158 2.65294 3.98944 0
M  V30 900 H 83.9798 1.32877 2.17292 0
M  V30 901 H 84.7628 2.94812 1.759 0
M  V30 902 N 87.2079 -1.17134 1.05439 0
M  V30 903 C 88.4329 -1.91913 0.786396 0
M  V30 904 C 88.8579 -1.7643 -0.652234 0
M  V30 905 O 88.2159 -1.08372 -1.45345 0
M  V30 906 C 88.2639 -3.40921 1.17497 0
M  V30 907 O 87.3679 -4.11244 0.308589 0
M  V30 908 H 86.7089 -0.598215 0.288158 0
M  V30 909 H 89.2389 -1.48457 1.4079 0
M  V30 910 H 89.2489 -3.91668 1.14281 0
M  V30 911 H 87.9239 -3.5151 2.22292 0
M  V30 912 H 86.5009 -3.70731 0.40157 0
M  V30 913 N 88.686 -0.835752 -1.33615 0
M  V30 914 C 90.102 -0.523139 -1.50783 0
M  V30 915 C 90.302 0.950171 -1.77691 0
M  V30 916 O 89.358 1.73411 -1.83534 0
M  V30 917 C 90.671 -1.39378 -2.66448 0
M  V30 918 C 92.219 -1.39223 -2.80332 0
M  V30 919 C 92.694 -2.24765 -3.99055 0
M  V30 920 N 94.185 -2.22458 -4.06284 0
M  V30 921 C 94.92 -2.85386 -4.97336 0
M  V30 922 N 94.416 -3.57354 -5.93523 0
M  V30 923 N 96.209 -2.74872 -4.90308 0
M  V30 924 H 88.36 -1.78952 -1.14411 0
M  V30 925 H 90.623 -0.763297 -0.562212 0
M  V30 926 H 90.329 -2.44061 -2.53234 0
M  V30 927 H 90.203 -1.0676 -3.61776 0
M  V30 928 H 92.59 -0.353136 -2.92979 0
M  V30 929 H 92.671 -1.75846 -1.85773 0
M  V30 930 H 92.315 -3.28732 -3.87167 0
M  V30 931 H 92.245 -1.85485 -4.92852 0
M  V30 932 H 94.736 -1.70119 -3.37443 0
M  V30 933 H 95.049 -4.02584 -6.59656 0
M  V30 934 H 93.394 -3.61461 -5.93608 0
M  V30 935 H 96.585 -2.18213 -4.14126 0
M  V30 936 H 96.758 -3.24199 -5.61069 0
M  V30 937 N 90.1641 1.46063 -0.591896 0
M  V30 938 C 91.4111 2.02338 -0.0809991 0
M  V30 939 C 91.7391 1.46228 1.28249 0
M  V30 940 O 90.9941 0.620818 1.85592 0
M  V30 941 C 91.2931 3.57391 0.0249813 0
M  V30 942 C 90.9591 4.32583 -1.27211 0
M  V30 943 C 89.6211 4.52844 -1.62745 0
M  V30 944 C 91.9731 4.75687 -2.13005 0
M  V30 945 C 89.3011 5.13462 -2.83855 0
M  V30 946 C 91.6531 5.37644 -3.3335 0
M  V30 947 C 90.3171 5.5613 -3.69155 0
M  V30 948 H 89.5871 0.740407 -0.0296397 0
M  V30 949 H 92.2341 1.75321 -0.770374 0
M  V30 950 H 90.5391 3.83597 0.797537 0
M  V30 951 H 92.2361 3.98621 0.436184 0
M  V30 952 H 88.8261 4.17116 -0.985499 0
M  V30 953 H 93.0101 4.59782 -1.86855 0
M  V30 954 H 88.2661 5.25965 -3.11722 0
M  V30 955 H 92.4401 5.7 -4.00092 0
M  V30 956 H 90.0671 6.0287 -4.63089 0
M  V30 957 N 91.6422 0.330177 1.54103 0
M  V30 958 C 93.0582 -0.0222371 1.59585 0
M  V30 959 C 93.2582 -1.49902 1.34654 0
M  V30 960 O 92.3142 -2.25592 1.13421 0
M  V30 961 C 93.6272 0.401932 2.98002 0
M  V30 962 C 95.1752 0.353145 3.11001 0
M  V30 963 C 95.6502 0.752576 4.51775 0
M  V30 964 N 97.1412 0.706239 4.57784 0
M  V30 965 C 97.8762 0.987417 5.64834 0
M  V30 966 N 97.3722 1.33607 6.79795 0
M  V30 967 N 99.1652 0.91254 5.54643 0
M  V30 968 H 91.3162 1.29228 1.68564 0
M  V30 969 H 93.5792 0.525906 0.78875 0
M  V30 970 H 93.2852 1.4311 3.21267 0
M  V30 971 H 93.1592 -0.229699 3.765 0
M  V30 972 H 95.5462 -0.666822 2.87467 0
M  V30 973 H 95.6272 1.0198 2.34593 0
M  V30 974 H 95.2712 1.77049 4.76042 0
M  V30 975 H 95.2012 0.0635409 5.26562 0
M  V30 976 H 97.6922 0.44889 3.75224 0
M  V30 977 H 98.0052 1.53582 7.57385 0
M  V30 978 H 96.3502 1.37439 6.81275 0
M  V30 979 H 99.5412 0.639601 4.6371 0
M  V30 980 H 99.7142 1.13503 6.37982 0
M  V30 981 N 93.1203 -1.57491 0.0584922 0
M  V30 982 C 94.3683 -1.92597 -0.612436 0
M  V30 983 C 94.6893 -0.938162 -1.70949 0
M  V30 984 O 93.9593 0.0158301 -1.95894 0
M  V30 985 H 92.5393 -0.710964 -0.229214 0
M  V30 986 H 95.2013 -1.94571 0.113218 0
M  V30 987 H 94.2973 -2.94038 -1.04633 0
M  V30 988 N 94.5984 0.214957 -1.56127 0
M  V30 989 C 95.8234 0.95924 -1.83884 0
M  V30 990 C 96.2484 1.7689 -0.639644 0
M  V30 991 O 95.6064 1.76566 0.411601 0
M  V30 992 C 95.6544 1.84723 -3.09693 0
M  V30 993 O 94.7584 2.94346 -2.8885 0
M  V30 994 H 94.0994 0.27125 -0.606069 0
M  V30 995 H 96.6294 0.226276 -2.03345 0
M  V30 996 H 96.6394 2.25576 -3.39969 0
M  V30 997 H 95.3144 1.25218 -3.96602 0
M  V30 998 H 93.8914 2.57391 -2.69823 0
M  V30 999 N 96.0765 1.50051 0.48192 0
M  V30 1000 C 97.3245 1.60181 1.23234 0
M  V30 1001 C 97.6455 0.299176 1.92691 0
M  V30 1002 O 96.9155 -0.682708 1.83619 0
M  V30 1003 H 95.4955 0.590232 0.457859 0
M  V30 1004 H 98.1575 1.86775 0.556881 0
M  V30 1005 H 97.2535 2.40753 1.98607 0
M  V30 1006 N 97.5546 -0.734337 1.39446 0
M  V30 1007 C 98.7796 -1.52866 1.40167 0
M  V30 1008 C 99.2046 -1.881 -0.00171513 0
M  V30 1009 O 98.5626 -1.51957 -0.988879 0
M  V30 1010 C 98.6106 -2.79235 2.28167 0
M  V30 1011 O 97.7146 -3.75185 1.71201 0
M  V30 1012 H 97.0556 -0.461618 0.477289 0
M  V30 1013 H 99.5856 -0.905949 1.8345 0
M  V30 1014 H 99.5956 -3.27963 2.42702 0
M  V30 1015 H 98.2706 -2.52923 3.30156 0
M  V30 1016 H 96.8476 -3.33958 1.65912 0
M  V30 1017 N 99.0327 -1.24633 -0.964593 0
M  V30 1018 C 100.281 -1.08573 -1.70459 0
M  V30 1019 C 100.602 0.375655 -1.91347 0
M  V30 1020 O 99.8717 1.26779 -1.49345 0
M  V30 1021 H 98.4517 -0.398784 -0.631649 0
M  V30 1022 H 101.114 -1.56601 -1.16026 0
M  V30 1023 H 100.21 -1.58623 -2.68785 0
M  V30 1024 N 100.511 1.16574 -1.06058 0
M  V30 1025 C 101.739 1.90952 -0.796552 0
M  V30 1026 C 102.154 1.77302 0.648808 0
M  V30 1027 O 101.511 1.11605 1.44397 0
M  V30 1028 C 101.562 3.41736 -1.17894 0
M  V30 1029 O 101.283 3.54975 -2.56758 0
M  V30 1030 C 102.784 4.33169 -0.942308 0
M  V30 1031 H 100.004 0.605594 -0.288959 0
M  V30 1032 H 102.548 1.47777 -1.41358 0
M  V30 1033 H 100.703 3.82623 -0.606491 0
M  V30 1034 H 101.117 4.4846 -2.72 0
M  V30 1035 H 102.591 5.37439 -1.25952 0
M  V30 1036 H 103.068 4.3903 0.122078 0
M  V30 1037 H 103.674 3.98007 -1.49902 0
M  V30 1038 N 101.989 0.842826 1.3317 0
M  V30 1039 C 103.266 0.362216 1.92217 0
M  V30 1040 C 103.646 -1.15289 1.76838 0
M  V30 1041 O 102.994 -1.96914 1.15919 0
M  V30 1042 C 103.204 0.813495 3.39387 0
M  V30 1043 C 104.552 0.823804 4.16532 0
M  V30 1044 O 105.576 0.757358 3.48055 0
M  V30 1045 O 104.435 0.915193 5.38782 0
M  V30 1046 H 101.529 0.103317 0.820521 0
M  V30 1047 H 104.075 0.928942 1.42017 0
M  V30 1048 H 102.847 1.85624 3.4447 0
M  V30 1049 H 102.47 0.223561 3.96971 0
M  V30 1050 N 103.467 -1.45747 0.599634 0
M  V30 1051 C 104.714 -2.02292 0.0917284 0
M  V30 1052 C 105.042 -1.46906 -1.27472 0
M  V30 1053 O 104.297 -0.630652 -1.8526 0
M  V30 1054 C 104.596 -3.57399 -0.00602758 0
M  V30 1055 C 104.262 -4.31902 1.29503 0
M  V30 1056 C 102.924 -4.51974 1.65144 0
M  V30 1057 C 105.276 -4.74551 2.15525 0
M  V30 1058 C 102.604 -5.11949 2.86574 0
M  V30 1059 C 104.956 -5.35868 3.36196 0
M  V30 1060 C 103.62 -5.54165 3.72099 0
M  V30 1061 H 102.89 -0.740239 0.0335658 0
M  V30 1062 H 105.537 -1.7491 0.779661 0
M  V30 1063 H 103.842 -3.84014 -0.777183 0
M  V30 1064 H 105.539 -3.98846 -0.415038 0
M  V30 1065 H 102.129 -4.16588 1.00761 0
M  V30 1066 H 106.313 -4.58784 1.8929 0
M  V30 1067 H 101.569 -5.24305 3.14507 0
M  V30 1068 H 105.743 -5.6787 4.03109 0
M  V30 1069 H 103.37 -6.00406 4.6628 0
M  V30 1070 N 104.945 -0.338344 -1.53925 0
M  V30 1071 C 105.908 0.508299 -2.23493 0
M  V30 1072 C 106.908 1.03175 -1.23335 0
M  V30 1073 O 108.098 0.921826 -1.47811 0
M  V30 1074 C 105.23 1.70754 -2.95052 0
M  V30 1075 H 106.423 -0.100058 -2.99733 0
M  V30 1076 H 103.976 -0.0896198 -1.56043 0
M  V30 1077 H 104.711 2.35474 -2.22986 0
M  V30 1078 H 104.496 1.33946 -3.68512 0
M  V30 1079 H 105.986 2.30818 -3.48013 0
M  V30 1080 N 106.423 1.57458 -0.0668435 0
M  V30 1081 C 107.353 2.15468 0.899764 0
M  V30 1082 C 108.334 1.08042 1.31381 0
M  V30 1083 O 109.519 1.36054 1.38574 0
M  V30 1084 C 106.649 2.71232 2.16911 0
M  V30 1085 C 105.603 3.83781 1.89463 0
M  V30 1086 C 104.929 4.26127 3.22986 0
M  V30 1087 C 106.229 5.08238 1.20381 0
M  V30 1088 H 107.923 2.96488 0.416529 0
M  V30 1089 H 105.469 1.4262 0.198908 0
M  V30 1090 H 107.422 3.10458 2.84945 0
M  V30 1091 H 106.146 1.87426 2.67468 0
M  V30 1092 H 104.805 3.45051 1.23836 0
M  V30 1093 H 104.453 3.39249 3.71374 0
M  V30 1094 H 104.153 5.01993 3.05413 0
M  V30 1095 H 105.677 4.67966 3.92225 0
M  V30 1096 H 107.091 5.44811 1.78475 0
M  V30 1097 H 105.488 5.89349 1.13083 0
M  V30 1098 H 106.558 4.84558 0.182153 0
M  V30 1099 N 107.901 -0.206675 1.56239 0
M  V30 1100 C 109.126 -0.949474 1.8439 0
M  V30 1101 C 109.551 -1.76549 0.649016 0
M  V30 1102 O 108.909 -1.76782 -0.402231 0
M  V30 1103 C 108.957 -1.83078 3.10668 0
M  V30 1104 O 108.061 -2.9281 2.90407 0
M  V30 1105 H 107.402 -0.268033 0.607499 0
M  V30 1106 H 109.932 -0.215488 2.03462 0
M  V30 1107 H 109.942 -2.2377 3.41161 0
M  V30 1108 H 108.617 -1.23112 3.97261 0
M  V30 1109 H 107.194 -2.55956 2.71184 0
M  V30 1110 N 109.379 -1.50304 -0.473955 0
M  V30 1111 C 110.628 -1.60392 -1.22301 0
M  V30 1112 C 110.941 -0.308411 -1.93153 0
M  V30 1113 O 112.147 -0.288156 -2.69966 0
M  V30 1114 C 110.603 -2.83109 -2.2221 0
M  V30 1115 C 110.211 -4.19524 -1.57173 0
M  V30 1116 C 111.955 -3.0254 -2.97775 0
M  V30 1117 C 109.862 -5.33431 -2.55353 0
M  V30 1118 H 108.792 -0.597286 -0.460179 0
M  V30 1119 H 111.443 -1.76731 -0.493803 0
M  V30 1120 H 109.825 -2.60322 -2.9841 0
M  V30 1121 H 110.999 -4.52554 -0.867824 0
M  V30 1122 H 109.314 -4.05674 -0.939002 0
M  V30 1123 H 111.911 -3.84811 -3.71248 0
M  V30 1124 H 112.254 -2.14154 -3.56992 0
M  V30 1125 H 112.787 -3.25494 -2.28688 0
M  V30 1126 H 109.526 -6.23962 -2.00878 0
M  V30 1127 H 109.046 -5.04823 -3.23904 0
M  V30 1128 H 110.725 -5.63887 -3.17239 0
M  V30 1129 N 110.857 0.726932 -1.39834 0
M  V30 1130 C 112.082 1.52121 -1.40976 0
M  V30 1131 C 112.507 1.88098 -0.00826029 0
M  V30 1132 O 111.865 1.52479 0.980807 0
M  V30 1133 C 111.913 2.78021 -2.29644 0
M  V30 1134 O 111.017 3.74272 -1.73188 0
M  V30 1135 H 110.358 0.45908 -0.479731 0
M  V30 1136 H 112.888 0.896207 -1.83927 0
M  V30 1137 H 112.898 3.26671 -2.44438 0
M  V30 1138 H 111.573 2.51169 -3.31492 0
M  V30 1139 H 110.15 3.33073 -1.6768 0
M  V30 1140 N 112.336 1.25143 0.95797 0
M  V30 1141 C 113.561 1.12521 1.74223 0
M  V30 1142 C 113.986 -0.317402 1.85403 0
M  V30 1143 O 113.344 -1.2299 1.33204 0
M  V30 1144 C 113.392 1.78062 3.1357 0
M  V30 1145 O 112.496 1.058 3.98598 0
M  V30 1146 H 111.837 0.39304 0.535178 0
M  V30 1147 H 114.367 1.65641 1.201 0
M  V30 1148 H 114.377 1.84213 3.64046 0
M  V30 1149 H 113.052 2.83021 3.04749 0
M  V30 1150 H 111.629 1.07506 3.57067 0
M  V30 1151 N 113.814 -1.1601 1.06675 0
M  V30 1152 C 114.744 -2.22688 0.702307 0
M  V30 1153 C 115.725 -1.67306 -0.307032 0
M  V30 1154 O 116.91 -1.93352 -0.181305 0
M  V30 1155 C 114.04 -3.47178 0.092038 0
M  V30 1156 C 112.994 -4.15477 1.02777 0
M  V30 1157 C 112.32 -5.33963 0.28061 0
M  V30 1158 C 113.62 -4.66019 2.35846 0
M  V30 1159 H 115.314 -2.53429 1.59419 0
M  V30 1160 H 112.86 -1.21813 0.767961 0
M  V30 1161 H 114.813 -4.21037 -0.174814 0
M  V30 1162 H 113.537 -3.15749 -0.834877 0
M  V30 1163 H 112.196 -3.43549 1.27944 0
M  V30 1164 H 111.844 -4.98788 -0.649545 0
M  V30 1165 H 111.544 -5.806 0.904258 0
M  V30 1166 H 113.068 -6.10596 0.021396 0
M  V30 1167 H 114.482 -5.3144 2.15045 0
M  V30 1168 H 112.879 -5.23293 2.93743 0
M  V30 1169 H 113.949 -3.82023 2.98641 0
M  V30 1170 N 115.292 -0.849877 -1.32721 0
M  V30 1171 C 116.224 -0.248332 -2.27851 0
M  V30 1172 C 117.237 0.577218 -1.52224 0
M  V30 1173 O 118.426 0.402489 -1.73903 0
M  V30 1174 C 115.526 0.668107 -3.32249 0
M  V30 1175 C 114.699 -0.120534 -4.37234 0
M  V30 1176 C 113.758 0.720932 -5.21238 0
M  V30 1177 O 112.784 0.156166 -5.68986 0
M  V30 1178 N 113.986 2.03647 -5.43607 0
M  V30 1179 H 116.751 -1.06575 -2.80111 0
M  V30 1180 H 114.312 -0.709395 -1.45531 0
M  V30 1181 H 116.304 1.23627 -3.85355 0
M  V30 1182 H 114.874 1.38621 -2.80184 0
M  V30 1183 H 114.094 -0.870108 -3.84477 0
M  V30 1184 H 115.382 -0.662406 -5.0447 0
M  V30 1185 H 114.78 2.51871 -5.06535 0
M  V30 1186 H 113.337 2.55287 -5.99727 0
M  V30 1187 N 116.77 1.45427 -0.607355 0
M  V30 1188 C 118.181 1.85756 -0.187535 0
M  V30 1189 C 118.532 1.5077 1.25551 0
M  V30 1190 O 117.657 0.93427 1.95193 0
M  V30 1191 C 118.252 3.37154 -0.333572 0
M  V30 1192 C 116.811 3.76387 0.0315542 0
M  V30 1193 C 115.958 2.69377 -0.658117 0
M  V30 1194 H 118.909 1.36231 -0.81405 0
M  V30 1195 H 118.93 3.78014 0.43428 0
M  V30 1196 H 118.442 3.62586 -1.38393 0
M  V30 1197 H 116.543 3.56571 1.0811 0
M  V30 1198 H 116.656 4.77731 -0.361935 0
M  V30 1199 H 115.02 2.5452 -0.0957873 0
M  V30 1200 H 115.803 2.97646 -1.7106 0
M  V30 1201 N 118.248 0.346503 1.53744 0
M  V30 1202 C 119.158 -0.517293 2.28826 0
M  V30 1203 C 120.174 -1.10935 1.3405 0
M  V30 1204 O 121.35 -1.1244 1.6709 0
M  V30 1205 C 118.415 -1.65098 3.04866 0
M  V30 1206 C 117.476 -1.0884 4.15274 0
M  V30 1207 C 116.709 -2.16806 4.87679 0
M  V30 1208 O 116.932 -3.3758 4.59778 0
M  V30 1209 O 115.866 -1.80934 5.74061 0
M  V30 1210 H 119.692 0.0931396 3.03557 0
M  V30 1211 H 117.277 0.111458 1.48984 0
M  V30 1212 H 119.159 -2.31053 3.5241 0
M  V30 1213 H 117.834 -2.24717 2.32989 0
M  V30 1214 H 116.741 -0.3933 3.72027 0
M  V30 1215 H 118.074 -0.537036 4.89261 0
M  V30 1216 N 119.726 -1.57421 0.075193 0
M  V30 1217 C 121.003 -1.85029 -0.634329 0
M  V30 1218 C 121.383 -0.968305 -1.87582 0
M  V30 1219 O 120.731 -0.0354749 -2.28472 0
M  V30 1220 C 120.941 -3.35286 -0.968742 0
M  V30 1221 C 122.289 -4.02875 -1.34077 0
M  V30 1222 O 123.313 -3.40051 -1.06037 0
M  V30 1223 O 122.172 -5.13691 -1.86506 0
M  V30 1224 H 119.266 -0.7645 -0.315387 0
M  V30 1225 H 121.812 -1.69366 0.106382 0
M  V30 1226 H 120.584 -3.91203 -0.0871376 0
M  V30 1227 H 120.207 -3.56223 -1.7661 0
M  V30 1228 N 121.204 0.198386 -1.56346 0
M  V30 1229 C 122.451 0.919286 -1.80431 0
M  V30 1230 C 122.779 1.83393 -0.647866 0
M  V30 1231 O 122.034 1.92236 0.366556 0
M  V30 1232 C 122.333 1.77031 -3.10475 0
M  V30 1233 C 121.999 1.00693 -4.39513 0
M  V30 1234 C 120.661 0.796145 -4.74568 0
M  V30 1235 C 123.013 0.469559 -5.19081 0
M  V30 1236 C 120.341 0.0364588 -5.86689 0
M  V30 1237 C 122.693 -0.2769 -6.31994 0
M  V30 1238 C 121.357 -0.49873 -6.65634 0
M  V30 1239 H 120.627 0.336391 -0.660244 0
M  V30 1240 H 123.274 0.185872 -1.90596 0
M  V30 1241 H 121.579 2.5723 -2.95533 0
M  V30 1242 H 123.276 2.33065 -3.26315 0
M  V30 1243 H 119.866 1.18122 -4.12001 0
M  V30 1244 H 124.05 0.619816 -4.92414 0
M  V30 1245 H 119.306 -0.145412 -6.11227 0
M  V30 1246 H 123.48 -0.700684 -6.92866 0
M  V30 1247 H 121.107 -1.0893 -7.52355 0
M  V30 1248 N 122.682 1.50554 0.465978 0
M  V30 1249 C 123.645 1.69233 1.54574 0
M  V30 1250 C 124.645 0.562901 1.50626 0
M  V30 1251 O 125.835 0.830016 1.53155 0
M  V30 1252 C 122.967 1.7223 2.94193 0
M  V30 1253 H 124.16 2.65571 1.39327 0
M  V30 1254 H 121.713 1.40111 0.692711 0
M  V30 1255 H 122.448 0.77603 3.14878 0
M  V30 1256 H 122.233 2.54285 2.98466 0
M  V30 1257 H 123.723 1.88618 3.72576 0
M  V30 1258 N 124.16 -0.719506 1.40217 0
M  V30 1259 C 125.388 -1.50864 1.41589 0
M  V30 1260 C 125.803 -1.88794 0.0145275 0
M  V30 1261 O 125.16 -1.55174 -0.960594 0
M  V30 1262 C 125.211 -2.78646 2.30302 0
M  V30 1263 O 124.932 -2.42321 3.64983 0
M  V30 1264 C 126.433 -3.72569 2.40224 0
M  V30 1265 H 123.653 -0.465709 0.48307 0
M  V30 1266 H 126.197 -0.88785 1.84221 0
M  V30 1267 H 124.352 -3.37019 1.91042 0
M  V30 1268 H 124.766 -3.24514 4.12057 0
M  V30 1269 H 126.24 -4.5908 3.06512 0
M  V30 1270 H 126.717 -4.15403 1.42608 0
M  V30 1271 H 127.323 -3.20109 2.80019 0
M  V30 1272 N 125.638 -1.25649 -0.95132 0
M  V30 1273 C 126.868 -1.13179 -1.72841 0
M  V30 1274 C 127.276 0.316827 -1.86528 0
M  V30 1275 O 126.619 1.22948 -1.3649 0
M  V30 1276 C 126.681 -1.71644 -3.15878 0
M  V30 1277 C 126.345 -3.20667 -3.25609 0
M  V30 1278 C 127.342 -4.17616 -3.09666 0
M  V30 1279 C 125.027 -3.6094 -3.49324 0
M  V30 1280 C 127.021 -5.52817 -3.17289 0
M  V30 1281 C 124.708 -4.96278 -3.56584 0
M  V30 1282 C 125.706 -5.92025 -3.40581 0
M  V30 1283 O 125.394 -7.24899 -3.47528 0
M  V30 1284 H 125.126 -0.395389 -0.54831 0
M  V30 1285 H 127.68 -1.66566 -1.20187 0
M  V30 1286 H 125.91 -1.12707 -3.69911 0
M  V30 1287 H 127.599 -1.54225 -3.75459 0
M  V30 1288 H 128.365 -3.87842 -2.91211 0
M  V30 1289 H 124.244 -2.86907 -3.6084 0
M  V30 1290 H 127.788 -6.2753 -3.04716 0
M  V30 1291 H 123.685 -5.25716 -3.74556 0
M  V30 1292 H 124.453 -7.33039 -3.64138 0
M  V30 1293 N 127.117 1.15442 -1.07289 0
M  V30 1294 C 128.347 1.89821 -0.815576 0
M  V30 1295 C 128.755 1.7823 0.634867 0
M  V30 1296 O 128.098 1.13152 1.44715 0
M  V30 1297 C 128.16 3.40817 -1.14385 0
M  V30 1298 C 127.824 3.76193 -2.59476 0
M  V30 1299 C 128.821 3.77269 -3.57721 0
M  V30 1300 C 126.506 4.0652 -2.95037 0
M  V30 1301 C 128.5 4.08176 -4.89562 0
M  V30 1302 C 126.187 4.37092 -4.27076 0
M  V30 1303 C 127.185 4.37902 -5.24148 0
M  V30 1304 O 126.873 4.67741 -6.53815 0
M  V30 1305 H 126.605 0.608465 -0.294528 0
M  V30 1306 H 129.159 1.472 -1.43252 0
M  V30 1307 H 127.389 3.83835 -0.469865 0
M  V30 1308 H 129.078 3.96485 -0.869179 0
M  V30 1309 H 129.844 3.5394 -3.3159 0
M  V30 1310 H 125.723 4.05049 -2.20128 0
M  V30 1311 H 129.267 4.08723 -5.65324 0
M  V30 1312 H 125.164 4.59889 -4.5296 0
M  V30 1313 H 125.932 4.85509 -6.58957 0
M  V30 1314 N 128.595 0.856903 1.32268 0
M  V30 1315 C 129.835 0.467705 1.98977 0
M  V30 1316 C 130.199 -0.959231 1.66321 0
M  V30 1317 O 131.4 -1.4531 2.26138 0
M  V30 1318 C 129.671 0.70256 3.50427 0
M  V30 1319 S 131.23 0.411269 4.36868 0
M  V30 1320 H 128.048 0.175121 0.689096 0
M  V30 1321 H 130.65 1.1101 1.60925 0
M  V30 1322 H 129.354 1.74012 3.71683 0
M  V30 1323 H 128.885 0.0466707 3.93372 0
M  V30 1324 H 130.9 -0.761799 4.90317 0
M  V30 1325 N 130.073 -1.45103 0.615059 0
M  V30 1326 C 131.005 -2.28786 -0.13762 0
M  V30 1327 C 132.018 -1.40376 -0.824525 0
M  V30 1328 O 133.207 -1.64681 -0.688662 0
M  V30 1329 C 130.307 -3.16322 -1.21628 0
M  V30 1330 C 129.48 -4.33054 -0.615039 0
M  V30 1331 C 128.539 -5.01743 -1.58556 0
M  V30 1332 O 127.565 -5.58293 -1.10895 0
M  V30 1333 N 128.767 -5.01714 -2.91998 0
M  V30 1334 H 131.532 -2.94025 0.580483 0
M  V30 1335 H 129.093 -1.55373 0.45507 0
M  V30 1336 H 131.085 -3.59139 -1.86552 0
M  V30 1337 H 129.655 -2.52943 -1.83681 0
M  V30 1338 H 128.875 -3.93627 0.21245 0
M  V30 1339 H 130.163 -5.08431 -0.193704 0
M  V30 1340 H 129.561 -4.57075 -3.33316 0
M  V30 1341 H 128.118 -5.48371 -3.52325 0
M  V30 1342 N 131.551 -0.354651 -1.53558 0
M  V30 1343 C 132.483 0.5315 -2.22952 0
M  V30 1344 C 133.496 1.05503 -1.23988 0
M  V30 1345 O 134.685 0.963279 -1.50277 0
M  V30 1346 C 131.785 1.74538 -2.90499 0
M  V30 1347 C 130.958 1.35524 -4.15875 0
M  V30 1348 C 130.017 2.42999 -4.66731 0
M  V30 1349 O 129.043 2.05844 -5.30676 0
M  V30 1350 N 130.245 3.74423 -4.43608 0
M  V30 1351 H 133.01 -0.0628615 -2.99634 0
M  V30 1352 H 130.571 -0.179302 -1.60904 0
M  V30 1353 H 132.563 2.45892 -3.21433 0
M  V30 1354 H 131.133 2.24686 -2.17336 0
M  V30 1355 H 130.353 0.471998 -3.91364 0
M  V30 1356 H 131.641 1.07071 -4.97406 0
M  V30 1357 H 131.039 4.07391 -3.92491 0
M  V30 1358 H 129.596 4.41913 -4.7912 0
M  V30 1359 N 133.029 1.57378 -0.0835403 0
M  V30 1360 C 134.259 1.97975 0.590713 0
M  V30 1361 C 134.667 0.961083 1.62972 0
M  V30 1362 O 134.01 -0.0590879 1.83605 0
M  V30 1363 C 134.072 3.34915 1.3066 0
M  V30 1364 C 133.736 4.55069 0.419698 0
M  V30 1365 C 134.733 5.18868 -0.32749 0
M  V30 1366 C 132.418 5.0114 0.341137 0
M  V30 1367 C 134.412 6.27098 -1.14134 0
M  V30 1368 C 132.099 6.0924 -0.476374 0
M  V30 1369 C 133.097 6.72083 -1.21627 0
M  V30 1370 O 132.785 7.781 -2.02028 0
M  V30 1371 H 132.517 0.655818 0.163947 0
M  V30 1372 H 135.071 2.04807 -0.156021 0
M  V30 1373 H 133.301 3.24733 2.09966 0
M  V30 1374 H 134.99 3.60037 1.87424 0
M  V30 1375 H 135.756 4.84211 -0.276459 0
M  V30 1376 H 131.635 4.51996 0.90668 0
M  V30 1377 H 135.179 6.7608 -1.71935 0
M  V30 1378 H 131.076 6.43329 -0.528927 0
M  V30 1379 H 131.844 7.95034 -1.94586 0
M  V30 1380 N 134.507 -0.190092 1.56449 0
M  V30 1381 C 135.737 -0.92443 1.84764 0
M  V30 1382 C 136.145 -1.77146 0.664529 0
M  V30 1383 O 135.488 -1.79812 -0.375957 0
M  V30 1384 C 135.55 -1.86651 3.07248 0
M  V30 1385 C 135.214 -1.20094 4.40938 0
M  V30 1386 C 136.211 -0.575445 5.16706 0
M  V30 1387 C 133.896 -1.2033 4.87674 0
M  V30 1388 C 135.89 0.0388111 6.37388 0
M  V30 1389 C 133.577 -0.585214 6.08291 0
M  V30 1390 C 134.575 0.0347578 6.82991 0
M  V30 1391 O 134.263 0.643147 8.01323 0
M  V30 1392 H 133.995 -0.274974 0.617548 0
M  V30 1393 H 136.549 -0.200788 2.04416 0
M  V30 1394 H 134.779 -2.62998 2.83494 0
M  V30 1395 H 136.468 -2.46907 3.22167 0
M  V30 1396 H 137.234 -0.565728 4.81689 0
M  V30 1397 H 133.113 -1.67526 4.29484 0
M  V30 1398 H 136.657 0.523329 6.95634 0
M  V30 1399 H 132.554 -0.592451 6.42775 0
M  V30 1400 H 133.322 0.540545 8.16713 0
M  V30 1401 N 135.985 -1.50799 -0.457987 0
M  V30 1402 C 136.933 -1.71162 -1.575 0
M  V30 1403 C 137.927 -0.577592 -1.59249 0
M  V30 1404 O 139.133 -0.758443 -1.63241 0
M  V30 1405 H 135.508 -0.540468 -0.522875 0
M  V30 1406 H 137.479 -2.64837 -1.37492 0
M  V30 1407 C 136.228 -1.83496 -2.95338 0
M  V30 1408 H 135.551 -2.70153 -2.94716 0
M  V30 1409 H 136.991 -2.01765 -3.72917 0
M  V30 1410 C 135.45 -0.589694 -3.31699 0
M  V30 1411 O 135.98 0.265163 -4.00824 0
M  V30 1412 N 134.186 -0.439845 -2.87252 0
M  V30 1413 H 133.733 -1.13655 -2.31172 0
M  V30 1414 H 133.691 0.392159 -3.11945 0
M  V30 1415 N 137.463 0.71206 -1.40597 0
M  V30 1416 C 138.393 1.83889 -1.43899 0
M  V30 1417 C 139.374 1.67442 -0.299504 0
M  V30 1418 O 140.559 1.87421 -0.508624 0
M  V30 1419 C 137.689 3.21877 -1.30431 0
M  V30 1420 C 136.643 3.53002 -2.42019 0
M  V30 1421 C 135.969 4.90172 -2.13626 0
M  V30 1422 C 137.269 3.53643 -3.84362 0
M  V30 1423 H 138.963 1.81383 -2.38203 0
M  V30 1424 H 136.509 0.871237 -1.14654 0
M  V30 1425 H 138.462 4.00404 -1.31357 0
M  V30 1426 H 137.186 3.24968 -0.326049 0
M  V30 1427 H 135.845 2.76818 -2.40349 0
M  V30 1428 H 135.493 4.89869 -1.14182 0
M  V30 1429 H 135.193 5.11962 -2.88389 0
M  V30 1430 H 136.717 5.71028 -2.1624 0
M  V30 1431 H 138.131 4.22203 -3.87837 0
M  V30 1432 H 136.528 3.86961 -4.58673 0
M  V30 1433 H 137.598 2.52954 -4.13693 0
M  V30 1434 N 138.941 1.26152 0.944643 0
M  V30 1435 C 140.352 1.10454 1.50522 0
M  V30 1436 C 140.703 -0.31635 1.93633 0
M  V30 1437 O 139.828 -1.20746 1.79581 0
M  V30 1438 C 140.423 1.99891 2.73549 0
M  V30 1439 C 138.982 1.88348 3.25886 0
M  V30 1440 C 138.129 1.93447 1.9868 0
M  V30 1441 H 141.08 1.39292 0.760489 0
M  V30 1442 H 141.101 1.54477 3.47732 0
M  V30 1443 H 140.613 3.03297 2.42141 0
M  V30 1444 H 138.714 0.878636 3.62092 0
M  V30 1445 H 138.827 2.73696 3.93227 0
M  V30 1446 H 137.191 1.37456 2.14425 0
M  V30 1447 H 137.974 2.98476 1.69607 0
M  V30 1448 N 140.419 -1.14872 1.07899 0
M  V30 1449 C 141.649 -1.89386 0.825631 0
M  V30 1450 C 142.057 -1.78565 -0.625406 0
M  V30 1451 O 141.4 -1.13918 -1.44113 0
M  V30 1452 C 141.462 -3.40206 1.16191 0
M  V30 1453 C 141.126 -3.74812 2.61467 0
M  V30 1454 C 142.123 -3.75367 3.59716 0
M  V30 1455 C 139.808 -4.0495 2.97189 0
M  V30 1456 C 141.802 -4.05574 4.9172 0
M  V30 1457 C 139.489 -4.34821 4.29388 0
M  V30 1458 C 140.487 -4.35116 5.26463 0
M  V30 1459 O 140.175 -4.64267 6.56286 0
M  V30 1460 H 139.907 -0.606894 0.297751 0
M  V30 1461 H 142.461 -1.46438 1.44031 0
M  V30 1462 H 140.691 -3.8358 0.490214 0
M  V30 1463 H 142.38 -3.96018 0.890193 0
M  V30 1464 H 143.146 -3.52176 3.33462 0
M  V30 1465 H 139.025 -4.03876 2.22273 0
M  V30 1466 H 142.569 -4.05719 5.67484 0
M  V30 1467 H 138.466 -4.5748 4.55392 0
M  V30 1468 H 139.234 -4.82007 6.61522 0
M  V30 1469 N 141.898 -0.863906 -1.31812 0
M  V30 1470 C 143.126 -0.486111 -2.01108 0
M  V30 1471 C 143.541 0.919755 -1.64882 0
M  V30 1472 O 142.898 1.60162 -0.874893 0
M  V30 1473 C 142.949 -0.626435 -3.56031 0
M  V30 1474 O 142.67 -1.97693 -3.90959 0
M  V30 1475 C 144.171 -0.248857 -4.42601 0
M  V30 1476 H 141.391 -0.190052 -0.643523 0
M  V30 1477 H 143.935 -1.1634 -1.68182 0
M  V30 1478 H 142.09 0.00322717 -3.874 0
M  V30 1479 H 142.504 -1.98034 -4.85678 0
M  V30 1480 H 143.978 -0.398016 -5.50563 0
M  V30 1481 H 144.455 0.811489 -4.31638 0
M  V30 1482 H 145.061 -0.853971 -4.16638 0
M  V30 1483 N 143.376 1.44774 -0.622745 0
M  V30 1484 C 144.623 2.02121 -0.1239 0
M  V30 1485 C 144.951 1.48915 1.25118 0
M  V30 1486 O 144.206 0.660045 1.84233 0
M  V30 1487 C 144.505 3.57364 -0.0508323 0
M  V30 1488 C 144.171 4.29787 -1.36358 0
M  V30 1489 C 142.833 4.4929 -1.72314 0
M  V30 1490 C 145.185 4.71062 -2.23048 0
M  V30 1491 C 142.513 5.07325 -2.94682 0
M  V30 1492 C 144.865 5.30452 -3.44679 0
M  V30 1493 C 143.529 5.48175 -3.80868 0
M  V30 1494 H 142.799 0.739612 -0.0453381 0
M  V30 1495 H 145.446 1.73648 -0.807389 0
M  V30 1496 H 143.751 3.85202 0.715991 0
M  V30 1497 H 145.448 3.99456 0.351533 0
M  V30 1498 H 142.038 4.14932 -1.07375 0
M  V30 1499 H 146.222 4.55715 -1.96565 0
M  V30 1500 H 141.478 5.19235 -3.22809 0
M  V30 1501 H 145.652 5.61385 -4.12092 0
M  V30 1502 H 143.279 5.92912 -4.75773 0
M  V30 1503 N 144.854 0.36279 1.53368 0
M  V30 1504 C 146.102 -0.227326 2.00817 0
M  V30 1505 C 146.423 -1.49511 1.25186 0
M  V30 1506 O 145.693 -1.92482 0.364348 0
M  V30 1507 H 144.273 -0.0869923 0.741917 0
M  V30 1508 H 146.935 0.488381 1.88682 0
M  V30 1509 H 146.031 -0.456273 3.08747 0
M  V30 1510 N 146.332 -1.57332 0.0918853 0
M  V30 1511 C 147.264 -2.10869 -0.898168 0
M  V30 1512 C 148.277 -1.04521 -1.24817 0
M  V30 1513 O 149.466 -1.31977 -1.20184 0
M  V30 1514 C 146.566 -2.57083 -2.2082 0
M  V30 1515 C 145.739 -3.87229 -2.03402 0
M  V30 1516 C 144.798 -4.19324 -3.17889 0
M  V30 1517 O 143.824 -4.88598 -2.91994 0
M  V30 1518 N 145.026 -3.74471 -4.43567 0
M  V30 1519 H 147.791 -2.96439 -0.440943 0
M  V30 1520 H 145.352 -1.61631 -0.0933064 0
M  V30 1521 H 147.344 -2.75602 -2.96354 0
M  V30 1522 H 145.914 -1.76541 -2.57977 0
M  V30 1523 H 145.134 -3.7789 -1.12218 0
M  V30 1524 H 146.422 -4.72379 -1.89038 0
M  V30 1525 H 145.82 -3.18546 -4.67488 0
M  V30 1526 H 144.377 -3.98151 -5.16061 0
M  V30 1527 N 147.81 0.181792 -1.56548 0
M  V30 1528 C 149.058 0.89832 -1.81038 0
M  V30 1529 C 149.379 1.83232 -0.667164 0
M  V30 1530 O 148.649 1.93372 0.313673 0
M  V30 1531 H 147.229 0.33471 -0.667816 0
M  V30 1532 H 149.891 0.184116 -1.94028 0
M  V30 1533 H 148.987 1.4815 -2.74696 0
M  V30 1534 N 149.288 1.51039 0.449983 0
M  V30 1535 C 150.516 1.66869 1.2232 0
M  V30 1536 C 150.931 0.360727 1.85322 0
M  V30 1537 O 150.288 -0.659531 1.70166 0
M  V30 1538 C 150.339 2.77524 2.31652 0
M  V30 1539 O 150.06 4.03252 1.7123 0
M  V30 1540 C 151.561 3.04512 3.2216 0
M  V30 1541 H 148.781 0.560326 0.369155 0
M  V30 1542 H 151.325 1.97385 0.534719 0
M  V30 1543 H 149.48 2.49642 2.96239 0
M  V30 1544 H 149.894 4.64609 2.43389 0
M  V30 1545 H 151.368 3.85551 3.95038 0
M  V30 1546 H 151.845 2.16415 3.8218 0
M  V30 1547 H 152.451 3.34005 2.63288 0
M  V30 1548 N 150.766 -0.704594 1.40972 0
M  V30 1549 C 151.713 -1.81862 1.42109 0
M  V30 1550 C 152.683 -1.63781 0.276593 0
M  V30 1551 O 153.868 -1.84759 0.4763 0
M  V30 1552 C 151.008 -3.19669 1.30022 0
M  V30 1553 C 150.121 -3.49246 2.54267 0
M  V30 1554 C 149.256 -4.76618 2.3454 0
M  V30 1555 C 148.295 -4.99133 3.54306 0
M  V30 1556 N 147.432 -6.17726 3.33706 0
M  V30 1557 H 152.272 -1.80226 2.37324 0
M  V30 1558 H 149.809 -0.880238 1.17857 0
M  V30 1559 H 151.767 -3.99263 1.21018 0
M  V30 1560 H 150.397 -3.20506 0.384192 0
M  V30 1561 H 149.449 -2.64125 2.73756 0
M  V30 1562 H 150.761 -3.61788 3.43381 0
M  V30 1563 H 149.915 -5.64249 2.22952 0
M  V30 1564 H 148.654 -4.66305 1.42867 0
M  V30 1565 H 147.659 -4.09953 3.66359 0
M  V30 1566 H 148.884 -5.11311 4.4692 0
M  V30 1567 H 146.83 -6.08642 2.44725 0
M  V30 1568 H 146.747 -6.30995 4.16391 0
M  V30 1569 H 148.015 -7.08115 3.25873 0
M  V30 1570 N 152.244 -1.26651 -0.937939 0
M  V30 1571 C 153.174 -1.10993 -2.05433 0
M  V30 1572 C 154.155 -0.0142161 -1.70094 0
M  V30 1573 O 155.34 -0.186837 -1.93299 0
M  V30 1574 C 152.47 -0.745561 -3.39203 0
M  V30 1575 C 151.424 -1.79337 -3.88616 0
M  V30 1576 C 150.75 -1.28324 -5.19073 0
M  V30 1577 C 152.05 -3.19553 -4.13138 0
M  V30 1578 H 153.744 -2.0438 -2.1879 0
M  V30 1579 H 151.29 -0.984041 -1.05131 0
M  V30 1580 H 153.243 -0.622888 -4.16771 0
M  V30 1581 H 151.967 0.22401 -3.25831 0
M  V30 1582 H 150.626 -1.90477 -3.13231 0
M  V30 1583 H 150.274 -0.303414 -5.02084 0
M  V30 1584 H 149.974 -1.98369 -5.53103 0
M  V30 1585 H 151.498 -1.1733 -5.99221 0
M  V30 1586 H 152.912 -3.11471 -4.81309 0
M  V30 1587 H 151.309 -3.87218 -4.58457 0
M  V30 1588 H 152.379 -3.65368 -3.18801 0
M  V30 1589 N 153.722 1.14298 -1.08507 0
M  V30 1590 C 154.632 2.23027 -0.727753 0
M  V30 1591 C 155.648 1.71952 0.26619 0
M  V30 1592 O 156.824 2.011 0.109882 0
M  V30 1593 C 153.889 3.46403 -0.143541 0
M  V30 1594 C 152.95 4.12413 -1.19223 0
M  V30 1595 C 152.183 5.29899 -0.635798 0
M  V30 1596 O 152.406 5.67796 0.544393 0
M  V30 1597 O 151.34 5.85717 -1.38634 0
M  V30 1598 H 155.166 2.55945 -1.63481 0
M  V30 1599 H 152.751 1.22248 -0.858817 0
M  V30 1600 H 154.633 4.21018 0.179404 0
M  V30 1601 H 153.308 3.15206 0.736659 0
M  V30 1602 H 152.215 3.39667 -1.56772 0
M  V30 1603 H 153.548 4.47718 -2.04474 0
M  V30 1604 N 155.201 0.870884 1.31352 0
M  V30 1605 C 156.45 0.478408 1.95944 0
M  V30 1606 C 156.763 -0.974493 1.69597 0
M  V30 1607 O 157.969 -1.47316 2.28058 0
M  V30 1608 C 156.425 0.804609 3.50791 0
M  V30 1609 C 156.033 2.27433 3.85977 0
M  V30 1610 C 157.777 0.480648 4.2177 0
M  V30 1611 C 155.684 2.5429 5.33939 0
M  V30 1612 H 154.614 0.175175 0.733369 0
M  V30 1613 H 157.265 1.06391 1.4951 0
M  V30 1614 H 155.647 0.148347 3.95722 0
M  V30 1615 H 156.821 2.97373 3.52002 0
M  V30 1616 H 155.136 2.56442 3.28065 0
M  V30 1617 H 157.733 0.658519 5.30629 0
M  V30 1618 H 158.076 -0.578979 4.12254 0
M  V30 1619 H 158.609 1.09349 3.82476 0
M  V30 1620 H 155.348 3.58939 5.48491 0
M  V30 1621 H 154.868 1.88945 5.69263 0
M  V30 1622 H 156.547 2.39066 6.01212 0
M  V30 1623 N 156.679 -1.44442 0.630414 0
M  V30 1624 C 157.626 -2.30678 -0.0749355 0
M  V30 1625 C 158.596 -1.4344 -0.837502 0
M  V30 1626 O 159.781 -1.72343 -0.818684 0
M  V30 1627 C 156.921 -3.28706 -1.05103 0
M  V30 1628 C 156.034 -4.31046 -0.286954 0
M  V30 1629 C 155.169 -5.16167 -1.2548 0
M  V30 1630 C 154.208 -6.10216 -0.479843 0
M  V30 1631 N 153.345 -6.88039 -1.39811 0
M  V30 1632 H 158.185 -2.90454 0.666386 0
M  V30 1633 H 155.722 -1.43107 0.340404 0
M  V30 1634 H 157.68 -3.84027 -1.63031 0
M  V30 1635 H 156.31 -2.70632 -1.75949 0
M  V30 1636 H 155.362 -3.78203 0.408243 0
M  V30 1637 H 156.674 -4.97794 0.316657 0
M  V30 1638 H 155.828 -5.76002 -1.90544 0
M  V30 1639 H 154.567 -4.49491 -1.89233 0
M  V30 1640 H 153.572 -5.49491 0.184295 0
M  V30 1641 H 154.797 -6.78928 0.152965 0
M  V30 1642 H 152.743 -6.24032 -2.02287 0
M  V30 1643 H 152.66 -7.51223 -0.848508 0
M  V30 1644 H 153.928 -7.52397 -2.03762 0
M  V30 1645 N 158.157 -0.370918 -1.53173 0
M  V30 1646 C 159.573 -0.0200818 -1.59587 0
M  V30 1647 C 159.773 1.46279 -1.38581 0
M  V30 1648 O 158.829 2.22506 -1.19363 0
M  V30 1649 C 160.142 -0.4808 -2.96831 0
M  V30 1650 C 161.69 -0.435477 -3.09956 0
M  V30 1651 C 162.165 -0.872092 -4.4962 0
M  V30 1652 N 163.656 -0.827364 -4.55751 0
M  V30 1653 C 164.391 -1.13683 -5.62018 0
M  V30 1654 N 163.887 -1.51584 -6.76014 0
M  V30 1655 N 165.68 -1.05927 -5.52029 0
M  V30 1656 H 157.831 -1.33652 -1.65079 0
M  V30 1657 H 160.094 -0.546634 -0.774529 0
M  V30 1658 H 159.8 -1.51577 -3.1736 0
M  V30 1659 H 159.674 0.129796 -3.76977 0
M  V30 1660 H 162.061 0.590371 -2.89134 0
M  V30 1661 H 162.142 -1.08164 -2.31806 0
M  V30 1662 H 161.786 -1.89608 -4.71181 0
M  V30 1663 H 161.716 -0.203127 -5.26208 0
M  V30 1664 H 164.207 -0.548216 -3.73902 0
M  V30 1665 H 164.52 -1.73609 -7.53047 0
M  V30 1666 H 162.865 -1.55454 -6.77391 0
M  V30 1667 H 166.056 -0.762321 -4.61851 0
M  V30 1668 H 166.229 -1.30378 -6.34749 0
M  V30 1669 O 159.674 1.59701 -0.240351 0
M  V30 1670 H 160.365 1.90754 0.336524 0
M  V30 END ATOM
M  V30 BEGIN BOND
M  V30 END BOND
M  V30 END CTAB
M  END
$$$$
