drugbank_target|P06010 Reaction center protein M chain (DB04147; DB04464; DB07392; DB07551; DB07552; DB08215; DB08689; DB08690)
 OpenBabel12092120423D

  0  0  0     0  0            999 V3000
M  V30 BEGIN CTAB
M  V30 COUNTS 5024 5128 0 0 0
M  V30 BEGIN ATOM
M  V30 1 H -0.908 1.98254 -0.117106 0
M  V30 2 N 0 1.576 0 0
M  V30 3 C 0.933 2.03868 1.02534 0
M  V30 4 C 1.911 0.928543 1.3348 0
M  V30 5 O 3.095 1.19667 1.45644 0
M  V30 6 C 0.222 2.43627 2.35294 0
M  V30 7 C -0.732 3.65373 2.2001 0
M  V30 8 S 0.101 5.13292 1.52614 0
M  V30 9 C 1.257 5.56322 2.86805 0
M  V30 10 H 1.49 2.90518 0.631377 0
M  V30 11 H -0.977 1.52953 0.210867 0
M  V30 12 H 0.981 2.67203 3.11629 0
M  V30 13 H -0.358 1.57376 2.7183 0
M  V30 14 H -1.165 3.90944 3.18086 0
M  V30 15 H -1.563 3.418 1.51819 0
M  V30 16 H 0.729 5.58782 3.83104 0
M  V30 17 H 1.672 6.56266 2.65933 0
M  V30 18 H 2.08 4.83886 2.90714 0
M  V30 19 N 1.4781 -0.272755 1.55222 0
M  V30 20 C 2.4411 -1.32041 1.87344 0
M  V30 21 C 3.4411 -1.42342 0.74803 0
M  V30 22 O 4.6311 -1.41488 1.0162 0
M  V30 23 C 1.7631 -2.70173 2.07893 0
M  V30 24 H 2.9561 -1.04789 2.80997 0
M  V30 25 H 0.5091 -0.51083 1.47717 0
M  V30 26 H 1.2441 -3.02605 1.16622 0
M  V30 27 H 1.0291 -2.64082 2.89833 0
M  V30 28 H 2.5191 -3.45869 2.34017 0
M  V30 29 N 2.9562 -1.48159 -0.537278 0
M  V30 30 C 4.2332 -1.46291 -1.29839 0
M  V30 31 C 4.6132 -0.170613 -2.10409 0
M  V30 32 O 3.9612 0.847746 -2.12192 0
M  V30 33 C 4.1712 -2.72055 -2.18603 0
M  V30 34 C 5.5192 -3.20087 -2.7898 0
M  V30 35 O 6.5432 -2.72921 -2.28894 0
M  V30 36 O 5.4022 -4.02138 -3.70064 0
M  V30 37 H 2.4962 -0.583906 -0.585647 0
M  V30 38 H 5.0422 -1.60384 -0.554534 0
M  V30 39 H 3.8142 -3.57628 -1.58801 0
M  V30 40 H 3.4372 -2.60646 -3.00249 0
M  V30 41 N 4.4343 0.785586 -1.36625 0
M  V30 42 C 5.6643 1.5722 -1.34036 0
M  V30 43 C 6.0723 1.89033 0.0795062 0
M  V30 44 O 5.4153 1.50881 1.04789 0
M  V30 45 C 5.4773 2.91759 -2.10041 0
M  V30 46 C 5.1413 2.82654 -3.59104 0
M  V30 47 C 6.1383 2.54634 -4.53274 0
M  V30 48 C 3.8233 3.01111 -4.02042 0
M  V30 49 C 5.8173 2.45177 -5.88359 0
M  V30 50 C 3.5043 2.91276 -5.37216 0
M  V30 51 C 4.5023 2.63348 -6.30188 0
M  V30 52 O 4.1903 2.53514 -7.6288 0
M  V30 53 H 3.9223 0.494177 -0.461265 0
M  V30 54 H 6.4763 0.982632 -1.8037 0
M  V30 55 H 4.7063 3.52781 -1.58375 0
M  V30 56 H 6.3953 3.53059 -2.00261 0
M  V30 57 H 7.1613 2.40073 -4.21414 0
M  V30 58 H 3.0403 3.21854 -3.30047 0
M  V30 59 H 6.5843 2.23299 -6.60896 0
M  V30 60 H 2.4813 3.054 -5.68684 0
M  V30 61 H 3.2493 2.68967 -7.73045 0
M  V30 62 N 5.9124 1.20967 1.01018 0
M  V30 63 C 6.8444 0.922059 2.09835 0
M  V30 64 C 7.8574 -0.0927106 1.62536 0
M  V30 65 O 9.0464 0.139127 1.77957 0
M  V30 66 C 6.1464 0.362004 3.36961 0
M  V30 67 C 5.3194 1.42986 4.13369 0
M  V30 68 C 4.3784 0.879976 5.1879 0
M  V30 69 O 3.4044 1.56219 5.47343 0
M  V30 70 N 4.6064 -0.307396 5.79686 0
M  V30 71 H 7.3714 1.8588 2.35093 0
M  V30 72 H 4.9324 1.11422 1.1746 0
M  V30 73 H 6.9244 -0.0201474 4.04695 0
M  V30 74 H 5.4944 -0.479437 3.08902 0
M  V30 75 H 4.7144 1.98608 3.40512 0
M  V30 76 H 6.0024 2.14885 4.61196 0
M  V30 77 H 5.4004 -0.878796 5.58832 0
M  V30 78 H 3.9574 -0.631115 6.48737 0
M  V30 79 N 7.3905 -1.2043 1.01659 0
M  V30 80 C 8.6185 -1.93777 0.725132 0
M  V30 81 C 9.0335 -1.74772 -0.714166 0
M  V30 82 O 8.3905 -1.06169 -1.4844 0
M  V30 83 C 8.4415 -3.45876 1.05129 0
M  V30 84 O 8.1625 -3.6426 2.43406 0
M  V30 85 C 9.6635 -4.36368 0.780891 0
M  V30 86 H 6.8835 -0.615901 0.266284 0
M  V30 87 H 9.4275 -1.52922 1.35776 0
M  V30 88 H 7.5825 -3.8461 0.464065 0
M  V30 89 H 7.9965 -4.58246 2.55169 0
M  V30 90 H 9.4705 -5.41743 1.05918 0
M  V30 91 H 9.9475 -4.38275 -0.284937 0
M  V30 92 H 10.5535 -4.03296 1.35027 0
M  V30 93 N 8.8686 -0.792821 -1.36206 0
M  V30 94 C 10.1176 -0.363353 -1.984 0
M  V30 95 C 10.4306 1.07172 -1.63626 0
M  V30 96 O 11.6366 1.60362 -2.19081 0
M  V30 97 C 10.0926 -0.59872 -3.54885 0
M  V30 98 C 9.7006 -2.04543 -3.9858 0
M  V30 99 C 11.4446 -0.233926 -4.23855 0
M  V30 100 C 9.3516 -2.22727 -5.47856 0
M  V30 101 H 8.2816 -0.13212 -0.742334 0
M  V30 102 H 10.9326 -0.974935 -1.55458 0
M  V30 103 H 9.3146 0.0826222 -3.95914 0
M  V30 104 H 10.4886 -2.76345 -3.68741 0
M  V30 105 H 8.8036 -2.36879 -3.42458 0
M  V30 106 H 11.4006 -0.348027 -5.33566 0
M  V30 107 H 11.7436 0.818351 -4.08177 0
M  V30 108 H 12.2766 -0.868639 -3.882 0
M  V30 109 H 9.0156 -3.2635 -5.68486 0
M  V30 110 H 8.5356 -1.55434 -5.7931 0
M  V30 111 H 10.2146 -2.03607 -6.14128 0
M  V30 112 N 10.3467 1.47872 -0.545128 0
M  V30 113 C 11.5767 2.06589 -0.0210534 0
M  V30 114 C 11.9847 1.39997 1.27269 0
M  V30 115 O 11.3277 0.486421 1.77143 0
M  V30 116 C 11.3897 3.58574 0.257933 0
M  V30 117 C 11.0537 4.47132 -0.944573 0
M  V30 118 C 12.0507 4.85986 -1.84699 0
M  V30 119 C 9.7357 4.88821 -1.15584 0
M  V30 120 C 11.7297 5.65314 -2.94446 0
M  V30 121 C 9.4167 5.67916 -2.25642 0
M  V30 122 C 10.4147 6.06073 -3.14905 0
M  V30 123 O 10.1027 6.83578 -4.23057 0
M  V30 124 H 9.8347 0.674971 -0.0372899 0
M  V30 125 H 12.3887 1.91037 -0.754599 0
M  V30 126 H 10.6187 3.72295 1.04564 0
M  V30 127 H 12.3077 3.99356 0.72592 0
M  V30 128 H 13.0737 4.54388 -1.69577 0
M  V30 129 H 8.9527 4.58595 -0.470279 0
M  V30 130 H 12.4967 5.95016 -3.64145 0
M  V30 131 H 8.3937 5.98927 -2.40742 0
M  V30 132 H 9.1617 7.01954 -4.20954 0
M  V30 133 N 11.8248 0.280983 1.55075 0
M  V30 134 C 13.0528 -0.337293 2.04132 0
M  V30 135 C 13.4678 -1.4903 1.15912 0
M  V30 136 O 12.8248 -1.81606 0.180459 0
M  V30 137 C 12.8758 -0.812706 3.52246 0
M  V30 138 O 12.5968 0.294387 4.3711 0
M  V30 139 C 14.0978 -1.4982 4.17216 0
M  V30 140 H 11.3178 -0.0761638 0.666663 0
M  V30 141 H 13.8618 0.414787 2.00249 0
M  V30 142 H 12.0168 -1.51486 3.56554 0
M  V30 143 H 12.4308 -0.0721325 5.2445 0
M  V30 144 H 13.9048 -1.7822 5.22438 0
M  V30 145 H 14.3818 -2.43168 3.65741 0
M  V30 146 H 14.9878 -0.839742 4.16927 0
M  V30 147 N 13.3029 -1.57598 0.00835791 0
M  V30 148 C 14.2349 -2.05811 -1.00868 0
M  V30 149 C 15.2479 -0.977579 -1.30182 0
M  V30 150 O 16.4369 -1.25421 -1.27011 0
M  V30 151 C 13.5369 -2.45016 -2.34137 0
M  V30 152 C 12.7099 -3.75903 -2.23643 0
M  V30 153 C 11.7689 -4.01884 -3.3967 0
M  V30 154 O 10.7949 -4.72433 -3.17483 0
M  V30 155 N 11.9969 -3.50432 -4.62793 0
M  V30 156 H 14.7619 -2.93684 -0.597458 0
M  V30 157 H 12.3229 -1.60909 -0.178852 0
M  V30 158 H 14.3149 -2.59506 -3.10546 0
M  V30 159 H 12.8849 -1.62618 -2.66972 0
M  V30 160 H 12.1049 -3.7141 -1.32091 0
M  V30 161 H 13.3929 -4.61695 -2.13812 0
M  V30 162 H 12.7909 -2.93317 -4.83716 0
M  V30 163 H 11.3479 -3.70236 -5.3644 0
M  V30 164 N 14.781 0.264519 -1.55364 0
M  V30 165 C 16.03 0.992812 -1.75574 0
M  V30 166 C 16.343 1.87142 -0.568979 0
M  V30 167 O 17.549 2.63513 -0.653682 0
M  V30 168 C 16.005 1.81519 -3.10771 0
M  V30 169 C 15.613 0.984839 -4.37041 0
M  V30 170 C 17.357 2.53727 -3.40327 0
M  V30 171 C 15.264 1.80209 -5.63275 0
M  V30 172 H 14.194 0.374412 -0.65447 0
M  V30 173 H 16.845 0.248138 -1.81815 0
M  V30 174 H 15.227 2.60115 -2.98591 0
M  V30 175 H 16.401 0.242455 -4.60162 0
M  V30 176 H 14.716 0.37691 -4.14691 0
M  V30 177 H 17.313 3.15292 -4.3185 0
M  V30 178 H 17.656 3.24447 -2.60845 0
M  V30 179 H 18.189 1.82156 -3.53644 0
M  V30 180 H 14.928 1.13896 -6.45529 0
M  V30 181 H 14.448 2.52022 -5.44284 0
M  V30 182 H 16.127 2.37364 -6.01887 0
M  V30 183 N 16.2591 1.48442 0.529413 0
M  V30 184 C 17.1911 1.59095 1.64989 0
M  V30 185 C 18.2041 0.475212 1.5571 0
M  V30 186 O 19.3931 0.746081 1.6216 0
M  V30 187 C 16.4931 1.50518 3.0364 0
M  V30 188 C 15.6661 2.77142 3.38395 0
M  V30 189 C 14.7251 2.62012 4.56329 0
M  V30 190 O 13.7511 3.35898 4.59522 0
M  V30 191 N 14.9531 1.71667 5.54536 0
M  V30 192 H 17.7181 2.55723 1.56287 0
M  V30 193 H 15.2791 1.45173 0.716697 0
M  V30 194 H 17.2711 1.38091 3.80412 0
M  V30 195 H 15.8411 0.618627 3.06418 0
M  V30 196 H 15.0611 3.0413 2.50796 0
M  V30 197 H 16.3491 3.61146 3.58401 0
M  V30 198 H 15.7471 1.10841 5.54735 0
M  V30 199 H 14.3041 1.65178 6.30523 0
M  V30 200 N 17.7372 -0.778329 1.37039 0
M  V30 201 C 18.7002 -1.87301 1.32102 0
M  V30 202 C 19.7002 -1.59198 0.226405 0
M  V30 203 O 20.8902 -1.67403 0.481861 0
M  V30 204 C 18.0222 -3.24309 1.05055 0
M  V30 205 H 19.2152 -1.93093 2.29467 0
M  V30 206 H 16.7682 -0.977358 1.21973 0
M  V30 207 H 17.5032 -3.24196 0.0819373 0
M  V30 208 H 17.2882 -3.46098 1.84279 0
M  V30 209 H 18.7782 -4.04382 1.04234 0
M  V30 210 N 19.2153 -1.21501 -1.00376 0
M  V30 211 C 20.6313 -0.972629 -1.26539 0
M  V30 212 C 20.8313 0.340257 -1.98606 0
M  V30 213 O 19.8873 1.06561 -2.28913 0
M  V30 214 C 21.2003 -2.16404 -2.08781 0
M  V30 215 C 22.7483 -2.20643 -2.22004 0
M  V30 216 C 23.2233 -3.39306 -3.07629 0
M  V30 217 N 24.7143 -3.39401 -3.15217 0
M  V30 218 C 25.4493 -4.27867 -3.81729 0
M  V30 219 N 24.9453 -5.26533 -4.5026 0
M  V30 220 N 26.7383 -4.15672 -3.78382 0
M  V30 221 H 18.8893 -2.05929 -0.520281 0
M  V30 222 H 21.1523 -0.901803 -0.292328 0
M  V30 223 H 20.8583 -3.11554 -1.63178 0
M  V30 224 H 20.7323 -2.15567 -3.09533 0
M  V30 225 H 23.1193 -1.26048 -2.66825 0
M  V30 226 H 23.2003 -2.25523 -1.20718 0
M  V30 227 H 22.8443 -4.34195 -2.63509 0
M  V30 228 H 22.7743 -3.31665 -4.09031 0
M  V30 229 H 25.2653 -2.67997 -2.66432 0
M  V30 230 H 25.5783 -5.90337 -4.98721 0
M  V30 231 H 23.9233 -5.30457 -4.49044 0
M  V30 232 H 27.1143 -3.3785 -3.23998 0
M  V30 233 H 27.2873 -4.84825 -4.2994 0
M  V30 234 N 20.6934 1.19889 -1.02296 0
M  V30 235 C 21.9414 1.89046 -0.714558 0
M  V30 236 C 22.2624 1.79636 0.758681 0
M  V30 237 O 21.5324 1.20292 1.54618 0
M  V30 238 H 20.1124 0.699802 -0.261317 0
M  V30 239 H 22.7744 1.45574 -1.29592 0
M  V30 240 H 21.8704 2.95524 -1.0036 0
M  V30 241 N 22.1715 0.800033 1.35784 0
M  V30 242 C 23.5825 0.439142 1.81462 0
M  V30 243 C 23.9335 -1.03813 1.66485 0
M  V30 244 O 23.0585 -1.80626 1.19177 0
M  V30 245 C 23.6535 0.790314 3.29453 0
M  V30 246 C 22.2125 0.482111 3.733 0
M  V30 247 C 21.3595 1.01938 2.57883 0
M  V30 248 H 24.3105 0.992254 1.23855 0
M  V30 249 H 24.3315 0.0853677 3.80404 0
M  V30 250 H 23.8435 1.86554 3.40322 0
M  V30 251 H 21.9445 -0.584652 3.67984 0
M  V30 252 H 22.0575 1.01015 4.6833 0
M  V30 253 H 20.4215 0.442043 2.50835 0
M  V30 254 H 21.2045 2.10059 2.71533 0
M  V30 255 N 23.6496 -1.47581 0.552962 0
M  V30 256 C 24.5996 -2.26961 -0.217423 0
M  V30 257 C 25.5836 -1.34099 -0.889168 0
M  V30 258 O 26.7756 -1.58483 -0.788176 0
M  V30 259 C 23.9046 -3.19756 -1.24944 0
M  V30 260 C 22.9906 -4.20097 -0.581327 0
M  V30 261 N 23.3816 -5.04614 0.346171 0
M  V30 262 C 21.6796 -4.38099 -0.835767 0
M  V30 263 C 22.3806 -5.77052 0.733854 0
M  V30 264 N 21.3566 -5.43526 0.0896567 0
M  V30 265 H 25.1586 -2.89688 0.495761 0
M  V30 266 H 22.6726 -1.58068 0.372597 0
M  V30 267 H 24.6696 -3.75305 -1.81527 0
M  V30 268 H 23.3296 -2.58585 -1.96376 0
M  V30 269 H 24.3406 -5.12869 0.720098 0
M  V30 270 H 21.0176 -3.88102 -1.53892 0
M  V30 271 H 22.4076 -6.5504 1.49574 0
M  V30 272 N 25.1277 -0.289203 -1.54924 0
M  V30 273 C 26.3767 0.324231 -1.99077 0
M  V30 274 C 26.6897 1.5591 -1.18117 0
M  V30 275 O 27.8957 2.24637 -1.52481 0
M  V30 276 C 26.3517 0.628209 -3.54375 0
M  V30 277 C 25.9597 -0.587647 -4.44129 0
M  V30 278 C 27.7037 1.20349 -4.07083 0
M  V30 279 C 25.6107 -0.257475 -5.90839 0
M  V30 280 H 24.5407 0.124924 -0.743579 0
M  V30 281 H 27.1917 -0.396063 -1.79175 0
M  V30 282 H 25.5737 1.40778 -3.70132 0
M  V30 283 H 26.7477 -1.36418 -4.40144 0
M  V30 284 H 25.0627 -1.08074 -4.0213 0
M  V30 285 H 27.6597 1.46456 -5.14252 0
M  V30 286 H 28.0027 2.14195 -3.56968 0
M  V30 287 H 28.5357 0.485889 -3.94821 0
M  V30 288 H 25.2747 -1.16419 -6.45079 0
M  V30 289 H 24.7947 0.482018 -5.9786 0
M  V30 290 H 26.4737 0.145238 -6.46837 0
M  V30 291 N 26.6058 1.57591 -0.0167156 0
M  V30 292 C 27.8338 1.95575 0.675128 0
M  V30 293 C 28.2488 0.892542 1.6637 0
M  V30 294 O 27.6058 -0.126912 1.82058 0
M  V30 295 C 27.6568 3.33608 1.39239 0
M  V30 296 O 27.3778 4.3585 0.443444 0
M  V30 297 C 28.8788 3.86151 2.17721 0
M  V30 298 H 26.0988 0.644423 0.186978 0
M  V30 299 H 28.6428 2.0437 -0.0728 0
M  V30 300 H 26.7978 3.2607 2.09182 0
M  V30 301 H 27.2118 5.158 0.951358 0
M  V30 302 H 28.6858 4.85114 2.63379 0
M  V30 303 H 29.1628 3.19738 3.01105 0
M  V30 304 H 29.7688 3.96918 1.52761 0
M  V30 305 N 28.0839 -0.256276 1.55502 0
M  V30 306 C 29.3299 -0.987079 1.77157 0
M  V30 307 C 29.6629 -1.85327 0.580315 0
M  V30 308 O 28.9379 -1.89874 -0.421686 0
M  V30 309 C 29.2209 -1.85553 3.08613 0
M  V30 310 C 29.0739 -1.01816 4.38125 0
M  V30 311 C 30.3929 -2.8397 3.36228 0
M  V30 312 H 27.5119 -0.357428 0.644526 0
M  V30 313 H 30.1539 -0.258239 1.88237 0
M  V30 314 H 28.3039 -2.47695 2.99298 0
M  V30 315 H 29.9759 -0.416159 4.59419 0
M  V30 316 H 28.2189 -0.322178 4.32602 0
M  V30 317 H 28.8899 -1.65939 5.26468 0
M  V30 318 H 31.3659 -2.31964 3.45445 0
M  V30 319 H 30.2419 -3.41864 4.29442 0
M  V30 320 H 30.5029 -3.59955 2.56681 0
M  V30 321 N 29.562 -1.4872 -0.521534 0
M  V30 322 C 30.787 -1.61101 -1.30618 0
M  V30 323 C 31.212 -0.274611 -1.86085 0
M  V30 324 O 30.57 0.754937 -1.64834 0
M  V30 325 C 30.618 -2.66709 -2.4269 0
M  V30 326 O 29.722 -2.24456 -3.45967 0
M  V30 327 H 29.063 -0.539921 -0.386499 0
M  V30 328 H 31.593 -1.94767 -0.626645 0
M  V30 329 H 31.603 -2.88245 -2.88754 0
M  V30 330 H 30.278 -3.63727 -2.01682 0
M  V30 331 H 28.855 -2.13168 -3.05964 0
M  V30 332 N 31.0401 0.771051 -1.3745 0
M  V30 333 C 32.2881 1.52661 -1.32435 0
M  V30 334 C 32.6091 1.9479 0.0905024 0
M  V30 335 O 31.8791 1.66348 1.03466 0
M  V30 336 H 30.4591 0.566218 -0.487244 0
M  V30 337 H 33.1211 0.917636 -1.71946 0
M  V30 338 H 32.2171 2.42568 -1.96385 0
M  V30 339 N 32.5182 1.22032 0.997298 0
M  V30 340 C 33.4282 1.00271 2.12092 0
M  V30 341 C 34.4442 -0.047621 1.73935 0
M  V30 342 O 35.6202 0.144136 2.00884 0
M  V30 343 C 32.6852 0.578449 3.4184 0
M  V30 344 C 31.7462 1.70189 3.94125 0
M  V30 345 C 30.9792 1.29778 5.17681 0
M  V30 346 O 31.2022 0.174676 5.70132 0
M  V30 347 O 30.1362 2.11261 5.63607 0
M  V30 348 H 33.9622 1.94398 2.3333 0
M  V30 349 H 31.5472 1.00587 1.10465 0
M  V30 350 H 33.4292 0.351998 4.19927 0
M  V30 351 H 32.1042 -0.334019 3.21972 0
M  V30 352 H 31.0112 1.98282 3.1723 0
M  V30 353 H 32.3442 2.59206 4.18417 0
M  V30 354 N 33.9963 -1.19345 1.0293 0
M  V30 355 C 35.2423 -1.89585 0.736824 0
M  V30 356 C 35.5973 -1.78148 -0.726703 0
M  V30 357 O 34.8903 -1.16332 -1.52242 0
M  V30 358 C 35.0843 -3.39292 1.12319 0
M  V30 359 C 34.9133 -3.65298 2.62273 0
M  V30 360 C 33.6833 -3.83304 3.29251 0
M  V30 361 C 35.8813 -3.6682 3.60482 0
M  V30 362 N 33.8633 -3.96944 4.68304 0
M  V30 363 C 35.2343 -3.86037 4.85155 0
M  V30 364 C 37.2893 -3.49848 3.54275 0
M  V30 365 C 35.9923 -3.9004 6.04369 0
M  V30 366 C 38.0183 -3.55129 4.72903 0
M  V30 367 C 37.3803 -3.74831 5.9639 0
M  V30 368 H 33.4793 -0.712856 0.321497 0
M  V30 369 H 36.0633 -1.43427 1.31669 0
M  V30 370 H 34.2343 -3.84172 0.571524 0
M  V30 371 H 35.9663 -3.97055 0.78292 0
M  V30 372 H 32.7213 -3.82211 2.79663 0
M  V30 373 H 33.1453 -4.07613 5.40538 0
M  V30 374 H 37.7873 -3.33572 2.59788 0
M  V30 375 H 35.5053 -4.05108 6.99223 0
M  V30 376 H 39.0913 -3.43287 4.69729 0
M  V30 377 H 37.9713 -3.78792 6.86649 0
M  V30 378 N 35.4744 -0.807222 -1.35358 0
M  V30 379 C 36.7224 -0.387122 -1.98358 0
M  V30 380 C 37.0434 1.04942 -1.64354 0
M  V30 381 O 36.3134 1.72615 -0.926339 0
M  V30 382 H 34.8934 -0.140154 -0.733734 0
M  V30 383 H 37.5554 -1.0332 -1.6526 0
M  V30 384 H 36.6514 -0.493352 -3.08176 0
M  V30 385 N 36.9525 1.47285 -0.560781 0
M  V30 386 C 38.2295 1.9558 0.0277798 0
M  V30 387 C 38.6095 1.5034 1.48192 0
M  V30 388 O 37.9575 0.743882 2.16052 0
M  V30 389 C 38.1675 3.48789 -0.121418 0
M  V30 390 C 39.5155 4.24594 0.0220912 0
M  V30 391 O 40.5395 3.56166 -0.0491439 0
M  V30 392 O 39.3985 5.46217 0.175958 0
M  V30 393 H 36.4925 0.824663 0.0621342 0
M  V30 394 H 39.0385 1.5767 -0.627556 0
M  V30 395 H 37.8105 3.74533 -1.13316 0
M  V30 396 H 37.4335 3.93473 0.571366 0
M  V30 397 N 38.4306 0.297415 1.54768 0
M  V30 398 C 39.3786 -0.596051 2.24833 0
M  V30 399 C 40.3726 -1.13992 1.25308 0
M  V30 400 O 41.5786 -1.09098 1.4317 0
M  V30 401 H 37.9536 -0.210814 0.721846 0
M  V30 402 H 39.9246 0.0174667 2.98395 0
M  V30 403 C 38.6736 -1.75818 2.99972 0
M  V30 404 H 37.9966 -1.3489 3.76357 0
M  V30 405 H 39.4366 -2.35949 3.52284 0
M  V30 406 C 37.8956 -2.66014 2.06732 0
M  V30 407 O 38.4256 -3.67009 1.63302 0
M  V30 408 N 36.6316 -2.33669 1.72763 0
M  V30 409 H 36.1786 -1.51586 2.08277 0
M  V30 410 H 36.1366 -2.94285 1.10652 0
M  V30 411 N 39.9087 -1.5758 0.0250728 0
M  V30 412 C 41.1857 -1.82917 -0.692873 0
M  V30 413 C 41.5657 -0.908137 -1.90568 0
M  V30 414 O 40.9137 0.0372298 -2.2847 0
M  V30 415 C 41.1237 -3.32034 -1.07492 0
M  V30 416 C 42.4717 -3.98406 -1.46826 0
M  V30 417 O 43.4957 -3.36505 -1.16801 0
M  V30 418 O 42.3547 -5.07497 -2.02754 0
M  V30 419 H 39.4487 -0.754079 -0.33955 0
M  V30 420 H 41.9947 -1.69619 0.0524456 0
M  V30 421 H 40.7667 -3.90728 -0.211552 0
M  V30 422 H 40.3897 -3.50424 -1.87854 0
M  V30 423 N 41.3868 0.248026 -1.55636 0
M  V30 424 C 42.8028 0.596483 -1.48035 0
M  V30 425 C 43.0028 1.88386 -0.715039 0
M  V30 426 O 42.0588 2.51319 -0.243944 0
M  V30 427 C 43.3718 0.700258 -2.92433 0
M  V30 428 C 44.9198 0.792659 -3.02797 0
M  V30 429 C 45.3948 0.928005 -4.485 0
M  V30 430 N 46.8858 0.992903 -4.52433 0
M  V30 431 C 47.6208 1.11687 -5.62418 0
M  V30 432 N 47.1168 1.20645 -6.82214 0
M  V30 433 N 48.9098 1.14994 -5.50212 0
M  V30 434 H 41.0608 -0.597109 -2.03834 0
M  V30 435 H 43.3238 -0.205925 -0.925364 0
M  V30 436 H 43.0298 -0.175658 -3.51261 0
M  V30 437 H 42.9038 1.57255 -3.42857 0
M  V30 438 H 45.2908 1.65903 -2.4405 0
M  V30 439 H 45.3718 -0.104762 -2.55585 0
M  V30 440 H 45.0158 0.0661971 -5.07857 0
M  V30 441 H 44.9458 1.84045 -4.93391 0
M  V30 442 H 47.4368 0.935064 -3.66149 0
M  V30 443 H 47.7498 1.30008 -7.61786 0
M  V30 444 H 46.0948 1.17605 -6.84977 0
M  V30 445 H 49.2858 1.07643 -4.55555 0
M  V30 446 H 49.4588 1.24311 -6.35965 0
M  V30 447 N 42.8649 1.48995 0.513639 0
M  V30 448 C 44.1109 1.58076 1.27042 0
M  V30 449 C 44.4439 0.261026 1.92438 0
M  V30 450 O 43.7189 -0.734393 1.80103 0
M  V30 451 C 44.0019 2.73091 2.34719 0
M  V30 452 C 43.8549 4.14821 1.73907 0
M  V30 453 C 45.1739 2.83796 3.36375 0
M  V30 454 H 42.2929 0.575391 0.460536 0
M  V30 455 H 44.9349 1.81232 0.570516 0
M  V30 456 H 43.0849 2.53479 2.94416 0
M  V30 457 H 44.7569 4.45917 1.18135 0
M  V30 458 H 42.9999 4.21058 1.0437 0
M  V30 459 H 43.6709 4.91147 2.51949 0
M  V30 460 H 46.1469 3.01611 2.86653 0
M  V30 461 H 45.0229 3.65971 4.09093 0
M  V30 462 H 45.2839 1.92624 3.9793 0
M  V30 463 N 44.343 -0.763751 1.37857 0
M  V30 464 C 45.591 -1.51957 1.33243 0
M  V30 465 C 45.912 -1.94835 -0.0801709 0
M  V30 466 O 45.182 -1.66894 -1.02582 0
M  V30 467 H 43.762 -0.563626 0.49024 0
M  V30 468 H 46.424 -0.908504 1.7243 0
M  V30 469 H 45.52 -2.41523 1.97669 0
M  V30 470 N 45.8211 -1.22559 -0.990812 0
M  V30 471 C 46.7681 -0.997519 -2.0813 0
M  V30 472 C 47.7381 0.0814702 -1.659 0
M  V30 473 O 48.9231 -0.0685424 -1.90677 0
M  V30 474 C 46.0631 -0.583615 -3.40129 0
M  V30 475 C 45.1761 -1.7336 -3.9569 0
M  V30 476 C 44.3111 -1.26748 -5.15857 0
M  V30 477 C 43.3501 -2.38888 -5.63559 0
M  V30 478 N 42.4871 -1.93308 -6.74964 0
M  V30 479 H 47.3271 -1.93099 -2.26973 0
M  V30 480 H 44.8641 -0.962114 -1.11273 0
M  V30 481 H 46.8221 -0.324801 -4.15934 0
M  V30 482 H 45.4521 0.312845 -3.2128 0
M  V30 483 H 44.5041 -2.10669 -3.16738 0
M  V30 484 H 45.8161 -2.57704 -4.27071 0
M  V30 485 H 44.9701 -0.966173 -5.98957 0
M  V30 486 H 43.7091 -0.394272 -4.86104 0
M  V30 487 H 42.7141 -2.69805 -4.79046 0
M  V30 488 H 43.9391 -3.26728 -5.95336 0
M  V30 489 H 41.8851 -1.08352 -6.4699 0
M  V30 490 H 41.8021 -2.71217 -7.05675 0
M  V30 491 H 43.0701 -1.66252 -7.61564 0
M  V30 492 N 47.2992 1.18797 -1.03562 0
M  V30 493 C 48.7102 1.70322 -0.764676 0
M  V30 494 C 49.0612 1.82708 0.714996 0
M  V30 495 O 48.1862 1.50299 1.55689 0
M  V30 496 C 48.7812 3.09356 -1.38145 0
M  V30 497 C 47.3402 3.58114 -1.15895 0
M  V30 498 C 46.4872 2.34798 -1.4753 0
M  V30 499 H 49.4382 1.03543 -1.20268 0
M  V30 500 H 49.4592 3.72378 -0.781977 0
M  V30 501 H 48.9712 3.00309 -2.45837 0
M  V30 502 H 47.0722 3.72464 -0.100544 0
M  V30 503 H 47.1852 4.4184 -1.8524 0
M  V30 504 H 45.5492 2.38464 -0.894829 0
M  V30 505 H 46.3322 2.28375 -2.56319 0
M  V30 506 N 48.7773 0.814389 1.34928 0
M  V30 507 C 50.0243 0.398423 1.98542 0
M  V30 508 C 50.3523 -1.03638 1.64589 0
M  V30 509 O 49.6073 -1.73509 0.90516 0
M  V30 510 C 49.9063 0.537781 3.53331 0
M  V30 511 C 49.5723 1.93704 4.07172 0
M  V30 512 C 48.2343 2.31984 4.21589 0
M  V30 513 C 50.5863 2.85213 4.36237 0
M  V30 514 C 47.9143 3.61125 4.62391 0
M  V30 515 C 50.2663 4.13809 4.78482 0
M  V30 516 C 48.9303 4.52077 4.91104 0
M  V30 517 H 48.2003 0.145793 0.726516 0
M  V30 518 H 50.8473 1.03669 1.61012 0
M  V30 519 H 49.1523 -0.183906 3.91368 0
M  V30 520 H 50.8493 0.196588 4.00518 0
M  V30 521 H 47.4393 1.62966 3.96409 0
M  V30 522 H 51.6233 2.56885 4.24645 0
M  V30 523 H 46.8793 3.90612 4.70353 0
M  V30 524 H 51.0533 4.84811 4.99932 0
M  V30 525 H 48.6803 5.52196 5.22478 0
M  V30 526 N 50.2554 -1.46986 0.568584 0
M  V30 527 C 51.4854 -2.0653 0.0539173 0
M  V30 528 C 51.8934 -1.42004 -1.25026 0
M  V30 529 O 51.2364 -0.514541 -1.76347 0
M  V30 530 C 51.2984 -3.58938 -0.200854 0
M  V30 531 C 50.9624 -4.45572 1.01559 0
M  V30 532 C 51.9594 -4.82986 1.92407 0
M  V30 533 C 49.6444 -4.8692 1.23346 0
M  V30 534 C 51.6384 -5.60559 3.03402 0
M  V30 535 C 49.3254 -5.64255 2.34649 0
M  V30 536 C 50.3234 -6.00986 3.24507 0
M  V30 537 O 50.0114 -6.76761 4.33878 0
M  V30 538 H 49.7434 -0.674292 0.0480234 0
M  V30 539 H 52.2974 -1.89812 0.784896 0
M  V30 540 H 50.5274 -3.73911 -0.986279 0
M  V30 541 H 52.2164 -4.0046 -0.662294 0
M  V30 542 H 52.9824 -4.51633 1.76785 0
M  V30 543 H 48.8614 -4.57789 0.543178 0
M  V30 544 H 52.4054 -5.89147 3.73565 0
M  V30 545 H 48.3024 -5.95021 2.5024 0
M  V30 546 H 49.0704 -6.95168 4.32068 0
M  V30 547 N 51.7335 -0.305618 -1.54608 0
M  V30 548 C 52.9585 0.307562 -2.05107 0
M  V30 549 C 53.3835 1.46385 -1.18123 0
M  V30 550 O 52.7415 1.8034 -0.186324 0
M  V30 551 C 52.7895 0.73704 -3.52987 0
M  V30 552 O 51.8935 1.84134 -3.6901 0
M  V30 553 H 51.2345 0.0589143 -0.661381 0
M  V30 554 H 53.7645 -0.448807 -1.99617 0
M  V30 555 H 53.7745 1.02459 -3.94925 0
M  V30 556 H 52.4495 -0.108773 -4.15758 0
M  V30 557 H 51.0265 1.55398 -3.38978 0
M  V30 558 N 53.2116 1.57565 -0.0334293 0
M  V30 559 C 54.4416 1.95996 0.653398 0
M  V30 560 C 54.8496 0.908749 1.65947 0
M  V30 561 O 54.1926 -0.117471 1.83324 0
M  V30 562 C 54.2546 3.30589 1.41249 0
M  V30 563 C 53.9186 4.53503 0.564263 0
M  V30 564 C 54.9156 5.19647 -0.16225 0
M  V30 565 C 52.6006 4.99801 0.500398 0
M  V30 566 C 54.5946 6.30412 -0.941255 0
M  V30 567 C 52.2816 6.10448 -0.282308 0
M  V30 568 C 53.2796 6.75612 -1.00184 0
M  V30 569 O 52.9676 7.84134 -1.77171 0
M  V30 570 H 52.6996 0.65027 0.184728 0
M  V30 571 H 55.2536 2.05199 -0.0907841 0
M  V30 572 H 53.4836 3.17888 2.20191 0
M  V30 573 H 55.1726 3.53892 1.98784 0
M  V30 574 H 55.9386 4.84846 -0.12227 0
M  V30 575 H 51.8176 4.48883 1.05002 0
M  V30 576 H 55.3616 6.81208 -1.50339 0
M  V30 577 H 51.2586 6.44686 -0.323989 0
M  V30 578 H 52.0266 8.00822 -1.69194 0
M  V30 579 N 54.6897 -0.239769 1.55765 0
M  V30 580 C 55.9357 -0.963942 1.79108 0
M  V30 581 C 56.2907 -1.82689 0.60352 0
M  V30 582 O 55.5837 -1.87313 -0.403033 0
M  V30 583 C 55.7777 -1.852 3.05672 0
M  V30 584 C 55.6067 -1.07651 4.36625 0
M  V30 585 C 54.3767 -0.778738 4.99263 0
M  V30 586 C 56.5747 -0.45062 5.12322 0
M  V30 587 N 54.5567 0.0200708 6.13897 0
M  V30 588 C 55.9277 0.212429 6.19636 0
M  V30 589 C 57.9827 -0.361806 4.96584 0
M  V30 590 C 56.6857 0.955772 7.12922 0
M  V30 591 C 58.7117 0.368023 5.90254 0
M  V30 592 C 58.0737 1.01968 6.96981 0
M  V30 593 H 54.1727 -0.333601 0.707272 0
M  V30 594 H 56.7567 -0.236425 1.93259 0
M  V30 595 H 54.9277 -2.55149 2.92837 0
M  V30 596 H 56.6597 -2.51228 3.1728 0
M  V30 597 H 53.4147 -1.09229 4.60832 0
M  V30 598 H 53.8387 0.407777 6.75771 0
M  V30 599 H 58.4807 -0.851286 4.14141 0
M  V30 600 H 56.1987 1.45683 7.9486 0
M  V30 601 H 59.7847 0.437504 5.80153 0
M  V30 602 H 58.6647 1.5754 7.68213 0
M  V30 603 N 56.1678 -1.49265 -0.50573 0
M  V30 604 C 57.0978 -1.68495 -1.61653 0
M  V30 605 C 58.0788 -0.53366 -1.61512 0
M  V30 606 O 59.2638 -0.76897 -1.78327 0
M  V30 607 C 56.3938 -1.74709 -3.00157 0
M  V30 608 C 55.3478 -2.89581 -3.15162 0
M  V30 609 C 54.6738 -2.80903 -4.5497 0
M  V30 610 C 55.9738 -4.30578 -2.95634 0
M  V30 611 H 57.6678 -2.61493 -1.45814 0
M  V30 612 H 55.2138 -1.25838 -0.70005 0
M  V30 613 H 57.1668 -1.86748 -3.77761 0
M  V30 614 H 55.8908 -0.783067 -3.17074 0
M  V30 615 H 54.5498 -2.77136 -2.39982 0
M  V30 616 H 54.1978 -1.82419 -4.68756 0
M  V30 617 H 53.8978 -3.57999 -4.65951 0
M  V30 618 H 55.4218 -2.94944 -5.34641 0
M  V30 619 H 56.8358 -4.4373 -3.63011 0
M  V30 620 H 55.2328 -5.0886 -3.18091 0
M  V30 621 H 56.3028 -4.45352 -1.91806 0
M  V30 622 N 57.6459 0.756429 -1.3826 0
M  V30 623 C 58.8939 1.51248 -1.34047 0
M  V30 624 C 59.2149 1.94875 0.0698372 0
M  V30 625 O 58.4849 1.67436 1.01696 0
M  V30 626 H 57.0649 0.561018 -0.493222 0
M  V30 627 H 59.7269 0.899347 -1.7291 0
M  V30 628 H 58.8229 2.40472 -1.98947 0
M  V30 629 N 59.124 1.23083 0.984299 0
M  V30 630 C 60.071 1.00854 2.07598 0
M  V30 631 C 61.041 -0.0726709 1.65941 0
M  V30 632 O 62.226 0.0786535 1.90638 0
M  V30 633 C 59.366 0.601645 3.39815 0
M  V30 634 C 58.479 1.75456 3.94765 0
M  V30 635 C 57.614 1.29482 5.15177 0
M  V30 636 C 56.653 2.41873 5.62284 0
M  V30 637 N 55.79 1.96885 6.73929 0
M  V30 638 H 60.63 1.943 2.25946 0
M  V30 639 H 58.167 0.968001 1.10762 0
M  V30 640 H 60.125 0.346854 4.15756 0
M  V30 641 H 58.755 -0.295803 3.21442 0
M  V30 642 H 57.807 2.12346 3.15616 0
M  V30 643 H 59.119 2.59965 4.25699 0
M  V30 644 H 58.273 0.997923 5.98437 0
M  V30 645 H 57.012 0.420046 4.85888 0
M  V30 646 H 56.017 2.72342 4.77608 0
M  V30 647 H 57.242 3.29881 5.93595 0
M  V30 648 H 55.188 1.11782 6.46406 0
M  V30 649 H 55.105 2.74956 7.04227 0
M  V30 650 H 56.373 1.70289 7.60672 0
M  V30 651 N 60.6021 -1.18246 1.0419 0
M  V30 652 C 61.8511 -1.87588 0.741194 0
M  V30 653 C 62.1641 -1.81303 -0.734066 0
M  V30 654 O 63.3701 -2.46019 -1.14834 0
M  V30 655 C 61.8261 -3.36538 1.27555 0
M  V30 656 C 61.4341 -3.51349 2.77953 0
M  V30 657 C 63.1781 -4.11273 1.05143 0
M  V30 658 C 61.0851 -4.94265 3.2474 0
M  V30 659 H 60.0151 -0.702622 0.273565 0
M  V30 660 H 62.6661 -1.33601 1.25789 0
M  V30 661 H 61.0481 -3.9 0.686703 0
M  V30 662 H 62.2221 -3.08153 3.42605 0
M  V30 663 H 60.5371 -2.90022 2.98791 0
M  V30 664 H 63.1341 -5.16689 1.37611 0
M  V30 665 H 63.4771 -4.16298 -0.0112774 0
M  V30 666 H 64.0101 -3.63987 1.60495 0
M  V30 667 H 60.7491 -4.94408 4.30396 0
M  V30 668 H 60.2691 -5.38172 2.64823 0
M  V30 669 H 61.9481 -5.62987 3.18834 0
M  V30 670 N 62.0802 -0.821533 -1.34494 0
M  V30 671 C 63.3282 -0.408139 -1.97936 0
M  V30 672 C 63.6492 1.03193 -1.65457 0
M  V30 673 O 62.9192 1.71622 -0.944595 0
M  V30 674 H 61.4992 -0.147928 -0.732206 0
M  V30 675 H 64.1612 -1.05067 -1.64155 0
M  V30 676 H 63.2572 -0.52601 -3.07635 0
M  V30 677 N 63.5583 1.46682 -0.576371 0
M  V30 678 C 64.8353 1.95599 0.00703437 0
M  V30 679 C 65.2153 1.51904 1.46589 0
M  V30 680 O 64.5633 0.766755 2.15251 0
M  V30 681 C 64.7733 3.4864 -0.158404 0
M  V30 682 C 66.1213 4.24594 -0.0229439 0
M  V30 683 O 67.1453 3.56094 -0.0869173 0
M  V30 684 O 66.0043 5.46373 0.118015 0
M  V30 685 H 63.0983 0.825275 0.053384 0
M  V30 686 H 65.6443 1.56996 -0.644244 0
M  V30 687 H 64.4163 3.7331 -1.17282 0
M  V30 688 H 64.0393 3.94057 0.5296 0
M  V30 689 N 65.0364 0.313813 1.54444 0
M  V30 690 C 65.9994 -0.54379 2.22656 0
M  V30 691 C 66.9994 -1.05124 1.21678 0
M  V30 692 O 68.1894 -0.945225 1.46325 0
M  V30 693 C 65.3214 -1.75427 2.92298 0
M  V30 694 H 66.5144 0.0523599 2.99854 0
M  V30 695 H 64.0674 0.0647834 1.56166 0
M  V30 696 H 64.8024 -2.38991 2.19211 0
M  V30 697 H 64.5874 -1.39791 3.66334 0
M  V30 698 H 66.0774 -2.36325 3.44297 0
M  V30 699 N 66.5145 -1.57545 0.0417849 0
M  V30 700 C 67.4465 -2.07904 -0.964799 0
M  V30 701 C 68.4595 -1.00497 -1.28079 0
M  V30 702 O 69.6485 -1.28087 -1.24322 0
M  V30 703 C 66.7485 -2.49928 -2.28887 0
M  V30 704 C 65.9215 -3.80562 -2.15619 0
M  V30 705 C 64.9805 -4.08999 -3.31069 0
M  V30 706 O 64.0065 -4.79061 -3.0739 0
M  V30 707 N 65.2085 -3.6017 -4.55256 0
M  V30 708 H 67.9735 -2.94886 -0.535029 0
M  V30 709 H 65.5345 -1.61252 -0.144681 0
M  V30 710 H 67.5265 -2.66034 -3.04972 0
M  V30 711 H 66.0965 -1.68245 -2.63463 0
M  V30 712 H 65.3165 -3.74129 -1.24183 0
M  V30 713 H 66.6045 -4.66126 -2.03971 0
M  V30 714 H 66.0025 -3.03512 -4.77386 0
M  V30 715 H 64.5595 -3.81532 -5.28466 0
M  V30 716 N 67.9926 0.231505 -1.5589 0
M  V30 717 C 69.2416 0.955346 -1.7764 0
M  V30 718 C 69.5546 1.85893 -0.608546 0
M  V30 719 O 70.7606 2.62067 -0.70943 0
M  V30 720 C 69.2166 1.74886 -3.14552 0
M  V30 721 C 68.8246 0.891915 -4.39032 0
M  V30 722 C 70.5686 2.46452 -3.45633 0
M  V30 723 C 68.4756 1.68221 -5.66971 0
M  V30 724 H 67.4056 0.360446 -0.662265 0
M  V30 725 H 70.0566 0.209516 -1.823 0
M  V30 726 H 68.4386 2.53723 -3.04041 0
M  V30 727 H 69.6126 0.144793 -4.60572 0
M  V30 728 H 67.9276 0.288863 -4.15397 0
M  V30 729 H 70.5246 3.06061 -4.38441 0
M  V30 730 H 70.8676 3.18841 -2.67668 0
M  V30 731 H 71.4006 1.74613 -3.57428 0
M  V30 732 H 68.1396 1.00178 -6.478 0
M  V30 733 H 67.6596 2.4042 -5.49507 0
M  V30 734 H 69.3386 2.24544 -6.06786 0
M  V30 735 N 69.4707 1.49531 0.497807 0
M  V30 736 C 70.7187 1.58865 1.24926 0
M  V30 737 C 71.0397 0.278721 1.92998 0
M  V30 738 O 70.3097 -0.702144 1.82885 0
M  V30 739 H 68.8897 0.585343 0.464094 0
M  V30 740 H 71.5517 1.86174 0.57666 0
M  V30 741 H 70.6477 2.38633 2.01149 0
M  V30 742 N 70.9488 -0.749086 1.3866 0
M  V30 743 C 72.3598 -1.32664 1.31366 0
M  V30 744 C 72.7108 -1.96179 -0.028484 0
M  V30 745 O 71.8358 -1.9537 -0.93057 0
M  V30 746 C 72.4308 -2.41219 2.37905 0
M  V30 747 C 70.9898 -2.94684 2.34176 0
M  V30 748 C 70.1368 -1.68108 2.20533 0
M  V30 749 H 73.0878 -0.547628 1.48952 0
M  V30 750 H 73.1088 -3.21268 2.0388 0
M  V30 751 H 72.6208 -1.94962 3.35576 0
M  V30 752 H 70.7218 -3.45258 1.401 0
M  V30 753 H 70.8348 -3.48757 3.2849 0
M  V30 754 H 69.1988 -1.91907 1.67463 0
M  V30 755 H 69.9818 -1.23923 3.20153 0
M  V30 756 N 72.4269 -1.23603 -0.977757 0
M  V30 757 C 73.6759 -1.06377 -1.71368 0
M  V30 758 C 73.9889 0.399062 -1.91486 0
M  V30 759 O 75.1949 0.691312 -2.62551 0
M  V30 760 C 73.6509 -1.85512 -3.08404 0
M  V30 761 C 73.2589 -3.36141 -2.96164 0
M  V30 762 C 75.0029 -1.76783 -3.85938 0
M  V30 763 C 72.9099 -4.07659 -4.28449 0
M  V30 764 H 71.8399 -0.394452 -0.642591 0
M  V30 765 H 74.4909 -1.47594 -1.09034 0
M  V30 766 H 72.8729 -1.37103 -3.71509 0
M  V30 767 H 74.0469 -3.92056 -2.42133 0
M  V30 768 H 72.3619 -3.45712 -2.32104 0
M  V30 769 H 74.9589 -2.27526 -4.83876 0
M  V30 770 H 75.3019 -0.731116 -4.0983 0
M  V30 771 H 75.8349 -2.22818 -3.2954 0
M  V30 772 H 72.5739 -5.11648 -4.09752 0
M  V30 773 H 72.0939 -3.5653 -4.82334 0
M  V30 774 H 73.7729 -4.141 -4.97122 0
M  V30 775 N 73.905 1.17692 -1.04816 0
M  V30 776 C 75.135 1.91508 -0.775128 0
M  V30 777 C 75.543 1.76844 0.67253 0
M  V30 778 O 74.886 1.10057 1.47082 0
M  V30 779 C 74.948 3.43167 -1.0713 0
M  V30 780 C 74.612 3.81612 -2.51438 0
M  V30 781 C 75.609 3.84772 -3.49638 0
M  V30 782 C 73.294 4.12687 -2.86348 0
M  V30 783 C 75.288 4.18469 -4.80794 0
M  V30 784 C 72.975 4.46053 -4.17708 0
M  V30 785 C 73.973 4.48921 -5.14741 0
M  V30 786 O 73.661 4.81504 -6.43746 0
M  V30 787 H 73.393 0.614575 -0.281555 0
M  V30 788 H 75.947 1.50206 -1.40098 0
M  V30 789 H 74.177 3.84745 -0.388342 0
M  V30 790 H 75.866 3.98239 -0.784883 0
M  V30 791 H 76.632 3.60893 -3.24008 0
M  V30 792 H 72.511 4.09627 -2.11486 0
M  V30 793 H 76.055 4.20623 -5.56527 0
M  V30 794 H 71.952 4.69393 -4.43103 0
M  V30 795 H 72.72 4.99377 -6.4851 0
M  V30 796 N 75.3831 0.828654 1.34056 0
M  V30 797 C 76.3131 0.269443 2.3194 0
M  V30 798 C 77.2941 -0.617247 1.58506 0
M  V30 799 O 78.4791 -0.542931 1.86456 0
M  V30 800 C 75.6091 -0.564793 3.42677 0
M  V30 801 C 74.5631 0.225241 4.27407 0
M  V30 802 C 73.8891 -0.7321 5.29664 0
M  V30 803 C 75.1891 1.43663 5.02154 0
M  V30 804 H 76.8831 1.08728 2.7896 0
M  V30 805 H 74.4291 0.524283 1.34117 0
M  V30 806 H 76.3821 -0.966233 4.10173 0
M  V30 807 H 75.1061 -1.41574 2.9432 0
M  V30 808 H 73.7651 0.608117 3.61521 0
M  V30 809 H 73.4131 -1.57916 4.77568 0
M  V30 810 H 73.1131 -0.20767 5.87233 0
M  V30 811 H 74.6371 -1.13128 6.00029 0
M  V30 812 H 76.0511 1.1089 5.62473 0
M  V30 813 H 74.4481 1.89711 5.69324 0
M  V30 814 H 75.5181 2.21181 4.31517 0
M  V30 815 N 76.8612 -1.46375 0.584142 0
M  V30 816 C 78.1092 -2.01978 0.0701287 0
M  V30 817 C 78.4302 -1.4579 -1.295 0
M  V30 818 O 77.7002 -0.64314 -1.85042 0
M  V30 819 H 76.2802 -0.746648 0.0229345 0
M  V30 820 H 78.9422 -1.79461 0.760245 0
M  V30 821 H 78.0382 -3.121 0.0022064 0
M  V30 822 N 78.3393 -0.321999 -1.54275 0
M  V30 823 C 79.3023 0.531975 -2.22941 0
M  V30 824 C 80.3023 1.04478 -1.22234 0
M  V30 825 O 81.4923 0.937452 -1.46825 0
M  V30 826 C 78.6243 1.73874 -2.93224 0
M  V30 827 H 79.8173 -0.0682612 -2.99822 0
M  V30 828 H 77.3703 -0.0730644 -1.56129 0
M  V30 829 H 78.1053 2.37825 -2.20476 0
M  V30 830 H 77.8903 1.37847 -3.6707 0
M  V30 831 H 79.3803 2.34496 -3.45545 0
M  V30 832 N 79.8174 1.5752 -0.0501392 0
M  V30 833 C 81.0424 1.97376 0.636997 0
M  V30 834 C 81.4674 0.927466 1.63645 0
M  V30 835 O 80.8254 -0.10941 1.8097 0
M  V30 836 C 80.8734 3.36304 1.30123 0
M  V30 837 O 79.9774 3.34156 2.41689 0
M  V30 838 H 79.3184 0.642998 0.165679 0
M  V30 839 H 81.8484 2.04258 -0.118233 0
M  V30 840 H 81.8584 3.73008 1.65315 0
M  V30 841 H 80.5334 4.11993 0.568746 0
M  V30 842 H 79.1104 3.09196 2.08451 0
M  V30 843 N 81.2955 -0.223234 1.56011 0
M  V30 844 C 82.5435 -0.946003 1.78592 0
M  V30 845 C 82.8645 -1.84936 0.618349 0
M  V30 846 O 82.1345 -1.92473 -0.364833 0
M  V30 847 H 80.7145 -0.352298 0.658707 0
M  V30 848 H 83.3765 -0.235494 1.93472 0
M  V30 849 H 82.4725 -1.55381 2.70672 0
M  V30 850 N 82.7736 -1.49793 -0.48987 0
M  V30 851 C 84.0226 -1.59085 -1.23995 0
M  V30 852 C 84.3356 -0.287907 -1.9347 0
M  V30 853 O 85.5416 -0.259506 -2.70257 0
M  V30 854 C 83.9976 -2.80736 -2.252 0
M  V30 855 C 83.6056 -4.17833 -1.61614 0
M  V30 856 C 85.3496 -2.99364 -3.00967 0
M  V30 857 C 83.2566 -5.30693 -2.60996 0
M  V30 858 H 82.1866 -0.592372 -0.466488 0
M  V30 859 H 84.8376 -1.76197 -0.51252 0
M  V30 860 H 83.2196 -2.57142 -3.01154 0
M  V30 861 H 84.3936 -4.51608 -0.915774 0
M  V30 862 H 82.7086 -4.04656 -0.981977 0
M  V30 863 H 85.3056 -3.80851 -3.75308 0
M  V30 864 H 85.6486 -2.10356 -3.59244 0
M  V30 865 H 86.1816 -3.2305 -2.32128 0
M  V30 866 H 82.9206 -6.21796 -2.07485 0
M  V30 867 H 82.4406 -5.01359 -3.2924 0
M  V30 868 H 84.1196 -5.6049 -3.23202 0
M  V30 869 N 84.2517 0.741722 -1.39055 0
M  V30 870 C 85.2147 1.83733 -1.37021 0
M  V30 871 C 86.2147 1.58542 -0.268534 0
M  V30 872 O 87.4047 1.66067 -0.526076 0
M  V30 873 C 84.5367 3.2141 -1.13617 0
M  V30 874 H 85.7297 1.86941 -2.34506 0
M  V30 875 H 83.2827 0.944676 -1.24521 0
M  V30 876 H 84.0177 3.23865 -0.167863 0
M  V30 877 H 83.8027 3.4109 -1.93391 0
M  V30 878 H 85.2927 4.01477 -1.14918 0
M  V30 879 N 85.7298 1.2412 0.971189 0
M  V30 880 C 86.6928 1.03156 2.04674 0
M  V30 881 C 87.6928 -0.00990322 1.60797 0
M  V30 882 O 88.8828 0.230729 1.72665 0
M  V30 883 C 86.0148 0.562765 3.36223 0
M  V30 884 H 87.2078 1.98614 2.24705 0
M  V30 885 H 84.7608 1.06293 1.14593 0
M  V30 886 H 85.4958 -0.395176 3.21883 0
M  V30 887 H 85.2808 1.31441 3.69413 0
M  V30 888 H 86.7708 0.437015 4.15307 0
M  V30 889 N 87.2079 -1.17134 1.05439 0
M  V30 890 C 88.4549 -1.87456 0.765942 0
M  V30 891 C 88.7829 -1.81189 -0.707153 0
M  V30 892 O 88.0379 -1.21633 -1.5331 0
M  V30 893 C 88.3369 -3.36833 1.19491 0
M  V30 894 C 88.0029 -3.63301 2.67063 0
M  V30 895 C 86.6649 -3.70234 3.07376 0
M  V30 896 C 89.0169 -3.74575 3.62413 0
M  V30 897 C 86.3449 -3.85933 4.41896 0
M  V30 898 C 88.6969 -3.91793 4.9667 0
M  V30 899 C 87.3609 -3.96966 5.36633 0
M  V30 900 H 86.6309 -0.685948 0.280278 0
M  V30 901 H 89.2779 -1.38556 1.32192 0
M  V30 902 H 87.5829 -3.87807 0.557969 0
M  V30 903 H 89.2799 -3.89611 0.948893 0
M  V30 904 H 85.8699 -3.58532 2.34846 0
M  V30 905 H 90.0539 -3.68537 3.32406 0
M  V30 906 H 85.3099 -3.88187 4.72357 0
M  V30 907 H 89.4839 -3.99458 5.70444 0
M  V30 908 H 87.1109 -4.08883 6.40874 0
M  V30 909 N 88.686 -0.835752 -1.33615 0
M  V30 910 C 89.649 -0.272 -2.2758 0
M  V30 911 C 90.649 0.557487 -1.50827 0
M  V30 912 O 91.839 0.37173 -1.70188 0
M  V30 913 C 88.971 0.617173 -3.35267 0
M  V30 914 H 90.164 -1.10111 -2.78954 0
M  V30 915 H 87.717 -0.608594 -1.43965 0
M  V30 916 H 88.452 1.46884 -2.89129 0
M  V30 917 H 88.237 0.0237066 -3.92093 0
M  V30 918 H 89.727 1.005 -4.05326 0
M  V30 919 N 90.1641 1.46063 -0.591896 0
M  V30 920 C 91.4111 2.02338 -0.0809991 0
M  V30 921 C 91.7391 1.46228 1.28249 0
M  V30 922 O 90.9941 0.620818 1.85592 0
M  V30 923 C 91.2931 3.57391 0.0249813 0
M  V30 924 C 90.9591 4.32583 -1.27211 0
M  V30 925 C 89.6211 4.52844 -1.62745 0
M  V30 926 C 91.9731 4.75687 -2.13005 0
M  V30 927 C 89.3011 5.13462 -2.83855 0
M  V30 928 C 91.6531 5.37644 -3.3335 0
M  V30 929 C 90.3171 5.5613 -3.69155 0
M  V30 930 H 89.5871 0.740407 -0.0296397 0
M  V30 931 H 92.2341 1.75321 -0.770374 0
M  V30 932 H 90.5391 3.83597 0.797537 0
M  V30 933 H 92.2361 3.98621 0.436184 0
M  V30 934 H 88.8261 4.17116 -0.985499 0
M  V30 935 H 93.0101 4.59782 -1.86855 0
M  V30 936 H 88.2661 5.25965 -3.11722 0
M  V30 937 H 92.4401 5.7 -4.00092 0
M  V30 938 H 90.0671 6.0287 -4.63089 0
M  V30 939 N 91.6422 0.330177 1.54103 0
M  V30 940 C 92.8902 -0.269871 2.0029 0
M  V30 941 C 93.2112 -1.52133 1.21986 0
M  V30 942 O 92.4812 -1.93212 0.323438 0
M  V30 943 H 91.0612 -0.10271 0.739905 0
M  V30 944 H 93.7232 0.448249 1.89675 0
M  V30 945 H 92.8192 -0.52166 3.07709 0
M  V30 946 N 93.1203 -1.57491 0.0584922 0
M  V30 947 C 94.3453 -1.97711 -0.62652 0
M  V30 948 C 94.7703 -0.936132 -1.63151 0
M  V30 949 O 94.1283 0.099811 -1.81025 0
M  V30 950 C 94.1763 -3.36989 -1.28338 0
M  V30 951 O 93.2803 -3.35433 -2.39913 0
M  V30 952 H 92.6213 -0.643868 -0.162266 0
M  V30 953 H 95.1513 -2.04193 0.129064 0
M  V30 954 H 95.1613 -3.73879 -1.63335 0
M  V30 955 H 93.8363 -4.12289 -0.546889 0
M  V30 956 H 92.4133 -3.10298 -2.06809 0
M  V30 957 N 94.5984 0.214957 -1.56127 0
M  V30 958 C 95.8264 0.955092 -1.83536 0
M  V30 959 C 96.2414 1.77677 -0.638472 0
M  V30 960 O 95.5984 1.78219 0.392968 0
M  V30 961 C 95.6494 1.86734 -3.09536 0
M  V30 962 O 95.3704 1.07887 -4.24608 0
M  V30 963 C 96.8714 2.72082 -3.4998 0
M  V30 964 H 94.0914 0.279611 -0.609966 0
M  V30 965 H 96.6354 0.228197 -2.03223 0
M  V30 966 H 94.7904 2.5481 -2.91806 0
M  V30 967 H 95.2044 1.69872 -4.9623 0
M  V30 968 H 96.6784 3.31782 -4.41163 0
M  V30 969 H 97.1554 3.44806 -2.7204 0
M  V30 970 H 97.7614 2.09409 -3.70173 0
M  V30 971 N 96.0765 1.50051 0.48192 0
M  V30 972 C 97.0395 1.67584 1.5636 0
M  V30 973 C 98.0395 0.546894 1.51214 0
M  V30 974 O 99.2295 0.813725 1.54026 0
M  V30 975 C 96.3615 1.691 2.96003 0
M  V30 976 H 97.5545 2.64078 1.42136 0
M  V30 977 H 95.1075 1.39369 0.707533 0
M  V30 978 H 95.8425 0.742589 3.15684 0
M  V30 979 H 95.6275 2.51105 3.01146 0
M  V30 980 H 97.1175 1.84656 3.74556 0
M  V30 981 N 97.5546 -0.734337 1.39446 0
M  V30 982 C 98.8036 -1.48937 1.36017 0
M  V30 983 C 99.1166 -1.95557 -0.0409005 0
M  V30 984 O 100.323 -2.70779 -0.19778 0
M  V30 985 C 98.7786 -2.69125 2.38955 0
M  V30 986 C 98.3866 -2.29452 3.8478 0
M  V30 987 C 100.131 -3.46944 2.44603 0
M  V30 988 C 98.0376 -3.46366 4.79358 0
M  V30 989 H 96.9676 -0.559296 0.505672 0
M  V30 990 H 99.6186 -0.800983 1.65095 0
M  V30 991 H 98.0006 -3.40041 2.02948 0
M  V30 992 H 99.1746 -1.66077 4.29831 0
M  V30 993 H 97.4896 -1.64723 3.82433 0
M  V30 994 H 100.087 -4.33907 3.12456 0
M  V30 995 H 100.43 -3.89454 1.47076 0
M  V30 996 H 100.963 -2.83056 2.79507 0
M  V30 997 H 97.7016 -3.08905 5.78151 0
M  V30 998 H 97.2216 -4.08719 4.38986 0
M  V30 999 H 98.9006 -4.12691 4.98292 0
M  V30 1000 N 99.0327 -1.24633 -0.964593 0
M  V30 1001 C 99.9627 -1.06611 -2.07741 0
M  V30 1002 C 100.944 0.0218666 -1.70086 0
M  V30 1003 O 102.129 -0.145793 -1.93652 0
M  V30 1004 C 99.2587 -0.673444 -3.40708 0
M  V30 1005 C 98.2127 -1.71054 -3.92332 0
M  V30 1006 C 97.5387 -1.17285 -5.21678 0
M  V30 1007 C 98.8387 -3.10718 -4.19824 0
M  V30 1008 H 100.533 -1.99693 -2.23076 0
M  V30 1009 H 98.0787 -0.96152 -1.07195 0
M  V30 1010 H 100.032 -0.534345 -4.17998 0
M  V30 1011 H 98.7557 0.293073 -3.25282 0
M  V30 1012 H 97.4147 -1.83791 -3.17201 0
M  V30 1013 H 97.0627 -0.196847 -5.02615 0
M  V30 1014 H 96.7627 -1.86592 -5.57187 0
M  V30 1015 H 98.2867 -1.04593 -6.01575 0
M  V30 1016 H 99.7007 -3.01192 -4.87808 0
M  V30 1017 H 98.0977 -3.77406 -4.66567 0
M  V30 1018 H 99.1677 -3.58524 -3.26479 0
M  V30 1019 N 100.511 1.16574 -1.06058 0
M  V30 1020 C 101.76 1.86385 -0.770944 0
M  V30 1021 C 102.073 1.82448 0.705129 0
M  V30 1022 O 103.279 2.47815 1.10905 0
M  V30 1023 C 101.735 3.34466 -1.32893 0
M  V30 1024 C 101.343 3.46883 -2.83507 0
M  V30 1025 C 103.087 4.09548 -1.11672 0
M  V30 1026 C 100.994 4.89036 -3.32562 0
M  V30 1027 H 99.9238 0.698181 -0.284709 0
M  V30 1028 H 102.575 1.31583 -1.27899 0
M  V30 1029 H 100.957 3.88859 -0.748662 0
M  V30 1030 H 102.131 3.02663 -3.47465 0
M  V30 1031 H 100.446 2.85232 -3.03368 0
M  V30 1032 H 103.043 5.14434 -1.45814 0
M  V30 1033 H 103.386 4.16264 -0.0549535 0
M  V30 1034 H 103.919 3.61387 -1.66265 0
M  V30 1035 H 100.658 4.87499 -4.38207 0
M  V30 1036 H 100.178 5.3389 -2.73351 0
M  V30 1037 H 101.857 5.57843 -3.2775 0
M  V30 1038 N 101.989 0.842826 1.3317 0
M  V30 1039 C 103.238 0.436738 1.96915 0
M  V30 1040 C 103.551 -1.01025 1.67491 0
M  V30 1041 O 104.757 -1.5212 2.24881 0
M  V30 1042 C 103.213 0.730021 3.52418 0
M  V30 1043 C 102.821 2.19195 3.90714 0
M  V30 1044 C 104.565 0.391076 4.22695 0
M  V30 1045 C 102.472 2.42907 5.39212 0
M  V30 1046 H 101.402 0.15958 0.736919 0
M  V30 1047 H 104.053 1.03196 1.51733 0
M  V30 1048 H 102.435 0.0643755 3.95948 0
M  V30 1049 H 103.609 2.8984 3.58231 0
M  V30 1050 H 101.924 2.49425 3.33431 0
M  V30 1051 H 104.521 0.545817 5.31907 0
M  V30 1052 H 104.864 -0.666294 4.10933 0
M  V30 1053 H 105.397 1.01212 3.84709 0
M  V30 1054 H 102.136 3.47224 5.55982 0
M  V30 1055 H 101.656 1.76827 5.73142 0
M  V30 1056 H 103.335 2.2626 6.06148 0
M  V30 1057 N 103.467 -1.45747 0.599634 0
M  V30 1058 C 104.397 -2.33235 -0.111306 0
M  V30 1059 C 105.378 -1.46359 -0.866781 0
M  V30 1060 O 106.563 -1.75146 -0.838904 0
M  V30 1061 C 103.693 -3.28932 -1.11451 0
M  V30 1062 C 102.647 -4.25381 -0.472772 0
M  V30 1063 C 101.973 -5.1071 -1.58365 0
M  V30 1064 C 103.273 -5.18831 0.600948 0
M  V30 1065 H 104.967 -2.92927 0.61919 0
M  V30 1066 H 102.513 -1.40857 0.299215 0
M  V30 1067 H 104.466 -3.89002 -1.62036 0
M  V30 1068 H 103.19 -2.67381 -1.8755 0
M  V30 1069 H 101.849 -3.66598 0.0121472 0
M  V30 1070 H 101.497 -4.45533 -2.33473 0
M  V30 1071 H 101.197 -5.7604 -1.15982 0
M  V30 1072 H 102.721 -5.73647 -2.09194 0
M  V30 1073 H 104.135 -5.73019 0.179491 0
M  V30 1074 H 102.532 -5.92595 0.946076 0
M  V30 1075 H 103.602 -4.6174 1.48068 0
M  V30 1076 N 104.945 -0.338344 -1.53925 0
M  V30 1077 C 106.192 0.259758 -2.00827 0
M  V30 1078 C 106.52 1.50973 -1.22628 0
M  V30 1079 O 105.775 1.93379 -0.300509 0
M  V30 1080 C 106.074 0.62448 -3.51902 0
M  V30 1081 C 105.74 -0.528006 -4.47798 0
M  V30 1082 C 104.402 -0.844298 -4.73735 0
M  V30 1083 C 106.754 -1.30143 -5.0469 0
M  V30 1084 C 104.082 -1.93648 -5.53821 0
M  V30 1085 C 106.434 -2.38382 -5.85967 0
M  V30 1086 C 105.098 -2.70576 -6.10201 0
M  V30 1087 H 104.368 0.0950523 -0.734878 0
M  V30 1088 H 107.015 -0.465182 -1.85764 0
M  V30 1089 H 105.32 1.43006 -3.64769 0
M  V30 1090 H 107.017 1.09905 -3.85645 0
M  V30 1091 H 103.607 -0.271421 -4.2774 0
M  V30 1092 H 107.791 -1.07033 -4.84621 0
M  V30 1093 H 103.047 -2.19021 -5.70824 0
M  V30 1094 H 107.221 -2.98746 -6.29066 0
M  V30 1095 H 104.848 -3.55333 -6.72044 0
M  V30 1096 N 106.423 1.57458 -0.0668435 0
M  V30 1097 C 107.371 2.13639 0.919851 0
M  V30 1098 C 108.365 1.07204 1.31163 0
M  V30 1099 O 109.571 1.25591 1.28945 0
M  V30 1100 H 105.946 0.683048 0.314562 0
M  V30 1101 H 107.917 2.95415 0.421047 0
M  V30 1102 C 106.666 2.70892 2.17975 0
M  V30 1103 H 105.989 3.5246 1.88711 0
M  V30 1104 H 107.429 3.13803 2.85138 0
M  V30 1105 C 105.888 1.65414 2.93496 0
M  V30 1106 O 106.418 1.07619 3.87015 0
M  V30 1107 N 104.624 1.36564 2.56512 0
M  V30 1108 H 104.171 1.83751 1.80536 0
M  V30 1109 H 104.129 0.66223 3.07347 0
M  V30 1110 N 107.901 -0.206675 1.56239 0
M  V30 1111 C 108.834 -1.28383 1.88661 0
M  V30 1112 C 109.812 -1.44504 0.745481 0
M  V30 1113 O 110.996 -1.60079 0.995336 0
M  V30 1114 C 108.123 -2.65211 2.10667 0
M  V30 1115 C 107.169 -2.66025 3.33366 0
M  V30 1116 S 108.002 -2.18609 4.88846 0
M  V30 1117 C 109.158 -3.57283 5.13906 0
M  V30 1118 H 109.391 -1.00691 2.7973 0
M  V30 1119 H 106.924 -0.409627 1.48867 0
M  V30 1120 H 108.882 -3.43979 2.24029 0
M  V30 1121 H 107.543 -2.90121 1.20369 0
M  V30 1122 H 106.736 -3.66607 3.45855 0
M  V30 1123 H 106.338 -1.95331 3.18938 0
M  V30 1124 H 108.63 -4.53074 5.03717 0
M  V30 1125 H 109.573 -3.49699 6.15724 0
M  V30 1126 H 109.981 -3.51659 4.41583 0
M  V30 1127 N 109.379 -1.50304 -0.473955 0
M  V30 1128 C 110.342 -1.6841 -1.55469 0
M  V30 1129 C 111.342 -0.554905 -1.50922 0
M  V30 1130 O 112.532 -0.821882 -1.53593 0
M  V30 1131 C 109.664 -1.70667 -2.95102 0
M  V30 1132 H 110.857 -2.64828 -1.40733 0
M  V30 1133 H 108.41 -1.39742 -0.700132 0
M  V30 1134 H 109.145 -0.75932 -3.15285 0
M  V30 1135 H 108.93 -2.52698 -2.9981 0
M  V30 1136 H 110.42 -1.8664 -3.73571 0
M  V30 1137 N 110.857 0.726932 -1.39834 0
M  V30 1138 C 111.82 1.82269 -1.38962 0
M  V30 1139 C 112.82 1.58248 -0.285334 0
M  V30 1140 O 114.01 1.65499 -0.54366 0
M  V30 1141 C 111.142 3.20186 -1.17019 0
M  V30 1142 H 112.335 1.84443 -2.36476 0
M  V30 1143 H 109.888 0.931416 -1.25516 0
M  V30 1144 H 110.623 3.23669 -0.202204 0
M  V30 1145 H 110.408 3.3902 -1.96998 0
M  V30 1146 H 111.898 4.00235 -1.1917 0
M  V30 1147 N 112.336 1.25143 0.95797 0
M  V30 1148 C 113.246 1.06968 2.08794 0
M  V30 1149 C 114.262 0.00773911 1.73998 0
M  V30 1150 O 115.438 0.207972 2.00323 0
M  V30 1151 C 112.503 0.68691 3.39827 0
M  V30 1152 C 111.564 1.82641 3.88511 0
M  V30 1153 C 110.797 1.46181 5.1329 0
M  V30 1154 O 111.02 0.355971 5.69288 0
M  V30 1155 O 109.954 2.29085 5.566 0
M  V30 1156 H 113.78 2.01723 2.27027 0
M  V30 1157 H 111.365 1.04051 1.07209 0
M  V30 1158 H 113.247 0.485417 4.18595 0
M  V30 1159 H 111.922 -0.231417 3.22872 0
M  V30 1160 H 110.829 2.08274 3.10762 0
M  V30 1161 H 112.162 2.72386 4.09959 0
M  V30 1162 N 113.814 -1.1601 1.06675 0
M  V30 1163 C 115.06 -1.86909 0.786945 0
M  V30 1164 C 115.393 -1.81717 -0.685018 0
M  V30 1165 O 114.668 -1.23551 -1.50218 0
M  V30 1166 C 114.951 -3.36313 1.28707 0
M  V30 1167 C 114.804 -3.50175 2.82308 0
M  V30 1168 C 116.123 -4.3084 0.898071 0
M  V30 1169 H 113.242 -0.678677 0.287343 0
M  V30 1170 H 115.884 -1.36336 1.32334 0
M  V30 1171 H 114.034 -3.79513 0.830768 0
M  V30 1172 H 115.706 -3.15886 3.36175 0
M  V30 1173 H 113.949 -2.91959 3.20847 0
M  V30 1174 H 114.62 -4.55116 3.12368 0
M  V30 1175 H 117.096 -3.95561 1.29114 0
M  V30 1176 H 115.972 -5.33876 1.27543 0
M  V30 1177 H 116.233 -4.41662 -0.196651 0
M  V30 1178 N 115.292 -0.849877 -1.32721 0
M  V30 1179 C 116.242 -0.262892 -2.26479 0
M  V30 1180 C 117.226 0.588493 -1.49752 0
M  V30 1181 O 118.418 0.438659 -1.71478 0
M  V30 1182 C 115.547 0.551818 -3.38836 0
M  V30 1183 C 114.633 -0.311689 -4.22953 0
M  V30 1184 N 115.024 -1.39567 -4.86163 0
M  V30 1185 C 113.322 -0.100611 -4.45887 0
M  V30 1186 C 114.023 -1.92651 -5.48872 0
M  V30 1187 N 112.999 -1.22637 -5.29586 0
M  V30 1188 H 116.801 -1.09166 -2.72873 0
M  V30 1189 H 114.315 -0.695486 -1.46754 0
M  V30 1190 H 116.312 0.988713 -4.05006 0
M  V30 1191 H 114.972 1.37844 -2.93988 0
M  V30 1192 H 115.983 -1.77859 -4.86402 0
M  V30 1193 H 112.66 0.691681 -4.11731 0
M  V30 1194 H 114.05 -2.83487 -6.09167 0
M  V30 1195 N 116.77 1.45427 -0.607355 0
M  V30 1196 C 118.017 2.02241 -0.102455 0
M  V30 1197 C 118.345 1.4758 1.26691 0
M  V30 1198 O 117.6 0.640468 1.84923 0
M  V30 1199 C 117.899 3.57398 -0.0129263 0
M  V30 1200 C 117.565 4.3121 -1.31792 0
M  V30 1201 C 116.227 4.51092 -1.67539 0
M  V30 1202 C 118.579 4.73401 -2.18039 0
M  V30 1203 C 115.907 5.10422 -2.89285 0
M  V30 1204 C 118.259 5.34078 -3.39034 0
M  V30 1205 C 116.923 5.52184 -3.75033 0
M  V30 1206 H 116.193 0.740051 -0.037491 0
M  V30 1207 H 118.84 1.74494 -0.788926 0
M  V30 1208 H 117.145 3.84421 0.756806 0
M  V30 1209 H 118.842 3.99061 0.393881 0
M  V30 1210 H 115.432 4.16047 -1.02968 0
M  V30 1211 H 119.616 4.57774 -1.91721 0
M  V30 1212 H 114.872 5.22629 -3.17283 0
M  V30 1213 H 119.046 5.65724 -4.06115 0
M  V30 1214 H 116.673 5.97925 -4.69457 0
M  V30 1215 N 118.248 0.346503 1.53744 0
M  V30 1216 C 119.525 -0.304532 1.93215 0
M  V30 1217 C 119.905 -1.67993 1.27834 0
M  V30 1218 O 119.253 -2.24411 0.430352 0
M  V30 1219 C 119.463 -0.373852 3.46992 0
M  V30 1220 C 120.811 -0.62329 4.2 0
M  V30 1221 O 121.835 -0.455847 3.53271 0
M  V30 1222 O 120.694 -0.947879 5.38217 0
M  V30 1223 H 117.788 -0.178318 0.807547 0
M  V30 1224 H 120.334 0.397895 1.64969 0
M  V30 1225 H 119.106 0.591224 3.86808 0
M  V30 1226 H 118.729 -1.12294 3.81413 0
M  V30 1227 N 119.726 -1.57421 0.075193 0
M  V30 1228 C 121.137 -1.81021 -0.456964 0
M  V30 1229 C 121.488 -0.98936 -1.69429 0
M  V30 1230 O 120.613 -0.212865 -2.15351 0
M  V30 1231 C 121.208 -3.28329 -0.83581 0
M  V30 1232 C 119.767 -3.52764 -1.31281 0
M  V30 1233 C 118.914 -2.75676 -0.299648 0
M  V30 1234 H 121.865 -1.55822 0.300856 0
M  V30 1235 H 121.886 -3.40564 -1.69696 0
M  V30 1236 H 121.398 -3.88046 0.0649238 0
M  V30 1237 H 119.499 -2.98355 -2.23193 0
M  V30 1238 H 119.612 -4.61451 -1.28839 0
M  V30 1239 H 117.976 -2.42538 -0.777641 0
M  V30 1240 H 118.759 -3.38132 0.593417 0
M  V30 1241 N 121.204 0.198386 -1.56346 0
M  V30 1242 C 122.134 1.24865 -1.9731 0
M  V30 1243 C 123.115 1.47651 -0.844576 0
M  V30 1244 O 124.3 1.59444 -1.10866 0
M  V30 1245 C 121.43 2.59358 -2.30977 0
M  V30 1246 C 120.384 2.5119 -3.46537 0
M  V30 1247 C 119.71 3.89926 -3.65871 0
M  V30 1248 C 121.01 2.03977 -4.80823 0
M  V30 1249 H 122.704 0.908252 -2.85291 0
M  V30 1250 H 120.25 0.435462 -1.37258 0
M  V30 1251 H 122.203 3.33011 -2.58228 0
M  V30 1252 H 120.927 2.95132 -1.39874 0
M  V30 1253 H 119.586 1.79993 -3.19371 0
M  V30 1254 H 119.234 4.23046 -2.72105 0
M  V30 1255 H 118.934 3.85336 -4.4361 0
M  V30 1256 H 120.458 4.65205 -3.95495 0
M  V30 1257 H 121.872 2.67386 -5.07127 0
M  V30 1258 H 120.269 2.10397 -5.62008 0
M  V30 1259 H 121.339 0.992861 -4.74626 0
M  V30 1260 N 122.682 1.50554 0.465978 0
M  V30 1261 C 123.614 1.65949 1.58093 0
M  V30 1262 C 124.627 0.540827 1.53554 0
M  V30 1263 O 125.816 0.814187 1.5885 0
M  V30 1264 C 122.916 1.63261 2.96983 0
M  V30 1265 C 122.089 2.91245 3.26336 0
M  V30 1266 C 121.148 2.8113 4.44806 0
M  V30 1267 O 120.174 3.55086 4.44862 0
M  V30 1268 N 121.376 1.95032 5.46756 0
M  V30 1269 H 124.141 2.62122 1.45301 0
M  V30 1270 H 121.702 1.48082 0.65448 0
M  V30 1271 H 123.694 1.54101 3.74212 0
M  V30 1272 H 122.264 0.748032 3.03518 0
M  V30 1273 H 121.484 3.14493 2.37672 0
M  V30 1274 H 122.772 3.76022 3.42761 0
M  V30 1275 H 122.17 1.3427 5.49534 0
M  V30 1276 H 120.727 1.91772 6.2295 0
M  V30 1277 N 124.16 -0.719506 1.40217 0
M  V30 1278 C 125.407 -1.47933 1.38283 0
M  V30 1279 C 125.735 -1.94493 -0.0161536 0
M  V30 1280 O 124.99 -1.68224 -0.999956 0
M  V30 1281 C 125.289 -2.72271 2.31524 0
M  V30 1282 C 124.955 -2.44496 3.78857 0
M  V30 1283 C 123.617 -2.36631 4.18998 0
M  V30 1284 C 125.969 -2.21104 4.71977 0
M  V30 1285 C 123.297 -2.03437 5.503 0
M  V30 1286 C 125.649 -1.89423 6.03574 0
M  V30 1287 C 124.313 -1.80038 6.42762 0
M  V30 1288 H 123.583 -0.541325 0.506012 0
M  V30 1289 H 126.23 -0.824502 1.72842 0
M  V30 1290 H 124.535 -3.42572 1.90137 0
M  V30 1291 H 126.232 -3.30348 2.27313 0
M  V30 1292 H 122.822 -2.51503 3.47051 0
M  V30 1293 H 127.006 -2.26139 4.41786 0
M  V30 1294 H 122.262 -1.94705 5.79569 0
M  V30 1295 H 126.436 -1.70336 6.75247 0
M  V30 1296 H 124.063 -1.54083 7.44421 0
M  V30 1297 N 125.638 -1.25649 -0.95132 0
M  V30 1298 C 126.885 -1.10594 -1.69633 0
M  V30 1299 C 127.213 0.352515 -1.91279 0
M  V30 1300 O 126.468 1.27601 -1.4838 0
M  V30 1301 C 126.767 -1.80909 -3.08231 0
M  V30 1302 C 126.433 -3.30825 -3.06375 0
M  V30 1303 C 125.095 -3.71722 -3.05576 0
M  V30 1304 C 127.447 -4.26589 -2.99452 0
M  V30 1305 C 124.775 -5.06788 -2.95606 0
M  V30 1306 C 127.127 -5.61683 -2.91024 0
M  V30 1307 C 125.791 -6.01904 -2.88562 0
M  V30 1308 H 125.061 -0.404691 -0.620731 0
M  V30 1309 H 127.708 -1.55964 -1.11119 0
M  V30 1310 H 126.013 -1.27979 -3.70309 0
M  V30 1311 H 127.71 -1.6671 -3.64704 0
M  V30 1312 H 124.3 -2.98287 -3.07771 0
M  V30 1313 H 128.484 -3.95982 -2.99185 0
M  V30 1314 H 123.74 -5.37126 -2.92071 0
M  V30 1315 H 127.914 -6.35578 -2.84629 0
M  V30 1316 H 125.541 -7.06521 -2.80593 0
M  V30 1317 N 127.117 1.15442 -1.07289 0
M  V30 1318 C 128.533 1.38201 -0.798288 0
M  V30 1319 C 128.733 1.92429 0.597769 0
M  V30 1320 O 127.789 2.12962 1.3566 0
M  V30 1321 C 129.102 2.35357 -1.87156 0
M  V30 1322 C 130.65 2.49021 -1.89624 0
M  V30 1323 C 131.125 3.49468 -2.96034 0
M  V30 1324 N 132.616 3.57003 -2.95132 0
M  V30 1325 C 133.351 4.34543 -3.74112 0
M  V30 1326 N 132.847 5.15421 -4.6294 0
M  V30 1327 N 134.64 4.29625 -3.62462 0
M  V30 1328 H 126.791 0.78584 -1.97328 0
M  V30 1329 H 129.054 0.408065 -0.855679 0
M  V30 1330 H 128.76 2.02626 -2.87464 0
M  V30 1331 H 128.634 3.35129 -1.73114 0
M  V30 1332 H 131.021 2.81051 -0.899687 0
M  V30 1333 H 131.102 1.4925 -2.07745 0
M  V30 1334 H 130.746 3.18173 -3.95889 0
M  V30 1335 H 130.676 4.48992 -2.75161 0
M  V30 1336 H 133.167 2.99276 -2.30743 0
M  V30 1337 H 133.48 5.7183 -5.19837 0
M  V30 1338 H 131.825 5.14729 -4.66989 0
M  V30 1339 H 135.016 3.65505 -2.92444 0
M  V30 1340 H 135.189 4.89807 -4.24256 0
M  V30 1341 N 128.595 0.856903 1.32268 0
M  V30 1342 C 129.527 0.260412 2.27716 0
M  V30 1343 C 130.54 -0.569137 1.52528 0
M  V30 1344 O 131.729 -0.39326 1.74114 0
M  V30 1345 C 128.829 -0.650477 3.32599 0
M  V30 1346 C 128.002 0.14372 4.37164 0
M  V30 1347 C 127.061 -0.69328 5.21613 0
M  V30 1348 O 126.087 -0.12599 5.69061 0
M  V30 1349 N 127.289 -2.00761 5.44679 0
M  V30 1350 H 130.054 1.08059 2.79541 0
M  V30 1351 H 127.615 0.717103 1.45152 0
M  V30 1352 H 129.607 -1.21581 3.86005 0
M  V30 1353 H 128.177 -1.37133 2.80915 0
M  V30 1354 H 127.397 0.890486 3.8401 0
M  V30 1355 H 128.685 0.68915 5.04111 0
M  V30 1356 H 128.083 -2.49181 5.07863 0
M  V30 1357 H 126.64 -2.52103 6.01072 0
M  V30 1358 N 130.073 -1.45103 0.615059 0
M  V30 1359 C 131.32 -2.02183 0.113179 0
M  V30 1360 C 131.648 -1.48249 -1.25906 0
M  V30 1361 O 130.903 -0.650265 -1.84581 0
M  V30 1362 C 131.202 -3.57386 0.0318797 0
M  V30 1363 C 130.868 -4.30505 1.34077 0
M  V30 1364 C 129.53 -4.50197 1.69929 0
M  V30 1365 C 131.882 -4.72238 2.20546 0
M  V30 1366 C 129.21 -5.08881 2.91988 0
M  V30 1367 C 131.562 -5.32272 3.41861 0
M  V30 1368 C 130.226 -5.50187 3.77956 0
M  V30 1369 H 129.496 -0.739842 0.0414151 0
M  V30 1370 H 132.143 -1.74073 0.798168 0
M  V30 1371 H 130.448 -3.84817 -0.736409 0
M  V30 1372 H 132.145 -3.99264 -0.372712 0
M  V30 1373 H 128.735 -4.15496 1.05173 0
M  V30 1374 H 132.919 -4.56751 1.94146 0
M  V30 1375 H 128.175 -5.20939 3.2005 0
M  V30 1376 H 132.349 -5.63563 4.09109 0
M  V30 1377 H 129.976 -5.95427 4.72622 0
M  V30 1378 N 131.551 -0.354651 -1.53558 0
M  V30 1379 C 132.798 0.238443 -2.01091 0
M  V30 1380 C 133.126 1.49663 -1.24222 0
M  V30 1381 O 132.381 1.93049 -0.321003 0
M  V30 1382 C 132.68 0.587121 -3.52545 0
M  V30 1383 C 132.346 -0.575472 -4.47213 0
M  V30 1384 C 131.008 -0.894497 -4.72813 0
M  V30 1385 C 133.36 -1.35489 -5.03281 0
M  V30 1386 C 130.688 -1.99511 -5.51736 0
M  V30 1387 C 133.04 -2.44583 -5.83405 0
M  V30 1388 C 131.704 -2.77033 -6.07296 0
M  V30 1389 H 130.974 0.0872526 -0.735845 0
M  V30 1390 H 133.621 -0.484859 -1.8526 0
M  V30 1391 H 131.926 1.39129 -3.66265 0
M  V30 1392 H 133.623 1.05809 -3.86789 0
M  V30 1393 H 130.213 -0.316774 -4.27428 0
M  V30 1394 H 134.397 -1.12167 -4.83459 0
M  V30 1395 H 129.653 -2.25063 -5.68469 0
M  V30 1396 H 133.827 -3.05401 -6.25862 0
M  V30 1397 H 131.454 -3.6244 -6.68237 0
M  V30 1398 N 133.029 1.57378 -0.0835403 0
M  V30 1399 C 134.275 1.95025 0.577664 0
M  V30 1400 C 134.63 0.964049 1.66505 0
M  V30 1401 O 133.923 -0.0118235 1.91596 0
M  V30 1402 C 134.117 3.37063 1.1884 0
M  V30 1403 C 133.946 4.49409 0.16171 0
M  V30 1404 C 132.716 5.04642 -0.257756 0
M  V30 1405 C 134.914 5.10722 -0.605634 0
M  V30 1406 N 132.896 6.00537 -1.27393 0
M  V30 1407 C 134.267 6.02225 -1.47395 0
M  V30 1408 C 136.322 4.93501 -0.660418 0
M  V30 1409 C 135.025 6.78355 -2.39221 0
M  V30 1410 C 137.051 5.70283 -1.56623 0
M  V30 1411 C 136.413 6.61444 -2.4222 0
M  V30 1412 H 132.512 0.760512 0.182058 0
M  V30 1413 H 135.096 1.94013 -0.163419 0
M  V30 1414 H 133.267 3.3879 1.89936 0
M  V30 1415 H 134.999 3.61917 1.81103 0
M  V30 1416 H 131.754 4.73428 0.127702 0
M  V30 1417 H 132.178 6.53184 -1.77987 0
M  V30 1418 H 136.82 4.22798 -0.0128221 0
M  V30 1419 H 134.538 7.48327 -3.05011 0
M  V30 1420 H 138.124 5.58976 -1.61361 0
M  V30 1421 H 137.004 7.1982 -3.11174 0
M  V30 1422 N 134.507 -0.190092 1.56449 0
M  V30 1423 C 135.437 -1.23816 1.97969 0
M  V30 1424 C 136.418 -1.47201 0.852395 0
M  V30 1425 O 137.603 -1.58854 1.1171 0
M  V30 1426 C 134.733 -2.5813 2.3235 0
M  V30 1427 C 133.687 -2.49348 3.47864 0
M  V30 1428 C 133.013 -3.8798 3.67934 0
M  V30 1429 C 134.313 -2.01424 4.81898 0
M  V30 1430 H 136.007 -0.89311 2.85769 0
M  V30 1431 H 133.553 -0.428177 1.37487 0
M  V30 1432 H 135.506 -3.31637 2.59991 0
M  V30 1433 H 134.23 -2.94386 1.41438 0
M  V30 1434 H 132.889 -1.78297 3.20321 0
M  V30 1435 H 132.537 -4.21597 2.74344 0
M  V30 1436 H 132.237 -3.82978 4.45648 0
M  V30 1437 H 133.761 -4.63101 3.97957 0
M  V30 1438 H 135.175 -2.64693 5.08538 0
M  V30 1439 H 133.572 -2.07413 5.63116 0
M  V30 1440 H 134.642 -0.967677 4.75146 0
M  V30 1441 N 135.985 -1.50799 -0.457987 0
M  V30 1442 C 137.233 -1.62121 -1.2067 0
M  V30 1443 C 137.554 -0.329793 -1.92191 0
M  V30 1444 O 136.824 0.653409 -1.84682 0
M  V30 1445 H 135.404 -0.597441 -0.448411 0
M  V30 1446 H 138.066 -1.87637 -0.527096 0
M  V30 1447 H 137.162 -2.43882 -1.94751 0
M  V30 1448 N 137.463 0.71206 -1.40597 0
M  V30 1449 C 138.393 1.83889 -1.43899 0
M  V30 1450 C 139.374 1.67442 -0.299504 0
M  V30 1451 O 140.559 1.87421 -0.508624 0
M  V30 1452 C 137.689 3.21877 -1.30431 0
M  V30 1453 C 136.643 3.53002 -2.42019 0
M  V30 1454 C 135.969 4.90172 -2.13626 0
M  V30 1455 C 137.269 3.53643 -3.84362 0
M  V30 1456 H 138.963 1.81383 -2.38203 0
M  V30 1457 H 136.509 0.871237 -1.14654 0
M  V30 1458 H 138.462 4.00404 -1.31357 0
M  V30 1459 H 137.186 3.24968 -0.326049 0
M  V30 1460 H 135.845 2.76818 -2.40349 0
M  V30 1461 H 135.493 4.89869 -1.14182 0
M  V30 1462 H 135.193 5.11962 -2.88389 0
M  V30 1463 H 136.717 5.71028 -2.1624 0
M  V30 1464 H 138.131 4.22203 -3.87837 0
M  V30 1465 H 136.528 3.86961 -4.58673 0
M  V30 1466 H 137.598 2.52954 -4.13693 0
M  V30 1467 N 138.941 1.26152 0.944643 0
M  V30 1468 C 140.171 1.14094 1.72239 0
M  V30 1469 C 140.579 -0.306931 1.86694 0
M  V30 1470 O 139.922 -1.22222 1.3714 0
M  V30 1471 C 139.984 1.73316 3.14963 0
M  V30 1472 C 139.648 3.2239 3.23904 0
M  V30 1473 C 140.645 4.19252 3.07447 0
M  V30 1474 C 138.33 3.62788 3.47405 0
M  V30 1475 C 140.324 5.54491 3.14353 0
M  V30 1476 C 138.011 4.98162 3.53947 0
M  V30 1477 C 139.009 5.93823 3.37436 0
M  V30 1478 O 138.697 7.26732 3.43679 0
M  V30 1479 H 138.429 0.398292 0.546205 0
M  V30 1480 H 140.983 1.67201 1.19301 0
M  V30 1481 H 139.213 1.14667 3.69308 0
M  V30 1482 H 140.902 1.56214 3.74636 0
M  V30 1483 H 141.668 3.8938 2.8915 0
M  V30 1484 H 137.547 2.88816 3.59313 0
M  V30 1485 H 141.091 6.29137 3.01384 0
M  V30 1486 H 136.988 5.27695 3.71763 0
M  V30 1487 H 137.756 7.3496 3.60245 0
M  V30 1488 N 140.419 -1.14872 1.07899 0
M  V30 1489 C 141.83 -1.67367 0.827363 0
M  V30 1490 C 142.181 -1.85236 -0.646693 0
M  V30 1491 O 141.306 -1.55974 -1.50004 0
M  V30 1492 C 141.901 -3.04016 1.49532 0
M  V30 1493 C 140.46 -3.53566 1.29106 0
M  V30 1494 C 139.607 -2.29161 1.56143 0
M  V30 1495 H 142.558 -0.990083 1.24028 0
M  V30 1496 H 142.579 -3.69219 0.919643 0
M  V30 1497 H 142.091 -2.90978 2.56814 0
M  V30 1498 H 140.192 -3.71835 0.238713 0
M  V30 1499 H 140.305 -4.34661 2.01511 0
M  V30 1500 H 138.669 -2.34978 0.982717 0
M  V30 1501 H 139.452 -2.18705 2.64619 0
M  V30 1502 N 141.898 -0.863906 -1.31812 0
M  V30 1503 C 143.309 -0.52522 -1.7916 0
M  V30 1504 C 143.66 0.957518 -1.71248 0
M  V30 1505 O 142.785 1.74734 -1.27659 0
M  V30 1506 C 143.38 -0.9466 -3.25307 0
M  V30 1507 C 141.939 -0.659668 -3.70574 0
M  V30 1508 C 141.086 -1.14126 -2.52726 0
M  V30 1509 H 144.037 -1.05022 -1.1898 0
M  V30 1510 H 144.058 -0.266766 -3.79564 0
M  V30 1511 H 143.57 -2.02579 -3.31034 0
M  V30 1512 H 141.671 0.408416 -3.70355 0
M  V30 1513 H 141.784 -1.23245 -4.62977 0
M  V30 1514 H 140.148 -0.561216 -2.4844 0
M  V30 1515 H 140.931 -2.22775 -2.61201 0
M  V30 1516 N 143.376 1.44774 -0.622745 0
M  V30 1517 C 144.323 2.30635 0.0871679 0
M  V30 1518 C 145.293 1.42994 0.845097 0
M  V30 1519 O 146.478 1.71907 0.827812 0
M  V30 1520 C 143.618 3.28144 1.06844 0
M  V30 1521 C 142.731 4.30888 0.309809 0
M  V30 1522 C 141.866 5.15494 1.28215 0
M  V30 1523 C 140.905 6.09953 0.512198 0
M  V30 1524 N 140.042 6.87287 1.43458 0
M  V30 1525 H 144.882 2.90803 -0.650974 0
M  V30 1526 H 142.419 1.43286 -0.33281 0
M  V30 1527 H 144.377 3.83157 1.65066 0
M  V30 1528 H 143.007 2.69695 1.77382 0
M  V30 1529 H 142.059 3.78414 -0.388181 0
M  V30 1530 H 143.371 4.97955 -0.290254 0
M  V30 1531 H 142.525 5.74983 1.93596 0
M  V30 1532 H 141.264 4.48481 1.91614 0
M  V30 1533 H 140.269 5.49581 -0.155151 0
M  V30 1534 H 141.494 6.78999 -0.116958 0
M  V30 1535 H 139.44 6.2295 2.05594 0
M  V30 1536 H 139.357 7.50763 0.888335 0
M  V30 1537 H 140.625 7.51306 2.07749 0
M  V30 1538 N 144.854 0.36279 1.53368 0
M  V30 1539 C 145.817 -0.472679 2.24273 0
M  V30 1540 C 146.817 -1.012 1.24961 0
M  V30 1541 O 148.007 -0.898194 1.49259 0
M  V30 1542 C 145.139 -1.66039 2.97731 0
M  V30 1543 H 146.332 0.14773 2.99536 0
M  V30 1544 H 143.885 0.114434 1.55881 0
M  V30 1545 H 144.62 -2.31896 2.26704 0
M  V30 1546 H 144.405 -1.28066 3.70596 0
M  V30 1547 H 145.895 -2.25252 3.51641 0
M  V30 1548 N 146.332 -1.57332 0.0918853 0
M  V30 1549 C 147.264 -2.10869 -0.898168 0
M  V30 1550 C 148.277 -1.04521 -1.24817 0
M  V30 1551 O 149.466 -1.31977 -1.20184 0
M  V30 1552 C 146.566 -2.57083 -2.2082 0
M  V30 1553 C 145.739 -3.87229 -2.03402 0
M  V30 1554 C 144.798 -4.19324 -3.17889 0
M  V30 1555 O 143.824 -4.88598 -2.91994 0
M  V30 1556 N 145.026 -3.74471 -4.43567 0
M  V30 1557 H 147.791 -2.96439 -0.440943 0
M  V30 1558 H 145.352 -1.61631 -0.0933064 0
M  V30 1559 H 147.344 -2.75602 -2.96354 0
M  V30 1560 H 145.914 -1.76541 -2.57977 0
M  V30 1561 H 145.134 -3.7789 -1.12218 0
M  V30 1562 H 146.422 -4.72379 -1.89038 0
M  V30 1563 H 145.82 -3.18546 -4.67488 0
M  V30 1564 H 144.377 -3.98151 -5.16061 0
M  V30 1565 N 147.81 0.181792 -1.56548 0
M  V30 1566 C 149.04 0.914618 -1.85252 0
M  V30 1567 C 149.448 1.76791 -0.673914 0
M  V30 1568 O 148.791 1.80009 0.366416 0
M  V30 1569 C 148.853 1.85019 -3.08234 0
M  V30 1570 C 148.517 1.17754 -4.41569 0
M  V30 1571 C 149.514 0.548035 -5.17003 0
M  V30 1572 C 147.199 1.17742 -4.88305 0
M  V30 1573 C 149.193 -0.0726128 -6.37359 0
M  V30 1574 C 146.88 0.552946 -6.08593 0
M  V30 1575 C 147.878 -0.070978 -6.82963 0
M  V30 1576 O 147.566 -0.685635 -8.00971 0
M  V30 1577 H 147.298 0.271695 -0.618998 0
M  V30 1578 H 149.852 0.189944 -2.0452 0
M  V30 1579 H 148.082 2.61491 -2.84885 0
M  V30 1580 H 149.771 2.45195 -3.23472 0
M  V30 1581 H 150.537 0.540174 -4.81982 0
M  V30 1582 H 146.416 1.65246 -4.30366 0
M  V30 1583 H 149.96 -0.560213 -6.95347 0
M  V30 1584 H 145.857 0.558354 -6.43081 0
M  V30 1585 H 146.625 -0.58385 -8.16415 0
M  V30 1586 N 149.288 1.51039 0.449983 0
M  V30 1587 C 150.536 1.62759 1.19808 0
M  V30 1588 C 150.857 0.339981 1.92013 0
M  V30 1589 O 150.127 -0.643606 1.85026 0
M  V30 1590 H 148.707 0.599811 0.445237 0
M  V30 1591 H 151.369 1.87914 0.517138 0
M  V30 1592 H 150.465 2.44911 1.93455 0
M  V30 1593 N 150.766 -0.704594 1.40972 0
M  V30 1594 C 151.699 -1.82861 1.36518 0
M  V30 1595 C 152.677 -1.6091 0.23382 0
M  V30 1596 O 153.861 -1.83778 0.419271 0
M  V30 1597 C 150.988 -3.1939 1.12729 0
M  V30 1598 C 150.034 -3.60148 2.28463 0
M  V30 1599 S 150.867 -3.65994 3.90907 0
M  V30 1600 C 152.023 -5.05264 3.69403 0
M  V30 1601 H 152.256 -1.86361 2.3164 0
M  V30 1602 H 149.789 -0.872439 1.27389 0
M  V30 1603 H 151.747 -3.98211 0.996893 0
M  V30 1604 H 150.408 -3.1351 0.192427 0
M  V30 1605 H 149.601 -4.59309 2.07489 0
M  V30 1606 H 149.203 -2.88612 2.37863 0
M  V30 1607 H 151.495 -5.92504 3.28551 0
M  V30 1608 H 152.438 -5.31278 4.68134 0
M  V30 1609 H 152.846 -4.76377 3.02862 0
M  V30 1610 N 152.244 -1.26651 -0.937939 0
M  V30 1611 C 153.492 -1.12165 -1.68118 0
M  V30 1612 C 153.813 0.334983 -1.92101 0
M  V30 1613 O 153.083 1.23583 -1.52 0
M  V30 1614 H 151.663 -0.412093 -0.623048 0
M  V30 1615 H 154.325 -1.59027 -1.12678 0
M  V30 1616 H 153.421 -1.64289 -2.6536 0
M  V30 1617 N 153.722 1.14298 -1.08507 0
M  V30 1618 C 154.971 1.84708 -0.810305 0
M  V30 1619 C 155.284 1.83903 0.666271 0
M  V30 1620 O 156.49 2.50112 1.05624 0
M  V30 1621 C 154.946 3.31572 -1.39957 0
M  V30 1622 C 154.554 3.40791 -2.90801 0
M  V30 1623 C 156.298 4.07087 -1.20334 0
M  V30 1624 C 154.205 4.81872 -3.4286 0
M  V30 1625 H 153.135 0.691985 -0.299454 0
M  V30 1626 H 155.786 1.28841 -1.30661 0
M  V30 1627 H 154.168 3.87183 -0.830976 0
M  V30 1628 H 155.342 2.95225 -3.53806 0
M  V30 1629 H 153.657 2.78732 -3.0935 0
M  V30 1630 H 156.254 5.11225 -1.56693 0
M  V30 1631 H 156.597 4.16054 -0.143237 0
M  V30 1632 H 157.13 3.57779 -1.73893 0
M  V30 1633 H 153.869 4.78094 -4.48449 0
M  V30 1634 H 153.389 5.27972 -2.84615 0
M  V30 1635 H 155.068 5.50765 -3.39509 0
M  V30 1636 N 155.201 0.870884 1.31352 0
M  V30 1637 C 156.612 0.534714 1.78879 0
M  V30 1638 C 156.963 -0.948423 1.71754 0
M  V30 1639 O 156.088 -1.74055 1.28584 0
M  V30 1640 C 156.683 0.963839 3.24801 0
M  V30 1641 C 155.242 0.679311 3.70219 0
M  V30 1642 C 154.389 1.15465 2.52117 0
M  V30 1643 H 157.34 1.05651 1.18421 0
M  V30 1644 H 157.361 0.286892 3.79417 0
M  V30 1645 H 156.873 2.04332 3.29955 0
M  V30 1646 H 154.974 -0.388769 3.70566 0
M  V30 1647 H 155.087 1.25698 4.62317 0
M  V30 1648 H 153.451 0.574383 2.48139 0
M  V30 1649 H 154.234 2.24157 2.60016 0
M  V30 1650 N 156.679 -1.44442 0.630414 0
M  V30 1651 C 158.09 -1.85434 0.217063 0
M  V30 1652 C 158.441 -1.52748 -1.23136 0
M  V30 1653 O 157.566 -0.965205 -1.93682 0
M  V30 1654 C 158.161 -3.36581 0.387168 0
M  V30 1655 C 156.72 -3.76389 0.0283297 0
M  V30 1656 C 155.867 -2.68296 0.700889 0
M  V30 1657 H 158.818 -1.34919 0.83562 0
M  V30 1658 H 158.839 -3.78657 -0.374086 0
M  V30 1659 H 158.351 -3.60339 1.44144 0
M  V30 1660 H 156.452 -3.58246 -1.02423 0
M  V30 1661 H 156.565 -4.77095 0.437892 0
M  V30 1662 H 154.929 -2.54335 0.136267 0
M  V30 1663 H 155.712 -2.94887 1.75774 0
M  V30 1664 N 158.157 -0.370918 -1.53173 0
M  V30 1665 C 159.087 0.464847 -2.28826 0
M  V30 1666 C 160.068 1.07936 -1.31468 0
M  V30 1667 O 161.253 1.0956 -1.60344 0
M  V30 1668 C 158.383 1.60196 -3.08147 0
M  V30 1669 C 157.337 1.11443 -4.13237 0
M  V30 1670 C 156.663 2.3422 -4.80672 0
M  V30 1671 C 157.963 0.195384 -5.21934 0
M  V30 1672 H 159.657 -0.166329 -2.98938 0
M  V30 1673 H 157.203 -0.0814359 -1.4377 0
M  V30 1674 H 159.156 2.19332 -3.59822 0
M  V30 1675 H 157.88 2.26045 -2.35735 0
M  V30 1676 H 156.539 0.545727 -3.62515 0
M  V30 1677 H 156.187 2.98537 -4.04827 0
M  V30 1678 H 155.887 2.02269 -5.51689 0
M  V30 1679 H 157.411 2.94032 -5.35143 0
M  V30 1680 H 158.825 0.694375 -5.69079 0
M  V30 1681 H 157.222 -0.0335027 -6.00091 0
M  V30 1682 H 158.292 -0.760961 -4.78892 0
M  V30 1683 N 159.635 1.57281 -0.100228 0
M  V30 1684 C 160.585 2.10848 0.86759 0
M  V30 1685 C 161.569 1.02473 1.24049 0
M  V30 1686 O 162.761 1.28739 1.21471 0
M  V30 1687 C 159.89 2.69648 2.12474 0
M  V30 1688 C 158.976 3.85074 1.77704 0
M  V30 1689 N 159.367 4.92897 1.13518 0
M  V30 1690 C 157.665 3.94905 2.07282 0
M  V30 1691 C 158.366 5.73475 0.974735 0
M  V30 1692 N 157.342 5.22675 1.4937 0
M  V30 1693 H 161.144 2.91594 0.367471 0
M  V30 1694 H 158.658 1.62074 0.102829 0
M  V30 1695 H 160.655 3.06356 2.82757 0
M  V30 1696 H 159.315 1.90359 2.63047 0
M  V30 1697 H 160.326 5.11662 0.801381 0
M  V30 1698 H 157.003 3.26633 2.60033 0
M  V30 1699 H 158.393 6.70238 0.472364 0
M  V30 1700 N 161.113 -0.173488 1.56642 0
M  V30 1701 C 162.39 -0.917617 1.7274 0
M  V30 1702 C 162.77 -2.00484 0.661027 0
M  V30 1703 O 162.118 -2.26184 -0.32453 0
M  V30 1704 C 162.328 -1.48433 3.15862 0
M  V30 1705 C 163.676 -1.95809 3.76754 0
M  V30 1706 O 164.7 -1.58231 3.19126 0
M  V30 1707 O 163.559 -2.65024 4.77938 0
M  V30 1708 H 160.653 -0.431772 0.705338 0
M  V30 1709 H 163.199 -0.161487 1.6893 0
M  V30 1710 H 161.971 -0.701715 3.84957 0
M  V30 1711 H 161.594 -2.30471 3.23989 0
M  V30 1712 N 162.591 -1.51276 -0.441967 0
M  V30 1713 C 163.839 -1.63392 -1.18943 0
M  V30 1714 C 164.16 -0.350159 -1.9183 0
M  V30 1715 O 163.43 0.633784 -1.85364 0
M  V30 1716 H 162.01 -0.602164 -0.442049 0
M  V30 1717 H 164.672 -1.88186 -0.507165 0
M  V30 1718 H 163.768 -2.45934 -1.92154 0
M  V30 1719 N 164.069 0.697108 -1.41344 0
M  V30 1720 C 165.317 1.45426 -1.40341 0
M  V30 1721 C 165.638 1.94996 -0.0128787 0
M  V30 1722 O 164.908 1.71599 0.945027 0
M  V30 1723 H 163.488 0.539594 -0.516573 0
M  V30 1724 H 166.15 0.825201 -1.76569 0
M  V30 1725 H 165.246 2.31817 -2.08967 0
M  V30 1726 N 165.547 1.27147 0.931209 0
M  V30 1727 C 166.793 1.14455 1.68141 0
M  V30 1728 C 167.148 -0.307172 1.89932 0
M  V30 1729 O 166.441 -1.22158 1.47607 0
M  V30 1730 C 166.635 1.8579 3.05314 0
M  V30 1731 C 166.464 3.3775 2.96909 0
M  V30 1732 C 165.234 4.07062 2.99381 0
M  V30 1733 C 167.432 4.33783 2.76291 0
M  V30 1734 N 165.414 5.45618 2.8138 0
M  V30 1735 C 166.785 5.59582 2.6696 0
M  V30 1736 C 168.84 4.23915 2.61152 0
M  V30 1737 C 167.543 6.76639 2.44033 0
M  V30 1738 C 169.569 5.40689 2.39602 0
M  V30 1739 C 168.931 6.65443 2.3101 0
M  V30 1740 H 165.03 0.473667 0.622225 0
M  V30 1741 H 167.614 1.60568 1.10118 0
M  V30 1742 H 165.785 1.42138 3.61457 0
M  V30 1743 H 167.517 1.65634 3.69253 0
M  V30 1744 H 164.272 3.585 3.09475 0
M  V30 1745 H 164.696 6.184 2.75519 0
M  V30 1746 H 169.338 3.28189 2.66555 0
M  V30 1747 H 167.056 7.72451 2.3737 0
M  V30 1748 H 170.642 5.34932 2.28778 0
M  V30 1749 H 169.522 7.54277 2.14558 0
M  V30 1750 N 167.025 -1.13721 1.09112 0
M  V30 1751 C 168.271 -1.85413 0.836283 0
M  V30 1752 C 168.626 -1.8175 -0.631249 0
M  V30 1753 O 167.919 -1.24238 -1.45861 0
M  V30 1754 C 168.113 -3.32861 1.30146 0
M  V30 1755 C 167.942 -3.50882 2.81268 0
M  V30 1756 C 166.712 -3.65312 3.49106 0
M  V30 1757 C 168.91 -3.47196 3.7942 0
M  V30 1758 N 166.892 -3.71563 4.88686 0
M  V30 1759 C 168.263 -3.59777 5.04936 0
M  V30 1760 C 170.318 -3.30577 3.72321 0
M  V30 1761 C 169.021 -3.57455 6.24194 0
M  V30 1762 C 171.047 -3.29562 4.91063 0
M  V30 1763 C 170.409 -3.42691 6.15421 0
M  V30 1764 H 166.508 -0.694812 0.358832 0
M  V30 1765 H 169.092 -1.36246 1.39087 0
M  V30 1766 H 167.263 -3.80602 0.774361 0
M  V30 1767 H 168.995 -3.92346 0.99229 0
M  V30 1768 H 165.75 -3.6685 2.9953 0
M  V30 1769 H 166.174 -3.78387 5.61384 0
M  V30 1770 H 170.816 -3.19332 2.77105 0
M  V30 1771 H 168.534 -3.67475 7.19714 0
M  V30 1772 H 172.12 -3.17905 4.87266 0
M  V30 1773 H 171 -3.41862 7.05762 0
M  V30 1774 N 168.503 -0.877838 -1.30888 0
M  V30 1775 C 169.433 -0.35534 -2.3078 0
M  V30 1776 C 170.414 0.557994 -1.60687 0
M  V30 1777 O 171.599 0.473355 -1.88343 0
M  V30 1778 C 168.729 0.437221 -3.44537 0
M  V30 1779 C 167.683 -0.383715 -4.26276 0
M  V30 1780 C 167.009 0.535014 -5.32017 0
M  V30 1781 C 168.309 -1.62201 -4.96476 0
M  V30 1782 H 170.003 -1.19007 -2.74732 0
M  V30 1783 H 167.549 -0.573698 -1.32078 0
M  V30 1784 H 169.502 0.813334 -4.13477 0
M  V30 1785 H 168.226 1.30553 -2.99372 0
M  V30 1786 H 166.885 -0.741874 -3.59015 0
M  V30 1787 H 166.533 1.40083 -4.831 0
M  V30 1788 H 166.233 -0.0104211 -5.87599 0
M  V30 1789 H 167.757 0.907799 -6.03814 0
M  V30 1790 H 169.171 -1.31689 -5.5797 0
M  V30 1791 H 167.568 -2.10711 -5.61891 0
M  V30 1792 H 168.638 -2.37044 -4.23011 0
M  V30 1793 N 169.982 1.44106 -0.638065 0
M  V30 1794 C 170.915 2.27924 0.112161 0
M  V30 1795 C 171.893 1.38945 0.844574 0
M  V30 1796 O 173.077 1.68386 0.847248 0
M  V30 1797 C 170.204 3.18029 1.16512 0
M  V30 1798 C 169.25 4.23163 0.532458 0
M  V30 1799 S 170.083 5.31131 -0.682666 0
M  V30 1800 C 171.239 6.24805 0.37013 0
M  V30 1801 H 171.472 2.91205 -0.598887 0
M  V30 1802 H 169.005 1.48394 -0.426441 0
M  V30 1803 H 170.963 3.70492 1.76766 0
M  V30 1804 H 169.624 2.53955 1.8484 0
M  V30 1805 H 168.817 4.86252 1.32571 0
M  V30 1806 H 168.419 3.74 0.00437644 0
M  V30 1807 H 170.711 6.66042 1.24071 0
M  V30 1808 H 171.654 7.07741 -0.225349 0
M  V30 1809 H 172.062 5.60154 0.699141 0
M  V30 1810 N 171.46 0.379036 1.52974 0
M  V30 1811 C 172.423 -0.448865 2.24762 0
M  V30 1812 C 173.423 -0.998689 1.26027 0
M  V30 1813 O 174.613 -0.882313 1.50203 0
M  V30 1814 C 171.745 -1.62872 2.99476 0
M  V30 1815 H 172.938 0.179491 2.99362 0
M  V30 1816 H 170.491 0.13096 1.5575 0
M  V30 1817 H 171.226 -2.29479 2.29151 0
M  V30 1818 H 171.011 -1.24128 3.71934 0
M  V30 1819 H 172.501 -2.2151 3.5401 0
M  V30 1820 N 172.938 -1.57226 0.108567 0
M  V30 1821 C 174.186 -1.94448 -0.550853 0
M  V30 1822 C 174.507 -0.992074 -1.67878 0
M  V30 1823 O 173.777 -0.0465 -1.95845 0
M  V30 1824 H 172.357 -0.717897 -0.206479 0
M  V30 1825 H 175.019 -1.94112 0.175062 0
M  V30 1826 H 174.115 -2.97218 -0.952259 0
M  V30 1827 N 174.416 0.165178 -1.56732 0
M  V30 1828 C 175.346 1.20651 -1.99914 0
M  V30 1829 C 176.327 1.45827 -0.875705 0
M  V30 1830 O 177.512 1.57057 -1.14223 0
M  V30 1831 C 174.642 2.54401 -2.36427 0
M  V30 1832 C 173.596 2.43782 -3.51787 0
M  V30 1833 C 172.922 3.82078 -3.7406 0
M  V30 1834 C 174.222 1.93732 -4.85041 0
M  V30 1835 H 175.916 0.847534 -2.87154 0
M  V30 1836 H 173.462 0.40625 -1.38151 0
M  V30 1837 H 175.415 3.27458 -2.65234 0
M  V30 1838 H 174.139 2.92098 -1.46103 0
M  V30 1839 H 172.798 1.73178 -3.23117 0
M  V30 1840 H 172.446 4.17179 -2.81017 0
M  V30 1841 H 172.146 3.7584 -4.51684 0
M  V30 1842 H 173.67 4.56712 -4.05274 0
M  V30 1843 H 175.084 2.56569 -5.12684 0
M  V30 1844 H 173.481 1.98428 -5.66345 0
M  V30 1845 H 174.551 0.891962 -4.76626 0
M  V30 1846 N 175.894 1.51508 0.433938 0
M  V30 1847 C 177.141 1.64345 1.18309 0
M  V30 1848 C 177.469 0.361315 1.91115 0
M  V30 1849 O 176.724 -0.654753 1.84422 0
M  V30 1850 C 177.023 2.79928 2.22205 0
M  V30 1851 C 176.689 4.19078 1.66387 0
M  V30 1852 C 175.351 4.56932 1.50887 0
M  V30 1853 C 177.703 5.05894 1.25381 0
M  V30 1854 C 175.031 5.79305 0.928608 0
M  V30 1855 C 177.383 6.2885 0.687823 0
M  V30 1856 C 176.047 6.65473 0.519755 0
M  V30 1857 H 175.317 0.601381 0.432923 0
M  V30 1858 H 177.964 1.85549 0.473676 0
M  V30 1859 H 176.269 2.52959 2.99197 0
M  V30 1860 H 177.966 2.87059 2.79997 0
M  V30 1861 H 174.556 3.89234 1.79428 0
M  V30 1862 H 178.74 4.77253 1.36175 0
M  V30 1863 H 173.996 6.06324 0.786186 0
M  V30 1864 H 178.17 6.95461 0.361581 0
M  V30 1865 H 175.797 7.6017 0.0679979 0
M  V30 1866 N 177.372 -0.689602 1.41712 0
M  V30 1867 C 178.305 -1.81403 1.3845 0
M  V30 1868 C 179.283 -1.60653 0.250874 0
M  V30 1869 O 180.467 -1.83323 0.43874 0
M  V30 1870 C 177.594 -3.18176 1.1611 0
M  V30 1871 C 176.64 -3.57705 2.3227 0
M  V30 1872 S 177.473 -3.61827 3.94767 0
M  V30 1873 C 178.629 -5.01318 3.74742 0
M  V30 1874 H 178.862 -1.83893 2.33603 0
M  V30 1875 H 176.395 -0.858878 1.28307 0
M  V30 1876 H 178.353 -3.97132 1.03907 0
M  V30 1877 H 177.014 -3.13288 0.225668 0
M  V30 1878 H 176.207 -4.57082 2.12349 0
M  V30 1879 H 175.809 -2.86073 2.40911 0
M  V30 1880 H 178.101 -5.88986 3.34817 0
M  V30 1881 H 179.044 -5.26283 4.73743 0
M  V30 1882 H 179.452 -4.73138 3.07898 0
M  V30 1883 N 178.85 -1.27639 -0.924453 0
M  V30 1884 C 180.078 -1.16989 -1.70649 0
M  V30 1885 C 180.493 0.272869 -1.86818 0
M  V30 1886 O 179.85 1.18549 -1.38753 0
M  V30 1887 C 179.901 -1.85229 -3.10439 0
M  V30 1888 O 179.622 -3.23868 -2.95028 0
M  V30 1889 C 181.123 -1.80746 -4.04779 0
M  V30 1890 H 178.343 -0.406595 -0.53378 0
M  V30 1891 H 180.887 -1.68569 -1.15778 0
M  V30 1892 H 179.042 -1.37545 -3.6216 0
M  V30 1893 H 179.456 -3.57889 -3.83426 0
M  V30 1894 H 180.93 -2.33101 -5.00368 0
M  V30 1895 H 181.407 -0.777499 -4.32263 0
M  V30 1896 H 182.013 -2.28059 -3.58984 0
M  V30 1897 N 180.328 1.1314 -1.09713 0
M  V30 1898 C 181.258 2.20748 -0.761102 0
M  V30 1899 C 182.239 1.68061 0.262566 0
M  V30 1900 O 183.424 1.93765 0.129977 0
M  V30 1901 C 180.554 3.46812 -0.184054 0
M  V30 1902 C 179.508 4.12606 -1.13757 0
M  V30 1903 C 178.834 5.33031 -0.422083 0
M  V30 1904 C 180.134 4.59603 -2.48118 0
M  V30 1905 H 181.828 2.49113 -1.66082 0
M  V30 1906 H 179.374 1.19734 -0.799987 0
M  V30 1907 H 181.327 4.21353 0.0631215 0
M  V30 1908 H 180.051 3.17851 0.750868 0
M  V30 1909 H 178.71 3.40036 -1.37007 0
M  V30 1910 H 178.358 5.00335 0.517072 0
M  V30 1911 H 178.058 5.77999 -1.05788 0
M  V30 1912 H 179.582 6.10325 -0.183277 0
M  V30 1913 H 180.996 5.25552 -2.29059 0
M  V30 1914 H 179.393 5.15321 -3.07514 0
M  V30 1915 H 180.463 3.73971 -3.08665 0
M  V30 1916 N 181.806 0.884767 1.30421 0
M  V30 1917 C 183.031 0.517288 2.00845 0
M  V30 1918 C 183.456 -0.886779 1.65885 0
M  V30 1919 O 182.814 -1.58768 0.875354 0
M  V30 1920 C 182.862 0.698994 3.5376 0
M  V30 1921 O 181.966 -0.255208 4.1161 0
M  V30 1922 H 181.307 0.203872 0.631927 0
M  V30 1923 H 183.837 1.19225 1.66272 0
M  V30 1924 H 183.847 0.597912 4.03595 0
M  V30 1925 H 182.522 1.72271 3.78544 0
M  V30 1926 H 181.099 -0.10784 3.72744 0
M  V30 1927 N 183.284 -1.43765 0.645699 0
M  V30 1928 C 184.214 -2.33471 -0.0370477 0
M  V30 1929 C 185.195 -1.49042 -0.819779 0
M  V30 1930 O 186.38 -1.77726 -0.782758 0
M  V30 1931 C 183.51 -3.32311 -1.0093 0
M  V30 1932 C 182.464 -4.2667 -0.337201 0
M  V30 1933 C 181.79 -5.1549 -1.42037 0
M  V30 1934 C 183.09 -5.16657 0.765706 0
M  V30 1935 H 184.784 -2.90809 0.712069 0
M  V30 1936 H 182.33 -1.39834 0.343876 0
M  V30 1937 H 184.283 -3.9396 -1.49578 0
M  V30 1938 H 183.007 -2.73213 -1.78948 0
M  V30 1939 H 181.666 -3.66374 0.128771 0
M  V30 1940 H 181.314 -4.52735 -2.1918 0
M  V30 1941 H 181.014 -5.79438 -0.975966 0
M  V30 1942 H 182.538 -5.80012 -1.90838 0
M  V30 1943 H 183.952 -5.72158 0.361702 0
M  V30 1944 H 182.349 -5.89286 1.13413 0
M  V30 1945 H 183.419 -4.56796 1.62683 0
M  V30 1946 N 184.763 -0.387143 -1.52771 0
M  V30 1947 C 186.011 0.195349 -2.01154 0
M  V30 1948 C 186.332 1.475 -1.27549 0
M  V30 1949 O 185.602 1.91878 -0.394924 0
M  V30 1950 H 184.182 0.075178 -0.743207 0
M  V30 1951 H 186.844 -0.518337 -1.87881 0
M  V30 1952 H 185.94 0.407096 -3.09434 0
M  V30 1953 N 186.241 1.57166 -0.116904 0
M  V30 1954 C 187.466 1.999 0.55271 0
M  V30 1955 C 187.891 0.996039 1.59564 0
M  V30 1956 O 187.249 -0.032556 1.81271 0
M  V30 1957 C 187.297 3.4152 1.15742 0
M  V30 1958 O 186.401 3.44106 2.27299 0
M  V30 1959 H 185.742 0.649447 0.138258 0
M  V30 1960 H 188.272 2.03573 -0.204759 0
M  V30 1961 H 188.282 3.79684 1.49346 0
M  V30 1962 H 186.957 4.14034 0.393493 0
M  V30 1963 H 185.534 3.17759 1.9515 0
M  V30 1964 N 187.719 -0.156864 1.56817 0
M  V30 1965 C 188.965 -0.867645 1.83966 0
M  V30 1966 C 189.32 -1.79233 0.699511 0
M  V30 1967 O 188.613 -1.89186 -0.303176 0
M  V30 1968 C 188.807 -1.68737 3.1506 0
M  V30 1969 C 188.636 -0.843548 4.41718 0
M  V30 1970 C 187.406 -0.512994 5.02689 0
M  V30 1971 C 189.604 -0.178416 5.1399 0
M  V30 1972 N 187.586 0.345456 6.12927 0
M  V30 1973 C 188.957 0.540586 6.17639 0
M  V30 1974 C 191.012 -0.0980696 4.97803 0
M  V30 1975 C 189.715 1.33233 7.06853 0
M  V30 1976 C 191.741 0.680387 5.87473 0
M  V30 1977 C 191.103 1.3877 6.90596 0
M  V30 1978 H 187.202 -0.295642 0.723961 0
M  V30 1979 H 189.786 -0.13365 1.94241 0
M  V30 1980 H 187.957 -2.39268 3.0595 0
M  V30 1981 H 189.689 -2.34056 3.30151 0
M  V30 1982 H 186.444 -0.846476 4.65974 0
M  V30 1983 H 186.868 0.765415 6.72659 0
M  V30 1984 H 191.51 -0.630562 4.18071 0
M  V30 1985 H 189.228 1.87612 7.8602 0
M  V30 1986 H 192.814 0.744415 5.77018 0
M  V30 1987 H 191.694 1.9804 7.58782 0
M  V30 1988 N 189.197 -1.51736 -0.425897 0
M  V30 1989 C 190.443 -1.66174 -1.17294 0
M  V30 1990 C 190.798 -0.37876 -1.88635 0
M  V30 1991 O 190.091 0.626021 -1.81084 0
M  V30 1992 C 190.285 -2.81103 -2.20717 0
M  V30 1993 C 190.114 -4.20453 -1.59529 0
M  V30 1994 C 188.884 -4.86225 -1.37525 0
M  V30 1995 C 191.082 -5.03146 -1.06528 0
M  V30 1996 N 189.064 -6.09657 -0.720537 0
M  V30 1997 C 190.435 -6.17674 -0.536506 0
M  V30 1998 C 192.49 -4.88594 -0.958127 0
M  V30 1999 C 191.193 -7.19245 0.0888917 0
M  V30 2000 C 193.219 -5.90383 -0.346608 0
M  V30 2001 C 192.581 -7.04191 0.171564 0
M  V30 2002 H 188.68 -0.661871 -0.416475 0
M  V30 2003 H 191.264 -1.88997 -0.467801 0
M  V30 2004 H 189.435 -2.59924 -2.88607 0
M  V30 2005 H 191.167 -2.84662 -2.87663 0
M  V30 2006 H 187.922 -4.44293 -1.64015 0
M  V30 2007 H 188.346 -6.75756 -0.410292 0
M  V30 2008 H 192.988 -4.0085 -1.34459 0
M  V30 2009 H 190.706 -8.06628 0.48746 0
M  V30 2010 H 194.292 -5.81194 -0.265451 0
M  V30 2011 H 193.172 -7.81606 0.637309 0
M  V30 2012 N 190.675 0.682077 -1.42076 0
M  V30 2013 C 191.924 1.43786 -1.41451 0
M  V30 2014 C 192.237 1.95574 -0.0317074 0
M  V30 2015 O 193.443 2.71326 0.0971462 0
M  V30 2016 C 191.899 2.60071 -2.48779 0
M  V30 2017 C 191.507 2.15013 -3.93031 0
M  V30 2018 C 193.251 3.37626 -2.57311 0
M  V30 2019 C 191.158 3.28336 -4.91883 0
M  V30 2020 H 190.088 0.540143 -0.526082 0
M  V30 2021 H 192.739 0.739157 -1.67955 0
M  V30 2022 H 191.121 3.32275 -2.15429 0
M  V30 2023 H 192.295 1.5001 -4.35699 0
M  V30 2024 H 190.61 1.50416 -3.88284 0
M  V30 2025 H 193.207 4.22012 -3.28345 0
M  V30 2026 H 193.55 3.83727 -1.61429 0
M  V30 2027 H 194.083 2.72488 -2.89819 0
M  V30 2028 H 190.822 2.87234 -5.89217 0
M  V30 2029 H 190.342 3.92145 -4.53853 0
M  V30 2030 H 192.021 3.93913 -5.13265 0
M  V30 2031 N 192.153 1.28127 0.917671 0
M  V30 2032 C 193.569 1.05749 1.19538 0
M  V30 2033 C 193.769 -0.202633 2.00479 0
M  V30 2034 O 192.825 -0.905382 2.3571 0
M  V30 2035 C 194.138 2.30273 1.93378 0
M  V30 2036 C 195.686 2.35412 2.06277 0
M  V30 2037 C 196.161 3.59692 2.83524 0
M  V30 2038 N 197.652 3.60309 2.91087 0
M  V30 2039 C 198.387 4.53147 3.51348 0
M  V30 2040 N 197.883 5.563 4.12919 0
M  V30 2041 N 199.676 4.40751 3.48849 0
M  V30 2042 H 191.827 2.09024 0.377184 0
M  V30 2043 H 194.09 0.919798 0.22951 0
M  V30 2044 H 193.796 3.22055 1.41328 0
M  V30 2045 H 193.67 2.36378 2.93947 0
M  V30 2046 H 196.057 1.4413 2.57508 0
M  V30 2047 H 196.138 2.33304 1.04895 0
M  V30 2048 H 195.782 4.51316 2.32973 0
M  V30 2049 H 195.712 3.59054 3.85211 0
M  V30 2050 H 198.203 2.85714 2.47338 0
M  V30 2051 H 198.516 6.2329 4.56869 0
M  V30 2052 H 196.861 5.60131 4.11435 0
M  V30 2053 H 200.052 3.59367 2.99955 0
M  V30 2054 H 200.225 5.13291 3.9552 0
M  V30 2055 N 193.631 -1.12557 1.10312 0
M  V30 2056 C 194.877 -1.84311 0.846011 0
M  V30 2057 C 195.21 -1.83805 -0.626859 0
M  V30 2058 O 194.485 -1.28268 -1.46211 0
M  V30 2059 C 194.768 -3.32048 1.39341 0
M  V30 2060 C 194.621 -3.41016 2.93305 0
M  V30 2061 C 195.94 -4.27764 1.03468 0
M  V30 2062 H 193.059 -0.669192 0.30879 0
M  V30 2063 H 195.701 -1.32057 1.36605 0
M  V30 2064 H 193.851 -3.76678 0.951087 0
M  V30 2065 H 195.523 -3.05031 3.46055 0
M  V30 2066 H 193.766 -2.81603 3.29973 0
M  V30 2067 H 194.437 -4.44948 3.26689 0
M  V30 2068 H 196.913 -3.91253 1.41633 0
M  V30 2069 H 195.789 -5.29549 1.44463 0
M  V30 2070 H 196.05 -4.42064 -0.0560404 0
M  V30 2071 N 195.109 -0.891671 -1.2995 0
M  V30 2072 C 196.339 -0.527893 -1.99742 0
M  V30 2073 C 196.747 0.88979 -1.66971 0
M  V30 2074 O 196.09 1.59766 -0.906667 0
M  V30 2075 C 196.152 -0.630804 -3.53922 0
M  V30 2076 C 195.816 -2.01401 -4.10228 0
M  V30 2077 C 196.813 -2.98422 -4.25724 0
M  V30 2078 C 194.498 -2.32121 -4.45449 0
M  V30 2079 C 196.492 -4.24293 -4.75662 0
M  V30 2080 C 194.179 -3.58237 -4.95086 0
M  V30 2081 C 195.177 -4.54137 -5.10146 0
M  V30 2082 O 194.865 -5.78014 -5.58708 0
M  V30 2083 H 194.597 -0.201953 -0.645129 0
M  V30 2084 H 197.151 -1.20076 -1.66646 0
M  V30 2085 H 195.381 0.0990616 -3.86573 0
M  V30 2086 H 197.07 -0.277338 -4.04951 0
M  V30 2087 H 197.836 -2.76001 -3.98809 0
M  V30 2088 H 193.715 -1.5824 -4.32991 0
M  V30 2089 H 197.259 -4.99153 -4.87332 0
M  V30 2090 H 193.156 -3.80491 -5.21437 0
M  V30 2091 H 193.924 -5.8049 -5.77039 0
M  V30 2092 N 196.587 1.43421 -0.653314 0
M  V30 2093 C 197.812 2.06678 -0.172846 0
M  V30 2094 C 198.237 1.48648 1.15262 0
M  V30 2095 O 197.595 0.596457 1.71208 0
M  V30 2096 C 197.643 3.60474 -0.0953184 0
M  V30 2097 O 196.747 4.01487 0.942442 0
M  V30 2098 H 196.088 0.657181 -0.0949155 0
M  V30 2099 H 198.618 1.83925 -0.896265 0
M  V30 2100 H 198.628 4.07905 0.0879728 0
M  V30 2101 H 197.303 4.02088 -1.06291 0
M  V30 2102 H 195.88 3.65646 0.731932 0
M  V30 2103 N 198.065 0.39524 1.52563 0
M  V30 2104 C 199.481 0.0454682 1.59535 0
M  V30 2105 C 199.681 -1.44056 1.4089 0
M  V30 2106 O 198.737 -2.20579 1.22888 0
M  V30 2107 C 200.05 0.527963 2.96029 0
M  V30 2108 C 201.598 0.484733 3.09224 0
M  V30 2109 C 202.073 0.943512 4.48176 0
M  V30 2110 N 203.564 0.899765 4.54377 0
M  V30 2111 C 204.299 1.22609 5.60138 0
M  V30 2112 N 203.795 1.62319 6.73516 0
M  V30 2113 N 205.588 1.14696 5.50274 0
M  V30 2114 H 197.739 1.36261 1.62931 0
M  V30 2115 H 200.002 0.558887 0.765735 0
M  V30 2116 H 199.708 1.56607 3.14908 0
M  V30 2117 H 199.582 -0.0698056 3.77135 0
M  V30 2118 H 201.969 -0.544298 2.90037 0
M  V30 2119 H 202.05 1.11838 2.30056 0
M  V30 2120 H 201.694 1.9708 4.68104 0
M  V30 2121 H 201.624 0.286817 5.25818 0
M  V30 2122 H 204.115 0.607632 3.72983 0
M  V30 2123 H 204.428 1.85567 7.5019 0
M  V30 2124 H 202.773 1.66211 6.74833 0
M  V30 2125 H 205.964 0.835701 4.6058 0
M  V30 2126 H 206.137 1.40459 6.32594 0
M  V30 2127 N 199.544 -1.57102 0.125237 0
M  V30 2128 C 200.507 -2.14471 -0.80838 0
M  V30 2129 C 201.507 -1.0811 -1.19033 0
M  V30 2130 O 202.697 -1.33856 -1.11482 0
M  V30 2131 C 199.829 -2.69005 -2.09402 0
M  V30 2132 H 201.022 -2.98297 -0.309696 0
M  V30 2133 H 198.575 -1.55807 -0.124051 0
M  V30 2134 H 199.31 -1.88785 -2.63687 0
M  V30 2135 H 199.095 -3.46799 -1.82957 0
M  V30 2136 H 200.585 -3.13278 -2.76128 0
M  V30 2137 N 201.022 0.148545 -1.56898 0
M  V30 2138 C 202.438 0.501131 -1.51528 0
M  V30 2139 C 202.638 1.83458 -0.833399 0
M  V30 2140 O 201.694 2.49259 -0.40328 0
M  V30 2141 C 203.007 0.512864 -2.96294 0
M  V30 2142 C 204.555 0.598487 -3.07225 0
M  V30 2143 C 205.03 0.640897 -4.53494 0
M  V30 2144 N 206.521 0.703163 -4.57832 0
M  V30 2145 C 207.256 0.756935 -5.68382 0
M  V30 2146 N 206.752 0.770147 -6.88506 0
M  V30 2147 N 208.545 0.797698 -5.56411 0
M  V30 2148 H 200.696 -0.725532 -1.99624 0
M  V30 2149 H 202.959 -0.264358 -0.910395 0
M  V30 2150 H 202.665 -0.398691 -3.49433 0
M  V30 2151 H 202.539 1.35133 -3.52163 0
M  V30 2152 H 204.926 1.50046 -2.54106 0
M  V30 2153 H 205.007 -0.267093 -2.54402 0
M  V30 2154 H 204.651 -0.256915 -5.0725 0
M  V30 2155 H 204.581 1.52295 -5.04097 0
M  V30 2156 H 207.072 0.700314 -3.71354 0
M  V30 2157 H 207.385 0.812983 -7.68512 0
M  V30 2158 H 205.73 0.738049 -6.9107 0
M  V30 2159 H 208.921 0.784535 -4.61479 0
M  V30 2160 H 209.094 0.83614 -6.42583 0
M  V30 2161 N 202.5 1.5196 0.417844 0
M  V30 2162 C 203.463 1.74065 1.49111 0
M  V30 2163 C 204.463 0.610537 1.48758 0
M  V30 2164 O 205.653 0.87832 1.50437 0
M  V30 2165 C 202.785 1.81502 2.88565 0
M  V30 2166 H 203.978 2.69869 1.30807 0
M  V30 2167 H 201.531 1.42244 0.647785 0
M  V30 2168 H 202.266 0.875813 3.1225 0
M  V30 2169 H 202.051 2.63651 2.90225 0
M  V30 2170 H 203.541 2.00376 3.66387 0
M  V30 2171 N 203.978 -0.674533 1.42435 0
M  V30 2172 C 204.908 -1.80009 1.48724 0
M  V30 2173 C 205.889 -1.6659 0.343793 0
M  V30 2174 O 207.074 -1.86007 0.558137 0
M  V30 2175 C 204.204 -3.18306 1.38919 0
M  V30 2176 C 203.158 -3.46461 2.51294 0
M  V30 2177 C 202.484 -4.84335 2.26547 0
M  V30 2178 C 203.784 -3.43328 3.93603 0
M  V30 2179 H 205.478 -1.75004 2.42928 0
M  V30 2180 H 203.024 -0.840533 1.16923 0
M  V30 2181 H 204.977 -3.9678 1.41927 0
M  V30 2182 H 203.701 -3.2399 0.412094 0
M  V30 2183 H 202.36 -2.70348 2.47604 0
M  V30 2184 H 202.008 -4.86669 1.2713 0
M  V30 2185 H 201.708 -5.04136 3.01861 0
M  V30 2186 H 203.232 -5.65094 2.31304 0
M  V30 2187 H 204.646 -4.11772 3.98894 0
M  V30 2188 H 203.043 -3.74664 4.68771 0
M  V30 2189 H 204.113 -2.41897 4.20255 0
M  V30 2190 N 205.456 -1.28612 -0.910864 0
M  V30 2191 C 206.704 -1.15705 -1.65701 0
M  V30 2192 C 207.025 0.29416 -1.92769 0
M  V30 2193 O 206.295 1.20331 -1.54588 0
M  V30 2194 H 204.875 -0.425216 -0.614167 0
M  V30 2195 H 207.537 -1.61381 -1.0928 0
M  V30 2196 H 206.633 -1.6988 -2.61815 0
M  V30 2197 N 206.934 1.1197 -1.10907 0
M  V30 2198 C 207.864 2.19928 -0.784473 0
M  V30 2199 C 208.845 1.6833 0.244726 0
M  V30 2200 O 210.03 1.93892 0.109418 0
M  V30 2201 C 207.16 3.46597 -0.220827 0
M  V30 2202 C 206.114 4.11376 -1.18127 0
M  V30 2203 C 205.44 5.32554 -0.478594 0
M  V30 2204 C 206.74 4.56945 -2.52979 0
M  V30 2205 H 208.434 2.47337 -1.68715 0
M  V30 2206 H 205.98 1.18879 -0.812642 0
M  V30 2207 H 207.933 4.21396 0.0184278 0
M  V30 2208 H 206.657 3.1863 0.717113 0
M  V30 2209 H 205.316 3.38564 -1.40606 0
M  V30 2210 H 204.964 5.00856 0.463976 0
M  V30 2211 H 204.664 5.76844 -1.11912 0
M  V30 2212 H 206.188 6.10096 -0.248 0
M  V30 2213 H 207.602 5.23093 -2.3462 0
M  V30 2214 H 205.999 5.1203 -3.12962 0
M  V30 2215 H 207.069 3.70676 -3.12614 0
M  V30 2216 N 208.412 0.89855 1.29475 0
M  V30 2217 C 209.66 0.522847 1.9522 0
M  V30 2218 C 209.981 -0.93371 1.71192 0
M  V30 2219 O 209.251 -1.65823 1.04305 0
M  V30 2220 H 207.831 0.190366 0.722336 0
M  V30 2221 H 210.493 1.14459 1.5775 0
M  V30 2222 H 209.589 0.704476 3.04045 0
M  V30 2223 N 209.89 -1.43072 0.660911 0
M  V30 2224 C 211.118 -2.06067 0.185422 0
M  V30 2225 C 211.533 -1.49582 -1.15198 0
M  V30 2226 O 210.89 -0.630134 -1.71276 0
M  V30 2227 C 210.941 -3.61371 0.0966523 0
M  V30 2228 O 210.662 -4.15758 1.38119 0
M  V30 2229 C 212.163 -4.41455 -0.403996 0
M  V30 2230 H 209.383 -0.664459 0.0934604 0
M  V30 2231 H 211.927 -1.83447 0.90373 0
M  V30 2232 H 210.082 -3.8315 -0.572259 0
M  V30 2233 H 210.496 -5.09499 1.24542 0
M  V30 2234 H 211.97 -5.50437 -0.415045 0
M  V30 2235 H 212.447 -4.15036 -1.43674 0
M  V30 2236 H 213.053 -4.24663 0.232691 0
M  V30 2237 N 211.368 -0.403325 -1.52352 0
M  V30 2238 C 212.318 0.442244 -2.2367 0
M  V30 2239 C 213.302 1.01823 -1.24583 0
M  V30 2240 O 214.494 0.942005 -1.49851 0
M  V30 2241 C 211.623 1.5615 -3.05732 0
M  V30 2242 C 210.709 0.996575 -4.12225 0
M  V30 2243 N 211.1 0.157804 -5.05554 0
M  V30 2244 C 209.398 1.26767 -4.27605 0
M  V30 2245 C 210.099 -0.155853 -5.81491 0
M  V30 2246 N 209.075 0.451775 -5.41719 0
M  V30 2247 H 212.877 -0.204964 -2.93184 0
M  V30 2248 H 210.391 -0.213418 -1.60992 0
M  V30 2249 H 212.388 2.17981 -3.55373 0
M  V30 2250 H 211.048 2.21139 -2.37755 0
M  V30 2251 H 212.059 -0.206049 -5.1749 0
M  V30 2252 H 208.736 1.91757 -3.70858 0
M  V30 2253 H 210.126 -0.836329 -6.66675 0
M  V30 2254 N 212.846 1.57033 -0.133567 0
M  V30 2255 C 214.095 1.94861 0.520768 0
M  V30 2256 C 214.408 1.02012 1.66892 0
M  V30 2257 O 215.614 1.29365 2.38699 0
M  V30 2258 C 214.07 3.46362 0.977809 0
M  V30 2259 C 213.678 4.47773 -0.142674 0
M  V30 2260 C 215.422 3.93083 1.60269 0
M  V30 2261 C 213.329 5.90468 0.331883 0
M  V30 2262 H 212.259 0.727453 0.198315 0
M  V30 2263 H 214.91 1.82227 -0.215759 0
M  V30 2264 H 213.292 3.54282 1.7692 0
M  V30 2265 H 214.466 4.51536 -0.919317 0
M  V30 2266 H 212.781 4.10891 -0.675124 0
M  V30 2267 H 215.378 4.97121 1.96914 0
M  V30 2268 H 215.721 3.33876 2.48662 0
M  V30 2269 H 216.254 3.88025 0.876453 0
M  V30 2270 H 212.993 6.53463 -0.516341 0
M  V30 2271 H 212.513 5.90094 1.07469 0
M  V30 2272 H 214.192 6.42179 0.788332 0
M  V30 2273 N 214.325 -0.140222 1.56975 0
M  V30 2274 C 215.288 -1.15689 1.97861 0
M  V30 2275 C 216.288 -1.3549 0.865974 0
M  V30 2276 O 217.478 -1.32367 1.13246 0
M  V30 2277 C 214.61 -2.51582 2.30042 0
M  V30 2278 H 215.803 -0.805971 2.88867 0
M  V30 2279 H 213.356 -0.383801 1.51515 0
M  V30 2280 H 214.091 -2.91632 1.41849 0
M  V30 2281 H 213.876 -2.38569 3.11171 0
M  V30 2282 H 215.366 -3.24792 2.62488 0
M  V30 2283 N 215.803 -1.52179 -0.40978 0
M  V30 2284 C 217.049 -1.67408 -1.15525 0
M  V30 2285 C 217.404 -0.398746 -1.88223 0
M  V30 2286 O 216.697 0.60678 -1.81738 0
M  V30 2287 C 216.891 -2.83428 -2.17723 0
M  V30 2288 C 216.72 -4.22121 -1.55061 0
M  V30 2289 C 215.49 -4.87657 -1.3236 0
M  V30 2290 C 217.688 -5.04248 -1.01185 0
M  V30 2291 N 215.67 -6.10387 -0.655834 0
M  V30 2292 C 217.041 -6.18209 -0.470963 0
M  V30 2293 C 219.096 -4.89583 -0.906252 0
M  V30 2294 C 217.799 -7.1911 0.165172 0
M  V30 2295 C 219.825 -5.90718 -0.28397 0
M  V30 2296 C 219.187 -7.03969 0.246243 0
M  V30 2297 H 215.286 -0.666251 -0.409431 0
M  V30 2298 H 217.87 -1.89482 -0.447729 0
M  V30 2299 H 216.041 -2.6297 -2.85834 0
M  V30 2300 H 217.773 -2.87697 -2.84627 0
M  V30 2301 H 214.528 -4.46007 -1.59294 0
M  V30 2302 H 214.952 -6.76153 -0.338596 0
M  V30 2303 H 219.594 -4.02253 -1.302 0
M  V30 2304 H 217.312 -8.06066 0.572986 0
M  V30 2305 H 220.898 -5.81443 -0.203792 0
M  V30 2306 H 219.778 -7.80886 0.720173 0
M  V30 2307 N 217.281 0.66697 -1.42791 0
M  V30 2308 C 218.229 1.80157 -1.47127 0
M  V30 2309 C 219.223 1.65825 -0.346199 0
M  V30 2310 O 220.429 1.72338 -0.519572 0
M  V30 2311 H 216.804 0.594158 -0.460956 0
M  V30 2312 H 218.775 1.73619 -2.42692 0
M  V30 2313 C 217.524 3.18351 -1.39813 0
M  V30 2314 H 216.847 3.3001 -2.25684 0
M  V30 2315 H 218.287 3.97736 -1.46908 0
M  V30 2316 C 216.746 3.36707 -0.11391 0
M  V30 2317 O 217.276 3.93027 0.830241 0
M  V30 2318 N 215.482 2.90586 -0.0285295 0
M  V30 2319 H 215.029 2.4494 -0.79764 0
M  V30 2320 H 214.987 3.03245 0.830063 0
M  V30 2321 N 218.759 1.29093 0.90403 0
M  V30 2322 C 220.006 1.16813 1.65411 0
M  V30 2323 C 220.334 -0.28128 1.92455 0
M  V30 2324 O 219.589 -1.22006 1.53013 0
M  V30 2325 C 219.888 1.92224 3.01305 0
M  V30 2326 C 219.554 3.41968 2.93885 0
M  V30 2327 C 218.216 3.82807 2.91569 0
M  V30 2328 C 220.568 4.37409 2.83413 0
M  V30 2329 C 217.896 5.1741 2.76594 0
M  V30 2330 C 220.248 5.72097 2.69977 0
M  V30 2331 C 218.912 6.12199 2.66024 0
M  V30 2332 H 218.182 0.42745 0.605283 0
M  V30 2333 H 220.829 1.59981 1.05254 0
M  V30 2334 H 219.134 1.41635 3.65304 0
M  V30 2335 H 220.831 1.80131 3.58265 0
M  V30 2336 H 217.421 3.09504 2.96488 0
M  V30 2337 H 221.605 4.06813 2.84283 0
M  V30 2338 H 216.861 5.47596 2.71935 0
M  V30 2339 H 221.035 6.45704 2.60844 0
M  V30 2340 H 218.662 7.16448 2.54178 0
M  V30 2341 N 220.237 -1.11381 1.11499 0
M  V30 2342 C 221.2 -2.15622 0.777153 0
M  V30 2343 C 222.2 -1.59504 -0.203779 0
M  V30 2344 O 223.39 -1.74188 0.020782 0
M  V30 2345 C 220.522 -3.40556 0.153116 0
M  V30 2346 H 221.715 -2.47021 1.70061 0
M  V30 2347 H 219.268 -1.26577 0.916952 0
M  V30 2348 H 220.003 -3.14767 -0.780536 0
M  V30 2349 H 219.788 -3.8257 0.859238 0
M  V30 2350 H 221.278 -4.17546 -0.0671044 0
M  V30 2351 N 221.715 -0.905404 -1.28997 0
M  V30 2352 C 222.678 -0.392253 -2.25819 0
M  V30 2353 C 223.678 0.476753 -1.5357 0
M  V30 2354 O 224.868 0.280994 -1.71919 0
M  V30 2355 C 222 0.438588 -3.38067 0
M  V30 2356 H 223.193 -1.24743 -2.72725 0
M  V30 2357 H 220.746 -0.684051 -1.40536 0
M  V30 2358 H 221.481 1.31352 -2.96508 0
M  V30 2359 H 221.266 -0.184167 -3.91667 0
M  V30 2360 H 222.756 0.78873 -4.10084 0
M  V30 2361 N 223.193 1.4272 -0.668489 0
M  V30 2362 C 224.156 2.292 0.00448567 0
M  V30 2363 C 225.156 1.43001 0.735339 0
M  V30 2364 O 226.346 1.64461 0.57429 0
M  V30 2365 C 223.478 3.25375 1.01705 0
M  V30 2366 H 224.671 2.90199 -0.756608 0
M  V30 2367 H 222.224 1.50254 -0.430506 0
M  V30 2368 H 222.959 2.69301 1.80686 0
M  V30 2369 H 222.744 3.88944 0.496463 0
M  V30 2370 H 224.234 3.90245 1.48655 0
M  V30 2371 N 224.671 0.411399 1.52136 0
M  V30 2372 C 225.92 -0.165009 2.01024 0
M  V30 2373 C 226.233 -1.4603 1.30133 0
M  V30 2374 O 227.439 -2.1181 1.69849 0
M  V30 2375 C 225.895 -0.344618 3.58246 0
M  V30 2376 C 225.503 0.938716 4.38055 0
M  V30 2377 C 227.247 -0.876195 4.15359 0
M  V30 2378 C 225.154 0.726172 5.86925 0
M  V30 2379 H 224.084 -0.0654407 0.751155 0
M  V30 2380 H 226.735 0.537192 1.75461 0
M  V30 2381 H 225.117 -1.10921 3.80148 0
M  V30 2382 H 226.291 1.70963 4.27912 0
M  V30 2383 H 224.606 1.39688 3.92271 0
M  V30 2384 H 227.203 -1.05128 5.24263 0
M  V30 2385 H 227.546 -1.85152 3.7286 0
M  V30 2386 H 228.079 -0.170607 3.97434 0
M  V30 2387 H 224.818 1.67312 6.33788 0
M  V30 2388 H 224.338 -0.00540283 5.998 0
M  V30 2389 H 226.017 0.369231 6.45946 0
M  V30 2390 N 226.149 -1.5696 0.141893 0
M  V30 2391 C 227.396 -1.9596 -0.510492 0
M  V30 2392 C 227.724 -1.02648 -1.65208 0
M  V30 2393 O 226.979 -0.0546947 -1.95624 0
M  V30 2394 C 227.278 -3.41242 -1.06249 0
M  V30 2395 C 226.944 -4.50882 -0.0398791 0
M  V30 2396 C 225.606 -4.80595 0.241247 0
M  V30 2397 C 227.958 -5.17058 0.65578 0
M  V30 2398 C 225.286 -5.73792 1.22393 0
M  V30 2399 C 227.638 -6.11313 1.62724 0
M  V30 2400 C 226.302 -6.39407 1.91612 0
M  V30 2401 H 225.572 -0.717068 -0.186802 0
M  V30 2402 H 228.219 -1.90142 0.227643 0
M  V30 2403 H 226.524 -3.43866 -1.87785 0
M  V30 2404 H 228.221 -3.68742 -1.57576 0
M  V30 2405 H 224.811 -4.27754 -0.269174 0
M  V30 2406 H 228.995 -4.94239 0.451779 0
M  V30 2407 H 224.251 -5.93853 1.45424 0
M  V30 2408 H 228.425 -6.61668 2.17183 0
M  V30 2409 H 226.052 -7.11427 2.6791 0
M  V30 2410 N 227.627 0.131896 -1.57047 0
M  V30 2411 C 228.874 0.841932 -1.84168 0
M  V30 2412 C 229.202 1.8048 -0.725066 0
M  V30 2413 O 228.457 1.93618 0.284692 0
M  V30 2414 C 228.756 1.63703 -3.17704 0
M  V30 2415 C 228.422 0.81961 -4.43388 0
M  V30 2416 C 227.084 0.594148 -4.77518 0
M  V30 2417 C 229.436 0.248977 -5.20605 0
M  V30 2418 C 226.764 -0.212409 -5.86315 0
M  V30 2419 C 229.116 -0.544701 -6.30251 0
M  V30 2420 C 227.78 -0.780599 -6.6292 0
M  V30 2421 H 227.05 0.308085 -0.673917 0
M  V30 2422 H 229.697 0.104867 -1.91213 0
M  V30 2423 H 228.002 2.44464 -3.06177 0
M  V30 2424 H 229.699 2.19015 -3.35907 0
M  V30 2425 H 226.289 1.00542 -4.16641 0
M  V30 2426 H 230.473 0.410408 -4.946 0
M  V30 2427 H 225.729 -0.404524 -6.1006 0
M  V30 2428 H 229.903 -0.993922 -6.89271 0
M  V30 2429 H 227.53 -1.40742 -7.47058 0
M  V30 2430 N 229.106 1.52395 0.401703 0
M  V30 2431 C 230.352 1.67065 1.14966 0
M  V30 2432 C 230.685 0.403052 1.89971 0
M  V30 2433 O 229.96 -0.598774 1.85054 0
M  V30 2434 C 230.243 2.8975 2.13815 0
M  V30 2435 C 230.096 4.26578 1.42658 0
M  V30 2436 C 231.415 3.07965 3.14397 0
M  V30 2437 H 228.534 0.607968 0.416587 0
M  V30 2438 H 231.176 1.84965 0.434511 0
M  V30 2439 H 229.326 2.74619 2.74803 0
M  V30 2440 H 230.998 4.53451 0.847329 0
M  V30 2441 H 229.241 4.27639 0.72849 0
M  V30 2442 H 229.912 5.08483 2.14823 0
M  V30 2443 H 232.388 3.22043 2.63491 0
M  V30 2444 H 231.264 3.95308 3.80819 0
M  V30 2445 H 231.525 2.21611 3.82545 0
M  V30 2446 N 230.584 -0.659388 1.43143 0
M  V30 2447 C 231.514 -1.78422 1.50625 0
M  V30 2448 C 232.495 -1.66216 0.361443 0
M  V30 2449 O 233.68 -1.85404 0.577834 0
M  V30 2450 C 230.81 -3.16815 1.42287 0
M  V30 2451 C 229.764 -3.43777 2.54954 0
M  V30 2452 C 229.09 -4.81905 2.31671 0
M  V30 2453 C 230.39 -3.39134 3.97222 0
M  V30 2454 H 232.084 -1.72417 2.44771 0
M  V30 2455 H 229.63 -0.828084 1.17808 0
M  V30 2456 H 231.583 -3.95253 1.46127 0
M  V30 2457 H 230.307 -3.23534 0.446435 0
M  V30 2458 H 228.966 -2.67707 2.50457 0
M  V30 2459 H 228.614 -4.85294 1.32284 0
M  V30 2460 H 228.314 -5.00906 3.07192 0
M  V30 2461 H 229.838 -5.62609 2.37284 0
M  V30 2462 H 231.252 -4.07518 4.03239 0
M  V30 2463 H 229.649 -3.69671 4.72719 0
M  V30 2464 H 230.719 -2.37426 4.22797 0
M  V30 2465 N 232.062 -1.29571 -0.897171 0
M  V30 2466 C 233.302 -1.18959 -1.66217 0
M  V30 2467 C 233.666 0.254271 -1.90309 0
M  V30 2468 O 234.867 0.483407 -2.64417 0
M  V30 2469 C 233.138 -1.98302 -2.9734 0
M  V30 2470 S 234.697 -2.04253 -3.88364 0
M  V30 2471 H 231.515 -0.424137 -0.570639 0
M  V30 2472 H 234.117 -1.6389 -1.06585 0
M  V30 2473 H 232.821 -3.02342 -2.77521 0
M  V30 2474 H 232.352 -1.53986 -3.62011 0
M  V30 2475 H 234.367 -1.16105 -4.82425 0
M  V30 2476 N 233.54 1.10788 -1.12088 0
M  V30 2477 C 234.789 1.82036 -0.868659 0
M  V30 2478 C 235.102 1.85929 0.607426 0
M  V30 2479 O 236.308 2.53346 0.97613 0
M  V30 2480 C 234.764 3.26951 -1.50435 0
M  V30 2481 C 234.372 3.31367 -3.01496 0
M  V30 2482 C 236.116 4.03053 -1.33225 0
M  V30 2483 C 234.023 4.7072 -3.58017 0
M  V30 2484 H 232.953 0.682108 -0.321318 0
M  V30 2485 H 235.604 1.24618 -1.34694 0
M  V30 2486 H 233.986 3.84343 -0.953735 0
M  V30 2487 H 235.16 2.83819 -3.6302 0
M  V30 2488 H 233.475 2.6875 -3.18061 0
M  V30 2489 H 236.072 5.05981 -1.72878 0
M  V30 2490 H 236.415 4.15387 -0.275529 0
M  V30 2491 H 236.948 3.52066 -1.85188 0
M  V30 2492 H 233.687 4.63585 -4.63432 0
M  V30 2493 H 233.207 5.1865 -3.01268 0
M  V30 2494 H 234.886 5.39685 -3.56859 0
M  V30 2495 N 235.018 0.912232 1.28515 0
M  V30 2496 C 236.266 0.543523 1.94654 0
M  V30 2497 C 236.587 -0.9155 1.72173 0
M  V30 2498 O 235.857 -1.64708 1.06058 0
M  V30 2499 H 234.437 0.198017 0.720277 0
M  V30 2500 H 237.099 1.16126 1.56527 0
M  V30 2501 H 236.195 0.736684 3.03281 0
M  V30 2502 N 236.496 -1.42363 0.676048 0
M  V30 2503 C 237.736 -2.03392 0.20273 0
M  V30 2504 C 238.1 -1.52306 -1.16906 0
M  V30 2505 O 239.301 -2.05129 -1.73711 0
M  V30 2506 C 237.572 -3.56614 0.236947 0
M  V30 2507 S 239.131 -4.38489 -0.165186 0
M  V30 2508 H 235.949 -0.70611 0.0832418 0
M  V30 2509 H 238.551 -1.74093 0.88948 0
M  V30 2510 H 237.255 -3.91293 1.23767 0
M  V30 2511 H 236.786 -3.90587 -0.469596 0
M  V30 2512 H 238.801 -4.76093 -1.39822 0
M  V30 2513 N 237.974 -0.419461 -1.51915 0
M  V30 2514 C 239.223 0.154346 -2.01109 0
M  V30 2515 C 239.536 1.45338 -1.30905 0
M  V30 2516 O 240.742 2.10906 -1.7097 0
M  V30 2517 C 239.198 0.325615 -3.58424 0
M  V30 2518 C 238.806 -0.961934 -4.37551 0
M  V30 2519 C 240.55 0.854155 -4.15818 0
M  V30 2520 C 238.457 -0.757287 -5.86531 0
M  V30 2521 H 237.387 0.0614563 -0.751491 0
M  V30 2522 H 240.038 -0.54649 -1.75173 0
M  V30 2523 H 238.42 1.08903 -3.80731 0
M  V30 2524 H 239.594 -1.7323 -4.26999 0
M  V30 2525 H 237.909 -1.41766 -3.91524 0
M  V30 2526 H 240.506 1.02346 -5.24814 0
M  V30 2527 H 240.849 1.83172 -3.73837 0
M  V30 2528 H 241.382 0.149528 -3.97519 0
M  V30 2529 H 238.121 -1.70671 -6.32892 0
M  V30 2530 H 237.641 -0.0264061 -5.99794 0
M  V30 2531 H 239.32 -0.403482 -6.45741 0
M  V30 2532 N 239.452 1.56882 -0.150215 0
M  V30 2533 C 240.402 2.13501 0.800071 0
M  V30 2534 C 241.386 1.06368 1.20726 0
M  V30 2535 O 242.578 1.32538 1.17314 0
M  V30 2536 C 239.707 2.76271 2.03787 0
M  V30 2537 C 238.793 3.90533 1.65364 0
M  V30 2538 N 239.184 4.96259 0.977794 0
M  V30 2539 C 237.482 4.013 1.94613 0
M  V30 2540 C 238.183 5.76286 0.791794 0
M  V30 2541 N 237.159 5.27163 1.32666 0
M  V30 2542 H 240.961 2.92615 0.274517 0
M  V30 2543 H 238.475 1.62319 0.0512144 0
M  V30 2544 H 240.472 3.15197 2.72867 0
M  V30 2545 H 239.132 1.98631 2.56857 0
M  V30 2546 H 240.143 5.13953 0.638193 0
M  V30 2547 H 236.82 3.3474 2.4951 0
M  V30 2548 H 238.21 6.71401 0.258894 0
M  V30 2549 N 240.93 -0.123565 1.57115 0
M  V30 2550 C 242.341 -0.681198 1.73829 0
M  V30 2551 C 242.692 -1.80535 0.768214 0
M  V30 2552 O 241.817 -2.16317 -0.0599103 0
M  V30 2553 C 242.412 -1.24246 3.15196 0
M  V30 2554 C 240.971 -1.74643 3.33432 0
M  V30 2555 C 240.118 -0.644284 2.69711 0
M  V30 2556 H 243.069 0.102315 1.5837 0
M  V30 2557 H 243.09 -2.11216 3.16493 0
M  V30 2558 H 242.602 -0.424062 3.85776 0
M  V30 2559 H 240.703 -2.58974 2.67886 0
M  V30 2560 H 240.816 -1.85902 4.41562 0
M  V30 2561 H 239.18 -1.07676 2.3082 0
M  V30 2562 H 239.963 0.163058 3.42913 0
M  V30 2563 N 242.408 -1.52605 -0.393616 0
M  V30 2564 C 243.636 -1.71294 -1.16043 0
M  V30 2565 C 244.051 -0.429259 -1.83855 0
M  V30 2566 O 243.408 0.595921 -1.72496 0
M  V30 2567 C 243.459 -2.8593 -2.21193 0
M  V30 2568 O 243.18 -4.09329 -1.56146 0
M  V30 2569 C 244.681 -3.16259 -3.10636 0
M  V30 2570 H 241.901 -0.573641 -0.348104 0
M  V30 2571 H 244.445 -1.99234 -0.461092 0
M  V30 2572 H 242.6 -2.60465 -2.86769 0
M  V30 2573 H 243.014 -4.73323 -2.25978 0
M  V30 2574 H 244.488 -3.99946 -3.80456 0
M  V30 2575 H 244.965 -2.3045 -3.73884 0
M  V30 2576 H 245.571 -3.43547 -2.50711 0
M  V30 2577 N 243.887 0.651787 -1.4349 0
M  V30 2578 C 244.817 1.77621 -1.51569 0
M  V30 2579 C 245.798 1.66022 -0.370253 0
M  V30 2580 O 246.983 1.85095 -0.587658 0
M  V30 2581 C 244.113 3.16056 -1.43966 0
M  V30 2582 C 243.067 3.4242 -2.56774 0
M  V30 2583 C 242.393 4.8067 -2.34223 0
M  V30 2584 C 243.693 3.37023 -3.99015 0
M  V30 2585 H 245.387 1.71117 -2.45681 0
M  V30 2586 H 242.933 0.821825 -1.18246 0
M  V30 2587 H 244.886 3.94472 -1.48221 0
M  V30 2588 H 243.61 3.23293 -0.463586 0
M  V30 2589 H 242.269 2.66375 -2.51873 0
M  V30 2590 H 241.917 4.84585 -1.34856 0
M  V30 2591 H 241.617 4.9927 -3.09844 0
M  V30 2592 H 243.141 5.61342 -2.40265 0
M  V30 2593 H 244.555 4.05374 -4.05395 0
M  V30 2594 H 242.952 3.67159 -4.74673 0
M  V30 2595 H 244.022 2.3518 -4.2405 0
M  V30 2596 N 245.365 1.30045 0.890287 0
M  V30 2597 C 246.611 1.18737 1.64406 0
M  V30 2598 C 246.944 -0.258525 1.92472 0
M  V30 2599 O 246.219 -1.18562 1.54186 0
M  V30 2600 C 246.502 2.01087 2.98724 0
M  V30 2601 C 246.355 3.53867 2.77665 0
M  V30 2602 C 247.674 1.84457 3.9958 0
M  V30 2603 H 244.793 0.432698 0.596608 0
M  V30 2604 H 247.435 1.5962 1.0306 0
M  V30 2605 H 245.585 1.66349 3.51084 0
M  V30 2606 H 247.257 3.98637 2.32133 0
M  V30 2607 H 245.5 3.78318 2.12269 0
M  V30 2608 H 246.171 4.06772 3.7315 0
M  V30 2609 H 248.647 2.14817 3.56361 0
M  V30 2610 H 247.523 2.44411 4.91482 0
M  V30 2611 H 247.784 0.802276 4.3476 0
M  V30 2612 N 246.843 -1.10192 1.12674 0
M  V30 2613 C 248.091 -1.81845 0.881861 0
M  V30 2614 C 248.412 -1.85737 -0.593867 0
M  V30 2615 O 247.682 -1.33724 -1.4316 0
M  V30 2616 H 246.262 -0.673432 0.323261 0
M  V30 2617 H 248.924 -1.33316 1.42172 0
M  V30 2618 H 248.02 -2.85288 1.2656 0
M  V30 2619 N 248.321 -0.919034 -1.28029 0
M  V30 2620 C 249.546 -0.570357 -1.99403 0
M  V30 2621 C 249.971 0.842486 -1.68178 0
M  V30 2622 O 249.329 1.56391 -0.917141 0
M  V30 2623 C 249.377 -0.792541 -3.51783 0
M  V30 2624 O 248.481 0.145988 -4.12142 0
M  V30 2625 H 247.822 -0.220555 -0.6263 0
M  V30 2626 H 250.352 -1.23592 -1.63053 0
M  V30 2627 H 250.362 -0.704708 -4.01868 0
M  V30 2628 H 249.037 -1.82247 -3.73844 0
M  V30 2629 H 247.614 0.00897528 -3.72899 0
M  V30 2630 N 249.799 1.42003 -0.683588 0
M  V30 2631 C 251.045 2.02223 -0.218536 0
M  V30 2632 C 251.4 1.53126 1.16492 0
M  V30 2633 O 250.693 0.727459 1.77253 0
M  V30 2634 C 250.887 3.56827 -0.202357 0
M  V30 2635 C 250.716 4.20928 -1.5827 0
M  V30 2636 C 249.486 4.5573 -2.18262 0
M  V30 2637 C 251.684 4.47933 -2.52706 0
M  V30 2638 N 249.666 5.05056 -3.48986 0
M  V30 2639 C 251.037 4.98906 -3.68094 0
M  V30 2640 C 253.092 4.29931 -2.51125 0
M  V30 2641 C 251.795 5.33768 -4.82166 0
M  V30 2642 C 253.821 4.65875 -3.643 0
M  V30 2643 C 253.183 5.17008 -4.78417 0
M  V30 2644 H 249.282 0.771931 -0.125088 0
M  V30 2645 H 251.866 1.72729 -0.898479 0
M  V30 2646 H 250.037 3.85819 0.447029 0
M  V30 2647 H 251.769 4.03755 0.276399 0
M  V30 2648 H 248.524 4.41781 -1.70665 0
M  V30 2649 H 248.948 5.34139 -4.15962 0
M  V30 2650 H 253.59 3.89647 -1.6412 0
M  V30 2651 H 251.308 5.72981 -5.6984 0
M  V30 2652 H 254.894 4.53615 -3.64314 0
M  V30 2653 H 253.774 5.44301 -5.64541 0
M  V30 2654 N 251.277 0.427512 1.51691 0
M  V30 2655 C 252.502 -0.143601 2.06902 0
M  V30 2656 C 252.927 -1.36536 1.29382 0
M  V30 2657 O 252.285 -1.78289 0.329043 0
M  V30 2658 C 252.333 -0.454207 3.57728 0
M  V30 2659 O 251.437 -1.54228 3.82475 0
M  V30 2660 H 250.778 -0.00617128 0.663971 0
M  V30 2661 H 253.308 0.606014 1.95419 0
M  V30 2662 H 253.318 -0.707525 4.01818 0
M  V30 2663 H 251.993 0.438812 4.13579 0
M  V30 2664 H 250.57 -1.2797 3.50254 0
M  V30 2665 N 252.755 -1.56801 0.158532 0
M  V30 2666 C 253.665 -2.20916 -0.789518 0
M  V30 2667 C 254.681 -1.1969 -1.26294 0
M  V30 2668 O 255.857 -1.52308 -1.31773 0
M  V30 2669 C 252.922 -2.82727 -2.00665 0
M  V30 2670 C 251.983 -3.99114 -1.58134 0
M  V30 2671 C 251.216 -4.57968 -2.74045 0
M  V30 2672 O 251.439 -4.15704 -3.90572 0
M  V30 2673 O 250.373 -5.48047 -2.48855 0
M  V30 2674 H 254.199 -3.02464 -0.273681 0
M  V30 2675 H 251.784 -1.4924 -0.0690548 0
M  V30 2676 H 253.666 -3.21968 -2.71872 0
M  V30 2677 H 252.341 -2.04184 -2.51179 0
M  V30 2678 H 251.248 -3.64567 -0.839155 0
M  V30 2679 H 252.581 -4.79212 -1.12325 0
M  V30 2680 N 254.233 0.115231 -1.57178 0
M  V30 2681 C 255.481 0.820727 -1.84685 0
M  V30 2682 C 255.802 1.80237 -0.744279 0
M  V30 2683 O 255.072 1.94529 0.231375 0
M  V30 2684 H 253.652 0.306084 -0.681411 0
M  V30 2685 H 256.314 0.101656 -1.94635 0
M  V30 2686 H 255.41 1.36366 -2.80733 0
M  V30 2687 N 255.711 1.52812 0.385517 0
M  V30 2688 C 256.957 1.68275 1.13188 0
M  V30 2689 C 257.29 0.423179 1.89533 0
M  V30 2690 O 256.565 -0.579113 1.85679 0
M  V30 2691 C 256.848 2.92001 2.1073 0
M  V30 2692 C 256.701 4.28067 1.38125 0
M  V30 2693 C 258.02 3.11283 3.11113 0
M  V30 2694 H 255.139 0.612352 0.410115 0
M  V30 2695 H 257.781 1.85415 0.414869 0
M  V30 2696 H 255.931 2.77519 2.71874 0
M  V30 2697 H 257.603 4.54324 0.799187 0
M  V30 2698 H 255.846 4.28388 0.683092 0
M  V30 2699 H 256.517 5.10733 2.09417 0
M  V30 2700 H 258.993 3.2482 2.6006 0
M  V30 2701 H 257.869 3.99325 3.76605 0
M  V30 2702 H 258.13 2.25656 3.80173 0
M  V30 2703 N 257.189 -0.644168 1.43834 0
M  V30 2704 C 258.6 -1.22554 1.40845 0
M  V30 2705 C 258.951 -1.9585 0.117115 0
M  V30 2706 O 258.076 -2.01734 -0.783086 0
M  V30 2707 C 258.671 -2.22907 2.55143 0
M  V30 2708 C 257.23 -2.76501 2.5539 0
M  V30 2709 C 256.377 -1.51287 2.32396 0
M  V30 2710 H 259.328 -0.43563 1.52604 0
M  V30 2711 H 259.349 -3.05259 2.2715 0
M  V30 2712 H 258.861 -1.69533 3.49114 0
M  V30 2713 H 256.962 -3.33914 1.65324 0
M  V30 2714 H 257.075 -3.23429 3.53455 0
M  V30 2715 H 255.439 -1.78957 1.81236 0
M  V30 2716 H 256.222 -0.998336 3.28463 0
M  V30 2717 N 258.668 -1.30515 -0.883378 0
M  V30 2718 C 259.915 -1.1943 -1.63532 0
M  V30 2719 C 260.243 0.250627 -1.92878 0
M  V30 2720 O 259.498 1.19556 -1.54935 0
M  V30 2721 C 259.797 -1.96994 -2.98209 0
M  V30 2722 C 259.463 -3.466 -2.88408 0
M  V30 2723 C 258.125 -3.87397 -2.85442 0
M  V30 2724 C 260.477 -4.41863 -2.76418 0
M  V30 2725 C 257.805 -5.21745 -2.68327 0
M  V30 2726 C 260.157 -5.7632 -2.60841 0
M  V30 2727 C 258.821 -6.16354 -2.56251 0
M  V30 2728 H 258.091 -0.437025 -0.598406 0
M  V30 2729 H 260.738 -1.61635 -1.02696 0
M  V30 2730 H 259.043 -1.47429 -3.63004 0
M  V30 2731 H 260.74 -1.85808 -3.55354 0
M  V30 2732 H 257.33 -3.14182 -2.91527 0
M  V30 2733 H 261.514 -4.11285 -2.77775 0
M  V30 2734 H 256.77 -5.51853 -2.63189 0
M  V30 2735 H 260.944 -6.49772 -2.50538 0
M  V30 2736 H 258.571 -7.20401 -2.42748 0
M  V30 2737 N 260.146 1.09593 -1.13257 0
M  V30 2738 C 261.394 1.81375 -0.891492 0
M  V30 2739 C 261.715 1.86049 0.584009 0
M  V30 2740 O 260.985 1.34481 1.42449 0
M  V30 2741 H 259.565 0.671708 -0.326828 0
M  V30 2742 H 262.227 1.3256 -1.42877 0
M  V30 2743 H 261.323 2.84612 -1.28071 0
M  V30 2744 N 261.624 0.925811 1.2754 0
M  V30 2745 C 262.873 0.561084 1.93739 0
M  V30 2746 C 263.186 -0.901685 1.73577 0
M  V30 2747 O 264.392 -1.37511 2.34101 0
M  V30 2748 C 262.848 0.952668 3.47062 0
M  V30 2749 C 262.456 2.43599 3.75983 0
M  V30 2750 C 264.2 0.659103 4.19352 0
M  V30 2751 C 262.107 2.76707 5.22673 0
M  V30 2752 H 261.037 0.206122 0.725279 0
M  V30 2753 H 263.688 1.12637 1.44863 0
M  V30 2754 H 262.07 0.316053 3.94737 0
M  V30 2755 H 263.244 3.12035 3.39073 0
M  V30 2756 H 261.559 2.70125 3.16893 0
M  V30 2757 H 264.156 0.882985 5.27359 0
M  V30 2758 H 264.499 -0.403607 4.14339 0
M  V30 2759 H 265.032 1.25473 3.77494 0
M  V30 2760 H 261.771 3.8188 5.32774 0
M  V30 2761 H 261.291 2.12919 5.60737 0
M  V30 2762 H 262.97 2.6435 5.90532 0
M  V30 2763 N 263.102 -1.41638 0.69111 0
M  V30 2764 C 264.348 -2.02104 0.229258 0
M  V30 2765 C 264.703 -1.53741 -1.15678 0
M  V30 2766 O 263.996 -0.736849 -1.76865 0
M  V30 2767 C 264.19 -3.56714 0.221277 0
M  V30 2768 C 264.019 -4.20083 1.605 0
M  V30 2769 C 262.789 -4.54566 2.20676 0
M  V30 2770 C 264.987 -4.46587 2.55078 0
M  V30 2771 N 262.969 -5.03199 3.5166 0
M  V30 2772 C 264.34 -4.96946 3.70735 0
M  V30 2773 C 266.395 -4.28593 2.53401 0
M  V30 2774 C 265.098 -5.31203 4.8499 0
M  V30 2775 C 267.124 -4.63936 3.66765 0
M  V30 2776 C 266.486 -5.14463 4.81152 0
M  V30 2777 H 262.585 -0.771256 0.12918 0
M  V30 2778 H 265.169 -1.72251 0.907626 0
M  V30 2779 H 263.34 -3.86051 -0.426562 0
M  V30 2780 H 265.072 -4.03896 -0.254983 0
M  V30 2781 H 261.827 -4.4087 1.73005 0
M  V30 2782 H 262.251 -5.31926 4.18789 0
M  V30 2783 H 266.893 -3.88771 1.66184 0
M  V30 2784 H 264.611 -5.69951 5.72871 0
M  V30 2785 H 268.197 -4.51677 3.66714 0
M  V30 2786 H 267.077 -5.41299 5.67419 0
M  V30 2787 N 264.58 -0.43555 -1.51462 0
M  V30 2788 C 265.991 0.0279871 -1.86679 0
M  V30 2789 C 266.342 1.42104 -1.35281 0
M  V30 2790 O 265.467 2.04667 -0.702878 0
M  V30 2791 C 266.062 0.0575626 -3.38751 0
M  V30 2792 C 264.621 0.465507 -3.7351 0
M  V30 2793 C 263.768 -0.342996 -2.75171 0
M  V30 2794 H 266.719 -0.651473 -1.44712 0
M  V30 2795 H 266.74 0.867421 -3.70481 0
M  V30 2796 H 266.252 -0.956448 -3.7613 0
M  V30 2797 H 264.353 1.48519 -3.41721 0
M  V30 2798 H 264.466 0.191546 -4.78717 0
M  V30 2799 H 262.83 0.198442 -2.53926 0
M  V30 2800 H 263.613 -1.35585 -3.15391 0
M  V30 2801 N 266.058 1.56714 -0.166846 0
M  V30 2802 C 267.008 2.14338 0.777382 0
M  V30 2803 C 267.992 1.07642 1.19591 0
M  V30 2804 O 269.184 1.33775 1.15902 0
M  V30 2805 C 266.313 2.78417 2.00846 0
M  V30 2806 C 265.399 3.92264 1.61212 0
M  V30 2807 N 265.79 4.97268 0.925104 0
M  V30 2808 C 264.088 4.03342 1.90346 0
M  V30 2809 C 264.789 5.77093 0.730627 0
M  V30 2810 N 263.765 5.2854 1.27067 0
M  V30 2811 H 267.567 2.9289 0.243466 0
M  V30 2812 H 265.081 1.62364 0.0339954 0
M  V30 2813 H 267.078 3.18073 2.69509 0
M  V30 2814 H 265.738 2.01344 2.54736 0
M  V30 2815 H 266.749 5.14601 0.583646 0
M  V30 2816 H 263.426 3.37368 2.45946 0
M  V30 2817 H 264.816 6.71638 0.187668 0
M  V30 2818 N 267.536 -0.106894 1.57237 0
M  V30 2819 C 268.785 -0.811163 1.8467 0
M  V30 2820 C 269.098 -1.80469 0.754342 0
M  V30 2821 O 270.304 -2.55601 0.915439 0
M  V30 2822 C 268.76 -1.49337 3.27454 0
M  V30 2823 C 268.368 -0.540217 4.44731 0
M  V30 2824 C 270.112 -2.18206 3.64124 0
M  V30 2825 C 268.019 -1.22634 5.78545 0
M  V30 2826 H 266.949 -0.306679 0.688813 0
M  V30 2827 H 269.6 -0.0639887 1.83388 0
M  V30 2828 H 267.982 -2.2876 3.23241 0
M  V30 2829 H 269.156 0.221659 4.60267 0
M  V30 2830 H 267.471 0.042146 4.16379 0
M  V30 2831 H 270.068 -2.70253 4.61376 0
M  V30 2832 H 270.411 -2.96562 2.92158 0
M  V30 2833 H 270.944 -1.45658 3.70174 0
M  V30 2834 H 267.683 -0.483832 6.53712 0
M  V30 2835 H 267.203 -1.95993 5.66874 0
M  V30 2836 H 268.882 -1.75615 6.2271 0
M  V30 2837 N 269.014 -1.53014 -0.377408 0
M  V30 2838 C 270.291 -1.59215 -1.13622 0
M  V30 2839 C 270.671 -0.392407 -2.07421 0
M  V30 2840 O 270.019 0.618342 -2.19975 0
M  V30 2841 C 270.229 -2.93669 -1.88573 0
M  V30 2842 C 271.577 -3.47822 -2.43526 0
M  V30 2843 O 272.601 -2.9562 -1.98715 0
M  V30 2844 O 271.46 -4.39055 -3.25412 0
M  V30 2845 H 268.554 -0.642625 -0.52054 0
M  V30 2846 H 271.1 -1.65353 -0.381625 0
M  V30 2847 H 269.872 -3.7243 -1.20048 0
M  V30 2848 H 269.495 -2.90968 -2.70968 0
M  V30 2849 N 270.492 0.636531 -1.44174 0
M  V30 2850 C 271.738 1.39649 -1.47884 0
M  V30 2851 C 272.093 1.92098 -0.107747 0
M  V30 2852 O 271.386 1.70391 0.876208 0
M  V30 2853 C 271.58 2.58309 -2.47005 0
M  V30 2854 C 271.409 2.17476 -3.93617 0
M  V30 2855 C 270.179 2.0501 -4.61843 0
M  V30 2856 C 272.377 1.76722 -4.82984 0
M  V30 2857 N 270.359 1.57683 -5.93304 0
M  V30 2858 C 271.73 1.40601 -6.03847 0
M  V30 2859 C 273.785 1.64054 -4.70096 0
M  V30 2860 C 272.488 0.930787 -7.13252 0
M  V30 2861 C 274.514 1.17937 -5.79521 0
M  V30 2862 C 273.876 0.827625 -6.99521 0
M  V30 2863 H 269.975 0.506027 -0.596205 0
M  V30 2864 H 272.559 0.730791 -1.80465 0
M  V30 2865 H 270.73 3.22514 -2.16423 0
M  V30 2866 H 272.462 3.25083 -2.41045 0
M  V30 2867 H 269.217 2.25294 -4.16581 0
M  V30 2868 H 269.641 1.36334 -6.63131 0
M  V30 2869 H 274.283 1.89882 -3.77762 0
M  V30 2870 H 272.001 0.660012 -8.054 0
M  V30 2871 H 275.587 1.08601 -5.71574 0
M  V30 2872 H 274.467 0.476231 -7.82753 0
M  V30 2873 N 271.97 1.30982 0.876444 0
M  V30 2874 C 272.9 1.20668 1.99903 0
M  V30 2875 C 273.881 0.095354 1.69833 0
M  V30 2876 O 275.066 0.27885 1.92188 0
M  V30 2877 C 272.196 0.90655 3.3526 0
M  V30 2878 C 271.15 1.97675 3.79617 0
M  V30 2879 C 270.476 1.52943 5.1236 0
M  V30 2880 C 271.776 3.389 3.97422 0
M  V30 2881 H 273.47 2.14586 2.0879 0
M  V30 2882 H 271.016 1.03308 1.00317 0
M  V30 2883 H 272.969 0.821025 4.13324 0
M  V30 2884 H 271.693 -0.0682969 3.26529 0
M  V30 2885 H 270.352 2.05205 3.03787 0
M  V30 2886 H 270 0.54262 5.00065 0
M  V30 2887 H 269.7 2.24532 5.43009 0
M  V30 2888 H 271.224 1.45786 5.92941 0
M  V30 2889 H 272.638 3.34081 4.659 0
M  V30 2890 H 271.035 4.0865 4.3946 0
M  V30 2891 H 272.105 3.80163 3.01006 0
M  V30 2892 N 273.449 -1.08991 1.13837 0
M  V30 2893 C 274.677 -1.85011 0.926202 0
M  V30 2894 C 275.092 -1.8135 -0.525127 0
M  V30 2895 O 274.449 -1.21287 -1.36366 0
M  V30 2896 C 274.5 -3.32802 1.41155 0
M  V30 2897 O 274.221 -3.36444 2.80601 0
M  V30 2898 C 275.722 -4.25649 1.23847 0
M  V30 2899 H 272.942 -0.584249 0.32999 0
M  V30 2900 H 275.486 -1.37688 1.51202 0
M  V30 2901 H 273.641 -3.77536 0.868631 0
M  V30 2902 H 274.055 -4.28657 3.02248 0
M  V30 2903 H 275.529 -5.27485 1.62675 0
M  V30 2904 H 276.006 -4.38828 0.18065 0
M  V30 2905 H 276.612 -3.86735 1.76964 0
M  V30 2906 N 274.927 -0.932562 -1.27047 0
M  V30 2907 C 275.89 -0.440064 -2.24936 0
M  V30 2908 C 276.89 0.444071 -1.54547 0
M  V30 2909 O 278.08 0.244465 -1.72476 0
M  V30 2910 C 275.212 0.36678 -3.38921 0
M  V30 2911 H 276.405 -1.305 -2.70018 0
M  V30 2912 H 273.958 -0.713707 -1.39054 0
M  V30 2913 H 274.693 1.25033 -2.99228 0
M  V30 2914 H 274.478 -0.267204 -3.91188 0
M  V30 2915 H 275.968 0.701567 -4.11665 0
M  V30 2916 N 276.405 1.4127 -0.698611 0
M  V30 2917 C 277.652 2.0118 -0.230865 0
M  V30 2918 C 277.98 1.55338 1.17049 0
M  V30 2919 O 277.235 0.756775 1.80475 0
M  V30 2920 C 277.534 3.56592 -0.240192 0
M  V30 2921 C 277.2 4.21955 -1.58948 0
M  V30 2922 C 275.862 4.39524 -1.95887 0
M  V30 2923 C 278.214 4.58576 -2.47704 0
M  V30 2924 C 275.542 4.90992 -3.2116 0
M  V30 2925 C 277.894 5.11435 -3.72313 0
M  V30 2926 C 276.558 5.27215 -4.0939 0
M  V30 2927 H 275.828 0.736169 -0.0844796 0
M  V30 2928 H 278.475 1.69124 -0.8983 0
M  V30 2929 H 276.78 3.88456 0.510797 0
M  V30 2930 H 278.477 4.00758 0.139296 0
M  V30 2931 H 275.067 4.08657 -1.29219 0
M  V30 2932 H 279.251 4.44654 -2.20445 0
M  V30 2933 H 274.507 5.01393 -3.49878 0
M  V30 2934 H 278.681 5.38752 -4.4127 0
M  V30 2935 H 276.308 5.66859 -5.06533 0
M  V30 2936 N 277.883 0.443576 1.51229 0
M  V30 2937 C 279.108 -0.121648 2.07043 0
M  V30 2938 C 279.533 -1.35156 1.30823 0
M  V30 2939 O 278.891 -1.7793 0.347934 0
M  V30 2940 C 278.939 -0.41624 3.5819 0
M  V30 2941 O 278.043 -1.50163 3.8409 0
M  V30 2942 H 277.384 0.000871367 0.663999 0
M  V30 2943 H 279.914 0.626706 1.94765 0
M  V30 2944 H 279.924 -0.664867 4.02546 0
M  V30 2945 H 278.599 0.482653 4.1309 0
M  V30 2946 H 277.176 -1.24248 3.51592 0
M  V30 2947 N 279.361 -1.56624 0.175154 0
M  V30 2948 C 280.61 -1.96173 -0.468921 0
M  V30 2949 C 280.923 -1.06401 -1.64128 0
M  V30 2950 O 282.129 -1.35648 -2.35185 0
M  V30 2951 C 280.585 -3.48833 -0.885633 0
M  V30 2952 C 280.193 -4.47237 0.261343 0
M  V30 2953 C 281.937 -3.97194 -1.49791 0
M  V30 2954 C 279.844 -5.9114 -0.175214 0
M  V30 2955 H 278.774 -0.732455 -0.178958 0
M  V30 2956 H 281.425 -1.81591 0.263997 0
M  V30 2957 H 279.807 -3.58848 -1.67464 0
M  V30 2958 H 280.981 -4.4894 1.03871 0
M  V30 2959 H 279.296 -4.08956 0.783827 0
M  V30 2960 H 281.893 -5.02167 -1.83665 0
M  V30 2961 H 282.236 -3.40351 -2.39722 0
M  V30 2962 H 282.769 -3.90212 -0.773267 0
M  V30 2963 H 279.508 -6.51865 0.689414 0
M  V30 2964 H 279.028 -5.92735 -0.91786 0
M  V30 2965 H 280.707 -6.44044 -0.617792 0
M  V30 2966 N 280.839 0.0985539 -1.57292 0
M  V30 2967 C 282.255 0.45267 -1.53046 0
M  V30 2968 C 282.455 1.80713 -0.891342 0
M  V30 2969 O 281.511 2.4785 -0.482375 0
M  V30 2970 C 282.824 0.418341 -2.97776 0
M  V30 2971 C 284.372 0.500443 -3.08973 0
M  V30 2972 C 284.847 0.496297 -4.55303 0
M  V30 2973 N 286.338 0.557151 -4.59837 0
M  V30 2974 C 287.073 0.575726 -5.70502 0
M  V30 2975 N 286.569 0.550714 -6.90608 0
M  V30 2976 N 288.362 0.620277 -5.58667 0
M  V30 2977 H 280.513 -0.788673 -1.97215 0
M  V30 2978 H 282.776 -0.293188 -0.901524 0
M  V30 2979 H 282.482 -0.509659 -3.47988 0
M  V30 2980 H 282.356 1.2386 -3.56284 0
M  V30 2981 H 284.743 1.41886 -2.58751 0
M  V30 2982 H 284.824 -0.347894 -2.53423 0
M  V30 2983 H 284.468 -0.418162 -5.06176 0
M  V30 2984 H 284.398 1.3618 -5.08687 0
M  V30 2985 H 286.889 0.581816 -3.73394 0
M  V30 2986 H 287.202 0.568075 -7.70709 0
M  V30 2987 H 285.547 0.517816 -6.93068 0
M  V30 2988 H 288.738 0.637322 -4.63741 0
M  V30 2989 H 288.911 0.631283 -6.44918 0
M  V30 2990 N 282.317 1.53212 0.369288 0
M  V30 2991 C 283.547 1.72868 1.13139 0
M  V30 2992 C 283.955 0.455754 1.83629 0
M  V30 2993 O 283.298 -0.580861 1.74275 0
M  V30 2994 C 283.36 2.83667 2.20847 0
M  V30 2995 C 283.024 4.24142 1.70155 0
M  V30 2996 C 284.021 5.06619 1.16763 0
M  V30 2997 C 281.706 4.70539 1.7578 0
M  V30 2998 C 283.7 6.33581 0.696678 0
M  V30 2999 C 281.387 5.97481 1.28297 0
M  V30 3000 C 282.385 6.78833 0.753307 0
M  V30 3001 O 282.073 8.03393 0.285475 0
M  V30 3002 H 281.805 0.581707 0.344373 0
M  V30 3003 H 284.359 2.00736 0.435243 0
M  V30 3004 H 282.589 2.51265 2.93944 0
M  V30 3005 H 284.278 2.91536 2.82421 0
M  V30 3006 H 285.044 4.71948 1.11758 0
M  V30 3007 H 280.923 4.07293 2.15949 0
M  V30 3008 H 284.467 6.97027 0.282581 0
M  V30 3009 H 280.364 6.31651 1.32994 0
M  V30 3010 H 281.132 8.17497 0.405145 0
M  V30 3011 N 283.795 -0.628877 1.44509 0
M  V30 3012 C 285.043 -1.38565 1.4712 0
M  V30 3013 C 285.364 -1.94712 0.105899 0
M  V30 3014 O 284.634 -1.75912 -0.862079 0
M  V30 3015 H 283.214 -0.514333 0.541729 0
M  V30 3016 H 285.876 -0.740018 1.80305 0
M  V30 3017 H 284.972 -2.21583 2.19789 0
M  V30 3018 N 285.273 -1.31445 -0.869486 0
M  V30 3019 C 286.221 -1.19067 -1.99814 0
M  V30 3020 C 287.215 -0.0988569 -1.69111 0
M  V30 3021 O 288.421 -0.260781 -1.78101 0
M  V30 3022 H 284.796 -0.368677 -0.655425 0
M  V30 3023 H 286.767 -2.14555 -2.07385 0
M  V30 3024 C 285.516 -0.915323 -3.35436 0
M  V30 3025 H 284.839 -1.74759 -3.59582 0
M  V30 3026 H 286.279 -0.868895 -4.15001 0
M  V30 3027 C 284.738 0.381928 -3.34728 0
M  V30 3028 O 285.268 1.39857 -3.76567 0
M  V30 3029 N 283.474 0.398633 -2.87853 0
M  V30 3030 H 283.021 -0.429186 -2.54 0
M  V30 3031 H 282.979 1.26651 -2.87762 0
M  V30 3032 N 286.751 1.08385 -1.14413 0
M  V30 3033 C 287.998 1.80776 -0.912482 0
M  V30 3034 C 288.326 1.86236 0.560934 0
M  V30 3035 O 287.581 1.33431 1.43159 0
M  V30 3036 C 287.88 3.26273 -1.45879 0
M  V30 3037 C 287.546 3.4093 -2.95089 0
M  V30 3038 C 286.208 3.44638 -3.35824 0
M  V30 3039 C 288.56 3.44591 -3.91033 0
M  V30 3040 C 285.888 3.49597 -4.71167 0
M  V30 3041 C 288.24 3.51086 -5.26233 0
M  V30 3042 C 286.904 3.53067 -5.6648 0
M  V30 3043 H 286.174 0.661507 -0.333901 0
M  V30 3044 H 288.821 1.27613 -1.42784 0
M  V30 3045 H 287.126 3.82146 -0.864376 0
M  V30 3046 H 288.823 3.80839 -1.2555 0
M  V30 3047 H 285.413 3.38736 -2.62594 0
M  V30 3048 H 289.597 3.40957 -3.60641 0
M  V30 3049 H 284.853 3.49424 -5.0171 0
M  V30 3050 H 289.027 3.52864 -6.00383 0
M  V30 3051 H 286.654 3.56662 -6.71339 0
M  V30 3052 N 288.23 0.939286 1.26551 0
M  V30 3053 C 289.46 0.601663 1.97645 0
M  V30 3054 C 289.868 -0.827206 1.70159 0
M  V30 3055 O 289.211 -1.56291 0.965338 0
M  V30 3056 C 289.273 0.761725 3.51337 0
M  V30 3057 C 288.937 2.16487 4.0247 0
M  V30 3058 C 289.934 3.14016 4.14355 0
M  V30 3059 C 287.619 2.48494 4.36527 0
M  V30 3060 C 289.613 4.41654 4.59587 0
M  V30 3061 C 287.3 3.76364 4.81449 0
M  V30 3062 C 288.298 4.72758 4.92939 0
M  V30 3063 O 287.986 5.98352 5.36871 0
M  V30 3064 H 287.718 0.225758 0.637189 0
M  V30 3065 H 290.272 1.26178 1.62075 0
M  V30 3066 H 288.502 0.0444808 3.86674 0
M  V30 3067 H 290.191 0.427442 4.03643 0
M  V30 3068 H 290.957 2.90613 3.8829 0
M  V30 3069 H 286.836 1.74202 4.26819 0
M  V30 3070 H 290.38 5.16896 4.68471 0
M  V30 3071 H 286.277 3.99582 5.06956 0
M  V30 3072 H 287.045 6.01507 5.55096 0
M  V30 3073 N 289.708 -1.40897 0.706093 0
M  V30 3074 C 290.938 -2.05075 0.250523 0
M  V30 3075 C 291.346 -1.53275 -1.10921 0
M  V30 3076 O 290.689 -0.680281 -1.7064 0
M  V30 3077 C 290.751 -3.59219 0.142178 0
M  V30 3078 C 290.415 -4.33864 1.43566 0
M  V30 3079 C 291.412 -4.62448 2.37566 0
M  V30 3080 C 289.097 -4.72946 1.69195 0
M  V30 3081 C 291.091 -5.29088 3.5545 0
M  V30 3082 C 288.778 -5.3932 2.87362 0
M  V30 3083 C 289.776 -5.6732 3.80312 0
M  V30 3084 O 289.464 -6.32325 4.96408 0
M  V30 3085 H 289.196 -0.666645 0.112074 0
M  V30 3086 H 291.75 -1.81467 0.962239 0
M  V30 3087 H 289.98 -3.81609 -0.6254 0
M  V30 3088 H 291.669 -4.0495 -0.277584 0
M  V30 3089 H 292.435 -4.32727 2.19027 0
M  V30 3090 H 288.314 -4.50527 0.977042 0
M  V30 3091 H 291.858 -5.50859 4.28018 0
M  V30 3092 H 287.755 -5.68461 3.05814 0
M  V30 3093 H 288.523 -6.50821 4.9636 0
M  V30 3094 N 291.186 -0.45159 -1.50991 0
M  V30 3095 C 292.426 0.109066 -2.04109 0
M  V30 3096 C 292.79 1.38716 -1.32747 0
M  V30 3097 O 293.991 2.02896 -1.76314 0
M  V30 3098 C 292.262 0.308354 -3.56067 0
M  V30 3099 S 293.821 0.830369 -4.30872 0
M  V30 3100 H 290.639 0.0251531 -0.710555 0
M  V30 3101 H 293.241 -0.614264 -1.85599 0
M  V30 3102 H 291.945 -0.627962 -4.05567 0
M  V30 3103 H 291.476 1.05836 -3.78896 0
M  V30 3104 H 293.491 2.10626 -4.49279 0
M  V30 3105 N 292.664 1.56529 -0.183458 0
M  V30 3106 C 294.075 1.83739 0.331177 0
M  V30 3107 C 294.426 1.10373 1.62211 0
M  V30 3108 O 293.551 0.36071 2.13373 0
M  V30 3109 C 294.146 3.33306 0.607646 0
M  V30 3110 C 292.705 3.60969 1.06668 0
M  V30 3111 C 291.852 2.77086 0.109029 0
M  V30 3112 H 294.803 1.53379 -0.407484 0
M  V30 3113 H 294.824 3.51444 1.45832 0
M  V30 3114 H 294.336 3.86677 -0.332086 0
M  V30 3115 H 292.437 3.13021 2.0211 0
M  V30 3116 H 292.55 4.69231 0.967447 0
M  V30 3117 H 290.914 2.47319 0.608714 0
M  V30 3118 H 291.697 3.33241 -0.82494 0
M  V30 3119 N 294.142 -0.090211 1.57342 0
M  V30 3120 C 295.388 -0.788838 1.8748 0
M  V30 3121 C 295.743 -1.76105 0.7749 0
M  V30 3122 O 295.036 -1.90302 -0.222663 0
M  V30 3123 C 295.23 -1.55222 3.21933 0
M  V30 3124 C 295.059 -0.655441 4.44898 0
M  V30 3125 C 293.829 -0.299325 5.04413 0
M  V30 3126 C 296.027 0.0397458 5.14285 0
M  V30 3127 N 294.009 0.605108 6.10911 0
M  V30 3128 C 295.38 0.802061 6.1479 0
M  V30 3129 C 297.435 0.113154 4.97771 0
M  V30 3130 C 296.138 1.63093 7.00566 0
M  V30 3131 C 298.164 0.928942 5.84059 0
M  V30 3132 C 297.526 1.67936 6.84088 0
M  V30 3133 H 293.625 -0.26467 0.735849 0
M  V30 3134 H 296.209 -0.0511453 1.94633 0
M  V30 3135 H 294.38 -2.26076 3.15823 0
M  V30 3136 H 296.112 -2.19843 3.39781 0
M  V30 3137 H 292.867 -0.648079 4.69145 0
M  V30 3138 H 293.291 1.05002 6.68808 0
M  V30 3139 H 297.933 -0.452676 4.2037 0
M  V30 3140 H 295.651 2.20781 7.77355 0
M  V30 3141 H 299.237 0.988478 5.73341 0
M  V30 3142 H 298.117 2.30044 7.49699 0
M  V30 3143 N 295.62 -1.53406 -0.361157 0
M  V30 3144 C 296.57 -1.76536 -1.44287 0
M  V30 3145 C 297.554 -0.620019 -1.48474 0
M  V30 3146 O 298.746 -0.878834 -1.53641 0
M  V30 3147 C 295.875 -1.96266 -2.81664 0
M  V30 3148 C 294.961 -3.16815 -2.81938 0
M  V30 3149 N 295.352 -4.38637 -2.51855 0
M  V30 3150 C 293.65 -3.17627 -3.13096 0
M  V30 3151 C 294.351 -5.20401 -2.59919 0
M  V30 3152 N 293.327 -4.56712 -2.94814 0
M  V30 3153 H 297.129 -2.68331 -1.19899 0
M  V30 3154 H 294.643 -1.52091 -0.56938 0
M  V30 3155 H 296.64 -2.10966 -3.59582 0
M  V30 3156 H 295.3 -1.05702 -3.07013 0
M  V30 3157 H 296.311 -4.66293 -2.25369 0
M  V30 3158 H 292.988 -2.36971 -3.43731 0
M  V30 3159 H 294.378 -6.27586 -2.39969 0
M  V30 3160 N 297.098 0.621204 -1.44841 0
M  V30 3161 C 298.346 1.37783 -1.47852 0
M  V30 3162 C 298.667 1.94653 -0.116224 0
M  V30 3163 O 297.937 1.76367 0.852737 0
M  V30 3164 H 296.517 0.511453 -0.544449 0
M  V30 3165 H 299.179 0.730446 -1.80694 0
M  V30 3166 H 298.275 2.20414 -2.20961 0
M  V30 3167 N 298.576 1.31904 0.862503 0
M  V30 3168 C 299.823 1.22017 1.61611 0
M  V30 3169 C 300.151 -0.21991 1.93253 0
M  V30 3170 O 299.406 -1.17076 1.56817 0
M  V30 3171 C 299.705 2.01713 2.95037 0
M  V30 3172 C 299.371 3.51145 2.82857 0
M  V30 3173 C 298.033 3.91889 2.79243 0
M  V30 3174 C 300.385 4.46204 2.69353 0
M  V30 3175 C 297.713 5.25947 2.59993 0
M  V30 3176 C 300.065 5.80397 2.5164 0
M  V30 3177 C 298.729 6.20352 2.46413 0
M  V30 3178 H 297.999 0.44649 0.591378 0
M  V30 3179 H 300.646 1.63248 1.00111 0
M  V30 3180 H 298.951 1.53185 3.60613 0
M  V30 3181 H 300.648 1.91437 3.52353 0
M  V30 3182 H 297.238 3.1878 2.86491 0
M  V30 3183 H 301.422 4.15652 2.71196 0
M  V30 3184 H 296.678 5.5597 2.54376 0
M  V30 3185 H 300.852 6.53676 2.40169 0
M  V30 3186 H 298.479 7.24172 2.31256 0
M  V30 3187 N 300.054 -1.07777 1.14986 0
M  V30 3188 C 301.279 -1.84558 0.946213 0
M  V30 3189 C 301.704 -1.81323 -0.500362 0
M  V30 3190 O 301.062 -1.20301 -1.35637 0
M  V30 3191 C 301.11 -3.29736 1.45968 0
M  V30 3192 O 300.214 -4.07149 0.65601 0
M  V30 3193 H 299.555 -0.571641 0.33782 0
M  V30 3194 H 302.085 -1.35991 1.52865 0
M  V30 3195 H 302.095 -3.80574 1.47063 0
M  V30 3196 H 300.77 -3.31406 2.51283 0
M  V30 3197 H 299.347 -3.65994 0.714322 0
M  V30 3198 N 301.532 -0.945985 -1.26051 0
M  V30 3199 C 302.781 -0.591836 -1.92822 0
M  V30 3200 C 303.094 0.873956 -1.7499 0
M  V30 3201 O 304.3 1.33769 -2.36259 0
M  V30 3202 C 302.756 -1.00776 -3.45503 0
M  V30 3203 C 302.364 -2.4955 -3.7206 0
M  V30 3204 C 304.108 -0.725735 -4.1825 0
M  V30 3205 C 302.015 -2.84988 -5.18205 0
M  V30 3206 H 300.945 -0.217635 -0.721908 0
M  V30 3207 H 303.596 -1.14927 -1.43052 0
M  V30 3208 H 301.978 -0.378812 -3.94184 0
M  V30 3209 H 303.152 -3.1739 -3.34066 0
M  V30 3210 H 301.467 -2.75133 -3.12555 0
M  V30 3211 H 304.064 -0.966771 -5.25887 0
M  V30 3212 H 304.407 0.337639 -4.14929 0
M  V30 3213 H 304.94 -1.31463 -3.7545 0
M  V30 3214 H 301.679 -3.90307 -5.26631 0
M  V30 3215 H 301.199 -2.21813 -5.57278 0
M  V30 3216 H 302.878 -2.73712 -5.86252 0
M  V30 3217 N 303.011 1.40521 -0.713556 0
M  V30 3218 C 304.259 2.00527 -0.251692 0
M  V30 3219 C 304.58 1.56857 1.15848 0
M  V30 3220 O 303.85 0.807127 1.785 0
M  V30 3221 H 302.43 0.741551 -0.0900646 0
M  V30 3222 H 305.092 1.71887 -0.918733 0
M  V30 3223 H 304.188 3.10813 -0.283192 0
M  V30 3224 N 304.489 0.459591 1.5075 0
M  V30 3225 C 305.736 -0.0993495 2.02256 0
M  V30 3226 C 306.064 -1.40751 1.34237 0
M  V30 3227 O 305.319 -1.90379 0.453228 0
M  V30 3228 C 305.618 -0.342866 3.55752 0
M  V30 3229 C 305.284 0.88218 4.42186 0
M  V30 3230 C 303.946 1.21808 4.65528 0
M  V30 3231 C 306.298 1.69837 4.92752 0
M  V30 3232 C 303.626 2.37045 5.36681 0
M  V30 3233 C 305.978 2.84192 5.65171 0
M  V30 3234 C 304.642 3.1821 5.8677 0
M  V30 3235 H 303.912 -0.0363545 0.740108 0
M  V30 3236 H 306.559 0.611329 1.8148 0
M  V30 3237 H 304.864 -1.13567 3.7498 0
M  V30 3238 H 306.561 -0.789121 3.93159 0
M  V30 3239 H 303.151 0.610467 4.2423 0
M  V30 3240 H 307.335 1.45205 4.74583 0
M  V30 3241 H 302.591 2.63689 5.51614 0
M  V30 3242 H 306.765 3.4779 6.03337 0
M  V30 3243 H 304.392 4.07613 6.41682 0
M  V30 3244 N 305.967 -1.56429 0.191757 0
M  V30 3245 C 306.93 -2.17707 -0.716688 0
M  V30 3246 C 307.93 -1.13061 -1.14341 0
M  V30 3247 O 309.12 -1.38464 -1.05704 0
M  V30 3248 C 306.252 -2.77644 -1.97804 0
M  V30 3249 H 307.445 -2.99342 -0.1829 0
M  V30 3250 H 304.998 -1.56193 -0.0578566 0
M  V30 3251 H 305.733 -1.99799 -2.55443 0
M  V30 3252 H 305.518 -3.54246 -1.68083 0
M  V30 3253 H 307.008 -3.24708 -2.62592 0
M  V30 3254 N 307.445 0.0818655 -1.57387 0
M  V30 3255 C 308.675 0.794954 -1.90694 0
M  V30 3256 C 309.083 1.72147 -0.784982 0
M  V30 3257 O 308.426 1.81974 0.251196 0
M  V30 3258 C 308.488 1.65042 -3.19376 0
M  V30 3259 C 308.152 0.894337 -4.48164 0
M  V30 3260 C 309.149 0.21813 -5.19442 0
M  V30 3261 C 306.834 0.864495 -4.94805 0
M  V30 3262 C 308.828 -0.477802 -6.35607 0
M  V30 3263 C 306.515 0.164785 -6.10878 0
M  V30 3264 C 307.513 -0.505173 -6.81129 0
M  V30 3265 O 307.201 -1.19363 -7.94989 0
M  V30 3266 H 306.933 0.231779 -0.635023 0
M  V30 3267 H 309.487 0.059493 -2.05314 0
M  V30 3268 H 307.717 2.42844 -3.00938 0
M  V30 3269 H 309.406 2.24127 -3.38411 0
M  V30 3270 H 310.172 0.232558 -4.84442 0
M  V30 3271 H 306.051 1.37542 -4.40004 0
M  V30 3272 H 309.595 -1.00129 -6.90377 0
M  V30 3273 H 305.492 0.148249 -6.4533 0
M  V30 3274 H 306.26 -1.10188 -8.11049 0
M  V30 3275 N 308.923 1.53595 0.353017 0
M  V30 3276 C 310.171 1.70049 1.09215 0
M  V30 3277 C 310.492 0.461406 1.89463 0
M  V30 3278 O 309.762 -0.524633 1.88744 0
M  V30 3279 H 308.342 0.626912 0.40619 0
M  V30 3280 H 311.004 1.90822 0.396585 0
M  V30 3281 H 310.1 2.56718 1.77488 0
M  V30 3282 N 310.401 -0.613514 1.45168 0
M  V30 3283 C 311.641 -1.38405 1.5041 0
M  V30 3284 C 312.005 -1.91489 0.139922 0
M  V30 3285 O 313.206 -2.68716 0.067033 0
M  V30 3286 C 311.477 -2.50552 2.5487 0
M  V30 3287 S 313.036 -3.38439 2.79292 0
M  V30 3288 H 309.854 -0.471945 0.531779 0
M  V30 3289 H 312.456 -0.708518 1.82209 0
M  V30 3290 H 311.16 -2.09894 3.52665 0
M  V30 3291 H 310.691 -3.22913 2.24701 0
M  V30 3292 H 312.706 -4.48527 2.12222 0
M  V30 3293 N 311.879 -1.3236 -0.855495 0
M  V30 3294 C 313.127 -1.22629 -1.60644 0
M  V30 3295 C 313.448 0.212136 -1.93843 0
M  V30 3296 O 312.718 1.13666 -1.59552 0
M  V30 3297 H 311.298 -0.450882 -0.595579 0
M  V30 3298 H 313.96 -1.65871 -1.02337 0
M  V30 3299 H 313.056 -1.80832 -2.54374 0
M  V30 3300 N 313.357 1.07166 -1.15556 0
M  V30 3301 C 314.287 2.16403 -0.877046 0
M  V30 3302 C 315.268 1.69217 0.173111 0
M  V30 3303 O 316.453 1.94181 0.027084 0
M  V30 3304 C 313.583 3.45349 -0.367632 0
M  V30 3305 C 312.537 4.05995 -1.35468 0
M  V30 3306 C 311.863 5.30045 -0.704038 0
M  V30 3307 C 313.163 4.45804 -2.72132 0
M  V30 3308 H 314.857 2.39959 -1.79053 0
M  V30 3309 H 312.403 1.15325 -0.862331 0
M  V30 3310 H 314.356 4.21095 -0.160317 0
M  V30 3311 H 313.08 3.21385 0.581326 0
M  V30 3312 H 311.739 3.32296 -1.54839 0
M  V30 3313 H 311.387 5.02373 0.251128 0
M  V30 3314 H 311.087 5.71579 -1.36277 0
M  V30 3315 H 312.611 6.08495 -0.50654 0
M  V30 3316 H 314.025 5.12671 -2.56595 0
M  V30 3317 H 312.422 4.98296 -3.34397 0
M  V30 3318 H 313.492 3.57083 -3.28054 0
M  V30 3319 N 314.835 0.952656 1.25548 0
M  V30 3320 C 315.765 0.489287 2.28316 0
M  V30 3321 C 316.746 -0.463359 1.63667 0
M  V30 3322 O 317.931 -0.36274 1.90782 0
M  V30 3323 C 315.061 -0.235603 3.465 0
M  V30 3324 C 314.015 0.631593 4.23314 0
M  V30 3325 C 313.341 -0.223923 5.34231 0
M  V30 3326 C 314.641 1.90871 4.86174 0
M  V30 3327 H 316.335 1.34822 2.67326 0
M  V30 3328 H 313.881 0.649728 1.28509 0
M  V30 3329 H 315.834 -0.570882 4.17515 0
M  V30 3330 H 314.558 -1.12877 3.06474 0
M  V30 3331 H 313.217 0.949929 3.54079 0
M  V30 3332 H 312.865 -1.11678 4.90446 0
M  V30 3333 H 312.565 0.35299 5.86539 0
M  V30 3334 H 314.089 -0.554214 6.0808 0
M  V30 3335 H 315.503 1.63997 5.49343 0
M  V30 3336 H 313.9 2.43112 5.4865 0
M  V30 3337 H 314.97 2.61304 4.08471 0
M  V30 3338 N 316.313 -1.40141 0.720998 0
M  V30 3339 C 317.56 -2.00787 0.262842 0
M  V30 3340 C 317.888 -1.5718 -1.14563 0
M  V30 3341 O 317.143 -0.785391 -1.79249 0
M  V30 3342 C 317.442 -3.56165 0.296892 0
M  V30 3343 C 317.108 -4.19373 1.65641 0
M  V30 3344 C 315.77 -4.36352 2.02855 0
M  V30 3345 C 318.122 -4.54578 2.54968 0
M  V30 3346 C 315.45 -4.8582 3.28931 0
M  V30 3347 C 317.802 -5.05447 3.80402 0
M  V30 3348 C 316.466 -5.20635 4.17726 0
M  V30 3349 H 315.736 -0.734731 0.0961807 0
M  V30 3350 H 318.383 -1.67673 0.925093 0
M  V30 3351 H 316.688 -3.8922 -0.448932 0
M  V30 3352 H 318.385 -4.00929 -0.0755208 0
M  V30 3353 H 314.975 -4.06549 1.35704 0
M  V30 3354 H 319.159 -4.41091 2.27491 0
M  V30 3355 H 314.415 -4.95764 3.57811 0
M  V30 3356 H 318.589 -5.31663 4.49786 0
M  V30 3357 H 316.216 -5.58728 5.15487 0
M  V30 3358 N 317.792 -0.46758 -1.50504 0
M  V30 3359 C 318.755 0.317059 -2.26996 0
M  V30 3360 C 319.755 0.923513 -1.31635 0
M  V30 3361 O 320.945 0.793239 -1.55091 0
M  V30 3362 C 318.077 1.45134 -3.08462 0
M  V30 3363 H 319.27 -0.353723 -2.97807 0
M  V30 3364 H 316.823 -0.221545 -1.54722 0
M  V30 3365 H 317.558 2.15728 -2.4214 0
M  V30 3366 H 317.343 1.02232 -3.78538 0
M  V30 3367 H 318.833 2.00493 -3.66323 0
M  V30 3368 N 319.27 1.56325 -0.20005 0
M  V30 3369 C 320.233 2.18084 0.705132 0
M  V30 3370 C 321.233 1.13666 1.1374 0
M  V30 3371 O 322.423 1.39023 1.04968 0
M  V30 3372 C 319.555 2.78689 1.96329 0
M  V30 3373 H 320.748 2.99435 0.167023 0
M  V30 3374 H 318.301 1.56221 0.0495725 0
M  V30 3375 H 319.036 2.0115 2.5438 0
M  V30 3376 H 318.821 3.55133 1.66202 0
M  V30 3377 H 320.311 3.26096 2.60866 0
M  V30 3378 N 320.748 -0.0735177 1.57428 0
M  V30 3379 C 321.698 -1.09442 2.00016 0
M  V30 3380 C 322.682 -1.34575 0.881947 0
M  V30 3381 O 323.874 -1.34905 1.14585 0
M  V30 3382 C 321.003 -2.40865 2.4462 0
M  V30 3383 C 320.089 -2.19014 3.63172 0
M  V30 3384 N 320.48 -1.67087 4.77405 0
M  V30 3385 C 318.778 -2.49494 3.69688 0
M  V30 3386 C 319.479 -1.6001 5.5926 0
M  V30 3387 N 318.455 -2.05999 5.03056 0
M  V30 3388 H 322.257 -0.686227 2.85776 0
M  V30 3389 H 319.771 -0.280617 1.59957 0
M  V30 3390 H 321.768 -3.14763 2.73368 0
M  V30 3391 H 320.428 -2.82403 1.60246 0
M  V30 3392 H 321.439 -1.35975 4.99731 0
M  V30 3393 H 318.116 -2.94409 2.96023 0
M  V30 3394 H 319.506 -1.2073 6.60964 0
M  V30 3395 N 322.226 -1.5378 -0.344866 0
M  V30 3396 C 323.474 -1.70625 -1.08311 0
M  V30 3397 C 323.795 -0.471447 -1.89215 0
M  V30 3398 O 323.065 0.514616 -1.8902 0
M  V30 3399 H 321.645 -0.629058 -0.402859 0
M  V30 3400 H 324.307 -1.9103 -0.386459 0
M  V30 3401 H 323.403 -2.57656 -1.76124 0
M  V30 3402 N 323.704 0.605807 -1.45491 0
M  V30 3403 C 324.667 1.69836 -1.5391 0
M  V30 3404 C 325.667 1.55261 -0.418424 0
M  V30 3405 O 326.857 1.60296 -0.681965 0
M  V30 3406 C 323.989 3.09117 -1.43734 0
M  V30 3407 H 325.182 1.63738 -2.51257 0
M  V30 3408 H 322.735 0.821689 -1.32959 0
M  V30 3409 H 323.47 3.20791 -0.475788 0
M  V30 3410 H 323.255 3.21104 -2.25021 0
M  V30 3411 H 324.745 3.88696 -1.52661 0
M  V30 3412 N 325.182 1.32811 0.848464 0
M  V30 3413 C 326.41 1.26739 1.63538 0
M  V30 3414 C 326.825 -0.163484 1.88091 0
M  V30 3415 O 326.182 -1.10258 1.45429 0
M  V30 3416 C 326.233 2.03013 2.99112 0
M  V30 3417 O 325.954 3.40518 2.75643 0
M  V30 3418 C 327.455 2.04038 3.93552 0
M  V30 3419 H 324.675 0.437024 0.509167 0
M  V30 3420 H 327.219 1.75033 1.05753 0
M  V30 3421 H 325.374 1.58426 3.53525 0
M  V30 3422 H 325.788 3.79635 3.61908 0
M  V30 3423 H 327.262 2.61877 4.85926 0
M  V30 3424 H 327.739 1.0282 4.26995 0
M  V30 3425 H 328.345 2.486 3.45077 0
M  V30 3426 N 326.66 -1.06551 1.16123 0
M  V30 3427 C 327.909 -1.78687 0.935622 0
M  V30 3428 C 328.222 -1.88056 -0.538001 0
M  V30 3429 O 329.428 -2.56794 -0.88143 0
M  V30 3430 C 327.884 -3.21143 1.62466 0
M  V30 3431 C 327.492 -3.19949 3.13587 0
M  V30 3432 C 329.236 -3.9783 1.48092 0
M  V30 3433 C 327.143 -4.57108 3.75241 0
M  V30 3434 H 326.073 -0.669712 0.346412 0
M  V30 3435 H 328.724 -1.19534 1.39226 0
M  V30 3436 H 327.106 -3.80539 1.09572 0
M  V30 3437 H 328.28 -2.70151 3.73303 0
M  V30 3438 H 326.595 -2.5676 3.27816 0
M  V30 3439 H 329.192 -4.99217 1.91538 0
M  V30 3440 H 329.535 -4.14078 0.429507 0
M  V30 3441 H 330.068 -3.4495 1.98127 0
M  V30 3442 H 326.807 -4.46065 4.80319 0
M  V30 3443 H 326.327 -5.07111 3.20309 0
M  V30 3444 H 328.006 -5.26069 3.76644 0
M  V30 3445 N 328.138 -0.959301 -1.25041 0
M  V30 3446 C 329.068 -0.501388 -2.28053 0
M  V30 3447 C 330.049 0.454673 -1.63911 0
M  V30 3448 O 331.234 0.352618 -1.90972 0
M  V30 3449 C 328.364 0.217224 -3.4662 0
M  V30 3450 C 327.318 -0.654034 -4.22973 0
M  V30 3451 C 326.644 0.195589 -5.34342 0
M  V30 3452 C 327.944 -1.93447 -4.85155 0
M  V30 3453 H 329.638 -1.36238 -2.66608 0
M  V30 3454 H 327.184 -0.656534 -1.28163 0
M  V30 3455 H 329.137 0.548732 -4.17812 0
M  V30 3456 H 327.861 1.1125 -3.07068 0
M  V30 3457 H 326.52 -0.968693 -3.5357 0
M  V30 3458 H 326.168 1.09076 -4.91031 0
M  V30 3459 H 325.868 -0.384091 -5.86343 0
M  V30 3460 H 327.392 0.521958 -6.08365 0
M  V30 3461 H 328.806 -1.66908 -5.48466 0
M  V30 3462 H 327.203 -2.46018 -5.47353 0
M  V30 3463 H 328.273 -2.63466 -4.07079 0
M  V30 3464 N 329.616 1.39756 -0.72842 0
M  V30 3465 C 330.579 2.29012 -0.0927297 0
M  V30 3466 C 331.579 1.45992 0.674025 0
M  V30 3467 O 332.769 1.66749 0.50402 0
M  V30 3468 C 329.901 3.29396 0.878137 0
M  V30 3469 H 331.094 2.86729 -0.879011 0
M  V30 3470 H 328.647 1.48293 -0.493847 0
M  V30 3471 H 329.382 2.76722 1.69101 0
M  V30 3472 H 329.167 3.907 0.331051 0
M  V30 3473 H 330.657 3.96199 1.3197 0
M  V30 3474 N 331.094 0.475555 1.50254 0
M  V30 3475 C 332.34 -0.0780073 2.0265 0
M  V30 3476 C 332.673 -1.38968 1.35652 0
M  V30 3477 O 331.948 -1.8839 0.483691 0
M  V30 3478 C 332.231 -0.257161 3.59181 0
M  V30 3479 C 332.084 1.07585 4.36744 0
M  V30 3480 C 333.403 -1.00965 4.28362 0
M  V30 3481 H 330.522 -0.0268758 0.73651 0
M  V30 3482 H 333.164 0.622015 1.7953 0
M  V30 3483 H 331.314 -0.853412 3.79011 0
M  V30 3484 H 332.986 1.70902 4.28474 0
M  V30 3485 H 331.229 1.6714 4.00308 0
M  V30 3486 H 331.9 0.904088 5.44546 0
M  V30 3487 H 334.376 -0.504214 4.13034 0
M  V30 3488 H 333.252 -1.10381 5.37687 0
M  V30 3489 H 333.513 -2.04731 3.91839 0
M  V30 3490 N 332.573 -1.56217 0.208337 0
M  V30 3491 C 333.536 -2.18455 -0.693557 0
M  V30 3492 C 334.536 -1.14268 -1.13135 0
M  V30 3493 O 335.726 -1.39577 -1.0423 0
M  V30 3494 C 332.858 -2.79727 -1.94848 0
M  V30 3495 H 334.051 -2.99519 -0.15114 0
M  V30 3496 H 331.604 -1.56245 -0.041287 0
M  V30 3497 H 332.339 -2.02497 -2.53309 0
M  V30 3498 H 332.124 -3.56009 -1.64316 0
M  V30 3499 H 333.614 -3.27475 -2.59133 0
M  V30 3500 N 334.051 0.0651679 -1.57465 0
M  V30 3501 C 335.467 0.420105 -1.53972 0
M  V30 3502 C 335.667 1.78782 -0.929474 0
M  V30 3503 O 334.723 2.46771 -0.534839 0
M  V30 3504 C 336.036 0.355084 -2.98596 0
M  V30 3505 C 337.584 0.434792 -3.09965 0
M  V30 3506 C 338.059 0.399609 -4.56253 0
M  V30 3507 N 339.55 0.459488 -4.60915 0
M  V30 3508 C 340.285 0.454584 -5.71595 0
M  V30 3509 N 339.781 0.404102 -6.9162 0
M  V30 3510 N 341.574 0.501635 -5.59857 0
M  V30 3511 H 333.725 -0.830328 -1.95498 0
M  V30 3512 H 335.988 -0.312244 -0.895102 0
M  V30 3513 H 335.694 -0.583357 -3.46828 0
M  V30 3514 H 335.568 1.16275 -3.58831 0
M  V30 3515 H 337.955 1.36366 -2.61703 0
M  V30 3516 H 338.036 -0.40157 -2.52628 0
M  V30 3517 H 337.68 -0.525436 -5.05175 0
M  V30 3518 H 337.61 1.25359 -5.11461 0
M  V30 3519 H 340.101 0.502482 -3.74544 0
M  V30 3520 H 340.414 0.404468 -7.71741 0
M  V30 3521 H 338.759 0.37069 -6.94011 0
M  V30 3522 H 341.95 0.538812 -4.64989 0
M  V30 3523 H 342.123 0.494345 -6.46112 0
M  V30 3524 N 335.529 1.53961 0.336706 0
M  V30 3525 C 336.776 1.71536 1.07618 0
M  V30 3526 C 337.104 0.482125 1.8843 0
M  V30 3527 O 336.359 -0.536142 1.88213 0
M  V30 3528 C 336.658 2.93493 2.03953 0
M  V30 3529 C 336.324 4.28811 1.39399 0
M  V30 3530 C 334.986 4.65602 1.21523 0
M  V30 3531 C 337.338 5.12844 0.929541 0
M  V30 3532 C 334.666 5.84037 0.558312 0
M  V30 3533 C 337.018 6.31951 0.286505 0
M  V30 3534 C 335.682 6.67432 0.0954869 0
M  V30 3535 H 334.952 0.627696 0.393801 0
M  V30 3536 H 337.599 1.88186 0.354715 0
M  V30 3537 H 335.904 2.71475 2.82504 0
M  V30 3538 H 337.601 3.04285 2.61174 0
M  V30 3539 H 334.191 3.99858 1.54311 0
M  V30 3540 H 338.375 4.84947 1.05548 0
M  V30 3541 H 333.631 6.10097 0.398995 0
M  V30 3542 H 337.805 6.96352 -0.0814376 0
M  V30 3543 H 335.432 7.59063 -0.415579 0
M  V30 3544 N 337.007 -0.598083 1.45811 0
M  V30 3545 C 338.255 -1.35413 1.50026 0
M  V30 3546 C 338.576 -1.94444 0.147177 0
M  V30 3547 O 337.846 -1.77701 -0.824571 0
M  V30 3548 H 336.426 -0.502727 0.552517 0
M  V30 3549 H 339.088 -0.701606 1.81834 0
M  V30 3550 H 338.184 -2.16871 2.2444 0
M  V30 3551 N 338.485 -1.33259 -0.841409 0
M  V30 3552 C 339.733 -1.24326 -1.59334 0
M  V30 3553 C 340.054 0.191564 -1.94057 0
M  V30 3554 O 339.324 1.11967 -1.60749 0
M  V30 3555 H 337.904 -0.457174 -0.590763 0
M  V30 3556 H 340.566 -1.66947 -1.00571 0
M  V30 3557 H 339.662 -1.8352 -2.52442 0
M  V30 3558 N 339.963 1.05934 -1.16686 0
M  V30 3559 C 341.24 1.75643 -0.860747 0
M  V30 3560 C 341.62 2.01144 0.640641 0
M  V30 3561 O 340.968 1.64147 1.58959 0
M  V30 3562 C 341.178 3.05493 -1.68745 0
M  V30 3563 C 342.526 3.79581 -1.90271 0
M  V30 3564 O 343.55 3.15344 -1.65641 0
M  V30 3565 O 342.409 4.9499 -2.31618 0
M  V30 3566 H 339.503 0.763426 -0.317977 0
M  V30 3567 H 342.049 1.1217 -1.27342 0
M  V30 3568 H 340.821 2.8264 -2.70611 0
M  V30 3569 H 340.444 3.76702 -1.27206 0
M  V30 3570 N 341.441 0.965919 1.2453 0
M  V30 3571 C 342.857 0.67216 1.44756 0
M  V30 3572 C 343.057 -0.766609 1.86347 0
M  V30 3573 O 342.113 -1.5407 2.00047 0
M  V30 3574 C 343.426 1.65473 2.51076 0
M  V30 3575 C 344.974 1.66716 2.64905 0
M  V30 3576 C 345.449 2.63766 3.74421 0
M  V30 3577 N 346.94 2.62198 3.81846 0
M  V30 3578 C 347.675 3.33966 4.66106 0
M  V30 3579 N 347.171 4.15245 5.54566 0
M  V30 3580 N 348.964 3.22799 4.60171 0
M  V30 3581 H 341.115 1.89553 0.958293 0
M  V30 3582 H 343.378 0.815979 0.482579 0
M  V30 3583 H 343.084 2.68296 2.27399 0
M  V30 3584 H 342.958 1.4261 3.49202 0
M  V30 3585 H 345.345 0.646057 2.87941 0
M  V30 3586 H 345.426 1.93642 1.67142 0
M  V30 3587 H 345.07 3.6601 3.52135 0
M  V30 3588 H 345 2.34121 4.71694 0
M  V30 3589 H 347.491 2.032 3.18619 0
M  V30 3590 H 347.804 4.66898 6.15814 0
M  V30 3591 H 346.149 4.1934 5.54237 0
M  V30 3592 H 349.34 2.58764 3.90075 0
M  V30 3593 H 349.513 3.78994 5.25612 0
M  V30 3594 N 342.919 -1.39368 0.735821 0
M  V30 3595 C 343.829 -2.34395 0.0979693 0
M  V30 3596 C 344.845 -1.58361 -0.720968 0
M  V30 3597 O 346.021 -1.90648 -0.649245 0
M  V30 3598 C 343.086 -3.37393 -0.797916 0
M  V30 3599 C 342.147 -4.29287 0.0333662 0
M  V30 3600 C 341.38 -5.27365 -0.819854 0
M  V30 3601 O 341.603 -5.31959 -2.05855 0
M  V30 3602 O 340.537 -6.01389 -0.248079 0
M  V30 3603 H 344.363 -2.90601 0.882315 0
M  V30 3604 H 341.948 -1.40909 0.4965 0
M  V30 3605 H 343.83 -4.00505 -1.31048 0
M  V30 3606 H 342.505 -2.83571 -1.56106 0
M  V30 3607 H 341.412 -3.69395 0.591475 0
M  V30 3608 H 342.745 -4.86317 0.758752 0
M  V30 3609 N 344.397 -0.483516 -1.5 0
M  V30 3610 C 345.646 0.0689102 -2.01582 0
M  V30 3611 C 345.959 1.39655 -1.36952 0
M  V30 3612 O 347.165 2.03465 -1.79762 0
M  V30 3613 C 345.621 0.173302 -3.59483 0
M  V30 3614 C 345.229 -1.14665 -4.33077 0
M  V30 3615 C 346.973 0.677024 -4.19066 0
M  V30 3616 C 344.88 -1.00537 -5.82792 0
M  V30 3617 H 343.81 0.0295277 -0.753422 0
M  V30 3618 H 346.461 -0.620295 -1.72698 0
M  V30 3619 H 344.843 0.926569 -3.85007 0
M  V30 3620 H 346.017 -1.91184 -4.19268 0
M  V30 3621 H 344.332 -1.58244 -3.85159 0
M  V30 3622 H 346.929 0.799952 -5.28682 0
M  V30 3623 H 347.272 1.67151 -3.81269 0
M  V30 3624 H 347.805 -0.0192083 -3.97795 0
M  V30 3625 H 344.544 -1.9736 -6.25083 0
M  V30 3626 H 344.064 -0.280776 -5.99142 0
M  V30 3627 H 345.743 -0.677 -6.43448 0
M  V30 3628 N 345.875 1.56104 -0.216619 0
M  V30 3629 C 346.785 2.23694 0.706982 0
M  V30 3630 C 347.801 1.24295 1.21765 0
M  V30 3631 O 348.977 1.57094 1.2603 0
M  V30 3632 C 346.042 2.8998 1.90033 0
M  V30 3633 C 345.103 4.04708 1.43213 0
M  V30 3634 C 344.336 4.67824 2.56859 0
M  V30 3635 O 344.559 4.29913 3.74874 0
M  V30 3636 O 343.493 5.56905 2.28343 0
M  V30 3637 H 347.319 3.03272 0.161235 0
M  V30 3638 H 344.904 1.49394 0.0136177 0
M  V30 3639 H 346.786 3.31837 2.59735 0
M  V30 3640 H 345.461 2.13365 2.43428 0
M  V30 3641 H 344.368 3.6743 0.70327 0
M  V30 3642 H 345.701 4.83051 0.944615 0
M  V30 3643 N 347.353 -0.0568162 1.57498 0
M  V30 3644 C 348.285 -1.09292 2.01464 0
M  V30 3645 C 349.298 -1.34112 0.922913 0
M  V30 3646 O 350.487 -1.32089 1.20062 0
M  V30 3647 C 347.587 -2.44068 2.35125 0
M  V30 3648 C 346.76 -2.38995 3.66333 0
M  V30 3649 C 345.819 -3.55997 3.87495 0
M  V30 3650 O 344.845 -3.36746 4.58901 0
M  V30 3651 N 346.047 -4.76888 3.30996 0
M  V30 3652 H 348.812 -0.718386 2.90963 0
M  V30 3653 H 346.373 -0.245235 1.60032 0
M  V30 3654 H 348.365 -3.21011 2.46443 0
M  V30 3655 H 346.935 -2.73468 1.5144 0
M  V30 3656 H 346.155 -1.47336 3.65631 0
M  V30 3657 H 347.443 -2.3272 4.52458 0
M  V30 3658 H 346.841 -4.95431 2.73065 0
M  V30 3659 H 345.398 -5.51291 3.47738 0
M  V30 3660 N 348.832 -1.54138 -0.328536 0
M  V30 3661 C 350.081 -1.71318 -1.06456 0
M  V30 3662 C 350.394 -0.491109 -1.89334 0
M  V30 3663 O 351.6 -0.54416 -2.65991 0
M  V30 3664 C 350.056 -3.03 -1.94214 0
M  V30 3665 C 349.664 -4.32595 -1.16471 0
M  V30 3666 C 351.408 -3.29544 -2.67583 0
M  V30 3667 C 349.315 -5.55341 -2.03347 0
M  V30 3668 H 348.245 -0.638429 -0.401155 0
M  V30 3669 H 350.896 -1.80633 -0.323106 0
M  V30 3670 H 349.278 -2.87579 -2.72239 0
M  V30 3671 H 350.452 -4.58766 -0.432525 0
M  V30 3672 H 348.767 -4.12777 -0.548063 0
M  V30 3673 H 351.364 -4.18444 -3.3288 0
M  V30 3674 H 351.707 -2.47206 -3.34955 0
M  V30 3675 H 352.24 -3.45809 -1.96623 0
M  V30 3676 H 348.979 -6.40268 -1.40491 0
M  V30 3677 H 348.499 -5.33397 -2.74313 0
M  V30 3678 H 350.178 -5.91557 -2.62049 0
M  V30 3679 N 350.31 0.590341 -1.46126 0
M  V30 3680 C 351.538 1.37504 -1.54597 0
M  V30 3681 C 351.953 1.87897 -0.184447 0
M  V30 3682 O 351.31 1.63192 0.816984 0
M  V30 3683 C 351.361 2.56779 -2.54454 0
M  V30 3684 O 351.082 2.08476 -3.85317 0
M  V30 3685 C 352.583 3.49427 -2.72792 0
M  V30 3686 H 349.803 0.420325 -0.523037 0
M  V30 3687 H 352.347 0.718383 -1.91467 0
M  V30 3688 H 350.502 3.1845 -2.20609 0
M  V30 3689 H 350.916 2.86097 -4.396 0
M  V30 3690 H 352.39 4.29619 -3.466 0
M  V30 3691 H 352.867 4.00876 -1.79429 0
M  V30 3692 H 353.473 2.93598 -3.07702 0
M  V30 3693 N 351.788 1.33704 0.83433 0
M  V30 3694 C 353.065 1.16011 1.57483 0
M  V30 3695 C 353.445 -0.27176 2.09343 0
M  V30 3696 O 352.793 -1.27146 1.89858 0
M  V30 3697 C 353.003 2.20507 2.70514 0
M  V30 3698 C 354.351 2.54898 3.39577 0
M  V30 3699 O 355.375 2.19209 2.80759 0
M  V30 3700 O 354.234 3.16158 4.45765 0
M  V30 3701 H 351.328 0.448992 0.694503 0
M  V30 3702 H 353.874 1.453 0.876691 0
M  V30 3703 H 352.646 3.16667 2.29865 0
M  V30 3704 H 352.269 1.92329 3.47987 0
M  V30 3705 N 353.266 -1.05314 1.17247 0
M  V30 3706 C 354.682 -1.30452 0.919473 0
M  V30 3707 C 354.882 -1.9703 -0.42209 0
M  V30 3708 O 353.938 -2.24311 -1.15935 0
M  V30 3709 C 355.251 -2.17551 2.07586 0
M  V30 3710 C 356.799 -2.30937 2.11275 0
M  V30 3711 C 357.274 -3.21396 3.26296 0
M  V30 3712 N 358.765 -3.28981 3.26076 0
M  V30 3713 C 359.5 -3.99095 4.11716 0
M  V30 3714 N 358.996 -4.71648 5.07465 0
M  V30 3715 N 360.789 -3.95247 3.9967 0
M  V30 3716 H 352.94 -0.604988 2.03602 0
M  V30 3717 H 355.203 -0.329368 0.888944 0
M  V30 3718 H 354.909 -1.75921 3.0454 0
M  V30 3719 H 354.783 -3.18182 2.02584 0
M  V30 3720 H 357.17 -2.71809 1.14907 0
M  V30 3721 H 357.251 -1.2994 2.20339 0
M  V30 3722 H 356.895 -2.81238 4.22927 0
M  V30 3723 H 356.825 -4.22395 3.14467 0
M  V30 3724 H 359.316 -2.77286 2.5675 0
M  V30 3725 H 359.629 -5.22705 5.6921 0
M  V30 3726 H 357.974 -4.70594 5.11435 0
M  V30 3727 H 361.165 -3.37691 3.24164 0
M  V30 3728 H 361.338 -4.4962 4.66632 0
M  V30 3729 N 354.744 -0.972509 -1.24016 0
M  V30 3730 C 355.992 -0.635776 -1.91839 0
M  V30 3731 C 356.313 0.832312 -1.76345 0
M  V30 3732 O 355.583 1.5946 -1.13795 0
M  V30 3733 H 354.163 -0.232157 -0.710009 0
M  V30 3734 H 356.825 -1.23462 -1.50809 0
M  V30 3735 H 355.921 -0.880545 -2.99421 0
M  V30 3736 N 356.222 1.38976 -0.743202 0
M  V30 3737 C 357.45 2.04636 -0.30525 0
M  V30 3738 C 357.865 1.56044 1.06281 0
M  V30 3739 O 357.222 0.728921 1.67311 0
M  V30 3740 C 357.273 3.60193 -0.307177 0
M  V30 3741 O 356.994 4.06998 -1.62124 0
M  V30 3742 C 358.495 4.4306 0.145928 0
M  V30 3743 H 355.715 0.65788 -0.132041 0
M  V30 3744 H 358.259 1.77866 -1.00915 0
M  V30 3745 H 356.414 3.85835 0.347898 0
M  V30 3746 H 356.828 5.01371 -1.54036 0
M  V30 3747 H 358.302 5.51921 0.0934183 0
M  V30 3748 H 358.779 4.22706 1.19231 0
M  V30 3749 H 359.385 4.22584 -0.479886 0
M  V30 3750 N 357.7 0.491464 1.49741 0
M  V30 3751 C 358.663 -0.280906 2.27472 0
M  V30 3752 C 359.663 -0.902454 1.33088 0
M  V30 3753 O 360.853 -0.768465 1.56334 0
M  V30 3754 C 357.985 -1.40209 3.10732 0
M  V30 3755 H 359.178 0.401056 2.97206 0
M  V30 3756 H 356.731 0.246131 1.5435 0
M  V30 3757 H 357.466 -2.11849 2.45541 0
M  V30 3758 H 357.251 -0.961969 3.80117 0
M  V30 3759 H 358.741 -1.9464 3.69466 0
M  V30 3760 N 359.178 -1.55987 0.224894 0
M  V30 3761 C 360.424 -1.98684 -0.406502 0
M  V30 3762 C 360.757 -1.11248 -1.59177 0
M  V30 3763 O 360.032 -0.170909 -1.93748 0
M  V30 3764 C 360.315 -3.50218 -0.837808 0
M  V30 3765 C 360.168 -4.48426 0.351332 0
M  V30 3766 C 361.487 -4.06243 -1.69278 0
M  V30 3767 H 358.606 -0.722337 -0.146283 0
M  V30 3768 H 361.248 -1.87255 0.321799 0
M  V30 3769 H 359.398 -3.60089 -1.45837 0
M  V30 3770 H 361.07 -4.50562 0.989526 0
M  V30 3771 H 359.313 -4.22159 0.998207 0
M  V30 3772 H 359.984 -5.52 0.00655905 0
M  V30 3773 H 362.46 -3.99337 -1.16914 0
M  V30 3774 H 361.336 -5.12581 -1.96346 0
M  V30 3775 H 361.597 -3.53332 -2.65723 0
M  V30 3776 N 360.656 0.0484629 -1.57525 0
M  V30 3777 C 361.566 1.07241 -2.08654 0
M  V30 3778 C 362.582 1.409 -1.02095 0
M  V30 3779 O 363.758 1.50609 -1.33712 0
M  V30 3780 C 360.823 2.36008 -2.5397 0
M  V30 3781 C 359.884 2.09108 -3.7493 0
M  V30 3782 C 359.117 3.31736 -4.18075 0
M  V30 3783 O 359.34 4.41714 -3.60895 0
M  V30 3784 O 358.274 3.18576 -5.10679 0
M  V30 3785 H 362.1 0.667965 -2.96263 0
M  V30 3786 H 359.685 0.26417 -1.47046 0
M  V30 3787 H 361.567 3.11747 -2.83535 0
M  V30 3788 H 360.242 2.75786 -1.69481 0
M  V30 3789 H 359.149 1.31 -3.50414 0
M  V30 3790 H 360.482 1.74198 -4.60343 0
M  V30 3791 N 362.134 1.5431 0.320358 0
M  V30 3792 C 363.55 1.45091 0.664889 0
M  V30 3793 C 363.75 0.626382 1.91517 0
M  V30 3794 O 362.806 0.126443 2.52183 0
M  V30 3795 C 364.119 2.88848 0.83591 0
M  V30 3796 C 365.667 2.9877 0.933046 0
M  V30 3797 C 366.142 4.43683 1.13621 0
M  V30 3798 N 367.633 4.47309 1.20287 0
M  V30 3799 C 368.368 5.56595 1.37801 0
M  V30 3800 N 367.864 6.75844 1.52338 0
M  V30 3801 N 369.657 5.44248 1.40535 0
M  V30 3802 H 361.808 2.06398 -0.501374 0
M  V30 3803 H 364.071 0.933963 -0.162534 0
M  V30 3804 H 363.777 3.51698 -0.0116092 0
M  V30 3805 H 363.651 3.35148 1.73078 0
M  V30 3806 H 366.038 2.36045 1.77107 0
M  V30 3807 H 366.119 2.55796 0.0145782 0
M  V30 3808 H 365.763 5.06995 0.303032 0
M  V30 3809 H 365.693 4.84269 2.0686 0
M  V30 3810 H 368.184 3.61388 1.10485 0
M  V30 3811 H 368.497 7.54892 1.65403 0
M  V30 3812 H 366.842 6.78746 1.4943 0
M  V30 3813 H 370.033 4.50038 1.28777 0
M  V30 3814 H 370.206 6.29473 1.53842 0
M  V30 3815 N 363.613 -0.582584 1.46437 0
M  V30 3816 C 364.576 -1.67366 1.56592 0
M  V30 3817 C 365.576 -1.54575 0.443072 0
M  V30 3818 O 366.766 -1.59191 0.707381 0
M  V30 3819 C 363.898 -3.06791 1.48634 0
M  V30 3820 H 365.091 -1.5972 2.5383 0
M  V30 3821 H 362.644 -0.800432 1.34249 0
M  V30 3822 H 363.379 -3.19993 0.526763 0
M  V30 3823 H 363.164 -3.17484 2.30101 0
M  V30 3824 H 364.654 -3.86218 1.58826 0
M  V30 3825 N 365.091 -1.34144 -0.827227 0
M  V30 3826 C 366.054 -1.25264 -1.91942 0
M  V30 3827 C 367.054 -0.168866 -1.59911 0
M  V30 3828 O 368.244 -0.421198 -1.69031 0
M  V30 3829 C 365.376 -0.932952 -3.27885 0
M  V30 3830 H 366.569 -2.22357 -2.0124 0
M  V30 3831 H 364.122 -1.1837 -1.0207 0
M  V30 3832 H 364.857 0.0349917 -3.24281 0
M  V30 3833 H 364.642 -1.71682 -3.52516 0
M  V30 3834 H 366.132 -0.895874 -4.07877 0
M  V30 3835 N 366.569 1.04691 -1.17803 0
M  V30 3836 C 367.499 2.14494 -0.92275 0
M  V30 3837 C 368.48 1.69546 0.137179 0
M  V30 3838 O 369.665 1.94195 -0.0141108 0
M  V30 3839 C 366.795 3.44491 -0.440803 0
M  V30 3840 C 365.749 4.03031 -1.4405 0
M  V30 3841 C 365.075 5.28432 -0.81631 0
M  V30 3842 C 366.375 4.39932 -2.81527 0
M  V30 3843 H 368.069 2.36107 -1.84103 0
M  V30 3844 H 365.615 1.1347 -0.886599 0
M  V30 3845 H 367.568 4.2066 -0.249602 0
M  V30 3846 H 366.292 3.22546 0.513025 0
M  V30 3847 H 364.951 3.28937 -1.61853 0
M  V30 3848 H 364.599 5.02792 0.144511 0
M  V30 3849 H 364.299 5.68559 -1.48371 0
M  V30 3850 H 365.823 6.07284 -0.635496 0
M  V30 3851 H 367.237 5.07113 -2.67412 0
M  V30 3852 H 365.634 4.9109 -3.44892 0
M  V30 3853 H 366.704 3.50045 -3.35554 0
M  V30 3854 N 368.047 0.979072 1.23499 0
M  V30 3855 C 369.294 0.647219 1.91878 0
M  V30 3856 C 369.622 -0.819074 1.76413 0
M  V30 3857 O 368.877 -1.60616 1.11808 0
M  V30 3858 C 369.176 0.981932 3.43646 0
M  V30 3859 C 368.842 2.43822 3.79291 0
M  V30 3860 C 367.504 2.83622 3.88731 0
M  V30 3861 C 369.856 3.3828 3.96505 0
M  V30 3862 C 367.184 4.16897 4.12812 0
M  V30 3863 C 369.536 4.71197 4.22085 0
M  V30 3864 C 368.2 5.10758 4.29747 0
M  V30 3865 H 367.47 0.236834 0.702133 0
M  V30 3866 H 370.117 1.23268 1.46551 0
M  V30 3867 H 368.422 0.314365 3.90537 0
M  V30 3868 H 370.119 0.703395 3.94783 0
M  V30 3869 H 366.709 2.11966 3.72516 0
M  V30 3870 H 370.893 3.0871 3.88603 0
M  V30 3871 H 366.149 4.47157 4.16966 0
M  V30 3872 H 370.323 5.44348 4.34348 0
M  V30 3873 H 367.95 6.1405 4.48159 0
M  V30 3874 N 369.525 -1.3858 0.750561 0
M  V30 3875 C 370.771 -2.0095 0.31477 0
M  V30 3876 C 371.126 -1.58509 -1.09053 0
M  V30 3877 O 370.419 -0.8112 -1.7358 0
M  V30 3878 C 370.613 -3.55455 0.372373 0
M  V30 3879 C 370.442 -4.12898 1.78173 0
M  V30 3880 C 369.212 -4.44797 2.39757 0
M  V30 3881 C 371.41 -4.35366 2.7379 0
M  V30 3882 N 369.392 -4.87831 3.72685 0
M  V30 3883 C 370.763 -4.80775 3.91478 0
M  V30 3884 C 372.818 -4.1746 2.71351 0
M  V30 3885 C 371.521 -5.10155 5.07084 0
M  V30 3886 C 373.547 -4.47963 3.86113 0
M  V30 3887 C 372.909 -4.93593 5.02539 0
M  V30 3888 H 369.008 -0.765083 0.161776 0
M  V30 3889 H 371.592 -1.68246 0.979867 0
M  V30 3890 H 369.763 -3.87512 -0.26244 0
M  V30 3891 H 371.495 -4.04614 -0.0834479 0
M  V30 3892 H 368.25 -4.33135 1.91548 0
M  V30 3893 H 368.674 -5.13685 4.40972 0
M  V30 3894 H 373.316 -3.81372 1.82524 0
M  V30 3895 H 371.034 -5.45141 5.96529 0
M  V30 3896 H 374.62 -4.35717 3.85542 0
M  V30 3897 H 373.5 -5.16746 5.89867 0
M  V30 3898 N 371.003 -0.499398 -1.49478 0
M  V30 3899 C 372.419 -0.155261 -1.58843 0
M  V30 3900 C 372.619 1.34008 -1.50479 0
M  V30 3901 O 371.675 2.11589 -1.37791 0
M  V30 3902 C 372.988 -0.730636 -2.91689 0
M  V30 3903 C 374.536 -0.696599 -3.0515 0
M  V30 3904 C 375.011 -1.25001 -4.40612 0
M  V30 3905 N 376.502 -1.21064 -4.47099 0
M  V30 3906 C 377.237 -1.60905 -5.50361 0
M  V30 3907 N 376.733 -2.08331 -6.60735 0
M  V30 3908 N 378.526 -1.52331 -5.41065 0
M  V30 3909 H 370.677 -1.47162 -1.53158 0
M  V30 3910 H 372.94 -0.610309 -0.725415 0
M  V30 3911 H 372.646 -1.77928 -3.03372 0
M  V30 3912 H 372.52 -0.190161 -3.7672 0
M  V30 3913 H 374.907 0.343204 -2.93097 0
M  V30 3914 H 374.988 -1.2742 -2.21806 0
M  V30 3915 H 374.632 -2.28859 -4.53416 0
M  V30 3916 H 374.562 -0.64836 -5.22593 0
M  V30 3917 H 377.053 -0.863128 -3.67911 0
M  V30 3918 H 377.366 -2.36805 -7.35624 0
M  V30 3919 H 375.711 -2.12304 -6.6178 0
M  V30 3920 H 378.902 -1.151 -4.53729 0
M  V30 3921 H 379.075 -1.83704 -6.21415 0
M  V30 3922 N 372.481 1.55866 -0.233164 0
M  V30 3923 C 373.727 1.99643 0.389148 0
M  V30 3924 C 374.082 1.11836 1.56558 0
M  V30 3925 O 373.375 0.170848 1.90837 0
M  V30 3926 C 373.569 3.46856 0.861724 0
M  V30 3927 C 373.398 4.48904 -0.267376 0
M  V30 3928 C 372.168 4.99888 -0.737577 0
M  V30 3929 C 374.366 5.02624 -1.08966 0
M  V30 3930 N 372.348 5.8566 -1.84052 0
M  V30 3931 C 373.719 5.85434 -2.04125 0
M  V30 3932 C 375.774 4.84959 -1.12779 0
M  V30 3933 C 374.477 6.52466 -3.02789 0
M  V30 3934 C 376.503 5.52759 -2.10266 0
M  V30 3935 C 375.865 6.35346 -3.04162 0
M  V30 3936 H 371.964 0.774402 0.108742 0
M  V30 3937 H 374.548 1.91572 -0.347596 0
M  V30 3938 H 372.719 3.55352 1.5678 0
M  V30 3939 H 374.451 3.77531 1.45783 0
M  V30 3940 H 371.206 4.7249 -0.324122 0
M  V30 3941 H 371.63 6.33246 -2.39434 0
M  V30 3942 H 376.272 4.20751 -0.415749 0
M  V30 3943 H 373.99 7.15849 -3.74948 0
M  V30 3944 H 377.576 5.41051 -2.13905 0
M  V30 3945 H 376.456 6.86883 -3.78366 0
M  V30 3946 N 373.959 -0.0401083 1.57549 0
M  V30 3947 C 375.187 -0.745196 1.93014 0
M  V30 3948 C 375.602 -1.6948 0.831984 0
M  V30 3949 O 374.959 -1.81482 -0.192463 0
M  V30 3950 C 375.01 -1.51176 3.28372 0
M  V30 3951 O 374.731 -0.600284 4.33968 0
M  V30 3952 C 376.232 -2.315 3.78051 0
M  V30 3953 H 373.452 -0.210088 0.637263 0
M  V30 3954 H 375.996 -0.000924689 2.045 0
M  V30 3955 H 374.151 -2.20801 3.18317 0
M  V30 3956 H 374.565 -1.13669 5.12035 0
M  V30 3957 H 376.039 -2.80697 4.75303 0
M  V30 3958 H 376.516 -3.12436 3.08675 0
M  V30 3959 H 377.122 -1.66971 3.91153 0
M  V30 3960 N 375.437 -1.54477 -0.31217 0
M  V30 3961 C 376.686 -1.72438 -1.04633 0
M  V30 3962 C 376.999 -0.511163 -1.88803 0
M  V30 3963 O 378.205 -0.572341 -2.65399 0
M  V30 3964 C 376.661 -3.05043 -1.9099 0
M  V30 3965 C 376.269 -4.33806 -1.11877 0
M  V30 3966 C 378.013 -3.32364 -2.64073 0
M  V30 3967 C 375.92 -5.57467 -1.97445 0
M  V30 3968 H 374.85 -0.642647 -0.394361 0
M  V30 3969 H 377.501 -1.80966 -0.303929 0
M  V30 3970 H 375.883 -2.90451 -2.69173 0
M  V30 3971 H 377.057 -4.59199 -0.383843 0
M  V30 3972 H 375.372 -4.13336 -0.504252 0
M  V30 3973 H 377.969 -4.21951 -3.28423 0
M  V30 3974 H 378.312 -2.50745 -3.32314 0
M  V30 3975 H 378.845 -3.47875 -1.92944 0
M  V30 3976 H 375.584 -6.41722 -1.33692 0
M  V30 3977 H 375.104 -5.36277 -2.6864 0
M  V30 3978 H 376.783 -5.94303 -2.5576 0
M  V30 3979 N 376.915 0.57481 -1.46744 0
M  V30 3980 C 378.163 1.33009 -1.52161 0
M  V30 3981 C 378.484 1.94185 -0.178092 0
M  V30 3982 O 377.754 1.7899 0.796196 0
M  V30 3983 H 376.334 0.493873 -0.560445 0
M  V30 3984 H 378.996 0.672589 -1.82927 0
M  V30 3985 H 378.092 2.13273 -2.27862 0
M  V30 3986 N 378.394 1.34581 0.820102 0
M  V30 3987 C 379.641 1.27096 1.57648 0
M  V30 3988 C 379.969 -0.158317 1.93855 0
M  V30 3989 O 379.224 -1.12028 1.60463 0
M  V30 3990 C 379.523 2.10997 2.8847 0
M  V30 3991 C 379.189 3.59966 2.71543 0
M  V30 3992 C 377.851 4.00575 2.66634 0
M  V30 3993 C 380.203 4.54548 2.55021 0
M  V30 3994 C 377.531 5.33953 2.43128 0
M  V30 3995 C 379.883 5.88109 2.33047 0
M  V30 3996 C 378.547 6.27878 2.26552 0
M  V30 3997 H 377.817 0.465078 0.576874 0
M  V30 3998 H 380.464 1.6635 0.948671 0
M  V30 3999 H 378.769 1.6458 3.55557 0
M  V30 4000 H 380.466 2.0255 3.46084 0
M  V30 4001 H 377.056 3.27733 2.76205 0
M  V30 4002 H 381.24 4.24069 2.57835 0
M  V30 4003 H 376.496 5.63781 2.3656 0
M  V30 4004 H 380.67 6.60985 2.19251 0
M  V30 4005 H 378.297 7.31162 2.081 0
M  V30 4006 N 379.872 -1.04064 1.18357 0
M  V30 4007 C 380.82 -2.14187 0.907007 0
M  V30 4008 C 381.814 -1.68879 -0.132725 0
M  V30 4009 O 383.02 -1.79993 0.0154248 0
M  V30 4010 H 379.395 -0.699585 0.275835 0
M  V30 4011 H 381.366 -2.34711 1.84264 0
M  V30 4012 C 380.115 -3.44785 0.449254 0
M  V30 4013 H 379.438 -3.80058 1.24081 0
M  V30 4014 H 380.878 -4.22974 0.294737 0
M  V30 4015 C 379.337 -3.26391 -0.834909 0
M  V30 4016 O 379.867 -3.53973 -1.89911 0
M  V30 4017 N 378.073 -2.79726 -0.787523 0
M  V30 4018 H 377.62 -2.5748 0.0787347 0
M  V30 4019 H 377.578 -2.67798 -1.64716 0
M  V30 4020 N 381.35 -0.985608 -1.22978 0
M  V30 4021 C 382.313 -0.535071 -2.22867 0
M  V30 4022 C 383.313 0.378123 -1.56291 0
M  V30 4023 O 384.503 0.171092 -1.73358 0
M  V30 4024 C 381.635 0.222702 -3.40172 0
M  V30 4025 H 382.828 -1.41835 -2.6424 0
M  V30 4026 H 380.381 -0.772042 -1.35901 0
M  V30 4027 H 381.116 1.12229 -3.04262 0
M  V30 4028 H 380.901 -0.43288 -3.89703 0
M  V30 4029 H 382.391 0.526335 -4.1427 0
M  V30 4030 N 382.828 1.3818 -0.7579 0
M  V30 4031 C 384.056 2.04301 -0.326937 0
M  V30 4032 C 384.471 1.57163 1.0462 0
M  V30 4033 O 383.828 0.746626 1.66529 0
M  V30 4034 C 383.879 3.59846 -0.345363 0
M  V30 4035 O 383.6 4.05256 -1.66432 0
M  V30 4036 C 385.101 4.4319 0.098927 0
M  V30 4037 H 382.321 0.656443 -0.139012 0
M  V30 4038 H 384.865 1.76786 -1.02796 0
M  V30 4039 H 383.02 3.86182 0.306955 0
M  V30 4040 H 383.434 4.99709 -1.59345 0
M  V30 4041 H 384.908 5.51989 0.0348745 0
M  V30 4042 H 385.385 4.23947 1.14741 0
M  V30 4043 H 385.991 4.22051 -0.52468 0
M  V30 4044 N 384.306 0.507319 1.49211 0
M  V30 4045 C 385.555 -0.0368315 2.01666 0
M  V30 4046 C 385.868 -1.37459 1.39156 0
M  V30 4047 O 387.074 -2.00579 1.82976 0
M  V30 4048 C 385.53 -0.116089 3.59713 0
M  V30 4049 C 385.138 1.2154 4.31198 0
M  V30 4050 C 386.882 -0.610268 4.2009 0
M  V30 4051 C 384.789 1.09796 5.81119 0
M  V30 4052 H 383.719 -0.0175376 0.753796 0
M  V30 4053 H 386.37 0.647691 1.71689 0
M  V30 4054 H 384.752 -0.8652 3.86433 0
M  V30 4055 H 385.926 1.9783 4.16173 0
M  V30 4056 H 384.241 1.64352 3.82593 0
M  V30 4057 H 386.838 -0.715742 5.29888 0
M  V30 4058 H 387.181 -1.61064 3.8388 0
M  V30 4059 H 387.714 0.0824916 3.97714 0
M  V30 4060 H 384.453 2.0728 6.21864 0
M  V30 4061 H 383.973 0.376058 5.9862 0
M  V30 4062 H 385.652 0.779281 6.4229 0
M  V30 4063 N 385.784 -1.5574 0.241426 0
M  V30 4064 C 386.694 -2.2479 -0.671305 0
M  V30 4065 C 387.71 -1.26217 -1.19772 0
M  V30 4066 O 388.886 -1.59079 -1.23514 0
M  V30 4067 C 385.951 -2.92966 -1.85396 0
M  V30 4068 C 385.012 -4.06935 -1.36756 0
M  V30 4069 C 384.245 -4.71851 -2.49384 0
M  V30 4070 O 384.468 -4.35823 -3.67987 0
M  V30 4071 O 383.402 -5.60467 -2.19454 0
M  V30 4072 H 387.228 -3.0349 -0.112966 0
M  V30 4073 H 384.813 -1.49397 0.0101513 0
M  V30 4074 H 386.695 -3.35927 -2.54423 0
M  V30 4075 H 385.37 -2.17211 -2.40002 0
M  V30 4076 H 384.277 -3.68503 -0.644726 0
M  V30 4077 H 385.61 -4.84492 -0.867647 0
M  V30 4078 N 387.262 0.0317525 -1.57568 0
M  V30 4079 C 388.487 0.738664 -1.938 0
M  V30 4080 C 388.912 1.68242 -0.841208 0
M  V30 4081 O 388.27 1.80157 0.203267 0
M  V30 4082 C 388.318 1.47417 -3.29091 0
M  V30 4083 O 387.422 2.5872 -3.2115 0
M  V30 4084 H 386.763 0.198856 -0.633524 0
M  V30 4085 H 389.293 -0.0119713 -2.04596 0
M  V30 4086 H 389.303 1.84468 -3.63917 0
M  V30 4087 H 387.978 0.781988 -4.08482 0
M  V30 4088 H 386.555 2.24231 -2.97951 0
M  V30 4089 N 388.74 1.54641 0.303973 0
M  V30 4090 C 389.986 1.74038 1.04109 0
M  V30 4091 C 390.319 0.523051 1.87024 0
M  V30 4092 O 389.594 -0.479874 1.88487 0
M  V30 4093 C 389.877 3.02761 1.94955 0
M  V30 4094 C 389.73 4.34787 1.1524 0
M  V30 4095 C 391.049 3.27336 2.94175 0
M  V30 4096 H 388.168 0.63323 0.377079 0
M  V30 4097 H 390.81 1.87354 0.316001 0
M  V30 4098 H 388.96 2.9154 2.56782 0
M  V30 4099 H 390.632 4.57922 0.557236 0
M  V30 4100 H 388.875 4.31407 0.455053 0
M  V30 4101 H 389.546 5.21116 1.8205 0
M  V30 4102 H 392.022 3.38148 2.42477 0
M  V30 4103 H 390.898 4.18726 3.54908 0
M  V30 4104 H 391.159 2.45491 3.67677 0
M  V30 4105 N 390.218 -0.567019 1.47046 0
M  V30 4106 C 391.168 -1.67018 1.55207 0
M  V30 4107 C 392.152 -1.55543 0.411714 0
M  V30 4108 O 393.344 -1.64192 0.661064 0
M  V30 4109 C 390.473 -3.05801 1.56014 0
M  V30 4110 C 389.559 -3.22515 2.75399 0
M  V30 4111 N 389.95 -3.09329 4.00186 0
M  V30 4112 C 388.248 -3.53493 2.71954 0
M  V30 4113 C 388.949 -3.2847 4.80086 0
M  V30 4114 N 387.925 -3.54352 4.12233 0
M  V30 4115 H 391.727 -1.55377 2.4947 0
M  V30 4116 H 389.241 -0.771503 1.42904 0
M  V30 4117 H 391.238 -3.84996 1.59949 0
M  V30 4118 H 389.898 -3.18561 0.628396 0
M  V30 4119 H 390.909 -2.86863 4.31196 0
M  V30 4120 H 387.586 -3.7284 1.87873 0
M  V30 4121 H 388.976 -3.23326 5.88991 0
M  V30 4122 N 391.696 -1.35014 -0.812953 0
M  V30 4123 C 393.112 -1.14914 -1.10757 0
M  V30 4124 C 393.312 0.0426818 -2.01455 0
M  V30 4125 O 392.368 0.715212 -2.42159 0
M  V30 4126 C 393.681 -2.44911 -1.74468 0
M  V30 4127 C 395.229 -2.5106 -1.86917 0
M  V30 4128 C 395.704 -3.81085 -2.54044 0
M  V30 4129 N 397.195 -3.82301 -2.61535 0
M  V30 4130 C 397.93 -4.79634 -3.14227 0
M  V30 4131 N 397.426 -5.87353 -3.67407 0
M  V30 4132 N 399.219 -4.67078 -3.12721 0
M  V30 4133 H 391.37 -2.1136 -0.20989 0
M  V30 4134 H 393.633 -0.935128 -0.155692 0
M  V30 4135 H 393.339 -3.32267 -1.15289 0
M  V30 4136 H 393.213 -2.58989 -2.74234 0
M  V30 4137 H 395.6 -1.64137 -2.45241 0
M  V30 4138 H 395.681 -2.40901 -0.860242 0
M  V30 4139 H 395.325 -4.68402 -1.96372 0
M  V30 4140 H 395.255 -3.88529 -3.55461 0
M  V30 4141 H 397.746 -3.04465 -2.23851 0
M  V30 4142 H 398.059 -6.57624 -4.05894 0
M  V30 4143 H 396.404 -5.91054 -3.65623 0
M  V30 4144 H 399.595 -3.82067 -2.70449 0
M  V30 4145 H 399.768 -5.43098 -3.53481 0
M  V30 4146 N 393.175 1.03435 -1.18907 0
M  V30 4147 C 394.421 1.7713 -0.99982 0
M  V30 4148 C 394.776 1.86695 0.465049 0
M  V30 4149 O 394.069 1.36866 1.34083 0
M  V30 4150 C 394.263 3.19792 -1.59586 0
M  V30 4151 C 394.092 3.24134 -3.11717 0
M  V30 4152 C 392.862 3.32398 -3.80578 0
M  V30 4153 C 395.06 3.11625 -4.09138 0
M  V30 4154 N 393.042 3.26055 -5.20155 0
M  V30 4155 C 394.413 3.12855 -5.35277 0
M  V30 4156 C 396.468 2.95713 -4.00572 0
M  V30 4157 C 395.171 2.99805 -6.53842 0
M  V30 4158 C 397.197 2.84011 -5.1874 0
M  V30 4159 C 396.559 2.8589 -6.43775 0
M  V30 4160 H 392.658 0.659683 -0.419931 0
M  V30 4161 H 395.242 1.2317 -1.50789 0
M  V30 4162 H 393.413 3.72085 -1.11389 0
M  V30 4163 H 395.145 3.81819 -1.3415 0
M  V30 4164 H 391.9 3.38392 -3.31342 0
M  V30 4165 H 392.324 3.26307 -5.93172 0
M  V30 4166 H 396.966 2.93086 -3.0473 0
M  V30 4167 H 394.684 3.01184 -7.49876 0
M  V30 4168 H 398.27 2.72744 -5.13909 0
M  V30 4169 H 397.15 2.76931 -7.33675 0
M  V30 4170 N 394.653 0.992116 1.22453 0
M  V30 4171 C 395.901 0.666215 1.90804 0
M  V30 4172 C 396.222 -0.804152 1.77647 0
M  V30 4173 O 395.492 -1.57629 1.16318 0
M  V30 4174 H 394.072 0.243423 0.706225 0
M  V30 4175 H 396.734 1.25845 1.48825 0
M  V30 4176 H 395.83 0.928069 2.97982 0
M  V30 4177 N 396.131 -1.37776 0.765217 0
M  V30 4178 C 397.377 -2.00604 0.336066 0
M  V30 4179 C 397.732 -1.59657 -1.07366 0
M  V30 4180 O 397.025 -0.829565 -1.7271 0
M  V30 4181 C 397.219 -3.5504 0.410053 0
M  V30 4182 C 397.048 -4.10985 1.82542 0
M  V30 4183 C 395.818 -4.42229 2.44461 0
M  V30 4184 C 398.016 -4.32438 2.78392 0
M  V30 4185 N 395.998 -4.8385 3.77839 0
M  V30 4186 C 397.369 -4.76596 3.96556 0
M  V30 4187 C 399.424 -4.14559 2.75764 0
M  V30 4188 C 398.127 -5.04748 5.12466 0
M  V30 4189 C 400.153 -4.43843 3.90842 0
M  V30 4190 C 399.515 -4.88235 5.07746 0
M  V30 4191 H 395.614 -0.763325 0.169881 0
M  V30 4192 H 398.198 -1.67197 0.997656 0
M  V30 4193 H 396.369 -3.87769 -0.221325 0
M  V30 4194 H 398.101 -4.0468 -0.0405285 0
M  V30 4195 H 394.856 -4.31079 1.96131 0
M  V30 4196 H 395.28 -5.08979 4.46396 0
M  V30 4197 H 399.922 -3.79415 1.86558 0
M  V30 4198 H 397.64 -5.38783 6.02277 0
M  V30 4199 H 401.226 -4.31603 3.90141 0
M  V30 4200 H 400.106 -5.10461 5.95315 0
M  V30 4201 N 397.609 -0.515225 -1.4894 0
M  V30 4202 C 398.856 0.024215 -2.02486 0
M  V30 4203 C 399.184 1.35671 -1.39368 0
M  V30 4204 O 398.439 1.88566 -0.523574 0
M  V30 4205 C 398.738 0.210595 -3.56779 0
M  V30 4206 C 398.404 -1.04569 -4.38607 0
M  V30 4207 C 397.066 -1.39002 -4.60686 0
M  V30 4208 C 399.418 -1.88008 -4.86109 0
M  V30 4209 C 396.746 -2.568 -5.27514 0
M  V30 4210 C 399.098 -3.04972 -5.54234 0
M  V30 4211 C 397.762 -3.39768 -5.74555 0
M  V30 4212 H 397.032 0.00886088 -0.740947 0
M  V30 4213 H 399.679 -0.678263 -1.79086 0
M  V30 4214 H 397.984 0.99572 -3.78936 0
M  V30 4215 H 399.681 0.642659 -3.95817 0
M  V30 4216 H 396.271 -0.767497 -4.21672 0
M  V30 4217 H 400.455 -1.62719 -4.68867 0
M  V30 4218 H 395.711 -2.8398 -5.41447 0
M  V30 4219 H 399.885 -3.69943 -5.90013 0
M  V30 4220 H 397.512 -4.31148 -6.26112 0
M  V30 4221 N 399.087 1.5561 -0.249682 0
M  V30 4222 C 400.334 1.99011 0.374287 0
M  V30 4223 C 400.662 1.13785 1.57744 0
M  V30 4224 O 399.917 0.189326 1.94782 0
M  V30 4225 C 400.216 3.4775 0.824887 0
M  V30 4226 C 399.882 4.50086 -0.270819 0
M  V30 4227 C 398.544 4.77791 -0.571746 0
M  V30 4228 C 400.896 5.11312 -1.01041 0
M  V30 4229 C 398.224 5.63997 -1.61629 0
M  V30 4230 C 400.576 5.98651 -2.0445 0
M  V30 4231 C 399.24 6.24688 -2.35204 0
M  V30 4232 H 398.51 0.728233 0.136961 0
M  V30 4233 H 401.157 1.88122 -0.358087 0
M  V30 4234 H 399.462 3.55985 1.63651 0
M  V30 4235 H 401.159 3.78721 1.31799 0
M  V30 4236 H 397.749 4.28592 -0.026136 0
M  V30 4237 H 401.933 4.89953 -0.791177 0
M  V30 4238 H 397.189 5.82425 -1.85988 0
M  V30 4239 H 401.363 6.45135 -2.62248 0
M  V30 4240 H 398.99 6.91281 -3.16282 0
M  V30 4241 N 400.565 -0.0233959 1.57583 0
M  V30 4242 C 401.79 -0.728376 1.94189 0
M  V30 4243 C 402.215 -1.67793 0.850119 0
M  V30 4244 O 401.573 -1.80262 -0.19371 0
M  V30 4245 C 401.621 -1.45669 3.29868 0
M  V30 4246 O 400.725 -2.57013 3.22518 0
M  V30 4247 H 400.066 -0.195493 0.63457 0
M  V30 4248 H 402.596 0.0228214 2.04587 0
M  V30 4249 H 402.606 -1.82535 3.6489 0
M  V30 4250 H 401.281 -0.760314 4.08891 0
M  V30 4251 H 399.858 -2.22648 2.99136 0
M  V30 4252 N 402.043 -1.548 -0.295768 0
M  V30 4253 C 402.973 -1.89115 -1.36959 0
M  V30 4254 C 403.954 -0.75059 -1.52644 0
M  V30 4255 O 405.139 -1.00678 -1.66065 0
M  V30 4256 C 402.269 -2.14307 -2.73295 0
M  V30 4257 C 401.223 -3.30151 -2.72368 0
M  V30 4258 C 400.549 -3.40772 -4.12042 0
M  V30 4259 C 401.849 -4.67126 -2.33646 0
M  V30 4260 H 403.543 -2.79053 -1.08488 0
M  V30 4261 H 401.089 -1.34266 -0.520443 0
M  V30 4262 H 403.042 -2.36898 -3.48507 0
M  V30 4263 H 401.766 -1.21145 -3.03301 0
M  V30 4264 H 400.425 -3.0749 -1.99613 0
M  V30 4265 H 400.073 -2.45117 -4.39234 0
M  V30 4266 H 399.773 -4.18645 -4.12322 0
M  V30 4267 H 401.297 -3.6563 -4.89027 0
M  V30 4268 H 402.711 -4.89414 -2.98575 0
M  V30 4269 H 401.108 -5.47751 -2.45129 0
M  V30 4270 H 402.178 -4.67489 -1.28772 0
M  V30 4271 N 403.521 0.559213 -1.47345 0
M  V30 4272 C 404.454 1.68201 -1.5422 0
M  V30 4273 C 405.432 1.57742 -0.394497 0
M  V30 4274 O 406.616 1.78628 -0.60201 0
M  V30 4275 C 403.743 3.0643 -1.44285 0
M  V30 4276 C 402.789 3.3534 -2.63532 0
M  V30 4277 S 403.622 3.24816 -4.25741 0
M  V30 4278 C 404.778 4.65542 -4.18355 0
M  V30 4279 H 405.011 1.62114 -2.49211 0
M  V30 4280 H 402.544 0.739871 -1.35519 0
M  V30 4281 H 404.502 3.86164 -1.3924 0
M  V30 4282 H 403.163 3.09984 -0.506816 0
M  V30 4283 H 402.356 4.36107 -2.52639 0
M  V30 4284 H 401.958 2.63221 -2.65689 0
M  V30 4285 H 404.25 5.56449 -3.86485 0
M  V30 4286 H 405.193 4.81493 -5.19202 0
M  V30 4287 H 405.601 4.43495 -3.49246 0
M  V30 4288 N 404.999 1.35443 0.805782 0
M  V30 4289 C 406.245 1.28952 1.56522 0
M  V30 4290 C 406.578 -0.135597 1.93726 0
M  V30 4291 O 405.853 -1.08516 1.61414 0
M  V30 4292 C 406.136 2.19678 2.85331 0
M  V30 4293 C 405.989 3.7081 2.54598 0
M  V30 4294 C 407.308 2.09495 3.8704 0
M  V30 4295 H 404.427 0.469764 0.567883 0
M  V30 4296 H 407.069 1.65851 0.927001 0
M  V30 4297 H 405.219 1.8834 3.39795 0
M  V30 4298 H 406.891 4.12593 2.06312 0
M  V30 4299 H 405.134 3.91051 1.8778 0
M  V30 4300 H 405.805 4.29679 3.46525 0
M  V30 4301 H 408.281 2.37045 3.41978 0
M  V30 4302 H 407.157 2.75173 4.74943 0
M  V30 4303 H 407.418 1.07714 4.28777 0
M  V30 4304 N 406.477 -1.02803 1.19454 0
M  V30 4305 C 407.41 -2.107 0.876396 0
M  V30 4306 C 408.388 -1.61741 -0.166897 0
M  V30 4307 O 409.572 -1.88451 -0.0430195 0
M  V30 4308 C 406.699 -3.37262 0.311758 0
M  V30 4309 C 405.745 -4.05093 1.33424 0
M  V30 4310 S 406.578 -4.50498 2.89503 0
M  V30 4311 C 407.734 -5.80277 2.34584 0
M  V30 4312 H 407.967 -2.37362 1.79016 0
M  V30 4313 H 405.5 -1.15755 1.02177 0
M  V30 4314 H 407.458 -4.10499 -0.00748752 0
M  V30 4315 H 406.119 -3.08693 -0.58032 0
M  V30 4316 H 405.312 -4.9611 0.888302 0
M  V30 4317 H 404.914 -3.3803 1.60037 0
M  V30 4318 H 407.206 -6.54873 1.73633 0
M  V30 4319 H 408.149 -6.29651 3.23952 0
M  V30 4320 H 408.557 -5.3599 1.77131 0
M  V30 4321 N 407.956 -0.998596 -1.21925 0
M  V30 4322 C 409.202 -0.678667 -1.91107 0
M  V30 4323 C 409.535 0.78791 -1.77498 0
M  V30 4324 O 408.81 1.57043 -1.1475 0
M  V30 4325 C 409.093 -1.09245 -3.43129 0
M  V30 4326 C 408.946 -2.61801 -3.6576 0
M  V30 4327 C 410.265 -0.649984 -4.35274 0
M  V30 4328 H 407.384 -0.248025 -0.694012 0
M  V30 4329 H 410.026 -1.24314 -1.43688 0
M  V30 4330 H 408.176 -0.612171 -3.83647 0
M  V30 4331 H 409.848 -3.17543 -3.34611 0
M  V30 4332 H 408.091 -3.03609 -3.09845 0
M  V30 4333 H 408.762 -2.85804 -4.7225 0
M  V30 4334 H 411.238 -1.0626 -4.02303 0
M  V30 4335 H 410.114 -0.967743 -5.40302 0
M  V30 4336 H 410.375 0.449139 -4.39813 0
M  V30 4337 N 409.434 1.37368 -0.772513 0
M  V30 4338 C 410.659 2.0447 -0.347386 0
M  V30 4339 C 411.084 1.57882 1.0225 0
M  V30 4340 O 410.442 0.73941 1.65537 0
M  V30 4341 C 410.49 3.58369 -0.400479 0
M  V30 4342 O 409.594 4.0803 0.598789 0
M  V30 4343 H 408.935 0.646773 -0.15027 0
M  V30 4344 H 411.465 1.75667 -1.04892 0
M  V30 4345 H 411.475 4.07183 -0.258045 0
M  V30 4346 H 410.15 3.91633 -1.39986 0
M  V30 4347 H 408.727 3.70534 0.419411 0
M  V30 4348 N 410.912 0.523116 1.48665 0
M  V30 4349 C 411.875 -0.232592 2.28017 0
M  V30 4350 C 412.875 -0.874021 1.34972 0
M  V30 4351 O 414.065 -0.735132 1.57929 0
M  V30 4352 C 411.197 -1.33586 3.13636 0
M  V30 4353 H 412.39 0.464008 2.96289 0
M  V30 4354 H 409.943 0.278816 1.53793 0
M  V30 4355 H 410.678 -2.06593 2.4998 0
M  V30 4356 H 410.463 -0.881125 3.82071 0
M  V30 4357 H 411.953 -1.86759 3.73511 0
M  V30 4358 N 412.39 -1.55475 0.257931 0
M  V30 4359 C 413.615 -2.04064 -0.370488 0
M  V30 4360 C 414.04 -1.13565 -1.49948 0
M  V30 4361 O 413.398 -0.130781 -1.80828 0
M  V30 4362 C 413.446 -3.50554 -0.845237 0
M  V30 4363 O 412.55 -3.63173 -1.95394 0
M  V30 4364 H 411.891 -0.659257 -0.0792243 0
M  V30 4365 H 414.421 -2.00903 0.387212 0
M  V30 4366 H 414.431 -3.91588 -1.14555 0
M  V30 4367 H 413.106 -4.15896 -0.0191259 0
M  V30 4368 H 411.683 -3.34039 -1.65748 0
M  V30 4369 N 413.868 0.0150385 -1.57593 0
M  V30 4370 C 415.114 0.704043 -1.90187 0
M  V30 4371 C 415.447 1.74249 -0.857366 0
M  V30 4372 O 414.722 1.94092 0.125843 0
M  V30 4373 C 415.005 1.36087 -3.33395 0
M  V30 4374 C 414.858 0.334981 -4.48551 0
M  V30 4375 C 416.177 2.29112 -3.7576 0
M  V30 4376 H 413.296 0.254475 -0.691673 0
M  V30 4377 H 415.938 -0.0331678 -1.89971 0
M  V30 4378 H 414.088 1.98922 -3.3371 0
M  V30 4379 H 415.76 -0.292534 -4.60372 0
M  V30 4380 H 414.003 -0.344325 -4.32431 0
M  V30 4381 H 414.674 0.833316 -5.45674 0
M  V30 4382 H 417.15 1.76308 -3.76902 0
M  V30 4383 H 416.026 2.72043 -4.76743 0
M  V30 4384 H 416.287 3.16385 -3.08793 0
M  V30 4385 N 415.346 1.54954 0.287554 0
M  V30 4386 C 416.594 1.74528 1.01904 0
M  V30 4387 C 416.915 0.541349 1.87335 0
M  V30 4388 O 416.185 -0.444108 1.908 0
M  V30 4389 H 414.765 0.643576 0.379235 0
M  V30 4390 H 417.427 1.92333 0.315294 0
M  V30 4391 H 416.523 2.64015 1.6644 0
M  V30 4392 N 416.824 -0.551391 1.4764 0
M  V30 4393 C 418.073 -1.30467 1.53822 0
M  V30 4394 C 418.386 -1.94495 0.207661 0
M  V30 4395 O 419.592 -2.71099 0.147533 0
M  V30 4396 C 418.048 -2.36616 2.71184 0
M  V30 4397 C 417.656 -1.78754 4.10793 0
M  V30 4398 C 419.4 -3.13088 2.86663 0
M  V30 4399 C 417.307 -2.82717 5.19447 0
M  V30 4400 H 416.237 -0.490584 0.572576 0
M  V30 4401 H 418.888 -0.58494 1.73927 0
M  V30 4402 H 417.27 -3.11529 2.4447 0
M  V30 4403 H 418.444 -1.10173 4.47435 0
M  V30 4404 H 416.759 -1.14846 4.00249 0
M  V30 4405 H 419.356 -3.90736 3.65007 0
M  V30 4406 H 419.699 -3.67635 1.95321 0
M  V30 4407 H 420.232 -2.45288 3.13175 0
M  V30 4408 H 416.971 -2.33018 6.12685 0
M  V30 4409 H 416.491 -3.4969 4.87316 0
M  V30 4410 H 418.17 -3.46102 5.46646 0
M  V30 4411 N 418.302 -1.35869 -0.798587 0
M  V30 4412 C 419.232 -1.32118 -1.92528 0
M  V30 4413 C 420.213 -0.194209 -1.68988 0
M  V30 4414 O 421.398 -0.390426 -1.90235 0
M  V30 4415 C 418.528 -1.10047 -3.29404 0
M  V30 4416 C 417.482 -2.19471 -3.67446 0
M  V30 4417 C 416.808 -1.82555 -5.02571 0
M  V30 4418 C 418.108 -3.61495 -3.76987 0
M  V30 4419 H 419.802 -2.26394 -1.95924 0
M  V30 4420 H 417.348 -1.08981 -0.94123 0
M  V30 4421 H 419.301 -1.06061 -4.07835 0
M  V30 4422 H 418.025 -0.122195 -3.26371 0
M  V30 4423 H 416.684 -2.22568 -2.91306 0
M  V30 4424 H 416.332 -0.833249 -4.9605 0
M  V30 4425 H 416.032 -2.5581 -5.28995 0
M  V30 4426 H 417.556 -1.80108 -5.83432 0
M  V30 4427 H 418.97 -3.60676 -4.4563 0
M  V30 4428 H 417.367 -4.33577 -4.14887 0
M  V30 4429 H 418.437 -3.97065 -2.78329 0
M  V30 4430 N 419.78 1.02168 -1.19998 0
M  V30 4431 C 420.71 2.12488 -0.96804 0
M  V30 4432 C 421.691 1.69799 0.101185 0
M  V30 4433 O 422.876 1.94121 -0.0552993 0
M  V30 4434 C 420.006 3.43479 -0.513776 0
M  V30 4435 C 418.96 3.99884 -1.52566 0
M  V30 4436 C 418.286 5.26582 -0.928214 0
M  V30 4437 C 419.586 4.33861 -2.90795 0
M  V30 4438 H 421.28 2.32149 -1.89069 0
M  V30 4439 H 418.826 1.11564 -0.910468 0
M  V30 4440 H 420.779 4.20036 -0.338774 0
M  V30 4441 H 419.503 3.23561 0.444493 0
M  V30 4442 H 418.162 3.25429 -1.68794 0
M  V30 4443 H 417.81 5.02986 0.0378289 0
M  V30 4444 H 417.51 5.65284 -1.60397 0
M  V30 4445 H 419.034 6.05799 -0.764167 0
M  V30 4446 H 420.448 5.01327 -2.78109 0
M  V30 4447 H 418.845 4.83664 -3.55231 0
M  V30 4448 H 419.915 3.42848 -3.42904 0
M  V30 4449 N 421.258 1.00505 1.21394 0
M  V30 4450 C 422.486 0.706609 1.9446 0
M  V30 4451 C 422.901 -0.73081 1.74082 0
M  V30 4452 O 422.258 -1.49446 1.04747 0
M  V30 4453 C 422.309 1.01824 3.46863 0
M  V30 4454 O 422.03 2.39919 3.66566 0
M  V30 4455 C 423.531 0.739216 4.37093 0
M  V30 4456 H 420.751 0.260394 0.618414 0
M  V30 4457 H 423.295 1.34311 1.54211 0
M  V30 4458 H 421.45 0.427343 3.85036 0
M  V30 4459 H 421.864 2.50784 4.6066 0
M  V30 4460 H 423.338 1.00744 5.42729 0
M  V30 4461 H 423.815 -0.326746 4.37983 0
M  V30 4462 H 424.421 1.31173 4.04566 0
M  V30 4463 N 422.737 -1.36956 0.779787 0
M  V30 4464 C 423.985 -1.99097 0.347079 0
M  V30 4465 C 424.306 -1.62206 -1.08232 0
M  V30 4466 O 423.576 -0.891373 -1.74446 0
M  V30 4467 H 422.156 -0.736409 0.125342 0
M  V30 4468 H 424.818 -1.67308 0.999696 0
M  V30 4469 H 423.914 -3.09107 0.431162 0
M  V30 4470 N 424.215 -0.530993 -1.48385 0
M  V30 4471 C 425.443 -0.00134122 -2.069 0
M  V30 4472 C 425.858 1.2805 -1.3874 0
M  V30 4473 O 425.215 1.76204 -0.475244 0
M  V30 4474 C 425.266 0.225256 -3.60798 0
M  V30 4475 O 424.987 -1.0058 -4.26398 0
M  V30 4476 C 426.488 0.795172 -4.3611 0
M  V30 4477 H 423.708 -0.0339704 -0.67014 0
M  V30 4478 H 426.252 -0.736926 -1.90761 0
M  V30 4479 H 424.407 0.910891 -3.76539 0
M  V30 4480 H 424.821 -0.787165 -5.1856 0
M  V30 4481 H 426.295 0.903143 -5.44562 0
M  V30 4482 H 426.772 1.80031 -4.00606 0
M  V30 4483 H 427.378 0.146069 -4.25049 0
M  V30 4484 N 425.693 1.55336 -0.266172 0
M  V30 4485 C 426.94 1.99397 0.353158 0
M  V30 4486 C 427.268 1.15451 1.56529 0
M  V30 4487 O 426.523 0.209974 1.9457 0
M  V30 4488 C 426.822 3.48606 0.787957 0
M  V30 4489 C 426.488 4.49773 -0.318541 0
M  V30 4490 C 425.15 4.77158 -0.62239 0
M  V30 4491 C 427.502 5.10212 -1.06459 0
M  V30 4492 C 424.83 5.62251 -1.67602 0
M  V30 4493 C 427.182 5.96449 -2.10788 0
M  V30 4494 C 425.846 6.22158 -2.41817 0
M  V30 4495 H 425.116 0.729644 0.12923 0
M  V30 4496 H 427.763 1.87732 -0.37802 0
M  V30 4497 H 426.068 3.57701 1.59866 0
M  V30 4498 H 427.765 3.80098 1.27775 0
M  V30 4499 H 424.355 4.2854 -0.0715925 0
M  V30 4500 H 428.539 4.89086 -0.843098 0
M  V30 4501 H 423.795 5.80419 -1.92155 0
M  V30 4502 H 427.969 6.42317 -2.69076 0
M  V30 4503 H 425.596 6.87888 -3.23596 0
M  V30 4504 N 427.171 -0.0066808 1.57599 0
M  V30 4505 C 428.417 -0.693947 1.90558 0
M  V30 4506 C 428.75 -1.73792 0.866594 0
M  V30 4507 O 428.025 -1.94156 -0.115548 0
M  V30 4508 C 428.308 -1.34317 3.34112 0
M  V30 4509 C 428.161 -0.311189 4.48722 0
M  V30 4510 C 429.48 -2.27116 3.7697 0
M  V30 4511 H 426.599 -0.250803 0.693013 0
M  V30 4512 H 429.241 0.043242 1.89951 0
M  V30 4513 H 427.391 -1.9715 3.3476 0
M  V30 4514 H 429.063 0.316944 4.6021 0
M  V30 4515 H 427.306 0.367253 4.32243 0
M  V30 4516 H 427.977 -0.804366 5.46108 0
M  V30 4517 H 430.453 -1.74306 3.77831 0
M  V30 4518 H 429.329 -2.69511 4.78179 0
M  V30 4519 H 429.59 -3.14743 3.10466 0
M  V30 4520 N 428.649 -1.55105 -0.279332 0
M  V30 4521 C 429.926 -1.66119 -1.03267 0
M  V30 4522 C 430.306 -0.523525 -2.04505 0
M  V30 4523 O 429.654 0.477194 -2.23462 0
M  V30 4524 C 429.864 -3.05067 -1.69515 0
M  V30 4525 C 431.212 -3.62606 -2.20912 0
M  V30 4526 O 432.236 -3.07659 -1.79512 0
M  V30 4527 O 431.095 -4.58861 -2.96831 0
M  V30 4528 H 428.189 -0.674429 -0.478618 0
M  V30 4529 H 430.735 -1.67446 -0.275694 0
M  V30 4530 H 429.507 -3.79311 -0.9612 0
M  V30 4531 H 429.13 -3.07611 -2.51915 0
M  V30 4532 N 430.127 0.543554 -1.4793 0
M  V30 4533 C 431.075 1.67039 -1.61866 0
M  V30 4534 C 432.069 1.62294 -0.48549 0
M  V30 4535 O 433.275 1.67315 -0.66376 0
M  V30 4536 H 429.65 0.552954 -0.509652 0
M  V30 4537 H 431.621 1.52426 -2.56533 0
M  V30 4538 C 430.37 3.05357 -1.6629 0
M  V30 4539 H 429.693 3.09696 -2.5284 0
M  V30 4540 H 431.133 3.83855 -1.80088 0
M  V30 4541 C 429.592 3.34531 -0.398861 0
M  V30 4542 O 430.122 3.98649 0.494162 0
M  V30 4543 N 428.328 2.89299 -0.2747 0
M  V30 4544 H 427.875 2.37298 -1.00236 0
M  V30 4545 H 427.833 3.09188 0.570075 0
M  V30 4546 N 431.605 1.3629 0.791371 0
M  V30 4547 C 432.851 1.31613 1.5508 0
M  V30 4548 C 433.206 -0.104372 1.92117 0
M  V30 4549 O 432.499 -1.05845 1.5971 0
M  V30 4550 C 432.693 2.17068 2.8393 0
M  V30 4551 C 432.522 3.67285 2.59484 0
M  V30 4552 C 431.292 4.36469 2.54604 0
M  V30 4553 C 433.49 4.60595 2.28816 0
M  V30 4554 N 431.472 5.7234 2.22036 0
M  V30 4555 C 432.843 5.847 2.06218 0
M  V30 4556 C 434.898 4.4918 2.14806 0
M  V30 4557 C 433.601 6.98671 1.71028 0
M  V30 4558 C 435.627 5.63017 1.81014 0
M  V30 4559 C 434.989 6.86159 1.59263 0
M  V30 4560 H 431.088 0.536878 0.568582 0
M  V30 4561 H 433.672 1.71323 0.925007 0
M  V30 4562 H 431.843 1.79605 3.44378 0
M  V30 4563 H 433.575 2.03795 3.49642 0
M  V30 4564 H 430.33 3.89249 2.69782 0
M  V30 4565 H 430.754 6.44093 2.08503 0
M  V30 4566 H 435.396 3.54564 2.30313 0
M  V30 4567 H 433.114 7.9324 1.54259 0
M  V30 4568 H 436.7 5.56146 1.70861 0
M  V30 4569 H 435.58 7.72753 1.335 0
M  V30 4570 N 433.083 -1.0153 1.20538 0
M  V30 4571 C 434.313 -1.78487 1.04048 0
M  V30 4572 C 434.721 -1.84631 -0.413292 0
M  V30 4573 O 434.064 -1.29919 -1.29872 0
M  V30 4574 C 434.126 -3.24367 1.55003 0
M  V30 4575 C 433.79 -3.41827 3.0332 0
M  V30 4576 C 434.787 -3.30941 4.00966 0
M  V30 4577 C 432.472 -3.67602 3.42307 0
M  V30 4578 C 434.466 -3.45577 5.35589 0
M  V30 4579 C 432.153 -3.81881 4.77085 0
M  V30 4580 C 433.151 -3.70874 5.73534 0
M  V30 4581 O 432.839 -3.84714 7.05868 0
M  V30 4582 H 432.571 -0.568108 0.366373 0
M  V30 4583 H 435.125 -1.28677 1.60098 0
M  V30 4584 H 433.355 -3.75266 0.933397 0
M  V30 4585 H 435.044 -3.82963 1.34514 0
M  V30 4586 H 435.81 -3.10964 3.72191 0
M  V30 4587 H 431.689 -3.75256 2.67776 0
M  V30 4588 H 435.233 -3.36902 6.10854 0
M  V30 4589 H 431.13 -4.01359 5.0555 0
M  V30 4590 H 431.898 -4.01724 7.13134 0
M  V30 4591 N 434.561 -1.01147 -1.20859 0
M  V30 4592 C 435.491 -0.597663 -2.25722 0
M  V30 4593 C 436.472 0.384744 -1.65692 0
M  V30 4594 O 437.657 0.271303 -1.92296 0
M  V30 4595 C 434.787 0.0700149 -3.47229 0
M  V30 4596 C 433.741 -0.832843 -4.19819 0
M  V30 4597 C 433.067 -0.0312202 -5.34691 0
M  V30 4598 C 434.367 -2.1385 -4.76514 0
M  V30 4599 H 436.061 -1.47423 -2.60589 0
M  V30 4600 H 433.607 -0.710301 -1.25263 0
M  V30 4601 H 435.56 0.37103 -4.19763 0
M  V30 4602 H 434.284 0.981259 -3.11511 0
M  V30 4603 H 432.943 -1.11778 -3.49144 0
M  V30 4604 H 432.591 0.881515 -4.95215 0
M  V30 4605 H 432.291 -0.632434 -5.84187 0
M  V30 4606 H 433.815 0.26346 -6.10031 0
M  V30 4607 H 435.229 -1.9002 -5.40893 0
M  V30 4608 H 433.626 -2.69012 -5.36426 0
M  V30 4609 H 434.696 -2.80495 -3.95538 0
M  V30 4610 N 436.039 1.36541 -0.78704 0
M  V30 4611 C 437.285 2.00044 -0.367938 0
M  V30 4612 C 437.64 1.61345 1.04812 0
M  V30 4613 O 436.933 0.856936 1.71368 0
M  V30 4614 C 437.127 3.54343 -0.466485 0
M  V30 4615 C 436.956 4.08029 -1.89058 0
M  V30 4616 C 435.726 4.38284 -2.51466 0
M  V30 4617 C 437.924 4.27954 -2.85236 0
M  V30 4618 N 435.906 4.77778 -3.85488 0
M  V30 4619 C 437.277 4.70227 -4.04088 0
M  V30 4620 C 439.332 4.10119 -2.82324 0
M  V30 4621 C 438.035 4.96532 -5.20432 0
M  V30 4622 C 440.061 4.37569 -3.97854 0
M  V30 4623 C 439.423 4.80095 -5.15449 0
M  V30 4624 H 435.522 0.760525 -0.182004 0
M  V30 4625 H 438.106 1.65589 -1.02413 0
M  V30 4626 H 436.277 3.88072 0.159606 0
M  V30 4627 H 438.009 4.04693 -0.0238577 0
M  V30 4628 H 434.764 4.27905 -2.02965 0
M  V30 4629 H 435.188 5.01813 -4.54437 0
M  V30 4630 H 439.83 3.76399 -1.92571 0
M  V30 4631 H 437.548 5.29134 -6.10773 0
M  V30 4632 H 441.134 4.25341 -3.96958 0
M  V30 4633 H 440.014 5.00925 -6.0336 0
M  V30 4634 N 437.518 0.538854 1.48102 0
M  V30 4635 C 438.758 0.0101209 2.04397 0
M  V30 4636 C 439.122 -1.30741 1.40609 0
M  V30 4637 O 440.323 -1.92272 1.87843 0
M  V30 4638 C 438.594 -0.100232 3.57259 0
M  V30 4639 S 440.153 -0.577746 4.3498 0
M  V30 4640 H 436.971 0.0163171 0.710813 0
M  V30 4641 H 439.573 0.721429 1.81702 0
M  V30 4642 H 438.277 0.863351 4.01216 0
M  V30 4643 H 437.808 -0.835651 3.84422 0
M  V30 4644 H 439.823 -1.84073 4.60794 0
M  V30 4645 N 438.996 -1.55193 0.274407 0
M  V30 4646 C 440.242 -1.99877 -0.343086 0
M  V30 4647 C 440.575 -1.16256 -1.55558 0
M  V30 4648 O 439.85 -0.232462 -1.93106 0
M  V30 4649 C 440.133 -3.52706 -0.725965 0
M  V30 4650 C 439.986 -4.47081 0.493818 0
M  V30 4651 C 441.305 -4.11422 -1.56268 0
M  V30 4652 H 438.424 -0.726625 -0.123229 0
M  V30 4653 H 441.066 -1.86136 0.38121 0
M  V30 4654 H 439.216 -3.64546 -1.34307 0
M  V30 4655 H 440.888 -4.47186 1.13237 0
M  V30 4656 H 439.131 -4.1877 1.13201 0
M  V30 4657 H 439.802 -5.51699 0.18217 0
M  V30 4658 H 442.278 -4.02855 -1.04151 0
M  V30 4659 H 441.154 -5.18568 -1.79939 0
M  V30 4660 H 441.415 -3.61607 -2.54348 0
M  V30 4661 N 440.474 -0.00167713 -1.576 0
M  V30 4662 C 441.421 0.989195 -2.08527 0
M  V30 4663 C 442.391 1.34031 -0.981065 0
M  V30 4664 O 443.576 1.43839 -1.2536 0
M  V30 4665 C 440.716 2.27537 -2.59463 0
M  V30 4666 C 439.829 1.98314 -3.83791 0
M  V30 4667 C 438.964 3.21025 -4.23222 0
M  V30 4668 C 438.003 2.87495 -5.40382 0
M  V30 4669 N 437.14 4.02749 -5.75098 0
M  V30 4670 H 441.98 0.547973 -2.92919 0
M  V30 4671 H 439.517 0.258917 -1.44803 0
M  V30 4672 H 441.475 3.02729 -2.87073 0
M  V30 4673 H 440.105 2.69325 -1.77943 0
M  V30 4674 H 439.157 1.13482 -3.63078 0
M  V30 4675 H 440.469 1.69601 -4.69081 0
M  V30 4676 H 439.623 4.04561 -4.52123 0
M  V30 4677 H 438.362 3.52877 -3.36644 0
M  V30 4678 H 437.367 2.02367 -5.11202 0
M  V30 4679 H 438.592 2.56889 -6.28637 0
M  V30 4680 H 436.538 4.34494 -4.91478 0
M  V30 4681 H 436.455 3.77566 -6.54966 0
M  V30 4682 H 437.723 4.87068 -6.08592 0
M  V30 4683 N 441.952 1.55251 0.271103 0
M  V30 4684 C 442.902 1.84649 1.33749 0
M  V30 4685 C 443.886 0.705529 1.44607 0
M  V30 4686 O 445.078 0.966916 1.48256 0
M  V30 4687 C 442.207 2.12354 2.69742 0
M  V30 4688 C 441.293 3.32714 2.62988 0
M  V30 4689 N 441.684 4.52575 2.25853 0
M  V30 4690 C 439.982 3.35341 2.94045 0
M  V30 4691 C 440.683 5.34669 2.29136 0
M  V30 4692 N 439.659 4.73123 2.67685 0
M  V30 4693 H 443.461 2.74865 1.0405 0
M  V30 4694 H 440.975 1.55152 0.479738 0
M  V30 4695 H 442.972 2.31572 3.4667 0
M  V30 4696 H 441.632 1.23422 3.00328 0
M  V30 4697 H 442.643 4.78639 1.978 0
M  V30 4698 H 439.32 2.56608 3.2933 0
M  V30 4699 H 440.71 6.40509 2.02971 0
M  V30 4700 N 443.43 -0.535701 1.48216 0
M  V30 4701 C 444.678 -1.28928 1.55634 0
M  V30 4702 C 444.999 -1.93645 0.229514 0
M  V30 4703 O 444.269 -1.81038 -0.74846 0
M  V30 4704 H 442.849 -0.47884 0.573342 0
M  V30 4705 H 445.511 -0.623853 1.84646 0
M  V30 4706 H 444.607 -2.07157 2.33436 0
M  V30 4707 N 444.908 -1.36708 -0.784132 0
M  V30 4708 C 445.871 -1.31307 -1.87859 0
M  V30 4709 C 446.871 -0.219654 -1.59293 0
M  V30 4710 O 448.061 -0.47476 -1.67606 0
M  V30 4711 C 445.193 -1.03679 -3.24751 0
M  V30 4712 H 446.386 -2.28647 -1.94064 0
M  V30 4713 H 443.939 -1.21558 -0.98252 0
M  V30 4714 H 444.674 -0.0681936 -3.24228 0
M  V30 4715 H 444.459 -1.82811 -3.46876 0
M  V30 4716 H 445.949 -1.02518 -4.04821 0
M  V30 4717 N 446.386 1.0089 -1.21074 0
M  V30 4718 C 447.349 2.0775 -0.968129 0
M  V30 4719 C 448.349 1.6069 0.0593445 0
M  V30 4720 O 449.539 1.73293 -0.177525 0
M  V30 4721 C 446.671 3.37794 -0.459108 0
M  V30 4722 H 447.864 2.30707 -1.9161 0
M  V30 4723 H 445.417 1.17807 -1.02719 0
M  V30 4724 H 446.152 3.20516 0.49397 0
M  V30 4725 H 445.937 3.7328 -1.20019 0
M  V30 4726 H 447.427 4.16454 -0.309099 0
M  V30 4727 N 447.864 1.01787 1.20321 0
M  V30 4728 C 449.275 0.739307 1.71438 0
M  V30 4729 C 449.626 -0.742041 1.81627 0
M  V30 4730 O 448.751 -1.57903 1.47971 0
M  V30 4731 C 449.346 1.33538 3.11373 0
M  V30 4732 C 447.905 1.10566 3.59795 0
M  V30 4733 C 447.052 1.44028 2.36962 0
M  V30 4734 H 450.003 1.18718 1.05317 0
M  V30 4735 H 450.024 0.726611 3.73498 0
M  V30 4736 H 449.536 2.41352 3.03926 0
M  V30 4737 H 447.637 0.0452405 3.72573 0
M  V30 4738 H 447.75 1.78661 4.44542 0
M  V30 4739 H 446.114 0.85933 2.39766 0
M  V30 4740 H 446.897 2.52901 2.32155 0
M  V30 4741 N 449.342 -1.36122 0.79427 0
M  V30 4742 C 450.619 -1.93398 0.292685 0
M  V30 4743 C 450.999 -1.72567 -1.21589 0
M  V30 4744 O 450.347 -1.08745 -2.00965 0
M  V30 4745 C 450.557 -3.42099 0.690614 0
M  V30 4746 C 451.905 -4.19231 0.673105 0
M  V30 4747 O 452.929 -3.50559 0.631389 0
M  V30 4748 O 451.788 -5.41732 0.720362 0
M  V30 4749 H 448.882 -0.823712 0.0736693 0
M  V30 4750 H 451.428 -1.45273 0.87714 0
M  V30 4751 H 450.2 -3.50938 1.73085 0
M  V30 4752 H 449.823 -3.97519 0.0803036 0
M  V30 4753 N 450.82 -0.546701 -1.47814 0
M  V30 4754 C 452.05 -0.0232519 -2.06587 0
M  V30 4755 C 452.458 1.2712 -1.40133 0
M  V30 4756 O 451.801 1.77091 -0.488305 0
M  V30 4757 C 451.863 0.254117 -3.58601 0
M  V30 4758 C 451.527 -0.949331 -4.47031 0
M  V30 4759 C 452.524 -1.85216 -4.85789 0
M  V30 4760 C 450.209 -1.16104 -4.88697 0
M  V30 4761 C 452.203 -2.95047 -5.65001 0
M  V30 4762 C 449.89 -2.26247 -5.67676 0
M  V30 4763 C 450.888 -3.1555 -6.05737 0
M  V30 4764 O 450.576 -4.23784 -6.83127 0
M  V30 4765 H 450.308 -0.0380082 -0.674931 0
M  V30 4766 H 452.862 -0.756631 -1.90956 0
M  V30 4767 H 451.092 1.04168 -3.72406 0
M  V30 4768 H 452.781 0.72167 -3.99433 0
M  V30 4769 H 453.547 -1.70061 -4.54207 0
M  V30 4770 H 449.426 -0.475159 -4.58545 0
M  V30 4771 H 452.97 -3.64778 -5.94628 0
M  V30 4772 H 448.867 -2.41379 -5.98671 0
M  V30 4773 H 449.635 -4.21701 -7.01506 0
M  V30 4774 N 452.299 1.55045 -0.282633 0
M  V30 4775 C 453.71 1.85473 0.213655 0
M  V30 4776 C 454.061 1.20465 1.54863 0
M  V30 4777 O 453.186 0.495676 2.10647 0
M  V30 4778 C 453.781 3.36496 0.394445 0
M  V30 4779 C 452.34 3.67022 0.834961 0
M  V30 4780 C 451.487 2.77218 -0.0674081 0
M  V30 4781 H 454.438 1.50478 -0.504202 0
M  V30 4782 H 454.459 3.60007 1.23186 0
M  V30 4783 H 453.971 3.83782 -0.577326 0
M  V30 4784 H 452.072 3.25241 1.81794 0
M  V30 4785 H 452.185 4.74433 0.667075 0
M  V30 4786 H 450.549 2.5069 0.450196 0
M  V30 4787 H 451.332 3.2732 -1.0352 0
M  V30 4788 N 453.777 0.010035 1.57597 0
M  V30 4789 C 454.74 -0.963029 2.07986 0
M  V30 4790 C 455.74 -1.26619 0.991173 0
M  V30 4791 O 456.93 -1.2097 1.25347 0
M  V30 4792 C 454.062 -2.2851 2.52974 0
M  V30 4793 H 455.255 -0.526971 2.95234 0
M  V30 4794 H 452.808 -0.237639 1.54483 0
M  V30 4795 H 453.543 -2.76784 1.69 0
M  V30 4796 H 453.328 -2.07824 3.32493 0
M  V30 4797 H 454.818 -2.98294 2.9225 0
M  V30 4798 N 455.255 -1.55392 -0.262866 0
M  V30 4799 C 456.485 -1.80251 -1.00961 0
M  V30 4800 C 456.893 -0.58117 -1.80053 0
M  V30 4801 O 456.236 0.459427 -1.77862 0
M  V30 4802 C 456.298 -2.98207 -2.00781 0
M  V30 4803 C 455.962 -4.34856 -1.40533 0
M  V30 4804 C 456.959 -5.13459 -0.815853 0
M  V30 4805 C 454.644 -4.8153 -1.42948 0
M  V30 4806 C 456.638 -6.36875 -0.258562 0
M  V30 4807 C 454.325 -6.04899 -0.868334 0
M  V30 4808 C 455.323 -6.8241 -0.283884 0
M  V30 4809 O 455.011 -8.03451 0.268644 0
M  V30 4810 H 454.743 -0.604049 -0.303482 0
M  V30 4811 H 457.297 -2.03257 -0.295926 0
M  V30 4812 H 455.527 -2.70917 -2.75936 0
M  V30 4813 H 457.216 -3.10299 -2.61667 0
M  V30 4814 H 457.982 -4.78526 -0.789812 0
M  V30 4815 H 453.861 -4.21201 -1.87378 0
M  V30 4816 H 457.405 -6.97318 0.198257 0
M  V30 4817 H 453.302 -6.39312 -0.891649 0
M  V30 4818 H 454.07 -8.18346 0.158974 0
M  V30 4819 N 456.733 0.527833 -1.48498 0
M  V30 4820 C 457.663 1.64136 -1.66077 0
M  V30 4821 C 458.644 1.62286 -0.509625 0
M  V30 4822 O 459.829 1.79449 -0.742413 0
M  V30 4823 C 456.959 3.02717 -1.70234 0
M  V30 4824 C 455.913 3.19426 -2.8487 0
M  V30 4825 C 455.239 4.5909 -2.74118 0
M  V30 4826 C 456.539 3.01993 -4.26142 0
M  V30 4827 H 458.233 1.4968 -2.593 0
M  V30 4828 H 455.779 0.718654 -1.24785 0
M  V30 4829 H 457.732 3.80491 -1.8112 0
M  V30 4830 H 456.456 3.18201 -0.735911 0
M  V30 4831 H 455.115 2.4407 -2.73542 0
M  V30 4832 H 454.763 4.71413 -1.7544 0
M  V30 4833 H 454.463 4.71214 -3.51042 0
M  V30 4834 H 455.987 5.3896 -2.86974 0
M  V30 4835 H 457.401 3.69558 -4.38292 0
M  V30 4836 H 455.798 3.2561 -5.04082 0
M  V30 4837 H 456.868 1.98396 -4.42456 0
M  V30 4838 N 458.211 1.37122 0.776871 0
M  V30 4839 C 459.622 1.28667 1.35284 0
M  V30 4840 C 459.973 -0.0680035 1.96082 0
M  V30 4841 O 459.098 -0.969743 1.93455 0
M  V30 4842 C 459.693 2.32997 2.45963 0
M  V30 4843 C 458.252 2.28191 2.99342 0
M  V30 4844 C 457.399 2.17101 1.72517 0
M  V30 4845 H 460.35 1.47819 0.577527 0
M  V30 4846 H 460.371 1.97366 3.2531 0
M  V30 4847 H 459.883 3.3158 2.01684 0
M  V30 4848 H 457.984 1.33115 3.4801 0
M  V30 4849 H 458.097 3.21397 3.55304 0
M  V30 4850 H 456.461 1.63562 1.95242 0
M  V30 4851 H 457.244 3.17591 1.30348 0
M  V30 4852 N 459.689 -1.00246 1.21608 0
M  V30 4853 C 460.652 -2.07233 0.979133 0
M  V30 4854 C 461.652 -1.6072 -0.0508219 0
M  V30 4855 O 462.842 -1.73196 0.186712 0
M  V30 4856 C 459.974 -3.37546 0.477016 0
M  V30 4857 H 461.167 -2.29687 1.92831 0
M  V30 4858 H 458.72 -1.17261 1.03342 0
M  V30 4859 H 459.455 -3.20773 -0.476966 0
M  V30 4860 H 459.24 -3.72638 1.21997 0
M  V30 4861 H 460.73 -4.16285 0.331181 0
M  V30 4862 N 461.167 -1.02423 -1.1978 0
M  V30 4863 C 462.395 -0.737456 -1.93311 0
M  V30 4864 C 462.81 0.703023 -1.75223 0
M  V30 4865 O 462.167 1.47761 -1.07112 0
M  V30 4866 C 462.218 -1.0733 -3.45199 0
M  V30 4867 O 461.939 -2.4572 -3.62702 0
M  V30 4868 C 463.44 -0.80866 -4.35862 0
M  V30 4869 H 460.66 -0.2702 -0.614193 0
M  V30 4870 H 463.204 -1.36747 -1.52054 0
M  V30 4871 H 461.359 -0.488545 -3.84307 0
M  V30 4872 H 461.773 -2.58081 -4.56612 0
M  V30 4873 H 463.247 -1.09365 -5.41057 0
M  V30 4874 H 463.724 0.257025 -4.38447 0
M  V30 4875 H 464.33 -1.37592 -4.02428 0
M  V30 4876 N 462.645 1.35699 -0.801477 0
M  V30 4877 C 464.056 1.81415 -0.441073 0
M  V30 4878 C 464.407 1.66595 1.03636 0
M  V30 4879 O 463.532 1.19369 1.80499 0
M  V30 4880 C 464.127 3.29369 -0.793819 0
M  V30 4881 C 462.686 3.73248 -0.486083 0
M  V30 4882 C 461.833 2.57775 -1.02213 0
M  V30 4883 H 464.784 1.23749 -0.993572 0
M  V30 4884 H 464.805 3.80395 -0.0894158 0
M  V30 4885 H 464.317 3.40123 -1.86917 0
M  V30 4886 H 462.418 3.68046 0.580735 0
M  V30 4887 H 462.531 4.68222 -1.01513 0
M  V30 4888 H 460.895 2.50788 -0.444712 0
M  V30 4889 H 461.678 2.71309 -2.10348 0
M  V30 4890 N 464.123 0.554532 1.47522 0
M  V30 4891 C 465.4 -0.0360704 1.95567 0
M  V30 4892 C 465.78 -1.48828 1.49711 0
M  V30 4893 O 465.128 -2.16366 0.734717 0
M  V30 4894 C 465.338 0.106631 3.48837 0
M  V30 4895 C 466.686 -0.0400899 4.24581 0
M  V30 4896 O 467.71 0.0340453 3.56184 0
M  V30 4897 O 466.569 -0.199111 5.46137 0
M  V30 4898 H 463.663 -0.0656294 0.824392 0
M  V30 4899 H 466.209 0.620867 1.57935 0
M  V30 4900 H 464.981 1.11727 3.7501 0
M  V30 4901 H 464.604 -0.58804 3.93227 0
M  V30 4902 N 465.601 -1.54893 0.290851 0
M  V30 4903 C 467.012 -1.85584 -0.203816 0
M  V30 4904 C 467.363 -1.21285 -1.54222 0
M  V30 4905 O 466.488 -0.506841 -2.10381 0
M  V30 4906 C 467.083 -3.367 -0.376595 0
M  V30 4907 C 465.642 -3.6746 -0.815485 0
M  V30 4908 C 464.789 -2.77178 0.0821087 0
M  V30 4909 H 467.74 -1.50208 0.512175 0
M  V30 4910 H 467.761 -3.60656 -1.21275 0
M  V30 4911 H 467.273 -3.8347 0.59767 0
M  V30 4912 H 465.374 -3.26201 -1.80066 0
M  V30 4913 H 465.487 -4.7478 -0.641905 0
M  V30 4914 H 463.851 -2.50925 -0.436895 0
M  V30 4915 H 464.634 -3.26767 1.05254 0
M  V30 4916 N 467.08 -0.0183926 -1.57589 0
M  V30 4917 C 468.043 0.951986 -2.08494 0
M  V30 4918 C 469.043 1.26092 -0.997874 0
M  V30 4919 O 470.233 1.20304 -1.25987 0
M  V30 4920 C 467.365 2.27165 -2.54182 0
M  V30 4921 H 468.558 0.511307 -2.95509 0
M  V30 4922 H 466.111 0.229444 -1.54607 0
M  V30 4923 H 466.846 2.75884 -1.70465 0
M  V30 4924 H 466.631 2.06057 -3.33591 0
M  V30 4925 H 468.121 2.9674 -2.93828 0
M  V30 4926 N 468.558 1.5553 0.254621 0
M  V30 4927 C 469.783 1.81383 1.00573 0
M  V30 4928 C 470.208 0.594419 1.78461 0
M  V30 4929 O 469.566 -0.456403 1.75461 0
M  V30 4930 C 469.614 3.04892 1.92545 0
M  V30 4931 O 468.718 2.81266 3.01601 0
M  V30 4932 H 468.059 0.598969 0.286587 0
M  V30 4933 H 470.589 2.02703 0.277952 0
M  V30 4934 H 470.599 3.34119 2.34155 0
M  V30 4935 H 469.274 3.93287 1.3527 0
M  V30 4936 H 467.851 2.63185 2.64174 0
M  V30 4937 N 470.036 -0.519951 1.48776 0
M  V30 4938 C 470.966 -1.63253 1.66945 0
M  V30 4939 C 471.947 -1.62014 0.518224 0
M  V30 4940 O 473.132 -1.79053 0.751919 0
M  V30 4941 C 470.262 -3.0181 1.71836 0
M  V30 4942 C 469.216 -3.17911 2.8656 0
M  V30 4943 C 468.542 -4.5763 2.76548 0
M  V30 4944 C 469.842 -2.99729 4.27738 0
M  V30 4945 H 471.536 -1.48302 2.6009 0
M  V30 4946 H 469.082 -0.712026 1.25165 0
M  V30 4947 H 471.035 -3.79525 1.83135 0
M  V30 4948 H 469.759 -3.17806 0.752775 0
M  V30 4949 H 468.418 -2.42616 2.74833 0
M  V30 4950 H 468.066 -4.70476 1.77937 0
M  V30 4951 H 467.766 -4.69346 3.53536 0
M  V30 4952 H 469.29 -5.37431 2.89828 0
M  V30 4953 H 470.704 -3.67228 4.40246 0
M  V30 4954 H 469.101 -3.22932 5.05801 0
M  V30 4955 H 470.171 -1.96047 4.43502 0
M  V30 4956 N 471.514 -1.37532 -0.769588 0
M  V30 4957 C 472.925 -1.29382 -1.346 0
M  V30 4958 C 473.276 0.0576039 -1.96115 0
M  V30 4959 O 472.401 0.95947 -1.93967 0
M  V30 4960 C 472.996 -2.34298 -2.44724 0
M  V30 4961 C 471.555 -2.29776 -2.98128 0
M  V30 4962 C 470.702 -2.18013 -1.71364 0
M  V30 4963 H 473.653 -1.48123 -0.56968 0
M  V30 4964 H 473.674 -1.99089 -3.24259 0
M  V30 4965 H 473.186 -3.32645 -1.99922 0
M  V30 4966 H 471.287 -1.34959 -3.47299 0
M  V30 4967 H 471.4 -3.23276 -3.53595 0
M  V30 4968 H 469.764 -1.64595 -1.94372 0
M  V30 4969 H 470.547 -3.18278 -1.28662 0
M  V30 4970 N 472.992 0.995999 -1.22138 0
M  V30 4971 C 474.24 1.73167 -1.042 0
M  V30 4972 C 474.561 1.90329 0.42423 0
M  V30 4973 O 473.831 1.4607 1.30539 0
M  V30 4974 H 472.411 0.641593 -0.38258 0
M  V30 4975 H 475.073 1.19974 -1.53598 0
M  V30 4976 H 474.169 2.72734 -1.51731 0
M  V30 4977 N 474.47 1.03057 1.19235 0
M  V30 4978 C 475.433 0.617418 2.20727 0
M  V30 4979 C 476.433 -0.319856 1.57587 0
M  V30 4980 O 477.623 -0.106633 1.73873 0
M  V30 4981 C 474.755 -0.096296 3.40764 0
M  V30 4982 H 475.948 1.51544 2.58794 0
M  V30 4983 H 473.501 0.821949 1.32942 0
M  V30 4984 H 474.236 -1.00859 3.08217 0
M  V30 4985 H 474.021 0.577217 3.87828 0
M  V30 4986 H 475.511 -0.372219 4.15938 0
M  V30 4987 N 475.948 -1.35272 0.808662 0
M  V30 4988 C 477.359 -1.81179 0.450688 0
M  V30 4989 C 477.71 -1.67143 -1.02751 0
M  V30 4990 O 476.835 -1.20325 -1.79864 0
M  V30 4991 C 477.43 -3.28943 0.811275 0
M  V30 4992 C 475.989 -3.72985 0.505871 0
M  V30 4993 C 475.136 -2.57229 1.03578 0
M  V30 4994 H 478.087 -1.2322 1.00012 0
M  V30 4995 H 478.108 -3.80342 0.109588 0
M  V30 4996 H 477.62 -3.39127 1.88718 0
M  V30 4997 H 475.721 -3.68349 -0.561209 0
M  V30 4998 H 475.834 -4.67677 1.03995 0
M  V30 4999 H 474.198 -2.50548 0.458005 0
M  V30 5000 H 474.981 -2.7019 2.11784 0
M  V30 5001 N 477.426 -0.562348 -1.47226 0
M  V30 5002 C 478.373 0.182461 -2.30078 0
M  V30 5003 C 479.343 0.903503 -1.39377 0
M  V30 5004 O 480.528 0.898188 -1.68337 0
M  V30 5005 C 477.668 1.20322 -3.23445 0
M  V30 5006 C 476.781 0.487717 -4.29238 0
M  V30 5007 C 475.916 1.49422 -5.09752 0
M  V30 5008 C 474.955 0.763976 -6.07314 0
M  V30 5009 N 474.092 1.71755 -6.80768 0
M  V30 5010 H 478.932 -0.530169 -2.93246 0
M  V30 5011 H 476.469 -0.273276 -1.44539 0
M  V30 5012 H 478.427 1.80768 -3.76004 0
M  V30 5013 H 477.057 1.88382 -2.6213 0
M  V30 5014 H 476.109 -0.231374 -3.79696 0
M  V30 5015 H 477.421 -0.0841003 -4.98729 0
M  V30 5016 H 476.575 2.17206 -5.66486 0
M  V30 5017 H 475.314 2.09995 -4.40174 0
M  V30 5018 H 474.319 0.0722344 -5.49753 0
M  V30 5019 H 475.544 0.16391 -6.78902 0
M  V30 5020 H 473.49 2.31177 -6.13916 0
M  V30 5021 H 473.407 1.19802 -7.46447 0
M  V30 5022 H 474.675 2.38638 -7.42073 0
M  V30 5023 O 478.943 1.55359 -0.441124 0
M  V30 5024 H 479.634 1.93483 0.0916679 0
M  V30 END ATOM
M  V30 BEGIN BOND
M  V30 END BOND
M  V30 END CTAB
M  END
$$$$
