drugbank_target|P18405 3-oxo-5-alpha-steroid 4-dehydrogenase 1 (DB00367; DB01126; DB01216; DB09389)
 OpenBabel12092119343D

  0  0  0     0  0            999 V3000
M  V30 BEGIN CTAB
M  V30 COUNTS 4139 4205 0 0 0
M  V30 BEGIN ATOM
M  V30 1 H -0.908 1.98254 -0.117106 0
M  V30 2 N 0 1.576 0 0
M  V30 3 C 0.933 2.03868 1.02534 0
M  V30 4 C 1.911 0.928543 1.3348 0
M  V30 5 O 3.095 1.19667 1.45644 0
M  V30 6 C 0.222 2.43627 2.35294 0
M  V30 7 C -0.732 3.65373 2.2001 0
M  V30 8 S 0.101 5.13292 1.52614 0
M  V30 9 C 1.257 5.56322 2.86805 0
M  V30 10 H 1.49 2.90518 0.631377 0
M  V30 11 H -0.977 1.52953 0.210867 0
M  V30 12 H 0.981 2.67203 3.11629 0
M  V30 13 H -0.358 1.57376 2.7183 0
M  V30 14 H -1.165 3.90944 3.18086 0
M  V30 15 H -1.563 3.418 1.51819 0
M  V30 16 H 0.729 5.58782 3.83104 0
M  V30 17 H 1.672 6.56266 2.65933 0
M  V30 18 H 2.08 4.83886 2.90714 0
M  V30 19 N 1.4781 -0.272755 1.55222 0
M  V30 20 C 2.4411 -1.32041 1.87344 0
M  V30 21 C 3.4411 -1.42342 0.74803 0
M  V30 22 O 4.6311 -1.41488 1.0162 0
M  V30 23 C 1.7631 -2.70173 2.07893 0
M  V30 24 H 2.9561 -1.04789 2.80997 0
M  V30 25 H 0.5091 -0.51083 1.47717 0
M  V30 26 H 1.2441 -3.02605 1.16622 0
M  V30 27 H 1.0291 -2.64082 2.89833 0
M  V30 28 H 2.5191 -3.45869 2.34017 0
M  V30 29 N 2.9562 -1.48159 -0.537278 0
M  V30 30 C 4.1842 -1.59454 -1.31841 0
M  V30 31 C 4.5992 -0.252065 -1.8711 0
M  V30 32 O 3.9562 0.757621 -1.66031 0
M  V30 33 C 4.0072 -2.63546 -2.47439 0
M  V30 34 O 3.7282 -3.92583 -1.94449 0
M  V30 35 C 5.2292 -2.85212 -3.39366 0
M  V30 36 H 2.4492 -0.53785 -0.401196 0
M  V30 37 H 4.9932 -1.93932 -0.648891 0
M  V30 38 H 3.1482 -2.31946 -3.1029 0
M  V30 39 H 3.5622 -4.49629 -2.70063 0
M  V30 40 H 5.0362 -3.61863 -4.16844 0
M  V30 41 H 5.5132 -1.93765 -3.94147 0
M  V30 42 H 6.1192 -3.18086 -2.82314 0
M  V30 43 N 4.4343 0.785586 -1.36625 0
M  V30 44 C 5.3973 1.87999 -1.31107 0
M  V30 45 C 6.3973 1.59316 -0.217959 0
M  V30 46 O 7.5873 1.67656 -0.472977 0
M  V30 47 C 4.7193 3.24861 -1.03334 0
M  V30 48 H 5.9123 1.94307 -2.2844 0
M  V30 49 H 3.4653 0.983813 -1.21453 0
M  V30 50 H 4.2003 3.24235 -0.0647432 0
M  V30 51 H 3.9853 3.4707 -1.82441 0
M  V30 52 H 5.4753 4.04929 -1.02088 0
M  V30 53 N 5.9124 1.20967 1.01018 0
M  V30 54 C 7.1404 1.04956 1.78303 0
M  V30 55 C 7.5554 -0.400915 1.84494 0
M  V30 56 O 6.9124 -1.27826 1.30257 0
M  V30 57 C 6.9634 1.63403 3.22462 0
M  V30 58 O 6.6844 3.02775 3.16637 0
M  V30 59 C 8.1854 1.52432 4.16268 0
M  V30 60 H 5.4054 0.368858 0.560522 0
M  V30 61 H 7.9494 1.60193 1.27116 0
M  V30 62 H 6.1044 1.1227 3.70775 0
M  V30 63 H 6.5184 3.30626 4.07169 0
M  V30 64 H 7.9924 1.98078 5.15237 0
M  V30 65 H 8.4694 0.477875 4.36592 0
M  V30 66 H 9.0754 2.02787 3.73841 0
M  V30 67 N 7.3905 -1.2043 1.01659 0
M  V30 68 C 8.6385 -1.89423 0.704522 0
M  V30 69 C 8.9595 -1.79231 -0.768197 0
M  V30 70 O 8.2295 -1.1947 -1.55254 0
M  V30 71 H 6.8095 -0.701178 0.257602 0
M  V30 72 H 9.4715 -1.4626 1.28818 0
M  V30 73 H 8.5675 -2.96052 0.987916 0
M  V30 74 N 8.8686 -0.792821 -1.36206 0
M  V30 75 C 10.1146 -0.36733 -1.99446 0
M  V30 76 C 10.4476 1.05917 -1.62774 0
M  V30 77 O 9.7226 1.7324 -0.88421 0
M  V30 78 C 10.0056 -0.535044 -3.56103 0
M  V30 79 C 9.8586 -2.00548 -4.02617 0
M  V30 80 C 11.1776 0.0478191 -4.40074 0
M  V30 81 H 8.2966 -0.134941 -0.724541 0
M  V30 82 H 10.9386 -0.999794 -1.61568 0
M  V30 83 H 9.0886 0.00336329 -3.885 0
M  V30 84 H 10.7606 -2.60521 -3.80692 0
M  V30 85 H 9.0036 -2.50686 -3.54032 0
M  V30 86 H 9.6746 -2.07377 -5.11565 0
M  V30 87 H 12.1506 -0.411822 -4.14057 0
M  V30 88 H 11.0266 -0.0995336 -5.4881 0
M  V30 89 H 11.2876 1.14025 -4.27142 0
M  V30 90 N 10.3467 1.47872 -0.545128 0
M  V30 91 C 11.3097 2.28337 0.198717 0
M  V30 92 C 12.3097 1.36255 0.853888 0
M  V30 93 O 13.4997 1.59003 0.711606 0
M  V30 94 C 10.6317 3.15585 1.28915 0
M  V30 95 H 11.8247 2.95567 -0.507941 0
M  V30 96 H 9.3777 1.53362 -0.301616 0
M  V30 97 H 10.1127 2.53019 2.02859 0
M  V30 98 H 9.8977 3.83337 0.824309 0
M  V30 99 H 11.3877 3.76243 1.81194 0
M  V30 100 N 11.8248 0.280983 1.55075 0
M  V30 101 C 12.7348 -0.61388 2.26426 0
M  V30 102 C 13.7508 -1.16521 1.29224 0
M  V30 103 O 14.9268 -1.19426 1.62171 0
M  V30 104 C 11.9918 -1.7788 2.9759 0
M  V30 105 C 11.0528 -1.26355 4.10284 0
M  V30 106 C 10.2858 -2.37295 4.78045 0
M  V30 107 O 10.5088 -3.56777 4.45047 0
M  V30 108 O 9.4428 -2.05119 5.65871 0
M  V30 109 H 13.2688 -0.0356932 3.03679 0
M  V30 110 H 10.8538 0.0481686 1.49322 0
M  V30 111 H 12.7358 -2.45791 3.42293 0
M  V30 112 H 11.4108 -2.34397 2.23249 0
M  V30 113 H 10.3178 -0.550735 3.70024 0
M  V30 114 H 11.6508 -0.744065 4.86543 0
M  V30 115 N 13.3029 -1.57598 0.00835791 0
M  V30 116 C 14.2129 -2.12385 -0.996487 0
M  V30 117 C 15.2289 -1.07108 -1.37127 0
M  V30 118 O 16.4049 -1.39055 -1.4569 0
M  V30 119 C 13.4699 -2.62314 -2.26699 0
M  V30 120 C 12.5309 -3.82225 -1.95456 0
M  V30 121 C 11.7639 -4.29763 -3.16449 0
M  V30 122 O 11.9869 -3.76584 -4.28416 0
M  V30 123 O 10.9209 -5.21832 -2.99958 0
M  V30 124 H 14.7469 -2.98479 -0.560725 0
M  V30 125 H 12.3319 -1.47903 -0.210987 0
M  V30 126 H 14.2139 -2.94589 -3.01322 0
M  V30 127 H 12.8889 -1.79313 -2.69497 0
M  V30 128 H 11.7959 -3.54909 -1.18282 0
M  V30 129 H 13.1289 -4.66324 -1.57489 0
M  V30 130 N 14.781 0.264519 -1.55364 0
M  V30 131 C 16.197 0.61215 -1.47394 0
M  V30 132 C 16.397 1.89134 -0.695018 0
M  V30 133 O 15.453 2.51563 -0.217275 0
M  V30 134 C 16.766 0.731235 -2.91674 0
M  V30 135 C 18.314 0.82473 -3.01939 0
M  V30 136 C 18.789 0.975522 -4.4749 0
M  V30 137 N 20.28 1.04083 -4.51354 0
M  V30 138 C 21.015 1.17646 -5.61201 0
M  V30 139 N 20.511 1.27874 -6.80896 0
M  V30 140 N 22.304 1.20823 -5.48961 0
M  V30 141 H 14.455 -0.575456 -2.04456 0
M  V30 142 H 16.718 -0.196099 -0.927496 0
M  V30 143 H 16.424 -0.138392 -3.51428 0
M  V30 144 H 16.298 1.60883 -3.41169 0
M  V30 145 H 18.685 1.68482 -2.42276 0
M  V30 146 H 18.766 -0.0776479 -2.55682 0
M  V30 147 H 18.41 0.120058 -5.07758 0
M  V30 148 H 18.34 1.89268 -4.91412 0
M  V30 149 H 20.831 0.973846 -3.65136 0
M  V30 150 H 21.144 1.38081 -7.60364 0
M  V30 151 H 19.489 1.24863 -6.83692 0
M  V30 152 H 22.68 1.12469 -4.54388 0
M  V30 153 H 22.853 1.31049 -6.3461 0
M  V30 154 N 16.2591 1.48442 0.529413 0
M  V30 155 C 17.1891 1.65902 1.64313 0
M  V30 156 C 18.1701 0.507897 1.6234 0
M  V30 157 O 19.3551 0.740503 1.79528 0
M  V30 158 C 16.4851 1.69911 3.02898 0
M  V30 159 C 15.4391 2.8453 3.19729 0
M  V30 160 C 14.7651 2.73629 4.59381 0
M  V30 161 C 16.0651 4.25821 3.02447 0
M  V30 162 H 17.7591 2.5914 1.49955 0
M  V30 163 H 15.3051 1.24709 0.719982 0
M  V30 164 H 17.2581 1.80715 3.80684 0
M  V30 165 H 15.9821 0.732524 3.18279 0
M  V30 166 H 14.6411 2.73283 2.44361 0
M  V30 167 H 14.2891 1.74938 4.71599 0
M  V30 168 H 13.9891 3.50541 4.71588 0
M  V30 169 H 15.5131 2.86401 5.39265 0
M  V30 170 H 16.9271 4.37898 3.70024 0
M  V30 171 H 15.3241 5.03735 3.26146 0
M  V30 172 H 16.3941 4.42244 1.98867 0
M  V30 173 N 17.7372 -0.778329 1.37039 0
M  V30 174 C 18.6672 -1.90546 1.34962 0
M  V30 175 C 19.6482 -1.68681 0.219274 0
M  V30 176 O 20.8332 -1.89634 0.418624 0
M  V30 177 C 17.9632 -3.27734 1.14925 0
M  V30 178 C 16.9172 -3.64147 2.24902 0
M  V30 179 C 16.2432 -4.99806 1.89996 0
M  V30 180 C 17.5432 -3.71579 3.67051 0
M  V30 181 H 19.2372 -1.92541 2.29277 0
M  V30 182 H 16.7832 -0.924948 1.10366 0
M  V30 183 H 18.7362 -4.06215 1.12104 0
M  V30 184 H 17.4602 -3.26154 0.170631 0
M  V30 185 H 16.1192 -2.8797 2.26868 0
M  V30 186 H 15.7672 -4.94759 0.906796 0
M  V30 187 H 15.4672 -5.25139 2.63634 0
M  V30 188 H 16.9912 -5.80694 1.88749 0
M  V30 189 H 18.4052 -4.40227 3.67251 0
M  V30 190 H 16.8022 -4.08405 4.39688 0
M  V30 191 H 17.8722 -2.72404 4.01154 0
M  V30 192 N 19.2153 -1.21501 -1.00376 0
M  V30 193 C 20.1783 -0.976927 -2.07337 0
M  V30 194 C 21.1783 0.0525322 -1.60714 0
M  V30 195 O 22.3683 -0.184869 -1.73216 0
M  V30 196 C 19.5003 -0.473423 -3.37597 0
M  V30 197 H 20.6933 -1.92587 -2.29892 0
M  V30 198 H 18.2463 -1.03217 -1.17371 0
M  V30 199 H 18.9813 0.480379 -3.20722 0
M  V30 200 H 18.7663 -1.216 -3.72768 0
M  V30 201 H 20.2563 -0.32675 -4.1632 0
M  V30 202 N 20.6934 1.19889 -1.02296 0
M  V30 203 C 21.6564 2.21116 -0.603351 0
M  V30 204 C 22.6564 1.5738 0.329884 0
M  V30 205 O 23.8464 1.73802 0.117702 0
M  V30 206 C 20.9784 3.40696 0.117992 0
M  V30 207 H 22.1714 2.59754 -1.49893 0
M  V30 208 H 19.7244 1.33463 -0.813468 0
M  V30 209 H 20.4594 3.07569 1.0282 0
M  V30 210 H 20.2444 3.88188 -0.552511 0
M  V30 211 H 21.7344 4.15692 0.398696 0
M  V30 212 N 22.1715 0.800033 1.35784 0
M  V30 213 C 23.1015 0.220184 2.3246 0
M  V30 214 C 24.0825 -0.65073 1.57161 0
M  V30 215 O 25.2675 -0.582359 1.85263 0
M  V30 216 C 22.3975 -0.637353 3.41402 0
M  V30 217 C 21.3515 0.134531 4.27789 0
M  V30 218 C 20.6775 -0.844285 5.27992 0
M  V30 219 C 21.9775 1.32979 5.05088 0
M  V30 220 H 23.6715 1.02787 2.81203 0
M  V30 221 H 21.2175 0.495717 1.35199 0
M  V30 222 H 23.1705 -1.05302 4.08031 0
M  V30 223 H 21.8945 -1.47785 2.91251 0
M  V30 224 H 20.5535 0.531296 3.6273 0
M  V30 225 H 20.2015 -1.68011 4.74111 0
M  V30 226 H 19.9015 -0.332184 5.8666 0
M  V30 227 H 21.4255 -1.2583 5.97494 0
M  V30 228 H 22.8395 0.98934 5.64699 0
M  V30 229 H 21.2365 1.77593 5.7322 0
M  V30 230 H 22.3065 2.11978 4.36111 0
M  V30 231 N 23.6496 -1.47581 0.552962 0
M  V30 232 C 24.6126 -2.28439 -0.186605 0
M  V30 233 C 25.6126 -1.36706 -0.84665 0
M  V30 234 O 26.8026 -1.59378 -0.703164 0
M  V30 235 C 23.9346 -3.16264 -1.2724 0
M  V30 236 H 25.1276 -2.95294 0.523609 0
M  V30 237 H 22.6806 -1.532 0.309745 0
M  V30 238 H 23.4156 -2.54091 -2.01514 0
M  V30 239 H 23.2006 -3.83769 -0.803968 0
M  V30 240 H 24.6906 -3.77198 -1.79196 0
M  V30 241 N 25.1277 -0.289203 -1.54924 0
M  V30 242 C 26.3577 0.325989 -2.04012 0
M  V30 243 C 26.7657 1.48961 -1.1665 0
M  V30 244 O 26.1087 1.82794 -0.1822 0
M  V30 245 C 26.1707 0.856112 -3.49158 0
M  V30 246 C 25.8347 -0.180697 -4.56643 0
M  V30 247 C 26.8317 -1.0051 -5.10092 0
M  V30 248 C 24.5167 -0.318998 -5.01286 0
M  V30 249 C 26.5107 -1.95385 -6.06715 0
M  V30 250 C 24.1977 -1.27121 -5.97732 0
M  V30 251 C 25.1957 -2.08713 -6.50329 0
M  V30 252 O 24.8837 -3.02322 -7.44887 0
M  V30 253 H 24.6157 0.0765276 -0.671654 0
M  V30 254 H 27.1697 -0.423254 -2.00992 0
M  V30 255 H 25.3997 1.65567 -3.49463 0
M  V30 256 H 27.0887 1.38591 -3.81507 0
M  V30 257 H 27.8547 -0.90906 -4.76404 0
M  V30 258 H 23.7337 0.306108 -4.59983 0
M  V30 259 H 27.2777 -2.59111 -6.47694 0
M  V30 260 H 23.1747 -1.36801 -6.30837 0
M  V30 261 H 23.9427 -2.97165 -7.6265 0
M  V30 262 N 26.6058 1.57591 -0.0167156 0
M  V30 263 C 27.5358 2.12496 0.967858 0
M  V30 264 C 28.5168 1.03807 1.34752 0
M  V30 265 O 29.7018 1.31577 1.42833 0
M  V30 266 C 26.8318 2.64194 2.25431 0
M  V30 267 C 25.7858 3.77559 2.01576 0
M  V30 268 C 25.1118 4.15636 3.36379 0
M  V30 269 C 26.4118 5.04151 1.36489 0
M  V30 270 H 28.1058 2.95013 0.510643 0
M  V30 271 H 25.6518 1.41915 0.244181 0
M  V30 272 H 27.6048 3.01236 2.94678 0
M  V30 273 H 26.3288 1.78821 2.73296 0
M  V30 274 H 24.9878 3.40937 1.34751 0
M  V30 275 H 24.6358 3.27263 3.81979 0
M  V30 276 H 24.3358 4.92022 3.21229 0
M  V30 277 H 25.8598 4.5525 4.06915 0
M  V30 278 H 27.2738 5.38857 1.95718 0
M  V30 279 H 25.6708 5.85453 1.31776 0
M  V30 280 H 26.7408 4.83733 0.336219 0
M  V30 281 N 28.0839 -0.256276 1.55502 0
M  V30 282 C 29.0159 -1.33981 1.85962 0
M  V30 283 C 30.0289 -1.44743 0.745212 0
M  V30 284 O 31.2179 -1.4626 1.02324 0
M  V30 285 C 28.3179 -2.7194 2.02242 0
M  V30 286 C 27.4909 -2.83562 3.33033 0
M  V30 287 C 26.5499 -4.02304 3.39172 0
M  V30 288 O 25.5759 -3.92273 4.12444 0
M  V30 289 N 26.7779 -5.15045 2.67784 0
M  V30 290 H 29.5429 -1.08191 2.7949 0
M  V30 291 H 27.1039 -0.446388 1.55624 0
M  V30 292 H 29.0959 -3.49697 2.03701 0
M  V30 293 H 27.6659 -2.90479 1.15502 0
M  V30 294 H 26.8859 -1.92555 3.43971 0
M  V30 295 H 28.1739 -2.88271 4.19258 0
M  V30 296 H 27.5719 -5.26085 2.07968 0
M  V30 297 H 26.1289 -5.90972 2.74947 0
M  V30 298 N 29.562 -1.4872 -0.521534 0
M  V30 299 C 30.802 -1.58771 -1.28729 0
M  V30 300 C 31.166 -0.259394 -1.9024 0
M  V30 301 O 32.367 -0.234942 -2.67771 0
M  V30 302 C 30.638 -2.70039 -2.34124 0
M  V30 303 S 32.197 -2.9991 -3.20312 0
M  V30 304 H 29.015 -0.560251 -0.437767 0
M  V30 305 H 31.617 -1.86283 -0.593188 0
M  V30 306 H 30.321 -3.65101 -1.87429 0
M  V30 307 H 29.852 -2.44455 -3.08229 0
M  V30 308 H 31.867 -2.39855 -4.34378 0
M  V30 309 N 31.0401 0.771051 -1.3745 0
M  V30 310 C 32.0031 1.86598 -1.33093 0
M  V30 311 C 33.0031 1.59076 -0.234845 0
M  V30 312 O 34.1931 1.67145 -0.490732 0
M  V30 313 C 31.3251 3.23747 -1.06773 0
M  V30 314 H 32.5181 1.91873 -2.30488 0
M  V30 315 H 30.0711 0.970876 -1.2249 0
M  V30 316 H 30.8061 3.24148 -0.099129 0
M  V30 317 H 30.5911 3.45115 -1.86112 0
M  V30 318 H 32.0811 4.03824 -1.06377 0
M  V30 319 N 32.5182 1.22032 0.997298 0
M  V30 320 C 33.7642 1.04376 1.73878 0
M  V30 321 C 34.0972 -0.420716 1.89588 0
M  V30 322 O 33.3722 -1.31202 1.43583 0
M  V30 323 C 33.6552 1.75047 3.14691 0
M  V30 324 C 33.5082 3.29062 3.06656 0
M  V30 325 C 34.8272 1.49928 4.13775 0
M  V30 326 H 31.9462 0.380578 0.631133 0
M  V30 327 H 34.5882 1.50312 1.16217 0
M  V30 328 H 32.7382 1.35996 3.63919 0
M  V30 329 H 34.4102 3.7753 2.65083 0
M  V30 330 H 32.6532 3.58967 2.43568 0
M  V30 331 H 33.3242 3.73683 4.06282 0
M  V30 332 H 35.8002 1.83842 3.73285 0
M  V30 333 H 34.6762 2.01878 5.10428 0
M  V30 334 H 34.9372 0.430929 4.39995 0
M  V30 335 N 33.9963 -1.19345 1.0293 0
M  V30 336 C 35.2443 -1.88665 0.724574 0
M  V30 337 C 35.5653 -1.80036 -0.749144 0
M  V30 338 O 34.8353 -1.2111 -1.53978 0
M  V30 339 H 33.4153 -0.698406 0.265025 0
M  V30 340 H 36.0773 -1.44885 1.30362 0
M  V30 341 H 35.1733 -2.94987 1.01926 0
M  V30 342 N 35.4744 -0.807222 -1.35358 0
M  V30 343 C 36.7144 -0.393534 -2.00576 0
M  V30 344 C 37.0784 1.0203 -1.62647 0
M  V30 345 O 38.2794 1.53603 -2.20589 0
M  V30 346 C 36.5504 -0.572017 -3.52793 0
M  V30 347 S 38.1094 -0.248845 -4.38094 0
M  V30 348 H 34.9274 -0.149425 -0.695121 0
M  V30 349 H 37.5294 -1.04961 -1.64935 0
M  V30 350 H 36.2334 -1.60097 -3.77885 0
M  V30 351 H 35.7644 0.099359 -3.93275 0
M  V30 352 H 37.7794 0.943253 -4.87152 0
M  V30 353 N 36.9525 1.47285 -0.560781 0
M  V30 354 C 37.9155 2.28535 0.174488 0
M  V30 355 C 38.9155 1.37153 0.839388 0
M  V30 356 O 40.1055 1.59748 0.694702 0
M  V30 357 C 37.2375 3.16934 1.25561 0
M  V30 358 H 38.4305 2.95012 -0.539262 0
M  V30 359 H 35.9835 1.53034 -0.317865 0
M  V30 360 H 36.7185 2.55157 2.00164 0
M  V30 361 H 36.5035 3.8419 0.783604 0
M  V30 362 H 37.9935 3.78143 1.77193 0
M  V30 363 N 38.4306 0.297415 1.54768 0
M  V30 364 C 39.6766 -0.313376 2.00364 0
M  V30 365 C 40.0096 -1.53815 1.18553 0
M  V30 366 O 39.2846 -1.92739 0.261103 0
M  V30 367 C 39.5676 -0.673525 3.53745 0
M  V30 368 C 39.4206 0.560133 4.46299 0
M  V30 369 C 40.7396 -1.50143 4.13697 0
M  V30 370 H 37.8586 -0.112428 0.728374 0
M  V30 371 H 40.5006 0.4088 1.8555 0
M  V30 372 H 38.6506 -1.28881 3.665 0
M  V30 373 H 40.3226 1.19863 4.45455 0
M  V30 374 H 38.5656 1.19405 4.17043 0
M  V30 375 H 39.2366 0.26405 5.51368 0
M  V30 376 H 41.7126 -0.981588 4.04356 0
M  V30 377 H 40.5886 -1.72221 5.21182 0
M  V30 378 H 40.8496 -2.48952 3.65343 0
M  V30 379 N 39.9087 -1.5758 0.0250728 0
M  V30 380 C 41.1557 -1.91633 -0.654444 0
M  V30 381 C 41.4837 -0.901103 -1.72367 0
M  V30 382 O 40.7387 0.0905647 -1.9549 0
M  V30 383 C 41.0377 -3.32421 -1.31268 0
M  V30 384 C 40.7037 -4.49344 -0.374223 0
M  V30 385 C 39.3657 -4.8106 -0.115911 0
M  V30 386 C 41.7177 -5.20498 0.270432 0
M  V30 387 C 39.0457 -5.8129 0.79493 0
M  V30 388 C 41.3977 -6.21699 1.1693 0
M  V30 389 C 40.0617 -6.51859 1.43655 0
M  V30 390 H 39.3317 -0.701236 -0.239478 0
M  V30 391 H 41.9787 -1.91307 0.0859734 0
M  V30 392 H 40.2837 -3.28989 -2.12775 0
M  V30 393 H 41.9807 -3.56038 -1.84494 0
M  V30 394 H 38.5707 -4.24579 -0.58573 0
M  V30 395 H 42.7547 -4.96229 0.0839194 0
M  V30 396 H 38.0107 -6.03005 1.00973 0
M  V30 397 H 42.1847 -6.75955 1.67504 0
M  V30 398 H 39.8117 -7.2934 2.144 0
M  V30 399 N 41.3868 0.248026 -1.55636 0
M  V30 400 C 42.3498 1.29044 -1.89421 0
M  V30 401 C 43.3498 1.41134 -0.770581 0
M  V30 402 O 44.5398 1.39854 -1.03858 0
M  V30 403 C 41.6718 2.66831 -2.12165 0
M  V30 404 H 42.8648 1.00305 -2.82629 0
M  V30 405 H 40.4178 0.487265 -1.48511 0
M  V30 406 H 41.1528 3.00711 -1.21422 0
M  V30 407 H 40.9378 2.59438 -2.93997 0
M  V30 408 H 42.4278 3.42103 -2.3949 0
M  V30 409 N 42.8649 1.48995 0.513639 0
M  V30 410 C 44.2809 1.35478 0.843682 0
M  V30 411 C 44.4809 0.378213 1.97919 0
M  V30 412 O 43.5369 -0.194689 2.51748 0
M  V30 413 C 44.8499 2.75901 1.1958 0
M  V30 414 C 46.3979 2.84509 1.30474 0
M  V30 415 C 46.8729 4.25671 1.69021 0
M  V30 416 N 48.3639 4.28422 1.76094 0
M  V30 417 C 49.0989 5.34601 2.07338 0
M  V30 418 N 48.5949 6.5104 2.36894 0
M  V30 419 N 50.3879 5.22007 2.08483 0
M  V30 420 H 42.5389 2.11092 -0.235328 0
M  V30 421 H 44.8019 0.947039 -0.0426669 0
M  V30 422 H 44.5079 3.49001 0.434913 0
M  V30 423 H 44.3819 3.10467 2.1422 0
M  V30 424 H 46.7689 2.11655 2.05637 0
M  V30 425 H 46.8499 2.53542 0.339155 0
M  V30 426 H 46.4939 4.99048 0.944135 0
M  V30 427 H 46.4239 4.54094 2.66658 0
M  V30 428 H 48.9149 3.44441 1.55464 0
M  V30 429 H 49.2279 7.2779 2.59887 0
M  V30 430 H 47.5729 6.54287 2.34378 0
M  V30 431 H 50.7639 4.30051 1.84861 0
M  V30 432 H 50.9369 6.04854 2.325 0
M  V30 433 N 44.343 -0.763751 1.37857 0
M  V30 434 C 45.291 -1.89864 1.34367 0
M  V30 435 C 46.285 -1.67816 0.231143 0
M  V30 436 O 47.491 -1.75508 0.399617 0
M  V30 437 H 43.866 -0.624501 0.41893 0
M  V30 438 H 45.837 -1.89925 2.30155 0
M  V30 439 C 44.586 -3.27227 1.1755 0
M  V30 440 H 43.909 -3.44773 2.02414 0
M  V30 441 H 45.349 -4.06911 1.1916 0
M  V30 442 C 43.808 -3.36692 -0.118311 0
M  V30 443 O 44.338 -3.86374 -1.09902 0
M  V30 444 N 42.544 -2.90092 -0.171717 0
M  V30 445 H 42.091 -2.49853 0.627012 0
M  V30 446 H 42.049 -2.96806 -1.03699 0
M  V30 447 N 45.8211 -1.22559 -0.990812 0
M  V30 448 C 47.2371 -0.985996 -1.255 0
M  V30 449 C 47.4371 0.319173 -1.98956 0
M  V30 450 O 46.4931 1.04127 -2.3003 0
M  V30 451 C 47.8061 -2.18607 -2.06474 0
M  V30 452 C 49.3541 -2.22985 -2.19651 0
M  V30 453 C 49.8291 -3.4255 -3.04012 0
M  V30 454 N 51.3201 -3.42725 -3.11599 0
M  V30 455 C 52.0551 -4.31892 -3.7717 0
M  V30 456 N 51.5511 -5.31279 -4.44651 0
M  V30 457 N 53.3441 -4.19662 -3.73952 0
M  V30 458 H 45.4951 -2.06469 -0.49841 0
M  V30 459 H 47.7581 -0.904853 -0.282747 0
M  V30 460 H 47.4641 -3.13267 -1.59865 0
M  V30 461 H 47.3381 -2.18838 -3.07229 0
M  V30 462 H 49.7251 -1.28871 -2.65474 0
M  V30 463 H 49.8061 -2.26791 -1.18319 0
M  V30 464 H 49.4501 -4.36965 -2.58889 0
M  V30 465 H 49.3801 -3.35984 -4.0549 0
M  V30 466 H 51.8711 -2.70807 -2.63575 0
M  V30 467 H 52.1841 -5.95593 -4.92431 0
M  V30 468 H 50.5291 -5.3519 -4.43392 0
M  V30 469 H 53.7201 -3.41268 -3.20396 0
M  V30 470 H 53.8931 -4.89358 -4.24774 0
M  V30 471 N 47.2992 1.18797 -1.03562 0
M  V30 472 C 48.2312 2.21731 -0.580337 0
M  V30 473 C 49.2442 1.59051 0.347349 0
M  V30 474 O 50.4332 1.77929 0.142669 0
M  V30 475 C 47.5332 3.38459 0.172805 0
M  V30 476 C 46.7062 4.3072 -0.761496 0
M  V30 477 C 45.7652 5.26174 -0.0525547 0
M  V30 478 O 44.7912 5.65108 -0.681333 0
M  V30 479 N 45.9932 5.67624 1.21586 0
M  V30 480 H 48.7582 2.61417 -1.46565 0
M  V30 481 H 46.3192 1.33531 -0.915476 0
M  V30 482 H 48.3112 3.99335 0.656793 0
M  V30 483 H 46.8812 2.97507 0.959602 0
M  V30 484 H 46.1012 3.67525 -1.42544 0
M  V30 485 H 47.3892 4.89267 -1.39626 0
M  V30 486 H 46.7872 5.38038 1.74732 0
M  V30 487 H 45.3442 6.30721 1.64421 0
M  V30 488 N 48.7773 0.814389 1.34928 0
M  V30 489 C 50.0053 0.411136 2.02774 0
M  V30 490 C 50.4203 -0.980316 1.61354 0
M  V30 491 O 49.7773 -1.63299 0.814847 0
M  V30 492 C 49.8283 0.493865 3.58111 0
M  V30 493 O 49.5493 1.83047 3.98027 0
M  V30 494 C 51.0503 0.0844174 4.4322 0
M  V30 495 H 48.2703 0.166037 0.650133 0
M  V30 496 H 50.8143 1.10018 1.72384 0
M  V30 497 H 48.9693 -0.147006 3.87121 0
M  V30 498 H 49.3833 1.79872 4.92693 0
M  V30 499 H 50.8573 0.193404 5.51661 0
M  V30 500 H 51.3343 -0.97113 4.28329 0
M  V30 501 H 51.9403 0.69875 4.19521 0
M  V30 502 N 50.2554 -1.46986 0.568584 0
M  V30 503 C 51.2034 -2.31858 -0.185649 0
M  V30 504 C 52.1974 -1.43624 -0.898249 0
M  V30 505 O 53.4034 -1.60327 -0.818242 0
M  V30 506 H 49.7784 -0.747866 -0.0787399 0
M  V30 507 H 51.7494 -2.93303 0.549191 0
M  V30 508 C 50.4984 -3.26513 -1.19519 0
M  V30 509 H 49.8214 -3.94377 -0.656285 0
M  V30 510 H 51.2614 -3.88707 -1.6936 0
M  V30 511 C 49.7204 -2.50847 -2.24894 0
M  V30 512 O 50.2504 -2.26119 -3.32014 0
M  V30 513 N 48.4564 -2.11656 -1.99124 0
M  V30 514 H 48.0034 -2.31966 -1.12024 0
M  V30 515 H 47.9614 -1.61347 -2.69842 0
M  V30 516 N 51.7335 -0.305618 -1.54608 0
M  V30 517 C 52.9585 0.307562 -2.05107 0
M  V30 518 C 53.3835 1.46385 -1.18123 0
M  V30 519 O 52.7415 1.8034 -0.186324 0
M  V30 520 C 52.7895 0.73704 -3.52987 0
M  V30 521 O 51.8935 1.84134 -3.6901 0
M  V30 522 H 51.2345 0.0589143 -0.661381 0
M  V30 523 H 53.7645 -0.448807 -1.99617 0
M  V30 524 H 53.7745 1.02459 -3.94925 0
M  V30 525 H 52.4495 -0.108773 -4.15758 0
M  V30 526 H 51.0265 1.55398 -3.38978 0
M  V30 527 N 53.2116 1.57565 -0.0334293 0
M  V30 528 C 54.4576 1.92262 0.645226 0
M  V30 529 C 54.7906 0.910543 1.71531 0
M  V30 530 O 54.0656 -0.066099 1.94388 0
M  V30 531 C 54.3486 3.37422 1.2577 0
M  V30 532 C 54.2016 4.49369 0.196891 0
M  V30 533 C 55.5206 3.82628 2.17449 0
M  V30 534 H 52.6396 0.699171 0.233085 0
M  V30 535 H 55.2816 1.89779 -0.0915694 0
M  V30 536 H 53.4316 3.39669 1.88566 0
M  V30 537 H 55.1036 4.59254 -0.433962 0
M  V30 538 H 53.3466 4.31168 -0.477137 0
M  V30 539 H 54.0176 5.47978 0.665124 0
M  V30 540 H 56.4936 3.82145 1.64634 0
M  V30 541 H 55.3696 4.84883 2.57254 0
M  V30 542 H 55.6306 3.18376 3.0674 0
M  V30 543 N 54.6897 -0.239769 1.55765 0
M  V30 544 C 55.9197 -0.982743 1.8173 0
M  V30 545 C 56.3277 -1.7917 0.607835 0
M  V30 546 O 55.6707 -1.78525 -0.432973 0
M  V30 547 C 55.7327 -1.96332 3.01155 0
M  V30 548 C 55.3967 -1.34062 4.36894 0
M  V30 549 C 56.3937 -0.739539 5.14613 0
M  V30 550 C 54.0787 -1.35784 4.83599 0
M  V30 551 C 56.0727 -0.163989 6.37189 0
M  V30 552 C 53.7597 -0.778441 6.06122 0
M  V30 553 C 54.7577 -0.182548 6.82756 0
M  V30 554 O 54.4457 0.387887 8.02964 0
M  V30 555 H 54.1777 -0.294481 0.608487 0
M  V30 556 H 56.7317 -0.26572 2.03674 0
M  V30 557 H 54.9617 -2.71884 2.74984 0
M  V30 558 H 56.6507 -2.57032 3.14149 0
M  V30 559 H 57.4167 -0.718687 4.79646 0
M  V30 560 H 53.2957 -1.81105 4.23936 0
M  V30 561 H 56.8397 0.301753 6.96947 0
M  V30 562 H 52.7367 -0.796645 6.40565 0
M  V30 563 H 53.5047 0.28044 8.18019 0
M  V30 564 N 56.1678 -1.49265 -0.50573 0
M  V30 565 C 57.4158 -1.582 -1.25766 0
M  V30 566 C 57.7368 -0.268482 -1.93143 0
M  V30 567 O 57.0068 0.711833 -1.8251 0
M  V30 568 H 55.5868 -0.582873 -0.467191 0
M  V30 569 H 58.2488 -1.85865 -0.586525 0
M  V30 570 H 57.3448 -2.37563 -2.02412 0
M  V30 571 N 57.6459 0.756429 -1.3826 0
M  V30 572 C 59.0619 1.0591 -1.19395 0
M  V30 573 C 59.2619 2.01459 -0.0406567 0
M  V30 574 O 58.3179 2.44909 0.614467 0
M  V30 575 C 59.6309 1.64191 -2.51916 0
M  V30 576 C 61.1789 1.76376 -2.58574 0
M  V30 577 C 61.6539 2.38069 -3.91264 0
M  V30 578 N 63.1449 2.45503 -3.92788 0
M  V30 579 C 63.8799 2.94126 -4.92217 0
M  V30 580 N 63.3759 3.42805 -6.02043 0
M  V30 581 N 65.1689 2.9314 -4.7961 0
M  V30 582 H 57.3199 0.122313 -2.12048 0
M  V30 583 H 59.5829 0.116892 -0.940766 0
M  V30 584 H 59.2889 1.01451 -3.3675 0
M  V30 585 H 59.1629 2.6329 -2.70108 0
M  V30 586 H 61.5499 2.38244 -1.74137 0
M  V30 587 H 61.6309 0.759894 -2.44252 0
M  V30 588 H 61.2749 1.76835 -4.76121 0
M  V30 589 H 61.2049 3.39091 -4.02895 0
M  V30 590 H 63.6959 2.1107 -3.13461 0
M  V30 591 H 64.0089 3.78354 -6.73846 0
M  V30 592 H 62.3539 3.4087 -6.05667 0
M  V30 593 H 65.5449 2.54419 -3.92923 0
M  V30 594 H 65.7179 3.30721 -5.5725 0
M  V30 595 N 59.124 1.23083 0.984299 0
M  V30 596 C 60.074 0.975749 2.06066 0
M  V30 597 C 61.058 -0.0768251 1.60716 0
M  V30 598 O 62.25 0.134805 1.76486 0
M  V30 599 C 59.379 0.564673 3.38624 0
M  V30 600 C 58.465 1.65244 3.90583 0
M  V30 601 N 58.856 2.88193 4.15666 0
M  V30 602 C 57.154 1.52612 4.19077 0
M  V30 603 C 57.855 3.58593 4.58024 0
M  V30 604 N 56.831 2.86093 4.62225 0
M  V30 605 H 60.633 1.90957 2.23411 0
M  V30 606 H 58.147 1.12963 1.16675 0
M  V30 607 H 60.144 0.36322 4.15315 0
M  V30 608 H 58.804 -0.362147 3.22674 0
M  V30 609 H 59.815 3.24537 4.03604 0
M  V30 610 H 56.492 0.666121 4.12152 0
M  V30 611 H 57.882 4.63974 4.85982 0
M  V30 612 N 60.6021 -1.18246 1.0419 0
M  V30 613 C 61.5651 -2.20128 0.638452 0
M  V30 614 C 62.5651 -1.57885 -0.304805 0
M  V30 615 O 63.7551 -1.73967 -0.0900369 0
M  V30 616 C 60.8871 -3.4084 -0.0637751 0
M  V30 617 H 62.0801 -2.57336 1.54007 0
M  V30 618 H 59.6331 -1.32152 0.834598 0
M  V30 619 H 60.3681 -3.09166 -0.979136 0
M  V30 620 H 60.1531 -3.8726 0.614198 0
M  V30 621 H 61.6431 -4.16274 -0.332512 0
M  V30 622 N 62.0802 -0.821533 -1.34494 0
M  V30 623 C 63.0102 -0.257138 -2.3208 0
M  V30 624 C 63.9912 0.625645 -1.58176 0
M  V30 625 O 65.1762 0.552811 -1.86166 0
M  V30 626 C 62.3062 0.582958 -3.42372 0
M  V30 627 C 61.2602 -0.202571 -4.2752 0
M  V30 628 C 60.5862 0.760179 -5.29269 0
M  V30 629 C 61.8862 -1.40998 -5.02908 0
M  V30 630 H 63.5802 -1.07247 -2.79532 0
M  V30 631 H 61.1262 -0.517163 -1.34393 0
M  V30 632 H 63.0792 0.987972 -4.09655 0
M  V30 633 H 61.8032 1.43133 -2.93565 0
M  V30 634 H 60.4622 -0.588936 -3.61838 0
M  V30 635 H 60.1102 1.60447 -4.76724 0
M  V30 636 H 59.8102 0.238809 -5.87115 0
M  V30 637 H 61.3342 1.16308 -5.9942 0
M  V30 638 H 62.7482 -1.07905 -5.63054 0
M  V30 639 H 61.1452 -1.86689 -5.70322 0
M  V30 640 H 62.2152 -2.1889 -4.32684 0
M  V30 641 N 63.5583 1.46682 -0.576371 0
M  V30 642 C 64.9693 1.86112 -0.148091 0
M  V30 643 C 65.3203 1.48073 1.2872 0
M  V30 644 O 64.4453 0.892656 1.97131 0
M  V30 645 C 65.0403 3.37786 -0.261982 0
M  V30 646 C 63.5993 3.76235 0.111384 0
M  V30 647 C 62.7463 2.70713 -0.60083 0
M  V30 648 H 65.6973 1.37927 -0.78497 0
M  V30 649 H 65.7183 3.77007 0.514364 0
M  V30 650 H 65.2303 3.6544 -1.30671 0
M  V30 651 H 63.3313 3.54198 1.15649 0
M  V30 652 H 63.4443 4.78391 -0.26052 0
M  V30 653 H 61.8083 2.54666 -0.0417783 0
M  V30 654 H 62.5913 3.01208 -1.64708 0
M  V30 655 N 65.0364 0.313813 1.54444 0
M  V30 656 C 66.2614 -0.296681 2.05267 0
M  V30 657 C 66.6864 -1.45757 1.18897 0
M  V30 658 O 66.0444 -1.80239 0.195886 0
M  V30 659 C 66.0924 -0.71831 3.53373 0
M  V30 660 O 65.1964 -1.82175 3.69981 0
M  V30 661 H 64.5374 -0.0554061 0.661684 0
M  V30 662 H 67.0674 0.459387 1.99376 0
M  V30 663 H 67.0774 -1.00364 3.95463 0
M  V30 664 H 65.7524 0.130821 4.15694 0
M  V30 665 H 64.3294 -1.53598 3.39797 0
M  V30 666 N 66.5145 -1.57545 0.0417849 0
M  V30 667 C 67.4645 -2.07483 -0.945247 0
M  V30 668 C 68.4485 -0.977983 -1.27767 0
M  V30 669 O 69.6405 -1.24142 -1.26166 0
M  V30 670 C 66.7695 -2.61576 -2.22335 0
M  V30 671 C 65.8555 -3.78213 -1.91874 0
M  V30 672 N 66.2465 -4.88344 -1.31733 0
M  V30 673 C 64.5445 -3.8694 -2.21796 0
M  V30 674 C 65.2455 -5.69462 -1.1869 0
M  V30 675 N 64.2215 -5.16771 -1.68666 0
M  V30 676 H 68.0235 -2.90029 -0.475441 0
M  V30 677 H 65.5375 -1.61581 -0.162911 0
M  V30 678 H 67.5345 -2.95651 -2.93932 0
M  V30 679 H 66.1945 -1.80465 -2.69931 0
M  V30 680 H 67.2055 -5.08335 -0.990729 0
M  V30 681 H 63.8825 -3.16757 -2.71977 0
M  V30 682 H 65.2725 -6.68023 -0.720793 0
M  V30 683 N 67.9926 0.231505 -1.5589 0
M  V30 684 C 69.4086 0.580748 -1.48659 0
M  V30 685 C 69.6086 1.87617 -0.73498 0
M  V30 686 O 68.6646 2.51046 -0.270586 0
M  V30 687 C 69.9776 0.669202 -2.93159 0
M  V30 688 C 71.5256 0.760499 -3.03621 0
M  V30 689 C 72.0006 0.880383 -4.49459 0
M  V30 690 N 73.4916 0.944861 -4.53461 0
M  V30 691 C 74.2266 1.05716 -5.63571 0
M  V30 692 N 73.7226 1.13403 -6.83456 0
M  V30 693 N 75.5156 1.09152 -5.514 0
M  V30 694 H 67.6666 -0.618695 -2.03189 0
M  V30 695 H 69.9296 -0.215728 -0.923128 0
M  V30 696 H 69.6356 -0.212904 -3.51055 0
M  V30 697 H 69.5096 1.5361 -3.44505 0
M  V30 698 H 71.8966 1.63305 -2.45796 0
M  V30 699 H 71.9776 -0.131864 -2.5546 0
M  V30 700 H 71.6216 0.0123284 -5.07899 0
M  V30 701 H 71.5516 1.78802 -4.95316 0
M  V30 702 H 74.0426 0.896176 -3.6712 0
M  V30 703 H 74.3556 1.21921 -7.63122 0
M  V30 704 H 72.7006 1.10333 -6.86186 0
M  V30 705 H 75.8916 1.02805 -4.56671 0
M  V30 706 H 76.0646 1.17558 -6.37247 0
M  V30 707 N 69.4707 1.49531 0.497807 0
M  V30 708 C 70.4007 1.6935 1.60757 0
M  V30 709 C 71.3817 0.542218 1.61227 0
M  V30 710 O 72.5667 0.778417 1.77917 0
M  V30 711 C 69.6967 1.76298 2.99226 0
M  V30 712 C 68.6507 2.91248 3.13622 0
M  V30 713 C 67.9767 2.83312 4.53474 0
M  V30 714 C 69.2767 4.3214 2.93346 0
M  V30 715 H 70.9707 2.62263 1.44425 0
M  V30 716 H 68.5167 1.26208 0.693367 0
M  V30 717 H 70.4697 1.88749 3.76765 0
M  V30 718 H 69.1937 0.799871 3.16654 0
M  V30 719 H 67.8527 2.78404 2.38509 0
M  V30 720 H 67.5007 1.84902 4.67782 0
M  V30 721 H 67.2007 3.60465 4.64046 0
M  V30 722 H 68.7247 2.97775 5.33069 0
M  V30 723 H 70.1387 4.45649 3.60652 0
M  V30 724 H 68.5357 5.1054 3.15387 0
M  V30 725 H 69.6057 4.46363 1.89441 0
M  V30 726 N 70.9488 -0.749086 1.3866 0
M  V30 727 C 72.3648 -1.05276 1.19955 0
M  V30 728 C 72.5648 -2.01435 0.05134 0
M  V30 729 O 71.6208 -2.45232 -0.60147 0
M  V30 730 C 72.9338 -1.62853 2.52783 0
M  V30 731 C 74.4818 -1.75002 2.59506 0
M  V30 732 C 74.9568 -2.35991 3.92521 0
M  V30 733 N 76.4478 -2.43416 3.94085 0
M  V30 734 C 77.1828 -2.91511 4.9377 0
M  V30 735 N 76.6788 -3.39608 6.03853 0
M  V30 736 N 78.4718 -2.90592 4.81157 0
M  V30 737 H 70.6228 -0.111066 2.12109 0
M  V30 738 H 72.8858 -0.111901 0.941373 0
M  V30 739 H 72.5918 -0.99664 3.37283 0
M  V30 740 H 72.4658 -2.61854 2.715 0
M  V30 741 H 74.8528 -2.37317 1.75398 0
M  V30 742 H 74.9338 -0.74693 2.44652 0
M  V30 743 H 74.5778 -1.74308 4.77053 0
M  V30 744 H 74.5078 -3.3695 4.04688 0
M  V30 745 H 76.9988 -2.09405 3.14576 0
M  V30 746 H 77.3118 -3.74775 6.75843 0
M  V30 747 H 75.6568 -3.37653 6.07466 0
M  V30 748 H 78.8478 -2.52332 3.94267 0
M  V30 749 H 79.0208 -3.27762 5.58996 0
M  V30 750 N 72.4269 -1.23603 -0.977757 0
M  V30 751 C 73.6729 -1.07129 -1.72195 0
M  V30 752 C 74.0059 0.390501 -1.90233 0
M  V30 753 O 73.2809 1.28902 -1.45653 0
M  V30 754 C 73.5639 -1.80031 -3.11867 0
M  V30 755 C 73.4169 -3.33899 -3.01383 0
M  V30 756 C 74.7359 -1.56492 -4.11337 0
M  V30 757 H 71.8549 -0.390571 -0.624999 0
M  V30 758 H 74.4969 -1.52142 -1.13811 0
M  V30 759 H 72.6469 -1.41768 -3.6171 0
M  V30 760 H 74.3189 -3.81699 -2.59043 0
M  V30 761 H 72.5619 -3.62796 -2.37827 0
M  V30 762 H 73.2329 -3.801 -4.00285 0
M  V30 763 H 75.7089 -1.89757 -3.70313 0
M  V30 764 H 74.5849 -2.09973 -5.07151 0
M  V30 765 H 74.8459 -0.500874 -4.39254 0
M  V30 766 N 73.905 1.17692 -1.04816 0
M  V30 767 C 75.316 1.69501 -0.782698 0
M  V30 768 C 75.667 1.83456 0.695577 0
M  V30 769 O 74.792 1.51942 1.54086 0
M  V30 770 C 75.387 3.07874 -1.41419 0
M  V30 771 C 73.946 3.56864 -1.19686 0
M  V30 772 C 73.093 2.3322 -1.50012 0
M  V30 773 H 76.044 1.02262 -1.2136 0
M  V30 774 H 76.065 3.71528 -0.821428 0
M  V30 775 H 75.577 2.97685 -2.49009 0
M  V30 776 H 73.678 3.72337 -0.140043 0
M  V30 777 H 73.791 4.39851 -1.89916 0
M  V30 778 H 72.155 2.37501 -0.920071 0
M  V30 779 H 72.938 2.25644 -2.58727 0
M  V30 780 N 75.3831 0.828654 1.34056 0
M  V30 781 C 76.3461 0.259927 2.27721 0
M  V30 782 C 77.3461 -0.565478 1.50529 0
M  V30 783 O 78.5361 -0.38075 1.69988 0
M  V30 784 C 75.6681 -0.634944 3.34935 0
M  V30 785 H 76.8611 1.0863 2.79534 0
M  V30 786 H 74.4141 0.600951 1.44285 0
M  V30 787 H 75.1491 -1.48416 2.88346 0
M  V30 788 H 74.9341 -0.0444999 3.92075 0
M  V30 789 H 76.4241 -1.02648 4.04788 0
M  V30 790 N 76.8612 -1.46375 0.584142 0
M  V30 791 C 78.2772 -1.57694 0.245929 0
M  V30 792 C 78.4772 -1.57903 -1.25175 0
M  V30 793 O 77.5332 -1.49676 -2.03355 0
M  V30 794 C 78.8462 -2.87028 0.896402 0
M  V30 795 C 80.3942 -3.00662 0.870127 0
M  V30 796 C 80.8692 -4.32734 1.50017 0
M  V30 797 N 82.3602 -4.39436 1.46458 0
M  V30 798 C 83.0952 -5.40248 1.92144 0
M  V30 799 N 82.5912 -6.47726 2.4581 0
M  V30 800 N 84.3842 -5.31459 1.83052 0
M  V30 801 H 76.5352 -1.44483 1.55687 0
M  V30 802 H 78.7982 -0.689291 0.650831 0
M  V30 803 H 78.5042 -2.9269 1.95002 0
M  V30 804 H 78.3782 -3.75014 0.405486 0
M  V30 805 H 80.7652 -2.94581 -0.174871 0
M  V30 806 H 80.8462 -2.14148 1.39908 0
M  V30 807 H 80.4902 -4.39573 2.54437 0
M  V30 808 H 80.4202 -5.18025 0.946432 0
M  V30 809 H 82.9112 -3.62367 1.07231 0
M  V30 810 H 83.2242 -7.20863 2.78525 0
M  V30 811 H 81.5692 -6.48542 2.49836 0
M  V30 812 H 84.7602 -4.46396 1.40883 0
M  V30 813 H 84.9332 -6.09881 2.18973 0
M  V30 814 N 78.3393 -0.321999 -1.54275 0
M  V30 815 C 79.3023 0.531975 -2.22941 0
M  V30 816 C 80.3023 1.04478 -1.22234 0
M  V30 817 O 81.4923 0.937452 -1.46825 0
M  V30 818 C 78.6243 1.73874 -2.93224 0
M  V30 819 H 79.8173 -0.0682612 -2.99822 0
M  V30 820 H 77.3703 -0.0730644 -1.56129 0
M  V30 821 H 78.1053 2.37825 -2.20476 0
M  V30 822 H 77.8903 1.37847 -3.6707 0
M  V30 823 H 79.3803 2.34496 -3.45545 0
M  V30 824 N 79.8174 1.5752 -0.0501392 0
M  V30 825 C 80.7804 2.1037 0.909786 0
M  V30 826 C 81.7804 1.02308 1.24056 0
M  V30 827 O 82.9704 1.28385 1.17741 0
M  V30 828 C 80.1024 2.58708 2.21998 0
M  V30 829 H 81.2954 2.96479 0.451665 0
M  V30 830 H 78.8484 1.55038 0.198248 0
M  V30 831 H 79.5834 1.75989 2.72394 0
M  V30 832 H 79.3684 3.37675 1.99295 0
M  V30 833 H 80.8584 2.99747 2.9076 0
M  V30 834 N 81.2955 -0.223234 1.56011 0
M  V30 835 C 82.5415 -0.944891 1.8012 0
M  V30 836 C 82.8965 -1.82039 0.622862 0
M  V30 837 O 82.1895 -1.8773 -0.383143 0
M  V30 838 C 82.3835 -1.81948 3.0762 0
M  V30 839 C 82.2125 -1.03014 4.37742 0
M  V30 840 C 80.9825 -0.72574 5.00061 0
M  V30 841 C 83.1805 -0.396256 5.12771 0
M  V30 842 N 81.1625 0.0851816 6.13841 0
M  V30 843 C 82.5335 0.278137 6.19376 0
M  V30 844 C 84.5885 -0.309117 4.9694 0
M  V30 845 C 83.2915 1.03133 7.11868 0
M  V30 846 C 85.3175 0.430607 5.8983 0
M  V30 847 C 84.6795 1.09355 6.9586 0
M  V30 848 H 80.7785 -0.326081 0.710771 0
M  V30 849 H 83.3625 -0.215914 1.93499 0
M  V30 850 H 81.5335 -2.52029 2.95527 0
M  V30 851 H 83.2655 -2.47848 3.19927 0
M  V30 852 H 80.0205 -1.04335 4.61964 0
M  V30 853 H 80.4445 0.479428 6.753 0
M  V30 854 H 85.0865 -0.807313 4.15021 0
M  V30 855 H 82.8045 1.54105 7.9327 0
M  V30 856 H 86.3905 0.499012 5.79656 0
M  V30 857 H 85.2705 1.65679 7.66499 0
M  V30 858 N 82.7736 -1.49793 -0.48987 0
M  V30 859 C 84.0196 -1.60078 -1.24511 0
M  V30 860 C 84.3526 -0.291608 -1.91998 0
M  V30 861 O 83.6276 0.705647 -1.81248 0
M  V30 862 C 83.9106 -2.76791 -2.30345 0
M  V30 863 C 83.7636 -4.17535 -1.67286 0
M  V30 864 C 85.0826 -2.89111 -3.31817 0
M  V30 865 H 82.2016 -0.582645 -0.451324 0
M  V30 866 H 84.8436 -1.82117 -0.541612 0
M  V30 867 H 82.9936 -2.5813 -2.90346 0
M  V30 868 H 84.6656 -4.4774 -1.11026 0
M  V30 869 H 82.9086 -4.22665 -0.976577 0
M  V30 870 H 83.5796 -4.95094 -2.44103 0
M  V30 871 H 86.0556 -3.06133 -2.81819 0
M  V30 872 H 84.9316 -3.72433 -4.03219 0
M  V30 873 H 85.1926 -1.9893 -3.94815 0
M  V30 874 N 84.2517 0.741722 -1.39055 0
M  V30 875 C 85.4977 1.50336 -1.36113 0
M  V30 876 C 85.8307 1.94148 0.0450796 0
M  V30 877 O 85.1057 1.66301 1.00868 0
M  V30 878 C 85.3887 2.74773 -2.32749 0
M  V30 879 C 85.2417 2.37023 -3.82283 0
M  V30 880 C 86.5607 3.76846 -2.27322 0
M  V30 881 H 83.6797 0.545351 -0.495743 0
M  V30 882 H 86.3217 0.848624 -1.69995 0
M  V30 883 H 84.4717 3.30639 -2.03986 0
M  V30 884 H 86.1437 1.8684 -4.21768 0
M  V30 885 H 84.3867 1.69334 -3.99385 0
M  V30 886 H 85.0577 3.26104 -4.45376 0
M  V30 887 H 87.5337 3.30548 -2.5274 0
M  V30 888 H 86.4097 4.6159 -2.97028 0
M  V30 889 H 86.6707 4.23286 -1.27599 0
M  V30 890 N 85.7298 1.2412 0.971189 0
M  V30 891 C 86.6618 0.988349 2.06795 0
M  V30 892 C 87.6748 -0.0409541 1.62748 0
M  V30 893 O 88.8638 0.195673 1.77424 0
M  V30 894 C 85.9638 0.469023 3.35639 0
M  V30 895 C 85.1368 1.56065 4.08611 0
M  V30 896 C 84.1958 1.04458 5.15728 0
M  V30 897 O 83.2218 1.73553 5.42096 0
M  V30 898 N 84.4238 -0.122817 5.8037 0
M  V30 899 H 87.1888 1.93265 2.29061 0
M  V30 900 H 84.7498 1.15102 1.13856 0
M  V30 901 H 86.7418 0.108613 4.04554 0
M  V30 902 H 85.3118 -0.380919 3.1027 0
M  V30 903 H 84.5318 2.09341 3.34021 0
M  V30 904 H 85.8198 2.29449 4.54126 0
M  V30 905 H 85.2178 -0.700563 5.61345 0
M  V30 906 H 83.7748 -0.424404 6.50417 0
M  V30 907 N 87.2079 -1.17134 1.05439 0
M  V30 908 C 88.1179 -2.24878 0.668365 0
M  V30 909 C 89.1339 -1.71186 -0.311687 0
M  V30 910 O 90.3099 -2.00738 -0.163161 0
M  V30 911 C 87.3749 -3.46662 0.051648 0
M  V30 912 C 86.4359 -4.15429 1.08246 0
M  V30 913 C 85.6689 -5.31399 0.495082 0
M  V30 914 O 85.8919 -5.66153 -0.694743 0
M  V30 915 O 84.8259 -5.89187 1.23056 0
M  V30 916 H 88.6519 -2.60189 1.56637 0
M  V30 917 H 86.2369 -1.24482 0.826104 0
M  V30 918 H 88.1189 -4.20394 -0.290966 0
M  V30 919 H 86.7939 -3.13142 -0.819971 0
M  V30 920 H 85.7009 -3.43704 1.47711 0
M  V30 921 H 87.0339 -4.52982 1.92532 0
M  V30 922 N 88.686 -0.835752 -1.33615 0
M  V30 923 C 89.616 -0.281739 -2.31794 0
M  V30 924 C 90.597 0.608833 -1.58831 0
M  V30 925 O 91.782 0.533035 -1.86741 0
M  V30 926 C 88.912 0.546612 -3.42971 0
M  V30 927 C 87.866 -0.247904 -4.27281 0
M  V30 928 C 87.192 0.704001 -5.30045 0
M  V30 929 C 88.492 -1.46324 -5.01385 0
M  V30 930 H 90.186 -1.10206 -2.78379 0
M  V30 931 H 87.732 -0.531388 -1.33837 0
M  V30 932 H 89.685 0.944467 -4.1068 0
M  V30 933 H 88.409 1.40011 -2.95067 0
M  V30 934 H 87.068 -0.627281 -3.61194 0
M  V30 935 H 86.716 1.55381 -4.78399 0
M  V30 936 H 86.416 0.176524 -5.87335 0
M  V30 937 H 87.94 1.09944 -6.0062 0
M  V30 938 H 89.354 -1.13871 -5.61877 0
M  V30 939 H 87.751 -1.92728 -5.6831 0
M  V30 940 H 88.821 -2.23467 -4.30338 0
M  V30 941 N 90.1641 1.46063 -0.591896 0
M  V30 942 C 91.5751 1.85944 -0.167822 0
M  V30 943 C 91.9261 1.49429 1.27143 0
M  V30 944 O 91.0511 0.913515 1.96173 0
M  V30 945 C 91.6461 3.37489 -0.297794 0
M  V30 946 C 90.2051 3.76332 0.0714732 0
M  V30 947 C 89.3521 2.7006 -0.629509 0
M  V30 948 H 92.3031 1.37087 -0.799555 0
M  V30 949 H 92.3241 3.77532 0.474349 0
M  V30 950 H 91.8361 3.64034 -1.3454 0
M  V30 951 H 89.9371 3.55405 1.11886 0
M  V30 952 H 90.0501 4.78088 -0.311245 0
M  V30 953 H 88.4141 2.54607 -0.0687867 0
M  V30 954 H 89.1971 2.99444 -1.67894 0
M  V30 955 N 91.6422 0.330177 1.54103 0
M  V30 956 C 92.8672 -0.274893 2.0557 0
M  V30 957 C 93.2922 -1.44487 1.20437 0
M  V30 958 O 92.6502 -1.80021 0.214991 0
M  V30 959 C 92.6982 -0.68079 3.54115 0
M  V30 960 O 91.8022 -1.7824 3.71893 0
M  V30 961 H 91.1432 -0.0483849 0.662235 0
M  V30 962 H 93.6732 0.480508 1.98878 0
M  V30 963 H 93.6832 -0.961635 3.96505 0
M  V30 964 H 92.3582 0.174903 4.15532 0
M  V30 965 H 90.9352 -1.49985 3.41407 0
M  V30 966 N 93.1203 -1.57491 0.0584922 0
M  V30 967 C 94.0503 -2.14988 -0.911178 0
M  V30 968 C 95.0313 -1.07343 -1.31952 0
M  V30 969 O 96.2163 -1.35318 -1.39294 0
M  V30 970 C 93.3463 -2.70078 -2.18347 0
M  V30 971 C 92.3003 -3.82771 -1.91495 0
M  V30 972 C 91.6263 -4.24408 -3.25241 0
M  V30 973 C 92.9263 -5.07592 -1.23075 0
M  V30 974 H 94.6203 -2.96263 -0.432246 0
M  V30 975 H 92.1663 -1.42512 -0.206469 0
M  V30 976 H 94.1193 -3.08943 -2.86587 0
M  V30 977 H 92.8433 -1.86005 -2.68458 0
M  V30 978 H 91.5023 -3.44389 -1.25664 0
M  V30 979 H 91.1503 -3.37275 -3.73168 0
M  V30 980 H 90.8503 -5.00366 -3.08071 0
M  V30 981 H 92.3743 -4.65879 -3.94701 0
M  V30 982 H 93.7883 -5.43857 -1.81362 0
M  V30 983 H 92.1853 -5.88741 -1.16207 0
M  V30 984 H 93.2553 -4.84454 -0.207847 0
M  V30 985 N 94.5984 0.214957 -1.56127 0
M  V30 986 C 95.5614 1.24997 -1.92116 0
M  V30 987 C 96.5614 1.39467 -0.800344 0
M  V30 988 O 97.7514 1.37619 -1.06802 0
M  V30 989 C 94.8834 2.62271 -2.17777 0
M  V30 990 H 96.0764 0.942875 -2.84693 0
M  V30 991 H 93.6294 0.455654 -1.49511 0
M  V30 992 H 94.3644 2.98068 -1.27773 0
M  V30 993 H 94.1494 2.53143 -2.99434 0
M  V30 994 H 95.6394 3.36946 -2.46693 0
M  V30 995 N 96.0765 1.50051 0.48192 0
M  V30 996 C 97.0065 1.71046 1.58951 0
M  V30 997 C 97.9875 0.559288 1.60642 0
M  V30 998 O 99.1725 0.797243 1.77081 0
M  V30 999 C 96.3025 1.79462 2.97339 0
M  V30 1000 C 95.2565 2.94558 3.10515 0
M  V30 1001 C 94.5825 2.88105 4.50444 0
M  V30 1002 C 95.8825 4.35227 2.88747 0
M  V30 1003 H 97.5765 2.6378 1.41635 0
M  V30 1004 H 95.1225 1.26936 0.679942 0
M  V30 1005 H 97.0755 1.92734 3.74742 0
M  V30 1006 H 95.7995 0.833412 3.15788 0
M  V30 1007 H 94.4585 2.80918 2.35543 0
M  V30 1008 H 94.1065 1.89853 4.65795 0
M  V30 1009 H 93.8065 3.65366 4.60197 0
M  V30 1010 H 95.3305 3.03412 5.29881 0
M  V30 1011 H 96.7445 4.49449 3.55905 0
M  V30 1012 H 95.1415 5.13856 3.09955 0
M  V30 1013 H 96.2115 4.48347 1.84696 0
M  V30 1014 N 97.5546 -0.734337 1.39446 0
M  V30 1015 C 98.9656 -1.31264 1.32766 0
M  V30 1016 C 99.3166 -1.96198 -0.00767497 0
M  V30 1017 O 98.4416 -1.96346 -0.909796 0
M  V30 1018 C 99.0366 -2.38682 2.4045 0
M  V30 1019 C 97.5956 -2.92184 2.37288 0
M  V30 1020 C 96.7426 -1.6576 2.22304 0
M  V30 1021 H 99.6936 -0.531799 1.49525 0
M  V30 1022 H 99.7146 -3.19087 2.07276 0
M  V30 1023 H 99.2266 -1.91392 3.37625 0
M  V30 1024 H 97.3276 -3.43752 1.43754 0
M  V30 1025 H 97.4406 -3.45253 3.3217 0
M  V30 1026 H 95.8046 -1.9012 1.69489 0
M  V30 1027 H 96.5876 -1.20521 3.21449 0
M  V30 1028 N 99.0327 -1.24633 -0.964593 0
M  V30 1029 C 99.9627 -1.06611 -2.07741 0
M  V30 1030 C 100.944 0.0218666 -1.70086 0
M  V30 1031 O 102.129 -0.145793 -1.93652 0
M  V30 1032 C 99.2587 -0.673444 -3.40708 0
M  V30 1033 C 98.2127 -1.71054 -3.92332 0
M  V30 1034 C 97.5387 -1.17285 -5.21678 0
M  V30 1035 C 98.8387 -3.10718 -4.19824 0
M  V30 1036 H 100.533 -1.99693 -2.23076 0
M  V30 1037 H 98.0787 -0.96152 -1.07195 0
M  V30 1038 H 100.032 -0.534345 -4.17998 0
M  V30 1039 H 98.7557 0.293073 -3.25282 0
M  V30 1040 H 97.4147 -1.83791 -3.17201 0
M  V30 1041 H 97.0627 -0.196847 -5.02615 0
M  V30 1042 H 96.7627 -1.86592 -5.57187 0
M  V30 1043 H 98.2867 -1.04593 -6.01575 0
M  V30 1044 H 99.7007 -3.01192 -4.87808 0
M  V30 1045 H 98.0977 -3.77406 -4.66567 0
M  V30 1046 H 99.1677 -3.58524 -3.26479 0
M  V30 1047 N 100.511 1.16574 -1.06058 0
M  V30 1048 C 101.741 1.90675 -0.795397 0
M  V30 1049 C 102.149 1.77547 0.653735 0
M  V30 1050 O 101.492 1.11611 1.45907 0
M  V30 1051 C 101.554 3.42011 -1.10764 0
M  V30 1052 C 101.218 3.78924 -2.55471 0
M  V30 1053 C 102.215 3.81042 -3.53699 0
M  V30 1054 C 99.8998 4.09626 -2.90708 0
M  V30 1055 C 101.894 4.13346 -4.85205 0
M  V30 1056 C 99.5808 4.41597 -4.22416 0
M  V30 1057 C 100.579 4.43436 -5.19474 0
M  V30 1058 O 100.267 4.74649 -6.48817 0
M  V30 1059 H 99.9988 0.611554 -0.288058 0
M  V30 1060 H 102.553 1.48711 -1.41683 0
M  V30 1061 H 100.783 3.84312 -0.429128 0
M  V30 1062 H 102.472 3.97384 -0.827077 0
M  V30 1063 H 103.238 3.57437 -3.27817 0
M  V30 1064 H 99.1168 4.07361 -2.15819 0
M  V30 1065 H 102.661 4.14696 -5.60957 0
M  V30 1066 H 98.5578 4.64667 -4.48056 0
M  V30 1067 H 99.3258 4.9247 -6.5377 0
M  V30 1068 N 101.989 0.842826 1.3317 0
M  V30 1069 C 102.921 0.236245 2.27979 0
M  V30 1070 C 103.934 -0.585282 1.51915 0
M  V30 1071 O 105.123 -0.411705 1.73687 0
M  V30 1072 C 102.223 -0.685717 3.3189 0
M  V30 1073 C 101.396 0.0973448 4.37292 0
M  V30 1074 C 100.455 -0.748565 5.20848 0
M  V30 1075 O 99.4809 -0.186339 5.68895 0
M  V30 1076 N 100.683 -2.06527 5.42519 0
M  V30 1077 H 103.448 1.05088 2.80672 0
M  V30 1078 H 101.009 0.701667 1.45905 0
M  V30 1079 H 103.001 -1.25669 3.84694 0
M  V30 1080 H 101.571 -1.40105 2.79445 0
M  V30 1081 H 100.791 0.849706 3.84933 0
M  V30 1082 H 102.079 0.635643 5.04814 0
M  V30 1083 H 101.477 -2.54554 5.05192 0
M  V30 1084 H 100.034 -2.58464 5.98364 0
M  V30 1085 N 103.467 -1.45747 0.599634 0
M  V30 1086 C 104.697 -2.06369 0.0977132 0
M  V30 1087 C 105.105 -1.44624 -1.21985 0
M  V30 1088 O 104.448 -0.551831 -1.75216 0
M  V30 1089 C 104.51 -3.59284 -0.124673 0
M  V30 1090 C 104.174 -4.43318 1.10987 0
M  V30 1091 C 105.171 -4.78796 2.02609 0
M  V30 1092 C 102.856 -4.84194 1.33647 0
M  V30 1093 C 104.85 -5.53997 3.15224 0
M  V30 1094 C 102.537 -5.5915 2.46565 0
M  V30 1095 C 103.535 -5.93968 3.37182 0
M  V30 1096 O 103.223 -6.67405 4.48136 0
M  V30 1097 H 102.955 -0.673122 0.0623153 0
M  V30 1098 H 105.509 -1.88104 0.824981 0
M  V30 1099 H 103.739 -3.75919 -0.906745 0
M  V30 1100 H 105.428 -4.01775 -0.577201 0
M  V30 1101 H 106.194 -4.47781 1.86325 0
M  V30 1102 H 102.073 -4.56534 0.64016 0
M  V30 1103 H 105.617 -5.81091 3.85978 0
M  V30 1104 H 101.514 -5.89579 2.62805 0
M  V30 1105 H 102.282 -6.85847 4.46717 0
M  V30 1106 N 104.945 -0.338344 -1.53925 0
M  V30 1107 C 105.908 0.508299 -2.23493 0
M  V30 1108 C 106.908 1.03175 -1.23335 0
M  V30 1109 O 108.098 0.921826 -1.47811 0
M  V30 1110 C 105.23 1.70754 -2.95052 0
M  V30 1111 H 106.423 -0.100058 -2.99733 0
M  V30 1112 H 103.976 -0.0896198 -1.56043 0
M  V30 1113 H 104.711 2.35474 -2.22986 0
M  V30 1114 H 104.496 1.33946 -3.68512 0
M  V30 1115 H 105.986 2.30818 -3.48013 0
M  V30 1116 N 106.423 1.57458 -0.0668435 0
M  V30 1117 C 107.648 1.9804 0.616027 0
M  V30 1118 C 108.073 0.944771 1.62652 0
M  V30 1119 O 107.431 -0.0902094 1.81075 0
M  V30 1120 C 107.479 3.37665 1.26549 0
M  V30 1121 O 106.583 3.36701 2.38131 0
M  V30 1122 H 105.924 0.644719 0.158849 0
M  V30 1123 H 108.454 2.04121 -0.139891 0
M  V30 1124 H 108.464 3.7474 1.6135 0
M  V30 1125 H 107.139 4.12573 0.525016 0
M  V30 1126 H 105.716 3.1139 2.0516 0
M  V30 1127 N 107.901 -0.206675 1.56239 0
M  V30 1128 C 108.811 -1.27686 1.96808 0
M  V30 1129 C 109.827 -1.50455 0.874035 0
M  V30 1130 O 111.003 -1.63295 1.17884 0
M  V30 1131 C 108.068 -2.60358 2.28942 0
M  V30 1132 C 107.129 -2.45762 3.51994 0
M  V30 1133 C 106.362 -3.72108 3.82585 0
M  V30 1134 O 106.585 -4.75776 3.14631 0
M  V30 1135 O 105.519 -3.6833 4.76043 0
M  V30 1136 H 109.345 -0.962593 2.88041 0
M  V30 1137 H 106.93 -0.410746 1.43643 0
M  V30 1138 H 108.812 -3.38687 2.50737 0
M  V30 1139 H 107.487 -2.91435 1.4088 0
M  V30 1140 H 106.394 -1.65584 3.35459 0
M  V30 1141 H 107.727 -2.19621 4.40486 0
M  V30 1142 N 109.379 -1.50304 -0.473955 0
M  V30 1143 C 110.604 -1.65175 -1.25427 0
M  V30 1144 C 111.029 -0.333673 -1.85117 0
M  V30 1145 O 110.387 0.702114 -1.67153 0
M  V30 1146 C 110.435 -2.74295 -2.34082 0
M  V30 1147 O 109.539 -2.35349 -3.38651 0
M  V30 1148 H 108.88 -0.551944 -0.369126 0
M  V30 1149 H 111.41 -1.96662 -0.564364 0
M  V30 1150 H 111.42 -2.97285 -2.79438 0
M  V30 1151 H 110.095 -3.69959 -1.90008 0
M  V30 1152 H 108.672 -2.22794 -2.99027 0
M  V30 1153 N 110.857 0.726932 -1.39834 0
M  V30 1154 C 111.82 1.82269 -1.38962 0
M  V30 1155 C 112.82 1.58248 -0.285334 0
M  V30 1156 O 114.01 1.65499 -0.54366 0
M  V30 1157 C 111.142 3.20186 -1.17019 0
M  V30 1158 H 112.335 1.84443 -2.36476 0
M  V30 1159 H 109.888 0.931416 -1.25516 0
M  V30 1160 H 110.623 3.23669 -0.202204 0
M  V30 1161 H 110.408 3.3902 -1.96998 0
M  V30 1162 H 111.898 4.00235 -1.1917 0
M  V30 1163 N 112.336 1.25143 0.95797 0
M  V30 1164 C 113.747 1.08851 1.51685 0
M  V30 1165 C 114.098 -0.33687 1.93286 0
M  V30 1166 O 113.223 -1.22644 1.7829 0
M  V30 1167 C 113.818 1.96978 2.75654 0
M  V30 1168 C 112.377 1.84881 3.27866 0
M  V30 1169 C 111.524 1.91329 2.0072 0
M  V30 1170 H 114.475 1.38478 0.77522 0
M  V30 1171 H 114.496 1.5078 3.4935 0
M  V30 1172 H 114.008 3.00712 2.45345 0
M  V30 1173 H 112.109 0.840182 3.63004 0
M  V30 1174 H 112.222 2.6951 3.96107 0
M  V30 1175 H 110.586 1.35174 2.15871 0
M  V30 1176 H 111.369 2.96661 1.72764 0
M  V30 1177 N 113.814 -1.1601 1.06675 0
M  V30 1178 C 115.23 -1.38622 0.790948 0
M  V30 1179 C 115.43 -1.92109 -0.607965 0
M  V30 1180 O 114.486 -2.12239 -1.36787 0
M  V30 1181 C 115.799 -2.36347 1.85905 0
M  V30 1182 C 117.347 -2.50023 1.88301 0
M  V30 1183 C 117.822 -3.51033 2.94176 0
M  V30 1184 N 119.313 -3.58563 2.93235 0
M  V30 1185 C 120.048 -4.36521 3.71803 0
M  V30 1186 N 119.544 -5.17869 4.602 0
M  V30 1187 N 121.337 -4.31541 3.60178 0
M  V30 1188 H 113.488 -0.796294 1.96908 0
M  V30 1189 H 115.751 -0.412597 0.853503 0
M  V30 1190 H 115.457 -2.04147 2.86386 0
M  V30 1191 H 115.331 -3.36042 1.71334 0
M  V30 1192 H 117.718 -2.81524 0.884769 0
M  V30 1193 H 117.799 -1.5035 2.06951 0
M  V30 1194 H 117.443 -3.20268 3.94196 0
M  V30 1195 H 117.373 -4.50445 2.72776 0
M  V30 1196 H 119.864 -3.00496 2.29152 0
M  V30 1197 H 120.177 -5.74578 5.16797 0
M  V30 1198 H 118.522 -5.17199 4.64253 0
M  V30 1199 H 121.713 -3.67051 2.90502 0
M  V30 1200 H 121.886 -4.9205 4.21653 0
M  V30 1201 N 115.292 -0.849877 -1.32721 0
M  V30 1202 C 116.222 -0.306308 -2.31482 0
M  V30 1203 C 117.203 0.591952 -1.59468 0
M  V30 1204 O 118.388 0.513199 -1.87296 0
M  V30 1205 C 115.518 0.510204 -3.43532 0
M  V30 1206 C 114.472 -0.293209 -4.26994 0
M  V30 1207 C 113.798 0.647743 -5.30762 0
M  V30 1208 C 115.098 -1.51634 -4.99804 0
M  V30 1209 H 116.792 -1.13153 -2.77195 0
M  V30 1210 H 114.338 -0.545553 -1.33266 0
M  V30 1211 H 116.291 0.900856 -4.11658 0
M  V30 1212 H 115.015 1.36874 -2.96535 0
M  V30 1213 H 113.674 -0.665555 -3.60508 0
M  V30 1214 H 113.322 1.50299 -4.8002 0
M  V30 1215 H 113.022 0.11422 -5.87489 0
M  V30 1216 H 114.546 1.03567 -6.01753 0
M  V30 1217 H 115.96 -1.19824 -5.60638 0
M  V30 1218 H 114.357 -1.98745 -5.66234 0
M  V30 1219 H 115.427 -2.28018 -4.27943 0
M  V30 1220 N 116.77 1.45427 -0.607355 0
M  V30 1221 C 118.186 1.57283 -0.270985 0
M  V30 1222 C 118.386 1.59875 1.22647 0
M  V30 1223 O 117.442 1.52893 2.00948 0
M  V30 1224 C 118.755 2.85566 -0.941952 0
M  V30 1225 C 120.303 2.9924 -0.917849 0
M  V30 1226 C 120.778 4.30293 -1.56882 0
M  V30 1227 N 122.269 4.37051 -1.5343 0
M  V30 1228 C 123.004 5.37123 -2.00715 0
M  V30 1229 N 122.5 6.43734 -2.56084 0
M  V30 1230 N 124.293 5.28479 -1.91484 0
M  V30 1231 H 116.444 1.41988 -1.57966 0
M  V30 1232 H 118.707 0.67885 -0.661715 0
M  V30 1233 H 118.413 2.8955 -1.99633 0
M  V30 1234 H 118.287 3.74322 -0.465096 0
M  V30 1235 H 120.674 2.94822 0.127984 0
M  V30 1236 H 120.755 2.11895 -1.43297 0
M  V30 1237 H 120.399 4.35469 -2.61398 0
M  V30 1238 H 120.329 5.16454 -1.02873 0
M  V30 1239 H 122.82 3.60615 -1.12982 0
M  V30 1240 H 123.133 7.16341 -2.89958 0
M  V30 1241 H 121.478 6.44485 -2.60122 0
M  V30 1242 H 124.669 4.44098 -1.47967 0
M  V30 1243 H 124.842 6.0632 -2.28648 0
M  V30 1244 N 118.248 0.346503 1.53744 0
M  V30 1245 C 119.473 -0.253074 2.0585 0
M  V30 1246 C 119.898 -1.43202 1.21962 0
M  V30 1247 O 119.256 -1.79783 0.234073 0
M  V30 1248 C 119.304 -0.643193 3.54817 0
M  V30 1249 O 118.408 -1.74286 3.73762 0
M  V30 1250 H 117.749 -0.0413583 0.662711 0
M  V30 1251 H 120.279 0.501574 1.98357 0
M  V30 1252 H 120.289 -0.919526 3.97503 0
M  V30 1253 H 118.964 0.218966 4.15323 0
M  V30 1254 H 117.541 -1.46356 3.42979 0
M  V30 1255 N 119.726 -1.57421 0.075193 0
M  V30 1256 C 120.689 -2.11791 -0.876203 0
M  V30 1257 C 121.689 -1.04268 -1.22412 0
M  V30 1258 O 122.879 -1.30242 -1.15684 0
M  V30 1259 C 120.011 -2.62207 -2.17854 0
M  V30 1260 H 121.204 -2.9716 -0.40444 0
M  V30 1261 H 118.757 -1.55333 -0.173557 0
M  V30 1262 H 119.492 -1.803 -2.6956 0
M  V30 1263 H 119.277 -3.40802 -1.93897 0
M  V30 1264 H 120.767 -3.04335 -2.85955 0
M  V30 1265 N 121.204 0.198386 -1.56346 0
M  V30 1266 C 122.615 0.763358 -1.70381 0
M  V30 1267 C 122.966 1.83995 -0.681203 0
M  V30 1268 O 122.091 2.15785 0.16305 0
M  V30 1269 C 122.686 1.39143 -3.08909 0
M  V30 1270 C 121.245 1.90352 -3.2472 0
M  V30 1271 C 120.392 0.772233 -2.6633 0
M  V30 1272 H 123.343 -0.0266377 -1.58678 0
M  V30 1273 H 123.364 2.26076 -3.06055 0
M  V30 1274 H 122.876 0.607638 -3.83314 0
M  V30 1275 H 120.977 2.71461 -2.55225 0
M  V30 1276 H 121.09 2.06757 -4.3219 0
M  V30 1277 H 119.454 1.18566 -2.2542 0
M  V30 1278 H 120.237 0.00073556 -3.433 0
M  V30 1279 N 122.682 1.50554 0.465978 0
M  V30 1280 C 123.63 1.70324 1.58406 0
M  V30 1281 C 124.624 0.569139 1.59553 0
M  V30 1282 O 125.83 0.749776 1.63641 0
M  V30 1283 H 122.205 0.537688 0.525734 0
M  V30 1284 H 124.176 2.64104 1.38894 0
M  V30 1285 C 122.925 1.81928 2.96307 0
M  V30 1286 H 122.248 2.68586 2.96144 0
M  V30 1287 H 123.688 1.99784 3.73982 0
M  V30 1288 C 122.147 0.572095 3.32007 0
M  V30 1289 O 122.677 -0.286416 4.00678 0
M  V30 1290 N 120.883 0.424606 2.87481 0
M  V30 1291 H 120.43 1.12427 2.31771 0
M  V30 1292 H 120.388 -0.408697 3.11732 0
M  V30 1293 N 124.16 -0.719506 1.40217 0
M  V30 1294 C 125.4 -1.49181 1.39729 0
M  V30 1295 C 125.764 -1.92 -0.00250614 0
M  V30 1296 O 126.965 -2.68473 -0.132479 0
M  V30 1297 C 125.236 -2.68767 2.35582 0
M  V30 1298 S 126.795 -3.58224 2.53418 0
M  V30 1299 H 123.613 -0.510091 0.495307 0
M  V30 1300 H 126.215 -0.841724 1.76452 0
M  V30 1301 H 124.919 -2.35475 3.36124 0
M  V30 1302 H 124.45 -3.38691 2.0013 0
M  V30 1303 H 126.465 -4.63033 1.78367 0
M  V30 1304 N 125.638 -1.25649 -0.95132 0
M  V30 1305 C 126.887 -1.09988 -1.69073 0
M  V30 1306 C 127.2 0.358355 -1.92289 0
M  V30 1307 O 128.406 0.635466 -2.63958 0
M  V30 1308 C 126.862 -1.92012 -3.044 0
M  V30 1309 C 126.47 -3.42347 -2.88968 0
M  V30 1310 C 128.214 -1.8493 -3.82101 0
M  V30 1311 C 126.121 -4.16655 -4.19705 0
M  V30 1312 H 125.051 -0.407993 -0.63408 0
M  V30 1313 H 127.702 -1.49873 -1.05879 0
M  V30 1314 H 126.084 -1.44952 -3.68517 0
M  V30 1315 H 127.258 -3.97104 -2.33762 0
M  V30 1316 H 125.573 -3.50557 -2.24719 0
M  V30 1317 H 128.17 -2.37739 -4.78941 0
M  V30 1318 H 128.513 -0.817883 -4.08187 0
M  V30 1319 H 129.046 -2.29758 -3.2474 0
M  V30 1320 H 125.785 -5.20224 -3.98807 0
M  V30 1321 H 125.305 -3.66681 -4.74663 0
M  V30 1322 H 126.984 -4.24551 -4.88227 0
M  V30 1323 N 127.117 1.15442 -1.07289 0
M  V30 1324 C 128.047 2.22312 -0.714107 0
M  V30 1325 C 129.028 1.67467 0.298155 0
M  V30 1326 O 130.213 1.93445 0.171048 0
M  V30 1327 C 127.343 3.47124 -0.110448 0
M  V30 1328 C 126.297 4.14926 -1.04979 0
M  V30 1329 C 125.623 5.33807 -0.308924 0
M  V30 1330 C 126.923 4.64762 -2.38314 0
M  V30 1331 H 128.617 2.5258 -1.6076 0
M  V30 1332 H 126.163 1.21404 -0.77441 0
M  V30 1333 H 128.116 4.21124 0.152482 0
M  V30 1334 H 126.84 3.16187 0.81812 0
M  V30 1335 H 125.499 3.42866 -1.29764 0
M  V30 1336 H 125.147 4.99126 0.623084 0
M  V30 1337 H 124.847 5.80113 -0.935036 0
M  V30 1338 H 126.371 6.10576 -0.0537771 0
M  V30 1339 H 127.785 5.30292 -2.1786 0
M  V30 1340 H 126.182 5.21728 -2.96514 0
M  V30 1341 H 127.252 3.80434 -3.00663 0
M  V30 1342 N 128.595 0.856903 1.32268 0
M  V30 1343 C 129.525 0.31858 2.31316 0
M  V30 1344 C 130.506 -0.583487 1.59779 0
M  V30 1345 O 131.691 -0.503259 1.87566 0
M  V30 1346 C 128.821 -0.491979 3.43798 0
M  V30 1347 C 127.775 0.315849 4.26833 0
M  V30 1348 C 127.101 -0.619586 5.31098 0
M  V30 1349 C 128.401 1.54282 4.98993 0
M  V30 1350 H 130.095 1.14621 2.76591 0
M  V30 1351 H 127.641 0.552613 1.32974 0
M  V30 1352 H 129.594 -0.879012 4.1213 0
M  V30 1353 H 128.318 -1.35299 2.97257 0
M  V30 1354 H 126.977 0.684664 3.6015 0
M  V30 1355 H 126.625 -1.47751 4.8081 0
M  V30 1356 H 126.325 -0.0830621 5.87541 0
M  V30 1357 H 127.849 -1.00375 6.02293 0
M  V30 1358 H 129.263 1.22796 5.59995 0
M  V30 1359 H 127.66 2.01745 5.65172 0
M  V30 1360 H 128.73 2.30285 4.26728 0
M  V30 1361 N 130.073 -1.45103 0.615059 0
M  V30 1362 C 131.036 -2.29025 -0.0895485 0
M  V30 1363 C 132.036 -1.40174 -0.787906 0
M  V30 1364 O 133.226 -1.62217 -0.634933 0
M  V30 1365 C 130.358 -3.21376 -1.13711 0
M  V30 1366 H 131.551 -2.92807 0.648382 0
M  V30 1367 H 129.104 -1.51749 0.374444 0
M  V30 1368 H 129.839 -2.6241 -1.90556 0
M  V30 1369 H 129.624 -3.86834 -0.640475 0
M  V30 1370 H 131.114 -3.84459 -1.63036 0
M  V30 1371 N 131.551 -0.354651 -1.53558 0
M  V30 1372 C 132.484 0.540273 -2.21712 0
M  V30 1373 C 133.462 1.09161 -1.2051 0
M  V30 1374 O 134.646 1.14979 -1.49372 0
M  V30 1375 C 131.773 1.74435 -2.90328 0
M  V30 1376 C 130.819 1.32146 -4.05512 0
M  V30 1377 S 131.652 0.331924 -5.3447 0
M  V30 1378 C 132.808 1.54258 -6.06593 0
M  V30 1379 H 133.041 -0.0385776 -2.97275 0
M  V30 1380 H 130.574 -0.138736 -1.53775 0
M  V30 1381 H 132.532 2.43507 -3.30476 0
M  V30 1382 H 131.193 2.29444 -2.1451 0
M  V30 1383 H 130.386 2.21952 -4.52497 0
M  V30 1384 H 129.988 0.710091 -3.67197 0
M  V30 1385 H 132.28 2.47534 -6.30661 0
M  V30 1386 H 133.223 1.11431 -6.99277 0
M  V30 1387 H 133.631 1.74367 -5.36895 0
M  V30 1388 N 133.029 1.57378 -0.0835403 0
M  V30 1389 C 134.276 1.9393 0.58287 0
M  V30 1390 C 134.604 0.964455 1.68904 0
M  V30 1391 O 133.859 -0.0179474 1.95692 0
M  V30 1392 C 134.158 3.37063 1.1884 0
M  V30 1393 C 133.824 4.50424 0.207194 0
M  V30 1394 C 132.486 4.81159 -0.0627115 0
M  V30 1395 C 134.838 5.19136 -0.463426 0
M  V30 1396 C 132.166 5.77939 -1.01012 0
M  V30 1397 C 134.518 6.16931 -1.39924 0
M  V30 1398 C 133.182 6.46078 -1.67749 0
M  V30 1399 H 132.452 0.70964 0.213287 0
M  V30 1400 H 135.099 1.90856 -0.156916 0
M  V30 1401 H 133.404 3.3666 2.00418 0
M  V30 1402 H 135.101 3.6264 1.71153 0
M  V30 1403 H 131.691 4.2646 0.427747 0
M  V30 1404 H 135.875 4.95576 -0.268034 0
M  V30 1405 H 131.131 5.98842 -1.23283 0
M  V30 1406 H 135.305 6.69273 -1.92476 0
M  V30 1407 H 132.932 7.2088 -2.41321 0
M  V30 1408 N 134.507 -0.190092 1.56449 0
M  V30 1409 C 135.437 -1.23816 1.97969 0
M  V30 1410 C 136.418 -1.47201 0.852395 0
M  V30 1411 O 137.603 -1.58854 1.1171 0
M  V30 1412 C 134.733 -2.5813 2.3235 0
M  V30 1413 C 133.687 -2.49348 3.47864 0
M  V30 1414 C 133.013 -3.8798 3.67934 0
M  V30 1415 C 134.313 -2.01424 4.81898 0
M  V30 1416 H 136.007 -0.89311 2.85769 0
M  V30 1417 H 133.553 -0.428177 1.37487 0
M  V30 1418 H 135.506 -3.31637 2.59991 0
M  V30 1419 H 134.23 -2.94386 1.41438 0
M  V30 1420 H 132.889 -1.78297 3.20321 0
M  V30 1421 H 132.537 -4.21597 2.74344 0
M  V30 1422 H 132.237 -3.82978 4.45648 0
M  V30 1423 H 133.761 -4.63101 3.97957 0
M  V30 1424 H 135.175 -2.64693 5.08538 0
M  V30 1425 H 133.572 -2.07413 5.63116 0
M  V30 1426 H 134.642 -0.967677 4.75146 0
M  V30 1427 N 135.985 -1.50799 -0.457987 0
M  V30 1428 C 137.231 -1.62683 -1.21088 0
M  V30 1429 C 137.564 -0.332268 -1.91336 0
M  V30 1430 O 136.839 0.667043 -1.82704 0
M  V30 1431 C 137.122 -2.81615 -2.24422 0
M  V30 1432 C 136.975 -4.20989 -1.58392 0
M  V30 1433 C 138.294 -2.96085 -3.2561 0
M  V30 1434 H 135.413 -0.592087 -0.438864 0
M  V30 1435 H 138.055 -1.83225 -0.50286 0
M  V30 1436 H 136.205 -2.64231 -2.84806 0
M  V30 1437 H 137.877 -4.49994 -1.01504 0
M  V30 1438 H 136.12 -4.24641 -0.886704 0
M  V30 1439 H 136.791 -5.0016 -2.33547 0
M  V30 1440 H 139.267 -3.12042 -2.75262 0
M  V30 1441 H 138.143 -3.80902 -3.95228 0
M  V30 1442 H 138.404 -2.0726 -3.90507 0
M  V30 1443 N 137.463 0.71206 -1.40597 0
M  V30 1444 C 138.413 1.81783 -1.37619 0
M  V30 1445 C 139.397 1.58896 -0.253162 0
M  V30 1446 O 140.589 1.70009 -0.492547 0
M  V30 1447 C 137.718 3.19944 -1.24462 0
M  V30 1448 C 136.804 3.48582 -2.4156 0
M  V30 1449 N 137.195 3.48016 -3.67041 0
M  V30 1450 C 135.493 3.79056 -2.35016 0
M  V30 1451 C 136.194 3.75096 -4.44609 0
M  V30 1452 N 135.17 3.94022 -3.74497 0
M  V30 1453 H 138.972 1.79683 -2.32575 0
M  V30 1454 H 136.486 0.91134 -1.34419 0
M  V30 1455 H 138.483 3.99133 -1.20411 0
M  V30 1456 H 137.143 3.23267 -0.304762 0
M  V30 1457 H 138.154 3.28782 -4.00153 0
M  V30 1458 H 134.831 3.89848 -1.49415 0
M  V30 1459 H 136.221 3.80934 -5.53479 0
M  V30 1460 N 138.941 1.26152 0.944643 0
M  V30 1461 C 140.171 1.14094 1.72239 0
M  V30 1462 C 140.579 -0.306931 1.86694 0
M  V30 1463 O 139.922 -1.22222 1.3714 0
M  V30 1464 C 139.984 1.73316 3.14963 0
M  V30 1465 C 139.648 3.2239 3.23904 0
M  V30 1466 C 140.645 4.19252 3.07447 0
M  V30 1467 C 138.33 3.62788 3.47405 0
M  V30 1468 C 140.324 5.54491 3.14353 0
M  V30 1469 C 138.011 4.98162 3.53947 0
M  V30 1470 C 139.009 5.93823 3.37436 0
M  V30 1471 O 138.697 7.26732 3.43679 0
M  V30 1472 H 138.429 0.398292 0.546205 0
M  V30 1473 H 140.983 1.67201 1.19301 0
M  V30 1474 H 139.213 1.14667 3.69308 0
M  V30 1475 H 140.902 1.56214 3.74636 0
M  V30 1476 H 141.668 3.8938 2.8915 0
M  V30 1477 H 137.547 2.88816 3.59313 0
M  V30 1478 H 141.091 6.29137 3.01384 0
M  V30 1479 H 136.988 5.27695 3.71763 0
M  V30 1480 H 137.756 7.3496 3.60245 0
M  V30 1481 N 140.419 -1.14872 1.07899 0
M  V30 1482 C 141.667 -1.85422 0.803941 0
M  V30 1483 C 141.988 -1.83051 -0.67211 0
M  V30 1484 O 141.258 -1.27532 -1.48703 0
M  V30 1485 H 139.838 -0.686537 0.294408 0
M  V30 1486 H 142.5 -1.39226 1.3639 0
M  V30 1487 H 141.596 -2.90399 1.14346 0
M  V30 1488 N 141.898 -0.863906 -1.31812 0
M  V30 1489 C 142.848 -0.286898 -2.26188 0
M  V30 1490 C 143.832 0.572577 -1.50367 0
M  V30 1491 O 145.024 0.420447 -1.71934 0
M  V30 1492 C 142.153 0.515849 -3.39402 0
M  V30 1493 C 141.239 -0.356531 -4.22599 0
M  V30 1494 N 141.63 -1.44716 -4.84656 0
M  V30 1495 C 139.928 -0.147898 -4.45755 0
M  V30 1496 C 140.629 -1.98462 -5.46798 0
M  V30 1497 N 139.605 -1.28247 -5.28255 0
M  V30 1498 H 143.407 -1.12055 -2.717 0
M  V30 1499 H 140.921 -0.711012 -1.46008 0
M  V30 1500 H 142.918 0.945701 -4.06032 0
M  V30 1501 H 141.578 1.34718 -2.95434 0
M  V30 1502 H 142.589 -1.83008 -4.84488 0
M  V30 1503 H 139.266 0.647973 -4.12441 0
M  V30 1504 H 140.656 -2.89932 -6.06126 0
M  V30 1505 N 143.376 1.44774 -0.622745 0
M  V30 1506 C 144.792 1.56986 -0.287652 0
M  V30 1507 C 144.992 1.61167 1.20944 0
M  V30 1508 O 144.048 1.55015 1.99315 0
M  V30 1509 C 145.361 2.84551 -0.972188 0
M  V30 1510 C 146.909 2.9825 -0.949536 0
M  V30 1511 C 147.384 4.28605 -1.61437 0
M  V30 1512 N 148.875 4.35399 -1.58057 0
M  V30 1513 C 149.61 5.34964 -2.064 0
M  V30 1514 N 149.106 6.40981 -2.62897 0
M  V30 1515 N 150.899 5.26419 -1.97078 0
M  V30 1516 H 143.05 1.40304 -1.59463 0
M  V30 1517 H 145.313 0.671794 -0.668878 0
M  V30 1518 H 145.019 2.87417 -2.02693 0
M  V30 1519 H 144.893 3.73807 -0.504771 0
M  V30 1520 H 147.28 2.94941 0.0967067 0
M  V30 1521 H 147.361 2.10364 -1.45536 0
M  V30 1522 H 147.005 4.32672 -2.66002 0
M  V30 1523 H 146.935 5.15334 -1.08344 0
M  V30 1524 H 149.426 3.59397 -1.16801 0
M  V30 1525 H 149.739 7.13225 -2.97539 0
M  V30 1526 H 148.084 6.4169 -2.66943 0
M  V30 1527 H 151.275 4.42504 -1.52669 0
M  V30 1528 H 151.448 6.03861 -2.35066 0
M  V30 1529 N 144.854 0.36279 1.53368 0
M  V30 1530 C 146.094 -0.227882 2.03126 0
M  V30 1531 C 146.458 -1.4622 1.24434 0
M  V30 1532 O 147.659 -2.12831 1.64184 0
M  V30 1533 C 145.93 -0.515427 3.53664 0
M  V30 1534 S 147.489 -1.08017 4.25297 0
M  V30 1535 H 144.307 -0.0665377 0.70788 0
M  V30 1536 H 146.909 0.50501 1.88865 0
M  V30 1537 H 145.613 0.390436 4.08539 0
M  V30 1538 H 145.144 -1.27747 3.72081 0
M  V30 1539 H 147.159 -2.36462 4.36234 0
M  V30 1540 N 146.332 -1.57332 0.0918853 0
M  V30 1541 C 147.262 -2.16872 -0.865371 0
M  V30 1542 C 148.243 -1.10118 -1.29646 0
M  V30 1543 O 149.428 -1.38242 -1.36392 0
M  V30 1544 C 146.558 -2.74649 -2.12569 0
M  V30 1545 C 145.512 -3.86747 -1.83333 0
M  V30 1546 C 144.838 -4.31212 -3.16166 0
M  V30 1547 C 146.138 -5.10089 -1.1228 0
M  V30 1548 H 147.832 -2.97114 -0.369307 0
M  V30 1549 H 145.378 -1.42918 -0.176194 0
M  V30 1550 H 147.331 -3.14952 -2.7997 0
M  V30 1551 H 146.055 -1.91657 -2.64452 0
M  V30 1552 H 144.714 -3.46978 -1.18331 0
M  V30 1553 H 144.362 -3.45115 -3.6593 0
M  V30 1554 H 144.062 -5.06788 -2.97388 0
M  V30 1555 H 145.586 -4.74146 -3.84731 0
M  V30 1556 H 147 -5.47582 -1.69785 0
M  V30 1557 H 145.397 -5.91073 -1.03693 0
M  V30 1558 H 146.467 -4.84786 -0.105041 0
M  V30 1559 N 147.81 0.181792 -1.56548 0
M  V30 1560 C 149.059 0.898348 -1.8059 0
M  V30 1561 C 149.372 1.83862 -0.667379 0
M  V30 1562 O 150.578 2.59678 -0.792446 0
M  V30 1563 C 149.034 1.64791 -3.19956 0
M  V30 1564 C 148.642 0.751789 -4.41647 0
M  V30 1565 C 150.386 2.35331 -3.53298 0
M  V30 1566 C 148.293 1.50098 -5.72035 0
M  V30 1567 H 147.223 0.339194 -0.673397 0
M  V30 1568 H 149.874 0.151413 -1.82874 0
M  V30 1569 H 148.256 2.43921 -3.11959 0
M  V30 1570 H 149.43 -0.0018076 -4.608 0
M  V30 1571 H 147.745 0.156562 -4.16106 0
M  V30 1572 H 150.342 2.91958 -4.47956 0
M  V30 1573 H 150.685 3.10164 -2.77676 0
M  V30 1574 H 151.218 1.63154 -3.62803 0
M  V30 1575 H 147.957 0.795175 -6.50659 0
M  V30 1576 H 147.477 2.22817 -5.56878 0
M  V30 1577 H 149.156 2.05125 -6.13622 0
M  V30 1578 N 149.288 1.51039 0.449983 0
M  V30 1579 C 150.518 1.66627 1.22143 0
M  V30 1580 C 150.926 0.357776 1.85786 0
M  V30 1581 O 150.269 -0.672424 1.70951 0
M  V30 1582 C 150.331 2.71562 2.35573 0
M  V30 1583 C 149.995 4.14526 1.92399 0
M  V30 1584 C 150.992 4.99717 1.43453 0
M  V30 1585 C 148.677 4.60559 2.00475 0
M  V30 1586 C 150.671 6.28998 1.03155 0
M  V30 1587 C 148.358 5.8984 1.59788 0
M  V30 1588 C 149.356 6.73886 1.11208 0
M  V30 1589 O 149.044 8.0075 0.710935 0
M  V30 1590 H 148.776 0.562635 0.374724 0
M  V30 1591 H 151.33 1.98146 0.541036 0
M  V30 1592 H 149.56 2.3533 3.06849 0
M  V30 1593 H 151.249 2.76156 2.97478 0
M  V30 1594 H 152.015 4.65361 1.36618 0
M  V30 1595 H 147.894 3.95273 2.37235 0
M  V30 1596 H 151.438 6.9455 0.651663 0
M  V30 1597 H 147.335 6.23713 1.66289 0
M  V30 1598 H 148.103 8.142 0.837913 0
M  V30 1599 N 150.766 -0.704594 1.40972 0
M  V30 1600 C 152.177 -1.28418 1.3552 0
M  V30 1601 C 152.528 -1.96171 0.0339434 0
M  V30 1602 O 151.653 -1.98231 -0.867944 0
M  V30 1603 C 152.248 -2.33528 2.45459 0
M  V30 1604 C 150.807 -2.87085 2.43433 0
M  V30 1605 C 149.954 -1.61007 2.2577 0
M  V30 1606 H 152.905 -0.499963 1.50619 0
M  V30 1607 H 152.926 -3.14619 2.13998 0
M  V30 1608 H 152.438 -1.84187 3.41609 0
M  V30 1609 H 150.539 -3.40626 1.51013 0
M  V30 1610 H 150.652 -3.3813 3.39419 0
M  V30 1611 H 149.016 -1.86482 1.73483 0
M  V30 1612 H 149.799 -1.13675 3.23933 0
M  V30 1613 N 152.244 -1.26651 -0.937939 0
M  V30 1614 C 153.491 -1.12387 -1.6845 0
M  V30 1615 C 153.819 0.332208 -1.91642 0
M  V30 1616 O 153.074 1.2602 -1.49725 0
M  V30 1617 C 153.373 -1.84168 -3.06295 0
M  V30 1618 C 153.039 -3.34056 -3.02849 0
M  V30 1619 C 151.701 -3.74942 -3.01616 0
M  V30 1620 C 154.053 -4.29741 -2.9491 0
M  V30 1621 C 151.381 -5.09894 -2.90215 0
M  V30 1622 C 153.733 -5.64738 -2.8505 0
M  V30 1623 C 152.397 -6.0493 -2.82162 0
M  V30 1624 H 151.667 -0.411252 -0.616403 0
M  V30 1625 H 154.314 -1.57134 -1.09459 0
M  V30 1626 H 152.619 -1.319 -3.6893 0
M  V30 1627 H 154.316 -1.70569 -3.62915 0
M  V30 1628 H 150.906 -3.01534 -3.0459 0
M  V30 1629 H 155.09 -3.99133 -2.94969 0
M  V30 1630 H 150.346 -5.40194 -2.86358 0
M  V30 1631 H 154.52 -6.38561 -2.77872 0
M  V30 1632 H 152.147 -7.09457 -2.73084 0
M  V30 1633 N 153.722 1.14298 -1.08507 0
M  V30 1634 C 154.652 2.21542 -0.737646 0
M  V30 1635 C 155.633 1.67773 0.280377 0
M  V30 1636 O 156.818 1.93616 0.150521 0
M  V30 1637 C 153.948 3.46988 -0.147259 0
M  V30 1638 C 152.902 4.13789 -1.09374 0
M  V30 1639 C 152.228 5.33449 -0.365524 0
M  V30 1640 C 153.528 4.62208 -2.4323 0
M  V30 1641 H 155.222 2.5086 -1.6343 0
M  V30 1642 H 152.768 1.20576 -0.787243 0
M  V30 1643 H 154.721 4.21262 0.107808 0
M  V30 1644 H 153.445 3.17037 0.784538 0
M  V30 1645 H 152.104 3.4147 -1.33393 0
M  V30 1646 H 151.752 4.99759 0.57011 0
M  V30 1647 H 151.452 5.79088 -0.996512 0
M  V30 1648 H 152.976 6.10485 -0.118534 0
M  V30 1649 H 154.39 5.27952 -2.23472 0
M  V30 1650 H 152.787 5.18553 -3.02031 0
M  V30 1651 H 153.857 3.77224 -3.04681 0
M  V30 1652 N 155.201 0.870884 1.31352 0
M  V30 1653 C 156.134 0.271983 2.26573 0
M  V30 1654 C 157.112 -0.599385 1.51149 0
M  V30 1655 O 158.296 -0.552605 1.80218 0
M  V30 1656 C 155.423 -0.614801 3.33073 0
M  V30 1657 C 154.469 0.185342 4.26097 0
M  V30 1658 S 155.302 1.56444 5.12138 0
M  V30 1659 C 156.458 0.683807 6.22153 0
M  V30 1660 H 156.691 1.07916 2.77023 0
M  V30 1661 H 154.224 0.669459 1.39132 0
M  V30 1662 H 156.182 -1.12074 3.94905 0
M  V30 1663 H 154.843 -1.39593 2.81376 0
M  V30 1664 H 154.036 -0.490771 5.01605 0
M  V30 1665 H 153.638 0.623415 3.68768 0
M  V30 1666 H 155.93 -0.10521 6.77418 0
M  V30 1667 H 156.873 1.41004 6.93919 0
M  V30 1668 H 157.281 0.250952 5.63942 0
M  V30 1669 N 156.679 -1.44442 0.630414 0
M  V30 1670 C 158.095 -1.56832 0.295973 0
M  V30 1671 C 158.295 -1.61806 -1.20088 0
M  V30 1672 O 157.351 -1.5607 -1.9849 0
M  V30 1673 C 158.664 -2.84031 0.987264 0
M  V30 1674 C 160.212 -2.97742 0.96534 0
M  V30 1675 C 160.687 -4.27743 1.63708 0
M  V30 1676 N 162.178 -4.34555 1.60364 0
M  V30 1677 C 162.913 -5.33862 2.09234 0
M  V30 1678 N 162.409 -6.39578 2.66292 0
M  V30 1679 N 164.202 -5.25366 1.99867 0
M  V30 1680 H 156.353 -1.39457 1.60205 0
M  V30 1681 H 158.616 -0.668237 0.672431 0
M  V30 1682 H 158.322 -2.86338 2.04215 0
M  V30 1683 H 158.196 -3.73534 0.524588 0
M  V30 1684 H 160.583 -2.94989 -0.0810639 0
M  V30 1685 H 160.664 -2.09589 1.4665 0
M  V30 1686 H 160.308 -4.31255 2.68293 0
M  V30 1687 H 160.238 -5.14752 1.11076 0
M  V30 1688 H 162.729 -3.58772 1.18705 0
M  V30 1689 H 163.042 -7.11637 3.01317 0
M  V30 1690 H 161.387 -6.40265 2.70343 0
M  V30 1691 H 164.578 -4.41688 1.55013 0
M  V30 1692 H 164.751 -6.02606 2.38265 0
M  V30 1693 N 158.157 -0.370918 -1.53173 0
M  V30 1694 C 159.405 0.216673 -2.00935 0
M  V30 1695 C 159.726 1.48845 -1.25977 0
M  V30 1696 O 158.996 1.92286 -0.374551 0
M  V30 1697 H 157.576 0.0830565 -0.742368 0
M  V30 1698 H 160.238 -0.49838 -1.8842 0
M  V30 1699 H 159.334 0.439893 -3.08984 0
M  V30 1700 N 159.635 1.57281 -0.100228 0
M  V30 1701 C 160.883 1.94153 0.561157 0
M  V30 1702 C 161.204 0.983157 1.68401 0
M  V30 1703 O 160.474 0.0361132 1.95867 0
M  V30 1704 H 159.054 0.716791 0.210283 0
M  V30 1705 H 161.716 1.94202 -0.164765 0
M  V30 1706 H 160.812 2.96709 0.968008 0
M  V30 1707 N 161.113 -0.173488 1.56642 0
M  V30 1708 C 162.06 -1.21482 1.96242 0
M  V30 1709 C 163.03 -1.44104 0.826027 0
M  V30 1710 O 164.215 -1.5688 1.08597 0
M  V30 1711 C 161.355 -2.54964 2.32567 0
M  V30 1712 C 160.468 -2.39739 3.59373 0
M  V30 1713 C 159.603 -3.66072 3.84921 0
M  V30 1714 C 158.642 -3.45771 5.05083 0
M  V30 1715 N 157.779 -4.64169 5.26775 0
M  V30 1716 H 162.619 -0.870123 2.85014 0
M  V30 1717 H 160.156 -0.418245 1.41029 0
M  V30 1718 H 162.114 -3.32758 2.5165 0
M  V30 1719 H 160.744 -2.87433 1.46908 0
M  V30 1720 H 159.796 -1.53131 3.48217 0
M  V30 1721 H 161.108 -2.20683 4.47326 0
M  V30 1722 H 160.262 -4.52303 4.0436 0
M  V30 1723 H 159.001 -3.88105 2.9534 0
M  V30 1724 H 158.006 -2.57927 4.85545 0
M  V30 1725 H 159.231 -3.25163 5.96193 0
M  V30 1726 H 157.177 -4.86425 4.40144 0
M  V30 1727 H 157.094 -4.48019 6.08946 0
M  V30 1728 H 158.362 -5.51689 5.5069 0
M  V30 1729 N 162.591 -1.51276 -0.441967 0
M  V30 1730 C 164.002 -1.56244 -1.02199 0
M  V30 1731 C 164.353 -0.383149 -1.92422 0
M  V30 1732 O 163.478 0.500613 -2.1053 0
M  V30 1733 C 164.073 -2.83162 -1.86024 0
M  V30 1734 C 162.632 -2.90716 -2.39084 0
M  V30 1735 C 161.779 -2.50858 -1.18175 0
M  V30 1736 H 164.73 -1.5712 -0.223416 0
M  V30 1737 H 164.751 -2.66663 -2.71425 0
M  V30 1738 H 164.263 -3.68974 -1.20331 0
M  V30 1739 H 162.364 -2.09323 -3.08244 0
M  V30 1740 H 162.477 -3.94266 -2.72198 0
M  V30 1741 H 160.841 -2.03951 -1.52565 0
M  V30 1742 H 161.624 -3.3901 -0.541001 0
M  V30 1743 N 164.069 0.697108 -1.41344 0
M  V30 1744 C 165.002 1.82134 -1.37486 0
M  V30 1745 C 165.98 1.60784 -0.242351 0
M  V30 1746 O 167.164 1.83553 -0.429012 0
M  V30 1747 C 164.291 3.18788 -1.14421 0
M  V30 1748 C 163.337 3.58932 -2.3037 0
M  V30 1749 S 164.17 3.63916 -3.92843 0
M  V30 1750 C 165.326 5.03298 -3.72078 0
M  V30 1751 H 165.559 1.85129 -2.32625 0
M  V30 1752 H 163.092 0.865671 -1.2785 0
M  V30 1753 H 165.05 3.97677 -1.018 0
M  V30 1754 H 163.711 3.13404 -0.20905 0
M  V30 1755 H 162.904 4.58202 -2.09922 0
M  V30 1756 H 162.506 2.87347 -2.39391 0
M  V30 1757 H 164.798 5.90753 -3.31688 0
M  V30 1758 H 165.741 5.28788 -4.70945 0
M  V30 1759 H 166.149 4.74764 -3.05384 0
M  V30 1760 N 165.547 1.27147 0.931209 0
M  V30 1761 C 166.958 1.12044 1.49342 0
M  V30 1762 C 167.309 -0.295795 1.93957 0
M  V30 1763 O 166.434 -1.18835 1.80852 0
M  V30 1764 C 167.029 2.02781 2.71414 0
M  V30 1765 C 165.588 1.91794 3.2387 0
M  V30 1766 C 164.735 1.95543 1.96617 0
M  V30 1767 H 167.686 1.40091 0.745672 0
M  V30 1768 H 167.707 1.58156 3.46074 0
M  V30 1769 H 167.219 3.05848 2.38911 0
M  V30 1770 H 165.32 0.916992 3.6114 0
M  V30 1771 H 165.433 2.77852 3.90302 0
M  V30 1772 H 163.797 1.39722 2.12955 0
M  V30 1773 H 164.58 3.00259 1.66432 0
M  V30 1774 N 167.025 -1.13721 1.09112 0
M  V30 1775 C 167.955 -2.21148 0.749385 0
M  V30 1776 C 168.936 -1.6792 -0.271475 0
M  V30 1777 O 170.121 -1.93693 -0.140251 0
M  V30 1778 C 167.251 -3.46905 0.165659 0
M  V30 1779 C 166.205 -4.13203 1.11567 0
M  V30 1780 C 165.531 -5.33248 0.393809 0
M  V30 1781 C 166.831 -4.60912 2.45678 0
M  V30 1782 H 168.525 -2.4999 1.64758 0
M  V30 1783 H 166.071 -1.20156 0.793626 0
M  V30 1784 H 168.024 -4.21313 -0.085466 0
M  V30 1785 H 166.748 -3.17449 -0.767714 0
M  V30 1786 H 165.407 -3.40758 1.35202 0
M  V30 1787 H 165.055 -5.00054 -0.543599 0
M  V30 1788 H 164.755 -5.78552 1.02721 0
M  V30 1789 H 166.279 -6.10413 0.150908 0
M  V30 1790 H 167.693 -5.26759 2.26269 0
M  V30 1791 H 166.09 -5.16944 3.04776 0
M  V30 1792 H 167.16 -3.75603 3.06677 0
M  V30 1793 N 168.503 -0.877838 -1.30888 0
M  V30 1794 C 169.433 -0.35534 -2.3078 0
M  V30 1795 C 170.414 0.557994 -1.60687 0
M  V30 1796 O 171.599 0.473355 -1.88343 0
M  V30 1797 C 168.729 0.437221 -3.44537 0
M  V30 1798 C 167.683 -0.383715 -4.26276 0
M  V30 1799 C 167.009 0.535014 -5.32017 0
M  V30 1800 C 168.309 -1.62201 -4.96476 0
M  V30 1801 H 170.003 -1.19007 -2.74732 0
M  V30 1802 H 167.549 -0.573698 -1.32078 0
M  V30 1803 H 169.502 0.813334 -4.13477 0
M  V30 1804 H 168.226 1.30553 -2.99372 0
M  V30 1805 H 166.885 -0.741874 -3.59015 0
M  V30 1806 H 166.533 1.40083 -4.831 0
M  V30 1807 H 166.233 -0.0104211 -5.87599 0
M  V30 1808 H 167.757 0.907799 -6.03814 0
M  V30 1809 H 169.171 -1.31689 -5.5797 0
M  V30 1810 H 167.568 -2.10711 -5.61891 0
M  V30 1811 H 168.638 -2.37044 -4.23011 0
M  V30 1812 N 169.982 1.44106 -0.638065 0
M  V30 1813 C 170.945 2.29138 0.0531013 0
M  V30 1814 C 171.945 1.41409 0.765506 0
M  V30 1815 O 173.135 1.63206 0.609046 0
M  V30 1816 C 170.267 3.23144 1.08584 0
M  V30 1817 H 171.46 2.91739 -0.694883 0
M  V30 1818 H 169.013 1.51134 -0.398538 0
M  V30 1819 H 169.748 2.65408 1.86357 0
M  V30 1820 H 169.533 3.87804 0.578852 0
M  V30 1821 H 171.023 3.87004 1.56899 0
M  V30 1822 N 171.46 0.379036 1.52974 0
M  V30 1823 C 172.7 -0.206325 2.03356 0
M  V30 1824 C 173.064 -1.44892 1.25977 0
M  V30 1825 O 174.265 -2.11078 1.66432 0
M  V30 1826 C 172.536 -0.477887 3.54191 0
M  V30 1827 S 174.095 -1.035 4.26419 0
M  V30 1828 H 170.913 -0.0590259 0.708546 0
M  V30 1829 H 173.515 0.525013 1.88319 0
M  V30 1830 H 172.219 0.433745 4.08101 0
M  V30 1831 H 171.75 -1.23793 3.73415 0
M  V30 1832 H 173.765 -2.31821 4.38718 0
M  V30 1833 N 172.938 -1.57226 0.108567 0
M  V30 1834 C 174.166 -1.99179 -0.559954 0
M  V30 1835 C 174.581 -0.988022 -1.60884 0
M  V30 1836 O 173.938 0.0205512 -1.82488 0
M  V30 1837 C 173.989 -3.41159 -1.19552 0
M  V30 1838 O 173.71 -4.37694 -0.188577 0
M  V30 1839 C 175.211 -3.98188 -1.94837 0
M  V30 1840 H 172.431 -0.654228 -0.149088 0
M  V30 1841 H 174.975 -2.03598 0.19183 0
M  V30 1842 H 173.13 -3.37711 -1.89815 0
M  V30 1843 H 173.544 -5.20469 -0.649014 0
M  V30 1844 H 175.018 -4.99644 -2.34648 0
M  V30 1845 H 175.495 -3.3675 -2.81951 0
M  V30 1846 H 176.101 -4.0515 -1.2936 0
M  V30 1847 N 174.416 0.165178 -1.56732 0
M  V30 1848 C 175.349 1.23336 -1.91998 0
M  V30 1849 C 176.327 1.42476 -0.783531 0
M  V30 1850 O 177.511 1.57384 -1.03743 0
M  V30 1851 C 174.638 2.59533 -2.17625 0
M  V30 1852 C 173.684 2.57093 -3.40302 0
M  V30 1853 S 174.517 2.05571 -4.9447 0
M  V30 1854 C 175.673 3.43532 -5.23198 0
M  V30 1855 H 175.906 0.932387 -2.82301 0
M  V30 1856 H 173.439 0.370013 -1.49901 0
M  V30 1857 H 175.397 3.37918 -2.3307 0
M  V30 1858 H 174.058 2.86827 -1.28019 0
M  V30 1859 H 173.251 3.57308 -3.55453 0
M  V30 1860 H 172.853 1.86806 -3.24005 0
M  V30 1861 H 175.145 4.39559 -5.15552 0
M  V30 1862 H 176.088 3.33251 -6.2478 0
M  V30 1863 H 176.496 3.39828 -4.50752 0
M  V30 1864 N 175.894 1.51508 0.433938 0
M  V30 1865 C 176.857 1.72473 1.50949 0
M  V30 1866 C 177.857 0.594725 1.49398 0
M  V30 1867 O 179.047 0.862315 1.5136 0
M  V30 1868 C 176.179 1.78431 2.90474 0
M  V30 1869 H 177.372 2.68467 1.33662 0
M  V30 1870 H 174.925 1.41549 0.662836 0
M  V30 1871 H 175.66 0.842645 3.13161 0
M  V30 1872 H 175.445 2.60558 2.93005 0
M  V30 1873 H 176.935 1.96479 3.68491 0
M  V30 1874 N 177.372 -0.689602 1.41712 0
M  V30 1875 C 178.621 -1.44534 1.40686 0
M  V30 1876 C 178.934 -1.95588 0.0213352 0
M  V30 1877 O 180.14 -2.71271 -0.111534 0
M  V30 1878 C 178.596 -2.61387 2.47396 0
M  V30 1879 C 178.204 -2.17094 3.91885 0
M  V30 1880 C 179.948 -3.38986 2.55517 0
M  V30 1881 C 177.855 -3.3094 4.90135 0
M  V30 1882 H 176.785 -0.542925 0.52321 0
M  V30 1883 H 179.436 -0.748054 1.6756 0
M  V30 1884 H 177.818 -3.33412 2.13664 0
M  V30 1885 H 178.992 -1.52318 4.34897 0
M  V30 1886 H 177.307 -1.52473 3.8748 0
M  V30 1887 H 179.904 -4.23747 3.26102 0
M  V30 1888 H 180.247 -3.84578 1.59391 0
M  V30 1889 H 180.78 -2.74021 2.8837 0
M  V30 1890 H 177.519 -2.90355 5.87685 0
M  V30 1891 H 177.039 -3.94546 4.51767 0
M  V30 1892 H 178.718 -3.9663 5.11169 0
M  V30 1893 N 178.85 -1.27639 -0.924453 0
M  V30 1894 C 179.783 -1.04966 -2.02626 0
M  V30 1895 C 180.761 0.0309505 -1.62571 0
M  V30 1896 O 181.945 -0.114846 -1.8815 0
M  V30 1897 C 179.072 -0.59292 -3.3347 0
M  V30 1898 C 178.118 -1.66858 -3.92506 0
M  V30 1899 S 178.951 -3.2619 -4.24689 0
M  V30 1900 C 180.107 -2.82325 -5.58609 0
M  V30 1901 H 180.34 -1.98252 -2.21547 0
M  V30 1902 H 177.873 -1.11506 -1.06798 0
M  V30 1903 H 179.831 -0.336086 -4.09122 0
M  V30 1904 H 178.492 0.319939 -3.12466 0
M  V30 1905 H 177.685 -1.30038 -4.86935 0
M  V30 1906 H 177.287 -1.87766 -3.2345 0
M  V30 1907 H 179.579 -2.2783 -6.38044 0
M  V30 1908 H 180.522 -3.75511 -6.00331 0
M  V30 1909 H 180.93 -2.21367 -5.19285 0
M  V30 1910 N 180.328 1.1314 -1.09713 0
M  V30 1911 C 181.575 1.84484 -0.834987 0
M  V30 1912 C 181.903 1.83689 0.639418 0
M  V30 1913 O 181.158 1.2724 1.4869 0
M  V30 1914 C 181.457 3.32167 -1.3191 0
M  V30 1915 C 181.123 3.53139 -2.80363 0
M  V30 1916 C 179.785 3.58571 -3.20905 0
M  V30 1917 C 182.137 3.60866 -3.76065 0
M  V30 1918 C 179.465 3.69267 -4.55916 0
M  V30 1919 C 181.817 3.73089 -5.10869 0
M  V30 1920 C 180.481 3.76775 -5.50996 0
M  V30 1921 H 179.751 0.675073 -0.305544 0
M  V30 1922 H 182.398 1.33554 -1.37243 0
M  V30 1923 H 180.703 3.85469 -0.701517 0
M  V30 1924 H 182.4 3.85821 -1.09284 0
M  V30 1925 H 178.99 3.49569 -2.47991 0
M  V30 1926 H 183.174 3.55946 -3.45855 0
M  V30 1927 H 178.43 3.70388 -4.86438 0
M  V30 1928 H 182.604 3.78011 -5.84877 0
M  V30 1929 H 180.231 3.84815 -6.55608 0
M  V30 1930 N 181.806 0.884767 1.30421 0
M  V30 1931 C 183.046 0.509806 1.9794 0
M  V30 1932 C 183.41 -0.923736 1.68319 0
M  V30 1933 O 184.611 -1.40481 2.29169 0
M  V30 1934 C 182.882 0.776732 3.48858 0
M  V30 1935 S 184.441 0.503843 4.35898 0
M  V30 1936 H 181.259 0.189699 0.685227 0
M  V30 1937 H 183.861 1.14399 1.58535 0
M  V30 1938 H 182.565 1.81857 3.67908 0
M  V30 1939 H 182.096 0.1301 3.93185 0
M  V30 1940 H 184.111 -0.657625 4.91823 0
M  V30 1941 N 183.284 -1.43765 0.645699 0
M  V30 1942 C 184.512 -2.06253 0.163556 0
M  V30 1943 C 184.927 -1.48352 -1.16778 0
M  V30 1944 O 184.284 -0.611932 -1.71935 0
M  V30 1945 C 184.335 -3.61453 0.0583186 0
M  V30 1946 O 184.056 -4.172 1.33702 0
M  V30 1947 C 185.557 -4.41002 -0.450795 0
M  V30 1948 H 182.777 -0.665413 0.0864077 0
M  V30 1949 H 185.321 -1.84396 0.884222 0
M  V30 1950 H 183.476 -3.82522 -0.612865 0
M  V30 1951 H 183.89 -5.10791 1.19131 0
M  V30 1952 H 185.364 -5.49966 -0.473403 0
M  V30 1953 H 185.841 -4.13488 -1.48068 0
M  V30 1954 H 186.447 -4.24886 0.187637 0
M  V30 1955 N 184.763 -0.387143 -1.52771 0
M  V30 1956 C 186.003 0.195537 -2.03463 0
M  V30 1957 C 186.367 1.44222 -1.26744 0
M  V30 1958 O 187.568 2.10192 -1.67549 0
M  V30 1959 C 185.839 0.459097 -3.54439 0
M  V30 1960 S 187.398 1.01237 -4.26962 0
M  V30 1961 H 184.216 0.0552675 -0.708849 0
M  V30 1962 H 186.818 -0.534992 -1.88037 0
M  V30 1963 H 185.522 -0.455382 -4.07866 0
M  V30 1964 H 185.053 1.21811 -3.74066 0
M  V30 1965 H 187.068 2.29492 -4.39941 0
M  V30 1966 N 186.241 1.57166 -0.116904 0
M  V30 1967 C 187.189 2.16457 0.851418 0
M  V30 1968 C 188.183 1.11323 1.27686 0
M  V30 1969 O 189.389 1.2963 1.24884 0
M  V30 1970 H 185.764 0.69271 0.292672 0
M  V30 1971 H 187.735 2.96605 0.32685 0
M  V30 1972 C 186.484 2.77689 2.09246 0
M  V30 1973 H 185.807 3.58285 1.77402 0
M  V30 1974 H 187.247 3.22716 2.7501 0
M  V30 1975 C 185.706 1.74667 2.88085 0
M  V30 1976 O 186.236 1.19877 3.83396 0
M  V30 1977 N 184.442 1.44656 2.52038 0
M  V30 1978 H 183.989 1.89402 1.74599 0
M  V30 1979 H 183.947 0.759675 3.05084 0
M  V30 1980 N 187.719 -0.156864 1.56817 0
M  V30 1981 C 188.967 -0.869404 1.82444 0
M  V30 1982 C 189.288 -1.82147 0.69623 0
M  V30 1983 O 188.558 -1.93847 -0.28287 0
M  V30 1984 H 187.138 -0.324043 0.673056 0
M  V30 1985 H 189.8 -0.153224 1.94297 0
M  V30 1986 H 188.896 -1.43761 2.77019 0
M  V30 1987 N 189.197 -1.51736 -0.425897 0
M  V30 1988 C 190.427 -1.68549 -1.19476 0
M  V30 1989 C 190.835 -0.387288 -1.85194 0
M  V30 1990 O 190.178 0.645142 -1.71999 0
M  V30 1991 C 190.24 -2.75275 -2.31223 0
M  V30 1992 C 189.904 -4.17534 -1.8578 0
M  V30 1993 C 190.901 -5.01936 -1.35485 0
M  V30 1994 C 188.586 -4.6369 -1.93123 0
M  V30 1995 C 190.58 -6.30559 -0.931347 0
M  V30 1996 C 188.267 -5.92307 -1.50384 0
M  V30 1997 C 189.265 -6.75569 -1.00473 0
M  V30 1998 O 188.953 -8.0178 -0.583452 0
M  V30 1999 H 188.685 -0.568525 -0.365725 0
M  V30 2000 H 191.239 -1.98982 -0.509444 0
M  V30 2001 H 189.469 -2.40182 -3.03067 0
M  V30 2002 H 191.158 -2.80853 -2.93047 0
M  V30 2003 H 191.924 -4.67475 -1.29197 0
M  V30 2004 H 187.803 -3.98997 -2.30916 0
M  V30 2005 H 191.347 -6.95498 -0.541084 0
M  V30 2006 H 187.244 -6.2628 -1.56346 0
M  V30 2007 H 188.012 -8.1543 -0.708275 0
M  V30 2008 N 190.675 0.682077 -1.42076 0
M  V30 2009 C 191.605 1.80796 -1.47767 0
M  V30 2010 C 192.586 1.6677 -0.334954 0
M  V30 2011 O 193.771 1.863 -0.548264 0
M  V30 2012 C 190.901 3.19038 -1.37229 0
M  V30 2013 C 189.855 3.47789 -2.49453 0
M  V30 2014 C 189.181 4.8553 -2.23975 0
M  V30 2015 C 190.481 3.45411 -3.91776 0
M  V30 2016 H 192.175 1.7629 -2.41997 0
M  V30 2017 H 189.721 0.846721 -1.16476 0
M  V30 2018 H 191.674 3.97528 -1.39821 0
M  V30 2019 H 190.398 3.24204 -0.394907 0
M  V30 2020 H 189.057 2.71657 -2.46166 0
M  V30 2021 H 188.705 4.87337 -1.24547 0
M  V30 2022 H 188.405 5.0573 -2.99184 0
M  V30 2023 H 189.929 5.66312 -2.28304 0
M  V30 2024 H 191.343 4.13882 -3.96705 0
M  V30 2025 H 189.74 3.77145 -4.66778 0
M  V30 2026 H 190.81 2.44122 -4.18966 0
M  V30 2027 N 192.153 1.28127 0.917671 0
M  V30 2028 C 193.085 1.07517 2.02417 0
M  V30 2029 C 194.098 0.0281099 1.62776 0
M  V30 2030 O 195.287 0.270748 1.76435 0
M  V30 2031 C 192.387 0.610957 3.33347 0
M  V30 2032 C 191.56 1.73255 4.01624 0
M  V30 2033 C 190.619 1.26238 5.10833 0
M  V30 2034 O 189.645 1.96389 5.34247 0
M  V30 2035 N 190.847 0.123448 5.80369 0
M  V30 2036 H 193.612 2.02806 2.20658 0
M  V30 2037 H 191.173 1.19827 1.08871 0
M  V30 2038 H 193.165 0.280101 4.0373 0
M  V30 2039 H 191.735 -0.24898 3.11607 0
M  V30 2040 H 190.955 2.23319 3.24842 0
M  V30 2041 H 192.243 2.48503 4.43986 0
M  V30 2042 H 191.641 -0.461847 5.63812 0
M  V30 2043 H 190.198 -0.148158 6.51632 0
M  V30 2044 N 193.631 -1.12557 1.10312 0
M  V30 2045 C 194.856 -1.88405 0.867085 0
M  V30 2046 C 195.281 -1.79038 -0.576817 0
M  V30 2047 O 194.639 -1.14439 -1.40618 0
M  V30 2048 C 194.687 -3.3563 1.31851 0
M  V30 2049 O 193.791 -4.09565 0.482734 0
M  V30 2050 H 193.132 -0.585455 0.313271 0
M  V30 2051 H 195.662 -1.42352 1.4696 0
M  V30 2052 H 195.672 -3.86469 1.3079 0
M  V30 2053 H 194.347 -3.41765 2.37001 0
M  V30 2054 H 192.924 -3.68695 0.558448 0
M  V30 2055 N 195.109 -0.891671 -1.2995 0
M  V30 2056 C 196.525 -0.58662 -1.48428 0
M  V30 2057 C 196.725 0.873951 -1.81561 0
M  V30 2058 O 195.781 1.65471 -1.90724 0
M  V30 2059 C 197.094 -1.50553 -2.60296 0
M  V30 2060 C 198.642 -1.50988 -2.74175 0
M  V30 2061 C 199.117 -2.41488 -3.89163 0
M  V30 2062 N 200.608 -2.39489 -3.96483 0
M  V30 2063 C 201.343 -3.06223 -4.84784 0
M  V30 2064 N 200.839 -3.82206 -5.77833 0
M  V30 2065 N 202.632 -2.95421 -4.78208 0
M  V30 2066 H 194.783 -1.83644 -1.06718 0
M  V30 2067 H 197.046 -0.786455 -0.529332 0
M  V30 2068 H 196.752 -2.54581 -2.42654 0
M  V30 2069 H 196.626 -1.22008 -3.56923 0
M  V30 2070 H 199.013 -0.47708 -2.91218 0
M  V30 2071 H 199.094 -1.83567 -1.78148 0
M  V30 2072 H 198.738 -3.44857 -3.72876 0
M  V30 2073 H 198.668 -2.06222 -4.84541 0
M  V30 2074 H 201.159 -1.84278 -3.29924 0
M  V30 2075 H 201.472 -4.302 -6.41988 0
M  V30 2076 H 199.817 -3.86313 -5.77743 0
M  V30 2077 H 203.008 -2.35581 -4.04499 0
M  V30 2078 H 203.181 -3.47704 -5.46814 0
M  V30 2079 N 196.587 1.43421 -0.653314 0
M  V30 2080 C 197.817 2.05864 -0.174238 0
M  V30 2081 C 198.225 1.49052 1.16534 0
M  V30 2082 O 197.568 0.616481 1.73047 0
M  V30 2083 C 197.63 3.59499 -0.00875873 0
M  V30 2084 C 197.294 4.38893 -1.27364 0
M  V30 2085 C 198.291 4.70947 -2.20239 0
M  V30 2086 C 195.976 4.789 -1.51525 0
M  V30 2087 C 197.97 5.41916 -3.35568 0
M  V30 2088 C 195.657 5.49614 -2.67147 0
M  V30 2089 C 196.655 5.81044 -3.58994 0
M  V30 2090 O 196.343 6.50313 -4.72597 0
M  V30 2091 H 196.075 0.670345 -0.0872549 0
M  V30 2092 H 198.629 1.84913 -0.894226 0
M  V30 2093 H 196.859 3.79025 0.7666 0
M  V30 2094 H 198.548 4.0364 0.427687 0
M  V30 2095 H 199.314 4.40558 -2.02815 0
M  V30 2096 H 195.193 4.53843 -0.809158 0
M  V30 2097 H 198.737 5.66365 -4.07279 0
M  V30 2098 H 194.634 5.79419 -2.84505 0
M  V30 2099 H 195.402 6.68795 -4.71864 0
M  V30 2100 N 198.065 0.39524 1.52563 0
M  V30 2101 C 198.995 -0.428384 2.29537 0
M  V30 2102 C 199.976 -1.05831 1.33169 0
M  V30 2103 O 201.161 -1.06995 1.62067 0
M  V30 2104 C 198.291 -1.55274 3.10656 0
M  V30 2105 C 197.245 -1.04855 4.14957 0
M  V30 2106 C 196.571 -2.26543 4.84337 0
M  V30 2107 C 197.871 -0.112324 5.22179 0
M  V30 2108 H 199.565 0.213867 2.98635 0
M  V30 2109 H 197.111 0.104298 1.43622 0
M  V30 2110 H 199.064 -2.1358 3.63265 0
M  V30 2111 H 197.788 -2.22266 2.39302 0
M  V30 2112 H 196.447 -0.487985 3.63338 0
M  V30 2113 H 196.095 -2.92059 4.09525 0
M  V30 2114 H 195.795 -1.93466 5.54837 0
M  V30 2115 H 197.319 -2.85481 5.39753 0
M  V30 2116 H 198.733 -0.603752 5.70112 0
M  V30 2117 H 197.13 0.128968 5.99961 0
M  V30 2118 H 198.2 0.837052 4.77621 0
M  V30 2119 N 199.544 -1.57102 0.125237 0
M  V30 2120 C 200.769 -2.0019 -0.542101 0
M  V30 2121 C 201.194 -1.00449 -1.59034 0
M  V30 2122 O 200.552 0.0229423 -1.81285 0
M  V30 2123 C 200.6 -3.42129 -1.13929 0
M  V30 2124 O 199.704 -3.45307 -2.2547 0
M  V30 2125 H 199.045 -0.650171 -0.134812 0
M  V30 2126 H 201.575 -2.03461 0.215553 0
M  V30 2127 H 201.585 -3.80471 -1.4733 0
M  V30 2128 H 200.26 -4.14237 -0.371531 0
M  V30 2129 H 198.837 -3.1879 -1.93462 0
M  V30 2130 N 201.022 0.148545 -1.56898 0
M  V30 2131 C 201.972 1.1886 -1.94567 0
M  V30 2132 C 202.956 1.3863 -0.816735 0
M  V30 2133 O 204.148 1.40218 -1.08018 0
M  V30 2134 C 201.277 2.52262 -2.32849 0
M  V30 2135 C 200.363 2.36092 -3.52309 0
M  V30 2136 N 200.754 1.89674 -4.6889 0
M  V30 2137 C 199.052 2.66848 -3.57363 0
M  V30 2138 C 199.753 1.86511 -5.50989 0
M  V30 2139 N 198.729 2.29766 -4.92655 0
M  V30 2140 H 202.531 0.821793 -2.82177 0
M  V30 2141 H 200.045 0.356615 -1.58436 0
M  V30 2142 H 202.042 3.27447 -2.58039 0
M  V30 2143 H 200.702 2.89727 -1.46589 0
M  V30 2144 H 201.713 1.59663 -4.92674 0
M  V30 2145 H 198.39 3.08198 -2.81639 0
M  V30 2146 H 199.78 1.52128 -6.54452 0
M  V30 2147 N 202.5 1.5196 0.417844 0
M  V30 2148 C 203.74 1.67262 1.17486 0
M  V30 2149 C 204.104 0.38983 1.88001 0
M  V30 2150 O 205.305 0.418845 2.65517 0
M  V30 2151 C 203.576 2.85526 2.14965 0
M  V30 2152 S 205.135 3.21263 2.98891 0
M  V30 2153 H 201.953 0.589077 0.398132 0
M  V30 2154 H 204.555 1.89927 0.463452 0
M  V30 2155 H 203.259 3.77145 1.61833 0
M  V30 2156 H 202.79 2.65107 2.90657 0
M  V30 2157 H 204.805 2.69208 4.16823 0
M  V30 2158 N 203.978 -0.674533 1.42435 0
M  V30 2159 C 204.941 -1.76986 1.45632 0
M  V30 2160 C 205.941 -1.5708 0.343871 0
M  V30 2161 O 207.131 -1.63367 0.604709 0
M  V30 2162 C 204.263 -3.15623 1.28822 0
M  V30 2163 H 205.456 -1.75539 2.43158 0
M  V30 2164 H 203.009 -0.884189 1.28887 0
M  V30 2165 H 203.744 -3.22696 0.322193 0
M  V30 2166 H 203.529 -3.31475 2.09444 0
M  V30 2167 H 205.019 -3.95537 1.33942 0
M  V30 2168 N 205.456 -1.28612 -0.910864 0
M  V30 2169 C 206.702 -1.16106 -1.66274 0
M  V30 2170 C 207.035 0.289113 -1.92036 0
M  V30 2171 O 206.31 1.21 -1.52281 0
M  V30 2172 C 206.593 -1.96309 -3.01885 0
M  V30 2173 C 206.446 -3.49405 -2.8326 0
M  V30 2174 C 207.765 -1.78076 -4.02463 0
M  V30 2175 H 204.884 -0.423152 -0.603417 0
M  V30 2176 H 207.526 -1.57961 -1.05586 0
M  V30 2177 H 205.676 -1.60742 -3.53687 0
M  V30 2178 H 207.348 -3.94894 -2.38446 0
M  V30 2179 H 205.591 -3.74893 -2.18261 0
M  V30 2180 H 206.262 -4.00784 -3.79574 0
M  V30 2181 H 208.738 -2.0912 -3.59733 0
M  V30 2182 H 207.614 -2.36561 -4.95308 0
M  V30 2183 H 207.875 -0.733008 -4.35981 0
M  V30 2184 N 206.934 1.1197 -1.10907 0
M  V30 2185 C 208.164 1.8713 -0.875553 0
M  V30 2186 C 208.572 1.8016 0.577843 0
M  V30 2187 O 207.915 1.17699 1.41042 0
M  V30 2188 C 207.977 3.37005 -1.2517 0
M  V30 2189 C 207.641 3.67748 -2.71313 0
M  V30 2190 C 208.638 3.65698 -3.69542 0
M  V30 2191 C 206.323 3.96928 -3.07821 0
M  V30 2192 C 208.317 3.92395 -5.023 0
M  V30 2193 C 206.004 4.23284 -4.40765 0
M  V30 2194 C 207.002 4.21005 -5.37814 0
M  V30 2195 O 206.69 4.46704 -6.68364 0
M  V30 2196 H 206.422 0.598786 -0.313737 0
M  V30 2197 H 208.976 1.42568 -1.47863 0
M  V30 2198 H 207.206 3.82146 -0.591741 0
M  V30 2199 H 208.895 3.93519 -0.994877 0
M  V30 2200 H 209.661 3.43211 -3.42682 0
M  V30 2201 H 205.54 3.97841 -2.32902 0
M  V30 2202 H 209.084 3.90531 -5.78041 0
M  V30 2203 H 204.981 4.45246 -4.67361 0
M  V30 2204 H 205.749 4.64299 -6.74069 0
M  V30 2205 N 208.412 0.89855 1.29475 0
M  V30 2206 C 209.375 0.380272 2.26023 0
M  V30 2207 C 210.375 -0.484891 1.53315 0
M  V30 2208 O 211.565 -0.290108 1.71767 0
M  V30 2209 C 208.697 -0.45651 3.3783 0
M  V30 2210 H 209.89 1.23295 2.73383 0
M  V30 2211 H 207.443 0.676589 1.40897 0
M  V30 2212 H 208.178 -1.32922 2.95808 0
M  V30 2213 H 207.963 0.163393 3.91759 0
M  V30 2214 H 209.453 -0.810466 4.0966 0
M  V30 2215 N 209.89 -1.43072 0.660911 0
M  V30 2216 C 211.167 -1.95307 0.107017 0
M  V30 2217 C 211.547 -1.60192 -1.37484 0
M  V30 2218 O 210.895 -0.890949 -2.10415 0
M  V30 2219 C 211.105 -3.47124 0.361402 0
M  V30 2220 C 212.453 -4.23738 0.270455 0
M  V30 2221 O 213.477 -3.54981 0.294382 0
M  V30 2222 O 212.336 -5.46131 0.200737 0
M  V30 2223 H 209.43 -0.826984 -0.00517729 0
M  V30 2224 H 211.976 -1.52972 0.734681 0
M  V30 2225 H 210.748 -3.65837 1.38848 0
M  V30 2226 H 210.371 -3.96475 -0.298953 0
M  V30 2227 N 211.368 -0.403325 -1.52352 0
M  V30 2228 C 212.645 0.232611 -1.94212 0
M  V30 2229 C 213.025 1.63133 -1.33981 0
M  V30 2230 O 212.373 2.22659 -0.513344 0
M  V30 2231 C 212.583 0.244811 -3.4814 0
M  V30 2232 C 213.931 0.46698 -4.22024 0
M  V30 2233 O 214.955 0.324419 -3.5472 0
M  V30 2234 O 213.814 0.74747 -5.41364 0
M  V30 2235 H 210.908 0.148223 -0.813609 0
M  V30 2236 H 213.454 -0.458848 -1.63379 0
M  V30 2237 H 212.226 -0.734378 -3.84347 0
M  V30 2238 H 211.849 0.980611 -3.85318 0
M  V30 2239 N 212.846 1.57033 -0.133567 0
M  V30 2240 C 214.092 1.96764 0.515326 0
M  V30 2241 C 214.447 1.01653 1.63353 0
M  V30 2242 O 213.74 0.0491374 1.91537 0
M  V30 2243 C 213.934 3.40674 1.08057 0
M  V30 2244 C 213.763 4.49696 0.0186522 0
M  V30 2245 C 212.533 5.03567 -0.418174 0
M  V30 2246 C 214.731 5.08536 -0.767809 0
M  V30 2247 N 212.713 5.9618 -1.46434 0
M  V30 2248 C 214.084 5.97231 -1.6648 0
M  V30 2249 C 216.139 4.9115 -0.817087 0
M  V30 2250 C 214.842 6.70401 -2.60681 0
M  V30 2251 C 216.868 5.65012 -1.74687 0
M  V30 2252 C 216.23 6.53403 -2.63141 0
M  V30 2253 H 212.329 0.765919 0.157771 0
M  V30 2254 H 214.913 1.93395 -0.22506 0
M  V30 2255 H 213.084 3.44662 1.79061 0
M  V30 2256 H 214.816 3.67495 1.69497 0
M  V30 2257 H 211.571 4.73594 -0.0229803 0
M  V30 2258 H 211.995 6.47191 -1.98678 0
M  V30 2259 H 216.637 4.22543 -0.147326 0
M  V30 2260 H 214.355 7.38245 -3.28664 0
M  V30 2261 H 217.941 5.53559 -1.79063 0
M  V30 2262 H 216.821 7.09556 -3.33917 0
M  V30 2263 N 214.325 -0.140222 1.56975 0
M  V30 2264 C 215.571 -0.852949 1.83991 0
M  V30 2265 C 215.904 -1.80512 0.716187 0
M  V30 2266 O 215.179 -1.92479 -0.279681 0
M  V30 2267 C 215.462 -1.6215 3.21527 0
M  V30 2268 C 215.315 -0.690363 4.4447 0
M  V30 2269 C 216.634 -2.58247 3.56366 0
M  V30 2270 H 213.753 -0.308634 0.669264 0
M  V30 2271 H 216.395 -0.117898 1.89634 0
M  V30 2272 H 214.545 -2.24812 3.16847 0
M  V30 2273 H 216.217 -0.0742264 4.6124 0
M  V30 2274 H 214.46 -0.000396433 4.338 0
M  V30 2275 H 215.131 -1.2643 5.37326 0
M  V30 2276 H 217.607 -2.05701 3.61699 0
M  V30 2277 H 216.483 -3.09067 4.53617 0
M  V30 2278 H 216.744 -3.39923 2.82674 0
M  V30 2279 N 215.803 -1.52179 -0.40978 0
M  V30 2280 C 217.031 -1.70054 -1.17853 0
M  V30 2281 C 217.446 -0.409735 -1.843 0
M  V30 2282 O 216.803 0.614183 -1.71855 0
M  V30 2283 C 216.854 -2.83568 -2.24213 0
M  V30 2284 O 216.575 -4.0765 -1.60478 0
M  V30 2285 C 218.076 -3.12947 -3.13973 0
M  V30 2286 H 215.296 -0.569917 -0.354169 0
M  V30 2287 H 217.84 -1.98734 -0.482198 0
M  V30 2288 H 215.995 -2.57409 -2.89516 0
M  V30 2289 H 216.409 -4.70899 -2.30986 0
M  V30 2290 H 217.883 -3.95889 -3.84677 0
M  V30 2291 H 218.36 -2.26472 -3.76307 0
M  V30 2292 H 218.966 -3.40868 -2.5434 0
M  V30 2293 N 217.281 0.66697 -1.42791 0
M  V30 2294 C 218.558 1.4234 -1.34159 0
M  V30 2295 C 218.938 2.11093 0.0172729 0
M  V30 2296 O 218.286 2.03808 1.03318 0
M  V30 2297 C 218.496 2.41942 -2.51526 0
M  V30 2298 C 219.844 3.06353 -2.93995 0
M  V30 2299 O 220.868 2.52269 -2.51473 0
M  V30 2300 O 219.727 4.04376 -3.67617 0
M  V30 2301 H 216.821 0.635277 -0.529483 0
M  V30 2302 H 219.367 0.695034 -1.54814 0
M  V30 2303 H 218.139 1.89991 -3.42081 0
M  V30 2304 H 217.762 3.22249 -2.32898 0
M  V30 2305 N 218.759 1.29093 0.90403 0
M  V30 2306 C 220.17 1.15186 1.46932 0
M  V30 2307 C 220.521 -0.254587 1.94541 0
M  V30 2308 O 219.646 -1.14972 1.83332 0
M  V30 2309 C 220.241 2.08492 2.67051 0
M  V30 2310 C 218.8 1.98621 3.19729 0
M  V30 2311 C 217.947 1.9967 1.92425 0
M  V30 2312 H 220.898 1.41641 0.715789 0
M  V30 2313 H 220.919 1.65461 3.42641 0
M  V30 2314 H 220.431 3.10847 2.3237 0
M  V30 2315 H 218.532 0.993389 3.59114 0
M  V30 2316 H 218.645 2.86068 3.8432 0
M  V30 2317 H 217.009 1.44208 2.09943 0
M  V30 2318 H 217.792 3.03721 1.60026 0
M  V30 2319 N 220.237 -1.11381 1.11499 0
M  V30 2320 C 221.653 -1.35143 0.849031 0
M  V30 2321 C 221.853 -1.94515 -0.525938 0
M  V30 2322 O 220.909 -2.1785 -1.27662 0
M  V30 2323 C 222.222 -2.28249 1.95762 0
M  V30 2324 C 223.77 -2.41812 1.98736 0
M  V30 2325 C 224.245 -3.3824 3.088 0
M  V30 2326 N 225.736 -3.45803 3.08179 0
M  V30 2327 C 226.471 -4.20358 3.89982 0
M  V30 2328 N 225.967 -4.97884 4.8175 0
M  V30 2329 N 227.76 -4.15877 3.78157 0
M  V30 2330 H 219.911 -0.712062 2.00109 0
M  V30 2331 H 222.174 -0.376025 0.870235 0
M  V30 2332 H 221.88 -1.91817 2.94787 0
M  V30 2333 H 221.754 -3.28473 1.85433 0
M  V30 2334 H 224.141 -2.77518 1.00338 0
M  V30 2335 H 224.222 -1.41437 2.13141 0
M  V30 2336 H 223.866 -3.03261 4.07425 0
M  V30 2337 H 223.796 -4.38471 2.91635 0
M  V30 2338 H 226.287 -2.90506 2.41691 0
M  V30 2339 H 226.6 -5.52142 5.40702 0
M  V30 2340 H 224.945 -4.97043 4.85771 0
M  V30 2341 H 228.136 -3.544 3.05808 0
M  V30 2342 H 228.309 -4.73723 4.42143 0
M  V30 2343 N 221.715 -0.905404 -1.28997 0
M  V30 2344 C 222.962 -0.534248 -1.95325 0
M  V30 2345 C 223.29 0.920535 -1.71337 0
M  V30 2346 O 222.545 1.66861 -1.02254 0
M  V30 2347 C 222.844 -0.779906 -3.48787 0
M  V30 2348 C 222.51 -2.21293 -3.92861 0
M  V30 2349 C 221.172 -2.60475 -4.04606 0
M  V30 2350 C 223.524 -3.14587 -4.15553 0
M  V30 2351 C 220.852 -3.9212 -4.36416 0
M  V30 2352 C 223.204 -4.45787 -4.48839 0
M  V30 2353 C 221.868 -4.84834 -4.58794 0
M  V30 2354 H 221.138 -0.195495 -0.714747 0
M  V30 2355 H 223.785 -1.14514 -1.53488 0
M  V30 2356 H 222.09 -0.0861365 -3.91705 0
M  V30 2357 H 223.787 -0.472029 -3.98212 0
M  V30 2358 H 220.377 -1.89887 -3.84241 0
M  V30 2359 H 224.561 -2.85528 -4.0594 0
M  V30 2360 H 219.817 -4.22086 -4.42327 0
M  V30 2361 H 223.991 -5.18098 -4.65346 0
M  V30 2362 H 221.618 -5.86877 -4.83197 0
M  V30 2363 N 223.193 1.4272 -0.668489 0
M  V30 2364 C 224.123 2.335 -0.000100175 0
M  V30 2365 C 225.104 1.50328 0.795964 0
M  V30 2366 O 226.289 1.78949 0.754385 0
M  V30 2367 C 223.419 3.33874 0.956302 0
M  V30 2368 C 222.373 4.27152 0.269278 0
M  V30 2369 C 221.699 5.17684 1.33818 0
M  V30 2370 C 222.999 5.15373 -0.847805 0
M  V30 2371 H 224.693 2.89639 -0.758244 0
M  V30 2372 H 222.239 1.39269 -0.366079 0
M  V30 2373 H 224.192 3.9629 1.43292 0
M  V30 2374 H 222.916 2.76025 1.74579 0
M  V30 2375 H 221.575 3.66123 -0.187042 0
M  V30 2376 H 221.223 4.56165 2.1195 0
M  V30 2377 H 220.923 5.80918 0.883659 0
M  V30 2378 H 222.447 5.82974 1.81586 0
M  V30 2379 H 223.861 5.7151 -0.452681 0
M  V30 2380 H 222.258 5.87407 -1.22773 0
M  V30 2381 H 223.328 4.5415 -1.69929 0
M  V30 2382 N 224.671 0.411399 1.52136 0
M  V30 2383 C 225.92 -0.165009 2.01024 0
M  V30 2384 C 226.233 -1.4603 1.30133 0
M  V30 2385 O 227.439 -2.1181 1.69849 0
M  V30 2386 C 225.895 -0.344618 3.58246 0
M  V30 2387 C 225.503 0.938716 4.38055 0
M  V30 2388 C 227.247 -0.876195 4.15359 0
M  V30 2389 C 225.154 0.726172 5.86925 0
M  V30 2390 H 224.084 -0.0654407 0.751155 0
M  V30 2391 H 226.735 0.537192 1.75461 0
M  V30 2392 H 225.117 -1.10921 3.80148 0
M  V30 2393 H 226.291 1.70963 4.27912 0
M  V30 2394 H 224.606 1.39688 3.92271 0
M  V30 2395 H 227.203 -1.05128 5.24263 0
M  V30 2396 H 227.546 -1.85152 3.7286 0
M  V30 2397 H 228.079 -0.170607 3.97434 0
M  V30 2398 H 224.818 1.67312 6.33788 0
M  V30 2399 H 224.338 -0.00540283 5.998 0
M  V30 2400 H 226.017 0.369231 6.45946 0
M  V30 2401 N 226.149 -1.5696 0.141893 0
M  V30 2402 C 227.397 -1.95573 -0.509484 0
M  V30 2403 C 227.718 -1.02746 -1.65736 0
M  V30 2404 O 226.988 -0.0880311 -1.95702 0
M  V30 2405 H 225.568 -0.722115 -0.191205 0
M  V30 2406 H 228.23 -1.93697 0.216196 0
M  V30 2407 H 227.326 -2.99171 -0.889 0
M  V30 2408 N 227.627 0.131896 -1.57047 0
M  V30 2409 C 228.874 0.841932 -1.84168 0
M  V30 2410 C 229.202 1.8048 -0.725066 0
M  V30 2411 O 228.457 1.93618 0.284692 0
M  V30 2412 C 228.756 1.63703 -3.17704 0
M  V30 2413 C 228.422 0.81961 -4.43388 0
M  V30 2414 C 227.084 0.594148 -4.77518 0
M  V30 2415 C 229.436 0.248977 -5.20605 0
M  V30 2416 C 226.764 -0.212409 -5.86315 0
M  V30 2417 C 229.116 -0.544701 -6.30251 0
M  V30 2418 C 227.78 -0.780599 -6.6292 0
M  V30 2419 H 227.05 0.308085 -0.673917 0
M  V30 2420 H 229.697 0.104867 -1.91213 0
M  V30 2421 H 228.002 2.44464 -3.06177 0
M  V30 2422 H 229.699 2.19015 -3.35907 0
M  V30 2423 H 226.289 1.00542 -4.16641 0
M  V30 2424 H 230.473 0.410408 -4.946 0
M  V30 2425 H 225.729 -0.404524 -6.1006 0
M  V30 2426 H 229.903 -0.993922 -6.89271 0
M  V30 2427 H 227.53 -1.40742 -7.47058 0
M  V30 2428 N 229.106 1.52395 0.401703 0
M  V30 2429 C 230.354 1.66488 1.14569 0
M  V30 2430 C 230.675 0.400897 1.90835 0
M  V30 2431 O 229.945 -0.584415 1.8698 0
M  V30 2432 H 228.525 0.613672 0.425929 0
M  V30 2433 H 231.187 1.89464 0.457093 0
M  V30 2434 H 230.283 2.50942 1.85566 0
M  V30 2435 N 230.584 -0.659388 1.43143 0
M  V30 2436 C 231.514 -1.78422 1.50625 0
M  V30 2437 C 232.495 -1.66216 0.361443 0
M  V30 2438 O 233.68 -1.85404 0.577834 0
M  V30 2439 C 230.81 -3.16815 1.42287 0
M  V30 2440 C 229.764 -3.43777 2.54954 0
M  V30 2441 C 229.09 -4.81905 2.31671 0
M  V30 2442 C 230.39 -3.39134 3.97222 0
M  V30 2443 H 232.084 -1.72417 2.44771 0
M  V30 2444 H 229.63 -0.828084 1.17808 0
M  V30 2445 H 231.583 -3.95253 1.46127 0
M  V30 2446 H 230.307 -3.23534 0.446435 0
M  V30 2447 H 228.966 -2.67707 2.50457 0
M  V30 2448 H 228.614 -4.85294 1.32284 0
M  V30 2449 H 228.314 -5.00906 3.07192 0
M  V30 2450 H 229.838 -5.62609 2.37284 0
M  V30 2451 H 231.252 -4.07518 4.03239 0
M  V30 2452 H 229.649 -3.69671 4.72719 0
M  V30 2453 H 230.719 -2.37426 4.22797 0
M  V30 2454 N 232.062 -1.29571 -0.897171 0
M  V30 2455 C 233.308 -1.18873 -1.65048 0
M  V30 2456 C 233.663 0.256707 -1.9068 0
M  V30 2457 O 232.956 1.18202 -1.50794 0
M  V30 2458 C 233.15 -1.9382 -3.00281 0
M  V30 2459 C 232.979 -3.45503 -2.8785 0
M  V30 2460 C 231.749 -4.14856 -2.88483 0
M  V30 2461 C 233.947 -4.40956 -2.64693 0
M  V30 2462 N 231.929 -5.52886 -2.66815 0
M  V30 2463 C 233.3 -5.66464 -2.5203 0
M  V30 2464 C 235.355 -4.3069 -2.49821 0
M  V30 2465 C 234.058 -6.82871 -2.26008 0
M  V30 2466 C 236.084 -5.46852 -2.25182 0
M  V30 2467 C 235.446 -6.71333 -2.13286 0
M  V30 2468 H 231.545 -0.489998 -0.609447 0
M  V30 2469 H 234.129 -1.63431 -1.05822 0
M  V30 2470 H 232.3 -1.51671 -3.57562 0
M  V30 2471 H 234.032 -1.75366 -3.64731 0
M  V30 2472 H 230.787 -3.66579 -2.99861 0
M  V30 2473 H 231.211 -6.25487 -2.59027 0
M  V30 2474 H 235.853 -3.35141 -2.5776 0
M  V30 2475 H 233.571 -7.78473 -2.16806 0
M  V30 2476 H 237.157 -5.40809 -2.14515 0
M  V30 2477 H 236.037 -7.59701 -1.94485 0
M  V30 2478 N 233.54 1.10788 -1.12088 0
M  V30 2479 C 234.47 2.19083 -0.807755 0
M  V30 2480 C 235.451 1.6858 0.226859 0
M  V30 2481 O 236.636 1.93997 0.0888475 0
M  V30 2482 C 233.766 3.46344 -0.257576 0
M  V30 2483 C 232.72 4.101 -1.22483 0
M  V30 2484 C 232.046 5.32016 -0.535052 0
M  V30 2485 C 233.346 4.54236 -2.57811 0
M  V30 2486 H 235.04 2.45534 -1.71328 0
M  V30 2487 H 232.586 1.1801 -0.825205 0
M  V30 2488 H 234.539 4.21392 -0.0262679 0
M  V30 2489 H 233.263 3.19373 0.683278 0
M  V30 2490 H 231.922 3.37054 -1.44189 0
M  V30 2491 H 231.57 5.01319 0.410827 0
M  V30 2492 H 231.27 5.75625 -1.18024 0
M  V30 2493 H 232.794 6.09799 -0.312695 0
M  V30 2494 H 234.208 5.20575 -2.40155 0
M  V30 2495 H 232.605 5.08682 -3.18375 0
M  V30 2496 H 233.675 3.6734 -3.16528 0
M  V30 2497 N 235.018 0.912232 1.28515 0
M  V30 2498 C 236.246 0.560416 1.99166 0
M  V30 2499 C 236.661 -0.857927 1.68182 0
M  V30 2500 O 236.018 -1.56805 0.933733 0
M  V30 2501 C 236.069 0.758142 3.53461 0
M  V30 2502 O 235.79 2.12067 3.83352 0
M  V30 2503 C 237.291 0.412954 4.41372 0
M  V30 2504 H 234.511 0.213805 0.636026 0
M  V30 2505 H 237.055 1.22502 1.63749 0
M  V30 2506 H 235.21 0.140556 3.87145 0
M  V30 2507 H 235.624 2.15923 4.77993 0
M  V30 2508 H 237.098 0.60208 5.48707 0
M  V30 2509 H 237.575 -0.65073 4.34353 0
M  V30 2510 H 238.181 1.00802 4.13182 0
M  V30 2511 N 236.496 -1.42363 0.676048 0
M  V30 2512 C 237.744 -2.01123 0.198437 0
M  V30 2513 C 238.065 -1.53731 -1.19966 0
M  V30 2514 O 237.335 -0.759518 -1.80577 0
M  V30 2515 H 235.915 -0.743678 0.0703721 0
M  V30 2516 H 238.577 -1.74263 0.872837 0
M  V30 2517 H 237.673 -3.11454 0.200686 0
M  V30 2518 N 237.974 -0.419461 -1.51915 0
M  V30 2519 C 238.907 0.445751 -2.23804 0
M  V30 2520 C 239.885 1.03951 -1.25031 0
M  V30 2521 O 241.069 1.08541 -1.54114 0
M  V30 2522 C 238.196 1.61964 -2.97465 0
M  V30 2523 C 237.242 1.14828 -4.10751 0
M  V30 2524 S 238.075 0.104938 -5.35397 0
M  V30 2525 C 239.231 1.28391 -6.1259 0
M  V30 2526 H 239.464 -0.164627 -2.96844 0
M  V30 2527 H 236.997 -0.203833 -1.53049 0
M  V30 2528 H 238.955 2.29271 -3.40507 0
M  V30 2529 H 237.616 2.20139 -2.24048 0
M  V30 2530 H 236.809 2.02561 -4.61503 0
M  V30 2531 H 236.411 0.553712 -3.69878 0
M  V30 2532 H 238.703 2.20563 -6.40592 0
M  V30 2533 H 239.646 0.816724 -7.03374 0
M  V30 2534 H 240.054 1.51439 -5.43807 0
M  V30 2535 N 239.452 1.56882 -0.150215 0
M  V30 2536 C 240.382 2.19935 0.784284 0
M  V30 2537 C 241.363 1.14854 1.25469 0
M  V30 2538 O 242.548 1.43209 1.31168 0
M  V30 2539 C 239.678 2.82349 2.02229 0
M  V30 2540 C 238.632 3.93285 1.68853 0
M  V30 2541 C 237.958 4.42649 2.99944 0
M  V30 2542 C 239.258 5.13904 0.932714 0
M  V30 2543 H 240.952 2.9828 0.258781 0
M  V30 2544 H 238.498 1.43473 0.123029 0
M  V30 2545 H 240.451 3.25126 2.68088 0
M  V30 2546 H 239.175 2.0134 2.57157 0
M  V30 2547 H 237.834 3.5113 1.05371 0
M  V30 2548 H 237.482 3.58458 3.52869 0
M  V30 2549 H 237.182 5.17476 2.78374 0
M  V30 2550 H 238.706 4.88099 3.66868 0
M  V30 2551 H 240.12 5.53506 1.49345 0
M  V30 2552 H 238.517 5.94515 0.81684 0
M  V30 2553 H 239.587 4.84842 -0.0749568 0
M  V30 2554 N 240.93 -0.123565 1.57115 0
M  V30 2555 C 242.179 -0.830704 1.83799 0
M  V30 2556 C 242.492 -1.81259 0.735158 0
M  V30 2557 O 243.698 -2.56558 0.888278 0
M  V30 2558 C 242.154 -1.52802 3.25852 0
M  V30 2559 C 241.762 -0.587356 4.44133 0
M  V30 2560 C 243.506 -2.22056 3.61789 0
M  V30 2561 C 241.413 -1.28764 5.77212 0
M  V30 2562 H 240.343 -0.313967 0.685522 0
M  V30 2563 H 242.994 -0.0834359 1.8331 0
M  V30 2564 H 241.376 -2.32175 3.20797 0
M  V30 2565 H 242.55 0.172829 4.60476 0
M  V30 2566 H 240.865 -0.00201892 4.164 0
M  V30 2567 H 243.462 -2.75131 4.58483 0
M  V30 2568 H 243.805 -2.99644 2.88997 0
M  V30 2569 H 244.338 -1.49576 3.68608 0
M  V30 2570 H 241.077 -0.55314 6.53162 0
M  V30 2571 H 240.597 -2.01995 5.64764 0
M  V30 2572 H 242.276 -1.8221 6.20813 0
M  V30 2573 N 242.408 -1.52605 -0.393616 0
M  V30 2574 C 243.356 -1.77688 -1.50099 0
M  V30 2575 C 244.35 -0.644615 -1.56656 0
M  V30 2576 O 245.556 -0.826997 -1.59877 0
M  V30 2577 H 241.931 -0.562159 -0.499481 0
M  V30 2578 H 243.902 -2.7043 -1.26135 0
M  V30 2579 C 242.651 -1.95858 -2.87289 0
M  V30 2580 H 241.974 -2.8241 -2.82992 0
M  V30 2581 H 243.414 -2.174 -3.64024 0
M  V30 2582 C 241.873 -0.729848 -3.28899 0
M  V30 2583 O 242.403 0.0949217 -4.01588 0
M  V30 2584 N 240.609 -0.561283 -2.85128 0
M  V30 2585 H 240.156 -1.23357 -2.26143 0
M  V30 2586 H 240.114 0.2595 -3.13327 0
M  V30 2587 N 243.887 0.651787 -1.4349 0
M  V30 2588 C 245.136 1.40754 -1.44469 0
M  V30 2589 C 245.449 1.95463 -0.0731845 0
M  V30 2590 O 246.655 2.71471 0.0395721 0
M  V30 2591 C 245.111 2.54735 -2.5424 0
M  V30 2592 C 244.719 2.06628 -3.97504 0
M  V30 2593 C 246.463 3.32092 -2.64414 0
M  V30 2594 C 244.37 3.17829 -4.98737 0
M  V30 2595 H 243.3 0.528862 -0.53742 0
M  V30 2596 H 245.951 0.703365 -1.69485 0
M  V30 2597 H 244.333 3.2763 -2.22428 0
M  V30 2598 H 245.507 1.40734 -4.38783 0
M  V30 2599 H 243.822 1.42146 -3.91387 0
M  V30 2600 H 246.419 4.14952 -3.37223 0
M  V30 2601 H 246.762 3.80217 -1.69532 0
M  V30 2602 H 247.295 2.66279 -2.95534 0
M  V30 2603 H 244.034 2.74671 -5.95177 0
M  V30 2604 H 243.554 3.82429 -4.62069 0
M  V30 2605 H 245.233 3.82937 -5.21505 0
M  V30 2606 N 245.365 1.30045 0.890287 0
M  V30 2607 C 246.315 1.12592 1.9826 0
M  V30 2608 C 247.299 0.0426021 1.60844 0
M  V30 2609 O 248.491 0.265346 1.75 0
M  V30 2610 C 245.62 0.814301 3.33503 0
M  V30 2611 C 244.706 1.93761 3.7725 0
M  V30 2612 N 245.097 3.18232 3.93143 0
M  V30 2613 C 243.395 1.83277 4.06602 0
M  V30 2614 C 244.096 3.9158 4.30163 0
M  V30 2615 N 243.072 3.19591 4.3973 0
M  V30 2616 H 246.874 2.07003 2.08631 0
M  V30 2617 H 244.388 1.21307 1.07974 0
M  V30 2618 H 246.385 0.67029 4.11476 0
M  V30 2619 H 245.045 -0.121797 3.24471 0
M  V30 2620 H 246.056 3.53581 3.78419 0
M  V30 2621 H 242.733 0.97001 4.06075 0
M  V30 2622 H 244.123 4.98744 4.50226 0
M  V30 2623 N 246.843 -1.10192 1.12674 0
M  V30 2624 C 248.068 -1.86523 0.906853 0
M  V30 2625 C 248.493 -1.80221 -0.538711 0
M  V30 2626 O 247.851 -1.17396 -1.38158 0
M  V30 2627 C 247.899 -3.32758 1.3894 0
M  V30 2628 O 247.003 -4.08449 0.5695 0
M  V30 2629 H 246.344 -0.578678 0.325619 0
M  V30 2630 H 248.874 -1.39203 1.49946 0
M  V30 2631 H 248.884 -3.83608 1.38958 0
M  V30 2632 H 247.559 -3.36661 2.44197 0
M  V30 2633 H 246.136 -3.67427 0.636528 0
M  V30 2634 N 248.321 -0.919034 -1.28029 0
M  V30 2635 C 249.598 -0.473668 -1.89778 0
M  V30 2636 C 249.978 1.04783 -1.83259 0
M  V30 2637 O 249.326 1.8982 -1.27202 0
M  V30 2638 C 249.536 -1.00998 -3.34066 0
M  V30 2639 C 250.884 -1.06525 -4.1102 0
M  V30 2640 O 251.908 -0.958996 -3.43048 0
M  V30 2641 O 250.767 -1.22776 -5.3253 0
M  V30 2642 H 247.861 -0.15098 -0.813101 0
M  V30 2643 H 250.407 -1.01016 -1.36359 0
M  V30 2644 H 249.179 -2.05392 -3.33061 0
M  V30 2645 H 248.802 -0.454626 -3.94992 0
M  V30 2646 N 249.799 1.42003 -0.683588 0
M  V30 2647 C 250.749 2.27997 0.0121992 0
M  V30 2648 C 251.733 1.4156 0.764822 0
M  V30 2649 O 252.925 1.64935 0.642287 0
M  V30 2650 C 250.054 3.29706 0.956482 0
M  V30 2651 C 249.14 4.23625 0.200739 0
M  V30 2652 N 249.531 4.99448 -0.799087 0
M  V30 2653 C 247.829 4.43845 0.437937 0
M  V30 2654 C 248.53 5.68102 -1.25041 0
M  V30 2655 N 247.506 5.40511 -0.578648 0
M  V30 2656 H 251.308 2.84048 -0.754564 0
M  V30 2657 H 248.822 1.54071 -0.513398 0
M  V30 2658 H 250.819 3.90124 1.47 0
M  V30 2659 H 249.479 2.75216 1.72297 0
M  V30 2660 H 250.49 5.04303 -1.17893 0
M  V30 2661 H 247.167 4.00382 1.18325 0
M  V30 2662 H 248.557 6.38913 -2.07942 0
M  V30 2663 N 251.277 0.427512 1.51691 0
M  V30 2664 C 252.526 -0.143679 2.01188 0
M  V30 2665 C 252.839 -1.44642 1.31674 0
M  V30 2666 O 254.045 -2.09997 1.72086 0
M  V30 2667 C 252.501 -0.306602 3.58592 0
M  V30 2668 C 252.109 0.985125 4.37035 0
M  V30 2669 C 253.853 -0.832091 4.16265 0
M  V30 2670 C 251.76 0.788382 5.86122 0
M  V30 2671 H 250.69 -0.0574701 0.751807 0
M  V30 2672 H 253.341 0.555772 1.74881 0
M  V30 2673 H 251.723 -1.06882 3.81303 0
M  V30 2674 H 252.897 1.75492 4.26074 0
M  V30 2675 H 251.212 1.4384 3.90767 0
M  V30 2676 H 253.809 -0.995617 5.25349 0
M  V30 2677 H 254.152 -1.81186 3.74803 0
M  V30 2678 H 254.685 -0.128444 3.97593 0
M  V30 2679 H 251.424 1.74025 6.31978 0
M  V30 2680 H 250.944 0.0582143 5.99772 0
M  V30 2681 H 252.623 0.437722 6.45518 0
M  V30 2682 N 252.755 -1.56801 0.158532 0
M  V30 2683 C 253.685 -2.20347 -0.772609 0
M  V30 2684 C 254.666 -1.15518 -1.24859 0
M  V30 2685 O 255.851 -1.43902 -1.30406 0
M  V30 2686 C 252.981 -2.83417 -2.00729 0
M  V30 2687 C 251.935 -3.94174 -1.66765 0
M  V30 2688 C 251.261 -4.44233 -2.97592 0
M  V30 2689 C 252.561 -5.14392 -0.905447 0
M  V30 2690 H 254.255 -2.98413 -0.242959 0
M  V30 2691 H 251.801 -1.43537 -0.115419 0
M  V30 2692 H 253.754 -3.26543 -2.6636 0
M  V30 2693 H 252.478 -2.02701 -2.56086 0
M  V30 2694 H 251.137 -3.51684 -1.03508 0
M  V30 2695 H 250.785 -3.60325 -3.50963 0
M  V30 2696 H 250.485 -5.18945 -2.75626 0
M  V30 2697 H 252.009 -4.90037 -3.64274 0
M  V30 2698 H 253.423 -5.5429 -1.46408 0
M  V30 2699 H 251.82 -5.9494 -0.7853 0
M  V30 2700 H 252.89 -4.84795 0.100668 0
M  V30 2701 N 254.233 0.115231 -1.57178 0
M  V30 2702 C 255.649 0.468877 -1.52557 0
M  V30 2703 C 255.849 1.81649 -0.872125 0
M  V30 2704 O 254.905 2.48347 -0.45606 0
M  V30 2705 C 256.218 0.4499 -2.97315 0
M  V30 2706 C 257.766 0.533185 -3.08425 0
M  V30 2707 C 258.241 0.54456 -4.54751 0
M  V30 2708 N 259.732 0.605892 -4.5922 0
M  V30 2709 C 260.467 0.636203 -5.6986 0
M  V30 2710 N 259.963 0.623931 -6.89985 0
M  V30 2711 N 261.756 0.679496 -5.57978 0
M  V30 2712 H 253.907 -0.767712 -1.9804 0
M  V30 2713 H 256.17 -0.283609 -0.904583 0
M  V30 2714 H 255.876 -0.472721 -3.48509 0
M  V30 2715 H 255.75 1.27632 -3.5495 0
M  V30 2716 H 258.137 1.44623 -2.57232 0
M  V30 2717 H 258.218 -0.320995 -2.53778 0
M  V30 2718 H 257.862 -0.364452 -5.06591 0
M  V30 2719 H 257.792 1.41568 -5.07214 0
M  V30 2720 H 260.283 0.621386 -3.72756 0
M  V30 2721 H 260.596 0.649787 -7.70063 0
M  V30 2722 H 258.941 0.591296 -6.9248 0
M  V30 2723 H 262.132 0.686472 -4.63039 0
M  V30 2724 H 262.305 0.69965 -6.44212 0
M  V30 2725 N 255.711 1.52812 0.385517 0
M  V30 2726 C 256.659 1.78482 1.49155 0
M  V30 2727 C 257.653 0.652914 1.56312 0
M  V30 2728 O 258.859 0.835464 1.59436 0
M  V30 2729 H 255.234 0.5648 0.496493 0
M  V30 2730 H 257.205 2.71095 1.24699 0
M  V30 2731 C 255.954 1.97378 2.86247 0
M  V30 2732 H 255.277 2.83907 2.81491 0
M  V30 2733 H 256.717 2.19327 3.62866 0
M  V30 2734 C 255.176 0.74728 3.28508 0
M  V30 2735 O 255.706 -0.0736232 4.01633 0
M  V30 2736 N 253.912 0.576396 2.84826 0
M  V30 2737 H 253.459 1.24555 2.25486 0
M  V30 2738 H 253.417 -0.24288 3.1346 0
M  V30 2739 N 257.189 -0.644168 1.43834 0
M  V30 2740 C 258.119 -1.76814 1.52509 0
M  V30 2741 C 259.1 -1.65823 0.379052 0
M  V30 2742 O 260.285 -1.84781 0.597466 0
M  V30 2743 C 257.415 -3.15288 1.4564 0
M  V30 2744 C 256.369 -3.41053 2.58586 0
M  V30 2745 C 255.695 -4.79421 2.36769 0
M  V30 2746 C 256.995 -3.34902 4.00797 0
M  V30 2747 H 258.689 -1.69812 2.46586 0
M  V30 2748 H 256.235 -0.815542 1.1868 0
M  V30 2749 H 258.188 -3.93681 1.50311 0
M  V30 2750 H 256.912 -3.23043 0.480725 0
M  V30 2751 H 255.571 -2.65035 2.53282 0
M  V30 2752 H 255.219 -4.83863 1.37424 0
M  V30 2753 H 254.919 -4.9762 3.12487 0
M  V30 2754 H 256.443 -5.6006 2.43238 0
M  V30 2755 H 257.857 -4.03218 4.07539 0
M  V30 2756 H 256.254 -3.64637 4.76613 0
M  V30 2757 H 257.324 -2.32928 4.25291 0
M  V30 2758 N 258.668 -1.30515 -0.883378 0
M  V30 2759 C 260.084 -1.08881 -1.16692 0
M  V30 2760 C 260.284 0.149409 -2.00945 0
M  V30 2761 O 259.34 0.84257 -2.38027 0
M  V30 2762 C 260.653 -2.35319 -1.87204 0
M  V30 2763 C 262.201 -2.40799 -1.99962 0
M  V30 2764 C 262.676 -3.67083 -2.73887 0
M  V30 2765 N 264.167 -3.679 -2.81432 0
M  V30 2766 C 264.902 -4.62303 -3.3921 0
M  V30 2767 N 264.398 -5.67052 -3.98025 0
M  V30 2768 N 266.191 -4.49845 -3.3704 0
M  V30 2769 H 258.342 -2.09951 -0.321633 0
M  V30 2770 H 260.605 -0.92556 -0.205043 0
M  V30 2771 H 260.311 -3.25689 -1.3274 0
M  V30 2772 H 260.185 -2.44089 -2.87577 0
M  V30 2773 H 262.572 -1.50907 -2.53597 0
M  V30 2774 H 262.653 -2.36003 -0.98673 0
M  V30 2775 H 262.297 -4.57334 -2.20925 0
M  V30 2776 H 262.227 -3.69141 -3.75556 0
M  V30 2777 H 264.718 -2.92171 -2.39676 0
M  V30 2778 H 265.031 -6.35184 -4.40183 0
M  V30 2779 H 263.376 -5.70842 -3.96439 0
M  V30 2780 H 266.567 -3.67194 -2.90321 0
M  V30 2781 H 266.74 -5.23597 -3.81772 0
M  V30 2782 N 260.146 1.09593 -1.13257 0
M  V30 2783 C 261.093 2.1618 -0.808381 0
M  V30 2784 C 262.063 1.64517 0.228754 0
M  V30 2785 O 263.248 1.9053 0.101381 0
M  V30 2786 C 260.388 3.43973 -0.278675 0
M  V30 2787 C 259.501 4.09545 -1.37466 0
M  V30 2788 C 258.636 5.25088 -0.803479 0
M  V30 2789 C 257.675 5.82579 -1.87799 0
M  V30 2790 N 256.812 6.89486 -1.32488 0
M  V30 2791 H 261.652 2.43254 -1.72138 0
M  V30 2792 H 259.189 1.19392 -0.859294 0
M  V30 2793 H 261.147 4.17174 0.0465583 0
M  V30 2794 H 259.777 3.17223 0.597459 0
M  V30 2795 H 258.829 3.34226 -1.81652 0
M  V30 2796 H 260.141 4.48307 -2.18684 0
M  V30 2797 H 259.295 6.05178 -0.429427 0
M  V30 2798 H 258.034 4.87684 0.0397956 0
M  V30 2799 H 257.039 5.01152 -2.26113 0
M  V30 2800 H 258.264 6.22045 -2.72463 0
M  V30 2801 H 256.21 6.54064 -0.503575 0
M  V30 2802 H 256.127 7.27007 -2.07355 0
M  V30 2803 H 257.395 7.73336 -0.978336 0
M  V30 2804 N 261.624 0.925811 1.2754 0
M  V30 2805 C 263.035 0.610102 1.7645 0
M  V30 2806 C 263.386 -0.874723 1.75622 0
M  V30 2807 O 262.511 -1.68444 1.35851 0
M  V30 2808 C 263.106 1.10073 3.20421 0
M  V30 2809 C 261.665 0.835723 3.67005 0
M  V30 2810 C 260.812 1.26054 2.46993 0
M  V30 2811 H 263.763 1.10579 1.13833 0
M  V30 2812 H 263.784 0.447557 3.77859 0
M  V30 2813 H 263.296 2.18143 3.20991 0
M  V30 2814 H 261.397 -0.231249 3.71882 0
M  V30 2815 H 261.51 1.45193 4.56569 0
M  V30 2816 H 259.874 0.679111 2.45479 0
M  V30 2817 H 260.657 2.34984 2.50275 0
M  V30 2818 N 263.102 -1.41638 0.69111 0
M  V30 2819 C 264.35 -2.00902 0.219758 0
M  V30 2820 C 264.671 -1.54994 -1.18329 0
M  V30 2821 O 263.941 -0.778628 -1.79762 0
M  V30 2822 H 262.521 -0.74289 0.0782558 0
M  V30 2823 H 265.183 -1.73327 0.891271 0
M  V30 2824 H 264.279 -3.11224 0.233708 0
M  V30 2825 N 264.58 -0.43555 -1.51462 0
M  V30 2826 C 265.857 0.191364 -1.94662 0
M  V30 2827 C 266.237 1.60254 -1.37411 0
M  V30 2828 O 265.585 2.2152 -0.560458 0
M  V30 2829 C 265.795 0.17091 -3.48581 0
M  V30 2830 C 267.143 0.377357 -4.2292 0
M  V30 2831 O 268.167 0.249104 -3.55328 0
M  V30 2832 O 267.026 0.63247 -5.42828 0
M  V30 2833 H 264.12 0.130932 -0.816569 0
M  V30 2834 H 266.666 -0.4934 -1.62369 0
M  V30 2835 H 265.438 -0.815738 -3.82703 0
M  V30 2836 H 265.061 0.898659 -3.87311 0
M  V30 2837 N 266.058 1.56714 -0.166846 0
M  V30 2838 C 267.286 2.0112 0.485644 0
M  V30 2839 C 267.701 1.04705 1.57106 0
M  V30 2840 O 267.058 0.0471923 1.82439 0
M  V30 2841 C 267.109 3.45361 1.06808 0
M  V30 2842 O 266.83 4.38092 0.0259995 0
M  V30 2843 C 268.331 4.05145 1.79924 0
M  V30 2844 H 265.551 0.65931 0.124704 0
M  V30 2845 H 268.095 2.02746 -0.267262 0
M  V30 2846 H 266.25 3.44524 1.7715 0
M  V30 2847 H 266.664 5.22519 0.455398 0
M  V30 2848 H 268.138 5.08009 2.15942 0
M  V30 2849 H 268.615 3.46982 2.69258 0
M  V30 2850 H 269.221 4.09672 1.14234 0
M  V30 2851 N 267.536 -0.106894 1.57237 0
M  V30 2852 C 268.784 -0.810921 1.85117 0
M  V30 2853 C 269.105 -1.7984 0.753827 0
M  V30 2854 O 268.375 -1.94649 -0.221056 0
M  V30 2855 H 266.955 -0.302466 0.683025 0
M  V30 2856 H 269.617 -0.0913324 1.94686 0
M  V30 2857 H 268.713 -1.34875 2.81452 0
M  V30 2858 N 269.014 -1.53014 -0.377408 0
M  V30 2859 C 270.244 -1.72265 -1.14054 0
M  V30 2860 C 270.652 -0.44601 -1.83868 0
M  V30 2861 O 269.995 0.590095 -1.73964 0
M  V30 2862 C 270.057 -2.82492 -2.22348 0
M  V30 2863 C 269.721 -4.23233 -1.72402 0
M  V30 2864 C 270.718 -5.05992 -1.19448 0
M  V30 2865 C 268.403 -4.696 -1.78273 0
M  V30 2866 C 270.397 -6.33203 -0.730268 0
M  V30 2867 C 268.084 -5.96792 -1.31464 0
M  V30 2868 C 269.082 -6.78424 -0.789297 0
M  V30 2869 O 268.77 -8.0323 -0.328077 0
M  V30 2870 H 268.502 -0.579873 -0.347453 0
M  V30 2871 H 271.056 -2.00502 -0.445882 0
M  V30 2872 H 269.286 -2.49702 -2.95272 0
M  V30 2873 H 270.975 -2.90034 -2.83963 0
M  V30 2874 H 271.741 -4.71349 -1.14259 0
M  V30 2875 H 267.62 -4.06142 -2.18106 0
M  V30 2876 H 271.164 -6.96868 -0.319542 0
M  V30 2877 H 267.061 -6.30937 -1.36342 0
M  V30 2878 H 267.829 -8.1727 -0.448493 0
M  V30 2879 N 270.492 0.636531 -1.44174 0
M  V30 2880 C 271.439 1.74875 -1.50624 0
M  V30 2881 C 272.409 1.62275 -0.35442 0
M  V30 2882 O 273.594 1.82276 -0.563908 0
M  V30 2883 C 270.734 3.13102 -1.45125 0
M  V30 2884 C 269.847 3.36717 -2.7064 0
M  V30 2885 C 268.982 4.64885 -2.57013 0
M  V30 2886 C 268.021 4.8166 -3.77717 0
M  V30 2887 N 267.158 6.01101 -3.62798 0
M  V30 2888 H 271.998 1.68697 -2.45653 0
M  V30 2889 H 269.535 0.823004 -1.21922 0
M  V30 2890 H 271.493 3.93034 -1.39929 0
M  V30 2891 H 270.123 3.18308 -0.536671 0
M  V30 2892 H 269.175 2.50763 -2.86046 0
M  V30 2893 H 270.487 3.44993 -3.60252 0
M  V30 2894 H 269.641 5.52969 -2.49619 0
M  V30 2895 H 268.38 4.58957 -1.64953 0
M  V30 2896 H 267.385 3.92007 -3.85501 0
M  V30 2897 H 268.61 4.89406 -4.70807 0
M  V30 2898 H 266.556 5.96273 -2.73486 0
M  V30 2899 H 266.473 6.10409 -4.46023 0
M  V30 2900 H 267.741 6.91761 -3.59286 0
M  V30 2901 N 271.97 1.30982 0.876444 0
M  V30 2902 C 273.219 1.19658 1.62373 0
M  V30 2903 C 273.532 -0.245636 1.94052 0
M  V30 2904 O 274.738 -0.48049 2.67214 0
M  V30 2905 C 273.194 2.09433 2.92687 0
M  V30 2906 C 272.802 3.58613 2.68516 0
M  V30 2907 C 274.546 2.06893 3.70669 0
M  V30 2908 C 272.453 4.40416 3.94699 0
M  V30 2909 H 271.383 0.444268 0.609214 0
M  V30 2910 H 274.034 1.55791 0.969605 0
M  V30 2911 H 272.416 1.66191 3.59439 0
M  V30 2912 H 273.59 4.10058 2.10212 0
M  V30 2913 H 271.905 3.63063 2.03898 0
M  V30 2914 H 274.502 2.65258 4.64265 0
M  V30 2915 H 274.845 1.05448 4.02724 0
M  V30 2916 H 275.378 2.48301 3.10792 0
M  V30 2917 H 272.117 5.42591 3.67798 0
M  V30 2918 H 271.637 3.93731 4.52477 0
M  V30 2919 H 273.316 4.52294 4.62644 0
M  V30 2920 N 273.449 -1.08991 1.13837 0
M  V30 2921 C 274.86 -1.62746 0.914917 0
M  V30 2922 C 275.211 -1.88403 -0.547594 0
M  V30 2923 O 274.336 -1.63706 -1.41525 0
M  V30 2924 C 274.931 -2.95662 1.65437 0
M  V30 2925 C 273.49 -3.46225 1.47666 0
M  V30 2926 C 272.637 -2.20562 1.6807 0
M  V30 2927 H 275.588 -0.922946 1.29102 0
M  V30 2928 H 275.609 -3.63825 1.11407 0
M  V30 2929 H 275.121 -2.76956 2.71877 0
M  V30 2930 H 273.222 -3.70046 0.435478 0
M  V30 2931 H 273.335 -4.23368 2.24268 0
M  V30 2932 H 271.699 -2.29439 1.10589 0
M  V30 2933 H 272.482 -2.0437 2.7584 0
M  V30 2934 N 274.927 -0.932562 -1.27047 0
M  V30 2935 C 276.343 -0.633544 -1.46487 0
M  V30 2936 C 276.543 0.815746 -1.84249 0
M  V30 2937 O 275.599 1.59319 -1.95892 0
M  V30 2938 C 276.912 -1.58758 -2.55375 0
M  V30 2939 C 278.46 -1.59634 -2.69232 0
M  V30 2940 C 278.935 -2.53747 -3.81283 0
M  V30 2941 N 280.426 -2.51982 -3.88664 0
M  V30 2942 C 281.161 -3.21491 -4.74796 0
M  V30 2943 N 280.657 -4.00395 -5.65381 0
M  V30 2944 N 282.45 -3.10485 -4.68568 0
M  V30 2945 H 274.601 -1.86946 -1.00821 0
M  V30 2946 H 276.864 -0.802897 -0.504044 0
M  V30 2947 H 276.57 -2.62172 -2.34432 0
M  V30 2948 H 276.444 -1.33301 -3.52861 0
M  V30 2949 H 278.831 -0.569488 -2.89553 0
M  V30 2950 H 278.912 -1.89142 -1.72218 0
M  V30 2951 H 278.556 -3.56545 -3.61715 0
M  V30 2952 H 278.486 -2.21532 -4.77735 0
M  V30 2953 H 280.977 -1.94681 -3.23895 0
M  V30 2954 H 281.29 -4.50406 -6.27976 0
M  V30 2955 H 279.635 -4.04498 -5.65161 0
M  V30 2956 H 282.826 -2.48331 -3.96799 0
M  V30 2957 H 282.999 -3.64925 -5.35475 0
M  V30 2958 N 276.405 1.4127 -0.698611 0
M  V30 2959 C 277.653 2.00782 -0.230409 0
M  V30 2960 C 277.974 1.5562 1.17505 0
M  V30 2961 O 277.244 0.78815 1.79346 0
M  V30 2962 H 275.824 0.742464 -0.0821944 0
M  V30 2963 H 278.486 1.72852 -0.90045 0
M  V30 2964 H 277.582 3.11095 -0.25021 0
M  V30 2965 N 277.883 0.443576 1.51229 0
M  V30 2966 C 279.131 -0.120557 2.0174 0
M  V30 2967 C 279.452 -1.42665 1.32935 0
M  V30 2968 O 278.722 -1.9028 0.465866 0
M  V30 2969 H 277.302 -0.0475426 0.745486 0
M  V30 2970 H 279.964 0.587711 1.85828 0
M  V30 2971 H 279.06 -0.291972 3.10731 0
M  V30 2972 N 279.361 -1.56624 0.175154 0
M  V30 2973 C 280.291 -2.21155 -0.749195 0
M  V30 2974 C 281.272 -1.16836 -1.23626 0
M  V30 2975 O 282.457 -1.45277 -1.28873 0
M  V30 2976 C 279.587 -2.8553 -1.97711 0
M  V30 2977 C 278.541 -3.95921 -1.62575 0
M  V30 2978 C 277.867 -4.47365 -2.92864 0
M  V30 2979 C 279.167 -5.15323 -0.850838 0
M  V30 2980 H 280.861 -2.98653 -0.211295 0
M  V30 2981 H 278.407 -1.43651 -0.100188 0
M  V30 2982 H 280.36 -3.2935 -2.62881 0
M  V30 2983 H 279.084 -2.05406 -2.53921 0
M  V30 2984 H 277.743 -3.52762 -0.997719 0
M  V30 2985 H 277.391 -3.64027 -3.47122 0
M  V30 2986 H 277.091 -5.21839 -2.70106 0
M  V30 2987 H 278.615 -4.93873 -3.59056 0
M  V30 2988 H 280.029 -5.55812 -1.40521 0
M  V30 2989 H 278.426 -5.95739 -0.722154 0
M  V30 2990 H 279.496 -4.84661 0.152082 0
M  V30 2991 N 280.839 0.0985539 -1.57292 0
M  V30 2992 C 282.086 0.802678 -1.85912 0
M  V30 2993 C 282.414 1.78901 -0.763186 0
M  V30 2994 O 281.669 1.94178 0.243559 0
M  V30 2995 C 281.968 1.56927 -3.21105 0
M  V30 2996 C 281.634 0.725376 -4.45027 0
M  V30 2997 C 280.296 0.492726 -4.78671 0
M  V30 2998 C 282.648 0.138493 -5.21016 0
M  V30 2999 C 279.976 -0.336727 -5.85733 0
M  V30 3000 C 282.328 -0.678264 -6.28953 0
M  V30 3001 C 280.992 -0.921039 -6.61115 0
M  V30 3002 H 280.262 0.293721 -0.680301 0
M  V30 3003 H 282.909 0.0642841 -1.91392 0
M  V30 3004 H 281.214 2.37914 -3.11294 0
M  V30 3005 H 282.911 2.11841 -3.40477 0
M  V30 3006 H 279.501 0.916815 -4.18679 0
M  V30 3007 H 283.685 0.305404 -4.95359 0
M  V30 3008 H 278.941 -0.533836 -6.09065 0
M  V30 3009 H 283.115 -1.1399 -6.87007 0
M  V30 3010 H 280.742 -1.56556 -7.43905 0
M  V30 3011 N 282.317 1.53212 0.369288 0
M  V30 3012 C 283.227 1.82342 1.47609 0
M  V30 3013 C 284.243 0.711532 1.58787 0
M  V30 3014 O 285.419 1.0012 1.74751 0
M  V30 3015 C 282.484 2.00393 2.8292 0
M  V30 3016 C 281.545 3.24297 2.81301 0
M  V30 3017 C 280.778 3.41478 4.10157 0
M  V30 3018 O 281.001 2.63033 5.06132 0
M  V30 3019 O 279.935 4.34817 4.16194 0
M  V30 3020 H 283.761 2.76366 1.25918 0
M  V30 3021 H 281.346 1.38547 0.559034 0
M  V30 3022 H 283.228 2.13859 3.63101 0
M  V30 3023 H 281.903 1.09559 3.04596 0
M  V30 3024 H 280.81 3.16257 1.99831 0
M  V30 3025 H 282.143 4.15041 2.64578 0
M  V30 3026 N 283.795 -0.628877 1.44509 0
M  V30 3027 C 285.025 -1.41349 1.50678 0
M  V30 3028 C 285.433 -1.88745 0.131075 0
M  V30 3029 O 284.776 -1.61592 -0.87371 0
M  V30 3030 C 284.838 -2.66608 2.41165 0
M  V30 3031 C 284.502 -2.40993 3.88293 0
M  V30 3032 C 285.499 -2.0268 4.78766 0
M  V30 3033 C 283.184 -2.54563 4.33016 0
M  V30 3034 C 285.178 -1.78269 6.11963 0
M  V30 3035 C 282.865 -2.29766 5.6626 0
M  V30 3036 C 283.863 -1.91678 6.55552 0
M  V30 3037 O 283.551 -1.67158 7.86329 0
M  V30 3038 H 283.283 -0.439851 0.51333 0
M  V30 3039 H 285.837 -0.776084 1.90174 0
M  V30 3040 H 284.067 -3.32994 1.96601 0
M  V30 3041 H 285.756 -3.28615 2.38259 0
M  V30 3042 H 286.522 -1.91751 4.45485 0
M  V30 3043 H 282.401 -2.83179 3.63773 0
M  V30 3044 H 285.945 -1.48465 6.81619 0
M  V30 3045 H 281.842 -2.40306 5.99102 0
M  V30 3046 H 282.61 -1.81386 7.98149 0
M  V30 3047 N 285.273 -1.31445 -0.869486 0
M  V30 3048 C 286.519 -1.21337 -1.62496 0
M  V30 3049 C 286.852 0.227872 -1.92858 0
M  V30 3050 O 286.127 1.16094 -1.56053 0
M  V30 3051 C 286.41 -2.05814 -2.95487 0
M  V30 3052 C 286.263 -3.5824 -2.72 0
M  V30 3053 C 287.582 -1.9079 -3.96594 0
M  V30 3054 H 284.701 -0.442135 -0.589649 0
M  V30 3055 H 287.343 -1.6124 -1.00507 0
M  V30 3056 H 285.493 -1.71913 -3.48394 0
M  V30 3057 H 287.165 -4.0228 -2.25762 0
M  V30 3058 H 285.408 -3.81647 -2.06224 0
M  V30 3059 H 286.079 -4.12657 -3.66631 0
M  V30 3060 H 288.555 -2.20459 -3.52898 0
M  V30 3061 H 287.431 -2.52199 -4.87531 0
M  V30 3062 H 287.692 -0.871341 -4.33428 0
M  V30 3063 N 286.751 1.08385 -1.14413 0
M  V30 3064 C 287.979 1.84517 -0.936001 0
M  V30 3065 C 288.394 1.81626 0.515503 0
M  V30 3066 O 287.751 1.22008 1.35721 0
M  V30 3067 C 287.802 3.32049 -1.42918 0
M  V30 3068 O 287.523 3.34951 -2.82381 0
M  V30 3069 C 289.024 4.24986 -1.26103 0
M  V30 3070 H 286.244 0.582491 -0.333084 0
M  V30 3071 H 288.788 1.36885 -1.5193 0
M  V30 3072 H 286.943 3.7707 -0.888641 0
M  V30 3073 H 287.357 4.27048 -3.04517 0
M  V30 3074 H 288.831 5.26615 -1.6547 0
M  V30 3075 H 289.308 4.38726 -0.20392 0
M  V30 3076 H 289.914 3.85791 -1.79012 0
M  V30 3077 N 288.23 0.939286 1.26551 0
M  V30 3078 C 289.193 0.451987 2.24699 0
M  V30 3079 C 290.193 -0.435869 1.5478 0
M  V30 3080 O 291.383 -0.235314 1.72603 0
M  V30 3081 C 288.515 -0.348801 3.39111 0
M  V30 3082 H 289.708 1.3193 2.69322 0
M  V30 3083 H 287.261 0.721072 1.38673 0
M  V30 3084 H 287.996 -1.23444 2.99887 0
M  V30 3085 H 287.781 0.287945 3.91041 0
M  V30 3086 H 289.271 -0.679726 4.12031 0
M  V30 3087 N 289.708 -1.40897 0.706093 0
M  V30 3088 C 290.671 -2.29131 0.0562841 0
M  V30 3089 C 291.671 -1.44901 -0.697166 0
M  V30 3090 O 292.861 -1.65926 -0.530484 0
M  V30 3091 C 289.993 -3.27957 -0.93043 0
M  V30 3092 H 291.186 -2.88091 0.833284 0
M  V30 3093 H 288.739 -1.4906 0.470192 0
M  V30 3094 H 289.474 -2.73997 -1.73482 0
M  V30 3095 H 289.259 -3.90124 -0.393166 0
M  V30 3096 H 290.749 -3.94049 -1.38256 0
M  V30 3097 N 291.186 -0.45159 -1.50991 0
M  V30 3098 C 292.134 0.366864 -2.29689 0
M  V30 3099 C 293.128 1.00809 -1.36139 0
M  V30 3100 O 294.334 0.941427 -1.53418 0
M  V30 3101 H 290.709 0.137133 -0.739391 0
M  V30 3102 H 292.68 -0.317538 -2.96706 0
M  V30 3103 C 291.429 1.44751 -3.16137 0
M  V30 3104 H 290.752 0.963473 -3.88017 0
M  V30 3105 H 292.192 1.99315 -3.74232 0
M  V30 3106 C 290.651 2.43869 -2.32442 0
M  V30 3107 O 291.181 3.4872 -1.99392 0
M  V30 3108 N 289.387 2.15105 -1.95392 0
M  V30 3109 H 288.934 1.29866 -2.22469 0
M  V30 3110 H 288.892 2.81661 -1.39693 0
M  V30 3111 N 292.664 1.56529 -0.183458 0
M  V30 3112 C 293.894 2.01331 0.463612 0
M  V30 3113 C 294.302 1.06278 1.5653 0
M  V30 3114 O 293.645 0.0577976 1.83609 0
M  V30 3115 C 293.707 3.42547 1.09096 0
M  V30 3116 C 293.371 4.56817 0.129442 0
M  V30 3117 C 294.368 5.15734 -0.656807 0
M  V30 3118 C 292.053 5.02295 0.02174 0
M  V30 3119 C 294.047 6.1857 -1.53784 0
M  V30 3120 C 291.734 6.04978 -0.862864 0
M  V30 3121 C 292.732 6.62988 -1.64123 0
M  V30 3122 O 292.42 7.63677 -2.51103 0
M  V30 3123 H 292.152 0.664917 0.121907 0
M  V30 3124 H 294.706 2.034 -0.285954 0
M  V30 3125 H 292.936 3.37428 1.88889 0
M  V30 3126 H 294.625 3.71228 1.64148 0
M  V30 3127 H 295.391 4.81473 -0.583839 0
M  V30 3128 H 291.27 4.56847 0.617392 0
M  V30 3129 H 294.814 6.63777 -2.14583 0
M  V30 3130 H 290.711 6.38663 -0.93699 0
M  V30 3131 H 291.479 7.81049 -2.44753 0
M  V30 3132 N 294.142 -0.090211 1.57342 0
M  V30 3133 C 295.389 -0.792807 1.86335 0
M  V30 3134 C 295.717 -1.78494 0.772662 0
M  V30 3135 O 294.972 -1.94305 -0.233258 0
M  V30 3136 C 295.271 -1.55222 3.21933 0
M  V30 3137 C 294.937 -0.701765 4.45406 0
M  V30 3138 C 293.599 -0.467334 4.78925 0
M  V30 3139 C 295.951 -0.11086 5.21082 0
M  V30 3140 C 293.279 0.367785 5.85546 0
M  V30 3141 C 295.631 0.711609 6.28585 0
M  V30 3142 C 294.295 0.956086 6.60617 0
M  V30 3143 H 293.565 -0.290109 0.681849 0
M  V30 3144 H 296.212 -0.0541332 1.91423 0
M  V30 3145 H 294.517 -2.3626 3.12551 0
M  V30 3146 H 296.214 -2.10032 3.41595 0
M  V30 3147 H 292.804 -0.894598 4.1916 0
M  V30 3148 H 296.988 -0.279129 4.95514 0
M  V30 3149 H 292.244 0.566128 6.08773 0
M  V30 3150 H 296.418 1.17632 6.86393 0
M  V30 3151 H 294.045 1.60499 7.43064 0
M  V30 3152 N 295.62 -1.53406 -0.361157 0
M  V30 3153 C 296.868 -1.69467 -1.10115 0
M  V30 3154 C 297.189 -0.451352 -1.89705 0
M  V30 3155 O 296.459 0.534636 -1.88463 0
M  V30 3156 H 295.039 -0.624749 -0.409508 0
M  V30 3157 H 297.701 -1.90609 -0.406699 0
M  V30 3158 H 296.797 -2.55774 -1.78847 0
M  V30 3159 N 297.098 0.621204 -1.44841 0
M  V30 3160 C 298.008 1.7612 -1.5498 0
M  V30 3161 C 299.024 1.68477 -0.434927 0
M  V30 3162 O 300.2 1.89076 -0.693693 0
M  V30 3163 C 297.265 3.1254 -1.50065 0
M  V30 3164 C 296.326 3.31741 -2.72482 0
M  V30 3165 C 295.559 4.61653 -2.67792 0
M  V30 3166 O 295.782 5.431 -1.74352 0
M  V30 3167 O 294.716 4.83271 -3.58794 0
M  V30 3168 H 298.542 1.70518 -2.51311 0
M  V30 3169 H 296.127 0.783643 -1.27198 0
M  V30 3170 H 298.009 3.93844 -1.49882 0
M  V30 3171 H 296.684 3.18663 -0.568806 0
M  V30 3172 H 295.591 2.50077 -2.7823 0
M  V30 3173 H 296.924 3.30486 -3.64746 0
M  V30 3174 N 298.576 1.31904 0.862503 0
M  V30 3175 C 299.825 1.21373 1.61094 0
M  V30 3176 C 300.138 -0.22504 1.94301 0
M  V30 3177 O 301.344 -0.452121 2.67709 0
M  V30 3178 C 299.8 2.12525 2.9045 0
M  V30 3179 C 299.408 3.61441 2.64697 0
M  V30 3180 C 301.152 2.10813 3.68454 0
M  V30 3181 C 299.059 4.44578 3.90006 0
M  V30 3182 H 297.989 0.450705 0.604468 0
M  V30 3183 H 300.64 1.56811 0.953027 0
M  V30 3184 H 299.022 1.69994 3.57656 0
M  V30 3185 H 300.196 4.12264 2.05851 0
M  V30 3186 H 298.511 3.65205 2.00036 0
M  V30 3187 H 301.108 2.70167 4.61426 0
M  V30 3188 H 301.451 1.09713 4.01583 0
M  V30 3189 H 301.984 2.51583 3.08141 0
M  V30 3190 H 298.723 5.46461 3.62023 0
M  V30 3191 H 298.243 3.98508 4.48276 0
M  V30 3192 H 299.922 4.57176 4.5782 0
M  V30 3193 N 300.054 -1.07777 1.14986 0
M  V30 3194 C 300.987 -2.14228 0.786243 0
M  V30 3195 C 301.965 -1.60888 -0.235347 0
M  V30 3196 O 303.149 -1.88099 -0.122909 0
M  V30 3197 C 300.276 -3.38281 0.168433 0
M  V30 3198 C 299.322 -4.10387 1.16123 0
M  V30 3199 S 300.155 -4.62371 2.70135 0
M  V30 3200 C 301.311 -5.89704 2.09762 0
M  V30 3201 H 301.544 -2.44741 1.68787 0
M  V30 3202 H 299.077 -1.19984 0.971756 0
M  V30 3203 H 301.035 -4.10098 -0.181588 0
M  V30 3204 H 299.696 -3.05953 -0.710725 0
M  V30 3205 H 298.889 -4.99431 0.677086 0
M  V30 3206 H 298.491 -3.44513 1.45556 0
M  V30 3207 H 300.783 -6.61648 1.45701 0
M  V30 3208 H 301.726 -6.42824 2.96955 0
M  V30 3209 H 302.134 -5.4302 1.54239 0
M  V30 3210 N 301.532 -0.945985 -1.26051 0
M  V30 3211 C 302.442 -0.465633 -2.29933 0
M  V30 3212 C 303.458 0.462761 -1.67733 0
M  V30 3213 O 304.634 0.341118 -1.9849 0
M  V30 3214 C 301.699 0.256994 -3.45746 0
M  V30 3215 C 300.76 -0.708549 -4.23412 0
M  V30 3216 C 299.993 -0.0203135 -5.33696 0
M  V30 3217 O 300.216 1.19571 -5.57726 0
M  V30 3218 O 299.15 -0.701459 -5.97799 0
M  V30 3219 H 302.976 -1.32866 -2.73094 0
M  V30 3220 H 300.561 -0.712071 -1.31339 0
M  V30 3221 H 302.443 0.663852 -4.16138 0
M  V30 3222 H 301.118 1.09533 -3.04605 0
M  V30 3223 H 300.025 -1.16545 -3.55483 0
M  V30 3224 H 301.358 -1.51465 -4.68315 0
M  V30 3225 N 303.011 1.40521 -0.713556 0
M  V30 3226 C 304.257 2.01714 -0.261382 0
M  V30 3227 C 304.612 1.55562 1.13217 0
M  V30 3228 O 303.905 0.764893 1.7567 0
M  V30 3229 C 304.099 3.56317 -0.278 0
M  V30 3230 C 303.928 4.17476 -1.67163 0
M  V30 3231 C 302.698 4.50998 -2.2788 0
M  V30 3232 C 304.896 4.42472 -2.6215 0
M  V30 3233 N 302.878 4.9754 -3.5962 0
M  V30 3234 C 304.249 4.90985 -3.78594 0
M  V30 3235 C 306.304 4.24508 -2.60188 0
M  V30 3236 C 305.007 5.2342 -4.9338 0
M  V30 3237 C 307.033 4.58043 -3.741 0
M  V30 3238 C 306.395 5.06743 -4.89276 0
M  V30 3239 H 302.494 0.769104 -0.141434 0
M  V30 3240 H 305.078 1.70785 -0.934915 0
M  V30 3241 H 303.249 3.8668 0.36509 0
M  V30 3242 H 304.981 4.0425 0.190695 0
M  V30 3243 H 301.736 4.38062 -1.79997 0
M  V30 3244 H 302.16 5.25196 -4.27198 0
M  V30 3245 H 306.802 3.86078 -1.72348 0
M  V30 3246 H 304.52 5.60765 -5.81866 0
M  V30 3247 H 308.106 4.45785 -3.73854 0
M  V30 3248 H 306.986 5.32204 -5.75959 0
M  V30 3249 N 304.489 0.459591 1.5075 0
M  V30 3250 C 305.729 -0.09824 2.04164 0
M  V30 3251 C 306.093 -1.3801 1.33481 0
M  V30 3252 O 307.294 -2.01959 1.77387 0
M  V30 3253 C 305.565 -0.289467 3.56226 0
M  V30 3254 S 307.124 -0.807507 4.31306 0
M  V30 3255 H 303.942 -0.0213845 0.710678 0
M  V30 3256 H 306.544 0.624098 1.85271 0
M  V30 3257 H 305.248 0.649461 4.05229 0
M  V30 3258 H 304.779 -1.03825 3.79452 0
M  V30 3259 H 306.794 -2.0824 4.50389 0
M  V30 3260 N 305.967 -1.56429 0.191757 0
M  V30 3261 C 307.215 -1.97095 -0.447006 0
M  V30 3262 C 307.536 -1.07967 -1.62383 0
M  V30 3263 O 306.806 -0.150248 -1.95323 0
M  V30 3264 H 305.386 -0.727832 -0.168135 0
M  V30 3265 H 308.048 -1.92911 0.27771 0
M  V30 3266 H 307.144 -3.01848 -0.793371 0
M  V30 3267 N 307.445 0.0818655 -1.57387 0
M  V30 3268 C 308.675 0.794954 -1.90694 0
M  V30 3269 C 309.083 1.72147 -0.784982 0
M  V30 3270 O 308.426 1.81974 0.251196 0
M  V30 3271 C 308.488 1.65042 -3.19376 0
M  V30 3272 C 308.152 0.894337 -4.48164 0
M  V30 3273 C 309.149 0.21813 -5.19442 0
M  V30 3274 C 306.834 0.864495 -4.94805 0
M  V30 3275 C 308.828 -0.477802 -6.35607 0
M  V30 3276 C 306.515 0.164785 -6.10878 0
M  V30 3277 C 307.513 -0.505173 -6.81129 0
M  V30 3278 O 307.201 -1.19363 -7.94989 0
M  V30 3279 H 306.933 0.231779 -0.635023 0
M  V30 3280 H 309.487 0.059493 -2.05314 0
M  V30 3281 H 307.717 2.42844 -3.00938 0
M  V30 3282 H 309.406 2.24127 -3.38411 0
M  V30 3283 H 310.172 0.232558 -4.84442 0
M  V30 3284 H 306.051 1.37542 -4.40004 0
M  V30 3285 H 309.595 -1.00129 -6.90377 0
M  V30 3286 H 305.492 0.148249 -6.4533 0
M  V30 3287 H 306.26 -1.10188 -8.11049 0
M  V30 3288 N 308.923 1.53595 0.353017 0
M  V30 3289 C 309.886 1.80232 1.41594 0
M  V30 3290 C 310.886 0.673081 1.46035 0
M  V30 3291 O 312.076 0.941335 1.46576 0
M  V30 3292 C 309.208 1.93578 2.80607 0
M  V30 3293 H 310.401 2.75174 1.19244 0
M  V30 3294 H 307.954 1.44864 0.586872 0
M  V30 3295 H 308.689 1.00746 3.08254 0
M  V30 3296 H 308.474 2.75724 2.78781 0
M  V30 3297 H 309.964 2.15735 3.57558 0
M  V30 3298 N 310.401 -0.613514 1.45168 0
M  V30 3299 C 311.331 -1.7354 1.56225 0
M  V30 3300 C 312.312 -1.64981 0.41414 0
M  V30 3301 O 313.497 -1.83472 0.636526 0
M  V30 3302 C 310.627 -3.12128 1.52295 0
M  V30 3303 C 309.581 -3.35491 2.65762 0
M  V30 3304 C 308.907 -4.74291 2.46885 0
M  V30 3305 C 310.207 -3.26325 4.0781 0
M  V30 3306 H 311.901 -1.64543 2.50132 0
M  V30 3307 H 309.447 -0.790185 1.20383 0
M  V30 3308 H 311.4 -3.90404 1.58628 0
M  V30 3309 H 310.124 -3.2195 0.549139 0
M  V30 3310 H 308.783 -2.59603 2.58847 0
M  V30 3311 H 308.431 -4.80839 1.47657 0
M  V30 3312 H 308.131 -4.9088 3.22972 0
M  V30 3313 H 309.655 -5.54775 2.55063 0
M  V30 3314 H 311.069 -3.94483 4.16 0
M  V30 3315 H 309.466 -3.54445 4.8424 0
M  V30 3316 H 310.536 -2.23855 4.30136 0
M  V30 3317 N 311.879 -1.3236 -0.855495 0
M  V30 3318 C 312.842 -1.21164 -1.94556 0
M  V30 3319 C 313.842 -0.134908 -1.60233 0
M  V30 3320 O 315.032 -0.385249 -1.69887 0
M  V30 3321 C 312.164 -0.863192 -3.29791 0
M  V30 3322 H 313.357 -2.18038 -2.05911 0
M  V30 3323 H 310.91 -1.16179 -1.04557 0
M  V30 3324 H 311.645 0.103769 -3.24134 0
M  V30 3325 H 311.43 -1.64166 -3.56078 0
M  V30 3326 H 312.92 -0.809156 -4.09686 0
M  V30 3327 N 313.357 1.07166 -1.15556 0
M  V30 3328 C 314.582 1.84053 -0.955988 0
M  V30 3329 C 315.007 1.81586 0.490739 0
M  V30 3330 O 314.365 1.21018 1.34997 0
M  V30 3331 C 314.413 3.28957 -1.47714 0
M  V30 3332 O 313.517 4.06795 -0.677593 0
M  V30 3333 H 312.858 0.569842 -0.340847 0
M  V30 3334 H 315.388 1.35178 -1.53584 0
M  V30 3335 H 315.398 3.79788 -1.4908 0
M  V30 3336 H 314.073 3.30068 -2.53037 0
M  V30 3337 H 312.65 3.6561 -0.733721 0
M  V30 3338 N 314.835 0.952656 1.25548 0
M  V30 3339 C 316.081 0.616826 1.93822 0
M  V30 3340 C 316.436 -0.836684 1.73255 0
M  V30 3341 O 315.729 -1.59218 1.06584 0
M  V30 3342 C 315.923 0.908818 3.45652 0
M  V30 3343 C 315.752 2.38916 3.80984 0
M  V30 3344 C 314.522 3.04637 4.03143 0
M  V30 3345 C 316.72 3.36838 3.88645 0
M  V30 3346 N 314.702 4.42565 4.25453 0
M  V30 3347 C 316.073 4.60065 4.1562 0
M  V30 3348 C 318.128 3.31704 3.71318 0
M  V30 3349 C 316.831 5.78795 4.2707 0
M  V30 3350 C 318.857 4.4977 3.84006 0
M  V30 3351 C 318.219 5.71783 4.11392 0
M  V30 3352 H 314.318 0.27629 0.731565 0
M  V30 3353 H 316.902 1.22443 1.5138 0
M  V30 3354 H 315.073 0.330166 3.86994 0
M  V30 3355 H 316.805 0.533093 4.01174 0
M  V30 3356 H 313.56 2.55215 3.98952 0
M  V30 3357 H 313.984 5.1399 4.40617 0
M  V30 3358 H 318.626 2.3842 3.49164 0
M  V30 3359 H 316.344 6.72521 4.48041 0
M  V30 3360 H 319.93 4.47342 3.71989 0
M  V30 3361 H 318.81 6.61617 4.2099 0
M  V30 3362 N 316.313 -1.40141 0.720998 0
M  V30 3363 C 317.538 -2.05618 0.271258 0
M  V30 3364 C 317.963 -1.53978 -1.08039 0
M  V30 3365 O 317.321 -0.677463 -1.68167 0
M  V30 3366 C 317.369 -3.59609 0.267197 0
M  V30 3367 O 316.473 -4.05526 -0.749814 0
M  V30 3368 H 315.814 -0.651904 0.126162 0
M  V30 3369 H 318.344 -1.79439 0.982997 0
M  V30 3370 H 318.354 -4.0786 0.106744 0
M  V30 3371 H 317.029 -3.96559 1.25354 0
M  V30 3372 H 315.606 -3.68722 -0.556644 0
M  V30 3373 N 317.792 -0.46758 -1.50504 0
M  V30 3374 C 319.038 0.0887532 -2.02606 0
M  V30 3375 C 319.371 1.39686 -1.34913 0
M  V30 3376 O 318.646 1.88644 -0.473694 0
M  V30 3377 C 318.929 0.276206 -3.59039 0
M  V30 3378 C 318.782 -1.05267 -4.37309 0
M  V30 3379 C 320.101 1.03235 -4.27821 0
M  V30 3380 H 317.22 0.0307814 -0.736357 0
M  V30 3381 H 319.862 -0.612485 -1.79857 0
M  V30 3382 H 318.012 0.8735 -3.78553 0
M  V30 3383 H 319.684 -1.68628 -4.29374 0
M  V30 3384 H 317.927 -1.65015 -4.01189 0
M  V30 3385 H 318.598 -0.875197 -5.45018 0
M  V30 3386 H 321.074 0.526111 -4.12761 0
M  V30 3387 H 319.95 1.1323 -5.37094 0
M  V30 3388 H 320.211 2.06806 -3.90748 0
M  V30 3389 N 319.27 1.56325 -0.20005 0
M  V30 3390 C 320.202 2.16555 0.750771 0
M  V30 3391 C 321.215 1.12871 1.1732 0
M  V30 3392 O 322.404 1.39943 1.10807 0
M  V30 3393 C 319.504 2.71684 2.02586 0
M  V30 3394 C 318.677 4.00321 1.76244 0
M  V30 3395 C 317.736 4.40227 2.88248 0
M  V30 3396 O 316.762 5.07552 2.57642 0
M  V30 3397 N 317.964 4.04138 4.16717 0
M  V30 3398 H 320.729 2.98772 0.235685 0
M  V30 3399 H 318.29 1.6189 -0.0182594 0
M  V30 3400 H 320.282 2.95363 2.76664 0
M  V30 3401 H 318.852 1.93893 2.45202 0
M  V30 3402 H 318.072 3.84723 0.85919 0
M  V30 3403 H 319.36 4.84279 1.56048 0
M  V30 3404 H 318.758 3.49993 4.44434 0
M  V30 3405 H 317.315 4.32756 4.87407 0
M  V30 3406 N 320.748 -0.0735177 1.57428 0
M  V30 3407 C 321.996 -0.771472 1.86796 0
M  V30 3408 C 322.317 -1.78201 0.791804 0
M  V30 3409 O 321.587 -1.95074 -0.179718 0
M  V30 3410 H 320.167 -0.28791 0.689287 0
M  V30 3411 H 322.829 -0.0500161 1.94836 0
M  V30 3412 H 321.925 -1.28874 2.8425 0
M  V30 3413 N 322.226 -1.5378 -0.344866 0
M  V30 3414 C 323.189 -1.80981 -1.40637 0
M  V30 3415 C 324.189 -0.680816 -1.45676 0
M  V30 3416 O 325.379 -0.949095 -1.46075 0
M  V30 3417 C 322.511 -1.95063 -2.79577 0
M  V30 3418 H 323.704 -2.75803 -1.17783 0
M  V30 3419 H 321.257 -1.45173 -0.579181 0
M  V30 3420 H 321.992 -1.02379 -3.07716 0
M  V30 3421 H 321.777 -2.77198 -2.77315 0
M  V30 3422 H 323.267 -2.17629 -3.56409 0
M  V30 3423 N 323.704 0.605807 -1.45491 0
M  V30 3424 C 324.667 1.69836 -1.5391 0
M  V30 3425 C 325.667 1.55261 -0.418424 0
M  V30 3426 O 326.857 1.60296 -0.681965 0
M  V30 3427 C 323.989 3.09117 -1.43734 0
M  V30 3428 H 325.182 1.63738 -2.51257 0
M  V30 3429 H 322.735 0.821689 -1.32959 0
M  V30 3430 H 323.47 3.20791 -0.475788 0
M  V30 3431 H 323.255 3.21104 -2.25021 0
M  V30 3432 H 324.745 3.88696 -1.52661 0
M  V30 3433 N 325.182 1.32811 0.848464 0
M  V30 3434 C 326.429 1.23724 1.60308 0
M  V30 3435 C 326.757 -0.1994 1.93475 0
M  V30 3436 O 326.012 -1.15406 1.5805 0
M  V30 3437 C 326.311 2.04831 2.92881 0
M  V30 3438 C 325.977 3.54125 2.79117 0
M  V30 3439 C 324.639 3.94829 2.7507 0
M  V30 3440 C 326.991 4.49036 2.64606 0
M  V30 3441 C 324.319 5.28675 2.544 0
M  V30 3442 C 326.671 5.83033 2.4547 0
M  V30 3443 C 325.335 6.22931 2.39819 0
M  V30 3444 H 324.605 0.452737 0.586609 0
M  V30 3445 H 327.252 1.64301 0.983743 0
M  V30 3446 H 325.557 1.57001 3.58968 0
M  V30 3447 H 327.254 1.95164 3.50303 0
M  V30 3448 H 323.844 3.21801 2.83094 0
M  V30 3449 H 328.028 4.18505 2.66772 0
M  V30 3450 H 323.284 5.58637 2.48465 0
M  V30 3451 H 327.458 6.56186 2.33222 0
M  V30 3452 H 325.085 7.26584 2.23562 0
M  V30 3453 N 326.66 -1.06551 1.16123 0
M  V30 3454 C 327.623 -2.12132 0.867906 0
M  V30 3455 C 328.623 -1.60224 -0.135944 0
M  V30 3456 O 329.813 -1.73943 0.0946422 0
M  V30 3457 C 326.945 -3.396 0.297419 0
M  V30 3458 H 328.138 -2.39586 1.80385 0
M  V30 3459 H 325.691 -1.22574 0.969812 0
M  V30 3460 H 326.426 -3.17794 -0.64633 0
M  V30 3461 H 326.211 -3.78581 1.02073 0
M  V30 3462 H 327.701 -4.17455 0.110052 0
M  V30 3463 N 328.138 -0.959301 -1.25041 0
M  V30 3464 C 329.385 -0.616611 -1.92884 0
M  V30 3465 C 329.713 0.847036 -1.75087 0
M  V30 3466 O 328.968 1.62374 -1.09239 0
M  V30 3467 C 329.267 -0.927136 -3.45165 0
M  V30 3468 C 328.933 -2.37757 -3.83122 0
M  V30 3469 C 327.595 -2.77402 -3.93194 0
M  V30 3470 C 329.947 -3.31929 -4.01836 0
M  V30 3471 C 327.275 -4.10277 -4.19392 0
M  V30 3472 C 329.627 -4.64423 -4.29528 0
M  V30 3473 C 328.291 -5.03857 -4.37818 0
M  V30 3474 H 327.561 -0.225634 -0.705812 0
M  V30 3475 H 330.208 -1.20921 -1.48493 0
M  V30 3476 H 328.513 -0.252195 -3.90987 0
M  V30 3477 H 330.21 -0.6405 -3.95852 0
M  V30 3478 H 326.8 -2.06013 -3.75841 0
M  V30 3479 H 330.984 -3.02488 -3.93465 0
M  V30 3480 H 326.24 -4.40467 -4.24027 0
M  V30 3481 H 330.414 -5.37369 -4.42953 0
M  V30 3482 H 328.041 -6.06843 -4.57871 0
M  V30 3483 N 329.616 1.39756 -0.72842 0
M  V30 3484 C 330.863 2.00645 -0.273487 0
M  V30 3485 C 331.191 1.57786 1.13727 0
M  V30 3486 O 330.446 0.794886 1.7883 0
M  V30 3487 C 330.745 3.56002 -0.315776 0
M  V30 3488 C 330.411 4.18489 -1.67863 0
M  V30 3489 C 329.073 4.3527 -2.05166 0
M  V30 3490 C 331.425 4.53219 -2.57375 0
M  V30 3491 C 328.753 4.84069 -3.31503 0
M  V30 3492 C 331.105 5.03423 -3.83077 0
M  V30 3493 C 329.769 5.18413 -4.20481 0
M  V30 3494 H 329.039 0.734211 -0.100076 0
M  V30 3495 H 331.686 1.6718 -0.933972 0
M  V30 3496 H 329.991 3.89452 0.428285 0
M  V30 3497 H 331.688 4.00963 0.0542575 0
M  V30 3498 H 328.278 4.05824 -1.37858 0
M  V30 3499 H 332.462 4.39878 -2.29827 0
M  V30 3500 H 327.718 4.93859 -3.60435 0
M  V30 3501 H 331.892 5.2927 -4.52599 0
M  V30 3502 H 329.519 5.55987 -5.18443 0
M  V30 3503 N 331.094 0.475555 1.50254 0
M  V30 3504 C 332.322 -0.0754493 2.06762 0
M  V30 3505 C 332.737 -1.33111 1.33891 0
M  V30 3506 O 332.094 -1.77846 0.40952 0
M  V30 3507 C 332.145 -0.359008 3.59713 0
M  V30 3508 O 331.866 0.846851 4.29837 0
M  V30 3509 C 333.367 -0.956484 4.32858 0
M  V30 3510 H 330.587 0.00907525 0.670939 0
M  V30 3511 H 333.131 0.665618 1.93364 0
M  V30 3512 H 331.286 -1.05001 3.72899 0
M  V30 3513 H 331.7 0.594162 5.21124 0
M  V30 3514 H 333.174 -1.10463 5.40834 0
M  V30 3515 H 333.651 -1.94775 3.93649 0
M  V30 3516 H 334.257 -0.303723 4.24214 0
M  V30 3517 N 332.573 -1.56217 0.208337 0
M  V30 3518 C 333.82 -1.97949 -0.42692 0
M  V30 3519 C 334.148 -1.09562 -1.60706 0
M  V30 3520 O 333.403 -0.137616 -1.95216 0
M  V30 3521 C 333.702 -3.45441 -0.916797 0
M  V30 3522 C 333.368 -4.50646 0.151391 0
M  V30 3523 C 332.03 -4.79139 0.444867 0
M  V30 3524 C 334.382 -5.13811 0.874492 0
M  V30 3525 C 331.71 -5.68084 1.46619 0
M  V30 3526 C 334.062 -6.03861 1.88506 0
M  V30 3527 C 332.726 -6.30704 2.18559 0
M  V30 3528 H 331.996 -0.724345 -0.156221 0
M  V30 3529 H 334.643 -1.89006 0.308084 0
M  V30 3530 H 332.948 -3.51521 -1.73032 0
M  V30 3531 H 334.645 -3.75094 -1.41794 0
M  V30 3532 H 331.235 -4.28511 -0.0875068 0
M  V30 3533 H 335.419 -4.91879 0.660996 0
M  V30 3534 H 330.675 -5.87151 1.7048 0
M  V30 3535 H 334.849 -6.51861 2.45051 0
M  V30 3536 H 332.476 -6.99424 2.97843 0
M  V30 3537 N 334.051 0.0651679 -1.57465 0
M  V30 3538 C 335.291 0.768329 -1.8941 0
M  V30 3539 C 335.655 1.74406 -0.802894 0
M  V30 3540 O 336.856 2.49281 -1.0056 0
M  V30 3541 C 335.127 1.45199 -3.26576 0
M  V30 3542 S 336.686 2.1893 -3.80283 0
M  V30 3543 H 333.504 0.255359 -0.663561 0
M  V30 3544 H 336.106 0.024167 -1.95485 0
M  V30 3545 H 334.81 0.728123 -4.03889 0
M  V30 3546 H 334.341 2.23545 -3.23715 0
M  V30 3547 H 336.356 3.45551 -3.56102 0
M  V30 3548 N 335.529 1.53961 0.336706 0
M  V30 3549 C 336.776 1.71536 1.07618 0
M  V30 3550 C 337.104 0.482125 1.8843 0
M  V30 3551 O 336.359 -0.536142 1.88213 0
M  V30 3552 C 336.658 2.93493 2.03953 0
M  V30 3553 C 336.324 4.28811 1.39399 0
M  V30 3554 C 334.986 4.65602 1.21523 0
M  V30 3555 C 337.338 5.12844 0.929541 0
M  V30 3556 C 334.666 5.84037 0.558312 0
M  V30 3557 C 337.018 6.31951 0.286505 0
M  V30 3558 C 335.682 6.67432 0.0954869 0
M  V30 3559 H 334.952 0.627696 0.393801 0
M  V30 3560 H 337.599 1.88186 0.354715 0
M  V30 3561 H 335.904 2.71475 2.82504 0
M  V30 3562 H 337.601 3.04285 2.61174 0
M  V30 3563 H 334.191 3.99858 1.54311 0
M  V30 3564 H 338.375 4.84947 1.05548 0
M  V30 3565 H 333.631 6.10097 0.398995 0
M  V30 3566 H 337.805 6.96352 -0.0814376 0
M  V30 3567 H 335.432 7.59063 -0.415579 0
M  V30 3568 N 337.007 -0.598083 1.45811 0
M  V30 3569 C 337.937 -1.71873 1.58057 0
M  V30 3570 C 338.918 -1.64533 0.431615 0
M  V30 3571 O 340.103 -1.82787 0.65595 0
M  V30 3572 C 337.233 -3.10495 1.55597 0
M  V30 3573 C 336.187 -3.32654 2.69305 0
M  V30 3574 C 335.513 -4.71646 2.51902 0
M  V30 3575 C 336.813 -3.21981 4.11248 0
M  V30 3576 H 338.507 -1.61881 2.51863 0
M  V30 3577 H 336.053 -0.777372 1.21214 0
M  V30 3578 H 338.006 -3.88699 1.6276 0
M  V30 3579 H 336.73 -3.2135 0.583255 0
M  V30 3580 H 335.389 -2.56843 2.61586 0
M  V30 3581 H 335.037 -4.79246 1.52748 0
M  V30 3582 H 334.737 -4.87426 3.2816 0
M  V30 3583 H 336.261 -5.52038 2.60933 0
M  V30 3584 H 337.675 -3.90049 4.20161 0
M  V30 3585 H 336.072 -3.49289 4.87972 0
M  V30 3586 H 337.142 -2.1928 4.32486 0
M  V30 3587 N 338.485 -1.33259 -0.841409 0
M  V30 3588 C 339.71 -1.2775 -1.63385 0
M  V30 3589 C 340.135 0.149188 -1.87507 0
M  V30 3590 O 339.493 1.10498 -1.43736 0
M  V30 3591 C 339.541 -2.05571 -2.96265 0
M  V30 3592 O 338.645 -1.41257 -3.87453 0
M  V30 3593 H 337.986 -0.439627 -0.497618 0
M  V30 3594 H 340.516 -1.75782 -1.04699 0
M  V30 3595 H 340.526 -2.16241 -3.45982 0
M  V30 3596 H 339.201 -3.09309 -2.7803 0
M  V30 3597 H 337.778 -1.39217 -3.45938 0
M  V30 3598 N 339.963 1.05934 -1.16686 0
M  V30 3599 C 341.211 1.78447 -0.948744 0
M  V30 3600 C 341.532 1.87813 0.524523 0
M  V30 3601 O 340.802 1.38945 1.38098 0
M  V30 3602 H 339.382 0.660971 -0.348033 0
M  V30 3603 H 342.044 1.27947 -1.47022 0
M  V30 3604 H 341.14 2.80394 -1.37061 0
M  V30 3605 N 341.441 0.965919 1.2453 0
M  V30 3606 C 342.857 0.67216 1.44756 0
M  V30 3607 C 343.057 -0.766609 1.86347 0
M  V30 3608 O 342.113 -1.5407 2.00047 0
M  V30 3609 C 343.426 1.65473 2.51076 0
M  V30 3610 C 344.974 1.66716 2.64905 0
M  V30 3611 C 345.449 2.63766 3.74421 0
M  V30 3612 N 346.94 2.62198 3.81846 0
M  V30 3613 C 347.675 3.33966 4.66106 0
M  V30 3614 N 347.171 4.15245 5.54566 0
M  V30 3615 N 348.964 3.22799 4.60171 0
M  V30 3616 H 341.115 1.89553 0.958293 0
M  V30 3617 H 343.378 0.815979 0.482579 0
M  V30 3618 H 343.084 2.68296 2.27399 0
M  V30 3619 H 342.958 1.4261 3.49202 0
M  V30 3620 H 345.345 0.646057 2.87941 0
M  V30 3621 H 345.426 1.93642 1.67142 0
M  V30 3622 H 345.07 3.6601 3.52135 0
M  V30 3623 H 345 2.34121 4.71694 0
M  V30 3624 H 347.491 2.032 3.18619 0
M  V30 3625 H 347.804 4.66898 6.15814 0
M  V30 3626 H 346.149 4.1934 5.54237 0
M  V30 3627 H 349.34 2.58764 3.90075 0
M  V30 3628 H 349.513 3.78994 5.25612 0
M  V30 3629 N 342.919 -1.39368 0.735821 0
M  V30 3630 C 343.882 -2.2896 0.104874 0
M  V30 3631 C 344.882 -1.46347 -0.666274 0
M  V30 3632 O 346.072 -1.67014 -0.49517 0
M  V30 3633 C 343.204 -3.29857 -0.860656 0
M  V30 3634 H 344.397 -2.86259 0.894205 0
M  V30 3635 H 341.95 -1.48029 0.501704 0
M  V30 3636 H 342.685 -2.77615 -1.67631 0
M  V30 3637 H 342.47 -3.9087 -0.310327 0
M  V30 3638 H 343.96 -3.96893 -1.29867 0
M  V30 3639 N 344.397 -0.483516 -1.5 0
M  V30 3640 C 345.344 0.304164 -2.28787 0
M  V30 3641 C 346.314 0.976114 -1.34392 0
M  V30 3642 O 347.499 0.986156 -1.63339 0
M  V30 3643 C 344.639 1.37298 -3.16612 0
M  V30 3644 C 343.752 0.714561 -4.26049 0
M  V30 3645 C 342.887 1.76232 -5.01114 0
M  V30 3646 C 341.926 1.08483 -6.0241 0
M  V30 3647 N 341.063 2.076 -6.70706 0
M  V30 3648 H 345.903 -0.373981 -2.95644 0
M  V30 3649 H 343.44 -0.196275 -1.45785 0
M  V30 3650 H 345.398 2.00445 -3.65893 0
M  V30 3651 H 344.028 2.02012 -2.51776 0
M  V30 3652 H 343.08 -0.0297798 -3.80388 0
M  V30 3653 H 344.392 0.180383 -4.98474 0
M  V30 3654 H 343.546 2.46929 -5.54176 0
M  V30 3655 H 342.285 2.33033 -4.28424 0
M  V30 3656 H 341.29 0.363545 -5.48597 0
M  V30 3657 H 342.515 0.523551 -6.77079 0
M  V30 3658 H 340.461 2.63394 -6.00799 0
M  V30 3659 H 340.378 1.59201 -7.39047 0
M  V30 3660 H 341.646 2.77639 -7.2838 0
M  V30 3661 N 345.875 1.56104 -0.216619 0
M  V30 3662 C 346.785 2.23694 0.706982 0
M  V30 3663 C 347.801 1.24295 1.21765 0
M  V30 3664 O 348.977 1.57094 1.2603 0
M  V30 3665 C 346.042 2.8998 1.90033 0
M  V30 3666 C 345.103 4.04708 1.43213 0
M  V30 3667 C 344.336 4.67824 2.56859 0
M  V30 3668 O 344.559 4.29913 3.74874 0
M  V30 3669 O 343.493 5.56905 2.28343 0
M  V30 3670 H 347.319 3.03272 0.161235 0
M  V30 3671 H 344.904 1.49394 0.0136177 0
M  V30 3672 H 346.786 3.31837 2.59735 0
M  V30 3673 H 345.461 2.13365 2.43428 0
M  V30 3674 H 344.368 3.6743 0.70327 0
M  V30 3675 H 345.701 4.83051 0.944615 0
M  V30 3676 N 347.353 -0.0568162 1.57498 0
M  V30 3677 C 348.303 -1.07315 2.01166 0
M  V30 3678 C 349.287 -1.33632 0.896171 0
M  V30 3679 O 350.479 -1.33682 1.16009 0
M  V30 3680 C 347.608 -2.38257 2.47161 0
M  V30 3681 C 346.694 -2.1515 3.65474 0
M  V30 3682 N 347.085 -1.62014 4.7915 0
M  V30 3683 C 345.383 -2.45559 3.72313 0
M  V30 3684 C 346.084 -1.54069 5.60926 0
M  V30 3685 N 345.06 -2.00652 5.05213 0
M  V30 3686 H 348.862 -0.655878 2.86488 0
M  V30 3687 H 346.376 -0.263635 1.60246 0
M  V30 3688 H 348.373 -3.11845 2.76691 0
M  V30 3689 H 347.033 -2.80687 1.63232 0
M  V30 3690 H 348.044 -1.30667 5.01145 0
M  V30 3691 H 344.721 -2.91253 2.99129 0
M  V30 3692 H 346.111 -1.13712 6.62208 0
M  V30 3693 N 348.832 -1.54138 -0.328536 0
M  V30 3694 C 349.782 -1.79557 -1.4051 0
M  V30 3695 C 350.766 -0.651373 -1.47126 0
M  V30 3696 O 351.958 -0.911226 -1.51742 0
M  V30 3697 C 349.087 -2.02196 -2.77438 0
M  V30 3698 C 348.173 -3.22724 -2.75155 0
M  V30 3699 N 348.564 -4.43881 -2.42494 0
M  V30 3700 C 346.862 -3.24196 -3.06289 0
M  V30 3701 C 347.563 -5.25797 -2.48822 0
M  V30 3702 N 346.539 -4.62862 -2.8506 0
M  V30 3703 H 350.341 -2.70814 -1.1418 0
M  V30 3704 H 347.855 -1.53265 -0.536991 0
M  V30 3705 H 349.852 -2.18546 -3.55026 0
M  V30 3706 H 348.512 -1.12191 -3.04702 0
M  V30 3707 H 349.523 -4.70969 -2.15428 0
M  V30 3708 H 346.2 -2.44208 -3.38627 0
M  V30 3709 H 347.59 -6.32535 -2.26603 0
M  V30 3710 N 350.31 0.590341 -1.46126 0
M  V30 3711 C 351.22 1.72793 -1.58681 0
M  V30 3712 C 352.236 1.67516 -0.470566 0
M  V30 3713 O 353.412 1.87562 -0.733642 0
M  V30 3714 C 350.477 3.09287 -1.5666 0
M  V30 3715 C 349.538 3.25886 -2.79458 0
M  V30 3716 C 348.771 4.55869 -2.77524 0
M  V30 3717 O 348.994 5.3928 -1.85832 0
M  V30 3718 O 347.928 4.75552 -3.68964 0
M  V30 3719 H 351.754 1.65149 -2.54872 0
M  V30 3720 H 349.339 0.756486 -1.28832 0
M  V30 3721 H 351.221 3.90577 -1.58202 0
M  V30 3722 H 349.896 3.17385 -0.636271 0
M  V30 3723 H 348.803 2.44119 -2.83472 0
M  V30 3724 H 350.136 3.22675 -3.71674 0
M  V30 3725 N 351.788 1.33704 0.83433 0
M  V30 3726 C 353.034 1.26612 1.59188 0
M  V30 3727 C 353.389 -0.165439 1.91687 0
M  V30 3728 O 352.682 -1.10873 1.56262 0
M  V30 3729 C 352.876 2.07926 2.90692 0
M  V30 3730 C 352.705 3.58844 2.71038 0
M  V30 3731 C 351.475 4.28148 2.68361 0
M  V30 3732 C 353.673 4.53082 2.43353 0
M  V30 3733 N 351.655 5.64987 2.40132 0
M  V30 3734 C 353.026 5.77843 2.24716 0
M  V30 3735 C 355.081 4.42119 2.28987 0
M  V30 3736 C 353.784 6.92877 1.9317 0
M  V30 3737 C 355.81 5.56973 1.98835 0
M  V30 3738 C 355.172 6.80745 1.81012 0
M  V30 3739 H 351.271 0.518517 0.585375 0
M  V30 3740 H 353.855 1.68294 0.979044 0
M  V30 3741 H 352.026 1.68558 3.49918 0
M  V30 3742 H 353.758 1.92568 3.55949 0
M  V30 3743 H 350.513 3.80469 2.82029 0
M  V30 3744 H 350.937 6.37133 2.28889 0
M  V30 3745 H 355.579 3.47058 2.41477 0
M  V30 3746 H 353.297 7.87931 1.79418 0
M  V30 3747 H 356.883 5.50428 1.88468 0
M  V30 3748 H 355.763 7.68115 1.58017 0
M  V30 3749 N 353.266 -1.05314 1.17247 0
M  V30 3750 C 354.496 -1.81707 0.983166 0
M  V30 3751 C 354.904 -1.83222 -0.471822 0
M  V30 3752 O 354.247 -1.25721 -1.3394 0
M  V30 3753 C 354.309 -3.29134 1.44606 0
M  V30 3754 C 353.973 -3.51304 2.92292 0
M  V30 3755 C 354.97 -3.4353 3.90235 0
M  V30 3756 C 352.655 -3.78306 3.30439 0
M  V30 3757 C 354.649 -3.62442 5.24323 0
M  V30 3758 C 352.336 -3.96866 4.64694 0
M  V30 3759 C 353.334 -3.88933 5.61445 0
M  V30 3760 O 353.022 -4.06976 6.93272 0
M  V30 3761 H 352.754 -0.579476 0.348114 0
M  V30 3762 H 355.308 -1.33705 1.55924 0
M  V30 3763 H 353.538 -3.78046 0.813537 0
M  V30 3764 H 355.227 -3.87049 1.22262 0
M  V30 3765 H 355.993 -3.22648 3.62109 0
M  V30 3766 H 351.872 -3.83585 2.55702 0
M  V30 3767 H 355.416 -3.56165 5.99827 0
M  V30 3768 H 351.313 -4.1724 4.92525 0
M  V30 3769 H 352.081 -4.24209 6.99992 0
M  V30 3770 N 354.744 -0.972509 -1.24016 0
M  V30 3771 C 355.674 -0.525548 -2.27509 0
M  V30 3772 C 356.655 0.437262 -1.64384 0
M  V30 3773 O 357.84 0.332343 -1.91335 0
M  V30 3774 C 354.97 0.180448 -3.46831 0
M  V30 3775 C 353.924 -0.698859 -4.22256 0
M  V30 3776 C 353.25 0.138903 -5.3452 0
M  V30 3777 C 354.55 -1.98582 -4.83076 0
M  V30 3778 H 356.244 -1.39058 -2.65148 0
M  V30 3779 H 353.79 -0.67009 -1.27459 0
M  V30 3780 H 355.743 0.504387 -4.18371 0
M  V30 3781 H 354.467 1.07987 -3.08231 0
M  V30 3782 H 353.126 -1.00614 -3.52523 0
M  V30 3783 H 352.774 1.03862 -4.9216 0
M  V30 3784 H 352.474 -0.446259 -5.85903 0
M  V30 3785 H 353.998 0.457404 -6.08884 0
M  V30 3786 H 355.412 -1.72715 -5.46665 0
M  V30 3787 H 353.809 -2.5181 -5.44713 0
M  V30 3788 H 354.879 -2.67769 -4.04262 0
M  V30 3789 N 356.222 1.38976 -0.743202 0
M  V30 3790 C 357.638 1.53984 -0.419664 0
M  V30 3791 C 357.838 1.70837 1.0685 0
M  V30 3792 O 356.894 1.7135 1.8546 0
M  V30 3793 C 358.207 2.75287 -1.20985 0
M  V30 3794 C 359.755 2.89129 -1.19889 0
M  V30 3795 C 360.23 4.13381 -1.97181 0
M  V30 3796 N 361.721 4.20437 -1.94389 0
M  V30 3797 C 362.456 5.15547 -2.50996 0
M  V30 3798 N 361.952 6.16395 -3.16274 0
M  V30 3799 N 363.745 5.07822 -2.40984 0
M  V30 3800 H 355.896 1.26285 -1.7078 0
M  V30 3801 H 358.159 0.612689 -0.723406 0
M  V30 3802 H 357.865 2.69204 -2.26323 0
M  V30 3803 H 357.739 3.68184 -0.819759 0
M  V30 3804 H 360.126 2.947 -0.153606 0
M  V30 3805 H 360.207 1.97272 -1.62841 0
M  V30 3806 H 359.851 4.08572 -3.01714 0
M  V30 3807 H 359.781 5.04298 -1.51629 0
M  V30 3808 H 362.272 3.48205 -1.46839 0
M  V30 3809 H 362.585 6.85443 -3.56915 0
M  V30 3810 H 360.93 6.16758 -3.20367 0
M  V30 3811 H 364.121 4.27973 -1.89622 0
M  V30 3812 H 364.294 5.81767 -2.85397 0
M  V30 3813 N 357.7 0.491464 1.49741 0
M  V30 3814 C 358.647 -0.292027 2.28945 0
M  V30 3815 C 359.617 -0.968973 1.34908 0
M  V30 3816 O 360.802 -0.97748 1.6386 0
M  V30 3817 C 357.942 -1.35617 3.17336 0
M  V30 3818 C 357.055 -0.691957 4.26422 0
M  V30 3819 C 356.19 -1.73572 5.02042 0
M  V30 3820 C 355.229 -1.05286 6.02977 0
M  V30 3821 N 354.366 -2.0404 6.71798 0
M  V30 3822 H 359.206 0.389654 2.95442 0
M  V30 3823 H 356.743 0.204003 1.45679 0
M  V30 3824 H 358.701 -1.98502 3.66951 0
M  V30 3825 H 357.331 -2.00674 2.52844 0
M  V30 3826 H 356.383 0.0499523 3.80367 0
M  V30 3827 H 357.695 -0.153946 4.98562 0
M  V30 3828 H 356.849 -2.43987 5.55478 0
M  V30 3829 H 355.588 -2.30757 4.29654 0
M  V30 3830 H 354.593 -0.334446 5.48782 0
M  V30 3831 H 355.818 -0.487636 6.77347 0
M  V30 3832 H 353.764 -2.60205 6.02187 0
M  V30 3833 H 353.681 -1.55279 7.39881 0
M  V30 3834 H 354.949 -2.73772 7.29842 0
M  V30 3835 N 359.178 -1.55987 0.224894 0
M  V30 3836 C 360.425 -1.9839 -0.4059 0
M  V30 3837 C 360.753 -1.11261 -1.59535 0
M  V30 3838 O 360.008 -0.158314 -1.95059 0
M  V30 3839 C 360.307 -3.46394 -0.880106 0
M  V30 3840 C 359.973 -4.5046 0.19918 0
M  V30 3841 C 358.635 -4.7864 0.495661 0
M  V30 3842 C 360.987 -5.12855 0.928939 0
M  V30 3843 C 358.315 -5.66497 1.52636 0
M  V30 3844 C 360.667 -6.01828 1.949 0
M  V30 3845 C 359.331 -6.28351 2.25236 0
M  V30 3846 H 358.601 -0.725961 -0.148529 0
M  V30 3847 H 361.248 -1.88668 0.328113 0
M  V30 3848 H 359.553 -3.53337 -1.69294 0
M  V30 3849 H 361.25 -3.76577 -1.37808 0
M  V30 3850 H 357.84 -4.28579 -0.0420526 0
M  V30 3851 H 362.024 -4.9115 0.713129 0
M  V30 3852 H 357.28 -5.8531 1.76698 0
M  V30 3853 H 361.454 -6.49225 2.51951 0
M  V30 3854 H 359.081 -6.96226 3.05244 0
M  V30 3855 N 360.656 0.0484629 -1.57525 0
M  V30 3856 C 361.566 1.07241 -2.08654 0
M  V30 3857 C 362.582 1.409 -1.02095 0
M  V30 3858 O 363.758 1.50609 -1.33712 0
M  V30 3859 C 360.823 2.36008 -2.5397 0
M  V30 3860 C 359.884 2.09108 -3.7493 0
M  V30 3861 C 359.117 3.31736 -4.18075 0
M  V30 3862 O 359.34 4.41714 -3.60895 0
M  V30 3863 O 358.274 3.18576 -5.10679 0
M  V30 3864 H 362.1 0.667965 -2.96263 0
M  V30 3865 H 359.685 0.26417 -1.47046 0
M  V30 3866 H 361.567 3.11747 -2.83535 0
M  V30 3867 H 360.242 2.75786 -1.69481 0
M  V30 3868 H 359.149 1.31 -3.50414 0
M  V30 3869 H 360.482 1.74198 -4.60343 0
M  V30 3870 N 362.134 1.5431 0.320358 0
M  V30 3871 C 363.044 1.86946 1.41734 0
M  V30 3872 C 364.06 0.761689 1.56443 0
M  V30 3873 O 365.236 1.05629 1.71477 0
M  V30 3874 C 362.301 2.09293 2.76401 0
M  V30 3875 C 361.362 3.33082 2.70841 0
M  V30 3876 C 360.595 3.54353 3.99086 0
M  V30 3877 O 360.818 2.79002 4.97508 0
M  V30 3878 O 359.752 4.47838 4.0215 0
M  V30 3879 H 363.578 2.80232 1.17062 0
M  V30 3880 H 361.163 1.40255 0.514673 0
M  V30 3881 H 363.045 2.25303 3.56113 0
M  V30 3882 H 361.72 1.19194 3.00956 0
M  V30 3883 H 360.627 3.22454 1.89668 0
M  V30 3884 H 361.96 4.23249 2.5124 0
M  V30 3885 N 363.613 -0.582584 1.46437 0
M  V30 3886 C 364.843 -1.36484 1.55099 0
M  V30 3887 C 365.251 -1.88233 0.191056 0
M  V30 3888 O 364.594 -1.6429 -0.821858 0
M  V30 3889 C 364.656 -2.588 2.49525 0
M  V30 3890 C 364.32 -2.28517 3.95764 0
M  V30 3891 C 365.317 -1.87346 4.84972 0
M  V30 3892 C 363.002 -2.40658 4.40896 0
M  V30 3893 C 364.996 -1.5871 6.17325 0
M  V30 3894 C 362.683 -2.11635 5.73284 0
M  V30 3895 C 363.681 -1.70725 6.61318 0
M  V30 3896 O 363.369 -1.42057 7.91249 0
M  V30 3897 H 363.101 -0.423297 0.527063 0
M  V30 3898 H 365.655 -0.715188 1.92547 0
M  V30 3899 H 363.885 -3.26571 2.07095 0
M  V30 3900 H 365.574 -3.20868 2.48593 0
M  V30 3901 H 366.34 -1.77481 4.5136 0
M  V30 3902 H 362.219 -2.71463 3.72598 0
M  V30 3903 H 365.763 -1.26704 6.85997 0
M  V30 3904 H 361.66 -2.21124 6.06444 0
M  V30 3905 H 362.428 -1.55901 8.03515 0
M  V30 3906 N 365.091 -1.34144 -0.827227 0
M  V30 3907 C 366.502 -1.23557 -1.39966 0
M  V30 3908 C 366.853 0.140731 -1.95695 0
M  V30 3909 O 365.978 1.04087 -1.89723 0
M  V30 3910 C 366.573 -2.23708 -2.54441 0
M  V30 3911 C 365.132 -2.16924 -3.07605 0
M  V30 3912 C 364.279 -2.10549 -1.80456 0
M  V30 3913 H 367.23 -1.45573 -0.631991 0
M  V30 3914 H 367.251 -1.85157 -3.32411 0
M  V30 3915 H 366.763 -3.23866 -2.13851 0
M  V30 3916 H 364.864 -1.20107 -3.52711 0
M  V30 3917 H 364.977 -3.07988 -3.66988 0
M  V30 3918 H 363.341 -1.56203 -2.01178 0
M  V30 3919 H 364.124 -3.12535 -1.42046 0
M  V30 3920 N 366.569 1.04691 -1.17803 0
M  V30 3921 C 367.516 2.12557 -0.899343 0
M  V30 3922 C 368.486 1.65339 0.158771 0
M  V30 3923 O 369.671 1.90789 0.0204797 0
M  V30 3924 C 366.811 3.42481 -0.424315 0
M  V30 3925 C 365.924 4.03346 -1.54713 0
M  V30 3926 C 365.059 5.21208 -1.02546 0
M  V30 3927 C 364.098 5.74089 -2.12339 0
M  V30 3928 N 363.235 6.83247 -1.61612 0
M  V30 3929 H 368.075 2.35734 -1.823 0
M  V30 3930 H 365.612 1.1564 -0.909159 0
M  V30 3931 H 367.57 4.16996 -0.130421 0
M  V30 3932 H 366.2 3.19471 0.462377 0
M  V30 3933 H 365.252 3.2622 -1.95664 0
M  V30 3934 H 366.564 4.38628 -2.37501 0
M  V30 3935 H 365.718 6.02812 -0.685718 0
M  V30 3936 H 364.457 4.87414 -0.167084 0
M  V30 3937 H 363.462 4.91111 -2.47165 0
M  V30 3938 H 364.687 6.0993 -2.98601 0
M  V30 3939 H 362.633 6.5134 -0.780533 0
M  V30 3940 H 362.55 7.17559 -2.38003 0
M  V30 3941 H 363.818 7.68491 -1.30545 0
M  V30 3942 N 368.047 0.979072 1.23499 0
M  V30 3943 C 369.294 0.647219 1.91878 0
M  V30 3944 C 369.622 -0.819074 1.76413 0
M  V30 3945 O 368.877 -1.60616 1.11808 0
M  V30 3946 C 369.176 0.981932 3.43646 0
M  V30 3947 C 368.842 2.43822 3.79291 0
M  V30 3948 C 367.504 2.83622 3.88731 0
M  V30 3949 C 369.856 3.3828 3.96505 0
M  V30 3950 C 367.184 4.16897 4.12812 0
M  V30 3951 C 369.536 4.71197 4.22085 0
M  V30 3952 C 368.2 5.10758 4.29747 0
M  V30 3953 H 367.47 0.236834 0.702133 0
M  V30 3954 H 370.117 1.23268 1.46551 0
M  V30 3955 H 368.422 0.314365 3.90537 0
M  V30 3956 H 370.119 0.703395 3.94783 0
M  V30 3957 H 366.709 2.11966 3.72516 0
M  V30 3958 H 370.893 3.0871 3.88603 0
M  V30 3959 H 366.149 4.47157 4.16966 0
M  V30 3960 H 370.323 5.44348 4.34348 0
M  V30 3961 H 367.95 6.1405 4.48159 0
M  V30 3962 N 369.525 -1.3858 0.750561 0
M  V30 3963 C 370.941 -1.53759 0.427824 0
M  V30 3964 C 371.141 -1.71401 -1.05943 0
M  V30 3965 O 370.197 -1.72331 -1.84549 0
M  V30 3966 C 371.51 -2.74642 1.22443 0
M  V30 3967 C 373.058 -2.88489 1.2142 0
M  V30 3968 C 373.533 -4.12329 1.9937 0
M  V30 3969 N 375.024 -4.194 1.96616 0
M  V30 3970 C 375.759 -5.14209 2.53727 0
M  V30 3971 N 375.255 -6.14709 3.19539 0
M  V30 3972 N 377.048 -5.06537 2.43673 0
M  V30 3973 H 369.199 -1.25377 1.71447 0
M  V30 3974 H 371.462 -0.608844 0.726645 0
M  V30 3975 H 371.168 -2.68 2.27747 0
M  V30 3976 H 371.042 -3.67745 0.839273 0
M  V30 3977 H 373.429 -2.94614 0.169232 0
M  V30 3978 H 373.51 -1.96406 1.63885 0
M  V30 3979 H 373.154 -4.06966 3.03877 0
M  V30 3980 H 373.084 -5.03486 1.54302 0
M  V30 3981 H 375.575 -3.47421 1.48684 0
M  V30 3982 H 375.888 -6.8354 3.60545 0
M  V30 3983 H 374.233 -6.1505 3.23633 0
M  V30 3984 H 377.424 -4.26962 1.91889 0
M  V30 3985 H 377.597 -5.80245 2.88479 0
M  V30 3986 N 371.003 -0.499398 -1.49478 0
M  V30 3987 C 371.95 0.279881 -2.29097 0
M  V30 3988 C 372.92 0.961805 -1.3542 0
M  V30 3989 O 374.105 0.968777 -1.64376 0
M  V30 3990 C 371.245 1.33932 -3.18051 0
M  V30 3991 C 370.358 0.669333 -4.26783 0
M  V30 3992 C 369.493 1.70907 -5.02955 0
M  V30 3993 C 368.532 1.02087 -6.03527 0
M  V30 3994 N 367.669 2.00474 -6.7287 0
M  V30 3995 H 372.509 -0.405317 -2.95231 0
M  V30 3996 H 370.046 -0.211726 -1.45568 0
M  V30 3997 H 372.004 1.96553 -3.67998 0
M  V30 3998 H 370.634 1.9933 -2.53904 0
M  V30 3999 H 369.686 -0.0701234 -3.80335 0
M  V30 4000 H 370.998 0.127503 -4.98637 0
M  V30 4001 H 370.152 2.41037 -5.56764 0
M  V30 4002 H 368.891 2.28476 -4.30871 0
M  V30 4003 H 367.896 0.305338 -5.48951 0
M  V30 4004 H 369.121 0.451708 -6.77596 0
M  V30 4005 H 367.067 2.57007 -6.03559 0
M  V30 4006 H 366.984 1.51353 -7.40694 0
M  V30 4007 H 368.252 2.69897 -7.31284 0
M  V30 4008 N 372.481 1.55866 -0.233164 0
M  V30 4009 C 373.73 1.97779 0.39579 0
M  V30 4010 C 374.043 1.12419 1.60066 0
M  V30 4011 O 375.249 1.44283 2.29988 0
M  V30 4012 C 373.705 3.5188 0.755556 0
M  V30 4013 C 373.313 4.45959 -0.427152 0
M  V30 4014 C 375.057 4.02479 1.34946 0
M  V30 4015 C 372.964 5.91383 -0.0443043 0
M  V30 4016 H 371.894 0.738592 0.15165 0
M  V30 4017 H 374.545 1.80486 -0.331212 0
M  V30 4018 H 372.927 3.64816 1.5403 0
M  V30 4019 H 374.101 4.44776 -1.20462 0
M  V30 4020 H 372.416 4.05765 -0.935068 0
M  V30 4021 H 375.013 5.08637 1.649 0
M  V30 4022 H 375.356 3.49014 2.26925 0
M  V30 4023 H 375.889 3.92813 0.62791 0
M  V30 4024 H 372.628 6.48857 -0.930874 0
M  V30 4025 H 372.148 5.95734 0.697238 0
M  V30 4026 H 373.827 6.45893 0.378334 0
M  V30 4027 N 373.959 -0.0401083 1.57549 0
M  V30 4028 C 375.208 -0.732108 1.87944 0
M  V30 4029 C 375.521 -1.77107 0.830206 0
M  V30 4030 O 376.727 -2.51488 1.02302 0
M  V30 4031 C 375.183 -1.35315 3.33494 0
M  V30 4032 C 374.791 -0.351105 4.46622 0
M  V30 4033 C 376.535 -2.02566 3.73051 0
M  V30 4034 C 374.442 -0.979859 5.83226 0
M  V30 4035 H 373.372 -0.277188 0.701201 0
M  V30 4036 H 376.023 0.0138501 1.83495 0
M  V30 4037 H 374.405 -2.14844 3.32653 0
M  V30 4038 H 375.579 0.416674 4.58912 0
M  V30 4039 H 373.894 0.218708 4.15825 0
M  V30 4040 H 376.491 -2.50441 4.72423 0
M  V30 4041 H 376.834 -2.83904 3.04474 0
M  V30 4042 H 377.367 -1.29827 3.76018 0
M  V30 4043 H 374.106 -0.206135 6.55176 0
M  V30 4044 H 373.626 -1.71774 5.74677 0
M  V30 4045 H 375.305 -1.49046 6.29599 0
M  V30 4046 N 375.437 -1.54477 -0.31217 0
M  V30 4047 C 376.686 -1.72438 -1.04633 0
M  V30 4048 C 376.999 -0.511163 -1.88803 0
M  V30 4049 O 378.205 -0.572341 -2.65399 0
M  V30 4050 C 376.661 -3.05043 -1.9099 0
M  V30 4051 C 376.269 -4.33806 -1.11877 0
M  V30 4052 C 378.013 -3.32364 -2.64073 0
M  V30 4053 C 375.92 -5.57467 -1.97445 0
M  V30 4054 H 374.85 -0.642647 -0.394361 0
M  V30 4055 H 377.501 -1.80966 -0.303929 0
M  V30 4056 H 375.883 -2.90451 -2.69173 0
M  V30 4057 H 377.057 -4.59199 -0.383843 0
M  V30 4058 H 375.372 -4.13336 -0.504252 0
M  V30 4059 H 377.969 -4.21951 -3.28423 0
M  V30 4060 H 378.312 -2.50745 -3.32314 0
M  V30 4061 H 378.845 -3.47875 -1.92944 0
M  V30 4062 H 375.584 -6.41722 -1.33692 0
M  V30 4063 H 375.104 -5.36277 -2.6864 0
M  V30 4064 H 376.783 -5.94303 -2.5576 0
M  V30 4065 N 376.915 0.57481 -1.46744 0
M  V30 4066 C 378.326 1.15695 -1.46532 0
M  V30 4067 C 378.677 1.95068 -0.210425 0
M  V30 4068 O 377.802 2.05241 0.685944 0
M  V30 4069 C 378.397 2.1048 -2.65487 0
M  V30 4070 C 376.956 2.64002 -2.68291 0
M  V30 4071 C 376.103 1.40026 -2.39349 0
M  V30 4072 H 379.054 0.362325 -1.54509 0
M  V30 4073 H 379.075 2.94074 -2.41455 0
M  V30 4074 H 378.587 1.52683 -3.56805 0
M  V30 4075 H 376.688 3.25646 -1.81067 0
M  V30 4076 H 376.801 3.06197 -3.68483 0
M  V30 4077 H 375.165 1.70106 -1.89568 0
M  V30 4078 H 375.948 0.840485 -3.32852 0
M  V30 4079 N 378.394 1.34581 0.820102 0
M  V30 4080 C 379.641 1.27096 1.57648 0
M  V30 4081 C 379.969 -0.158317 1.93855 0
M  V30 4082 O 379.224 -1.12028 1.60463 0
M  V30 4083 C 379.523 2.10997 2.8847 0
M  V30 4084 C 379.189 3.59966 2.71543 0
M  V30 4085 C 377.851 4.00575 2.66634 0
M  V30 4086 C 380.203 4.54548 2.55021 0
M  V30 4087 C 377.531 5.33953 2.43128 0
M  V30 4088 C 379.883 5.88109 2.33047 0
M  V30 4089 C 378.547 6.27878 2.26552 0
M  V30 4090 H 377.817 0.465078 0.576874 0
M  V30 4091 H 380.464 1.6635 0.948671 0
M  V30 4092 H 378.769 1.6458 3.55557 0
M  V30 4093 H 380.466 2.0255 3.46084 0
M  V30 4094 H 377.056 3.27733 2.76205 0
M  V30 4095 H 381.24 4.24069 2.57835 0
M  V30 4096 H 376.496 5.63781 2.3656 0
M  V30 4097 H 380.67 6.60985 2.19251 0
M  V30 4098 H 378.297 7.31162 2.081 0
M  V30 4099 N 379.872 -1.04064 1.18357 0
M  V30 4100 C 380.802 -2.14001 0.934113 0
M  V30 4101 C 381.783 -1.69616 -0.128186 0
M  V30 4102 O 382.968 -1.94185 0.0244093 0
M  V30 4103 C 380.098 -3.44253 0.459066 0
M  V30 4104 C 379.052 -4.02261 1.46185 0
M  V30 4105 C 378.378 -5.27992 0.844322 0
M  V30 4106 C 379.678 -4.38432 2.83856 0
M  V30 4107 H 381.372 -2.35127 1.85352 0
M  V30 4108 H 378.918 -1.12998 0.892604 0
M  V30 4109 H 380.871 -4.20522 0.271907 0
M  V30 4110 H 379.595 -3.22813 -0.495912 0
M  V30 4111 H 378.254 -3.28074 1.63595 0
M  V30 4112 H 377.902 -5.02862 -0.117845 0
M  V30 4113 H 377.602 -5.67765 1.51384 0
M  V30 4114 H 379.126 -6.06938 0.667693 0
M  V30 4115 H 380.54 -5.05688 2.70098 0
M  V30 4116 H 378.937 -4.89254 3.47491 0
M  V30 4117 H 380.007 -3.4826 3.37406 0
M  V30 4118 N 381.35 -0.985608 -1.22978 0
M  V30 4119 C 382.597 -0.657386 -1.91532 0
M  V30 4120 C 382.925 0.809707 -1.76845 0
M  V30 4121 O 382.18 1.60021 -1.12658 0
M  V30 4122 C 382.479 -1.00014 -3.43121 0
M  V30 4123 C 382.145 -2.4583 -3.77993 0
M  V30 4124 C 380.807 -2.85679 -3.87222 0
M  V30 4125 C 383.159 -3.40378 -3.94705 0
M  V30 4126 C 380.487 -4.19081 -4.10595 0
M  V30 4127 C 382.839 -4.73429 -4.1958 0
M  V30 4128 C 381.503 -5.1303 -4.27032 0
M  V30 4129 H 380.773 -0.240555 -0.700867 0
M  V30 4130 H 383.42 -1.24044 -1.45895 0
M  V30 4131 H 381.725 -0.335072 -3.90365 0
M  V30 4132 H 383.422 -0.724322 -3.94404 0
M  V30 4133 H 380.012 -2.13939 -3.71387 0
M  V30 4134 H 384.196 -3.10766 -3.8696 0
M  V30 4135 H 379.452 -4.49362 -4.14589 0
M  V30 4136 H 383.626 -5.46644 -4.31455 0
M  V30 4137 H 381.253 -6.16418 -4.44896 0
M  V30 4138 O 382.867 1.34428 -0.895061 0
M  V30 4139 H 383.558 1.87018 -0.504368 0
M  V30 END ATOM
M  V30 BEGIN BOND
M  V30 END BOND
M  V30 END CTAB
M  END
$$$$
