drugbank_target|P12256 Penicillin acylase (DB00417; DB01822; DB03661)
 OpenBabel12092119523D

  0  0  0     0  0            999 V3000
M  V30 BEGIN CTAB
M  V30 COUNTS 5242 5297 0 0 0
M  V30 BEGIN ATOM
M  V30 1 H -0.908 1.98254 -0.117106 0
M  V30 2 N 0 1.576 0 0
M  V30 3 C 0.933 2.03868 1.02534 0
M  V30 4 C 1.911 0.928543 1.3348 0
M  V30 5 O 3.095 1.19667 1.45644 0
M  V30 6 C 0.222 2.43627 2.35294 0
M  V30 7 C -0.732 3.65373 2.2001 0
M  V30 8 S 0.101 5.13292 1.52614 0
M  V30 9 C 1.257 5.56322 2.86805 0
M  V30 10 H 1.49 2.90518 0.631377 0
M  V30 11 H -0.977 1.52953 0.210867 0
M  V30 12 H 0.981 2.67203 3.11629 0
M  V30 13 H -0.358 1.57376 2.7183 0
M  V30 14 H -1.165 3.90944 3.18086 0
M  V30 15 H -1.563 3.418 1.51819 0
M  V30 16 H 0.729 5.58782 3.83104 0
M  V30 17 H 1.672 6.56266 2.65933 0
M  V30 18 H 2.08 4.83886 2.90714 0
M  V30 19 N 1.4781 -0.272755 1.55222 0
M  V30 20 C 2.4081 -1.34136 1.91127 0
M  V30 21 C 3.3891 -1.51513 0.773168 0
M  V30 22 O 4.5741 -1.64552 1.03132 0
M  V30 23 C 1.7041 -2.70083 2.1834 0
M  V30 24 C 0.6581 -2.67437 3.34158 0
M  V30 25 C -0.0159 -4.06938 3.46851 0
M  V30 26 C 1.2841 -2.26686 4.70543 0
M  V30 27 H 2.9781 -1.04333 2.80633 0
M  V30 28 H 0.5241 -0.500454 1.35024 0
M  V30 29 H 2.4771 -3.44952 2.42046 0
M  V30 30 H 1.2011 -3.01469 1.25634 0
M  V30 31 H -0.1399 -1.95026 3.1042 0
M  V30 32 H -0.4919 -4.35547 2.51611 0
M  V30 33 H -0.7919 -4.06062 4.2472 0
M  V30 34 H 0.7321 -4.83545 3.72849 0
M  V30 35 H 2.1461 -2.91277 4.93792 0
M  V30 36 H 0.5431 -2.36971 5.5133 0
M  V30 37 H 1.6131 -1.21818 4.69349 0
M  V30 38 N 2.9562 -1.48159 -0.537278 0
M  V30 39 C 4.2042 -1.55497 -1.29094 0
M  V30 40 C 4.5252 -0.227454 -1.93669 0
M  V30 41 O 3.7952 0.750386 -1.80959 0
M  V30 42 H 2.3752 -0.572832 -0.47945 0
M  V30 43 H 5.0372 -1.84579 -0.625818 0
M  V30 44 H 4.1332 -2.33216 -2.07405 0
M  V30 45 N 4.4343 0.785586 -1.36625 0
M  V30 46 C 5.6743 1.55678 -1.32453 0
M  V30 47 C 6.0383 1.91769 0.0941089 0
M  V30 48 O 7.2393 2.67536 0.26042 0
M  V30 49 C 5.5103 2.79701 -2.22491 0
M  V30 50 S 7.0693 3.69907 -2.36038 0
M  V30 51 H 3.8873 0.533141 -0.470405 0
M  V30 52 H 6.4893 0.924953 -1.72235 0
M  V30 53 H 5.1933 2.51244 -3.24507 0
M  V30 54 H 4.7243 3.47854 -1.83742 0
M  V30 55 H 6.7393 4.71016 -1.56072 0
M  V30 56 N 5.9124 1.20967 1.01018 0
M  V30 57 C 7.1374 1.0503 1.78839 0
M  V30 58 C 7.5624 -0.395752 1.8389 0
M  V30 59 O 6.9204 -1.28529 1.27867 0
M  V30 60 C 6.9684 1.64602 3.2084 0
M  V30 61 O 6.0724 0.887988 4.02726 0
M  V30 62 H 5.4134 0.369987 0.551367 0
M  V30 63 H 7.9434 1.60399 1.27018 0
M  V30 64 H 7.9534 1.68607 3.71532 0
M  V30 65 H 6.6284 2.69841 3.16479 0
M  V30 66 H 5.2054 0.922648 3.61305 0
M  V30 67 N 7.3905 -1.2043 1.01659 0
M  V30 68 C 8.6155 -1.94318 0.724942 0
M  V30 69 C 9.0405 -1.74266 -0.708034 0
M  V30 70 O 8.3985 -1.03694 -1.48719 0
M  V30 71 C 8.4465 -3.44486 1.06591 0
M  V30 72 O 7.5505 -4.12017 0.177599 0
M  V30 73 H 6.8915 -0.60708 0.26898 0
M  V30 74 H 9.4215 -1.52861 1.35995 0
M  V30 75 H 9.4315 -3.95106 1.01762 0
M  V30 76 H 8.1065 -3.58404 2.10997 0
M  V30 77 H 6.6835 -3.71821 0.283421 0
M  V30 78 N 8.8686 -0.792821 -1.36206 0
M  V30 79 C 9.7986 -0.207853 -2.32573 0
M  V30 80 C 10.7796 0.659055 -1.56813 0
M  V30 81 O 11.9646 0.592176 -1.84951 0
M  V30 82 C 9.0946 0.655449 -3.41059 0
M  V30 83 C 8.0486 -0.111842 -4.27854 0
M  V30 84 C 7.3746 0.872274 -5.27537 0
M  V30 85 C 8.6746 -1.30299 -5.05786 0
M  V30 86 H 10.3686 -1.01294 -2.81744 0
M  V30 87 H 7.9146 -0.48854 -1.3546 0
M  V30 88 H 9.8676 1.07464 -4.07467 0
M  V30 89 H 8.5916 1.49328 -2.90463 0
M  V30 90 H 7.2506 -0.512053 -3.63006 0
M  V30 91 H 6.8986 1.70523 -4.73214 0
M  V30 92 H 6.5986 0.363291 -5.86476 0
M  V30 93 H 8.1226 1.28996 -5.96818 0
M  V30 94 H 9.5366 -0.959379 -5.65216 0
M  V30 95 H 7.9336 -1.7455 -5.74154 0
M  V30 96 H 9.0036 -2.09663 -4.37229 0
M  V30 97 N 10.3467 1.47872 -0.545128 0
M  V30 98 C 11.5717 2.07391 -0.0190611 0
M  V30 99 C 11.9967 1.39688 1.25971 0
M  V30 100 O 11.3547 0.467816 1.7516 0
M  V30 101 C 11.4027 3.60188 0.172335 0
M  V30 102 O 10.5067 3.9339 1.23766 0
M  V30 103 H 9.8477 0.662411 -0.0459059 0
M  V30 104 H 12.3777 1.90066 -0.757365 0
M  V30 105 H 12.3877 4.06129 0.390305 0
M  V30 106 H 11.0627 4.08865 -0.761725 0
M  V30 107 H 9.6397 3.5921 1.00114 0
M  V30 108 N 11.8248 0.280983 1.55075 0
M  V30 109 C 13.0738 -0.334784 1.98902 0
M  V30 110 C 13.3868 -1.56534 1.17288 0
M  V30 111 O 14.5928 -2.25443 1.51287 0
M  V30 112 C 13.0488 -0.646994 3.54037 0
M  V30 113 C 12.6568 0.564085 4.44435 0
M  V30 114 C 14.4008 -1.22506 4.06439 0
M  V30 115 C 12.3078 0.226137 5.90967 0
M  V30 116 H 11.2378 -0.128866 0.742906 0
M  V30 117 H 13.8888 0.386556 1.79382 0
M  V30 118 H 12.2708 -1.42739 3.6938 0
M  V30 119 H 13.4448 1.34082 4.40861 0
M  V30 120 H 11.7598 1.0594 4.02698 0
M  V30 121 H 14.3568 -1.49182 5.13468 0
M  V30 122 H 14.6998 -2.16085 3.55827 0
M  V30 123 H 15.2328 -0.50682 3.94558 0
M  V30 124 H 11.9718 1.12996 6.45687 0
M  V30 125 H 11.4918 -0.513717 5.97596 0
M  V30 126 H 13.1708 -0.179539 6.46751 0
M  V30 127 N 13.3029 -1.57598 0.00835791 0
M  V30 128 C 14.7189 -1.55764 -0.347822 0
M  V30 129 C 14.9189 -1.01186 -1.74252 0
M  V30 130 O 13.9749 -0.649371 -2.44007 0
M  V30 131 C 15.2879 -2.99927 -0.215407 0
M  V30 132 C 16.8359 -3.11656 -0.289725 0
M  V30 133 C 17.3109 -4.57621 -0.18634 0
M  V30 134 N 18.8019 -4.62557 -0.243978 0
M  V30 135 C 19.5369 -5.73094 -0.18745 0
M  V30 136 N 19.0329 -6.92753 -0.0810331 0
M  V30 137 N 20.8259 -5.61588 -0.239925 0
M  V30 138 H 12.9769 -1.91411 0.92062 0
M  V30 139 H 15.2399 -0.879562 0.353659 0
M  V30 140 H 14.9459 -3.43729 0.744512 0
M  V30 141 H 14.8199 -3.63865 -0.994097 0
M  V30 142 H 17.2069 -2.67779 -1.24009 0
M  V30 143 H 17.2879 -2.5048 0.51898 0
M  V30 144 H 16.9319 -5.02174 0.760519 0
M  V30 145 H 16.8619 -5.16752 -1.01364 0
M  V30 146 H 19.3529 -3.76481 -0.327217 0
M  V30 147 H 19.6659 -7.72787 -0.0440241 0
M  V30 148 H 18.0109 -6.94984 -0.0465419 0
M  V30 149 H 21.2019 -4.66996 -0.321317 0
M  V30 150 H 21.3749 -6.47714 -0.192407 0
M  V30 151 N 14.781 0.264519 -1.55364 0
M  V30 152 C 16.009 1.013 -1.80405 0
M  V30 153 C 16.424 1.79618 -0.581622 0
M  V30 154 O 15.781 1.76879 0.449468 0
M  V30 155 C 15.832 1.96487 -3.03439 0
M  V30 156 O 15.553 1.21341 -4.20961 0
M  V30 157 C 17.054 2.83079 -3.41147 0
M  V30 158 H 14.274 0.298875 -0.600762 0
M  V30 159 H 16.818 0.292736 -2.02394 0
M  V30 160 H 14.973 2.63965 -2.83551 0
M  V30 161 H 15.387 1.85573 -4.90574 0
M  V30 162 H 16.861 3.4565 -4.30384 0
M  V30 163 H 17.338 3.53286 -2.60932 0
M  V30 164 H 17.944 2.2108 -3.63323 0
M  V30 165 N 16.2591 1.48442 0.529413 0
M  V30 166 C 17.4871 1.60151 1.30994 0
M  V30 167 C 17.9021 0.261985 1.86973 0
M  V30 168 O 17.2591 -0.748805 1.66431 0
M  V30 169 C 17.3101 2.64854 2.46038 0
M  V30 170 O 17.0311 3.93608 1.92365 0
M  V30 171 C 18.5321 2.87007 3.37849 0
M  V30 172 H 15.7521 0.539971 0.398338 0
M  V30 173 H 18.2961 1.94273 0.638597 0
M  V30 174 H 16.4511 2.33589 3.09055 0
M  V30 175 H 16.8651 4.51055 2.67675 0
M  V30 176 H 18.3391 3.64068 4.14919 0
M  V30 177 H 18.8161 1.95852 3.93114 0
M  V30 178 H 19.4221 3.19579 2.80623 0
M  V30 179 N 17.7372 -0.778329 1.37039 0
M  V30 180 C 19.0142 -1.52551 1.22424 0
M  V30 181 C 19.3942 -2.10288 -0.184964 0
M  V30 182 O 18.7422 -1.94953 -1.19187 0
M  V30 183 C 18.9522 -2.61164 2.31504 0
M  V30 184 C 20.3002 -3.28746 2.68721 0
M  V30 185 O 21.3242 -2.71455 2.30631 0
M  V30 186 O 20.1832 -4.3231 3.3432 0
M  V30 187 H 17.2772 -0.675343 0.477326 0
M  V30 188 H 19.8232 -0.815859 1.48801 0
M  V30 189 H 18.5952 -2.16574 3.25901 0
M  V30 190 H 18.2182 -3.39737 2.06554 0
M  V30 191 N 19.2153 -1.21501 -1.00376 0
M  V30 192 C 20.4923 -0.941745 -1.71437 0
M  V30 193 C 20.8723 0.546114 -2.03914 0
M  V30 194 O 20.2203 1.51128 -1.71384 0
M  V30 195 C 20.4303 -1.82812 -2.97289 0
M  V30 196 C 21.7783 -2.07771 -3.70292 0
M  V30 197 O 22.8023 -1.80171 -3.07273 0
M  V30 198 O 21.6613 -2.54456 -4.83647 0
M  V30 199 H 18.7553 -0.353243 -0.747762 0
M  V30 200 H 21.3013 -1.32436 -1.06108 0
M  V30 201 H 20.0733 -2.83501 -2.69709 0
M  V30 202 H 19.6963 -1.4464 -3.70358 0
M  V30 203 N 20.6934 1.19889 -1.02296 0
M  V30 204 C 21.6404 2.22901 -0.598651 0
M  V30 205 C 22.6104 1.61588 0.384521 0
M  V30 206 O 23.7954 1.88697 0.282522 0
M  V30 207 C 20.9354 3.45063 0.0504476 0
M  V30 208 C 20.0484 4.20783 -0.978053 0
M  V30 209 C 19.1834 5.30356 -0.299338 0
M  V30 210 C 18.2224 5.97826 -1.31416 0
M  V30 211 N 17.3594 6.98975 -0.661667 0
M  V30 212 H 22.1994 2.58554 -1.48169 0
M  V30 213 H 19.7364 1.27039 -0.741584 0
M  V30 214 H 21.6944 4.14831 0.443971 0
M  V30 215 H 20.3244 3.10084 0.897097 0
M  V30 216 H 19.3764 3.50018 -1.48969 0
M  V30 217 H 20.6884 4.67109 -1.74958 0
M  V30 218 H 19.8424 6.06516 0.149347 0
M  V30 219 H 18.5814 4.85084 0.504445 0
M  V30 220 H 17.5864 5.20422 -1.77317 0
M  V30 221 H 18.8114 6.45183 -2.11933 0
M  V30 222 H 16.7574 6.55886 0.122132 0
M  V30 223 H 16.6744 7.43461 -1.37117 0
M  V30 224 H 17.9424 7.7914 -0.236785 0
M  V30 225 N 22.1715 0.800033 1.35784 0
M  V30 226 C 23.3965 0.388511 2.03729 0
M  V30 227 C 23.8215 -0.990481 1.5991 0
M  V30 228 O 23.1795 -1.64013 0.772612 0
M  V30 229 C 23.2275 0.4726 3.5749 0
M  V30 230 O 22.3315 -0.51646 4.09153 0
M  V30 231 H 21.6725 0.163271 0.643614 0
M  V30 232 H 24.2025 1.0841 1.73518 0
M  V30 233 H 24.2125 0.34003 4.06581 0
M  V30 234 H 22.8875 1.47848 3.88734 0
M  V30 235 H 21.4645 -0.344673 3.71304 0
M  V30 236 N 23.6496 -1.47581 0.552962 0
M  V30 237 C 24.5796 -2.32762 -0.185451 0
M  V30 238 C 25.5606 -1.43527 -0.912905 0
M  V30 239 O 26.7456 -1.72388 -0.894201 0
M  V30 240 C 23.8756 -3.25219 -1.21859 0
M  V30 241 C 22.8296 -4.23661 -0.607864 0
M  V30 242 C 22.1556 -5.05413 -1.74533 0
M  V30 243 C 23.4556 -5.20481 0.435582 0
M  V30 244 H 25.1496 -2.94749 0.525684 0
M  V30 245 H 22.6956 -1.41738 0.254251 0
M  V30 246 H 24.6486 -3.8365 -1.7433 0
M  V30 247 H 23.3726 -2.61279 -1.95961 0
M  V30 248 H 22.0316 -3.66451 -0.104489 0
M  V30 249 H 21.6796 -4.3788 -2.47529 0
M  V30 250 H 21.3796 -5.72059 -1.34249 0
M  V30 251 H 22.9036 -5.66701 -2.27338 0
M  V30 252 H 24.3176 -5.733 -0.00290157 0
M  V30 253 H 22.7146 -5.95305 0.757067 0
M  V30 254 H 23.7846 -4.66217 1.33303 0
M  V30 255 N 25.1277 -0.289203 -1.54924 0
M  V30 256 C 26.3747 0.323519 -1.99899 0
M  V30 257 C 26.7027 1.54797 -1.17762 0
M  V30 258 O 25.9577 1.94237 -0.238835 0
M  V30 259 C 26.2567 0.736119 -3.49737 0
M  V30 260 C 25.9227 -0.385276 -4.49251 0
M  V30 261 C 24.5847 -0.693156 -4.76181 0
M  V30 262 C 26.9367 -1.14021 -5.08575 0
M  V30 263 C 24.2647 -1.7593 -5.59701 0
M  V30 264 C 26.6167 -2.19619 -5.93254 0
M  V30 265 C 25.2807 -2.51026 -6.185 0
M  V30 266 H 24.5507 0.118384 -0.731482 0
M  V30 267 H 27.1977 -0.405847 -1.8715 0
M  V30 268 H 25.5027 1.54539 -3.60035 0
M  V30 269 H 27.1997 1.22118 -3.81953 0
M  V30 270 H 23.7897 -0.135202 -4.28387 0
M  V30 271 H 27.9737 -0.915611 -4.87781 0
M  V30 272 H 23.2297 -2.0075 -5.77503 0
M  V30 273 H 27.4037 -2.78581 -6.38252 0
M  V30 274 H 25.0307 -3.33772 -6.83008 0
M  V30 275 N 26.6058 1.57591 -0.0167156 0
M  V30 276 C 27.5688 2.08393 0.954204 0
M  V30 277 C 28.5688 0.996531 1.26198 0
M  V30 278 O 29.7588 1.25858 1.20438 0
M  V30 279 C 26.8908 2.5394 2.27436 0
M  V30 280 H 28.0838 2.95455 0.514451 0
M  V30 281 H 25.6368 1.54582 0.231089 0
M  V30 282 H 26.3718 1.70171 2.76066 0
M  V30 283 H 26.1568 3.33371 2.06412 0
M  V30 284 H 27.6468 2.93512 2.97053 0
M  V30 285 N 28.0839 -0.256276 1.55502 0
M  V30 286 C 29.4999 -0.604325 1.47716 0
M  V30 287 C 29.6999 -1.88763 0.705039 0
M  V30 288 O 28.7559 -2.51445 0.230613 0
M  V30 289 C 30.0689 -0.715756 2.92057 0
M  V30 290 C 31.6169 -0.808706 3.02372 0
M  V30 291 C 32.0919 -0.951777 4.48001 0
M  V30 292 N 33.5829 -1.01688 4.519 0
M  V30 293 C 34.3179 -1.14668 5.61817 0
M  V30 294 N 33.8139 -1.24261 6.81565 0
M  V30 295 N 35.6069 -1.1791 5.49594 0
M  V30 296 H 27.7579 0.586291 2.04148 0
M  V30 297 H 30.0209 0.201015 0.926443 0
M  V30 298 H 29.7269 0.157027 3.51349 0
M  V30 299 H 29.6009 -1.59071 3.42018 0
M  V30 300 H 31.9879 -1.67195 2.43166 0
M  V30 301 H 32.0689 0.0912063 2.55637 0
M  V30 302 H 31.7129 -0.0931291 5.07815 0
M  V30 303 H 31.6429 -1.86659 4.92408 0
M  V30 304 H 34.1339 -0.954468 3.65648 0
M  V30 305 H 34.4469 -1.34046 7.61086 0
M  V30 306 H 32.7919 -1.21236 6.84344 0
M  V30 307 H 35.9829 -1.10057 4.54978 0
M  V30 308 H 36.1559 -1.27681 6.35296 0
M  V30 309 N 29.562 -1.4872 -0.521534 0
M  V30 310 C 30.79 -1.60843 -1.30142 0
M  V30 311 C 31.205 -0.271897 -1.86832 0
M  V30 312 O 30.562 0.739969 -1.66825 0
M  V30 313 C 30.613 -2.66155 -2.4463 0
M  V30 314 O 30.334 -3.94623 -1.90275 0
M  V30 315 C 31.835 -2.88795 -3.36322 0
M  V30 316 H 29.055 -0.542075 -0.395468 0
M  V30 317 H 31.599 -1.94609 -0.628285 0
M  V30 318 H 29.754 -2.35224 -3.07812 0
M  V30 319 H 30.168 -4.52468 -2.65279 0
M  V30 320 H 31.642 -3.66264 -4.12983 0
M  V30 321 H 32.119 -1.97934 -3.9207 0
M  V30 322 H 32.725 -3.21063 -2.78924 0
M  V30 323 N 31.0401 0.771051 -1.3745 0
M  V30 324 C 31.9731 1.89166 -1.27638 0
M  V30 325 C 32.9511 1.61842 -0.156782 0
M  V30 326 O 34.1351 1.85569 -0.331111 0
M  V30 327 C 31.2621 3.24405 -0.973621 0
M  V30 328 C 30.3081 3.70638 -2.1102 0
M  V30 329 S 31.1411 3.84228 -3.73 0
M  V30 330 C 32.2971 5.22313 -3.44876 0
M  V30 331 H 32.5301 1.972 -2.22485 0
M  V30 332 H 30.0631 0.932224 -1.23081 0
M  V30 333 H 32.0211 4.02514 -0.805766 0
M  V30 334 H 30.6821 3.14071 -0.0426279 0
M  V30 335 H 29.8751 4.68685 -1.85338 0
M  V30 336 H 29.4771 2.99632 -2.23822 0
M  V30 337 H 31.7691 6.07505 -2.99908 0
M  V30 338 H 32.7121 5.53008 -4.42253 0
M  V30 339 H 33.1201 4.90284 -2.79789 0
M  V30 340 N 32.5182 1.22032 0.997298 0
M  V30 341 C 33.7952 0.950823 1.70935 0
M  V30 342 C 34.1752 -0.535292 2.042 0
M  V30 343 O 33.5232 -1.50217 1.72183 0
M  V30 344 C 33.7332 1.84386 2.96315 0
M  V30 345 C 35.0812 2.09732 3.69185 0
M  V30 346 O 36.1052 1.81798 3.06314 0
M  V30 347 O 34.9642 2.57018 4.82291 0
M  V30 348 H 32.0582 0.357204 0.745878 0
M  V30 349 H 34.6042 1.32997 1.05404 0
M  V30 350 H 33.3762 2.84928 2.68201 0
M  V30 351 H 32.9992 1.46602 3.69586 0
M  V30 352 N 33.9963 -1.19345 1.0293 0
M  V30 353 C 35.2433 -1.89038 0.726008 0
M  V30 354 C 35.5713 -1.79649 -0.745427 0
M  V30 355 O 34.8263 -1.18354 -1.55855 0
M  V30 356 C 35.1253 -3.39292 1.12319 0
M  V30 357 C 34.7913 -3.68885 2.59297 0
M  V30 358 C 33.4533 -3.76671 2.99453 0
M  V30 359 C 35.8053 -3.82178 3.54386 0
M  V30 360 C 33.1333 -3.9522 4.33611 0
M  V30 361 C 35.4853 -4.0224 4.88248 0
M  V30 362 C 34.1493 -4.08259 5.28092 0
M  V30 363 H 33.4193 -0.691739 0.265665 0
M  V30 364 H 36.0663 -1.41328 1.29223 0
M  V30 365 H 34.3713 -3.88903 0.475584 0
M  V30 366 H 36.0683 -3.91536 0.866037 0
M  V30 367 H 32.6583 -3.63433 2.27189 0
M  V30 368 H 36.8423 -3.75505 3.24514 0
M  V30 369 H 32.0983 -3.98119 4.64016 0
M  V30 370 H 36.2723 -4.11468 5.61843 0
M  V30 371 H 33.8993 -4.22384 6.32057 0
M  V30 372 N 35.4744 -0.807222 -1.35358 0
M  V30 373 C 36.7024 -0.400377 -2.02989 0
M  V30 374 C 37.1174 0.988859 -1.60832 0
M  V30 375 O 36.4744 1.63729 -0.806175 0
M  V30 376 C 36.5254 -0.474867 -3.58368 0
M  V30 377 O 36.2464 -1.80933 -3.98992 0
M  V30 378 C 37.7474 -0.0609112 -4.43258 0
M  V30 379 H 34.9674 -0.162587 -0.651004 0
M  V30 380 H 37.5114 -1.09102 -1.72965 0
M  V30 381 H 35.6664 0.167534 -3.87038 0
M  V30 382 H 36.0804 -1.77256 -4.9364 0
M  V30 383 H 37.5544 -0.164145 -5.51756 0
M  V30 384 H 38.0314 0.993831 -4.27808 0
M  V30 385 H 38.6374 -0.676492 -4.19885 0
M  V30 386 N 36.9525 1.47285 -0.560781 0
M  V30 387 C 37.8855 2.27009 0.232821 0
M  V30 388 C 38.8635 1.34273 0.917039 0
M  V30 389 O 40.0475 1.63659 0.935315 0
M  V30 390 C 37.1745 3.11406 1.33206 0
M  V30 391 C 36.2205 4.19746 0.756019 0
M  V30 392 S 37.0535 5.34003 -0.400165 0
M  V30 393 C 38.2095 6.21964 0.700805 0
M  V30 394 H 38.4425 2.93971 -0.443683 0
M  V30 395 H 35.9755 1.50446 -0.347181 0
M  V30 396 H 37.9335 3.60601 1.96156 0
M  V30 397 H 36.5945 2.438 1.98041 0
M  V30 398 H 35.7875 4.78541 1.5816 0
M  V30 399 H 35.3895 3.73451 0.202619 0
M  V30 400 H 37.6815 6.58529 1.59202 0
M  V30 401 H 38.6245 7.07941 0.150126 0
M  V30 402 H 39.0325 5.5566 0.995083 0
M  V30 403 N 38.4306 0.297415 1.54768 0
M  V30 404 C 39.3406 -0.58983 2.27064 0
M  V30 405 C 40.3566 -1.15144 1.30453 0
M  V30 406 O 41.5326 -1.17699 1.63428 0
M  V30 407 C 38.5976 -1.74714 2.9946 0
M  V30 408 C 37.6586 -1.21997 4.11601 0
M  V30 409 C 36.8916 -2.32212 4.80535 0
M  V30 410 O 37.1146 -3.52036 4.48806 0
M  V30 411 O 36.0486 -1.99106 5.68014 0
M  V30 412 H 39.8746 -0.00348199 3.037 0
M  V30 413 H 37.4596 0.0640035 1.49263 0
M  V30 414 H 39.3416 -2.42147 3.44881 0
M  V30 415 H 38.0166 -2.32016 2.25722 0
M  V30 416 H 36.9236 -0.511458 3.70587 0
M  V30 417 H 38.2566 -0.692419 4.87305 0
M  V30 418 N 39.9087 -1.5758 0.0250728 0
M  V30 419 C 41.3197 -1.79476 -0.514323 0
M  V30 420 C 41.6707 -0.934956 -1.72491 0
M  V30 421 O 40.7957 -0.144245 -2.15919 0
M  V30 422 C 41.3907 -3.25503 -0.939842 0
M  V30 423 C 39.9497 -3.48408 -1.42438 0
M  V30 424 C 39.0967 -2.74583 -0.387201 0
M  V30 425 H 42.0477 -1.567 0.25113 0
M  V30 426 H 42.0687 -3.34992 -1.80445 0
M  V30 427 H 41.5807 -3.88056 -0.0585628 0
M  V30 428 H 39.6817 -2.91103 -2.32572 0
M  V30 429 H 39.7947 -4.57119 -1.43455 0
M  V30 430 H 38.1587 -2.39942 -0.854409 0
M  V30 431 H 38.9417 -3.39849 0.485543 0
M  V30 432 N 41.3868 0.248026 -1.55636 0
M  V30 433 C 42.6638 0.998988 -1.68165 0
M  V30 434 C 43.0438 2.03409 -0.564621 0
M  V30 435 O 42.3918 2.24378 0.432076 0
M  V30 436 C 42.6018 1.63334 -3.0842 0
M  V30 437 C 43.9498 2.13562 -3.66983 0
M  V30 438 O 44.9738 1.73277 -3.11213 0
M  V30 439 O 43.8328 2.87526 -4.64749 0
M  V30 440 H 40.9268 0.464933 -0.683935 0
M  V30 441 H 43.4728 0.241902 -1.67967 0
M  V30 442 H 42.2448 0.884583 -3.8117 0
M  V30 443 H 41.8678 2.45666 -3.12624 0
M  V30 444 N 42.8649 1.48995 0.513639 0
M  V30 445 C 44.0899 1.61792 1.29762 0
M  V30 446 C 44.5149 0.284475 1.85936 0
M  V30 447 O 43.8729 -0.746185 1.65232 0
M  V30 448 C 43.9209 2.67993 2.41272 0
M  V30 449 O 43.0249 2.26287 3.44772 0
M  V30 450 H 42.3659 0.541963 0.38363 0
M  V30 451 H 44.8959 1.95097 0.616307 0
M  V30 452 H 44.9059 2.89772 2.87221 0
M  V30 453 H 43.5809 3.64791 1.9975 0
M  V30 454 H 42.1579 2.14788 3.04829 0
M  V30 455 N 44.343 -0.763751 1.37857 0
M  V30 456 C 45.29 -1.87726 1.34267 0
M  V30 457 C 46.26 -1.64807 0.206879 0
M  V30 458 O 47.445 -1.86613 0.397508 0
M  V30 459 C 44.585 -3.24896 1.16346 0
M  V30 460 C 43.698 -3.59716 2.39225 0
M  V30 461 C 42.833 -4.86137 2.14114 0
M  V30 462 C 41.872 -5.13711 3.32817 0
M  V30 463 N 41.009 -6.31323 3.07206 0
M  V30 464 H 45.849 -1.90129 2.29466 0
M  V30 465 H 43.386 -0.929433 1.14017 0
M  V30 466 H 45.344 -4.04036 1.03975 0
M  V30 467 H 43.974 -3.21847 0.247909 0
M  V30 468 H 43.026 -2.75498 2.62307 0
M  V30 469 H 44.338 -3.76027 3.27728 0
M  V30 470 H 43.492 -5.73198 1.9882 0
M  V30 471 H 42.231 -4.71945 1.22961 0
M  V30 472 H 41.236 -4.25123 3.48641 0
M  V30 473 H 42.461 -5.29807 4.24832 0
M  V30 474 H 40.407 -6.18474 2.1869 0
M  V30 475 H 40.324 -6.48087 3.89254 0
M  V30 476 H 41.592 -7.213 2.95546 0
M  V30 477 N 45.8211 -1.22559 -0.990812 0
M  V30 478 C 47.0671 -1.05297 -1.73322 0
M  V30 479 C 47.4001 0.410655 -1.89808 0
M  V30 480 O 46.6751 1.30439 -1.44277 0
M  V30 481 C 46.9581 -1.76713 -3.13759 0
M  V30 482 C 46.8111 -3.30684 -3.04907 0
M  V30 483 C 48.1301 -1.52121 -4.12974 0
M  V30 484 H 45.2491 -0.38392 -0.629106 0
M  V30 485 H 47.8911 -1.50926 -1.15418 0
M  V30 486 H 46.0411 -1.37924 -3.63193 0
M  V30 487 H 47.7131 -3.7893 -2.63077 0
M  V30 488 H 45.9561 -3.60253 -2.41661 0
M  V30 489 H 46.6271 -3.75833 -4.04294 0
M  V30 490 H 49.1031 -1.85819 -3.72304 0
M  V30 491 H 47.9791 -2.04582 -5.0935 0
M  V30 492 H 48.2401 -0.454257 -4.3976 0
M  V30 493 N 47.2992 1.18797 -1.03562 0
M  V30 494 C 48.5482 1.87978 -0.731235 0
M  V30 495 C 48.8612 1.80911 0.743671 0
M  V30 496 O 50.0672 2.45407 1.16137 0
M  V30 497 C 48.5232 3.3721 -1.25768 0
M  V30 498 C 48.1312 3.52818 -2.76085 0
M  V30 499 C 49.8752 4.11825 -1.0296 0
M  V30 500 C 47.7822 4.9598 -3.22114 0
M  V30 501 H 46.7122 0.704063 -0.269835 0
M  V30 502 H 49.3632 1.34266 -1.25079 0
M  V30 503 H 47.7452 3.90359 -0.666011 0
M  V30 504 H 48.9192 3.09965 -3.40966 0
M  V30 505 H 47.2342 2.91602 -2.97249 0
M  V30 506 H 49.8312 5.17411 -1.34869 0
M  V30 507 H 50.1742 4.16287 0.0333546 0
M  V30 508 H 50.7072 3.64833 -1.58562 0
M  V30 509 H 47.4462 4.96684 -4.27768 0
M  V30 510 H 46.9662 5.39569 -2.61965 0
M  V30 511 H 48.6452 5.6467 -3.15844 0
M  V30 512 N 48.7773 0.814389 1.34928 0
M  V30 513 C 50.0263 0.394871 1.97797 0
M  V30 514 C 50.3393 -1.04555 1.65311 0
M  V30 515 O 51.5453 -1.56856 2.21604 0
M  V30 516 C 50.0013 0.655103 3.53888 0
M  V30 517 C 49.6093 2.10858 3.95276 0
M  V30 518 C 51.3533 0.301329 4.23429 0
M  V30 519 C 49.2603 2.31415 5.44244 0
M  V30 520 H 48.1903 0.143913 0.740139 0
M  V30 521 H 50.8413 0.999544 1.53888 0
M  V30 522 H 49.2233 -0.0196253 3.95995 0
M  V30 523 H 50.3973 2.82176 3.64298 0
M  V30 524 H 48.7123 2.42297 3.38646 0
M  V30 525 H 51.3093 0.432869 5.32945 0
M  V30 526 H 51.6523 -0.75331 4.09428 0
M  V30 527 H 52.1853 0.930288 3.86769 0
M  V30 528 H 48.9243 3.35353 5.63222 0
M  V30 529 H 48.4443 1.6463 5.76764 0
M  V30 530 H 50.1233 2.13352 6.10811 0
M  V30 531 N 50.2554 -1.46986 0.568584 0
M  V30 532 C 51.5014 -2.02741 0.0488709 0
M  V30 533 C 51.8344 -1.44077 -1.30214 0
M  V30 534 O 51.1094 -0.600552 -1.84996 0
M  V30 535 C 51.3924 -3.60086 -0.032047 0
M  V30 536 C 51.2454 -4.29162 1.34686 0
M  V30 537 C 52.5644 -4.33838 -0.739798 0
M  V30 538 H 49.6834 -0.736749 0.0192338 0
M  V30 539 H 52.3254 -1.75289 0.733065 0
M  V30 540 H 50.4754 -3.83606 -0.61473 0
M  V30 541 H 52.1474 -4.16948 1.97362 0
M  V30 542 H 50.3904 -3.89073 1.91846 0
M  V30 543 H 51.0614 -5.37826 1.24285 0
M  V30 544 H 53.5374 -4.15378 -0.244939 0
M  V30 545 H 52.4134 -5.43537 -0.765406 0
M  V30 546 H 52.6744 -4.03875 -1.79827 0
M  V30 547 N 51.7335 -0.305618 -1.54608 0
M  V30 548 C 53.1445 0.186098 -1.8577 0
M  V30 549 C 53.4955 1.53058 -1.22751 0
M  V30 550 O 52.6205 2.09888 -0.526893 0
M  V30 551 C 53.2155 0.344449 -3.37044 0
M  V30 552 C 51.7745 0.780384 -3.68221 0
M  V30 553 C 50.9215 -0.108554 -2.77087 0
M  V30 554 H 53.8725 -0.526485 -1.49712 0
M  V30 555 H 53.8935 1.17828 -3.61796 0
M  V30 556 H 53.4055 -0.634235 -3.82883 0
M  V30 557 H 51.5065 1.76945 -3.27904 0
M  V30 558 H 51.6195 0.596572 -4.75371 0
M  V30 559 H 49.9835 0.412931 -2.5133 0
M  V30 560 H 50.7665 -1.08368 -3.25747 0
M  V30 561 N 53.2116 1.57565 -0.0334293 0
M  V30 562 C 54.6276 1.56297 0.322997 0
M  V30 563 C 54.8276 1.03945 1.7262 0
M  V30 564 O 53.8836 0.688109 2.42943 0
M  V30 565 C 55.1966 3.00232 0.167664 0
M  V30 566 C 56.7446 3.12078 0.240107 0
M  V30 567 C 57.2196 4.57859 0.113513 0
M  V30 568 N 58.7106 4.62887 0.170359 0
M  V30 569 C 59.4456 5.73319 0.0962517 0
M  V30 570 N 58.9416 6.92794 -0.0291881 0
M  V30 571 N 60.7346 5.61898 0.150551 0
M  V30 572 H 52.8856 1.89923 -0.950956 0
M  V30 573 H 55.1486 0.873824 -0.367608 0
M  V30 574 H 54.8546 3.42501 -0.799102 0
M  V30 575 H 54.7286 3.654 0.936083 0
M  V30 576 H 57.1156 2.69718 1.19733 0
M  V30 577 H 57.1966 2.49623 -0.558763 0
M  V30 578 H 56.8406 5.009 -0.840314 0
M  V30 579 H 56.7706 5.18299 0.931302 0
M  V30 580 H 59.2616 3.76954 0.26728 0
M  V30 581 H 59.5746 7.7276 -0.0789252 0
M  V30 582 H 57.9196 6.94971 -0.0640299 0
M  V30 583 H 61.1106 4.67448 0.246981 0
M  V30 584 H 61.2836 6.47938 0.0893365 0
M  V30 585 N 54.6897 -0.239769 1.55765 0
M  V30 586 C 55.6377 -1.31668 1.91745 0
M  V30 587 C 56.6317 -1.49462 0.797338 0
M  V30 588 O 57.8377 -1.50852 0.982021 0
M  V30 589 H 54.2127 -0.441048 0.609082 0
M  V30 590 H 56.1837 -0.985923 2.81642 0
M  V30 591 C 54.9327 -2.66368 2.2348 0
M  V30 592 H 54.2557 -2.53478 3.09175 0
M  V30 593 H 55.6957 -3.40578 2.52553 0
M  V30 594 C 54.1547 -3.20002 1.05359 0
M  V30 595 O 54.6847 -4.00538 0.305261 0
M  V30 596 N 52.8907 -2.78126 0.842292 0
M  V30 597 H 52.4377 -2.12742 1.45253 0
M  V30 598 H 52.3957 -3.14354 0.053652 0
M  V30 599 N 56.1678 -1.49265 -0.50573 0
M  V30 600 C 57.3978 -1.61979 -1.28243 0
M  V30 601 C 57.8058 -0.288576 -1.86986 0
M  V30 602 O 57.1488 0.735408 -1.68337 0
M  V30 603 C 57.2108 -2.62632 -2.45489 0
M  V30 604 C 56.8748 -4.071 -2.07651 0
M  V30 605 C 57.8718 -4.94049 -1.61901 0
M  V30 606 C 55.5568 -4.52801 -2.17431 0
M  V30 607 C 57.5508 -6.24736 -1.26428 0
M  V30 608 C 55.2378 -5.83503 -1.8157 0
M  V30 609 C 56.2358 -6.69294 -1.36142 0
M  V30 610 O 55.9238 -7.9756 -1.00764 0
M  V30 611 H 55.6558 -0.54834 -0.395347 0
M  V30 612 H 58.2098 -1.96002 -0.614204 0
M  V30 613 H 56.4398 -2.2378 -3.15372 0
M  V30 614 H 58.1288 -2.64925 -3.07522 0
M  V30 615 H 58.8948 -4.5997 -1.53795 0
M  V30 616 H 54.7738 -3.86196 -2.51742 0
M  V30 617 H 58.3178 -6.91652 -0.908992 0
M  V30 618 H 54.2148 -6.17112 -1.89324 0
M  V30 619 H 54.9828 -8.10529 -1.13952 0
M  V30 620 N 57.6459 0.756429 -1.3826 0
M  V30 621 C 58.8939 1.51248 -1.34047 0
M  V30 622 C 59.2149 1.94875 0.0698372 0
M  V30 623 O 58.4849 1.67436 1.01696 0
M  V30 624 H 57.0649 0.561018 -0.493222 0
M  V30 625 H 59.7269 0.899347 -1.7291 0
M  V30 626 H 58.8229 2.40472 -1.98947 0
M  V30 627 N 59.124 1.23083 0.984299 0
M  V30 628 C 60.373 1.05466 1.71929 0
M  V30 629 C 60.686 -0.409211 1.91272 0
M  V30 630 O 61.892 -0.705226 2.62181 0
M  V30 631 C 60.348 1.83874 3.09384 0
M  V30 632 C 59.956 3.34566 2.97943 0
M  V30 633 C 61.7 1.74734 3.8687 0
M  V30 634 C 59.607 4.05381 4.30605 0
M  V30 635 H 58.537 0.391039 0.644674 0
M  V30 636 H 61.188 1.47013 1.09815 0
M  V30 637 H 59.57 1.35131 3.72231 0
M  V30 638 H 60.744 3.90767 2.44209 0
M  V30 639 H 59.059 3.44476 2.33934 0
M  V30 640 H 61.656 2.24957 4.85076 0
M  V30 641 H 61.999 0.709372 4.10212 0
M  V30 642 H 62.532 2.21067 3.30717 0
M  V30 643 H 59.271 5.09467 4.1246 0
M  V30 644 H 58.791 3.53967 4.84218 0
M  V30 645 H 60.47 4.11458 4.99311 0
M  V30 646 N 60.6021 -1.18246 1.0419 0
M  V30 647 C 62.0181 -1.40269 0.761366 0
M  V30 648 C 62.2181 -1.90777 -0.648578 0
M  V30 649 O 61.2741 -2.0929 -1.41258 0
M  V30 650 C 62.5871 -2.40237 1.8085 0
M  V30 651 C 64.1351 -2.53961 1.82955 0
M  V30 652 C 64.6101 -3.57194 2.86664 0
M  V30 653 N 66.1011 -3.64702 2.85563 0
M  V30 654 C 66.8361 -4.44309 3.6246 0
M  V30 655 N 66.3321 -5.27514 4.49111 0
M  V30 656 N 68.1251 -4.39084 3.50944 0
M  V30 657 H 60.2761 -0.837882 1.95175 0
M  V30 658 H 62.5391 -0.430608 0.84456 0
M  V30 659 H 62.2451 -2.10176 2.81991 0
M  V30 660 H 62.1191 -3.39601 1.64168 0
M  V30 661 H 64.5061 -2.83338 0.824855 0
M  V30 662 H 64.5871 -1.54706 2.03715 0
M  V30 663 H 64.2311 -3.28558 3.87314 0
M  V30 664 H 64.1611 -4.5613 2.6316 0
M  V30 665 H 66.6521 -3.05289 2.22727 0
M  V30 666 H 66.9651 -5.85411 5.04493 0
M  V30 667 H 65.3101 -5.2693 4.53178 0
M  V30 668 H 68.5011 -3.7313 2.82651 0
M  V30 669 H 68.6741 -5.00883 4.11121 0
M  V30 670 N 62.0802 -0.821533 -1.34494 0
M  V30 671 C 63.0102 -0.257138 -2.3208 0
M  V30 672 C 63.9912 0.625645 -1.58176 0
M  V30 673 O 65.1762 0.552811 -1.86166 0
M  V30 674 C 62.3062 0.582958 -3.42372 0
M  V30 675 C 61.2602 -0.202571 -4.2752 0
M  V30 676 C 60.5862 0.760179 -5.29269 0
M  V30 677 C 61.8862 -1.40998 -5.02908 0
M  V30 678 H 63.5802 -1.07247 -2.79532 0
M  V30 679 H 61.1262 -0.517163 -1.34393 0
M  V30 680 H 63.0792 0.987972 -4.09655 0
M  V30 681 H 61.8032 1.43133 -2.93565 0
M  V30 682 H 60.4622 -0.588936 -3.61838 0
M  V30 683 H 60.1102 1.60447 -4.76724 0
M  V30 684 H 59.8102 0.238809 -5.87115 0
M  V30 685 H 61.3342 1.16308 -5.9942 0
M  V30 686 H 62.7482 -1.07905 -5.63054 0
M  V30 687 H 61.1452 -1.86689 -5.70322 0
M  V30 688 H 62.2152 -2.1889 -4.32684 0
M  V30 689 N 63.5583 1.46682 -0.576371 0
M  V30 690 C 64.4883 2.33028 0.148397 0
M  V30 691 C 65.4693 1.44961 0.889956 0
M  V30 692 O 66.6543 1.73789 0.866662 0
M  V30 693 C 63.7843 3.27117 1.1667 0
M  V30 694 C 62.7383 4.24575 0.540386 0
M  V30 695 C 62.0643 5.08126 1.6647 0
M  V30 696 C 63.3643 5.19722 -0.518331 0
M  V30 697 H 65.0583 2.93875 -0.572509 0
M  V30 698 H 62.6043 1.41315 -0.276768 0
M  V30 699 H 64.5573 3.86374 1.68204 0
M  V30 700 H 63.2813 2.64364 1.9178 0
M  V30 701 H 61.9403 3.66571 0.0461769 0
M  V30 702 H 61.5883 4.41762 2.40531 0
M  V30 703 H 61.2883 5.74122 1.25131 0
M  V30 704 H 62.8123 5.70246 2.18293 0
M  V30 705 H 64.2263 5.73232 -0.0883058 0
M  V30 706 H 62.6233 5.94026 -0.851679 0
M  V30 707 H 63.6933 4.64037 -1.40703 0
M  V30 708 N 65.0364 0.313813 1.54444 0
M  V30 709 C 65.9464 -0.565714 2.27677 0
M  V30 710 C 66.9624 -1.13754 1.31666 0
M  V30 711 O 68.1384 -1.15959 1.64668 0
M  V30 712 C 65.2034 -1.71528 3.01296 0
M  V30 713 C 64.2644 -1.17624 4.12872 0
M  V30 714 C 63.4974 -2.27102 4.8297 0
M  V30 715 O 63.7204 -3.47256 4.52514 0
M  V30 716 O 62.6544 -1.9307 5.70094 0
M  V30 717 H 66.4804 0.0287296 3.03686 0
M  V30 718 H 64.0654 0.0798312 1.49187 0
M  V30 719 H 65.9474 -2.38476 3.4743 0
M  V30 720 H 64.6224 -2.29608 2.2817 0
M  V30 721 H 63.5294 -0.472124 3.71109 0
M  V30 722 H 64.8624 -0.640695 4.88012 0
M  V30 723 N 66.5145 -1.57545 0.0417849 0
M  V30 724 C 67.4615 -2.10977 -0.935805 0
M  V30 725 C 68.4315 -1.01486 -1.31491 0
M  V30 726 O 69.6165 -1.2898 -1.40602 0
M  V30 727 C 66.7565 -2.65169 -2.2086 0
M  V30 728 C 65.8695 -3.88714 -1.88482 0
M  V30 729 C 65.0045 -4.31254 -3.1015 0
M  V30 730 C 64.0435 -5.47524 -2.7365 0
M  V30 731 N 63.1805 -5.85162 -3.87982 0
M  V30 732 H 68.0205 -2.94218 -0.473249 0
M  V30 733 H 65.5575 -1.45415 -0.221981 0
M  V30 734 H 67.5155 -2.94685 -2.95325 0
M  V30 735 H 66.1455 -1.8474 -2.64709 0
M  V30 736 H 65.1975 -3.65849 -1.04205 0
M  V30 737 H 66.5095 -4.73245 -1.57608 0
M  V30 738 H 65.6635 -4.62273 -3.92923 0
M  V30 739 H 64.4025 -3.45516 -3.44195 0
M  V30 740 H 63.4075 -5.16187 -1.89291 0
M  V30 741 H 64.6325 -6.34971 -2.40807 0
M  V30 742 H 62.5785 -5.02377 -4.21846 0
M  V30 743 H 62.4955 -6.64362 -3.60775 0
M  V30 744 H 63.7635 -6.20791 -4.71422 0
M  V30 745 N 67.9926 0.231505 -1.5589 0
M  V30 746 C 68.9026 1.308 -1.94752 0
M  V30 747 C 69.9186 1.51826 -0.849989 0
M  V30 748 O 71.0946 1.6515 -1.15271 0
M  V30 749 C 68.1596 2.63968 -2.24771 0
M  V30 750 C 67.2206 2.51331 -3.48039 0
M  V30 751 C 66.4536 3.78148 -3.76616 0
M  V30 752 O 66.6766 4.80722 -3.07022 0
M  V30 753 O 65.6106 3.75857 -4.70123 0
M  V30 754 H 69.4366 1.0083 -2.86474 0
M  V30 755 H 67.0216 0.433547 -1.42971 0
M  V30 756 H 68.9036 3.42633 -2.45318 0
M  V30 757 H 67.5786 2.9364 -1.36225 0
M  V30 758 H 66.4856 1.709 -3.32782 0
M  V30 759 H 67.8186 2.26601 -4.36936 0
M  V30 760 N 69.4707 1.49531 0.497807 0
M  V30 761 C 70.4187 1.66926 1.61983 0
M  V30 762 C 71.4127 0.535167 1.60724 0
M  V30 763 O 72.6187 0.714896 1.65195 0
M  V30 764 H 68.9937 0.526415 0.537021 0
M  V30 765 H 70.9647 2.61098 1.44465 0
M  V30 766 C 69.7137 1.75602 3.00099 0
M  V30 767 H 69.0367 2.62244 3.01775 0
M  V30 768 H 70.4767 1.91807 3.78135 0
M  V30 769 C 68.9357 0.501543 3.33146 0
M  V30 770 O 69.4657 -0.371342 3.9998 0
M  V30 771 N 67.6717 0.363531 2.88317 0
M  V30 772 H 67.2187 1.07485 2.34104 0
M  V30 773 H 67.1767 -0.474728 3.10795 0
M  V30 774 N 70.9488 -0.749086 1.3866 0
M  V30 775 C 72.1948 -1.51056 1.35314 0
M  V30 776 C 72.5278 -1.94121 -0.0553751 0
M  V30 777 O 71.8028 -1.65763 -1.01749 0
M  V30 778 C 72.0858 -2.76003 2.31288 0
M  V30 779 C 71.9388 -2.39047 3.8102 0
M  V30 780 C 73.2578 -3.78046 2.2532 0
M  V30 781 H 70.3768 -0.547972 0.492844 0
M  V30 782 H 73.0188 -0.857628 1.69543 0
M  V30 783 H 71.1688 -3.31716 2.02229 0
M  V30 784 H 72.8408 -1.89074 4.20771 0
M  V30 785 H 71.0838 -1.71449 3.98482 0
M  V30 786 H 71.7548 -3.28462 4.4364 0
M  V30 787 H 74.2308 -3.31884 2.50983 0
M  V30 788 H 73.1068 -4.63159 2.94576 0
M  V30 789 H 73.3678 -4.23957 1.25352 0
M  V30 790 N 72.4269 -1.23603 -0.977757 0
M  V30 791 C 73.6729 -1.07129 -1.72195 0
M  V30 792 C 74.0059 0.390501 -1.90233 0
M  V30 793 O 73.2809 1.28902 -1.45653 0
M  V30 794 C 73.5639 -1.80031 -3.11867 0
M  V30 795 C 73.4169 -3.33899 -3.01383 0
M  V30 796 C 74.7359 -1.56492 -4.11337 0
M  V30 797 H 71.8549 -0.390571 -0.624999 0
M  V30 798 H 74.4969 -1.52142 -1.13811 0
M  V30 799 H 72.6469 -1.41768 -3.6171 0
M  V30 800 H 74.3189 -3.81699 -2.59043 0
M  V30 801 H 72.5619 -3.62796 -2.37827 0
M  V30 802 H 73.2329 -3.801 -4.00285 0
M  V30 803 H 75.7089 -1.89757 -3.70313 0
M  V30 804 H 74.5849 -2.09973 -5.07151 0
M  V30 805 H 74.8459 -0.500874 -4.39254 0
M  V30 806 N 73.905 1.17692 -1.04816 0
M  V30 807 C 75.154 1.87192 -0.751132 0
M  V30 808 C 75.467 1.8169 0.724441 0
M  V30 809 O 76.673 2.46625 1.13527 0
M  V30 810 C 75.129 3.35857 -1.29338 0
M  V30 811 C 74.737 3.4987 -2.79812 0
M  V30 812 C 76.481 4.10709 -1.07322 0
M  V30 813 C 74.388 4.92536 -3.27356 0
M  V30 814 H 73.318 0.701162 -0.277288 0
M  V30 815 H 75.969 1.32932 -1.26496 0
M  V30 816 H 74.351 3.89631 -0.707376 0
M  V30 817 H 75.525 3.06332 -3.44235 0
M  V30 818 H 73.84 2.88433 -3.00325 0
M  V30 819 H 76.437 5.15952 -1.4035 0
M  V30 820 H 76.78 4.16299 -0.0108001 0
M  V30 821 H 77.313 3.6313 -1.62423 0
M  V30 822 H 74.052 4.92119 -4.33012 0
M  V30 823 H 73.572 5.3676 -2.67673 0
M  V30 824 H 75.251 5.61288 -3.21815 0
M  V30 825 N 75.3831 0.828654 1.34056 0
M  V30 826 C 76.3311 0.242973 2.31327 0
M  V30 827 C 77.3251 -0.61944 1.57668 0
M  V30 828 O 78.5311 -0.51014 1.7262 0
M  V30 829 H 74.9061 0.059834 0.749616 0
M  V30 830 H 76.8771 1.07809 2.78244 0
M  V30 831 C 75.6261 -0.575733 3.429 0
M  V30 832 H 74.9491 0.0785582 3.99723 0
M  V30 833 H 76.3891 -0.951547 4.13185 0
M  V30 834 C 74.8481 -1.75044 2.87856 0
M  V30 835 O 75.3781 -2.84882 2.83205 0
M  V30 836 N 73.5841 -1.56903 2.44602 0
M  V30 837 H 73.1311 -0.675547 2.48584 0
M  V30 838 H 73.0891 -2.35652 2.08124 0
M  V30 839 N 76.8612 -1.46375 0.584142 0
M  V30 840 C 77.8092 -2.32042 -0.161047 0
M  V30 841 C 78.8032 -1.44569 -0.882966 0
M  V30 842 O 80.0092 -1.61186 -0.801191 0
M  V30 843 H 76.3842 -0.748659 -0.0708033 0
M  V30 844 H 78.3552 -2.92704 0.580269 0
M  V30 845 C 77.1042 -3.27762 -1.1605 0
M  V30 846 H 76.4272 -3.95051 -0.614419 0
M  V30 847 H 77.8672 -3.90481 -1.65228 0
M  V30 848 C 76.3262 -2.53218 -2.22221 0
M  V30 849 O 76.8562 -2.29628 -3.29597 0
M  V30 850 N 75.0622 -2.13756 -1.96868 0
M  V30 851 H 74.6092 -2.33142 -1.09557 0
M  V30 852 H 74.5672 -1.642 -2.68115 0
M  V30 853 N 78.3393 -0.321999 -1.54275 0
M  V30 854 C 79.5643 0.285791 -2.05422 0
M  V30 855 C 79.9893 1.45124 -1.19669 0
M  V30 856 O 79.3473 1.80132 -0.205441 0
M  V30 857 C 79.3953 0.69956 -3.53749 0
M  V30 858 O 78.4993 1.8021 -3.70942 0
M  V30 859 H 77.8403 0.0518962 -0.661969 0
M  V30 860 H 80.3703 -0.469954 -1.9913 0
M  V30 861 H 80.3803 0.982649 -3.9599 0
M  V30 862 H 79.0553 -0.152864 -4.15619 0
M  V30 863 H 77.6323 1.51794 -3.40607 0
M  V30 864 N 79.8174 1.5752 -0.0501392 0
M  V30 865 C 81.0474 1.96678 0.632573 0
M  V30 866 C 81.4554 0.926298 1.64974 0
M  V30 867 O 80.7984 -0.09802 1.83438 0
M  V30 868 C 80.8604 3.32068 1.37735 0
M  V30 869 C 80.5244 4.54076 0.516131 0
M  V30 870 C 81.5214 5.19445 -0.217357 0
M  V30 871 C 79.2064 5.00304 0.44736 0
M  V30 872 C 81.2004 6.29378 -1.00807 0
M  V30 873 C 78.8874 6.10114 -0.347038 0
M  V30 874 C 79.8854 6.74512 -1.07344 0
M  V30 875 O 79.5734 7.82211 -1.85477 0
M  V30 876 H 79.3054 0.652193 0.177821 0
M  V30 877 H 81.8594 2.05091 -0.112543 0
M  V30 878 H 80.0894 3.20206 2.16807 0
M  V30 879 H 81.7784 3.55981 1.95019 0
M  V30 880 H 82.5444 4.84689 -0.173688 0
M  V30 881 H 78.4234 4.49971 1.00235 0
M  V30 882 H 81.9674 6.79575 -1.57556 0
M  V30 883 H 77.8644 6.44307 -0.392349 0
M  V30 884 H 78.6324 7.98982 -1.77678 0
M  V30 885 N 81.2955 -0.223234 1.56011 0
M  V30 886 C 82.2585 -1.26014 1.9145 0
M  V30 887 C 83.2585 -1.3989 0.792937 0
M  V30 888 O 84.4485 -1.38184 1.0607 0
M  V30 889 C 81.5805 -2.63422 2.16383 0
M  V30 890 H 82.7735 -0.95796 2.84189 0
M  V30 891 H 80.3265 -0.463576 1.49267 0
M  V30 892 H 81.0615 -2.98741 1.2619 0
M  V30 893 H 80.8465 -2.54728 2.98088 0
M  V30 894 H 82.3365 -3.38249 2.44903 0
M  V30 895 N 82.7736 -1.49793 -0.48987 0
M  V30 896 C 84.0206 -1.59841 -1.24327 0
M  V30 897 C 84.3486 -0.290135 -1.92324 0
M  V30 898 O 83.6036 0.722749 -1.81865 0
M  V30 899 C 83.9026 -2.71488 -2.32441 0
M  V30 900 C 83.5686 -4.12614 -1.81826 0
M  V30 901 C 82.2306 -4.51017 -1.67742 0
M  V30 902 C 84.5826 -5.00892 -1.4407 0
M  V30 903 C 81.9106 -5.75459 -1.14297 0
M  V30 904 C 84.2626 -6.25863 -0.920742 0
M  V30 905 C 82.9266 -6.63086 -0.766383 0
M  V30 906 H 82.1966 -0.584899 -0.454944 0
M  V30 907 H 84.8436 -1.83663 -0.542215 0
M  V30 908 H 83.1486 -2.4168 -3.0838 0
M  V30 909 H 84.8456 -2.76469 -2.90458 0
M  V30 910 H 81.4356 -3.82307 -1.93751 0
M  V30 911 H 85.6196 -4.7187 -1.53794 0
M  V30 912 H 80.8756 -6.02989 -1.01068 0
M  V30 913 H 85.0496 -6.9364 -0.619448 0
M  V30 914 H 82.6766 -7.59393 -0.350083 0
M  V30 915 N 84.2517 0.741722 -1.39055 0
M  V30 916 C 85.4977 1.50336 -1.36113 0
M  V30 917 C 85.8307 1.94148 0.0450796 0
M  V30 918 O 85.1057 1.66301 1.00868 0
M  V30 919 C 85.3887 2.74773 -2.32749 0
M  V30 920 C 85.2417 2.37023 -3.82283 0
M  V30 921 C 86.5607 3.76846 -2.27322 0
M  V30 922 H 83.6797 0.545351 -0.495743 0
M  V30 923 H 86.3217 0.848624 -1.69995 0
M  V30 924 H 84.4717 3.30639 -2.03986 0
M  V30 925 H 86.1437 1.8684 -4.21768 0
M  V30 926 H 84.3867 1.69334 -3.99385 0
M  V30 927 H 85.0577 3.26104 -4.45376 0
M  V30 928 H 87.5337 3.30548 -2.5274 0
M  V30 929 H 86.4097 4.6159 -2.97028 0
M  V30 930 H 86.6707 4.23286 -1.27599 0
M  V30 931 N 85.7298 1.2412 0.971189 0
M  V30 932 C 86.9778 1.07668 1.71032 0
M  V30 933 C 87.2988 -0.385797 1.91146 0
M  V30 934 O 86.5688 -1.27569 1.4867 0
M  V30 935 H 85.1488 0.395429 0.633755 0
M  V30 936 H 87.8108 1.55984 1.16855 0
M  V30 937 H 86.9068 1.57195 2.69622 0
M  V30 938 N 87.2079 -1.17134 1.05439 0
M  V30 939 C 88.1409 -2.2012 0.601855 0
M  V30 940 C 89.1189 -1.58314 -0.370854 0
M  V30 941 O 90.3029 -1.8638 -0.281882 0
M  V30 942 C 87.4299 -3.38491 -0.118868 0
M  V30 943 C 86.4759 -4.18752 0.809242 0
M  V30 944 S 87.3089 -4.83602 2.29977 0
M  V30 945 C 88.4649 -6.0536 1.59029 0
M  V30 946 H 88.6979 -2.58165 1.47438 0
M  V30 947 H 86.2309 -1.27788 0.866573 0
M  V30 948 H 88.1889 -4.07084 -0.528495 0
M  V30 949 H 86.8499 -2.98829 -0.967465 0
M  V30 950 H 86.0429 -5.03373 0.251379 0
M  V30 951 H 85.6449 -3.5561 1.15835 0
M  V30 952 H 87.9369 -6.71615 0.891017 0
M  V30 953 H 88.8799 -6.65679 2.41407 0
M  V30 954 H 89.2879 -5.54138 1.07663 0
M  V30 955 N 88.686 -0.835752 -1.33615 0
M  V30 956 C 89.934 -0.429109 -1.97492 0
M  V30 957 C 90.255 1.01433 -1.66543 0
M  V30 958 O 89.525 1.70611 -0.962744 0
M  V30 959 H 88.105 -0.155686 -0.730596 0
M  V30 960 H 90.767 -1.06802 -1.63031 0
M  V30 961 H 89.863 -0.55861 -3.0706 0
M  V30 962 N 90.1641 1.46063 -0.591896 0
M  V30 963 C 91.3891 2.07226 -0.0850314 0
M  V30 964 C 91.8141 1.43625 1.21463 0
M  V30 965 O 91.1721 0.523305 1.73583 0
M  V30 966 C 91.2201 3.60554 0.0576567 0
M  V30 967 O 90.3241 3.97128 1.11188 0
M  V30 968 H 89.6651 0.660615 -0.0669568 0
M  V30 969 H 92.1951 1.8756 -0.81745 0
M  V30 970 H 92.2051 4.07165 0.2609 0
M  V30 971 H 90.8801 4.06235 -0.891416 0
M  V30 972 H 89.4571 3.62213 0.886356 0
M  V30 973 N 91.6422 0.330177 1.54103 0
M  V30 974 C 92.8702 -0.272179 2.05102 0
M  V30 975 C 93.2852 -1.45267 1.20595 0
M  V30 976 O 92.6422 -1.8094 0.238144 0
M  V30 977 C 92.6932 -0.70023 3.54653 0
M  V30 978 O 92.4142 0.433301 4.35952 0
M  V30 979 C 93.9152 -1.3647 4.21771 0
M  V30 980 H 91.1352 -0.0549159 0.668749 0
M  V30 981 H 93.6792 0.478285 1.98828 0
M  V30 982 H 91.8342 -1.40066 3.61193 0
M  V30 983 H 92.2482 0.0947539 5.24414 0
M  V30 984 H 93.7222 -1.61509 5.27843 0
M  V30 985 H 94.1992 -2.31409 3.73292 0
M  V30 986 H 94.8052 -0.706675 4.19388 0
M  V30 987 N 93.1203 -1.57491 0.0584922 0
M  V30 988 C 94.3973 -1.84346 -0.653918 0
M  V30 989 C 94.7773 -0.948355 -1.88599 0
M  V30 990 O 94.1253 -0.0112403 -2.28497 0
M  V30 991 C 94.3353 -3.34239 -1.00425 0
M  V30 992 C 95.6833 -4.01431 -1.38342 0
M  V30 993 O 96.7073 -3.38907 -1.09637 0
M  V30 994 O 95.5663 -5.11683 -1.91943 0
M  V30 995 H 92.6603 -0.761112 -0.323478 0
M  V30 996 H 95.2063 -1.6947 0.0884125 0
M  V30 997 H 93.9783 -3.91089 -0.128625 0
M  V30 998 H 93.6013 -3.54329 -1.80378 0
M  V30 999 N 94.5984 0.214957 -1.56127 0
M  V30 1000 C 95.8474 0.936451 -1.78643 0
M  V30 1001 C 96.1604 1.85237 -0.628229 0
M  V30 1002 O 97.3664 2.613 -0.737186 0
M  V30 1003 C 95.8224 1.7154 -3.16389 0
M  V30 1004 C 95.4304 0.845299 -4.39953 0
M  V30 1005 C 97.1744 2.42772 -3.48227 0
M  V30 1006 C 95.0814 1.62198 -5.68723 0
M  V30 1007 H 94.0114 0.353401 -0.666051 0
M  V30 1008 H 96.6624 0.190169 -1.82512 0
M  V30 1009 H 95.0444 2.50484 -3.06715 0
M  V30 1010 H 96.2184 0.0959353 -4.607 0
M  V30 1011 H 94.5334 0.244789 -4.1568 0
M  V30 1012 H 97.1304 3.01394 -4.41663 0
M  V30 1013 H 97.4734 3.15984 -2.71035 0
M  V30 1014 H 98.0064 1.70813 -3.5926 0
M  V30 1015 H 94.7454 0.933011 -6.48826 0
M  V30 1016 H 94.2654 2.34579 -5.52026 0
M  V30 1017 H 95.9444 2.18095 -6.09133 0
M  V30 1018 N 96.0765 1.50051 0.48192 0
M  V30 1019 C 97.3045 1.64237 1.25832 0
M  V30 1020 C 97.7195 0.321336 1.86045 0
M  V30 1021 O 97.0765 -0.695478 1.68729 0
M  V30 1022 C 97.1275 2.72548 2.37487 0
M  V30 1023 O 96.8485 3.99529 1.79745 0
M  V30 1024 C 98.3495 2.9761 3.28547 0
M  V30 1025 H 95.5695 0.55237 0.380957 0
M  V30 1026 H 98.1135 1.96207 0.576467 0
M  V30 1027 H 96.2685 2.43303 3.01467 0
M  V30 1028 H 96.6825 4.59342 2.5319 0
M  V30 1029 H 98.1565 3.77084 4.03127 0
M  V30 1030 H 98.6335 2.0826 3.86684 0
M  V30 1031 H 99.2395 3.28345 2.70314 0
M  V30 1032 N 97.5546 -0.734337 1.39446 0
M  V30 1033 C 98.7796 -1.52866 1.40167 0
M  V30 1034 C 99.2046 -1.881 -0.00171513 0
M  V30 1035 O 98.5626 -1.51957 -0.988879 0
M  V30 1036 C 98.6106 -2.79235 2.28167 0
M  V30 1037 O 97.7146 -3.75185 1.71201 0
M  V30 1038 H 97.0556 -0.461618 0.477289 0
M  V30 1039 H 99.5856 -0.905949 1.8345 0
M  V30 1040 H 99.5956 -3.27963 2.42702 0
M  V30 1041 H 98.2706 -2.52923 3.30156 0
M  V30 1042 H 96.8476 -3.33958 1.65912 0
M  V30 1043 N 99.0327 -1.24633 -0.964593 0
M  V30 1044 C 100.444 -1.08045 -1.5226 0
M  V30 1045 C 100.795 0.347116 -1.93105 0
M  V30 1046 O 99.9197 1.23588 -1.77637 0
M  V30 1047 C 100.515 -1.95514 -2.76695 0
M  V30 1048 C 99.0737 -1.8314 -3.28841 0
M  V30 1049 C 98.2207 -1.90262 -2.01732 0
M  V30 1050 H 101.172 -1.38064 -0.782553 0
M  V30 1051 H 101.193 -1.48925 -3.50145 0
M  V30 1052 H 100.705 -2.99407 -2.46936 0
M  V30 1053 H 98.8057 -0.82092 -3.63444 0
M  V30 1054 H 98.9187 -2.67406 -3.97531 0
M  V30 1055 H 97.2827 -1.34027 -2.16584 0
M  V30 1056 H 98.0657 -2.9574 -1.74334 0
M  V30 1057 N 100.511 1.16574 -1.06058 0
M  V30 1058 C 101.757 1.87324 -0.777022 0
M  V30 1059 C 102.09 1.81351 0.694645 0
M  V30 1060 O 101.365 1.22753 1.50871 0
M  V30 1061 C 101.648 3.36991 -1.26922 0
M  V30 1062 C 101.501 3.51667 -2.80447 0
M  V30 1063 C 102.82 4.3131 -0.87521 0
M  V30 1064 H 99.9388 0.680191 -0.28374 0
M  V30 1065 H 102.581 1.37036 -1.3161 0
M  V30 1066 H 100.731 3.79949 -0.81063 0
M  V30 1067 H 102.403 3.17664 -3.34495 0
M  V30 1068 H 100.646 2.93656 -3.19294 0
M  V30 1069 H 101.317 4.56766 -3.0995 0
M  V30 1070 H 103.793 3.9624 -1.27014 0
M  V30 1071 H 102.669 5.34545 -1.2471 0
M  V30 1072 H 102.93 4.41552 0.220071 0
M  V30 1073 N 101.989 0.842826 1.3317 0
M  V30 1074 C 102.919 0.294028 2.31641 0
M  V30 1075 C 103.9 -0.600401 1.59151 0
M  V30 1076 O 105.085 -0.523124 1.87022 0
M  V30 1077 C 102.215 -0.528416 3.43257 0
M  V30 1078 C 101.169 0.27056 4.27144 0
M  V30 1079 C 100.495 -0.675881 5.30411 0
M  V30 1080 C 101.795 1.48981 5.00602 0
M  V30 1081 H 103.489 1.11681 2.77791 0
M  V30 1082 H 101.035 0.538478 1.33553 0
M  V30 1083 H 102.988 -0.922674 4.11175 0
M  V30 1084 H 101.712 -1.38445 2.95805 0
M  V30 1085 H 100.371 0.646427 3.60856 0
M  V30 1086 H 100.019 -1.52842 4.79216 0
M  V30 1087 H 99.7189 -0.145374 5.8742 0
M  V30 1088 H 101.243 -1.06757 6.01195 0
M  V30 1089 H 102.657 1.16849 5.61266 0
M  V30 1090 H 101.054 1.95739 5.6728 0
M  V30 1091 H 102.124 2.25746 4.29147 0
M  V30 1092 N 103.467 -1.45747 0.599634 0
M  V30 1093 C 104.697 -2.06369 0.0977132 0
M  V30 1094 C 105.105 -1.44624 -1.21985 0
M  V30 1095 O 104.448 -0.551831 -1.75216 0
M  V30 1096 C 104.51 -3.59284 -0.124673 0
M  V30 1097 C 104.174 -4.43318 1.10987 0
M  V30 1098 C 105.171 -4.78796 2.02609 0
M  V30 1099 C 102.856 -4.84194 1.33647 0
M  V30 1100 C 104.85 -5.53997 3.15224 0
M  V30 1101 C 102.537 -5.5915 2.46565 0
M  V30 1102 C 103.535 -5.93968 3.37182 0
M  V30 1103 O 103.223 -6.67405 4.48136 0
M  V30 1104 H 102.955 -0.673122 0.0623153 0
M  V30 1105 H 105.509 -1.88104 0.824981 0
M  V30 1106 H 103.739 -3.75919 -0.906745 0
M  V30 1107 H 105.428 -4.01775 -0.577201 0
M  V30 1108 H 106.194 -4.47781 1.86325 0
M  V30 1109 H 102.073 -4.56534 0.64016 0
M  V30 1110 H 105.617 -5.81091 3.85978 0
M  V30 1111 H 101.514 -5.89579 2.62805 0
M  V30 1112 H 102.282 -6.85847 4.46717 0
M  V30 1113 N 104.945 -0.338344 -1.53925 0
M  V30 1114 C 106.222 0.314774 -1.93051 0
M  V30 1115 C 106.602 1.68669 -1.26941 0
M  V30 1116 O 105.95 2.24636 -0.418445 0
M  V30 1117 C 106.16 0.392249 -3.46789 0
M  V30 1118 C 107.508 0.645554 -4.19664 0
M  V30 1119 O 108.532 0.474575 -3.53024 0
M  V30 1120 O 107.391 0.976408 -5.37707 0
M  V30 1121 H 104.485 0.182598 -0.80659 0
M  V30 1122 H 107.031 -0.389141 -1.65178 0
M  V30 1123 H 105.803 -0.570702 -3.87116 0
M  V30 1124 H 105.426 1.14316 -3.80812 0
M  V30 1125 N 106.423 1.57458 -0.0668435 0
M  V30 1126 C 107.671 1.92919 0.602214 0
M  V30 1127 C 107.992 0.947215 1.70449 0
M  V30 1128 O 107.262 -0.00544117 1.95899 0
M  V30 1129 H 105.842 0.71217 0.22544 0
M  V30 1130 H 108.504 1.94508 -0.123535 0
M  V30 1131 H 107.6 2.94589 1.03073 0
M  V30 1132 N 107.901 -0.206675 1.56239 0
M  V30 1133 C 109.147 -0.930218 1.80208 0
M  V30 1134 C 109.48 -1.83387 0.638981 0
M  V30 1135 O 108.755 -1.91119 -0.361066 0
M  V30 1136 C 109.038 -1.75641 3.1436 0
M  V30 1137 C 108.891 -0.878257 4.41142 0
M  V30 1138 C 110.21 -2.73129 3.45092 0
M  V30 1139 H 107.329 -0.336742 0.655571 0
M  V30 1140 H 109.971 -0.198222 1.88963 0
M  V30 1141 H 108.121 -2.38048 3.07027 0
M  V30 1142 H 109.793 -0.269787 4.6051 0
M  V30 1143 H 108.036 -0.184385 4.33408 0
M  V30 1144 H 108.707 -1.49106 5.3148 0
M  V30 1145 H 111.183 -2.20856 3.52649 0
M  V30 1146 H 110.059 -3.28028 4.40101 0
M  V30 1147 H 110.32 -3.51606 2.68003 0
M  V30 1148 N 109.379 -1.50304 -0.473955 0
M  V30 1149 C 110.327 -1.69482 -1.59307 0
M  V30 1150 C 111.321 -0.560669 -1.59853 0
M  V30 1151 O 112.527 -0.741087 -1.64036 0
M  V30 1152 H 108.902 -0.534892 -0.528578 0
M  V30 1153 H 110.873 -2.63364 -1.40293 0
M  V30 1154 C 109.622 -1.80354 -2.97267 0
M  V30 1155 H 108.945 -2.67012 -2.97564 0
M  V30 1156 H 110.385 -1.97798 -3.75036 0
M  V30 1157 C 108.844 -0.55448 -3.32306 0
M  V30 1158 O 109.374 0.307661 -4.0052 0
M  V30 1159 N 107.58 -0.409354 -2.87702 0
M  V30 1160 H 107.127 -1.11196 -2.32364 0
M  V30 1161 H 107.085 0.425223 -3.11511 0
M  V30 1162 N 110.857 0.726932 -1.39834 0
M  V30 1163 C 111.767 1.87131 -1.41489 0
M  V30 1164 C 112.783 1.71239 -0.308757 0
M  V30 1165 O 113.959 1.93701 -0.551529 0
M  V30 1166 C 111.024 3.22811 -1.26468 0
M  V30 1167 C 110.085 3.51039 -2.47124 0
M  V30 1168 C 109.318 4.80245 -2.3281 0
M  V30 1169 O 109.541 5.54537 -1.33585 0
M  V30 1170 O 108.475 5.08554 -3.21957 0
M  V30 1171 H 112.301 1.8869 -2.3797 0
M  V30 1172 H 109.886 0.875837 -1.21035 0
M  V30 1173 H 111.768 4.03877 -1.20255 0
M  V30 1174 H 110.443 3.22005 -0.330862 0
M  V30 1175 H 109.35 2.70027 -2.58914 0
M  V30 1176 H 110.683 3.56632 -3.39227 0
M  V30 1177 N 112.336 1.25143 0.95797 0
M  V30 1178 C 113.283 1.05235 2.05412 0
M  V30 1179 C 114.253 -0.0374561 1.66058 0
M  V30 1180 O 115.438 0.119073 1.90428 0
M  V30 1181 C 112.578 0.673589 3.38462 0
M  V30 1182 C 111.691 1.8379 3.90954 0
M  V30 1183 C 110.826 1.40381 5.12315 0
M  V30 1184 C 109.865 2.53746 5.57027 0
M  V30 1185 N 109.002 2.11136 6.69601 0
M  V30 1186 H 113.842 1.99048 2.21774 0
M  V30 1187 H 111.379 0.991277 1.08683 0
M  V30 1188 H 113.337 0.434964 4.14926 0
M  V30 1189 H 111.967 -0.227554 3.21997 0
M  V30 1190 H 111.019 2.18992 3.11041 0
M  V30 1191 H 112.331 2.68937 4.20089 0
M  V30 1192 H 111.485 1.12464 5.96185 0
M  V30 1193 H 110.224 0.523015 4.84887 0
M  V30 1194 H 109.229 2.82412 4.71724 0
M  V30 1195 H 110.454 3.42398 5.86464 0
M  V30 1196 H 108.4 1.25468 6.4389 0
M  V30 1197 H 108.317 2.89832 6.98236 0
M  V30 1198 H 109.585 1.86385 7.56889 0
M  V30 1199 N 113.814 -1.1601 1.06675 0
M  V30 1200 C 115.062 -1.86264 0.784229 0
M  V30 1201 C 115.383 -1.82328 -0.691488 0
M  V30 1202 O 114.653 -1.25947 -1.50047 0
M  V30 1203 H 113.233 -0.689621 0.28711 0
M  V30 1204 H 115.895 -1.40664 1.34906 0
M  V30 1205 H 114.991 -2.91595 1.11259 0
M  V30 1206 N 115.292 -0.849877 -1.32721 0
M  V30 1207 C 116.222 -0.306308 -2.31482 0
M  V30 1208 C 117.203 0.591952 -1.59468 0
M  V30 1209 O 118.388 0.513199 -1.87296 0
M  V30 1210 C 115.518 0.510204 -3.43532 0
M  V30 1211 C 114.472 -0.293209 -4.26994 0
M  V30 1212 C 113.798 0.647743 -5.30762 0
M  V30 1213 C 115.098 -1.51634 -4.99804 0
M  V30 1214 H 116.792 -1.13153 -2.77195 0
M  V30 1215 H 114.338 -0.545553 -1.33266 0
M  V30 1216 H 116.291 0.900856 -4.11658 0
M  V30 1217 H 115.015 1.36874 -2.96535 0
M  V30 1218 H 113.674 -0.665555 -3.60508 0
M  V30 1219 H 113.322 1.50299 -4.8002 0
M  V30 1220 H 113.022 0.11422 -5.87489 0
M  V30 1221 H 114.546 1.03567 -6.01753 0
M  V30 1222 H 115.96 -1.19824 -5.60638 0
M  V30 1223 H 114.357 -1.98745 -5.66234 0
M  V30 1224 H 115.427 -2.28018 -4.27943 0
M  V30 1225 N 116.77 1.45427 -0.607355 0
M  V30 1226 C 117.703 2.27635 0.160482 0
M  V30 1227 C 118.681 1.37122 0.873857 0
M  V30 1228 O 119.865 1.66551 0.882775 0
M  V30 1229 C 116.992 3.15486 1.23231 0
M  V30 1230 C 116.038 4.21939 0.622097 0
M  V30 1231 S 116.871 5.32459 -0.569852 0
M  V30 1232 C 118.027 6.23879 0.502577 0
M  V30 1233 H 118.26 2.9241 -0.536983 0
M  V30 1234 H 115.793 1.49265 -0.394868 0
M  V30 1235 H 117.751 3.66659 1.84585 0
M  V30 1236 H 116.412 2.49977 1.90185 0
M  V30 1237 H 115.605 4.8333 1.42856 0
M  V30 1238 H 115.207 3.73906 0.0837063 0
M  V30 1239 H 117.499 6.63261 1.38171 0
M  V30 1240 H 118.442 7.0806 -0.0751759 0
M  V30 1241 H 118.85 5.58545 0.8178 0
M  V30 1242 N 118.248 0.346503 1.53744 0
M  V30 1243 C 119.496 -0.248612 2.00565 0
M  V30 1244 C 119.817 -1.5083 1.23593 0
M  V30 1245 O 119.087 -1.92858 0.343912 0
M  V30 1246 H 117.667 -0.0948564 0.740953 0
M  V30 1247 H 120.329 0.468341 1.89189 0
M  V30 1248 H 119.425 -0.488994 3.08245 0
M  V30 1249 N 119.726 -1.57421 0.075193 0
M  V30 1250 C 120.689 -2.11791 -0.876203 0
M  V30 1251 C 121.689 -1.04268 -1.22412 0
M  V30 1252 O 122.879 -1.30242 -1.15684 0
M  V30 1253 C 120.011 -2.62207 -2.17854 0
M  V30 1254 H 121.204 -2.9716 -0.40444 0
M  V30 1255 H 118.757 -1.55333 -0.173557 0
M  V30 1256 H 119.492 -1.803 -2.6956 0
M  V30 1257 H 119.277 -3.40802 -1.93897 0
M  V30 1258 H 120.767 -3.04335 -2.85955 0
M  V30 1259 N 121.204 0.198386 -1.56346 0
M  V30 1260 C 122.137 1.27381 -1.89339 0
M  V30 1261 C 123.115 1.44106 -0.753134 0
M  V30 1262 O 124.299 1.59549 -1.00381 0
M  V30 1263 C 121.426 2.6409 -2.12071 0
M  V30 1264 C 120.472 2.64253 -3.34772 0
M  V30 1265 S 121.305 2.16013 -4.89999 0
M  V30 1266 C 122.461 3.54553 -5.15794 0
M  V30 1267 H 122.694 0.992058 -2.8026 0
M  V30 1268 H 120.227 0.401726 -1.49082 0
M  V30 1269 H 122.185 3.42786 -2.2585 0
M  V30 1270 H 120.846 2.89478 -1.21906 0
M  V30 1271 H 120.039 3.64768 -3.47794 0
M  V30 1272 H 119.641 1.93637 -3.1997 0
M  V30 1273 H 121.933 4.50396 -5.06112 0
M  V30 1274 H 122.876 3.46428 -6.1757 0
M  V30 1275 H 123.284 3.49313 -4.43442 0
M  V30 1276 N 122.682 1.50554 0.465978 0
M  V30 1277 C 123.612 1.72722 1.57128 0
M  V30 1278 C 124.593 0.576294 1.6004 0
M  V30 1279 O 125.778 0.81598 1.76225 0
M  V30 1280 C 122.908 1.82605 2.95419 0
M  V30 1281 C 121.862 2.97835 3.07373 0
M  V30 1282 C 121.188 2.92867 4.47363 0
M  V30 1283 C 122.488 4.38265 2.84114 0
M  V30 1284 H 124.182 2.65267 1.38829 0
M  V30 1285 H 121.728 1.2765 0.666441 0
M  V30 1286 H 123.681 1.96698 3.72677 0
M  V30 1287 H 122.405 0.866858 3.14886 0
M  V30 1288 H 121.064 2.83401 2.3255 0
M  V30 1289 H 120.712 1.94783 4.63755 0
M  V30 1290 H 120.412 3.70227 4.56296 0
M  V30 1291 H 121.936 3.09015 5.26633 0
M  V30 1292 H 123.35 4.53198 3.51118 0
M  V30 1293 H 121.747 5.17115 3.04487 0
M  V30 1294 H 122.817 4.50281 1.7993 0
M  V30 1295 N 124.16 -0.719506 1.40217 0
M  V30 1296 C 125.39 -1.50646 1.41384 0
M  V30 1297 C 125.798 -1.89197 0.0107743 0
M  V30 1298 O 125.141 -1.55709 -0.974708 0
M  V30 1299 C 125.203 -2.81405 2.23722 0
M  V30 1300 C 124.867 -2.65199 3.72181 0
M  V30 1301 C 125.864 -2.32717 4.64907 0
M  V30 1302 C 123.549 -2.81586 4.1595 0
M  V30 1303 C 125.543 -2.16827 5.99387 0
M  V30 1304 C 123.23 -2.65313 5.50502 0
M  V30 1305 C 124.228 -2.32981 6.42035 0
M  V30 1306 O 123.916 -2.16827 7.74107 0
M  V30 1307 H 123.648 -0.471606 0.484318 0
M  V30 1308 H 126.202 -0.895456 1.84853 0
M  V30 1309 H 124.432 -3.44823 1.75026 0
M  V30 1310 H 126.121 -3.43102 2.16878 0
M  V30 1311 H 126.887 -2.19694 4.32388 0
M  V30 1312 H 122.766 -3.0574 3.45027 0
M  V30 1313 H 126.31 -1.91513 6.70797 0
M  V30 1314 H 122.207 -2.7792 5.82607 0
M  V30 1315 H 122.975 -2.31778 7.84998 0
M  V30 1316 N 125.638 -1.25649 -0.95132 0
M  V30 1317 C 126.868 -1.13179 -1.72841 0
M  V30 1318 C 127.276 0.316827 -1.86528 0
M  V30 1319 O 126.619 1.22948 -1.3649 0
M  V30 1320 C 126.681 -1.71644 -3.15878 0
M  V30 1321 C 126.345 -3.20667 -3.25609 0
M  V30 1322 C 127.342 -4.17616 -3.09666 0
M  V30 1323 C 125.027 -3.6094 -3.49324 0
M  V30 1324 C 127.021 -5.52817 -3.17289 0
M  V30 1325 C 124.708 -4.96278 -3.56584 0
M  V30 1326 C 125.706 -5.92025 -3.40581 0
M  V30 1327 O 125.394 -7.24899 -3.47528 0
M  V30 1328 H 125.126 -0.395389 -0.54831 0
M  V30 1329 H 127.68 -1.66566 -1.20187 0
M  V30 1330 H 125.91 -1.12707 -3.69911 0
M  V30 1331 H 127.599 -1.54225 -3.75459 0
M  V30 1332 H 128.365 -3.87842 -2.91211 0
M  V30 1333 H 124.244 -2.86907 -3.6084 0
M  V30 1334 H 127.788 -6.2753 -3.04716 0
M  V30 1335 H 123.685 -5.25716 -3.74556 0
M  V30 1336 H 124.453 -7.33039 -3.64138 0
M  V30 1337 N 127.117 1.15442 -1.07289 0
M  V30 1338 C 128.08 2.18358 -0.696591 0
M  V30 1339 C 129.08 1.58637 0.262837 0
M  V30 1340 O 130.27 1.74145 0.0438809 0
M  V30 1341 C 127.402 3.4089 -0.0266151 0
M  V30 1342 H 128.595 2.53162 -1.60776 0
M  V30 1343 H 126.148 1.29893 -0.869342 0
M  V30 1344 H 126.883 3.11653 0.896822 0
M  V30 1345 H 126.668 3.85495 -0.716657 0
M  V30 1346 H 128.158 4.17009 0.222028 0
M  V30 1347 N 128.595 0.856903 1.32268 0
M  V30 1348 C 129.823 0.475439 2.01363 0
M  V30 1349 C 130.238 -0.928486 1.64392 0
M  V30 1350 O 129.595 -1.60624 0.866387 0
M  V30 1351 C 129.646 0.607545 3.56358 0
M  V30 1352 O 129.367 1.95617 3.92002 0
M  V30 1353 C 130.868 0.225382 4.42727 0
M  V30 1354 H 128.088 0.186636 0.644521 0
M  V30 1355 H 130.632 1.15446 1.68797 0
M  V30 1356 H 128.787 -0.0237719 3.87393 0
M  V30 1357 H 129.201 1.95455 4.86721 0
M  V30 1358 H 130.675 0.368813 5.50767 0
M  V30 1359 H 131.152 -0.834369 4.31202 0
M  V30 1360 H 131.758 0.831864 4.17085 0
M  V30 1361 N 130.073 -1.45103 0.615059 0
M  V30 1362 C 131.32 -2.02183 0.113179 0
M  V30 1363 C 131.648 -1.48249 -1.25906 0
M  V30 1364 O 130.903 -0.650265 -1.84581 0
M  V30 1365 C 131.202 -3.57386 0.0318797 0
M  V30 1366 C 130.868 -4.30505 1.34077 0
M  V30 1367 C 129.53 -4.50197 1.69929 0
M  V30 1368 C 131.882 -4.72238 2.20546 0
M  V30 1369 C 129.21 -5.08881 2.91988 0
M  V30 1370 C 131.562 -5.32272 3.41861 0
M  V30 1371 C 130.226 -5.50187 3.77956 0
M  V30 1372 H 129.496 -0.739842 0.0414151 0
M  V30 1373 H 132.143 -1.74073 0.798168 0
M  V30 1374 H 130.448 -3.84817 -0.736409 0
M  V30 1375 H 132.145 -3.99264 -0.372712 0
M  V30 1376 H 128.735 -4.15496 1.05173 0
M  V30 1377 H 132.919 -4.56751 1.94146 0
M  V30 1378 H 128.175 -5.20939 3.2005 0
M  V30 1379 H 132.349 -5.63563 4.09109 0
M  V30 1380 H 129.976 -5.95427 4.72622 0
M  V30 1381 N 131.551 -0.354651 -1.53558 0
M  V30 1382 C 132.514 0.484566 -2.24019 0
M  V30 1383 C 133.514 1.01861 -1.24422 0
M  V30 1384 O 134.704 0.906097 -1.4878 0
M  V30 1385 C 131.836 1.67615 -2.96847 0
M  V30 1386 H 133.029 -0.131843 -2.9961 0
M  V30 1387 H 130.582 -0.106165 -1.55939 0
M  V30 1388 H 131.317 2.33095 -2.25471 0
M  V30 1389 H 131.102 1.30029 -3.69912 0
M  V30 1390 H 132.592 2.27114 -3.50441 0
M  V30 1391 N 133.029 1.57378 -0.0835403 0
M  V30 1392 C 134.257 1.98263 0.59157 0
M  V30 1393 C 134.672 0.962302 1.62435 0
M  V30 1394 O 134.029 -0.049581 1.82433 0
M  V30 1395 C 134.08 3.39214 1.24965 0
M  V30 1396 O 133.801 4.37339 0.258186 0
M  V30 1397 C 135.302 3.95038 2.01147 0
M  V30 1398 H 132.522 0.651773 0.159477 0
M  V30 1399 H 135.066 2.03878 -0.159415 0
M  V30 1400 H 133.221 3.34649 1.95164 0
M  V30 1401 H 133.635 5.19371 0.731734 0
M  V30 1402 H 135.109 4.95848 2.42567 0
M  V30 1403 H 135.586 3.32222 2.87272 0
M  V30 1404 H 136.192 4.0304 1.35789 0
M  V30 1405 N 134.507 -0.190092 1.56449 0
M  V30 1406 C 135.737 -0.92443 1.84764 0
M  V30 1407 C 136.145 -1.77146 0.664529 0
M  V30 1408 O 135.488 -1.79812 -0.375957 0
M  V30 1409 C 135.55 -1.86651 3.07248 0
M  V30 1410 C 135.214 -1.20094 4.40938 0
M  V30 1411 C 136.211 -0.575445 5.16706 0
M  V30 1412 C 133.896 -1.2033 4.87674 0
M  V30 1413 C 135.89 0.0388111 6.37388 0
M  V30 1414 C 133.577 -0.585214 6.08291 0
M  V30 1415 C 134.575 0.0347578 6.82991 0
M  V30 1416 O 134.263 0.643147 8.01323 0
M  V30 1417 H 133.995 -0.274974 0.617548 0
M  V30 1418 H 136.549 -0.200788 2.04416 0
M  V30 1419 H 134.779 -2.62998 2.83494 0
M  V30 1420 H 136.468 -2.46907 3.22167 0
M  V30 1421 H 137.234 -0.565728 4.81689 0
M  V30 1422 H 133.113 -1.67526 4.29484 0
M  V30 1423 H 136.657 0.523329 6.95634 0
M  V30 1424 H 132.554 -0.592451 6.42775 0
M  V30 1425 H 133.322 0.540545 8.16713 0
M  V30 1426 N 135.985 -1.50799 -0.457987 0
M  V30 1427 C 136.948 -1.7005 -1.53674 0
M  V30 1428 C 137.948 -0.570881 -1.50325 0
M  V30 1429 O 139.138 -0.838126 -1.52712 0
M  V30 1430 C 136.27 -1.73788 -2.93276 0
M  V30 1431 H 137.463 -2.66306 -1.37917 0
M  V30 1432 H 135.016 -1.40477 -0.685271 0
M  V30 1433 H 135.751 -0.792717 -3.14462 0
M  V30 1434 H 135.536 -2.55864 -2.97113 0
M  V30 1435 H 137.026 -1.90591 -3.71571 0
M  V30 1436 N 137.463 0.71206 -1.40597 0
M  V30 1437 C 138.74 1.46536 -1.29563 0
M  V30 1438 C 139.12 2.10931 0.0844217 0
M  V30 1439 O 138.468 2.00418 1.0975 0
M  V30 1440 C 138.678 2.49821 -2.43701 0
M  V30 1441 C 140.026 3.15551 -2.841 0
M  V30 1442 O 141.05 2.60142 -2.4332 0
M  V30 1443 O 139.909 4.15867 -3.54566 0
M  V30 1444 H 137.003 0.651801 -0.509004 0
M  V30 1445 H 139.549 0.743935 -1.52524 0
M  V30 1446 H 138.321 2.00778 -3.35863 0
M  V30 1447 H 137.944 3.29495 -2.22528 0
M  V30 1448 N 138.941 1.26152 0.944643 0
M  V30 1449 C 139.851 1.09176 2.07648 0
M  V30 1450 C 140.867 0.0261935 1.7398 0
M  V30 1451 O 142.043 0.229208 2.00091 0
M  V30 1452 C 139.108 0.722915 3.39079 0
M  V30 1453 C 138.169 1.86752 3.86552 0
M  V30 1454 C 137.402 1.51617 5.11711 0
M  V30 1455 O 137.625 0.416331 5.68879 0
M  V30 1456 O 136.559 2.34975 5.54139 0
M  V30 1457 H 140.385 2.0412 2.24875 0
M  V30 1458 H 137.97 1.05182 1.061 0
M  V30 1459 H 139.852 0.529787 4.18056 0
M  V30 1460 H 138.527 -0.197159 3.23099 0
M  V30 1461 H 137.434 2.11558 3.08535 0
M  V30 1462 H 138.767 2.76719 4.07047 0
M  V30 1463 N 140.419 -1.14872 1.07899 0
M  V30 1464 C 141.83 -1.67367 0.827363 0
M  V30 1465 C 142.181 -1.85236 -0.646693 0
M  V30 1466 O 141.306 -1.55974 -1.50004 0
M  V30 1467 C 141.901 -3.04016 1.49532 0
M  V30 1468 C 140.46 -3.53566 1.29106 0
M  V30 1469 C 139.607 -2.29161 1.56143 0
M  V30 1470 H 142.558 -0.990083 1.24028 0
M  V30 1471 H 142.579 -3.69219 0.919643 0
M  V30 1472 H 142.091 -2.90978 2.56814 0
M  V30 1473 H 140.192 -3.71835 0.238713 0
M  V30 1474 H 140.305 -4.34661 2.01511 0
M  V30 1475 H 138.669 -2.34978 0.982717 0
M  V30 1476 H 139.452 -2.18705 2.64619 0
M  V30 1477 N 141.898 -0.863906 -1.31812 0
M  V30 1478 C 142.845 -0.313303 -2.28664 0
M  V30 1479 C 143.815 0.584868 -1.55462 0
M  V30 1480 O 145 0.517805 -1.83639 0
M  V30 1481 C 142.14 0.48441 -3.41683 0
M  V30 1482 C 141.253 -0.440594 -4.29747 0
M  V30 1483 C 140.388 0.370652 -5.29905 0
M  V30 1484 C 139.427 -0.551164 -6.09613 0
M  V30 1485 N 138.564 0.223462 -7.01744 0
M  V30 1486 H 143.404 -1.14444 -2.75148 0
M  V30 1487 H 140.941 -0.575769 -1.35364 0
M  V30 1488 H 142.899 0.962627 -4.05943 0
M  V30 1489 H 141.529 1.28029 -2.96325 0
M  V30 1490 H 140.581 -1.03724 -3.65986 0
M  V30 1491 H 141.893 -1.14767 -4.85417 0
M  V30 1492 H 141.047 0.911638 -5.99812 0
M  V30 1493 H 139.786 1.11105 -4.74876 0
M  V30 1494 H 138.791 -1.10396 -5.38603 0
M  V30 1495 H 140.016 -1.29032 -6.66729 0
M  V30 1496 H 137.962 0.946787 -6.49132 0
M  V30 1497 H 137.879 -0.424399 -7.54808 0
M  V30 1498 H 139.147 0.745876 -7.75923 0
M  V30 1499 N 143.376 1.44774 -0.622745 0
M  V30 1500 C 144.323 2.30635 0.0871679 0
M  V30 1501 C 145.293 1.42994 0.845097 0
M  V30 1502 O 146.478 1.71907 0.827812 0
M  V30 1503 C 143.618 3.28144 1.06844 0
M  V30 1504 C 142.731 4.30888 0.309809 0
M  V30 1505 C 141.866 5.15494 1.28215 0
M  V30 1506 C 140.905 6.09953 0.512198 0
M  V30 1507 N 140.042 6.87287 1.43458 0
M  V30 1508 H 144.882 2.90803 -0.650974 0
M  V30 1509 H 142.419 1.43286 -0.33281 0
M  V30 1510 H 144.377 3.83157 1.65066 0
M  V30 1511 H 143.007 2.69695 1.77382 0
M  V30 1512 H 142.059 3.78414 -0.388181 0
M  V30 1513 H 143.371 4.97955 -0.290254 0
M  V30 1514 H 142.525 5.74983 1.93596 0
M  V30 1515 H 141.264 4.48481 1.91614 0
M  V30 1516 H 140.269 5.49581 -0.155151 0
M  V30 1517 H 141.494 6.78999 -0.116958 0
M  V30 1518 H 139.44 6.2295 2.05594 0
M  V30 1519 H 139.357 7.50763 0.888335 0
M  V30 1520 H 140.625 7.51306 2.07749 0
M  V30 1521 N 144.854 0.36279 1.53368 0
M  V30 1522 C 146.102 -0.227326 2.00817 0
M  V30 1523 C 146.423 -1.49511 1.25186 0
M  V30 1524 O 145.693 -1.92482 0.364348 0
M  V30 1525 H 144.273 -0.0869923 0.741917 0
M  V30 1526 H 146.935 0.488381 1.88682 0
M  V30 1527 H 146.031 -0.456273 3.08747 0
M  V30 1528 N 146.332 -1.57332 0.0918853 0
M  V30 1529 C 147.56 -1.98574 -0.581048 0
M  V30 1530 C 147.975 -0.970903 -1.61923 0
M  V30 1531 O 147.332 0.0399054 -1.82456 0
M  V30 1532 C 147.383 -3.39872 -1.23164 0
M  V30 1533 O 147.104 -4.37469 -0.234989 0
M  V30 1534 C 148.605 -3.96099 -1.99049 0
M  V30 1535 H 145.825 -0.65261 -0.156018 0
M  V30 1536 H 148.369 -2.0379 0.170225 0
M  V30 1537 H 146.524 -3.35679 -1.93386 0
M  V30 1538 H 146.938 -5.19751 -0.70418 0
M  V30 1539 H 148.412 -4.97127 -2.39934 0
M  V30 1540 H 148.889 -3.3374 -2.85507 0
M  V30 1541 H 149.495 -4.03755 -1.3365 0
M  V30 1542 N 147.81 0.181792 -1.56548 0
M  V30 1543 C 149.038 0.915947 -1.85521 0
M  V30 1544 C 149.453 1.76282 -0.676016 0
M  V30 1545 O 148.81 1.79012 0.355077 0
M  V30 1546 C 148.861 1.80126 -3.13427 0
M  V30 1547 O 148.582 0.988562 -4.26801 0
M  V30 1548 C 150.083 2.64597 -3.55673 0
M  V30 1549 H 147.303 0.26661 -0.61576 0
M  V30 1550 H 149.847 0.185039 -2.03661 0
M  V30 1551 H 148.002 2.48563 -2.97145 0
M  V30 1552 H 148.416 1.59308 -4.99721 0
M  V30 1553 H 149.89 3.2235 -4.48101 0
M  V30 1554 H 150.367 3.38958 -2.79292 0
M  V30 1555 H 150.973 2.0151 -3.74532 0
M  V30 1556 N 149.288 1.51039 0.449983 0
M  V30 1557 C 150.536 1.62759 1.19808 0
M  V30 1558 C 150.857 0.339981 1.92013 0
M  V30 1559 O 150.127 -0.643606 1.85026 0
M  V30 1560 H 148.707 0.599811 0.445237 0
M  V30 1561 H 151.369 1.87914 0.517138 0
M  V30 1562 H 150.465 2.44911 1.93455 0
M  V30 1563 N 150.766 -0.704594 1.40972 0
M  V30 1564 C 152.015 -1.46018 1.39146 0
M  V30 1565 C 152.328 -1.956 0.000589254 0
M  V30 1566 O 153.534 -2.71137 -0.1403 0
M  V30 1567 C 151.99 -2.63996 2.4461 0
M  V30 1568 C 151.598 -2.21238 3.89561 0
M  V30 1569 C 153.342 -3.41677 2.51907 0
M  V30 1570 C 151.249 -3.3612 4.86598 0
M  V30 1571 H 150.179 -0.548444 0.517422 0
M  V30 1572 H 152.83 -0.765784 1.66757 0
M  V30 1573 H 151.212 -3.3566 2.10115 0
M  V30 1574 H 152.386 -1.56923 4.33257 0
M  V30 1575 H 150.701 -1.56574 3.85841 0
M  V30 1576 H 153.298 -4.27182 3.2159 0
M  V30 1577 H 153.641 -3.86247 1.55303 0
M  V30 1578 H 154.174 -2.77064 2.85448 0
M  V30 1579 H 150.913 -2.96572 5.84573 0
M  V30 1580 H 150.433 -3.99315 4.47557 0
M  V30 1581 H 152.112 -4.02029 5.06934 0
M  V30 1582 N 152.244 -1.26651 -0.937939 0
M  V30 1583 C 153.192 -1.08308 -2.05845 0
M  V30 1584 C 154.186 -0.0090757 -1.69398 0
M  V30 1585 O 155.392 -0.166007 -1.79233 0
M  V30 1586 H 151.767 -0.333416 -0.674046 0
M  V30 1587 H 153.738 -2.03261 -2.18467 0
M  V30 1588 C 152.487 -0.736229 -3.39816 0
M  V30 1589 H 151.81 -1.55453 -3.6834 0
M  V30 1590 H 153.25 -0.64769 -4.19024 0
M  V30 1591 C 151.709 0.558824 -3.32233 0
M  V30 1592 O 152.239 1.59621 -3.68624 0
M  V30 1593 N 150.445 0.550657 -2.85335 0
M  V30 1594 H 149.992 -0.293943 -2.55917 0
M  V30 1595 H 149.95 1.41726 -2.80644 0
M  V30 1596 N 153.722 1.14298 -1.08507 0
M  V30 1597 C 155.133 1.66926 -0.836227 0
M  V30 1598 C 155.484 1.85576 0.63686 0
M  V30 1599 O 154.609 1.56767 1.49175 0
M  V30 1600 C 155.204 3.03219 -1.51142 0
M  V30 1601 C 153.763 3.52876 -1.30979 0
M  V30 1602 C 152.91 2.2833 -1.57356 0
M  V30 1603 H 155.861 0.983491 -1.24552 0
M  V30 1604 H 155.882 3.68726 -0.939211 0
M  V30 1605 H 155.394 2.89612 -2.58353 0
M  V30 1606 H 153.495 3.71703 -0.258429 0
M  V30 1607 H 153.608 4.33586 -2.03814 0
M  V30 1608 H 151.972 2.34454 -0.995164 0
M  V30 1609 H 152.755 2.17298 -2.65775 0
M  V30 1610 N 155.201 0.870884 1.31352 0
M  V30 1611 C 156.447 0.482987 1.96965 0
M  V30 1612 C 156.78 -0.962462 1.68672 0
M  V30 1613 O 156.055 -1.6779 0.98371 0
M  V30 1614 C 156.338 0.741752 3.52378 0
M  V30 1615 C 156.191 2.2368 3.9024 0
M  V30 1616 C 157.51 0.208838 4.39604 0
M  V30 1617 H 154.629 0.176955 0.715441 0
M  V30 1618 H 157.271 1.09229 1.55464 0
M  V30 1619 H 155.421 0.223149 3.87859 0
M  V30 1620 H 157.093 2.82273 3.64856 0
M  V30 1621 H 155.336 2.70901 3.38814 0
M  V30 1622 H 156.007 2.3685 4.98604 0
M  V30 1623 H 158.483 0.652529 4.10952 0
M  V30 1624 H 157.359 0.419336 5.47296 0
M  V30 1625 H 157.62 -0.889275 4.33064 0
M  V30 1626 N 156.679 -1.44442 0.630414 0
M  V30 1627 C 157.909 -2.06115 0.141465 0
M  V30 1628 C 158.317 -1.47179 -1.1889 0
M  V30 1629 O 157.66 -0.588873 -1.74006 0
M  V30 1630 C 157.722 -3.59467 -0.0484355 0
M  V30 1631 C 157.386 -4.40864 1.20366 0
M  V30 1632 C 158.383 -4.74391 2.12719 0
M  V30 1633 C 156.068 -4.8125 1.43887 0
M  V30 1634 C 158.062 -5.47186 3.26904 0
M  V30 1635 C 155.749 -5.53795 2.5837 0
M  V30 1636 C 156.747 -5.86682 3.49705 0
M  V30 1637 O 156.435 -6.57749 4.62191 0
M  V30 1638 H 156.167 -0.671648 0.0765792 0
M  V30 1639 H 158.721 -1.86312 0.864695 0
M  V30 1640 H 156.951 -3.77758 -0.826803 0
M  V30 1641 H 158.64 -4.02909 -0.491849 0
M  V30 1642 H 159.406 -4.43728 1.95781 0
M  V30 1643 H 155.285 -4.55073 0.736853 0
M  V30 1644 H 158.829 -5.72773 3.98217 0
M  V30 1645 H 154.726 -5.83872 2.75251 0
M  V30 1646 H 155.494 -6.76217 4.61164 0
M  V30 1647 N 158.157 -0.370918 -1.53173 0
M  V30 1648 C 159.403 0.217423 -2.01631 0
M  V30 1649 C 159.736 1.47983 -1.25756 0
M  V30 1650 O 159.011 1.91274 -0.352764 0
M  V30 1651 C 159.294 0.503982 -3.56556 0
M  V30 1652 C 159.147 -0.77243 -4.43118 0
M  V30 1653 C 160.466 1.30234 -4.20389 0
M  V30 1654 H 157.585 0.0775486 -0.732909 0
M  V30 1655 H 160.227 -0.496863 -1.83388 0
M  V30 1656 H 158.377 1.11248 -3.72231 0
M  V30 1657 H 160.049 -1.4098 -4.39229 0
M  V30 1658 H 158.292 -1.39167 -4.10871 0
M  V30 1659 H 158.963 -0.526815 -5.4948 0
M  V30 1660 H 161.439 0.787546 -4.08579 0
M  V30 1661 H 160.315 1.47158 -5.28806 0
M  V30 1662 H 160.576 2.31237 -3.76805 0
M  V30 1663 N 159.635 1.57281 -0.100228 0
M  V30 1664 C 160.884 1.93713 0.561984 0
M  V30 1665 C 161.197 0.984492 1.69018 0
M  V30 1666 O 162.403 1.24273 2.41389 0
M  V30 1667 C 160.859 3.4421 1.05106 0
M  V30 1668 C 160.467 4.47975 -0.0476628 0
M  V30 1669 C 162.211 3.89595 1.68571 0
M  V30 1670 C 160.118 5.89631 0.457055 0
M  V30 1671 H 159.048 0.723082 0.2137 0
M  V30 1672 H 161.699 1.82644 -0.177057 0
M  V30 1673 H 160.081 3.50449 1.84395 0
M  V30 1674 H 161.255 4.53385 -0.823333 0
M  V30 1675 H 159.57 4.1223 -0.587816 0
M  V30 1676 H 162.167 4.92832 2.07414 0
M  V30 1677 H 162.51 3.28526 2.55688 0
M  V30 1678 H 163.043 3.86078 0.958562 0
M  V30 1679 H 159.782 6.54411 -0.377616 0
M  V30 1680 H 159.302 5.87681 1.19962 0
M  V30 1681 H 160.981 6.40363 0.92437 0
M  V30 1682 N 161.113 -0.173488 1.56642 0
M  V30 1683 C 162.338 -0.910149 1.86363 0
M  V30 1684 C 162.763 -1.75132 0.686318 0
M  V30 1685 O 162.121 -1.77595 -0.364643 0
M  V30 1686 C 162.169 -1.76447 3.14482 0
M  V30 1687 O 161.273 -2.86584 2.96553 0
M  V30 1688 H 160.614 -0.255086 0.613047 0
M  V30 1689 H 163.144 -0.172283 2.03873 0
M  V30 1690 H 163.154 -2.16483 3.45831 0
M  V30 1691 H 161.829 -1.14658 3.99783 0
M  V30 1692 H 160.406 -2.50146 2.76553 0
M  V30 1693 N 162.591 -1.51276 -0.441967 0
M  V30 1694 C 163.523 -1.68444 -1.55433 0
M  V30 1695 C 164.536 -0.565187 -1.52674 0
M  V30 1696 O 165.725 -0.839356 -1.57534 0
M  V30 1697 C 162.825 -1.67966 -2.94348 0
M  V30 1698 C 161.998 -2.964 -3.21661 0
M  V30 1699 C 161.057 -2.88171 -4.40277 0
M  V30 1700 O 160.083 -3.62119 -4.39157 0
M  V30 1701 N 161.285 -2.03706 -5.43584 0
M  V30 1702 H 164.05 -2.644 -1.41112 0
M  V30 1703 H 161.611 -1.49104 -0.630838 0
M  V30 1704 H 163.603 -1.60035 -3.71713 0
M  V30 1705 H 162.173 -0.796225 -3.0229 0
M  V30 1706 H 161.393 -3.18234 -2.32638 0
M  V30 1707 H 162.681 -3.81427 -3.36736 0
M  V30 1708 H 162.079 -1.42995 -5.47329 0
M  V30 1709 H 160.636 -2.01658 -6.1982 0
M  V30 1710 N 164.069 0.697108 -1.41344 0
M  V30 1711 C 165.315 1.4593 -1.40827 0
M  V30 1712 C 165.648 1.94193 -0.0167098 0
M  V30 1713 O 164.923 1.69425 0.955263 0
M  V30 1714 C 165.206 2.67229 -2.41373 0
M  V30 1715 C 165.059 2.24741 -3.8963 0
M  V30 1716 C 166.378 3.69423 -2.39196 0
M  V30 1717 H 163.497 0.529303 -0.512842 0
M  V30 1718 H 166.139 0.794112 -1.72609 0
M  V30 1719 H 164.289 3.23982 -2.14401 0
M  V30 1720 H 165.961 1.73327 -4.27499 0
M  V30 1721 H 164.204 1.56542 -4.0457 0
M  V30 1722 H 164.875 3.1177 -4.55525 0
M  V30 1723 H 167.351 3.2234 -2.63128 0
M  V30 1724 H 166.227 4.51907 -3.11563 0
M  V30 1725 H 166.488 4.19012 -1.41001 0
M  V30 1726 N 165.547 1.27147 0.931209 0
M  V30 1727 C 166.477 1.12081 2.04842 0
M  V30 1728 C 167.458 0.0232364 1.70084 0
M  V30 1729 O 168.643 0.197085 1.93197 0
M  V30 1730 C 165.773 0.76354 3.38803 0
M  V30 1731 C 164.727 1.81396 3.87659 0
M  V30 1732 C 164.053 1.31075 5.18385 0
M  V30 1733 C 165.353 3.21739 4.11438 0
M  V30 1734 H 167.047 2.05537 2.17703 0
M  V30 1735 H 164.593 0.989603 1.04608 0
M  V30 1736 H 166.546 0.644982 4.16435 0
M  V30 1737 H 165.27 -0.206727 3.25945 0
M  V30 1738 H 163.929 1.92136 3.12217 0
M  V30 1739 H 163.577 0.330037 5.01916 0
M  V30 1740 H 163.277 2.013 5.52044 0
M  V30 1741 H 164.801 1.20506 5.98591 0
M  V30 1742 H 166.215 3.14019 4.79651 0
M  V30 1743 H 164.612 3.89644 4.56397 0
M  V30 1744 H 165.682 3.67054 3.16859 0
M  V30 1745 N 167.025 -1.13721 1.09112 0
M  V30 1746 C 168.273 -1.84559 0.823562 0
M  V30 1747 C 168.594 -1.83754 -0.652658 0
M  V30 1748 O 167.864 -1.29102 -1.47342 0
M  V30 1749 H 166.444 -0.683376 0.301673 0
M  V30 1750 H 169.106 -1.37771 1.37859 0
M  V30 1751 H 168.202 -2.8917 1.17419 0
M  V30 1752 N 168.503 -0.877838 -1.30888 0
M  V30 1753 C 169.451 -0.328662 -2.30266 0
M  V30 1754 C 170.445 0.560496 -1.59859 0
M  V30 1755 O 171.651 0.445722 -1.74394 0
M  V30 1756 H 168.026 -0.0876142 -0.746879 0
M  V30 1757 H 169.997 -1.18061 -2.74051 0
M  V30 1758 C 168.746 0.448071 -3.44801 0
M  V30 1759 H 168.069 -0.226859 -3.99156 0
M  V30 1760 H 169.509 0.797541 -4.16432 0
M  V30 1761 C 167.968 1.64239 -2.94155 0
M  V30 1762 O 168.498 2.74175 -2.93583 0
M  V30 1763 N 166.704 1.47716 -2.50256 0
M  V30 1764 H 166.251 0.582821 -2.5092 0
M  V30 1765 H 166.209 2.27765 -2.16727 0
M  V30 1766 N 169.982 1.44106 -0.638065 0
M  V30 1767 C 171.222 2.03858 -0.148733 0
M  V30 1768 C 171.586 1.49153 1.20903 0
M  V30 1769 O 172.787 2.00452 1.79088 0
M  V30 1770 C 171.058 3.57117 -0.142314 0
M  V30 1771 S 172.617 4.37897 0.281385 0
M  V30 1772 H 169.435 0.708069 -0.0644912 0
M  V30 1773 H 172.037 1.7639 -0.843009 0
M  V30 1774 H 170.741 3.94436 -1.13349 0
M  V30 1775 H 170.272 3.89205 0.572988 0
M  V30 1776 H 172.287 4.72218 1.52395 0
M  V30 1777 N 171.46 0.379036 1.52974 0
M  V30 1778 C 172.706 -0.206727 2.01744 0
M  V30 1779 C 173.039 -1.47314 1.26539 0
M  V30 1780 O 172.314 -1.91084 0.362903 0
M  V30 1781 C 172.597 -0.485066 3.56818 0
M  V30 1782 C 172.45 0.795919 4.42702 0
M  V30 1783 C 173.769 -1.28003 4.21074 0
M  V30 1784 H 170.888 -0.0736607 0.73331 0
M  V30 1785 H 173.53 0.506581 1.83122 0
M  V30 1786 H 171.68 -1.09272 3.72816 0
M  V30 1787 H 173.352 1.43307 4.38476 0
M  V30 1788 H 171.595 1.41344 4.10127 0
M  V30 1789 H 172.266 0.555947 5.49193 0
M  V30 1790 H 174.742 -0.765867 4.08991 0
M  V30 1791 H 173.618 -1.44352 5.29579 0
M  V30 1792 H 173.879 -2.29236 3.78026 0
M  V30 1793 N 172.938 -1.57226 0.108567 0
M  V30 1794 C 174.166 -1.99179 -0.559954 0
M  V30 1795 C 174.581 -0.988022 -1.60884 0
M  V30 1796 O 173.938 0.0205512 -1.82488 0
M  V30 1797 C 173.989 -3.41159 -1.19552 0
M  V30 1798 O 173.71 -4.37694 -0.188577 0
M  V30 1799 C 175.211 -3.98188 -1.94837 0
M  V30 1800 H 172.431 -0.654228 -0.149088 0
M  V30 1801 H 174.975 -2.03598 0.19183 0
M  V30 1802 H 173.13 -3.37711 -1.89815 0
M  V30 1803 H 173.544 -5.20469 -0.649014 0
M  V30 1804 H 175.018 -4.99644 -2.34648 0
M  V30 1805 H 175.495 -3.3675 -2.81951 0
M  V30 1806 H 176.101 -4.0515 -1.2936 0
M  V30 1807 N 174.416 0.165178 -1.56732 0
M  V30 1808 C 175.662 0.882112 -1.82611 0
M  V30 1809 C 175.995 1.81628 -0.687378 0
M  V30 1810 O 175.27 1.92009 0.310267 0
M  V30 1811 C 175.553 1.67245 -3.18906 0
M  V30 1812 C 175.406 0.760987 -4.43316 0
M  V30 1813 C 176.725 2.63884 -3.52212 0
M  V30 1814 H 173.844 0.319242 -0.664269 0
M  V30 1815 H 176.486 0.148052 -1.89422 0
M  V30 1816 H 174.636 2.29824 -3.1323 0
M  V30 1817 H 176.308 0.147596 -4.61064 0
M  V30 1818 H 174.551 0.0694102 -4.33744 0
M  V30 1819 H 175.222 1.34962 -5.35247 0
M  V30 1820 H 177.698 2.11429 -3.58381 0
M  V30 1821 H 176.574 3.16245 -4.48643 0
M  V30 1822 H 176.835 3.44377 -2.77231 0
M  V30 1823 N 175.894 1.51508 0.433938 0
M  V30 1824 C 177.171 1.54888 1.19453 0
M  V30 1825 C 177.551 0.315154 2.08734 0
M  V30 1826 O 176.899 -0.699558 2.17528 0
M  V30 1827 C 177.109 2.86467 1.99342 0
M  V30 1828 C 178.457 3.38545 2.56267 0
M  V30 1829 O 179.481 2.88041 2.0955 0
M  V30 1830 O 178.34 4.26675 3.41483 0
M  V30 1831 H 175.434 0.622863 0.544032 0
M  V30 1832 H 177.98 1.63823 0.442732 0
M  V30 1833 H 176.752 3.67718 1.33788 0
M  V30 1834 H 176.375 2.8071 2.8158 0
M  V30 1835 N 177.372 -0.689602 1.41712 0
M  V30 1836 C 178.649 -1.44457 1.31877 0
M  V30 1837 C 179.029 -2.11039 -0.0508537 0
M  V30 1838 O 178.377 -2.02138 -1.06547 0
M  V30 1839 C 178.587 -2.45913 2.47645 0
M  V30 1840 C 179.935 -3.10991 2.89084 0
M  V30 1841 O 180.959 -2.56238 2.47428 0
M  V30 1842 O 179.818 -4.10174 3.61137 0
M  V30 1843 H 176.912 -0.64362 0.519309 0
M  V30 1844 H 179.458 -0.719576 1.53689 0
M  V30 1845 H 178.23 -1.95409 3.39015 0
M  V30 1846 H 177.853 -3.25913 2.27742 0
M  V30 1847 N 178.85 -1.27639 -0.924453 0
M  V30 1848 C 180.096 -1.14336 -1.67497 0
M  V30 1849 C 180.429 0.309465 -1.91718 0
M  V30 1850 O 179.704 1.22608 -1.50989 0
M  V30 1851 C 179.987 -1.93096 -3.0395 0
M  V30 1852 C 179.84 -3.46381 -2.8695 0
M  V30 1853 C 181.159 -1.73798 -4.0433 0
M  V30 1854 H 178.278 -0.416728 -0.607871 0
M  V30 1855 H 180.92 -1.56832 -1.07256 0
M  V30 1856 H 179.07 -1.56982 -3.55372 0
M  V30 1857 H 180.742 -3.92343 -2.42621 0
M  V30 1858 H 178.985 -3.72557 -2.22225 0
M  V30 1859 H 179.656 -3.96735 -3.83804 0
M  V30 1860 H 182.132 -2.05293 -3.61931 0
M  V30 1861 H 181.008 -2.31294 -4.97789 0
M  V30 1862 H 181.269 -0.686725 -4.36734 0
M  V30 1863 N 180.328 1.1314 -1.09713 0
M  V30 1864 C 181.577 1.83838 -0.829851 0
M  V30 1865 C 181.89 1.84599 0.646728 0
M  V30 1866 O 183.096 2.51218 1.02965 0
M  V30 1867 C 181.552 3.30069 -1.43466 0
M  V30 1868 C 181.16 3.37688 -2.94399 0
M  V30 1869 C 182.904 4.05788 -1.24645 0
M  V30 1870 C 180.811 4.78209 -3.47952 0
M  V30 1871 H 179.741 0.68877 -0.306777 0
M  V30 1872 H 182.392 1.27448 -1.3202 0
M  V30 1873 H 180.774 3.8628 -0.871996 0
M  V30 1874 H 181.948 2.91456 -3.56918 0
M  V30 1875 H 180.263 2.75436 -3.12289 0
M  V30 1876 H 182.86 5.09535 -1.62107 0
M  V30 1877 H 183.203 4.15878 -0.187357 0
M  V30 1878 H 183.736 3.55915 -1.77678 0
M  V30 1879 H 180.475 4.73311 -4.53495 0
M  V30 1880 H 179.995 5.24924 -2.90198 0
M  V30 1881 H 181.674 5.47133 -3.45332 0
M  V30 1882 N 181.806 0.884767 1.30421 0
M  V30 1883 C 182.716 0.355398 2.31892 0
M  V30 1884 C 183.732 -0.542261 1.65335 0
M  V30 1885 O 184.908 -0.435432 1.96637 0
M  V30 1886 C 181.973 -0.421661 3.44126 0
M  V30 1887 C 181.034 0.505727 4.26311 0
M  V30 1888 C 180.267 -0.234343 5.33185 0
M  V30 1889 O 180.49 -1.46045 5.51386 0
M  V30 1890 O 179.424 0.415443 6.00465 0
M  V30 1891 H 183.25 1.19685 2.79122 0
M  V30 1892 H 180.835 0.648596 1.34587 0
M  V30 1893 H 182.717 -0.861641 4.12497 0
M  V30 1894 H 181.392 -1.23942 2.99032 0
M  V30 1895 H 180.299 0.994513 3.60639 0
M  V30 1896 H 181.632 1.28948 4.75009 0
M  V30 1897 N 183.284 -1.43765 0.645699 0
M  V30 1898 C 184.231 -2.30745 -0.0504648 0
M  V30 1899 C 185.201 -1.4432 -0.822241 0
M  V30 1900 O 186.386 -1.73202 -0.800358 0
M  V30 1901 C 183.526 -3.29802 -1.0161 0
M  V30 1902 C 182.639 -4.31326 -0.241219 0
M  V30 1903 C 181.774 -5.17469 -1.19998 0
M  V30 1904 C 180.813 -6.10691 -0.415094 0
M  V30 1905 N 179.95 -6.89483 -1.32506 0
M  V30 1906 H 184.79 -2.8973 0.697155 0
M  V30 1907 H 182.327 -1.42738 0.355563 0
M  V30 1908 H 184.285 -3.85734 -1.58949 0
M  V30 1909 H 182.915 -2.72483 -1.73069 0
M  V30 1910 H 181.967 -3.77749 0.448334 0
M  V30 1911 H 183.279 -4.9743 0.369437 0
M  V30 1912 H 182.433 -5.7799 -1.84424 0
M  V30 1913 H 181.172 -4.51473 -1.84455 0
M  V30 1914 H 180.177 -5.49265 0.242565 0
M  V30 1915 H 181.402 -6.78727 0.224966 0
M  V30 1916 H 179.348 -6.26142 -1.95657 0
M  V30 1917 H 179.265 -7.52081 -0.768783 0
M  V30 1918 H 180.533 -7.54516 -1.9577 0
M  V30 1919 N 184.763 -0.387143 -1.52771 0
M  V30 1920 C 185.693 0.440551 -2.29306 0
M  V30 1921 C 186.674 1.06535 -1.32606 0
M  V30 1922 O 187.859 1.07853 -1.61497 0
M  V30 1923 C 184.989 1.56919 -3.09829 0
M  V30 1924 C 183.943 1.07054 -4.14395 0
M  V30 1925 C 183.269 2.29109 -4.83129 0
M  V30 1926 C 184.569 0.140015 -5.22112 0
M  V30 1927 H 186.263 -0.198026 -2.98744 0
M  V30 1928 H 183.809 -0.09668 -1.43675 0
M  V30 1929 H 185.762 2.15503 -3.62128 0
M  V30 1930 H 184.486 2.23532 -2.3812 0
M  V30 1931 H 183.145 0.507247 -3.63074 0
M  V30 1932 H 182.793 2.94227 -4.0797 0
M  V30 1933 H 182.493 1.96406 -5.53804 0
M  V30 1934 H 184.017 2.88339 -5.38231 0
M  V30 1935 H 185.431 0.633978 -5.69784 0
M  V30 1936 H 183.828 -0.0971485 -6.00021 0
M  V30 1937 H 184.898 -0.811711 -4.78058 0
M  V30 1938 N 186.241 1.57166 -0.116904 0
M  V30 1939 C 187.469 1.99473 0.549383 0
M  V30 1940 C 187.884 0.996541 1.60357 0
M  V30 1941 O 187.241 -0.0108731 1.82497 0
M  V30 1942 C 187.292 3.41788 1.17741 0
M  V30 1943 O 187.013 4.37788 0.165362 0
M  V30 1944 C 188.514 3.99216 1.92722 0
M  V30 1945 H 185.734 0.655009 0.145616 0
M  V30 1946 H 188.278 2.03494 -0.202625 0
M  V30 1947 H 186.433 3.38713 1.88021 0
M  V30 1948 H 186.847 5.20806 0.621403 0
M  V30 1949 H 188.321 5.00882 2.31995 0
M  V30 1950 H 188.798 3.3824 2.80161 0
M  V30 1951 H 189.404 4.0583 1.27209 0
M  V30 1952 N 187.719 -0.156864 1.56817 0
M  V30 1953 C 188.944 -0.890331 1.87318 0
M  V30 1954 C 189.369 -1.74394 0.704855 0
M  V30 1955 O 188.727 -1.77972 -0.345786 0
M  V30 1956 C 188.775 -1.73102 3.16336 0
M  V30 1957 O 187.879 -2.83422 2.99576 0
M  V30 1958 H 187.22 -0.24857 0.615718 0
M  V30 1959 H 189.75 -0.150649 2.04045 0
M  V30 1960 H 189.76 -2.12803 3.48107 0
M  V30 1961 H 188.435 -1.10412 4.00976 0
M  V30 1962 H 187.012 -2.47199 2.7919 0
M  V30 1963 N 189.197 -1.51736 -0.425897 0
M  V30 1964 C 190.427 -1.68549 -1.19476 0
M  V30 1965 C 190.835 -0.387288 -1.85194 0
M  V30 1966 O 190.178 0.645142 -1.71999 0
M  V30 1967 C 190.24 -2.75275 -2.31223 0
M  V30 1968 C 189.904 -4.17534 -1.8578 0
M  V30 1969 C 190.901 -5.01936 -1.35485 0
M  V30 1970 C 188.586 -4.6369 -1.93123 0
M  V30 1971 C 190.58 -6.30559 -0.931347 0
M  V30 1972 C 188.267 -5.92307 -1.50384 0
M  V30 1973 C 189.265 -6.75569 -1.00473 0
M  V30 1974 O 188.953 -8.0178 -0.583452 0
M  V30 1975 H 188.685 -0.568525 -0.365725 0
M  V30 1976 H 191.239 -1.98982 -0.509444 0
M  V30 1977 H 189.469 -2.40182 -3.03067 0
M  V30 1978 H 191.158 -2.80853 -2.93047 0
M  V30 1979 H 191.924 -4.67475 -1.29197 0
M  V30 1980 H 187.803 -3.98997 -2.30916 0
M  V30 1981 H 191.347 -6.95498 -0.541084 0
M  V30 1982 H 187.244 -6.2628 -1.56346 0
M  V30 1983 H 188.012 -8.1543 -0.708275 0
M  V30 1984 N 190.675 0.682077 -1.42076 0
M  V30 1985 C 191.903 1.47057 -1.4554 0
M  V30 1986 C 192.318 1.8869 -0.0645779 0
M  V30 1987 O 191.675 1.57666 0.919115 0
M  V30 1988 C 191.726 2.72442 -2.37609 0
M  V30 1989 O 191.447 2.32559 -3.71279 0
M  V30 1990 C 192.948 3.66069 -2.50017 0
M  V30 1991 H 190.168 0.452737 -0.495248 0
M  V30 1992 H 192.712 0.838695 -1.8651 0
M  V30 1993 H 190.867 3.31835 -1.9991 0
M  V30 1994 H 191.281 3.13475 -4.20516 0
M  V30 1995 H 192.755 4.50792 -3.18576 0
M  V30 1996 H 193.232 4.11476 -1.53572 0
M  V30 1997 H 193.838 3.12572 -2.88407 0
M  V30 1998 N 192.153 1.28127 0.917671 0
M  V30 1999 C 193.083 1.14248 2.03641 0
M  V30 2000 C 194.064 0.0412748 1.7005 0
M  V30 2001 O 195.249 0.217566 1.92977 0
M  V30 2002 C 192.379 0.799431 3.37974 0
M  V30 2003 C 191.333 1.85497 3.85713 0
M  V30 2004 C 190.659 1.36565 5.16966 0
M  V30 2005 C 191.959 3.26085 4.08002 0
M  V30 2006 H 193.653 2.07835 2.15511 0
M  V30 2007 H 191.199 1.00064 1.03553 0
M  V30 2008 H 193.152 0.689114 4.15727 0
M  V30 2009 H 191.876 -0.172145 3.26146 0
M  V30 2010 H 190.535 1.95437 3.10161 0
M  V30 2011 H 190.183 0.383253 5.01538 0
M  V30 2012 H 189.883 2.07143 5.49878 0
M  V30 2013 H 191.407 1.26848 5.97279 0
M  V30 2014 H 192.821 3.19089 4.76293 0
M  V30 2015 H 191.218 3.94462 4.52238 0
M  V30 2016 H 192.288 3.70394 3.12948 0
M  V30 2017 N 193.631 -1.12557 1.10312 0
M  V30 2018 C 194.561 -2.20341 0.772798 0
M  V30 2019 C 195.542 -1.68198 -0.25365 0
M  V30 2020 O 196.727 -1.93831 -0.119699 0
M  V30 2021 C 193.857 -3.46709 0.202443 0
M  V30 2022 C 192.811 -4.11996 1.15943 0
M  V30 2023 C 192.137 -5.328 0.450345 0
M  V30 2024 C 193.437 -4.5828 2.50552 0
M  V30 2025 H 195.131 -2.48229 1.674 0
M  V30 2026 H 192.677 -1.19308 0.806326 0
M  V30 2027 H 194.63 -4.2138 -0.0407752 0
M  V30 2028 H 193.354 -3.18245 -0.734001 0
M  V30 2029 H 192.013 -3.39305 1.38808 0
M  V30 2030 H 191.661 -5.00602 -0.490531 0
M  V30 2031 H 191.361 -5.7743 1.08851 0
M  V30 2032 H 192.885 -6.10219 0.215642 0
M  V30 2033 H 194.299 -5.2433 2.31843 0
M  V30 2034 H 192.696 -5.13683 3.10242 0
M  V30 2035 H 193.766 -3.72329 3.10643 0
M  V30 2036 N 195.109 -0.891671 -1.2995 0
M  V30 2037 C 196.057 -0.353066 -2.29905 0
M  V30 2038 C 197.051 0.543509 -1.60444 0
M  V30 2039 O 198.257 0.4272 -1.74857 0
M  V30 2040 H 194.632 -0.095531 -0.745907 0
M  V30 2041 H 196.603 -1.20961 -2.72784 0
M  V30 2042 C 195.352 0.411475 -3.45257 0
M  V30 2043 H 194.675 -0.269182 -3.98893 0
M  V30 2044 H 196.115 0.753328 -4.17254 0
M  V30 2045 C 194.574 1.6111 -2.9588 0
M  V30 2046 O 195.104 2.71045 -2.96475 0
M  V30 2047 N 193.31 1.45054 -2.51809 0
M  V30 2048 H 192.857 0.556175 -2.51524 0
M  V30 2049 H 192.815 2.25453 -2.1913 0
M  V30 2050 N 196.587 1.43421 -0.653314 0
M  V30 2051 C 197.497 2.34568 0.0388565 0
M  V30 2052 C 198.513 1.53888 0.81207 0
M  V30 2053 O 199.689 1.86539 0.759294 0
M  V30 2054 C 196.754 3.32167 0.993269 0
M  V30 2055 C 195.815 4.28751 0.216977 0
M  V30 2056 C 195.048 5.21688 1.12593 0
M  V30 2057 O 195.271 5.19052 2.36519 0
M  V30 2058 O 194.205 5.98919 0.598284 0
M  V30 2059 H 198.031 2.95251 -0.711386 0
M  V30 2060 H 195.616 1.43564 -0.413502 0
M  V30 2061 H 197.498 3.92183 1.54176 0
M  V30 2062 H 196.173 2.73987 1.72374 0
M  V30 2063 H 195.08 3.72215 -0.375101 0
M  V30 2064 H 196.413 4.89913 -0.473924 0
M  V30 2065 N 198.065 0.39524 1.52563 0
M  V30 2066 C 199.028 -0.425001 2.25225 0
M  V30 2067 C 200.028 -0.985266 1.27079 0
M  V30 2068 O 201.218 -0.866332 1.5113 0
M  V30 2069 C 198.35 -1.59686 3.01186 0
M  V30 2070 H 199.543 0.211233 2.99155 0
M  V30 2071 H 197.096 0.147472 1.55603 0
M  V30 2072 H 197.831 -2.27035 2.31572 0
M  V30 2073 H 197.616 -1.20176 3.73229 0
M  V30 2074 H 199.106 -2.17743 3.5634 0
M  V30 2075 N 199.544 -1.57102 0.125237 0
M  V30 2076 C 200.492 -2.16905 -0.839927 0
M  V30 2077 C 201.486 -1.11998 -1.27094 0
M  V30 2078 O 202.692 -1.3029 -1.24195 0
M  V30 2079 H 199.067 -0.694252 -0.288995 0
M  V30 2080 H 201.038 -2.96774 -0.311115 0
M  V30 2081 C 199.787 -2.78795 -2.07771 0
M  V30 2082 H 199.11 -3.59221 -1.755 0
M  V30 2083 H 200.55 -3.2417 -2.73295 0
M  V30 2084 C 199.009 -1.76193 -2.87155 0
M  V30 2085 O 199.539 -1.21909 -3.82755 0
M  V30 2086 N 197.745 -1.45991 -2.51267 0
M  V30 2087 H 197.292 -1.90325 -1.73592 0
M  V30 2088 H 197.25 -0.775844 -3.04677 0
M  V30 2089 N 201.022 0.148545 -1.56898 0
M  V30 2090 C 202.271 0.85984 -1.82454 0
M  V30 2091 C 202.584 1.82406 -0.706229 0
M  V30 2092 O 203.79 2.57938 -0.847349 0
M  V30 2093 C 202.246 1.57967 -3.2338 0
M  V30 2094 C 201.854 0.65794 -4.43142 0
M  V30 2095 C 203.598 2.27784 -3.58211 0
M  V30 2096 C 201.505 1.3793 -5.75091 0
M  V30 2097 H 200.435 0.324834 -0.68044 0
M  V30 2098 H 203.086 0.112588 -1.83154 0
M  V30 2099 H 201.468 2.37249 -3.17063 0
M  V30 2100 H 202.642 -0.0995497 -4.60692 0
M  V30 2101 H 200.957 0.0682643 -4.16344 0
M  V30 2102 H 203.554 2.8239 -4.54048 0
M  V30 2103 H 203.897 3.04204 -2.84193 0
M  V30 2104 H 204.43 1.55421 -3.66182 0
M  V30 2105 H 201.169 0.656982 -6.52199 0
M  V30 2106 H 200.689 2.10954 -5.61479 0
M  V30 2107 H 202.368 1.92063 -6.17835 0
M  V30 2108 N 202.5 1.5196 0.417844 0
M  V30 2109 C 203.749 1.6482 1.16264 0
M  V30 2110 C 204.062 0.379886 1.91876 0
M  V30 2111 O 205.268 0.388154 2.68711 0
M  V30 2112 C 203.724 2.91161 2.1155 0
M  V30 2113 C 203.332 4.25068 1.41495 0
M  V30 2114 C 205.076 3.13383 2.86341 0
M  V30 2115 C 202.983 5.42541 2.35379 0
M  V30 2116 H 201.913 0.613954 0.437694 0
M  V30 2117 H 204.564 1.78442 0.427871 0
M  V30 2118 H 202.946 2.71218 2.88543 0
M  V30 2119 H 204.12 4.55463 0.699263 0
M  V30 2120 H 202.435 4.0888 0.787792 0
M  V30 2121 H 205.032 3.98324 3.5671 0
M  V30 2122 H 205.375 2.27256 3.48798 0
M  V30 2123 H 205.908 3.33757 2.1645 0
M  V30 2124 H 202.647 6.30987 1.77582 0
M  V30 2125 H 202.167 5.16497 3.04945 0
M  V30 2126 H 203.846 5.75272 2.96093 0
M  V30 2127 N 203.978 -0.674533 1.42435 0
M  V30 2128 C 204.908 -1.80009 1.48724 0
M  V30 2129 C 205.889 -1.6659 0.343793 0
M  V30 2130 O 207.074 -1.86007 0.558137 0
M  V30 2131 C 204.204 -3.18306 1.38919 0
M  V30 2132 C 203.158 -3.46461 2.51294 0
M  V30 2133 C 202.484 -4.84335 2.26547 0
M  V30 2134 C 203.784 -3.43328 3.93603 0
M  V30 2135 H 205.478 -1.75004 2.42928 0
M  V30 2136 H 203.024 -0.840533 1.16923 0
M  V30 2137 H 204.977 -3.9678 1.41927 0
M  V30 2138 H 203.701 -3.2399 0.412094 0
M  V30 2139 H 202.36 -2.70348 2.47604 0
M  V30 2140 H 202.008 -4.86669 1.2713 0
M  V30 2141 H 201.708 -5.04136 3.01861 0
M  V30 2142 H 203.232 -5.65094 2.31304 0
M  V30 2143 H 204.646 -4.11772 3.98894 0
M  V30 2144 H 203.043 -3.74664 4.68771 0
M  V30 2145 H 204.113 -2.41897 4.20255 0
M  V30 2146 N 205.456 -1.28612 -0.910864 0
M  V30 2147 C 206.704 -1.15705 -1.65701 0
M  V30 2148 C 207.025 0.29416 -1.92769 0
M  V30 2149 O 206.295 1.20331 -1.54588 0
M  V30 2150 H 204.875 -0.425216 -0.614167 0
M  V30 2151 H 207.537 -1.61381 -1.0928 0
M  V30 2152 H 206.633 -1.6988 -2.61815 0
M  V30 2153 N 206.934 1.1197 -1.10907 0
M  V30 2154 C 208.181 1.83588 -0.854507 0
M  V30 2155 C 208.509 1.84357 0.6199 0
M  V30 2156 O 207.764 1.28809 1.47332 0
M  V30 2157 C 208.063 3.30749 -1.35425 0
M  V30 2158 C 207.729 3.50146 -2.84093 0
M  V30 2159 C 206.391 3.55148 -3.2469 0
M  V30 2160 C 208.743 3.56857 -3.79872 0
M  V30 2161 C 206.071 3.6441 -4.59806 0
M  V30 2162 C 208.423 3.6765 -5.14797 0
M  V30 2163 C 207.087 3.7091 -5.54961 0
M  V30 2164 H 206.357 0.671795 -0.312686 0
M  V30 2165 H 209.004 1.32091 -1.38652 0
M  V30 2166 H 207.309 3.84703 -0.742361 0
M  V30 2167 H 209.006 3.8464 -1.1337 0
M  V30 2168 H 205.596 3.46919 -2.51685 0
M  V30 2169 H 209.78 3.52258 -3.49611 0
M  V30 2170 H 205.036 3.65208 -4.9034 0
M  V30 2171 H 209.21 3.71786 -5.88853 0
M  V30 2172 H 206.837 3.7784 -6.59652 0
M  V30 2173 N 208.412 0.89855 1.29475 0
M  V30 2174 C 209.375 0.380272 2.26023 0
M  V30 2175 C 210.375 -0.484891 1.53315 0
M  V30 2176 O 211.565 -0.290108 1.71767 0
M  V30 2177 C 208.697 -0.45651 3.3783 0
M  V30 2178 H 209.89 1.23295 2.73383 0
M  V30 2179 H 207.443 0.676589 1.40897 0
M  V30 2180 H 208.178 -1.32922 2.95808 0
M  V30 2181 H 207.963 0.163393 3.91759 0
M  V30 2182 H 209.453 -0.810466 4.0966 0
M  V30 2183 N 209.89 -1.43072 0.660911 0
M  V30 2184 C 211.301 -1.84932 0.256348 0
M  V30 2185 C 211.652 -1.55325 -1.19868 0
M  V30 2186 O 210.777 -1.00607 -1.91591 0
M  V30 2187 C 211.372 -3.35684 0.458475 0
M  V30 2188 C 209.931 -3.76245 0.108161 0
M  V30 2189 C 209.078 -2.66749 0.757641 0
M  V30 2190 H 212.029 -1.33116 0.864051 0
M  V30 2191 H 212.05 -3.79365 -0.293683 0
M  V30 2192 H 211.562 -3.572 1.51755 0
M  V30 2193 H 209.663 -3.60338 -0.948014 0
M  V30 2194 H 209.776 -4.76058 0.538992 0
M  V30 2195 H 208.14 -2.53989 0.190185 0
M  V30 2196 H 208.923 -2.91092 1.81989 0
M  V30 2197 N 211.368 -0.403325 -1.52352 0
M  V30 2198 C 212.779 0.0675782 -1.86578 0
M  V30 2199 C 213.13 1.44941 -1.32236 0
M  V30 2200 O 212.255 2.06112 -0.659307 0
M  V30 2201 C 212.85 0.129404 -3.38553 0
M  V30 2202 C 211.409 0.544629 -3.72439 0
M  V30 2203 C 210.556 -0.284551 -2.75836 0
M  V30 2204 H 213.507 -0.620631 -1.46061 0
M  V30 2205 H 213.528 0.94581 -3.68558 0
M  V30 2206 H 213.04 -0.87645 -3.78074 0
M  V30 2207 H 211.141 1.55734 -3.38493 0
M  V30 2208 H 211.254 0.293046 -4.78203 0
M  V30 2209 H 209.618 0.252258 -2.53448 0
M  V30 2210 H 210.401 -1.28865 -3.18196 0
M  V30 2211 N 212.846 1.57033 -0.133567 0
M  V30 2212 C 213.776 2.1909 0.807567 0
M  V30 2213 C 214.757 1.13517 1.26681 0
M  V30 2214 O 215.942 1.41809 1.32679 0
M  V30 2215 C 213.072 2.80188 2.05212 0
M  V30 2216 C 212.026 3.91471 1.73015 0
M  V30 2217 C 211.352 4.39443 3.04622 0
M  V30 2218 C 212.652 5.12886 0.987168 0
M  V30 2219 H 214.346 2.97988 0.290403 0
M  V30 2220 H 211.892 1.43335 0.138239 0
M  V30 2221 H 213.845 3.22264 2.71521 0
M  V30 2222 H 212.569 1.98601 2.59278 0
M  V30 2223 H 211.228 3.49993 1.0909 0
M  V30 2224 H 210.876 3.54695 3.56651 0
M  V30 2225 H 210.576 5.14495 2.83847 0
M  V30 2226 H 212.1 4.8418 3.72024 0
M  V30 2227 H 213.514 5.51891 1.55208 0
M  V30 2228 H 211.911 5.93615 0.87985 0
M  V30 2229 H 212.981 4.84894 -0.0235286 0
M  V30 2230 N 214.325 -0.140222 1.56975 0
M  V30 2231 C 215.275 -1.17827 1.95194 0
M  V30 2232 C 216.259 -1.38195 0.824075 0
M  V30 2233 O 217.451 -1.39643 1.0876 0
M  V30 2234 C 214.58 -2.51024 2.34184 0
M  V30 2235 C 213.666 -2.3422 3.53556 0
M  V30 2236 N 214.057 -1.87185 4.69889 0
M  V30 2237 C 212.355 -2.64949 3.58773 0
M  V30 2238 C 213.056 -1.83586 5.5197 0
M  V30 2239 N 212.032 -2.2715 4.93866 0
M  V30 2240 H 215.834 -0.806817 2.82609 0
M  V30 2241 H 213.348 -0.348208 1.58623 0
M  V30 2242 H 215.345 -3.26074 2.59772 0
M  V30 2243 H 214.005 -2.88945 1.48124 0
M  V30 2244 H 215.016 -1.57048 4.93514 0
M  V30 2245 H 211.693 -3.067 2.8327 0
M  V30 2246 H 213.083 -1.48655 6.55249 0
M  V30 2247 N 215.803 -1.52179 -0.40978 0
M  V30 2248 C 217.033 -1.69807 -1.17682 0
M  V30 2249 C 217.441 -0.406908 -1.84773 0
M  V30 2250 O 216.784 0.626863 -1.72673 0
M  V30 2251 C 216.846 -2.77712 -2.2829 0
M  V30 2252 C 216.51 -4.19481 -1.81341 0
M  V30 2253 C 217.507 -5.03345 -1.30154 0
M  V30 2254 C 215.192 -4.65713 -1.88194 0
M  V30 2255 C 217.186 -6.31511 -0.864416 0
M  V30 2256 C 214.873 -5.93869 -1.44093 0
M  V30 2257 C 215.871 -6.76597 -0.933023 0
M  V30 2258 O 215.559 -8.02354 -0.49838 0
M  V30 2259 H 215.291 -0.572372 -0.359675 0
M  V30 2260 H 217.845 -1.99511 -0.488311 0
M  V30 2261 H 216.075 -2.43383 -3.00502 0
M  V30 2262 H 217.764 -2.83946 -2.90051 0
M  V30 2263 H 218.53 -4.68819 -1.24232 0
M  V30 2264 H 214.409 -4.01424 -2.26671 0
M  V30 2265 H 217.953 -6.96033 -0.467286 0
M  V30 2266 H 213.85 -6.27903 -1.49694 0
M  V30 2267 H 214.618 -8.16135 -0.621747 0
M  V30 2268 N 217.281 0.66697 -1.42791 0
M  V30 2269 C 218.509 1.45505 -1.47091 0
M  V30 2270 C 218.924 1.8861 -0.0845873 0
M  V30 2271 O 218.281 1.58632 0.90234 0
M  V30 2272 C 218.332 2.69906 -2.40485 0
M  V30 2273 O 218.053 2.28608 -3.73725 0
M  V30 2274 C 219.554 3.63396 -2.53886 0
M  V30 2275 H 216.774 0.447459 -0.500022 0
M  V30 2276 H 219.318 0.818866 -1.8739 0
M  V30 2277 H 217.473 3.29696 -2.03419 0
M  V30 2278 H 217.887 3.08997 -4.23817 0
M  V30 2279 H 219.361 4.47387 -3.2334 0
M  V30 2280 H 219.838 4.09824 -1.57927 0
M  V30 2281 H 220.444 3.09495 -2.91706 0
M  V30 2282 N 218.759 1.29093 0.90403 0
M  V30 2283 C 220.006 1.16813 1.65411 0
M  V30 2284 C 220.334 -0.28128 1.92455 0
M  V30 2285 O 219.589 -1.22006 1.53013 0
M  V30 2286 C 219.888 1.92224 3.01305 0
M  V30 2287 C 219.554 3.41968 2.93885 0
M  V30 2288 C 218.216 3.82807 2.91569 0
M  V30 2289 C 220.568 4.37409 2.83413 0
M  V30 2290 C 217.896 5.1741 2.76594 0
M  V30 2291 C 220.248 5.72097 2.69977 0
M  V30 2292 C 218.912 6.12199 2.66024 0
M  V30 2293 H 218.182 0.42745 0.605283 0
M  V30 2294 H 220.829 1.59981 1.05254 0
M  V30 2295 H 219.134 1.41635 3.65304 0
M  V30 2296 H 220.831 1.80131 3.58265 0
M  V30 2297 H 217.421 3.09504 2.96488 0
M  V30 2298 H 221.605 4.06813 2.84283 0
M  V30 2299 H 216.861 5.47596 2.71935 0
M  V30 2300 H 221.035 6.45704 2.60844 0
M  V30 2301 H 218.662 7.16448 2.54178 0
M  V30 2302 N 220.237 -1.11381 1.11499 0
M  V30 2303 C 221.465 -1.86934 0.88675 0
M  V30 2304 C 221.88 -1.80195 -0.563476 0
M  V30 2305 O 221.237 -1.18367 -1.38908 0
M  V30 2306 C 221.288 -3.35722 1.34064 0
M  V30 2307 O 221.009 -3.4232 2.73401 0
M  V30 2308 C 222.51 -4.2818 1.14791 0
M  V30 2309 H 219.73 -0.591117 0.317523 0
M  V30 2310 H 222.274 -1.40865 1.48248 0
M  V30 2311 H 220.429 -3.79294 0.788355 0
M  V30 2312 H 220.843 -4.34971 2.93087 0
M  V30 2313 H 222.317 -5.30817 1.5145 0
M  V30 2314 H 222.794 -4.39113 0.0875279 0
M  V30 2315 H 223.4 -3.90402 1.68721 0
M  V30 2316 N 221.715 -0.905404 -1.28997 0
M  V30 2317 C 222.992 -0.453513 -1.9027 0
M  V30 2318 C 223.372 1.06721 -1.82137 0
M  V30 2319 O 222.72 1.91159 -1.25182 0
M  V30 2320 C 222.93 -0.974494 -3.35119 0
M  V30 2321 C 224.278 -1.0216 -4.12127 0
M  V30 2322 O 225.302 -0.922557 -3.44046 0
M  V30 2323 O 224.161 -1.17121 -5.33802 0
M  V30 2324 H 221.255 -0.142347 -0.814657 0
M  V30 2325 H 223.801 -0.995642 -1.37423 0
M  V30 2326 H 222.573 -2.01848 -3.35221 0
M  V30 2327 H 222.196 -0.412706 -3.95452 0
M  V30 2328 N 223.193 1.4272 -0.668489 0
M  V30 2329 C 224.156 2.292 0.00448567 0
M  V30 2330 C 225.156 1.43001 0.735339 0
M  V30 2331 O 226.346 1.64461 0.57429 0
M  V30 2332 C 223.478 3.25375 1.01705 0
M  V30 2333 H 224.671 2.90199 -0.756608 0
M  V30 2334 H 222.224 1.50254 -0.430506 0
M  V30 2335 H 222.959 2.69301 1.80686 0
M  V30 2336 H 222.744 3.88944 0.496463 0
M  V30 2337 H 224.234 3.90245 1.48655 0
M  V30 2338 N 224.671 0.411399 1.52136 0
M  V30 2339 C 225.896 -0.165538 2.06738 0
M  V30 2340 C 226.321 -1.379 1.27926 0
M  V30 2341 O 225.679 -1.78628 0.310114 0
M  V30 2342 C 225.727 -0.492124 3.57226 0
M  V30 2343 O 224.831 -1.58276 3.80818 0
M  V30 2344 H 224.172 -0.0132132 0.663869 0
M  V30 2345 H 226.702 0.585253 1.96051 0
M  V30 2346 H 226.712 -0.750104 4.01045 0
M  V30 2347 H 225.387 0.394922 4.14021 0
M  V30 2348 H 223.964 -1.31677 3.48877 0
M  V30 2349 N 226.149 -1.5696 0.141893 0
M  V30 2350 C 227.397 -1.95573 -0.509484 0
M  V30 2351 C 227.718 -1.02746 -1.65736 0
M  V30 2352 O 226.988 -0.0880311 -1.95702 0
M  V30 2353 H 225.568 -0.722115 -0.191205 0
M  V30 2354 H 228.23 -1.93697 0.216196 0
M  V30 2355 H 227.326 -2.99171 -0.889 0
M  V30 2356 N 227.627 0.131896 -1.57047 0
M  V30 2357 C 228.537 1.1815 -2.02676 0
M  V30 2358 C 229.553 1.46113 -0.944824 0
M  V30 2359 O 230.729 1.57485 -1.25541 0
M  V30 2360 C 227.794 2.49139 -2.41103 0
M  V30 2361 C 226.855 2.28688 -3.63318 0
M  V30 2362 C 226.088 3.53431 -3.99903 0
M  V30 2363 O 226.311 4.60223 -3.36973 0
M  V30 2364 O 225.245 3.45198 -4.93074 0
M  V30 2365 H 229.071 0.824069 -2.92306 0
M  V30 2366 H 226.656 0.341745 -1.45439 0
M  V30 2367 H 228.538 3.26338 -2.66611 0
M  V30 2368 H 227.213 2.84382 -1.54624 0
M  V30 2369 H 226.12 1.4939 -3.42977 0
M  V30 2370 H 227.453 1.98355 -4.50462 0
M  V30 2371 N 229.106 1.52395 0.401703 0
M  V30 2372 C 230.331 1.70972 1.17403 0
M  V30 2373 C 230.756 0.421615 1.83314 0
M  V30 2374 O 230.114 -0.621564 1.70312 0
M  V30 2375 C 230.162 2.85151 2.20728 0
M  V30 2376 O 229.266 2.51238 3.27037 0
M  V30 2377 H 228.607 0.568927 0.342372 0
M  V30 2378 H 231.137 1.99131 0.469891 0
M  V30 2379 H 231.147 3.10279 2.64936 0
M  V30 2380 H 229.822 3.78603 1.7214 0
M  V30 2381 H 228.399 2.36808 2.88057 0
M  V30 2382 N 230.584 -0.659388 1.43143 0
M  V30 2383 C 231.833 -1.41518 1.43721 0
M  V30 2384 C 232.146 -1.95499 0.0628176 0
M  V30 2385 O 233.352 -2.71446 -0.0539683 0
M  V30 2386 C 231.808 -2.5608 2.52885 0
M  V30 2387 C 231.416 -2.08733 3.96402 0
M  V30 2388 C 233.16 -3.3349 2.62649 0
M  V30 2389 C 231.067 -3.20469 4.97045 0
M  V30 2390 H 229.997 -0.531705 0.534608 0
M  V30 2391 H 232.648 -0.712343 1.69109 0
M  V30 2392 H 231.03 -3.28805 2.20688 0
M  V30 2393 H 232.204 -1.43059 4.3803 0
M  V30 2394 H 230.519 -1.44219 3.90627 0
M  V30 2395 H 233.116 -4.16734 3.35017 0
M  V30 2396 H 233.459 -3.8111 1.67513 0
M  V30 2397 H 233.992 -2.67842 2.94118 0
M  V30 2398 H 230.731 -2.77824 5.93712 0
M  V30 2399 H 230.251 -3.84874 4.60034 0
M  V30 2400 H 231.93 -3.85698 5.19467 0
M  V30 2401 N 232.062 -1.29571 -0.897171 0
M  V30 2402 C 233.308 -1.17863 -1.65034 0
M  V30 2403 C 233.641 0.268729 -1.92332 0
M  V30 2404 O 232.916 1.19378 -1.53555 0
M  V30 2405 C 233.199 -1.995 -2.99786 0
M  V30 2406 C 233.052 -3.5239 -2.79538 0
M  V30 2407 C 234.371 -1.82335 -4.00552 0
M  V30 2408 H 231.49 -0.429528 -0.598895 0
M  V30 2409 H 234.132 -1.59072 -1.03905 0
M  V30 2410 H 232.282 -1.64485 -3.51962 0
M  V30 2411 H 233.954 -3.97401 -2.34244 0
M  V30 2412 H 232.197 -3.77187 -2.14273 0
M  V30 2413 H 232.868 -4.04787 -3.75302 0
M  V30 2414 H 235.344 -2.12924 -3.57495 0
M  V30 2415 H 234.22 -2.41801 -4.92771 0
M  V30 2416 H 234.481 -0.779209 -4.35179 0
M  V30 2417 N 233.54 1.10788 -1.12088 0
M  V30 2418 C 234.789 1.82036 -0.868659 0
M  V30 2419 C 235.102 1.85929 0.607426 0
M  V30 2420 O 236.308 2.53346 0.97613 0
M  V30 2421 C 234.764 3.26951 -1.50435 0
M  V30 2422 C 234.372 3.31367 -3.01496 0
M  V30 2423 C 236.116 4.03053 -1.33225 0
M  V30 2424 C 234.023 4.7072 -3.58017 0
M  V30 2425 H 232.953 0.682108 -0.321318 0
M  V30 2426 H 235.604 1.24618 -1.34694 0
M  V30 2427 H 233.986 3.84343 -0.953735 0
M  V30 2428 H 235.16 2.83819 -3.6302 0
M  V30 2429 H 233.475 2.6875 -3.18061 0
M  V30 2430 H 236.072 5.05981 -1.72878 0
M  V30 2431 H 236.415 4.15387 -0.275529 0
M  V30 2432 H 236.948 3.52066 -1.85188 0
M  V30 2433 H 233.687 4.63585 -4.63432 0
M  V30 2434 H 233.207 5.1865 -3.01268 0
M  V30 2435 H 234.886 5.39685 -3.56859 0
M  V30 2436 N 235.018 0.912232 1.28515 0
M  V30 2437 C 235.928 0.404506 2.31086 0
M  V30 2438 C 236.944 -0.50707 1.66448 0
M  V30 2439 O 238.12 -0.393624 1.97516 0
M  V30 2440 C 235.185 -0.348572 3.44943 0
M  V30 2441 C 234.246 0.59604 4.25142 0
M  V30 2442 C 233.479 -0.121194 5.33562 0
M  V30 2443 O 233.702 -1.34317 5.5436 0
M  V30 2444 O 232.636 0.542716 5.99448 0
M  V30 2445 H 236.462 1.25579 2.76521 0
M  V30 2446 H 234.047 0.676998 1.33181 0
M  V30 2447 H 235.929 -0.77395 4.14232 0
M  V30 2448 H 234.604 -1.17571 3.01594 0
M  V30 2449 H 233.511 1.07079 3.58448 0
M  V30 2450 H 234.844 1.38995 4.72167 0
M  V30 2451 N 236.496 -1.42363 0.676048 0
M  V30 2452 C 237.907 -1.84649 0.275948 0
M  V30 2453 C 238.258 -1.56588 -1.18214 0
M  V30 2454 O 237.383 -1.02634 -1.90513 0
M  V30 2455 C 237.978 -3.35178 0.494053 0
M  V30 2456 C 236.537 -3.76109 0.148061 0
M  V30 2457 C 235.684 -2.65931 0.785891 0
M  V30 2458 H 238.635 -1.32192 0.878121 0
M  V30 2459 H 238.656 -3.79655 -0.25343 0
M  V30 2460 H 238.168 -3.55571 1.55535 0
M  V30 2461 H 236.269 -3.61323 -0.909742 0
M  V30 2462 H 236.382 -4.7546 0.589454 0
M  V30 2463 H 234.746 -2.53773 0.217113 0
M  V30 2464 H 235.529 -2.89146 1.85067 0
M  V30 2465 N 237.974 -0.419461 -1.51915 0
M  V30 2466 C 239.251 0.211999 -1.94448 0
M  V30 2467 C 239.631 1.61703 -1.35703 0
M  V30 2468 O 238.979 2.22102 -0.536931 0
M  V30 2469 C 239.189 0.207872 -3.4838 0
M  V30 2470 C 240.537 0.422192 -4.22496 0
M  V30 2471 O 241.561 0.286778 -3.55044 0
M  V30 2472 O 240.42 0.690009 -5.42126 0
M  V30 2473 H 237.514 0.139586 -0.815135 0
M  V30 2474 H 240.06 -0.476151 -1.62883 0
M  V30 2475 H 238.832 -0.775102 -3.83546 0
M  V30 2476 H 238.455 0.939688 -3.86336 0
M  V30 2477 N 239.452 1.56882 -0.150215 0
M  V30 2478 C 240.399 2.16922 0.788244 0
M  V30 2479 C 241.369 1.10303 1.24187 0
M  V30 2480 O 242.554 1.38359 1.31383 0
M  V30 2481 C 239.694 2.79754 2.02068 0
M  V30 2482 C 238.807 4.00775 1.61257 0
M  V30 2483 C 237.942 4.51595 2.79705 0
M  V30 2484 C 236.981 5.65074 2.35282 0
M  V30 2485 N 236.118 6.10499 3.4675 0
M  V30 2486 H 240.958 2.96779 0.269444 0
M  V30 2487 H 238.495 1.46599 0.12128 0
M  V30 2488 H 240.453 3.14329 2.74323 0
M  V30 2489 H 239.083 2.02536 2.51354 0
M  V30 2490 H 238.135 3.72158 0.787553 0
M  V30 2491 H 239.447 4.82978 1.24633 0
M  V30 2492 H 238.601 4.88242 3.60145 0
M  V30 2493 H 237.34 3.68406 3.19576 0
M  V30 2494 H 236.345 5.28 1.53283 0
M  V30 2495 H 237.57 6.50052 1.96493 0
M  V30 2496 H 235.516 5.30243 3.86236 0
M  V30 2497 H 235.433 6.87637 3.14152 0
M  V30 2498 H 236.701 6.51791 4.27537 0
M  V30 2499 N 240.93 -0.123565 1.57115 0
M  V30 2500 C 242.158 -0.846461 1.88793 0
M  V30 2501 C 242.573 -1.73652 0.740976 0
M  V30 2502 O 241.93 -1.80207 -0.288393 0
M  V30 2503 C 241.981 -1.6837 3.19897 0
M  V30 2504 O 241.702 -0.829477 4.30176 0
M  V30 2505 C 243.203 -2.51214 3.65248 0
M  V30 2506 H 240.423 -0.243573 0.625231 0
M  V30 2507 H 242.967 -0.109324 2.04208 0
M  V30 2508 H 241.122 -2.37364 3.06165 0
M  V30 2509 H 241.536 -1.40651 5.0529 0
M  V30 2510 H 243.01 -3.05497 4.59756 0
M  V30 2511 H 243.487 -3.28359 2.9168 0
M  V30 2512 H 244.093 -1.8747 3.81752 0
M  V30 2513 N 242.408 -1.52605 -0.393616 0
M  V30 2514 C 243.656 -1.67093 -1.13685 0
M  V30 2515 C 243.977 -0.411011 -1.90619 0
M  V30 2516 O 243.247 0.574491 -1.87287 0
M  V30 2517 H 241.827 -0.615923 -0.422668 0
M  V30 2518 H 244.489 -1.89704 -0.447039 0
M  V30 2519 H 243.585 -2.51922 -1.84232 0
M  V30 2520 N 243.887 0.651787 -1.4349 0
M  V30 2521 C 245.136 1.40754 -1.44469 0
M  V30 2522 C 245.449 1.95463 -0.0731845 0
M  V30 2523 O 246.655 2.71471 0.0395721 0
M  V30 2524 C 245.111 2.54735 -2.5424 0
M  V30 2525 C 244.719 2.06628 -3.97504 0
M  V30 2526 C 246.463 3.32092 -2.64414 0
M  V30 2527 C 244.37 3.17829 -4.98737 0
M  V30 2528 H 243.3 0.528862 -0.53742 0
M  V30 2529 H 245.951 0.703365 -1.69485 0
M  V30 2530 H 244.333 3.2763 -2.22428 0
M  V30 2531 H 245.507 1.40734 -4.38783 0
M  V30 2532 H 243.822 1.42146 -3.91387 0
M  V30 2533 H 246.419 4.14952 -3.37223 0
M  V30 2534 H 246.762 3.80217 -1.69532 0
M  V30 2535 H 247.295 2.66279 -2.95534 0
M  V30 2536 H 244.034 2.74671 -5.95177 0
M  V30 2537 H 243.554 3.82429 -4.62069 0
M  V30 2538 H 245.233 3.82937 -5.21505 0
M  V30 2539 N 245.365 1.30045 0.890287 0
M  V30 2540 C 246.593 1.21472 1.67487 0
M  V30 2541 C 247.008 -0.223241 1.87476 0
M  V30 2542 O 246.365 -1.14828 1.41847 0
M  V30 2543 C 246.416 1.93394 3.05419 0
M  V30 2544 O 246.137 3.31576 2.86337 0
M  V30 2545 C 247.638 1.91414 3.99844 0
M  V30 2546 H 244.858 0.420604 0.522813 0
M  V30 2547 H 247.402 1.7158 1.11268 0
M  V30 2548 H 245.557 1.47099 3.58386 0
M  V30 2549 H 245.971 3.67929 3.73802 0
M  V30 2550 H 247.445 2.46285 4.94012 0
M  V30 2551 H 247.922 0.891833 4.3005 0
M  V30 2552 H 248.528 2.37496 3.52811 0
M  V30 2553 N 246.843 -1.10192 1.12674 0
M  V30 2554 C 248.092 -1.81573 0.8783 0
M  V30 2555 C 248.405 -1.86249 -0.597557 0
M  V30 2556 O 249.611 -2.5386 -0.962681 0
M  V30 2557 C 248.067 -3.26149 1.52167 0
M  V30 2558 C 247.675 -3.29763 3.03249 0
M  V30 2559 C 249.419 -4.0234 1.3536 0
M  V30 2560 C 247.326 -4.68815 3.60508 0
M  V30 2561 H 246.256 -0.680394 0.324931 0
M  V30 2562 H 248.907 -1.23902 1.35353 0
M  V30 2563 H 247.289 -3.83832 0.974104 0
M  V30 2564 H 248.463 -2.8189 3.6452 0
M  V30 2565 H 246.778 -2.67059 3.19481 0
M  V30 2566 H 249.375 -5.05058 1.75559 0
M  V30 2567 H 249.718 -4.15235 0.297554 0
M  V30 2568 H 250.251 -3.51079 1.87052 0
M  V30 2569 H 246.99 -4.61121 4.65884 0
M  V30 2570 H 246.51 -5.17045 3.04014 0
M  V30 2571 H 248.189 -5.37785 3.59717 0
M  V30 2572 N 248.321 -0.919034 -1.28029 0
M  V30 2573 C 249.271 -0.382574 -2.24767 0
M  V30 2574 C 250.255 0.508286 -1.52661 0
M  V30 2575 O 251.447 0.347145 -1.73562 0
M  V30 2576 C 248.576 0.371432 -3.41285 0
M  V30 2577 C 247.662 -0.535449 -4.20706 0
M  V30 2578 N 248.053 -1.65141 -4.78082 0
M  V30 2579 C 246.351 -0.336824 -4.44726 0
M  V30 2580 C 247.052 -2.21475 -5.37888 0
M  V30 2581 N 246.028 -1.50537 -5.22341 0
M  V30 2582 H 249.83 -1.23477 -2.66703 0
M  V30 2583 H 247.344 -0.772299 -1.42861 0
M  V30 2584 H 249.341 0.772638 -4.09678 0
M  V30 2585 H 248.001 1.22066 -3.00882 0
M  V30 2586 H 249.012 -2.03392 -4.7629 0
M  V30 2587 H 245.689 0.47246 -4.14818 0
M  V30 2588 H 247.079 -3.15379 -5.93284 0
M  V30 2589 N 249.799 1.42003 -0.683588 0
M  V30 2590 C 251.215 1.55625 -0.353976 0
M  V30 2591 C 251.415 1.66151 1.14 0
M  V30 2592 O 250.471 1.63329 1.92561 0
M  V30 2593 C 251.784 2.80171 -1.092 0
M  V30 2594 C 253.332 2.93954 -1.07518 0
M  V30 2595 C 253.807 4.21372 -1.79471 0
M  V30 2596 N 255.298 4.28303 -1.76381 0
M  V30 2597 C 256.033 5.25729 -2.28904 0
M  V30 2598 N 255.529 6.29254 -2.89846 0
M  V30 2599 N 257.322 5.17586 -2.19228 0
M  V30 2600 H 249.473 1.33415 -1.6527 0
M  V30 2601 H 251.736 0.64282 -0.696769 0
M  V30 2602 H 251.442 2.78561 -2.14701 0
M  V30 2603 H 251.316 3.7133 -0.662862 0
M  V30 2604 H 253.703 2.95086 -0.028475 0
M  V30 2605 H 253.784 2.04002 -1.54328 0
M  V30 2606 H 253.428 4.21001 -2.84114 0
M  V30 2607 H 253.358 5.10275 -1.30104 0
M  V30 2608 H 255.849 3.54119 -1.31939 0
M  V30 2609 H 256.162 6.99964 -3.27522 0
M  V30 2610 H 254.507 6.29791 -2.93919 0
M  V30 2611 H 257.698 4.35631 -1.71299 0
M  V30 2612 H 257.871 5.93348 -2.60466 0
M  V30 2613 N 251.277 0.427512 1.51691 0
M  V30 2614 C 252.224 -0.388867 2.275 0
M  V30 2615 C 253.194 -1.02532 1.30677 0
M  V30 2616 O 254.379 -1.0461 1.59566 0
M  V30 2617 C 251.519 -1.48954 3.11298 0
M  V30 2618 C 250.632 -0.872194 4.23104 0
M  V30 2619 C 249.767 -1.94709 4.94228 0
M  V30 2620 C 248.806 -1.30766 5.97969 0
M  V30 2621 N 247.943 -2.32349 6.62539 0
M  V30 2622 H 252.783 0.263997 2.96828 0
M  V30 2623 H 250.32 0.142033 1.46413 0
M  V30 2624 H 252.278 -2.13887 3.58201 0
M  V30 2625 H 250.908 -2.11217 2.44105 0
M  V30 2626 H 249.96 -0.111419 3.80237 0
M  V30 2627 H 251.272 -0.365264 4.97461 0
M  V30 2628 H 250.426 -2.67327 5.44629 0
M  V30 2629 H 249.165 -2.48773 4.1948 0
M  V30 2630 H 248.17 -0.566902 5.4687 0
M  V30 2631 H 249.395 -0.774483 6.74669 0
M  V30 2632 H 247.341 -2.85511 5.90609 0
M  V30 2633 H 247.258 -1.8652 7.3263 0
M  V30 2634 H 248.526 -3.04481 7.17574 0
M  V30 2635 N 252.755 -1.56801 0.158532 0
M  V30 2636 C 253.983 -2.00859 -0.496303 0
M  V30 2637 C 254.398 -1.03871 -1.57659 0
M  V30 2638 O 253.755 -0.0375165 -1.82461 0
M  V30 2639 C 253.806 -3.4479 -1.08638 0
M  V30 2640 O 253.527 -4.38072 -0.0492322 0
M  V30 2641 C 255.028 -4.04185 -1.8207 0
M  V30 2642 H 252.248 -0.65864 -0.128199 0
M  V30 2643 H 254.792 -2.02885 0.256506 0
M  V30 2644 H 252.947 -3.43579 -1.78975 0
M  V30 2645 H 253.361 -5.2227 -0.483102 0
M  V30 2646 H 254.835 -5.06857 -2.18633 0
M  V30 2647 H 255.312 -3.45549 -2.71095 0
M  V30 2648 H 255.918 -4.0906 -1.16405 0
M  V30 2649 N 254.233 0.115231 -1.57178 0
M  V30 2650 C 255.482 0.820945 -1.84237 0
M  V30 2651 C 255.795 1.80866 -0.744761 0
M  V30 2652 O 257.001 2.56083 -0.901871 0
M  V30 2653 C 255.457 1.51072 -3.26658 0
M  V30 2654 C 255.065 0.563795 -4.44438 0
M  V30 2655 C 256.809 2.20134 -3.62962 0
M  V30 2656 C 254.716 1.25701 -5.77887 0
M  V30 2657 H 253.646 0.310328 -0.687177 0
M  V30 2658 H 256.297 0.0737134 -1.83352 0
M  V30 2659 H 254.679 2.30471 -3.22024 0
M  V30 2660 H 255.853 -0.197247 -4.60378 0
M  V30 2661 H 254.168 -0.0200638 -4.16395 0
M  V30 2662 H 256.765 2.72696 -4.59936 0
M  V30 2663 H 257.108 2.98107 -2.90582 0
M  V30 2664 H 257.641 1.47619 -3.69396 0
M  V30 2665 H 254.38 0.518493 -6.53446 0
M  V30 2666 H 253.9 1.98997 -5.65827 0
M  V30 2667 H 255.579 1.78915 -6.2177 0
M  V30 2668 N 255.711 1.52812 0.385517 0
M  V30 2669 C 256.959 1.67694 1.12797 0
M  V30 2670 C 257.28 0.421115 1.90399 0
M  V30 2671 O 256.55 -0.564551 1.87589 0
M  V30 2672 H 255.13 0.618155 0.419396 0
M  V30 2673 H 257.792 1.89938 0.436972 0
M  V30 2674 H 256.888 2.52896 1.82894 0
M  V30 2675 N 257.189 -0.644168 1.43834 0
M  V30 2676 C 258.435 -1.40603 1.46146 0
M  V30 2677 C 258.768 -1.93997 0.0887717 0
M  V30 2678 O 258.043 -1.72854 -0.891724 0
M  V30 2679 C 258.326 -2.58086 2.51124 0
M  V30 2680 C 258.179 -2.10126 3.97702 0
M  V30 2681 C 259.498 -3.60291 2.52742 0
M  V30 2682 H 256.617 -0.509905 0.532134 0
M  V30 2683 H 259.259 -0.729502 1.75437 0
M  V30 2684 H 257.409 -3.15801 2.26278 0
M  V30 2685 H 259.081 -1.57342 4.33637 0
M  V30 2686 H 257.324 -1.41419 4.10101 0
M  V30 2687 H 257.995 -2.94649 4.66783 0
M  V30 2688 H 260.471 -3.12352 2.7491 0
M  V30 2689 H 259.347 -4.40032 3.28121 0
M  V30 2690 H 259.608 -4.1349 1.56455 0
M  V30 2691 N 258.668 -1.30515 -0.883378 0
M  V30 2692 C 259.601 -1.11359 -1.99184 0
M  V30 2693 C 260.579 -0.0207858 -1.62587 0
M  V30 2694 O 261.763 -0.174646 -1.87689 0
M  V30 2695 C 258.89 -0.69871 -3.31415 0
M  V30 2696 C 257.936 -1.79261 -3.86998 0
M  V30 2697 S 258.769 -3.39536 -4.14096 0
M  V30 2698 C 259.925 -2.99954 -5.49344 0
M  V30 2699 H 260.158 -2.052 -2.15128 0
M  V30 2700 H 257.691 -1.14847 -1.03196 0
M  V30 2701 H 259.649 -0.466075 -4.07846 0
M  V30 2702 H 258.31 0.220368 -3.13326 0
M  V30 2703 H 257.503 -1.45464 -4.82552 0
M  V30 2704 H 257.105 -1.97961 -3.17313 0
M  V30 2705 H 259.397 -2.48013 -6.30473 0
M  V30 2706 H 260.34 -3.9442 -5.8808 0
M  V30 2707 H 260.748 -2.37775 -5.1198 0
M  V30 2708 N 260.146 1.09593 -1.13257 0
M  V30 2709 C 261.374 1.855 -0.916378 0
M  V30 2710 C 261.789 1.81069 0.534738 0
M  V30 2711 O 261.146 1.20562 1.37007 0
M  V30 2712 C 261.197 3.33546 -1.39388 0
M  V30 2713 O 260.918 3.37927 -2.78813 0
M  V30 2714 C 262.419 4.26299 -1.21588 0
M  V30 2715 H 259.639 0.585991 -0.326887 0
M  V30 2716 H 262.183 1.38488 -1.5047 0
M  V30 2717 H 260.338 3.77992 -0.848597 0
M  V30 2718 H 260.752 4.30254 -2.9997 0
M  V30 2719 H 262.226 5.28341 -1.59876 0
M  V30 2720 H 262.703 4.38918 -0.157376 0
M  V30 2721 H 263.309 3.87668 -1.7491 0
M  V30 2722 N 261.624 0.925811 1.2754 0
M  V30 2723 C 262.572 0.413897 2.28888 0
M  V30 2724 C 263.566 -0.500779 1.61829 0
M  V30 2725 O 264.772 -0.38069 1.75928 0
M  V30 2726 H 261.147 0.115274 0.743112 0
M  V30 2727 H 263.118 1.28151 2.69481 0
M  V30 2728 C 261.867 -0.319792 3.46226 0
M  V30 2729 H 261.19 0.374846 3.98039 0
M  V30 2730 H 262.63 -0.642435 4.19105 0
M  V30 2731 C 261.089 -1.53209 3.00048 0
M  V30 2732 O 261.619 -2.6309 3.03557 0
M  V30 2733 N 259.825 -1.38326 2.55566 0
M  V30 2734 H 259.372 -0.489292 2.5291 0
M  V30 2735 H 259.33 -2.19564 2.25031 0
M  V30 2736 N 263.102 -1.41638 0.69111 0
M  V30 2737 C 264.327 -2.06148 0.227583 0
M  V30 2738 C 264.752 -1.51652 -1.11281 0
M  V30 2739 O 264.11 -0.64164 -1.69566 0
M  V30 2740 C 264.158 -3.60095 0.190858 0
M  V30 2741 O 263.262 -4.03845 -0.835664 0
M  V30 2742 H 262.603 -0.654434 0.112306 0
M  V30 2743 H 265.133 -1.81484 0.944714 0
M  V30 2744 H 265.143 -4.07995 0.020207 0
M  V30 2745 H 263.818 -3.99129 1.16915 0
M  V30 2746 H 262.395 -3.67458 -0.63473 0
M  V30 2747 N 264.58 -0.43555 -1.51462 0
M  V30 2748 C 265.991 0.0279871 -1.86679 0
M  V30 2749 C 266.342 1.42104 -1.35281 0
M  V30 2750 O 265.467 2.04667 -0.702878 0
M  V30 2751 C 266.062 0.0575626 -3.38751 0
M  V30 2752 C 264.621 0.465507 -3.7351 0
M  V30 2753 C 263.768 -0.342996 -2.75171 0
M  V30 2754 H 266.719 -0.651473 -1.44712 0
M  V30 2755 H 266.74 0.867421 -3.70481 0
M  V30 2756 H 266.252 -0.956448 -3.7613 0
M  V30 2757 H 264.353 1.48519 -3.41721 0
M  V30 2758 H 264.466 0.191546 -4.78717 0
M  V30 2759 H 262.83 0.198442 -2.53926 0
M  V30 2760 H 263.613 -1.35585 -3.15391 0
M  V30 2761 N 266.058 1.56714 -0.166846 0
M  V30 2762 C 267.306 1.96358 0.478305 0
M  V30 2763 C 267.627 1.0537 1.6408 0
M  V30 2764 O 266.897 0.119154 1.95537 0
M  V30 2765 H 265.477 0.725065 0.179692 0
M  V30 2766 H 268.139 1.93329 -0.246985 0
M  V30 2767 H 267.235 3.00547 0.841292 0
M  V30 2768 N 267.536 -0.106894 1.57237 0
M  V30 2769 C 268.766 -0.825191 1.89405 0
M  V30 2770 C 269.174 -1.73374 0.757496 0
M  V30 2771 O 268.517 -1.81552 -0.280115 0
M  V30 2772 C 268.579 -1.70102 3.1671 0
M  V30 2773 C 268.243 -0.965523 4.46684 0
M  V30 2774 C 269.24 -0.300741 5.19029 0
M  V30 2775 C 266.925 -0.943105 4.93367 0
M  V30 2776 C 268.919 0.376622 6.36286 0
M  V30 2777 C 266.606 -0.261949 6.10538 0
M  V30 2778 C 267.604 0.396748 6.81847 0
M  V30 2779 O 267.292 1.06701 7.96787 0
M  V30 2780 H 267.024 -0.241852 0.631255 0
M  V30 2781 H 269.578 -0.0921491 2.05193 0
M  V30 2782 H 267.808 -2.47601 2.97036 0
M  V30 2783 H 269.497 -2.29483 3.34802 0
M  V30 2784 H 270.263 -0.309599 4.84011 0
M  V30 2785 H 266.142 -1.44524 4.3776 0
M  V30 2786 H 269.686 0.891334 6.91882 0
M  V30 2787 H 265.583 -0.250896 6.45012 0
M  V30 2788 H 266.351 0.972707 8.127 0
M  V30 2789 N 269.014 -1.53014 -0.377408 0
M  V30 2790 C 269.924 -1.81557 -1.48574 0
M  V30 2791 C 270.94 -0.703102 -1.59162 0
M  V30 2792 O 272.116 -0.99192 -1.75279 0
M  V30 2793 C 269.181 -1.9889 -2.83978 0
M  V30 2794 C 268.242 -3.22801 -2.83016 0
M  V30 2795 C 267.475 -3.39298 -4.11962 0
M  V30 2796 O 267.698 -2.60345 -5.0752 0
M  V30 2797 O 266.632 -4.32604 -4.18494 0
M  V30 2798 H 270.458 -2.75695 -1.27382 0
M  V30 2799 H 268.043 -1.38248 -0.566373 0
M  V30 2800 H 269.925 -2.11931 -3.6423 0
M  V30 2801 H 268.6 -1.07942 -3.05172 0
M  V30 2802 H 267.507 -3.15193 -2.01505 0
M  V30 2803 H 268.84 -4.13632 -2.66775 0
M  V30 2804 N 270.492 0.636531 -1.44174 0
M  V30 2805 C 271.738 1.39649 -1.47884 0
M  V30 2806 C 272.093 1.92098 -0.107747 0
M  V30 2807 O 271.386 1.70391 0.876208 0
M  V30 2808 C 271.58 2.58309 -2.47005 0
M  V30 2809 C 271.409 2.17476 -3.93617 0
M  V30 2810 C 270.179 2.0501 -4.61843 0
M  V30 2811 C 272.377 1.76722 -4.82984 0
M  V30 2812 N 270.359 1.57683 -5.93304 0
M  V30 2813 C 271.73 1.40601 -6.03847 0
M  V30 2814 C 273.785 1.64054 -4.70096 0
M  V30 2815 C 272.488 0.930787 -7.13252 0
M  V30 2816 C 274.514 1.17937 -5.79521 0
M  V30 2817 C 273.876 0.827625 -6.99521 0
M  V30 2818 H 269.975 0.506027 -0.596205 0
M  V30 2819 H 272.559 0.730791 -1.80465 0
M  V30 2820 H 270.73 3.22514 -2.16423 0
M  V30 2821 H 272.462 3.25083 -2.41045 0
M  V30 2822 H 269.217 2.25294 -4.16581 0
M  V30 2823 H 269.641 1.36334 -6.63131 0
M  V30 2824 H 274.283 1.89882 -3.77762 0
M  V30 2825 H 272.001 0.660012 -8.054 0
M  V30 2826 H 275.587 1.08601 -5.71574 0
M  V30 2827 H 274.467 0.476231 -7.82753 0
M  V30 2828 N 271.97 1.30982 0.876444 0
M  V30 2829 C 272.92 1.14688 1.97055 0
M  V30 2830 C 273.904 0.0596593 1.60789 0
M  V30 2831 O 275.096 0.283892 1.74708 0
M  V30 2832 C 272.225 0.849627 3.3262 0
M  V30 2833 C 271.311 1.97752 3.75173 0
M  V30 2834 N 271.702 3.22384 3.89746 0
M  V30 2835 C 270 1.8758 4.04635 0
M  V30 2836 C 270.701 3.96121 4.25985 0
M  V30 2837 N 269.677 3.24237 4.36315 0
M  V30 2838 H 273.479 2.09204 2.06424 0
M  V30 2839 H 270.993 1.22445 1.06682 0
M  V30 2840 H 272.99 0.713895 4.10742 0
M  V30 2841 H 271.65 -0.087376 3.24582 0
M  V30 2842 H 272.661 3.57575 3.74647 0
M  V30 2843 H 269.338 1.01303 4.05024 0
M  V30 2844 H 270.728 5.03491 4.44911 0
M  V30 2845 N 273.449 -1.08991 1.13837 0
M  V30 2846 C 274.381 -2.15606 0.777612 0
M  V30 2847 C 275.394 -1.61533 -0.202739 0
M  V30 2848 O 276.583 -1.78491 0.0181055 0
M  V30 2849 C 273.683 -3.3864 0.132623 0
M  V30 2850 C 272.856 -4.22115 1.1462 0
M  V30 2851 C 271.915 -5.23564 0.526074 0
M  V30 2852 O 270.941 -5.56678 1.18735 0
M  V30 2853 N 272.143 -5.76266 -0.699866 0
M  V30 2854 H 274.908 -2.47159 1.69506 0
M  V30 2855 H 272.469 -1.24747 1.03198 0
M  V30 2856 H 274.461 -4.03626 -0.29459 0
M  V30 2857 H 273.031 -3.04938 -0.687849 0
M  V30 2858 H 272.251 -3.53199 1.75055 0
M  V30 2859 H 273.539 -4.74709 1.83109 0
M  V30 2860 H 272.937 -5.51585 -1.25581 0
M  V30 2861 H 271.494 -6.42963 -1.06968 0
M  V30 2862 N 274.927 -0.932562 -1.27047 0
M  V30 2863 C 276.155 -0.592031 -1.98249 0
M  V30 2864 C 276.57 0.831062 -1.69525 0
M  V30 2865 O 275.927 1.55299 -0.958561 0
M  V30 2866 C 275.978 -0.814279 -3.5221 0
M  V30 2867 O 275.699 -2.18139 -3.7993 0
M  V30 2868 C 277.2 -0.483121 -4.4066 0
M  V30 2869 H 274.42 -0.223896 -0.632544 0
M  V30 2870 H 276.964 -1.25091 -1.61779 0
M  V30 2871 H 275.119 -0.20213 -3.86872 0
M  V30 2872 H 275.533 -2.235 -4.74498 0
M  V30 2873 H 277.007 -0.689298 -5.47679 0
M  V30 2874 H 277.484 0.581546 -4.35333 0
M  V30 2875 H 278.09 -1.07362 -4.11526 0
M  V30 2876 N 276.405 1.4127 -0.698611 0
M  V30 2877 C 277.353 2.32588 -0.023855 0
M  V30 2878 C 278.347 1.51128 0.765292 0
M  V30 2879 O 279.553 1.67043 0.670571 0
M  V30 2880 H 275.928 0.751918 0.0110871 0
M  V30 2881 H 277.899 2.87167 -0.811031 0
M  V30 2882 C 276.648 3.35947 0.896369 0
M  V30 2883 H 275.971 3.98684 0.298548 0
M  V30 2884 H 277.411 4.02376 1.33676 0
M  V30 2885 C 275.87 2.70076 2.01396 0
M  V30 2886 O 276.4 2.55093 3.10307 0
M  V30 2887 N 274.606 2.28724 1.79259 0
M  V30 2888 H 274.153 2.4111 0.906841 0
M  V30 2889 H 274.111 1.84986 2.54219 0
M  V30 2890 N 277.883 0.443576 1.51229 0
M  V30 2891 C 278.813 -0.355142 2.30783 0
M  V30 2892 C 279.794 -1.0154 1.36468 0
M  V30 2893 O 280.979 -1.01785 1.65389 0
M  V30 2894 C 278.109 -1.45312 3.15439 0
M  V30 2895 C 277.063 -0.916002 4.18083 0
M  V30 2896 C 276.389 -2.1102 4.91299 0
M  V30 2897 C 277.689 0.0538602 5.22272 0
M  V30 2898 H 279.383 0.308767 2.97804 0
M  V30 2899 H 276.929 0.149937 1.43217 0
M  V30 2900 H 278.882 -2.01914 3.69876 0
M  V30 2901 H 277.606 -2.14541 2.46252 0
M  V30 2902 H 276.265 -0.372145 3.64706 0
M  V30 2903 H 275.913 -2.78882 4.18609 0
M  V30 2904 H 275.613 -1.75717 5.60712 0
M  V30 2905 H 277.137 -2.68164 5.48562 0
M  V30 2906 H 278.551 -0.422069 5.71744 0
M  V30 2907 H 276.948 0.319776 5.99247 0
M  V30 2908 H 278.018 0.98858 4.74716 0
M  V30 2909 N 279.361 -1.56624 0.175154 0
M  V30 2910 C 280.777 -1.58571 -0.180966 0
M  V30 2911 C 280.977 -1.19065 -1.6256 0
M  V30 2912 O 280.033 -0.904044 -2.35761 0
M  V30 2913 C 281.346 -3.00522 0.103326 0
M  V30 2914 C 282.894 -3.12972 0.0418426 0
M  V30 2915 C 283.369 -4.57022 0.299175 0
M  V30 2916 N 284.86 -4.62541 0.247086 0
M  V30 2917 C 285.595 -5.71857 0.420318 0
M  V30 2918 N 285.091 -6.89717 0.652816 0
M  V30 2919 N 286.884 -5.60972 0.355957 0
M  V30 2920 H 279.035 -1.80589 1.11809 0
M  V30 2921 H 281.298 -0.837178 0.444788 0
M  V30 2922 H 281.004 -3.33916 1.10422 0
M  V30 2923 H 280.878 -3.72344 -0.603299 0
M  V30 2924 H 283.265 -2.79403 -0.949636 0
M  V30 2925 H 283.346 -2.43578 0.781238 0
M  V30 2926 H 282.99 -4.913 1.28788 0
M  V30 2927 H 282.92 -5.24579 -0.460876 0
M  V30 2928 H 285.411 -3.77829 0.0731895 0
M  V30 2929 H 285.724 -7.68911 0.774347 0
M  V30 2930 H 284.069 -6.91572 0.689476 0
M  V30 2931 H 287.26 -4.67773 0.174882 0
M  V30 2932 H 287.433 -6.46111 0.494388 0
M  V30 2933 N 280.839 0.0985539 -1.57292 0
M  V30 2934 C 281.802 1.10402 -2.00858 0
M  V30 2935 C 282.802 1.33146 -0.901593 0
M  V30 2936 O 283.992 1.29318 -1.16716 0
M  V30 2937 C 281.124 2.45394 -2.36632 0
M  V30 2938 H 282.317 0.729099 -2.90902 0
M  V30 2939 H 279.87 0.343495 -1.52479 0
M  V30 2940 H 280.605 2.87769 -1.49531 0
M  V30 2941 H 280.39 2.30235 -3.17387 0
M  V30 2942 H 281.88 3.17718 -2.71007 0
M  V30 2943 N 282.317 1.53212 0.369288 0
M  V30 2944 C 283.547 1.72868 1.13139 0
M  V30 2945 C 283.955 0.455754 1.83629 0
M  V30 2946 O 283.298 -0.580861 1.74275 0
M  V30 2947 C 283.36 2.83667 2.20847 0
M  V30 2948 C 283.024 4.24142 1.70155 0
M  V30 2949 C 284.021 5.06619 1.16763 0
M  V30 2950 C 281.706 4.70539 1.7578 0
M  V30 2951 C 283.7 6.33581 0.696678 0
M  V30 2952 C 281.387 5.97481 1.28297 0
M  V30 2953 C 282.385 6.78833 0.753307 0
M  V30 2954 O 282.073 8.03393 0.285475 0
M  V30 2955 H 281.805 0.581707 0.344373 0
M  V30 2956 H 284.359 2.00736 0.435243 0
M  V30 2957 H 282.589 2.51265 2.93944 0
M  V30 2958 H 284.278 2.91536 2.82421 0
M  V30 2959 H 285.044 4.71948 1.11758 0
M  V30 2960 H 280.923 4.07293 2.15949 0
M  V30 2961 H 284.467 6.97027 0.282581 0
M  V30 2962 H 280.364 6.31651 1.32994 0
M  V30 2963 H 281.132 8.17497 0.405145 0
M  V30 2964 N 283.795 -0.628877 1.44509 0
M  V30 2965 C 285.044 -1.38437 1.4669 0
M  V30 2966 C 285.357 -1.95322 0.104272 0
M  V30 2967 O 286.563 -2.715 0.00362163 0
M  V30 2968 C 285.019 -2.50659 2.5826 0
M  V30 2969 C 284.627 -2.00277 4.0074 0
M  V30 2970 C 286.371 -3.27844 2.69664 0
M  V30 2971 C 284.278 -3.09854 5.0373 0
M  V30 2972 H 283.208 -0.520245 0.545766 0
M  V30 2973 H 285.859 -0.676313 1.70582 0
M  V30 2974 H 284.241 -3.2405 2.27612 0
M  V30 2975 H 285.415 -1.33736 4.40966 0
M  V30 2976 H 283.73 -1.35901 3.93599 0
M  V30 2977 H 286.327 -4.09534 3.43781 0
M  V30 2978 H 286.67 -3.77471 1.75559 0
M  V30 2979 H 287.203 -2.61543 2.99733 0
M  V30 2980 H 283.942 -2.65168 5.99472 0
M  V30 2981 H 283.462 -3.7503 4.68095 0
M  V30 2982 H 285.141 -3.74592 5.27532 0
M  V30 2983 N 285.273 -1.31445 -0.869486 0
M  V30 2984 C 286.521 -1.20918 -1.61936 0
M  V30 2985 C 286.842 0.232683 -1.93607 0
M  V30 2986 O 286.112 1.15352 -1.58338 0
M  V30 2987 H 284.692 -0.44454 -0.600328 0
M  V30 2988 H 287.354 -1.64776 -1.0409 0
M  V30 2989 H 286.45 -1.78124 -2.56278 0
M  V30 2990 N 286.751 1.08385 -1.14413 0
M  V30 2991 C 287.997 1.81044 -0.913834 0
M  V30 2992 C 288.33 1.86004 0.558209 0
M  V30 2993 O 287.605 1.33606 1.4135 0
M  V30 2994 C 287.888 3.26648 -1.51569 0
M  V30 2995 C 287.741 3.29895 -3.0576 0
M  V30 2996 C 289.06 4.23629 -1.19273 0
M  V30 2997 H 286.179 0.65727 -0.333414 0
M  V30 2998 H 288.821 1.26896 -1.41412 0
M  V30 2999 H 286.971 3.72889 -1.09023 0
M  V30 3000 H 288.643 2.91977 -3.57137 0
M  V30 3001 H 286.886 2.69163 -3.40197 0
M  V30 3002 H 287.557 4.32516 -3.42977 0
M  V30 3003 H 290.033 3.85727 -1.56057 0
M  V30 3004 H 288.909 5.23822 -1.64017 0
M  V30 3005 H 289.17 4.41968 -0.108068 0
M  V30 3006 N 288.23 0.939286 1.26551 0
M  V30 3007 C 289.458 0.602536 1.97932 0
M  V30 3008 C 289.873 -0.82206 1.69964 0
M  V30 3009 O 289.23 -1.54789 0.966784 0
M  V30 3010 C 289.281 0.832946 3.51773 0
M  V30 3011 O 289.002 2.20151 3.78768 0
M  V30 3012 C 290.503 0.506483 4.40397 0
M  V30 3013 H 287.723 0.227248 0.631347 0
M  V30 3014 H 290.267 1.25948 1.61113 0
M  V30 3015 H 288.422 0.222644 3.8676 0
M  V30 3016 H 288.836 2.26013 4.73306 0
M  V30 3017 H 290.31 0.718333 5.47306 0
M  V30 3018 H 290.787 -0.558451 4.35635 0
M  V30 3019 H 291.393 1.09543 4.10951 0
M  V30 3020 N 289.708 -1.40897 0.706093 0
M  V30 3021 C 291.119 -1.84023 0.315052 0
M  V30 3022 C 291.47 -1.5906 -1.14866 0
M  V30 3023 O 290.595 -1.06651 -1.88293 0
M  V30 3024 C 291.19 -3.34055 0.565038 0
M  V30 3025 C 289.749 -3.7571 0.227806 0
M  V30 3026 C 288.896 -2.64204 0.842122 0
M  V30 3027 H 291.847 -1.303 0.905963 0
M  V30 3028 H 291.868 -3.80107 -0.172843 0
M  V30 3029 H 291.38 -3.52192 1.63042 0
M  V30 3030 H 289.481 -3.63172 -0.832895 0
M  V30 3031 H 289.594 -4.74103 0.690174 0
M  V30 3032 H 287.958 -2.53255 0.270893 0
M  V30 3033 H 288.741 -2.85155 1.91158 0
M  V30 3034 N 291.186 -0.45159 -1.50991 0
M  V30 3035 C 292.134 0.366864 -2.29689 0
M  V30 3036 C 293.128 1.00809 -1.36139 0
M  V30 3037 O 294.334 0.941427 -1.53418 0
M  V30 3038 H 290.709 0.137133 -0.739391 0
M  V30 3039 H 292.68 -0.317538 -2.96706 0
M  V30 3040 C 291.429 1.44751 -3.16137 0
M  V30 3041 H 290.752 0.963473 -3.88017 0
M  V30 3042 H 292.192 1.99315 -3.74232 0
M  V30 3043 C 290.651 2.43869 -2.32442 0
M  V30 3044 O 291.181 3.4872 -1.99392 0
M  V30 3045 N 289.387 2.15105 -1.95392 0
M  V30 3046 H 288.934 1.29866 -2.22469 0
M  V30 3047 H 288.892 2.81661 -1.39693 0
M  V30 3048 N 292.664 1.56529 -0.183458 0
M  V30 3049 C 294.075 1.83739 0.331177 0
M  V30 3050 C 294.426 1.10373 1.62211 0
M  V30 3051 O 293.551 0.36071 2.13373 0
M  V30 3052 C 294.146 3.33306 0.607646 0
M  V30 3053 C 292.705 3.60969 1.06668 0
M  V30 3054 C 291.852 2.77086 0.109029 0
M  V30 3055 H 294.803 1.53379 -0.407484 0
M  V30 3056 H 294.824 3.51444 1.45832 0
M  V30 3057 H 294.336 3.86677 -0.332086 0
M  V30 3058 H 292.437 3.13021 2.0211 0
M  V30 3059 H 292.55 4.69231 0.967447 0
M  V30 3060 H 290.914 2.47319 0.608714 0
M  V30 3061 H 291.697 3.33241 -0.82494 0
M  V30 3062 N 294.142 -0.090211 1.57342 0
M  V30 3063 C 295.553 -0.644173 1.75235 0
M  V30 3064 C 295.904 -1.78865 0.806335 0
M  V30 3065 O 295.029 -2.16395 -0.0140128 0
M  V30 3066 C 295.624 -1.17532 3.1776 0
M  V30 3067 C 294.183 -1.67531 3.37061 0
M  V30 3068 C 293.33 -0.58693 2.71017 0
M  V30 3069 H 296.281 0.135884 1.58117 0
M  V30 3070 H 296.302 -2.04455 3.20902 0
M  V30 3071 H 295.814 -0.342138 3.86589 0
M  V30 3072 H 293.915 -2.53234 2.73319 0
M  V30 3073 H 294.028 -1.76493 4.45406 0
M  V30 3074 H 292.392 -1.02756 2.33052 0
M  V30 3075 H 293.175 0.235758 3.4249 0
M  V30 3076 N 295.62 -1.53406 -0.361157 0
M  V30 3077 C 296.552 -1.76446 -1.46286 0
M  V30 3078 C 297.565 -0.645322 -1.49464 0
M  V30 3079 O 298.754 -0.921681 -1.52864 0
M  V30 3080 C 295.854 -1.83332 -2.85031 0
M  V30 3081 C 295.027 -3.13033 -3.05498 0
M  V30 3082 C 294.086 -3.11104 -4.24383 0
M  V30 3083 O 293.112 -3.84888 -4.19344 0
M  V30 3084 N 294.314 -2.32234 -5.32022 0
M  V30 3085 H 297.079 -2.71508 -1.26899 0
M  V30 3086 H 294.64 -1.52238 -0.550915 0
M  V30 3087 H 296.632 -1.79514 -3.62708 0
M  V30 3088 H 295.202 -0.955342 -2.97644 0
M  V30 3089 H 294.422 -3.30119 -2.15442 0
M  V30 3090 H 295.71 -3.9874 -3.16044 0
M  V30 3091 H 295.108 -1.71807 -5.38979 0
M  V30 3092 H 293.665 -2.3423 -6.08259 0
M  V30 3093 N 297.098 0.621204 -1.44841 0
M  V30 3094 C 298.375 1.38 -1.38619 0
M  V30 3095 C 298.755 2.11041 -0.0498935 0
M  V30 3096 O 298.103 2.06992 0.967816 0
M  V30 3097 C 298.313 2.33817 -2.59096 0
M  V30 3098 C 299.661 2.96844 -3.03593 0
M  V30 3099 O 300.685 2.44141 -2.59371 0
M  V30 3100 O 299.544 3.92476 -3.80296 0
M  V30 3101 H 296.638 0.61811 -0.549426 0
M  V30 3102 H 299.184 0.645429 -1.56947 0
M  V30 3103 H 297.956 1.79012 -3.47952 0
M  V30 3104 H 297.579 3.14676 -2.43032 0
M  V30 3105 N 298.576 1.31904 0.862503 0
M  V30 3106 C 299.825 1.21373 1.61094 0
M  V30 3107 C 300.138 -0.22504 1.94301 0
M  V30 3108 O 301.344 -0.452121 2.67709 0
M  V30 3109 C 299.8 2.12525 2.9045 0
M  V30 3110 C 299.408 3.61441 2.64697 0
M  V30 3111 C 301.152 2.10813 3.68454 0
M  V30 3112 C 299.059 4.44578 3.90006 0
M  V30 3113 H 297.989 0.450705 0.604468 0
M  V30 3114 H 300.64 1.56811 0.953027 0
M  V30 3115 H 299.022 1.69994 3.57656 0
M  V30 3116 H 300.196 4.12264 2.05851 0
M  V30 3117 H 298.511 3.65205 2.00036 0
M  V30 3118 H 301.108 2.70167 4.61426 0
M  V30 3119 H 301.451 1.09713 4.01583 0
M  V30 3120 H 301.984 2.51583 3.08141 0
M  V30 3121 H 298.723 5.46461 3.62023 0
M  V30 3122 H 298.243 3.98508 4.48276 0
M  V30 3123 H 299.922 4.57176 4.5782 0
M  V30 3124 N 300.054 -1.07777 1.14986 0
M  V30 3125 C 300.987 -2.14228 0.786243 0
M  V30 3126 C 301.965 -1.60888 -0.235347 0
M  V30 3127 O 303.149 -1.88099 -0.122909 0
M  V30 3128 C 300.276 -3.38281 0.168433 0
M  V30 3129 C 299.322 -4.10387 1.16123 0
M  V30 3130 S 300.155 -4.62371 2.70135 0
M  V30 3131 C 301.311 -5.89704 2.09762 0
M  V30 3132 H 301.544 -2.44741 1.68787 0
M  V30 3133 H 299.077 -1.19984 0.971756 0
M  V30 3134 H 301.035 -4.10098 -0.181588 0
M  V30 3135 H 299.696 -3.05953 -0.710725 0
M  V30 3136 H 298.889 -4.99431 0.677086 0
M  V30 3137 H 298.491 -3.44513 1.45556 0
M  V30 3138 H 300.783 -6.61648 1.45701 0
M  V30 3139 H 301.726 -6.42824 2.96955 0
M  V30 3140 H 302.134 -5.4302 1.54239 0
M  V30 3141 N 301.532 -0.945985 -1.26051 0
M  V30 3142 C 302.465 -0.403619 -2.24602 0
M  V30 3143 C 303.443 0.510241 -1.54387 0
M  V30 3144 O 304.627 0.446593 -1.83133 0
M  V30 3145 C 301.754 0.419564 -3.36091 0
M  V30 3146 C 300.8 -0.433454 -4.24292 0
M  V30 3147 S 301.633 -1.86037 -5.02146 0
M  V30 3148 C 302.789 -1.04538 -6.17108 0
M  V30 3149 H 303.022 -1.23883 -2.7026 0
M  V30 3150 H 300.555 -0.749438 -1.34992 0
M  V30 3151 H 302.513 0.888595 -4.00767 0
M  V30 3152 H 301.174 1.22951 -2.89036 0
M  V30 3153 H 300.367 0.197486 -5.03613 0
M  V30 3154 H 299.969 -0.837357 -3.64506 0
M  V30 3155 H 302.261 -0.289923 -6.76879 0
M  V30 3156 H 303.204 -1.81222 -6.84518 0
M  V30 3157 H 303.612 -0.579319 -5.61519 0
M  V30 3158 N 303.011 1.40521 -0.713556 0
M  V30 3159 C 304.259 2.00527 -0.251692 0
M  V30 3160 C 304.58 1.56857 1.15848 0
M  V30 3161 O 303.85 0.807127 1.785 0
M  V30 3162 H 302.43 0.741551 -0.0900646 0
M  V30 3163 H 305.092 1.71887 -0.918733 0
M  V30 3164 H 304.188 3.10813 -0.283192 0
M  V30 3165 N 304.489 0.459591 1.5075 0
M  V30 3166 C 305.766 -0.160371 1.94941 0
M  V30 3167 C 306.146 -1.58048 1.39943 0
M  V30 3168 O 305.494 -2.206 0.595629 0
M  V30 3169 C 305.704 -0.115432 3.48809 0
M  V30 3170 C 307.052 -0.310026 4.23467 0
M  V30 3171 O 308.076 -0.192543 3.55679 0
M  V30 3172 O 306.935 -0.546031 5.43765 0
M  V30 3173 H 304.029 -0.117925 0.818549 0
M  V30 3174 H 306.575 0.519169 1.61563 0
M  V30 3175 H 305.347 0.87652 3.81357 0
M  V30 3176 H 304.97 -0.836928 3.88692 0
M  V30 3177 N 305.967 -1.56429 0.191757 0
M  V30 3178 C 306.897 -2.21937 -0.725696 0
M  V30 3179 C 307.878 -1.1814 -1.2238 0
M  V30 3180 O 309.063 -1.46636 -1.27325 0
M  V30 3181 C 306.193 -2.87611 -1.94672 0
M  V30 3182 C 305.147 -3.97623 -1.58366 0
M  V30 3183 C 304.473 -4.50446 -2.88102 0
M  V30 3184 C 305.773 -5.16197 -0.796133 0
M  V30 3185 H 307.467 -2.98861 -0.179606 0
M  V30 3186 H 305.013 -1.43749 -0.0849464 0
M  V30 3187 H 306.966 -3.3212 -2.59373 0
M  V30 3188 H 305.69 -2.08087 -2.51728 0
M  V30 3189 H 304.349 -3.53801 -0.960247 0
M  V30 3190 H 303.997 -3.67688 -3.43241 0
M  V30 3191 H 303.697 -5.24675 -2.64556 0
M  V30 3192 H 305.221 -4.97654 -3.53798 0
M  V30 3193 H 306.635 -5.57271 -1.34618 0
M  V30 3194 H 305.032 -5.96471 -0.658928 0
M  V30 3195 H 306.102 -4.84473 0.203478 0
M  V30 3196 N 307.445 0.0818655 -1.57387 0
M  V30 3197 C 308.722 0.815343 -1.77796 0
M  V30 3198 C 309.102 1.96289 -0.77679 0
M  V30 3199 O 308.45 2.27691 0.192106 0
M  V30 3200 C 308.66 1.29765 -3.23978 0
M  V30 3201 C 310.008 1.7351 -3.8753 0
M  V30 3202 O 311.032 1.39356 -3.27808 0
M  V30 3203 O 309.891 2.36708 -4.92576 0
M  V30 3204 H 306.985 0.389914 -0.729312 0
M  V30 3205 H 309.531 0.0627213 -1.69584 0
M  V30 3206 H 308.303 0.47608 -3.88393 0
M  V30 3207 H 307.926 2.11189 -3.36875 0
M  V30 3208 N 308.923 1.53595 0.353017 0
M  V30 3209 C 309.853 1.83902 1.43883 0
M  V30 3210 C 310.834 0.693421 1.55324 0
M  V30 3211 O 312.019 0.944452 1.69687 0
M  V30 3212 C 309.149 2.04016 2.8106 0
M  V30 3213 C 308.103 3.19814 2.84434 0
M  V30 3214 C 307.429 3.25244 4.24406 0
M  V30 3215 C 308.729 4.58133 2.50822 0
M  V30 3216 H 310.423 2.74835 1.1877 0
M  V30 3217 H 307.969 1.32242 0.569917 0
M  V30 3218 H 309.922 2.238 3.57059 0
M  V30 3219 H 308.646 1.09804 3.07588 0
M  V30 3220 H 307.305 2.9987 2.10887 0
M  V30 3221 H 306.953 2.28646 4.48029 0
M  V30 3222 H 306.653 4.03054 4.27576 0
M  V30 3223 H 308.177 3.47228 5.0226 0
M  V30 3224 H 309.591 4.77995 3.16534 0
M  V30 3225 H 307.988 5.38276 2.6529 0
M  V30 3226 H 309.058 4.62387 1.46034 0
M  V30 3227 N 310.401 -0.613514 1.45168 0
M  V30 3228 C 311.629 -1.39946 1.5239 0
M  V30 3229 C 312.044 -1.88167 0.154531 0
M  V30 3230 O 311.401 -1.61872 -0.842843 0
M  V30 3231 C 311.452 -2.60795 2.50337 0
M  V30 3232 O 311.173 -2.1458 3.81952 0
M  V30 3233 C 312.674 -3.53723 2.67198 0
M  V30 3234 H 309.894 -0.428593 0.516284 0
M  V30 3235 H 312.438 -0.748753 1.903 0
M  V30 3236 H 310.593 -3.21919 2.15515 0
M  V30 3237 H 311.007 -2.93055 4.34993 0
M  V30 3238 H 312.481 -4.35079 3.39721 0
M  V30 3239 H 312.958 -4.0368 1.73029 0
M  V30 3240 H 313.564 -2.98456 3.02992 0
M  V30 3241 N 311.879 -1.3236 -0.855495 0
M  V30 3242 C 313.29 -1.2056 -1.42556 0
M  V30 3243 C 313.641 0.182209 -1.95352 0
M  V30 3244 O 312.766 1.08088 -1.87472 0
M  V30 3245 C 313.361 -2.1826 -2.59129 0
M  V30 3246 C 311.92 -2.10351 -3.12137 0
M  V30 3247 C 311.067 -2.06674 -1.84882 0
M  V30 3248 H 314.018 -1.442 -0.662727 0
M  V30 3249 H 314.039 -1.78064 -3.36264 0
M  V30 3250 H 313.551 -3.19257 -2.20673 0
M  V30 3251 H 311.652 -1.12599 -3.55179 0
M  V30 3252 H 311.765 -3.00135 -3.73438 0
M  V30 3253 H 310.129 -1.51901 -2.04446 0
M  V30 3254 H 310.912 -3.09451 -1.48643 0
M  V30 3255 N 313.357 1.07166 -1.15556 0
M  V30 3256 C 314.604 1.79798 -0.931604 0
M  V30 3257 C 314.932 1.8682 0.54115 0
M  V30 3258 O 314.187 1.34942 1.41736 0
M  V30 3259 C 314.486 3.24707 -1.49332 0
M  V30 3260 C 314.152 3.37781 -2.98688 0
M  V30 3261 C 312.814 3.41057 -3.39461 0
M  V30 3262 C 315.166 3.40424 -3.94665 0
M  V30 3263 C 312.494 3.4458 -4.74849 0
M  V30 3264 C 314.846 3.45485 -5.29927 0
M  V30 3265 C 313.51 3.47039 -5.70193 0
M  V30 3266 H 312.78 0.657928 -0.340898 0
M  V30 3267 H 315.427 1.26091 -1.44129 0
M  V30 3268 H 313.732 3.81208 -0.904859 0
M  V30 3269 H 315.429 3.79486 -1.29582 0
M  V30 3270 H 312.019 3.35932 -2.66172 0
M  V30 3271 H 316.203 3.37113 -3.64237 0
M  V30 3272 H 311.459 3.44083 -5.05388 0
M  V30 3273 H 315.633 3.46476 -6.04092 0
M  V30 3274 H 313.26 3.49522 -6.75084 0
M  V30 3275 N 314.835 0.952656 1.25548 0
M  V30 3276 C 316.083 0.605176 1.92826 0
M  V30 3277 C 316.404 -0.860261 1.74999 0
M  V30 3278 O 315.674 -1.6125 1.11244 0
M  V30 3279 H 314.254 0.220832 0.713612 0
M  V30 3280 H 316.916 1.21047 1.52754 0
M  V30 3281 H 316.012 0.832798 3.00784 0
M  V30 3282 N 316.313 -1.40141 0.720998 0
M  V30 3283 C 317.245 -2.29177 0.0324669 0
M  V30 3284 C 318.258 -1.46105 -0.718126 0
M  V30 3285 O 319.447 -1.69335 -0.564608 0
M  V30 3286 C 316.547 -3.24473 -0.978292 0
M  V30 3287 C 315.72 -4.36423 -0.292115 0
M  V30 3288 C 314.779 -5.12122 -1.20901 0
M  V30 3289 O 313.805 -5.64981 -0.691766 0
M  V30 3290 N 315.007 -5.21992 -2.53978 0
M  V30 3291 H 317.772 -2.88909 0.796984 0
M  V30 3292 H 315.333 -1.51569 0.569068 0
M  V30 3293 H 317.325 -3.71987 -1.59398 0
M  V30 3294 H 315.895 -2.65871 -1.64413 0
M  V30 3295 H 315.115 -3.90967 0.503847 0
M  V30 3296 H 316.403 -5.08467 0.183971 0
M  V30 3297 H 315.801 -4.8054 -2.98493 0
M  V30 3298 H 314.358 -5.72995 -3.10677 0
M  V30 3299 N 317.792 -0.46758 -1.50504 0
M  V30 3300 C 319.04 0.0884469 -2.01906 0
M  V30 3301 C 319.361 1.40532 -1.35188 0
M  V30 3302 O 318.631 1.89515 -0.496079 0
M  V30 3303 H 317.211 0.0356765 -0.746148 0
M  V30 3304 H 319.873 -0.6172 -1.84869 0
M  V30 3305 H 318.969 0.2425 -3.11156 0
M  V30 3306 N 319.27 1.56325 -0.20005 0
M  V30 3307 C 320.233 2.18084 0.705132 0
M  V30 3308 C 321.233 1.13666 1.1374 0
M  V30 3309 O 322.423 1.39023 1.04968 0
M  V30 3310 C 319.555 2.78689 1.96329 0
M  V30 3311 H 320.748 2.99435 0.167023 0
M  V30 3312 H 318.301 1.56221 0.0495725 0
M  V30 3313 H 319.036 2.0115 2.5438 0
M  V30 3314 H 318.821 3.55133 1.66202 0
M  V30 3315 H 320.311 3.26096 2.60866 0
M  V30 3316 N 320.748 -0.0735177 1.57428 0
M  V30 3317 C 321.996 -0.771472 1.86796 0
M  V30 3318 C 322.317 -1.78201 0.791804 0
M  V30 3319 O 321.587 -1.95074 -0.179718 0
M  V30 3320 H 320.167 -0.28791 0.689287 0
M  V30 3321 H 322.829 -0.0500161 1.94836 0
M  V30 3322 H 321.925 -1.28874 2.8425 0
M  V30 3323 N 322.226 -1.5378 -0.344866 0
M  V30 3324 C 323.474 -1.70625 -1.08311 0
M  V30 3325 C 323.795 -0.471447 -1.89215 0
M  V30 3326 O 323.065 0.514616 -1.8902 0
M  V30 3327 H 321.645 -0.629058 -0.402859 0
M  V30 3328 H 324.307 -1.9103 -0.386459 0
M  V30 3329 H 323.403 -2.57656 -1.76124 0
M  V30 3330 N 323.704 0.605807 -1.45491 0
M  V30 3331 C 324.634 1.72709 -1.57143 0
M  V30 3332 C 325.615 1.6476 -0.422884 0
M  V30 3333 O 326.8 1.83132 -0.646247 0
M  V30 3334 C 323.93 3.11316 -1.53948 0
M  V30 3335 C 322.884 3.34077 -2.67537 0
M  V30 3336 C 322.21 4.72975 -2.49397 0
M  V30 3337 C 323.51 3.24158 -4.09535 0
M  V30 3338 H 325.204 1.63214 -2.51001 0
M  V30 3339 H 322.75 0.78379 -1.208 0
M  V30 3340 H 324.703 3.89557 -1.60696 0
M  V30 3341 H 323.427 3.21655 -0.566205 0
M  V30 3342 H 322.086 2.58227 -2.6022 0
M  V30 3343 H 321.734 4.8005 -1.50205 0
M  V30 3344 H 321.434 4.8916 -3.25571 0
M  V30 3345 H 322.958 5.53414 -2.58002 0
M  V30 3346 H 324.372 3.92271 -4.18086 0
M  V30 3347 H 322.769 3.51872 -4.86113 0
M  V30 3348 H 323.839 2.2157 -4.31317 0
M  V30 3349 N 325.182 1.32811 0.848464 0
M  V30 3350 C 326.43 1.23479 1.59991 0
M  V30 3351 C 326.751 -0.201853 1.93952 0
M  V30 3352 O 326.021 -1.12818 1.60153 0
M  V30 3353 H 324.601 0.454034 0.593179 0
M  V30 3354 H 327.263 1.66412 1.01455 0
M  V30 3355 H 326.359 1.82178 2.53412 0
M  V30 3356 N 326.66 -1.06551 1.16123 0
M  V30 3357 C 327.59 -2.15935 0.88851 0
M  V30 3358 C 328.571 -1.69306 -0.164135 0
M  V30 3359 O 329.756 -1.94193 -0.0167857 0
M  V30 3360 C 326.886 -3.45149 0.385942 0
M  V30 3361 C 325.84 -4.05271 1.3762 0
M  V30 3362 C 325.166 -5.29664 0.732137 0
M  V30 3363 C 326.466 -4.44355 2.74493 0
M  V30 3364 H 328.16 -2.39006 1.80323 0
M  V30 3365 H 325.706 -1.14866 0.868435 0
M  V30 3366 H 327.659 -4.21004 0.182647 0
M  V30 3367 H 326.383 -3.21689 -0.564274 0
M  V30 3368 H 325.042 -3.3147 1.56599 0
M  V30 3369 H 324.69 -5.02499 -0.224483 0
M  V30 3370 H 324.39 -5.70848 1.39307 0
M  V30 3371 H 325.914 -6.08218 0.538802 0
M  V30 3372 H 327.328 -5.11303 2.59311 0
M  V30 3373 H 325.725 -4.96515 3.37035 0
M  V30 3374 H 326.795 -3.55339 3.29943 0
M  V30 3375 N 328.138 -0.959301 -1.25041 0
M  V30 3376 C 329.549 -0.65667 -1.74771 0
M  V30 3377 C 329.9 0.827852 -1.77879 0
M  V30 3378 O 329.025 1.64783 -1.40269 0
M  V30 3379 C 329.62 -1.1853 -3.1739 0
M  V30 3380 C 328.179 -0.932734 -3.6466 0
M  V30 3381 C 327.326 -1.32558 -2.43564 0
M  V30 3382 H 330.277 -1.13558 -1.10862 0
M  V30 3383 H 330.298 -0.547582 -3.76539 0
M  V30 3384 H 329.81 -2.26576 -3.15095 0
M  V30 3385 H 327.911 0.13257 -3.72364 0
M  V30 3386 H 328.024 -1.57248 -4.52559 0
M  V30 3387 H 326.388 -0.743956 -2.43593 0
M  V30 3388 H 327.171 -2.41537 -2.43957 0
M  V30 3389 N 329.616 1.39756 -0.72842 0
M  V30 3390 C 330.864 2.00248 -0.272946 0
M  V30 3391 C 331.185 1.58077 1.14178 0
M  V30 3392 O 330.455 0.826014 1.77634 0
M  V30 3393 H 329.035 0.740554 -0.0979247 0
M  V30 3394 H 331.697 1.70903 -0.936912 0
M  V30 3395 H 330.793 3.10495 -0.316142 0
M  V30 3396 N 331.094 0.475555 1.50254 0
M  V30 3397 C 332.371 -0.139685 1.95101 0
M  V30 3398 C 332.751 -1.56555 1.41611 0
M  V30 3399 O 332.099 -2.19956 0.618993 0
M  V30 3400 C 332.309 -0.0784298 3.48912 0
M  V30 3401 C 333.657 -0.265095 4.23772 0
M  V30 3402 O 334.681 -0.154808 3.55863 0
M  V30 3403 O 333.54 -0.488327 5.44314 0
M  V30 3404 H 330.634 -0.109236 0.819754 0
M  V30 3405 H 333.18 0.536276 1.61004 0
M  V30 3406 H 331.952 0.916918 3.80405 0
M  V30 3407 H 331.575 -0.795655 3.89558 0
M  V30 3408 N 332.573 -1.56217 0.208337 0
M  V30 3409 C 333.82 -1.97949 -0.42692 0
M  V30 3410 C 334.148 -1.09562 -1.60706 0
M  V30 3411 O 333.403 -0.137616 -1.95216 0
M  V30 3412 C 333.702 -3.45441 -0.916797 0
M  V30 3413 C 333.368 -4.50646 0.151391 0
M  V30 3414 C 332.03 -4.79139 0.444867 0
M  V30 3415 C 334.382 -5.13811 0.874492 0
M  V30 3416 C 331.71 -5.68084 1.46619 0
M  V30 3417 C 334.062 -6.03861 1.88506 0
M  V30 3418 C 332.726 -6.30704 2.18559 0
M  V30 3419 H 331.996 -0.724345 -0.156221 0
M  V30 3420 H 334.643 -1.89006 0.308084 0
M  V30 3421 H 332.948 -3.51521 -1.73032 0
M  V30 3422 H 334.645 -3.75094 -1.41794 0
M  V30 3423 H 331.235 -4.28511 -0.0875068 0
M  V30 3424 H 335.419 -4.91879 0.660996 0
M  V30 3425 H 330.675 -5.87151 1.7048 0
M  V30 3426 H 334.849 -6.51861 2.45051 0
M  V30 3427 H 332.476 -6.99424 2.97843 0
M  V30 3428 N 334.051 0.0651679 -1.57465 0
M  V30 3429 C 335.279 0.775808 -1.91804 0
M  V30 3430 C 335.694 1.70782 -0.804916 0
M  V30 3431 O 335.051 1.81153 0.221311 0
M  V30 3432 C 335.102 1.56381 -3.25925 0
M  V30 3433 O 334.823 0.669248 -4.32958 0
M  V30 3434 C 336.324 2.37485 -3.7432 0
M  V30 3435 H 333.544 0.2202 -0.63384 0
M  V30 3436 H 336.088 0.0334587 -2.04473 0
M  V30 3437 H 334.243 2.25837 -3.14764 0
M  V30 3438 H 334.657 1.21801 -5.10162 0
M  V30 3439 H 336.131 2.88223 -4.70778 0
M  V30 3440 H 336.608 3.17307 -3.03666 0
M  V30 3441 H 337.214 1.73173 -3.88447 0
M  V30 3442 N 335.529 1.53961 0.336706 0
M  V30 3443 C 336.94 1.62914 0.911925 0
M  V30 3444 C 337.291 0.514795 1.89326 0
M  V30 3445 O 336.416 -0.354395 2.13478 0
M  V30 3446 C 337.011 2.95304 1.66076 0
M  V30 3447 C 335.57 3.06496 2.18489 0
M  V30 3448 C 334.717 2.58403 1.00613 0
M  V30 3449 H 337.668 1.58285 0.114649 0
M  V30 3450 H 337.689 2.84727 2.5241 0
M  V30 3451 H 337.201 3.76387 0.946276 0
M  V30 3452 H 335.302 2.3006 2.93092 0
M  V30 3453 H 335.415 4.1208 2.44391 0
M  V30 3454 H 333.779 2.13977 1.38152 0
M  V30 3455 H 334.562 3.41932 0.306179 0
M  V30 3456 N 337.007 -0.598083 1.45811 0
M  V30 3457 C 338.232 -1.3881 1.54099 0
M  V30 3458 C 338.657 -1.8726 0.177578 0
M  V30 3459 O 338.015 -1.6069 -0.839541 0
M  V30 3460 C 338.063 -2.56217 2.53743 0
M  V30 3461 O 337.167 -3.5716 2.06182 0
M  V30 3462 H 336.508 -0.414024 0.519115 0
M  V30 3463 H 339.038 -0.726971 1.91249 0
M  V30 3464 H 339.048 -3.03337 2.72856 0
M  V30 3465 H 337.723 -2.20303 3.5276 0
M  V30 3466 H 336.3 -3.16624 1.96987 0
M  V30 3467 N 338.485 -1.33259 -0.841409 0
M  V30 3468 C 339.448 -1.23221 -1.9326 0
M  V30 3469 C 340.448 -0.151895 -1.60081 0
M  V30 3470 O 341.638 -0.403246 -1.69468 0
M  V30 3471 C 338.77 -0.898123 -3.28856 0
M  V30 3472 H 339.963 -2.2021 -2.03587 0
M  V30 3473 H 337.516 -1.17281 -1.03319 0
M  V30 3474 H 338.251 0.0693841 -3.24226 0
M  V30 3475 H 338.036 -1.67934 -3.54317 0
M  V30 3476 H 339.526 -0.852563 -4.08805 0
M  V30 3477 N 339.963 1.05934 -1.16686 0
M  V30 3478 C 341.379 1.30938 -0.912542 0
M  V30 3479 C 341.579 1.96803 0.432533 0
M  V30 3480 O 340.635 2.23693 1.17123 0
M  V30 3481 C 341.948 2.18649 -2.06429 0
M  V30 3482 C 343.496 2.32055 -2.10047 0
M  V30 3483 C 343.971 3.23122 -3.24586 0
M  V30 3484 N 345.462 3.30706 -3.24327 0
M  V30 3485 C 346.197 4.01273 -4.09594 0
M  V30 3486 N 345.693 4.74332 -5.04956 0
M  V30 3487 N 347.486 3.97361 -3.97569 0
M  V30 3488 H 339.637 0.615777 -2.03278 0
M  V30 3489 H 341.9 0.334077 -0.887185 0
M  V30 3490 H 341.606 1.77534 -3.03603 0
M  V30 3491 H 341.48 3.19252 -2.00894 0
M  V30 3492 H 343.867 2.72415 -1.13464 0
M  V30 3493 H 343.948 1.31107 -2.19647 0
M  V30 3494 H 343.592 2.83477 -4.2143 0
M  V30 3495 H 343.522 4.24057 -3.12223 0
M  V30 3496 H 346.013 2.78644 -2.55276 0
M  V30 3497 H 346.326 5.25716 -5.6643 0
M  V30 3498 H 344.671 4.733 -5.08933 0
M  V30 3499 H 347.862 3.39405 -3.22369 0
M  V30 3500 H 348.035 4.52089 -4.64241 0
M  V30 3501 N 341.441 0.965919 1.2453 0
M  V30 3502 C 342.688 0.626831 1.92554 0
M  V30 3503 C 343.016 -0.837739 1.75534 0
M  V30 3504 O 342.271 -1.61793 1.10098 0
M  V30 3505 C 342.57 0.945428 3.44669 0
M  V30 3506 C 342.236 2.39785 3.81856 0
M  V30 3507 C 340.898 2.79483 3.91718 0
M  V30 3508 C 343.25 3.34055 4.00071 0
M  V30 3509 C 340.578 4.12496 4.1721 0
M  V30 3510 C 342.93 4.66694 4.27059 0
M  V30 3511 C 341.594 5.06172 4.3514 0
M  V30 3512 H 340.864 0.229374 0.704605 0
M  V30 3513 H 343.511 1.21707 1.4785 0
M  V30 3514 H 341.816 0.272926 3.90848 0
M  V30 3515 H 343.513 0.661484 3.95507 0
M  V30 3516 H 340.103 2.08003 3.74743 0
M  V30 3517 H 344.287 3.04571 3.91855 0
M  V30 3518 H 339.543 4.42709 4.21685 0
M  V30 3519 H 343.717 5.3971 4.40097 0
M  V30 3520 H 341.344 6.09262 4.54646 0
M  V30 3521 N 342.919 -1.39368 0.735821 0
M  V30 3522 C 343.849 -2.33234 0.111506 0
M  V30 3523 C 344.83 -1.53954 -0.723334 0
M  V30 3524 O 346.015 -1.82344 -0.668147 0
M  V30 3525 C 343.145 -3.38057 -0.795917 0
M  V30 3526 C 342.099 -4.2795 -0.065172 0
M  V30 3527 C 341.425 -5.23479 -1.08967 0
M  V30 3528 C 342.725 -5.10741 1.09273 0
M  V30 3529 H 344.419 -2.85692 0.895571 0
M  V30 3530 H 341.965 -1.37364 0.432109 0
M  V30 3531 H 343.918 -4.02675 -1.24221 0
M  V30 3532 H 342.642 -2.8404 -1.61211 0
M  V30 3533 H 341.301 -3.64813 0.361511 0
M  V30 3534 H 340.949 -4.65758 -1.89944 0
M  V30 3535 H 340.649 -5.84472 -0.605489 0
M  V30 3536 H 342.173 -5.90974 -1.53565 0
M  V30 3537 H 343.587 -5.68699 0.724841 0
M  V30 3538 H 341.984 -5.8088 1.50659 0
M  V30 3539 H 343.054 -4.45525 1.91404 0
M  V30 3540 N 344.397 -0.483516 -1.5 0
M  V30 3541 C 345.813 -0.138404 -1.58999 0
M  V30 3542 C 346.013 1.35597 -1.4905 0
M  V30 3543 O 345.069 2.13039 -1.35539 0
M  V30 3544 C 346.382 -0.699658 -2.92447 0
M  V30 3545 C 347.93 -0.664195 -3.05872 0
M  V30 3546 C 348.405 -1.20321 -4.41913 0
M  V30 3547 N 349.896 -1.16315 -4.48358 0
M  V30 3548 C 350.631 -1.55058 -5.52037 0
M  V30 3549 N 350.127 -2.01311 -6.62907 0
M  V30 3550 N 351.92 -1.46584 -5.42651 0
M  V30 3551 H 344.071 -1.45529 -1.5471 0
M  V30 3552 H 346.334 -0.60258 -0.731848 0
M  V30 3553 H 346.04 -1.747 -3.05242 0
M  V30 3554 H 345.914 -0.150194 -3.76901 0
M  V30 3555 H 348.301 0.374272 -2.92717 0
M  V30 3556 H 348.382 -1.25061 -2.23144 0
M  V30 3557 H 348.026 -2.24037 -4.55818 0
M  V30 3558 H 347.956 -0.592896 -5.23252 0
M  V30 3559 H 350.447 -0.824058 -3.68806 0
M  V30 3560 H 350.76 -2.2899 -7.38095 0
M  V30 3561 H 349.105 -2.05273 -6.63994 0
M  V30 3562 H 352.296 -1.10281 -4.54924 0
M  V30 3563 H 352.469 -1.77103 -6.23329 0
M  V30 3564 N 345.875 1.56104 -0.216619 0
M  V30 3565 C 347.121 1.98466 0.417033 0
M  V30 3566 C 347.454 1.10403 1.59765 0
M  V30 3567 O 346.729 0.160632 1.93836 0
M  V30 3568 C 347.012 3.49769 0.85637 0
M  V30 3569 C 346.865 4.48606 -0.327546 0
M  V30 3570 C 348.184 4.05339 1.7143 0
M  V30 3571 H 345.303 0.721551 0.150112 0
M  V30 3572 H 347.945 1.87423 -0.311864 0
M  V30 3573 H 346.095 3.5931 1.47745 0
M  V30 3574 H 347.767 4.5108 -0.965618 0
M  V30 3575 H 346.01 4.22682 -0.975805 0
M  V30 3576 H 346.681 5.51995 0.0227149 0
M  V30 3577 H 349.157 3.98712 1.19031 0
M  V30 3578 H 348.033 5.11533 1.99061 0
M  V30 3579 H 348.294 3.51918 2.67593 0
M  V30 3580 N 347.353 -0.0568162 1.57498 0
M  V30 3581 C 348.316 -1.05038 2.03715 0
M  V30 3582 C 349.316 -1.30709 0.936577 0
M  V30 3583 O 350.506 -1.26178 1.20103 0
M  V30 3584 C 347.638 -2.39034 2.43055 0
M  V30 3585 H 348.831 -0.651715 2.92733 0
M  V30 3586 H 346.384 -0.302947 1.53336 0
M  V30 3587 H 347.119 -2.83703 1.57108 0
M  V30 3588 H 346.904 -2.21739 3.2338 0
M  V30 3589 H 348.394 -3.10421 2.79336 0
M  V30 3590 N 348.832 -1.54138 -0.328536 0
M  V30 3591 C 350.062 -1.75807 -1.08516 0
M  V30 3592 C 350.47 -0.50428 -1.82356 0
M  V30 3593 O 349.813 0.534451 -1.75754 0
M  V30 3594 C 349.875 -2.89423 -2.13248 0
M  V30 3595 C 349.539 -4.28504 -1.5885 0
M  V30 3596 C 350.536 -5.09536 -1.03289 0
M  V30 3597 C 348.221 -4.75034 -1.63243 0
M  V30 3598 C 350.215 -6.35206 -0.52845 0
M  V30 3599 C 347.902 -6.00672 -1.12411 0
M  V30 3600 C 348.9 -6.80592 -0.573062 0
M  V30 3601 O 348.588 -8.03867 -0.0723692 0
M  V30 3602 H 348.32 -0.590633 -0.328829 0
M  V30 3603 H 350.874 -2.01819 -0.381868 0
M  V30 3604 H 349.104 -2.5897 -2.87178 0
M  V30 3605 H 350.793 -2.98921 -2.74592 0
M  V30 3606 H 351.559 -4.74745 -0.99206 0
M  V30 3607 H 347.438 -4.12875 -2.05074 0
M  V30 3608 H 350.982 -6.97532 -0.0976774 0
M  V30 3609 H 346.879 -6.34955 -1.162 0
M  V30 3610 H 347.647 -8.18283 -0.188258 0
M  V30 3611 N 350.31 0.590341 -1.46126 0
M  V30 3612 C 351.556 1.34874 -1.52252 0
M  V30 3613 C 351.911 1.91658 -0.168807 0
M  V30 3614 O 351.204 1.73093 0.821556 0
M  V30 3615 C 351.398 2.5032 -2.55097 0
M  V30 3616 C 351.227 2.04843 -4.00337 0
M  V30 3617 C 349.997 1.90213 -4.68132 0
M  V30 3618 C 352.195 1.61267 -4.88362 0
M  V30 3619 N 350.177 1.38727 -5.9802 0
M  V30 3620 C 351.548 1.21319 -6.08015 0
M  V30 3621 C 353.603 1.49015 -4.75078 0
M  V30 3622 C 352.306 0.7034 -7.15852 0
M  V30 3623 C 354.332 0.994401 -5.8298 0
M  V30 3624 C 353.694 0.604659 -7.018 0
M  V30 3625 H 349.793 0.486803 -0.612002 0
M  V30 3626 H 352.377 0.673007 -1.82698 0
M  V30 3627 H 350.548 3.15466 -2.26574 0
M  V30 3628 H 352.28 3.1725 -2.51266 0
M  V30 3629 H 349.035 2.11927 -4.23537 0
M  V30 3630 H 349.459 1.15168 -6.67132 0
M  V30 3631 H 354.101 1.77768 -3.83612 0
M  V30 3632 H 351.819 0.403446 -8.07092 0
M  V30 3633 H 355.405 0.903621 -5.7474 0
M  V30 3634 H 354.285 0.226963 -7.83871 0
M  V30 3635 N 351.788 1.33704 0.83433 0
M  V30 3636 C 352.735 1.24335 1.94447 0
M  V30 3637 C 353.705 0.120991 1.65659 0
M  V30 3638 O 354.89 0.300035 1.88426 0
M  V30 3639 C 352.03 0.993124 3.30501 0
M  V30 3640 C 351.143 2.20217 3.71657 0
M  V30 3641 C 350.278 1.88572 4.96602 0
M  V30 3642 C 349.317 3.05683 5.30306 0
M  V30 3643 N 348.454 2.73997 6.46429 0
M  V30 3644 H 353.294 2.1928 2.01792 0
M  V30 3645 H 350.831 1.09035 0.987404 0
M  V30 3646 H 352.789 0.828467 4.08892 0
M  V30 3647 H 351.419 0.0803902 3.227 0
M  V30 3648 H 350.471 2.47642 2.88752 0
M  V30 3649 H 351.783 3.07752 3.92543 0
M  V30 3650 H 350.937 1.68776 5.82752 0
M  V30 3651 H 349.676 0.982799 4.77695 0
M  V30 3652 H 348.681 3.26088 4.42659 0
M  V30 3653 H 349.906 3.96737 5.51159 0
M  V30 3654 H 347.852 1.86268 6.28999 0
M  V30 3655 H 347.769 3.55064 6.67432 0
M  V30 3656 H 349.037 2.57679 7.35678 0
M  V30 3657 N 353.266 -1.05314 1.17247 0
M  V30 3658 C 354.213 -2.13031 0.888058 0
M  V30 3659 C 355.183 -1.65253 -0.167537 0
M  V30 3660 O 356.368 -1.90775 -0.0305974 0
M  V30 3661 C 353.508 -3.42702 0.406147 0
M  V30 3662 C 352.621 -4.04161 1.52572 0
M  V30 3663 C 351.756 -5.21744 0.997808 0
M  V30 3664 C 350.795 -5.75207 2.09291 0
M  V30 3665 N 349.932 -6.84094 1.57986 0
M  V30 3666 H 354.772 -2.36698 1.81048 0
M  V30 3667 H 352.309 -1.16121 0.903013 0
M  V30 3668 H 354.267 -4.17059 0.108305 0
M  V30 3669 H 352.897 -3.19222 -0.479313 0
M  V30 3670 H 351.949 -3.27253 1.93931 0
M  V30 3671 H 353.261 -4.39881 2.35172 0
M  V30 3672 H 352.415 -6.03168 0.653739 0
M  V30 3673 H 351.154 -4.87495 0.141232 0
M  V30 3674 H 350.159 -4.92414 2.44557 0
M  V30 3675 H 351.384 -6.11505 2.95362 0
M  V30 3676 H 349.33 -6.51745 0.74598 0
M  V30 3677 H 349.247 -7.18811 2.34195 0
M  V30 3678 H 350.515 -7.69172 1.26468 0
M  V30 3679 N 354.744 -0.972509 -1.24016 0
M  V30 3680 C 355.974 -0.653853 -1.9598 0
M  V30 3681 C 356.382 0.781801 -1.72292 0
M  V30 3682 O 355.725 1.53677 -1.00644 0
M  V30 3683 C 355.787 -0.854608 -3.49194 0
M  V30 3684 C 355.451 -2.27082 -3.96589 0
M  V30 3685 C 356.448 -3.24892 -4.05883 0
M  V30 3686 C 354.133 -2.5998 -4.29786 0
M  V30 3687 C 356.127 -4.53684 -4.47716 0
M  V30 3688 C 353.814 -3.88997 -4.71301 0
M  V30 3689 C 354.812 -4.85661 -4.80232 0
M  V30 3690 O 354.5 -6.12376 -5.20818 0
M  V30 3691 H 354.232 -0.242572 -0.630979 0
M  V30 3692 H 356.786 -1.30431 -1.58673 0
M  V30 3693 H 355.016 -0.146985 -3.86421 0
M  V30 3694 H 356.705 -0.534311 -4.02368 0
M  V30 3695 H 357.471 -3.00805 -3.80449 0
M  V30 3696 H 353.35 -1.85457 -4.22051 0
M  V30 3697 H 356.894 -5.29135 -4.54601 0
M  V30 3698 H 352.791 -4.12882 -4.96184 0
M  V30 3699 H 353.559 -6.16013 -5.38953 0
M  V30 3700 N 356.222 1.38976 -0.743202 0
M  V30 3701 C 357.45 2.04636 -0.30525 0
M  V30 3702 C 357.865 1.56044 1.06281 0
M  V30 3703 O 357.222 0.728921 1.67311 0
M  V30 3704 C 357.273 3.60193 -0.307177 0
M  V30 3705 O 356.994 4.06998 -1.62124 0
M  V30 3706 C 358.495 4.4306 0.145928 0
M  V30 3707 H 355.715 0.65788 -0.132041 0
M  V30 3708 H 358.259 1.77866 -1.00915 0
M  V30 3709 H 356.414 3.85835 0.347898 0
M  V30 3710 H 356.828 5.01371 -1.54036 0
M  V30 3711 H 358.302 5.51921 0.0934183 0
M  V30 3712 H 358.779 4.22706 1.19231 0
M  V30 3713 H 359.385 4.22584 -0.479886 0
M  V30 3714 N 357.7 0.491464 1.49741 0
M  V30 3715 C 358.61 -0.296835 2.32715 0
M  V30 3716 C 359.626 -0.976536 1.44013 0
M  V30 3717 O 360.802 -0.960023 1.77047 0
M  V30 3718 C 357.867 -1.35288 3.19215 0
M  V30 3719 C 356.928 -0.687632 4.23757 0
M  V30 3720 C 356.161 -1.69336 5.06123 0
M  V30 3721 O 356.384 -2.92219 4.89861 0
M  V30 3722 O 355.318 -1.25394 5.88693 0
M  V30 3723 H 359.144 0.382048 3.01287 0
M  V30 3724 H 356.729 0.252953 1.47243 0
M  V30 3725 H 358.611 -1.96411 3.72828 0
M  V30 3726 H 357.286 -2.01487 2.53347 0
M  V30 3727 H 356.193 -0.0369159 3.74082 0
M  V30 3728 H 357.526 -0.0682566 4.92153 0
M  V30 3729 N 359.178 -1.55987 0.224894 0
M  V30 3730 C 360.125 -2.20436 -0.68385 0
M  V30 3731 C 361.095 -1.16102 -1.18783 0
M  V30 3732 O 362.28 -1.4447 -1.24632 0
M  V30 3733 C 359.42 -2.89076 -1.88491 0
M  V30 3734 C 358.533 -4.08012 -1.41951 0
M  V30 3735 C 357.668 -4.64426 -2.5784 0
M  V30 3736 C 356.707 -5.75656 -2.08053 0
M  V30 3737 N 355.844 -6.26347 -3.17227 0
M  V30 3738 H 360.684 -2.97727 -0.12754 0
M  V30 3739 H 358.221 -1.47011 -0.0511978 0
M  V30 3740 H 360.179 -3.27059 -2.59014 0
M  V30 3741 H 358.809 -2.14298 -2.41405 0
M  V30 3742 H 357.861 -3.75492 -0.609095 0
M  V30 3743 H 359.173 -4.88375 -1.01447 0
M  V30 3744 H 358.327 -5.04869 -3.3644 0
M  V30 3745 H 357.066 -3.83233 -3.01635 0
M  V30 3746 H 356.071 -5.34712 -1.27916 0
M  V30 3747 H 357.296 -6.58686 -1.65255 0
M  V30 3748 H 355.242 -5.48067 -3.60497 0
M  V30 3749 H 355.159 -7.01843 -2.80986 0
M  V30 3750 H 356.427 -6.71447 -3.95953 0
M  V30 3751 N 360.656 0.0484629 -1.57525 0
M  V30 3752 C 361.619 1.03956 -2.04269 0
M  V30 3753 C 362.619 1.30211 -0.943496 0
M  V30 3754 O 363.809 1.25539 -1.20771 0
M  V30 3755 C 360.941 2.37742 -2.44319 0
M  V30 3756 H 362.134 0.636182 -2.93075 0
M  V30 3757 H 359.687 0.294811 -1.53494 0
M  V30 3758 H 360.422 2.82866 -1.5861 0
M  V30 3759 H 360.207 2.20021 -3.24551 0
M  V30 3760 H 361.697 3.08936 -2.80978 0
M  V30 3761 N 362.134 1.5431 0.320358 0
M  V30 3762 C 363.081 1.83918 1.39438 0
M  V30 3763 C 364.051 0.686525 1.51248 0
M  V30 3764 O 365.236 0.933269 1.66417 0
M  V30 3765 C 362.376 2.075 2.75749 0
M  V30 3766 C 361.489 3.35177 2.72544 0
M  V30 3767 C 360.624 3.48704 4.00723 0
M  V30 3768 C 359.663 4.70244 3.91838 0
M  V30 3769 N 358.8 4.80679 5.11754 0
M  V30 3770 H 363.64 2.75544 1.13489 0
M  V30 3771 H 361.177 1.36459 0.549309 0
M  V30 3772 H 363.135 2.19166 3.54996 0
M  V30 3773 H 361.765 1.19163 3 0
M  V30 3774 H 360.817 3.32233 1.85271 0
M  V30 3775 H 362.129 4.24534 2.61863 0
M  V30 3776 H 361.283 3.59928 4.88402 0
M  V30 3777 H 360.022 2.57445 4.14214 0
M  V30 3778 H 359.027 4.59072 3.02544 0
M  V30 3779 H 360.252 5.6289 3.7991 0
M  V30 3780 H 358.198 3.92337 5.25745 0
M  V30 3781 H 358.115 5.64007 5.0342 0
M  V30 3782 H 359.383 4.96239 6.01138 0
M  V30 3783 N 363.613 -0.582584 1.46437 0
M  V30 3784 C 364.561 -1.71272 1.5738 0
M  V30 3785 C 365.555 -1.63524 0.44229 0
M  V30 3786 O 366.761 -1.69016 0.619166 0
M  V30 3787 H 363.136 -0.566273 0.494813 0
M  V30 3788 H 365.107 -1.59174 2.52401 0
M  V30 3789 C 363.856 -3.09658 1.58136 0
M  V30 3790 H 363.179 -3.16291 2.44541 0
M  V30 3791 H 364.619 -3.88494 1.69847 0
M  V30 3792 C 363.078 -3.3547 0.310026 0
M  V30 3793 O 363.608 -3.97199 -0.599683 0
M  V30 3794 N 361.814 -2.89925 0.197901 0
M  V30 3795 H 361.361 -2.39873 0.93909 0
M  V30 3796 H 361.319 -3.07568 -0.65185 0
M  V30 3797 N 365.091 -1.34144 -0.827227 0
M  V30 3798 C 366.001 -1.27428 -1.96975 0
M  V30 3799 C 367.017 -0.182728 -1.73038 0
M  V30 3800 O 368.193 -0.408426 -1.97215 0
M  V30 3801 C 365.258 -1.02526 -3.31194 0
M  V30 3802 C 364.319 -2.20796 -3.68168 0
M  V30 3803 C 363.552 -1.97073 -4.95982 0
M  V30 3804 O 363.775 -0.926822 -5.6282 0
M  V30 3805 O 362.709 -2.83912 -5.30733 0
M  V30 3806 H 366.535 -2.23537 -2.05584 0
M  V30 3807 H 364.12 -1.14307 -0.961989 0
M  V30 3808 H 366.002 -0.904026 -4.11589 0
M  V30 3809 H 364.677 -0.0945389 -3.23562 0
M  V30 3810 H 363.584 -2.38477 -2.88235 0
M  V30 3811 H 364.917 -3.12243 -3.8048 0
M  V30 3812 N 366.569 1.04691 -1.17803 0
M  V30 3813 C 367.797 1.81446 -0.99423 0
M  V30 3814 C 368.212 1.83174 0.457459 0
M  V30 3815 O 367.569 1.26265 1.31771 0
M  V30 3816 C 367.62 3.27334 -1.5341 0
M  V30 3817 O 367.341 3.25798 -2.92895 0
M  V30 3818 C 368.842 4.20759 -1.39559 0
M  V30 3819 H 366.062 0.571599 -0.351447 0
M  V30 3820 H 368.606 1.31982 -1.56208 0
M  V30 3821 H 366.761 3.74052 -1.00815 0
M  V30 3822 H 367.175 4.17144 -3.17949 0
M  V30 3823 H 368.649 5.21084 -1.82141 0
M  V30 3824 H 369.126 4.37856 -0.343394 0
M  V30 3825 H 369.732 3.79901 -1.91195 0
M  V30 3826 N 368.047 0.979072 1.23499 0
M  V30 3827 C 368.957 0.526431 2.28617 0
M  V30 3828 C 369.973 -0.418126 1.68901 0
M  V30 3829 O 371.149 -0.288372 1.99325 0
M  V30 3830 C 368.214 -0.165235 3.46306 0
M  V30 3831 C 367.275 0.82056 4.21385 0
M  V30 3832 C 366.508 0.161807 5.33455 0
M  V30 3833 O 366.731 -1.04742 5.60701 0
M  V30 3834 O 365.665 0.859708 5.95729 0
M  V30 3835 H 369.491 1.4006 2.69475 0
M  V30 3836 H 367.076 0.746643 1.29405 0
M  V30 3837 H 368.958 -0.553287 4.17752 0
M  V30 3838 H 367.633 -1.01419 3.07402 0
M  V30 3839 H 366.54 1.25929 3.52268 0
M  V30 3840 H 367.873 1.63828 4.64135 0
M  V30 3841 N 369.525 -1.3858 0.750561 0
M  V30 3842 C 370.773 -1.99789 0.30477 0
M  V30 3843 C 371.094 -1.59874 -1.11649 0
M  V30 3844 O 370.364 -0.85417 -1.76297 0
M  V30 3845 H 368.944 -0.738902 0.109694 0
M  V30 3846 H 371.606 -1.69391 0.963983 0
M  V30 3847 H 370.702 -3.09952 0.365499 0
M  V30 3848 N 371.003 -0.499398 -1.49478 0
M  V30 3849 C 372.249 0.0457576 -2.02748 0
M  V30 3850 C 372.582 1.36793 -1.37846 0
M  V30 3851 O 371.857 1.87596 -0.513601 0
M  V30 3852 C 372.14 0.199986 -3.59544 0
M  V30 3853 C 371.993 -1.1452 -4.34977 0
M  V30 3854 C 373.312 0.94137 -4.29914 0
M  V30 3855 H 370.431 0.0151552 -0.736844 0
M  V30 3856 H 373.073 -0.650498 -1.78518 0
M  V30 3857 H 371.223 0.793007 -3.8032 0
M  V30 3858 H 372.895 -1.77697 -4.25701 0
M  V30 3859 H 371.138 -1.73488 -3.97598 0
M  V30 3860 H 371.809 -0.990607 -5.43039 0
M  V30 3861 H 374.285 0.43844 -4.13784 0
M  V30 3862 H 373.161 1.01812 -5.39375 0
M  V30 3863 H 373.422 1.98471 -3.95046 0
M  V30 3864 N 372.481 1.55866 -0.233164 0
M  V30 3865 C 373.709 2.02998 0.399905 0
M  V30 3866 C 374.124 1.11274 1.52524 0
M  V30 3867 O 373.481 0.124528 1.82075 0
M  V30 3868 C 373.532 3.4958 0.920639 0
M  V30 3869 O 373.253 4.37808 -0.159834 0
M  V30 3870 C 374.754 4.12411 1.62578 0
M  V30 3871 H 371.974 0.664006 0.0966281 0
M  V30 3872 H 374.518 2.0143 -0.353013 0
M  V30 3873 H 372.673 3.51727 1.62379 0
M  V30 3874 H 373.087 5.23981 0.23337 0
M  V30 3875 H 374.561 5.16711 1.94201 0
M  V30 3876 H 375.038 3.5809 2.54299 0
M  V30 3877 H 375.644 4.14148 0.967553 0
M  V30 3878 N 373.959 -0.0401083 1.57549 0
M  V30 3879 C 374.907 -1.06264 2.06908 0
M  V30 3880 C 375.901 -1.38132 0.980608 0
M  V30 3881 O 377.107 -1.37167 1.16556 0
M  V30 3882 H 373.482 -0.360166 0.660139 0
M  V30 3883 H 375.453 -0.620445 2.91878 0
M  V30 3884 C 374.202 -2.35846 2.55483 0
M  V30 3885 H 373.525 -2.12183 3.38849 0
M  V30 3886 H 374.965 -3.05765 2.93741 0
M  V30 3887 C 373.424 -3.0404 1.45126 0
M  V30 3888 O 373.954 -3.93424 0.811216 0
M  V30 3889 N 372.16 -2.65184 1.18852 0
M  V30 3890 H 371.707 -1.92584 1.71083 0
M  V30 3891 H 371.665 -3.1113 0.452244 0
M  V30 3892 N 375.437 -1.54477 -0.31217 0
M  V30 3893 C 376.367 -1.87652 -1.38957 0
M  V30 3894 C 377.348 -0.734358 -1.53431 0
M  V30 3895 O 378.533 -0.98911 -1.67123 0
M  V30 3896 C 375.663 -2.11396 -2.75552 0
M  V30 3897 C 374.617 -3.27243 -2.75855 0
M  V30 3898 C 373.943 -3.36382 -4.15633 0
M  V30 3899 C 375.243 -4.64622 -2.38587 0
M  V30 3900 H 376.937 -2.77887 -1.11442 0
M  V30 3901 H 374.483 -1.33707 -0.534655 0
M  V30 3902 H 376.436 -2.33189 -3.51 0
M  V30 3903 H 375.16 -1.17921 -3.04569 0
M  V30 3904 H 373.819 -3.05356 -2.02863 0
M  V30 3905 H 373.467 -2.40445 -4.41809 0
M  V30 3906 H 373.167 -4.14249 -4.1674 0
M  V30 3907 H 374.691 -3.60422 -4.92877 0
M  V30 3908 H 376.105 -4.86219 -3.03749 0
M  V30 3909 H 374.502 -5.45121 -2.50925 0
M  V30 3910 H 375.572 -4.66097 -1.33723 0
M  V30 3911 N 376.915 0.57481 -1.46744 0
M  V30 3912 C 378.162 1.33272 -1.52462 0
M  V30 3913 C 378.49 1.93669 -0.179572 0
M  V30 3914 O 377.745 1.7743 0.825664 0
M  V30 3915 C 378.044 2.476 -2.57738 0
M  V30 3916 C 377.71 2.05146 -4.01529 0
M  V30 3917 C 376.372 1.93284 -4.40676 0
M  V30 3918 C 378.724 1.72506 -4.91824 0
M  V30 3919 C 376.052 1.47049 -5.67973 0
M  V30 3920 C 378.404 1.27748 -6.19567 0
M  V30 3921 C 377.068 1.14468 -6.57612 0
M  V30 3922 H 376.338 0.487678 -0.557899 0
M  V30 3923 H 378.985 0.646456 -1.80259 0
M  V30 3924 H 377.29 3.21708 -2.23632 0
M  V30 3925 H 378.987 3.05807 -2.5939 0
M  V30 3926 H 375.577 2.15316 -3.7059 0
M  V30 3927 H 379.761 1.80552 -4.62293 0
M  V30 3928 H 375.017 1.35417 -5.96215 0
M  V30 3929 H 379.191 1.01547 -6.88957 0
M  V30 3930 H 376.818 0.78419 -7.56145 0
M  V30 3931 N 378.394 1.34581 0.820102 0
M  V30 3932 C 379.344 1.22943 1.92013 0
M  V30 3933 C 380.328 0.127802 1.60392 0
M  V30 3934 O 381.52 0.357737 1.73347 0
M  V30 3935 C 378.649 0.989938 3.28717 0
M  V30 3936 C 377.735 2.13486 3.66449 0
M  V30 3937 N 378.126 3.38625 3.75722 0
M  V30 3938 C 376.424 2.04573 3.96315 0
M  V30 3939 C 377.125 4.13832 4.08801 0
M  V30 3940 N 376.101 3.42451 4.22171 0
M  V30 3941 H 379.903 2.17771 1.97365 0
M  V30 3942 H 377.417 1.2686 1.01392 0
M  V30 3943 H 379.414 0.887462 4.07345 0
M  V30 3944 H 378.074 0.0503691 3.24661 0
M  V30 3945 H 379.085 3.73143 3.59144 0
M  V30 3946 H 375.762 1.1839 4.00362 0
M  V30 3947 H 377.152 5.21909 4.23156 0
M  V30 3948 N 379.872 -1.04064 1.18357 0
M  V30 3949 C 381.121 -1.76662 0.973313 0
M  V30 3950 C 381.434 -1.89154 -0.497991 0
M  V30 3951 O 382.64 -2.58606 -0.826762 0
M  V30 3952 C 381.096 -3.17624 1.69242 0
M  V30 3953 C 380.704 -3.13225 3.20303 0
M  V30 3954 C 382.448 -3.946 1.56497 0
M  V30 3955 C 380.355 -4.49046 3.84853 0
M  V30 3956 H 379.285 -0.662214 0.36054 0
M  V30 3957 H 381.936 -1.16553 1.41731 0
M  V30 3958 H 380.318 -3.78129 1.1762 0
M  V30 3959 H 381.492 -2.62172 3.78949 0
M  V30 3960 H 379.807 -2.49749 3.33189 0
M  V30 3961 H 382.404 -4.95042 2.02084 0
M  V30 3962 H 382.747 -4.13074 0.517243 0
M  V30 3963 H 383.28 -3.4067 2.05399 0
M  V30 3964 H 380.019 -4.35777 4.89672 0
M  V30 3965 H 379.539 -5.00203 3.30994 0
M  V30 3966 H 381.218 -5.17961 3.87718 0
M  V30 3967 N 381.35 -0.985608 -1.22978 0
M  V30 3968 C 382.28 -0.549649 -2.26939 0
M  V30 3969 C 383.261 0.419803 -1.64838 0
M  V30 3970 O 384.446 0.31203 -1.91677 0
M  V30 3971 C 381.576 0.143652 -3.47003 0
M  V30 3972 C 380.53 -0.743606 -4.21491 0
M  V30 3973 C 379.856 0.0822027 -5.34637 0
M  V30 3974 C 381.156 -2.03694 -4.80943 0
M  V30 3975 H 382.85 -1.41862 -2.63658 0
M  V30 3976 H 380.396 -0.683571 -1.26741 0
M  V30 3977 H 382.349 0.459985 -4.18882 0
M  V30 3978 H 381.073 1.04711 -3.09359 0
M  V30 3979 H 379.732 -1.04347 -3.51436 0
M  V30 3980 H 379.38 0.986359 -4.93234 0
M  V30 3981 H 379.08 -0.508377 -5.85397 0
M  V30 3982 H 380.604 0.392797 -6.09335 0
M  V30 3983 H 382.018 -1.78504 -5.44802 0
M  V30 3984 H 380.415 -2.57573 -5.42011 0
M  V30 3985 H 381.485 -2.72042 -4.01399 0
M  V30 3986 N 382.828 1.3818 -0.7579 0
M  V30 3987 C 384.053 2.04827 -0.325679 0
M  V30 3988 C 384.478 1.56788 1.03919 0
M  V30 3989 O 383.836 0.721811 1.66312 0
M  V30 3990 C 383.884 3.58774 -0.362447 0
M  V30 3991 O 382.988 4.07372 0.642033 0
M  V30 3992 H 382.329 0.64833 -0.143402 0
M  V30 3993 H 384.859 1.7677 -1.03023 0
M  V30 3994 H 384.869 4.07434 -0.214844 0
M  V30 3995 H 383.544 3.93096 -1.35824 0
M  V30 3996 H 382.121 3.70068 0.458688 0
M  V30 3997 N 384.306 0.507319 1.49211 0
M  V30 3998 C 385.531 -0.033725 2.07373 0
M  V30 3999 C 385.956 -1.29485 1.36437 0
M  V30 4000 O 385.314 -1.76294 0.423087 0
M  V30 4001 C 385.362 -0.263945 3.59633 0
M  V30 4002 O 384.466 -1.33737 3.90113 0
M  V30 4003 H 383.807 0.0290331 0.663365 0
M  V30 4004 H 386.337 0.708749 1.91932 0
M  V30 4005 H 386.347 -0.493536 4.05004 0
M  V30 4006 H 385.022 0.657424 4.10671 0
M  V30 4007 H 383.599 -1.09224 3.56545 0
M  V30 4008 N 385.784 -1.5574 0.241426 0
M  V30 4009 C 387.03 -1.99104 -0.385406 0
M  V30 4010 C 387.363 -1.1293 -1.57988 0
M  V30 4011 O 386.638 -0.191449 -1.93555 0
M  V30 4012 C 386.921 -3.51087 -0.800616 0
M  V30 4013 C 386.774 -4.48028 0.398874 0
M  V30 4014 C 388.093 -4.08015 -1.64959 0
M  V30 4015 H 385.212 -0.723848 -0.138614 0
M  V30 4016 H 387.854 -1.86903 0.341642 0
M  V30 4017 H 386.004 -3.61615 -1.4201 0
M  V30 4018 H 387.676 -4.49487 1.03726 0
M  V30 4019 H 385.919 -4.21077 1.04293 0
M  V30 4020 H 386.59 -5.51962 0.0651056 0
M  V30 4021 H 389.066 -4.00555 -1.12672 0
M  V30 4022 H 387.942 -5.14635 -1.90898 0
M  V30 4023 H 388.203 -3.56131 -2.61961 0
M  V30 4024 N 387.262 0.0317525 -1.57568 0
M  V30 4025 C 388.21 1.05165 -2.07468 0
M  V30 4026 C 389.204 1.3761 -0.98792 0
M  V30 4027 O 390.41 1.36546 -1.17282 0
M  V30 4028 H 386.785 0.35666 -0.66204 0
M  V30 4029 H 388.756 0.604958 -2.92203 0
M  V30 4030 C 387.505 2.34488 -2.56731 0
M  V30 4031 H 386.828 2.10383 -3.39969 0
M  V30 4032 H 388.268 3.04203 -2.95358 0
M  V30 4033 C 386.727 3.03266 -1.46736 0
M  V30 4034 O 387.257 3.92988 -0.832069 0
M  V30 4035 N 385.463 2.6455 -1.20256 0
M  V30 4036 H 385.01 1.91674 -1.72102 0
M  V30 4037 H 384.968 3.10886 -0.468737 0
M  V30 4038 N 388.74 1.54641 0.303973 0
M  V30 4039 C 389.989 1.7299 1.03717 0
M  V30 4040 C 390.302 0.521168 1.88529 0
M  V30 4041 O 391.508 0.586408 2.65092 0
M  V30 4042 C 389.964 3.06051 1.89369 0
M  V30 4043 C 389.572 4.34393 1.09574 0
M  V30 4044 C 391.316 3.3376 2.62306 0
M  V30 4045 C 389.223 5.58506 1.94486 0
M  V30 4046 H 388.153 0.64473 0.390947 0
M  V30 4047 H 390.804 1.81124 0.294328 0
M  V30 4048 H 389.186 2.91874 2.67629 0
M  V30 4049 H 390.36 4.59396 0.359485 0
M  V30 4050 H 388.675 4.13597 0.482324 0
M  V30 4051 H 391.272 4.23687 3.26181 0
M  V30 4052 H 391.615 2.52503 3.3098 0
M  V30 4053 H 392.148 3.48894 1.91097 0
M  V30 4054 H 388.887 6.42422 1.30287 0
M  V30 4055 H 388.407 5.37694 2.65792 0
M  V30 4056 H 390.086 5.95651 2.52605 0
M  V30 4057 N 390.218 -0.567019 1.47046 0
M  V30 4058 C 391.629 -1.14916 1.47143 0
M  V30 4059 C 391.98 -1.94954 0.220767 0
M  V30 4060 O 391.105 -2.05602 -0.67505 0
M  V30 4061 C 391.7 -2.09069 2.666 0
M  V30 4062 C 390.259 -2.62575 2.69687 0
M  V30 4063 C 389.406 -1.38755 2.40088 0
M  V30 4064 H 392.357 -0.354126 1.54699 0
M  V30 4065 H 392.378 -2.92789 2.43011 0
M  V30 4066 H 391.89 -1.50789 3.57609 0
M  V30 4067 H 389.991 -3.24681 1.82792 0
M  V30 4068 H 390.104 -3.04239 3.70102 0
M  V30 4069 H 388.468 -1.69098 1.90468 0
M  V30 4070 H 389.251 -0.822822 3.33293 0
M  V30 4071 N 391.696 -1.35014 -0.812953 0
M  V30 4072 C 392.643 -1.27412 -1.92444 0
M  V30 4073 C 393.613 -0.14733 -1.65445 0
M  V30 4074 O 394.798 -0.329974 -1.87925 0
M  V30 4075 C 391.938 -1.04558 -3.28879 0
M  V30 4076 C 391.051 -2.26101 -3.68106 0
M  V30 4077 C 390.186 -1.96449 -4.9354 0
M  V30 4078 C 389.225 -3.14081 -5.25376 0
M  V30 4079 N 388.362 -2.84246 -6.41988 0
M  V30 4080 H 393.202 -2.22463 -1.98278 0
M  V30 4081 H 390.739 -1.10593 -0.969933 0
M  V30 4082 H 392.697 -0.893413 -4.07522 0
M  V30 4083 H 391.327 -0.131719 -3.22531 0
M  V30 4084 H 390.379 -2.52204 -2.84775 0
M  V30 4085 H 391.691 -3.13959 -3.87597 0
M  V30 4086 H 390.845 -1.78026 -5.79993 0
M  V30 4087 H 389.584 -1.05867 -4.76071 0
M  V30 4088 H 388.589 -3.33089 -4.37415 0
M  V30 4089 H 389.814 -4.05455 -5.44778 0
M  V30 4090 H 387.76 -1.96252 -6.25956 0
M  V30 4091 H 387.677 -3.65637 -6.61699 0
M  V30 4092 H 388.945 -2.6935 -7.31485 0
M  V30 4093 N 393.175 1.03435 -1.18907 0
M  V30 4094 C 394.423 1.76394 -0.986382 0
M  V30 4095 C 394.744 1.88883 0.484567 0
M  V30 4096 O 394.014 1.41843 1.3512 0
M  V30 4097 H 392.594 0.65344 -0.361975 0
M  V30 4098 H 395.256 1.248 -1.49703 0
M  V30 4099 H 394.352 2.77424 -1.42978 0
M  V30 4100 N 394.653 0.992116 1.22453 0
M  V30 4101 C 395.899 0.668523 1.91464 0
M  V30 4102 C 396.232 -0.797313 1.77078 0
M  V30 4103 O 395.507 -1.5765 1.13916 0
M  V30 4104 C 395.79 1.07424 3.43703 0
M  V30 4105 C 395.643 2.59857 3.67143 0
M  V30 4106 C 396.962 0.626891 4.35612 0
M  V30 4107 H 394.081 0.244341 0.695318 0
M  V30 4108 H 396.723 1.2355 1.44345 0
M  V30 4109 H 394.873 0.591816 3.83966 0
M  V30 4110 H 396.545 3.15764 3.3629 0
M  V30 4111 H 394.788 3.01961 3.11451 0
M  V30 4112 H 395.459 2.83296 4.73759 0
M  V30 4113 H 397.935 1.04125 4.02861 0
M  V30 4114 H 396.811 0.939076 5.40807 0
M  V30 4115 H 397.072 -0.472457 4.39568 0
M  V30 4116 N 396.131 -1.37776 0.765217 0
M  V30 4117 C 397.377 -2.00145 0.327072 0
M  V30 4118 C 397.71 -1.60607 -1.09175 0
M  V30 4119 O 396.985 -0.849127 -1.74986 0
M  V30 4120 C 397.268 -3.57109 0.46319 0
M  V30 4121 C 397.121 -4.06576 1.92395 0
M  V30 4122 C 398.44 -4.39888 -0.136473 0
M  V30 4123 H 395.559 -0.727113 0.120316 0
M  V30 4124 H 398.201 -1.63549 0.967039 0
M  V30 4125 H 396.351 -3.88414 -0.0816358 0
M  V30 4126 H 398.023 -3.85864 2.52798 0
M  V30 4127 H 396.266 -3.59011 2.43503 0
M  V30 4128 H 396.937 -5.15639 1.97028 0
M  V30 4129 H 399.413 -4.14803 0.328317 0
M  V30 4130 H 398.289 -5.48899 -0.0110582 0
M  V30 4131 H 398.55 -4.24758 -1.22608 0
M  V30 4132 N 397.609 -0.515225 -1.4894 0
M  V30 4133 C 398.539 0.244628 -2.32215 0
M  V30 4134 C 399.52 0.949136 -1.41157 0
M  V30 4135 O 400.705 0.937783 -1.70057 0
M  V30 4136 C 397.835 1.30096 -3.22013 0
M  V30 4137 C 396.789 0.715486 -4.21977 0
M  V30 4138 C 396.115 1.87339 -5.00808 0
M  V30 4139 C 397.415 -0.302982 -5.2142 0
M  V30 4140 H 399.109 -0.450501 -2.95991 0
M  V30 4141 H 396.655 -0.218098 -1.42339 0
M  V30 4142 H 398.608 1.84037 -3.79089 0
M  V30 4143 H 397.332 2.02547 -2.56207 0
M  V30 4144 H 395.991 0.197715 -3.66066 0
M  V30 4145 H 395.639 2.58592 -4.31438 0
M  V30 4146 H 395.339 1.48764 -5.68457 0
M  V30 4147 H 396.863 2.41686 -5.60732 0
M  V30 4148 H 398.277 0.148802 -5.73107 0
M  V30 4149 H 396.674 -0.60532 -5.97039 0
M  V30 4150 H 397.744 -1.21395 -4.69459 0
M  V30 4151 N 399.087 1.5561 -0.249682 0
M  V30 4152 C 400.315 2.03411 0.378352 0
M  V30 4153 C 400.73 1.12886 1.51335 0
M  V30 4154 O 400.087 0.143833 1.81932 0
M  V30 4155 C 400.138 3.50537 0.88351 0
M  V30 4156 O 399.859 4.37614 -0.20626 0
M  V30 4157 C 401.36 4.14113 1.58195 0
M  V30 4158 H 398.58 0.664994 0.08958 0
M  V30 4159 H 401.124 2.01044 -0.374357 0
M  V30 4160 H 399.279 3.5343 1.58639 0
M  V30 4161 H 399.693 5.24199 0.177782 0
M  V30 4162 H 401.167 5.18741 1.8871 0
M  V30 4163 H 401.644 3.60767 2.50487 0
M  V30 4164 H 402.25 4.15151 0.923573 0
M  V30 4165 N 400.565 -0.0233959 1.57583 0
M  V30 4166 C 401.513 -1.04063 2.08023 0
M  V30 4167 C 402.507 -1.37084 0.995204 0
M  V30 4168 O 403.713 -1.35923 1.18004 0
M  V30 4169 H 400.088 -0.353144 0.663922 0
M  V30 4170 H 402.059 -0.589453 2.9252 0
M  V30 4171 C 400.808 -2.33123 2.57971 0
M  V30 4172 H 400.131 -2.08577 3.4108 0
M  V30 4173 H 401.571 -3.02632 2.96967 0
M  V30 4174 C 400.03 -3.02483 1.48342 0
M  V30 4175 O 400.56 -3.92541 0.852898 0
M  V30 4176 N 398.766 -2.63909 1.21658 0
M  V30 4177 H 398.313 -1.90758 1.73116 0
M  V30 4178 H 398.271 -3.10633 0.485218 0
M  V30 4179 N 402.043 -1.548 -0.295768 0
M  V30 4180 C 402.953 -1.89177 -1.38742 0
M  V30 4181 C 403.969 -0.786481 -1.55211 0
M  V30 4182 O 405.145 -1.08344 -1.69775 0
M  V30 4183 C 402.21 -2.13663 -2.73036 0
M  V30 4184 C 401.271 -3.37349 -2.65508 0
M  V30 4185 C 400.504 -3.60658 -3.93398 0
M  V30 4186 O 400.727 -2.86882 -4.93006 0
M  V30 4187 O 399.661 -4.54179 -3.94975 0
M  V30 4188 H 403.487 -2.82059 -1.12589 0
M  V30 4189 H 401.072 -1.41056 -0.492295 0
M  V30 4190 H 402.954 -2.3094 -3.52484 0
M  V30 4191 H 401.629 -1.23967 -2.99022 0
M  V30 4192 H 400.536 -3.25431 -1.84514 0
M  V30 4193 H 401.869 -4.27192 -2.44474 0
M  V30 4194 N 403.521 0.559213 -1.47345 0
M  V30 4195 C 404.769 1.31388 -1.53563 0
M  V30 4196 C 405.09 1.93985 -0.198678 0
M  V30 4197 O 404.36 1.79825 0.777167 0
M  V30 4198 H 402.94 0.487901 -0.565652 0
M  V30 4199 H 405.602 0.65315 -1.8363 0
M  V30 4200 H 404.698 2.10844 -2.30111 0
M  V30 4201 N 404.999 1.35443 0.805782 0
M  V30 4202 C 405.946 1.28431 1.91766 0
M  V30 4203 C 406.916 0.156102 1.65365 0
M  V30 4204 O 408.101 0.339936 1.87747 0
M  V30 4205 C 405.241 1.06301 3.2832 0
M  V30 4206 C 404.354 2.2805 3.66902 0
M  V30 4207 C 403.489 1.99064 4.92491 0
M  V30 4208 C 402.528 3.16863 5.23703 0
M  V30 4209 N 401.665 2.87647 6.40471 0
M  V30 4210 H 406.505 2.23511 1.97096 0
M  V30 4211 H 404.042 1.11105 0.964054 0
M  V30 4212 H 406 0.915012 4.07042 0
M  V30 4213 H 404.63 0.148822 3.22457 0
M  V30 4214 H 403.682 2.53711 2.83434 0
M  V30 4215 H 404.994 3.1601 3.85927 0
M  V30 4216 H 404.148 1.81099 5.7904 0
M  V30 4217 H 402.887 1.0839 4.75503 0
M  V30 4218 H 401.892 3.35404 4.35642 0
M  V30 4219 H 403.117 4.08339 5.4262 0
M  V30 4220 H 401.063 1.99568 6.24907 0
M  V30 4221 H 400.98 3.69141 6.59751 0
M  V30 4222 H 402.248 2.73226 7.30047 0
M  V30 4223 N 406.477 -1.02803 1.19454 0
M  V30 4224 C 407.705 -1.79841 1.02297 0
M  V30 4225 C 408.12 -1.83879 -0.428259 0
M  V30 4226 O 407.477 -1.28345 -1.29745 0
M  V30 4227 C 407.528 -3.24852 1.58598 0
M  V30 4228 O 407.249 -3.21097 2.98041 0
M  V30 4229 C 408.75 -4.18485 1.46236 0
M  V30 4230 H 405.97 -0.565936 0.360496 0
M  V30 4231 H 408.514 -1.2948 1.58288 0
M  V30 4232 H 406.669 -3.72401 1.06753 0
M  V30 4233 H 407.083 -4.12033 3.24545 0
M  V30 4234 H 408.557 -5.18121 1.90407 0
M  V30 4235 H 409.034 -4.37254 0.41301 0
M  V30 4236 H 409.64 -3.76811 1.97215 0
M  V30 4237 N 407.956 -0.998596 -1.21925 0
M  V30 4238 C 409.233 -0.593401 -1.86382 0
M  V30 4239 C 409.613 0.92916 -1.89552 0
M  V30 4240 O 408.961 1.81347 -1.39017 0
M  V30 4241 C 409.171 -1.22039 -3.26967 0
M  V30 4242 C 410.519 -1.32449 -4.03413 0
M  V30 4243 O 411.543 -1.17522 -3.36254 0
M  V30 4244 O 410.402 -1.56395 -5.23644 0
M  V30 4245 H 407.496 -0.202385 -0.801854 0
M  V30 4246 H 410.042 -1.09484 -1.29659 0
M  V30 4247 H 408.814 -2.26158 -3.19325 0
M  V30 4248 H 408.437 -0.704906 -3.91301 0
M  V30 4249 N 409.434 1.37368 -0.772513 0
M  V30 4250 C 410.664 2.03647 -0.348082 0
M  V30 4251 C 411.072 1.58392 1.03482 0
M  V30 4252 O 410.415 0.760921 1.672 0
M  V30 4253 C 410.477 3.58131 -0.313404 0
M  V30 4254 C 410.141 4.2652 -1.64102 0
M  V30 4255 C 411.138 4.50587 -2.5936 0
M  V30 4256 C 408.823 4.64335 -1.91567 0
M  V30 4257 C 410.817 5.11526 -3.80289 0
M  V30 4258 C 408.504 5.24996 -3.12766 0
M  V30 4259 C 409.502 5.48529 -4.06946 0
M  V30 4260 O 409.19 6.07921 -5.26011 0
M  V30 4261 H 408.922 0.660538 -0.143753 0
M  V30 4262 H 411.476 1.76669 -1.04772 0
M  V30 4263 H 409.706 3.84159 0.442617 0
M  V30 4264 H 411.395 4.05813 0.0840613 0
M  V30 4265 H 412.161 4.21784 -2.39423 0
M  V30 4266 H 408.04 4.45353 -1.19088 0
M  V30 4267 H 411.584 5.29811 -4.53813 0
M  V30 4268 H 407.481 5.53223 -3.32588 0
M  V30 4269 H 408.249 6.26398 -5.26847 0
M  V30 4270 N 410.912 0.523116 1.48665 0
M  V30 4271 C 412.14 -0.0096312 2.06898 0
M  V30 4272 C 412.555 -1.28784 1.38059 0
M  V30 4273 O 411.912 -1.76453 0.465893 0
M  V30 4274 C 411.963 -0.244386 3.60673 0
M  V30 4275 O 411.684 0.983172 4.26925 0
M  V30 4276 C 413.185 -0.818289 4.35682 0
M  V30 4277 H 410.405 0.0304161 0.67031 0
M  V30 4278 H 412.949 0.726799 1.91149 0
M  V30 4279 H 411.104 -0.930847 3.76051 0
M  V30 4280 H 411.518 0.759653 5.1897 0
M  V30 4281 H 412.992 -0.93201 5.44075 0
M  V30 4282 H 413.469 -1.82153 3.99646 0
M  V30 4283 H 414.075 -0.168609 4.24966 0
M  V30 4284 N 412.39 -1.55475 0.257931 0
M  V30 4285 C 413.639 -1.98383 -0.364275 0
M  V30 4286 C 413.952 -1.14952 -1.58258 0
M  V30 4287 O 415.158 -1.47924 -2.27664 0
M  V30 4288 C 413.614 -3.53037 -0.699479 0
M  V30 4289 C 413.222 -4.45223 0.498046 0
M  V30 4290 C 414.966 -4.04575 -1.28526 0
M  V30 4291 C 412.873 -5.91238 0.138383 0
M  V30 4292 H 411.803 -0.740911 -0.13988 0
M  V30 4293 H 414.454 -1.79936 0.359883 0
M  V30 4294 H 412.836 -3.6722 -1.48207 0
M  V30 4295 H 414.01 -4.42803 1.27522 0
M  V30 4296 H 412.325 -4.04226 0.999503 0
M  V30 4297 H 414.922 -5.11196 -1.56788 0
M  V30 4298 H 415.265 -3.5258 -2.21344 0
M  V30 4299 H 415.798 -3.93762 -0.565337 0
M  V30 4300 H 412.537 -6.47294 1.03398 0
M  V30 4301 H 412.057 -5.96768 -0.602374 0
M  V30 4302 H 413.736 -6.46413 -0.27553 0
M  V30 4303 N 413.868 0.0150385 -1.57593 0
M  V30 4304 C 415.098 0.713359 -1.93894 0
M  V30 4305 C 415.506 1.68663 -0.857289 0
M  V30 4306 O 414.849 1.82876 0.173788 0
M  V30 4307 C 414.911 1.51348 -3.26089 0
M  V30 4308 C 414.575 0.703451 -4.51554 0
M  V30 4309 C 415.572 -0.00237924 -5.199 0
M  V30 4310 C 413.257 0.653854 -4.98026 0
M  V30 4311 C 415.251 -0.746955 -6.33008 0
M  V30 4312 C 412.938 -0.0944578 -6.11027 0
M  V30 4313 C 413.936 -0.793609 -6.78374 0
M  V30 4314 O 413.624 -1.52974 -7.89211 0
M  V30 4315 H 413.356 0.204637 -0.644282 0
M  V30 4316 H 415.91 -0.0276411 -2.05381 0
M  V30 4317 H 414.14 2.29862 -3.10967 0
M  V30 4318 H 415.829 2.09572 -3.47612 0
M  V30 4319 H 416.595 0.0268803 -4.84993 0
M  V30 4320 H 412.474 1.18756 -4.45441 0
M  V30 4321 H 416.018 -1.2932 -6.85509 0
M  V30 4322 H 411.915 -0.125591 -6.45378 0
M  V30 4323 H 412.683 -1.44488 -8.05646 0
M  V30 4324 N 415.346 1.54954 0.287554 0
M  V30 4325 C 416.574 1.78881 1.03967 0
M  V30 4326 C 416.989 0.554894 1.80462 0
M  V30 4327 O 416.346 -0.475676 1.76192 0
M  V30 4328 C 416.397 3.00488 2.0097 0
M  V30 4329 O 416.118 4.19113 1.27577 0
M  V30 4330 C 417.619 3.36907 2.88112 0
M  V30 4331 H 414.839 0.596259 0.307761 0
M  V30 4332 H 417.383 2.01937 0.322749 0
M  V30 4333 H 415.538 2.79601 2.68145 0
M  V30 4334 H 415.952 4.87765 1.92835 0
M  V30 4335 H 417.426 4.25205 3.52001 0
M  V30 4336 H 417.903 2.55659 3.57121 0
M  V30 4337 H 418.509 3.60001 2.26449 0
M  V30 4338 N 416.824 -0.551391 1.4764 0
M  V30 4339 C 418.049 -1.33837 1.58437 0
M  V30 4340 C 418.474 -1.866 0.237063 0
M  V30 4341 O 417.832 -1.6328 -0.787994 0
M  V30 4342 C 417.88 -2.48014 2.61766 0
M  V30 4343 O 416.984 -3.50419 2.1744 0
M  V30 4344 H 416.325 -0.397299 0.532024 0
M  V30 4345 H 418.855 -0.665759 1.93465 0
M  V30 4346 H 418.865 -2.94503 2.82369 0
M  V30 4347 H 417.54 -2.08969 3.5959 0
M  V30 4348 H 416.117 -3.10196 2.06961 0
M  V30 4349 N 418.302 -1.35869 -0.798587 0
M  V30 4350 C 419.265 -1.29307 -1.89242 0
M  V30 4351 C 420.265 -0.202747 -1.59517 0
M  V30 4352 O 421.455 -0.456957 -1.681 0
M  V30 4353 C 418.587 -1.00229 -3.25833 0
M  V30 4354 H 419.78 -2.26576 -1.96478 0
M  V30 4355 H 417.333 -1.20509 -0.995358 0
M  V30 4356 H 418.068 -0.033801 -3.24282 0
M  V30 4357 H 417.853 -1.79121 -3.48795 0
M  V30 4358 H 419.343 -0.98219 -4.05885 0
M  V30 4359 N 419.78 1.02168 -1.19998 0
M  V30 4360 C 420.713 2.10232 -0.887558 0
M  V30 4361 C 421.691 1.61827 0.158317 0
M  V30 4362 O 422.875 1.88471 0.0330249 0
M  V30 4363 C 420.002 3.37092 -0.32964 0
M  V30 4364 C 419.048 4.0438 -1.3557 0
M  V30 4365 S 419.881 4.48956 -2.91888 0
M  V30 4366 C 421.037 5.79024 -2.37658 0
M  V30 4367 H 421.27 2.36409 -1.80272 0
M  V30 4368 H 418.803 1.15211 -1.0279 0
M  V30 4369 H 420.761 4.10498 -0.0142824 0
M  V30 4370 H 419.422 3.08996 0.563941 0
M  V30 4371 H 418.615 4.95632 -0.9146 0
M  V30 4372 H 418.217 3.37176 -1.61828 0
M  V30 4373 H 420.509 6.53942 -1.77103 0
M  V30 4374 H 421.452 6.27924 -3.27287 0
M  V30 4375 H 421.86 5.35043 -1.79971 0
M  V30 4376 N 421.258 1.00505 1.21394 0
M  V30 4377 C 422.498 0.696149 1.9218 0
M  V30 4378 C 422.862 -0.759099 1.76357 0
M  V30 4379 O 424.063 -1.17998 2.41516 0
M  V30 4380 C 422.334 1.10571 3.39866 0
M  V30 4381 S 423.893 0.91702 4.29111 0
M  V30 4382 H 420.711 0.254147 0.664026 0
M  V30 4383 H 423.313 1.28988 1.46909 0
M  V30 4384 H 422.017 2.16096 3.489 0
M  V30 4385 H 421.548 0.504268 3.90155 0
M  V30 4386 H 423.563 -0.185855 4.95852 0
M  V30 4387 N 422.737 -1.36956 0.779787 0
M  V30 4388 C 423.7 -2.2851 0.177662 0
M  V30 4389 C 424.7 -1.48393 -0.619377 0
M  V30 4390 O 425.89 -1.68505 -0.441785 0
M  V30 4391 C 423.022 -3.32428 -0.755279 0
M  V30 4392 H 424.215 -2.83269 0.984823 0
M  V30 4393 H 421.768 -1.46358 0.548544 0
M  V30 4394 H 422.503 -2.82808 -1.58714 0
M  V30 4395 H 422.288 -3.91659 -0.185817 0
M  V30 4396 H 423.778 -4.00824 -1.17174 0
M  V30 4397 N 424.215 -0.530993 -1.48385 0
M  V30 4398 C 425.147 0.268353 -2.27624 0
M  V30 4399 C 426.16 0.903525 -1.35426 0
M  V30 4400 O 427.349 0.781796 -1.60469 0
M  V30 4401 C 424.449 1.39535 -3.08842 0
M  V30 4402 C 423.622 0.861913 -4.28824 0
M  V30 4403 C 422.681 1.87016 -4.91845 0
M  V30 4404 O 421.707 1.4267 -5.5103 0
M  V30 4405 N 422.909 3.20238 -4.84178 0
M  V30 4406 H 425.674 -0.41123 -2.96865 0
M  V30 4407 H 423.235 -0.365387 -1.57723 0
M  V30 4408 H 425.227 2.06803 -3.47871 0
M  V30 4409 H 423.797 1.97859 -2.42014 0
M  V30 4410 H 423.017 0.0132126 -3.94198 0
M  V30 4411 H 424.305 0.484415 -5.06489 0
M  V30 4412 H 423.703 3.58932 -4.37246 0
M  V30 4413 H 422.26 3.83136 -5.27305 0
M  V30 4414 N 425.693 1.55336 -0.266172 0
M  V30 4415 C 426.918 2.04258 0.359661 0
M  V30 4416 C 427.343 1.14359 1.49344 0
M  V30 4417 O 426.701 0.140369 1.80756 0
M  V30 4418 C 426.749 3.50997 0.826635 0
M  V30 4419 O 425.853 3.64204 1.93466 0
M  V30 4420 H 425.194 0.659668 0.075727 0
M  V30 4421 H 427.724 2.00694 -0.39786 0
M  V30 4422 H 427.734 3.9219 1.12477 0
M  V30 4423 H 426.409 4.159 -0.00293032 0
M  V30 4424 H 424.986 3.34913 1.63974 0
M  V30 4425 N 427.171 -0.0066808 1.57599 0
M  V30 4426 C 428.118 -1.00024 2.08 0
M  V30 4427 C 429.088 -1.34549 0.973943 0
M  V30 4428 O 430.273 -1.44502 1.24595 0
M  V30 4429 C 427.413 -2.2891 2.58252 0
M  V30 4430 C 426.526 -2.00346 3.82734 0
M  V30 4431 C 425.661 -3.23265 4.21513 0
M  V30 4432 C 424.7 -2.90357 5.3885 0
M  V30 4433 N 423.837 -4.05793 5.72954 0
M  V30 4434 H 428.677 -0.563499 2.92624 0
M  V30 4435 H 426.214 -0.266592 1.44664 0
M  V30 4436 H 428.172 -3.04247 2.85464 0
M  V30 4437 H 426.802 -2.70265 1.76512 0
M  V30 4438 H 425.854 -1.15406 3.62471 0
M  V30 4439 H 427.166 -1.72086 4.68175 0
M  V30 4440 H 426.32 -4.06953 4.49971 0
M  V30 4441 H 425.059 -3.54657 3.34768 0
M  V30 4442 H 424.064 -2.05075 5.10122 0
M  V30 4443 H 425.289 -2.60219 6.27266 0
M  V30 4444 H 423.235 -4.37094 4.89167 0
M  V30 4445 H 423.152 -3.81034 6.52954 0
M  V30 4446 H 424.42 -4.90289 6.06001 0
M  V30 4447 N 428.649 -1.55105 -0.279332 0
M  V30 4448 C 429.597 -1.88333 -1.36505 0
M  V30 4449 C 430.591 -0.759043 -1.51443 0
M  V30 4450 O 431.797 -0.943312 -1.53302 0
M  V30 4451 H 428.172 -0.59766 -0.456406 0
M  V30 4452 H 430.143 -2.79041 -1.05728 0
M  V30 4453 C 428.892 -2.16628 -2.7197 0
M  V30 4454 H 428.215 -3.02624 -2.61264 0
M  V30 4455 H 429.655 -2.43803 -3.46895 0
M  V30 4456 C 428.114 -0.971807 -3.22579 0
M  V30 4457 O 428.644 -0.203228 -4.01186 0
M  V30 4458 N 426.85 -0.771238 -2.80179 0
M  V30 4459 H 426.397 -1.39792 -2.1637 0
M  V30 4460 H 426.355 0.0263667 -3.14389 0
M  V30 4461 N 430.127 0.543554 -1.4793 0
M  V30 4462 C 431.357 1.32324 -1.58663 0
M  V30 4463 C 431.765 1.8766 -0.240896 0
M  V30 4464 O 431.108 1.66411 0.778011 0
M  V30 4465 C 431.17 2.52094 -2.56299 0
M  V30 4466 C 430.834 2.17944 -4.01683 0
M  V30 4467 C 431.831 1.74422 -4.89768 0
M  V30 4468 C 429.516 2.28884 -4.47121 0
M  V30 4469 C 431.51 1.42287 -6.21316 0
M  V30 4470 C 429.197 1.96361 -5.78693 0
M  V30 4471 C 430.195 1.53132 -6.65612 0
M  V30 4472 O 429.883 1.21029 -7.94737 0
M  V30 4473 H 429.615 0.409174 -0.538101 0
M  V30 4474 H 432.169 0.663887 -1.94375 0
M  V30 4475 H 430.399 3.20965 -2.15681 0
M  V30 4476 H 432.088 3.14165 -2.57012 0
M  V30 4477 H 432.854 1.65452 -4.55907 0
M  V30 4478 H 428.733 2.61488 -3.79664 0
M  V30 4479 H 432.277 1.08472 -6.89115 0
M  V30 4480 H 428.174 2.04967 -6.12094 0
M  V30 4481 H 428.942 1.34543 -8.07366 0
M  V30 4482 N 431.605 1.3629 0.791371 0
M  V30 4483 C 432.835 1.33368 1.57786 0
M  V30 4484 C 433.243 -0.0875188 1.88997 0
M  V30 4485 O 432.586 -1.05427 1.50435 0
M  V30 4486 C 432.648 2.08802 2.92646 0
M  V30 4487 C 432.312 3.57903 2.84174 0
M  V30 4488 C 433.309 4.52191 2.56553 0
M  V30 4489 C 430.994 4.00762 3.02812 0
M  V30 4490 C 432.988 5.87315 2.47669 0
M  V30 4491 C 430.675 5.35977 2.93551 0
M  V30 4492 C 431.673 6.29066 2.66017 0
M  V30 4493 O 431.361 7.61798 2.56746 0
M  V30 4494 H 431.093 0.459166 0.496128 0
M  V30 4495 H 433.647 1.79952 0.990269 0
M  V30 4496 H 431.877 1.56878 3.53449 0
M  V30 4497 H 433.566 1.98762 3.53904 0
M  V30 4498 H 434.332 4.20393 2.41858 0
M  V30 4499 H 430.211 3.2868 3.2325 0
M  V30 4500 H 433.755 6.59943 2.26099 0
M  V30 4501 H 429.652 5.67384 3.07808 0
M  V30 4502 H 430.42 7.71898 2.72242 0
M  V30 4503 N 433.083 -1.0153 1.20538 0
M  V30 4504 C 434.33 -1.75149 1.01633 0
M  V30 4505 C 434.658 -1.89189 -0.451399 0
M  V30 4506 O 433.913 -1.41551 -1.35136 0
M  V30 4507 C 434.212 -3.17213 1.64654 0
M  V30 4508 C 433.878 -3.23146 3.14464 0
M  V30 4509 C 432.54 -3.24472 3.55347 0
M  V30 4510 C 434.892 -3.21207 4.10458 0
M  V30 4511 C 432.22 -3.21532 4.90748 0
M  V30 4512 C 434.572 -3.19808 5.45807 0
M  V30 4513 C 433.236 -3.19439 5.86102 0
M  V30 4514 H 432.506 -0.640914 0.3719 0
M  V30 4515 H 435.153 -1.19071 1.49981 0
M  V30 4516 H 433.458 -3.76457 1.08571 0
M  V30 4517 H 435.155 -3.72871 1.4754 0
M  V30 4518 H 431.745 -3.2285 2.81897 0
M  V30 4519 H 435.929 -3.19351 3.79906 0
M  V30 4520 H 431.185 -3.19578 5.21229 0
M  V30 4521 H 435.359 -3.1726 6.19935 0
M  V30 4522 H 432.986 -3.16915 6.90991 0
M  V30 4523 N 434.561 -1.01147 -1.20859 0
M  V30 4524 C 435.508 -0.577354 -2.23462 0
M  V30 4525 C 436.478 0.399922 -1.61214 0
M  V30 4526 O 437.663 0.300515 -1.88419 0
M  V30 4527 C 434.803 0.083372 -3.44999 0
M  V30 4528 C 433.916 -0.937856 -4.21697 0
M  V30 4529 C 433.051 -0.248717 -5.30617 0
M  V30 4530 C 432.09 -1.25705 -5.99053 0
M  V30 4531 N 431.227 -0.594939 -6.99575 0
M  V30 4532 H 436.067 -1.45695 -2.59956 0
M  V30 4533 H 433.604 -0.729428 -1.27741 0
M  V30 4534 H 435.562 0.483535 -4.14388 0
M  V30 4535 H 434.192 0.926645 -3.09214 0
M  V30 4536 H 433.244 -1.45622 -3.51423 0
M  V30 4537 H 434.556 -1.70493 -4.68757 0
M  V30 4538 H 433.71 0.207215 -6.06346 0
M  V30 4539 H 432.449 0.55071 -4.84581 0
M  V30 4540 H 431.454 -1.72343 -5.2209 0
M  V30 4541 H 432.679 -2.05767 -6.47176 0
M  V30 4542 H 430.625 0.184713 -6.5574 0
M  V30 4543 H 430.542 -1.30017 -7.44736 0
M  V30 4544 H 431.81 -0.162427 -7.79331 0
M  V30 4545 N 436.039 1.36541 -0.78704 0
M  V30 4546 C 436.969 2.32659 -0.197992 0
M  V30 4547 C 437.95 1.56533 0.665697 0
M  V30 4548 O 439.135 1.84698 0.60001 0
M  V30 4549 C 436.265 3.40778 0.669901 0
M  V30 4550 C 435.219 4.27897 -0.0937039 0
M  V30 4551 C 434.545 5.27163 0.894629 0
M  V30 4552 C 435.845 5.06334 -1.28154 0
M  V30 4553 H 437.539 2.82171 -1.00099 0
M  V30 4554 H 435.085 1.35665 -0.482793 0
M  V30 4555 H 437.038 4.07008 1.09191 0
M  V30 4556 H 435.762 2.89827 1.50558 0
M  V30 4557 H 434.421 3.6322 -0.49666 0
M  V30 4558 H 434.069 4.72486 1.72527 0
M  V30 4559 H 433.769 5.86317 0.388149 0
M  V30 4560 H 435.293 5.96266 1.31525 0
M  V30 4561 H 436.707 5.65617 -0.93541 0
M  V30 4562 H 435.104 5.74888 -1.72115 0
M  V30 4563 H 436.174 4.38114 -2.07807 0
M  V30 4564 N 437.518 0.538854 1.48102 0
M  V30 4565 C 438.748 0.0122958 2.06596 0
M  V30 4566 C 439.156 -1.27861 1.39457 0
M  V30 4567 O 438.499 -1.77348 0.478907 0
M  V30 4568 C 438.561 -0.273131 3.58461 0
M  V30 4569 C 438.225 0.92561 4.47528 0
M  V30 4570 C 439.222 1.82637 4.86765 0
M  V30 4571 C 436.907 1.13511 4.89306 0
M  V30 4572 C 438.901 2.92047 5.66558 0
M  V30 4573 C 436.588 2.23233 5.68868 0
M  V30 4574 C 437.586 3.12333 6.07402 0
M  V30 4575 O 437.274 4.20155 6.85365 0
M  V30 4576 H 437.006 0.0344283 0.675123 0
M  V30 4577 H 439.56 0.746494 1.91355 0
M  V30 4578 H 437.79 -1.06141 3.71848 0
M  V30 4579 H 439.479 -0.742842 3.99045 0
M  V30 4580 H 440.245 1.67649 4.55103 0
M  V30 4581 H 436.124 0.450835 4.5879 0
M  V30 4582 H 439.668 3.6162 5.96554 0
M  V30 4583 H 435.565 2.38201 5.99942 0
M  V30 4584 H 436.333 4.17975 7.03732 0
M  V30 4585 N 438.996 -1.55193 0.274407 0
M  V30 4586 C 440.273 -1.91584 -0.394331 0
M  V30 4587 C 440.653 -1.19858 -1.73774 0
M  V30 4588 O 440.001 -0.3252 -2.26174 0
M  V30 4589 C 440.211 -3.4487 -0.535311 0
M  V30 4590 C 441.559 -4.16636 -0.818534 0
M  V30 4591 O 442.583 -3.5076 -0.620146 0
M  V30 4592 O 441.442 -5.33209 -1.19792 0
M  V30 4593 H 438.536 -0.798349 -0.215794 0
M  V30 4594 H 441.082 -1.66646 0.320507 0
M  V30 4595 H 439.854 -3.89145 0.410141 0
M  V30 4596 H 439.477 -3.75759 -1.29964 0
M  V30 4597 N 440.474 -0.00167713 -1.576 0
M  V30 4598 C 441.422 1.0074 -2.09652 0
M  V30 4599 C 442.416 1.35483 -1.01689 0
M  V30 4600 O 443.622 1.34028 -1.20152 0
M  V30 4601 H 439.997 0.342537 -0.669457 0
M  V30 4602 H 441.968 0.542841 -2.93421 0
M  V30 4603 C 440.717 2.2899 -2.61647 0
M  V30 4604 H 440.04 2.03124 -3.44355 0
M  V30 4605 H 441.48 2.9787 -3.01744 0
M  V30 4606 C 439.939 3.00085 -1.53136 0
M  V30 4607 O 440.469 3.91135 -0.91524 0
M  V30 4608 N 438.675 2.6194 -1.25841 0
M  V30 4609 H 438.222 1.8798 -1.76129 0
M  V30 4610 H 438.18 3.09822 -0.534576 0
M  V30 4611 N 441.952 1.55251 0.271103 0
M  V30 4612 C 443.177 1.80306 1.02491 0
M  V30 4613 C 443.602 0.575457 1.79081 0
M  V30 4614 O 442.96 -0.474987 1.74967 0
M  V30 4615 C 443.008 3.02832 1.95768 0
M  V30 4616 O 442.112 2.78051 3.04568 0
M  V30 4617 H 441.453 0.595896 0.292923 0
M  V30 4618 H 443.983 2.02397 0.299436 0
M  V30 4619 H 443.993 3.31616 2.37686 0
M  V30 4620 H 442.668 3.9183 1.39434 0
M  V30 4621 H 441.245 2.60369 2.66951 0
M  V30 4622 N 443.43 -0.535701 1.48216 0
M  V30 4623 C 444.846 -0.863701 1.3421 0
M  V30 4624 C 445.046 -1.98458 0.34879 0
M  V30 4625 O 444.102 -2.51432 -0.23204 0
M  V30 4626 C 445.415 -1.23662 2.74095 0
M  V30 4627 C 446.963 -1.34683 2.82541 0
M  V30 4628 C 447.438 -1.75322 4.23115 0
M  V30 4629 N 448.929 -1.82434 4.2576 0
M  V30 4630 C 449.664 -2.15252 5.31464 0
M  V30 4631 N 449.16 -2.46533 6.47452 0
M  V30 4632 N 450.953 -2.16209 5.18855 0
M  V30 4633 H 443.104 0.203965 2.11418 0
M  V30 4634 H 445.367 0.0286033 0.947568 0
M  V30 4635 H 445.073 -0.486674 3.48316 0
M  V30 4636 H 444.947 -2.18805 3.07253 0
M  V30 4637 H 447.334 -2.08756 2.08579 0
M  V30 4638 H 447.415 -0.376756 2.5301 0
M  V30 4639 H 447.059 -1.01812 4.97591 0
M  V30 4640 H 446.989 -2.7337 4.50085 0
M  V30 4641 H 449.48 -1.6056 3.42095 0
M  V30 4642 H 449.793 -2.70662 7.23852 0
M  V30 4643 H 448.138 -2.44065 6.50736 0
M  V30 4644 H 451.329 -1.91224 4.2726 0
M  V30 4645 H 451.502 -2.41453 6.01335 0
M  V30 4646 N 444.908 -1.36708 -0.784132 0
M  V30 4647 C 446.157 -1.30559 -1.53744 0
M  V30 4648 C 446.47 0.111374 -1.95283 0
M  V30 4649 O 447.676 0.29527 -2.6989 0
M  V30 4650 C 446.132 -2.29098 -2.77565 0
M  V30 4651 C 445.74 -3.76258 -2.43174 0
M  V30 4652 C 447.484 -2.31936 -3.55536 0
M  V30 4653 C 445.391 -4.6656 -3.63422 0
M  V30 4654 H 444.321 -0.48518 -0.577162 0
M  V30 4655 H 446.972 -1.62101 -0.859981 0
M  V30 4656 H 445.354 -1.90557 -3.47137 0
M  V30 4657 H 446.528 -4.23565 -1.81465 0
M  V30 4658 H 444.843 -3.76246 -1.78403 0
M  V30 4659 H 447.44 -2.9661 -4.44889 0
M  V30 4660 H 447.783 -1.3294 -3.94503 0
M  V30 4661 H 448.316 -2.6912 -2.92949 0
M  V30 4662 H 445.055 -5.66638 -3.29547 0
M  V30 4663 H 444.575 -4.23966 -4.24279 0
M  V30 4664 H 446.254 -4.8309 -4.30387 0
M  V30 4665 N 446.386 1.0089 -1.21074 0
M  V30 4666 C 447.611 1.78727 -1.05221 0
M  V30 4667 C 448.036 1.83932 0.393795 0
M  V30 4668 O 447.394 1.28004 1.28393 0
M  V30 4669 C 447.442 3.20665 -1.64944 0
M  V30 4670 O 446.546 4.02632 -0.892273 0
M  V30 4671 H 445.887 0.550973 -0.370574 0
M  V30 4672 H 448.417 1.26847 -1.60534 0
M  V30 4673 H 448.427 3.71352 -1.69002 0
M  V30 4674 H 447.102 3.16191 -2.70177 0
M  V30 4675 H 445.679 3.61207 -0.926492 0
M  V30 4676 N 447.864 1.01787 1.20321 0
M  V30 4677 C 448.827 0.593972 2.2137 0
M  V30 4678 C 449.827 -0.336553 1.57239 0
M  V30 4679 O 451.017 -0.125069 1.7375 0
M  V30 4680 C 448.149 -0.132433 3.40643 0
M  V30 4681 H 449.342 1.48791 2.60387 0
M  V30 4682 H 446.895 0.807803 1.33807 0
M  V30 4683 H 447.63 -1.04123 3.0713 0
M  V30 4684 H 447.415 0.53605 3.88418 0
M  V30 4685 H 448.905 -0.416314 4.1552 0
M  V30 4686 N 449.342 -1.36122 0.79427 0
M  V30 4687 C 450.588 -1.99406 0.369452 0
M  V30 4688 C 450.921 -1.62886 -1.05743 0
M  V30 4689 O 450.196 -0.886053 -1.73145 0
M  V30 4690 C 450.479 -3.56046 0.538833 0
M  V30 4691 C 450.332 -4.02404 2.00976 0
M  V30 4692 C 451.651 -4.40079 -0.0431359 0
M  V30 4693 H 448.77 -0.724397 0.135712 0
M  V30 4694 H 451.412 -1.61461 1.00151 0
M  V30 4695 H 449.562 -3.885 0.000771004 0
M  V30 4696 H 451.234 -3.80415 2.60926 0
M  V30 4697 H 449.477 -3.53765 2.51063 0
M  V30 4698 H 450.148 -5.11344 2.07922 0
M  V30 4699 H 452.624 -4.14013 0.416228 0
M  V30 4700 H 451.5 -5.48799 0.105374 0
M  V30 4701 H 451.761 -4.27264 -1.13571 0
M  V30 4702 N 450.82 -0.546701 -1.47814 0
M  V30 4703 C 452.045 -0.021268 -2.07389 0
M  V30 4704 C 452.47 1.25822 -1.39822 0
M  V30 4705 O 451.828 1.75111 -0.46968 0
M  V30 4706 C 451.876 0.168502 -3.60206 0
M  V30 4707 O 450.98 1.23347 -3.93522 0
M  V30 4708 H 450.321 -0.0466108 -0.662362 0
M  V30 4709 H 452.851 -0.759387 -1.89985 0
M  V30 4710 H 452.861 0.385982 -4.0617 0
M  V30 4711 H 451.536 -0.766075 -4.08784 0
M  V30 4712 H 450.113 0.997319 -3.59316 0
M  V30 4713 N 452.299 1.55045 -0.282633 0
M  V30 4714 C 453.229 2.2579 0.595066 0
M  V30 4715 C 454.21 1.25074 1.15284 0
M  V30 4716 O 455.395 1.5381 1.18559 0
M  V30 4717 C 452.525 2.98472 1.77572 0
M  V30 4718 C 451.479 4.0618 1.34914 0
M  V30 4719 C 450.805 4.66477 2.6135 0
M  V30 4720 C 452.105 5.1996 0.493821 0
M  V30 4721 H 453.799 2.994 0.00505653 0
M  V30 4722 H 451.345 1.44 0.000992001 0
M  V30 4723 H 453.298 3.46677 2.39568 0
M  V30 4724 H 452.022 2.2241 2.39168 0
M  V30 4725 H 450.681 3.58797 0.752338 0
M  V30 4726 H 450.329 3.87074 3.2122 0
M  V30 4727 H 450.029 5.39207 2.33516 0
M  V30 4728 H 451.553 5.17435 3.24181 0
M  V30 4729 H 452.967 5.64172 1.01898 0
M  V30 4730 H 451.364 5.99299 0.310047 0
M  V30 4731 H 452.434 4.82462 -0.485593 0
M  V30 4732 N 453.777 0.010035 1.57597 0
M  V30 4733 C 454.71 -1.01234 2.04516 0
M  V30 4734 C 455.688 -1.32886 0.937024 0
M  V30 4735 O 456.872 -1.44879 1.20592 0
M  V30 4736 C 453.999 -2.33738 2.45121 0
M  V30 4737 C 453.045 -2.17679 3.66767 0
M  V30 4738 S 453.878 -1.49343 5.14254 0
M  V30 4739 C 455.034 -2.83256 5.58137 0
M  V30 4740 H 455.267 -0.612866 2.90914 0
M  V30 4741 H 452.8 -0.201124 1.53084 0
M  V30 4742 H 454.758 -3.09922 2.69182 0
M  V30 4743 H 453.419 -2.70823 1.59103 0
M  V30 4744 H 452.612 -3.1559 3.92962 0
M  V30 4745 H 452.214 -1.4964 3.42759 0
M  V30 4746 H 454.506 -3.79538 5.6121 0
M  V30 4747 H 455.449 -2.61749 6.57946 0
M  V30 4748 H 455.857 -2.87627 4.85727 0
M  V30 4749 N 455.255 -1.55392 -0.262866 0
M  V30 4750 C 456.218 -1.88181 -1.30846 0
M  V30 4751 C 457.218 -0.757079 -1.41862 0
M  V30 4752 O 458.408 -1.02519 -1.40838 0
M  V30 4753 C 455.54 -2.09609 -2.68844 0
M  V30 4754 H 456.733 -2.81659 -1.02997 0
M  V30 4755 H 454.286 -1.48039 -0.501414 0
M  V30 4756 H 455.021 -1.18547 -3.01856 0
M  V30 4757 H 454.806 -2.91508 -2.62231 0
M  V30 4758 H 456.296 -2.36215 -3.44372 0
M  V30 4759 N 456.733 0.527833 -1.48498 0
M  V30 4760 C 457.643 1.65907 -1.65867 0
M  V30 4761 C 458.659 1.6537 -0.541192 0
M  V30 4762 O 459.835 1.84282 -0.812534 0
M  V30 4763 C 456.9 3.02364 -1.69637 0
M  V30 4764 C 455.961 3.1374 -2.93028 0
M  V30 4765 C 455.194 4.43688 -2.96609 0
M  V30 4766 O 455.417 5.30913 -2.08538 0
M  V30 4767 O 454.351 4.59475 -3.88802 0
M  V30 4768 H 458.177 1.5419 -2.61647 0
M  V30 4769 H 455.762 0.701163 -1.31924 0
M  V30 4770 H 457.644 3.83515 -1.74625 0
M  V30 4771 H 456.319 3.14401 -0.770312 0
M  V30 4772 H 455.226 2.31877 -2.93571 0
M  V30 4773 H 456.559 3.06621 -3.85026 0
M  V30 4774 N 458.211 1.37122 0.776871 0
M  V30 4775 C 459.159 1.32549 1.91138 0
M  V30 4776 C 460.153 0.215119 1.68029 0
M  V30 4777 O 461.359 0.382852 1.75881 0
M  V30 4778 H 457.734 0.412952 0.62847 0
M  V30 4779 H 459.705 2.28332 1.92112 0
M  V30 4780 C 458.454 1.14422 3.28333 0
M  V30 4781 H 457.777 1.99115 3.46689 0
M  V30 4782 H 459.217 1.15272 4.0803 0
M  V30 4783 C 457.676 -0.150434 3.36564 0
M  V30 4784 O 458.206 -1.13584 3.85307 0
M  V30 4785 N 456.412 -0.19939 2.89915 0
M  V30 4786 H 455.959 0.603142 2.5044 0
M  V30 4787 H 455.917 -1.06526 2.95803 0
M  V30 4788 N 459.689 -1.00246 1.21608 0
M  V30 4789 C 460.619 -2.10921 1.00172 0
M  V30 4790 C 461.6 -1.69938 -0.0741587 0
M  V30 4791 O 462.785 -1.94009 0.0861753 0
M  V30 4792 C 459.915 -3.42618 0.568355 0
M  V30 4793 C 458.869 -3.97407 1.58909 0
M  V30 4794 C 458.195 -5.25038 1.01187 0
M  V30 4795 C 459.495 -4.2918 2.97661 0
M  V30 4796 H 461.189 -2.29112 1.92739 0
M  V30 4797 H 458.735 -1.10101 0.928102 0
M  V30 4798 H 460.688 -4.19444 0.405555 0
M  V30 4799 H 459.412 -3.24227 -0.392961 0
M  V30 4800 H 458.071 -3.22703 1.73949 0
M  V30 4801 H 457.719 -5.02982 0.0421965 0
M  V30 4802 H 457.419 -5.62661 1.6937 0
M  V30 4803 H 458.943 -6.04507 0.860448 0
M  V30 4804 H 460.357 -4.96839 2.86049 0
M  V30 4805 H 458.754 -4.77952 3.6288 0
M  V30 4806 H 459.824 -3.3735 3.48315 0
M  V30 4807 N 461.167 -1.02423 -1.1978 0
M  V30 4808 C 462.115 -0.594474 -2.24875 0
M  V30 4809 C 463.109 0.370598 -1.65296 0
M  V30 4810 O 464.315 0.239684 -1.78397 0
M  V30 4811 H 460.69 -0.173961 -0.731602 0
M  V30 4812 H 462.661 -1.4916 -2.58445 0
M  V30 4813 C 461.41 0.0436512 -3.47673 0
M  V30 4814 H 460.733 -0.689963 -3.93801 0
M  V30 4815 H 462.173 0.307362 -4.22884 0
M  V30 4816 C 460.632 1.28881 -3.11274 0
M  V30 4817 O 461.162 2.38135 -3.23503 0
M  V30 4818 N 459.368 1.1758 -2.6575 0
M  V30 4819 H 458.915 0.286769 -2.55999 0
M  V30 4820 H 458.873 2.00988 -2.41767 0
M  V30 4821 N 462.645 1.35699 -0.801477 0
M  V30 4822 C 463.87 2.03687 -0.390678 0
M  V30 4823 C 464.295 1.60015 0.988778 0
M  V30 4824 O 463.653 0.774357 1.63931 0
M  V30 4825 C 463.701 3.57439 -0.476404 0
M  V30 4826 O 462.805 4.09208 0.512106 0
M  V30 4827 H 462.146 0.64344 -0.163956 0
M  V30 4828 H 464.676 1.73403 -1.08594 0
M  V30 4829 H 464.686 4.06544 -0.344357 0
M  V30 4830 H 463.361 3.88576 -1.48262 0
M  V30 4831 H 461.938 3.7134 0.340721 0
M  V30 4832 N 464.123 0.554532 1.47522 0
M  V30 4833 C 465.055 -0.232106 2.28022 0
M  V30 4834 C 466.068 -0.881865 1.36847 0
M  V30 4835 O 467.257 -0.756168 1.61692 0
M  V30 4836 C 464.357 -1.34604 3.11022 0
M  V30 4837 C 463.53 -0.793582 4.30141 0
M  V30 4838 C 462.589 -1.79168 4.94758 0
M  V30 4839 O 461.615 -1.33886 5.5323 0
M  V30 4840 N 462.817 -3.12495 4.89211 0
M  V30 4841 H 465.582 0.458407 2.96173 0
M  V30 4842 H 463.143 0.390433 1.57122 0
M  V30 4843 H 465.135 -2.01243 3.51118 0
M  V30 4844 H 463.705 -1.93983 2.45131 0
M  V30 4845 H 462.925 0.0495025 3.94169 0
M  V30 4846 H 464.213 -0.403776 5.07195 0
M  V30 4847 H 463.611 -3.51931 4.42901 0
M  V30 4848 H 462.168 -3.74698 5.33333 0
M  V30 4849 N 465.601 -1.54893 0.290851 0
M  V30 4850 C 466.878 -1.91991 -0.373989 0
M  V30 4851 C 467.258 -1.21694 -1.72493 0
M  V30 4852 O 466.606 -0.34917 -2.25816 0
M  V30 4853 C 466.816 -3.45419 -0.498703 0
M  V30 4854 C 468.164 -4.1748 -0.774298 0
M  V30 4855 O 469.188 -3.51398 -0.582908 0
M  V30 4856 O 468.047 -5.3445 -1.14129 0
M  V30 4857 H 465.141 -0.800593 -0.207315 0
M  V30 4858 H 467.687 -1.66297 0.338164 0
M  V30 4859 H 466.459 -3.88688 0.451392 0
M  V30 4860 H 466.082 -3.77117 -1.25972 0
M  V30 4861 N 467.08 -0.0183926 -1.57589 0
M  V30 4862 C 468.01 0.965596 -2.12599 0
M  V30 4863 C 468.991 1.34641 -1.0395 0
M  V30 4864 O 470.176 1.42693 -1.31729 0
M  V30 4865 C 467.306 2.25149 -2.64434 0
M  V30 4866 C 466.26 2.01175 -3.77773 0
M  V30 4867 C 465.586 3.35937 -4.15994 0
M  V30 4868 C 466.886 1.35953 -5.04296 0
M  V30 4869 H 468.58 0.507504 -2.95067 0
M  V30 4870 H 466.126 0.242671 -1.41941 0
M  V30 4871 H 468.079 2.94357 -3.01549 0
M  V30 4872 H 466.803 2.73105 -1.79112 0
M  V30 4873 H 465.462 1.34388 -3.4108 0
M  V30 4874 H 465.11 3.81631 -3.27669 0
M  V30 4875 H 464.81 3.20705 -4.92364 0
M  V30 4876 H 466.334 4.0643 -4.55683 0
M  V30 4877 H 467.748 1.95144 -5.39065 0
M  V30 4878 H 466.145 1.31152 -5.85593 0
M  V30 4879 H 467.215 0.331071 -4.83768 0
M  V30 4880 N 468.558 1.5553 0.254621 0
M  V30 4881 C 469.807 1.76202 0.981612 0
M  V30 4882 C 470.12 0.580883 1.86776 0
M  V30 4883 O 471.326 0.670448 2.63092 0
M  V30 4884 C 469.782 3.11921 1.79537 0
M  V30 4885 C 469.39 4.37659 0.956991 0
M  V30 4886 C 471.134 3.41936 2.51555 0
M  V30 4887 C 469.041 5.64411 1.76619 0
M  V30 4888 H 467.971 0.656841 0.370237 0
M  V30 4889 H 470.622 1.81969 0.236556 0
M  V30 4890 H 469.004 3.00241 2.58208 0
M  V30 4891 H 470.178 4.60307 0.21315 0
M  V30 4892 H 468.493 4.14922 0.350497 0
M  V30 4893 H 471.09 4.33849 3.12536 0
M  V30 4894 H 471.433 2.62905 3.22779 0
M  V30 4895 H 471.966 3.54797 1.799 0
M  V30 4896 H 468.705 6.46241 1.09783 0
M  V30 4897 H 468.225 5.45877 2.48551 0
M  V30 4898 H 469.904 6.03386 2.33527 0
M  V30 4899 N 470.036 -0.519951 1.48776 0
M  V30 4900 C 471.264 -1.29971 1.60982 0
M  V30 4901 C 471.679 -1.86803 0.273885 0
M  V30 4902 O 471.036 -1.66904 -0.738193 0
M  V30 4903 C 471.087 -2.44346 2.66415 0
M  V30 4904 O 470.808 -1.89855 3.94825 0
M  V30 4905 C 472.309 -3.36014 2.89153 0
M  V30 4906 H 469.529 -0.394891 0.542496 0
M  V30 4907 H 472.073 -0.626214 1.94676 0
M  V30 4908 H 470.228 -3.07562 2.35552 0
M  V30 4909 H 470.642 -2.64798 4.5275 0
M  V30 4910 H 472.116 -4.12593 3.66703 0
M  V30 4911 H 472.593 -3.91859 1.98351 0
M  V30 4912 H 473.199 -2.78582 3.21359 0
M  V30 4913 N 471.514 -1.37532 -0.769588 0
M  V30 4914 C 472.761 -1.3286 -1.52822 0
M  V30 4915 C 473.089 0.0862597 -1.94309 0
M  V30 4916 O 472.344 1.05995 -1.6451 0
M  V30 4917 C 472.643 -2.21558 -2.8044 0
M  V30 4918 C 472.309 -3.69796 -2.57996 0
M  V30 4919 C 470.971 -4.10194 -2.51583 0
M  V30 4920 C 473.323 -4.63699 -2.37976 0
M  V30 4921 C 470.651 -5.42608 -2.23144 0
M  V30 4922 C 473.003 -5.96353 -2.1106 0
M  V30 4923 C 471.667 -6.35853 -2.03093 0
M  V30 4924 H 470.937 -0.486168 -0.559215 0
M  V30 4925 H 473.584 -1.69757 -0.886277 0
M  V30 4926 H 471.889 -1.77663 -3.49204 0
M  V30 4927 H 473.586 -2.15256 -3.38328 0
M  V30 4928 H 470.176 -3.37759 -2.63851 0
M  V30 4929 H 474.36 -4.33346 -2.41919 0
M  V30 4930 H 469.616 -5.72173 -2.15472 0
M  V30 4931 H 473.79 -6.68667 -1.94568 0
M  V30 4932 H 471.417 -7.38382 -1.8082 0
M  V30 4933 N 472.992 0.995999 -1.22138 0
M  V30 4934 C 473.902 2.11985 -1.00496 0
M  V30 4935 C 474.918 1.7394 0.0457701 0
M  V30 4936 O 476.094 2.00868 -0.146273 0
M  V30 4937 C 473.159 3.41779 -0.582086 0
M  V30 4938 C 472.22 3.93943 -1.70608 0
M  V30 4939 C 471.453 5.17542 -1.30328 0
M  V30 4940 O 471.676 5.70114 -0.180743 0
M  V30 4941 O 470.61 5.63382 -2.11861 0
M  V30 4942 H 474.436 2.33123 -1.94647 0
M  V30 4943 H 472.021 1.10358 -1.00705 0
M  V30 4944 H 473.903 4.1989 -0.356467 0
M  V30 4945 H 472.578 3.22007 0.330592 0
M  V30 4946 H 471.485 3.17019 -1.98619 0
M  V30 4947 H 472.818 4.18141 -2.59651 0
M  V30 4948 N 474.47 1.03057 1.19235 0
M  V30 4949 C 475.716 0.738841 1.89506 0
M  V30 4950 C 476.071 -0.724807 1.78225 0
M  V30 4951 O 475.364 -1.52118 1.16494 0
M  V30 4952 C 475.558 1.1268 3.39172 0
M  V30 4953 C 475.387 2.62662 3.65019 0
M  V30 4954 C 474.157 3.29658 3.82954 0
M  V30 4955 C 476.355 3.60873 3.66436 0
M  V30 4956 N 474.337 4.68726 3.96446 0
M  V30 4957 C 475.708 4.85566 3.8552 0
M  V30 4958 C 477.763 3.54647 3.49471 0
M  V30 4959 C 476.466 6.04783 3.89397 0
M  V30 4960 C 478.492 4.73281 3.54625 0
M  V30 4961 C 477.854 5.96789 3.74196 0
M  V30 4962 H 473.953 0.322256 0.712513 0
M  V30 4963 H 476.537 1.31822 1.43287 0
M  V30 4964 H 474.708 0.575612 3.84111 0
M  V30 4965 H 476.44 0.787145 3.96971 0
M  V30 4966 H 473.195 2.8007 3.81913 0
M  V30 4967 H 473.619 5.40971 4.07037 0
M  V30 4968 H 478.261 2.60143 3.33295 0
M  V30 4969 H 475.979 6.99654 4.04364 0
M  V30 4970 H 479.565 4.70094 3.42787 0
M  V30 4971 H 478.445 6.87051 3.78061 0
M  V30 4972 N 475.948 -1.35272 0.808662 0
M  V30 4973 C 477.225 -1.93077 0.313181 0
M  V30 4974 C 477.605 -1.73847 -1.19752 0
M  V30 4975 O 476.953 -1.1087 -1.998 0
M  V30 4976 C 477.163 -3.41347 0.726859 0
M  V30 4977 C 478.511 -4.18493 0.717532 0
M  V30 4978 O 479.535 -3.4987 0.668535 0
M  V30 4979 O 478.394 -5.40937 0.777779 0
M  V30 4980 H 475.488 -0.822885 0.0824018 0
M  V30 4981 H 478.034 -1.44335 0.892499 0
M  V30 4982 H 476.806 -3.49082 1.76797 0
M  V30 4983 H 476.429 -3.97411 0.122461 0
M  V30 4984 N 477.426 -0.562348 -1.47226 0
M  V30 4985 C 478.842 -0.222492 -1.58042 0
M  V30 4986 C 479.042 1.27505 -1.56028 0
M  V30 4987 O 478.098 2.05555 -1.46641 0
M  V30 4988 C 479.411 -0.853694 -2.88327 0
M  V30 4989 C 480.959 -0.825397 -3.01921 0
M  V30 4990 C 481.434 -1.43576 -4.34914 0
M  V30 4991 N 482.925 -1.39918 -4.41562 0
M  V30 4992 C 483.66 -1.84103 -5.43041 0
M  V30 4993 N 483.156 -2.36167 -6.51304 0
M  V30 4994 N 484.949 -1.75142 -5.34118 0
M  V30 4995 H 477.1 -1.53525 -1.46778 0
M  V30 4996 H 479.363 -0.640527 -0.698877 0
M  V30 4997 H 479.069 -1.90635 -2.95552 0
M  V30 4998 H 478.943 -0.34977 -3.75575 0
M  V30 4999 H 481.33 0.218583 -2.94289 0
M  V30 5000 H 481.411 -1.36713 -2.16202 0
M  V30 5001 H 481.055 -2.47884 -4.43301 0
M  V30 5002 H 480.985 -0.869427 -5.19373 0
M  V30 5003 H 483.476 -1.0184 -3.63919 0
M  V30 5004 H 483.789 -2.67793 -7.24919 0
M  V30 5005 H 482.134 -2.40181 -6.52179 0
M  V30 5006 H 485.325 -1.34241 -4.48439 0
M  V30 5007 H 485.498 -2.09895 -6.13065 0
M  V30 5008 N 478.904 1.54736 -0.299062 0
M  V30 5009 C 479.851 2.23448 0.577899 0
M  V30 5010 C 480.821 1.21637 1.13109 0
M  V30 5011 O 482.006 1.50252 1.17597 0
M  V30 5012 C 479.146 2.9774 1.74484 0
M  V30 5013 C 478.259 4.1432 1.22323 0
M  V30 5014 C 477.394 4.76199 2.35388 0
M  V30 5015 C 476.433 5.84927 1.80351 0
M  V30 5016 N 475.57 6.4077 2.86982 0
M  V30 5017 H 480.41 2.97996 -0.0146545 0
M  V30 5018 H 477.947 1.47088 -0.0190013 0
M  V30 5019 H 479.905 3.39045 2.43114 0
M  V30 5020 H 478.535 2.25572 2.30905 0
M  V30 5021 H 477.587 3.7797 0.429249 0
M  V30 5022 H 478.899 4.92659 0.780309 0
M  V30 5023 H 478.053 5.20346 3.11969 0
M  V30 5024 H 476.792 3.97188 2.83006 0
M  V30 5025 H 475.797 5.40207 1.02259 0
M  V30 5026 H 477.022 6.65821 1.3364 0
M  V30 5027 H 474.968 5.64643 3.33938 0
M  V30 5028 H 474.885 7.1445 2.4718 0
M  V30 5029 H 476.153 6.89574 3.63466 0
M  V30 5030 N 480.382 0.0267497 1.57577 0
M  V30 5031 C 481.314 -0.984594 2.06974 0
M  V30 5032 C 482.327 -1.29032 0.992705 0
M  V30 5033 O 483.516 -1.25539 1.26895 0
M  V30 5034 C 480.616 -2.31262 2.47732 0
M  V30 5035 C 479.789 -2.1924 3.78487 0
M  V30 5036 C 478.848 -3.34956 4.05821 0
M  V30 5037 O 477.874 -3.11948 4.76106 0
M  V30 5038 N 479.076 -4.58672 3.55809 0
M  V30 5039 H 481.841 -0.563143 2.94362 0
M  V30 5040 H 479.402 -0.160061 1.61107 0
M  V30 5041 H 481.394 -3.07496 2.63112 0
M  V30 5042 H 479.964 -2.65056 1.65723 0
M  V30 5043 H 479.184 -1.27747 3.72927 0
M  V30 5044 H 480.472 -2.08409 4.64158 0
M  V30 5045 H 479.87 -4.8026 2.98942 0
M  V30 5046 H 478.427 -5.32083 3.76472 0
M  V30 5047 N 481.861 -1.55662 -0.24637 0
M  V30 5048 C 483.138 -1.68272 -0.997198 0
M  V30 5049 C 483.518 -0.566785 -2.03349 0
M  V30 5050 O 482.866 0.429688 -2.24424 0
M  V30 5051 C 483.076 -3.08594 -1.63006 0
M  V30 5052 C 484.424 -3.6721 -2.13171 0
M  V30 5053 O 485.448 -3.11397 -1.72946 0
M  V30 5054 O 484.307 -4.65054 -2.87031 0
M  V30 5055 H 481.401 -0.684429 -0.464205 0
M  V30 5056 H 483.947 -1.67993 -0.240114 0
M  V30 5057 H 482.719 -3.81264 -0.880527 0
M  V30 5058 H 482.342 -3.12886 -2.45333 0
M  V30 5059 N 483.339 0.512053 -1.4905 0
M  V30 5060 C 484.588 1.26343 -1.57227 0
M  V30 5061 C 484.901 1.93876 -0.259155 0
M  V30 5062 O 486.107 2.70612 -0.219358 0
M  V30 5063 C 484.563 2.29343 -2.77362 0
M  V30 5064 C 484.171 1.67799 -4.15388 0
M  V30 5065 C 485.915 3.05378 -2.94864 0
M  V30 5066 C 483.822 2.68845 -5.2676 0
M  V30 5067 H 482.752 0.475231 -0.585382 0
M  V30 5068 H 485.403 0.53862 -1.75417 0
M  V30 5069 H 483.785 3.04938 -2.52643 0
M  V30 5070 H 484.959 0.982715 -4.50199 0
M  V30 5071 H 483.274 1.04194 -4.03153 0
M  V30 5072 H 485.871 3.80921 -3.75238 0
M  V30 5073 H 486.214 3.62327 -2.05 0
M  V30 5074 H 486.747 2.36898 -3.19569 0
M  V30 5075 H 483.486 2.16692 -6.18647 0
M  V30 5076 H 483.006 3.36647 -4.96416 0
M  V30 5077 H 484.685 3.31487 -5.5563 0
M  V30 5078 N 484.817 1.37938 0.762283 0
M  V30 5079 C 485.764 1.34467 1.87583 0
M  V30 5080 C 486.734 0.208633 1.64785 0
M  V30 5081 O 487.919 0.399494 1.86571 0
M  V30 5082 C 485.059 1.16692 3.24772 0
M  V30 5083 C 484.172 2.39608 3.59461 0
M  V30 5084 C 483.307 2.14631 4.85908 0
M  V30 5085 C 482.346 3.33364 5.13357 0
M  V30 5086 N 481.483 3.07877 6.30996 0
M  V30 5087 H 486.323 2.29669 1.89885 0
M  V30 5088 H 483.86 1.14116 0.928219 0
M  V30 5089 H 485.818 1.04405 4.03925 0
M  V30 5090 H 484.448 0.251333 3.2182 0
M  V30 5091 H 483.5 2.626 2.75219 0
M  V30 5092 H 484.812 3.28128 3.75678 0
M  V30 5093 H 483.966 1.99429 5.72986 0
M  V30 5094 H 482.705 1.23463 4.71814 0
M  V30 5095 H 481.71 3.49094 4.24751 0
M  V30 5096 H 482.935 4.25395 5.29354 0
M  V30 5097 H 480.881 2.19348 6.18241 0
M  V30 5098 H 480.798 3.89944 6.47673 0
M  V30 5099 H 482.066 2.96313 7.20985 0
M  V30 5100 N 486.295 -0.989507 1.22664 0
M  V30 5101 C 487.227 -2.0824 0.957542 0
M  V30 5102 C 488.24 -1.6267 -0.0651098 0
M  V30 5103 O 489.429 -1.77695 0.169312 0
M  V30 5104 C 486.529 -3.36298 0.419145 0
M  V30 5105 C 485.702 -4.10882 1.49982 0
M  V30 5106 C 484.761 -5.17221 0.967904 0
M  V30 5107 O 483.787 -5.44613 1.65487 0
M  V30 5108 N 484.989 -5.80124 -0.20896 0
M  V30 5109 H 487.754 -2.31904 1.89843 0
M  V30 5110 H 485.315 -1.15552 1.13399 0
M  V30 5111 H 487.307 -4.04671 0.0485451 0
M  V30 5112 H 485.877 -3.09671 -0.426937 0
M  V30 5113 H 485.097 -3.37092 2.04359 0
M  V30 5114 H 486.385 -4.57482 2.22682 0
M  V30 5115 H 485.783 -5.60244 -0.783818 0
M  V30 5116 H 484.34 -6.49715 -0.520913 0
M  V30 5117 N 487.773 -1.03688 -1.18687 0
M  V30 5118 C 488.703 -0.645407 -2.24403 0
M  V30 5119 C 489.684 0.349511 -1.66471 0
M  V30 5120 O 490.869 0.230453 -1.92828 0
M  V30 5121 C 487.999 -0.00365337 -3.473 0
M  V30 5122 C 486.953 -0.921705 -4.17958 0
M  V30 5123 C 486.279 -0.144629 -5.34504 0
M  V30 5124 C 487.579 -2.23909 -4.71871 0
M  V30 5125 H 489.273 -1.52917 -2.57404 0
M  V30 5126 H 486.819 -0.736711 -1.23728 0
M  V30 5127 H 488.772 0.281908 -4.20456 0
M  V30 5128 H 487.496 0.914963 -3.13522 0
M  V30 5129 H 486.155 -1.19159 -3.46694 0
M  V30 5130 H 485.803 0.776274 -4.96974 0
M  V30 5131 H 485.503 -0.756206 -5.82714 0
M  V30 5132 H 487.027 0.134004 -6.10453 0
M  V30 5133 H 488.441 -2.0145 -5.36741 0
M  V30 5134 H 486.838 -2.8033 -5.30599 0
M  V30 5135 H 487.908 -2.88822 -3.895 0
M  V30 5136 N 489.251 1.34841 -0.815825 0
M  V30 5137 C 490.199 2.31549 -0.220888 0
M  V30 5138 C 491.193 1.5707 0.634457 0
M  V30 5139 O 492.399 1.72125 0.526589 0
M  V30 5140 H 488.774 0.750153 -0.0526782 0
M  V30 5141 H 490.745 2.7926 -1.05149 0
M  V30 5142 C 489.494 3.42335 0.608427 0
M  V30 5143 H 488.817 3.9978 -0.0404121 0
M  V30 5144 H 490.257 4.12258 0.990931 0
M  V30 5145 C 488.716 2.86173 1.77782 0
M  V30 5146 O 489.246 2.80474 2.87571 0
M  V30 5147 N 487.452 2.43093 1.59229 0
M  V30 5148 H 486.999 2.47928 0.699237 0
M  V30 5149 H 486.957 2.05866 2.37627 0
M  V30 5150 N 490.729 0.570148 1.46925 0
M  V30 5151 C 491.661 -0.207909 2.28255 0
M  V30 5152 C 492.674 -0.867301 1.37774 0
M  V30 5153 O 493.863 -0.738976 1.62485 0
M  V30 5154 C 490.963 -1.31298 3.12433 0
M  V30 5155 C 490.136 -0.747915 4.30958 0
M  V30 5156 C 489.195 -1.7391 4.9663 0
M  V30 5157 O 488.221 -1.2801 5.54619 0
M  V30 5158 N 489.423 -3.07288 4.92498 0
M  V30 5159 H 492.188 0.489794 2.95671 0
M  V30 5160 H 489.749 0.407076 1.56699 0
M  V30 5161 H 491.741 -1.97507 3.53232 0
M  V30 5162 H 490.311 -1.91373 2.47175 0
M  V30 5163 H 489.531 0.0913066 3.94094 0
M  V30 5164 H 490.819 -0.349958 5.07595 0
M  V30 5165 H 490.217 -3.47213 4.46609 0
M  V30 5166 H 488.774 -3.69021 5.37277 0
M  V30 5167 N 492.207 -1.54576 0.307264 0
M  V30 5168 C 493.453 -2.0056 -0.300612 0
M  V30 5169 C 493.786 -1.1953 -1.53057 0
M  V30 5170 O 493.061 -0.27337 -1.92569 0
M  V30 5171 C 493.344 -3.54167 -0.650987 0
M  V30 5172 C 493.197 -4.45933 0.588539 0
M  V30 5173 C 494.516 -4.14645 -1.47506 0
M  V30 5174 H 491.635 -0.729075 -0.107788 0
M  V30 5175 H 494.277 -1.85286 0.420606 0
M  V30 5176 H 492.427 -3.67313 -1.26544 0
M  V30 5177 H 494.099 -4.44683 1.22697 0
M  V30 5178 H 492.342 -4.16274 1.22058 0
M  V30 5179 H 493.013 -5.51189 0.299153 0
M  V30 5180 H 495.489 -4.04973 -0.955821 0
M  V30 5181 H 494.365 -5.22269 -1.68899 0
M  V30 5182 H 494.626 -3.66921 -2.4662 0
M  V30 5183 N 493.685 -0.035106 -1.57561 0
M  V30 5184 C 494.633 0.962707 -2.11742 0
M  V30 5185 C 495.627 1.33296 -1.0454 0
M  V30 5186 O 496.833 1.31449 -1.22968 0
M  V30 5187 H 493.208 0.32826 -0.676572 0
M  V30 5188 H 495.179 0.48048 -2.94506 0
M  V30 5189 C 493.928 2.23388 -2.66445 0
M  V30 5190 H 493.251 1.95774 -3.48587 0
M  V30 5191 H 494.691 2.91402 -3.07995 0
M  V30 5192 C 493.15 2.96769 -1.59467 0
M  V30 5193 O 493.68 3.89105 -0.998 0
M  V30 5194 N 491.886 2.59212 -1.31369 0
M  V30 5195 H 491.433 1.84202 -1.80076 0
M  V30 5196 H 491.391 3.08618 -0.600173 0
M  V30 5197 N 495.163 1.55791 0.238111 0
M  V30 5198 C 496.409 1.78297 0.966337 0
M  V30 5199 C 496.742 0.601903 1.84637 0
M  V30 5200 O 496.017 -0.399499 1.90353 0
M  V30 5201 C 496.3 3.10758 1.81939 0
M  V30 5202 C 496.153 4.39283 0.966958 0
M  V30 5203 C 497.472 3.39519 2.80027 0
M  V30 5204 H 494.591 0.648654 0.349882 0
M  V30 5205 H 497.233 1.88525 0.236253 0
M  V30 5206 H 495.383 3.02168 2.44185 0
M  V30 5207 H 497.055 4.59873 0.362514 0
M  V30 5208 H 495.298 4.32948 0.271669 0
M  V30 5209 H 495.969 5.28368 1.59784 0
M  V30 5210 H 498.445 3.48128 2.27917 0
M  V30 5211 H 497.321 4.33402 3.36829 0
M  V30 5212 H 497.582 2.60864 3.56934 0
M  V30 5213 N 496.642 -0.504142 1.49319 0
M  V30 5214 C 497.575 -1.62361 1.60356 0
M  V30 5215 C 498.553 -1.56169 0.45277 0
M  V30 5216 O 499.737 -1.76271 0.667892 0
M  V30 5217 C 496.864 -3.00864 1.55559 0
M  V30 5218 C 495.91 -3.25328 2.75797 0
M  V30 5219 S 496.743 -3.08791 4.37503 0
M  V30 5220 C 497.899 -4.49695 4.35345 0
M  V30 5221 H 498.132 -1.52753 2.55056 0
M  V30 5222 H 495.665 -0.689065 1.38171 0
M  V30 5223 H 497.623 -3.8073 1.53477 0
M  V30 5224 H 496.284 -3.0789 0.621515 0
M  V30 5225 H 495.477 -4.2643 2.68651 0
M  V30 5226 H 495.079 -2.53179 2.75275 0
M  V30 5227 H 497.371 -5.41721 4.06871 0
M  V30 5228 H 498.314 -4.61891 5.36714 0
M  V30 5229 H 498.722 -4.30227 3.65465 0
M  V30 5230 N 498.12 -1.38341 -0.754957 0
M  V30 5231 C 499.345 -1.37882 -1.5493 0
M  V30 5232 C 499.77 0.0296385 -1.88077 0
M  V30 5233 O 499.128 1.01133 -1.50472 0
M  V30 5234 C 499.176 -2.23996 -2.82592 0
M  V30 5235 O 498.28 -1.65612 -3.77686 0
M  V30 5236 H 497.621 -0.470384 -0.468652 0
M  V30 5237 H 500.151 -1.82084 -0.933082 0
M  V30 5238 H 500.161 -2.37806 -3.3153 0
M  V30 5239 H 498.836 -3.26365 -2.57796 0
M  V30 5240 H 497.413 -1.60936 -3.36384 0
M  V30 5241 O 499.637 0.895511 -1.34398 0
M  V30 5242 H 500.328 1.53136 -1.18614 0
M  V30 END ATOM
M  V30 BEGIN BOND
M  V30 END BOND
M  V30 END CTAB
M  END
$$$$
