drugbank_target|P49356 Protein farnesyltransferase subunit beta (DB04893; DB04960; DB06448; DB06953; DB07216; DB07227; DB07771; DB07780; DB07841; DB07895; DB08674; DB08676)
 OpenBabel12092120103D

  0  0  0     0  0            999 V3000
M  V30 BEGIN CTAB
M  V30 COUNTS 6763 6859 0 0 0
M  V30 BEGIN ATOM
M  V30 1 H -0.908 1.98254 -0.117106 0
M  V30 2 N 0 1.576 0 0
M  V30 3 C 0.933 2.03868 1.02534 0
M  V30 4 C 1.911 0.928543 1.3348 0
M  V30 5 O 3.095 1.19667 1.45644 0
M  V30 6 C 0.222 2.43627 2.35294 0
M  V30 7 C -0.732 3.65373 2.2001 0
M  V30 8 S 0.101 5.13292 1.52614 0
M  V30 9 C 1.257 5.56322 2.86805 0
M  V30 10 H 1.49 2.90518 0.631377 0
M  V30 11 H -0.977 1.52953 0.210867 0
M  V30 12 H 0.981 2.67203 3.11629 0
M  V30 13 H -0.358 1.57376 2.7183 0
M  V30 14 H -1.165 3.90944 3.18086 0
M  V30 15 H -1.563 3.418 1.51819 0
M  V30 16 H 0.729 5.58782 3.83104 0
M  V30 17 H 1.672 6.56266 2.65933 0
M  V30 18 H 2.08 4.83886 2.90714 0
M  V30 19 N 1.4781 -0.272755 1.55222 0
M  V30 20 C 2.4411 -1.32041 1.87344 0
M  V30 21 C 3.4411 -1.42342 0.74803 0
M  V30 22 O 4.6311 -1.41488 1.0162 0
M  V30 23 C 1.7631 -2.70173 2.07893 0
M  V30 24 H 2.9561 -1.04789 2.80997 0
M  V30 25 H 0.5091 -0.51083 1.47717 0
M  V30 26 H 1.2441 -3.02605 1.16622 0
M  V30 27 H 1.0291 -2.64082 2.89833 0
M  V30 28 H 2.5191 -3.45869 2.34017 0
M  V30 29 N 2.9562 -1.48159 -0.537278 0
M  V30 30 C 4.1812 -1.59707 -1.32319 0
M  V30 31 C 4.6062 -0.254859 -1.86365 0
M  V30 32 O 3.9642 0.772378 -1.64024 0
M  V30 33 C 4.0122 -2.6412 -2.45505 0
M  V30 34 O 3.1162 -2.20774 -3.48328 0
M  V30 35 H 2.4572 -0.535791 -0.392204 0
M  V30 36 H 4.9872 -1.94092 -0.647268 0
M  V30 37 H 4.9972 -2.85166 -2.91795 0
M  V30 38 H 3.6722 -3.61567 -2.05528 0
M  V30 39 H 2.2492 -2.09911 -3.08207 0
M  V30 40 N 4.4343 0.785586 -1.36625 0
M  V30 41 C 5.8453 1.36101 -1.27803 0
M  V30 42 C 6.1963 1.96035 0.0804875 0
M  V30 43 O 5.3213 1.92834 0.982042 0
M  V30 44 C 5.9163 2.47442 -2.31426 0
M  V30 45 C 4.4753 3.00789 -2.26281 0
M  V30 46 C 3.6223 1.73896 -2.15999 0
M  V30 47 H 6.5733 0.586928 -1.47448 0
M  V30 48 H 6.5943 3.2656 -1.95291 0
M  V30 49 H 6.1063 2.03791 -3.30289 0
M  V30 50 H 4.2073 3.48851 -1.30896 0
M  V30 51 H 4.3203 3.57343 -3.19128 0
M  V30 52 H 2.6843 1.9628 -1.62316 0
M  V30 53 H 3.4673 1.32368 -3.16755 0
M  V30 54 N 5.9124 1.20967 1.01018 0
M  V30 55 C 7.1374 1.0503 1.78839 0
M  V30 56 C 7.5624 -0.395752 1.8389 0
M  V30 57 O 6.9204 -1.28529 1.27867 0
M  V30 58 C 6.9684 1.64602 3.2084 0
M  V30 59 O 6.0724 0.887988 4.02726 0
M  V30 60 H 5.4134 0.369987 0.551367 0
M  V30 61 H 7.9434 1.60399 1.27018 0
M  V30 62 H 7.9534 1.68607 3.71532 0
M  V30 63 H 6.6284 2.69841 3.16479 0
M  V30 64 H 5.2054 0.922648 3.61305 0
M  V30 65 N 7.3905 -1.2043 1.01659 0
M  V30 66 C 8.6155 -1.94318 0.724942 0
M  V30 67 C 9.0405 -1.74266 -0.708034 0
M  V30 68 O 8.3985 -1.03694 -1.48719 0
M  V30 69 C 8.4465 -3.44486 1.06591 0
M  V30 70 O 7.5505 -4.12017 0.177599 0
M  V30 71 H 6.8915 -0.60708 0.26898 0
M  V30 72 H 9.4215 -1.52861 1.35995 0
M  V30 73 H 9.4315 -3.95106 1.01762 0
M  V30 74 H 8.1065 -3.58404 2.10997 0
M  V30 75 H 6.6835 -3.71821 0.283421 0
M  V30 76 N 8.8686 -0.792821 -1.36206 0
M  V30 77 C 10.1156 -0.366786 -1.99151 0
M  V30 78 C 10.4436 1.06243 -1.62919 0
M  V30 79 O 9.6986 1.74927 -0.877442 0
M  V30 80 C 9.9976 -0.481501 -3.54142 0
M  V30 81 C 9.6636 -1.87202 -4.10203 0
M  V30 82 C 8.3256 -2.25248 -4.25226 0
M  V30 83 C 10.6776 -2.78237 -4.40719 0
M  V30 84 C 8.0056 -3.53723 -4.68078 0
M  V30 85 C 10.3576 -4.06144 -4.85005 0
M  V30 86 C 9.0216 -4.44207 -4.98234 0
M  V30 87 H 8.2916 -0.134217 -0.728743 0
M  V30 88 H 10.9386 -1.01094 -1.62641 0
M  V30 89 H 9.2436 0.246146 -3.91026 0
M  V30 90 H 10.9406 -0.132844 -4.0078 0
M  V30 91 H 7.5306 -1.56639 -3.98951 0
M  V30 92 H 11.7146 -2.50097 -4.28679 0
M  V30 93 H 6.9706 -3.8308 -4.76508 0
M  V30 94 H 11.1446 -4.76796 -5.07581 0
M  V30 95 H 8.7716 -5.43814 -5.31197 0
M  V30 96 N 10.3467 1.47872 -0.545128 0
M  V30 97 C 11.5747 2.06889 -0.021084 0
M  V30 98 C 11.9897 1.39955 1.2672 0
M  V30 99 O 11.3467 0.492036 1.75742 0
M  V30 100 C 11.3977 3.60996 0.190817 0
M  V30 101 O 11.1187 4.25419 -1.04644 0
M  V30 102 C 12.6197 4.36849 0.753521 0
M  V30 103 H 9.8397 0.669785 -0.0403635 0
M  V30 104 H 12.3837 1.90049 -0.755095 0
M  V30 105 H 10.5387 3.77391 0.87492 0
M  V30 106 H 10.9527 5.17785 -0.836611 0
M  V30 107 H 12.4267 5.45399 0.851139 0
M  V30 108 H 12.9037 4.02306 1.762 0
M  V30 109 H 13.5097 4.25169 0.105503 0
M  V30 110 N 11.8248 0.280983 1.55075 0
M  V30 111 C 13.0548 -0.336804 2.03836 0
M  V30 112 C 13.4628 -1.49577 1.15859 0
M  V30 113 O 12.8058 -1.82888 0.172503 0
M  V30 114 C 12.8678 -0.874616 3.48699 0
M  V30 115 C 12.5318 0.156478 4.56732 0
M  V30 116 C 13.5288 0.978032 5.10618 0
M  V30 117 C 11.2138 0.292409 5.01448 0
M  V30 118 C 13.2078 1.92165 6.07743 0
M  V30 119 C 10.8948 1.23949 5.98398 0
M  V30 120 C 11.8928 2.05261 6.51427 0
M  V30 121 O 11.5808 2.98367 7.4648 0
M  V30 122 H 11.3128 -0.0800885 0.671239 0
M  V30 123 H 13.8668 0.412589 2.01213 0
M  V30 124 H 12.0968 -1.67418 3.4858 0
M  V30 125 H 13.7858 -1.40612 3.80766 0
M  V30 126 H 14.5518 0.883782 4.7688 0
M  V30 127 H 10.4308 -0.330498 4.59814 0
M  V30 128 H 13.9748 2.55672 6.49059 0
M  V30 129 H 9.8718 1.33454 6.31554 0
M  V30 130 H 10.6398 2.93116 7.64215 0
M  V30 131 N 13.3029 -1.57598 0.00835791 0
M  V30 132 C 14.5329 -1.94931 -0.684496 0
M  V30 133 C 14.9409 -0.882233 -1.67372 0
M  V30 134 O 14.2839 0.146621 -1.83114 0
M  V30 135 C 14.3459 -3.283 -1.4649 0
M  V30 136 C 14.0099 -4.52548 -0.63634 0
M  V30 137 C 15.0069 -5.19839 0.0795586 0
M  V30 138 C 12.6919 -4.98942 -0.579849 0
M  V30 139 C 14.6859 -6.3183 0.840843 0
M  V30 140 C 12.3729 -6.10819 0.185155 0
M  V30 141 C 13.3709 -6.77121 0.894227 0
M  V30 142 O 13.0589 -7.86853 1.64673 0
M  V30 143 H 12.7909 -0.647249 -0.19505 0
M  V30 144 H 15.3449 -2.05318 0.0581272 0
M  V30 145 H 13.5749 -3.14345 -2.2522 0
M  V30 146 H 15.2639 -3.50685 -2.04389 0
M  V30 147 H 16.0299 -4.84979 0.0451202 0
M  V30 148 H 11.9089 -4.47155 -1.1213 0
M  V30 149 H 15.4529 -6.83513 1.39483 0
M  V30 150 H 11.3499 -6.4512 0.221384 0
M  V30 151 H 12.1179 -8.03412 1.56432 0
M  V30 152 N 14.781 0.264519 -1.55364 0
M  V30 153 C 16.021 1.00254 -1.78125 0
M  V30 154 C 16.385 1.83187 -0.575017 0
M  V30 155 O 17.586 2.60029 -0.681042 0
M  V30 156 C 15.857 1.85478 -3.05504 0
M  V30 157 S 17.416 2.6543 -3.49417 0
M  V30 158 H 14.234 0.337522 -0.625779 0
M  V30 159 H 16.836 0.272111 -1.93597 0
M  V30 160 H 15.54 1.23491 -3.9138 0
M  V30 161 H 15.071 2.62827 -2.92721 0
M  V30 162 H 17.086 3.87958 -3.09359 0
M  V30 163 N 16.2591 1.48442 0.529413 0
M  V30 164 C 17.6701 1.5002 1.11134 0
M  V30 165 C 18.0211 0.27031 1.94329 0
M  V30 166 O 17.1461 -0.622507 2.07253 0
M  V30 167 C 17.7411 2.71834 2.02217 0
M  V30 168 C 16.3001 2.76283 2.55627 0
M  V30 169 C 15.4471 2.43542 1.326 0
M  V30 170 H 18.3981 1.5555 0.314641 0
M  V30 171 H 18.4191 2.50384 2.8651 0
M  V30 172 H 17.9311 3.61331 1.41639 0
M  V30 173 H 16.0321 1.90995 3.19924 0
M  V30 174 H 16.1451 3.77725 2.94721 0
M  V30 175 H 14.5091 1.94709 1.64196 0
M  V30 176 H 15.2921 3.3528 0.737734 0
M  V30 177 N 17.7372 -0.778329 1.37039 0
M  V30 178 C 19.1482 -1.35421 1.28523 0
M  V30 179 C 19.4992 -1.96075 -0.0700901 0
M  V30 180 O 18.6242 -1.93352 -0.971801 0
M  V30 181 C 19.2192 -2.46211 2.32735 0
M  V30 182 C 17.7782 -2.99585 2.27873 0
M  V30 183 C 16.9252 -1.72748 2.16918 0
M  V30 184 H 19.8762 -0.5791 1.47757 0
M  V30 185 H 19.8972 -3.2552 1.9702 0
M  V30 186 H 19.4092 -2.02036 3.31365 0
M  V30 187 H 17.5102 -3.48152 1.32745 0
M  V30 188 H 17.6232 -3.55646 3.21018 0
M  V30 189 H 15.9872 -1.95416 1.63354 0
M  V30 190 H 16.7702 -1.30686 3.17452 0
M  V30 191 N 19.2153 -1.21501 -1.00376 0
M  V30 192 C 20.4403 -1.05977 -1.78279 0
M  V30 193 C 20.8653 0.385994 -1.84097 0
M  V30 194 O 20.2233 1.27849 -1.28547 0
M  V30 195 C 20.2713 -1.66302 -3.19963 0
M  V30 196 O 19.3753 -0.909333 -4.0225 0
M  V30 197 H 18.7163 -0.372906 -0.549397 0
M  V30 198 H 21.2463 -1.6107 -1.26165 0
M  V30 199 H 21.2563 -1.70574 -3.70632 0
M  V30 200 H 19.9313 -2.71515 -3.15043 0
M  V30 201 H 18.5083 -0.941795 -3.60811 0
M  V30 202 N 20.6934 1.19889 -1.02296 0
M  V30 203 C 21.9184 1.9393 -0.735237 0
M  V30 204 C 22.3434 1.74639 0.698782 0
M  V30 205 O 21.7014 1.04481 1.48167 0
M  V30 206 C 21.7494 3.43916 -1.08417 0
M  V30 207 O 20.8534 4.11917 -0.199446 0
M  V30 208 H 20.1944 0.605645 -0.272196 0
M  V30 209 H 22.7244 1.52137 -1.36804 0
M  V30 210 H 22.7344 3.9456 -1.03856 0
M  V30 211 H 21.4094 3.5728 -2.12894 0
M  V30 212 H 19.9864 3.71666 -0.303136 0
M  V30 213 N 22.1715 0.800033 1.35784 0
M  V30 214 C 23.3965 0.388511 2.03729 0
M  V30 215 C 23.8215 -0.990481 1.5991 0
M  V30 216 O 23.1795 -1.64013 0.772612 0
M  V30 217 C 23.2275 0.4726 3.5749 0
M  V30 218 O 22.3315 -0.51646 4.09153 0
M  V30 219 H 21.6725 0.163271 0.643614 0
M  V30 220 H 24.2025 1.0841 1.73518 0
M  V30 221 H 24.2125 0.34003 4.06581 0
M  V30 222 H 22.8875 1.47848 3.88734 0
M  V30 223 H 21.4645 -0.344673 3.71304 0
M  V30 224 N 23.6496 -1.47581 0.552962 0
M  V30 225 C 25.0606 -1.86324 0.118463 0
M  V30 226 C 25.4116 -1.46006 -1.3106 0
M  V30 227 O 24.5366 -0.861182 -1.98526 0
M  V30 228 C 25.1316 -3.3816 0.20821 0
M  V30 229 C 23.6906 -3.7601 -0.171226 0
M  V30 230 C 22.8376 -2.71634 0.557686 0
M  V30 231 H 25.7886 -1.39159 0.762928 0
M  V30 232 H 25.8096 -3.76141 -0.574278 0
M  V30 233 H 25.3216 -3.67473 1.24841 0
M  V30 234 H 23.4226 -3.52313 -1.21269 0
M  V30 235 H 23.5356 -4.78745 0.184379 0
M  V30 236 H 21.8996 -2.547 0.00125792 0
M  V30 237 H 22.6826 -3.0379 1.59896 0
M  V30 238 N 25.1277 -0.289203 -1.54924 0
M  V30 239 C 26.3737 0.323998 -2.00195 0
M  V30 240 C 26.7067 1.54441 -1.17735 0
M  V30 241 O 25.9817 1.92875 -0.250878 0
M  V30 242 C 26.2647 0.692276 -3.53383 0
M  V30 243 C 26.1177 -0.536457 -4.46589 0
M  V30 244 C 27.4367 1.52335 -4.12895 0
M  V30 245 H 24.5557 0.116289 -0.727768 0
M  V30 246 H 27.1977 -0.398954 -1.85764 0
M  V30 247 H 25.3477 1.30822 -3.65811 0
M  V30 248 H 27.0197 -1.17499 -4.46085 0
M  V30 249 H 25.2627 -1.17192 -4.1767 0
M  V30 250 H 25.9337 -0.234806 -5.515 0
M  V30 251 H 28.4097 1.00302 -4.0383 0
M  V30 252 H 27.2857 1.74982 -5.20262 0
M  V30 253 H 27.5467 2.50886 -3.64018 0
M  V30 254 N 26.6058 1.57591 -0.0167156 0
M  V30 255 C 27.8518 1.92399 0.659861 0
M  V30 256 C 28.2068 0.892561 1.70444 0
M  V30 257 O 27.4998 -0.0930755 1.91374 0
M  V30 258 C 27.6938 3.3172 1.33029 0
M  V30 259 C 27.5228 4.48319 0.352174 0
M  V30 260 C 26.2928 5.05281 -0.0434883 0
M  V30 261 C 28.4908 5.12831 -0.388474 0
M  V30 262 N 26.4728 6.05399 -1.01807 0
M  V30 263 C 27.8438 6.07934 -1.2172 0
M  V30 264 C 29.8988 4.95858 -0.450513 0
M  V30 265 C 28.6018 6.87891 -2.10235 0
M  V30 266 C 30.6278 5.76413 -1.32295 0
M  V30 267 C 29.9898 6.71123 -2.13948 0
M  V30 268 H 26.0888 0.752106 0.21415 0
M  V30 269 H 28.6728 1.94532 -0.0809846 0
M  V30 270 H 26.8438 3.3043 2.04134 0
M  V30 271 H 28.5758 3.5391 1.9629 0
M  V30 272 H 25.3308 4.7246 0.328384 0
M  V30 273 H 25.7548 6.60145 -1.50123 0
M  V30 274 H 30.3968 4.22472 0.166512 0
M  V30 275 H 28.1148 7.60591 -2.72997 0
M  V30 276 H 31.7008 5.65317 -1.37508 0
M  V30 277 H 30.5808 7.3237 -2.80364 0
M  V30 278 N 28.0839 -0.256276 1.55502 0
M  V30 279 C 29.3089 -1.00766 1.81276 0
M  V30 280 C 29.7339 -1.78524 0.59252 0
M  V30 281 O 29.0919 -1.75413 -0.45827 0
M  V30 282 C 29.1399 -1.92869 3.04687 0
M  V30 283 O 28.2439 -3.019 2.80945 0
M  V30 284 H 27.5849 -0.287224 0.598664 0
M  V30 285 H 30.1149 -0.280109 2.02674 0
M  V30 286 H 30.1249 -2.34511 3.33869 0
M  V30 287 H 28.7999 -1.35689 3.93143 0
M  V30 288 H 27.3769 -2.64454 2.62904 0
M  V30 289 N 29.562 -1.4872 -0.521534 0
M  V30 290 C 30.472 -1.66569 -1.65203 0
M  V30 291 C 31.488 -0.548197 -1.65139 0
M  V30 292 O 32.664 -0.820339 -1.83936 0
M  V30 293 C 29.729 -1.70917 -3.01642 0
M  V30 294 C 28.79 -2.94356 -3.12495 0
M  V30 295 C 28.023 -2.98487 -4.42426 0
M  V30 296 O 28.246 -2.10786 -5.30024 0
M  V30 297 O 27.18 -3.90746 -4.57822 0
M  V30 298 H 31.006 -2.62298 -1.5308 0
M  V30 299 H 28.591 -1.3222 -0.695565 0
M  V30 300 H 30.473 -1.7625 -3.82771 0
M  V30 301 H 29.148 -0.783633 -3.14071 0
M  V30 302 H 28.055 -2.94552 -2.3063 0
M  V30 303 H 29.388 -3.86322 -3.04986 0
M  V30 304 N 31.0401 0.771051 -1.3745 0
M  V30 305 C 32.4511 1.34737 -1.29239 0
M  V30 306 C 32.8021 1.96109 0.0596908 0
M  V30 307 O 31.9271 1.93865 0.961534 0
M  V30 308 C 32.5221 2.44973 -2.34037 0
M  V30 309 C 31.0811 2.98372 -2.29458 0
M  V30 310 C 30.2281 1.71595 -2.17831 0
M  V30 311 H 33.1791 0.571256 -1.48062 0
M  V30 312 H 33.2001 3.24471 -1.98744 0
M  V30 313 H 32.7121 2.00276 -3.32432 0
M  V30 314 H 30.8131 3.47443 -1.34589 0
M  V30 315 H 30.9261 3.53939 -3.229 0
M  V30 316 H 29.2901 1.94547 -1.64388 0
M  V30 317 H 30.0731 1.29001 -3.18141 0
M  V30 318 N 32.5182 1.22032 0.997298 0
M  V30 319 C 33.4482 1.01065 2.10495 0
M  V30 320 C 34.4292 -0.0669542 1.69968 0
M  V30 321 O 35.6142 0.0943987 1.9397 0
M  V30 322 C 32.7442 0.582874 3.42374 0
M  V30 323 C 31.6982 1.60592 3.96729 0
M  V30 324 C 31.0242 1.03412 5.24605 0
M  V30 325 C 32.3242 2.99478 4.27914 0
M  V30 326 H 34.0182 1.93708 2.28292 0
M  V30 327 H 31.5642 0.932761 1.09707 0
M  V30 328 H 33.5172 0.423332 4.19268 0
M  V30 329 H 32.2412 -0.379213 3.24391 0
M  V30 330 H 30.9002 1.75316 3.21963 0
M  V30 331 H 30.5482 0.063518 5.0296 0
M  V30 332 H 30.2482 1.71754 5.61938 0
M  V30 333 H 31.7722 0.886066 6.04137 0
M  V30 334 H 33.1862 2.88153 4.95622 0
M  V30 335 H 31.5832 3.64903 4.76409 0
M  V30 336 H 32.6532 3.49742 3.3587 0
M  V30 337 N 33.9963 -1.19345 1.0293 0
M  V30 338 C 35.2263 -1.92717 0.744563 0
M  V30 339 C 35.6343 -1.75751 -0.700579 0
M  V30 340 O 34.9773 -1.07703 -1.48815 0
M  V30 341 C 35.0393 -3.44828 1.01657 0
M  V30 342 C 34.7033 -3.85564 2.45335 0
M  V30 343 C 35.7003 -3.90286 3.43472 0
M  V30 344 C 33.3853 -4.1719 2.79746 0
M  V30 345 C 35.3793 -4.26065 4.74075 0
M  V30 346 C 33.0663 -4.52642 4.10559 0
M  V30 347 C 34.0643 -4.57054 5.07534 0
M  V30 348 O 33.7523 -4.91685 6.36004 0
M  V30 349 H 33.4843 -0.618977 0.271742 0
M  V30 350 H 36.0383 -1.52415 1.37691 0
M  V30 351 H 34.2683 -3.85314 0.327084 0
M  V30 352 H 35.9573 -3.99437 0.721427 0
M  V30 353 H 36.7233 -3.66002 3.18225 0
M  V30 354 H 32.6023 -4.1294 2.04943 0
M  V30 355 H 36.1463 -4.29423 5.49765 0
M  V30 356 H 32.0433 -4.76383 4.35579 0
M  V30 357 H 32.8113 -5.09631 6.40483 0
M  V30 358 N 35.4744 -0.807222 -1.35358 0
M  V30 359 C 36.6994 -0.399309 -2.0352 0
M  V30 360 C 37.1244 0.981986 -1.60433 0
M  V30 361 O 36.4824 1.63601 -0.781299 0
M  V30 362 C 36.5304 -0.491552 -3.57234 0
M  V30 363 O 35.6344 0.494754 -4.09421 0
M  V30 364 H 34.9754 -0.166682 -0.642739 0
M  V30 365 H 37.5054 -1.09328 -1.72941 0
M  V30 366 H 37.5154 -0.361588 -4.06395 0
M  V30 367 H 36.1904 -1.49907 -3.87944 0
M  V30 368 H 34.7674 0.324977 -3.71481 0
M  V30 369 N 36.9525 1.47285 -0.560781 0
M  V30 370 C 37.8825 2.32857 0.173105 0
M  V30 371 C 38.8635 1.44009 0.905281 0
M  V30 372 O 40.0485 1.7286 0.885046 0
M  V30 373 C 37.1785 3.25861 1.20133 0
M  V30 374 C 36.1325 4.23978 0.585388 0
M  V30 375 C 35.4585 5.06332 1.7185 0
M  V30 376 C 36.7585 5.20242 -0.463178 0
M  V30 377 H 38.4525 2.94466 -0.541307 0
M  V30 378 H 35.9985 1.41601 -0.261764 0
M  V30 379 H 37.9515 3.84569 1.72293 0
M  V30 380 H 36.6755 2.62315 1.94573 0
M  V30 381 H 35.3345 3.66501 0.085054 0
M  V30 382 H 34.9825 4.39186 2.45203 0
M  V30 383 H 34.6825 5.72762 1.31213 0
M  V30 384 H 36.2065 5.67899 2.24329 0
M  V30 385 H 37.6205 5.73293 -0.027502 0
M  V30 386 H 36.0175 5.94896 -0.788627 0
M  V30 387 H 37.0875 4.65504 -1.35773 0
M  V30 388 N 38.4306 0.297415 1.54768 0
M  V30 389 C 39.8466 -0.0560823 1.59501 0
M  V30 390 C 40.0466 -1.52725 1.31444 0
M  V30 391 O 39.1026 -2.27947 1.08611 0
M  V30 392 C 40.4156 0.338631 2.98787 0
M  V30 393 C 41.9636 0.287097 3.11681 0
M  V30 394 C 42.4386 0.656579 4.53269 0
M  V30 395 N 43.9296 0.608977 4.59179 0
M  V30 396 C 44.6646 0.867385 5.66802 0
M  V30 397 N 44.1606 1.19157 6.82476 0
M  V30 398 N 45.9536 0.794687 5.56454 0
M  V30 399 H 38.1046 1.25624 1.71267 0
M  V30 400 H 40.3676 0.509057 0.799728 0
M  V30 401 H 40.0736 1.36263 3.2423 0
M  V30 402 H 39.9476 -0.309508 3.75928 0
M  V30 403 H 42.3346 -0.727649 2.85988 0
M  V30 404 H 42.4156 0.969809 2.36703 0
M  V30 405 H 42.0596 1.66912 4.7969 0
M  V30 406 H 41.9896 -0.0481649 5.26578 0
M  V30 407 H 44.4806 0.369198 3.76092 0
M  V30 408 H 44.7936 1.37482 7.60473 0
M  V30 409 H 43.1386 1.22958 6.84037 0
M  V30 410 H 46.3296 0.541098 4.64962 0
M  V30 411 H 46.5026 0.999445 6.40246 0
M  V30 412 N 39.9087 -1.5758 0.0250728 0
M  V30 413 C 41.3197 -1.79476 -0.514323 0
M  V30 414 C 41.6707 -0.934956 -1.72491 0
M  V30 415 O 40.7957 -0.144245 -2.15919 0
M  V30 416 C 41.3907 -3.25503 -0.939842 0
M  V30 417 C 39.9497 -3.48408 -1.42438 0
M  V30 418 C 39.0967 -2.74583 -0.387201 0
M  V30 419 H 42.0477 -1.567 0.25113 0
M  V30 420 H 42.0687 -3.34992 -1.80445 0
M  V30 421 H 41.5807 -3.88056 -0.0585628 0
M  V30 422 H 39.6817 -2.91103 -2.32572 0
M  V30 423 H 39.7947 -4.57119 -1.43455 0
M  V30 424 H 38.1587 -2.39942 -0.854409 0
M  V30 425 H 38.9417 -3.39849 0.485543 0
M  V30 426 N 41.3868 0.248026 -1.55636 0
M  V30 427 C 42.2968 1.32859 -1.93354 0
M  V30 428 C 43.3128 1.52719 -0.833838 0
M  V30 429 O 44.4888 1.66363 -1.13513 0
M  V30 430 C 41.5538 2.66337 -2.21958 0
M  V30 431 C 40.6148 2.55008 -3.45354 0
M  V30 432 C 39.8478 3.82121 -3.72584 0
M  V30 433 O 40.0708 4.83951 -3.01907 0
M  V30 434 O 39.0048 3.80822 -4.6611 0
M  V30 435 H 42.8308 1.03862 -2.85388 0
M  V30 436 H 40.4158 0.448686 -1.42503 0
M  V30 437 H 42.2978 3.45216 -2.4167 0
M  V30 438 H 40.9728 2.95068 -1.33103 0
M  V30 439 H 39.8798 1.7442 -3.30951 0
M  V30 440 H 41.2128 2.31222 -4.34508 0
M  V30 441 N 42.8649 1.48995 0.513639 0
M  V30 442 C 43.8149 1.61127 1.61314 0
M  V30 443 C 44.7989 0.467521 1.53958 0
M  V30 444 O 45.9909 0.719826 1.61702 0
M  V30 445 C 43.1199 1.66937 2.99978 0
M  V30 446 C 42.2059 2.86847 3.12377 0
M  V30 447 N 42.5969 4.11078 2.94701 0
M  V30 448 C 40.8949 2.84521 3.43459 0
M  V30 449 C 41.5959 4.91615 3.10949 0
M  V30 450 N 40.5719 4.24739 3.3926 0
M  V30 451 H 44.3739 2.54909 1.46282 0
M  V30 452 H 41.8879 1.45593 0.719483 0
M  V30 453 H 43.8849 1.73725 3.78979 0
M  V30 454 H 42.5449 0.742831 3.16089 0
M  V30 455 H 43.5559 4.41258 2.71131 0
M  V30 456 H 40.2329 2.01192 3.65825 0
M  V30 457 H 41.6229 6.00264 3.01882 0
M  V30 458 N 44.343 -0.763751 1.37857 0
M  V30 459 C 45.306 -1.85889 1.34081 0
M  V30 460 C 46.306 -1.58949 0.243277 0
M  V30 461 O 47.496 -1.66882 0.499589 0
M  V30 462 C 44.628 -3.23176 1.08489 0
M  V30 463 H 45.821 -1.90648 2.31502 0
M  V30 464 H 43.374 -0.964367 1.23003 0
M  V30 465 H 44.109 -3.24091 0.116318 0
M  V30 466 H 43.894 -3.44124 1.8794 0
M  V30 467 H 45.384 -4.03254 1.08517 0
M  V30 468 N 45.8211 -1.22559 -0.990812 0
M  V30 469 C 47.2371 -0.985996 -1.255 0
M  V30 470 C 47.4371 0.319173 -1.98956 0
M  V30 471 O 46.4931 1.04127 -2.3003 0
M  V30 472 C 47.8061 -2.18607 -2.06474 0
M  V30 473 C 49.3541 -2.22985 -2.19651 0
M  V30 474 C 49.8291 -3.4255 -3.04012 0
M  V30 475 N 51.3201 -3.42725 -3.11599 0
M  V30 476 C 52.0551 -4.31892 -3.7717 0
M  V30 477 N 51.5511 -5.31279 -4.44651 0
M  V30 478 N 53.3441 -4.19662 -3.73952 0
M  V30 479 H 45.4951 -2.06469 -0.49841 0
M  V30 480 H 47.7581 -0.904853 -0.282747 0
M  V30 481 H 47.4641 -3.13267 -1.59865 0
M  V30 482 H 47.3381 -2.18838 -3.07229 0
M  V30 483 H 49.7251 -1.28871 -2.65474 0
M  V30 484 H 49.8061 -2.26791 -1.18319 0
M  V30 485 H 49.4501 -4.36965 -2.58889 0
M  V30 486 H 49.3801 -3.35984 -4.0549 0
M  V30 487 H 51.8711 -2.70807 -2.63575 0
M  V30 488 H 52.1841 -5.95593 -4.92431 0
M  V30 489 H 50.5291 -5.3519 -4.43392 0
M  V30 490 H 53.7201 -3.41268 -3.20396 0
M  V30 491 H 53.8931 -4.89358 -4.24774 0
M  V30 492 N 47.2992 1.18797 -1.03562 0
M  V30 493 C 48.2092 2.25913 -0.632505 0
M  V30 494 C 49.2252 1.70668 0.338882 0
M  V30 495 O 50.4012 2.00453 0.195076 0
M  V30 496 C 47.4662 3.467 0.00350942 0
M  V30 497 C 46.5272 4.17098 -1.01624 0
M  V30 498 C 45.7602 5.32119 -0.410478 0
M  V30 499 O 45.9832 5.64976 0.784725 0
M  V30 500 O 44.9172 5.9107 -1.13667 0
M  V30 501 H 48.7432 2.62648 -1.52478 0
M  V30 502 H 46.3282 1.25781 -0.806195 0
M  V30 503 H 48.2102 4.19878 0.35781 0
M  V30 504 H 46.8852 3.11798 0.869686 0
M  V30 505 H 45.7922 3.4601 -1.42224 0
M  V30 506 H 47.1252 4.55987 -1.85301 0
M  V30 507 N 48.7773 0.814389 1.34928 0
M  V30 508 C 50.1933 0.499084 1.51596 0
M  V30 509 C 50.3933 -0.978319 1.76157 0
M  V30 510 O 49.4493 -1.76309 1.80752 0
M  V30 511 C 50.7623 1.35121 2.68631 0
M  V30 512 C 52.3103 1.34746 2.82511 0
M  V30 513 C 52.7853 2.18388 4.0258 0
M  V30 514 N 54.2763 2.15966 4.09772 0
M  V30 515 C 55.0113 2.77437 5.01813 0
M  V30 516 N 54.5073 3.47866 5.99134 0
M  V30 517 N 56.3003 2.67037 4.94619 0
M  V30 518 H 48.4513 1.7711 1.17243 0
M  V30 519 H 50.7143 0.754256 0.574284 0
M  V30 520 H 50.4203 2.40001 2.57085 0
M  V30 521 H 50.2943 1.00991 3.63429 0
M  V30 522 H 52.6813 0.30648 2.93504 0
M  V30 523 H 52.7623 1.72869 1.88547 0
M  V30 524 H 52.4063 3.2253 3.92347 0
M  V30 525 H 52.3363 1.77621 4.9574 0
M  V30 526 H 54.8273 1.64729 3.40107 0
M  V30 527 H 55.1403 3.92038 6.65977 0
M  V30 528 H 53.4853 3.51972 5.99284 0
M  V30 529 H 56.6763 2.11597 4.17546 0
M  V30 530 H 56.8493 3.15232 5.66156 0
M  V30 531 N 50.2554 -1.46986 0.568584 0
M  V30 532 C 51.1854 -2.32946 -0.160753 0
M  V30 533 C 52.1664 -1.44487 -0.897631 0
M  V30 534 O 53.3514 -1.73327 -0.875867 0
M  V30 535 C 50.4814 -3.26494 -1.18403 0
M  V30 536 C 49.4354 -4.24282 -0.562895 0
M  V30 537 C 48.7614 -5.07236 -1.69163 0
M  V30 538 C 50.0614 -5.19989 0.490761 0
M  V30 539 H 51.7554 -2.94175 0.556916 0
M  V30 540 H 49.3014 -1.4146 0.26927 0
M  V30 541 H 51.2544 -3.85477 -1.70251 0
M  V30 542 H 49.9784 -2.63343 -1.93179 0
M  V30 543 H 48.6374 -3.66541 -0.0656164 0
M  V30 544 H 48.2854 -4.4048 -2.42871 0
M  V30 545 H 47.9854 -5.7345 -1.28174 0
M  V30 546 H 49.5094 -5.6908 -2.21314 0
M  V30 547 H 50.9234 -5.73271 0.0579047 0
M  V30 548 H 49.3204 -5.94469 0.820165 0
M  V30 549 H 50.3904 -4.64777 1.3824 0
M  V30 550 N 51.7335 -0.305618 -1.54608 0
M  V30 551 C 52.6655 0.602161 -2.21149 0
M  V30 552 C 53.6785 1.09394 -1.20569 0
M  V30 553 O 54.8675 1.0106 -1.47136 0
M  V30 554 C 51.9675 1.83692 -2.84799 0
M  V30 555 C 51.1405 1.48686 -4.11353 0
M  V30 556 C 50.1995 2.57725 -4.58764 0
M  V30 557 O 49.2255 2.22623 -5.23858 0
M  V30 558 N 50.4275 3.88346 -4.31471 0
M  V30 559 H 53.1925 0.0324966 -2.99682 0
M  V30 560 H 50.7535 -0.128021 -1.61393 0
M  V30 561 H 52.7455 2.55994 -3.13448 0
M  V30 562 H 51.3155 2.31486 -2.10078 0
M  V30 563 H 50.5355 0.596269 -3.89664 0
M  V30 564 H 51.8235 1.22842 -4.93748 0
M  V30 565 H 51.2215 4.19671 -3.79331 0
M  V30 566 H 49.7785 4.56932 -4.64818 0
M  V30 567 N 53.2116 1.57565 -0.0334293 0
M  V30 568 C 54.4886 1.83282 0.683163 0
M  V30 569 C 54.8686 0.91823 1.90084 0
M  V30 570 O 54.2166 -0.025113 2.28486 0
M  V30 571 C 54.4266 3.32599 1.0573 0
M  V30 572 C 55.7746 3.99179 1.44711 0
M  V30 573 O 56.7986 3.3712 1.15015 0
M  V30 574 O 55.6576 5.08565 2.0006 0
M  V30 575 H 52.7516 0.755869 0.335546 0
M  V30 576 H 55.2976 1.69589 -0.0614402 0
M  V30 577 H 54.0696 3.90834 0.190828 0
M  V30 578 H 53.6926 3.51415 1.85993 0
M  V30 579 N 54.6897 -0.239769 1.55765 0
M  V30 580 C 55.9667 -0.990056 1.68693 0
M  V30 581 C 56.3467 -2.03107 0.5754 0
M  V30 582 O 55.6947 -2.24604 -0.42017 0
M  V30 583 C 55.9047 -1.61696 3.09282 0
M  V30 584 C 57.2527 -2.11613 3.6811 0
M  V30 585 O 58.2767 -1.71624 3.12127 0
M  V30 586 O 57.1357 -2.85057 4.66267 0
M  V30 587 H 54.2297 -0.461299 0.686391 0
M  V30 588 H 56.7757 -0.232991 1.68093 0
M  V30 589 H 55.5477 -0.864357 3.81634 0
M  V30 590 H 55.1707 -2.44005 3.13923 0
M  V30 591 N 56.1678 -1.49265 -0.50573 0
M  V30 592 C 57.3928 -1.62478 -1.28902 0
M  V30 593 C 57.8178 -0.294332 -1.85783 0
M  V30 594 O 57.1758 0.737412 -1.65626 0
M  V30 595 C 57.2238 -2.69268 -2.39848 0
M  V30 596 O 56.3278 -2.28113 -3.43567 0
M  V30 597 H 55.6688 -0.54399 -0.380751 0
M  V30 598 H 58.1988 -1.95421 -0.605952 0
M  V30 599 H 58.2088 -2.91291 -2.85681 0
M  V30 600 H 56.8838 -3.65846 -1.97812 0
M  V30 601 H 55.4608 -2.16401 -3.03685 0
M  V30 602 N 57.6459 0.756429 -1.3826 0
M  V30 603 C 58.8919 1.51772 -1.34511 0
M  V30 604 C 59.2249 1.94089 0.0656691 0
M  V30 605 O 58.4999 1.65221 1.02626 0
M  V30 606 C 58.7829 2.77226 -2.29821 0
M  V30 607 C 58.6359 2.41065 -3.79747 0
M  V30 608 C 59.9549 3.79236 -2.23312 0
M  V30 609 H 57.0739 0.550578 -0.489931 0
M  V30 610 H 59.7159 0.866607 -1.69086 0
M  V30 611 H 57.8659 3.32784 -2.00467 0
M  V30 612 H 59.5379 1.91303 -4.19763 0
M  V30 613 H 57.7809 1.7356 -3.97567 0
M  V30 614 H 58.4519 3.3081 -4.41892 0
M  V30 615 H 60.9279 3.3321 -2.49219 0
M  V30 616 H 59.8039 4.64714 -2.92116 0
M  V30 617 H 60.0649 4.24615 -1.23102 0
M  V30 618 N 59.124 1.23083 0.984299 0
M  V30 619 C 60.034 1.02515 2.11016 0
M  V30 620 C 61.05 -0.0291702 1.73976 0
M  V30 621 O 62.226 0.165434 2.00719 0
M  V30 622 C 59.291 0.614673 3.41208 0
M  V30 623 C 58.352 1.74359 3.92297 0
M  V30 624 C 57.585 1.35261 5.16275 0
M  V30 625 O 57.808 0.235136 5.69915 0
M  V30 626 O 56.742 2.17227 5.61334 0
M  V30 627 H 60.568 1.96862 2.31255 0
M  V30 628 H 58.153 1.01753 1.09392 0
M  V30 629 H 60.035 0.396518 4.1953 0
M  V30 630 H 58.71 -0.299851 3.22308 0
M  V30 631 H 57.617 2.01635 3.1511 0
M  V30 632 H 58.95 2.63629 4.15645 0
M  V30 633 N 60.6021 -1.18246 1.0419 0
M  V30 634 C 61.8301 -1.92195 0.766072 0
M  V30 635 C 62.2451 -1.76247 -0.676933 0
M  V30 636 O 61.6021 -1.09293 -1.46155 0
M  V30 637 C 61.6531 -3.43568 1.12442 0
M  V30 638 O 61.3741 -3.59015 2.51078 0
M  V30 639 C 62.8751 -4.34613 0.873275 0
M  V30 640 H 60.0951 -0.610114 0.279288 0
M  V30 641 H 62.6391 -1.50007 1.38989 0
M  V30 642 H 60.7941 -3.8354 0.545542 0
M  V30 643 H 61.2081 -4.5273 2.64831 0
M  V30 644 H 62.6821 -5.39374 1.17385 0
M  V30 645 H 63.1591 -4.38781 -0.191909 0
M  V30 646 H 63.7651 -4.00341 1.43551 0
M  V30 647 N 62.0802 -0.821533 -1.34494 0
M  V30 648 C 63.3262 -0.409552 -1.98622 0
M  V30 649 C 63.6592 1.0244 -1.64984 0
M  V30 650 O 62.9342 1.71325 -0.920758 0
M  V30 651 C 63.2172 -0.610458 -3.54888 0
M  V30 652 C 63.0702 -2.09043 -3.98273 0
M  V30 653 C 64.3892 -0.0455379 -4.40076 0
M  V30 654 H 61.5082 -0.15028 -0.721516 0
M  V30 655 H 64.1502 -1.03384 -1.59411 0
M  V30 656 H 62.3002 -0.079044 -3.8842 0
M  V30 657 H 63.9722 -2.68537 -3.75081 0
M  V30 658 H 62.2152 -2.58139 -3.48635 0
M  V30 659 H 62.8862 -2.18182 -5.07051 0
M  V30 660 H 65.3622 -0.499557 -4.1309 0
M  V30 661 H 64.2382 -0.215922 -5.48475 0
M  V30 662 H 64.4992 1.04939 -4.29465 0
M  V30 663 N 63.5583 1.46682 -0.576371 0
M  V30 664 C 64.7863 2.06798 -0.0649635 0
M  V30 665 C 65.2013 1.42612 1.23723 0
M  V30 666 O 64.5583 0.529203 1.74659 0
M  V30 667 C 64.6093 3.6132 0.114202 0
M  V30 668 O 64.3303 4.23104 -1.13644 0
M  V30 669 C 65.8313 4.38349 0.66069 0
M  V30 670 H 63.0513 0.668778 -0.0545616 0
M  V30 671 H 65.5953 1.88404 -0.795237 0
M  V30 672 H 63.7503 3.79162 0.794673 0
M  V30 673 H 64.1643 5.15894 -0.946253 0
M  V30 674 H 65.6383 5.47081 0.73526 0
M  V30 675 H 66.1153 4.05953 1.67627 0
M  V30 676 H 66.7213 4.25297 0.0152951 0
M  V30 677 N 65.0364 0.313813 1.54444 0
M  V30 678 C 66.2614 -0.296681 2.05267 0
M  V30 679 C 66.6864 -1.45757 1.18897 0
M  V30 680 O 66.0444 -1.80239 0.195886 0
M  V30 681 C 66.0924 -0.71831 3.53373 0
M  V30 682 O 65.1964 -1.82175 3.69981 0
M  V30 683 H 64.5374 -0.0554061 0.661684 0
M  V30 684 H 67.0674 0.459387 1.99376 0
M  V30 685 H 67.0774 -1.00364 3.95463 0
M  V30 686 H 65.7524 0.130821 4.15694 0
M  V30 687 H 64.3294 -1.53598 3.39797 0
M  V30 688 N 66.5145 -1.57545 0.0417849 0
M  V30 689 C 67.7635 -1.91494 -0.633492 0
M  V30 690 C 68.0765 -0.921084 -1.72556 0
M  V30 691 O 69.2825 -1.15228 -2.45835 0
M  V30 692 C 67.7385 -3.40072 -1.17808 0
M  V30 693 C 67.3465 -4.47843 -0.118633 0
M  V30 694 C 69.0905 -3.8307 -1.82915 0
M  V30 695 C 66.9975 -5.87529 -0.675578 0
M  V30 696 H 65.9275 -0.714653 -0.24039 0
M  V30 697 H 68.5785 -1.83175 0.109148 0
M  V30 698 H 66.9605 -3.43364 -1.97274 0
M  V30 699 H 68.1345 -4.56128 0.654494 0
M  V30 700 H 66.4495 -4.14128 0.434414 0
M  V30 701 H 69.0465 -4.84794 -2.25563 0
M  V30 702 H 69.3895 -3.1881 -2.67705 0
M  V30 703 H 69.9225 -3.82255 -1.10119 0
M  V30 704 H 66.6615 -6.55362 0.134475 0
M  V30 705 H 66.1815 -5.82824 -1.4169 0
M  V30 706 H 67.8605 -6.36491 -1.1614 0
M  V30 707 N 67.9926 0.231505 -1.5589 0
M  V30 708 C 68.9026 1.308 -1.94752 0
M  V30 709 C 69.9186 1.51826 -0.849989 0
M  V30 710 O 71.0946 1.6515 -1.15271 0
M  V30 711 C 68.1596 2.63968 -2.24771 0
M  V30 712 C 67.2206 2.51331 -3.48039 0
M  V30 713 C 66.4536 3.78148 -3.76616 0
M  V30 714 O 66.6766 4.80722 -3.07022 0
M  V30 715 O 65.6106 3.75857 -4.70123 0
M  V30 716 H 69.4366 1.0083 -2.86474 0
M  V30 717 H 67.0216 0.433547 -1.42971 0
M  V30 718 H 68.9036 3.42633 -2.45318 0
M  V30 719 H 67.5786 2.9364 -1.36225 0
M  V30 720 H 66.4856 1.709 -3.32782 0
M  V30 721 H 67.8186 2.26601 -4.36936 0
M  V30 722 N 69.4707 1.49531 0.497807 0
M  V30 723 C 70.4027 1.62559 1.61578 0
M  V30 724 C 71.4157 0.508134 1.54667 0
M  V30 725 O 72.6047 0.780309 1.60541 0
M  V30 726 C 69.7047 1.56925 3.00379 0
M  V30 727 C 68.8777 2.84257 3.3244 0
M  V30 728 C 67.9367 2.71632 4.50669 0
M  V30 729 O 66.9627 3.4557 4.52294 0
M  V30 730 N 68.1647 1.83391 5.5077 0
M  V30 731 H 70.9297 2.58981 1.50828 0
M  V30 732 H 68.4907 1.4666 0.685743 0
M  V30 733 H 70.4827 1.46129 3.77397 0
M  V30 734 H 69.0527 0.683483 3.05037 0
M  V30 735 H 68.2727 3.09381 2.44289 0
M  V30 736 H 69.5607 3.68666 3.5066 0
M  V30 737 H 68.9587 1.22583 5.52259 0
M  V30 738 H 67.5157 1.78515 6.26878 0
M  V30 739 N 70.9488 -0.749086 1.3866 0
M  V30 740 C 71.9118 -1.84457 1.36045 0
M  V30 741 C 72.9118 -1.58682 0.260122 0
M  V30 742 O 74.1018 -1.66343 0.517261 0
M  V30 743 C 71.2338 -3.22008 1.11911 0
M  V30 744 H 72.4268 -1.88182 2.33512 0
M  V30 745 H 69.9798 -0.951266 1.24019 0
M  V30 746 H 70.7148 -3.2395 0.150686 0
M  V30 747 H 70.4998 -3.42111 1.91579 0
M  V30 748 H 71.9898 -4.0208 1.12788 0
M  V30 749 N 72.4269 -1.23603 -0.977757 0
M  V30 750 C 73.3739 -1.01954 -2.07061 0
M  V30 751 C 74.3439 0.0638697 -1.65977 0
M  V30 752 O 75.5289 -0.0887624 -1.90593 0
M  V30 753 C 72.6689 -0.619658 -3.39491 0
M  V30 754 C 71.7819 -1.77547 -3.93829 0
M  V30 755 C 70.9169 -1.32212 -5.14484 0
M  V30 756 C 69.9559 -2.44852 -5.60994 0
M  V30 757 N 69.0929 -2.00456 -6.72876 0
M  V30 758 H 73.9329 -1.95495 -2.24913 0
M  V30 759 H 71.4699 -0.973861 -1.10247 0
M  V30 760 H 73.4279 -0.368898 -4.15566 0
M  V30 761 H 72.0579 0.278752 -3.21594 0
M  V30 762 H 71.1099 -2.14016 -3.14486 0
M  V30 763 H 72.4219 -2.62219 -4.24314 0
M  V30 764 H 71.5759 -1.02965 -5.97899 0
M  V30 765 H 70.3149 -0.445808 -4.85658 0
M  V30 766 H 69.3199 -2.74871 -4.76157 0
M  V30 767 H 70.5449 -3.33024 -5.91837 0
M  V30 768 H 68.4909 -1.15208 -6.45804 0
M  V30 769 H 68.4079 -2.78687 -7.02759 0
M  V30 770 H 69.6759 -1.7432 -7.59758 0
M  V30 771 N 73.905 1.17692 -1.04816 0
M  V30 772 C 75.151 1.88137 -0.75711 0
M  V30 773 C 75.484 1.80604 0.713841 0
M  V30 774 O 74.759 1.21146 1.52164 0
M  V30 775 C 75.042 3.38318 -1.2334 0
M  V30 776 C 74.895 3.54622 -2.76701 0
M  V30 777 C 76.214 4.32214 -0.829415 0
M  V30 778 H 73.333 0.683163 -0.27651 0
M  V30 779 H 75.975 1.38424 -1.30149 0
M  V30 780 H 74.125 3.80787 -0.770286 0
M  V30 781 H 75.797 3.21194 -3.31107 0
M  V30 782 H 74.04 2.97026 -3.16161 0
M  V30 783 H 74.711 4.60028 -3.05088 0
M  V30 784 H 77.187 3.97565 -1.22805 0
M  V30 785 H 76.063 5.35838 -1.19033 0
M  V30 786 H 76.324 4.41294 0.266891 0
M  V30 787 N 75.3831 0.828654 1.34056 0
M  V30 788 C 76.2931 0.256725 2.33191 0
M  V30 789 C 77.3091 -0.611898 1.62886 0
M  V30 790 O 78.4851 -0.51844 1.94613 0
M  V30 791 C 75.5501 -0.567238 3.42028 0
M  V30 792 C 74.6111 0.324458 4.28072 0
M  V30 793 C 73.8441 -0.460274 5.31712 0
M  V30 794 O 74.0671 -1.693 5.44696 0
M  V30 795 O 73.0011 0.160391 6.01686 0
M  V30 796 H 76.8271 1.07739 2.83947 0
M  V30 797 H 74.4121 0.59093 1.37217 0
M  V30 798 H 76.2941 -1.03582 4.08471 0
M  V30 799 H 74.9691 -1.36513 2.93506 0
M  V30 800 H 73.8761 0.840659 3.64532 0
M  V30 801 H 75.2091 1.08685 4.8005 0
M  V30 802 N 76.8612 -1.46375 0.584142 0
M  V30 803 C 77.7712 -2.34115 -0.150728 0
M  V30 804 C 78.7872 -1.49838 -0.884567 0
M  V30 805 O 79.9632 -1.82704 -0.847429 0
M  V30 806 C 77.0282 -3.2705 -1.15062 0
M  V30 807 C 76.0892 -4.27228 -0.421293 0
M  V30 808 C 75.3222 -5.15722 -1.37355 0
M  V30 809 O 75.5452 -5.07176 -2.61014 0
M  V30 810 O 74.4792 -5.95383 -0.883355 0
M  V30 811 H 78.3052 -2.98309 0.569708 0
M  V30 812 H 75.8902 -1.45373 0.344535 0
M  V30 813 H 77.7722 -3.84381 -1.72712 0
M  V30 814 H 76.4472 -2.65451 -1.8525 0
M  V30 815 H 75.3542 -3.7358 0.197085 0
M  V30 816 H 76.6872 -4.91616 0.239641 0
M  V30 817 N 78.3393 -0.321999 -1.54275 0
M  V30 818 C 79.2863 0.544664 -2.24281 0
M  V30 819 C 80.2563 1.1129 -1.23303 0
M  V30 820 O 81.4413 1.15354 -1.51981 0
M  V30 821 C 78.5813 1.70045 -3.00298 0
M  V30 822 C 77.6943 1.16159 -4.1609 0
M  V30 823 C 76.8293 2.28293 -4.79641 0
M  V30 824 C 75.8683 1.71648 -5.8754 0
M  V30 825 N 75.0053 2.77438 -6.44959 0
M  V30 826 H 79.8453 -0.0588907 -2.97942 0
M  V30 827 H 77.3823 -0.0408345 -1.47043 0
M  V30 828 H 79.3403 2.38054 -3.42616 0
M  V30 829 H 77.9703 2.27531 -2.28975 0
M  V30 830 H 77.0223 0.373092 -3.78566 0
M  V30 831 H 78.3343 0.707087 -4.93763 0
M  V30 832 H 77.4883 3.0421 -5.2492 0
M  V30 833 H 76.2273 2.77079 -4.01346 0
M  V30 834 H 75.2323 0.942282 -5.41665 0
M  V30 835 H 76.4573 1.23741 -6.67731 0
M  V30 836 H 74.4033 3.25519 -5.69538 0
M  V30 837 H 74.3203 2.36547 -7.1804 0
M  V30 838 H 75.5883 3.53189 -6.94894 0
M  V30 839 N 79.8174 1.5752 -0.0501392 0
M  V30 840 C 81.0664 1.91827 0.623328 0
M  V30 841 C 81.3794 0.930222 1.72065 0
M  V30 842 O 82.5854 1.1653 2.4522 0
M  V30 843 C 81.0414 3.40692 1.16003 0
M  V30 844 C 80.6494 4.479 0.0948811 0
M  V30 845 C 82.3934 3.84034 1.80881 0
M  V30 846 C 80.3004 5.87879 0.644411 0
M  V30 847 H 79.2304 0.715918 0.236596 0
M  V30 848 H 81.8814 1.83115 -0.118861 0
M  V30 849 H 80.2634 3.44405 1.9545 0
M  V30 850 H 81.4374 4.55775 -0.678675 0
M  V30 851 H 79.7524 4.13892 -0.45637 0
M  V30 852 H 82.3494 4.85984 2.22988 0
M  V30 853 H 82.6924 3.20225 2.6601 0
M  V30 854 H 83.2254 3.82833 1.0809 0
M  V30 855 H 79.9644 6.55282 -0.169229 0
M  V30 856 H 79.4844 5.83567 1.38598 0
M  V30 857 H 81.1634 6.37098 1.12763 0
M  V30 858 N 81.2955 -0.223234 1.56011 0
M  V30 859 C 82.2275 -1.30006 1.88762 0
M  V30 860 C 83.2405 -1.43129 0.775746 0
M  V30 861 O 84.4295 -1.44057 1.05403 0
M  V30 862 C 81.5295 -2.67589 2.07965 0
M  V30 863 C 80.7025 -2.76434 3.38973 0
M  V30 864 C 79.7615 -3.95019 3.47629 0
M  V30 865 O 78.7875 -3.83436 4.20672 0
M  V30 866 N 79.9895 -5.09249 2.78649 0
M  V30 867 H 82.7545 -1.02238 2.81722 0
M  V30 868 H 80.3155 -0.413278 1.56536 0
M  V30 869 H 82.3075 -3.45297 2.11073 0
M  V30 870 H 80.8775 -2.87964 1.21638 0
M  V30 871 H 80.0975 -1.85216 3.47978 0
M  V30 872 H 81.3855 -2.79313 4.25278 0
M  V30 873 H 80.7835 -5.21556 2.19081 0
M  V30 874 H 79.3405 -5.85007 2.8742 0
M  V30 875 N 82.7736 -1.49793 -0.48987 0
M  V30 876 C 83.6836 -1.70036 -1.61632 0
M  V30 877 C 84.6996 -0.583102 -1.63939 0
M  V30 878 O 85.8756 -0.859169 -1.82154 0
M  V30 879 C 82.9406 -1.77277 -2.97949 0
M  V30 880 C 82.0016 -3.00918 -3.06181 0
M  V30 881 C 81.2346 -3.07804 -4.35996 0
M  V30 882 O 81.4576 -2.21982 -5.25433 0
M  V30 883 O 80.3916 -4.00369 -4.49431 0
M  V30 884 H 84.2176 -2.65486 -1.47482 0
M  V30 885 H 81.8026 -1.33666 -0.667362 0
M  V30 886 H 83.6846 -1.84329 -3.78947 0
M  V30 887 H 82.3596 -0.850076 -3.12339 0
M  V30 888 H 81.2666 -2.99377 -2.2433 0
M  V30 889 H 82.5996 -3.92704 -2.96723 0
M  V30 890 N 84.2517 0.741722 -1.39055 0
M  V30 891 C 85.4977 1.50336 -1.36113 0
M  V30 892 C 85.8307 1.94148 0.0450796 0
M  V30 893 O 85.1057 1.66301 1.00868 0
M  V30 894 C 85.3887 2.74773 -2.32749 0
M  V30 895 C 85.2417 2.37023 -3.82283 0
M  V30 896 C 86.5607 3.76846 -2.27322 0
M  V30 897 H 83.6797 0.545351 -0.495743 0
M  V30 898 H 86.3217 0.848624 -1.69995 0
M  V30 899 H 84.4717 3.30639 -2.03986 0
M  V30 900 H 86.1437 1.8684 -4.21768 0
M  V30 901 H 84.3867 1.69334 -3.99385 0
M  V30 902 H 85.0577 3.26104 -4.45376 0
M  V30 903 H 87.5337 3.30548 -2.5274 0
M  V30 904 H 86.4097 4.6159 -2.97028 0
M  V30 905 H 86.6707 4.23286 -1.27599 0
M  V30 906 N 85.7298 1.2412 0.971189 0
M  V30 907 C 86.9768 1.07881 1.71371 0
M  V30 908 C 87.3048 -0.382901 1.90694 0
M  V30 909 O 86.5598 -1.29945 1.46331 0
M  V30 910 C 86.8588 1.75983 3.11071 0
M  V30 911 C 86.5248 3.25909 3.11599 0
M  V30 912 C 85.1868 3.66813 3.11451 0
M  V30 913 C 87.5388 4.21771 3.062 0
M  V30 914 C 84.8668 5.02021 3.03631 0
M  V30 915 C 87.2188 5.56982 2.99923 0
M  V30 916 C 85.8828 5.97237 2.98102 0
M  V30 917 H 85.1528 0.394764 0.62709 0
M  V30 918 H 87.7998 1.54176 1.13587 0
M  V30 919 H 86.1048 1.22072 3.72298 0
M  V30 920 H 87.8018 1.60887 3.6731 0
M  V30 921 H 84.3918 2.93353 3.12477 0
M  V30 922 H 88.5758 3.91172 3.05447 0
M  V30 923 H 83.8318 5.32411 3.0058 0
M  V30 924 H 88.0058 6.30969 2.94704 0
M  V30 925 H 85.6328 7.01967 2.91798 0
M  V30 926 N 87.2079 -1.17134 1.05439 0
M  V30 927 C 88.4329 -1.91913 0.786396 0
M  V30 928 C 88.8579 -1.7643 -0.652234 0
M  V30 929 O 88.2159 -1.08372 -1.45345 0
M  V30 930 C 88.2639 -3.40921 1.17497 0
M  V30 931 O 87.3679 -4.11244 0.308589 0
M  V30 932 H 86.7089 -0.598215 0.288158 0
M  V30 933 H 89.2389 -1.48457 1.4079 0
M  V30 934 H 89.2489 -3.91668 1.14281 0
M  V30 935 H 87.9239 -3.5151 2.22292 0
M  V30 936 H 86.5009 -3.70731 0.40157 0
M  V30 937 N 88.686 -0.835752 -1.33615 0
M  V30 938 C 89.911 -0.442389 -2.02627 0
M  V30 939 C 90.336 0.947735 -1.62479 0
M  V30 940 O 89.694 1.61907 -0.815826 0
M  V30 941 C 89.742 -0.567216 -3.56111 0
M  V30 942 O 88.846 0.407799 -4.10379 0
M  V30 943 H 88.187 -0.180278 -0.639059 0
M  V30 944 H 90.717 -1.12972 -1.70583 0
M  V30 945 H 90.727 -0.447708 -4.05536 0
M  V30 946 H 89.402 -1.58103 -3.84677 0
M  V30 947 H 87.979 0.246107 -3.72087 0
M  V30 948 N 90.1641 1.46063 -0.591896 0
M  V30 949 C 91.3941 2.06418 -0.0867676 0
M  V30 950 C 91.8021 1.43975 1.22751 0
M  V30 951 O 91.1451 0.542531 1.75506 0
M  V30 952 C 91.2071 3.59213 0.143725 0
M  V30 953 C 90.8711 4.439 -1.08635 0
M  V30 954 C 91.8681 4.79864 -2.00067 0
M  V30 955 C 89.5531 4.84896 -1.31077 0
M  V30 956 C 91.5471 5.55661 -3.12282 0
M  V30 957 C 89.2341 5.6045 -2.43596 0
M  V30 958 C 90.2321 5.95747 -3.34027 0
M  V30 959 O 89.9201 6.69772 -4.4459 0
M  V30 960 H 89.6521 0.673443 -0.0587447 0
M  V30 961 H 92.2061 1.88539 -0.814994 0
M  V30 962 H 90.4361 3.75433 0.926668 0
M  V30 963 H 92.1251 4.01463 0.5985 0
M  V30 964 H 92.8911 4.48763 -1.83947 0
M  V30 965 H 88.7701 4.56867 -0.61594 0
M  V30 966 H 92.3141 5.8313 -3.82891 0
M  V30 967 H 88.2111 5.90965 -2.59674 0
M  V30 968 H 88.9791 6.88207 -4.43073 0
M  V30 969 N 91.6422 0.330177 1.54103 0
M  V30 970 C 92.5892 -0.532762 2.24567 0
M  V30 971 C 93.5592 -1.10635 1.23892 0
M  V30 972 O 94.7442 -1.14546 1.5259 0
M  V30 973 C 91.8842 -1.6845 3.01195 0
M  V30 974 C 90.9972 -1.13951 4.167 0
M  V30 975 C 90.1322 -2.25746 4.80845 0
M  V30 976 C 89.1712 -1.6853 5.88442 0
M  V30 977 N 88.3082 -2.74014 6.46421 0
M  V30 978 H 93.1482 0.0746905 2.97906 0
M  V30 979 H 90.6852 0.048632 1.4702 0
M  V30 980 H 92.6432 -2.36234 3.43874 0
M  V30 981 H 91.2732 -2.26314 2.30178 0
M  V30 982 H 90.3252 -0.35301 3.78758 0
M  V30 983 H 91.6372 -0.680892 4.94131 0
M  V30 984 H 90.7912 -3.01422 5.26526 0
M  V30 985 H 89.5302 -2.74947 4.0281 0
M  V30 986 H 88.5352 -0.913543 5.42157 0
M  V30 987 H 89.7602 -1.20198 6.68378 0
M  V30 988 H 87.7062 -3.22494 5.71256 0
M  V30 989 H 87.6232 -2.32735 7.19285 0
M  V30 990 H 88.8912 -3.49499 6.96757 0
M  V30 991 N 93.1203 -1.57491 0.0584922 0
M  V30 992 C 94.3673 -1.92978 -0.613648 0
M  V30 993 C 94.6953 -0.937461 -1.70417 0
M  V30 994 O 93.9503 0.049078 -1.95638 0
M  V30 995 C 94.2493 -3.3513 -1.24188 0
M  V30 996 C 93.9153 -4.50037 -0.278826 0
M  V30 997 C 92.5773 -4.81198 -0.0138447 0
M  V30 998 C 94.9293 -5.19807 0.380777 0
M  V30 999 C 92.2573 -5.79473 0.918052 0
M  V30 1000 C 94.6093 -6.19079 1.30091 0
M  V30 1001 C 93.2733 -6.48665 1.57449 0
M  V30 1002 H 92.5433 -0.706157 -0.22455 0
M  V30 1003 H 95.1903 -1.91082 0.126533 0
M  V30 1004 H 93.4953 -3.33429 -2.05749 0
M  V30 1005 H 95.1923 -3.59871 -1.769 0
M  V30 1006 H 91.7823 -4.25726 -0.495539 0
M  V30 1007 H 95.9663 -4.95939 0.189158 0
M  V30 1008 H 91.2223 -6.00727 1.1374 0
M  V30 1009 H 95.3963 -6.7225 1.81804 0
M  V30 1010 H 93.0233 -7.24628 2.29822 0
M  V30 1011 N 94.5984 0.214957 -1.56127 0
M  V30 1012 C 95.5464 1.28601 -1.93816 0
M  V30 1013 C 96.5404 1.48175 -0.821016 0
M  V30 1014 O 97.7464 1.49271 -1.0059 0
M  V30 1015 H 94.1214 0.431302 -0.616022 0
M  V30 1016 H 96.0924 0.940991 -2.83175 0
M  V30 1017 C 94.8414 2.62779 -2.27689 0
M  V30 1018 H 94.1644 2.48527 -3.13168 0
M  V30 1019 H 95.6044 3.36517 -2.57939 0
M  V30 1020 C 94.0634 3.18285 -1.10436 0
M  V30 1021 O 94.5934 4.00002 -0.368945 0
M  V30 1022 N 92.7994 2.7675 -0.886433 0
M  V30 1023 H 92.3464 2.10404 -1.48619 0
M  V30 1024 H 92.3044 3.14229 -0.103656 0
M  V30 1025 N 96.0765 1.50051 0.48192 0
M  V30 1026 C 97.0265 1.64512 1.5786 0
M  V30 1027 C 98.0105 0.500073 1.52932 0
M  V30 1028 O 99.2025 0.753964 1.60139 0
M  V30 1029 C 96.3315 1.73263 2.9637 0
M  V30 1030 C 95.4175 2.93409 3.06222 0
M  V30 1031 N 95.8085 4.17236 2.85915 0
M  V30 1032 C 94.1065 2.91742 3.37346 0
M  V30 1033 C 94.8075 4.981 3.00451 0
M  V30 1034 N 93.7835 4.3184 3.30174 0
M  V30 1035 H 97.5855 2.57955 1.40842 0
M  V30 1036 H 95.0995 1.47086 0.688439 0
M  V30 1037 H 97.0965 1.81724 3.75209 0
M  V30 1038 H 95.7565 0.809711 3.14442 0
M  V30 1039 H 96.7675 4.46909 2.6171 0
M  V30 1040 H 93.4445 2.08907 3.61475 0
M  V30 1041 H 94.8345 6.06532 2.89082 0
M  V30 1042 N 97.5546 -0.734337 1.39446 0
M  V30 1043 C 98.4846 -1.86155 1.40955 0
M  V30 1044 C 99.4656 -1.67898 0.272827 0
M  V30 1045 O 100.651 -1.88207 0.478743 0
M  V30 1046 C 97.7806 -3.23912 1.25294 0
M  V30 1047 C 96.7346 -3.56808 2.36373 0
M  V30 1048 C 96.0606 -4.93508 2.058 0
M  V30 1049 C 97.3606 -3.59713 3.78687 0
M  V30 1050 H 99.0546 -1.8515 2.35287 0
M  V30 1051 H 96.6006 -0.889367 1.13253 0
M  V30 1052 H 98.5536 -4.02443 1.2497 0
M  V30 1053 H 97.2776 -3.25446 0.274308 0
M  V30 1054 H 95.9366 -2.80606 2.35914 0
M  V30 1055 H 95.5846 -4.91623 1.06374 0
M  V30 1056 H 95.2846 -5.16486 2.80208 0
M  V30 1057 H 96.8086 -5.74396 2.07128 0
M  V30 1058 H 98.2226 -4.2832 3.81071 0
M  V30 1059 H 96.6196 -3.94209 4.52459 0
M  V30 1060 H 97.6896 -2.59504 4.09617 0
M  V30 1061 N 99.0327 -1.24633 -0.964593 0
M  V30 1062 C 100.279 -1.08949 -1.71049 0
M  V30 1063 C 100.612 0.370302 -1.90637 0
M  V30 1064 O 99.8867 1.27349 -1.47011 0
M  V30 1065 C 100.17 -1.83329 -3.0994 0
M  V30 1066 C 100.023 -3.37077 -2.97824 0
M  V30 1067 C 101.342 -1.60846 -4.09654 0
M  V30 1068 H 98.4607 -0.397178 -0.620821 0
M  V30 1069 H 101.103 -1.5334 -1.12191 0
M  V30 1070 H 99.2527 -1.45597 -3.60186 0
M  V30 1071 H 100.925 -3.84425 -2.5498 0
M  V30 1072 H 99.1677 -3.65298 -2.33965 0
M  V30 1073 H 99.8387 -3.84324 -3.96231 0
M  V30 1074 H 102.315 -1.93674 -3.68279 0
M  V30 1075 H 101.191 -2.1534 -5.04896 0
M  V30 1076 H 101.452 -0.547434 -4.38698 0
M  V30 1077 N 100.511 1.16574 -1.06058 0
M  V30 1078 C 101.922 1.68662 -0.800632 0
M  V30 1079 C 102.273 1.84184 0.67608 0
M  V30 1080 O 101.398 1.53568 1.52466 0
M  V30 1081 C 101.993 3.06356 -1.44676 0
M  V30 1082 C 100.552 3.55575 -1.23465 0
M  V30 1083 C 99.6988 2.31616 -1.52477 0
M  V30 1084 H 102.65 1.00969 -1.22438 0
M  V30 1085 H 102.671 3.70636 -0.860788 0
M  V30 1086 H 102.183 2.95027 -2.52152 0
M  V30 1087 H 100.284 3.72167 -0.179527 0
M  V30 1088 H 100.397 4.37812 -1.94571 0
M  V30 1089 H 98.7608 2.36512 -0.945209 0
M  V30 1090 H 99.5438 2.22887 -2.61106 0
M  V30 1091 N 101.989 0.842826 1.3317 0
M  V30 1092 C 103.405 0.531128 1.50503 0
M  V30 1093 C 103.605 -0.940734 1.78192 0
M  V30 1094 O 102.661 -1.72436 1.84451 0
M  V30 1095 C 103.974 1.40789 2.65705 0
M  V30 1096 C 105.522 1.40708 2.79589 0
M  V30 1097 C 105.997 2.26878 3.97857 0
M  V30 1098 N 107.488 2.24609 4.05099 0
M  V30 1099 C 108.223 2.88019 4.95815 0
M  V30 1100 N 107.719 3.60496 5.9162 0
M  V30 1101 N 109.512 2.77469 4.88843 0
M  V30 1102 H 101.663 1.79557 1.1346 0
M  V30 1103 H 103.926 0.766267 0.558156 0
M  V30 1104 H 103.632 2.454 2.51936 0
M  V30 1105 H 103.506 1.08677 3.61205 0
M  V30 1106 H 105.893 0.368668 2.92788 0
M  V30 1107 H 105.974 1.76829 1.84838 0
M  V30 1108 H 105.618 3.3078 3.85418 0
M  V30 1109 H 105.548 1.88096 4.91861 0
M  V30 1110 H 108.039 1.71906 3.36536 0
M  V30 1111 H 108.352 4.06076 6.57512 0
M  V30 1112 H 106.697 3.64604 5.91683 0
M  V30 1113 H 109.888 2.20406 4.12963 0
M  V30 1114 H 110.061 3.2717 5.59342 0
M  V30 1115 N 103.467 -1.45747 0.599634 0
M  V30 1116 C 104.397 -2.33235 -0.111306 0
M  V30 1117 C 105.378 -1.46359 -0.866781 0
M  V30 1118 O 106.563 -1.75146 -0.838904 0
M  V30 1119 C 103.693 -3.28932 -1.11451 0
M  V30 1120 C 102.647 -4.25381 -0.472772 0
M  V30 1121 C 101.973 -5.1071 -1.58365 0
M  V30 1122 C 103.273 -5.18831 0.600948 0
M  V30 1123 H 104.967 -2.92927 0.61919 0
M  V30 1124 H 102.513 -1.40857 0.299215 0
M  V30 1125 H 104.466 -3.89002 -1.62036 0
M  V30 1126 H 103.19 -2.67381 -1.8755 0
M  V30 1127 H 101.849 -3.66598 0.0121472 0
M  V30 1128 H 101.497 -4.45533 -2.33473 0
M  V30 1129 H 101.197 -5.7604 -1.15982 0
M  V30 1130 H 102.721 -5.73647 -2.09194 0
M  V30 1131 H 104.135 -5.73019 0.179491 0
M  V30 1132 H 102.532 -5.92595 0.946076 0
M  V30 1133 H 103.602 -4.6174 1.48068 0
M  V30 1134 N 104.945 -0.338344 -1.53925 0
M  V30 1135 C 106.191 0.260143 -2.01125 0
M  V30 1136 C 106.524 1.50617 -1.22589 0
M  V30 1137 O 105.799 1.91979 -0.312113 0
M  V30 1138 C 106.082 0.579499 -3.55407 0
M  V30 1139 C 105.935 -0.678264 -4.44657 0
M  V30 1140 C 107.254 1.39122 -4.17532 0
M  V30 1141 H 104.373 0.0930772 -0.731099 0
M  V30 1142 H 107.015 -0.457852 -1.84401 0
M  V30 1143 H 105.165 1.19118 -3.69788 0
M  V30 1144 H 106.837 -1.31631 -4.42121 0
M  V30 1145 H 105.08 -1.3042 -4.13731 0
M  V30 1146 H 105.751 -0.410143 -5.50474 0
M  V30 1147 H 108.227 0.874035 -4.06817 0
M  V30 1148 H 107.103 1.58342 -5.25565 0
M  V30 1149 H 107.364 2.39178 -3.71815 0
M  V30 1150 N 106.423 1.57458 -0.0668435 0
M  V30 1151 C 107.353 2.15468 0.899764 0
M  V30 1152 C 108.334 1.08042 1.31381 0
M  V30 1153 O 109.519 1.36054 1.38574 0
M  V30 1154 C 106.649 2.71232 2.16911 0
M  V30 1155 C 105.603 3.83781 1.89463 0
M  V30 1156 C 104.929 4.26127 3.22986 0
M  V30 1157 C 106.229 5.08238 1.20381 0
M  V30 1158 H 107.923 2.96488 0.416529 0
M  V30 1159 H 105.469 1.4262 0.198908 0
M  V30 1160 H 107.422 3.10458 2.84945 0
M  V30 1161 H 106.146 1.87426 2.67468 0
M  V30 1162 H 104.805 3.45051 1.23836 0
M  V30 1163 H 104.453 3.39249 3.71374 0
M  V30 1164 H 104.153 5.01993 3.05413 0
M  V30 1165 H 105.677 4.67966 3.92225 0
M  V30 1166 H 107.091 5.44811 1.78475 0
M  V30 1167 H 105.488 5.89349 1.13083 0
M  V30 1168 H 106.558 4.84558 0.182153 0
M  V30 1169 N 107.901 -0.206675 1.56239 0
M  V30 1170 C 108.833 -1.27997 1.9013 0
M  V30 1171 C 109.846 -1.42299 0.790883 0
M  V30 1172 O 111.035 -1.42931 1.06925 0
M  V30 1173 C 108.135 -2.65368 2.10792 0
M  V30 1174 C 107.308 -2.72824 3.41886 0
M  V30 1175 C 106.367 -3.9131 3.51799 0
M  V30 1176 O 105.393 -3.78953 4.24716 0
M  V30 1177 N 106.595 -5.06265 2.84035 0
M  V30 1178 H 109.36 -0.992444 2.82791 0
M  V30 1179 H 106.921 -0.396652 1.56966 0
M  V30 1180 H 108.913 -3.43039 2.14724 0
M  V30 1181 H 107.483 -2.86657 1.24685 0
M  V30 1182 H 106.703 -1.81515 3.49923 0
M  V30 1183 H 107.991 -2.74786 4.28217 0
M  V30 1184 H 107.389 -5.19203 2.246 0
M  V30 1185 H 105.946 -5.81925 2.93609 0
M  V30 1186 N 109.379 -1.50304 -0.473955 0
M  V30 1187 C 110.795 -1.37667 -0.807466 0
M  V30 1188 C 110.995 -0.430555 -1.96846 0
M  V30 1189 O 110.051 0.127874 -2.52176 0
M  V30 1190 C 111.364 -2.78974 -1.12223 0
M  V30 1191 C 112.912 -2.87868 -1.22885 0
M  V30 1192 C 113.387 -4.30003 -1.57676 0
M  V30 1193 N 114.878 -4.3294 -1.64673 0
M  V30 1194 C 115.613 -5.3991 -1.93091 0
M  V30 1195 N 115.109 -6.57092 -2.1955 0
M  V30 1196 N 116.902 -5.27351 -1.94569 0
M  V30 1197 H 109.053 -2.10394 0.291212 0
M  V30 1198 H 111.316 -0.945575 0.0677609 0
M  V30 1199 H 111.022 -3.50031 -0.342229 0
M  V30 1200 H 110.896 -3.16038 -2.05913 0
M  V30 1201 H 113.283 -2.17032 -1.99953 0
M  V30 1202 H 113.364 -2.54352 -0.271814 0
M  V30 1203 H 113.008 -5.01375 -0.81149 0
M  V30 1204 H 112.938 -4.61004 -2.54525 0
M  V30 1205 H 115.429 -3.48441 -1.46277 0
M  V30 1206 H 115.742 -7.34425 -2.405 0
M  V30 1207 H 114.087 -6.60272 -2.16948 0
M  V30 1208 H 117.278 -4.34801 -1.73394 0
M  V30 1209 H 117.451 -6.10805 -2.16381 0
M  V30 1210 N 110.857 0.726932 -1.39834 0
M  V30 1211 C 111.767 1.87131 -1.41489 0
M  V30 1212 C 112.783 1.71239 -0.308757 0
M  V30 1213 O 113.959 1.93701 -0.551529 0
M  V30 1214 C 111.024 3.22811 -1.26468 0
M  V30 1215 C 110.085 3.51039 -2.47124 0
M  V30 1216 C 109.318 4.80245 -2.3281 0
M  V30 1217 O 109.541 5.54537 -1.33585 0
M  V30 1218 O 108.475 5.08554 -3.21957 0
M  V30 1219 H 112.301 1.8869 -2.3797 0
M  V30 1220 H 109.886 0.875837 -1.21035 0
M  V30 1221 H 111.768 4.03877 -1.20255 0
M  V30 1222 H 110.443 3.22005 -0.330862 0
M  V30 1223 H 109.35 2.70027 -2.58914 0
M  V30 1224 H 110.683 3.56632 -3.39227 0
M  V30 1225 N 112.336 1.25143 0.95797 0
M  V30 1226 C 113.283 1.05235 2.05412 0
M  V30 1227 C 114.253 -0.0374561 1.66058 0
M  V30 1228 O 115.438 0.119073 1.90428 0
M  V30 1229 C 112.578 0.673589 3.38462 0
M  V30 1230 C 111.691 1.8379 3.90954 0
M  V30 1231 C 110.826 1.40381 5.12315 0
M  V30 1232 C 109.865 2.53746 5.57027 0
M  V30 1233 N 109.002 2.11136 6.69601 0
M  V30 1234 H 113.842 1.99048 2.21774 0
M  V30 1235 H 111.379 0.991277 1.08683 0
M  V30 1236 H 113.337 0.434964 4.14926 0
M  V30 1237 H 111.967 -0.227554 3.21997 0
M  V30 1238 H 111.019 2.18992 3.11041 0
M  V30 1239 H 112.331 2.68937 4.20089 0
M  V30 1240 H 111.485 1.12464 5.96185 0
M  V30 1241 H 110.224 0.523015 4.84887 0
M  V30 1242 H 109.229 2.82412 4.71724 0
M  V30 1243 H 110.454 3.42398 5.86464 0
M  V30 1244 H 108.4 1.25468 6.4389 0
M  V30 1245 H 108.317 2.89832 6.98236 0
M  V30 1246 H 109.585 1.86385 7.56889 0
M  V30 1247 N 113.814 -1.1601 1.06675 0
M  V30 1248 C 114.764 -2.18512 0.650888 0
M  V30 1249 C 115.748 -1.57677 -0.320441 0
M  V30 1250 O 116.94 -1.76482 -0.135266 0
M  V30 1251 C 114.069 -3.43273 0.0429255 0
M  V30 1252 C 113.155 -4.11176 1.03898 0
M  V30 1253 N 113.546 -4.54672 2.216 0
M  V30 1254 C 111.844 -4.37417 0.870779 0
M  V30 1255 C 112.545 -5.07248 2.84736 0
M  V30 1256 N 111.521 -5.0037 2.12441 0
M  V30 1257 H 115.323 -2.49863 1.54745 0
M  V30 1258 H 112.837 -1.32503 0.938975 0
M  V30 1259 H 114.834 -4.16006 -0.272857 0
M  V30 1260 H 113.494 -3.13408 -0.84884 0
M  V30 1261 H 114.505 -4.4828 2.59356 0
M  V30 1262 H 111.182 -4.17488 0.0313293 0
M  V30 1263 H 112.572 -5.50912 3.84636 0
M  V30 1264 N 115.292 -0.849877 -1.32721 0
M  V30 1265 C 116.539 -0.450923 -1.97416 0
M  V30 1266 C 116.867 0.992376 -1.67279 0
M  V30 1267 O 116.122 1.71048 -0.950845 0
M  V30 1268 C 116.421 -0.631272 -3.51781 0
M  V30 1269 C 116.087 -2.04432 -4.01894 0
M  V30 1270 C 114.749 -2.4308 -4.1529 0
M  V30 1271 C 117.101 -2.96679 -4.28522 0
M  V30 1272 C 114.429 -3.73257 -4.52654 0
M  V30 1273 C 116.781 -4.26349 -4.67343 0
M  V30 1274 C 115.445 -4.64939 -4.78945 0
M  V30 1275 H 114.715 -0.165004 -0.722395 0
M  V30 1276 H 117.362 -1.07901 -1.58207 0
M  V30 1277 H 115.667 0.0800767 -3.91718 0
M  V30 1278 H 117.364 -0.302709 -3.99856 0
M  V30 1279 H 113.954 -1.73419 -3.91949 0
M  V30 1280 H 118.138 -2.68054 -4.17685 0
M  V30 1281 H 113.394 -4.02946 -4.59831 0
M  V30 1282 H 117.568 -4.97895 -4.86902 0
M  V30 1283 H 115.195 -5.65855 -5.07654 0
M  V30 1284 N 116.77 1.45427 -0.607355 0
M  V30 1285 C 117.72 2.27612 0.133038 0
M  V30 1286 C 118.704 1.37307 0.838785 0
M  V30 1287 O 119.896 1.61299 0.728813 0
M  V30 1288 C 117.025 3.24173 1.12991 0
M  V30 1289 C 116.111 4.21965 0.425011 0
M  V30 1290 N 116.502 5.02982 -0.533217 0
M  V30 1291 C 114.8 4.40899 0.672593 0
M  V30 1292 C 115.501 5.73931 -0.947518 0
M  V30 1293 N 114.477 5.42819 -0.291321 0
M  V30 1294 H 118.279 2.87649 -0.602935 0
M  V30 1295 H 115.793 1.56576 -0.431006 0
M  V30 1296 H 117.79 3.81783 1.67473 0
M  V30 1297 H 116.45 2.65696 1.86644 0
M  V30 1298 H 117.461 5.09843 -0.90995 0
M  V30 1299 H 114.138 3.93547 1.39382 0
M  V30 1300 H 115.528 6.49037 -1.73782 0
M  V30 1301 N 118.248 0.346503 1.53744 0
M  V30 1302 C 119.478 -0.250047 2.05081 0
M  V30 1303 C 119.886 -1.44529 1.22098 0
M  V30 1304 O 119.229 -1.81992 0.249917 0
M  V30 1305 C 119.291 -0.725934 3.52094 0
M  V30 1306 C 118.955 0.350053 4.55657 0
M  V30 1307 C 119.952 1.19372 5.0601 0
M  V30 1308 C 117.637 0.504827 4.99757 0
M  V30 1309 C 119.631 2.17768 5.99046 0
M  V30 1310 C 117.318 1.49218 5.92602 0
M  V30 1311 C 118.316 2.32706 6.42135 0
M  V30 1312 O 118.004 3.2976 7.33153 0
M  V30 1313 H 117.736 -0.0515469 0.674032 0
M  V30 1314 H 120.29 0.497559 1.99282 0
M  V30 1315 H 118.52 -1.52483 3.55367 0
M  V30 1316 H 120.209 -1.24336 3.86388 0
M  V30 1317 H 120.975 1.08525 4.72702 0
M  V30 1318 H 116.854 -0.135178 4.60802 0
M  V30 1319 H 120.398 2.82971 6.37631 0
M  V30 1320 H 116.295 1.6012 6.25325 0
M  V30 1321 H 117.063 3.25265 7.51096 0
M  V30 1322 N 119.726 -1.57421 0.075193 0
M  V30 1323 C 120.656 -2.15942 -0.888324 0
M  V30 1324 C 121.637 -1.08737 -1.30806 0
M  V30 1325 O 122.822 -1.36787 -1.37851 0
M  V30 1326 C 119.952 -2.72379 -2.1547 0
M  V30 1327 C 118.906 -3.8478 -1.87425 0
M  V30 1328 C 118.232 -4.27834 -3.20721 0
M  V30 1329 C 119.532 -5.08869 -1.17684 0
M  V30 1330 H 121.226 -2.96705 -0.400799 0
M  V30 1331 H 118.772 -1.42723 -0.191342 0
M  V30 1332 H 120.725 -3.11965 -2.83295 0
M  V30 1333 H 119.449 -1.88841 -2.6647 0
M  V30 1334 H 118.108 -3.45703 -1.22004 0
M  V30 1335 H 117.756 -3.41214 -3.6957 0
M  V30 1336 H 117.456 -5.03605 -3.02746 0
M  V30 1337 H 118.98 -4.70039 -3.89738 0
M  V30 1338 H 120.394 -5.4575 -1.75584 0
M  V30 1339 H 118.791 -5.8994 -1.09956 0
M  V30 1340 H 119.861 -4.84648 -0.156453 0
M  V30 1341 N 121.204 0.198386 -1.56346 0
M  V30 1342 C 122.151 1.24589 -1.94284 0
M  V30 1343 C 123.121 1.454 -0.802997 0
M  V30 1344 O 124.306 1.58588 -1.06087 0
M  V30 1345 C 121.446 2.58631 -2.28482 0
M  V30 1346 C 120.559 2.45426 -3.55514 0
M  V30 1347 C 119.694 3.7215 -3.79049 0
M  V30 1348 C 118.733 3.53763 -4.99518 0
M  V30 1349 N 117.87 4.72491 -5.19323 0
M  V30 1350 H 122.71 0.915356 -2.83593 0
M  V30 1351 H 120.247 0.440629 -1.40346 0
M  V30 1352 H 122.205 3.3672 -2.46324 0
M  V30 1353 H 120.835 2.89734 -1.42317 0
M  V30 1354 H 119.887 1.58652 -3.45737 0
M  V30 1355 H 121.199 2.27772 -4.43758 0
M  V30 1356 H 120.353 4.58679 -3.97113 0
M  V30 1357 H 119.092 3.92754 -2.89129 0
M  V30 1358 H 118.097 2.65619 -4.8138 0
M  V30 1359 H 119.322 3.34607 -5.90944 0
M  V30 1360 H 117.268 4.93365 -4.3235 0
M  V30 1361 H 117.185 4.5765 -6.01741 0
M  V30 1362 H 118.453 5.6038 -5.41843 0
M  V30 1363 N 122.682 1.50554 0.465978 0
M  V30 1364 C 124.098 1.38093 0.800154 0
M  V30 1365 C 124.298 0.440988 1.96615 0
M  V30 1366 O 123.354 -0.114499 2.5224 0
M  V30 1367 C 124.667 2.79565 1.10742 0
M  V30 1368 C 126.215 2.88516 1.21357 0
M  V30 1369 C 126.69 4.30833 1.55393 0
M  V30 1370 N 128.181 4.33807 1.62375 0
M  V30 1371 C 128.916 5.40927 1.90225 0
M  V30 1372 N 128.412 6.58247 2.16062 0
M  V30 1373 N 130.205 5.28376 1.9177 0
M  V30 1374 H 122.356 2.10237 -0.302366 0
M  V30 1375 H 124.619 0.945203 -0.0727746 0
M  V30 1376 H 124.325 3.50208 0.323661 0
M  V30 1377 H 124.199 3.17125 2.04234 0
M  V30 1378 H 126.586 2.1809 1.98799 0
M  V30 1379 H 126.667 2.54492 0.258321 0
M  V30 1380 H 126.311 5.01799 0.784889 0
M  V30 1381 H 126.241 4.62347 2.52076 0
M  V30 1382 H 128.732 3.49212 1.44427 0
M  V30 1383 H 129.045 7.3569 2.36601 0
M  V30 1384 H 127.39 6.61413 2.13444 0
M  V30 1385 H 130.581 4.35715 1.71085 0
M  V30 1386 H 130.754 6.11944 2.13139 0
M  V30 1387 N 124.16 -0.719506 1.40217 0
M  V30 1388 C 125.408 -1.47641 1.3801 0
M  V30 1389 C 125.729 -1.94992 -0.018145 0
M  V30 1390 O 124.999 -1.70073 -0.972207 0
M  V30 1391 H 123.579 -0.547744 0.507923 0
M  V30 1392 H 126.241 -0.853187 1.75233 0
M  V30 1393 H 125.337 -2.35112 2.05253 0
M  V30 1394 N 125.638 -1.25649 -0.95132 0
M  V30 1395 C 126.568 -1.08808 -2.06599 0
M  V30 1396 C 127.549 0.00382547 -1.701 0
M  V30 1397 O 128.734 -0.166325 -1.93486 0
M  V30 1398 C 125.864 -0.709542 -3.39975 0
M  V30 1399 C 124.818 -1.75206 -3.90496 0
M  V30 1400 C 124.144 -1.22811 -5.20405 0
M  V30 1401 C 125.444 -3.15153 -4.16504 0
M  V30 1402 H 127.138 -2.02048 -2.20946 0
M  V30 1403 H 124.684 -0.972835 -1.06169 0
M  V30 1404 H 126.637 -0.578649 -4.17408 0
M  V30 1405 H 125.361 0.258556 -3.25575 0
M  V30 1406 H 124.02 -1.87145 -3.15234 0
M  V30 1407 H 123.668 -0.250145 -5.02378 0
M  V30 1408 H 123.368 -1.92492 -5.55176 0
M  V30 1409 H 124.892 -1.10968 -6.00432 0
M  V30 1410 H 126.306 -3.06349 -4.84586 0
M  V30 1411 H 124.703 -3.82333 -4.62538 0
M  V30 1412 H 125.773 -3.61966 -3.22658 0
M  V30 1413 N 127.117 1.15442 -1.07289 0
M  V30 1414 C 128.533 1.38201 -0.798288 0
M  V30 1415 C 128.733 1.92429 0.597769 0
M  V30 1416 O 127.789 2.12962 1.3566 0
M  V30 1417 C 129.102 2.35357 -1.87156 0
M  V30 1418 C 130.65 2.49021 -1.89624 0
M  V30 1419 C 131.125 3.49468 -2.96034 0
M  V30 1420 N 132.616 3.57003 -2.95132 0
M  V30 1421 C 133.351 4.34543 -3.74112 0
M  V30 1422 N 132.847 5.15421 -4.6294 0
M  V30 1423 N 134.64 4.29625 -3.62462 0
M  V30 1424 H 126.791 0.78584 -1.97328 0
M  V30 1425 H 129.054 0.408065 -0.855679 0
M  V30 1426 H 128.76 2.02626 -2.87464 0
M  V30 1427 H 128.634 3.35129 -1.73114 0
M  V30 1428 H 131.021 2.81051 -0.899687 0
M  V30 1429 H 131.102 1.4925 -2.07745 0
M  V30 1430 H 130.746 3.18173 -3.95889 0
M  V30 1431 H 130.676 4.48992 -2.75161 0
M  V30 1432 H 133.167 2.99276 -2.30743 0
M  V30 1433 H 133.48 5.7183 -5.19837 0
M  V30 1434 H 131.825 5.14729 -4.66989 0
M  V30 1435 H 135.016 3.65505 -2.92444 0
M  V30 1436 H 135.189 4.89807 -4.24256 0
M  V30 1437 N 128.595 0.856903 1.32268 0
M  V30 1438 C 129.527 0.260412 2.27716 0
M  V30 1439 C 130.54 -0.569137 1.52528 0
M  V30 1440 O 131.729 -0.39326 1.74114 0
M  V30 1441 C 128.829 -0.650477 3.32599 0
M  V30 1442 C 128.002 0.14372 4.37164 0
M  V30 1443 C 127.061 -0.69328 5.21613 0
M  V30 1444 O 126.087 -0.12599 5.69061 0
M  V30 1445 N 127.289 -2.00761 5.44679 0
M  V30 1446 H 130.054 1.08059 2.79541 0
M  V30 1447 H 127.615 0.717103 1.45152 0
M  V30 1448 H 129.607 -1.21581 3.86005 0
M  V30 1449 H 128.177 -1.37133 2.80915 0
M  V30 1450 H 127.397 0.890486 3.8401 0
M  V30 1451 H 128.685 0.68915 5.04111 0
M  V30 1452 H 128.083 -2.49181 5.07863 0
M  V30 1453 H 126.64 -2.52103 6.01072 0
M  V30 1454 N 130.073 -1.45103 0.615059 0
M  V30 1455 C 131.003 -2.33339 -0.0865619 0
M  V30 1456 C 131.984 -1.4727 -0.851209 0
M  V30 1457 O 133.169 -1.76026 -0.820281 0
M  V30 1458 C 130.299 -3.30095 -1.07956 0
M  V30 1459 C 129.253 -4.25858 -0.427628 0
M  V30 1460 C 128.579 -5.12361 -1.5294 0
M  V30 1461 C 129.879 -5.18165 0.655944 0
M  V30 1462 H 131.573 -2.92254 0.650224 0
M  V30 1463 H 129.119 -1.40532 0.314138 0
M  V30 1464 H 131.072 -3.90698 -1.57901 0
M  V30 1465 H 129.796 -2.69355 -1.84703 0
M  V30 1466 H 128.455 -3.66564 0.0510292 0
M  V30 1467 H 128.103 -4.47984 -2.28734 0
M  V30 1468 H 127.803 -5.77238 -1.09865 0
M  V30 1469 H 129.327 -5.75833 -2.03098 0
M  V30 1470 H 130.741 -5.72796 0.240257 0
M  V30 1471 H 129.138 -5.91559 1.00888 0
M  V30 1472 H 130.208 -4.60144 1.52957 0
M  V30 1473 N 131.551 -0.354651 -1.53558 0
M  V30 1474 C 132.779 0.239515 -2.05509 0
M  V30 1475 C 133.194 1.4333 -1.2289 0
M  V30 1476 O 132.551 1.80538 -0.266899 0
M  V30 1477 C 132.602 0.643719 -3.55723 0
M  V30 1478 O 132.323 -0.502602 -4.35207 0
M  V30 1479 C 133.824 1.29743 -4.23889 0
M  V30 1480 H 131.044 0.0442697 -0.669538 0
M  V30 1481 H 133.588 -0.509856 -1.98042 0
M  V30 1482 H 131.743 1.34302 -3.63376 0
M  V30 1483 H 132.157 -0.178172 -5.24197 0
M  V30 1484 H 133.631 1.53091 -5.30346 0
M  V30 1485 H 134.108 2.25441 -3.76926 0
M  V30 1486 H 134.714 0.639865 -4.20459 0
M  V30 1487 N 133.029 1.57378 -0.0835403 0
M  V30 1488 C 134.306 1.85363 0.624507 0
M  V30 1489 C 134.686 0.978239 1.87066 0
M  V30 1490 O 134.034 0.0475908 2.2845 0
M  V30 1491 C 134.244 3.35795 0.950947 0
M  V30 1492 C 135.592 4.03581 1.31939 0
M  V30 1493 O 136.616 3.40609 1.04232 0
M  V30 1494 O 135.475 5.14672 1.83779 0
M  V30 1495 H 132.569 0.766162 0.311329 0
M  V30 1496 H 135.115 1.69307 -0.115362 0
M  V30 1497 H 133.887 3.91244 0.0663899 0
M  V30 1498 H 133.51 3.57154 1.74719 0
M  V30 1499 N 134.507 -0.190092 1.56449 0
M  V30 1500 C 135.47 -1.21925 1.9408 0
M  V30 1501 C 136.47 -1.38176 0.822431 0
M  V30 1502 O 137.66 -1.35903 1.08977 0
M  V30 1503 C 134.792 -2.58773 2.21922 0
M  V30 1504 H 135.985 -0.897464 2.86157 0
M  V30 1505 H 133.538 -0.43181 1.50217 0
M  V30 1506 H 134.273 -2.95998 1.32499 0
M  V30 1507 H 134.058 -2.48348 3.03424 0
M  V30 1508 H 135.548 -3.32978 2.52022 0
M  V30 1509 N 135.985 -1.50799 -0.457987 0
M  V30 1510 C 137.215 -1.65977 -1.23025 0
M  V30 1511 C 137.623 -0.347918 -1.85974 0
M  V30 1512 O 136.966 0.68148 -1.70592 0
M  V30 1513 C 137.028 -2.70309 -2.3701 0
M  V30 1514 C 136.692 -4.135 -1.94594 0
M  V30 1515 C 137.689 -4.98949 -1.46101 0
M  V30 1516 C 135.374 -4.5949 -2.02915 0
M  V30 1517 C 137.368 -6.28442 -1.06489 0
M  V30 1518 C 135.055 -5.88984 -1.62914 0
M  V30 1519 C 136.053 -6.73286 -1.1478 0
M  V30 1520 O 135.741 -8.00362 -0.75339 0
M  V30 1521 H 135.473 -0.56064 -0.377702 0
M  V30 1522 H 138.027 -1.97857 -0.551537 0
M  V30 1523 H 136.257 -2.337 -3.08093 0
M  V30 1524 H 137.946 -2.74574 -2.98938 0
M  V30 1525 H 138.712 -4.6463 -1.39084 0
M  V30 1526 H 134.591 -3.94009 -2.39328 0
M  V30 1527 H 138.135 -6.94194 -0.688488 0
M  V30 1528 H 134.032 -6.22822 -1.69595 0
M  V30 1529 H 134.8 -8.13744 -0.88108 0
M  V30 1530 N 137.463 0.71206 -1.40597 0
M  V30 1531 C 138.373 1.8562 -1.43466 0
M  V30 1532 C 139.389 1.70902 -0.326902 0
M  V30 1533 O 140.565 1.93105 -0.572043 0
M  V30 1534 C 137.63 3.21451 -1.29884 0
M  V30 1535 C 136.691 3.48398 -2.50833 0
M  V30 1536 C 135.924 4.77749 -2.3789 0
M  V30 1537 O 136.147 5.53089 -1.39459 0
M  V30 1538 O 135.081 5.05111 -3.27333 0
M  V30 1539 H 138.907 1.86155 -2.39958 0
M  V30 1540 H 136.492 0.86295 -1.21957 0
M  V30 1541 H 138.374 4.02579 -1.24531 0
M  V30 1542 H 137.049 3.21636 -0.364997 0
M  V30 1543 H 135.956 2.67265 -2.61763 0
M  V30 1544 H 137.289 3.53014 -3.4299 0
M  V30 1545 N 138.941 1.26152 0.944643 0
M  V30 1546 C 140.181 1.12708 1.70517 0
M  V30 1547 C 140.545 -0.324727 1.89234 0
M  V30 1548 O 141.746 -0.581211 2.62441 0
M  V30 1549 C 140.017 1.8713 3.04495 0
M  V30 1550 S 141.576 1.89698 3.95677 0
M  V30 1551 H 138.394 0.402665 0.585988 0
M  V30 1552 H 140.996 1.59821 1.12594 0
M  V30 1553 H 139.7 2.91833 2.88551 0
M  V30 1554 H 139.231 1.40444 3.67477 0
M  V30 1555 H 141.246 0.981198 4.86402 0
M  V30 1556 N 140.419 -1.14872 1.07899 0
M  V30 1557 C 141.349 -2.2193 0.725887 0
M  V30 1558 C 142.33 -1.67622 -0.28927 0
M  V30 1559 O 143.515 -1.93533 -0.160787 0
M  V30 1560 C 140.645 -3.47061 0.128856 0
M  V30 1561 C 139.599 -4.14363 1.07178 0
M  V30 1562 C 138.925 -5.33636 0.337229 0
M  V30 1563 C 140.225 -4.63492 2.40775 0
M  V30 1564 H 141.919 -2.51724 1.62097 0
M  V30 1565 H 139.465 -1.20991 0.780838 0
M  V30 1566 H 141.418 -4.21199 -0.130147 0
M  V30 1567 H 140.142 -3.16617 -0.80134 0
M  V30 1568 H 138.801 -3.42173 1.3158 0
M  V30 1569 H 138.449 -4.99449 -0.596606 0
M  V30 1570 H 138.149 -5.79609 0.965788 0
M  V30 1571 H 139.673 -6.10539 0.0861567 0
M  V30 1572 H 141.087 -5.2913 2.20669 0
M  V30 1573 H 139.484 -5.20148 2.99276 0
M  V30 1574 H 140.554 -3.78834 3.02676 0
M  V30 1575 N 141.898 -0.863906 -1.31812 0
M  V30 1576 C 143.175 -0.39275 -1.91616 0
M  V30 1577 C 143.555 1.12461 -1.7865 0
M  V30 1578 O 142.903 1.95045 -1.19037 0
M  V30 1579 C 143.113 -0.867385 -3.38049 0
M  V30 1580 C 144.461 -0.889966 -4.15168 0
M  V30 1581 O 145.485 -0.812635 -3.46806 0
M  V30 1582 O 144.344 -1.00079 -5.37258 0
M  V30 1583 H 141.438 -0.116358 -0.818773 0
M  V30 1584 H 143.984 -0.951418 -1.40521 0
M  V30 1585 H 142.756 -1.91081 -3.41473 0
M  V30 1586 H 142.379 -0.286687 -3.96565 0
M  V30 1587 N 143.376 1.44774 -0.622745 0
M  V30 1588 C 144.339 2.29069 0.0774015 0
M  V30 1589 C 145.339 1.4059 0.780461 0
M  V30 1590 O 146.529 1.62551 0.626322 0
M  V30 1591 C 143.661 3.21974 1.12006 0
M  V30 1592 H 144.854 2.92459 -0.663901 0
M  V30 1593 H 142.407 1.51548 -0.382486 0
M  V30 1594 H 143.142 2.63417 1.89162 0
M  V30 1595 H 142.927 3.87168 0.619951 0
M  V30 1596 H 144.417 3.85318 1.60995 0
M  V30 1597 N 144.854 0.36279 1.53368 0
M  V30 1598 C 146.079 -0.231226 2.06107 0
M  V30 1599 C 146.504 -1.419 1.23474 0
M  V30 1600 O 145.862 -1.79524 0.253128 0
M  V30 1601 C 145.91 -0.605523 3.5548 0
M  V30 1602 O 145.014 -1.70312 3.7559 0
M  V30 1603 H 144.355 -0.034327 0.663112 0
M  V30 1604 H 146.885 0.522584 1.97814 0
M  V30 1605 H 146.895 -0.877314 3.98456 0
M  V30 1606 H 145.57 0.263004 4.15068 0
M  V30 1607 H 144.147 -1.4271 3.44512 0
M  V30 1608 N 146.332 -1.57332 0.0918853 0
M  V30 1609 C 147.748 -1.57389 -0.264766 0
M  V30 1610 C 147.948 -1.10281 -1.68643 0
M  V30 1611 O 147.004 -0.777801 -2.40222 0
M  V30 1612 C 148.317 -3.00648 -0.0561195 0
M  V30 1613 C 149.865 -3.12754 -0.124116 0
M  V30 1614 C 150.34 -4.57965 0.0564972 0
M  V30 1615 N 151.831 -4.632 0.00155611 0
M  V30 1616 C 152.566 -5.73281 0.116598 0
M  V30 1617 N 152.062 -6.92208 0.286294 0
M  V30 1618 N 153.855 -5.6207 0.0580973 0
M  V30 1619 H 146.006 -1.86262 1.02079 0
M  V30 1620 H 148.269 -0.859579 0.399786 0
M  V30 1621 H 147.975 -3.393 0.925669 0
M  V30 1622 H 147.849 -3.68623 -0.799823 0
M  V30 1623 H 150.236 -2.73976 -1.09641 0
M  V30 1624 H 150.317 -2.47377 0.651024 0
M  V30 1625 H 149.961 -4.97436 1.02564 0
M  V30 1626 H 149.891 -5.21399 -0.738297 0
M  V30 1627 H 152.382 -3.77686 -0.127192 0
M  V30 1628 H 152.695 -7.71934 0.365676 0
M  V30 1629 H 151.04 -6.94254 0.32192 0
M  V30 1630 H 154.231 -4.68043 -0.0733204 0
M  V30 1631 H 154.404 -6.47824 0.151203 0
M  V30 1632 N 147.81 0.181792 -1.56548 0
M  V30 1633 C 149.221 0.745244 -1.71181 0
M  V30 1634 C 149.572 1.83262 -0.70068 0
M  V30 1635 O 148.697 2.15946 0.140154 0
M  V30 1636 C 149.292 1.35859 -3.10367 0
M  V30 1637 C 147.851 1.86898 -3.2672 0
M  V30 1638 C 146.998 0.743942 -2.67134 0
M  V30 1639 H 149.949 -0.0434661 -1.5864 0
M  V30 1640 H 149.97 2.22817 -3.08436 0
M  V30 1641 H 149.482 0.566948 -3.83937 0
M  V30 1642 H 147.583 2.68738 -2.5809 0
M  V30 1643 H 147.696 2.02162 -4.34359 0
M  V30 1644 H 146.06 1.16169 -2.26665 0
M  V30 1645 H 146.843 -0.035676 -3.43281 0
M  V30 1646 N 149.288 1.51039 0.449983 0
M  V30 1647 C 150.534 1.64287 1.19923 0
M  V30 1648 C 150.889 0.348701 1.89214 0
M  V30 1649 O 150.182 -0.654751 1.80065 0
M  V30 1650 C 150.376 2.77556 2.25161 0
M  V30 1651 C 150.205 4.17862 1.66198 0
M  V30 1652 C 148.975 4.83976 1.45243 0
M  V30 1653 C 151.173 5.01388 1.14519 0
M  V30 1654 N 149.155 6.08433 0.817437 0
M  V30 1655 C 150.526 6.16743 0.634705 0
M  V30 1656 C 152.581 4.87008 1.03574 0
M  V30 1657 C 151.284 7.19295 0.0255452 0
M  V30 1658 C 153.31 5.89757 0.440489 0
M  V30 1659 C 152.672 7.04375 -0.0595112 0
M  V30 1660 H 148.771 0.655161 0.426952 0
M  V30 1661 H 151.355 1.88228 0.49781 0
M  V30 1662 H 149.526 2.553 2.92706 0
M  V30 1663 H 151.258 2.80049 2.92155 0
M  V30 1664 H 148.013 4.41627 1.71063 0
M  V30 1665 H 148.437 6.75017 0.517747 0
M  V30 1666 H 153.079 3.9866 1.4082 0
M  V30 1667 H 150.797 8.07302 -0.359071 0
M  V30 1668 H 154.383 5.80698 0.35788 0
M  V30 1669 H 153.263 7.82521 -0.512882 0
M  V30 1670 N 150.766 -0.704594 1.40972 0
M  V30 1671 C 151.696 -1.83124 1.44872 0
M  V30 1672 C 152.677 -1.67281 0.30838 0
M  V30 1673 O 153.862 -1.87149 0.518556 0
M  V30 1674 C 150.992 -3.21181 1.32136 0
M  V30 1675 C 149.946 -3.51714 2.43888 0
M  V30 1676 C 149.272 -4.89032 2.16222 0
M  V30 1677 C 150.572 -3.516 3.86232 0
M  V30 1678 H 152.266 -1.80117 2.39161 0
M  V30 1679 H 149.812 -0.865145 1.15114 0
M  V30 1680 H 151.765 -3.99702 1.33479 0
M  V30 1681 H 150.489 -3.24791 0.343279 0
M  V30 1682 H 149.148 -2.75539 2.41813 0
M  V30 1683 H 148.796 -4.89256 1.16778 0
M  V30 1684 H 148.496 -5.10426 2.911 0
M  V30 1685 H 150.02 -5.69873 2.19265 0
M  V30 1686 H 151.434 -4.2014 3.9007 0
M  V30 1687 H 149.831 -3.84523 4.60719 0
M  V30 1688 H 150.901 -2.50757 4.15029 0
M  V30 1689 N 152.244 -1.26651 -0.937939 0
M  V30 1690 C 153.484 -1.13611 -1.69917 0
M  V30 1691 C 153.848 0.314687 -1.89404 0
M  V30 1692 O 155.049 0.567285 -2.62746 0
M  V30 1693 C 153.32 -1.88742 -3.03498 0
M  V30 1694 S 154.879 -1.91794 -3.94665 0
M  V30 1695 H 151.697 -0.405767 -0.583844 0
M  V30 1696 H 154.299 -1.60416 -1.11745 0
M  V30 1697 H 153.003 -2.9336 -2.86999 0
M  V30 1698 H 152.534 -1.42391 -3.66727 0
M  V30 1699 H 154.549 -1.00698 -4.85875 0
M  V30 1700 N 153.722 1.14298 -1.08507 0
M  V30 1701 C 154.952 1.88945 -0.835663 0
M  V30 1702 C 155.36 1.78894 0.615928 0
M  V30 1703 O 154.703 1.1468 1.43506 0
M  V30 1704 C 154.765 3.39585 -1.17994 0
M  V30 1705 C 154.429 3.7342 -2.63451 0
M  V30 1706 C 155.426 3.73454 -3.61702 0
M  V30 1707 C 153.111 4.03368 -2.99332 0
M  V30 1708 C 155.105 4.02961 -4.93864 0
M  V30 1709 C 152.792 4.32538 -4.31687 0
M  V30 1710 C 153.79 4.32318 -5.28763 0
M  V30 1711 O 153.478 4.6078 -6.58739 0
M  V30 1712 H 153.21 0.605307 -0.300965 0
M  V30 1713 H 155.764 1.45673 -1.44806 0
M  V30 1714 H 153.994 3.83315 -0.51055 0
M  V30 1715 H 155.683 3.9554 -0.911182 0
M  V30 1716 H 156.449 3.50403 -3.35325 0
M  V30 1717 H 152.328 4.02692 -2.24411 0
M  V30 1718 H 155.872 4.02704 -5.69627 0
M  V30 1719 H 151.769 4.55059 -4.57812 0
M  V30 1720 H 152.537 4.78492 -6.64069 0
M  V30 1721 N 155.201 0.870884 1.31352 0
M  V30 1722 C 156.447 0.492314 1.97352 0
M  V30 1723 C 156.802 -0.945174 1.67583 0
M  V30 1724 O 156.095 -1.65674 0.962423 0
M  V30 1725 C 156.289 0.687157 3.50732 0
M  V30 1726 C 156.118 2.14203 3.95407 0
M  V30 1727 C 154.888 2.78382 4.21701 0
M  V30 1728 C 157.086 3.1144 4.09279 0
M  V30 1729 N 155.068 4.14611 4.52737 0
M  V30 1730 C 156.439 4.32702 4.44037 0
M  V30 1731 C 158.494 3.07418 3.91661 0
M  V30 1732 C 157.197 5.50463 4.63015 0
M  V30 1733 C 159.223 4.24438 4.11833 0
M  V30 1734 C 158.585 5.44463 4.46923 0
M  V30 1735 H 154.684 0.229206 0.747655 0
M  V30 1736 H 157.268 1.12568 1.5886 0
M  V30 1737 H 155.439 0.083384 3.8831 0
M  V30 1738 H 157.171 0.276883 4.03752 0
M  V30 1739 H 153.926 2.29326 4.14375 0
M  V30 1740 H 154.35 4.84928 4.72413 0
M  V30 1741 H 158.992 2.15732 3.6362 0
M  V30 1742 H 156.71 6.42666 4.89904 0
M  V30 1743 H 160.296 4.2278 3.99685 0
M  V30 1744 H 159.176 6.33504 4.62214 0
M  V30 1745 N 156.679 -1.44442 0.630414 0
M  V30 1746 C 157.928 -2.01267 0.132073 0
M  V30 1747 C 158.241 -1.50172 -1.25331 0
M  V30 1748 O 159.447 -1.9912 -1.84562 0
M  V30 1749 C 157.903 -3.59422 0.185362 0
M  V30 1750 C 157.511 -4.19514 1.57201 0
M  V30 1751 C 159.255 -4.23724 -0.256553 0
M  V30 1752 C 157.162 -5.69891 1.58045 0
M  V30 1753 H 156.092 -0.752619 0.0456092 0
M  V30 1754 H 158.743 -1.65666 0.789106 0
M  V30 1755 H 157.125 -3.92318 -0.538759 0
M  V30 1756 H 158.299 -3.98156 2.31966 0
M  V30 1757 H 156.614 -3.67496 1.95795 0
M  V30 1758 H 159.211 -5.34019 -0.269767 0
M  V30 1759 H 159.554 -3.96013 -1.28372 0
M  V30 1760 H 160.087 -3.95629 0.41505 0
M  V30 1761 H 156.826 -6.02336 2.58597 0
M  V30 1762 H 156.346 -5.93373 0.875725 0
M  V30 1763 H 158.025 -6.33515 1.31408 0
M  V30 1764 N 158.157 -0.370918 -1.53173 0
M  V30 1765 C 159.087 0.464847 -2.28826 0
M  V30 1766 C 160.068 1.07936 -1.31468 0
M  V30 1767 O 161.253 1.0956 -1.60344 0
M  V30 1768 C 158.383 1.60196 -3.08147 0
M  V30 1769 C 157.337 1.11443 -4.13237 0
M  V30 1770 C 156.663 2.3422 -4.80672 0
M  V30 1771 C 157.963 0.195384 -5.21934 0
M  V30 1772 H 159.657 -0.166329 -2.98938 0
M  V30 1773 H 157.203 -0.0814359 -1.4377 0
M  V30 1774 H 159.156 2.19332 -3.59822 0
M  V30 1775 H 157.88 2.26045 -2.35735 0
M  V30 1776 H 156.539 0.545727 -3.62515 0
M  V30 1777 H 156.187 2.98537 -4.04827 0
M  V30 1778 H 155.887 2.02269 -5.51689 0
M  V30 1779 H 157.411 2.94032 -5.35143 0
M  V30 1780 H 158.825 0.694375 -5.69079 0
M  V30 1781 H 157.222 -0.0335027 -6.00091 0
M  V30 1782 H 158.292 -0.760961 -4.78892 0
M  V30 1783 N 159.635 1.57281 -0.100228 0
M  V30 1784 C 160.585 2.10848 0.86759 0
M  V30 1785 C 161.569 1.02473 1.24049 0
M  V30 1786 O 162.761 1.28739 1.21471 0
M  V30 1787 C 159.89 2.69648 2.12474 0
M  V30 1788 C 158.976 3.85074 1.77704 0
M  V30 1789 N 159.367 4.92897 1.13518 0
M  V30 1790 C 157.665 3.94905 2.07282 0
M  V30 1791 C 158.366 5.73475 0.974735 0
M  V30 1792 N 157.342 5.22675 1.4937 0
M  V30 1793 H 161.144 2.91594 0.367471 0
M  V30 1794 H 158.658 1.62074 0.102829 0
M  V30 1795 H 160.655 3.06356 2.82757 0
M  V30 1796 H 159.315 1.90359 2.63047 0
M  V30 1797 H 160.326 5.11662 0.801381 0
M  V30 1798 H 157.003 3.26633 2.60033 0
M  V30 1799 H 158.393 6.70238 0.472364 0
M  V30 1800 N 161.113 -0.173488 1.56642 0
M  V30 1801 C 162.338 -0.910149 1.86363 0
M  V30 1802 C 162.763 -1.75132 0.686318 0
M  V30 1803 O 162.121 -1.77595 -0.364643 0
M  V30 1804 C 162.169 -1.76447 3.14482 0
M  V30 1805 O 161.273 -2.86584 2.96553 0
M  V30 1806 H 160.614 -0.255086 0.613047 0
M  V30 1807 H 163.144 -0.172283 2.03873 0
M  V30 1808 H 163.154 -2.16483 3.45831 0
M  V30 1809 H 161.829 -1.14658 3.99783 0
M  V30 1810 H 160.406 -2.50146 2.76553 0
M  V30 1811 N 162.591 -1.51276 -0.441967 0
M  V30 1812 C 163.521 -1.752 -1.54361 0
M  V30 1813 C 164.502 -0.601682 -1.59103 0
M  V30 1814 O 165.687 -0.843913 -1.74905 0
M  V30 1815 C 162.817 -1.87282 -2.92477 0
M  V30 1816 C 161.771 -3.02687 -3.02596 0
M  V30 1817 C 161.097 -2.99947 -4.42647 0
M  V30 1818 C 162.397 -4.4273 -2.77106 0
M  V30 1819 H 164.091 -2.67442 -1.34592 0
M  V30 1820 H 161.637 -1.28694 -0.646048 0
M  V30 1821 H 163.59 -2.02602 -3.695 0
M  V30 1822 H 162.314 -0.916844 -3.13467 0
M  V30 1823 H 160.973 -2.87065 -2.28012 0
M  V30 1824 H 160.621 -2.02136 -4.60597 0
M  V30 1825 H 160.321 -3.77439 -4.50348 0
M  V30 1826 H 161.845 -3.17354 -5.2165 0
M  V30 1827 H 163.259 -4.58727 -3.43864 0
M  V30 1828 H 161.656 -5.21893 -2.96222 0
M  V30 1829 H 162.726 -4.53087 -1.72744 0
M  V30 1830 N 164.069 0.697108 -1.41344 0
M  V30 1831 C 164.979 1.84088 -1.45427 0
M  V30 1832 C 165.995 1.70545 -0.34501 0
M  V30 1833 O 167.171 1.92488 -0.592492 0
M  V30 1834 C 164.236 3.20056 -1.33286 0
M  V30 1835 C 163.297 3.45718 -2.54514 0
M  V30 1836 C 162.53 4.75199 -2.42944 0
M  V30 1837 O 162.753 5.51579 -1.45318 0
M  V30 1838 O 161.687 5.0161 -3.32672 0
M  V30 1839 H 165.513 1.836 -2.41919 0
M  V30 1840 H 163.098 0.849966 -1.22866 0
M  V30 1841 H 164.98 4.01236 -1.28794 0
M  V30 1842 H 163.655 3.2123 -0.39909 0
M  V30 1843 H 162.562 2.64474 -2.64583 0
M  V30 1844 H 163.895 3.49356 -3.46715 0
M  V30 1845 N 165.547 1.27147 0.931209 0
M  V30 1846 C 166.477 1.12081 2.04842 0
M  V30 1847 C 167.458 0.0232364 1.70084 0
M  V30 1848 O 168.643 0.197085 1.93197 0
M  V30 1849 C 165.773 0.76354 3.38803 0
M  V30 1850 C 164.727 1.81396 3.87659 0
M  V30 1851 C 164.053 1.31075 5.18385 0
M  V30 1852 C 165.353 3.21739 4.11438 0
M  V30 1853 H 167.047 2.05537 2.17703 0
M  V30 1854 H 164.593 0.989603 1.04608 0
M  V30 1855 H 166.546 0.644982 4.16435 0
M  V30 1856 H 165.27 -0.206727 3.25945 0
M  V30 1857 H 163.929 1.92136 3.12217 0
M  V30 1858 H 163.577 0.330037 5.01916 0
M  V30 1859 H 163.277 2.013 5.52044 0
M  V30 1860 H 164.801 1.20506 5.98591 0
M  V30 1861 H 166.215 3.14019 4.79651 0
M  V30 1862 H 164.612 3.89644 4.56397 0
M  V30 1863 H 165.682 3.67054 3.16859 0
M  V30 1864 N 167.025 -1.13721 1.09112 0
M  V30 1865 C 167.955 -2.21148 0.749385 0
M  V30 1866 C 168.936 -1.6792 -0.271475 0
M  V30 1867 O 170.121 -1.93693 -0.140251 0
M  V30 1868 C 167.251 -3.46905 0.165659 0
M  V30 1869 C 166.205 -4.13203 1.11567 0
M  V30 1870 C 165.531 -5.33248 0.393809 0
M  V30 1871 C 166.831 -4.60912 2.45678 0
M  V30 1872 H 168.525 -2.4999 1.64758 0
M  V30 1873 H 166.071 -1.20156 0.793626 0
M  V30 1874 H 168.024 -4.21313 -0.085466 0
M  V30 1875 H 166.748 -3.17449 -0.767714 0
M  V30 1876 H 165.407 -3.40758 1.35202 0
M  V30 1877 H 165.055 -5.00054 -0.543599 0
M  V30 1878 H 164.755 -5.78552 1.02721 0
M  V30 1879 H 166.279 -6.10413 0.150908 0
M  V30 1880 H 167.693 -5.26759 2.26269 0
M  V30 1881 H 166.09 -5.16944 3.04776 0
M  V30 1882 H 167.16 -3.75603 3.06677 0
M  V30 1883 N 168.503 -0.877838 -1.30888 0
M  V30 1884 C 169.78 -0.413052 -1.91189 0
M  V30 1885 C 170.16 1.1056 -1.79832 0
M  V30 1886 O 169.508 1.93771 -1.21099 0
M  V30 1887 C 169.718 -0.903191 -3.3711 0
M  V30 1888 C 171.066 -0.93395 -4.14201 0
M  V30 1889 O 172.09 -0.849373 -3.45925 0
M  V30 1890 O 170.949 -1.05772 -5.36167 0
M  V30 1891 H 168.043 -0.125035 -0.817493 0
M  V30 1892 H 170.589 -0.966269 -1.39504 0
M  V30 1893 H 169.361 -1.94692 -3.39427 0
M  V30 1894 H 168.984 -0.328732 -3.96239 0
M  V30 1895 N 169.982 1.44106 -0.638065 0
M  V30 1896 C 170.892 2.34513 0.0637334 0
M  V30 1897 C 171.908 1.53018 0.828346 0
M  V30 1898 O 173.084 1.85723 0.779036 0
M  V30 1899 C 170.149 3.31095 1.02844 0
M  V30 1900 C 169.21 4.28497 0.26244 0
M  V30 1901 C 168.443 5.20465 1.1812 0
M  V30 1902 O 168.666 5.16514 2.42011 0
M  V30 1903 O 167.6 5.98251 0.661774 0
M  V30 1904 H 171.426 2.95989 -0.68003 0
M  V30 1905 H 169.011 1.43994 -0.398252 0
M  V30 1906 H 170.893 3.90526 1.58327 0
M  V30 1907 H 169.568 2.72144 1.7527 0
M  V30 1908 H 168.475 3.72592 -0.335602 0
M  V30 1909 H 169.808 4.90388 -0.421936 0
M  V30 1910 N 171.46 0.379036 1.52974 0
M  V30 1911 C 172.871 -0.0972525 1.86447 0
M  V30 1912 C 173.222 -1.47027 1.29914 0
M  V30 1913 O 172.347 -2.07135 0.626433 0
M  V30 1914 C 172.942 -0.183248 3.38304 0
M  V30 1915 C 171.501 -0.603812 3.71525 0
M  V30 1916 C 170.648 0.240632 2.76254 0
M  V30 1917 H 173.599 0.597316 1.4703 0
M  V30 1918 H 173.62 -1.00432 3.67006 0
M  V30 1919 H 173.132 0.816191 3.79421 0
M  V30 1920 H 171.233 -1.61099 3.35973 0
M  V30 1921 H 171.346 -0.369086 4.77676 0
M  V30 1922 H 169.71 -0.292548 2.53014 0
M  V30 1923 H 170.493 1.23786 3.20206 0
M  V30 1924 N 172.938 -1.57226 0.108567 0
M  V30 1925 C 174.187 -1.94008 -0.551703 0
M  V30 1926 C 174.5 -0.993442 -1.68494 0
M  V30 1927 O 175.706 -1.25551 -2.40726 0
M  V30 1928 C 174.162 -3.44763 -1.03279 0
M  V30 1929 C 173.77 -4.47943 0.0714193 0
M  V30 1930 C 175.514 -3.90483 -1.66503 0
M  V30 1931 C 173.421 -5.89865 -0.425779 0
M  V30 1932 H 172.351 -0.724206 -0.209863 0
M  V30 1933 H 175.002 -1.82547 0.186741 0
M  V30 1934 H 173.384 -3.51422 -1.82533 0
M  V30 1935 H 174.558 -4.52942 0.847365 0
M  V30 1936 H 172.873 -4.11913 0.609669 0
M  V30 1937 H 175.47 -4.93925 -2.04798 0
M  V30 1938 H 175.813 -3.29877 -2.53942 0
M  V30 1939 H 176.346 -3.86581 -0.938074 0
M  V30 1940 H 173.085 -6.54202 0.412316 0
M  V30 1941 H 172.605 -5.88309 -1.16843 0
M  V30 1942 H 174.284 -6.40844 -0.890397 0
M  V30 1943 N 174.416 0.165178 -1.56732 0
M  V30 1944 C 175.827 0.727046 -1.71962 0
M  V30 1945 C 176.178 1.82508 -0.720078 0
M  V30 1946 O 175.303 2.16082 0.117242 0
M  V30 1947 C 175.898 1.32559 -3.11791 0
M  V30 1948 C 174.457 1.83422 -3.28684 0
M  V30 1949 C 173.604 0.715567 -2.67908 0
M  V30 1950 H 176.555 -0.0602896 -1.58585 0
M  V30 1951 H 176.576 2.19533 -3.10782 0
M  V30 1952 H 176.088 0.526195 -3.84516 0
M  V30 1953 H 174.189 2.65986 -2.60926 0
M  V30 1954 H 174.302 1.97543 -4.36478 0
M  V30 1955 H 172.666 1.13758 -2.27884 0
M  V30 1956 H 173.449 -0.0720836 -3.43224 0
M  V30 1957 N 175.894 1.51508 0.433938 0
M  V30 1958 C 176.826 1.69266 1.54537 0
M  V30 1959 C 177.839 0.573276 1.52373 0
M  V30 1960 O 179.028 0.847698 1.57087 0
M  V30 1961 C 176.128 1.69524 2.93453 0
M  V30 1962 C 175.301 2.98101 3.20085 0
M  V30 1963 C 174.36 2.90502 4.38742 0
M  V30 1964 O 173.386 3.64442 4.3723 0
M  V30 1965 N 174.588 2.06586 5.42496 0
M  V30 1966 H 177.353 2.65145 1.39708 0
M  V30 1967 H 174.914 1.49437 0.622922 0
M  V30 1968 H 176.906 1.62004 3.70859 0
M  V30 1969 H 175.476 0.812245 3.01863 0
M  V30 1970 H 174.696 3.19464 2.30947 0
M  V30 1971 H 175.984 3.83207 3.34708 0
M  V30 1972 H 175.382 1.45896 5.46563 0
M  V30 1973 H 173.939 2.04943 6.18742 0
M  V30 1974 N 177.372 -0.689602 1.41712 0
M  V30 1975 C 178.621 -1.44534 1.40686 0
M  V30 1976 C 178.934 -1.95588 0.0213352 0
M  V30 1977 O 180.14 -2.71271 -0.111534 0
M  V30 1978 C 178.596 -2.61387 2.47396 0
M  V30 1979 C 178.204 -2.17094 3.91885 0
M  V30 1980 C 179.948 -3.38986 2.55517 0
M  V30 1981 C 177.855 -3.3094 4.90135 0
M  V30 1982 H 176.785 -0.542925 0.52321 0
M  V30 1983 H 179.436 -0.748054 1.6756 0
M  V30 1984 H 177.818 -3.33412 2.13664 0
M  V30 1985 H 178.992 -1.52318 4.34897 0
M  V30 1986 H 177.307 -1.52473 3.8748 0
M  V30 1987 H 179.904 -4.23747 3.26102 0
M  V30 1988 H 180.247 -3.84578 1.59391 0
M  V30 1989 H 180.78 -2.74021 2.8837 0
M  V30 1990 H 177.519 -2.90355 5.87685 0
M  V30 1991 H 177.039 -3.94546 4.51767 0
M  V30 1992 H 178.718 -3.9663 5.11169 0
M  V30 1993 N 178.85 -1.27639 -0.924453 0
M  V30 1994 C 180.096 -1.14336 -1.67497 0
M  V30 1995 C 180.429 0.309465 -1.91718 0
M  V30 1996 O 179.704 1.22608 -1.50989 0
M  V30 1997 C 179.987 -1.93096 -3.0395 0
M  V30 1998 C 179.84 -3.46381 -2.8695 0
M  V30 1999 C 181.159 -1.73798 -4.0433 0
M  V30 2000 H 178.278 -0.416728 -0.607871 0
M  V30 2001 H 180.92 -1.56832 -1.07256 0
M  V30 2002 H 179.07 -1.56982 -3.55372 0
M  V30 2003 H 180.742 -3.92343 -2.42621 0
M  V30 2004 H 178.985 -3.72557 -2.22225 0
M  V30 2005 H 179.656 -3.96735 -3.83804 0
M  V30 2006 H 182.132 -2.05293 -3.61931 0
M  V30 2007 H 181.008 -2.31294 -4.97789 0
M  V30 2008 H 181.269 -0.686725 -4.36734 0
M  V30 2009 N 180.328 1.1314 -1.09713 0
M  V30 2010 C 181.291 2.16831 -0.742751 0
M  V30 2011 C 182.291 1.59159 0.229129 0
M  V30 2012 O 183.481 1.74199 0.00693237 0
M  V30 2013 C 180.613 3.40756 -0.0989168 0
M  V30 2014 H 181.806 2.49695 -1.66109 0
M  V30 2015 H 179.359 1.2802 -0.896699 0
M  V30 2016 H 180.094 3.13485 0.830514 0
M  V30 2017 H 179.879 3.83888 -0.798265 0
M  V30 2018 H 181.369 4.17386 0.133524 0
M  V30 2019 N 181.806 0.884767 1.30421 0
M  V30 2020 C 183.034 0.518044 2.0031 0
M  V30 2021 C 183.449 -0.893408 1.66324 0
M  V30 2022 O 182.806 -1.5875 0.900262 0
M  V30 2023 C 182.857 0.682997 3.54989 0
M  V30 2024 O 182.578 2.03888 3.87764 0
M  V30 2025 C 184.079 0.31924 4.42149 0
M  V30 2026 H 181.299 0.200265 0.640418 0
M  V30 2027 H 183.843 1.19001 1.6631 0
M  V30 2028 H 181.998 0.0584052 3.87356 0
M  V30 2029 H 182.412 2.05735 4.82466 0
M  V30 2030 H 183.886 0.485555 5.4986 0
M  V30 2031 H 184.363 -0.742717 4.32875 0
M  V30 2032 H 184.969 0.920147 4.15227 0
M  V30 2033 N 183.284 -1.43765 0.645699 0
M  V30 2034 C 184.561 -1.9541 0.0862963 0
M  V30 2035 C 184.941 -1.58725 -1.39175 0
M  V30 2036 O 184.289 -0.868581 -2.11348 0
M  V30 2037 C 184.499 -3.47488 0.324565 0
M  V30 2038 C 185.847 -4.24001 0.225497 0
M  V30 2039 O 186.871 -3.55274 0.256715 0
M  V30 2040 O 185.73 -5.46313 0.142801 0
M  V30 2041 H 182.824 -0.826882 -0.0139483 0
M  V30 2042 H 185.37 -1.53743 0.718415 0
M  V30 2043 H 184.142 -3.67289 1.3496 0
M  V30 2044 H 183.765 -3.96135 -0.340987 0
M  V30 2045 N 184.763 -0.387143 -1.52771 0
M  V30 2046 C 186.009 0.196025 -2.0185 0
M  V30 2047 C 186.342 1.46641 -1.27319 0
M  V30 2048 O 185.617 1.90889 -0.373032 0
M  V30 2049 C 185.9 0.466136 -3.5707 0
M  V30 2050 C 185.753 -0.819385 -4.42274 0
M  V30 2051 C 187.072 1.25768 -4.21747 0
M  V30 2052 H 184.191 0.0697708 -0.73369 0
M  V30 2053 H 186.833 -0.516286 -1.82851 0
M  V30 2054 H 184.983 1.07293 -3.7339 0
M  V30 2055 H 186.655 -1.4563 -4.37709 0
M  V30 2056 H 184.898 -1.43517 -4.09372 0
M  V30 2057 H 185.569 -0.585065 -5.48891 0
M  V30 2058 H 188.045 0.744167 -4.09391 0
M  V30 2059 H 186.921 1.41541 -5.30337 0
M  V30 2060 H 187.182 2.27228 -3.79236 0
M  V30 2061 N 186.241 1.57166 -0.116904 0
M  V30 2062 C 187.481 1.97008 0.544715 0
M  V30 2063 C 187.845 0.998713 1.63981 0
M  V30 2064 O 189.046 1.28644 2.36018 0
M  V30 2065 C 187.317 3.41145 1.06559 0
M  V30 2066 S 188.876 4.02998 1.73603 0
M  V30 2067 H 185.694 0.688587 0.177112 0
M  V30 2068 H 188.296 1.94459 -0.201487 0
M  V30 2069 H 187 4.09592 0.257374 0
M  V30 2070 H 186.531 3.4734 1.84712 0
M  V30 2071 H 188.546 3.93585 3.02168 0
M  V30 2072 N 187.719 -0.156864 1.56817 0
M  V30 2073 C 188.651 -1.21883 1.94106 0
M  V30 2074 C 189.664 -1.3971 0.835754 0
M  V30 2075 O 190.853 -1.39457 1.11418 0
M  V30 2076 C 187.953 -2.58527 2.19127 0
M  V30 2077 C 187.126 -2.61809 3.50393 0
M  V30 2078 C 186.185 -3.7992 3.64071 0
M  V30 2079 O 185.211 -3.65249 4.36557 0
M  V30 2080 N 186.413 -4.96973 2.99997 0
M  V30 2081 H 189.178 -0.901974 2.85805 0
M  V30 2082 H 186.739 -0.346513 1.58148 0
M  V30 2083 H 188.731 -3.36034 2.25529 0
M  V30 2084 H 187.301 -2.82545 1.33742 0
M  V30 2085 H 186.521 -1.7029 3.5552 0
M  V30 2086 H 187.809 -2.61024 4.36742 0
M  V30 2087 H 187.207 -5.11794 2.41004 0
M  V30 2088 H 185.764 -5.7229 3.11974 0
M  V30 2089 N 189.197 -1.51736 -0.425897 0
M  V30 2090 C 190.444 -1.6497 -1.17436 0
M  V30 2091 C 190.772 -0.371445 -1.9092 0
M  V30 2092 O 190.027 0.644963 -1.84767 0
M  V30 2093 C 190.326 -2.81103 -2.20717 0
M  V30 2094 C 189.992 -4.19954 -1.64162 0
M  V30 2095 C 188.654 -4.57725 -1.48462 0
M  V30 2096 C 191.006 -5.06552 -1.22696 0
M  V30 2097 C 188.334 -5.79789 -0.897873 0
M  V30 2098 C 190.686 -6.29205 -0.654464 0
M  V30 2099 C 189.35 -6.6574 -0.484456 0
M  V30 2100 H 188.62 -0.603668 -0.429727 0
M  V30 2101 H 191.267 -1.85798 -0.463829 0
M  V30 2102 H 189.572 -2.54542 -2.97852 0
M  V30 2103 H 191.269 -2.8854 -2.78471 0
M  V30 2104 H 187.859 -3.90181 -1.77361 0
M  V30 2105 H 192.043 -4.77968 -1.33642 0
M  V30 2106 H 187.299 -6.06733 -0.75402 0
M  V30 2107 H 191.473 -6.95643 -0.324694 0
M  V30 2108 H 189.1 -7.60195 -0.0276833 0
M  V30 2109 N 190.675 0.682077 -1.42076 0
M  V30 2110 C 191.605 1.80796 -1.47767 0
M  V30 2111 C 192.586 1.6677 -0.334954 0
M  V30 2112 O 193.771 1.863 -0.548264 0
M  V30 2113 C 190.901 3.19038 -1.37229 0
M  V30 2114 C 189.855 3.47789 -2.49453 0
M  V30 2115 C 189.181 4.8553 -2.23975 0
M  V30 2116 C 190.481 3.45411 -3.91776 0
M  V30 2117 H 192.175 1.7629 -2.41997 0
M  V30 2118 H 189.721 0.846721 -1.16476 0
M  V30 2119 H 191.674 3.97528 -1.39821 0
M  V30 2120 H 190.398 3.24204 -0.394907 0
M  V30 2121 H 189.057 2.71657 -2.46166 0
M  V30 2122 H 188.705 4.87337 -1.24547 0
M  V30 2123 H 188.405 5.0573 -2.99184 0
M  V30 2124 H 189.929 5.66312 -2.28304 0
M  V30 2125 H 191.343 4.13882 -3.96705 0
M  V30 2126 H 189.74 3.77145 -4.66778 0
M  V30 2127 H 190.81 2.44122 -4.18966 0
M  V30 2128 N 192.153 1.28127 0.917671 0
M  V30 2129 C 193.063 1.13556 2.05286 0
M  V30 2130 C 194.079 0.0630914 1.73886 0
M  V30 2131 O 195.255 0.271598 1.9956 0
M  V30 2132 C 192.32 0.794676 3.3747 0
M  V30 2133 C 191.381 1.94909 3.82504 0
M  V30 2134 C 190.614 1.62437 5.0838 0
M  V30 2135 O 190.837 0.536905 5.67867 0
M  V30 2136 O 189.771 2.46677 5.4903 0
M  V30 2137 H 193.597 2.08844 2.20495 0
M  V30 2138 H 191.182 1.07409 1.03845 0
M  V30 2139 H 193.064 0.618344 4.16839 0
M  V30 2140 H 191.739 -0.128581 3.23445 0
M  V30 2141 H 190.646 2.18055 3.03978 0
M  V30 2142 H 191.979 2.85291 4.01086 0
M  V30 2143 N 193.631 -1.12557 1.10312 0
M  V30 2144 C 194.561 -2.20341 0.772798 0
M  V30 2145 C 195.542 -1.68198 -0.25365 0
M  V30 2146 O 196.727 -1.93831 -0.119699 0
M  V30 2147 C 193.857 -3.46709 0.202443 0
M  V30 2148 C 192.811 -4.11996 1.15943 0
M  V30 2149 C 192.137 -5.328 0.450345 0
M  V30 2150 C 193.437 -4.5828 2.50552 0
M  V30 2151 H 195.131 -2.48229 1.674 0
M  V30 2152 H 192.677 -1.19308 0.806326 0
M  V30 2153 H 194.63 -4.2138 -0.0407752 0
M  V30 2154 H 193.354 -3.18245 -0.734001 0
M  V30 2155 H 192.013 -3.39305 1.38808 0
M  V30 2156 H 191.661 -5.00602 -0.490531 0
M  V30 2157 H 191.361 -5.7743 1.08851 0
M  V30 2158 H 192.885 -6.10219 0.215642 0
M  V30 2159 H 194.299 -5.2433 2.31843 0
M  V30 2160 H 192.696 -5.13683 3.10242 0
M  V30 2161 H 193.766 -3.72329 3.10643 0
M  V30 2162 N 195.109 -0.891671 -1.2995 0
M  V30 2163 C 196.349 -0.520296 -1.97667 0
M  V30 2164 C 196.713 0.914797 -1.68806 0
M  V30 2165 O 197.914 1.39263 -2.29911 0
M  V30 2166 C 196.185 -0.795222 -3.48441 0
M  V30 2167 S 197.744 -0.526953 -4.35624 0
M  V30 2168 H 194.562 -0.19333 -0.684211 0
M  V30 2169 H 197.164 -1.15238 -1.57926 0
M  V30 2170 H 195.868 -1.83805 -3.66938 0
M  V30 2171 H 195.399 -0.15095 -3.9311 0
M  V30 2172 H 197.414 0.631533 -4.92165 0
M  V30 2173 N 196.587 1.43421 -0.653314 0
M  V30 2174 C 197.519 2.29071 0.0769134 0
M  V30 2175 C 198.532 1.42513 0.787017 0
M  V30 2176 O 199.721 1.66449 0.644757 0
M  V30 2177 C 196.821 3.19436 1.13199 0
M  V30 2178 C 195.994 4.34533 0.500006 0
M  V30 2179 C 195.053 5.05771 1.45198 0
M  V30 2180 O 194.079 5.61037 0.960538 0
M  V30 2181 N 195.281 5.0928 2.78594 0
M  V30 2182 H 198.046 2.92382 -0.658235 0
M  V30 2183 H 195.607 1.54112 -0.496104 0
M  V30 2184 H 197.599 3.63958 1.76964 0
M  V30 2185 H 196.169 2.57724 1.7691 0
M  V30 2186 H 195.389 3.92925 -0.316738 0
M  V30 2187 H 196.677 5.08766 0.0588345 0
M  V30 2188 H 196.075 4.65751 3.2108 0
M  V30 2189 H 194.632 5.57519 3.37662 0
M  V30 2190 N 198.065 0.39524 1.52563 0
M  V30 2191 C 199.29 -0.187456 2.06551 0
M  V30 2192 C 199.715 -1.39249 1.26457 0
M  V30 2193 O 199.073 -1.78947 0.291151 0
M  V30 2194 C 199.121 -0.529985 3.56684 0
M  V30 2195 O 198.225 -1.62307 3.79118 0
M  V30 2196 H 197.566 -0.0202537 0.663691 0
M  V30 2197 H 200.096 0.564426 1.96661 0
M  V30 2198 H 200.106 -0.792598 4.00227 0
M  V30 2199 H 198.781 0.350987 4.14416 0
M  V30 2200 H 197.358 -1.3537 3.47461 0
M  V30 2201 N 199.544 -1.57102 0.125237 0
M  V30 2202 C 200.955 -1.82384 -0.399142 0
M  V30 2203 C 201.306 -1.04276 -1.66195 0
M  V30 2204 O 200.431 -0.281269 -2.14564 0
M  V30 2205 C 201.026 -3.30821 -0.730932 0
M  V30 2206 C 199.585 -3.56762 -1.19992 0
M  V30 2207 C 198.732 -2.7649 -0.211792 0
M  V30 2208 H 201.683 -1.54786 0.350277 0
M  V30 2209 H 201.704 -3.4579 -1.58775 0
M  V30 2210 H 201.216 -3.87643 0.188345 0
M  V30 2211 H 199.317 -3.05305 -2.13588 0
M  V30 2212 H 199.43 -4.65317 -1.14093 0
M  V30 2213 H 197.794 -2.4489 -0.700085 0
M  V30 2214 H 198.577 -3.36073 0.700691 0
M  V30 2215 N 201.022 0.148545 -1.56898 0
M  V30 2216 C 201.932 1.20293 -2.01412 0
M  V30 2217 C 202.948 1.47107 -0.929273 0
M  V30 2218 O 204.124 1.58807 -1.23863 0
M  V30 2219 C 201.189 2.51682 -2.38447 0
M  V30 2220 C 200.25 2.32529 -3.60872 0
M  V30 2221 C 199.483 3.57653 -3.96132 0
M  V30 2222 O 199.706 4.63771 -3.32073 0
M  V30 2223 O 198.64 3.50408 -4.89385 0
M  V30 2224 H 202.466 0.855025 -2.91416 0
M  V30 2225 H 200.051 0.357151 -1.45068 0
M  V30 2226 H 201.933 3.29147 -2.63135 0
M  V30 2227 H 200.608 2.86006 -1.51599 0
M  V30 2228 H 199.515 1.53019 -3.41373 0
M  V30 2229 H 200.848 2.03121 -4.48333 0
M  V30 2230 N 202.5 1.5196 0.417844 0
M  V30 2231 C 203.748 1.65263 1.16329 0
M  V30 2232 C 204.069 0.380634 1.91249 0
M  V30 2233 O 203.339 -0.604214 1.86349 0
M  V30 2234 H 201.919 0.60912 0.432414 0
M  V30 2235 H 204.581 1.88969 0.477162 0
M  V30 2236 H 203.677 2.4896 1.88217 0
M  V30 2237 N 203.978 -0.674533 1.42435 0
M  V30 2238 C 205.226 -1.43175 1.42637 0
M  V30 2239 C 205.547 -1.94951 0.0438992 0
M  V30 2240 O 204.817 -1.7308 -0.917607 0
M  V30 2241 H 203.397 -0.531307 0.525092 0
M  V30 2242 H 206.059 -0.797006 1.77859 0
M  V30 2243 H 205.155 -2.28463 2.12629 0
M  V30 2244 N 205.456 -1.28612 -0.910864 0
M  V30 2245 C 206.703 -1.15934 -1.66029 0
M  V30 2246 C 207.031 0.291483 -1.92303 0
M  V30 2247 O 206.286 1.22816 -1.52364 0
M  V30 2248 C 206.585 -1.90624 -3.0232 0
M  V30 2249 C 206.251 -3.40405 -2.95695 0
M  V30 2250 C 204.913 -3.81255 -2.93595 0
M  V30 2251 C 207.265 -4.359 -2.85728 0
M  V30 2252 C 204.593 -5.15936 -2.79334 0
M  V30 2253 C 206.945 -5.70657 -2.73007 0
M  V30 2254 C 205.609 -6.10779 -2.69267 0
M  V30 2255 H 204.879 -0.424234 -0.607541 0
M  V30 2256 H 207.526 -1.5942 -1.06101 0
M  V30 2257 H 205.831 -1.39696 -3.6605 0
M  V30 2258 H 207.528 -1.78228 -3.59215 0
M  V30 2259 H 204.118 -3.07927 -2.98125 0
M  V30 2260 H 208.302 -4.053 -2.86436 0
M  V30 2261 H 203.558 -5.46146 -2.74835 0
M  V30 2262 H 207.732 -6.44311 -2.64264 0
M  V30 2263 H 205.359 -7.1509 -2.57974 0
M  V30 2264 N 206.934 1.1197 -1.10907 0
M  V30 2265 C 208.182 1.83225 -0.852819 0
M  V30 2266 C 208.503 1.84769 0.623341 0
M  V30 2267 O 207.773 1.3143 1.45269 0
M  V30 2268 H 206.353 0.67849 -0.312507 0
M  V30 2269 H 209.015 1.3556 -1.40033 0
M  V30 2270 H 208.111 2.87265 -1.22005 0
M  V30 2271 N 208.412 0.89855 1.29475 0
M  V30 2272 C 209.66 0.522847 1.9522 0
M  V30 2273 C 209.981 -0.93371 1.71192 0
M  V30 2274 O 209.251 -1.65823 1.04305 0
M  V30 2275 H 207.831 0.190366 0.722336 0
M  V30 2276 H 210.493 1.14459 1.5775 0
M  V30 2277 H 209.589 0.704476 3.04045 0
M  V30 2278 N 209.89 -1.43072 0.660911 0
M  V30 2279 C 211.138 -2.01323 0.177094 0
M  V30 2280 C 211.459 -1.5245 -1.2159 0
M  V30 2281 O 210.729 -0.740322 -1.81373 0
M  V30 2282 H 209.309 -0.744382 0.0624804 0
M  V30 2283 H 211.971 -1.75179 0.854305 0
M  V30 2284 H 211.067 -3.11649 0.167641 0
M  V30 2285 N 211.368 -0.403325 -1.52352 0
M  V30 2286 C 212.779 0.0675782 -1.86578 0
M  V30 2287 C 213.13 1.44941 -1.32236 0
M  V30 2288 O 212.255 2.06112 -0.659307 0
M  V30 2289 C 212.85 0.129404 -3.38553 0
M  V30 2290 C 211.409 0.544629 -3.72439 0
M  V30 2291 C 210.556 -0.284551 -2.75836 0
M  V30 2292 H 213.507 -0.620631 -1.46061 0
M  V30 2293 H 213.528 0.94581 -3.68558 0
M  V30 2294 H 213.04 -0.87645 -3.78074 0
M  V30 2295 H 211.141 1.55734 -3.38493 0
M  V30 2296 H 211.254 0.293046 -4.78203 0
M  V30 2297 H 209.618 0.252258 -2.53448 0
M  V30 2298 H 210.401 -1.28865 -3.18196 0
M  V30 2299 N 212.846 1.57033 -0.133567 0
M  V30 2300 C 214.094 1.953 0.519848 0
M  V30 2301 C 214.415 1.01866 1.66278 0
M  V30 2302 O 213.685 0.0776513 1.95746 0
M  V30 2303 H 212.265 0.721091 0.195032 0
M  V30 2304 H 214.927 1.93809 -0.205921 0
M  V30 2305 H 214.023 2.98695 0.904854 0
M  V30 2306 N 214.325 -0.140222 1.56975 0
M  V30 2307 C 215.257 -1.19818 1.95388 0
M  V30 2308 C 216.27 -1.38816 0.850525 0
M  V30 2309 O 217.459 -1.38267 1.12891 0
M  V30 2310 C 214.559 -2.56189 2.21857 0
M  V30 2311 C 213.732 -2.58077 3.5315 0
M  V30 2312 C 212.791 -3.76037 3.6808 0
M  V30 2313 O 211.817 -3.60598 4.40406 0
M  V30 2314 N 213.019 -4.93763 3.05251 0
M  V30 2315 H 215.784 -0.871609 2.86746 0
M  V30 2316 H 213.345 -0.32972 1.58507 0
M  V30 2317 H 215.337 -3.33623 2.2908 0
M  V30 2318 H 213.907 -2.81111 1.36731 0
M  V30 2319 H 213.127 -1.6651 3.57307 0
M  V30 2320 H 214.415 -2.56377 4.39486 0
M  V30 2321 H 213.813 -5.09209 2.46419 0
M  V30 2322 H 212.37 -5.68949 3.18026 0
M  V30 2323 N 215.803 -1.52179 -0.40978 0
M  V30 2324 C 217.033 -1.69807 -1.17682 0
M  V30 2325 C 217.441 -0.406908 -1.84773 0
M  V30 2326 O 216.784 0.626863 -1.72673 0
M  V30 2327 C 216.846 -2.77712 -2.2829 0
M  V30 2328 C 216.51 -4.19481 -1.81341 0
M  V30 2329 C 217.507 -5.03345 -1.30154 0
M  V30 2330 C 215.192 -4.65713 -1.88194 0
M  V30 2331 C 217.186 -6.31511 -0.864416 0
M  V30 2332 C 214.873 -5.93869 -1.44093 0
M  V30 2333 C 215.871 -6.76597 -0.933023 0
M  V30 2334 O 215.559 -8.02354 -0.49838 0
M  V30 2335 H 215.291 -0.572372 -0.359675 0
M  V30 2336 H 217.845 -1.99511 -0.488311 0
M  V30 2337 H 216.075 -2.43383 -3.00502 0
M  V30 2338 H 217.764 -2.83946 -2.90051 0
M  V30 2339 H 218.53 -4.68819 -1.24232 0
M  V30 2340 H 214.409 -4.01424 -2.26671 0
M  V30 2341 H 217.953 -6.96033 -0.467286 0
M  V30 2342 H 213.85 -6.27903 -1.49694 0
M  V30 2343 H 214.618 -8.16135 -0.621747 0
M  V30 2344 N 217.281 0.66697 -1.42791 0
M  V30 2345 C 218.692 1.2478 -1.38877 0
M  V30 2346 C 219.043 1.96012 -0.0859426 0
M  V30 2347 O 218.168 2.00463 0.815081 0
M  V30 2348 C 218.763 2.26938 -2.51564 0
M  V30 2349 C 217.322 2.80529 -2.50959 0
M  V30 2350 C 216.469 1.54965 -2.29959 0
M  V30 2351 H 219.42 0.459853 -1.51892 0
M  V30 2352 H 219.441 3.08834 -2.22265 0
M  V30 2353 H 218.953 1.75065 -3.46372 0
M  V30 2354 H 217.054 3.36502 -1.59991 0
M  V30 2355 H 217.167 3.29012 -3.48265 0
M  V30 2356 H 215.531 1.81817 -1.78366 0
M  V30 2357 H 216.314 1.05047 -3.26833 0
M  V30 2358 N 218.759 1.29093 0.90403 0
M  V30 2359 C 219.709 1.10482 1.99443 0
M  V30 2360 C 220.693 0.0255401 1.6088 0
M  V30 2361 O 221.885 0.24677 1.75271 0
M  V30 2362 C 219.014 0.778882 3.34348 0
M  V30 2363 C 218.1 1.89749 3.79284 0
M  V30 2364 N 218.491 3.14045 3.96497 0
M  V30 2365 C 216.789 1.78955 4.08523 0
M  V30 2366 C 217.49 3.86996 4.34292 0
M  V30 2367 N 216.466 3.14909 4.43095 0
M  V30 2368 H 220.268 2.04778 2.10815 0
M  V30 2369 H 217.782 1.20155 1.09255 0
M  V30 2370 H 219.779 0.62661 4.12164 0
M  V30 2371 H 218.439 -0.156205 3.24324 0
M  V30 2372 H 219.45 3.49548 3.82148 0
M  V30 2373 H 216.127 0.926886 4.07081 0
M  V30 2374 H 217.517 4.93941 4.55491 0
M  V30 2375 N 220.237 -1.11381 1.11499 0
M  V30 2376 C 221.167 -2.19509 0.796125 0
M  V30 2377 C 222.148 -1.68458 -0.235796 0
M  V30 2378 O 223.333 -1.93947 -0.0991344 0
M  V30 2379 C 220.463 -3.46475 0.239205 0
M  V30 2380 C 219.417 -4.10744 1.20307 0
M  V30 2381 C 218.743 -5.32293 0.50683 0
M  V30 2382 C 220.043 -4.55597 2.55399 0
M  V30 2383 H 221.737 -2.46439 1.70024 0
M  V30 2384 H 219.283 -1.18446 0.818935 0
M  V30 2385 H 221.236 -4.214 0.00392006 0
M  V30 2386 H 219.96 -3.19006 -0.700206 0
M  V30 2387 H 218.619 -3.37813 1.42399 0
M  V30 2388 H 218.267 -5.01095 -0.437408 0
M  V30 2389 H 217.967 -5.76243 1.1497 0
M  V30 2390 H 219.491 -6.09956 0.280351 0
M  V30 2391 H 220.905 -5.21841 2.37391 0
M  V30 2392 H 219.302 -5.10363 3.15673 0
M  V30 2393 H 220.372 -3.69013 3.14575 0
M  V30 2394 N 221.715 -0.905404 -1.28997 0
M  V30 2395 C 222.678 -0.392253 -2.25819 0
M  V30 2396 C 223.678 0.476753 -1.5357 0
M  V30 2397 O 224.868 0.280994 -1.71919 0
M  V30 2398 C 222 0.438588 -3.38067 0
M  V30 2399 H 223.193 -1.24743 -2.72725 0
M  V30 2400 H 220.746 -0.684051 -1.40536 0
M  V30 2401 H 221.481 1.31352 -2.96508 0
M  V30 2402 H 221.266 -0.184167 -3.91667 0
M  V30 2403 H 222.756 0.78873 -4.10084 0
M  V30 2404 N 223.193 1.4272 -0.668489 0
M  V30 2405 C 224.604 1.84793 -0.266151 0
M  V30 2406 C 224.955 1.55959 1.19043 0
M  V30 2407 O 224.08 1.01622 1.91055 0
M  V30 2408 C 224.675 3.35436 -0.476271 0
M  V30 2409 C 223.234 3.76182 -0.128113 0
M  V30 2410 C 222.381 2.66344 -0.771777 0
M  V30 2411 H 225.332 1.32656 -0.871098 0
M  V30 2412 H 225.353 3.79515 0.273561 0
M  V30 2413 H 224.865 3.5639 -1.53647 0
M  V30 2414 H 222.966 3.60836 0.928891 0
M  V30 2415 H 223.079 4.75766 -0.564231 0
M  V30 2416 H 221.443 2.53885 -0.203652 0
M  V30 2417 H 222.226 2.90123 -1.83531 0
M  V30 2418 N 224.671 0.411399 1.52136 0
M  V30 2419 C 225.899 -0.163076 2.06256 0
M  V30 2420 C 226.314 -1.3867 1.28125 0
M  V30 2421 O 225.671 -1.79423 0.333721 0
M  V30 2422 C 225.722 -0.511252 3.57867 0
M  V30 2423 O 225.443 0.66378 4.33042 0
M  V30 2424 C 226.944 -1.13921 4.28412 0
M  V30 2425 H 224.164 -0.0193897 0.67072 0
M  V30 2426 H 226.708 0.583007 1.96013 0
M  V30 2427 H 224.863 -1.20723 3.6811 0
M  V30 2428 H 225.277 0.372601 5.23175 0
M  V30 2429 H 226.751 -1.33302 5.35663 0
M  V30 2430 H 227.228 -2.11296 3.85033 0
M  V30 2431 H 227.834 -0.483373 4.22544 0
M  V30 2432 N 226.149 -1.5696 0.141893 0
M  V30 2433 C 227.379 -2.00031 -0.516828 0
M  V30 2434 C 227.787 -1.02091 -1.59293 0
M  V30 2435 O 227.13 -0.00909657 -1.83698 0
M  V30 2436 C 227.192 -3.39534 -1.1814 0
M  V30 2437 C 226.856 -4.56313 -0.250513 0
M  V30 2438 C 227.853 -5.17295 0.519839 0
M  V30 2439 C 225.538 -5.02061 -0.154907 0
M  V30 2440 C 227.532 -6.2243 1.3733 0
M  V30 2441 C 225.219 -6.07053 0.702161 0
M  V30 2442 C 226.217 -6.67106 1.46487 0
M  V30 2443 O 225.905 -7.70066 2.30767 0
M  V30 2444 H 225.637 -0.661451 -0.139493 0
M  V30 2445 H 228.191 -2.04086 0.231926 0
M  V30 2446 H 226.421 -3.32302 -1.97769 0
M  V30 2447 H 228.11 -3.66745 -1.73933 0
M  V30 2448 H 228.876 -4.82852 0.45598 0
M  V30 2449 H 224.755 -4.5505 -0.7383 0
M  V30 2450 H 228.299 -6.69233 1.96909 0
M  V30 2451 H 224.196 -6.40923 0.76733 0
M  V30 2452 H 224.964 -7.87264 2.23959 0
M  V30 2453 N 227.627 0.131896 -1.57047 0
M  V30 2454 C 228.59 1.14638 -1.98471 0
M  V30 2455 C 229.59 1.35029 -0.873148 0
M  V30 2456 O 230.78 1.31764 -1.13946 0
M  V30 2457 C 227.912 2.50358 -2.31373 0
M  V30 2458 H 229.105 0.79064 -2.8929 0
M  V30 2459 H 226.658 0.375761 -1.51716 0
M  V30 2460 H 227.393 2.90876 -1.43393 0
M  V30 2461 H 227.178 2.36915 -3.12432 0
M  V30 2462 H 228.668 3.23395 -2.64207 0
M  V30 2463 N 229.106 1.52395 0.401703 0
M  V30 2464 C 230.069 1.75636 1.47257 0
M  V30 2465 C 231.069 0.62628 1.48103 0
M  V30 2466 O 232.259 0.894227 1.49497 0
M  V30 2467 C 229.391 1.84553 2.86624 0
M  V30 2468 H 230.584 2.71241 1.27938 0
M  V30 2469 H 228.137 1.42923 0.632662 0
M  V30 2470 H 228.872 0.908882 3.11303 0
M  V30 2471 H 228.657 2.66715 2.87412 0
M  V30 2472 H 230.147 2.04251 3.64241 0
M  V30 2473 N 230.584 -0.659388 1.43143 0
M  V30 2474 C 231.83 -1.42145 1.44647 0
M  V30 2475 C 232.163 -1.9408 0.0681907 0
M  V30 2476 O 231.438 -1.71899 -0.910007 0
M  V30 2477 C 231.721 -2.60735 2.48373 0
M  V30 2478 C 231.574 -2.14332 3.95451 0
M  V30 2479 C 232.893 -3.62951 2.48906 0
M  V30 2480 H 230.012 -0.51552 0.526696 0
M  V30 2481 H 232.654 -0.748069 1.74654 0
M  V30 2482 H 230.804 -3.18184 2.22916 0
M  V30 2483 H 232.476 -1.61932 4.31944 0
M  V30 2484 H 230.719 -1.4576 4.08578 0
M  V30 2485 H 231.39 -2.99583 4.63631 0
M  V30 2486 H 233.866 -3.1525 2.71582 0
M  V30 2487 H 232.742 -4.43487 3.23435 0
M  V30 2488 H 233.003 -4.15126 1.52061 0
M  V30 2489 N 232.062 -1.29571 -0.897171 0
M  V30 2490 C 233.01 -1.14802 -2.02295 0
M  V30 2491 C 234.004 -0.0629637 -1.69283 0
M  V30 2492 O 235.21 -0.222945 -1.78614 0
M  V30 2493 H 231.585 -0.354692 -0.663097 0
M  V30 2494 H 233.556 -2.10108 -2.11889 0
M  V30 2495 C 232.305 -0.843966 -3.37302 0
M  V30 2496 H 231.628 -1.67093 -3.63208 0
M  V30 2497 H 233.068 -0.780672 -4.16751 0
M  V30 2498 C 231.527 0.452843 -3.33843 0
M  V30 2499 O 232.057 1.47813 -3.73516 0
M  V30 2500 N 230.263 0.459601 -2.86943 0
M  V30 2501 H 229.81 -0.375213 -2.54853 0
M  V30 2502 H 229.768 1.32726 -2.85011 0
M  V30 2503 N 233.54 1.10788 -1.12088 0
M  V30 2504 C 234.503 2.15207 -0.788577 0
M  V30 2505 C 235.503 1.59609 0.195317 0
M  V30 2506 O 236.693 1.74174 -0.0300193 0
M  V30 2507 C 233.825 3.4047 -0.171174 0
M  V30 2508 H 235.018 2.46116 -1.71368 0
M  V30 2509 H 232.571 1.26089 -0.923652 0
M  V30 2510 H 233.306 3.15176 0.763832 0
M  V30 2511 H 233.091 3.82109 -0.879514 0
M  V30 2512 H 234.581 4.17576 0.04496 0
M  V30 2513 N 235.018 0.912232 1.28515 0
M  V30 2514 C 235.948 0.416403 2.29757 0
M  V30 2515 C 236.929 -0.515194 1.6211 0
M  V30 2516 O 238.114 -0.423253 1.89532 0
M  V30 2517 C 235.244 -0.34572 3.45575 0
M  V30 2518 C 234.198 0.496599 4.25109 0
M  V30 2519 C 233.524 -0.393771 5.33248 0
M  V30 2520 C 234.824 1.75307 4.92001 0
M  V30 2521 H 236.518 1.26249 2.7148 0
M  V30 2522 H 234.064 0.608515 1.30511 0
M  V30 2523 H 236.017 -0.703422 4.15488 0
M  V30 2524 H 234.741 -1.2257 3.02728 0
M  V30 2525 H 233.4 0.8368 3.56922 0
M  V30 2526 H 233.048 -1.27225 4.86644 0
M  V30 2527 H 232.748 0.166209 5.87365 0
M  V30 2528 H 234.272 -0.747389 6.06009 0
M  V30 2529 H 235.686 1.46437 5.54283 0
M  V30 2530 H 234.083 2.25534 5.56106 0
M  V30 2531 H 235.153 2.48176 4.16577 0
M  V30 2532 N 236.496 -1.42363 0.676048 0
M  V30 2533 C 237.736 -2.03392 0.20273 0
M  V30 2534 C 238.1 -1.52306 -1.16906 0
M  V30 2535 O 239.301 -2.05129 -1.73711 0
M  V30 2536 C 237.572 -3.56614 0.236947 0
M  V30 2537 S 239.131 -4.38489 -0.165186 0
M  V30 2538 H 235.949 -0.70611 0.0832418 0
M  V30 2539 H 238.551 -1.74093 0.88948 0
M  V30 2540 H 237.255 -3.91293 1.23767 0
M  V30 2541 H 236.786 -3.90587 -0.469596 0
M  V30 2542 H 238.801 -4.76093 -1.39822 0
M  V30 2543 N 237.974 -0.419461 -1.51915 0
M  V30 2544 C 239.223 0.154346 -2.01109 0
M  V30 2545 C 239.536 1.45338 -1.30905 0
M  V30 2546 O 240.742 2.10906 -1.7097 0
M  V30 2547 C 239.198 0.325615 -3.58424 0
M  V30 2548 C 238.806 -0.961934 -4.37551 0
M  V30 2549 C 240.55 0.854155 -4.15818 0
M  V30 2550 C 238.457 -0.757287 -5.86531 0
M  V30 2551 H 237.387 0.0614563 -0.751491 0
M  V30 2552 H 240.038 -0.54649 -1.75173 0
M  V30 2553 H 238.42 1.08903 -3.80731 0
M  V30 2554 H 239.594 -1.7323 -4.26999 0
M  V30 2555 H 237.909 -1.41766 -3.91524 0
M  V30 2556 H 240.506 1.02346 -5.24814 0
M  V30 2557 H 240.849 1.83172 -3.73837 0
M  V30 2558 H 241.382 0.149528 -3.97519 0
M  V30 2559 H 238.121 -1.70671 -6.32892 0
M  V30 2560 H 237.641 -0.0264061 -5.99794 0
M  V30 2561 H 239.32 -0.403482 -6.45741 0
M  V30 2562 N 239.452 1.56882 -0.150215 0
M  V30 2563 C 240.701 1.95403 0.500071 0
M  V30 2564 C 241.014 1.03777 1.658 0
M  V30 2565 O 242.22 1.31889 2.37313 0
M  V30 2566 C 240.676 3.4738 0.941018 0
M  V30 2567 C 240.284 4.47596 -0.190158 0
M  V30 2568 C 242.028 3.9476 1.56091 0
M  V30 2569 C 239.935 5.90787 0.269237 0
M  V30 2570 H 238.865 0.729515 0.190588 0
M  V30 2571 H 241.516 1.81988 -0.235074 0
M  V30 2572 H 239.898 3.56138 1.73152 0
M  V30 2573 H 241.072 4.50536 -0.967157 0
M  V30 2574 H 239.387 4.10151 -0.718666 0
M  V30 2575 H 241.984 4.99181 1.9163 0
M  V30 2576 H 242.327 3.36494 2.45107 0
M  V30 2577 H 242.86 3.88932 0.835249 0
M  V30 2578 H 239.599 6.52879 -0.585621 0
M  V30 2579 H 239.119 5.912 1.01204 0
M  V30 2580 H 240.798 6.42979 0.720176 0
M  V30 2581 N 240.93 -0.123565 1.57115 0
M  V30 2582 C 242.178 -0.83051 1.84247 0
M  V30 2583 C 242.499 -1.80629 0.73471 0
M  V30 2584 O 241.769 -1.94403 -0.241688 0
M  V30 2585 H 240.349 -0.309694 0.679778 0
M  V30 2586 H 243.011 -0.111976 1.94578 0
M  V30 2587 H 242.107 -1.37852 2.80006 0
M  V30 2588 N 242.408 -1.52605 -0.393616 0
M  V30 2589 C 243.636 -1.71294 -1.16043 0
M  V30 2590 C 244.051 -0.429259 -1.83855 0
M  V30 2591 O 243.408 0.595921 -1.72496 0
M  V30 2592 C 243.459 -2.8593 -2.21193 0
M  V30 2593 O 243.18 -4.09329 -1.56146 0
M  V30 2594 C 244.681 -3.16259 -3.10636 0
M  V30 2595 H 241.901 -0.573641 -0.348104 0
M  V30 2596 H 244.445 -1.99234 -0.461092 0
M  V30 2597 H 242.6 -2.60465 -2.86769 0
M  V30 2598 H 243.014 -4.73323 -2.25978 0
M  V30 2599 H 244.488 -3.99946 -3.80456 0
M  V30 2600 H 244.965 -2.3045 -3.73884 0
M  V30 2601 H 245.571 -3.43547 -2.50711 0
M  V30 2602 N 243.887 0.651787 -1.4349 0
M  V30 2603 C 244.797 1.79368 -1.5121 0
M  V30 2604 C 245.813 1.69361 -0.399093 0
M  V30 2605 O 246.989 1.90505 -0.653431 0
M  V30 2606 C 244.054 3.15653 -1.43401 0
M  V30 2607 C 243.115 3.37446 -2.65384 0
M  V30 2608 C 242.348 4.67229 -2.57939 0
M  V30 2609 O 242.571 5.46676 -1.62792 0
M  V30 2610 O 241.505 4.90773 -3.48462 0
M  V30 2611 H 245.331 1.7581 -2.47638 0
M  V30 2612 H 242.916 0.810447 -1.25507 0
M  V30 2613 H 244.798 3.96935 -1.41494 0
M  V30 2614 H 243.473 3.19798 -0.501085 0
M  V30 2615 H 242.38 2.55923 -2.72863 0
M  V30 2616 H 243.713 3.38148 -3.57654 0
M  V30 2617 N 245.365 1.30045 0.890287 0
M  V30 2618 C 246.275 1.17885 2.02831 0
M  V30 2619 C 247.291 0.0999609 1.73713 0
M  V30 2620 O 248.467 0.313867 1.98939 0
M  V30 2621 C 245.532 0.866079 3.35708 0
M  V30 2622 C 244.593 2.02979 3.78283 0
M  V30 2623 C 243.826 1.73184 5.0482 0
M  V30 2624 O 244.049 0.657237 5.66601 0
M  V30 2625 O 242.983 2.58267 5.43674 0
M  V30 2626 H 246.809 2.13474 2.16015 0
M  V30 2627 H 244.394 1.09587 1.01543 0
M  V30 2628 H 246.276 0.706623 4.15433 0
M  V30 2629 H 244.951 -0.0599443 3.23644 0
M  V30 2630 H 243.858 2.24454 2.99285 0
M  V30 2631 H 245.191 2.93734 3.94944 0
M  V30 2632 N 246.843 -1.10192 1.12674 0
M  V30 2633 C 247.806 -2.14786 0.799979 0
M  V30 2634 C 248.806 -1.59711 -0.18685 0
M  V30 2635 O 249.996 -1.74156 0.0392558 0
M  V30 2636 C 247.128 -3.40374 0.189228 0
M  V30 2637 H 248.321 -2.45203 1.72671 0
M  V30 2638 H 245.874 -1.25597 0.930326 0
M  V30 2639 H 246.609 -3.15577 -0.747107 0
M  V30 2640 H 246.394 -3.81637 0.899766 0
M  V30 2641 H 247.884 -4.17594 -0.0228143 0
M  V30 2642 N 248.321 -0.919034 -1.28029 0
M  V30 2643 C 249.551 -0.570143 -1.98577 0
M  V30 2644 C 249.959 0.854172 -1.68821 0
M  V30 2645 O 249.302 1.57807 -0.940351 0
M  V30 2646 C 249.364 -0.705734 -3.52505 0
M  V30 2647 C 249.028 -2.10057 -4.05863 0
M  V30 2648 C 250.025 -3.07385 -4.19298 0
M  V30 2649 C 247.71 -2.41517 -4.40426 0
M  V30 2650 C 249.704 -4.34287 -4.66555 0
M  V30 2651 C 247.391 -3.68657 -4.87376 0
M  V30 2652 C 248.389 -4.64856 -5.00398 0
M  V30 2653 O 248.077 -5.89735 -5.46322 0
M  V30 2654 H 247.809 -0.215592 -0.6407 0
M  V30 2655 H 250.363 -1.23583 -1.64062 0
M  V30 2656 H 248.593 0.0170414 -3.86696 0
M  V30 2657 H 250.282 -0.363172 -4.04272 0
M  V30 2658 H 251.048 -2.84398 -3.92865 0
M  V30 2659 H 246.927 -1.67389 -4.29537 0
M  V30 2660 H 250.471 -5.09377 -4.76635 0
M  V30 2661 H 246.368 -3.91466 -5.13249 0
M  V30 2662 H 247.136 -5.92599 -5.64596 0
M  V30 2663 N 249.799 1.42003 -0.683588 0
M  V30 2664 C 251.076 1.95112 -0.138075 0
M  V30 2665 C 251.456 1.62359 1.34918 0
M  V30 2666 O 250.804 0.924311 2.08971 0
M  V30 2667 C 251.014 3.46505 -0.416581 0
M  V30 2668 C 252.362 4.23254 -0.337834 0
M  V30 2669 O 253.386 3.54468 -0.35082 0
M  V30 2670 O 252.245 5.45743 -0.287596 0
M  V30 2671 H 249.339 0.826961 -0.00797996 0
M  V30 2672 H 251.885 1.51784 -0.758924 0
M  V30 2673 H 250.657 3.63582 -1.4465 0
M  V30 2674 H 250.28 3.969 0.235839 0
M  V30 2675 N 251.277 0.427512 1.51691 0
M  V30 2676 C 252.526 -0.143679 2.01188 0
M  V30 2677 C 252.839 -1.44642 1.31674 0
M  V30 2678 O 254.045 -2.09997 1.72086 0
M  V30 2679 C 252.501 -0.306602 3.58592 0
M  V30 2680 C 252.109 0.985125 4.37035 0
M  V30 2681 C 253.853 -0.832091 4.16265 0
M  V30 2682 C 251.76 0.788382 5.86122 0
M  V30 2683 H 250.69 -0.0574701 0.751807 0
M  V30 2684 H 253.341 0.555772 1.74881 0
M  V30 2685 H 251.723 -1.06882 3.81303 0
M  V30 2686 H 252.897 1.75492 4.26074 0
M  V30 2687 H 251.212 1.4384 3.90767 0
M  V30 2688 H 253.809 -0.995617 5.25349 0
M  V30 2689 H 254.152 -1.81186 3.74803 0
M  V30 2690 H 254.685 -0.128444 3.97593 0
M  V30 2691 H 251.424 1.74025 6.31978 0
M  V30 2692 H 250.944 0.0582143 5.99772 0
M  V30 2693 H 252.623 0.437722 6.45518 0
M  V30 2694 N 252.755 -1.56801 0.158532 0
M  V30 2695 C 254.004 -1.95665 -0.489702 0
M  V30 2696 C 254.317 -1.04654 -1.65248 0
M  V30 2697 O 255.523 -1.33146 -2.3661 0
M  V30 2698 C 253.979 -3.47874 -0.922582 0
M  V30 2699 C 253.587 -4.47489 0.213893 0
M  V30 2700 C 255.331 -3.95583 -1.53996 0
M  V30 2701 C 253.238 -5.90921 -0.237903 0
M  V30 2702 H 252.168 -0.730516 -0.186716 0
M  V30 2703 H 254.819 -1.81861 0.244722 0
M  V30 2704 H 253.201 -3.57051 -1.71261 0
M  V30 2705 H 254.375 -4.50017 0.991036 0
M  V30 2706 H 252.69 -4.09764 0.740407 0
M  V30 2707 H 255.287 -5.0019 -1.8898 0
M  V30 2708 H 255.63 -3.37789 -2.43319 0
M  V30 2709 H 256.163 -3.8937 -0.814611 0
M  V30 2710 H 252.902 -6.52559 0.620236 0
M  V30 2711 H 252.422 -5.91729 -0.980676 0
M  V30 2712 H 254.101 -6.43352 -0.686067 0
M  V30 2713 N 254.233 0.115231 -1.57178 0
M  V30 2714 C 255.181 1.16014 -2.01602 0
M  V30 2715 C 256.175 1.42653 -0.913587 0
M  V30 2716 O 257.381 1.42571 -1.09879 0
M  V30 2717 H 253.756 0.391252 -0.642204 0
M  V30 2718 H 255.727 0.758998 -2.88586 0
M  V30 2719 C 254.476 2.47767 -2.4394 0
M  V30 2720 H 253.799 2.28108 -3.28339 0
M  V30 2721 H 255.239 3.19432 -2.78818 0
M  V30 2722 C 253.698 3.10617 -1.30455 0
M  V30 2723 O 254.228 3.96846 -0.622585 0
M  V30 2724 N 252.434 2.70553 -1.06064 0
M  V30 2725 H 251.981 2.00527 -1.61699 0
M  V30 2726 H 251.939 3.12934 -0.303284 0
M  V30 2727 N 255.711 1.52812 0.385517 0
M  V30 2728 C 257.127 1.4214 0.725829 0
M  V30 2729 C 257.327 0.544589 1.94001 0
M  V30 2730 O 256.383 0.0193693 2.52493 0
M  V30 2731 C 257.696 2.85042 0.957668 0
M  V30 2732 C 259.244 2.94543 1.05892 0
M  V30 2733 C 259.719 4.38464 1.32337 0
M  V30 2734 N 261.21 4.41804 1.39151 0
M  V30 2735 C 261.945 5.5025 1.61285 0
M  V30 2736 N 261.441 6.68775 1.80866 0
M  V30 2737 N 263.234 5.37798 1.63492 0
M  V30 2738 H 255.385 2.08338 -0.413383 0
M  V30 2739 H 257.648 0.940016 -0.122775 0
M  V30 2740 H 257.354 3.51431 0.137568 0
M  V30 2741 H 257.228 3.27505 1.87137 0
M  V30 2742 H 259.615 2.28321 1.86959 0
M  V30 2743 H 259.696 2.55504 0.123057 0
M  V30 2744 H 259.34 5.05254 0.517793 0
M  V30 2745 H 259.27 4.75059 2.27214 0
M  V30 2746 H 261.761 3.56377 1.25713 0
M  V30 2747 H 262.074 7.47197 1.97271 0
M  V30 2748 H 260.419 6.71797 1.78083 0
M  V30 2749 H 263.61 4.44171 1.47749 0
M  V30 2750 H 263.783 6.22382 1.80402 0
M  V30 2751 N 257.189 -0.644168 1.43834 0
M  V30 2752 C 258.099 -1.78563 1.52159 0
M  V30 2753 C 259.115 -1.69147 0.408069 0
M  V30 2754 O 260.291 -1.90156 0.663524 0
M  V30 2755 C 257.356 -3.14888 1.45073 0
M  V30 2756 C 256.417 -3.36034 2.6717 0
M  V30 2757 C 255.65 -4.65855 2.60413 0
M  V30 2758 O 255.873 -5.45805 1.65689 0
M  V30 2759 O 254.807 -4.88918 3.5106 0
M  V30 2760 H 258.633 -1.74494 2.48567 0
M  V30 2761 H 256.218 -0.80378 1.25935 0
M  V30 2762 H 258.1 -3.96179 1.43597 0
M  V30 2763 H 256.775 -3.19528 0.518037 0
M  V30 2764 H 255.682 -2.54472 2.74217 0
M  V30 2765 H 257.015 -3.36247 3.59442 0
M  V30 2766 N 258.668 -1.30515 -0.883378 0
M  V30 2767 C 259.615 -1.17032 -1.98927 0
M  V30 2768 C 260.585 -0.0594241 -1.65994 0
M  V30 2769 O 261.77 -0.229895 -1.8941 0
M  V30 2770 C 258.91 -0.869777 -3.33959 0
M  V30 2771 C 258.023 -2.06271 -3.79574 0
M  V30 2772 C 257.158 -1.70011 -5.03259 0
M  V30 2773 C 256.197 -2.8579 -5.41286 0
M  V30 2774 N 255.334 -2.49816 -6.56153 0
M  V30 2775 H 260.174 -2.1164 -2.09792 0
M  V30 2776 H 257.711 -1.05296 -1.02719 0
M  V30 2777 H 259.669 -0.676138 -4.11685 0
M  V30 2778 H 258.299 0.0394332 -3.22776 0
M  V30 2779 H 257.351 -2.36755 -2.97744 0
M  V30 2780 H 258.663 -2.92971 -4.03694 0
M  V30 2781 H 257.817 -1.47032 -5.88614 0
M  V30 2782 H 256.556 -0.804829 -4.81013 0
M  V30 2783 H 255.561 -3.09434 -4.54456 0
M  V30 2784 H 256.786 -3.76008 -5.65504 0
M  V30 2785 H 254.732 -1.62795 -6.35479 0
M  V30 2786 H 254.649 -3.30048 -6.8015 0
M  V30 2787 H 255.917 -2.30197 -7.44735 0
M  V30 2788 N 260.146 1.09593 -1.13257 0
M  V30 2789 C 261.076 2.18214 -0.830946 0
M  V30 2790 C 262.057 1.68812 0.208966 0
M  V30 2791 O 263.242 1.9408 0.0682666 0
M  V30 2792 C 260.372 3.46051 -0.294296 0
M  V30 2793 C 259.326 4.08778 -1.26826 0
M  V30 2794 C 258.652 5.31419 -0.591449 0
M  V30 2795 C 259.952 4.51476 -2.62615 0
M  V30 2796 H 261.646 2.43703 -1.73923 0
M  V30 2797 H 259.192 1.17128 -0.837675 0
M  V30 2798 H 261.145 4.2134 -0.0709606 0
M  V30 2799 H 259.869 3.20079 0.649366 0
M  V30 2800 H 258.528 3.35505 -1.47756 0
M  V30 2801 H 258.176 5.01727 0.357633 0
M  V30 2802 H 257.876 5.74341 -1.24123 0
M  V30 2803 H 259.4 6.09433 -0.377355 0
M  V30 2804 H 260.814 5.17999 -2.45663 0
M  V30 2805 H 259.211 5.05277 -3.23752 0
M  V30 2806 H 260.281 3.63962 -3.20406 0
M  V30 2807 N 261.624 0.925811 1.2754 0
M  V30 2808 C 262.554 0.440748 2.29303 0
M  V30 2809 C 263.535 -0.497971 1.62648 0
M  V30 2810 O 264.72 -0.403126 1.8997 0
M  V30 2811 C 261.85 -0.309048 3.45922 0
M  V30 2812 C 260.804 0.54166 4.24559 0
M  V30 2813 C 260.13 -0.337191 5.33636 0
M  V30 2814 C 261.43 1.80516 4.90114 0
M  V30 2815 H 263.124 1.29121 2.70126 0
M  V30 2816 H 260.67 0.622323 1.29858 0
M  V30 2817 H 262.623 -0.659315 4.1621 0
M  V30 2818 H 261.347 -1.19352 3.04011 0
M  V30 2819 H 260.006 0.874609 3.56014 0
M  V30 2820 H 259.654 -1.22056 4.87966 0
M  V30 2821 H 259.354 0.228497 5.87156 0
M  V30 2822 H 260.878 -0.683072 6.06767 0
M  V30 2823 H 262.292 1.52307 5.52698 0
M  V30 2824 H 260.689 2.3142 5.53683 0
M  V30 2825 H 261.759 2.52581 4.13921 0
M  V30 2826 N 263.102 -1.41638 0.69111 0
M  V30 2827 C 264.034 -2.29194 -0.0161523 0
M  V30 2828 C 265.047 -1.44549 -0.748955 0
M  V30 2829 O 266.236 -1.681 -0.6004 0
M  V30 2830 C 263.336 -3.22325 -1.0469 0
M  V30 2831 C 262.509 -4.35706 -0.384621 0
M  V30 2832 C 261.568 -5.09443 -1.31737 0
M  V30 2833 O 260.594 -5.63386 -0.811451 0
M  V30 2834 N 261.796 -5.16487 -2.64993 0
M  V30 2835 H 264.561 -2.90534 0.735523 0
M  V30 2836 H 262.122 -1.52742 0.53679 0
M  V30 2837 H 264.114 -3.68522 -1.67252 0
M  V30 2838 H 262.684 -2.62323 -1.70015 0
M  V30 2839 H 261.904 -3.91948 0.420804 0
M  V30 2840 H 263.192 -5.08743 0.0760765 0
M  V30 2841 H 262.59 -4.741 -3.08619 0
M  V30 2842 H 261.147 -5.66276 -3.22761 0
M  V30 2843 N 264.58 -0.43555 -1.51462 0
M  V30 2844 C 265.81 0.130053 -2.0619 0
M  V30 2845 C 266.218 1.37164 -1.30317 0
M  V30 2846 O 265.561 1.80225 -0.355598 0
M  V30 2847 C 265.623 0.519418 -3.55728 0
M  V30 2848 C 265.287 -0.615119 -4.52841 0
M  V30 2849 C 266.284 -1.48671 -4.9819 0
M  V30 2850 C 263.969 -0.795341 -4.95963 0
M  V30 2851 C 265.963 -2.52324 -5.8533 0
M  V30 2852 C 263.65 -1.83514 -5.82894 0
M  V30 2853 C 264.648 -2.69748 -6.27475 0
M  V30 2854 O 264.336 -3.71944 -7.1268 0
M  V30 2855 H 264.068 0.0121612 -0.675891 0
M  V30 2856 H 266.622 -0.6129 -1.96043 0
M  V30 2857 H 264.852 1.31505 -3.63653 0
M  V30 2858 H 266.541 1.01597 -3.92979 0
M  V30 2859 H 267.307 -1.359 -4.65571 0
M  V30 2860 H 263.186 -0.133713 -4.60806 0
M  V30 2861 H 266.73 -3.19665 -6.20048 0
M  V30 2862 H 262.627 -1.96306 -6.14926 0
M  V30 2863 H 263.395 -3.68503 -7.30854 0
M  V30 2864 N 266.058 1.56714 -0.166846 0
M  V30 2865 C 266.988 2.20754 0.760913 0
M  V30 2866 C 267.969 1.16178 1.24244 0
M  V30 2867 O 269.154 1.44592 1.29641 0
M  V30 2868 C 266.284 2.84478 1.99223 0
M  V30 2869 C 265.238 3.95053 1.64672 0
M  V30 2870 C 264.564 4.45805 2.95232 0
M  V30 2871 C 265.864 5.14865 0.878155 0
M  V30 2872 H 267.558 2.98537 0.22713 0
M  V30 2873 H 265.104 1.43596 0.107805 0
M  V30 2874 H 267.057 3.27951 2.64624 0
M  V30 2875 H 265.781 2.04056 2.55007 0
M  V30 2876 H 264.44 3.52228 1.01641 0
M  V30 2877 H 264.088 3.62181 3.49047 0
M  V30 2878 H 263.788 5.204 2.7287 0
M  V30 2879 H 265.312 4.91962 3.6167 0
M  V30 2880 H 266.726 5.55059 1.43466 0
M  V30 2881 H 265.123 5.95348 0.753738 0
M  V30 2882 H 266.193 4.84735 -0.126377 0
M  V30 2883 N 267.536 -0.106894 1.57237 0
M  V30 2884 C 268.766 -0.825191 1.89405 0
M  V30 2885 C 269.174 -1.73374 0.757496 0
M  V30 2886 O 268.517 -1.81552 -0.280115 0
M  V30 2887 C 268.579 -1.70102 3.1671 0
M  V30 2888 C 268.243 -0.965523 4.46684 0
M  V30 2889 C 269.24 -0.300741 5.19029 0
M  V30 2890 C 266.925 -0.943105 4.93367 0
M  V30 2891 C 268.919 0.376622 6.36286 0
M  V30 2892 C 266.606 -0.261949 6.10538 0
M  V30 2893 C 267.604 0.396748 6.81847 0
M  V30 2894 O 267.292 1.06701 7.96787 0
M  V30 2895 H 267.024 -0.241852 0.631255 0
M  V30 2896 H 269.578 -0.0921491 2.05193 0
M  V30 2897 H 267.808 -2.47601 2.97036 0
M  V30 2898 H 269.497 -2.29483 3.34802 0
M  V30 2899 H 270.263 -0.309599 4.84011 0
M  V30 2900 H 266.142 -1.44524 4.3776 0
M  V30 2901 H 269.686 0.891334 6.91882 0
M  V30 2902 H 265.583 -0.250896 6.45012 0
M  V30 2903 H 266.351 0.972707 8.127 0
M  V30 2904 N 269.014 -1.53014 -0.377408 0
M  V30 2905 C 270.239 -1.72818 -1.14668 0
M  V30 2906 C 270.664 -0.450725 -1.8262 0
M  V30 2907 O 270.022 0.59439 -1.7128 0
M  V30 2908 C 270.07 -2.88627 -2.16164 0
M  V30 2909 O 269.174 -2.56409 -3.22998 0
M  V30 2910 H 268.515 -0.574301 -0.333278 0
M  V30 2911 H 271.045 -1.99853 -0.438152 0
M  V30 2912 H 271.055 -3.14455 -2.59966 0
M  V30 2913 H 269.73 -3.81294 -1.66095 0
M  V30 2914 H 268.307 -2.4136 -2.84253 0
M  V30 2915 N 270.492 0.636531 -1.44174 0
M  V30 2916 C 271.422 1.76003 -1.53444 0
M  V30 2917 C 272.403 1.65619 -0.387841 0
M  V30 2918 O 273.588 1.84461 -0.607257 0
M  V30 2919 C 270.718 3.14511 -1.4731 0
M  V30 2920 C 269.672 3.39677 -2.60391 0
M  V30 2921 C 268.998 4.78159 -2.39308 0
M  V30 2922 C 270.298 3.32772 -4.02567 0
M  V30 2923 H 271.992 1.68501 -2.47483 0
M  V30 2924 H 269.538 0.809237 -1.19111 0
M  V30 2925 H 271.491 3.92878 -1.52397 0
M  V30 2926 H 270.215 3.22783 -0.49785 0
M  V30 2927 H 268.874 2.63688 -2.54684 0
M  V30 2928 H 268.522 4.83128 -1.39988 0
M  V30 2929 H 268.222 4.95956 -3.15122 0
M  V30 2930 H 269.746 5.58762 -2.46205 0
M  V30 2931 H 271.16 4.01051 -4.09672 0
M  V30 2932 H 269.557 3.62104 -4.7854 0
M  V30 2933 H 270.627 2.30669 -4.2652 0
M  V30 2934 N 271.97 1.30982 0.876444 0
M  V30 2935 C 272.917 1.18085 1.98304 0
M  V30 2936 C 273.887 0.0682263 1.6596 0
M  V30 2937 O 275.072 0.239937 1.89285 0
M  V30 2938 C 272.212 0.887475 3.33493 0
M  V30 2939 C 271.325 2.08281 3.78475 0
M  V30 2940 C 270.46 1.72678 5.0235 0
M  V30 2941 C 269.499 2.88657 5.39762 0
M  V30 2942 N 268.636 2.53292 6.54819 0
M  V30 2943 H 273.476 2.1275 2.08666 0
M  V30 2944 H 271.013 1.05839 1.02159 0
M  V30 2945 H 272.971 0.697961 4.1132 0
M  V30 2946 H 271.601 -0.022315 3.22792 0
M  V30 2947 H 270.653 2.3833 2.96484 0
M  V30 2948 H 271.965 2.95108 4.02135 0
M  V30 2949 H 271.119 1.50151 5.87826 0
M  V30 2950 H 269.858 0.830327 4.8058 0
M  V30 2951 H 268.863 3.1184 4.52809 0
M  V30 2952 H 270.088 3.79002 5.63502 0
M  V30 2953 H 268.034 1.66163 6.34607 0
M  V30 2954 H 267.951 3.3365 6.7839 0
M  V30 2955 H 269.219 2.34143 7.43503 0
M  V30 2956 N 273.449 -1.08991 1.13837 0
M  V30 2957 C 274.381 -2.15606 0.777612 0
M  V30 2958 C 275.394 -1.61533 -0.202739 0
M  V30 2959 O 276.583 -1.78491 0.0181055 0
M  V30 2960 C 273.683 -3.3864 0.132623 0
M  V30 2961 C 272.856 -4.22115 1.1462 0
M  V30 2962 C 271.915 -5.23564 0.526074 0
M  V30 2963 O 270.941 -5.56678 1.18735 0
M  V30 2964 N 272.143 -5.76266 -0.699866 0
M  V30 2965 H 274.908 -2.47159 1.69506 0
M  V30 2966 H 272.469 -1.24747 1.03198 0
M  V30 2967 H 274.461 -4.03626 -0.29459 0
M  V30 2968 H 273.031 -3.04938 -0.687849 0
M  V30 2969 H 272.251 -3.53199 1.75055 0
M  V30 2970 H 273.539 -4.74709 1.83109 0
M  V30 2971 H 272.937 -5.51585 -1.25581 0
M  V30 2972 H 271.494 -6.42963 -1.06968 0
M  V30 2973 N 274.927 -0.932562 -1.27047 0
M  V30 2974 C 276.338 -0.619451 -1.76124 0
M  V30 2975 C 276.689 0.865397 -1.76083 0
M  V30 2976 O 275.814 1.67722 -1.36742 0
M  V30 2977 C 276.409 -1.11771 -3.19832 0
M  V30 2978 C 274.968 -0.855174 -3.66557 0
M  V30 2979 C 274.115 -1.27362 -2.46321 0
M  V30 2980 H 277.066 -1.11181 -1.13245 0
M  V30 2981 H 277.087 -0.46759 -3.77616 0
M  V30 2982 H 276.599 -2.19842 -3.1983 0
M  V30 2983 H 274.7 0.211524 -3.71999 0
M  V30 2984 H 274.813 -1.47613 -4.55793 0
M  V30 2985 H 273.177 -0.692119 -2.45116 0
M  V30 2986 H 273.96 -2.36307 -2.49025 0
M  V30 2987 N 276.405 1.4127 -0.698611 0
M  V30 2988 C 277.682 1.94955 -0.158762 0
M  V30 2989 C 278.062 1.63781 1.33188 0
M  V30 2990 O 277.41 0.946423 2.07979 0
M  V30 2991 C 277.62 3.46044 -0.453309 0
M  V30 2992 C 278.968 4.22872 -0.382707 0
M  V30 2993 O 279.992 3.54076 -0.388396 0
M  V30 2994 O 278.851 5.45407 -0.345463 0
M  V30 2995 H 275.945 0.82683 -0.0167505 0
M  V30 2996 H 278.491 1.50971 -0.77498 0
M  V30 2997 H 277.263 3.62028 -1.48498 0
M  V30 2998 H 276.886 3.97128 0.19373 0
M  V30 2999 N 277.883 0.443576 1.51229 0
M  V30 3000 C 279.131 -0.120557 2.0174 0
M  V30 3001 C 279.452 -1.42665 1.32935 0
M  V30 3002 O 278.722 -1.9028 0.465866 0
M  V30 3003 H 277.302 -0.0475426 0.745486 0
M  V30 3004 H 279.964 0.587711 1.85828 0
M  V30 3005 H 279.06 -0.291972 3.10731 0
M  V30 3006 N 279.361 -1.56624 0.175154 0
M  V30 3007 C 280.586 -2.01813 -0.478137 0
M  V30 3008 C 281.011 -1.05457 -1.55757 0
M  V30 3009 O 280.369 -0.0347439 -1.81267 0
M  V30 3010 C 280.417 -3.45581 -1.02987 0
M  V30 3011 O 279.521 -3.52305 -2.14371 0
M  V30 3012 H 278.862 -0.65413 -0.114059 0
M  V30 3013 H 281.392 -2.02673 0.280173 0
M  V30 3014 H 281.402 -3.84965 -1.35151 0
M  V30 3015 H 280.077 -4.1521 -0.239556 0
M  V30 3016 H 278.654 -3.24783 -1.83222 0
M  V30 3017 N 280.839 0.0985539 -1.57292 0
M  V30 3018 C 282.086 0.802678 -1.85912 0
M  V30 3019 C 282.414 1.78901 -0.763186 0
M  V30 3020 O 281.669 1.94178 0.243559 0
M  V30 3021 C 281.968 1.56927 -3.21105 0
M  V30 3022 C 281.634 0.725376 -4.45027 0
M  V30 3023 C 280.296 0.492726 -4.78671 0
M  V30 3024 C 282.648 0.138493 -5.21016 0
M  V30 3025 C 279.976 -0.336727 -5.85733 0
M  V30 3026 C 282.328 -0.678264 -6.28953 0
M  V30 3027 C 280.992 -0.921039 -6.61115 0
M  V30 3028 H 280.262 0.293721 -0.680301 0
M  V30 3029 H 282.909 0.0642841 -1.91392 0
M  V30 3030 H 281.214 2.37914 -3.11294 0
M  V30 3031 H 282.911 2.11841 -3.40477 0
M  V30 3032 H 279.501 0.916815 -4.18679 0
M  V30 3033 H 283.685 0.305404 -4.95359 0
M  V30 3034 H 278.941 -0.533836 -6.09065 0
M  V30 3035 H 283.115 -1.1399 -6.87007 0
M  V30 3036 H 280.742 -1.56556 -7.43905 0
M  V30 3037 N 282.317 1.53212 0.369288 0
M  V30 3038 C 283.247 1.82365 1.45826 0
M  V30 3039 C 284.228 0.676907 1.56051 0
M  V30 3040 O 285.413 0.926401 1.70679 0
M  V30 3041 C 282.543 2.01023 2.83208 0
M  V30 3042 C 281.497 3.1678 2.8781 0
M  V30 3043 C 280.823 3.20724 4.27832 0
M  V30 3044 C 282.123 4.55447 2.55667 0
M  V30 3045 H 283.817 2.73559 1.21678 0
M  V30 3046 H 281.363 1.3163 0.583911 0
M  V30 3047 H 283.316 2.20001 3.59413 0
M  V30 3048 H 282.04 1.06536 3.08736 0
M  V30 3049 H 280.699 2.97616 2.14056 0
M  V30 3050 H 280.347 2.23882 4.50429 0
M  V30 3051 H 280.047 3.98496 4.31827 0
M  V30 3052 H 281.571 3.41881 5.05915 0
M  V30 3053 H 282.985 4.74611 3.21586 0
M  V30 3054 H 281.382 5.35432 2.70984 0
M  V30 3055 H 282.452 4.60812 1.5093 0
M  V30 3056 N 283.795 -0.628877 1.44509 0
M  V30 3057 C 284.728 -1.75367 1.46019 0
M  V30 3058 C 285.706 -1.59444 0.318787 0
M  V30 3059 O 286.89 -1.81297 0.516099 0
M  V30 3060 C 284.017 -3.12965 1.29501 0
M  V30 3061 C 283.063 -3.47532 2.47233 0
M  V30 3062 S 283.896 -3.44758 4.09758 0
M  V30 3063 C 285.052 -4.84973 3.95667 0
M  V30 3064 H 285.285 -1.7382 2.41193 0
M  V30 3065 H 282.818 -0.803686 1.31834 0
M  V30 3066 H 284.776 -3.92367 1.20658 0
M  V30 3067 H 283.437 -3.12049 0.358341 0
M  V30 3068 H 282.63 -4.47664 2.31544 0
M  V30 3069 H 282.232 -2.75598 2.52828 0
M  V30 3070 H 284.524 -5.74255 3.59496 0
M  V30 3071 H 285.467 -5.05716 4.95638 0
M  V30 3072 H 285.875 -4.59653 3.27688 0
M  V30 3073 N 285.273 -1.31445 -0.869486 0
M  V30 3074 C 286.223 -1.15731 -1.96444 0
M  V30 3075 C 287.207 -0.0681855 -1.60755 0
M  V30 3076 O 288.399 -0.293154 -1.74555 0
M  V30 3077 C 285.528 -0.867255 -3.32165 0
M  V30 3078 C 284.614 -1.99738 -3.74119 0
M  V30 3079 N 285.005 -3.24447 -3.88031 0
M  V30 3080 C 283.303 -1.89723 -4.03635 0
M  V30 3081 C 284.004 -3.98374 -4.23879 0
M  V30 3082 N 282.98 -3.26547 -4.3459 0
M  V30 3083 H 286.782 -2.10296 -2.05312 0
M  V30 3084 H 284.296 -1.23009 -1.06031 0
M  V30 3085 H 286.293 -0.735668 -4.10358 0
M  V30 3086 H 284.953 0.0701614 -3.24624 0
M  V30 3087 H 285.964 -3.59557 -3.72746 0
M  V30 3088 H 282.641 -1.03449 -4.04481 0
M  V30 3089 H 284.031 -5.05844 -4.42235 0
M  V30 3090 N 286.751 1.08385 -1.14413 0
M  V30 3091 C 287.997 1.81044 -0.913834 0
M  V30 3092 C 288.33 1.86004 0.558209 0
M  V30 3093 O 287.605 1.33606 1.4135 0
M  V30 3094 C 287.888 3.26648 -1.51569 0
M  V30 3095 C 287.741 3.29895 -3.0576 0
M  V30 3096 C 289.06 4.23629 -1.19273 0
M  V30 3097 H 286.179 0.65727 -0.333414 0
M  V30 3098 H 288.821 1.26896 -1.41412 0
M  V30 3099 H 286.971 3.72889 -1.09023 0
M  V30 3100 H 288.643 2.91977 -3.57137 0
M  V30 3101 H 286.886 2.69163 -3.40197 0
M  V30 3102 H 287.557 4.32516 -3.42977 0
M  V30 3103 H 290.033 3.85727 -1.56057 0
M  V30 3104 H 288.909 5.23822 -1.64017 0
M  V30 3105 H 289.17 4.41968 -0.108068 0
M  V30 3106 N 288.23 0.939286 1.26551 0
M  V30 3107 C 289.478 0.58469 1.93457 0
M  V30 3108 C 289.799 -0.878774 1.74076 0
M  V30 3109 O 289.069 -1.62421 1.09528 0
M  V30 3110 H 287.649 0.21325 0.715914 0
M  V30 3111 H 290.311 1.1942 1.54029 0
M  V30 3112 H 289.407 0.800849 3.0165 0
M  V30 3113 N 289.708 -1.40897 0.706093 0
M  V30 3114 C 290.956 -2.00657 0.241054 0
M  V30 3115 C 291.277 -1.56241 -1.16678 0
M  V30 3116 O 290.547 -0.79765 -1.78926 0
M  V30 3117 H 289.127 -0.742018 0.0861308 0
M  V30 3118 H 291.789 -1.72372 0.909604 0
M  V30 3119 H 290.885 -3.10958 0.266705 0
M  V30 3120 N 291.186 -0.45159 -1.50991 0
M  V30 3121 C 292.096 0.358431 -2.31846 0
M  V30 3122 C 293.112 1.01438 -1.41373 0
M  V30 3123 O 294.288 1.00663 -1.74439 0
M  V30 3124 C 291.353 1.43704 -3.15515 0
M  V30 3125 C 290.414 0.799742 -4.21785 0
M  V30 3126 C 289.647 1.82696 -5.01456 0
M  V30 3127 O 289.87 3.05105 -4.81941 0
M  V30 3128 O 288.804 1.40958 -5.85162 0
M  V30 3129 H 292.63 -0.302032 -3.02194 0
M  V30 3130 H 290.215 -0.213825 -1.47862 0
M  V30 3131 H 292.097 2.06227 -3.67489 0
M  V30 3132 H 290.772 2.08133 -2.47916 0
M  V30 3133 H 289.679 0.136084 -3.73852 0
M  V30 3134 H 291.012 0.198718 -4.91799 0
M  V30 3135 N 292.664 1.56529 -0.183458 0
M  V30 3136 C 293.91 1.97537 0.459036 0
M  V30 3137 C 294.243 1.06989 1.62071 0
M  V30 3138 O 293.518 0.11948 1.94133 0
M  V30 3139 C 293.801 3.47874 0.930368 0
M  V30 3140 C 293.654 4.492 -0.232317 0
M  V30 3141 C 294.973 4.01612 1.79989 0
M  V30 3142 H 292.092 0.718204 0.165383 0
M  V30 3143 H 294.734 1.88042 -0.272038 0
M  V30 3144 H 292.884 3.56095 1.55333 0
M  V30 3145 H 294.556 4.53027 -0.86972 0
M  V30 3146 H 292.799 4.24657 -0.885928 0
M  V30 3147 H 293.47 5.51823 0.139796 0
M  V30 3148 H 295.946 3.96097 1.27461 0
M  V30 3149 H 294.822 5.07195 2.09867 0
M  V30 3150 H 295.083 3.46163 2.74998 0
M  V30 3151 N 294.142 -0.090211 1.57342 0
M  V30 3152 C 295.419 -0.824761 1.77361 0
M  V30 3153 C 295.799 -1.96698 0.76637 0
M  V30 3154 O 295.147 -2.27586 -0.204179 0
M  V30 3155 C 295.357 -1.31481 3.23286 0
M  V30 3156 C 296.705 -1.75563 3.86604 0
M  V30 3157 O 297.729 -1.41093 3.27065 0
M  V30 3158 O 296.588 -2.39317 4.91314 0
M  V30 3159 H 293.682 -0.393776 0.727234 0
M  V30 3160 H 296.228 -0.0717138 1.69548 0
M  V30 3161 H 295 -0.496671 3.88135 0
M  V30 3162 H 294.623 -2.12973 3.35751 0
M  V30 3163 N 295.62 -1.53406 -0.361157 0
M  V30 3164 C 296.866 -1.70054 -1.10496 0
M  V30 3165 C 297.199 -0.453278 -1.88836 0
M  V30 3166 O 296.474 0.5495 -1.86576 0
M  V30 3167 C 296.757 -2.95317 -2.06058 0
M  V30 3168 C 296.61 -4.3021 -1.31298 0
M  V30 3169 C 297.929 -3.16193 -3.06121 0
M  V30 3170 H 295.048 -0.618799 -0.400321 0
M  V30 3171 H 297.69 -1.86052 -0.385318 0
M  V30 3172 H 295.84 -2.81809 -2.67425 0
M  V30 3173 H 297.512 -4.55538 -0.726807 0
M  V30 3174 H 295.755 -4.29421 -0.614853 0
M  V30 3175 H 296.426 -5.14 -2.01265 0
M  V30 3176 H 298.902 -3.28916 -2.5486 0
M  V30 3177 H 297.778 -4.05266 -3.70204 0
M  V30 3178 H 298.039 -2.31676 -3.76535 0
M  V30 3179 N 297.098 0.621204 -1.44841 0
M  V30 3180 C 298.514 0.94048 -1.28946 0
M  V30 3181 C 298.714 2.00154 -0.23249 0
M  V30 3182 O 297.77 2.49651 0.378237 0
M  V30 3183 C 299.083 1.39433 -2.66419 0
M  V30 3184 C 300.631 1.50927 -2.74208 0
M  V30 3185 C 301.106 1.99692 -4.12174 0
M  V30 3186 N 302.597 2.06947 -4.144 0
M  V30 3187 C 303.332 2.45871 -5.1801 0
M  V30 3188 N 302.828 2.83862 -6.31977 0
M  V30 3189 N 304.621 2.46092 -5.05366 0
M  V30 3190 H 296.772 -0.0803548 -2.12248 0
M  V30 3191 H 299.035 0.0266913 -0.947624 0
M  V30 3192 H 298.741 0.688925 -3.44887 0
M  V30 3193 H 298.615 2.36347 -2.93973 0
M  V30 3194 H 301.002 2.20561 -1.96053 0
M  V30 3195 H 301.083 0.523627 -2.50383 0
M  V30 3196 H 300.727 1.30649 -4.90809 0
M  V30 3197 H 300.657 2.99146 -4.33381 0
M  V30 3198 H 303.148 1.80232 -3.32152 0
M  V30 3199 H 303.461 3.12405 -7.0684 0
M  V30 3200 H 301.806 2.8159 -6.35399 0
M  V30 3201 H 304.997 2.1581 -4.15384 0
M  V30 3202 H 305.17 2.76102 -5.86235 0
M  V30 3203 N 298.576 1.31904 0.862503 0
M  V30 3204 C 299.801 1.25135 1.65397 0
M  V30 3205 C 300.226 -0.179 1.87246 0
M  V30 3206 O 299.584 -1.1277 1.4196 0
M  V30 3207 C 299.632 2.00832 2.99498 0
M  V30 3208 O 298.736 1.35075 3.89652 0
M  V30 3209 H 298.077 0.431655 0.504549 0
M  V30 3210 H 300.607 1.74094 1.07483 0
M  V30 3211 H 300.617 2.10709 3.49379 0
M  V30 3212 H 299.292 3.04847 2.82916 0
M  V30 3213 H 297.869 1.33696 3.48109 0
M  V30 3214 N 300.054 -1.07777 1.14986 0
M  V30 3215 C 301.017 -2.13041 0.845358 0
M  V30 3216 C 302.017 -1.60071 -0.152931 0
M  V30 3217 O 303.207 -1.74033 0.0761879 0
M  V30 3218 C 300.339 -3.39896 0.261383 0
M  V30 3219 H 301.532 -2.41485 1.77834 0
M  V30 3220 H 299.085 -1.23595 0.956757 0
M  V30 3221 H 299.82 -3.17091 -0.68 0
M  V30 3222 H 299.605 -3.79642 0.980514 0
M  V30 3223 H 301.095 -4.17548 0.0657687 0
M  V30 3224 N 301.532 -0.945985 -1.26051 0
M  V30 3225 C 302.762 -0.612136 -1.97323 0
M  V30 3226 C 303.17 0.818171 -1.70595 0
M  V30 3227 O 302.513 1.55777 -0.973613 0
M  V30 3228 C 302.575 -0.780347 -3.50929 0
M  V30 3229 C 302.239 -2.18619 -4.01317 0
M  V30 3230 C 303.236 -3.16209 -4.12683 0
M  V30 3231 C 300.921 -2.50805 -4.35203 0
M  V30 3232 C 302.915 -4.44085 -4.57238 0
M  V30 3233 C 300.602 -3.78912 -4.79446 0
M  V30 3234 C 301.6 -4.75365 -4.90425 0
M  V30 3235 O 301.288 -6.01191 -5.3369 0
M  V30 3236 H 301.02 -0.229134 -0.635982 0
M  V30 3237 H 303.574 -1.27036 -1.61404 0
M  V30 3238 H 301.804 -0.0649864 -3.86645 0
M  V30 3239 H 303.493 -0.448842 -4.03411 0
M  V30 3240 H 304.259 -2.92668 -3.86744 0
M  V30 3241 H 300.138 -1.76463 -4.2589 0
M  V30 3242 H 303.682 -5.19373 -4.65723 0
M  V30 3243 H 299.579 -4.02265 -5.0483 0
M  V30 3244 H 300.347 -6.04442 -5.51899 0
M  V30 3245 N 303.011 1.40521 -0.713556 0
M  V30 3246 C 304.251 2.02783 -0.256584 0
M  V30 3247 C 304.615 1.55352 1.12827 0
M  V30 3248 O 305.816 2.09663 1.68211 0
M  V30 3249 C 304.087 3.5586 -0.331414 0
M  V30 3250 S 305.646 4.38773 0.0488703 0
M  V30 3251 H 302.464 0.703655 -0.101934 0
M  V30 3252 H 305.066 1.71674 -0.935325 0
M  V30 3253 H 303.77 3.87874 -1.34098 0
M  V30 3254 H 303.301 3.91695 0.365873 0
M  V30 3255 H 305.316 4.79633 1.2715 0
M  V30 3256 N 304.489 0.459591 1.5075 0
M  V30 3257 C 305.452 -0.329093 2.26825 0
M  V30 3258 C 306.452 -0.930481 1.31144 0
M  V30 3259 O 307.642 -0.801453 1.54669 0
M  V30 3260 C 304.774 -1.46768 3.07688 0
M  V30 3261 H 305.967 0.337924 2.9799 0
M  V30 3262 H 303.52 0.213336 1.54837 0
M  V30 3263 H 304.255 -2.17009 2.40993 0
M  V30 3264 H 304.04 -1.04238 3.77991 0
M  V30 3265 H 305.53 -2.02433 3.65254 0
M  V30 3266 N 305.967 -1.56429 0.191757 0
M  V30 3267 C 306.93 -2.17707 -0.716688 0
M  V30 3268 C 307.93 -1.13061 -1.14341 0
M  V30 3269 O 309.12 -1.38464 -1.05704 0
M  V30 3270 C 306.252 -2.77644 -1.97804 0
M  V30 3271 H 307.445 -2.99342 -0.1829 0
M  V30 3272 H 304.998 -1.56193 -0.0578566 0
M  V30 3273 H 305.733 -1.99799 -2.55443 0
M  V30 3274 H 305.518 -3.54246 -1.68083 0
M  V30 3275 H 307.008 -3.24708 -2.62592 0
M  V30 3276 N 307.445 0.0818655 -1.57387 0
M  V30 3277 C 308.67 0.799946 -1.91352 0
M  V30 3278 C 309.095 1.70833 -0.787258 0
M  V30 3279 O 308.453 1.79419 0.26048 0
M  V30 3280 C 308.501 1.57812 -3.24234 0
M  V30 3281 O 307.605 2.68806 -3.12757 0
M  V30 3282 H 306.946 0.21891 -0.626877 0
M  V30 3283 H 309.476 0.0531256 -2.04531 0
M  V30 3284 H 309.486 1.95952 -3.57864 0
M  V30 3285 H 308.161 0.911548 -4.05788 0
M  V30 3286 H 306.738 2.33597 -2.90666 0
M  V30 3287 N 308.923 1.53595 0.353017 0
M  V30 3288 C 310.169 1.70638 1.09593 0
M  V30 3289 C 310.502 0.463286 1.88593 0
M  V30 3290 O 309.777 -0.539597 1.86865 0
M  V30 3291 C 310.06 2.96406 2.04489 0
M  V30 3292 C 309.913 4.30901 1.29014 0
M  V30 3293 C 311.232 3.17812 3.0444 0
M  V30 3294 H 308.351 0.620913 0.397034 0
M  V30 3295 H 310.993 1.86254 0.375446 0
M  V30 3296 H 309.143 2.83223 2.65927 0
M  V30 3297 H 310.815 4.55917 0.702638 0
M  V30 3298 H 309.058 4.29741 0.592071 0
M  V30 3299 H 309.729 5.1506 1.98537 0
M  V30 3300 H 312.205 3.30263 2.53112 0
M  V30 3301 H 311.081 4.07223 3.6805 0
M  V30 3302 H 311.342 2.33669 3.75301 0
M  V30 3303 N 310.401 -0.613514 1.45168 0
M  V30 3304 C 311.364 -1.7065 1.53007 0
M  V30 3305 C 312.364 -1.5548 0.410184 0
M  V30 3306 O 313.554 -1.60656 0.673455 0
M  V30 3307 C 310.686 -3.09875 1.42093 0
M  V30 3308 H 311.879 -1.65068 2.50385 0
M  V30 3309 H 309.432 -0.828728 1.32521 0
M  V30 3310 H 310.167 -3.21039 0.458769 0
M  V30 3311 H 309.952 -3.22293 2.23315 0
M  V30 3312 H 311.442 -3.895 1.50598 0
M  V30 3313 N 311.879 -1.3236 -0.855495 0
M  V30 3314 C 313.104 -1.2601 -1.64731 0
M  V30 3315 C 313.529 0.169068 -1.87339 0
M  V30 3316 O 312.887 1.12016 -1.42556 0
M  V30 3317 C 312.935 -2.02417 -2.98429 0
M  V30 3318 O 312.039 -1.3714 -3.8893 0
M  V30 3319 H 311.38 -0.434325 -0.502253 0
M  V30 3320 H 313.91 -1.74661 -1.06558 0
M  V30 3321 H 313.92 -2.12559 -3.48257 0
M  V30 3322 H 312.595 -3.06343 -2.81295 0
M  V30 3323 H 311.172 -1.3554 -3.47395 0
M  V30 3324 N 313.357 1.07166 -1.15556 0
M  V30 3325 C 314.287 2.16403 -0.877046 0
M  V30 3326 C 315.268 1.69217 0.173111 0
M  V30 3327 O 316.453 1.94181 0.027084 0
M  V30 3328 C 313.583 3.45349 -0.367632 0
M  V30 3329 C 312.537 4.05995 -1.35468 0
M  V30 3330 C 311.863 5.30045 -0.704038 0
M  V30 3331 C 313.163 4.45804 -2.72132 0
M  V30 3332 H 314.857 2.39959 -1.79053 0
M  V30 3333 H 312.403 1.15325 -0.862331 0
M  V30 3334 H 314.356 4.21095 -0.160317 0
M  V30 3335 H 313.08 3.21385 0.581326 0
M  V30 3336 H 311.739 3.32296 -1.54839 0
M  V30 3337 H 311.387 5.02373 0.251128 0
M  V30 3338 H 311.087 5.71579 -1.36277 0
M  V30 3339 H 312.611 6.08495 -0.50654 0
M  V30 3340 H 314.025 5.12671 -2.56595 0
M  V30 3341 H 312.422 4.98296 -3.34397 0
M  V30 3342 H 313.492 3.57083 -3.28054 0
M  V30 3343 N 314.835 0.952656 1.25548 0
M  V30 3344 C 316.063 0.623496 1.97282 0
M  V30 3345 C 316.478 -0.803987 1.70826 0
M  V30 3346 O 315.835 -1.53755 0.983147 0
M  V30 3347 C 315.886 0.870209 3.5087 0
M  V30 3348 O 315.607 2.24156 3.76412 0
M  V30 3349 C 317.108 0.553164 4.39835 0
M  V30 3350 H 314.328 0.233931 0.628902 0
M  V30 3351 H 316.872 1.27649 1.59768 0
M  V30 3352 H 315.027 0.263652 3.86502 0
M  V30 3353 H 315.441 2.31021 4.70882 0
M  V30 3354 H 316.915 0.776342 5.46513 0
M  V30 3355 H 317.392 -0.512215 4.36203 0
M  V30 3356 H 317.998 1.13896 4.09766 0
M  V30 3357 N 316.313 -1.40141 0.720998 0
M  V30 3358 C 317.261 -2.3252 0.0608547 0
M  V30 3359 C 318.255 -1.52326 -0.741152 0
M  V30 3360 O 319.461 -1.68089 -0.643911 0
M  V30 3361 H 315.836 -0.751999 0.000876664 0
M  V30 3362 H 317.807 -2.8584 0.856614 0
M  V30 3363 C 316.556 -3.37331 -0.842809 0
M  V30 3364 H 315.879 -3.99108 -0.235084 0
M  V30 3365 H 317.319 -4.04452 -1.27257 0
M  V30 3366 C 315.778 -2.73246 -1.97074 0
M  V30 3367 O 316.308 -2.59998 -3.06209 0
M  V30 3368 N 314.514 -2.31547 -1.75597 0
M  V30 3369 H 314.061 -2.42522 -0.868368 0
M  V30 3370 H 314.019 -1.89007 -2.51244 0
M  V30 3371 N 317.792 -0.46758 -1.50504 0
M  V30 3372 C 319.041 0.0902868 -2.01498 0
M  V30 3373 C 319.354 1.411 -1.35463 0
M  V30 3374 O 320.56 2.0536 -1.77594 0
M  V30 3375 C 319.016 0.21142 -3.59278 0
M  V30 3376 C 318.624 -1.10065 -4.34269 0
M  V30 3377 C 320.368 0.721433 -4.18325 0
M  V30 3378 C 318.275 -0.943505 -5.83825 0
M  V30 3379 H 317.205 0.037517 -0.753066 0
M  V30 3380 H 319.856 -0.601943 -1.73346 0
M  V30 3381 H 318.238 0.967352 -3.84003 0
M  V30 3382 H 319.412 -1.86726 -4.21272 0
M  V30 3383 H 317.727 -1.5415 -3.86816 0
M  V30 3384 H 320.324 0.85598 -5.27804 0
M  V30 3385 H 320.667 1.71186 -3.79475 0
M  V30 3386 H 321.2 0.0229843 -3.97793 0
M  V30 3387 H 317.939 -1.90719 -6.27141 0
M  V30 3388 H 317.459 -0.217213 -5.99407 0
M  V30 3389 H 319.138 -0.608715 -6.4413 0
M  V30 3390 N 319.27 1.56325 -0.20005 0
M  V30 3391 C 320.519 1.96895 0.437652 0
M  V30 3392 C 320.832 1.08999 1.62415 0
M  V30 3393 O 322.038 1.39372 2.32997 0
M  V30 3394 C 320.494 3.50198 0.830025 0
M  V30 3395 C 320.102 4.46765 -0.332461 0
M  V30 3396 C 321.846 3.99526 1.43453 0
M  V30 3397 C 319.753 5.91344 0.0811468 0
M  V30 3398 H 318.683 0.735209 0.167282 0
M  V30 3399 H 321.334 1.81148 -0.292853 0
M  V30 3400 H 319.716 3.61467 1.61734 0
M  V30 3401 H 320.89 4.47231 -1.11 0
M  V30 3402 H 319.205 4.07657 -0.848789 0
M  V30 3403 H 321.802 5.05025 1.75652 0
M  V30 3404 H 322.145 3.44122 2.34277 0
M  V30 3405 H 322.678 3.91393 0.71109 0
M  V30 3406 H 319.417 6.50685 -0.793033 0
M  V30 3407 H 318.937 5.94121 0.823445 0
M  V30 3408 H 320.616 6.44945 0.515252 0
M  V30 3409 N 320.748 -0.0735177 1.57428 0
M  V30 3410 C 321.976 -0.785969 1.9139 0
M  V30 3411 C 322.391 -1.71207 0.795847 0
M  V30 3412 O 321.748 -1.81033 -0.230915 0
M  V30 3413 C 321.799 -1.58107 3.25091 0
M  V30 3414 O 321.52 -0.6922 4.32597 0
M  V30 3415 C 323.021 -2.39467 3.73055 0
M  V30 3416 H 320.241 -0.223558 0.632663 0
M  V30 3417 H 322.785 -0.044302 2.04452 0
M  V30 3418 H 320.94 -2.27503 3.13562 0
M  V30 3419 H 321.354 -1.24504 5.09508 0
M  V30 3420 H 322.828 -2.90716 4.69242 0
M  V30 3421 H 323.305 -3.18913 3.01979 0
M  V30 3422 H 323.911 -1.7523 3.87523 0
M  V30 3423 N 322.226 -1.5378 -0.344866 0
M  V30 3424 C 323.637 -1.62428 -0.920552 0
M  V30 3425 C 323.988 -0.504747 -1.89596 0
M  V30 3426 O 323.113 0.365711 -2.13287 0
M  V30 3427 C 323.708 -2.94419 -1.67639 0
M  V30 3428 C 322.267 -3.05333 -2.20111 0
M  V30 3429 C 321.414 -2.57866 -1.01982 0
M  V30 3430 H 324.365 -1.58222 -0.123042 0
M  V30 3431 H 324.386 -2.83384 -2.53917 0
M  V30 3432 H 323.898 -3.7588 -0.966224 0
M  V30 3433 H 321.999 -2.28502 -2.94308 0
M  V30 3434 H 322.112 -4.10778 -2.46573 0
M  V30 3435 H 320.476 -2.13241 -1.39285 0
M  V30 3436 H 321.259 -3.41765 -0.324308 0
M  V30 3437 N 323.704 0.605807 -1.45491 0
M  V30 3438 C 324.981 1.36522 -1.40075 0
M  V30 3439 C 325.361 2.10976 -0.0722744 0
M  V30 3440 O 324.709 2.08007 0.945808 0
M  V30 3441 C 324.919 2.31056 -2.61561 0
M  V30 3442 C 326.267 2.93608 -3.06724 0
M  V30 3443 O 327.291 2.41376 -2.61946 0
M  V30 3444 O 326.15 3.88421 -3.84437 0
M  V30 3445 H 323.244 0.612248 -0.555951 0
M  V30 3446 H 325.79 0.628747 -1.57623 0
M  V30 3447 H 324.562 1.75311 -3.49831 0
M  V30 3448 H 324.185 3.12081 -2.46356 0
M  V30 3449 N 325.182 1.32811 0.848464 0
M  V30 3450 C 326.112 1.24882 1.97299 0
M  V30 3451 C 327.093 0.131357 1.69592 0
M  V30 3452 O 328.278 0.319553 1.91553 0
M  V30 3453 C 325.408 0.97746 3.33261 0
M  V30 3454 C 324.362 2.05682 3.75338 0
M  V30 3455 C 323.688 1.63777 5.09 0
M  V30 3456 C 324.988 3.47254 3.90144 0
M  V30 3457 H 326.682 2.18966 2.04191 0
M  V30 3458 H 324.228 1.05413 0.981029 0
M  V30 3459 H 326.181 0.908513 4.1149 0
M  V30 3460 H 324.905 0.000980011 3.266 0
M  V30 3461 H 323.564 2.11603 2.99366 0
M  V30 3462 H 323.212 0.648569 4.98801 0
M  V30 3463 H 322.912 2.36 5.38124 0
M  V30 3464 H 324.436 1.5833 5.89715 0
M  V30 3465 H 325.85 3.43888 4.58709 0
M  V30 3466 H 324.247 4.1788 4.30693 0
M  V30 3467 H 325.317 3.86462 2.92874 0
M  V30 3468 N 326.66 -1.06551 1.16123 0
M  V30 3469 C 327.907 -1.79302 0.941126 0
M  V30 3470 C 328.235 -1.87105 -0.531235 0
M  V30 3471 O 327.49 -1.35692 -1.41018 0
M  V30 3472 C 327.789 -3.23911 1.51052 0
M  V30 3473 C 327.455 -3.36193 3.00475 0
M  V30 3474 C 326.117 -3.39252 3.41265 0
M  V30 3475 C 328.469 -3.38326 3.96465 0
M  V30 3476 C 325.797 -3.42057 4.76669 0
M  V30 3477 C 328.149 -3.4267 5.31752 0
M  V30 3478 C 326.813 -3.4401 5.72026 0
M  V30 3479 H 326.083 -0.656111 0.344382 0
M  V30 3480 H 328.73 -1.25325 1.44796 0
M  V30 3481 H 327.035 -3.80723 0.925063 0
M  V30 3482 H 328.732 -3.78793 1.31593 0
M  V30 3483 H 325.322 -3.34516 2.6795 0
M  V30 3484 H 329.506 -3.35176 3.6602 0
M  V30 3485 H 324.762 -3.41398 5.07206 0
M  V30 3486 H 328.936 -3.43268 6.05921 0
M  V30 3487 H 326.563 -3.45937 6.76928 0
M  V30 3488 N 328.138 -0.959301 -1.25041 0
M  V30 3489 C 329.048 -0.489994 -2.29426 0
M  V30 3490 C 330.064 0.444944 -1.68215 0
M  V30 3491 O 331.24 0.320046 -1.98841 0
M  V30 3492 C 328.305 0.220309 -3.45999 0
M  V30 3493 C 327.366 -0.753418 -4.22637 0
M  V30 3494 C 326.599 -0.076918 -5.33645 0
M  V30 3495 O 326.822 1.13649 -5.58963 0
M  V30 3496 O 325.756 -0.764824 -5.97021 0
M  V30 3497 H 329.582 -1.35755 -2.71669 0
M  V30 3498 H 327.167 -0.725961 -1.30576 0
M  V30 3499 H 329.049 0.619677 -4.16819 0
M  V30 3500 H 327.724 1.06296 -3.0575 0
M  V30 3501 H 326.631 -1.20308 -3.54227 0
M  V30 3502 H 327.964 -1.56423 -4.66683 0
M  V30 3503 N 329.616 1.39756 -0.72842 0
M  V30 3504 C 330.864 2.00248 -0.272946 0
M  V30 3505 C 331.185 1.58077 1.14178 0
M  V30 3506 O 330.455 0.826014 1.77634 0
M  V30 3507 H 329.035 0.740554 -0.0979247 0
M  V30 3508 H 331.697 1.70903 -0.936912 0
M  V30 3509 H 330.793 3.10495 -0.316142 0
M  V30 3510 N 331.094 0.475555 1.50254 0
M  V30 3511 C 332.322 -0.0754493 2.06762 0
M  V30 3512 C 332.737 -1.33111 1.33891 0
M  V30 3513 O 332.094 -1.77846 0.40952 0
M  V30 3514 C 332.145 -0.359008 3.59713 0
M  V30 3515 O 331.866 0.846851 4.29837 0
M  V30 3516 C 333.367 -0.956484 4.32858 0
M  V30 3517 H 330.587 0.00907525 0.670939 0
M  V30 3518 H 333.131 0.665618 1.93364 0
M  V30 3519 H 331.286 -1.05001 3.72899 0
M  V30 3520 H 331.7 0.594162 5.21124 0
M  V30 3521 H 333.174 -1.10463 5.40834 0
M  V30 3522 H 333.651 -1.94775 3.93649 0
M  V30 3523 H 334.257 -0.303723 4.24214 0
M  V30 3524 N 332.573 -1.56217 0.208337 0
M  V30 3525 C 333.536 -2.18455 -0.693557 0
M  V30 3526 C 334.536 -1.14268 -1.13135 0
M  V30 3527 O 335.726 -1.39577 -1.0423 0
M  V30 3528 C 332.858 -2.79727 -1.94848 0
M  V30 3529 H 334.051 -2.99519 -0.15114 0
M  V30 3530 H 331.604 -1.56245 -0.041287 0
M  V30 3531 H 332.339 -2.02497 -2.53309 0
M  V30 3532 H 332.124 -3.56009 -1.64316 0
M  V30 3533 H 333.614 -3.27475 -2.59133 0
M  V30 3534 N 334.051 0.0651679 -1.57465 0
M  V30 3535 C 334.961 1.09448 -2.07505 0
M  V30 3536 C 335.977 1.41974 -1.00595 0
M  V30 3537 O 337.153 1.52018 -1.32107 0
M  V30 3538 C 334.218 2.38689 -2.51453 0
M  V30 3539 C 333.279 2.13073 -3.72691 0
M  V30 3540 C 332.512 3.36152 -4.14533 0
M  V30 3541 O 332.735 4.45517 -3.56189 0
M  V30 3542 O 331.669 3.23974 -5.07272 0
M  V30 3543 H 335.495 0.69935 -2.95538 0
M  V30 3544 H 333.08 0.279752 -1.46757 0
M  V30 3545 H 334.962 3.14736 -2.80212 0
M  V30 3546 H 333.637 2.77568 -1.66546 0
M  V30 3547 H 332.544 1.34709 -3.49005 0
M  V30 3548 H 333.877 1.79071 -4.5847 0
M  V30 3549 N 335.529 1.53961 0.336706 0
M  V30 3550 C 336.775 1.7273 1.07406 0
M  V30 3551 C 337.13 0.488095 1.86106 0
M  V30 3552 O 336.423 -0.519379 1.84426 0
M  V30 3553 C 336.617 2.93493 2.03953 0
M  V30 3554 C 336.446 4.29039 1.34744 0
M  V30 3555 C 335.216 4.93416 1.08942 0
M  V30 3556 C 337.414 5.08501 0.770115 0
M  V30 3557 N 335.396 6.12821 0.363864 0
M  V30 3558 C 336.767 6.19752 0.175472 0
M  V30 3559 C 338.822 4.93349 0.671633 0
M  V30 3560 C 337.525 7.17503 -0.508081 0
M  V30 3561 C 339.551 5.914 0.0018076 0
M  V30 3562 C 338.913 7.01993 -0.581835 0
M  V30 3563 H 335.012 0.685026 0.377177 0
M  V30 3564 H 337.596 1.91403 0.356815 0
M  V30 3565 H 335.767 2.76308 2.72962 0
M  V30 3566 H 337.499 3.00949 2.70577 0
M  V30 3567 H 334.254 4.53099 1.37833 0
M  V30 3568 H 334.678 6.76998 0.0156092 0
M  V30 3569 H 339.32 4.08007 1.1086 0
M  V30 3570 H 337.038 8.02414 -0.956918 0
M  V30 3571 H 340.624 5.81753 -0.0738538 0
M  V30 3572 H 339.504 7.76561 -1.09192 0
M  V30 3573 N 337.007 -0.598083 1.45811 0
M  V30 3574 C 338.256 -1.35295 1.49594 0
M  V30 3575 C 338.569 -1.95057 0.145679 0
M  V30 3576 O 339.775 -2.71431 0.0612099 0
M  V30 3577 C 338.231 -2.45124 2.63519 0
M  V30 3578 C 337.839 -1.91732 4.04899 0
M  V30 3579 C 339.583 -3.2205 2.76558 0
M  V30 3580 C 337.49 -2.991 5.1019 0
M  V30 3581 H 336.42 -0.508552 0.556679 0
M  V30 3582 H 339.071 -0.639977 1.71978 0
M  V30 3583 H 337.453 -3.19149 2.34435 0
M  V30 3584 H 338.627 -1.24352 4.43704 0
M  V30 3585 H 336.942 -1.27522 3.96393 0
M  V30 3586 H 339.539 -4.0215 3.52391 0
M  V30 3587 H 339.882 -3.73663 1.83526 0
M  V30 3588 H 340.415 -2.55127 3.05213 0
M  V30 3589 H 337.154 -2.52393 6.04961 0
M  V30 3590 H 336.674 -3.65017 4.75944 0
M  V30 3591 H 338.353 -3.63318 5.35359 0
M  V30 3592 N 338.485 -1.33259 -0.841409 0
M  V30 3593 C 339.448 -1.23221 -1.9326 0
M  V30 3594 C 340.448 -0.151895 -1.60081 0
M  V30 3595 O 341.638 -0.403246 -1.69468 0
M  V30 3596 C 338.77 -0.898123 -3.28856 0
M  V30 3597 H 339.963 -2.2021 -2.03587 0
M  V30 3598 H 337.516 -1.17281 -1.03319 0
M  V30 3599 H 338.251 0.0693841 -3.24226 0
M  V30 3600 H 338.036 -1.67934 -3.54317 0
M  V30 3601 H 339.526 -0.852563 -4.08805 0
M  V30 3602 N 339.963 1.05934 -1.16686 0
M  V30 3603 C 341.379 1.30938 -0.912542 0
M  V30 3604 C 341.579 1.96803 0.432533 0
M  V30 3605 O 340.635 2.23693 1.17123 0
M  V30 3606 C 341.948 2.18649 -2.06429 0
M  V30 3607 C 343.496 2.32055 -2.10047 0
M  V30 3608 C 343.971 3.23122 -3.24586 0
M  V30 3609 N 345.462 3.30706 -3.24327 0
M  V30 3610 C 346.197 4.01273 -4.09594 0
M  V30 3611 N 345.693 4.74332 -5.04956 0
M  V30 3612 N 347.486 3.97361 -3.97569 0
M  V30 3613 H 339.637 0.615777 -2.03278 0
M  V30 3614 H 341.9 0.334077 -0.887185 0
M  V30 3615 H 341.606 1.77534 -3.03603 0
M  V30 3616 H 341.48 3.19252 -2.00894 0
M  V30 3617 H 343.867 2.72415 -1.13464 0
M  V30 3618 H 343.948 1.31107 -2.19647 0
M  V30 3619 H 343.592 2.83477 -4.2143 0
M  V30 3620 H 343.522 4.24057 -3.12223 0
M  V30 3621 H 346.013 2.78644 -2.55276 0
M  V30 3622 H 346.326 5.25716 -5.6643 0
M  V30 3623 H 344.671 4.733 -5.08933 0
M  V30 3624 H 347.862 3.39405 -3.22369 0
M  V30 3625 H 348.035 4.52089 -4.64241 0
M  V30 3626 N 341.441 0.965919 1.2453 0
M  V30 3627 C 342.681 0.634656 1.94297 0
M  V30 3628 C 343.045 -0.814822 1.73852 0
M  V30 3629 O 344.246 -1.25622 2.3764 0
M  V30 3630 C 342.517 0.99702 3.43212 0
M  V30 3631 S 344.076 0.780038 4.31811 0
M  V30 3632 H 340.894 0.232893 0.671775 0
M  V30 3633 H 343.496 1.24249 1.50938 0
M  V30 3634 H 342.2 2.04886 3.55598 0
M  V30 3635 H 341.731 0.379888 3.91562 0
M  V30 3636 H 343.746 -0.343512 4.9501 0
M  V30 3637 N 342.919 -1.39368 0.735821 0
M  V30 3638 C 343.851 -2.2913 0.0567723 0
M  V30 3639 C 344.864 -1.46859 -0.702589 0
M  V30 3640 O 346.053 -1.69925 -0.546616 0
M  V30 3641 C 343.153 -3.25492 -0.943823 0
M  V30 3642 C 342.326 -4.36709 -0.24581 0
M  V30 3643 C 341.385 -5.13376 -1.15463 0
M  V30 3644 O 340.411 -5.65683 -0.631803 0
M  V30 3645 N 341.613 -5.24656 -2.48427 0
M  V30 3646 H 344.378 -2.88047 0.827582 0
M  V30 3647 H 341.939 -1.50957 0.585112 0
M  V30 3648 H 343.931 -3.73657 -1.55443 0
M  V30 3649 H 342.501 -2.676 -1.61583 0
M  V30 3650 H 341.721 -3.9041 0.545286 0
M  V30 3651 H 343.009 -5.08244 0.237891 0
M  V30 3652 H 342.407 -4.83679 -2.93379 0
M  V30 3653 H 340.964 -5.76258 -3.04582 0
M  V30 3654 N 344.397 -0.483516 -1.5 0
M  V30 3655 C 345.345 0.318061 -2.30415 0
M  V30 3656 C 346.339 0.978988 -1.38247 0
M  V30 3657 O 347.545 0.908673 -1.55381 0
M  V30 3658 H 343.92 0.121419 -0.742133 0
M  V30 3659 H 345.891 -0.380403 -2.95965 0
M  V30 3660 C 344.64 1.38013 -3.19136 0
M  V30 3661 H 343.963 0.880952 -3.89973 0
M  V30 3662 H 345.403 1.91332 -3.78375 0
M  V30 3663 C 343.862 2.38884 -2.37563 0
M  V30 3664 O 344.392 3.44412 -2.06744 0
M  V30 3665 N 342.598 2.10912 -1.99911 0
M  V30 3666 H 342.145 1.25118 -2.25174 0
M  V30 3667 H 342.103 2.78635 -1.45636 0
M  V30 3668 N 345.875 1.56104 -0.216619 0
M  V30 3669 C 347.121 1.99219 0.410301 0
M  V30 3670 C 347.476 1.10169 1.57735 0
M  V30 3671 O 346.769 0.150598 1.91007 0
M  V30 3672 C 346.963 3.45923 0.898464 0
M  V30 3673 C 346.792 4.49163 -0.219748 0
M  V30 3674 C 345.562 5.00642 -0.684516 0
M  V30 3675 C 347.76 5.03751 -1.03629 0
M  V30 3676 N 345.742 5.87579 -1.7783 0
M  V30 3677 C 347.113 5.87566 -1.97904 0
M  V30 3678 C 349.168 4.86128 -1.07629 0
M  V30 3679 C 347.871 6.5564 -2.95851 0
M  V30 3680 C 349.897 5.54958 -2.04392 0
M  V30 3681 C 349.259 6.38536 -2.97407 0
M  V30 3682 H 345.358 0.773206 0.11695 0
M  V30 3683 H 347.942 1.9193 -0.327258 0
M  V30 3684 H 346.113 3.53669 1.6054 0
M  V30 3685 H 347.845 3.75963 1.49779 0
M  V30 3686 H 344.6 4.72807 -0.27399 0
M  V30 3687 H 345.024 6.3575 -2.32705 0
M  V30 3688 H 349.666 4.21168 -0.371099 0
M  V30 3689 H 347.384 7.19785 -3.67335 0
M  V30 3690 H 350.97 5.43289 -2.08154 0
M  V30 3691 H 349.85 6.90858 -3.71059 0
M  V30 3692 N 347.353 -0.0568162 1.57498 0
M  V30 3693 C 348.263 -1.08346 2.08083 0
M  V30 3694 C 349.279 -1.41439 1.01346 0
M  V30 3695 O 350.455 -1.51316 1.32912 0
M  V30 3696 C 347.52 -2.37352 2.52715 0
M  V30 3697 C 346.581 -2.11093 3.73816 0
M  V30 3698 C 345.814 -3.33949 4.1631 0
M  V30 3699 O 346.037 -4.43622 3.58547 0
M  V30 3700 O 344.971 -3.21279 5.08983 0
M  V30 3701 H 348.797 -0.683667 2.95905 0
M  V30 3702 H 346.382 -0.271965 1.46904 0
M  V30 3703 H 348.264 -3.13246 2.81877 0
M  V30 3704 H 346.939 -2.76681 1.68016 0
M  V30 3705 H 345.846 -1.32856 3.49714 0
M  V30 3706 H 347.179 -1.76637 4.59413 0
M  V30 3707 N 348.832 -1.54138 -0.328536 0
M  V30 3708 C 350.08 -1.71765 -1.06496 0
M  V30 3709 C 350.401 -0.49149 -1.88704 0
M  V30 3710 O 349.671 0.494539 -1.89555 0
M  V30 3711 H 348.251 -0.633295 -0.396164 0
M  V30 3712 H 350.913 -1.91429 -0.366176 0
M  V30 3713 H 350.009 -2.5951 -1.73381 0
M  V30 3714 N 350.31 0.590341 -1.46126 0
M  V30 3715 C 351.558 1.34616 -1.50742 0
M  V30 3716 C 351.879 1.94363 -0.157486 0
M  V30 3717 O 351.149 1.78136 0.815136 0
M  V30 3718 H 349.729 0.499789 -0.555175 0
M  V30 3719 H 352.391 0.691953 -1.82203 0
M  V30 3720 H 351.487 2.15678 -2.25587 0
M  V30 3721 N 351.788 1.33704 0.83433 0
M  V30 3722 C 353.037 1.24763 1.58484 0
M  V30 3723 C 353.35 -0.183775 1.94735 0
M  V30 3724 O 354.556 -0.395234 2.68608 0
M  V30 3725 C 353.012 2.18638 2.85876 0
M  V30 3726 C 352.62 3.66974 2.56971 0
M  V30 3727 C 354.364 2.18581 3.63899 0
M  V30 3728 C 352.271 4.5275 3.80488 0
M  V30 3729 H 351.201 0.463425 0.594772 0
M  V30 3730 H 353.852 1.58797 0.919551 0
M  V30 3731 H 352.234 1.77542 3.5397 0
M  V30 3732 H 353.408 4.16538 1.9706 0
M  V30 3733 H 351.723 3.69366 1.92244 0
M  V30 3734 H 354.32 2.79894 4.55591 0
M  V30 3735 H 354.663 1.18207 3.99165 0
M  V30 3736 H 355.196 2.58062 3.02735 0
M  V30 3737 H 351.935 5.54017 3.5035 0
M  V30 3738 H 351.455 4.07927 4.39722 0
M  V30 3739 H 353.134 4.66784 4.4802 0
M  V30 3740 N 353.266 -1.05314 1.17247 0
M  V30 3741 C 354.514 -1.77941 0.958194 0
M  V30 3742 C 354.835 -1.88089 -0.514556 0
M  V30 3743 O 354.105 -1.39676 -1.37359 0
M  V30 3744 H 352.685 -0.659116 0.351533 0
M  V30 3745 H 355.347 -1.27166 1.47699 0
M  V30 3746 H 354.443 -2.79663 1.38546 0
M  V30 3747 N 354.744 -0.972509 -1.24016 0
M  V30 3748 C 355.992 -0.635776 -1.91839 0
M  V30 3749 C 356.313 0.832312 -1.76345 0
M  V30 3750 O 355.583 1.5946 -1.13795 0
M  V30 3751 H 354.163 -0.232157 -0.710009 0
M  V30 3752 H 356.825 -1.23462 -1.50809 0
M  V30 3753 H 355.921 -0.880545 -2.99421 0
M  V30 3754 N 356.222 1.38976 -0.743202 0
M  V30 3755 C 357.468 2.0064 -0.295189 0
M  V30 3756 C 357.801 1.5885 1.11716 0
M  V30 3757 O 357.076 0.821181 1.76315 0
M  V30 3758 C 357.359 3.578 -0.406318 0
M  V30 3759 C 357.212 4.09586 -1.85903 0
M  V30 3760 C 358.531 4.39616 0.206439 0
M  V30 3761 H 355.65 0.728935 -0.108733 0
M  V30 3762 H 358.292 1.65067 -0.940897 0
M  V30 3763 H 356.442 3.88235 0.143419 0
M  V30 3764 H 358.114 3.89837 -2.46627 0
M  V30 3765 H 356.357 3.6284 -2.3776 0
M  V30 3766 H 357.028 5.18708 -1.888 0
M  V30 3767 H 359.504 4.15273 -0.262283 0
M  V30 3768 H 358.38 5.48812 0.0983819 0
M  V30 3769 H 358.641 4.22754 1.2935 0
M  V30 3770 N 357.7 0.491464 1.49741 0
M  V30 3771 C 359.111 0.0413169 1.86654 0
M  V30 3772 C 359.462 -1.36985 1.40462 0
M  V30 3773 O 358.587 -2.01917 0.778354 0
M  V30 3774 C 359.182 0.0682023 3.38731 0
M  V30 3775 C 357.741 -0.32656 3.74981 0
M  V30 3776 C 356.888 0.444888 2.73708 0
M  V30 3777 H 359.839 0.704733 1.42194 0
M  V30 3778 H 359.86 -0.729322 3.73445 0
M  V30 3779 H 359.372 1.09539 3.72321 0
M  V30 3780 H 357.473 -1.35734 3.46997 0
M  V30 3781 H 357.586 -0.013741 4.79098 0
M  V30 3782 H 355.95 -0.104062 2.54487 0
M  V30 3783 H 356.733 1.47197 3.10142 0
M  V30 3784 N 359.178 -1.55987 0.224894 0
M  V30 3785 C 360.426 -1.97998 -0.405099 0
M  V30 3786 C 360.747 -1.11387 -1.60056 0
M  V30 3787 O 360.017 -0.191645 -1.9496 0
M  V30 3788 H 358.597 -0.731235 -0.152658 0
M  V30 3789 H 361.259 -1.92279 0.318567 0
M  V30 3790 H 360.355 -3.03463 -0.729167 0
M  V30 3791 N 360.656 0.0484629 -1.57525 0
M  V30 3792 C 361.589 1.08755 -2.00618 0
M  V30 3793 C 362.567 1.36272 -0.887058 0
M  V30 3794 O 363.751 1.49255 -1.15131 0
M  V30 3795 C 360.878 2.42675 -2.36277 0
M  V30 3796 C 359.924 2.31142 -3.58435 0
M  V30 3797 S 360.757 1.68326 -5.08357 0
M  V30 3798 C 361.913 3.03776 -5.47239 0
M  V30 3799 H 362.146 0.720415 -2.88439 0
M  V30 3800 H 359.679 0.257801 -1.52233 0
M  V30 3801 H 361.637 3.19699 -2.57494 0
M  V30 3802 H 360.298 2.76541 -1.48942 0
M  V30 3803 H 359.491 3.29957 -3.80978 0
M  V30 3804 H 359.093 1.62258 -3.36969 0
M  V30 3805 H 361.385 4.00106 -5.46737 0
M  V30 3806 H 362.328 2.85988 -6.47778 0
M  V30 3807 H 362.736 3.05456 -4.74718 0
M  V30 3808 N 362.134 1.5431 0.320358 0
M  V30 3809 C 363.044 1.86946 1.41734 0
M  V30 3810 C 364.06 0.761689 1.56443 0
M  V30 3811 O 365.236 1.05629 1.71477 0
M  V30 3812 C 362.301 2.09293 2.76401 0
M  V30 3813 C 361.362 3.33082 2.70841 0
M  V30 3814 C 360.595 3.54353 3.99086 0
M  V30 3815 O 360.818 2.79002 4.97508 0
M  V30 3816 O 359.752 4.47838 4.0215 0
M  V30 3817 H 363.578 2.80232 1.17062 0
M  V30 3818 H 361.163 1.40255 0.514673 0
M  V30 3819 H 363.045 2.25303 3.56113 0
M  V30 3820 H 361.72 1.19194 3.00956 0
M  V30 3821 H 360.627 3.22454 1.89668 0
M  V30 3822 H 361.96 4.23249 2.5124 0
M  V30 3823 N 363.613 -0.582584 1.46437 0
M  V30 3824 C 364.576 -1.67366 1.56592 0
M  V30 3825 C 365.576 -1.54575 0.443072 0
M  V30 3826 O 366.766 -1.59191 0.707381 0
M  V30 3827 C 363.898 -3.06791 1.48634 0
M  V30 3828 H 365.091 -1.5972 2.5383 0
M  V30 3829 H 362.644 -0.800432 1.34249 0
M  V30 3830 H 363.379 -3.19993 0.526763 0
M  V30 3831 H 363.164 -3.17484 2.30101 0
M  V30 3832 H 364.654 -3.86218 1.58826 0
M  V30 3833 N 365.091 -1.34144 -0.827227 0
M  V30 3834 C 366.041 -1.21923 -1.92663 0
M  V30 3835 C 367.025 -0.119294 -1.60457 0
M  V30 3836 O 368.217 -0.348539 -1.73534 0
M  V30 3837 C 365.346 -0.972492 -3.29238 0
M  V30 3838 C 364.432 -2.1154 -3.67576 0
M  V30 3839 N 364.823 -3.36627 -3.77512 0
M  V30 3840 C 363.121 -2.02468 -3.97395 0
M  V30 3841 C 363.822 -4.11658 -4.1099 0
M  V30 3842 N 362.798 -3.40207 -4.23981 0
M  V30 3843 H 366.6 -2.16721 -1.98517 0
M  V30 3844 H 364.114 -1.2632 -1.02064 0
M  V30 3845 H 366.111 -0.865847 -4.0781 0
M  V30 3846 H 364.771 -0.0331509 -3.24683 0
M  V30 3847 H 365.782 -3.71234 -3.61118 0
M  V30 3848 H 362.459 -1.16265 -4.00985 0
M  V30 3849 H 363.849 -5.19657 -4.25918 0
M  V30 3850 N 366.569 1.04691 -1.17803 0
M  V30 3851 C 367.817 1.7743 -0.967617 0
M  V30 3852 C 368.138 1.88359 0.504574 0
M  V30 3853 O 367.408 1.40402 1.36617 0
M  V30 3854 H 365.988 0.657242 -0.355024 0
M  V30 3855 H 368.65 1.2638 -1.48371 0
M  V30 3856 H 367.746 2.78924 -1.40027 0
M  V30 3857 N 368.047 0.979072 1.23499 0
M  V30 3858 C 369.295 0.645941 1.91499 0
M  V30 3859 C 369.616 -0.822948 1.76784 0
M  V30 3860 O 368.886 -1.58854 1.14639 0
M  V30 3861 H 367.466 0.235919 0.708767 0
M  V30 3862 H 370.128 1.2426 1.50152 0
M  V30 3863 H 369.224 0.896411 2.9895 0
M  V30 3864 N 369.525 -1.3858 0.750561 0
M  V30 3865 C 370.755 -2.04175 0.31564 0
M  V30 3866 C 371.163 -1.56726 -1.05989 0
M  V30 3867 O 370.506 -0.734225 -1.68389 0
M  V30 3868 C 370.568 -3.58585 0.256389 0
M  V30 3869 C 370.232 -4.29077 1.57296 0
M  V30 3870 C 371.229 -4.54656 2.52159 0
M  V30 3871 C 368.914 -4.67324 1.84156 0
M  V30 3872 C 370.908 -5.17512 3.72103 0
M  V30 3873 C 368.595 -5.29905 3.04374 0
M  V30 3874 C 369.593 -5.54933 3.98168 0
M  V30 3875 O 369.281 -6.16212 5.16273 0
M  V30 3876 H 369.013 -0.662742 0.133226 0
M  V30 3877 H 371.567 -1.78313 1.01948 0
M  V30 3878 H 369.797 -3.83406 -0.503677 0
M  V30 3879 H 371.486 -4.05628 -0.148612 0
M  V30 3880 H 372.252 -4.25539 2.32683 0
M  V30 3881 H 368.131 -4.47191 1.11988 0
M  V30 3882 H 371.675 -5.36963 4.45327 0
M  V30 3883 H 367.572 -5.58444 3.23745 0
M  V30 3884 H 368.34 -6.34701 5.16815 0
M  V30 3885 N 371.003 -0.499398 -1.49478 0
M  V30 3886 C 372.231 0.0425456 -2.06856 0
M  V30 3887 C 372.646 1.30964 -1.35992 0
M  V30 3888 O 372.003 1.77172 -0.437762 0
M  V30 3889 C 372.054 0.301735 -3.60239 0
M  V30 3890 O 371.775 -0.915127 -4.28436 0
M  V30 3891 C 373.276 0.887499 -4.34325 0
M  V30 3892 H 370.496 -0.0197482 -0.670709 0
M  V30 3893 H 373.04 -0.696297 -1.92281 0
M  V30 3894 H 371.195 0.990556 -3.74522 0
M  V30 3895 H 371.609 -0.676993 -5.20113 0
M  V30 3896 H 373.083 1.01845 -5.42523 0
M  V30 3897 H 373.56 1.88488 -3.96698 0
M  V30 3898 H 374.166 0.236196 -4.24644 0
M  V30 3899 N 372.481 1.55866 -0.233164 0
M  V30 3900 C 373.728 1.98603 0.395374 0
M  V30 3901 C 374.056 1.12105 1.58942 0
M  V30 3902 O 373.311 0.168656 1.94972 0
M  V30 3903 C 373.61 3.46856 0.861724 0
M  V30 3904 C 373.276 4.50348 -0.223066 0
M  V30 3905 C 371.938 4.78371 -0.521038 0
M  V30 3906 C 374.29 5.12355 -0.956124 0
M  V30 3907 C 371.618 5.6568 -1.55638 0
M  V30 3908 C 373.97 6.00786 -1.98089 0
M  V30 3909 C 372.634 6.27148 -2.28565 0
M  V30 3910 H 371.904 0.726739 0.144677 0
M  V30 3911 H 374.551 1.88491 -0.338114 0
M  V30 3912 H 372.856 3.5423 1.67418 0
M  V30 3913 H 374.553 3.77302 1.35809 0
M  V30 3914 H 371.143 4.28596 0.0193234 0
M  V30 3915 H 375.327 4.90765 -0.739166 0
M  V30 3916 H 370.583 5.84365 -1.798 0
M  V30 3917 H 374.757 6.4788 -2.55391 0
M  V30 3918 H 372.384 6.94597 -3.08932 0
M  V30 3919 N 373.959 -0.0401083 1.57549 0
M  V30 3920 C 375.199 -0.738098 1.90608 0
M  V30 3921 C 375.563 -1.73107 0.830539 0
M  V30 3922 O 376.764 -2.4765 1.04513 0
M  V30 3923 C 375.035 -1.39985 3.28845 0
M  V30 3924 S 376.594 -2.12852 3.83718 0
M  V30 3925 H 373.412 -0.24477 0.667539 0
M  V30 3926 H 376.014 0.00693599 1.95499 0
M  V30 3927 H 374.718 -0.663775 4.04997 0
M  V30 3928 H 374.249 -2.18366 3.2723 0
M  V30 3929 H 376.264 -3.39842 3.61555 0
M  V30 3930 N 375.437 -1.54477 -0.31217 0
M  V30 3931 C 376.685 -1.72884 -1.04668 0
M  V30 3932 C 377.006 -0.511477 -1.88173 0
M  V30 3933 O 376.276 0.474407 -1.90069 0
M  V30 3934 H 374.856 -0.637461 -0.389425 0
M  V30 3935 H 377.518 -1.91807 -0.345852 0
M  V30 3936 H 376.614 -2.61334 -1.70619 0
M  V30 3937 N 376.915 0.57481 -1.46744 0
M  V30 3938 C 377.845 1.69337 -1.60771 0
M  V30 3939 C 378.826 1.63825 -0.457736 0
M  V30 3940 O 380.011 1.8172 -0.684947 0
M  V30 3941 C 377.141 3.0798 -1.60517 0
M  V30 3942 C 376.095 3.28327 -2.74564 0
M  V30 3943 C 375.421 4.67578 -2.59373 0
M  V30 3944 C 376.721 3.15398 -4.16319 0
M  V30 3945 H 378.415 1.57853 -2.54407 0
M  V30 3946 H 375.961 0.75799 -1.22436 0
M  V30 3947 H 377.914 3.86061 -1.68923 0
M  V30 3948 H 376.638 3.20381 -0.634305 0
M  V30 3949 H 375.297 2.52649 -2.65639 0
M  V30 3950 H 374.945 4.76755 -1.60353 0
M  V30 3951 H 374.645 4.82144 -3.35873 0
M  V30 3952 H 376.169 5.47817 -2.69682 0
M  V30 3953 H 377.583 3.83315 -4.26313 0
M  V30 3954 H 375.98 3.41482 -4.93468 0
M  V30 3955 H 377.05 2.12372 -4.3592 0
M  V30 3956 N 378.394 1.34581 0.820102 0
M  V30 3957 C 379.357 1.2628 1.91275 0
M  V30 3958 C 380.357 0.177344 1.59819 0
M  V30 3959 O 381.547 0.430156 1.68806 0
M  V30 3960 C 378.679 0.950327 3.27386 0
M  V30 3961 H 379.872 2.23421 2.00057 0
M  V30 3962 H 377.425 1.1891 1.0144 0
M  V30 3963 H 378.16 -0.0177938 3.24295 0
M  V30 3964 H 377.945 1.73549 3.51601 0
M  V30 3965 H 379.435 0.917492 4.07396 0
M  V30 3966 N 379.872 -1.04064 1.18357 0
M  V30 3967 C 380.835 -2.10243 0.912707 0
M  V30 3968 C 381.835 -1.60477 -0.101928 0
M  V30 3969 O 383.025 -1.73703 0.131517 0
M  V30 3970 C 380.157 -3.38893 0.369387 0
M  V30 3971 H 381.35 -2.35706 1.85426 0
M  V30 3972 H 378.903 -1.20489 0.995594 0
M  V30 3973 H 379.638 -3.19094 -0.578776 0
M  V30 3974 H 379.423 -3.76331 1.1008 0
M  V30 3975 H 380.913 -4.17128 0.198575 0
M  V30 3976 N 381.35 -0.985608 -1.22978 0
M  V30 3977 C 382.28 -0.549649 -2.26939 0
M  V30 3978 C 383.261 0.419803 -1.64838 0
M  V30 3979 O 384.446 0.31203 -1.91677 0
M  V30 3980 C 381.576 0.143652 -3.47003 0
M  V30 3981 C 380.53 -0.743606 -4.21491 0
M  V30 3982 C 379.856 0.0822027 -5.34637 0
M  V30 3983 C 381.156 -2.03694 -4.80943 0
M  V30 3984 H 382.85 -1.41862 -2.63658 0
M  V30 3985 H 380.396 -0.683571 -1.26741 0
M  V30 3986 H 382.349 0.459985 -4.18882 0
M  V30 3987 H 381.073 1.04711 -3.09359 0
M  V30 3988 H 379.732 -1.04347 -3.51436 0
M  V30 3989 H 379.38 0.986359 -4.93234 0
M  V30 3990 H 379.08 -0.508377 -5.85397 0
M  V30 3991 H 380.604 0.392797 -6.09335 0
M  V30 3992 H 382.018 -1.78504 -5.44802 0
M  V30 3993 H 380.415 -2.57573 -5.42011 0
M  V30 3994 H 381.485 -2.72042 -4.01399 0
M  V30 3995 N 382.828 1.3818 -0.7579 0
M  V30 3996 C 384.074 2.00316 -0.316453 0
M  V30 3997 C 384.407 1.60026 1.10025 0
M  V30 3998 O 383.682 0.839835 1.75434 0
M  V30 3999 C 383.965 3.57349 -0.444245 0
M  V30 4000 C 383.818 4.07591 -1.90236 0
M  V30 4001 C 385.137 4.3981 0.1598 0
M  V30 4002 H 382.256 0.727741 -0.116459 0
M  V30 4003 H 384.898 1.6406 -0.958352 0
M  V30 4004 H 383.048 3.88365 0.102233 0
M  V30 4005 H 384.72 3.87199 -2.50748 0
M  V30 4006 H 382.963 3.60297 -2.41595 0
M  V30 4007 H 383.634 5.16677 -1.94291 0
M  V30 4008 H 386.11 4.14971 -0.306314 0
M  V30 4009 H 384.986 5.48885 0.0401675 0
M  V30 4010 H 385.247 4.24102 1.24859 0
M  V30 4011 N 384.306 0.507319 1.49211 0
M  V30 4012 C 385.555 -0.0368315 2.01666 0
M  V30 4013 C 385.868 -1.37459 1.39156 0
M  V30 4014 O 387.074 -2.00579 1.82976 0
M  V30 4015 C 385.53 -0.116089 3.59713 0
M  V30 4016 C 385.138 1.2154 4.31198 0
M  V30 4017 C 386.882 -0.610268 4.2009 0
M  V30 4018 C 384.789 1.09796 5.81119 0
M  V30 4019 H 383.719 -0.0175376 0.753796 0
M  V30 4020 H 386.37 0.647691 1.71689 0
M  V30 4021 H 384.752 -0.8652 3.86433 0
M  V30 4022 H 385.926 1.9783 4.16173 0
M  V30 4023 H 384.241 1.64352 3.82593 0
M  V30 4024 H 386.838 -0.715742 5.29888 0
M  V30 4025 H 387.181 -1.61064 3.8388 0
M  V30 4026 H 387.714 0.0824916 3.97714 0
M  V30 4027 H 384.453 2.0728 6.21864 0
M  V30 4028 H 383.973 0.376058 5.9862 0
M  V30 4029 H 385.652 0.779281 6.4229 0
M  V30 4030 N 385.784 -1.5574 0.241426 0
M  V30 4031 C 386.714 -2.24133 -0.654722 0
M  V30 4032 C 387.695 -1.21974 -1.1856 0
M  V30 4033 O 388.88 -1.50612 -1.22595 0
M  V30 4034 C 386.01 -2.93659 -1.85423 0
M  V30 4035 C 384.964 -4.0246 -1.45636 0
M  V30 4036 C 384.29 -4.59383 -2.73626 0
M  V30 4037 C 385.59 -5.18468 -0.631506 0
M  V30 4038 H 387.284 -2.99281 -0.0844353 0
M  V30 4039 H 384.83 -1.43947 -0.0391707 0
M  V30 4040 H 386.783 -3.40203 -2.48676 0
M  V30 4041 H 385.507 -2.15991 -2.44981 0
M  V30 4042 H 384.166 -3.56676 -0.847202 0
M  V30 4043 H 383.814 -3.78422 -3.3137 0
M  V30 4044 H 383.514 -5.32826 -2.4773 0
M  V30 4045 H 385.038 -5.08658 -3.37786 0
M  V30 4046 H 386.452 -5.61272 -1.1682 0
M  V30 4047 H 384.849 -5.98266 -0.468831 0
M  V30 4048 H 385.919 -4.8358 0.357506 0
M  V30 4049 N 387.262 0.0317525 -1.57568 0
M  V30 4050 C 388.209 1.0332 -2.06382 0
M  V30 4051 C 389.179 1.36082 -0.952414 0
M  V30 4052 O 390.364 1.46466 -1.2228 0
M  V30 4053 C 387.504 2.32989 -2.54578 0
M  V30 4054 C 386.617 2.0641 -3.79498 0
M  V30 4055 C 385.752 3.2993 -4.16317 0
M  V30 4056 C 384.791 2.98893 -5.34162 0
M  V30 4057 N 383.928 4.14857 -5.66426 0
M  V30 4058 H 388.768 0.609982 -2.9169 0
M  V30 4059 H 386.305 0.289573 -1.44222 0
M  V30 4060 H 388.263 3.0875 -2.80587 0
M  V30 4061 H 386.893 2.73039 -1.7219 0
M  V30 4062 H 385.945 1.21158 -3.6059 0
M  V30 4063 H 387.257 1.79513 -4.65378 0
M  V30 4064 H 386.411 4.1406 -4.4344 0
M  V30 4065 H 385.15 3.59938 -3.29083 0
M  V30 4066 H 384.155 2.13164 -5.06795 0
M  V30 4067 H 385.38 2.70165 -6.23047 0
M  V30 4068 H 383.326 4.44821 -4.82151 0
M  V30 4069 H 383.243 3.91374 -6.4681 0
M  V30 4070 H 384.511 4.99868 -5.98124 0
M  V30 4071 N 388.74 1.54641 0.303973 0
M  V30 4072 C 390.156 1.45788 0.649463 0
M  V30 4073 C 390.356 0.64666 1.90842 0
M  V30 4074 O 389.412 0.153183 2.52035 0
M  V30 4075 C 390.725 2.89718 0.805227 0
M  V30 4076 C 392.273 2.99742 0.901305 0
M  V30 4077 C 392.748 4.44863 1.08909 0
M  V30 4078 N 394.239 4.48559 1.15536 0
M  V30 4079 C 394.974 5.58026 1.3189 0
M  V30 4080 N 394.47 6.77422 1.45161 0
M  V30 4081 N 396.263 5.45708 1.34755 0
M  V30 4082 H 388.414 2.05854 -0.523237 0
M  V30 4083 H 390.677 0.932186 -0.172431 0
M  V30 4084 H 390.383 3.51666 -0.0489108 0
M  V30 4085 H 390.257 3.36964 1.69513 0
M  V30 4086 H 392.644 2.3791 1.74593 0
M  V30 4087 H 392.725 2.55797 -0.0125531 0
M  V30 4088 H 392.369 5.07288 0.249241 0
M  V30 4089 H 392.299 4.86436 2.01713 0
M  V30 4090 H 394.79 3.6254 1.06646 0
M  V30 4091 H 395.103 7.56604 1.57387 0
M  V30 4092 H 393.448 6.80292 1.42223 0
M  V30 4093 H 396.639 4.51378 1.23996 0
M  V30 4094 H 396.812 6.3107 1.47157 0
M  V30 4095 N 390.218 -0.567019 1.47046 0
M  V30 4096 C 391.128 -1.70247 1.6141 0
M  V30 4097 C 392.144 -1.66746 0.497157 0
M  V30 4098 O 393.32 -1.86371 0.763389 0
M  V30 4099 C 390.385 -3.06756 1.61561 0
M  V30 4100 C 389.446 -3.21399 2.84607 0
M  V30 4101 C 388.679 -4.51396 2.84741 0
M  V30 4102 O 388.902 -5.36255 1.94388 0
M  V30 4103 O 387.836 -4.69621 3.76483 0
M  V30 4104 H 391.662 -1.61073 2.57467 0
M  V30 4105 H 389.247 -0.735894 1.30019 0
M  V30 4106 H 391.129 -3.8801 1.64396 0
M  V30 4107 H 389.804 -3.16333 0.686684 0
M  V30 4108 H 388.711 -2.39579 2.8732 0
M  V30 4109 H 390.044 -3.16721 3.76761 0
M  V30 4110 N 391.696 -1.35014 -0.812953 0
M  V30 4111 C 393.112 -1.14914 -1.10757 0
M  V30 4112 C 393.312 0.0426818 -2.01455 0
M  V30 4113 O 392.368 0.715212 -2.42159 0
M  V30 4114 C 393.681 -2.44911 -1.74468 0
M  V30 4115 C 395.229 -2.5106 -1.86917 0
M  V30 4116 C 395.704 -3.81085 -2.54044 0
M  V30 4117 N 397.195 -3.82301 -2.61535 0
M  V30 4118 C 397.93 -4.79634 -3.14227 0
M  V30 4119 N 397.426 -5.87353 -3.67407 0
M  V30 4120 N 399.219 -4.67078 -3.12721 0
M  V30 4121 H 391.37 -2.1136 -0.20989 0
M  V30 4122 H 393.633 -0.935128 -0.155692 0
M  V30 4123 H 393.339 -3.32267 -1.15289 0
M  V30 4124 H 393.213 -2.58989 -2.74234 0
M  V30 4125 H 395.6 -1.64137 -2.45241 0
M  V30 4126 H 395.681 -2.40901 -0.860242 0
M  V30 4127 H 395.325 -4.68402 -1.96372 0
M  V30 4128 H 395.255 -3.88529 -3.55461 0
M  V30 4129 H 397.746 -3.04465 -2.23851 0
M  V30 4130 H 398.059 -6.57624 -4.05894 0
M  V30 4131 H 396.404 -5.91054 -3.65623 0
M  V30 4132 H 399.595 -3.82067 -2.70449 0
M  V30 4133 H 399.768 -5.43098 -3.53481 0
M  V30 4134 N 393.175 1.03435 -1.18907 0
M  V30 4135 C 394.4 1.80919 -1.01406 0
M  V30 4136 C 394.825 1.83055 0.432721 0
M  V30 4137 O 394.183 1.25252 1.31079 0
M  V30 4138 C 394.231 3.24091 -1.58105 0
M  V30 4139 O 393.335 4.04434 -0.806669 0
M  V30 4140 H 392.676 0.558709 -0.358803 0
M  V30 4141 H 395.206 1.30223 -1.57807 0
M  V30 4142 H 395.216 3.74853 -1.61087 0
M  V30 4143 H 393.891 3.21851 -2.6341 0
M  V30 4144 H 392.468 3.63091 -0.849666 0
M  V30 4145 N 394.653 0.992116 1.22453 0
M  V30 4146 C 395.583 0.561677 2.26644 0
M  V30 4147 C 396.564 -0.411055 1.65059 0
M  V30 4148 O 397.749 -0.301861 1.9184 0
M  V30 4149 C 394.879 -0.125247 3.47074 0
M  V30 4150 C 393.833 0.765948 4.21091 0
M  V30 4151 C 393.159 -0.0538484 5.34673 0
M  V30 4152 C 394.459 2.06242 4.79856 0
M  V30 4153 H 396.153 1.43259 2.62902 0
M  V30 4154 H 393.699 0.690283 1.26377 0
M  V30 4155 H 395.652 -0.437764 4.1912 0
M  V30 4156 H 394.376 -1.03069 3.0991 0
M  V30 4157 H 393.035 1.0621 3.50878 0
M  V30 4158 H 392.683 -0.960188 4.9375 0
M  V30 4159 H 392.383 0.539415 5.85119 0
M  V30 4160 H 393.907 -0.360477 6.09535 0
M  V30 4161 H 395.321 1.8139 5.43848 0
M  V30 4162 H 393.718 2.60444 5.40638 0
M  V30 4163 H 394.788 2.74167 3.99951 0
M  V30 4164 N 396.131 -1.37776 0.765217 0
M  V30 4165 C 397.079 -2.32209 0.134798 0
M  V30 4166 C 398.073 -1.54607 -0.692315 0
M  V30 4167 O 399.279 -1.70052 -0.590109 0
M  V30 4168 H 395.654 -0.751591 0.0248005 0
M  V30 4169 H 397.625 -2.8297 0.947119 0
M  V30 4170 C 396.374 -3.39841 -0.735063 0
M  V30 4171 H 395.697 -3.99654 -0.107991 0
M  V30 4172 H 397.137 -4.08296 -1.14326 0
M  V30 4173 C 395.596 -2.79378 -1.88281 0
M  V30 4174 O 396.126 -2.69608 -2.97783 0
M  V30 4175 N 394.332 -2.37016 -1.68142 0
M  V30 4176 H 393.879 -2.45162 -0.790772 0
M  V30 4177 H 393.837 -1.96905 -2.45104 0
M  V30 4178 N 397.609 -0.515225 -1.4894 0
M  V30 4179 C 398.539 0.244628 -2.32215 0
M  V30 4180 C 399.52 0.949136 -1.41157 0
M  V30 4181 O 400.705 0.937783 -1.70057 0
M  V30 4182 C 397.835 1.30096 -3.22013 0
M  V30 4183 C 396.789 0.715486 -4.21977 0
M  V30 4184 C 396.115 1.87339 -5.00808 0
M  V30 4185 C 397.415 -0.302982 -5.2142 0
M  V30 4186 H 399.109 -0.450501 -2.95991 0
M  V30 4187 H 396.655 -0.218098 -1.42339 0
M  V30 4188 H 398.608 1.84037 -3.79089 0
M  V30 4189 H 397.332 2.02547 -2.56207 0
M  V30 4190 H 395.991 0.197715 -3.66066 0
M  V30 4191 H 395.639 2.58592 -4.31438 0
M  V30 4192 H 395.339 1.48764 -5.68457 0
M  V30 4193 H 396.863 2.41686 -5.60732 0
M  V30 4194 H 398.277 0.148802 -5.73107 0
M  V30 4195 H 396.674 -0.60532 -5.97039 0
M  V30 4196 H 397.744 -1.21395 -4.69459 0
M  V30 4197 N 399.087 1.5561 -0.249682 0
M  V30 4198 C 400.034 2.21496 0.648694 0
M  V30 4199 C 401.004 1.17977 1.16921 0
M  V30 4200 O 402.189 1.46434 1.22318 0
M  V30 4201 C 399.329 2.92039 1.83868 0
M  V30 4202 C 398.442 4.10219 1.35442 0
M  V30 4203 C 397.577 4.6847 2.50419 0
M  V30 4204 C 396.616 5.78893 1.98869 0
M  V30 4205 N 395.753 6.31315 3.07223 0
M  V30 4206 H 400.593 2.97892 0.0801582 0
M  V30 4207 H 398.13 1.47074 0.0278031 0
M  V30 4208 H 400.088 3.31138 2.53778 0
M  V30 4209 H 398.718 2.18111 2.37965 0
M  V30 4210 H 397.77 3.76413 0.54928 0
M  V30 4211 H 399.082 4.89927 0.936649 0
M  V30 4212 H 398.236 5.10158 3.28366 0
M  V30 4213 H 396.975 3.87984 2.95499 0
M  V30 4214 H 395.98 5.3668 1.19393 0
M  V30 4215 H 397.205 6.61232 1.54755 0
M  V30 4216 H 395.151 5.53733 3.51732 0
M  V30 4217 H 395.068 7.06224 2.69784 0
M  V30 4218 H 396.336 6.77662 3.8522 0
M  V30 4219 N 400.565 -0.0233959 1.57583 0
M  V30 4220 C 401.79 -0.728376 1.94189 0
M  V30 4221 C 402.215 -1.67793 0.850119 0
M  V30 4222 O 401.573 -1.80262 -0.19371 0
M  V30 4223 C 401.621 -1.45669 3.29868 0
M  V30 4224 O 400.725 -2.57013 3.22518 0
M  V30 4225 H 400.066 -0.195493 0.63457 0
M  V30 4226 H 402.596 0.0228214 2.04587 0
M  V30 4227 H 402.606 -1.82535 3.6489 0
M  V30 4228 H 401.281 -0.760314 4.08891 0
M  V30 4229 H 399.858 -2.22648 2.99136 0
M  V30 4230 N 402.043 -1.548 -0.295768 0
M  V30 4231 C 402.973 -1.89115 -1.36959 0
M  V30 4232 C 403.954 -0.75059 -1.52644 0
M  V30 4233 O 405.139 -1.00678 -1.66065 0
M  V30 4234 C 402.269 -2.14307 -2.73295 0
M  V30 4235 C 401.223 -3.30151 -2.72368 0
M  V30 4236 C 400.549 -3.40772 -4.12042 0
M  V30 4237 C 401.849 -4.67126 -2.33646 0
M  V30 4238 H 403.543 -2.79053 -1.08488 0
M  V30 4239 H 401.089 -1.34266 -0.520443 0
M  V30 4240 H 403.042 -2.36898 -3.48507 0
M  V30 4241 H 401.766 -1.21145 -3.03301 0
M  V30 4242 H 400.425 -3.0749 -1.99613 0
M  V30 4243 H 400.073 -2.45117 -4.39234 0
M  V30 4244 H 399.773 -4.18645 -4.12322 0
M  V30 4245 H 401.297 -3.6563 -4.89027 0
M  V30 4246 H 402.711 -4.89414 -2.98575 0
M  V30 4247 H 401.108 -5.47751 -2.45129 0
M  V30 4248 H 402.178 -4.67489 -1.28772 0
M  V30 4249 N 403.521 0.559213 -1.47345 0
M  V30 4250 C 404.451 1.67622 -1.62558 0
M  V30 4251 C 405.432 1.63331 -0.475087 0
M  V30 4252 O 406.617 1.80983 -0.704182 0
M  V30 4253 C 403.747 3.0626 -1.63774 0
M  V30 4254 C 402.701 3.25397 -2.7803 0
M  V30 4255 C 402.027 4.64801 -2.64318 0
M  V30 4256 C 403.327 3.10965 -4.19641 0
M  V30 4257 H 405.021 1.55146 -2.56067 0
M  V30 4258 H 402.567 0.744961 -1.23233 0
M  V30 4259 H 404.52 3.84247 -1.73008 0
M  V30 4260 H 403.244 3.1969 -0.66825 0
M  V30 4261 H 401.903 2.49817 -2.68304 0
M  V30 4262 H 401.551 4.75028 -1.65401 0
M  V30 4263 H 401.251 4.78555 -3.40968 0
M  V30 4264 H 402.775 5.44926 -2.75478 0
M  V30 4265 H 404.189 3.78772 -4.30354 0
M  V30 4266 H 402.586 3.36229 -4.97062 0
M  V30 4267 H 403.656 2.07736 -4.38148 0
M  V30 4268 N 404.999 1.35443 0.805782 0
M  V30 4269 C 405.931 1.24285 1.92577 0
M  V30 4270 C 406.944 0.165962 1.61952 0
M  V30 4271 O 408.133 0.419303 1.73505 0
M  V30 4272 C 405.233 0.891272 3.2697 0
M  V30 4273 C 404.406 2.06669 3.85495 0
M  V30 4274 C 403.465 1.69077 4.98297 0
M  V30 4275 O 402.491 2.4096 5.15681 0
M  V30 4276 N 403.693 0.614869 5.77234 0
M  V30 4277 H 406.458 2.20777 2.02676 0
M  V30 4278 H 404.019 1.28623 0.983243 0
M  V30 4279 H 406.011 0.621256 3.99903 0
M  V30 4280 H 404.581 0.016004 3.12596 0
M  V30 4281 H 403.801 2.50046 3.04747 0
M  V30 4282 H 405.089 2.85237 4.21328 0
M  V30 4283 H 404.487 0.017648 5.65697 0
M  V30 4284 H 403.044 0.404636 6.50543 0
M  V30 4285 N 406.477 -1.02803 1.19454 0
M  V30 4286 C 407.723 -1.76598 1.0092 0
M  V30 4287 C 408.078 -1.86939 -0.455142 0
M  V30 4288 O 407.371 -1.37575 -1.33355 0
M  V30 4289 C 407.565 -3.18941 1.6128 0
M  V30 4290 C 407.394 -3.22476 3.13431 0
M  V30 4291 C 406.164 -3.30375 3.82336 0
M  V30 4292 C 408.362 -3.09451 4.10785 0
M  V30 4293 N 406.344 -3.23292 5.21877 0
M  V30 4294 C 407.715 -3.10012 5.36929 0
M  V30 4295 C 409.77 -2.93585 4.02135 0
M  V30 4296 C 408.473 -2.96334 6.55423 0
M  V30 4297 C 410.499 -2.81256 5.20239 0
M  V30 4298 C 409.861 -2.82472 6.45282 0
M  V30 4299 H 405.96 -0.657447 0.423424 0
M  V30 4300 H 408.544 -1.22369 1.5144 0
M  V30 4301 H 406.715 -3.71489 1.1336 0
M  V30 4302 H 408.447 -3.81102 1.36173 0
M  V30 4303 H 405.202 -3.3663 3.33132 0
M  V30 4304 H 405.626 -3.23156 5.94894 0
M  V30 4305 H 410.268 -2.91466 3.0628 0
M  V30 4306 H 407.986 -2.97203 7.51463 0
M  V30 4307 H 411.572 -2.70014 5.15348 0
M  V30 4308 H 410.452 -2.73036 7.35133 0
M  V30 4309 N 407.956 -0.998596 -1.21925 0
M  V30 4310 C 409.202 -0.678667 -1.91107 0
M  V30 4311 C 409.535 0.78791 -1.77498 0
M  V30 4312 O 408.81 1.57043 -1.1475 0
M  V30 4313 C 409.093 -1.09245 -3.43129 0
M  V30 4314 C 408.946 -2.61801 -3.6576 0
M  V30 4315 C 410.265 -0.649984 -4.35274 0
M  V30 4316 H 407.384 -0.248025 -0.694012 0
M  V30 4317 H 410.026 -1.24314 -1.43688 0
M  V30 4318 H 408.176 -0.612171 -3.83647 0
M  V30 4319 H 409.848 -3.17543 -3.34611 0
M  V30 4320 H 408.091 -3.03609 -3.09845 0
M  V30 4321 H 408.762 -2.85804 -4.7225 0
M  V30 4322 H 411.238 -1.0626 -4.02303 0
M  V30 4323 H 410.114 -0.967743 -5.40302 0
M  V30 4324 H 410.375 0.449139 -4.39813 0
M  V30 4325 N 409.434 1.37368 -0.772513 0
M  V30 4326 C 410.662 2.03942 -0.348588 0
M  V30 4327 C 411.077 1.58264 1.02947 0
M  V30 4328 O 410.434 0.764246 1.65727 0
M  V30 4329 C 410.485 3.5946 -0.38351 0
M  V30 4330 O 410.206 4.03468 -1.70721 0
M  V30 4331 C 411.707 4.4327 0.0519152 0
M  V30 4332 H 408.927 0.654931 -0.145966 0
M  V30 4333 H 411.471 1.75686 -1.04665 0
M  V30 4334 H 409.626 3.86486 0.265978 0
M  V30 4335 H 410.04 4.97991 -1.64636 0
M  V30 4336 H 411.514 5.51995 -0.0236733 0
M  V30 4337 H 411.991 4.2514 1.10238 0
M  V30 4338 H 412.597 4.21471 -0.569415 0
M  V30 4339 N 410.912 0.523116 1.48665 0
M  V30 4340 C 412.137 -0.0117284 2.07397 0
M  V30 4341 C 412.562 -1.28031 1.37803 0
M  V30 4342 O 411.92 -1.75836 0.441762 0
M  V30 4343 C 411.968 -0.225786 3.59892 0
M  V30 4344 O 411.072 -1.29592 3.91509 0
M  V30 4345 H 410.413 0.0360673 0.66302 0
M  V30 4346 H 412.943 0.729066 1.9117 0
M  V30 4347 H 412.953 -0.450552 4.05505 0
M  V30 4348 H 411.628 0.700944 4.09951 0
M  V30 4349 H 410.205 -1.05436 3.57684 0
M  V30 4350 N 412.39 -1.55475 0.257931 0
M  V30 4351 C 413.806 -1.59307 -0.0966563 0
M  V30 4352 C 414.006 -1.27514 -1.5602 0
M  V30 4353 O 413.062 -1.02774 -2.30637 0
M  V30 4354 C 414.375 -2.99552 0.262481 0
M  V30 4355 C 415.923 -3.1231 0.207683 0
M  V30 4356 C 416.398 -4.54793 0.541012 0
M  V30 4357 N 417.889 -4.6058 0.491921 0
M  V30 4358 C 418.624 -5.68825 0.722857 0
M  V30 4359 N 418.12 -6.85287 1.0175 0
M  V30 4360 N 419.913 -5.58296 0.652815 0
M  V30 4361 H 412.064 -1.74409 1.21224 0
M  V30 4362 H 414.327 -0.812424 0.48854 0
M  V30 4363 H 414.033 -3.27593 1.27967 0
M  V30 4364 H 413.907 -3.75019 -0.40508 0
M  V30 4365 H 416.294 -2.84044 -0.800195 0
M  V30 4366 H 416.375 -2.39095 0.909255 0
M  V30 4367 H 416.019 -4.83783 1.5465 0
M  V30 4368 H 415.949 -5.26285 -0.18216 0
M  V30 4369 H 418.44 -3.7691 0.273366 0
M  V30 4370 H 418.753 -7.63725 1.18084 0
M  V30 4371 H 417.098 -6.86945 1.05509 0
M  V30 4372 H 420.289 -4.66189 0.422592 0
M  V30 4373 H 420.462 -6.42582 0.836182 0
M  V30 4374 N 413.868 0.0150385 -1.57593 0
M  V30 4375 C 414.8 1.03912 -2.04291 0
M  V30 4376 C 415.813 1.31618 -0.958146 0
M  V30 4377 O 417.002 1.28859 -1.23522 0
M  V30 4378 C 414.102 2.37749 -2.41514 0
M  V30 4379 C 413.275 2.29198 -3.72541 0
M  V30 4380 C 412.334 3.45598 -3.96797 0
M  V30 4381 O 411.36 3.24461 -4.67668 0
M  V30 4382 N 412.562 4.67945 -3.43523 0
M  V30 4383 H 415.327 0.64099 -2.92765 0
M  V30 4384 H 412.888 0.20272 -1.60626 0
M  V30 4385 H 414.88 3.14364 -2.54867 0
M  V30 4386 H 413.45 2.69357 -1.58637 0
M  V30 4387 H 412.67 1.3759 -3.69408 0
M  V30 4388 H 413.958 2.20642 -4.5847 0
M  V30 4389 H 413.356 4.88017 -2.86104 0
M  V30 4390 H 411.913 5.41878 -3.62232 0
M  V30 4391 N 415.346 1.54954 0.287554 0
M  V30 4392 C 416.279 1.81737 1.3801 0
M  V30 4393 C 417.257 0.669412 1.48181 0
M  V30 4394 O 418.441 0.910839 1.65033 0
M  V30 4395 C 415.568 1.96606 2.75796 0
M  V30 4396 C 414.614 3.19098 2.82982 0
M  V30 4397 S 415.447 4.7683 2.43707 0
M  V30 4398 C 416.603 4.94653 3.83496 0
M  V30 4399 H 416.836 2.74122 1.15085 0
M  V30 4400 H 414.369 1.46538 0.486403 0
M  V30 4401 H 416.327 2.05858 3.55152 0
M  V30 4402 H 414.988 1.05136 2.95982 0
M  V30 4403 H 414.181 3.26344 3.84077 0
M  V30 4404 H 413.783 3.08361 2.11635 0
M  V30 4405 H 416.075 4.79502 4.78628 0
M  V30 4406 H 417.018 5.96728 3.8121 0
M  V30 4407 H 417.426 4.2272 3.74123 0
M  V30 4408 N 416.824 -0.551391 1.4764 0
M  V30 4409 C 418.24 -0.877887 1.33287 0
M  V30 4410 C 418.44 -1.98817 0.327721 0
M  V30 4411 O 417.496 -2.51171 -0.258695 0
M  V30 4412 C 418.809 -1.26563 2.72768 0
M  V30 4413 C 420.357 -1.37673 2.81097 0
M  V30 4414 C 420.832 -1.79799 4.21232 0
M  V30 4415 N 422.323 -1.8694 4.23802 0
M  V30 4416 C 423.058 -2.20876 5.29151 0
M  V30 4417 N 422.554 -2.53386 6.448 0
M  V30 4418 N 424.347 -2.217 5.16532 0
M  V30 4419 H 416.498 0.18153 2.11623 0
M  V30 4420 H 418.761 0.0185514 0.947818 0
M  V30 4421 H 418.467 -0.523591 3.47781 0
M  V30 4422 H 418.341 -2.22052 3.04915 0
M  V30 4423 H 420.728 -2.10956 2.06353 0
M  V30 4424 H 420.809 -0.40357 2.52596 0
M  V30 4425 H 420.453 -1.07083 4.96483 0
M  V30 4426 H 420.383 -2.78128 4.4716 0
M  V30 4427 H 422.874 -1.64179 3.40373 0
M  V30 4428 H 423.187 -2.78325 7.20941 0
M  V30 4429 H 421.532 -2.50953 6.48111 0
M  V30 4430 H 424.723 -1.95745 4.25207 0
M  V30 4431 H 424.896 -2.47818 5.98741 0
M  V30 4432 N 418.302 -1.35869 -0.798587 0
M  V30 4433 C 419.549 -1.29588 -1.55606 0
M  V30 4434 C 419.877 0.127456 -1.94082 0
M  V30 4435 O 419.132 1.09461 -1.62225 0
M  V30 4436 C 419.431 -2.1556 -2.85077 0
M  V30 4437 C 419.097 -3.6424 -2.65781 0
M  V30 4438 C 417.759 -4.04766 -2.60227 0
M  V30 4439 C 420.111 -4.58547 -2.47758 0
M  V30 4440 C 417.439 -5.37753 -2.34603 0
M  V30 4441 C 419.791 -5.91742 -2.23662 0
M  V30 4442 C 418.455 -6.31402 -2.16534 0
M  V30 4443 H 417.725 -0.474197 -0.569402 0
M  V30 4444 H 420.372 -1.67839 -0.922086 0
M  V30 4445 H 418.677 -1.70216 -3.52893 0
M  V30 4446 H 420.374 -2.08031 -3.42818 0
M  V30 4447 H 416.964 -3.32086 -2.70956 0
M  V30 4448 H 421.148 -4.28117 -2.51056 0
M  V30 4449 H 416.404 -5.67474 -2.2756 0
M  V30 4450 H 420.578 -6.6439 -2.08708 0
M  V30 4451 H 418.205 -7.34381 -1.96441 0
M  V30 4452 N 419.78 1.02168 -1.19998 0
M  V30 4453 C 420.69 2.14069 -0.959774 0
M  V30 4454 C 421.706 1.73804 0.082655 0
M  V30 4455 O 422.882 2.01133 -0.103633 0
M  V30 4456 C 419.947 3.42936 -0.509459 0
M  V30 4457 C 419.008 3.97474 -1.62213 0
M  V30 4458 C 418.241 5.2019 -1.19321 0
M  V30 4459 O 418.464 5.70369 -0.0597726 0
M  V30 4460 O 417.398 5.67749 -1.99863 0
M  V30 4461 H 421.224 2.37199 -1.89658 0
M  V30 4462 H 418.809 1.12469 -0.983411 0
M  V30 4463 H 420.691 4.20551 -0.267322 0
M  V30 4464 H 419.366 3.21234 0.398821 0
M  V30 4465 H 418.273 3.21161 -1.9185 0
M  V30 4466 H 419.606 4.23555 -2.50723 0
M  V30 4467 N 421.258 1.00505 1.21394 0
M  V30 4468 C 422.506 0.686415 1.90086 0
M  V30 4469 C 422.827 -0.785264 1.7849 0
M  V30 4470 O 422.097 -1.56387 1.17983 0
M  V30 4471 H 420.677 0.2509 0.703604 0
M  V30 4472 H 423.339 1.27417 1.47482 0
M  V30 4473 H 422.435 0.959621 2.96981 0
M  V30 4474 N 422.737 -1.36956 0.779787 0
M  V30 4475 C 423.985 -1.99097 0.347079 0
M  V30 4476 C 424.306 -1.62206 -1.08232 0
M  V30 4477 O 423.576 -0.891373 -1.74446 0
M  V30 4478 H 422.156 -0.736409 0.125342 0
M  V30 4479 H 424.818 -1.67308 0.999696 0
M  V30 4480 H 423.914 -3.09107 0.431162 0
M  V30 4481 N 424.215 -0.530993 -1.48385 0
M  V30 4482 C 425.462 0.0027373 -2.025 0
M  V30 4483 C 425.79 1.34186 -1.40799 0
M  V30 4484 O 425.045 1.88 -0.543544 0
M  V30 4485 C 425.344 0.172742 -3.56982 0
M  V30 4486 C 425.01 -1.09215 -4.37473 0
M  V30 4487 C 423.672 -1.43881 -4.59186 0
M  V30 4488 C 426.024 -1.93153 -4.84088 0
M  V30 4489 C 423.352 -2.62381 -5.2476 0
M  V30 4490 C 425.704 -3.10833 -5.50968 0
M  V30 4491 C 424.368 -3.45843 -5.70919 0
M  V30 4492 H 423.638 0.00100165 -0.740999 0
M  V30 4493 H 426.285 -0.697219 -1.78357 0
M  V30 4494 H 424.59 0.955473 -3.79971 0
M  V30 4495 H 426.287 0.600642 -3.96476 0
M  V30 4496 H 422.877 -0.812177 -4.20834 0
M  V30 4497 H 427.061 -1.67683 -4.67115 0
M  V30 4498 H 422.317 -2.89707 -5.38405 0
M  V30 4499 H 426.491 -3.7618 -5.86056 0
M  V30 4500 H 424.118 -4.37764 -6.21503 0
M  V30 4501 N 425.693 1.55336 -0.266172 0
M  V30 4502 C 426.625 2.19544 0.658247 0
M  V30 4503 C 427.638 1.17746 1.12427 0
M  V30 4504 O 428.827 1.44517 1.04772 0
M  V30 4505 C 425.927 2.80032 1.9088 0
M  V30 4506 C 425.1 4.07436 1.59106 0
M  V30 4507 C 424.159 4.52056 2.69317 0
M  V30 4508 O 423.185 5.18023 2.35883 0
M  V30 4509 N 424.387 4.21448 3.99201 0
M  V30 4510 H 427.152 2.99503 0.108754 0
M  V30 4511 H 424.713 1.61667 -0.0869059 0
M  V30 4512 H 426.705 3.06831 2.63888 0
M  V30 4513 H 425.275 2.04119 2.36758 0
M  V30 4514 H 424.495 3.88021 0.695243 0
M  V30 4515 H 425.783 4.90462 1.35367 0
M  V30 4516 H 425.181 3.68528 4.29189 0
M  V30 4517 H 423.738 4.53039 4.68614 0
M  V30 4518 N 427.171 -0.0066808 1.57599 0
M  V30 4519 C 428.419 -0.691552 1.899 0
M  V30 4520 C 428.74 -1.74682 0.866672 0
M  V30 4521 O 428.01 -1.95661 -0.0968189 0
M  V30 4522 H 426.59 -0.258416 0.700878 0
M  V30 4523 H 429.252 0.0326655 1.94873 0
M  V30 4524 H 428.348 -1.16702 2.8946 0
M  V30 4525 N 428.649 -1.55105 -0.279332 0
M  V30 4526 C 430.065 -1.46803 -0.626187 0
M  V30 4527 C 430.265 -0.676939 -1.89789 0
M  V30 4528 O 429.321 -0.19326 -2.51759 0
M  V30 4529 C 430.634 -2.90962 -0.759034 0
M  V30 4530 C 432.182 -3.01138 -0.853504 0
M  V30 4531 C 432.657 -4.46539 -1.01818 0
M  V30 4532 N 434.148 -4.50341 -1.08386 0
M  V30 4533 C 434.883 -5.60053 -1.22996 0
M  V30 4534 N 434.379 -6.79645 -1.34366 0
M  V30 4535 N 436.172 -5.47783 -1.26056 0
M  V30 4536 H 428.323 -2.04996 0.555921 0
M  V30 4537 H 430.586 -0.929325 0.187239 0
M  V30 4538 H 430.292 -3.51544 0.104852 0
M  V30 4539 H 430.166 -3.39619 -1.64131 0
M  V30 4540 H 432.553 -2.40658 -1.70786 0
M  V30 4541 H 432.634 -2.55745 0.0532466 0
M  V30 4542 H 432.278 -5.0762 -0.168504 0
M  V30 4543 H 432.208 -4.89583 -1.93948 0
M  V30 4544 H 434.699 -3.64191 -1.00864 0
M  V30 4545 H 435.012 -7.59012 -1.4533 0
M  V30 4546 H 433.357 -6.82469 -1.31382 0
M  V30 4547 H 436.548 -4.53294 -1.168 0
M  V30 4548 H 436.721 -6.33331 -1.37098 0
M  V30 4549 N 430.127 0.543554 -1.4793 0
M  V30 4550 C 431.367 1.31072 -1.56843 0
M  V30 4551 C 431.731 1.90604 -0.231124 0
M  V30 4552 O 432.932 2.68091 -0.195165 0
M  V30 4553 C 431.203 2.38106 -2.66533 0
M  V30 4554 S 432.762 3.24729 -2.95122 0
M  V30 4555 H 429.58 0.446035 -0.553691 0
M  V30 4556 H 432.182 0.620777 -1.85382 0
M  V30 4557 H 430.886 1.92828 -3.62278 0
M  V30 4558 H 430.417 3.11824 -2.39852 0
M  V30 4559 H 432.432 4.37891 -2.3338 0
M  V30 4560 N 431.605 1.3629 0.791371 0
M  V30 4561 C 432.553 1.30514 1.92533 0
M  V30 4562 C 433.547 0.197285 1.68247 0
M  V30 4563 O 434.753 0.364176 1.76278 0
M  V30 4564 H 431.128 0.406263 0.632815 0
M  V30 4565 H 433.099 2.26282 1.94523 0
M  V30 4566 C 431.848 1.10933 3.29529 0
M  V30 4567 H 431.171 1.95427 3.48781 0
M  V30 4568 H 432.611 1.10937 4.0923 0
M  V30 4569 C 431.07 -0.186123 3.36385 0
M  V30 4570 O 431.6 -1.17664 3.84081 0
M  V30 4571 N 429.806 -0.230128 2.89687 0
M  V30 4572 H 429.353 0.576545 2.51065 0
M  V30 4573 H 429.311 -1.09658 2.94657 0
M  V30 4574 N 433.083 -1.0153 1.20538 0
M  V30 4575 C 434.03 -2.10098 0.955383 0
M  V30 4576 C 435 -1.65702 -0.114878 0
M  V30 4577 O 436.185 -1.90776 0.0301118 0
M  V30 4578 C 433.325 -3.41236 0.514969 0
M  V30 4579 C 432.438 -3.99102 1.65353 0
M  V30 4580 C 431.573 -5.18306 1.16329 0
M  V30 4581 C 430.612 -5.68258 2.27485 0
M  V30 4582 N 429.749 -6.78722 1.7967 0
M  V30 4583 H 434.589 -2.30818 1.88486 0
M  V30 4584 H 432.126 -1.13189 0.939499 0
M  V30 4585 H 434.084 -4.16504 0.240935 0
M  V30 4586 H 432.714 -3.20585 -0.377512 0
M  V30 4587 H 431.766 -3.20918 2.04245 0
M  V30 4588 H 433.078 -4.32177 2.49047 0
M  V30 4589 H 432.232 -6.00782 0.845302 0
M  V30 4590 H 430.971 -4.86799 0.296254 0
M  V30 4591 H 429.976 -4.84385 2.60099 0
M  V30 4592 H 431.201 -6.01798 3.14667 0
M  V30 4593 H 429.147 -6.49042 0.95295 0
M  V30 4594 H 429.064 -7.10996 2.56944 0
M  V30 4595 H 430.332 -7.64759 1.50875 0
M  V30 4596 N 434.561 -1.01147 -1.20859 0
M  V30 4597 C 435.491 -0.597663 -2.25722 0
M  V30 4598 C 436.472 0.384744 -1.65692 0
M  V30 4599 O 437.657 0.271303 -1.92296 0
M  V30 4600 C 434.787 0.0700149 -3.47229 0
M  V30 4601 C 433.741 -0.832843 -4.19819 0
M  V30 4602 C 433.067 -0.0312202 -5.34691 0
M  V30 4603 C 434.367 -2.1385 -4.76514 0
M  V30 4604 H 436.061 -1.47423 -2.60589 0
M  V30 4605 H 433.607 -0.710301 -1.25263 0
M  V30 4606 H 435.56 0.37103 -4.19763 0
M  V30 4607 H 434.284 0.981259 -3.11511 0
M  V30 4608 H 432.943 -1.11778 -3.49144 0
M  V30 4609 H 432.591 0.881515 -4.95215 0
M  V30 4610 H 432.291 -0.632434 -5.84187 0
M  V30 4611 H 433.815 0.26346 -6.10031 0
M  V30 4612 H 435.229 -1.9002 -5.40893 0
M  V30 4613 H 433.626 -2.69012 -5.36426 0
M  V30 4614 H 434.696 -2.80495 -3.95538 0
M  V30 4615 N 436.039 1.36541 -0.78704 0
M  V30 4616 C 437.285 1.99599 -0.358872 0
M  V30 4617 C 437.618 1.62323 1.06606 0
M  V30 4618 O 436.893 0.876858 1.73613 0
M  V30 4619 C 437.176 3.56327 -0.519944 0
M  V30 4620 C 437.029 4.03464 -1.98839 0
M  V30 4621 C 438.348 4.4005 0.0664737 0
M  V30 4622 H 435.467 0.725107 -0.131869 0
M  V30 4623 H 438.109 1.6199 -0.992936 0
M  V30 4624 H 436.259 3.88495 0.0198321 0
M  V30 4625 H 437.931 3.81793 -2.58905 0
M  V30 4626 H 436.174 3.55092 -2.49183 0
M  V30 4627 H 436.845 5.12439 -2.05207 0
M  V30 4628 H 439.321 4.14228 -0.394267 0
M  V30 4629 H 438.197 5.48847 -0.0762682 0
M  V30 4630 H 438.458 4.26655 1.15835 0
M  V30 4631 N 437.518 0.538854 1.48102 0
M  V30 4632 C 438.795 -0.0568108 1.95517 0
M  V30 4633 C 439.175 -1.50408 1.48124 0
M  V30 4634 O 438.523 -2.17133 0.711727 0
M  V30 4635 C 438.733 0.0696262 3.48931 0
M  V30 4636 C 440.081 -0.0851202 4.24515 0
M  V30 4637 O 441.105 -0.0037347 3.562 0
M  V30 4638 O 439.964 -0.257025 5.45895 0
M  V30 4639 H 437.058 -0.0743695 0.823649 0
M  V30 4640 H 439.604 0.604081 1.58584 0
M  V30 4641 H 438.376 1.07744 3.76174 0
M  V30 4642 H 437.999 -0.629714 3.92582 0
M  V30 4643 N 438.996 -1.55193 0.274407 0
M  V30 4644 C 440.244 -1.99187 -0.341902 0
M  V30 4645 C 440.565 -1.16422 -1.56431 0
M  V30 4646 O 439.835 -0.253573 -1.94252 0
M  V30 4647 H 438.415 -0.735721 -0.129317 0
M  V30 4648 H 441.077 -1.91168 0.379578 0
M  V30 4649 H 440.173 -3.05629 -0.632253 0
M  V30 4650 N 440.474 -0.00167713 -1.576 0
M  V30 4651 C 441.714 0.687302 -1.92498 0
M  V30 4652 C 442.078 1.70844 -0.876144 0
M  V30 4653 O 443.279 2.44792 -1.11043 0
M  V30 4654 C 441.55 1.31217 -3.32441 0
M  V30 4655 S 443.109 2.02604 -3.89226 0
M  V30 4656 H 439.927 0.226985 -0.673794 0
M  V30 4657 H 442.529 -0.0587666 -1.95412 0
M  V30 4658 H 441.233 0.556164 -4.06614 0
M  V30 4659 H 440.764 2.09613 -3.32905 0
M  V30 4660 H 442.779 3.30137 -3.70438 0
M  V30 4661 N 441.952 1.55251 0.271103 0
M  V30 4662 C 443.182 1.79713 1.01916 0
M  V30 4663 C 443.59 0.571613 1.80359 0
M  V30 4664 O 442.933 -0.468853 1.77616 0
M  V30 4665 C 442.995 2.97138 2.02359 0
M  V30 4666 C 442.659 4.34104 1.42837 0
M  V30 4667 C 443.656 5.13019 0.843071 0
M  V30 4668 C 441.341 4.80765 1.455 0
M  V30 4669 C 443.335 6.36729 0.292333 0
M  V30 4670 C 441.022 6.0443 0.900402 0
M  V30 4671 C 442.02 6.8225 0.32007 0
M  V30 4672 O 441.708 8.03582 -0.226031 0
M  V30 4673 H 441.44 0.602431 0.306681 0
M  V30 4674 H 443.994 2.03097 0.306701 0
M  V30 4675 H 442.224 2.6945 2.77369 0
M  V30 4676 H 443.913 3.08907 2.63309 0
M  V30 4677 H 444.679 4.781 0.815178 0
M  V30 4678 H 440.558 4.20202 1.89609 0
M  V30 4679 H 444.102 6.97414 -0.161274 0
M  V30 4680 H 439.999 6.3883 0.925541 0
M  V30 4681 H 440.767 8.18418 -0.115572 0
M  V30 4682 N 443.43 -0.535701 1.48216 0
M  V30 4683 C 444.655 -1.32149 1.59848 0
M  V30 4684 C 445.08 -1.86338 0.256842 0
M  V30 4685 O 444.438 -1.64107 -0.770632 0
M  V30 4686 C 444.486 -2.45224 2.64381 0
M  V30 4687 O 443.59 -3.48093 2.21144 0
M  V30 4688 H 442.931 -0.391634 0.536208 0
M  V30 4689 H 445.461 -0.645202 1.94161 0
M  V30 4690 H 445.471 -2.91491 2.85476 0
M  V30 4691 H 444.146 -2.05143 3.61786 0
M  V30 4692 H 442.723 -3.07984 2.10239 0
M  V30 4693 N 444.908 -1.36708 -0.784132 0
M  V30 4694 C 446.155 -1.31231 -1.54222 0
M  V30 4695 C 446.483 0.106864 -1.94206 0
M  V30 4696 O 445.738 1.07734 -1.63376 0
M  V30 4697 C 446.037 -2.18571 -2.82774 0
M  V30 4698 C 445.703 -3.67039 -2.61903 0
M  V30 4699 C 444.365 -4.07503 -2.55919 0
M  V30 4700 C 446.717 -4.61149 -2.4288 0
M  V30 4701 C 444.045 -5.40211 -2.28886 0
M  V30 4702 C 446.397 -5.94081 -2.17373 0
M  V30 4703 C 445.061 -6.33664 -2.09825 0
M  V30 4704 H 444.331 -0.48021 -0.56434 0
M  V30 4705 H 446.978 -1.68807 -0.904233 0
M  V30 4706 H 445.283 -1.73949 -3.51068 0
M  V30 4707 H 446.98 -2.11655 -3.40592 0
M  V30 4708 H 443.57 -3.34941 -2.67418 0
M  V30 4709 H 447.754 -4.30756 -2.46501 0
M  V30 4710 H 443.01 -5.69855 -2.21529 0
M  V30 4711 H 447.184 -6.66566 -2.01649 0
M  V30 4712 H 444.811 -7.36423 -1.88641 0
M  V30 4713 N 446.386 1.0089 -1.21074 0
M  V30 4714 C 447.632 1.7497 -1.03717 0
M  V30 4715 C 447.987 1.8764 0.425344 0
M  V30 4716 O 447.28 1.39679 1.3115 0
M  V30 4717 C 447.474 3.16335 -1.66334 0
M  V30 4718 C 447.303 3.17449 -3.18522 0
M  V30 4719 C 446.073 3.2425 -3.87543 0
M  V30 4720 C 448.271 3.02877 -4.15656 0
M  V30 4721 N 446.253 3.14949 -5.26954 0
M  V30 4722 C 447.624 3.0143 -5.41793 0
M  V30 4723 C 449.679 2.8715 -4.06755 0
M  V30 4724 C 448.382 2.85869 -6.60054 0
M  V30 4725 C 450.408 2.72944 -5.24648 0
M  V30 4726 C 449.77 2.72171 -6.49694 0
M  V30 4727 H 445.869 0.650627 -0.43383 0
M  V30 4728 H 448.453 1.19944 -1.53367 0
M  V30 4729 H 446.624 3.69638 -1.19256 0
M  V30 4730 H 448.356 3.78888 -1.42219 0
M  V30 4731 H 445.111 3.31288 -3.38446 0
M  V30 4732 H 445.535 3.13651 -5.9996 0
M  V30 4733 H 450.177 2.86557 -3.10878 0
M  V30 4734 H 447.895 2.8521 -7.56096 0
M  V30 4735 H 451.481 2.61782 -5.19578 0
M  V30 4736 H 450.361 2.61307 -7.39384 0
M  V30 4737 N 447.864 1.01787 1.20321 0
M  V30 4738 C 448.796 0.547357 2.22568 0
M  V30 4739 C 449.809 -0.370922 1.58518 0
M  V30 4740 O 450.998 -0.169067 1.77698 0
M  V30 4741 C 448.098 -0.223031 3.38165 0
M  V30 4742 C 447.271 0.697472 4.31803 0
M  V30 4743 C 446.33 -0.025562 5.26194 0
M  V30 4744 O 445.356 0.597367 5.66057 0
M  V30 4745 N 446.558 -1.29999 5.65757 0
M  V30 4746 H 449.323 1.42668 2.63564 0
M  V30 4747 H 446.884 0.895552 1.34876 0
M  V30 4748 H 448.876 -0.716002 3.98316 0
M  V30 4749 H 447.446 -1.00366 2.9605 0
M  V30 4750 H 446.666 1.37073 3.69601 0
M  V30 4751 H 447.954 1.32347 4.91286 0
M  V30 4752 H 447.352 -1.827 5.35385 0
M  V30 4753 H 445.909 -1.73766 6.28211 0
M  V30 4754 N 449.342 -1.36122 0.79427 0
M  V30 4755 C 450.305 -2.28309 0.201889 0
M  V30 4756 C 451.305 -1.49041 -0.603603 0
M  V30 4757 O 452.495 -1.68964 -0.423888 0
M  V30 4758 C 449.627 -3.3321 -0.719978 0
M  V30 4759 H 450.82 -2.82208 1.01481 0
M  V30 4760 H 448.373 -1.45768 0.564037 0
M  V30 4761 H 449.108 -2.84475 -1.55706 0
M  V30 4762 H 448.893 -3.91835 -0.144266 0
M  V30 4763 H 450.383 -4.02044 -1.12916 0
M  V30 4764 N 450.82 -0.546701 -1.47814 0
M  V30 4765 C 452.068 -0.0187037 -2.02091 0
M  V30 4766 C 452.389 1.33168 -1.42447 0
M  V30 4767 O 451.659 1.86619 -0.595839 0
M  V30 4768 H 450.239 -0.00392531 -0.74699 0
M  V30 4769 H 452.901 -0.714327 -1.81338 0
M  V30 4770 H 451.997 0.0772219 -3.12004 0
M  V30 4771 N 452.299 1.55045 -0.282633 0
M  V30 4772 C 453.229 2.2579 0.595066 0
M  V30 4773 C 454.21 1.25074 1.15284 0
M  V30 4774 O 455.395 1.5381 1.18559 0
M  V30 4775 C 452.525 2.98472 1.77572 0
M  V30 4776 C 451.479 4.0618 1.34914 0
M  V30 4777 C 450.805 4.66477 2.6135 0
M  V30 4778 C 452.105 5.1996 0.493821 0
M  V30 4779 H 453.799 2.994 0.00505653 0
M  V30 4780 H 451.345 1.44 0.000992001 0
M  V30 4781 H 453.298 3.46677 2.39568 0
M  V30 4782 H 452.022 2.2241 2.39168 0
M  V30 4783 H 450.681 3.58797 0.752338 0
M  V30 4784 H 450.329 3.87074 3.2122 0
M  V30 4785 H 450.029 5.39207 2.33516 0
M  V30 4786 H 451.553 5.17435 3.24181 0
M  V30 4787 H 452.967 5.64172 1.01898 0
M  V30 4788 H 451.364 5.99299 0.310047 0
M  V30 4789 H 452.434 4.82462 -0.485593 0
M  V30 4790 N 453.777 0.010035 1.57597 0
M  V30 4791 C 454.707 -0.976857 2.12084 0
M  V30 4792 C 455.688 -1.35191 1.03235 0
M  V30 4793 O 456.873 -1.43389 1.3097 0
M  V30 4794 C 454.003 -2.26548 2.63236 0
M  V30 4795 C 452.957 -2.03175 3.76701 0
M  V30 4796 C 452.283 -3.38138 4.14206 0
M  V30 4797 C 453.583 -1.38625 5.03568 0
M  V30 4798 H 455.277 -0.523145 2.94794 0
M  V30 4799 H 452.823 -0.250195 1.4181 0
M  V30 4800 H 454.776 -2.95952 2.99984 0
M  V30 4801 H 453.5 -2.74051 1.77661 0
M  V30 4802 H 452.159 -1.36195 3.40362 0
M  V30 4803 H 451.807 -3.83363 3.25641 0
M  V30 4804 H 451.507 -3.23312 4.90656 0
M  V30 4805 H 453.031 -4.08841 4.53521 0
M  V30 4806 H 454.445 -1.98 5.38023 0
M  V30 4807 H 452.842 -1.34256 5.84889 0
M  V30 4808 H 453.912 -0.356722 4.83586 0
M  V30 4809 N 455.255 -1.55392 -0.262866 0
M  V30 4810 C 456.666 -1.67079 -0.833158 0
M  V30 4811 C 457.017 -0.604539 -1.86654 0
M  V30 4812 O 456.142 0.252138 -2.14926 0
M  V30 4813 C 456.737 -3.02891 -1.51797 0
M  V30 4814 C 455.296 -3.16571 -2.03617 0
M  V30 4815 C 454.443 -2.62909 -0.881701 0
M  V30 4816 H 457.394 -1.58652 -0.0389986 0
M  V30 4817 H 457.415 -2.96445 -2.38538 0
M  V30 4818 H 456.927 -3.80473 -0.765619 0
M  V30 4819 H 455.028 -2.43782 -2.81782 0
M  V30 4820 H 455.141 -4.23271 -2.24452 0
M  V30 4821 H 453.505 -2.20324 -1.27786 0
M  V30 4822 H 454.288 -3.43003 -0.14269 0
M  V30 4823 N 456.733 0.527833 -1.48498 0
M  V30 4824 C 457.663 1.64136 -1.66077 0
M  V30 4825 C 458.644 1.62286 -0.509625 0
M  V30 4826 O 459.829 1.79449 -0.742413 0
M  V30 4827 C 456.959 3.02717 -1.70234 0
M  V30 4828 C 455.913 3.19426 -2.8487 0
M  V30 4829 C 455.239 4.5909 -2.74118 0
M  V30 4830 C 456.539 3.01993 -4.26142 0
M  V30 4831 H 458.233 1.4968 -2.593 0
M  V30 4832 H 455.779 0.718654 -1.24785 0
M  V30 4833 H 457.732 3.80491 -1.8112 0
M  V30 4834 H 456.456 3.18201 -0.735911 0
M  V30 4835 H 455.115 2.4407 -2.73542 0
M  V30 4836 H 454.763 4.71413 -1.7544 0
M  V30 4837 H 454.463 4.71214 -3.51042 0
M  V30 4838 H 455.987 5.3896 -2.86974 0
M  V30 4839 H 457.401 3.69558 -4.38292 0
M  V30 4840 H 455.798 3.2561 -5.04082 0
M  V30 4841 H 456.868 1.98396 -4.42456 0
M  V30 4842 N 458.211 1.37122 0.776871 0
M  V30 4843 C 459.141 1.35164 1.90402 0
M  V30 4844 C 460.122 0.221069 1.68657 0
M  V30 4845 O 461.307 0.420642 1.8959 0
M  V30 4846 C 458.437 1.15274 3.27611 0
M  V30 4847 C 457.391 2.25289 3.63908 0
M  V30 4848 C 456.717 1.90527 4.99603 0
M  V30 4849 C 458.017 3.67446 3.71188 0
M  V30 4850 H 459.711 2.29482 1.92297 0
M  V30 4851 H 457.257 1.10465 0.923773 0
M  V30 4852 H 459.21 1.12536 4.06096 0
M  V30 4853 H 457.934 0.174102 3.26136 0
M  V30 4854 H 456.593 2.27174 2.87728 0
M  V30 4855 H 456.241 0.91206 4.94662 0
M  V30 4856 H 455.941 2.64193 5.24858 0
M  V30 4857 H 457.465 1.89367 5.80493 0
M  V30 4858 H 458.879 3.67719 4.39836 0
M  V30 4859 H 457.276 4.40123 4.07936 0
M  V30 4860 H 458.346 4.01443 2.71977 0
M  V30 4861 N 459.689 -1.00246 1.21608 0
M  V30 4862 C 460.639 -2.07492 0.945051 0
M  V30 4863 C 461.623 -1.60585 -0.100675 0
M  V30 4864 O 462.815 -1.76667 0.10859 0
M  V30 4865 C 459.944 -3.39425 0.514342 0
M  V30 4866 C 459.03 -3.92993 1.59428 0
M  V30 4867 N 459.421 -4.19898 2.81991 0
M  V30 4868 C 457.719 -4.21297 1.46374 0
M  V30 4869 C 458.42 -4.63297 3.51754 0
M  V30 4870 N 457.396 -4.66421 2.79199 0
M  V30 4871 H 461.198 -2.26222 1.87619 0
M  V30 4872 H 458.712 -1.18339 1.11219 0
M  V30 4873 H 460.709 -4.15808 0.301527 0
M  V30 4874 H 459.369 -3.22101 -0.410008 0
M  V30 4875 H 460.38 -4.08377 3.1851 0
M  V30 4876 H 457.057 -4.13095 0.604863 0
M  V30 4877 H 458.447 -4.92816 4.56708 0
M  V30 4878 N 461.167 -1.02423 -1.1978 0
M  V30 4879 C 462.583 -0.740459 -1.41384 0
M  V30 4880 C 462.783 0.676827 -1.89793 0
M  V30 4881 O 461.839 1.4435 -2.0717 0
M  V30 4882 C 463.152 -1.77264 -2.42895 0
M  V30 4883 C 464.7 -1.79165 -2.56649 0
M  V30 4884 C 465.175 -2.8133 -3.6141 0
M  V30 4885 N 466.666 -2.80118 -3.68901 0
M  V30 4886 C 467.401 -3.55824 -4.49641 0
M  V30 4887 N 466.897 -4.41231 -5.34123 0
M  V30 4888 N 468.69 -3.44387 -4.44246 0
M  V30 4889 H 460.841 -1.9391 -0.866764 0
M  V30 4890 H 463.104 -0.838074 -0.443098 0
M  V30 4891 H 462.81 -2.7884 -2.14339 0
M  V30 4892 H 462.684 -1.59108 -3.42001 0
M  V30 4893 H 465.071 -0.782702 -2.84531 0
M  V30 4894 H 465.152 -2.01396 -1.57713 0
M  V30 4895 H 464.796 -3.82394 -3.34271 0
M  V30 4896 H 464.726 -2.56359 -4.59986 0
M  V30 4897 H 467.217 -2.1817 -3.08562 0
M  V30 4898 H 467.53 -4.95747 -5.92836 0
M  V30 4899 H 465.875 -4.45306 -5.33599 0
M  V30 4900 H 469.066 -2.7708 -3.77285 0
M  V30 4901 H 469.239 -4.0364 -5.06931 0
M  V30 4902 N 462.645 1.35699 -0.801477 0
M  V30 4903 C 463.608 2.28199 -0.213994 0
M  V30 4904 C 464.608 1.49359 0.595691 0
M  V30 4905 O 465.798 1.69186 0.414921 0
M  V30 4906 C 462.93 3.33587 0.702297 0
M  V30 4907 H 464.123 2.81666 -1.02976 0
M  V30 4908 H 461.676 1.45467 -0.571759 0
M  V30 4909 H 462.411 2.85297 1.54195 0
M  V30 4910 H 462.196 3.91906 0.123484 0
M  V30 4911 H 463.686 4.02638 1.10783 0
M  V30 4912 N 464.123 0.554532 1.47522 0
M  V30 4913 C 465.053 -0.182974 2.32782 0
M  V30 4914 C 466.034 -0.911377 1.43624 0
M  V30 4915 O 467.219 -0.892366 1.72483 0
M  V30 4916 C 464.349 -1.21513 3.25349 0
M  V30 4917 C 463.303 -0.603355 4.23726 0
M  V30 4918 C 462.629 -1.73995 5.05598 0
M  V30 4919 C 463.929 0.441121 5.20434 0
M  V30 4920 H 465.623 0.52882 2.94693 0
M  V30 4921 H 463.169 0.255759 1.41711 0
M  V30 4922 H 465.122 -1.73922 3.83835 0
M  V30 4923 H 463.846 -1.95683 2.61487 0
M  V30 4924 H 462.505 -0.10059 3.66462 0
M  V30 4925 H 462.153 -2.47063 4.38143 0
M  V30 4926 H 461.853 -1.3364 5.72201 0
M  V30 4927 H 463.377 -2.26735 5.66942 0
M  V30 4928 H 464.791 0.00319931 5.733 0
M  V30 4929 H 463.188 0.763402 5.95224 0
M  V30 4930 H 464.258 1.33799 4.66075 0
M  V30 4931 N 465.601 -1.54893 0.290851 0
M  V30 4932 C 466.551 -2.19838 -0.604599 0
M  V30 4933 C 467.535 -1.16805 -1.10659 0
M  V30 4934 O 468.727 -1.42562 -1.04905 0
M  V30 4935 C 465.856 -2.93497 -1.78086 0
M  V30 4936 C 464.942 -4.03835 -1.29531 0
M  V30 4937 N 465.333 -5.03047 -0.527024 0
M  V30 4938 C 463.631 -4.17192 -1.57693 0
M  V30 4939 C 464.332 -5.81074 -0.269728 0
M  V30 4940 N 463.308 -5.36966 -0.846651 0
M  V30 4941 H 467.11 -2.93898 -0.00995032 0
M  V30 4942 H 464.624 -1.62121 0.0951353 0
M  V30 4943 H 466.621 -3.38484 -2.43381 0
M  V30 4944 H 465.281 -2.2095 -2.37931 0
M  V30 4945 H 466.292 -5.17611 -0.172872 0
M  V30 4946 H 462.969 -3.55845 -2.18359 0
M  V30 4947 H 464.359 -6.71005 0.346643 0
M  V30 4948 N 467.08 -0.0183926 -1.57589 0
M  V30 4949 C 468.043 0.951986 -2.08494 0
M  V30 4950 C 469.043 1.26092 -0.997874 0
M  V30 4951 O 470.233 1.20304 -1.25987 0
M  V30 4952 C 467.365 2.27165 -2.54182 0
M  V30 4953 H 468.558 0.511307 -2.95509 0
M  V30 4954 H 466.111 0.229444 -1.54607 0
M  V30 4955 H 466.846 2.75884 -1.70465 0
M  V30 4956 H 466.631 2.06057 -3.33591 0
M  V30 4957 H 468.121 2.9674 -2.93828 0
M  V30 4958 N 468.558 1.5553 0.254621 0
M  V30 4959 C 469.49 1.86104 1.33783 0
M  V30 4960 C 470.503 0.746752 1.44663 0
M  V30 4961 O 471.692 1.0248 1.46151 0
M  V30 4962 C 468.792 2.02532 2.71724 0
M  V30 4963 C 467.965 3.33335 2.83208 0
M  V30 4964 C 467.024 3.396 4.01943 0
M  V30 4965 O 466.05 4.12862 3.91834 0
M  V30 4966 N 467.252 2.68332 5.1476 0
M  V30 4967 H 470.017 2.79605 1.07893 0
M  V30 4968 H 467.578 1.55672 0.444732 0
M  V30 4969 H 469.57 2.04074 3.4948 0
M  V30 4970 H 468.14 1.15811 2.90356 0
M  V30 4971 H 467.36 3.44176 1.92189 0
M  V30 4972 H 468.648 4.19565 2.87824 0
M  V30 4973 H 468.046 2.08528 5.25864 0
M  V30 4974 H 466.603 2.75575 5.90679 0
M  V30 4975 N 470.036 -0.519951 1.48776 0
M  V30 4976 C 471.284 -1.2727 1.56993 0
M  V30 4977 C 471.605 -1.9339 0.25004 0
M  V30 4978 O 470.875 -1.81822 -0.729216 0
M  V30 4979 H 469.455 -0.472732 0.578389 0
M  V30 4980 H 472.117 -0.604234 1.85297 0
M  V30 4981 H 471.213 -2.04669 2.3562 0
M  V30 4982 N 471.514 -1.37532 -0.769588 0
M  V30 4983 C 472.791 -1.23392 -1.51768 0
M  V30 4984 C 473.171 0.17157 -2.10402 0
M  V30 4985 O 472.519 1.17943 -1.95708 0
M  V30 4986 C 472.729 -2.33163 -2.59685 0
M  V30 4987 C 474.077 -2.70809 -3.27028 0
M  V30 4988 O 475.101 -2.32355 -2.69981 0
M  V30 4989 O 473.96 -3.37066 -4.30173 0
M  V30 4990 H 471.054 -0.481617 -0.67229 0
M  V30 4991 H 473.6 -1.49318 -0.806368 0
M  V30 4992 H 472.372 -3.27273 -2.14494 0
M  V30 4993 H 471.995 -2.08713 -3.38415 0
M  V30 4994 N 472.992 0.995999 -1.22138 0
M  V30 4995 C 474.403 1.54961 -1.04135 0
M  V30 4996 C 474.754 1.92159 0.396147 0
M  V30 4997 O 473.879 1.74435 1.28069 0
M  V30 4998 C 474.474 2.81581 -1.88408 0
M  V30 4999 C 473.033 3.33396 -1.74712 0
M  V30 5000 C 472.18 2.06509 -1.85066 0
M  V30 5001 H 475.131 0.817436 -1.36028 0
M  V30 5002 H 475.152 3.53822 -1.39966 0
M  V30 5003 H 474.664 2.54476 -2.93025 0
M  V30 5004 H 472.765 3.65416 -0.728159 0
M  V30 5005 H 472.878 4.04208 -2.57202 0
M  V30 5006 H 471.242 2.19925 -1.28472 0
M  V30 5007 H 472.025 1.81804 -2.91208 0
M  V30 5008 N 474.47 1.03057 1.19235 0
M  V30 5009 C 475.433 0.617418 2.20727 0
M  V30 5010 C 476.433 -0.319856 1.57587 0
M  V30 5011 O 477.623 -0.106633 1.73873 0
M  V30 5012 C 474.755 -0.096296 3.40764 0
M  V30 5013 H 475.948 1.51544 2.58794 0
M  V30 5014 H 473.501 0.821949 1.32942 0
M  V30 5015 H 474.236 -1.00859 3.08217 0
M  V30 5016 H 474.021 0.577217 3.87828 0
M  V30 5017 H 475.511 -0.372219 4.15938 0
M  V30 5018 N 475.948 -1.35272 0.808662 0
M  V30 5019 C 476.878 -2.32315 0.234981 0
M  V30 5020 C 477.859 -1.57572 -0.64071 0
M  V30 5021 O 479.044 -1.8563 -0.570551 0
M  V30 5022 C 476.174 -3.41801 -0.615601 0
M  V30 5023 C 475.128 -4.27694 0.161767 0
M  V30 5024 C 474.454 -5.28519 -0.810649 0
M  V30 5025 C 475.754 -5.04231 1.36193 0
M  V30 5026 H 477.448 -2.80543 1.04575 0
M  V30 5027 H 474.994 -1.3488 0.504315 0
M  V30 5028 H 476.947 -4.08693 -1.02702 0
M  V30 5029 H 475.671 -2.92186 -1.45928 0
M  V30 5030 H 474.33 -3.62384 0.554382 0
M  V30 5031 H 473.978 -4.75171 -1.64988 0
M  V30 5032 H 473.678 -5.8686 -0.294822 0
M  V30 5033 H 475.202 -5.98283 -1.22023 0
M  V30 5034 H 476.616 -5.64058 1.02528 0
M  V30 5035 H 475.013 -5.72077 1.81239 0
M  V30 5036 H 476.083 -4.34753 2.14751 0
M  V30 5037 N 477.426 -0.562348 -1.47226 0
M  V30 5038 C 478.651 -0.0432632 -2.07355 0
M  V30 5039 C 479.076 1.24332 -1.41149 0
M  V30 5040 O 478.434 1.74603 -0.488226 0
M  V30 5041 C 478.482 0.130288 -3.60365 0
M  V30 5042 O 477.586 1.19166 -3.94808 0
M  V30 5043 H 476.927 -0.0536334 -0.66183 0
M  V30 5044 H 479.457 -0.779495 -1.89169 0
M  V30 5045 H 479.467 0.342881 -4.06557 0
M  V30 5046 H 478.142 -0.809389 -4.07948 0
M  V30 5047 H 476.719 0.959153 -3.60354 0
M  V30 5048 N 478.904 1.54736 -0.299062 0
M  V30 5049 C 479.837 2.1962 0.619851 0
M  V30 5050 C 480.815 1.16496 1.13434 0
M  V30 5051 O 481.999 1.4513 1.2029 0
M  V30 5052 C 479.126 2.8385 1.84788 0
M  V30 5053 C 478.172 4.00484 1.46679 0
M  V30 5054 S 479.005 5.32926 0.524389 0
M  V30 5055 C 480.161 6.00638 1.76026 0
M  V30 5056 H 480.394 2.97221 0.0686177 0
M  V30 5057 H 477.927 1.54176 -0.0832085 0
M  V30 5058 H 479.885 3.21483 2.55263 0
M  V30 5059 H 478.546 2.06099 2.37028 0
M  V30 5060 H 477.739 4.44201 2.38121 0
M  V30 5061 H 477.341 3.64398 0.842008 0
M  V30 5062 H 479.633 6.21327 2.70109 0
M  V30 5063 H 480.576 6.94805 1.36569 0
M  V30 5064 H 480.984 5.3026 1.93609 0
M  V30 5065 N 480.382 0.0267497 1.57577 0
M  V30 5066 C 481.607 -0.666227 1.96408 0
M  V30 5067 C 482.032 -1.65004 0.903071 0
M  V30 5068 O 481.39 -1.80787 -0.136263 0
M  V30 5069 C 481.438 -1.35101 3.34335 0
M  V30 5070 O 480.542 -2.46623 3.30531 0
M  V30 5071 H 479.883 -0.175206 0.640468 0
M  V30 5072 H 482.413 0.0878977 2.04411 0
M  V30 5073 H 482.423 -1.70834 3.70513 0
M  V30 5074 H 481.098 -0.629844 4.11103 0
M  V30 5075 H 479.675 -2.13019 3.06068 0
M  V30 5076 N 481.861 -1.55662 -0.24637 0
M  V30 5077 C 482.811 -1.86753 -1.30795 0
M  V30 5078 C 483.795 -0.728445 -1.43466 0
M  V30 5079 O 484.987 -0.99038 -1.46699 0
M  V30 5080 C 482.116 -2.16618 -2.66329 0
M  V30 5081 C 481.202 -3.36855 -2.57661 0
M  V30 5082 N 481.593 -4.56111 -2.18624 0
M  V30 5083 C 479.891 -3.39976 -2.88673 0
M  V30 5084 C 480.592 -5.38247 -2.20601 0
M  V30 5085 N 479.568 -4.77322 -2.60124 0
M  V30 5086 H 483.37 -2.76486 -0.996642 0
M  V30 5087 H 480.884 -1.55896 -0.454994 0
M  V30 5088 H 482.881 -2.37057 -3.42942 0
M  V30 5089 H 481.541 -1.28185 -2.98327 0
M  V30 5090 H 482.552 -4.81726 -1.9016 0
M  V30 5091 H 479.229 -2.61815 -3.25206 0
M  V30 5092 H 480.619 -6.43657 -1.92756 0
M  V30 5093 N 483.339 0.512053 -1.4905 0
M  V30 5094 C 484.585 1.26613 -1.59187 0
M  V30 5095 C 484.94 1.90494 -0.270163 0
M  V30 5096 O 484.233 1.77204 0.728648 0
M  V30 5097 C 484.427 2.36446 -2.68008 0
M  V30 5098 C 484.256 1.83334 -4.10632 0
M  V30 5099 C 483.026 1.65131 -4.77556 0
M  V30 5100 C 485.224 1.35153 -4.96224 0
M  V30 5101 N 483.206 1.06833 -6.04533 0
M  V30 5102 C 484.577 0.889186 -6.13591 0
M  V30 5103 C 486.632 1.23623 -4.82309 0
M  V30 5104 C 485.335 0.322953 -7.18575 0
M  V30 5105 C 487.361 0.683978 -5.87431 0
M  V30 5106 C 486.723 0.2318 -7.04018 0
M  V30 5107 H 482.822 0.453678 -0.636946 0
M  V30 5108 H 485.406 0.575217 -1.86009 0
M  V30 5109 H 483.577 3.03012 -2.42978 0
M  V30 5110 H 485.309 3.03485 -2.67729 0
M  V30 5111 H 482.064 1.89178 -4.34176 0
M  V30 5112 H 482.488 0.796425 -6.72299 0
M  V30 5113 H 487.13 1.57184 -3.92496 0
M  V30 5114 H 484.848 -0.024943 -8.08096 0
M  V30 5115 H 488.434 0.597694 -5.78722 0
M  V30 5116 H 487.314 -0.188869 -7.83973 0
M  V30 5117 N 484.817 1.37938 0.762283 0
M  V30 5118 C 485.75 1.2884 1.88349 0
M  V30 5119 C 486.728 0.167084 1.61739 0
M  V30 5120 O 487.912 0.34292 1.85355 0
M  V30 5121 C 485.039 0.994257 3.23778 0
M  V30 5122 C 484.085 2.13376 3.69287 0
M  V30 5123 S 484.918 3.75439 3.81845 0
M  V30 5124 C 486.074 3.48195 5.20107 0
M  V30 5125 H 486.307 2.23736 1.95779 0
M  V30 5126 H 483.84 1.23672 0.924368 0
M  V30 5127 H 485.798 0.83138 4.01993 0
M  V30 5128 H 484.459 0.0626251 3.14038 0
M  V30 5129 H 483.652 1.88319 4.67495 0
M  V30 5130 H 483.254 2.25726 2.98201 0
M  V30 5131 H 485.546 3.0377 6.05583 0
M  V30 5132 H 486.489 4.45765 5.50181 0
M  V30 5133 H 486.897 2.82905 4.88493 0
M  V30 5134 N 486.295 -0.989507 1.22664 0
M  V30 5135 C 487.542 -1.72953 1.05325 0
M  V30 5136 C 487.87 -1.90104 -0.411168 0
M  V30 5137 O 487.125 -1.44386 -1.32103 0
M  V30 5138 C 487.424 -3.13649 1.71345 0
M  V30 5139 C 487.09 -3.16403 3.21248 0
M  V30 5140 C 485.752 -3.16862 3.62149 0
M  V30 5141 C 488.104 -3.12428 4.17179 0
M  V30 5142 C 485.432 -3.11051 4.97458 0
M  V30 5143 C 487.784 -3.08159 5.52468 0
M  V30 5144 C 486.448 -3.06935 5.92746 0
M  V30 5145 H 485.718 -0.632881 0.385412 0
M  V30 5146 H 488.365 -1.15863 1.52473 0
M  V30 5147 H 486.67 -3.74069 1.16532 0
M  V30 5148 H 488.367 -3.69658 1.55416 0
M  V30 5149 H 484.957 -3.16798 2.88682 0
M  V30 5150 H 489.141 -3.11221 3.86595 0
M  V30 5151 H 484.397 -3.0845 5.27891 0
M  V30 5152 H 488.571 -3.04039 6.26525 0
M  V30 5153 H 486.198 -3.02186 6.97558 0
M  V30 5154 N 487.773 -1.03688 -1.18687 0
M  V30 5155 C 488.723 -0.595067 -2.20098 0
M  V30 5156 C 489.707 0.360465 -1.5681 0
M  V30 5157 O 490.899 0.180136 -1.76081 0
M  V30 5158 C 488.028 0.0444495 -3.43271 0
M  V30 5159 C 487.114 -0.934002 -4.13687 0
M  V30 5160 N 487.505 -2.09957 -4.60165 0
M  V30 5161 C 485.803 -0.759177 -4.39491 0
M  V30 5162 C 486.504 -2.71735 -5.1433 0
M  V30 5163 N 485.48 -1.99638 -5.05614 0
M  V30 5164 H 489.282 -1.48336 -2.5372 0
M  V30 5165 H 486.796 -0.904949 -1.3485 0
M  V30 5166 H 488.793 0.37864 -4.15177 0
M  V30 5167 H 487.453 0.928325 -3.11147 0
M  V30 5168 H 488.464 -2.47863 -4.54735 0
M  V30 5169 H 485.141 0.0749292 -4.17433 0
M  V30 5170 H 486.531 -3.70492 -5.60523 0
M  V30 5171 N 489.251 1.34841 -0.815825 0
M  V30 5172 C 490.183 2.28409 -0.190265 0
M  V30 5173 C 491.196 1.50705 0.615771 0
M  V30 5174 O 492.385 1.72822 0.446616 0
M  V30 5175 C 489.485 3.30441 0.752446 0
M  V30 5176 C 488.658 4.37399 -0.00922152 0
M  V30 5177 C 487.717 5.19234 0.853351 0
M  V30 5178 O 486.743 5.68404 0.300919 0
M  V30 5179 N 487.945 5.38248 2.17416 0
M  V30 5180 H 490.71 2.82732 -0.994114 0
M  V30 5181 H 488.271 1.47289 -0.672129 0
M  V30 5182 H 490.263 3.82084 1.33394 0
M  V30 5183 H 488.833 2.76565 1.45707 0
M  V30 5184 H 488.053 3.86567 -0.771979 0
M  V30 5185 H 489.341 5.05992 -0.533807 0
M  V30 5186 H 488.739 4.99961 2.6468 0
M  V30 5187 H 487.296 5.93035 2.70467 0
M  V30 5188 N 490.729 0.570148 1.46925 0
M  V30 5189 C 491.661 -0.207909 2.28255 0
M  V30 5190 C 492.674 -0.867301 1.37774 0
M  V30 5191 O 493.863 -0.738976 1.62485 0
M  V30 5192 C 490.963 -1.31298 3.12433 0
M  V30 5193 C 490.136 -0.747915 4.30958 0
M  V30 5194 C 489.195 -1.7391 4.9663 0
M  V30 5195 O 488.221 -1.2801 5.54619 0
M  V30 5196 N 489.423 -3.07288 4.92498 0
M  V30 5197 H 492.188 0.489794 2.95671 0
M  V30 5198 H 489.749 0.407076 1.56699 0
M  V30 5199 H 491.741 -1.97507 3.53232 0
M  V30 5200 H 490.311 -1.91373 2.47175 0
M  V30 5201 H 489.531 0.0913066 3.94094 0
M  V30 5202 H 490.819 -0.349958 5.07595 0
M  V30 5203 H 490.217 -3.47213 4.46609 0
M  V30 5204 H 488.774 -3.69021 5.37277 0
M  V30 5205 N 492.207 -1.54576 0.307264 0
M  V30 5206 C 493.17 -2.22423 -0.553224 0
M  V30 5207 C 494.17 -1.21231 -1.05639 0
M  V30 5208 O 495.36 -1.45923 -0.951419 0
M  V30 5209 C 492.492 -2.91552 -1.76664 0
M  V30 5210 H 493.685 -2.99874 0.0396484 0
M  V30 5211 H 491.238 -1.56192 0.0581629 0
M  V30 5212 H 491.973 -2.18196 -2.39918 0
M  V30 5213 H 491.758 -3.65738 -1.41343 0
M  V30 5214 H 493.248 -3.43292 -2.37783 0
M  V30 5215 N 493.685 -0.035106 -1.57561 0
M  V30 5216 C 494.615 0.942993 -2.13612 0
M  V30 5217 C 495.596 1.33531 -1.05373 0
M  V30 5218 O 496.781 1.41287 -1.33235 0
M  V30 5219 C 493.911 2.22332 -2.66807 0
M  V30 5220 C 492.865 1.97156 -3.79886 0
M  V30 5221 C 492.191 3.31506 -4.19533 0
M  V30 5222 C 493.491 1.30596 -5.05709 0
M  V30 5223 H 495.185 0.476179 -2.95589 0
M  V30 5224 H 492.731 0.227602 -1.4219 0
M  V30 5225 H 494.684 2.91142 -3.04654 0
M  V30 5226 H 493.408 2.7119 -1.81999 0
M  V30 5227 H 492.067 1.30763 -3.42486 0
M  V30 5228 H 491.715 3.78134 -3.31698 0
M  V30 5229 H 491.415 3.15465 -4.95738 0
M  V30 5230 H 492.939 4.01574 -4.59968 0
M  V30 5231 H 494.353 1.89416 -5.41105 0
M  V30 5232 H 492.75 1.24934 -5.86951 0
M  V30 5233 H 493.82 0.279742 -4.84092 0
M  V30 5234 N 495.163 1.55791 0.238111 0
M  V30 5235 C 496.095 1.87513 1.31802 0
M  V30 5236 C 497.108 0.762053 1.43863 0
M  V30 5237 O 498.297 1.04024 1.45056 0
M  V30 5238 C 495.397 2.05402 2.69561 0
M  V30 5239 C 494.57 3.3632 2.79656 0
M  V30 5240 C 493.629 3.43844 3.98319 0
M  V30 5241 O 492.655 4.16994 3.87433 0
M  V30 5242 N 493.857 2.73777 5.11885 0
M  V30 5243 H 496.622 2.80734 1.04922 0
M  V30 5244 H 494.183 1.56135 0.428196 0
M  V30 5245 H 496.175 2.07769 3.47296 0
M  V30 5246 H 494.745 1.18884 2.89111 0
M  V30 5247 H 493.965 3.46195 1.88528 0
M  V30 5248 H 495.253 4.22594 2.83358 0
M  V30 5249 H 494.651 2.14094 5.23622 0
M  V30 5250 H 493.208 2.81825 5.87723 0
M  V30 5251 N 496.642 -0.504142 1.49319 0
M  V30 5252 C 497.552 -1.63248 1.68486 0
M  V30 5253 C 498.568 -1.64488 0.567432 0
M  V30 5254 O 499.744 -1.82966 0.841749 0
M  V30 5255 C 496.809 -2.99627 1.74426 0
M  V30 5256 C 495.87 -3.09039 2.97982 0
M  V30 5257 C 495.103 -4.38913 3.0363 0
M  V30 5258 O 495.326 -5.27528 2.16958 0
M  V30 5259 O 494.26 -4.53231 3.96062 0
M  V30 5260 H 498.086 -1.50008 2.64067 0
M  V30 5261 H 495.671 -0.680086 1.33023 0
M  V30 5262 H 497.553 -3.80689 1.80705 0
M  V30 5263 H 496.228 -3.13136 0.820233 0
M  V30 5264 H 495.135 -2.27177 2.97223 0
M  V30 5265 H 496.468 -3.00456 3.89855 0
M  V30 5266 N 498.12 -1.38341 -0.754957 0
M  V30 5267 C 499.35 -1.37504 -1.54195 0
M  V30 5268 C 499.758 0.0373787 -1.89163 0
M  V30 5269 O 499.101 1.01402 -1.53178 0
M  V30 5270 C 499.163 -2.16488 -2.87008 0
M  V30 5271 C 498.827 -3.65311 -2.74585 0
M  V30 5272 C 499.824 -4.58834 -2.44474 0
M  V30 5273 C 497.509 -4.08649 -2.9208 0
M  V30 5274 C 499.503 -5.93675 -2.32011 0
M  V30 5275 C 497.19 -5.43571 -2.79237 0
M  V30 5276 C 498.188 -6.35898 -2.49245 0
M  V30 5277 O 497.876 -7.68338 -2.36458 0
M  V30 5278 H 497.608 -0.472159 -0.483779 0
M  V30 5279 H 500.162 -1.82515 -0.94221 0
M  V30 5280 H 498.392 -1.66194 -3.49166 0
M  V30 5281 H 500.081 -2.08076 -3.4851 0
M  V30 5282 H 500.847 -4.26657 -2.30627 0
M  V30 5283 H 496.726 -3.37134 -3.14422 0
M  V30 5284 H 500.27 -6.65706 -2.08522 0
M  V30 5285 H 496.167 -5.75345 -2.92657 0
M  V30 5286 H 496.935 -7.78845 -2.5168 0
M  V30 5287 N 499.598 0.982988 -1.23187 0
M  V30 5288 C 500.847 1.71817 -1.05649 0
M  V30 5289 C 501.16 1.91315 0.407176 0
M  V30 5290 O 502.366 2.62256 0.702436 0
M  V30 5291 C 500.822 3.09188 -1.84203 0
M  V30 5292 C 500.43 2.97586 -3.34882 0
M  V30 5293 C 502.174 3.86684 -1.75146 0
M  V30 5294 C 500.081 4.30173 -4.05839 0
M  V30 5295 H 499.011 0.644258 -0.391724 0
M  V30 5296 H 501.662 1.09659 -1.4713 0
M  V30 5297 H 500.044 3.72087 -1.35527 0
M  V30 5298 H 501.218 2.43793 -3.91026 0
M  V30 5299 H 499.533 2.33567 -3.44725 0
M  V30 5300 H 502.13 4.84836 -2.25473 0
M  V30 5301 H 502.473 4.10136 -0.713737 0
M  V30 5302 H 503.006 3.30482 -2.21419 0
M  V30 5303 H 499.745 4.11918 -5.09906 0
M  V30 5304 H 499.265 4.83841 -3.54482 0
M  V30 5305 H 500.944 4.98873 -4.11989 0
M  V30 5306 N 501.076 1.04316 1.18135 0
M  V30 5307 C 502.006 0.657299 2.24058 0
M  V30 5308 C 502.987 -0.340678 1.66654 0
M  V30 5309 O 504.172 -0.220223 1.92947 0
M  V30 5310 C 501.302 0.0220715 3.47293 0
M  V30 5311 C 500.256 0.943857 4.17463 0
M  V30 5312 C 499.582 0.172973 5.3442 0
M  V30 5313 C 500.882 2.26409 4.70677 0
M  V30 5314 H 502.576 1.5428 2.56589 0
M  V30 5315 H 500.122 0.743263 1.23335 0
M  V30 5316 H 502.075 -0.259607 4.206 0
M  V30 5317 H 500.799 -0.898323 3.14003 0
M  V30 5318 H 499.458 1.20996 3.46057 0
M  V30 5319 H 499.106 -0.749907 4.97379 0
M  V30 5320 H 498.806 0.787098 5.82304 0
M  V30 5321 H 500.33 -0.101628 6.10515 0
M  V30 5322 H 501.744 2.04294 5.35665 0
M  V30 5323 H 500.141 2.8314 5.29105 0
M  V30 5324 H 501.211 2.90883 3.87962 0
M  V30 5325 N 502.554 -1.34406 0.822964 0
M  V30 5326 C 503.487 -2.27407 0.190124 0
M  V30 5327 C 504.465 -1.4889 -0.653486 0
M  V30 5328 O 505.649 -1.78109 -0.617216 0
M  V30 5329 C 502.776 -3.3064 -0.734477 0
M  V30 5330 C 501.822 -4.26488 0.0316099 0
M  V30 5331 S 502.655 -5.17445 1.3788 0
M  V30 5332 C 503.811 -6.24214 0.45907 0
M  V30 5333 H 504.044 -2.80733 0.978586 0
M  V30 5334 H 501.577 -1.41455 0.618866 0
M  V30 5335 H 503.535 -3.90607 -1.26238 0
M  V30 5336 H 502.196 -2.76161 -1.49646 0
M  V30 5337 H 501.389 -4.9951 -0.671285 0
M  V30 5338 H 500.991 -3.70775 0.490066 0
M  V30 5339 H 503.283 -6.76599 -0.349357 0
M  V30 5340 H 504.226 -6.98551 1.15896 0
M  V30 5341 H 504.634 -5.6448 0.0474825 0
M  V30 5342 N 504.032 -0.577932 -1.46621 0
M  V30 5343 C 505.272 -0.0643097 -2.04299 0
M  V30 5344 C 505.636 1.26967 -1.44026 0
M  V30 5345 O 506.837 1.87224 -1.92875 0
M  V30 5346 C 505.108 0.00547588 -3.574 0
M  V30 5347 S 506.667 0.462216 -4.36359 0
M  V30 5348 H 503.485 -0.0351573 -0.71013 0
M  V30 5349 H 506.087 -0.76935 -1.79725 0
M  V30 5350 H 504.791 -0.969423 -3.98786 0
M  V30 5351 H 504.322 0.733435 -3.86503 0
M  V30 5352 H 506.337 1.71791 -4.65513 0
M  V30 5353 N 505.51 1.54411 -0.315457 0
M  V30 5354 C 506.75 2.02329 0.290236 0
M  V30 5355 C 507.114 1.19878 1.49977 0
M  V30 5356 O 508.315 1.57562 2.17779 0
M  V30 5357 C 506.586 3.51912 0.623937 0
M  V30 5358 S 508.145 4.21775 1.21044 0
M  V30 5359 H 504.963 0.705499 0.0882739 0
M  V30 5360 H 507.565 1.90328 -0.446694 0
M  V30 5361 H 506.269 4.09546 -0.264624 0
M  V30 5362 H 505.8 3.67977 1.39128 0
M  V30 5363 H 507.815 4.28757 2.49764 0
M  V30 5364 N 506.988 0.0434614 1.5754 0
M  V30 5365 C 507.92 -0.962586 2.08007 0
M  V30 5366 C 508.933 -1.27972 1.00634 0
M  V30 5367 O 510.122 -1.24186 1.28219 0
M  V30 5368 C 507.222 -2.28621 2.50171 0
M  V30 5369 C 506.395 -2.15214 3.80791 0
M  V30 5370 C 505.454 -3.30633 4.09351 0
M  V30 5371 O 504.48 -3.0688 4.79388 0
M  V30 5372 N 505.682 -4.54873 3.60654 0
M  V30 5373 H 508.447 -0.531891 2.94942 0
M  V30 5374 H 506.008 -0.142965 1.61268 0
M  V30 5375 H 508 -3.04689 2.66359 0
M  V30 5376 H 506.57 -2.63283 1.68525 0
M  V30 5377 H 505.79 -1.23785 3.74261 0
M  V30 5378 H 507.078 -2.03475 4.66343 0
M  V30 5379 H 506.476 -4.77063 3.04019 0
M  V30 5380 H 505.033 -5.2806 3.82094 0
M  V30 5381 N 508.466 -1.55915 -0.229846 0
M  V30 5382 C 509.706 -1.80314 -0.962614 0
M  V30 5383 C 510.07 -0.61568 -1.81861 0
M  V30 5384 O 511.271 -0.738795 -2.58448 0
M  V30 5385 C 509.542 -3.0956 -1.78627 0
M  V30 5386 S 511.101 -3.55243 -2.57581 0
M  V30 5387 H 507.919 -0.633142 -0.323499 0
M  V30 5388 H 510.521 -1.94155 -0.228919 0
M  V30 5389 H 509.225 -3.94033 -1.14742 0
M  V30 5390 H 508.756 -2.98503 -2.56241 0
M  V30 5391 H 510.771 -3.17924 -3.80971 0
M  V30 5392 N 509.944 0.496216 -1.49584 0
M  V30 5393 C 511.355 1.07765 -1.52459 0
M  V30 5394 C 511.706 1.93679 -0.31353 0
M  V30 5395 O 510.831 2.08588 0.576186 0
M  V30 5396 C 511.426 1.96111 -2.76271 0
M  V30 5397 C 509.985 2.49409 -2.81908 0
M  V30 5398 C 509.132 1.27142 -2.46435 0
M  V30 5399 H 512.083 0.279914 -1.56212 0
M  V30 5400 H 512.104 2.80862 -2.56704 0
M  V30 5401 H 511.616 1.33555 -3.64396 0
M  V30 5402 H 509.717 3.1559 -1.98074 0
M  V30 5403 H 509.83 2.86234 -3.84196 0
M  V30 5404 H 508.194 1.59818 -1.98319 0
M  V30 5405 H 508.977 0.662866 -3.3684 0
M  V30 5406 N 511.423 1.38739 0.74761 0
M  V30 5407 C 512.386 1.36241 1.84312 0
M  V30 5408 C 513.386 0.261811 1.58654 0
M  V30 5409 O 514.576 0.519031 1.66288 0
M  V30 5410 C 511.708 1.12253 3.21888 0
M  V30 5411 H 512.901 2.33712 1.87933 0
M  V30 5412 H 510.454 1.2412 0.949946 0
M  V30 5413 H 511.189 0.154133 3.23934 0
M  V30 5414 H 510.974 1.91943 3.41907 0
M  V30 5415 H 512.464 1.13215 4.0196 0
M  V30 5416 N 512.901 -0.976442 1.23707 0
M  V30 5417 C 514.149 -1.71487 1.06942 0
M  V30 5418 C 514.47 -1.9098 -0.393897 0
M  V30 5419 O 513.74 -1.48128 -1.28198 0
M  V30 5420 H 512.32 -0.635425 0.392739 0
M  V30 5421 H 514.982 -1.17515 1.55487 0
M  V30 5422 H 514.078 -2.70286 1.56051 0
M  V30 5423 N 514.379 -1.04941 -1.1758 0
M  V30 5424 C 515.627 -0.756492 -1.87408 0
M  V30 5425 C 515.948 0.718478 -1.81281 0
M  V30 5426 O 515.218 1.519 -1.23706 0
M  V30 5427 H 513.798 -0.276841 -0.693807 0
M  V30 5428 H 516.46 -1.32803 -1.42652 0
M  V30 5429 H 515.556 -1.06918 -2.93215 0
M  V30 5430 N 515.857 1.33968 -0.830081 0
M  V30 5431 C 516.787 2.31911 -0.271911 0
M  V30 5432 C 517.768 1.58571 0.61556 0
M  V30 5433 O 518.953 1.86514 0.540946 0
M  V30 5434 C 516.083 3.42737 0.561146 0
M  V30 5435 C 515.037 4.27383 -0.229789 0
M  V30 5436 C 514.363 5.29742 0.726463 0
M  V30 5437 C 515.663 5.02 -1.44197 0
M  V30 5438 H 517.357 2.78844 -1.09025 0
M  V30 5439 H 514.903 1.34061 -0.52571 0
M  V30 5440 H 516.856 4.10276 0.961867 0
M  V30 5441 H 515.58 2.94471 1.41261 0
M  V30 5442 H 514.239 3.61456 -0.611964 0
M  V30 5443 H 513.887 4.77736 1.57408 0
M  V30 5444 H 513.587 5.87255 0.20142 0
M  V30 5445 H 515.111 6.00149 1.12489 0
M  V30 5446 H 516.525 5.62355 -1.11488 0
M  V30 5447 H 514.922 5.69122 -1.90317 0
M  V30 5448 H 515.992 4.31281 -2.2164 0
M  V30 5449 N 517.335 0.585699 1.46312 0
M  V30 5450 C 518.265 -0.133556 2.33118 0
M  V30 5451 C 519.246 -0.880707 1.45525 0
M  V30 5452 O 520.431 -0.855579 1.74337 0
M  V30 5453 C 517.561 -1.14585 3.27853 0
M  V30 5454 C 516.515 -0.513341 4.2491 0
M  V30 5455 C 515.841 -1.63231 5.09175 0
M  V30 5456 C 517.141 0.551413 5.19381 0
M  V30 5457 H 518.835 0.59121 2.93505 0
M  V30 5458 H 516.381 0.285761 1.41136 0
M  V30 5459 H 518.334 -1.65741 3.87438 0
M  V30 5460 H 517.058 -1.90093 2.65579 0
M  V30 5461 H 515.717 -0.0228349 3.66593 0
M  V30 5462 H 515.365 -2.37713 4.43285 0
M  V30 5463 H 515.065 -1.21473 5.74907 0
M  V30 5464 H 516.589 -2.14658 5.71624 0
M  V30 5465 H 518.003 0.124804 5.73164 0
M  V30 5466 H 516.4 0.889486 5.93471 0
M  V30 5467 H 517.47 1.43655 4.63132 0
M  V30 5468 N 518.813 -1.54241 0.323641 0
M  V30 5469 C 520.09 -1.92741 -0.333181 0
M  V30 5470 C 520.47 -1.25326 -1.69872 0
M  V30 5471 O 519.818 -0.396991 -2.25025 0
M  V30 5472 C 520.028 -3.46399 -0.425322 0
M  V30 5473 C 521.376 -4.19029 -0.68557 0
M  V30 5474 O 522.4 -3.52555 -0.50824 0
M  V30 5475 O 521.259 -5.36751 -1.02767 0
M  V30 5476 H 518.353 -0.804811 -0.190286 0
M  V30 5477 H 520.899 -1.65542 0.373361 0
M  V30 5478 H 519.671 -3.87643 0.533737 0
M  V30 5479 H 519.294 -3.79704 -1.17944 0
M  V30 5480 N 520.291 -0.0518155 -1.57515 0
M  V30 5481 C 521.238 0.922352 -2.11569 0
M  V30 5482 C 522.208 1.30842 -1.02321 0
M  V30 5483 O 523.393 1.39778 -1.29872 0
M  V30 5484 C 520.533 2.19167 -2.6657 0
M  V30 5485 C 519.646 1.86003 -3.89906 0
M  V30 5486 C 518.781 3.07398 -4.33221 0
M  V30 5487 C 517.82 2.70158 -5.49255 0
M  V30 5488 N 516.957 3.84248 -5.8762 0
M  V30 5489 H 521.797 0.454506 -2.94514 0
M  V30 5490 H 519.334 0.212718 -1.45554 0
M  V30 5491 H 521.292 2.93443 -2.96559 0
M  V30 5492 H 519.922 2.63528 -1.86421 0
M  V30 5493 H 518.974 1.01874 -3.66505 0
M  V30 5494 H 520.286 1.54592 -4.74239 0
M  V30 5495 H 519.44 3.89972 -4.64765 0
M  V30 5496 H 518.179 3.41988 -3.477 0
M  V30 5497 H 517.184 1.86001 -5.17382 0
M  V30 5498 H 518.409 2.36759 -6.36492 0
M  V30 5499 H 516.355 4.18638 -5.05053 0
M  V30 5500 H 516.272 3.56538 -6.66646 0
M  V30 5501 H 517.54 4.6746 -6.2378 0
M  V30 5502 N 521.769 1.56035 0.221574 0
M  V30 5503 C 523.18 1.69229 0.788567 0
M  V30 5504 C 523.531 0.653814 1.84986 0
M  V30 5505 O 522.656 -0.195065 2.15519 0
M  V30 5506 C 523.251 3.06809 1.43713 0
M  V30 5507 C 521.81 3.21858 1.95152 0
M  V30 5508 C 520.957 2.65155 0.811685 0
M  V30 5509 H 523.908 1.587 -0.00307894 0
M  V30 5510 H 523.929 3.02666 2.30594 0
M  V30 5511 H 523.441 3.82369 0.664475 0
M  V30 5512 H 521.542 2.51167 2.7522 0
M  V30 5513 H 521.655 4.29073 2.1315 0
M  V30 5514 H 520.019 2.23635 1.21899 0
M  V30 5515 H 520.802 3.43261 0.0516987 0
M  V30 5516 N 523.247 -0.488276 1.49845 0
M  V30 5517 C 524.495 -1.23911 1.59657 0
M  V30 5518 C 524.816 -1.92816 0.291005 0
M  V30 5519 O 524.086 -1.83328 -0.690485 0
M  V30 5520 H 522.666 -0.460357 0.588286 0
M  V30 5521 H 525.328 -0.564794 1.86537 0
M  V30 5522 H 524.424 -1.99625 2.39909 0
M  V30 5523 N 524.725 -1.39134 -0.740242 0
M  V30 5524 C 525.672 -1.37434 -1.8542 0
M  V30 5525 C 526.642 -0.234822 -1.64432 0
M  V30 5526 O 527.827 -0.429125 -1.85912 0
M  V30 5527 C 524.967 -1.21844 -3.22875 0
M  V30 5528 C 524.08 -2.45296 -3.55603 0
M  V30 5529 C 523.215 -2.22334 -4.82432 0
M  V30 5530 C 522.254 -3.41488 -5.07988 0
M  V30 5531 N 521.391 -3.17877 -6.26018 0
M  V30 5532 H 526.231 -2.3266 -1.86207 0
M  V30 5533 H 523.768 -1.15578 -0.909946 0
M  V30 5534 H 525.726 -1.10818 -4.02213 0
M  V30 5535 H 524.356 -0.3025 -3.21379 0
M  V30 5536 H 523.408 -2.66945 -2.71006 0
M  V30 5537 H 524.72 -3.34063 -3.7041 0
M  V30 5538 H 523.874 -2.0852 -5.69741 0
M  V30 5539 H 522.613 -1.30954 -4.6979 0
M  V30 5540 H 521.618 -3.55807 -4.19144 0
M  V30 5541 H 522.843 -4.33763 -5.22519 0
M  V30 5542 H 520.789 -2.29156 -6.14673 0
M  V30 5543 H 520.706 -4.00198 -6.41387 0
M  V30 5544 H 521.974 -3.07746 -7.16179 0
M  V30 5545 N 526.204 0.969867 -1.24223 0
M  V30 5546 C 527.429 1.75289 -1.10853 0
M  V30 5547 C 527.854 1.85091 0.335079 0
M  V30 5548 O 527.212 1.32024 1.24255 0
M  V30 5549 C 527.26 3.15255 -1.75062 0
M  V30 5550 O 526.364 3.99589 -1.01992 0
M  V30 5551 H 525.705 0.538904 -0.387915 0
M  V30 5552 H 528.235 1.21675 -1.64488 0
M  V30 5553 H 528.245 3.65787 -1.80731 0
M  V30 5554 H 526.92 3.07436 -2.801 0
M  V30 5555 H 525.497 3.58077 -1.04094 0
M  V30 5556 N 527.682 1.05563 1.17022 0
M  V30 5557 C 529.098 0.777684 1.39371 0
M  V30 5558 C 529.298 -0.626269 1.91521 0
M  V30 5559 O 528.354 -1.38806 2.10924 0
M  V30 5560 C 529.667 1.83642 2.3811 0
M  V30 5561 C 531.215 1.85907 2.51809 0
M  V30 5562 C 531.69 2.90813 3.53824 0
M  V30 5563 N 533.181 2.898 3.61345 0
M  V30 5564 C 533.916 3.6762 4.40049 0
M  V30 5565 N 533.412 4.55237 5.22237 0
M  V30 5566 N 535.205 3.56044 4.34959 0
M  V30 5567 H 527.356 1.9614 0.815047 0
M  V30 5568 H 529.619 0.849527 0.420722 0
M  V30 5569 H 529.325 2.84425 2.06871 0
M  V30 5570 H 529.199 1.6812 3.37662 0
M  V30 5571 H 531.586 0.857865 2.82356 0
M  V30 5572 H 531.667 2.05506 1.52318 0
M  V30 5573 H 531.311 3.91122 3.24015 0
M  V30 5574 H 531.241 2.68465 4.53028 0
M  V30 5575 H 533.732 2.26274 3.02669 0
M  V30 5576 H 534.045 5.11291 5.79484 0
M  V30 5577 H 532.39 4.59296 5.21605 0
M  V30 5578 H 535.581 2.86986 3.69806 0
M  V30 5579 H 535.754 4.16938 4.96051 0
M  V30 5580 N 529.16 -1.33526 0.837174 0
M  V30 5581 C 530.437 -1.92369 0.354065 0
M  V30 5582 C 530.817 -1.76348 -1.16038 0
M  V30 5583 O 530.165 -1.15083 -1.97403 0
M  V30 5584 C 530.375 -3.39728 0.799101 0
M  V30 5585 C 531.723 -4.16877 0.806139 0
M  V30 5586 O 532.747 -3.48373 0.742597 0
M  V30 5587 O 531.606 -5.39166 0.892345 0
M  V30 5588 H 528.7 -0.820952 0.0998378 0
M  V30 5589 H 531.246 -1.42409 0.922913 0
M  V30 5590 H 530.018 -3.45254 1.84162 0
M  V30 5591 H 529.641 -3.97062 0.206731 0
M  V30 5592 N 530.638 -0.59345 -1.46 0
M  V30 5593 C 531.885 -0.0831523 -2.02329 0
M  V30 5594 C 532.213 1.28093 -1.46364 0
M  V30 5595 O 531.468 1.85526 -0.622793 0
M  V30 5596 C 531.767 0.021178 -3.57394 0
M  V30 5597 C 531.433 -1.27671 -4.32448 0
M  V30 5598 C 530.095 -1.63227 -4.5267 0
M  V30 5599 C 532.447 -2.13511 -4.7546 0
M  V30 5600 C 529.775 -2.84401 -5.1316 0
M  V30 5601 C 532.127 -3.33922 -5.37289 0
M  V30 5602 C 530.791 -3.69747 -5.55737 0
M  V30 5603 H 530.061 -0.0304276 -0.740375 0
M  V30 5604 H 532.708 -0.772239 -1.75239 0
M  V30 5605 H 531.013 0.793454 -3.83682 0
M  V30 5606 H 532.71 0.431942 -3.98667 0
M  V30 5607 H 529.3 -0.989937 -4.17011 0
M  V30 5608 H 533.484 -1.87344 -4.59582 0
M  V30 5609 H 528.74 -3.12282 -5.25633 0
M  V30 5610 H 532.914 -4.00698 -5.69574 0
M  V30 5611 H 530.541 -4.6373 -6.02377 0
M  V30 5612 N 532.116 1.54067 -0.331816 0
M  V30 5613 C 533.346 2.04833 0.269605 0
M  V30 5614 C 533.754 1.20714 1.45687 0
M  V30 5615 O 533.097 0.232539 1.82222 0
M  V30 5616 C 533.159 3.51386 0.759499 0
M  V30 5617 C 532.823 4.55971 -0.306557 0
M  V30 5618 C 533.82 5.07126 -1.14538 0
M  V30 5619 C 531.505 5.00216 -0.457116 0
M  V30 5620 C 533.499 6.01096 -2.12042 0
M  V30 5621 C 531.186 5.93999 -1.43556 0
M  V30 5622 C 532.184 6.44326 -2.26568 0
M  V30 5623 O 531.872 7.36267 -3.22749 0
M  V30 5624 H 531.604 0.673509 0.0579763 0
M  V30 5625 H 534.158 1.99748 -0.478521 0
M  V30 5626 H 532.388 3.53896 1.55867 0
M  V30 5627 H 534.077 3.85184 1.28017 0
M  V30 5628 H 534.843 4.73716 -1.04009 0
M  V30 5629 H 530.722 4.60652 0.179142 0
M  V30 5630 H 534.266 6.40302 -2.76873 0
M  V30 5631 H 530.163 6.26825 -1.54146 0
M  V30 5632 H 530.931 7.54165 -3.18083 0
M  V30 5633 N 533.594 0.0601682 1.57485 0
M  V30 5634 C 534.544 -0.920969 2.08572 0
M  V30 5635 C 535.528 -1.26617 0.992827 0
M  V30 5636 O 536.72 -1.24708 1.25606 0
M  V30 5637 C 533.849 -2.19267 2.64153 0
M  V30 5638 C 532.935 -1.87447 3.80427 0
M  V30 5639 N 533.326 -1.26025 4.89848 0
M  V30 5640 C 531.624 -2.17265 3.89502 0
M  V30 5641 C 532.325 -1.12036 5.70809 0
M  V30 5642 N 531.301 -1.62624 5.18705 0
M  V30 5643 H 535.103 -0.441561 2.90564 0
M  V30 5644 H 532.617 -0.144043 1.6176 0
M  V30 5645 H 534.614 -2.90462 2.99061 0
M  V30 5646 H 533.274 -2.67806 1.83603 0
M  V30 5647 H 534.285 -0.931336 5.09457 0
M  V30 5648 H 530.962 -2.68262 3.19909 0
M  V30 5649 H 532.352 -0.642783 6.68818 0
M  V30 5650 N 535.072 -1.5615 -0.213296 0
M  V30 5651 C 536.3 -1.83638 -0.953139 0
M  V30 5652 C 536.715 -0.640362 -1.77609 0
M  V30 5653 O 536.072 0.391071 -1.78261 0
M  V30 5654 C 536.123 -3.09735 -1.86405 0
M  V30 5655 O 535.844 -4.24723 -1.07435 0
M  V30 5656 C 537.345 -3.5027 -2.71709 0
M  V30 5657 H 534.565 -0.610263 -0.278962 0
M  V30 5658 H 537.109 -2.03247 -0.226035 0
M  V30 5659 H 535.264 -2.92077 -2.545 0
M  V30 5660 H 535.678 -4.9641 -1.69343 0
M  V30 5661 H 537.152 -4.41515 -3.31313 0
M  V30 5662 H 537.629 -2.72406 -3.44516 0
M  V30 5663 H 538.235 -3.70396 -2.09015 0
M  V30 5664 N 536.55 0.480323 -1.50102 0
M  V30 5665 C 537.79 1.24301 -1.62261 0
M  V30 5666 C 538.154 1.89452 -0.311758 0
M  V30 5667 O 539.355 2.67022 -0.308696 0
M  V30 5668 C 537.626 2.26588 -2.76392 0
M  V30 5669 S 539.185 3.11919 -3.08629 0
M  V30 5670 H 536.003 0.42215 -0.57211 0
M  V30 5671 H 538.605 0.541591 -1.87848 0
M  V30 5672 H 537.309 1.7729 -3.70131 0
M  V30 5673 H 536.84 3.01371 -2.52862 0
M  V30 5674 H 538.855 4.27598 -2.51742 0
M  V30 5675 N 538.028 1.39524 0.732853 0
M  V30 5676 C 539.258 1.3994 1.51988 0
M  V30 5677 C 539.666 -0.00727973 1.89199 0
M  V30 5678 O 539.009 -0.989521 1.54771 0
M  V30 5679 C 539.071 2.21026 2.83527 0
M  V30 5680 C 538.735 3.69633 2.68738 0
M  V30 5681 C 539.732 4.62665 2.37143 0
M  V30 5682 C 537.417 4.13244 2.85542 0
M  V30 5683 C 539.411 5.97291 2.22536 0
M  V30 5684 C 537.098 5.47945 2.70554 0
M  V30 5685 C 538.096 6.39783 2.39097 0
M  V30 5686 O 537.784 7.72002 2.24204 0
M  V30 5687 H 537.516 0.479795 0.476206 0
M  V30 5688 H 540.07 1.8399 0.913054 0
M  V30 5689 H 538.3 1.71728 3.46477 0
M  V30 5690 H 539.989 2.13594 3.45156 0
M  V30 5691 H 540.755 4.30272 2.2381 0
M  V30 5692 H 536.634 3.42094 3.09019 0
M  V30 5693 H 540.178 6.68939 1.97905 0
M  V30 5694 H 536.075 5.79928 2.83466 0
M  V30 5695 H 536.843 7.8275 2.39258 0
M  V30 5696 N 539.506 -0.963266 1.24736 0
M  V30 5697 C 540.746 -1.72172 1.10165 0
M  V30 5698 C 541.11 -1.88731 -0.352784 0
M  V30 5699 O 542.311 -2.61549 -0.620107 0
M  V30 5700 C 540.582 -3.0724 1.82589 0
M  V30 5701 S 542.141 -3.98449 1.83803 0
M  V30 5702 H 538.959 -0.591901 0.393922 0
M  V30 5703 H 541.561 -1.14955 1.58132 0
M  V30 5704 H 540.265 -2.92851 2.87518 0
M  V30 5705 H 539.796 -3.69521 1.34973 0
M  V30 5706 H 541.811 -4.87805 0.908883 0
M  V30 5707 N 540.985 -1.06182 -1.16461 0
M  V30 5708 C 541.915 -0.692861 -2.22984 0
M  V30 5709 C 542.896 0.314122 -1.67174 0
M  V30 5710 O 544.081 0.189499 -1.93273 0
M  V30 5711 C 541.211 -0.07732 -3.47214 0
M  V30 5712 C 540.165 -1.01015 -4.15909 0
M  V30 5713 C 539.491 -0.257973 -5.34077 0
M  V30 5714 C 540.791 -2.33868 -4.67015 0
M  V30 5715 H 542.485 -1.58343 -2.54102 0
M  V30 5716 H 540.031 -0.76279 -1.22137 0
M  V30 5717 H 541.984 0.19266 -4.20959 0
M  V30 5718 H 540.708 0.848254 -3.15392 0
M  V30 5719 H 539.367 -1.26486 -3.44088 0
M  V30 5720 H 539.015 0.670684 -4.98509 0
M  V30 5721 H 538.715 -0.879638 -5.80979 0
M  V30 5722 H 540.239 0.00448788 -6.106 0
M  V30 5723 H 541.653 -2.1279 -5.32347 0
M  V30 5724 H 540.05 -2.91522 -5.24533 0
M  V30 5725 H 541.12 -2.97019 -3.83286 0
M  V30 5726 N 542.463 1.3308 -0.844243 0
M  V30 5727 C 543.688 2.02341 -0.455282 0
M  V30 5728 C 544.113 1.6308 0.93737 0
M  V30 5729 O 543.471 0.826118 1.61385 0
M  V30 5730 C 543.519 3.55743 -0.58988 0
M  V30 5731 O 542.623 4.1063 0.38166 0
M  V30 5732 H 541.964 0.637898 -0.184343 0
M  V30 5733 H 544.494 1.6986 -1.14056 0
M  V30 5734 H 544.504 4.05243 -0.473522 0
M  V30 5735 H 543.179 3.83662 -1.60549 0
M  V30 5736 H 541.756 3.72236 0.22241 0
M  V30 5737 N 543.941 0.601185 1.45683 0
M  V30 5738 C 545.189 0.0936957 2.01883 0
M  V30 5739 C 545.51 -1.2779 1.47291 0
M  V30 5740 O 544.78 -1.84279 0.664691 0
M  V30 5741 H 543.36 0.0316466 0.746329 0
M  V30 5742 H 546.022 0.781137 1.78562 0
M  V30 5743 H 545.118 0.0386297 3.12076 0
M  V30 5744 N 545.419 -1.53889 0.339982 0
M  V30 5745 C 546.349 -2.27843 -0.510856 0
M  V30 5746 C 547.33 -1.29267 -1.10563 0
M  V30 5747 O 548.515 -1.58104 -1.12768 0
M  V30 5748 C 545.645 -3.04857 -1.66372 0
M  V30 5749 C 544.599 -4.10907 -1.19746 0
M  V30 5750 C 543.925 -4.75855 -2.43857 0
M  V30 5751 C 545.225 -5.21435 -0.300501 0
M  V30 5752 H 546.919 -2.99212 0.106067 0
M  V30 5753 H 544.465 -1.43904 0.0524533 0
M  V30 5754 H 546.418 -3.5533 -2.26537 0
M  V30 5755 H 545.142 -2.31133 -2.30749 0
M  V30 5756 H 543.801 -3.61342 -0.618654 0
M  V30 5757 H 543.449 -3.9873 -3.06633 0
M  V30 5758 H 543.149 -5.47502 -2.13343 0
M  V30 5759 H 544.673 -5.2911 -3.04754 0
M  V30 5760 H 546.087 -5.67565 -0.80889 0
M  V30 5761 H 544.484 -6.00036 -0.0874076 0
M  V30 5762 H 545.554 -4.80328 0.664321 0
M  V30 5763 N 546.897 -0.0685191 -1.57451 0
M  V30 5764 C 548.122 0.613919 -1.98106 0
M  V30 5765 C 548.547 1.62551 -0.946501 0
M  V30 5766 O 547.905 1.81085 0.0882824 0
M  V30 5767 C 547.953 1.26189 -3.378 0
M  V30 5768 O 547.057 2.37773 -3.36954 0
M  V30 5769 H 546.398 0.158163 -0.644888 0
M  V30 5770 H 548.928 -0.142063 -2.04106 0
M  V30 5771 H 548.938 1.60951 -3.74912 0
M  V30 5772 H 547.613 0.520625 -4.12629 0
M  V30 5773 H 546.19 2.04829 -3.11608 0
M  V30 5774 N 548.375 1.56261 0.205012 0
M  V30 5775 C 549.624 1.79236 0.925058 0
M  V30 5776 C 549.937 0.640011 1.84833 0
M  V30 5777 O 551.143 0.753809 2.60826 0
M  V30 5778 C 549.599 3.17475 1.69522 0
M  V30 5779 C 549.207 4.40482 0.817269 0
M  V30 5780 C 550.951 3.49766 2.4055 0
M  V30 5781 C 548.858 5.69744 1.58573 0
M  V30 5782 H 547.788 0.668287 0.349153 0
M  V30 5783 H 550.439 1.82629 0.178544 0
M  V30 5784 H 548.821 3.08304 2.48526 0
M  V30 5785 H 549.995 4.60752 0.0665988 0
M  V30 5786 H 548.31 4.15827 0.218316 0
M  V30 5787 H 550.907 4.43573 2.98575 0
M  V30 5788 H 551.25 2.73041 3.14252 0
M  V30 5789 H 551.783 3.60341 1.68522 0
M  V30 5790 H 548.522 6.49407 0.891679 0
M  V30 5791 H 548.042 5.53509 2.31059 0
M  V30 5792 H 549.721 6.1051 2.14212 0
M  V30 5793 N 549.853 -0.472356 1.50355 0
M  V30 5794 C 550.816 -1.5529 1.68576 0
M  V30 5795 C 551.816 -1.50863 0.556511 0
M  V30 5796 O 553.006 -1.53505 0.823516 0
M  V30 5797 C 550.138 -2.94921 1.70981 0
M  V30 5798 H 551.331 -1.40451 2.64978 0
M  V30 5799 H 548.884 -0.698645 1.39816 0
M  V30 5800 H 549.619 -3.15204 0.762675 0
M  V30 5801 H 549.404 -2.99541 2.53017 0
M  V30 5802 H 550.894 -3.73372 1.87037 0
M  V30 5803 N 551.331 -1.39911 -0.725443 0
M  V30 5804 C 552.263 -1.35301 -1.85003 0
M  V30 5805 C 553.276 -0.260102 -1.60709 0
M  V30 5806 O 554.465 -0.519749 -1.70766 0
M  V30 5807 C 551.565 -1.08039 -3.21218 0
M  V30 5808 C 550.738 -2.28793 -3.7279 0
M  V30 5809 C 549.797 -1.97841 -4.87591 0
M  V30 5810 O 548.823 -2.70616 -5.00755 0
M  V30 5811 N 550.025 -0.950367 -5.72668 0
M  V30 5812 H 552.79 -2.32218 -1.89459 0
M  V30 5813 H 550.351 -1.34137 -0.90658 0
M  V30 5814 H 552.343 -0.853354 -3.95601 0
M  V30 5815 H 550.913 -0.198229 -3.11971 0
M  V30 5816 H 550.133 -2.67388 -2.8965 0
M  V30 5817 H 551.421 -3.09317 -4.03981 0
M  V30 5818 H 550.819 -0.347436 -5.64632 0
M  V30 5819 H 549.376 -0.783232 -6.47077 0
M  V30 5820 N 552.809 0.956637 -1.25245 0
M  V30 5821 C 553.759 2.03841 -1.02141 0
M  V30 5822 C 554.743 1.60848 0.0410058 0
M  V30 5823 O 555.935 1.76142 -0.174084 0
M  V30 5824 C 553.064 3.37282 -0.639963 0
M  V30 5825 C 552.15 3.86805 -1.73903 0
M  V30 5826 N 552.541 4.09143 -2.97381 0
M  V30 5827 C 550.839 4.15574 -1.61909 0
M  V30 5828 C 551.54 4.49923 -3.68707 0
M  V30 5829 N 550.516 4.55737 -2.96318 0
M  V30 5830 H 554.318 2.19102 -1.95886 0
M  V30 5831 H 551.832 1.1413 -1.15534 0
M  V30 5832 H 553.829 4.14403 -0.455643 0
M  V30 5833 H 552.489 3.23401 0.29018 0
M  V30 5834 H 553.5 3.96275 -3.33447 0
M  V30 5835 H 550.177 4.10566 -0.757764 0
M  V30 5836 H 551.567 4.75526 -4.74684 0
M  V30 5837 N 554.287 1.06798 1.15896 0
M  V30 5838 C 555.534 0.787767 1.86549 0
M  V30 5839 C 555.862 -0.685959 1.82002 0
M  V30 5840 O 555.117 -1.5188 1.23414 0
M  V30 5841 C 555.416 1.23414 3.35416 0
M  V30 5842 C 555.082 2.71285 3.6016 0
M  V30 5843 C 553.744 3.11676 3.66622 0
M  V30 5844 C 556.096 3.6676 3.7032 0
M  V30 5845 C 553.424 4.4637 3.8075 0
M  V30 5846 C 555.776 5.01209 3.8597 0
M  V30 5847 C 554.44 5.41229 3.90676 0
M  V30 5848 H 553.71 0.288264 0.682631 0
M  V30 5849 H 556.357 1.338 1.37003 0
M  V30 5850 H 554.662 0.60319 3.87129 0
M  V30 5851 H 556.359 0.994298 3.88477 0
M  V30 5852 H 552.949 2.39015 3.55767 0
M  V30 5853 H 557.133 3.36685 3.64633 0
M  V30 5854 H 552.389 4.76855 3.82648 0
M  V30 5855 H 556.563 5.75067 3.92773 0
M  V30 5856 H 554.19 6.45602 4.01375 0
M  V30 5857 N 555.766 -1.3263 0.851289 0
M  V30 5858 C 557.014 -1.96978 0.452128 0
M  V30 5859 C 557.335 -1.67715 -0.99482 0
M  V30 5860 O 556.605 -0.98259 -1.69476 0
M  V30 5861 H 555.185 -0.72873 0.164202 0
M  V30 5862 H 557.847 -1.61774 1.08698 0
M  V30 5863 H 556.943 -3.06387 0.594407 0
M  V30 5864 N 557.244 -0.608902 -1.45362 0
M  V30 5865 C 558.469 -0.10921 -2.07112 0
M  V30 5866 C 558.894 1.19779 -1.45033 0
M  V30 5867 O 558.252 1.72961 -0.543527 0
M  V30 5868 C 558.3 0.0155745 -3.60597 0
M  V30 5869 O 557.404 1.06546 -3.98399 0
M  V30 5870 H 556.745 -0.0746619 -0.659789 0
M  V30 5871 H 559.275 -0.839283 -1.86594 0
M  V30 5872 H 559.285 0.213364 -4.07442 0
M  V30 5873 H 557.96 -0.938765 -4.05167 0
M  V30 5874 H 556.537 0.844024 -3.63223 0
M  V30 5875 N 558.722 1.53707 -0.348139 0
M  V30 5876 C 559.97 2.00591 0.246478 0
M  V30 5877 C 560.291 1.23753 1.50699 0
M  V30 5878 O 559.561 0.345964 1.92821 0
M  V30 5879 H 558.141 0.741053 0.0940679 0
M  V30 5880 H 560.803 1.89139 -0.470354 0
M  V30 5881 H 559.899 3.08297 0.485714 0
M  V30 5882 N 560.2 0.0768682 1.57412 0
M  V30 5883 C 561.163 -0.873949 2.11884 0
M  V30 5884 C 562.163 -1.22301 1.04398 0
M  V30 5885 O 563.353 -1.15545 1.30365 0
M  V30 5886 C 560.485 -2.17575 2.62438 0
M  V30 5887 H 561.678 -0.401278 2.97203 0
M  V30 5888 H 559.231 -0.171904 1.55352 0
M  V30 5889 H 559.966 -2.69368 1.80587 0
M  V30 5890 H 559.751 -1.93534 3.41009 0
M  V30 5891 H 561.241 -2.85631 3.04639 0
M  V30 5892 N 561.678 -1.56367 -0.196722 0
M  V30 5893 C 562.611 -1.89475 -1.2718 0
M  V30 5894 C 563.589 -0.754667 -1.44026 0
M  V30 5895 O 564.773 -1.00551 -1.59442 0
M  V30 5896 C 561.9 -2.12352 -2.63864 0
M  V30 5897 C 560.946 -3.35053 -2.63897 0
M  V30 5898 S 561.779 -4.90228 -2.15492 0
M  V30 5899 C 562.935 -5.16171 -3.54004 0
M  V30 5900 H 563.168 -2.80365 -0.989075 0
M  V30 5901 H 560.701 -1.49125 -0.40014 0
M  V30 5902 H 562.659 -2.26214 -3.42545 0
M  V30 5903 H 561.32 -1.22214 -2.89349 0
M  V30 5904 H 560.513 -3.48182 -3.64397 0
M  V30 5905 H 560.115 -3.20176 -1.93296 0
M  V30 5906 H 562.407 -5.06591 -4.49857 0
M  V30 5907 H 563.35 -6.17938 -3.45771 0
M  V30 5908 H 563.758 -4.43814 -3.48841 0
M  V30 5909 N 563.156 0.464375 -1.50603 0
M  V30 5910 C 564.086 1.56944 -1.72889 0
M  V30 5911 C 565.067 1.59979 -0.577997 0
M  V30 5912 O 566.252 1.76138 -0.817855 0
M  V30 5913 C 563.382 2.95225 -1.8292 0
M  V30 5914 C 562.336 3.07056 -2.98162 0
M  V30 5915 C 561.662 4.47051 -2.93343 0
M  V30 5916 C 562.962 2.83648 -4.38567 0
M  V30 5917 H 564.656 1.38547 -2.65415 0
M  V30 5918 H 562.202 0.665082 -1.27721 0
M  V30 5919 H 564.155 3.72467 -1.97095 0
M  V30 5920 H 562.879 3.14793 -0.870209 0
M  V30 5921 H 561.538 2.32248 -2.83648 0
M  V30 5922 H 561.186 4.63547 -1.95276 0
M  V30 5923 H 560.886 4.55902 -3.70712 0
M  V30 5924 H 562.41 5.26304 -3.09575 0
M  V30 5925 H 563.824 3.50636 -4.53572 0
M  V30 5926 H 562.221 3.03937 -5.17438 0
M  V30 5927 H 563.291 1.79451 -4.50472 0
M  V30 5928 N 564.634 1.40294 0.718013 0
M  V30 5929 C 565.584 1.36847 1.82365 0
M  V30 5930 C 566.568 0.246424 1.59002 0
M  V30 5931 O 567.76 0.485336 1.70216 0
M  V30 5932 C 564.889 1.23105 3.20469 0
M  V30 5933 C 563.975 2.4008 3.49603 0
M  V30 5934 N 564.366 3.65562 3.49568 0
M  V30 5935 C 562.664 2.33407 3.80049 0
M  V30 5936 C 563.365 4.43015 3.76978 0
M  V30 5937 N 562.341 3.72823 3.95606 0
M  V30 5938 H 566.143 2.31811 1.80668 0
M  V30 5939 H 563.657 1.34031 0.91703 0
M  V30 5940 H 565.654 1.18718 3.9964 0
M  V30 5941 H 564.314 0.291056 3.23393 0
M  V30 5942 H 565.325 3.98756 3.30476 0
M  V30 5943 H 562.002 1.47762 3.90478 0
M  V30 5944 H 563.392 5.51859 3.83276 0
M  V30 5945 N 566.112 -0.949982 1.2575 0
M  V30 5946 C 567.389 -1.6718 1.01539 0
M  V30 5947 C 567.769 -2.06095 -0.456942 0
M  V30 5948 O 567.117 -1.77792 -1.43534 0
M  V30 5949 C 567.327 -2.8906 1.95564 0
M  V30 5950 C 568.675 -3.60909 2.23673 0
M  V30 5951 O 569.699 -2.9915 1.9336 0
M  V30 5952 O 568.558 -4.72127 2.75243 0
M  V30 5953 H 565.652 -0.731697 0.385419 0
M  V30 5954 H 568.198 -1.00249 1.36924 0
M  V30 5955 H 566.97 -2.57128 2.94959 0
M  V30 5956 H 566.593 -3.63719 1.60605 0
M  V30 5957 N 567.59 -1.07411 -1.15328 0
M  V30 5958 C 568.836 -0.798831 -1.86404 0
M  V30 5959 C 569.169 0.673433 -1.8215 0
M  V30 5960 O 568.444 1.49428 -1.24505 0
M  V30 5961 C 568.727 -1.30846 -3.35487 0
M  V30 5962 C 568.58 -2.84532 -3.4837 0
M  V30 5963 C 569.899 -0.925486 -4.30259 0
M  V30 5964 H 567.018 -0.291659 -0.676834 0
M  V30 5965 H 569.66 -1.332 -1.35491 0
M  V30 5966 H 567.81 -0.854916 -3.78977 0
M  V30 5967 H 569.482 -3.3818 -3.13739 0
M  V30 5968 H 567.725 -3.22699 -2.8991 0
M  V30 5969 H 568.396 -3.15259 -4.53118 0
M  V30 5970 H 570.872 -1.3163 -3.94731 0
M  V30 5971 H 569.748 -1.3094 -5.33053 0
M  V30 5972 H 570.009 0.168525 -4.41779 0
M  V30 5973 N 569.068 1.32177 -0.85831 0
M  V30 5974 C 570.314 1.97417 -0.46417 0
M  V30 5975 C 570.647 1.67746 0.978514 0
M  V30 5976 O 569.922 0.967654 1.68721 0
M  V30 5977 C 570.205 3.53069 -0.708094 0
M  V30 5978 C 570.058 3.92357 -2.19946 0
M  V30 5979 C 571.377 4.39783 -0.166881 0
M  V30 5980 H 568.496 0.717097 -0.17012 0
M  V30 5981 H 571.138 1.56499 -1.07741 0
M  V30 5982 H 569.288 3.88054 -0.186128 0
M  V30 5983 H 570.96 3.67533 -2.78779 0
M  V30 5984 H 569.203 3.41384 -2.67656 0
M  V30 5985 H 569.874 5.00841 -2.32082 0
M  V30 5986 H 572.35 4.11556 -0.613285 0
M  V30 5987 H 571.226 5.47671 -0.367093 0
M  V30 5988 H 571.487 4.32196 0.930559 0
M  V30 5989 N 570.547 0.616602 1.45037 0
M  V30 5990 C 571.477 -0.0840787 2.33349 0
M  V30 5991 C 572.458 -0.849641 1.4736 0
M  V30 5992 O 573.643 -0.818407 1.76113 0
M  V30 5993 C 570.773 -1.07604 3.3021 0
M  V30 5994 C 569.727 -0.423096 4.25904 0
M  V30 5995 C 569.053 -1.52394 5.12523 0
M  V30 5996 C 570.353 0.661457 5.18095 0
M  V30 5997 H 572.047 0.653333 2.92185 0
M  V30 5998 H 569.593 0.315634 1.40498 0
M  V30 5999 H 571.546 -1.57485 3.90866 0
M  V30 6000 H 570.27 -1.84416 2.69552 0
M  V30 6001 H 568.929 0.05493 3.66559 0
M  V30 6002 H 568.577 -2.28257 4.48227 0
M  V30 6003 H 568.277 -1.09251 5.77354 0
M  V30 6004 H 569.801 -2.02485 5.76049 0
M  V30 6005 H 571.215 0.246353 5.7277 0
M  V30 6006 H 569.612 1.01517 5.91451 0
M  V30 6007 H 570.682 1.53446 4.59981 0
M  V30 6008 N 572.025 -1.5352 0.356285 0
M  V30 6009 C 573.273 -2.00719 -0.235837 0
M  V30 6010 C 573.594 -1.24551 -1.5004 0
M  V30 6011 O 572.864 -0.356185 -1.92635 0
M  V30 6012 H 571.444 -0.741542 -0.0901366 0
M  V30 6013 H 574.106 -1.88887 0.480378 0
M  V30 6014 H 573.202 -3.08551 -0.469357 0
M  V30 6015 N 573.503 -0.0852151 -1.57369 0
M  V30 6016 C 574.749 0.581666 -1.94279 0
M  V30 6017 C 575.082 1.68444 -0.966446 0
M  V30 6018 O 574.357 1.945 0.00215277 0
M  V30 6019 C 574.64 1.14609 -3.41375 0
M  V30 6020 C 574.493 0.0490414 -4.49773 0
M  V30 6021 C 575.812 2.04751 -3.8957 0
M  V30 6022 H 572.931 0.209972 -0.706456 0
M  V30 6023 H 575.573 -0.153915 -1.89376 0
M  V30 6024 H 573.723 1.77297 -3.45685 0
M  V30 6025 H 575.395 -0.584721 -4.57579 0
M  V30 6026 H 573.638 -0.618638 -4.29366 0
M  V30 6027 H 574.309 0.484601 -5.49869 0
M  V30 6028 H 576.785 1.51981 -3.87351 0
M  V30 6029 H 575.661 2.41173 -4.93079 0
M  V30 6030 H 575.922 2.96107 -3.28288 0
M  V30 6031 N 574.981 1.5647 0.188427 0
M  V30 6032 C 576.392 1.70864 0.752494 0
M  V30 6033 C 576.743 0.692905 1.83557 0
M  V30 6034 O 575.868 -0.149307 2.15884 0
M  V30 6035 C 576.463 3.09789 1.37173 0
M  V30 6036 C 575.022 3.25925 1.88281 0
M  V30 6037 C 574.169 2.66817 0.755259 0
M  V30 6038 H 577.12 1.58657 -0.0367408 0
M  V30 6039 H 577.141 3.07489 2.24122 0
M  V30 6040 H 576.653 3.83693 0.583219 0
M  V30 6041 H 574.754 2.56948 2.6983 0
M  V30 6042 H 574.867 4.33498 2.04001 0
M  V30 6043 H 573.231 2.2617 1.17128 0
M  V30 6044 H 574.014 3.43294 -0.0211237 0
M  V30 6045 N 576.459 -0.456382 1.50847 0
M  V30 6046 C 577.369 -1.57805 1.73594 0
M  V30 6047 C 578.385 -1.62599 0.619476 0
M  V30 6048 O 579.561 -1.80195 0.899532 0
M  V30 6049 C 576.626 -2.93926 1.8387 0
M  V30 6050 C 575.687 -2.99402 3.07663 0
M  V30 6051 C 574.92 -4.29031 3.1744 0
M  V30 6052 O 575.143 -5.20358 2.33631 0
M  V30 6053 O 574.077 -4.40401 4.10281 0
M  V30 6054 H 577.903 -1.41531 2.68705 0
M  V30 6055 H 575.488 -0.637422 1.3512 0
M  V30 6056 H 577.37 -3.74747 1.92725 0
M  V30 6057 H 576.045 -3.10368 0.91944 0
M  V30 6058 H 574.952 -2.17606 3.043 0
M  V30 6059 H 576.285 -2.87901 3.99216 0
M  V30 6060 N 577.937 -1.40673 -0.710563 0
M  V30 6061 C 578.885 -1.41517 -1.84596 0
M  V30 6062 C 579.879 -0.295043 -1.66811 0
M  V30 6063 O 581.085 -0.466331 -1.73854 0
M  V30 6064 H 577.46 -0.442467 -0.608052 0
M  V30 6065 H 579.431 -2.37238 -1.80999 0
M  V30 6066 C 578.18 -1.29957 -3.225 0
M  V30 6067 H 577.503 -2.15429 -3.36794 0
M  V30 6068 H 578.943 -1.34608 -4.02066 0
M  V30 6069 C 577.402 -0.0103164 -3.36898 0
M  V30 6070 O 577.932 0.950707 -3.90288 0
M  V30 6071 N 576.138 0.0608409 -2.90536 0
M  V30 6072 H 575.685 -0.721943 -2.47277 0
M  V30 6073 H 575.643 0.92292 -3.00549 0
M  V30 6074 N 579.415 0.9433 -1.26252 0
M  V30 6075 C 580.378 2.02326 -1.07689 0
M  V30 6076 C 581.378 1.60779 -0.0259174 0
M  V30 6077 O 582.568 1.72108 -0.269134 0
M  V30 6078 C 579.7 3.34886 -0.63752 0
M  V30 6079 H 580.893 2.20225 -2.0357 0
M  V30 6080 H 578.446 1.12197 -1.08819 0
M  V30 6081 H 579.181 3.22684 0.323377 0
M  V30 6082 H 578.966 3.66393 -1.39637 0
M  V30 6083 H 580.456 4.14231 -0.529418 0
M  V30 6084 N 580.893 1.08022 1.14757 0
M  V30 6085 C 581.823 0.728248 2.21853 0
M  V30 6086 C 582.804 -0.287486 1.67653 0
M  V30 6087 O 583.989 -0.158727 1.9355 0
M  V30 6088 C 581.119 0.132549 3.47047 0
M  V30 6089 C 580.073 1.07619 4.14249 0
M  V30 6090 C 579.399 0.342907 5.33599 0
M  V30 6091 C 580.699 2.41268 4.63235 0
M  V30 6092 H 582.393 1.62365 2.51551 0
M  V30 6093 H 579.939 0.782125 1.20908 0
M  V30 6094 H 581.892 -0.125665 4.21213 0
M  V30 6095 H 580.616 -0.797971 3.16702 0
M  V30 6096 H 579.275 1.31944 3.42033 0
M  V30 6097 H 578.923 -0.59129 4.99513 0
M  V30 6098 H 578.623 0.971955 5.79506 0
M  V30 6099 H 580.147 0.0926538 6.1053 0
M  V30 6100 H 581.561 2.21232 5.28894 0
M  V30 6101 H 579.958 2.9983 5.19829 0
M  V30 6102 H 581.028 3.03079 3.78512 0
M  V30 6103 N 582.371 -1.3172 0.865308 0
M  V30 6104 C 583.303 -2.27545 0.274906 0
M  V30 6105 C 584.316 -1.52887 -0.559413 0
M  V30 6106 O 585.505 -1.74361 -0.382166 0
M  V30 6107 C 582.605 -3.33006 -0.629286 0
M  V30 6108 C 581.778 -4.37063 0.171553 0
M  V30 6109 C 580.837 -5.22044 -0.660052 0
M  V30 6110 O 579.863 -5.69129 -0.0897527 0
M  V30 6111 N 581.065 -5.45946 -1.97289 0
M  V30 6112 H 583.83 -2.78848 1.09836 0
M  V30 6113 H 581.391 -1.44693 0.726331 0
M  V30 6114 H 583.383 -3.86772 -1.19121 0
M  V30 6115 H 581.953 -2.81782 -1.35342 0
M  V30 6116 H 581.173 -3.83436 0.914919 0
M  V30 6117 H 582.461 -5.03662 0.721235 0
M  V30 6118 H 581.859 -5.0944 -2.45942 0
M  V30 6119 H 580.416 -6.02665 -2.4827 0
M  V30 6120 N 583.85 -0.624285 -1.44708 0
M  V30 6121 C 585.26 -0.2092 -1.85524 0
M  V30 6122 C 585.611 1.23783 -1.52225 0
M  V30 6123 O 584.736 1.94089 -0.956986 0
M  V30 6124 C 585.332 -0.372897 -3.36742 0
M  V30 6125 C 583.891 -0.012374 -3.76398 0
M  V30 6126 C 583.038 -0.68951 -2.68591 0
M  V30 6127 H 585.989 -0.829894 -1.35272 0
M  V30 6128 H 586.01 0.390134 -3.78495 0
M  V30 6129 H 585.522 -1.42615 -3.60947 0
M  V30 6130 H 583.623 1.03941 -3.57809 0
M  V30 6131 H 583.736 -0.417663 -4.77276 0
M  V30 6132 H 582.1 -0.125484 -2.54391 0
M  V30 6133 H 582.883 -1.74522 -2.9563 0
M  V30 6134 N 585.328 1.53329 -0.364422 0
M  V30 6135 C 586.556 2.05657 0.226424 0
M  V30 6136 C 586.971 1.23801 1.42544 0
M  V30 6137 O 586.328 0.27839 1.80364 0
M  V30 6138 C 586.379 3.56125 0.621056 0
M  V30 6139 O 586.1 4.34879 -0.530304 0
M  V30 6140 C 587.601 4.24706 1.27041 0
M  V30 6141 H 584.821 0.669806 0.0400056 0
M  V30 6142 H 587.365 1.97714 -0.522456 0
M  V30 6143 H 585.52 3.64223 1.31985 0
M  V30 6144 H 585.934 5.24073 -0.211546 0
M  V30 6145 H 587.408 5.3131 1.49711 0
M  V30 6146 H 587.885 3.78354 2.23036 0
M  V30 6147 H 588.491 4.20858 0.613079 0
M  V30 6148 N 586.806 0.0935595 1.57322 0
M  V30 6149 C 587.756 -0.876521 2.10478 0
M  V30 6150 C 588.74 -1.24482 1.01946 0
M  V30 6151 O 589.932 -1.22016 1.28223 0
M  V30 6152 C 587.061 -2.13615 2.68745 0
M  V30 6153 C 586.147 -1.79335 3.84317 0
M  V30 6154 N 586.538 -1.15606 4.92411 0
M  V30 6155 C 584.836 -2.08954 3.94023 0
M  V30 6156 C 585.537 -0.999036 5.73057 0
M  V30 6157 N 584.513 -1.51585 5.22037 0
M  V30 6158 H 588.315 -0.379829 2.91435 0
M  V30 6159 H 585.829 -0.109699 1.62029 0
M  V30 6160 H 587.826 -2.84053 3.05155 0
M  V30 6161 H 586.486 -2.63851 1.89242 0
M  V30 6162 H 587.497 -0.823063 5.11318 0
M  V30 6163 H 584.174 -2.61416 3.25527 0
M  V30 6164 H 585.564 -0.500772 6.70031 0
M  V30 6165 N 588.284 -1.56567 -0.180126 0
M  V30 6166 C 589.695 -1.7126 -0.743422 0
M  V30 6167 C 590.046 -0.70263 -1.83187 0
M  V30 6168 O 589.171 0.137856 -2.1596 0
M  V30 6169 C 589.766 -3.10512 -1.35528 0
M  V30 6170 C 588.325 -3.26919 -1.8655 0
M  V30 6171 C 587.472 -2.67213 -0.741099 0
M  V30 6172 H 590.423 -1.58636 0.0451543 0
M  V30 6173 H 590.444 -3.08673 -2.22489 0
M  V30 6174 H 589.956 -3.83997 -0.562862 0
M  V30 6175 H 588.057 -2.58376 -2.68464 0
M  V30 6176 H 588.17 -4.34574 -2.01699 0
M  V30 6177 H 586.534 -2.26788 -1.15927 0
M  V30 6178 H 587.317 -3.43277 0.0393291 0
M  V30 6179 N 589.762 0.448376 -1.51087 0
M  V30 6180 C 591.008 1.20049 -1.6345 0
M  V30 6181 C 591.341 1.91121 -0.344444 0
M  V30 6182 O 590.616 1.83125 0.655396 0
M  V30 6183 C 590.899 2.22624 -2.83038 0
M  V30 6184 C 590.752 1.55708 -4.21989 0
M  V30 6185 C 592.071 3.23718 -2.98152 0
M  V30 6186 H 589.19 0.435085 -0.59487 0
M  V30 6187 H 591.832 0.491183 -1.83541 0
M  V30 6188 H 589.982 2.83117 -2.66039 0
M  V30 6189 H 591.654 0.986367 -4.50631 0
M  V30 6190 H 589.897 0.859647 -4.25197 0
M  V30 6191 H 590.568 2.30357 -5.01637 0
M  V30 6192 H 593.044 2.73269 -3.13788 0
M  V30 6193 H 591.92 3.92795 -3.83411 0
M  V30 6194 H 592.181 3.89179 -2.09743 0
M  V30 6195 N 591.24 1.41047 0.703093 0
M  V30 6196 C 592.47 1.43133 1.48985 0
M  V30 6197 C 592.878 0.0328537 1.89171 0
M  V30 6198 O 592.221 -0.956469 1.56835 0
M  V30 6199 C 592.283 2.26991 2.78775 0
M  V30 6200 C 591.947 3.7525 2.60837 0
M  V30 6201 C 592.944 4.67591 2.27276 0
M  V30 6202 C 590.629 4.19208 2.76712 0
M  V30 6203 C 592.623 6.01877 2.09817 0
M  V30 6204 C 590.31 5.53561 2.5887 0
M  V30 6205 C 591.308 6.4471 2.25472 0
M  V30 6206 O 590.996 7.76584 2.07778 0
M  V30 6207 H 590.728 0.489788 0.465922 0
M  V30 6208 H 593.282 1.85886 0.873822 0
M  V30 6209 H 591.512 1.79038 3.42757 0
M  V30 6210 H 593.201 2.20867 3.40547 0
M  V30 6211 H 593.967 4.34923 2.14633 0
M  V30 6212 H 589.846 3.48572 3.01693 0
M  V30 6213 H 593.39 6.72986 1.83671 0
M  V30 6214 H 589.287 5.85811 2.71102 0
M  V30 6215 H 590.055 7.87649 2.22601 0
M  V30 6216 N 592.718 -0.936591 1.26751 0
M  V30 6217 C 593.666 -2.0573 1.08527 0
M  V30 6218 C 594.66 -1.69397 0.0108784 0
M  V30 6219 O 595.866 -1.79215 0.167915 0
M  V30 6220 H 592.241 -0.673691 0.334133 0
M  V30 6221 H 594.212 -2.1825 2.03493 0
M  V30 6222 C 592.961 -3.39738 0.739845 0
M  V30 6223 H 592.284 -3.68174 1.55845 0
M  V30 6224 H 593.724 -4.18955 0.652149 0
M  V30 6225 C 592.183 -3.32292 -0.555288 0
M  V30 6226 O 592.713 -3.68794 -1.59229 0
M  V30 6227 N 590.919 -2.85394 -0.54762 0
M  V30 6228 H 590.466 -2.55886 0.296667 0
M  V30 6229 H 590.424 -2.80795 -1.41427 0
M  V30 6230 N 594.196 -1.08629 -1.14182 0
M  V30 6231 C 595.445 -0.812271 -1.84621 0
M  V30 6232 C 595.758 0.664313 -1.83973 0
M  V30 6233 O 596.964 1.05357 -2.50224 0
M  V30 6234 C 595.42 -1.4031 -3.31423 0
M  V30 6235 C 595.028 -2.91164 -3.40481 0
M  V30 6236 C 596.772 -1.20767 -4.06959 0
M  V30 6237 C 594.679 -3.43373 -4.81507 0
M  V30 6238 H 593.609 -0.30019 -0.691666 0
M  V30 6239 H 596.26 -1.30798 -1.28701 0
M  V30 6240 H 594.642 -0.835096 -3.87094 0
M  V30 6241 H 595.816 -3.5412 -2.94848 0
M  V30 6242 H 594.131 -3.09646 -2.78403 0
M  V30 6243 H 596.728 -1.57237 -5.11058 0
M  V30 6244 H 597.071 -0.147664 -4.16038 0
M  V30 6245 H 597.604 -1.74274 -3.57594 0
M  V30 6246 H 594.343 -4.48958 -4.77616 0
M  V30 6247 H 593.863 -2.85176 -5.27669 0
M  V30 6248 H 595.542 -3.40095 -5.50404 0
M  V30 6249 N 595.674 1.31259 -0.872281 0
M  V30 6250 C 596.922 1.96233 -0.483409 0
M  V30 6251 C 597.243 1.69276 0.968012 0
M  V30 6252 O 596.513 1.00943 1.67891 0
M  V30 6253 H 595.093 0.726025 -0.175774 0
M  V30 6254 H 597.755 1.60024 -1.11258 0
M  V30 6255 H 596.851 3.05403 -0.643075 0
M  V30 6256 N 597.152 0.631951 1.44375 0
M  V30 6257 C 598.563 0.219036 1.85411 0
M  V30 6258 C 598.914 -1.22974 1.52879 0
M  V30 6259 O 598.039 -1.93579 0.967266 0
M  V30 6260 C 598.634 0.39075 3.36539 0
M  V30 6261 C 597.193 0.0323351 3.76386 0
M  V30 6262 C 596.34 0.703744 2.68221 0
M  V30 6263 H 599.291 0.837056 1.3483 0
M  V30 6264 H 599.312 -0.370056 3.78696 0
M  V30 6265 H 598.824 1.44527 3.60185 0
M  V30 6266 H 596.925 -1.02042 3.58355 0
M  V30 6267 H 597.038 0.442969 4.77048 0
M  V30 6268 H 595.402 0.138974 2.54321 0
M  V30 6269 H 596.185 1.76088 2.947 0
M  V30 6270 N 598.631 -1.53133 0.372548 0
M  V30 6271 C 599.908 -1.93704 -0.271693 0
M  V30 6272 C 600.288 -1.30667 -1.65799 0
M  V30 6273 O 599.636 -0.46838 -2.23648 0
M  V30 6274 C 599.846 -3.47576 -0.314903 0
M  V30 6275 C 601.194 -4.20998 -0.551912 0
M  V30 6276 O 602.218 -3.53994 -0.39582 0
M  V30 6277 O 601.077 -5.39748 -0.85639 0
M  V30 6278 H 598.171 -0.810457 -0.164586 0
M  V30 6279 H 600.717 -1.6427 0.425838 0
M  V30 6280 H 599.489 -3.85749 0.656792 0
M  V30 6281 H 599.112 -3.83264 -1.05804 0
M  V30 6282 N 600.109 -0.101901 -1.5727 0
M  V30 6283 C 601.056 0.854577 -2.14396 0
M  V30 6284 C 602.026 1.27521 -1.06432 0
M  V30 6285 O 603.211 1.35575 -1.34253 0
M  V30 6286 C 600.351 2.10576 -2.73408 0
M  V30 6287 C 599.464 1.73504 -3.95626 0
M  V30 6288 C 598.599 2.9346 -4.42781 0
M  V30 6289 C 597.638 2.52547 -5.57572 0
M  V30 6290 N 596.775 3.65359 -5.99547 0
M  V30 6291 H 601.615 0.360578 -2.9581 0
M  V30 6292 H 599.152 0.166303 -1.46157 0
M  V30 6293 H 601.11 2.83859 -3.05745 0
M  V30 6294 H 599.74 2.57463 -1.94711 0
M  V30 6295 H 598.792 0.901622 -3.6956 0
M  V30 6296 H 600.104 1.39426 -4.78917 0
M  V30 6297 H 599.258 3.74988 -4.76937 0
M  V30 6298 H 597.997 3.30753 -3.58404 0
M  V30 6299 H 597.002 1.69446 -5.23037 0
M  V30 6300 H 598.227 2.1639 -6.43702 0
M  V30 6301 H 596.173 4.02358 -5.18116 0
M  V30 6302 H 596.09 3.35148 -6.77652 0
M  V30 6303 H 597.358 4.47378 -6.38336 0
M  V30 6304 N 601.587 1.56661 0.17182 0
M  V30 6305 C 602.833 1.82235 0.889845 0
M  V30 6306 C 603.166 0.679673 1.81918 0
M  V30 6307 O 602.441 -0.318404 1.91876 0
M  V30 6308 C 602.724 3.18195 1.68595 0
M  V30 6309 C 602.577 4.42989 0.779773 0
M  V30 6310 C 603.896 3.5109 2.65375 0
M  V30 6311 H 601.015 0.66291 0.322056 0
M  V30 6312 H 603.657 1.89358 0.15608 0
M  V30 6313 H 601.807 3.12253 2.3115 0
M  V30 6314 H 603.479 4.60997 0.16714 0
M  V30 6315 H 601.722 4.33711 0.0877964 0
M  V30 6316 H 602.393 5.3467 1.3723 0
M  V30 6317 H 604.869 3.57482 2.12946 0
M  V30 6318 H 603.745 4.47298 3.18144 0
M  V30 6319 H 604.006 2.75768 3.45549 0
M  V30 6320 N 603.065 -0.440357 1.51323 0
M  V30 6321 C 604.314 -1.18697 1.63076 0
M  V30 6322 C 604.627 -1.92418 0.35136 0
M  V30 6323 O 605.833 -2.69258 0.348221 0
M  V30 6324 C 604.289 -2.15849 2.87988 0
M  V30 6325 C 603.897 -1.47789 4.22921 0
M  V30 6326 C 605.641 -2.90962 3.09098 0
M  V30 6327 C 603.548 -2.43407 5.38987 0
M  V30 6328 H 602.478 -0.44676 0.607389 0
M  V30 6329 H 605.129 -0.454313 1.77787 0
M  V30 6330 H 603.511 -2.92537 2.66905 0
M  V30 6331 H 604.685 -0.7668 4.54375 0
M  V30 6332 H 603 -0.848404 4.07665 0
M  V30 6333 H 605.597 -3.62584 3.92985 0
M  V30 6334 H 605.94 -3.52133 2.22053 0
M  V30 6335 H 606.473 -2.21381 3.30507 0
M  V30 6336 H 603.212 -1.86929 6.28282 0
M  V30 6337 H 602.732 -3.12579 5.11913 0
M  V30 6338 H 604.411 -3.046 5.70813 0
M  V30 6339 N 604.543 -1.41418 -0.695603 0
M  V30 6340 C 605.475 -1.39195 -1.82092 0
M  V30 6341 C 606.488 -0.294132 -1.60121 0
M  V30 6342 O 607.677 -0.555854 -1.69625 0
M  V30 6343 C 604.777 -1.14828 -3.18854 0
M  V30 6344 C 603.95 -2.36649 -3.67853 0
M  V30 6345 C 603.009 -2.08139 -4.83285 0
M  V30 6346 O 602.035 -2.81177 -4.94902 0
M  V30 6347 N 603.237 -1.07162 -5.70523 0
M  V30 6348 H 606.002 -2.36185 -1.84491 0
M  V30 6349 H 603.563 -1.3603 -0.877923 0
M  V30 6350 H 605.555 -0.937075 -3.93702 0
M  V30 6351 H 604.125 -0.264358 -3.1148 0
M  V30 6352 H 603.345 -2.73472 -2.83913 0
M  V30 6353 H 604.633 -3.17816 -3.97329 0
M  V30 6354 H 604.031 -0.467124 -5.63768 0
M  V30 6355 H 602.588 -0.920311 -6.4527 0
M  V30 6356 N 606.021 0.929856 -1.27246 0
M  V30 6357 C 606.984 2.01172 -1.09829 0
M  V30 6358 C 607.984 1.60743 -0.0429687 0
M  V30 6359 O 609.174 1.71813 -0.287373 0
M  V30 6360 C 606.306 3.34191 -0.673003 0
M  V30 6361 H 607.499 2.18054 -2.05895 0
M  V30 6362 H 605.052 1.11036 -1.10003 0
M  V30 6363 H 605.787 3.23009 0.289134 0
M  V30 6364 H 605.572 3.64892 -1.43515 0
M  V30 6365 H 607.062 4.13646 -0.573323 0
M  V30 6366 N 607.499 1.09233 1.13605 0
M  V30 6367 C 608.727 0.848908 1.88683 0
M  V30 6368 C 609.142 -0.599667 1.79024 0
M  V30 6369 O 608.499 -1.41265 1.15544 0
M  V30 6370 C 608.55 1.27273 3.38355 0
M  V30 6371 O 608.271 2.66449 3.47759 0
M  V30 6372 C 609.772 1.0614 4.30406 0
M  V30 6373 H 606.992 0.305549 0.597395 0
M  V30 6374 H 609.536 1.4538 1.43823 0
M  V30 6375 H 607.691 0.711776 3.80805 0
M  V30 6376 H 608.105 2.84264 4.40788 0
M  V30 6377 H 609.579 1.40725 5.33761 0
M  V30 6378 H 610.056 -0.000960332 4.392 0
M  V30 6379 H 610.662 1.60821 3.93722 0
M  V30 6380 N 608.977 -1.30795 0.87923 0
M  V30 6381 C 610.205 -2.00527 0.509548 0
M  V30 6382 C 610.62 -1.65944 -0.90045 0
M  V30 6383 O 609.977 -0.893525 -1.5913 0
M  V30 6384 C 610.028 -3.55276 0.667943 0
M  V30 6385 O 609.749 -3.88625 2.02242 0
M  V30 6386 C 611.25 -4.4228 0.300494 0
M  V30 6387 H 608.47 -0.641261 0.197549 0
M  V30 6388 H 611.014 -1.66813 1.18295 0
M  V30 6389 H 609.169 -3.87377 0.0419843 0
M  V30 6390 H 609.583 -4.83334 2.03688 0
M  V30 6391 H 611.057 -5.50061 0.462242 0
M  V30 6392 H 611.534 -4.32556 -0.76106 0
M  V30 6393 H 612.14 -4.15613 0.902536 0
M  V30 6394 N 610.455 -0.639598 -1.44038 0
M  V30 6395 C 611.685 -0.154586 -2.06021 0
M  V30 6396 C 612.093 1.17951 -1.47933 0
M  V30 6397 O 611.436 1.73627 -0.59994 0
M  V30 6398 C 611.498 0.0255459 -3.59491 0
M  V30 6399 C 611.162 -1.2317 -4.40089 0
M  V30 6400 C 612.159 -2.15735 -4.73027 0
M  V30 6401 C 609.844 -1.46949 -4.80324 0
M  V30 6402 C 611.838 -3.30382 -5.45093 0
M  V30 6403 C 609.525 -2.61891 -5.52138 0
M  V30 6404 C 610.523 -3.53433 -5.84443 0
M  V30 6405 O 610.211 -4.6637 -6.54793 0
M  V30 6406 H 609.943 -0.0808543 -0.671147 0
M  V30 6407 H 612.497 -0.876541 -1.85758 0
M  V30 6408 H 610.727 0.802733 -3.78276 0
M  V30 6409 H 612.416 0.466184 -4.03214 0
M  V30 6410 H 613.182 -1.98602 -4.42473 0
M  V30 6411 H 609.061 -0.765815 -4.54595 0
M  V30 6412 H 612.605 -4.01856 -5.70226 0
M  V30 6413 H 608.502 -2.78964 -5.82108 0
M  V30 6414 H 609.27 -4.6546 -6.73267 0
M  V30 6415 N 611.933 1.52934 -0.380664 0
M  V30 6416 C 613.18 2.01467 0.204278 0
M  V30 6417 C 613.508 1.26744 1.47533 0
M  V30 6418 O 612.763 0.353723 1.92477 0
M  V30 6419 C 613.062 3.5349 0.527199 0
M  V30 6420 C 612.728 4.46171 -0.651295 0
M  V30 6421 C 611.39 4.71227 -0.974619 0
M  V30 6422 C 613.742 5.00909 -1.44012 0
M  V30 6423 C 611.07 5.4827 -2.08847 0
M  V30 6424 C 613.422 5.7917 -2.5445 0
M  V30 6425 C 612.086 6.02507 -2.87301 0
M  V30 6426 H 611.356 0.73722 0.0747504 0
M  V30 6427 H 614.003 1.84411 -0.516234 0
M  V30 6428 H 612.308 3.68574 1.32892 0
M  V30 6429 H 614.005 3.88529 0.992283 0
M  V30 6430 H 610.595 4.26829 -0.389276 0
M  V30 6431 H 614.779 4.81485 -1.20357 0
M  V30 6432 H 610.035 5.64567 -2.34679 0
M  V30 6433 H 614.209 6.20588 -3.1598 0
M  V30 6434 H 611.836 6.61989 -3.7373 0
M  V30 6435 N 613.412 0.11024 1.57214 0
M  V30 6436 C 614.342 -0.840002 2.17867 0
M  V30 6437 C 615.323 -1.28352 1.11624 0
M  V30 6438 O 616.508 -1.3477 1.39824 0
M  V30 6439 C 613.638 -2.09349 2.77111 0
M  V30 6440 C 612.592 -1.78807 3.8886 0
M  V30 6441 C 611.918 -3.11112 4.34872 0
M  V30 6442 C 613.218 -1.0632 5.11364 0
M  V30 6443 H 614.912 -0.334608 2.97524 0
M  V30 6444 H 612.458 -0.159502 1.43114 0
M  V30 6445 H 614.411 -2.76275 3.18198 0
M  V30 6446 H 613.135 -2.62198 1.9473 0
M  V30 6447 H 611.794 -1.14273 3.48335 0
M  V30 6448 H 611.442 -3.61877 3.49362 0
M  V30 6449 H 611.142 -2.91453 5.10224 0
M  V30 6450 H 612.666 -3.79171 4.78604 0
M  V30 6451 H 614.08 -1.63383 5.49526 0
M  V30 6452 H 612.477 -0.967876 5.92243 0
M  V30 6453 H 613.547 -0.0484569 4.84876 0
M  V30 6454 N 614.89 -1.56749 -0.16351 0
M  V30 6455 C 615.822 -1.93587 -1.22705 0
M  V30 6456 C 616.835 -0.829824 -1.40063 0
M  V30 6457 O 618.024 -1.10826 -1.39928 0
M  V30 6458 C 615.124 -2.1803 -2.59454 0
M  V30 6459 C 614.297 -3.4928 -2.63292 0
M  V30 6460 C 613.356 -3.62457 -3.8146 0
M  V30 6461 O 612.382 -4.35004 -3.67096 0
M  V30 6462 N 613.584 -2.97888 -4.9824 0
M  V30 6463 H 616.349 -2.8542 -0.914081 0
M  V30 6464 H 613.91 -1.58 -0.353214 0
M  V30 6465 H 615.902 -2.24102 -3.36987 0
M  V30 6466 H 614.472 -1.32543 -2.8311 0
M  V30 6467 H 613.692 -3.54795 -1.71796 0
M  V30 6468 H 614.98 -4.35632 -2.62873 0
M  V30 6469 H 614.378 -2.38833 -5.12811 0
M  V30 6470 H 612.935 -3.09545 -5.73607 0
M  V30 6471 N 616.368 0.432326 -1.51554 0
M  V30 6472 C 617.315 1.52512 -1.7323 0
M  V30 6473 C 618.285 1.55863 -0.5741 0
M  V30 6474 O 619.47 1.72796 -0.809093 0
M  V30 6475 C 616.61 2.90183 -1.86783 0
M  V30 6476 C 615.723 2.96322 -3.14352 0
M  V30 6477 C 614.858 4.25147 -3.18471 0
M  V30 6478 C 613.897 4.25172 -4.40335 0
M  V30 6479 N 613.034 5.45529 -4.41975 0
M  V30 6480 H 617.874 1.33332 -2.66508 0
M  V30 6481 H 615.411 0.647613 -1.32077 0
M  V30 6482 H 617.369 3.70071 -1.92623 0
M  V30 6483 H 615.999 3.0791 -0.969087 0
M  V30 6484 H 615.051 2.09066 -3.17798 0
M  V30 6485 H 616.363 2.92203 -4.04251 0
M  V30 6486 H 615.517 5.13411 -3.23255 0
M  V30 6487 H 614.256 4.31929 -2.2647 0
M  V30 6488 H 613.261 3.353 -4.35723 0
M  V30 6489 H 614.486 4.20049 -5.33606 0
M  V30 6490 H 612.432 5.53024 -3.52847 0
M  V30 6491 H 612.349 5.43311 -5.25689 0
M  V30 6492 H 613.617 6.35812 -4.50958 0
M  V30 6493 N 617.846 1.41785 0.688094 0
M  V30 6494 C 619.257 1.3701 1.26828 0
M  V30 6495 C 619.608 0.056835 1.96118 0
M  V30 6496 O 618.733 -0.84475 1.99231 0
M  V30 6497 C 619.328 2.48168 2.30648 0
M  V30 6498 C 617.887 2.46766 2.84224 0
M  V30 6499 C 617.034 2.27633 1.58361 0
M  V30 6500 H 619.985 1.51192 0.482351 0
M  V30 6501 H 620.006 2.17655 3.121 0
M  V30 6502 H 619.518 3.43735 1.80188 0
M  V30 6503 H 617.619 1.54978 3.3884 0
M  V30 6504 H 617.732 3.43342 3.34145 0
M  V30 6505 H 616.096 1.75648 1.84445 0
M  V30 6506 H 616.879 3.25238 1.09887 0
M  V30 6507 N 619.324 -0.923095 1.27737 0
M  V30 6508 C 620.57 -1.67375 1.14514 0
M  V30 6509 C 620.903 -1.91751 -0.307424 0
M  V30 6510 O 620.178 -1.51119 -1.22447 0
M  V30 6511 C 620.461 -3.03745 1.9342 0
M  V30 6512 C 620.314 -2.86581 3.46686 0
M  V30 6513 C 621.633 -4.04144 1.74228 0
M  V30 6514 H 618.752 -0.607427 0.417374 0
M  V30 6515 H 621.394 -1.07089 1.56946 0
M  V30 6516 H 619.544 -3.55204 1.5736 0
M  V30 6517 H 621.216 -2.42203 3.92601 0
M  V30 6518 H 619.459 -2.21829 3.72793 0
M  V30 6519 H 620.13 -3.83381 3.97143 0
M  V30 6520 H 622.606 -3.61712 2.05678 0
M  V30 6521 H 621.482 -4.97543 2.31824 0
M  V30 6522 H 621.743 -4.36661 0.691373 0
M  V30 6523 N 620.802 -1.09834 -1.13024 0
M  V30 6524 C 622.213 -0.855651 -1.65938 0
M  V30 6525 C 622.564 0.615159 -1.86307 0
M  V30 6526 O 621.689 1.47335 -1.58497 0
M  V30 6527 C 622.284 -1.5467 -3.01434 0
M  V30 6528 C 620.843 -1.35088 -3.51323 0
M  V30 6529 C 619.99 -1.6001 -2.26478 0
M  V30 6530 H 622.941 -1.25691 -0.968889 0
M  V30 6531 H 622.962 -0.982179 -3.67605 0
M  V30 6532 H 622.474 -2.61715 -2.86578 0
M  V30 6533 H 620.575 -0.30179 -3.71376 0
M  V30 6534 H 620.688 -2.0886 -4.31178 0
M  V30 6535 H 619.052 -1.02246 -2.33276 0
M  V30 6536 H 619.835 -2.68293 -2.14182 0
M  V30 6537 N 622.28 1.30327 -0.886154 0
M  V30 6538 C 623.528 1.9571 -0.504195 0
M  V30 6539 C 623.849 1.70294 0.950003 0
M  V30 6540 O 623.119 1.02718 1.66811 0
M  V30 6541 H 621.699 0.72412 -0.183465 0
M  V30 6542 H 624.361 1.58835 -1.12949 0
M  V30 6543 H 623.457 3.04704 -0.675431 0
M  V30 6544 N 623.758 0.647228 1.43697 0
M  V30 6545 C 625.005 0.158188 2.01881 0
M  V30 6546 C 625.333 -1.22573 1.51017 0
M  V30 6547 O 624.588 -1.83086 0.69122 0
M  V30 6548 C 624.887 0.111481 3.57226 0
M  V30 6549 C 624.553 1.43633 4.27411 0
M  V30 6550 C 623.215 1.79915 4.463 0
M  V30 6551 C 625.567 2.31011 4.67208 0
M  V30 6552 C 622.895 3.03251 5.02251 0
M  V30 6553 C 625.247 3.53633 5.24525 0
M  V30 6554 C 623.911 3.90118 5.41631 0
M  V30 6555 H 623.181 0.0578851 0.738736 0
M  V30 6556 H 625.828 0.836746 1.72252 0
M  V30 6557 H 624.133 -0.650507 3.86362 0
M  V30 6558 H 625.83 -0.283682 3.99995 0
M  V30 6559 H 622.42 1.14403 4.1305 0
M  V30 6560 H 626.604 2.04272 4.52313 0
M  V30 6561 H 621.86 3.31575 5.13681 0
M  V30 6562 H 626.034 4.21561 5.5431 0
M  V30 6563 H 623.661 4.85768 5.84751 0
M  V30 6564 N 625.236 -1.5273 0.388769 0
M  V30 6565 C 626.146 -2.30165 -0.453993 0
M  V30 6566 C 627.162 -1.37058 -1.07197 0
M  V30 6567 O 628.338 -1.70127 -1.0779 0
M  V30 6568 C 625.403 -3.09303 -1.56628 0
M  V30 6569 C 624.464 -4.18117 -0.973467 0
M  V30 6570 C 623.697 -4.93472 -2.03275 0
M  V30 6571 O 623.92 -4.68913 -3.24772 0
M  V30 6572 O 622.854 -5.78833 -1.65034 0
M  V30 6573 H 626.68 -3.03185 0.176816 0
M  V30 6574 H 624.265 -1.4862 0.152501 0
M  V30 6575 H 626.147 -3.58648 -2.21246 0
M  V30 6576 H 624.822 -2.39098 -2.18206 0
M  V30 6577 H 623.729 -3.7297 -0.290556 0
M  V30 6578 H 625.062 -4.90556 -0.401908 0
M  V30 6579 N 626.714 -0.118576 -1.57153 0
M  V30 6580 C 627.624 0.845484 -2.18835 0
M  V30 6581 C 628.64 1.29299 -1.16438 0
M  V30 6582 O 629.816 1.35607 -1.48905 0
M  V30 6583 C 626.881 2.07795 -2.77529 0
M  V30 6584 C 625.942 1.6824 -3.9496 0
M  V30 6585 C 625.175 2.85612 -4.50845 0
M  V30 6586 O 625.398 4.01025 -4.05629 0
M  V30 6587 O 624.332 2.62721 -5.41536 0
M  V30 6588 H 628.158 0.350568 -3.0167 0
M  V30 6589 H 625.743 0.107013 -1.49016 0
M  V30 6590 H 627.625 2.79978 -3.14945 0
M  V30 6591 H 626.3 2.56294 -1.97725 0
M  V30 6592 H 625.207 0.931663 -3.62313 0
M  V30 6593 H 626.54 1.24484 -4.76198 0
M  V30 6594 N 628.193 1.56834 0.155195 0
M  V30 6595 C 629.123 2.00678 1.19376 0
M  V30 6596 C 630.104 0.884973 1.45266 0
M  V30 6597 O 631.289 1.1522 1.56326 0
M  V30 6598 C 628.419 2.38042 2.5289 0
M  V30 6599 C 627.373 3.53332 2.41538 0
M  V30 6600 C 626.699 3.76485 3.79688 0
M  V30 6601 C 627.999 4.86265 1.9064 0
M  V30 6602 H 629.693 2.87688 0.829232 0
M  V30 6603 H 627.239 1.38407 0.397445 0
M  V30 6604 H 629.192 2.67314 3.25763 0
M  V30 6605 H 627.916 1.4796 2.91162 0
M  V30 6606 H 626.575 3.24213 1.71117 0
M  V30 6607 H 626.223 2.83667 4.15382 0
M  V30 6608 H 625.923 4.54068 3.72956 0
M  V30 6609 H 627.447 4.08174 4.54122 0
M  V30 6610 H 628.861 5.14308 2.53299 0
M  V30 6611 H 627.258 5.67597 1.94818 0
M  V30 6612 H 628.328 4.77184 0.861596 0
M  V30 6613 N 629.671 -0.424282 1.51781 0
M  V30 6614 C 630.618 -1.51591 1.74037 0
M  V30 6615 C 631.588 -1.55556 0.582358 0
M  V30 6616 O 632.773 -1.72364 0.818245 0
M  V30 6617 C 629.913 -2.89188 1.8832 0
M  V30 6618 C 629.026 -2.9465 3.1592 0
M  V30 6619 C 628.161 -4.23452 3.20721 0
M  V30 6620 C 627.2 -4.22831 4.42584 0
M  V30 6621 N 626.337 -5.43178 4.44862 0
M  V30 6622 H 631.177 -1.31917 2.67212 0
M  V30 6623 H 628.714 -0.640599 1.32419 0
M  V30 6624 H 630.672 -3.69044 1.94583 0
M  V30 6625 H 629.302 -3.07392 0.985402 0
M  V30 6626 H 628.354 -2.07378 3.18902 0
M  V30 6627 H 629.666 -2.90055 4.05795 0
M  V30 6628 H 628.82 -5.1169 3.25973 0
M  V30 6629 H 627.559 -4.30722 2.28757 0
M  V30 6630 H 626.564 -3.32984 4.37495 0
M  V30 6631 H 627.789 -4.17213 5.35826 0
M  V30 6632 H 625.735 -5.51145 3.55775 0
M  V30 6633 H 625.652 -5.40515 5.28563 0
M  V30 6634 H 626.92 -6.33412 4.54324 0
M  V30 6635 N 631.149 -1.42148 -0.680565 0
M  V30 6636 C 632.426 -1.32795 -1.43614 0
M  V30 6637 C 632.806 0.037415 -2.11067 0
M  V30 6638 O 632.154 1.05258 -2.02813 0
M  V30 6639 C 632.364 -2.49206 -2.44331 0
M  V30 6640 C 633.712 -2.91059 -3.09144 0
M  V30 6641 O 634.736 -2.49054 -2.54657 0
M  V30 6642 O 633.595 -3.63741 -4.07866 0
M  V30 6643 H 630.689 -0.523397 -0.640301 0
M  V30 6644 H 633.235 -1.54144 -0.709775 0
M  V30 6645 H 632.007 -3.40252 -1.93247 0
M  V30 6646 H 631.63 -2.29813 -3.24456 0
M  V30 6647 N 632.627 0.916307 -1.28225 0
M  V30 6648 C 633.537 2.05165 -1.13775 0
M  V30 6649 C 634.553 1.73879 -0.0649418 0
M  V30 6650 O 635.729 1.99531 -0.273722 0
M  V30 6651 C 632.794 3.37385 -0.798267 0
M  V30 6652 C 631.855 3.82296 -1.95316 0
M  V30 6653 C 631.088 5.08206 -1.62978 0
M  V30 6654 O 631.311 5.6781 -0.542948 0
M  V30 6655 O 630.245 5.48768 -2.47261 0
M  V30 6656 H 634.071 2.20273 -2.09078 0
M  V30 6657 H 631.656 1.0373 -1.07519 0
M  V30 6658 H 633.538 4.16773 -0.62278 0
M  V30 6659 H 632.213 3.23458 0.125139 0
M  V30 6660 H 631.12 3.03746 -2.18378 0
M  V30 6661 H 632.453 4.00782 -2.85718 0
M  V30 6662 N 634.105 1.10431 1.1244 0
M  V30 6663 C 635.333 0.868872 1.87772 0
M  V30 6664 C 635.748 -0.580645 1.7965 0
M  V30 6665 O 635.105 -1.40031 1.17036 0
M  V30 6666 C 635.156 1.30855 3.36986 0
M  V30 6667 O 634.877 2.70123 3.44914 0
M  V30 6668 C 636.378 1.107 4.29256 0
M  V30 6669 H 633.598 0.311868 0.59412 0
M  V30 6670 H 636.142 1.46897 1.42273 0
M  V30 6671 H 634.297 0.752126 3.80029 0
M  V30 6672 H 634.711 2.88923 4.37748 0
M  V30 6673 H 636.185 1.46378 5.32238 0
M  V30 6674 H 636.662 0.0456228 4.39176 0
M  V30 6675 H 637.268 1.64988 3.91994 0
M  V30 6676 N 635.583 -1.29855 0.893053 0
M  V30 6677 C 636.808 -2.00512 0.530066 0
M  V30 6678 C 637.233 -1.66446 -0.876199 0
M  V30 6679 O 636.591 -0.885446 -1.58207 0
M  V30 6680 C 636.639 -3.53308 0.721505 0
M  V30 6681 O 635.743 -4.11764 -0.228994 0
M  V30 6682 H 635.084 -0.630617 0.207891 0
M  V30 6683 H 637.614 -1.6551 1.20282 0
M  V30 6684 H 637.624 -4.03206 0.623599 0
M  V30 6685 H 636.299 -3.77439 1.74678 0
M  V30 6686 H 634.876 -3.72805 -0.0841034 0
M  V30 6687 N 637.061 -0.65484 -1.43351 0
M  V30 6688 C 638.024 0.0263562 -2.29185 0
M  V30 6689 C 639.024 0.748951 -1.42293 0
M  V30 6690 O 640.214 0.589957 -1.63906 0
M  V30 6691 C 637.346 1.04806 -3.2439 0
M  V30 6692 H 638.539 -0.728883 -2.90908 0
M  V30 6693 H 636.092 -0.416149 -1.50658 0
M  V30 6694 H 636.827 1.83247 -2.67565 0
M  V30 6695 H 636.612 0.533554 -3.88453 0
M  V30 6696 H 638.102 1.52372 -3.88809 0
M  V30 6697 N 638.539 1.52521 -0.396863 0
M  V30 6698 C 639.449 2.30403 0.44178 0
M  V30 6699 C 640.465 1.37625 1.06468 0
M  V30 6700 O 641.641 1.70697 1.06886 0
M  V30 6701 C 638.706 3.1013 1.54986 0
M  V30 6702 C 637.767 4.18628 0.951279 0
M  V30 6703 C 637 4.94543 2.00655 0
M  V30 6704 O 637.223 4.70629 3.22281 0
M  V30 6705 O 636.157 5.797 1.61962 0
M  V30 6706 H 639.983 3.03087 -0.192892 0
M  V30 6707 H 637.568 1.48537 -0.16038 0
M  V30 6708 H 639.45 3.59816 2.19341 0
M  V30 6709 H 638.125 2.40251 2.16935 0
M  V30 6710 H 637.032 3.73119 0.270773 0
M  V30 6711 H 638.365 4.90763 0.375887 0
M  V30 6712 N 640.017 0.126909 1.57088 0
M  V30 6713 C 641.428 -0.397201 1.82426 0
M  V30 6714 C 641.779 -1.66084 1.04453 0
M  V30 6715 O 640.904 -2.14534 0.283552 0
M  V30 6716 C 641.499 -0.727411 3.30899 0
M  V30 6717 C 640.058 -1.19612 3.56889 0
M  V30 6718 C 639.205 -0.20885 2.76512 0
M  V30 6719 H 642.156 0.351924 1.54749 0
M  V30 6720 H 642.177 -1.58407 3.45959 0
M  V30 6721 H 641.689 0.19247 3.87622 0
M  V30 6722 H 639.79 -2.13263 3.05532 0
M  V30 6723 H 639.903 -1.13598 4.65438 0
M  V30 6724 H 638.267 -0.697479 2.44964 0
M  V30 6725 H 639.05 0.704267 3.35998 0
M  V30 6726 N 641.495 -1.56914 -0.146875 0
M  V30 6727 C 642.458 -1.97368 -1.16526 0
M  V30 6728 C 643.458 -0.860223 -1.35856 0
M  V30 6729 O 644.648 -1.12684 -1.32846 0
M  V30 6730 C 641.78 -2.28974 -2.52555 0
M  V30 6731 H 642.973 -2.88523 -0.818209 0
M  V30 6732 H 640.526 -1.5135 -0.390221 0
M  V30 6733 H 641.261 -1.40611 -2.92231 0
M  V30 6734 H 641.046 -3.10157 -2.39886 0
M  V30 6735 H 642.536 -2.61109 -3.25902 0
M  V30 6736 N 642.974 0.416227 -1.52004 0
M  V30 6737 C 644.202 1.18573 -1.69553 0
M  V30 6738 C 644.617 1.84472 -0.401919 0
M  V30 6739 O 643.974 1.71593 0.621463 0
M  V30 6740 C 644.025 2.25413 -2.82615 0
M  V30 6741 O 643.746 1.62205 -4.06966 0
M  V30 6742 C 645.247 3.15297 -3.11613 0
M  V30 6743 H 642.467 0.356582 -0.56841 0
M  V30 6744 H 645.011 0.490618 -1.98528 0
M  V30 6745 H 643.166 2.90604 -2.56179 0
M  V30 6746 H 643.58 2.3298 -4.69916 0
M  V30 6747 H 645.054 3.86351 -3.94255 0
M  V30 6748 H 645.531 3.77264 -2.24874 0
M  V30 6749 H 646.137 2.55783 -3.39787 0
M  V30 6750 N 644.452 1.42507 0.673017 0
M  V30 6751 C 645.729 1.33554 1.42908 0
M  V30 6752 C 646.109 -0.0262211 2.11084 0
M  V30 6753 O 645.457 -1.04181 2.03368 0
M  V30 6754 C 645.667 2.50498 2.43006 0
M  V30 6755 C 647.015 2.92694 3.07596 0
M  V30 6756 O 648.039 2.50401 2.53333 0
M  V30 6757 O 646.898 3.65899 4.05931 0
M  V30 6758 H 643.992 0.526785 0.637516 0
M  V30 6759 H 646.538 1.54518 0.701591 0
M  V30 6760 H 645.31 3.41272 1.9144 0
M  V30 6761 H 644.933 2.3153 3.23233 0
M  V30 6762 O 645.969 -0.81563 1.39391 0
M  V30 6763 H 646.66 -1.4596 1.2734 0
M  V30 END ATOM
M  V30 BEGIN BOND
M  V30 END BOND
M  V30 END CTAB
M  END
$$$$
