drugbank_target|P35914 Hydroxymethylglutaryl-CoA lyase, mitochondrial (DB04594)
 OpenBabel12092120303D

  0  0  0     0  0            999 V3000
M  V30 BEGIN CTAB
M  V30 COUNTS 4891 4927 0 0 0
M  V30 BEGIN ATOM
M  V30 1 H -0.908 1.98254 -0.117106 0
M  V30 2 N 0 1.576 0 0
M  V30 3 C 0.933 2.03868 1.02534 0
M  V30 4 C 1.911 0.928543 1.3348 0
M  V30 5 O 3.095 1.19667 1.45644 0
M  V30 6 C 0.222 2.43627 2.35294 0
M  V30 7 C -0.732 3.65373 2.2001 0
M  V30 8 S 0.101 5.13292 1.52614 0
M  V30 9 C 1.257 5.56322 2.86805 0
M  V30 10 H 1.49 2.90518 0.631377 0
M  V30 11 H -0.977 1.52953 0.210867 0
M  V30 12 H 0.981 2.67203 3.11629 0
M  V30 13 H -0.358 1.57376 2.7183 0
M  V30 14 H -1.165 3.90944 3.18086 0
M  V30 15 H -1.563 3.418 1.51819 0
M  V30 16 H 0.729 5.58782 3.83104 0
M  V30 17 H 1.672 6.56266 2.65933 0
M  V30 18 H 2.08 4.83886 2.90714 0
M  V30 19 N 1.4781 -0.272755 1.55222 0
M  V30 20 C 2.4411 -1.32041 1.87344 0
M  V30 21 C 3.4411 -1.42342 0.74803 0
M  V30 22 O 4.6311 -1.41488 1.0162 0
M  V30 23 C 1.7631 -2.70173 2.07893 0
M  V30 24 H 2.9561 -1.04789 2.80997 0
M  V30 25 H 0.5091 -0.51083 1.47717 0
M  V30 26 H 1.2441 -3.02605 1.16622 0
M  V30 27 H 1.0291 -2.64082 2.89833 0
M  V30 28 H 2.5191 -3.45869 2.34017 0
M  V30 29 N 2.9562 -1.48159 -0.537278 0
M  V30 30 C 3.9192 -1.61665 -1.62472 0
M  V30 31 C 4.9192 -0.490395 -1.5314 0
M  V30 32 O 6.1092 -0.755998 -1.5694 0
M  V30 33 C 3.2412 -1.57997 -3.02076 0
M  V30 34 H 4.4342 -2.58621 -1.51839 0
M  V30 35 H 1.9872 -1.36647 -0.758771 0
M  V30 36 H 2.7222 -0.624913 -3.18222 0
M  V30 37 H 2.5072 -2.39755 -3.10258 0
M  V30 38 H 3.9972 -1.70627 -3.81151 0
M  V30 39 N 4.4343 0.785586 -1.36625 0
M  V30 40 C 5.3673 1.90509 -1.25625 0
M  V30 41 C 6.3453 1.62 -0.139607 0
M  V30 42 O 7.5293 1.8591 -0.31141 0
M  V30 43 C 4.6563 3.25419 -0.939158 0
M  V30 44 C 3.7023 3.72856 -2.07077 0
M  V30 45 S 4.5353 3.88162 -3.68904 0
M  V30 46 C 5.6913 5.25942 -3.39317 0
M  V30 47 H 5.9243 1.99549 -2.20381 0
M  V30 48 H 3.4573 0.945226 -1.22085 0
M  V30 49 H 5.4153 4.03346 -0.763029 0
M  V30 50 H 4.0763 3.14099 -0.00931402 0
M  V30 51 H 3.2693 4.70624 -1.80357 0
M  V30 52 H 2.8713 3.01989 -2.20632 0
M  V30 53 H 5.1633 6.10651 -2.93447 0
M  V30 54 H 6.1063 5.57668 -4.36363 0
M  V30 55 H 6.5143 4.93224 -2.74573 0
M  V30 56 N 5.9124 1.20967 1.01018 0
M  V30 57 C 7.3284 0.965905 1.27053 0
M  V30 58 C 7.5284 -0.350785 1.98423 0
M  V30 59 O 6.5844 -1.07773 2.28344 0
M  V30 60 C 7.8974 2.15294 2.09926 0
M  V30 61 C 9.4454 2.19463 2.23171 0
M  V30 62 C 9.9204 3.3767 3.09424 0
M  V30 63 N 11.4114 3.37724 3.17012 0
M  V30 64 C 12.1464 4.25837 3.83993 0
M  V30 65 N 11.6424 5.24138 4.53047 0
M  V30 66 N 13.4354 4.1366 3.80581 0
M  V30 67 H 5.5864 2.0565 0.531194 0
M  V30 68 H 7.8494 0.90024 0.297106 0
M  V30 69 H 7.5554 3.10684 1.64828 0
M  V30 70 H 7.4294 2.13923 3.10672 0
M  V30 71 H 9.8164 1.24632 2.6749 0
M  V30 72 H 9.8974 2.2488 1.21912 0
M  V30 73 H 9.5414 4.32791 2.65808 0
M  V30 74 H 9.4714 3.29491 4.10784 0
M  V30 75 H 11.9624 2.6658 2.6785 0
M  V30 76 H 12.2754 5.87684 5.01844 0
M  V30 77 H 10.6204 5.28068 4.5185 0
M  V30 78 H 13.8114 3.36127 3.25785 0
M  V30 79 H 13.9844 4.82538 4.32505 0
M  V30 80 N 7.3905 -1.2043 1.01659 0
M  V30 81 C 8.3375 -2.23215 0.586822 0
M  V30 82 C 9.3075 -1.61382 -0.393085 0
M  V30 83 O 10.4925 -1.88544 -0.292525 0
M  V30 84 C 7.6325 -3.45032 -0.0687464 0
M  V30 85 C 6.7455 -4.21296 0.955724 0
M  V30 86 C 5.8805 -5.30507 0.271208 0
M  V30 87 C 4.9195 -5.98515 1.28244 0
M  V30 88 N 4.0565 -6.99316 0.62459 0
M  V30 89 H 8.8965 -2.59336 1.46796 0
M  V30 90 H 6.4335 -1.27431 0.734836 0
M  V30 91 H 8.3915 -4.1459 -0.465965 0
M  V30 92 H 7.0215 -3.09604 -0.913529 0
M  V30 93 H 6.0735 -3.50803 1.4711 0
M  V30 94 H 7.3855 -4.6803 1.72479 0
M  V30 95 H 6.5395 -6.06428 -0.18151 0
M  V30 96 H 5.2785 -4.8481 -0.530163 0
M  V30 97 H 4.2835 -5.21355 1.74554 0
M  V30 98 H 5.5085 -6.46298 2.08509 0
M  V30 99 H 3.4545 -6.55812 -0.156914 0
M  V30 100 H 3.3715 -7.44178 1.33172 0
M  V30 101 H 4.6395 -7.79255 0.195462 0
M  V30 102 N 8.8686 -0.792821 -1.36206 0
M  V30 103 C 9.8316 -0.199459 -2.2833 0
M  V30 104 C 10.8316 0.605189 -1.48977 0
M  V30 105 O 12.0216 0.425685 -1.68919 0
M  V30 106 C 9.1536 0.723523 -3.33134 0
M  V30 107 H 10.3466 -1.01181 -2.82316 0
M  V30 108 H 7.8996 -0.562485 -1.45828 0
M  V30 109 H 8.6346 1.56008 -2.84309 0
M  V30 110 H 8.4196 0.148436 -3.91819 0
M  V30 111 H 9.9096 1.13344 -4.01924 0
M  V30 112 N 10.3467 1.47872 -0.545128 0
M  V30 113 C 11.2767 2.32661 0.197793 0
M  V30 114 C 12.2577 1.43041 0.920504 0
M  V30 115 O 13.4427 1.71912 0.90333 0
M  V30 116 C 10.5727 3.24569 1.23582 0
M  V30 117 C 9.5267 4.23333 0.630323 0
M  V30 118 C 8.8527 5.0448 1.77211 0
M  V30 119 C 10.1527 5.20704 -0.407974 0
M  V30 120 H 11.8467 2.95024 -0.510045 0
M  V30 121 H 9.3927 1.4187 -0.246731 0
M  V30 122 H 11.3457 3.8272 1.76362 0
M  V30 123 H 10.0697 2.60236 1.97344 0
M  V30 124 H 8.7287 3.6639 0.123922 0
M  V30 125 H 8.3767 4.36561 2.49847 0
M  V30 126 H 8.0767 5.71339 1.37281 0
M  V30 127 H 9.6007 5.65487 2.3034 0
M  V30 128 H 11.0147 5.7329 0.033305 0
M  V30 129 H 9.4117 5.95699 -0.725486 0
M  V30 130 H 10.4817 4.66917 -1.30828 0
M  V30 131 N 11.8248 0.280983 1.55075 0
M  V30 132 C 13.2358 -0.215629 1.85451 0
M  V30 133 C 13.5868 -1.54991 1.203 0
M  V30 134 O 12.7118 -2.10699 0.493435 0
M  V30 135 C 13.3068 -0.398026 3.36454 0
M  V30 136 C 11.8658 -0.838866 3.66933 0
M  V30 137 C 11.0128 0.064458 2.77225 0
M  V30 138 H 13.9638 0.502601 1.50531 0
M  V30 139 H 13.9848 -1.23569 3.59876 0
M  V30 140 H 13.4968 0.573241 3.83843 0
M  V30 141 H 11.5978 -1.8214 3.25048 0
M  V30 142 H 11.7108 -0.672123 4.74362 0
M  V30 143 H 10.0748 -0.452863 2.50642 0
M  V30 144 H 10.8578 1.03172 3.2743 0
M  V30 145 N 13.3029 -1.57598 0.00835791 0
M  V30 146 C 14.7189 -1.55764 -0.347822 0
M  V30 147 C 14.9189 -1.01186 -1.74252 0
M  V30 148 O 13.9749 -0.649371 -2.44007 0
M  V30 149 C 15.2879 -2.99927 -0.215407 0
M  V30 150 C 16.8359 -3.11656 -0.289725 0
M  V30 151 C 17.3109 -4.57621 -0.18634 0
M  V30 152 N 18.8019 -4.62557 -0.243978 0
M  V30 153 C 19.5369 -5.73094 -0.18745 0
M  V30 154 N 19.0329 -6.92753 -0.0810331 0
M  V30 155 N 20.8259 -5.61588 -0.239925 0
M  V30 156 H 12.9769 -1.91411 0.92062 0
M  V30 157 H 15.2399 -0.879562 0.353659 0
M  V30 158 H 14.9459 -3.43729 0.744512 0
M  V30 159 H 14.8199 -3.63865 -0.994097 0
M  V30 160 H 17.2069 -2.67779 -1.24009 0
M  V30 161 H 17.2879 -2.5048 0.51898 0
M  V30 162 H 16.9319 -5.02174 0.760519 0
M  V30 163 H 16.8619 -5.16752 -1.01364 0
M  V30 164 H 19.3529 -3.76481 -0.327217 0
M  V30 165 H 19.6659 -7.72787 -0.0440241 0
M  V30 166 H 18.0109 -6.94984 -0.0465419 0
M  V30 167 H 21.2019 -4.66996 -0.321317 0
M  V30 168 H 21.3749 -6.47714 -0.192407 0
M  V30 169 N 14.781 0.264519 -1.55364 0
M  V30 170 C 16.197 0.61215 -1.47394 0
M  V30 171 C 16.397 1.89134 -0.695018 0
M  V30 172 O 15.453 2.51563 -0.217275 0
M  V30 173 C 16.766 0.731235 -2.91674 0
M  V30 174 C 18.314 0.82473 -3.01939 0
M  V30 175 C 18.789 0.975522 -4.4749 0
M  V30 176 N 20.28 1.04083 -4.51354 0
M  V30 177 C 21.015 1.17646 -5.61201 0
M  V30 178 N 20.511 1.27874 -6.80896 0
M  V30 179 N 22.304 1.20823 -5.48961 0
M  V30 180 H 14.455 -0.575456 -2.04456 0
M  V30 181 H 16.718 -0.196099 -0.927496 0
M  V30 182 H 16.424 -0.138392 -3.51428 0
M  V30 183 H 16.298 1.60883 -3.41169 0
M  V30 184 H 18.685 1.68482 -2.42276 0
M  V30 185 H 18.766 -0.0776479 -2.55682 0
M  V30 186 H 18.41 0.120058 -5.07758 0
M  V30 187 H 18.34 1.89268 -4.91412 0
M  V30 188 H 20.831 0.973846 -3.65136 0
M  V30 189 H 21.144 1.38081 -7.60364 0
M  V30 190 H 19.489 1.24863 -6.83692 0
M  V30 191 H 22.68 1.12469 -4.54388 0
M  V30 192 H 22.853 1.31049 -6.3461 0
M  V30 193 N 16.2591 1.48442 0.529413 0
M  V30 194 C 17.1891 1.65902 1.64313 0
M  V30 195 C 18.1701 0.507897 1.6234 0
M  V30 196 O 19.3551 0.740503 1.79528 0
M  V30 197 C 16.4851 1.69911 3.02898 0
M  V30 198 C 15.4391 2.8453 3.19729 0
M  V30 199 C 14.7651 2.73629 4.59381 0
M  V30 200 C 16.0651 4.25821 3.02447 0
M  V30 201 H 17.7591 2.5914 1.49955 0
M  V30 202 H 15.3051 1.24709 0.719982 0
M  V30 203 H 17.2581 1.80715 3.80684 0
M  V30 204 H 15.9821 0.732524 3.18279 0
M  V30 205 H 14.6411 2.73283 2.44361 0
M  V30 206 H 14.2891 1.74938 4.71599 0
M  V30 207 H 13.9891 3.50541 4.71588 0
M  V30 208 H 15.5131 2.86401 5.39265 0
M  V30 209 H 16.9271 4.37898 3.70024 0
M  V30 210 H 15.3241 5.03735 3.26146 0
M  V30 211 H 16.3941 4.42244 1.98867 0
M  V30 212 N 17.7372 -0.778329 1.37039 0
M  V30 213 C 18.9832 -1.53892 1.32079 0
M  V30 214 C 19.3162 -1.9396 -0.0965386 0
M  V30 215 O 18.5912 -1.63568 -1.05242 0
M  V30 216 C 18.8742 -2.80847 2.25382 0
M  V30 217 C 18.7272 -2.47076 3.75864 0
M  V30 218 C 20.0462 -3.82741 2.1725 0
M  V30 219 H 17.1652 -0.558303 0.48111 0
M  V30 220 H 19.8072 -0.893397 1.67685 0
M  V30 221 H 17.9572 -3.35931 1.95148 0
M  V30 222 H 19.6292 -1.97957 4.16666 0
M  V30 223 H 17.8722 -1.79863 3.94755 0
M  V30 224 H 18.5432 -3.37798 4.36574 0
M  V30 225 H 21.0192 -3.37133 2.43887 0
M  V30 226 H 19.8952 -4.69303 2.84686 0
M  V30 227 H 20.1562 -4.2652 1.16331 0
M  V30 228 N 19.2153 -1.21501 -1.00376 0
M  V30 229 C 20.4633 -1.03095 -1.73827 0
M  V30 230 C 20.7843 0.436341 -1.90055 0
M  V30 231 O 20.0543 1.31466 -1.45236 0
M  V30 232 H 18.6343 -0.378487 -0.644016 0
M  V30 233 H 21.2963 -1.52831 -1.20949 0
M  V30 234 H 20.3923 -1.49991 -2.73695 0
M  V30 235 N 20.6934 1.19889 -1.02296 0
M  V30 236 C 21.6234 2.25141 -0.619174 0
M  V30 237 C 22.6044 1.66051 0.368915 0
M  V30 238 O 23.7894 1.92546 0.252941 0
M  V30 239 C 20.9194 3.4728 0.0368783 0
M  V30 240 C 19.8734 4.19005 -0.872865 0
M  V30 241 C 19.1994 5.34637 -0.0822402 0
M  V30 242 C 20.4994 4.74452 -2.18387 0
M  V30 243 H 22.1934 2.59171 -1.49903 0
M  V30 244 H 19.7394 1.24579 -0.722222 0
M  V30 245 H 21.6924 4.20098 0.330958 0
M  V30 246 H 20.4164 3.12433 0.95149 0
M  V30 247 H 19.0754 3.48061 -1.15105 0
M  V30 248 H 18.7234 4.96034 0.83422 0
M  V30 249 H 18.4234 5.83557 -0.688149 0
M  V30 250 H 19.9474 6.10255 0.205238 0
M  V30 251 H 21.3614 5.39055 -1.95172 0
M  V30 252 H 19.7584 5.33834 -2.74119 0
M  V30 253 H 20.8284 3.92844 -2.84257 0
M  V30 254 N 22.1715 0.800033 1.35784 0
M  V30 255 C 23.1345 0.211565 2.28221 0
M  V30 256 C 24.1345 -0.59728 1.49296 0
M  V30 257 O 25.3245 -0.416721 1.69142 0
M  V30 258 C 22.4565 -0.705846 3.33513 0
M  V30 259 H 23.6495 1.02677 2.81776 0
M  V30 260 H 21.2025 0.570211 1.45528 0
M  V30 261 H 21.9375 -1.54498 2.85133 0
M  V30 262 H 21.7225 -0.127655 3.91892 0
M  V30 263 H 23.2125 -1.11211 4.02519 0
M  V30 264 N 23.6496 -1.47581 0.552962 0
M  V30 265 C 24.8746 -2.07378 0.0300593 0
M  V30 266 C 25.2996 -1.40355 -1.25229 0
M  V30 267 O 24.6576 -0.477099 -1.7491 0
M  V30 268 C 24.7056 -3.60274 -0.153231 0
M  V30 269 O 23.8096 -3.94041 -1.21678 0
M  V30 270 H 23.1506 -0.662158 0.0494182 0
M  V30 271 H 25.6806 -1.89662 0.767434 0
M  V30 272 H 25.6906 -4.0633 -0.368761 0
M  V30 273 H 24.3656 -4.08455 0.783397 0
M  V30 274 H 22.9426 -3.59735 -0.982079 0
M  V30 275 N 25.1277 -0.289203 -1.54924 0
M  V30 276 C 26.0577 0.58549 -2.2604 0
M  V30 277 C 27.0387 1.14753 -1.25562 0
M  V30 278 O 28.2237 1.17906 -1.54311 0
M  V30 279 C 25.3537 1.76305 -2.99222 0
M  V30 280 C 24.3077 1.33191 -4.06748 0
M  V30 281 C 23.6337 2.5937 -4.6758 0
M  V30 282 C 24.9337 0.471775 -5.20165 0
M  V30 283 H 26.6277 -0.00763532 -2.99399 0
M  V30 284 H 24.1737 -0.00511229 -1.43999 0
M  V30 285 H 26.1267 2.38097 -3.47689 0
M  V30 286 H 24.8507 2.38223 -2.23422 0
M  V30 287 H 23.5097 0.737121 -3.59113 0
M  V30 288 H 23.1577 3.19576 -3.88433 0
M  V30 289 H 22.8577 2.31228 -5.40192 0
M  V30 290 H 24.3817 3.21985 -5.18804 0
M  V30 291 H 25.7957 0.995056 -5.64599 0
M  V30 292 H 24.1927 0.284639 -5.99425 0
M  V30 293 H 25.2627 -0.506041 -4.82252 0
M  V30 294 N 26.6058 1.57591 -0.0167156 0
M  V30 295 C 28.0218 1.55946 0.339557 0
M  V30 296 C 28.2218 1.02109 1.73713 0
M  V30 297 O 27.2778 0.662303 2.43659 0
M  V30 298 C 28.5908 3.00037 0.199499 0
M  V30 299 C 30.1388 3.11805 0.273193 0
M  V30 300 C 30.6138 4.57713 0.162068 0
M  V30 301 N 32.1048 4.6268 0.219444 0
M  V30 302 C 32.8398 5.73185 0.157054 0
M  V30 303 N 32.3358 6.92786 0.0442936 0
M  V30 304 N 34.1288 5.61707 0.21014 0
M  V30 305 H 26.2798 1.90921 -0.930758 0
M  V30 306 H 28.5428 0.877674 -0.358319 0
M  V30 307 H 28.2488 3.4333 -0.76273 0
M  V30 308 H 28.1228 3.64387 0.974786 0
M  V30 309 H 30.5098 2.68433 1.22587 0
M  V30 310 H 30.5908 2.50201 -0.532256 0
M  V30 311 H 30.2348 5.01763 -0.78714 0
M  V30 312 H 30.1648 5.17283 0.986222 0
M  V30 313 H 32.6558 3.76649 0.307246 0
M  V30 314 H 32.9688 7.728 0.00304069 0
M  V30 315 H 31.3138 6.94999 0.00968457 0
M  V30 316 H 34.5048 4.6716 0.296546 0
M  V30 317 H 34.6778 6.47807 0.158054 0
M  V30 318 N 28.0839 -0.256276 1.55502 0
M  V30 319 C 29.0469 -1.30047 1.88734 0
M  V30 320 C 30.0469 -1.4154 0.763086 0
M  V30 321 O 31.2369 -1.40403 1.03115 0
M  V30 322 C 28.3689 -2.67953 2.10747 0
M  V30 323 H 29.5619 -1.01802 2.82093 0
M  V30 324 H 27.1149 -0.495134 1.4825 0
M  V30 325 H 27.8499 -3.01351 1.19825 0
M  V30 326 H 27.6349 -2.60993 2.92617 0
M  V30 327 H 29.1249 -3.43368 2.37673 0
M  V30 328 N 29.562 -1.4872 -0.521534 0
M  V30 329 C 30.808 -1.574 -1.27879 0
M  V30 330 C 31.141 -0.250817 -1.92573 0
M  V30 331 O 30.416 0.743934 -1.79711 0
M  V30 332 C 30.699 -2.71843 -2.36164 0
M  V30 333 C 30.552 -4.13893 -1.76105 0
M  V30 334 C 31.871 -2.82008 -3.37875 0
M  V30 335 H 28.99 -0.572941 -0.463581 0
M  V30 336 H 31.632 -1.80927 -0.580119 0
M  V30 337 H 29.782 -2.51914 -2.95756 0
M  V30 338 H 31.454 -4.45284 -1.20499 0
M  V30 339 H 29.697 -4.20498 -1.06601 0
M  V30 340 H 30.368 -4.89804 -2.5455 0
M  V30 341 H 32.844 -3.00086 -2.88249 0
M  V30 342 H 31.72 -3.63796 -4.11028 0
M  V30 343 H 31.981 -1.90511 -3.98946 0
M  V30 344 N 31.0401 0.771051 -1.3745 0
M  V30 345 C 32.2651 1.56529 -1.36065 0
M  V30 346 C 32.6901 1.88029 0.0515859 0
M  V30 347 O 32.0481 1.49282 1.02882 0
M  V30 348 C 32.0961 2.85187 -2.20683 0
M  V30 349 O 31.2001 3.79593 -1.61193 0
M  V30 350 H 30.5411 0.47411 -0.464883 0
M  V30 351 H 33.0711 0.954269 -1.80983 0
M  V30 352 H 33.0811 3.34283 -2.33921 0
M  V30 353 H 31.7561 2.61588 -3.23334 0
M  V30 354 H 30.3331 3.38239 -1.56999 0
M  V30 355 N 32.5182 1.22032 0.997298 0
M  V30 356 C 33.7462 1.06841 1.7718 0
M  V30 357 C 34.1612 -0.381325 1.84909 0
M  V30 358 O 33.5182 -1.26437 1.31605 0
M  V30 359 C 33.5692 1.66814 3.20711 0
M  V30 360 O 33.2902 3.06116 3.13408 0
M  V30 361 C 34.7912 1.56838 4.14628 0
M  V30 362 H 32.0112 0.374782 0.556578 0
M  V30 363 H 34.5552 1.61532 1.2541 0
M  V30 364 H 32.7102 1.16196 3.69564 0
M  V30 365 H 33.1242 3.34926 4.0364 0
M  V30 366 H 34.5982 2.03532 5.13107 0
M  V30 367 H 35.0752 0.524155 4.36061 0
M  V30 368 H 35.6812 2.06741 3.7167 0
M  V30 369 N 33.9963 -1.19345 1.0293 0
M  V30 370 C 35.2213 -1.93538 0.745511 0
M  V30 371 C 35.6463 -1.75007 -0.689511 0
M  V30 372 O 35.0043 -1.05265 -1.47611 0
M  V30 373 C 35.0523 -3.43336 1.10239 0
M  V30 374 O 34.1563 -4.11806 0.221289 0
M  V30 375 H 33.4973 -0.604193 0.275404 0
M  V30 376 H 36.0273 -1.5141 1.37609 0
M  V30 377 H 36.0373 -3.94004 1.05947 0
M  V30 378 H 34.7123 -3.56146 2.14786 0
M  V30 379 H 33.2893 -3.715 0.322842 0
M  V30 380 N 35.4744 -0.807222 -1.35358 0
M  V30 381 C 36.6994 -0.399309 -2.0352 0
M  V30 382 C 37.1244 0.981986 -1.60433 0
M  V30 383 O 36.4824 1.63601 -0.781299 0
M  V30 384 C 36.5304 -0.491552 -3.57234 0
M  V30 385 O 35.6344 0.494754 -4.09421 0
M  V30 386 H 34.9754 -0.166682 -0.642739 0
M  V30 387 H 37.5054 -1.09328 -1.72941 0
M  V30 388 H 37.5154 -0.361588 -4.06395 0
M  V30 389 H 36.1904 -1.49907 -3.87944 0
M  V30 390 H 34.7674 0.324977 -3.71481 0
M  V30 391 N 36.9525 1.47285 -0.560781 0
M  V30 392 C 37.8855 2.27009 0.232821 0
M  V30 393 C 38.8635 1.34273 0.917039 0
M  V30 394 O 40.0475 1.63659 0.935315 0
M  V30 395 C 37.1745 3.11406 1.33206 0
M  V30 396 C 36.2205 4.19746 0.756019 0
M  V30 397 S 37.0535 5.34003 -0.400165 0
M  V30 398 C 38.2095 6.21964 0.700805 0
M  V30 399 H 38.4425 2.93971 -0.443683 0
M  V30 400 H 35.9755 1.50446 -0.347181 0
M  V30 401 H 37.9335 3.60601 1.96156 0
M  V30 402 H 36.5945 2.438 1.98041 0
M  V30 403 H 35.7875 4.78541 1.5816 0
M  V30 404 H 35.3895 3.73451 0.202619 0
M  V30 405 H 37.6815 6.58529 1.59202 0
M  V30 406 H 38.6245 7.07941 0.150126 0
M  V30 407 H 39.0325 5.5566 0.995083 0
M  V30 408 N 38.4306 0.297415 1.54768 0
M  V30 409 C 39.6786 -0.312295 1.99673 0
M  V30 410 C 39.9996 -1.54686 1.18732 0
M  V30 411 O 39.2696 -1.93854 0.282382 0
M  V30 412 H 37.8496 -0.118381 0.73756 0
M  V30 413 H 40.5116 0.407915 1.90583 0
M  V30 414 H 39.6076 -0.586813 3.06534 0
M  V30 415 N 39.9087 -1.5758 0.0250728 0
M  V30 416 C 41.1367 -1.9593 -0.664747 0
M  V30 417 C 41.5517 -0.901352 -1.65895 0
M  V30 418 O 40.9087 0.117255 -1.82123 0
M  V30 419 C 40.9597 -3.34342 -1.37468 0
M  V30 420 O 40.6807 -4.36079 -0.420324 0
M  V30 421 C 42.1817 -3.873 -2.1567 0
M  V30 422 H 39.4017 -0.645405 -0.183557 0
M  V30 423 H 41.9457 -2.04329 0.0836372 0
M  V30 424 H 40.1007 -3.27175 -2.0745 0
M  V30 425 H 40.5147 -5.16297 -0.923991 0
M  V30 426 H 41.9887 -4.86504 -2.60803 0
M  V30 427 H 42.4657 -3.21331 -2.99405 0
M  V30 428 H 43.0717 -3.97723 -1.50654 0
M  V30 429 N 41.3868 0.248026 -1.55636 0
M  V30 430 C 42.3168 1.31079 -1.93237 0
M  V30 431 C 43.2978 1.50264 -0.797174 0
M  V30 432 O 44.4828 1.62891 -1.05737 0
M  V30 433 C 41.6128 2.66575 -2.22609 0
M  V30 434 C 40.5668 2.62087 -3.3837 0
M  V30 435 C 39.8928 4.01369 -3.53281 0
M  V30 436 C 41.1928 2.19171 -4.7409 0
M  V30 437 H 42.8868 0.998556 -2.82257 0
M  V30 438 H 40.4328 0.47891 -1.35803 0
M  V30 439 H 42.3858 3.41057 -2.47503 0
M  V30 440 H 41.1098 2.99432 -1.30414 0
M  V30 441 H 39.7688 1.90063 -3.13483 0
M  V30 442 H 39.4168 4.31489 -2.58508 0
M  V30 443 H 39.1168 3.99254 -4.31127 0
M  V30 444 H 40.6408 4.77552 -3.80495 0
M  V30 445 H 42.0548 2.83384 -4.98363 0
M  V30 446 H 40.4518 2.2817 -5.5503 0
M  V30 447 H 41.5218 1.14336 -4.71227 0
M  V30 448 N 42.8649 1.48995 0.513639 0
M  V30 449 C 44.2759 1.5119 1.09537 0
M  V30 450 C 44.6269 0.290906 1.94031 0
M  V30 451 O 43.7519 -0.60049 2.07902 0
M  V30 452 C 44.3469 2.73964 1.99322 0
M  V30 453 C 42.9059 2.78978 2.52682 0
M  V30 454 C 42.0529 2.44934 1.30009 0
M  V30 455 H 45.0039 1.55875 0.298125 0
M  V30 456 H 45.0249 2.53409 2.83838 0
M  V30 457 H 44.5369 3.62813 1.37799 0
M  V30 458 H 42.6379 1.94378 3.1788 0
M  V30 459 H 42.7509 3.8083 2.90698 0
M  V30 460 H 41.1149 1.9644 1.62122 0
M  V30 461 H 41.8979 3.36043 0.702131 0
M  V30 462 N 44.343 -0.763751 1.37857 0
M  V30 463 C 45.29 -1.87726 1.34267 0
M  V30 464 C 46.26 -1.64807 0.206879 0
M  V30 465 O 47.445 -1.86613 0.397508 0
M  V30 466 C 44.585 -3.24896 1.16346 0
M  V30 467 C 43.698 -3.59716 2.39225 0
M  V30 468 C 42.833 -4.86137 2.14114 0
M  V30 469 C 41.872 -5.13711 3.32817 0
M  V30 470 N 41.009 -6.31323 3.07206 0
M  V30 471 H 45.849 -1.90129 2.29466 0
M  V30 472 H 43.386 -0.929433 1.14017 0
M  V30 473 H 45.344 -4.04036 1.03975 0
M  V30 474 H 43.974 -3.21847 0.247909 0
M  V30 475 H 43.026 -2.75498 2.62307 0
M  V30 476 H 44.338 -3.76027 3.27728 0
M  V30 477 H 43.492 -5.73198 1.9882 0
M  V30 478 H 42.231 -4.71945 1.22961 0
M  V30 479 H 41.236 -4.25123 3.48641 0
M  V30 480 H 42.461 -5.29807 4.24832 0
M  V30 481 H 40.407 -6.18474 2.1869 0
M  V30 482 H 40.324 -6.48087 3.89254 0
M  V30 483 H 41.592 -7.213 2.95546 0
M  V30 484 N 45.8211 -1.22559 -0.990812 0
M  V30 485 C 47.2371 -0.985996 -1.255 0
M  V30 486 C 47.4371 0.319173 -1.98956 0
M  V30 487 O 46.4931 1.04127 -2.3003 0
M  V30 488 C 47.8061 -2.18607 -2.06474 0
M  V30 489 C 49.3541 -2.22985 -2.19651 0
M  V30 490 C 49.8291 -3.4255 -3.04012 0
M  V30 491 N 51.3201 -3.42725 -3.11599 0
M  V30 492 C 52.0551 -4.31892 -3.7717 0
M  V30 493 N 51.5511 -5.31279 -4.44651 0
M  V30 494 N 53.3441 -4.19662 -3.73952 0
M  V30 495 H 45.4951 -2.06469 -0.49841 0
M  V30 496 H 47.7581 -0.904853 -0.282747 0
M  V30 497 H 47.4641 -3.13267 -1.59865 0
M  V30 498 H 47.3381 -2.18838 -3.07229 0
M  V30 499 H 49.7251 -1.28871 -2.65474 0
M  V30 500 H 49.8061 -2.26791 -1.18319 0
M  V30 501 H 49.4501 -4.36965 -2.58889 0
M  V30 502 H 49.3801 -3.35984 -4.0549 0
M  V30 503 H 51.8711 -2.70807 -2.63575 0
M  V30 504 H 52.1841 -5.95593 -4.92431 0
M  V30 505 H 50.5291 -5.3519 -4.43392 0
M  V30 506 H 53.7201 -3.41268 -3.20396 0
M  V30 507 H 53.8931 -4.89358 -4.24774 0
M  V30 508 N 47.2992 1.18797 -1.03562 0
M  V30 509 C 48.5452 1.8893 -0.737113 0
M  V30 510 C 48.8782 1.79837 0.732956 0
M  V30 511 O 48.1532 1.19525 1.5344 0
M  V30 512 C 48.4362 3.39607 -1.19745 0
M  V30 513 C 48.2892 3.57537 -2.72924 0
M  V30 514 C 49.6082 4.33069 -0.783526 0
M  V30 515 H 46.7272 0.686057 -0.269249 0
M  V30 516 H 49.3692 1.39797 -1.28673 0
M  V30 517 H 47.5192 3.81583 -0.729855 0
M  V30 518 H 49.1912 3.24688 -3.27682 0
M  V30 519 H 47.4342 3.00363 -3.12993 0
M  V30 520 H 48.1052 4.63238 -3.00191 0
M  V30 521 H 50.5812 3.98846 -1.18581 0
M  V30 522 H 49.4572 5.3707 -1.13343 0
M  V30 523 H 49.7182 4.40986 0.313681 0
M  V30 524 N 48.7773 0.814389 1.34928 0
M  V30 525 C 49.7243 0.22822 2.29669 0
M  V30 526 C 50.6943 -0.642164 1.53184 0
M  V30 527 O 51.8793 -0.585605 1.81591 0
M  V30 528 C 49.0193 -0.61089 3.3965 0
M  V30 529 C 48.1323 0.280792 4.31086 0
M  V30 530 C 47.2673 -0.567067 5.28165 0
M  V30 531 C 46.3063 0.324531 6.11239 0
M  V30 532 N 45.4433 -0.483756 7.00431 0
M  V30 533 H 50.2833 1.04153 2.79206 0
M  V30 534 H 47.8203 0.525133 1.37407 0
M  V30 535 H 49.7783 -1.11263 4.0209 0
M  V30 536 H 48.4083 -1.38939 2.91369 0
M  V30 537 H 47.4603 0.900688 3.69583 0
M  V30 538 H 48.7723 0.966723 4.89342 0
M  V30 539 H 47.9263 -1.13363 5.96015 0
M  V30 540 H 46.6653 -1.28654 4.70425 0
M  V30 541 H 45.6703 0.903298 5.42329 0
M  V30 542 H 46.8953 1.04198 6.71059 0
M  V30 543 H 44.8413 -1.18706 6.45171 0
M  V30 544 H 44.7583 0.143965 7.55863 0
M  V30 545 H 46.0263 -1.03334 7.7262 0
M  V30 546 N 50.2554 -1.46986 0.568584 0
M  V30 547 C 51.5044 -2.01646 0.0465894 0
M  V30 548 C 51.8174 -1.44721 -1.31587 0
M  V30 549 O 53.0234 -1.91113 -1.92842 0
M  V30 550 C 51.4794 -3.59885 0.032752 0
M  V30 551 C 51.0874 -4.25804 1.39266 0
M  V30 552 C 52.8314 -4.22255 -0.436038 0
M  V30 553 C 50.7384 -5.76081 1.33732 0
M  V30 554 H 49.6684 -0.753876 0.013647 0
M  V30 555 H 52.3194 -1.68864 0.718131 0
M  V30 556 H 50.7014 -3.8968 -0.704669 0
M  V30 557 H 51.8754 -4.07637 2.1487 0
M  V30 558 H 50.1904 -3.7547 1.80032 0
M  V30 559 H 52.7874 -5.32394 -0.49602 0
M  V30 560 H 53.1304 -3.90212 -1.45053 0
M  V30 561 H 53.6634 -3.97033 0.246877 0
M  V30 562 H 50.4024 -6.12761 2.32817 0
M  V30 563 H 49.9224 -5.96553 0.623267 0
M  V30 564 H 51.6014 -6.38518 1.0442 0
M  V30 565 N 51.7335 -0.305618 -1.54608 0
M  V30 566 C 52.9795 0.302746 -2.00528 0
M  V30 567 C 53.3125 1.53184 -1.19367 0
M  V30 568 O 52.5875 1.92598 -0.271321 0
M  V30 569 C 52.8705 0.654756 -3.54097 0
M  V30 570 C 52.7235 -0.583793 -4.45995 0
M  V30 571 C 54.0425 1.47947 -4.14487 0
M  V30 572 H 51.1615 0.108564 -0.72896 0
M  V30 573 H 53.8035 -0.418634 -1.85331 0
M  V30 574 H 51.9535 1.26935 -3.67178 0
M  V30 575 H 53.6255 -1.22224 -4.44814 0
M  V30 576 H 51.8685 -1.21615 -4.16404 0
M  V30 577 H 52.5395 -0.293287 -5.5122 0
M  V30 578 H 55.0155 0.96013 -4.04871 0
M  V30 579 H 53.8915 1.69454 -5.22088 0
M  V30 580 H 54.1525 2.47011 -3.66658 0
M  V30 581 N 53.2116 1.57565 -0.0334293 0
M  V30 582 C 54.1216 2.13943 0.962572 0
M  V30 583 C 55.1376 1.09276 1.35406 0
M  V30 584 O 56.3136 1.41355 1.4346 0
M  V30 585 C 53.3786 2.65887 2.22497 0
M  V30 586 C 52.4396 3.85286 1.8935 0
M  V30 587 C 51.6726 4.34743 3.09571 0
M  V30 588 O 51.8956 3.83352 4.22371 0
M  V30 589 O 50.8296 5.26538 2.91618 0
M  V30 590 H 54.6556 2.99333 0.513169 0
M  V30 591 H 52.2406 1.4822 0.18743 0
M  V30 592 H 54.1226 2.99346 2.96598 0
M  V30 593 H 52.7976 1.83578 2.6661 0
M  V30 594 H 51.7046 3.56746 1.1262 0
M  V30 595 H 53.0376 4.68771 1.5005 0
M  V30 596 N 54.6897 -0.239769 1.55765 0
M  V30 597 C 55.9357 -0.968234 1.78194 0
M  V30 598 C 56.2687 -1.84701 0.599938 0
M  V30 599 O 55.5437 -1.9031 -0.401524 0
M  V30 600 C 55.8267 -1.8227 3.10564 0
M  V30 601 C 55.6797 -0.971633 4.3918 0
M  V30 602 C 56.9987 -2.80388 3.39221 0
M  V30 603 H 54.1177 -0.350572 0.648281 0
M  V30 604 H 56.7597 -0.238259 1.885 0
M  V30 605 H 54.9097 -2.44507 3.01908 0
M  V30 606 H 56.5817 -0.367408 4.59835 0
M  V30 607 H 54.8247 -0.276276 4.32919 0
M  V30 608 H 55.4957 -1.60346 5.28198 0
M  V30 609 H 57.9717 -2.28287 3.47885 0
M  V30 610 H 56.8477 -3.3729 4.33044 0
M  V30 611 H 57.1087 -3.57212 2.60484 0
M  V30 612 N 56.1678 -1.49265 -0.50573 0
M  V30 613 C 57.4158 -1.582 -1.25766 0
M  V30 614 C 57.7368 -0.268482 -1.93143 0
M  V30 615 O 57.0068 0.711833 -1.8251 0
M  V30 616 H 55.5868 -0.582873 -0.467191 0
M  V30 617 H 58.2488 -1.85865 -0.586525 0
M  V30 618 H 57.3448 -2.37563 -2.02412 0
M  V30 619 N 57.6459 0.756429 -1.3826 0
M  V30 620 C 59.0569 1.33359 -1.30661 0
M  V30 621 C 59.4079 1.96161 0.0388875 0
M  V30 622 O 58.5329 1.94874 0.940918 0
M  V30 623 C 59.1279 2.42477 -2.36622 0
M  V30 624 C 57.6869 2.95922 -2.3261 0
M  V30 625 C 56.8339 1.69275 -2.19639 0
M  V30 626 H 59.7849 0.55552 -1.4866 0
M  V30 627 H 59.8059 3.22345 -2.02174 0
M  V30 628 H 59.3179 1.96739 -3.34538 0
M  V30 629 H 57.4189 3.45996 -1.38267 0
M  V30 630 H 57.5319 3.50494 -3.26636 0
M  V30 631 H 55.8959 1.92793 -1.66442 0
M  V30 632 H 56.6789 1.25619 -3.19491 0
M  V30 633 N 59.124 1.23083 0.984299 0
M  V30 634 C 60.54 0.992637 1.24975 0
M  V30 635 C 60.74 -0.308618 1.99123 0
M  V30 636 O 59.796 -1.02905 2.30579 0
M  V30 637 C 61.109 2.19698 2.05312 0
M  V30 638 C 62.657 2.24147 2.18465 0
M  V30 639 C 63.132 3.44157 3.02192 0
M  V30 640 N 64.623 3.44372 3.09777 0
M  V30 641 C 65.358 4.33886 3.74874 0
M  V30 642 N 64.854 5.3363 4.41827 0
M  V30 643 N 66.647 4.21639 3.71721 0
M  V30 644 H 58.798 2.06731 0.487453 0
M  V30 645 H 61.061 0.906339 0.277944 0
M  V30 646 H 60.767 3.1411 1.58201 0
M  V30 647 H 60.641 2.20465 3.06064 0
M  V30 648 H 63.028 1.30277 2.64786 0
M  V30 649 H 63.109 2.27415 1.17115 0
M  V30 650 H 62.753 4.38332 2.56568 0
M  V30 651 H 62.683 3.3813 4.03702 0
M  V30 652 H 65.174 2.72201 2.62135 0
M  V30 653 H 65.487 5.98196 4.89266 0
M  V30 654 H 63.832 5.37534 4.40548 0
M  V30 655 H 67.023 3.42962 3.18582 0
M  V30 656 H 67.196 4.91604 4.22173 0
M  V30 657 N 60.6021 -1.18246 1.0419 0
M  V30 658 C 61.8791 -1.84121 0.660208 0
M  V30 659 C 62.2591 -1.92778 -0.860221 0
M  V30 660 O 61.6071 -1.45464 -1.76217 0
M  V30 661 C 61.8171 -3.22355 1.33747 0
M  V30 662 C 63.1651 -3.98376 1.46906 0
M  V30 663 O 64.1891 -3.31799 1.29568 0
M  V30 664 O 63.0481 -5.17665 1.75171 0
M  V30 665 H 60.1421 -0.794036 0.231161 0
M  V30 666 H 62.6881 -1.25628 1.14087 0
M  V30 667 H 61.4601 -3.10964 2.37522 0
M  V30 668 H 61.0831 -3.88506 0.845515 0
M  V30 669 N 62.0802 -0.821533 -1.34494 0
M  V30 670 C 63.3282 -0.408139 -1.97936 0
M  V30 671 C 63.6492 1.03193 -1.65457 0
M  V30 672 O 62.9192 1.71622 -0.944595 0
M  V30 673 H 61.4992 -0.147928 -0.732206 0
M  V30 674 H 64.1612 -1.05067 -1.64155 0
M  V30 675 H 63.2572 -0.52601 -3.07635 0
M  V30 676 N 63.5583 1.46682 -0.576371 0
M  V30 677 C 64.4883 2.33028 0.148397 0
M  V30 678 C 65.4693 1.44961 0.889956 0
M  V30 679 O 66.6543 1.73789 0.866662 0
M  V30 680 C 63.7843 3.27117 1.1667 0
M  V30 681 C 62.7383 4.24575 0.540386 0
M  V30 682 C 62.0643 5.08126 1.6647 0
M  V30 683 C 63.3643 5.19722 -0.518331 0
M  V30 684 H 65.0583 2.93875 -0.572509 0
M  V30 685 H 62.6043 1.41315 -0.276768 0
M  V30 686 H 64.5573 3.86374 1.68204 0
M  V30 687 H 63.2813 2.64364 1.9178 0
M  V30 688 H 61.9403 3.66571 0.0461769 0
M  V30 689 H 61.5883 4.41762 2.40531 0
M  V30 690 H 61.2883 5.74122 1.25131 0
M  V30 691 H 62.8123 5.70246 2.18293 0
M  V30 692 H 64.2263 5.73232 -0.0883058 0
M  V30 693 H 62.6233 5.94026 -0.851679 0
M  V30 694 H 63.6933 4.64037 -1.40703 0
M  V30 695 N 65.0364 0.313813 1.54444 0
M  V30 696 C 65.9684 -0.590425 2.21465 0
M  V30 697 C 66.9814 -1.08753 1.21147 0
M  V30 698 O 68.1704 -1.00278 1.4767 0
M  V30 699 C 65.2704 -1.82179 2.85769 0
M  V30 700 C 64.4434 -1.46502 4.12136 0
M  V30 701 C 63.5024 -2.55288 4.60124 0
M  V30 702 O 62.5284 -2.19842 5.25032 0
M  V30 703 N 63.7304 -3.86053 4.33525 0
M  V30 704 H 66.4954 -0.0166033 2.99695 0
M  V30 705 H 64.0564 0.136578 1.61323 0
M  V30 706 H 66.0484 -2.54328 3.14801 0
M  V30 707 H 64.6184 -2.30369 2.11303 0
M  V30 708 H 63.8384 -0.575595 3.89975 0
M  V30 709 H 65.1264 -1.20221 4.94393 0
M  V30 710 H 64.5244 -4.17654 3.81552 0
M  V30 711 H 63.0814 -4.54461 4.67235 0
M  V30 712 N 66.5145 -1.57545 0.0417849 0
M  V30 713 C 67.4625 -2.12148 -0.953723 0
M  V30 714 C 68.4565 -1.05104 -1.32852 0
M  V30 715 O 69.6625 -1.23524 -1.30927 0
M  V30 716 H 66.0375 -0.677957 -0.325389 0
M  V30 717 H 68.0085 -2.94707 -0.467991 0
M  V30 718 C 66.7575 -2.6739 -2.22257 0
M  V30 719 H 66.0805 -3.49413 -1.94295 0
M  V30 720 H 67.5205 -3.09227 -2.90094 0
M  V30 721 C 65.9795 -1.60723 -2.96091 0
M  V30 722 O 66.5095 -1.01449 -3.88679 0
M  V30 723 N 64.7155 -1.32466 -2.58652 0
M  V30 724 H 64.2625 -1.80856 -1.83437 0
M  V30 725 H 64.2205 -0.61325 -3.08361 0
M  V30 726 N 67.9926 0.231505 -1.5589 0
M  V30 727 C 68.9026 1.308 -1.94752 0
M  V30 728 C 69.9186 1.51826 -0.849989 0
M  V30 729 O 71.0946 1.6515 -1.15271 0
M  V30 730 C 68.1596 2.63968 -2.24771 0
M  V30 731 C 67.2206 2.51331 -3.48039 0
M  V30 732 C 66.4536 3.78148 -3.76616 0
M  V30 733 O 66.6766 4.80722 -3.07022 0
M  V30 734 O 65.6106 3.75857 -4.70123 0
M  V30 735 H 69.4366 1.0083 -2.86474 0
M  V30 736 H 67.0216 0.433547 -1.42971 0
M  V30 737 H 68.9036 3.42633 -2.45318 0
M  V30 738 H 67.5786 2.9364 -1.36225 0
M  V30 739 H 66.4856 1.709 -3.32782 0
M  V30 740 H 67.8186 2.26601 -4.36936 0
M  V30 741 N 69.4707 1.49531 0.497807 0
M  V30 742 C 70.4177 1.66436 1.59899 0
M  V30 743 C 71.3877 0.505793 1.58212 0
M  V30 744 O 72.5727 0.733202 1.7615 0
M  V30 745 C 69.7127 1.7399 2.98029 0
M  V30 746 C 68.8257 3.01172 3.09708 0
M  V30 747 C 67.9607 2.99686 4.38591 0
M  V30 748 C 66.9997 4.21434 4.43914 0
M  V30 749 N 66.1367 4.1784 5.64229 0
M  V30 750 H 70.9767 2.60459 1.44793 0
M  V30 751 H 68.5137 1.29137 0.704423 0
M  V30 752 H 70.4717 1.76352 3.78095 0
M  V30 753 H 69.1017 0.834301 3.11832 0
M  V30 754 H 68.1537 3.08408 2.22685 0
M  V30 755 H 69.4657 3.91165 3.09502 0
M  V30 756 H 68.6197 3.00628 5.2698 0
M  V30 757 H 67.3587 2.07477 4.41367 0
M  V30 758 H 66.3637 4.20733 3.53926 0
M  V30 759 H 67.5887 5.14839 4.42851 0
M  V30 760 H 65.5347 3.28469 5.67841 0
M  V30 761 H 65.4517 5.01571 5.65652 0
M  V30 762 H 66.7197 4.22889 6.54817 0
M  V30 763 N 70.9488 -0.749086 1.3866 0
M  V30 764 C 71.8968 -1.88428 1.36373 0
M  V30 765 C 72.8908 -1.67561 0.248929 0
M  V30 766 O 74.0968 -1.75074 0.41821 0
M  V30 767 H 70.4718 -0.620023 0.42553 0
M  V30 768 H 72.4428 -1.87473 2.32156 0
M  V30 769 C 71.1918 -3.25961 1.21014 0
M  V30 770 H 70.5148 -3.42607 2.06059 0
M  V30 771 H 71.9548 -4.05625 1.23469 0
M  V30 772 C 70.4138 -3.36799 -0.0825941 0
M  V30 773 O 70.9438 -3.87517 -1.05797 0
M  V30 774 N 69.1498 -2.90258 -0.140939 0
M  V30 775 H 68.6968 -2.49174 0.653477 0
M  V30 776 H 68.6548 -2.97889 -1.00545 0
M  V30 777 N 72.4269 -1.23603 -0.977757 0
M  V30 778 C 73.6759 -1.06377 -1.71368 0
M  V30 779 C 73.9889 0.399062 -1.91486 0
M  V30 780 O 75.1949 0.691312 -2.62551 0
M  V30 781 C 73.6509 -1.85512 -3.08404 0
M  V30 782 C 73.2589 -3.36141 -2.96164 0
M  V30 783 C 75.0029 -1.76783 -3.85938 0
M  V30 784 C 72.9099 -4.07659 -4.28449 0
M  V30 785 H 71.8399 -0.394452 -0.642591 0
M  V30 786 H 74.4909 -1.47594 -1.09034 0
M  V30 787 H 72.8729 -1.37103 -3.71509 0
M  V30 788 H 74.0469 -3.92056 -2.42133 0
M  V30 789 H 72.3619 -3.45712 -2.32104 0
M  V30 790 H 74.9589 -2.27526 -4.83876 0
M  V30 791 H 75.3019 -0.731116 -4.0983 0
M  V30 792 H 75.8349 -2.22818 -3.2954 0
M  V30 793 H 72.5739 -5.11648 -4.09752 0
M  V30 794 H 72.0939 -3.5653 -4.82334 0
M  V30 795 H 73.7729 -4.141 -4.97122 0
M  V30 796 N 73.905 1.17692 -1.04816 0
M  V30 797 C 75.151 1.88137 -0.75711 0
M  V30 798 C 75.484 1.80604 0.713841 0
M  V30 799 O 74.759 1.21146 1.52164 0
M  V30 800 C 75.042 3.38318 -1.2334 0
M  V30 801 C 74.895 3.54622 -2.76701 0
M  V30 802 C 76.214 4.32214 -0.829415 0
M  V30 803 H 73.333 0.683163 -0.27651 0
M  V30 804 H 75.975 1.38424 -1.30149 0
M  V30 805 H 74.125 3.80787 -0.770286 0
M  V30 806 H 75.797 3.21194 -3.31107 0
M  V30 807 H 74.04 2.97026 -3.16161 0
M  V30 808 H 74.711 4.60028 -3.05088 0
M  V30 809 H 77.187 3.97565 -1.22805 0
M  V30 810 H 76.063 5.35838 -1.19033 0
M  V30 811 H 76.324 4.41294 0.266891 0
M  V30 812 N 75.3831 0.828654 1.34056 0
M  V30 813 C 76.6081 0.431637 2.02859 0
M  V30 814 C 77.0331 -0.956339 1.61975 0
M  V30 815 O 76.3911 -1.62338 0.807228 0
M  V30 816 C 76.4391 0.548323 3.56407 0
M  V30 817 O 75.5431 -0.429556 4.10157 0
M  V30 818 H 74.8841 0.176886 0.640006 0
M  V30 819 H 77.4141 1.12066 1.71179 0
M  V30 820 H 77.4241 0.426196 4.05768 0
M  V30 821 H 76.0991 1.5606 3.8551 0
M  V30 822 H 74.6761 -0.265836 3.71951 0
M  V30 823 N 76.8612 -1.46375 0.584142 0
M  V30 824 C 78.0892 -2.06761 0.0759296 0
M  V30 825 C 78.5042 -1.43266 -1.22965 0
M  V30 826 O 77.8612 -0.538458 -1.74376 0
M  V30 827 C 77.9122 -3.61375 -0.0950384 0
M  V30 828 O 77.6332 -4.22495 1.15887 0
M  V30 829 C 79.1342 -4.38693 -0.637434 0
M  V30 830 H 76.3542 -0.668479 0.0581075 0
M  V30 831 H 78.8982 -1.8798 0.805218 0
M  V30 832 H 77.0532 -3.79578 -0.774554 0
M  V30 833 H 77.4672 -5.15385 0.973598 0
M  V30 834 H 78.9412 -5.47464 -0.706237 0
M  V30 835 H 79.4182 -4.06836 -1.65472 0
M  V30 836 H 80.0242 -4.25299 0.00725967 0
M  V30 837 N 78.3393 -0.321999 -1.54275 0
M  V30 838 C 79.7503 0.166384 -1.85957 0
M  V30 839 C 80.1013 1.51747 -1.24367 0
M  V30 840 O 79.2263 2.09317 -0.549124 0
M  V30 841 C 79.8213 0.308681 -3.37391 0
M  V30 842 C 78.3803 0.741286 -3.69028 0
M  V30 843 C 77.5273 -0.137937 -2.76957 0
M  V30 844 H 80.4783 -0.542335 -1.49146 0
M  V30 845 H 80.4993 1.13984 -3.63026 0
M  V30 846 H 80.0113 -0.674809 -3.82188 0
M  V30 847 H 78.1123 1.73458 -3.29762 0
M  V30 848 H 78.2253 0.546118 -4.75977 0
M  V30 849 H 76.5893 0.386251 -2.51754 0
M  V30 850 H 77.3723 -1.11816 -3.2458 0
M  V30 851 N 79.8174 1.5752 -0.0501392 0
M  V30 852 C 81.0634 1.92936 0.624798 0
M  V30 853 C 81.3964 0.928685 1.70555 0
M  V30 854 O 80.6714 -0.0454779 1.94447 0
M  V30 855 C 80.9544 3.38737 1.22185 0
M  V30 856 C 80.8074 4.49552 0.149218 0
M  V30 857 C 82.1264 3.84913 2.13378 0
M  V30 858 H 79.2454 0.701604 0.225657 0
M  V30 859 H 81.8874 1.89671 -0.111693 0
M  V30 860 H 80.0374 3.4165 1.84953 0
M  V30 861 H 81.7094 4.58768 -0.482648 0
M  V30 862 H 79.9524 4.30638 -0.522841 0
M  V30 863 H 80.6234 5.48653 0.606966 0
M  V30 864 H 83.0994 3.8387 1.60572 0
M  V30 865 H 81.9754 4.87584 2.52097 0
M  V30 866 H 82.2364 3.21611 3.03346 0
M  V30 867 N 81.2955 -0.223234 1.56011 0
M  V30 868 C 82.2425 -1.27664 1.92277 0
M  V30 869 C 83.2125 -1.46659 0.779763 0
M  V30 870 O 84.3975 -1.60256 1.03551 0
M  V30 871 C 81.5375 -2.62234 2.24338 0
M  V30 872 C 80.6505 -2.51051 3.51564 0
M  V30 873 C 79.7855 -3.78133 3.7308 0
M  V30 874 C 78.8245 -3.61665 4.93827 0
M  V30 875 N 77.9615 -4.80693 5.11741 0
M  V30 876 H 82.8015 -0.960358 2.82101 0
M  V30 877 H 80.3385 -0.462901 1.39627 0
M  V30 878 H 82.2965 -3.40596 2.40936 0
M  V30 879 H 80.9265 -2.91961 1.3769 0
M  V30 880 H 79.9785 -1.64132 3.43169 0
M  V30 881 H 81.2905 -2.34803 4.40079 0
M  V30 882 H 80.4445 -4.64938 3.89766 0
M  V30 883 H 79.1835 -3.97304 2.82844 0
M  V30 884 H 78.1885 -2.73244 4.77093 0
M  V30 885 H 79.4135 -3.43966 5.85546 0
M  V30 886 H 77.3595 -5.00181 4.24446 0
M  V30 887 H 77.2765 -4.67165 5.94384 0
M  V30 888 H 78.5445 -5.6893 5.3286 0
M  V30 889 N 82.7736 -1.49793 -0.48987 0
M  V30 890 C 84.0226 -1.59085 -1.23995 0
M  V30 891 C 84.3356 -0.287907 -1.9347 0
M  V30 892 O 85.5416 -0.259506 -2.70257 0
M  V30 893 C 83.9976 -2.80736 -2.252 0
M  V30 894 C 83.6056 -4.17833 -1.61614 0
M  V30 895 C 85.3496 -2.99364 -3.00967 0
M  V30 896 C 83.2566 -5.30693 -2.60996 0
M  V30 897 H 82.1866 -0.592372 -0.466488 0
M  V30 898 H 84.8376 -1.76197 -0.51252 0
M  V30 899 H 83.2196 -2.57142 -3.01154 0
M  V30 900 H 84.3936 -4.51608 -0.915774 0
M  V30 901 H 82.7086 -4.04656 -0.981977 0
M  V30 902 H 85.3056 -3.80851 -3.75308 0
M  V30 903 H 85.6486 -2.10356 -3.59244 0
M  V30 904 H 86.1816 -3.2305 -2.32128 0
M  V30 905 H 82.9206 -6.21796 -2.07485 0
M  V30 906 H 82.4406 -5.01359 -3.2924 0
M  V30 907 H 84.1196 -5.6049 -3.23202 0
M  V30 908 N 84.2517 0.741722 -1.39055 0
M  V30 909 C 85.1987 1.85566 -1.37237 0
M  V30 910 C 86.1687 1.64457 -0.233072 0
M  V30 911 O 87.3537 1.85957 -0.427147 0
M  V30 912 C 84.4937 3.23004 -1.215 0
M  V30 913 C 83.6067 3.55864 -2.44918 0
M  V30 914 C 82.7417 4.82669 -2.21821 0
M  V30 915 C 81.7807 5.08351 -3.40948 0
M  V30 916 N 80.9177 6.26356 -3.17211 0
M  V30 917 H 85.7577 1.86455 -2.32462 0
M  V30 918 H 83.2947 0.911176 -1.15482 0
M  V30 919 H 85.2527 4.02331 -1.10389 0
M  V30 920 H 83.8827 3.21411 -0.29908 0
M  V30 921 H 82.9347 2.7129 -2.66657 0
M  V30 922 H 84.2467 3.70765 -3.33668 0
M  V30 923 H 83.4007 5.69962 -2.07914 0
M  V30 924 H 82.1397 4.69929 -1.30454 0
M  V30 925 H 81.1447 4.19522 -3.55361 0
M  V30 926 H 82.3697 5.22981 -4.33207 0
M  V30 927 H 80.3157 6.14917 -2.28502 0
M  V30 928 H 80.2327 6.41813 -3.99515 0
M  V30 929 H 81.5007 7.16506 -3.06984 0
M  V30 930 N 85.7298 1.2412 0.971189 0
M  V30 931 C 86.6598 1.05508 2.08304 0
M  V30 932 C 87.6408 -0.0308864 1.70072 0
M  V30 933 O 88.8258 0.135521 1.93727 0
M  V30 934 C 85.9558 0.655365 3.4106 0
M  V30 935 C 84.9098 1.68971 3.93234 0
M  V30 936 C 84.2358 1.14516 5.22293 0
M  V30 937 C 85.5358 3.08487 4.21465 0
M  V30 938 H 87.2298 1.98507 2.24132 0
M  V30 939 H 84.7758 0.955821 1.07704 0
M  V30 940 H 86.7288 0.51217 4.18276 0
M  V30 941 H 85.4528 -0.31032 3.25122 0
M  V30 942 H 84.1118 1.82106 3.18171 0
M  V30 943 H 83.7598 0.170189 5.02712 0
M  V30 944 H 83.4598 1.83635 5.58168 0
M  V30 945 H 84.9838 1.01401 6.02121 0
M  V30 946 H 86.3978 2.98601 4.89398 0
M  V30 947 H 84.7948 3.74926 4.68562 0
M  V30 948 H 85.8648 3.56787 3.28376 0
M  V30 949 N 87.2079 -1.17134 1.05439 0
M  V30 950 C 88.4569 -1.86791 0.761049 0
M  V30 951 C 88.7699 -1.82072 -0.714795 0
M  V30 952 O 89.9759 -2.47223 -1.12218 0
M  V30 953 C 88.4319 -3.35166 1.31117 0
M  V30 954 C 88.0399 -3.48381 2.81664 0
M  V30 955 C 89.7839 -4.10134 1.09499 0
M  V30 956 C 87.6909 -4.90793 3.29964 0
M  V30 957 H 86.6209 -0.699681 0.281002 0
M  V30 958 H 89.2719 -1.3226 1.27199 0
M  V30 959 H 87.6539 -3.8925 0.72803 0
M  V30 960 H 88.8279 -3.04502 3.45855 0
M  V30 961 H 87.1429 -2.86836 3.01851 0
M  V30 962 H 89.7399 -5.152 1.43084 0
M  V30 963 H 90.0829 -4.16287 0.0328772 0
M  V30 964 H 90.6159 -3.62264 1.64346 0
M  V30 965 H 87.3549 -4.89816 4.35616 0
M  V30 966 H 86.8749 -5.35333 2.70516 0
M  V30 967 H 88.5539 -5.59573 3.24787 0
M  V30 968 N 88.686 -0.835752 -1.33615 0
M  V30 969 C 89.963 -0.352017 -1.92406 0
M  V30 970 C 90.343 1.16225 -1.76224 0
M  V30 971 O 89.691 1.97526 -1.14873 0
M  V30 972 C 89.901 -0.795485 -3.39813 0
M  V30 973 C 91.249 -0.801703 -4.16963 0
M  V30 974 O 92.273 -0.738889 -3.48452 0
M  V30 975 O 91.132 -0.886607 -5.3926 0
M  V30 976 H 88.226 -0.0989641 -0.821057 0
M  V30 977 H 90.772 -0.921397 -1.42507 0
M  V30 978 H 89.544 -1.83795 -3.45449 0
M  V30 979 H 89.167 -0.202505 -3.97084 0
M  V30 980 N 90.1641 1.46063 -0.591896 0
M  V30 981 C 91.0971 2.27452 0.184617 0
M  V30 982 C 92.0751 1.36188 0.888351 0
M  V30 983 O 93.2591 1.65606 0.90039 0
M  V30 984 C 90.3861 3.14162 1.26571 0
M  V30 985 C 89.4321 4.21255 0.666814 0
M  V30 986 S 90.2651 5.33034 -0.513345 0
M  V30 987 C 91.4211 6.23311 0.56872 0
M  V30 988 H 91.6541 2.92963 -0.505939 0
M  V30 989 H 89.1871 1.49676 -0.379014 0
M  V30 990 H 91.1451 3.6468 1.88463 0
M  V30 991 H 89.8061 2.47946 1.92826 0
M  V30 992 H 88.9991 4.81788 1.47974 0
M  V30 993 H 88.6011 3.73797 0.123359 0
M  V30 994 H 90.8931 6.61758 1.45198 0
M  V30 995 H 91.8361 7.081 -7.23824e-05 0
M  V30 996 H 92.2441 5.57646 0.876996 0
M  V30 997 N 91.6422 0.330177 1.54103 0
M  V30 998 C 92.5722 -0.525353 2.27513 0
M  V30 999 C 93.5532 -1.11383 1.2856 0
M  V30 1000 O 94.7382 -1.13773 1.57383 0
M  V30 1001 C 91.8682 -1.6831 3.03791 0
M  V30 1002 C 90.8222 -1.2236 4.10137 0
M  V30 1003 C 90.1482 -2.46882 4.74293 0
M  V30 1004 C 91.4482 -0.333697 5.21233 0
M  V30 1005 H 93.1422 0.087013 2.99274 0
M  V30 1006 H 90.6882 0.0432893 1.43935 0
M  V30 1007 H 92.6412 -2.28795 3.5388 0
M  V30 1008 H 91.3652 -2.32216 2.29659 0
M  V30 1009 H 90.0242 -0.64165 3.60941 0
M  V30 1010 H 89.6722 -3.09165 3.96769 0
M  V30 1011 H 89.3722 -2.16825 5.46133 0
M  V30 1012 H 90.8962 -3.08117 5.27159 0
M  V30 1013 H 92.3102 -0.845013 5.67038 0
M  V30 1014 H 90.7072 -0.125612 5.99969 0
M  V30 1015 H 91.7772 0.633724 4.80741 0
M  V30 1016 N 93.1203 -1.57491 0.0584922 0
M  V30 1017 C 94.3453 -1.97711 -0.62652 0
M  V30 1018 C 94.7703 -0.936132 -1.63151 0
M  V30 1019 O 94.1283 0.099811 -1.81025 0
M  V30 1020 C 94.1763 -3.36989 -1.28338 0
M  V30 1021 O 93.2803 -3.35433 -2.39913 0
M  V30 1022 H 92.6213 -0.643868 -0.162266 0
M  V30 1023 H 95.1513 -2.04193 0.129064 0
M  V30 1024 H 95.1613 -3.73879 -1.63335 0
M  V30 1025 H 93.8363 -4.12289 -0.546889 0
M  V30 1026 H 92.4133 -3.10298 -2.06809 0
M  V30 1027 N 94.5984 0.214957 -1.56127 0
M  V30 1028 C 95.5084 1.28727 -1.96129 0
M  V30 1029 C 96.5244 1.50916 -0.866044 0
M  V30 1030 O 97.7004 1.63918 -1.17016 0
M  V30 1031 C 94.7654 2.61569 -2.27558 0
M  V30 1032 C 93.8264 2.47625 -3.50685 0
M  V30 1033 C 93.0594 3.74132 -3.80606 0
M  V30 1034 O 93.2824 4.77438 -3.12104 0
M  V30 1035 O 92.2164 3.70849 -4.74083 0
M  V30 1036 H 96.0424 0.977855 -2.87527 0
M  V30 1037 H 93.6274 0.418358 -1.43423 0
M  V30 1038 H 95.5094 3.40012 -2.48938 0
M  V30 1039 H 94.1844 2.92178 -1.39332 0
M  V30 1040 H 93.0914 1.67361 -3.34576 0
M  V30 1041 H 94.4244 2.21954 -4.39315 0
M  V30 1042 N 96.0765 1.50051 0.48192 0
M  V30 1043 C 97.0395 1.67584 1.5636 0
M  V30 1044 C 98.0395 0.546894 1.51214 0
M  V30 1045 O 99.2295 0.813725 1.54026 0
M  V30 1046 C 96.3615 1.691 2.96003 0
M  V30 1047 H 97.5545 2.64078 1.42136 0
M  V30 1048 H 95.1075 1.39369 0.707533 0
M  V30 1049 H 95.8425 0.742589 3.15684 0
M  V30 1050 H 95.6275 2.51105 3.01146 0
M  V30 1051 H 97.1175 1.84656 3.74556 0
M  V30 1052 N 97.5546 -0.734337 1.39446 0
M  V30 1053 C 98.8026 -1.49096 1.36436 0
M  V30 1054 C 99.1236 -1.94961 -0.0388255 0
M  V30 1055 O 98.3936 -1.69033 -0.990191 0
M  V30 1056 H 96.9736 -0.5531 0.502085 0
M  V30 1057 H 99.6356 -0.871725 1.74319 0
M  V30 1058 H 98.7316 -2.37276 2.02747 0
M  V30 1059 N 99.0327 -1.24633 -0.964593 0
M  V30 1060 C 99.9627 -1.06611 -2.07741 0
M  V30 1061 C 100.944 0.0218666 -1.70086 0
M  V30 1062 O 102.129 -0.145793 -1.93652 0
M  V30 1063 C 99.2587 -0.673444 -3.40708 0
M  V30 1064 C 98.2127 -1.71054 -3.92332 0
M  V30 1065 C 97.5387 -1.17285 -5.21678 0
M  V30 1066 C 98.8387 -3.10718 -4.19824 0
M  V30 1067 H 100.533 -1.99693 -2.23076 0
M  V30 1068 H 98.0787 -0.96152 -1.07195 0
M  V30 1069 H 100.032 -0.534345 -4.17998 0
M  V30 1070 H 98.7557 0.293073 -3.25282 0
M  V30 1071 H 97.4147 -1.83791 -3.17201 0
M  V30 1072 H 97.0627 -0.196847 -5.02615 0
M  V30 1073 H 96.7627 -1.86592 -5.57187 0
M  V30 1074 H 98.2867 -1.04593 -6.01575 0
M  V30 1075 H 99.7007 -3.01192 -4.87808 0
M  V30 1076 H 98.0977 -3.77406 -4.66567 0
M  V30 1077 H 99.1677 -3.58524 -3.26479 0
M  V30 1078 N 100.511 1.16574 -1.06058 0
M  V30 1079 C 101.736 1.91493 -0.796562 0
M  V30 1080 C 102.161 1.76773 0.642868 0
M  V30 1081 O 101.519 1.09142 1.44768 0
M  V30 1082 C 101.567 3.40293 -1.19303 0
M  V30 1083 O 100.671 4.11074 -0.330394 0
M  V30 1084 H 100.012 0.596678 -0.291326 0
M  V30 1085 H 102.542 1.47708 -1.41575 0
M  V30 1086 H 102.552 3.91057 -1.16356 0
M  V30 1087 H 101.227 3.50326 -2.24153 0
M  V30 1088 H 99.8038 3.70513 -0.421225 0
M  V30 1089 N 101.989 0.842826 1.3317 0
M  V30 1090 C 103.235 0.441099 1.97945 0
M  V30 1091 C 103.568 -0.998024 1.66593 0
M  V30 1092 O 102.843 -1.69839 0.947898 0
M  V30 1093 C 103.126 0.666841 3.53872 0
M  V30 1094 C 102.979 2.15352 3.94897 0
M  V30 1095 C 104.298 0.115544 4.39948 0
M  V30 1096 H 101.417 0.161739 0.719034 0
M  V30 1097 H 104.059 1.05907 1.57746 0
M  V30 1098 H 102.209 0.140828 3.88245 0
M  V30 1099 H 103.881 2.7447 3.70761 0
M  V30 1100 H 102.124 2.63653 3.44484 0
M  V30 1101 H 102.795 2.26221 5.03516 0
M  V30 1102 H 105.271 0.565213 4.12243 0
M  V30 1103 H 104.147 0.303152 5.48062 0
M  V30 1104 H 104.408 -0.980935 4.3108 0
M  V30 1105 N 103.467 -1.45747 0.599634 0
M  V30 1106 C 104.716 -2.01502 0.0893511 0
M  V30 1107 C 105.029 -1.4748 -1.28488 0
M  V30 1108 O 106.235 -1.95161 -1.88745 0
M  V30 1109 C 104.691 -3.59735 0.109082 0
M  V30 1110 C 104.299 -4.22754 1.48267 0
M  V30 1111 C 106.043 -4.23085 -0.346374 0
M  V30 1112 C 103.95 -5.73115 1.45921 0
M  V30 1113 H 102.88 -0.753417 0.0296347 0
M  V30 1114 H 105.531 -1.67303 0.753788 0
M  V30 1115 H 103.913 -3.91087 -0.621854 0
M  V30 1116 H 105.087 -4.02987 2.23468 0
M  V30 1117 H 103.402 -3.71567 1.87955 0
M  V30 1118 H 105.999 -5.33327 -0.38298 0
M  V30 1119 H 106.342 -3.93201 -1.36743 0
M  V30 1120 H 106.875 -3.9642 0.331038 0
M  V30 1121 H 103.614 -6.07685 2.45762 0
M  V30 1122 H 103.134 -5.95097 0.749665 0
M  V30 1123 H 104.813 -6.3616 1.17941 0
M  V30 1124 N 104.945 -0.338344 -1.53925 0
M  V30 1125 C 105.855 0.529421 -2.28548 0
M  V30 1126 C 106.871 1.11645 -1.3346 0
M  V30 1127 O 108.047 1.13325 -1.66492 0
M  V30 1128 C 105.112 1.66713 -3.03987 0
M  V30 1129 C 104.173 1.11041 -4.14691 0
M  V30 1130 C 103.406 2.19389 -4.86522 0
M  V30 1131 O 103.629 3.40013 -4.57982 0
M  V30 1132 O 102.563 1.83976 -5.73094 0
M  V30 1133 H 106.389 -0.0770399 -3.03602 0
M  V30 1134 H 103.974 -0.103555 -1.49041 0
M  V30 1135 H 105.856 2.32918 -3.5118 0
M  V30 1136 H 104.531 2.25949 -2.31794 0
M  V30 1137 H 103.438 0.413024 -3.71813 0
M  V30 1138 H 104.771 0.562975 -4.8897 0
M  V30 1139 N 106.423 1.57458 -0.0668435 0
M  V30 1140 C 107.651 1.97624 0.612565 0
M  V30 1141 C 108.066 0.94502 1.63447 0
M  V30 1142 O 107.423 -0.0689276 1.8237 0
M  V30 1143 C 107.474 3.37869 1.28555 0
M  V30 1144 O 107.195 4.3704 0.304557 0
M  V30 1145 C 108.696 3.92882 2.05325 0
M  V30 1146 H 105.916 0.650045 0.166381 0
M  V30 1147 H 108.46 2.04035 -0.137782 0
M  V30 1148 H 106.615 3.3256 1.98702 0
M  V30 1149 H 107.029 5.18565 0.786779 0
M  V30 1150 H 108.503 4.93247 2.47812 0
M  V30 1151 H 108.98 3.29156 2.9078 0
M  V30 1152 H 109.586 4.01577 1.40056 0
M  V30 1153 N 107.901 -0.206675 1.56239 0
M  V30 1154 C 109.129 -0.945345 1.8404 0
M  V30 1155 C 109.544 -1.77336 0.647885 0
M  V30 1156 O 108.901 -1.78425 -0.383511 0
M  V30 1157 C 108.952 -1.8509 3.10522 0
M  V30 1158 O 108.673 -1.05634 4.25174 0
M  V30 1159 C 110.174 -2.70222 3.51418 0
M  V30 1160 H 107.394 -0.276372 0.61144 0
M  V30 1161 H 109.938 -0.217417 2.03341 0
M  V30 1162 H 108.093 -2.53259 2.93153 0
M  V30 1163 H 108.507 -1.67238 4.97124 0
M  V30 1164 H 109.981 -3.29438 4.42916 0
M  V30 1165 H 110.458 -3.43358 2.73864 0
M  V30 1166 H 111.064 -2.07443 3.71278 0
M  V30 1167 N 109.379 -1.50304 -0.473955 0
M  V30 1168 C 110.604 -1.65175 -1.25427 0
M  V30 1169 C 111.029 -0.333673 -1.85117 0
M  V30 1170 O 110.387 0.702114 -1.67153 0
M  V30 1171 C 110.435 -2.74295 -2.34082 0
M  V30 1172 O 109.539 -2.35349 -3.38651 0
M  V30 1173 H 108.88 -0.551944 -0.369126 0
M  V30 1174 H 111.41 -1.96662 -0.564364 0
M  V30 1175 H 111.42 -2.97285 -2.79438 0
M  V30 1176 H 110.095 -3.69959 -1.90008 0
M  V30 1177 H 108.672 -2.22794 -2.99027 0
M  V30 1178 N 110.857 0.726932 -1.39834 0
M  V30 1179 C 112.104 1.48664 -1.37496 0
M  V30 1180 C 112.432 1.94482 0.0264678 0
M  V30 1181 O 111.687 1.67692 1.00886 0
M  V30 1182 C 111.986 2.73495 -2.30077 0
M  V30 1183 C 111.652 2.46502 -3.77555 0
M  V30 1184 C 110.314 2.3885 -4.17737 0
M  V30 1185 C 112.666 2.23604 -4.70798 0
M  V30 1186 C 109.994 2.06352 -5.49214 0
M  V30 1187 C 112.346 1.92622 -6.02561 0
M  V30 1188 C 111.01 1.83444 -6.41798 0
M  V30 1189 H 110.28 0.544001 -0.503135 0
M  V30 1190 H 112.927 0.833657 -1.72402 0
M  V30 1191 H 111.232 3.43575 -1.88317 0
M  V30 1192 H 112.929 3.31549 -2.25558 0
M  V30 1193 H 109.519 2.5334 -3.45712 0
M  V30 1194 H 113.703 2.28479 -4.40581 0
M  V30 1195 H 108.959 1.97776 -5.78528 0
M  V30 1196 H 113.133 1.73914 -6.74334 0
M  V30 1197 H 110.76 1.58029 -7.43593 0
M  V30 1198 N 112.336 1.25143 0.95797 0
M  V30 1199 C 113.582 1.09855 1.70469 0
M  V30 1200 C 113.915 -0.360187 1.90831 0
M  V30 1201 O 113.19 -1.26568 1.47685 0
M  V30 1202 C 113.473 1.8497 3.08963 0
M  V30 1203 C 113.326 3.38652 2.96032 0
M  V30 1204 C 114.645 1.63016 4.08795 0
M  V30 1205 H 111.764 0.400465 0.618706 0
M  V30 1206 H 114.406 1.53933 1.11376 0
M  V30 1207 H 112.556 1.47505 3.59409 0
M  V30 1208 H 114.228 3.85772 2.52938 0
M  V30 1209 H 112.471 3.66534 2.32025 0
M  V30 1210 H 113.142 3.8642 3.94187 0
M  V30 1211 H 115.618 1.95625 3.67247 0
M  V30 1212 H 114.494 2.18015 5.03747 0
M  V30 1213 H 114.755 0.570692 4.38401 0
M  V30 1214 N 113.814 -1.1601 1.06675 0
M  V30 1215 C 115.039 -1.91068 0.806706 0
M  V30 1216 C 115.464 -1.77112 -0.633485 0
M  V30 1217 O 114.822 -1.09908 -1.44187 0
M  V30 1218 C 114.87 -3.39655 1.21106 0
M  V30 1219 O 113.974 -4.10893 0.352189 0
M  V30 1220 H 113.315 -0.595125 0.294486 0
M  V30 1221 H 115.845 -1.46955 1.42356 0
M  V30 1222 H 115.855 -3.90434 1.18428 0
M  V30 1223 H 114.53 -3.49132 2.26008 0
M  V30 1224 H 113.107 -3.70285 0.440868 0
M  V30 1225 N 115.292 -0.849877 -1.32721 0
M  V30 1226 C 116.703 -0.506188 -1.79707 0
M  V30 1227 C 117.054 0.975627 -1.70223 0
M  V30 1228 O 116.179 1.76078 -1.25799 0
M  V30 1229 C 116.774 -0.912044 -3.26293 0
M  V30 1230 C 115.333 -0.620326 -3.71253 0
M  V30 1231 C 114.48 -1.11439 -2.53922 0
M  V30 1232 H 117.431 -1.03754 -1.20087 0
M  V30 1233 H 117.452 -0.226493 -3.79825 0
M  V30 1234 H 116.964 -1.99057 -3.33164 0
M  V30 1235 H 115.065 0.447674 -3.69901 0
M  V30 1236 H 115.178 -1.18327 -4.64258 0
M  V30 1237 H 113.542 -0.534834 -2.49021 0
M  V30 1238 H 114.325 -2.19992 -2.6355 0
M  V30 1239 N 116.77 1.45427 -0.607355 0
M  V30 1240 C 117.717 2.3053 0.111625 0
M  V30 1241 C 118.687 1.4209 0.860216 0
M  V30 1242 O 119.872 1.71019 0.845998 0
M  V30 1243 C 117.012 3.26992 1.10319 0
M  V30 1244 C 116.125 4.30535 0.355493 0
M  V30 1245 C 115.26 5.14105 1.33676 0
M  V30 1246 C 114.299 6.09376 0.576862 0
M  V30 1247 N 113.436 6.85727 1.5074 0
M  V30 1248 H 118.276 2.91477 -0.620093 0
M  V30 1249 H 115.813 1.43631 -0.317594 0
M  V30 1250 H 117.771 3.81385 1.6912 0
M  V30 1251 H 116.401 2.67799 1.80232 0
M  V30 1252 H 115.453 3.78805 -0.348023 0
M  V30 1253 H 116.765 4.98235 -0.237423 0
M  V30 1254 H 115.919 5.72897 1.99684 0
M  V30 1255 H 114.658 4.46423 1.9636 0
M  V30 1256 H 113.663 5.49715 -0.0968519 0
M  V30 1257 H 114.888 6.79085 -0.0449341 0
M  V30 1258 H 112.834 6.20735 2.12189 0
M  V30 1259 H 112.751 7.49778 0.967913 0
M  V30 1260 H 114.019 7.4906 2.15706 0
M  V30 1261 N 118.248 0.346503 1.53744 0
M  V30 1262 C 119.494 -0.242135 2.01954 0
M  V30 1263 C 119.849 -1.47962 1.22984 0
M  V30 1264 O 119.142 -1.89077 0.309924 0
M  V30 1265 C 119.336 -0.605809 3.52228 0
M  V30 1266 C 119.165 0.594882 4.45748 0
M  V30 1267 C 117.935 1.1011 4.93157 0
M  V30 1268 C 120.133 1.45425 4.93311 0
M  V30 1269 N 118.115 2.26381 5.70636 0
M  V30 1270 C 119.486 2.46383 5.68942 0
M  V30 1271 C 121.541 1.47935 4.75415 0
M  V30 1272 C 120.244 3.49684 6.28581 0
M  V30 1273 C 122.27 2.50119 5.35905 0
M  V30 1274 C 121.632 3.49803 6.11406 0
M  V30 1275 H 117.731 -0.0518296 0.780281 0
M  V30 1276 H 120.315 0.486736 1.88518 0
M  V30 1277 H 118.486 -1.30378 3.65864 0
M  V30 1278 H 120.218 -1.17789 3.87179 0
M  V30 1279 H 116.973 0.668721 4.68855 0
M  V30 1280 H 117.397 2.85094 6.14044 0
M  V30 1281 H 122.039 0.722274 4.16585 0
M  V30 1282 H 119.757 4.26285 6.86518 0
M  V30 1283 H 123.343 2.52892 5.23963 0
M  V30 1284 H 122.223 4.27576 6.5738 0
M  V30 1285 N 119.726 -1.57421 0.075193 0
M  V30 1286 C 120.972 -1.93905 -0.594025 0
M  V30 1287 C 121.305 -0.955701 -1.69056 0
M  V30 1288 O 120.58 0.0145373 -1.94495 0
M  V30 1289 C 120.863 -3.40638 -1.1678 0
M  V30 1290 C 120.716 -4.49733 -0.0776792 0
M  V30 1291 C 122.035 -3.88259 -2.07228 0
M  V30 1292 H 119.154 -0.705105 -0.214466 0
M  V30 1293 H 121.796 -1.8947 0.141854 0
M  V30 1294 H 119.946 -3.44549 -1.79494 0
M  V30 1295 H 121.618 -4.57942 0.555573 0
M  V30 1296 H 119.861 -4.29751 0.591286 0
M  V30 1297 H 120.532 -5.49549 -0.519603 0
M  V30 1298 H 123.008 -3.86376 -1.54445 0
M  V30 1299 H 121.884 -4.91533 -2.44308 0
M  V30 1300 H 122.145 -3.26396 -2.98191 0
M  V30 1301 N 121.204 0.198386 -1.56346 0
M  V30 1302 C 122.615 0.763358 -1.70381 0
M  V30 1303 C 122.966 1.83995 -0.681203 0
M  V30 1304 O 122.091 2.15785 0.16305 0
M  V30 1305 C 122.686 1.39143 -3.08909 0
M  V30 1306 C 121.245 1.90352 -3.2472 0
M  V30 1307 C 120.392 0.772233 -2.6633 0
M  V30 1308 H 123.343 -0.0266377 -1.58678 0
M  V30 1309 H 123.364 2.26076 -3.06055 0
M  V30 1310 H 122.876 0.607638 -3.83314 0
M  V30 1311 H 120.977 2.71461 -2.55225 0
M  V30 1312 H 121.09 2.06757 -4.3219 0
M  V30 1313 H 119.454 1.18566 -2.2542 0
M  V30 1314 H 120.237 0.00073556 -3.433 0
M  V30 1315 N 122.682 1.50554 0.465978 0
M  V30 1316 C 123.614 1.65949 1.58093 0
M  V30 1317 C 124.627 0.540827 1.53554 0
M  V30 1318 O 125.816 0.814187 1.5885 0
M  V30 1319 C 122.916 1.63261 2.96983 0
M  V30 1320 C 122.089 2.91245 3.26336 0
M  V30 1321 C 121.148 2.8113 4.44806 0
M  V30 1322 O 120.174 3.55086 4.44862 0
M  V30 1323 N 121.376 1.95032 5.46756 0
M  V30 1324 H 124.141 2.62122 1.45301 0
M  V30 1325 H 121.702 1.48082 0.65448 0
M  V30 1326 H 123.694 1.54101 3.74212 0
M  V30 1327 H 122.264 0.748032 3.03518 0
M  V30 1328 H 121.484 3.14493 2.37672 0
M  V30 1329 H 122.772 3.76022 3.42761 0
M  V30 1330 H 122.17 1.3427 5.49534 0
M  V30 1331 H 120.727 1.91772 6.2295 0
M  V30 1332 N 124.16 -0.719506 1.40217 0
M  V30 1333 C 125.093 -1.84298 1.34571 0
M  V30 1334 C 126.071 -1.61149 0.216741 0
M  V30 1335 O 127.255 -1.84212 0.399756 0
M  V30 1336 C 124.382 -3.20568 1.09335 0
M  V30 1337 C 123.428 -3.62551 2.24631 0
M  V30 1338 S 124.261 -3.7012 3.87004 0
M  V30 1339 C 125.417 -5.09154 3.64024 0
M  V30 1340 H 125.65 -1.88807 2.2965 0
M  V30 1341 H 123.183 -0.885901 1.26456 0
M  V30 1342 H 125.141 -3.99246 0.954602 0
M  V30 1343 H 123.802 -3.13696 0.159164 0
M  V30 1344 H 122.995 -4.61483 2.02606 0
M  V30 1345 H 122.597 -2.91119 2.34789 0
M  V30 1346 H 124.889 -5.95955 3.22248 0
M  V30 1347 H 125.832 -5.36213 4.62473 0
M  V30 1348 H 126.24 -4.79562 2.97793 0
M  V30 1349 N 125.638 -1.25649 -0.95132 0
M  V30 1350 C 126.886 -1.10375 -1.69298 0
M  V30 1351 C 127.207 0.355339 -1.91735 0
M  V30 1352 O 126.477 1.25188 -1.50681 0
M  V30 1353 H 125.057 -0.405461 -0.627384 0
M  V30 1354 H 127.719 -1.57823 -1.14358 0
M  V30 1355 H 126.815 -1.61465 -2.67087 0
M  V30 1356 N 127.117 1.15442 -1.07289 0
M  V30 1357 C 128.394 1.82306 -0.708792 0
M  V30 1358 C 128.774 1.94991 0.808807 0
M  V30 1359 O 128.122 1.50085 1.72298 0
M  V30 1360 C 128.332 3.18695 -1.42247 0
M  V30 1361 C 129.68 3.94341 -1.57417 0
M  V30 1362 O 130.704 3.28247 -1.38319 0
M  V30 1363 O 129.563 5.12839 -1.88834 0
M  V30 1364 H 126.657 0.787628 -0.252132 0
M  V30 1365 H 129.203 1.22559 -1.17377 0
M  V30 1366 H 127.975 3.04557 -2.45684 0
M  V30 1367 H 127.598 3.86128 -0.948223 0
M  V30 1368 N 128.595 0.856903 1.32268 0
M  V30 1369 C 129.545 0.274899 2.26337 0
M  V30 1370 C 130.529 -0.580543 1.50062 0
M  V30 1371 O 131.721 -0.429559 1.71708 0
M  V30 1372 C 128.85 -0.533841 3.39124 0
M  V30 1373 C 127.936 0.334114 4.22782 0
M  V30 1374 N 128.327 1.42143 4.85416 0
M  V30 1375 C 126.625 0.124256 4.45827 0
M  V30 1376 C 127.326 1.95559 5.47843 0
M  V30 1377 N 126.302 1.25444 5.28928 0
M  V30 1378 H 130.104 1.10612 2.72291 0
M  V30 1379 H 127.618 0.703258 1.46383 0
M  V30 1380 H 129.615 -0.96722 4.05525 0
M  V30 1381 H 128.275 -1.36283 2.94715 0
M  V30 1382 H 129.286 1.80436 4.85451 0
M  V30 1383 H 125.963 -0.669837 4.12092 0
M  V30 1384 H 127.353 2.86714 6.07655 0
M  V30 1385 N 130.073 -1.45103 0.615059 0
M  V30 1386 C 131.301 -2.06553 0.11977 0
M  V30 1387 C 131.716 -1.45842 -1.19898 0
M  V30 1388 O 131.073 -0.575325 -1.73194 0
M  V30 1389 C 131.124 -3.61495 -0.018364 0
M  V30 1390 O 130.845 -4.19942 1.24822 0
M  V30 1391 C 132.346 -4.39947 -0.544237 0
M  V30 1392 H 129.566 -0.667096 0.0722739 0
M  V30 1393 H 132.11 -1.8623 0.84491 0
M  V30 1394 H 130.265 -3.81135 -0.693865 0
M  V30 1395 H 130.679 -5.13204 1.0827 0
M  V30 1396 H 132.153 -5.48838 -0.589953 0
M  V30 1397 H 132.63 -4.10255 -1.56805 0
M  V30 1398 H 133.236 -4.25188 0.0974703 0
M  V30 1399 N 131.551 -0.354651 -1.53558 0
M  V30 1400 C 132.461 0.50515 -2.29097 0
M  V30 1401 C 133.477 1.10223 -1.34636 0
M  V30 1402 O 134.653 1.11553 -1.67684 0
M  V30 1403 C 131.718 1.63479 -3.05738 0
M  V30 1404 C 130.779 1.06636 -4.15845 0
M  V30 1405 C 130.012 2.14217 -4.88822 0
M  V30 1406 O 130.235 3.35137 -4.61562 0
M  V30 1407 O 129.169 1.77887 -5.75013 0
M  V30 1408 H 132.995 -0.109237 -3.03503 0
M  V30 1409 H 130.58 -0.119357 -1.48922 0
M  V30 1410 H 132.462 2.2918 -3.5363 0
M  V30 1411 H 131.137 2.23478 -2.34178 0
M  V30 1412 H 130.044 0.373565 -3.7223 0
M  V30 1413 H 131.377 0.511081 -4.89539 0
M  V30 1414 N 133.029 1.57378 -0.0835403 0
M  V30 1415 C 134.275 1.94217 0.583733 0
M  V30 1416 C 134.608 0.964653 1.68547 0
M  V30 1417 O 133.883 -0.00422258 1.945 0
M  V30 1418 C 134.166 3.41253 1.14972 0
M  V30 1419 C 134.019 4.49768 0.0538277 0
M  V30 1420 C 135.338 3.89352 2.05166 0
M  V30 1421 H 132.457 0.706233 0.210724 0
M  V30 1422 H 135.099 1.89392 -0.1519 0
M  V30 1423 H 133.249 3.45496 1.77665 0
M  V30 1424 H 134.921 4.57641 -0.579851 0
M  V30 1425 H 133.164 4.29432 -0.614068 0
M  V30 1426 H 133.835 5.49817 0.490452 0
M  V30 1427 H 136.311 3.87189 1.52393 0
M  V30 1428 H 135.187 4.92822 2.41698 0
M  V30 1429 H 135.448 3.27973 2.96456 0
M  V30 1430 N 134.507 -0.190092 1.56449 0
M  V30 1431 C 135.437 -1.23816 1.97969 0
M  V30 1432 C 136.418 -1.47201 0.852395 0
M  V30 1433 O 137.603 -1.58854 1.1171 0
M  V30 1434 C 134.733 -2.5813 2.3235 0
M  V30 1435 C 133.687 -2.49348 3.47864 0
M  V30 1436 C 133.013 -3.8798 3.67934 0
M  V30 1437 C 134.313 -2.01424 4.81898 0
M  V30 1438 H 136.007 -0.89311 2.85769 0
M  V30 1439 H 133.553 -0.428177 1.37487 0
M  V30 1440 H 135.506 -3.31637 2.59991 0
M  V30 1441 H 134.23 -2.94386 1.41438 0
M  V30 1442 H 132.889 -1.78297 3.20321 0
M  V30 1443 H 132.537 -4.21597 2.74344 0
M  V30 1444 H 132.237 -3.82978 4.45648 0
M  V30 1445 H 133.761 -4.63101 3.97957 0
M  V30 1446 H 135.175 -2.64693 5.08538 0
M  V30 1447 H 133.572 -2.07413 5.63116 0
M  V30 1448 H 134.642 -0.967677 4.75146 0
M  V30 1449 N 135.985 -1.50799 -0.457987 0
M  V30 1450 C 136.932 -1.70617 -1.5543 0
M  V30 1451 C 137.902 -0.547562 -1.56815 0
M  V30 1452 O 139.087 -0.779647 -1.74144 0
M  V30 1453 C 136.227 -1.81831 -2.93311 0
M  V30 1454 C 135.34 -3.09278 -3.01615 0
M  V30 1455 C 134.475 -3.11209 -4.30491 0
M  V30 1456 C 133.514 -4.33055 -4.32585 0
M  V30 1457 N 132.651 -4.32652 -5.52952 0
M  V30 1458 H 137.491 -2.64207 -1.37836 0
M  V30 1459 H 135.028 -1.30959 -0.669937 0
M  V30 1460 H 136.986 -1.86314 -3.73287 0
M  V30 1461 H 135.616 -0.916685 -3.0951 0
M  V30 1462 H 134.668 -3.14203 -2.1443 0
M  V30 1463 H 135.98 -3.99233 -2.99022 0
M  V30 1464 H 135.134 -3.14494 -5.18824 0
M  V30 1465 H 133.873 -2.19106 -4.35711 0
M  V30 1466 H 132.878 -4.29969 -3.42647 0
M  V30 1467 H 134.103 -5.264 -4.29046 0
M  V30 1468 H 132.049 -3.43409 -5.58933 0
M  V30 1469 H 131.966 -5.16392 -5.52155 0
M  V30 1470 H 133.234 -4.40101 -6.43375 0
M  V30 1471 N 137.463 0.71206 -1.40597 0
M  V30 1472 C 138.711 1.46907 -1.38791 0
M  V30 1473 C 139.032 1.94998 0.00780391 0
M  V30 1474 O 138.302 1.70587 0.963174 0
M  V30 1475 H 136.882 0.545043 -0.51082 0
M  V30 1476 H 139.544 0.843882 -1.75683 0
M  V30 1477 H 138.64 2.34021 -2.06496 0
M  V30 1478 N 138.941 1.26152 0.944643 0
M  V30 1479 C 140.19 1.10883 1.68487 0
M  V30 1480 C 140.503 -0.348153 1.92477 0
M  V30 1481 O 141.709 -0.621459 2.64292 0
M  V30 1482 C 140.165 1.93624 3.03377 0
M  V30 1483 C 139.773 3.43875 2.87148 0
M  V30 1484 C 141.517 1.86954 3.81115 0
M  V30 1485 C 139.424 4.18875 4.1749 0
M  V30 1486 H 138.354 0.41135 0.631907 0
M  V30 1487 H 141.005 1.50433 1.05082 0
M  V30 1488 H 139.387 1.46904 3.67743 0
M  V30 1489 H 140.561 3.98338 2.31653 0
M  V30 1490 H 138.876 3.51744 2.22856 0
M  V30 1491 H 141.473 2.40275 4.77673 0
M  V30 1492 H 141.816 0.839518 4.07747 0
M  V30 1493 H 142.349 2.31477 3.23517 0
M  V30 1494 H 139.088 5.22332 3.96043 0
M  V30 1495 H 138.608 3.69193 4.72712 0
M  V30 1496 H 140.287 4.27134 4.85968 0
M  V30 1497 N 140.419 -1.14872 1.07899 0
M  V30 1498 C 141.351 -2.19425 0.662231 0
M  V30 1499 C 142.364 -1.60231 -0.288079 0
M  V30 1500 O 143.553 -1.78336 -0.076534 0
M  V30 1501 C 140.653 -3.38867 -0.0470695 0
M  V30 1502 C 139.826 -4.27597 0.920831 0
M  V30 1503 C 138.885 -5.25616 0.247805 0
M  V30 1504 O 137.911 -5.62189 0.890599 0
M  V30 1505 N 139.113 -5.71746 -1.00435 0
M  V30 1506 H 141.878 -2.55797 1.56166 0
M  V30 1507 H 139.439 -1.30042 0.964404 0
M  V30 1508 H 141.431 -4.01497 -0.50813 0
M  V30 1509 H 140.001 -3.00864 -0.848523 0
M  V30 1510 H 139.221 -3.61982 1.56087 0
M  V30 1511 H 140.509 -4.83748 1.57688 0
M  V30 1512 H 139.907 -5.44153 -1.54642 0
M  V30 1513 H 138.464 -6.36389 -1.40899 0
M  V30 1514 N 141.898 -0.863906 -1.31812 0
M  V30 1515 C 142.845 -0.313303 -2.28664 0
M  V30 1516 C 143.815 0.584868 -1.55462 0
M  V30 1517 O 145 0.517805 -1.83639 0
M  V30 1518 C 142.14 0.48441 -3.41683 0
M  V30 1519 C 141.253 -0.440594 -4.29747 0
M  V30 1520 C 140.388 0.370652 -5.29905 0
M  V30 1521 C 139.427 -0.551164 -6.09613 0
M  V30 1522 N 138.564 0.223462 -7.01744 0
M  V30 1523 H 143.404 -1.14444 -2.75148 0
M  V30 1524 H 140.941 -0.575769 -1.35364 0
M  V30 1525 H 142.899 0.962627 -4.05943 0
M  V30 1526 H 141.529 1.28029 -2.96325 0
M  V30 1527 H 140.581 -1.03724 -3.65986 0
M  V30 1528 H 141.893 -1.14767 -4.85417 0
M  V30 1529 H 141.047 0.911638 -5.99812 0
M  V30 1530 H 139.786 1.11105 -4.74876 0
M  V30 1531 H 138.791 -1.10396 -5.38603 0
M  V30 1532 H 140.016 -1.29032 -6.66729 0
M  V30 1533 H 137.962 0.946787 -6.49132 0
M  V30 1534 H 137.879 -0.424399 -7.54808 0
M  V30 1535 H 139.147 0.745876 -7.75923 0
M  V30 1536 N 143.376 1.44774 -0.622745 0
M  V30 1537 C 144.623 2.02121 -0.1239 0
M  V30 1538 C 144.951 1.48915 1.25118 0
M  V30 1539 O 144.206 0.660045 1.84233 0
M  V30 1540 C 144.505 3.57364 -0.0508323 0
M  V30 1541 C 144.171 4.29787 -1.36358 0
M  V30 1542 C 142.833 4.4929 -1.72314 0
M  V30 1543 C 145.185 4.71062 -2.23048 0
M  V30 1544 C 142.513 5.07325 -2.94682 0
M  V30 1545 C 144.865 5.30452 -3.44679 0
M  V30 1546 C 143.529 5.48175 -3.80868 0
M  V30 1547 H 142.799 0.739612 -0.0453381 0
M  V30 1548 H 145.446 1.73648 -0.807389 0
M  V30 1549 H 143.751 3.85202 0.715991 0
M  V30 1550 H 145.448 3.99456 0.351533 0
M  V30 1551 H 142.038 4.14932 -1.07375 0
M  V30 1552 H 146.222 4.55715 -1.96565 0
M  V30 1553 H 141.478 5.19235 -3.22809 0
M  V30 1554 H 145.652 5.61385 -4.12092 0
M  V30 1555 H 143.279 5.92912 -4.75773 0
M  V30 1556 N 144.854 0.36279 1.53368 0
M  V30 1557 C 146.265 -0.117022 1.86333 0
M  V30 1558 C 146.616 -1.48397 1.28347 0
M  V30 1559 O 145.741 -2.07787 0.604428 0
M  V30 1560 C 146.336 -0.21912 3.38091 0
M  V30 1561 C 144.895 -0.643184 3.70864 0
M  V30 1562 C 144.042 0.211318 2.76494 0
M  V30 1563 H 146.993 0.581687 1.47655 0
M  V30 1564 H 147.014 -1.04319 3.6592 0
M  V30 1565 H 146.526 0.775902 3.80265 0
M  V30 1566 H 144.627 -1.64654 3.34245 0
M  V30 1567 H 144.74 -0.41973 4.77258 0
M  V30 1568 H 143.104 -0.319367 2.5269 0
M  V30 1569 H 143.887 1.20383 3.21501 0
M  V30 1570 N 146.332 -1.57332 0.0918853 0
M  V30 1571 C 147.58 -1.93853 -0.571446 0
M  V30 1572 C 147.901 -0.974212 -1.6892 0
M  V30 1573 O 147.171 -0.0257254 -1.95883 0
M  V30 1574 H 145.751 -0.715666 -0.214082 0
M  V30 1575 H 148.413 -1.94287 0.154464 0
M  V30 1576 H 147.509 -2.96191 -0.983729 0
M  V30 1577 N 147.81 0.181792 -1.56548 0
M  V30 1578 C 149.059 0.898348 -1.8059 0
M  V30 1579 C 149.372 1.83862 -0.667379 0
M  V30 1580 O 150.578 2.59678 -0.792446 0
M  V30 1581 C 149.034 1.64791 -3.19956 0
M  V30 1582 C 148.642 0.751789 -4.41647 0
M  V30 1583 C 150.386 2.35331 -3.53298 0
M  V30 1584 C 148.293 1.50098 -5.72035 0
M  V30 1585 H 147.223 0.339194 -0.673397 0
M  V30 1586 H 149.874 0.151413 -1.82874 0
M  V30 1587 H 148.256 2.43921 -3.11959 0
M  V30 1588 H 149.43 -0.0018076 -4.608 0
M  V30 1589 H 147.745 0.156562 -4.16106 0
M  V30 1590 H 150.342 2.91958 -4.47956 0
M  V30 1591 H 150.685 3.10164 -2.77676 0
M  V30 1592 H 151.218 1.63154 -3.62803 0
M  V30 1593 H 147.957 0.795175 -6.50659 0
M  V30 1594 H 147.477 2.22817 -5.56878 0
M  V30 1595 H 149.156 2.05125 -6.13622 0
M  V30 1596 N 149.288 1.51039 0.449983 0
M  V30 1597 C 150.236 1.71995 1.5659 0
M  V30 1598 C 151.23 0.586029 1.5894 0
M  V30 1599 O 152.436 0.76709 1.62837 0
M  V30 1600 H 148.811 0.543233 0.520001 0
M  V30 1601 H 150.782 2.65562 1.36085 0
M  V30 1602 C 149.531 1.8506 2.9436 0
M  V30 1603 H 148.854 2.71712 2.93279 0
M  V30 1604 H 150.294 2.0374 3.71842 0
M  V30 1605 C 148.753 0.607277 3.31382 0
M  V30 1606 O 149.283 -0.243903 4.00959 0
M  V30 1607 N 147.489 0.455073 2.87015 0
M  V30 1608 H 147.036 1.14879 2.30566 0
M  V30 1609 H 146.994 -0.375611 3.12148 0
M  V30 1610 N 150.766 -0.704594 1.40972 0
M  V30 1611 C 151.996 -1.49138 1.42974 0
M  V30 1612 C 152.404 -1.89175 0.0308406 0
M  V30 1613 O 151.747 -1.56734 -0.958138 0
M  V30 1614 C 151.809 -2.79016 2.26694 0
M  V30 1615 C 151.473 -2.61236 3.74973 0
M  V30 1616 C 152.47 -2.27773 4.67349 0
M  V30 1617 C 150.155 -2.77158 4.18914 0
M  V30 1618 C 152.149 -2.10457 6.01653 0
M  V30 1619 C 149.836 -2.59459 5.53285 0
M  V30 1620 C 150.834 -2.26158 6.4447 0
M  V30 1621 O 150.522 -2.08605 7.76363 0
M  V30 1622 H 150.254 -0.466443 0.489292 0
M  V30 1623 H 152.808 -0.8758 1.85793 0
M  V30 1624 H 151.038 -3.42947 1.78673 0
M  V30 1625 H 152.727 -3.40782 2.20504 0
M  V30 1626 H 153.493 -2.15095 4.34694 0
M  V30 1627 H 149.372 -3.02064 3.48251 0
M  V30 1628 H 152.916 -1.84387 6.72791 0
M  V30 1629 H 148.813 -2.71725 5.85522 0
M  V30 1630 H 149.581 -2.23439 7.87412 0
M  V30 1631 N 152.244 -1.26651 -0.937939 0
M  V30 1632 C 153.655 -1.1125 -1.49934 0
M  V30 1633 C 154.006 0.306077 -1.93798 0
M  V30 1634 O 153.131 1.19792 -1.80219 0
M  V30 1635 C 153.726 -2.01339 -2.72485 0
M  V30 1636 C 152.285 -1.90074 -3.24883 0
M  V30 1637 C 151.432 -1.94498 -1.97651 0
M  V30 1638 H 154.383 -1.39693 -0.753091 0
M  V30 1639 H 154.404 -1.56319 -3.46907 0
M  V30 1640 H 153.916 -3.04577 -2.40529 0
M  V30 1641 H 152.017 -0.897827 -3.61621 0
M  V30 1642 H 152.13 -2.75778 -3.9177 0
M  V30 1643 H 150.494 -1.38591 -2.13693 0
M  V30 1644 H 151.277 -2.99372 -1.68022 0
M  V30 1645 N 153.722 1.14298 -1.08507 0
M  V30 1646 C 154.968 1.85633 -0.816581 0
M  V30 1647 C 155.301 1.82784 0.656021 0
M  V30 1648 O 154.576 1.25926 1.48233 0
M  V30 1649 C 154.859 3.34223 -1.34041 0
M  V30 1650 C 154.712 3.45639 -2.87843 0
M  V30 1651 C 156.031 4.29356 -0.9665 0
M  V30 1652 H 153.15 0.67402 -0.298104 0
M  V30 1653 H 155.792 1.34214 -1.34487 0
M  V30 1654 H 153.942 3.78144 -0.89104 0
M  V30 1655 H 155.614 3.10498 -3.41158 0
M  V30 1656 H 153.857 2.86817 -3.25451 0
M  V30 1657 H 154.528 4.50089 -3.19569 0
M  V30 1658 H 157.004 3.93457 -1.35391 0
M  V30 1659 H 155.88 5.3178 -1.3602 0
M  V30 1660 H 156.141 4.41919 0.126362 0
M  V30 1661 N 155.201 0.870884 1.31352 0
M  V30 1662 C 156.131 0.343096 2.30966 0
M  V30 1663 C 157.112 -0.566507 1.60389 0
M  V30 1664 O 158.297 -0.483336 1.88089 0
M  V30 1665 C 155.427 -0.455487 3.443 0
M  V30 1666 C 154.381 0.361103 4.26474 0
M  V30 1667 C 153.707 -0.563221 5.31725 0
M  V30 1668 C 155.007 1.59566 4.97329 0
M  V30 1669 H 156.701 1.17548 2.75359 0
M  V30 1670 H 154.247 0.566686 1.32381 0
M  V30 1671 H 156.2 -0.83525 4.13039 0
M  V30 1672 H 154.924 -1.32139 2.98675 0
M  V30 1673 H 153.583 0.722825 3.59403 0
M  V30 1674 H 153.231 -1.42643 4.82351 0
M  V30 1675 H 152.931 -0.0207409 5.87596 0
M  V30 1676 H 154.455 -0.939808 6.03324 0
M  V30 1677 H 155.869 1.28728 5.58661 0
M  V30 1678 H 154.266 2.07728 5.63 0
M  V30 1679 H 155.336 2.34798 4.24262 0
M  V30 1680 N 156.679 -1.44442 0.630414 0
M  V30 1681 C 157.907 -2.06414 0.141671 0
M  V30 1682 C 158.322 -1.47105 -1.18345 0
M  V30 1683 O 157.679 -0.593662 -1.72574 0
M  V30 1684 C 157.73 -3.61494 0.0199784 0
M  V30 1685 O 157.451 -4.18594 1.29269 0
M  V30 1686 C 158.952 -4.40499 -0.497544 0
M  V30 1687 H 156.172 -0.666292 0.0793452 0
M  V30 1688 H 158.716 -1.85323 0.864614 0
M  V30 1689 H 156.871 -3.8185 -0.653402 0
M  V30 1690 H 157.285 -5.12026 1.13707 0
M  V30 1691 H 158.759 -5.49433 -0.531708 0
M  V30 1692 H 159.236 -4.11895 -1.52445 0
M  V30 1693 H 159.842 -4.25061 0.142562 0
M  V30 1694 N 158.157 -0.370918 -1.53173 0
M  V30 1695 C 159.568 0.107139 -1.86392 0
M  V30 1696 C 159.919 1.47714 -1.29132 0
M  V30 1697 O 159.044 2.07464 -0.615439 0
M  V30 1698 C 159.639 0.201187 -3.38202 0
M  V30 1699 C 158.198 0.623507 -3.712 0
M  V30 1700 C 157.345 -0.225978 -2.76378 0
M  V30 1701 H 160.296 -0.58951 -1.47345 0
M  V30 1702 H 160.317 1.02377 -3.66468 0
M  V30 1703 H 159.829 -0.796058 -3.79848 0
M  V30 1704 H 157.93 1.62879 -3.35114 0
M  V30 1705 H 158.043 0.394414 -4.77474 0
M  V30 1706 H 156.407 0.305962 -2.52856 0
M  V30 1707 H 157.19 -1.22086 -3.20858 0
M  V30 1708 N 159.635 1.57281 -0.100228 0
M  V30 1709 C 160.583 2.15542 0.874328 0
M  V30 1710 C 161.577 1.09962 1.28859 0
M  V30 1711 O 162.783 1.28298 1.26252 0
M  V30 1712 H 159.158 0.689567 0.300003 0
M  V30 1713 H 161.129 2.96241 0.35829 0
M  V30 1714 C 159.878 2.75454 2.1218 0
M  V30 1715 H 159.201 3.56384 1.81193 0
M  V30 1716 H 160.641 3.19781 2.78417 0
M  V30 1717 C 159.1 1.71602 2.89921 0
M  V30 1718 O 159.63 1.15804 3.84646 0
M  V30 1719 N 157.836 1.41975 2.53558 0
M  V30 1720 H 157.383 1.87539 1.76598 0
M  V30 1721 H 157.341 0.727274 3.05873 0
M  V30 1722 N 161.113 -0.173488 1.56642 0
M  V30 1723 C 162.043 -1.2171 1.99271 0
M  V30 1724 C 163.024 -1.46289 0.867959 0
M  V30 1725 O 164.209 -1.5766 1.13388 0
M  V30 1726 C 161.339 -2.55651 2.35074 0
M  V30 1727 C 160.293 -2.45645 3.50489 0
M  V30 1728 C 159.619 -3.84056 3.72028 0
M  V30 1729 C 160.919 -1.96302 4.84007 0
M  V30 1730 H 162.613 -0.86275 2.867 0
M  V30 1731 H 160.159 -0.413571 1.37933 0
M  V30 1732 H 162.112 -3.2886 2.63494 0
M  V30 1733 H 160.836 -2.92869 1.44552 0
M  V30 1734 H 159.495 -1.7489 3.22194 0
M  V30 1735 H 159.143 -4.18664 2.788 0
M  V30 1736 H 158.843 -3.7823 4.49684 0
M  V30 1737 H 160.367 -4.58854 4.02846 0
M  V30 1738 H 161.781 -2.59284 5.11317 0
M  V30 1739 H 160.178 -2.01429 5.65284 0
M  V30 1740 H 161.248 -0.917226 4.76146 0
M  V30 1741 N 162.591 -1.51276 -0.441967 0
M  V30 1742 C 163.538 -1.72256 -1.53612 0
M  V30 1743 C 164.508 -0.564164 -1.56225 0
M  V30 1744 O 165.693 -0.798074 -1.73307 0
M  V30 1745 C 162.833 -1.84932 -2.91366 0
M  V30 1746 C 161.946 -3.12459 -2.98317 0
M  V30 1747 C 161.081 -3.15758 -4.27166 0
M  V30 1748 C 160.12 -4.37619 -4.27967 0
M  V30 1749 N 159.257 -4.38493 -5.48333 0
M  V30 1750 H 164.097 -2.65654 -1.35026 0
M  V30 1751 H 161.634 -1.31662 -0.656009 0
M  V30 1752 H 163.592 -1.90263 -3.7129 0
M  V30 1753 H 162.222 -0.949461 -3.08521 0
M  V30 1754 H 161.274 -3.1646 -2.11086 0
M  V30 1755 H 162.586 -4.02382 -2.94771 0
M  V30 1756 H 161.74 -3.19979 -5.15459 0
M  V30 1757 H 160.479 -2.23715 -4.33362 0
M  V30 1758 H 159.484 -4.33579 -3.38067 0
M  V30 1759 H 160.709 -5.30921 -4.23438 0
M  V30 1760 H 158.655 -3.49318 -5.55259 0
M  V30 1761 H 158.572 -5.22219 -5.46647 0
M  V30 1762 H 159.84 -4.469 -6.38671 0
M  V30 1763 N 164.069 0.697108 -1.41344 0
M  V30 1764 C 165.317 1.45426 -1.40341 0
M  V30 1765 C 165.638 1.94996 -0.0128787 0
M  V30 1766 O 164.908 1.71599 0.945027 0
M  V30 1767 H 163.488 0.539594 -0.516573 0
M  V30 1768 H 166.15 0.825201 -1.76569 0
M  V30 1769 H 165.246 2.31817 -2.08967 0
M  V30 1770 N 165.547 1.27147 0.931209 0
M  V30 1771 C 166.794 1.13278 1.67852 0
M  V30 1772 C 167.122 -0.32204 1.91815 0
M  V30 1773 O 166.377 -1.25224 1.50391 0
M  V30 1774 C 166.676 1.8579 3.05314 0
M  V30 1775 C 166.342 3.35657 3.01073 0
M  V30 1776 C 165.004 3.76536 2.99623 0
M  V30 1777 C 167.356 4.31299 2.92627 0
M  V30 1778 C 164.684 5.11426 2.87506 0
M  V30 1779 C 167.036 5.66242 2.82051 0
M  V30 1780 C 165.7 6.06418 2.7895 0
M  V30 1781 H 164.97 0.414515 0.614214 0
M  V30 1782 H 167.617 1.57712 1.08624 0
M  V30 1783 H 165.922 1.33854 3.68226 0
M  V30 1784 H 167.619 1.72491 3.62005 0
M  V30 1785 H 164.209 3.03146 3.02986 0
M  V30 1786 H 168.393 4.00692 2.92848 0
M  V30 1787 H 163.649 5.41705 2.83489 0
M  V30 1788 H 167.823 6.40026 2.74481 0
M  V30 1789 H 165.45 7.10895 2.69318 0
M  V30 1790 N 167.025 -1.13721 1.09112 0
M  V30 1791 C 167.935 -2.22638 0.73957 0
M  V30 1792 C 168.951 -1.72091 -0.257068 0
M  V30 1793 O 170.127 -2.01155 -0.0992154 0
M  V30 1794 C 167.192 -3.46322 0.16191 0
M  V30 1795 C 166.253 -4.11775 1.21408 0
M  V30 1796 C 165.486 -5.29555 0.663891 0
M  V30 1797 O 165.709 -5.68077 -0.514274 0
M  V30 1798 O 164.643 -5.84973 1.41738 0
M  V30 1799 H 168.469 -2.55074 1.64836 0
M  V30 1800 H 166.054 -1.21791 0.865289 0
M  V30 1801 H 167.936 -4.21107 -0.157073 0
M  V30 1802 H 166.611 -3.15593 -0.719932 0
M  V30 1803 H 165.518 -3.3883 1.58571 0
M  V30 1804 H 166.851 -4.46627 2.06845 0
M  V30 1805 N 168.503 -0.877838 -1.30888 0
M  V30 1806 C 169.466 -0.344265 -2.266 0
M  V30 1807 C 170.466 0.50922 -1.52524 0
M  V30 1808 O 171.656 0.317398 -1.71284 0
M  V30 1809 C 168.788 0.510198 -3.37061 0
M  V30 1810 H 169.981 -1.1893 -2.7531 0
M  V30 1811 H 167.534 -0.654088 -1.41956 0
M  V30 1812 H 168.269 1.37612 -2.93655 0
M  V30 1813 H 168.054 -0.101047 -3.9197 0
M  V30 1814 H 169.544 0.875537 -4.08319 0
M  V30 1815 N 169.982 1.44106 -0.638065 0
M  V30 1816 C 170.945 2.29138 0.0531013 0
M  V30 1817 C 171.945 1.41409 0.765506 0
M  V30 1818 O 173.135 1.63206 0.609046 0
M  V30 1819 C 170.267 3.23144 1.08584 0
M  V30 1820 H 171.46 2.91739 -0.694883 0
M  V30 1821 H 169.013 1.51134 -0.398538 0
M  V30 1822 H 169.748 2.65408 1.86357 0
M  V30 1823 H 169.533 3.87804 0.578852 0
M  V30 1824 H 171.023 3.87004 1.56899 0
M  V30 1825 N 171.46 0.379036 1.52974 0
M  V30 1826 C 172.706 -0.206727 2.01744 0
M  V30 1827 C 173.039 -1.47314 1.26539 0
M  V30 1828 O 172.314 -1.91084 0.362903 0
M  V30 1829 C 172.597 -0.485066 3.56818 0
M  V30 1830 C 172.45 0.795919 4.42702 0
M  V30 1831 C 173.769 -1.28003 4.21074 0
M  V30 1832 H 170.888 -0.0736607 0.73331 0
M  V30 1833 H 173.53 0.506581 1.83122 0
M  V30 1834 H 171.68 -1.09272 3.72816 0
M  V30 1835 H 173.352 1.43307 4.38476 0
M  V30 1836 H 171.595 1.41344 4.10127 0
M  V30 1837 H 172.266 0.555947 5.49193 0
M  V30 1838 H 174.742 -0.765867 4.08991 0
M  V30 1839 H 173.618 -1.44352 5.29579 0
M  V30 1840 H 173.879 -2.29236 3.78026 0
M  V30 1841 N 172.938 -1.57226 0.108567 0
M  V30 1842 C 173.901 -2.13602 -0.831082 0
M  V30 1843 C 174.901 -1.06841 -1.20173 0
M  V30 1844 O 176.091 -1.32666 -1.12895 0
M  V30 1845 C 173.223 -2.66769 -2.12243 0
M  V30 1846 H 174.416 -2.97951 -0.341317 0
M  V30 1847 H 171.969 -1.55667 -0.14057 0
M  V30 1848 H 172.704 -1.85977 -2.65675 0
M  V30 1849 H 172.489 -3.44839 -1.86625 0
M  V30 1850 H 173.979 -3.10332 -2.79435 0
M  V30 1851 N 174.416 0.165178 -1.56732 0
M  V30 1852 C 175.379 1.18822 -1.95995 0
M  V30 1853 C 176.379 1.3685 -0.84431 0
M  V30 1854 O 177.569 1.34152 -1.11126 0
M  V30 1855 C 174.701 2.5521 -2.26011 0
M  V30 1856 H 175.894 0.851825 -2.87548 0
M  V30 1857 H 173.447 0.407857 -1.50885 0
M  V30 1858 H 174.182 2.93852 -1.37191 0
M  V30 1859 H 173.967 2.43489 -3.07336 0
M  V30 1860 H 175.457 3.28927 -2.57288 0
M  V30 1861 N 175.894 1.51508 0.433938 0
M  V30 1862 C 177.142 1.6402 1.18075 0
M  V30 1863 C 177.463 0.360328 1.91642 0
M  V30 1864 O 176.733 -0.623945 1.85698 0
M  V30 1865 H 175.313 0.6045 0.43885 0
M  V30 1866 H 177.975 1.88452 0.497178 0
M  V30 1867 H 177.071 2.46949 1.90847 0
M  V30 1868 N 177.372 -0.689602 1.41712 0
M  V30 1869 C 178.335 -1.78521 1.43746 0
M  V30 1870 C 179.335 -1.57436 0.327191 0
M  V30 1871 O 180.525 -1.64 0.587348 0
M  V30 1872 C 177.657 -3.16971 1.25467 0
M  V30 1873 H 178.85 -1.78108 2.41283 0
M  V30 1874 H 176.403 -0.89781 1.27942 0
M  V30 1875 H 177.138 -3.23019 0.287948 0
M  V30 1876 H 176.923 -3.33678 2.05917 0
M  V30 1877 H 178.413 -3.96935 1.2974 0
M  V30 1878 N 178.85 -1.27639 -0.924453 0
M  V30 1879 C 179.797 -1.10644 -2.0255 0
M  V30 1880 C 180.767 -0.00658438 -1.66099 0
M  V30 1881 O 181.952 -0.16952 -1.90045 0
M  V30 1882 C 179.092 -0.76309 -3.36557 0
M  V30 1883 C 178.205 -1.94091 -3.85944 0
M  V30 1884 C 177.34 -1.53914 -5.08413 0
M  V30 1885 C 176.379 -2.68425 -5.50104 0
M  V30 1886 N 175.516 -2.28815 -6.63768 0
M  V30 1887 H 180.356 -2.04858 -2.16419 0
M  V30 1888 H 177.893 -1.01974 -1.06017 0
M  V30 1889 H 179.851 -0.544822 -4.13627 0
M  V30 1890 H 178.481 0.142102 -3.22487 0
M  V30 1891 H 177.533 -2.27162 -3.05125 0
M  V30 1892 H 178.845 -2.7998 -4.12811 0
M  V30 1893 H 177.999 -1.28231 -5.92994 0
M  V30 1894 H 176.738 -0.651391 -4.8333 0
M  V30 1895 H 175.743 -2.94819 -4.64071 0
M  V30 1896 H 176.968 -3.57826 -5.7718 0
M  V30 1897 H 174.914 -1.42495 -6.40337 0
M  V30 1898 H 174.831 -3.08242 -6.90306 0
M  V30 1899 H 176.099 -2.06387 -7.51681 0
M  V30 1900 N 180.328 1.1314 -1.09713 0
M  V30 1901 C 181.238 2.22242 -0.751367 0
M  V30 1902 C 182.254 1.72224 0.247938 0
M  V30 1903 O 183.43 2.01205 0.0885463 0
M  V30 1904 C 180.495 3.46231 -0.180274 0
M  V30 1905 C 179.556 4.11125 -1.2359 0
M  V30 1906 C 178.789 5.29195 -0.691966 0
M  V30 1907 O 179.012 5.68342 0.48414 0
M  V30 1908 O 177.946 5.84214 -1.44838 0
M  V30 1909 H 181.772 2.54197 -1.66186 0
M  V30 1910 H 179.357 1.21331 -0.871735 0
M  V30 1911 H 181.239 4.21185 0.134739 0
M  V30 1912 H 179.914 3.1597 0.703185 0
M  V30 1913 H 178.821 3.37985 -1.60366 0
M  V30 1914 H 180.154 4.45524 -2.09211 0
M  V30 1915 N 181.806 0.884767 1.30421 0
M  V30 1916 C 183.052 0.503851 1.96441 0
M  V30 1917 C 183.385 -0.944518 1.69684 0
M  V30 1918 O 182.66 -1.66737 1.00145 0
M  V30 1919 C 182.943 0.779085 3.51571 0
M  V30 1920 C 182.796 2.27807 3.87846 0
M  V30 1921 C 184.115 0.255452 4.39358 0
M  V30 1922 H 181.234 0.184533 0.713524 0
M  V30 1923 H 183.876 1.10872 1.54297 0
M  V30 1924 H 182.026 0.264274 3.876 0
M  V30 1925 H 183.698 2.86127 3.61841 0
M  V30 1926 H 181.941 2.74479 3.35922 0
M  V30 1927 H 182.612 2.42125 4.96064 0
M  V30 1928 H 185.088 0.696079 4.10236 0
M  V30 1929 H 183.964 0.477361 5.4682 0
M  V30 1930 H 184.225 -0.843293 4.33983 0
M  V30 1931 N 183.284 -1.43765 0.645699 0
M  V30 1932 C 184.53 -2.02197 0.156271 0
M  V30 1933 C 184.863 -1.50776 -1.22393 0
M  V30 1934 O 184.138 -0.697771 -1.81553 0
M  V30 1935 C 184.421 -3.59749 0.158872 0
M  V30 1936 C 184.274 -4.21419 1.57245 0
M  V30 1937 C 185.593 -4.37149 -0.50879 0
M  V30 1938 H 182.712 -0.734694 0.0582602 0
M  V30 1939 H 185.354 -1.71157 0.824951 0
M  V30 1940 H 183.504 -3.86325 -0.410525 0
M  V30 1941 H 185.176 -4.059 2.19186 0
M  V30 1942 H 183.419 -3.78356 2.122 0
M  V30 1943 H 184.09 -5.30482 1.52619 0
M  V30 1944 H 186.566 -4.16093 -0.024412 0
M  V30 1945 H 185.442 -5.4683 -0.476213 0
M  V30 1946 H 185.703 -4.12839 -1.58165 0
M  V30 1947 N 184.763 -0.387143 -1.52771 0
M  V30 1948 C 186.012 0.19697 -2.00736 0
M  V30 1949 C 186.325 1.48082 -1.27793 0
M  V30 1950 O 187.531 2.14485 -1.66458 0
M  V30 1951 C 185.987 0.401568 -3.57653 0
M  V30 1952 C 185.595 -0.868907 -4.39493 0
M  V30 1953 C 187.339 0.942164 -4.13912 0
M  V30 1954 C 185.246 -0.632705 -5.88006 0
M  V30 1955 H 184.176 0.0773827 -0.750019 0
M  V30 1956 H 186.827 -0.50921 -1.76293 0
M  V30 1957 H 185.209 1.16954 -3.78335 0
M  V30 1958 H 186.383 -1.64133 -4.30577 0
M  V30 1959 H 184.698 -1.33429 -3.94443 0
M  V30 1960 H 187.295 1.13455 -5.22525 0
M  V30 1961 H 187.638 1.9106 -3.69867 0
M  V30 1962 H 188.171 0.233814 -3.97112 0
M  V30 1963 H 184.91 -1.57208 -6.36369 0
M  V30 1964 H 184.43 0.100825 -5.99715 0
M  V30 1965 H 186.109 -0.26642 -6.46451 0
M  V30 1966 N 186.241 1.57166 -0.116904 0
M  V30 1967 C 187.488 1.95123 0.541603 0
M  V30 1968 C 187.816 1.00006 1.6682 0
M  V30 1969 O 187.071 0.0235658 1.95686 0
M  V30 1970 C 187.37 3.39508 1.11664 0
M  V30 1971 C 187.036 4.50762 0.111606 0
M  V30 1972 C 185.698 4.80918 -0.164758 0
M  V30 1973 C 188.05 5.18036 -0.573438 0
M  V30 1974 C 185.378 5.75666 -1.13249 0
M  V30 1975 C 187.73 6.13824 -1.52978 0
M  V30 1976 C 186.394 6.42374 -1.81415 0
M  V30 1977 H 185.664 0.714005 0.198187 0
M  V30 1978 H 188.311 1.9048 -0.197365 0
M  V30 1979 H 186.616 3.40835 1.93232 0
M  V30 1980 H 188.313 3.66189 1.63422 0
M  V30 1981 H 184.903 4.27272 0.337192 0
M  V30 1982 H 189.087 4.94896 -0.373092 0
M  V30 1983 H 184.343 5.96092 -1.35958 0
M  V30 1984 H 188.517 6.65039 -2.06629 0
M  V30 1985 H 186.144 7.15599 -2.56557 0
M  V30 1986 N 187.719 -0.156864 1.56817 0
M  V30 1987 C 188.967 -0.869404 1.82444 0
M  V30 1988 C 189.288 -1.82147 0.69623 0
M  V30 1989 O 188.558 -1.93847 -0.28287 0
M  V30 1990 H 187.138 -0.324043 0.673056 0
M  V30 1991 H 189.8 -0.153224 1.94297 0
M  V30 1992 H 188.896 -1.43761 2.77019 0
M  V30 1993 N 189.197 -1.51736 -0.425897 0
M  V30 1994 C 190.16 -1.73271 -1.50032 0
M  V30 1995 C 191.16 -0.602639 -1.4908 0
M  V30 1996 O 192.35 -0.87033 -1.509 0
M  V30 1997 C 189.482 -1.79969 -2.89523 0
M  V30 1998 H 190.675 -2.69172 -1.32237 0
M  V30 1999 H 188.228 -1.41899 -0.65532 0
M  V30 2000 H 188.963 -0.859241 -3.1271 0
M  V30 2001 H 188.748 -2.62109 -2.91619 0
M  V30 2002 H 190.238 -1.9843 -3.67444 0
M  V30 2003 N 190.675 0.682077 -1.42076 0
M  V30 2004 C 191.638 1.77756 -1.44691 0
M  V30 2005 C 192.638 1.5726 -0.335535 0
M  V30 2006 O 193.828 1.63686 -0.596037 0
M  V30 2007 C 190.96 3.16301 -1.27146 0
M  V30 2008 H 192.153 1.76826 -2.42224 0
M  V30 2009 H 189.706 0.891012 -1.28416 0
M  V30 2010 H 190.441 3.22862 -0.305075 0
M  V30 2011 H 190.226 3.32581 -2.07683 0
M  V30 2012 H 191.716 3.96241 -1.31843 0
M  V30 2013 N 192.153 1.28127 0.917671 0
M  V30 2014 C 193.378 1.18007 1.70555 0
M  V30 2015 C 193.803 -0.258257 1.86319 0
M  V30 2016 O 193.161 -1.1869 1.37049 0
M  V30 2017 C 193.209 1.87948 3.07746 0
M  V30 2018 O 192.313 1.18427 3.9503 0
M  V30 2019 H 191.654 0.409867 0.522403 0
M  V30 2020 H 194.184 1.69379 1.1477 0
M  V30 2021 H 194.194 1.95701 3.58001 0
M  V30 2022 H 192.869 2.92573 2.95591 0
M  V30 2023 H 191.446 1.18811 3.53466 0
M  V30 2024 N 193.631 -1.12557 1.10312 0
M  V30 2025 C 194.541 -2.21841 0.763142 0
M  V30 2026 C 195.557 -1.72354 -0.238801 0
M  V30 2027 O 196.733 -2.01249 -0.0778746 0
M  V30 2028 C 193.798 -3.46131 0.198632 0
M  V30 2029 C 192.859 -4.10464 1.25769 0
M  V30 2030 C 192.092 -5.28821 0.72002 0
M  V30 2031 O 192.315 -5.6859 -0.453993 0
M  V30 2032 O 191.249 -5.83437 1.47935 0
M  V30 2033 H 195.075 -2.53312 1.67532 0
M  V30 2034 H 192.66 -1.20867 0.878157 0
M  V30 2035 H 194.542 -4.2125 -0.112401 0
M  V30 2036 H 193.217 -3.16338 -0.686419 0
M  V30 2037 H 192.124 -3.3713 1.62156 0
M  V30 2038 H 193.457 -4.44408 2.11571 0
M  V30 2039 N 195.109 -0.891671 -1.2995 0
M  V30 2040 C 196.039 -0.379797 -2.30391 0
M  V30 2041 C 197.02 0.540919 -1.6127 0
M  V30 2042 O 198.205 0.453352 -1.88834 0
M  V30 2043 C 195.335 0.400654 -3.44981 0
M  V30 2044 C 194.289 -0.428905 -4.25846 0
M  V30 2045 C 193.615 0.478557 -5.32554 0
M  V30 2046 C 194.915 -1.67458 -4.94727 0
M  V30 2047 H 196.609 -1.21914 -2.73454 0
M  V30 2048 H 194.155 -0.587675 -1.31462 0
M  V30 2049 H 196.108 0.769434 -4.14316 0
M  V30 2050 H 194.832 1.27371 -3.0074 0
M  V30 2051 H 193.491 -0.779911 -3.58208 0
M  V30 2052 H 193.139 1.34951 -4.84559 0
M  V30 2053 H 192.839 -0.0727433 -5.87555 0
M  V30 2054 H 194.363 0.843705 -6.04743 0
M  V30 2055 H 195.777 -1.376 -5.56542 0
M  V30 2056 H 194.174 -2.16659 -5.59624 0
M  V30 2057 H 195.244 -2.41518 -4.20473 0
M  V30 2058 N 196.587 1.43421 -0.653314 0
M  V30 2059 C 197.834 2.01812 -0.166745 0
M  V30 2060 C 198.162 1.51535 1.21931 0
M  V30 2061 O 197.417 0.698975 1.82792 0
M  V30 2062 C 197.716 3.57176 -0.126623 0
M  V30 2063 C 197.382 4.26798 -1.45444 0
M  V30 2064 C 196.044 4.45534 -1.81805 0
M  V30 2065 C 198.396 4.66225 -2.32989 0
M  V30 2066 C 195.724 5.00961 -3.05377 0
M  V30 2067 C 198.076 5.23021 -3.55853 0
M  V30 2068 C 196.74 5.39973 -3.9241 0
M  V30 2069 H 196.01 0.738484 -0.0610162 0
M  V30 2070 H 198.657 1.71896 -0.84404 0
M  V30 2071 H 196.962 3.86634 0.634123 0
M  V30 2072 H 198.659 4.00112 0.266723 0
M  V30 2073 H 195.249 4.12561 -1.16153 0
M  V30 2074 H 199.433 4.51443 -2.06187 0
M  V30 2075 H 194.689 5.12271 -3.3375 0
M  V30 2076 H 198.863 5.52518 -4.23907 0
M  V30 2077 H 196.49 5.82687 -4.88242 0
M  V30 2078 N 198.065 0.39524 1.52563 0
M  V30 2079 C 199.293 -0.184943 2.06072 0
M  V30 2080 C 199.708 -1.40021 1.26647 0
M  V30 2081 O 199.065 -1.79767 0.314672 0
M  V30 2082 C 199.116 -0.549179 3.57304 0
M  V30 2083 O 198.837 0.617813 4.33722 0
M  V30 2084 C 200.338 -1.18459 4.2718 0
M  V30 2085 H 197.558 -0.0265025 0.670476 0
M  V30 2086 H 200.102 0.562184 1.96621 0
M  V30 2087 H 198.257 -1.2462 3.66809 0
M  V30 2088 H 198.671 0.317091 5.23541 0
M  V30 2089 H 200.145 -1.38976 5.34219 0
M  V30 2090 H 200.622 -2.15368 3.82771 0
M  V30 2091 H 201.228 -0.528163 4.22008 0
M  V30 2092 N 199.544 -1.57102 0.125237 0
M  V30 2093 C 200.491 -2.15641 -0.822655 0
M  V30 2094 C 201.461 -1.08313 -1.25927 0
M  V30 2095 O 202.646 -1.36251 -1.33567 0
M  V30 2096 C 199.786 -2.76504 -2.06494 0
M  V30 2097 C 198.899 -3.98158 -1.67612 0
M  V30 2098 C 198.034 -4.47088 -2.86854 0
M  V30 2099 C 197.073 -5.6126 -2.44242 0
M  V30 2100 N 196.21 -6.04905 -3.56419 0
M  V30 2101 H 201.05 -2.96313 -0.316625 0
M  V30 2102 H 198.587 -1.46388 -0.144588 0
M  V30 2103 H 200.545 -3.09925 -2.79289 0
M  V30 2104 H 199.175 -1.98512 -2.54545 0
M  V30 2105 H 198.227 -3.70858 -0.846661 0
M  V30 2106 H 199.539 -4.80934 -1.32301 0
M  V30 2107 H 198.693 -4.82451 -3.67867 0
M  V30 2108 H 197.432 -3.63275 -3.25396 0
M  V30 2109 H 196.437 -5.25495 -1.61663 0
M  V30 2110 H 197.662 -6.46843 -2.0681 0
M  V30 2111 H 195.608 -5.24032 -3.94623 0
M  V30 2112 H 195.525 -6.82552 -3.25051 0
M  V30 2113 H 196.793 -6.44907 -4.37853 0
M  V30 2114 N 201.022 0.148545 -1.56898 0
M  V30 2115 C 201.969 1.18345 -1.98149 0
M  V30 2116 C 202.939 1.42772 -0.848848 0
M  V30 2117 O 204.124 1.55132 -1.11079 0
M  V30 2118 C 201.264 2.51231 -2.36594 0
M  V30 2119 C 200.377 2.33991 -3.63142 0
M  V30 2120 C 199.512 3.59902 -3.90697 0
M  V30 2121 C 198.551 3.37692 -5.1052 0
M  V30 2122 N 197.688 4.5573 -5.34092 0
M  V30 2123 H 202.528 0.82467 -2.86362 0
M  V30 2124 H 200.065 0.395756 -1.41676 0
M  V30 2125 H 202.023 3.28713 -2.56912 0
M  V30 2126 H 200.653 2.85059 -1.51463 0
M  V30 2127 H 199.705 1.47572 -3.50609 0
M  V30 2128 H 201.017 2.13539 -4.5078 0
M  V30 2129 H 200.171 4.45813 -4.11505 0
M  V30 2130 H 198.91 3.83357 -3.01477 0
M  V30 2131 H 197.915 2.5017 -4.89587 0
M  V30 2132 H 199.14 3.15637 -6.0129 0
M  V30 2133 H 197.086 4.79361 -4.47827 0
M  V30 2134 H 197.003 4.38274 -6.15996 0
M  V30 2135 H 198.271 5.42858 -5.59397 0
M  V30 2136 N 202.5 1.5196 0.417844 0
M  V30 2137 C 203.448 1.75278 1.52907 0
M  V30 2138 C 204.442 0.619611 1.57662 0
M  V30 2139 O 205.648 0.801457 1.61173 0
M  V30 2140 H 202.023 0.554141 0.508362 0
M  V30 2141 H 203.994 2.68389 1.30422 0
M  V30 2142 C 202.743 1.91262 2.90369 0
M  V30 2143 H 202.066 2.77872 2.8745 0
M  V30 2144 H 203.506 2.11581 3.67436 0
M  V30 2145 C 201.965 0.677431 3.30019 0
M  V30 2146 O 202.495 -0.158799 4.01386 0
M  V30 2147 N 200.701 0.515851 2.85985 0
M  V30 2148 H 200.248 1.19744 2.28077 0
M  V30 2149 H 200.206 -0.309315 3.12875 0
M  V30 2150 N 203.978 -0.674533 1.42435 0
M  V30 2151 C 205.227 -1.43034 1.42212 0
M  V30 2152 C 205.54 -1.95555 0.0420788 0
M  V30 2153 O 206.746 -2.71374 -0.0827558 0
M  V30 2154 C 205.202 -2.58748 2.50155 0
M  V30 2155 C 204.81 -2.12925 3.94166 0
M  V30 2156 C 206.554 -3.36257 2.59098 0
M  V30 2157 C 204.461 -3.25723 4.93618 0
M  V30 2158 H 203.391 -0.537345 0.528939 0
M  V30 2159 H 206.042 -0.73024 1.68344 0
M  V30 2160 H 204.424 -3.31128 2.17188 0
M  V30 2161 H 205.598 -1.47697 4.36488 0
M  V30 2162 H 203.913 -1.48354 3.89076 0
M  V30 2163 H 206.51 -4.20264 3.30578 0
M  V30 2164 H 206.853 -3.82866 1.63461 0
M  V30 2165 H 207.386 -2.70947 2.9126 0
M  V30 2166 H 204.125 -2.84105 5.90732 0
M  V30 2167 H 203.645 -3.89732 4.55926 0
M  V30 2168 H 205.324 -3.91186 5.15347 0
M  V30 2169 N 205.456 -1.28612 -0.910864 0
M  V30 2170 C 206.404 -1.1265 -2.03501 0
M  V30 2171 C 207.398 -0.0450054 -1.6934 0
M  V30 2172 O 208.604 -0.203988 -1.7884 0
M  V30 2173 H 204.979 -0.347639 -0.666822 0
M  V30 2174 H 206.95 -2.07849 -2.14106 0
M  V30 2175 C 205.699 -0.808143 -3.38178 0
M  V30 2176 H 205.022 -1.63231 -3.6496 0
M  V30 2177 H 206.462 -0.736426 -4.17556 0
M  V30 2178 C 204.921 0.488226 -3.33344 0
M  V30 2179 O 205.451 1.51766 -3.71927 0
M  V30 2180 N 203.657 0.490009 -2.86439 0
M  V30 2181 H 203.204 -0.348161 -2.55236 0
M  V30 2182 H 203.162 1.35741 -2.83587 0
M  V30 2183 N 206.934 1.1197 -1.10907 0
M  V30 2184 C 208.174 1.85224 -0.864378 0
M  V30 2185 C 208.538 1.82411 0.599178 0
M  V30 2186 O 209.739 2.51057 0.960416 0
M  V30 2187 C 208.01 3.2868 -1.40371 0
M  V30 2188 S 209.569 4.1925 -1.29518 0
M  V30 2189 H 206.387 0.63878 -0.312219 0
M  V30 2190 H 208.989 1.3485 -1.41548 0
M  V30 2191 H 207.693 3.28289 -2.46281 0
M  V30 2192 H 207.224 3.84121 -0.849402 0
M  V30 2193 H 209.239 4.95539 -0.256059 0
M  V30 2194 N 208.412 0.89855 1.29475 0
M  V30 2195 C 209.637 0.538561 2.00285 0
M  V30 2196 C 210.062 -0.869135 1.66816 0
M  V30 2197 O 209.42 -1.57831 0.892145 0
M  V30 2198 C 209.468 0.736475 3.52999 0
M  V30 2199 O 208.572 -0.211537 4.11857 0
M  V30 2200 H 207.913 0.210563 0.62973 0
M  V30 2201 H 210.443 1.20982 1.64998 0
M  V30 2202 H 210.453 0.640685 4.02938 0
M  V30 2203 H 209.128 1.76276 3.76696 0
M  V30 2204 H 207.705 -0.0682991 3.72837 0
M  V30 2205 N 209.89 -1.43072 0.660911 0
M  V30 2206 C 211.139 -2.00942 0.174735 0
M  V30 2207 C 211.452 -1.52797 -1.22117 0
M  V30 2208 O 212.658 -2.02991 -1.80297 0
M  V30 2209 C 211.114 -3.58948 0.261559 0
M  V30 2210 C 210.722 -4.16085 1.66064 0
M  V30 2211 C 212.466 -4.24173 -0.166617 0
M  V30 2212 C 210.373 -5.6641 1.70098 0
M  V30 2213 H 209.303 -0.751483 0.0615631 0
M  V30 2214 H 211.954 -1.63955 0.824069 0
M  V30 2215 H 210.336 -3.93372 -0.455421 0
M  V30 2216 H 211.51 -3.93147 2.40359 0
M  V30 2217 H 209.825 -3.6326 2.03546 0
M  V30 2218 H 212.422 -5.34471 -0.156433 0
M  V30 2219 H 212.765 -3.98647 -1.19943 0
M  V30 2220 H 213.298 -3.94659 0.498875 0
M  V30 2221 H 210.037 -5.96715 2.71315 0
M  V30 2222 H 209.557 -5.91382 1.00139 0
M  V30 2223 H 211.236 -6.30585 1.44816 0
M  V30 2224 N 211.368 -0.403325 -1.52352 0
M  V30 2225 C 212.278 0.432009 -2.30588 0
M  V30 2226 C 213.294 1.05884 -1.38075 0
M  V30 2227 O 214.47 1.06161 -1.71148 0
M  V30 2228 C 211.535 1.53669 -3.10784 0
M  V30 2229 C 210.596 0.933525 -4.19027 0
M  V30 2230 C 209.829 1.98557 -4.9539 0
M  V30 2231 O 210.052 3.20283 -4.71991 0
M  V30 2232 O 208.986 1.59504 -5.80381 0
M  V30 2233 H 212.812 -0.205739 -3.03002 0
M  V30 2234 H 210.397 -0.166675 -1.48467 0
M  V30 2235 H 212.279 2.17814 -3.60742 0
M  V30 2236 H 210.954 2.15915 -2.41169 0
M  V30 2237 H 209.861 0.254954 -3.7323 0
M  V30 2238 H 211.194 0.35508 -4.90918 0
M  V30 2239 N 212.846 1.57033 -0.133567 0
M  V30 2240 C 213.756 2.19632 0.824564 0
M  V30 2241 C 214.772 1.17666 1.28182 0
M  V30 2242 O 215.948 1.50193 1.3418 0
M  V30 2243 C 213.013 2.79499 2.05137 0
M  V30 2244 C 212.074 3.96548 1.64464 0
M  V30 2245 C 211.307 4.5355 2.81297 0
M  V30 2246 O 211.53 4.09438 3.97136 0
M  V30 2247 O 210.464 5.44018 2.57542 0
M  V30 2248 H 214.29 3.01991 0.321766 0
M  V30 2249 H 211.875 1.49112 0.0927889 0
M  V30 2250 H 213.757 3.17602 2.7696 0
M  V30 2251 H 212.432 2.00162 2.54395 0
M  V30 2252 H 211.339 3.63186 0.897048 0
M  V30 2253 H 212.672 4.77364 1.19934 0
M  V30 2254 N 214.325 -0.140222 1.56975 0
M  V30 2255 C 215.55 -0.870414 1.88251 0
M  V30 2256 C 215.975 -1.73637 0.723312 0
M  V30 2257 O 215.333 -1.78329 -0.32689 0
M  V30 2258 C 215.381 -1.69737 3.18154 0
M  V30 2259 O 214.485 -2.80229 3.02565 0
M  V30 2260 H 213.826 -0.242025 0.61832 0
M  V30 2261 H 216.356 -0.128999 2.04193 0
M  V30 2262 H 216.366 -2.09099 3.50345 0
M  V30 2263 H 215.041 -1.06152 4.02125 0
M  V30 2264 H 213.618 -2.44224 2.81796 0
M  V30 2265 N 215.803 -1.52179 -0.40978 0
M  V30 2266 C 217.05 -1.66206 -1.15679 0
M  V30 2267 C 217.378 -0.391674 -1.90516 0
M  V30 2268 O 216.633 0.62533 -1.8544 0
M  V30 2269 C 216.932 -2.83428 -2.17723 0
M  V30 2270 C 216.598 -4.21672 -1.59699 0
M  V30 2271 C 215.26 -4.59274 -1.43599 0
M  V30 2272 C 217.612 -5.07825 -1.17317 0
M  V30 2273 C 214.94 -5.80709 -0.836328 0
M  V30 2274 C 217.292 -6.29864 -0.587691 0
M  V30 2275 C 215.956 -6.66216 -0.413818 0
M  V30 2276 H 215.226 -0.608192 -0.423301 0
M  V30 2277 H 217.873 -1.86279 -0.444097 0
M  V30 2278 H 216.178 -2.57687 -2.95135 0
M  V30 2279 H 217.875 -2.91477 -2.75394 0
M  V30 2280 H 214.465 -3.9204 -1.73213 0
M  V30 2281 H 218.649 -4.79359 -1.28565 0
M  V30 2282 H 213.905 -6.07498 -0.689626 0
M  V30 2283 H 218.079 -6.95948 -0.250894 0
M  V30 2284 H 215.706 -7.60182 0.0529471 0
M  V30 2285 N 217.281 0.66697 -1.42791 0
M  V30 2286 C 218.213 1.7925 -1.42836 0
M  V30 2287 C 219.226 1.59496 -0.326333 0
M  V30 2288 O 220.415 1.6847 -0.589916 0
M  V30 2289 C 217.515 3.16476 -1.21229 0
M  V30 2290 C 216.688 3.63011 -2.44013 0
M  V30 2291 C 215.747 4.78993 -2.17834 0
M  V30 2292 O 214.773 4.89137 -2.91091 0
M  V30 2293 N 215.975 5.68248 -1.18635 0
M  V30 2294 H 218.74 1.79695 -2.39854 0
M  V30 2295 H 216.301 0.850338 -1.37771 0
M  V30 2296 H 218.293 3.91734 -1.01621 0
M  V30 2297 H 216.863 3.10884 -0.32706 0
M  V30 2298 H 216.083 2.78346 -2.79137 0
M  V30 2299 H 217.371 3.90845 -3.25757 0
M  V30 2300 H 216.769 5.62712 -0.580615 0
M  V30 2301 H 215.326 6.43285 -1.05013 0
M  V30 2302 N 218.759 1.29093 0.90403 0
M  V30 2303 C 220.175 1.07011 1.1841 0
M  V30 2304 C 220.375 -0.181358 2.00682 0
M  V30 2305 O 219.431 -0.880331 2.36657 0
M  V30 2306 C 220.744 2.32311 1.90924 0
M  V30 2307 C 222.292 2.37587 2.03768 0
M  V30 2308 C 222.767 3.62679 2.79693 0
M  V30 2309 N 224.258 3.63376 2.87249 0
M  V30 2310 C 224.993 4.56848 3.46522 0
M  V30 2311 N 224.489 5.60648 4.06996 0
M  V30 2312 N 226.282 4.44426 3.44154 0
M  V30 2313 H 218.433 2.09412 0.354993 0
M  V30 2314 H 220.696 0.922181 0.219742 0
M  V30 2315 H 220.402 3.23536 1.37905 0
M  V30 2316 H 220.276 2.39483 2.91424 0
M  V30 2317 H 222.663 1.46853 2.55965 0
M  V30 2318 H 222.744 2.34403 1.02415 0
M  V30 2319 H 222.388 4.53762 2.28173 0
M  V30 2320 H 222.318 3.63119 3.81381 0
M  V30 2321 H 224.809 2.88321 2.44293 0
M  V30 2322 H 225.122 6.28101 4.50232 0
M  V30 2323 H 223.467 5.64463 4.05471 0
M  V30 2324 H 226.658 3.62529 2.96126 0
M  V30 2325 H 226.831 5.17457 3.90054 0
M  V30 2326 N 220.237 -1.11381 1.11499 0
M  V30 2327 C 221.484 -1.83132 0.864231 0
M  V30 2328 C 221.812 -1.84683 -0.610114 0
M  V30 2329 O 221.067 -1.29589 -1.46646 0
M  V30 2330 C 221.366 -3.30026 1.37177 0
M  V30 2331 C 221.032 -3.48634 2.85946 0
M  V30 2332 C 219.694 -3.53421 3.26569 0
M  V30 2333 C 222.046 -3.54837 3.81759 0
M  V30 2334 C 219.374 -3.61967 4.61733 0
M  V30 2335 C 221.726 -3.64915 5.1674 0
M  V30 2336 C 220.39 -3.67962 5.5692 0
M  V30 2337 H 219.66 -0.670127 0.316245 0
M  V30 2338 H 222.307 -1.31354 1.3935 0
M  V30 2339 H 220.612 -3.84304 0.762753 0
M  V30 2340 H 222.309 -3.84034 1.15408 0
M  V30 2341 H 218.899 -3.45579 2.53521 0
M  V30 2342 H 223.083 -3.50399 3.51474 0
M  V30 2343 H 218.339 -3.62603 4.92269 0
M  V30 2344 H 222.513 -3.68658 5.90816 0
M  V30 2345 H 220.14 -3.74336 6.61647 0
M  V30 2346 N 221.715 -0.905404 -1.28997 0
M  V30 2347 C 222.992 -0.453513 -1.9027 0
M  V30 2348 C 223.372 1.06721 -1.82137 0
M  V30 2349 O 222.72 1.91159 -1.25182 0
M  V30 2350 C 222.93 -0.974494 -3.35119 0
M  V30 2351 C 224.278 -1.0216 -4.12127 0
M  V30 2352 O 225.302 -0.922557 -3.44046 0
M  V30 2353 O 224.161 -1.17121 -5.33802 0
M  V30 2354 H 221.255 -0.142347 -0.814657 0
M  V30 2355 H 223.801 -0.995642 -1.37423 0
M  V30 2356 H 222.573 -2.01848 -3.35221 0
M  V30 2357 H 222.196 -0.412706 -3.95452 0
M  V30 2358 N 223.193 1.4272 -0.668489 0
M  V30 2359 C 224.156 2.292 0.00448567 0
M  V30 2360 C 225.156 1.43001 0.735339 0
M  V30 2361 O 226.346 1.64461 0.57429 0
M  V30 2362 C 223.478 3.25375 1.01705 0
M  V30 2363 H 224.671 2.90199 -0.756608 0
M  V30 2364 H 222.224 1.50254 -0.430506 0
M  V30 2365 H 222.959 2.69301 1.80686 0
M  V30 2366 H 222.744 3.88944 0.496463 0
M  V30 2367 H 224.234 3.90245 1.48655 0
M  V30 2368 N 224.671 0.411399 1.52136 0
M  V30 2369 C 225.92 -0.165009 2.01024 0
M  V30 2370 C 226.233 -1.4603 1.30133 0
M  V30 2371 O 227.439 -2.1181 1.69849 0
M  V30 2372 C 225.895 -0.344618 3.58246 0
M  V30 2373 C 225.503 0.938716 4.38055 0
M  V30 2374 C 227.247 -0.876195 4.15359 0
M  V30 2375 C 225.154 0.726172 5.86925 0
M  V30 2376 H 224.084 -0.0654407 0.751155 0
M  V30 2377 H 226.735 0.537192 1.75461 0
M  V30 2378 H 225.117 -1.10921 3.80148 0
M  V30 2379 H 226.291 1.70963 4.27912 0
M  V30 2380 H 224.606 1.39688 3.92271 0
M  V30 2381 H 227.203 -1.05128 5.24263 0
M  V30 2382 H 227.546 -1.85152 3.7286 0
M  V30 2383 H 228.079 -0.170607 3.97434 0
M  V30 2384 H 224.818 1.67312 6.33788 0
M  V30 2385 H 224.338 -0.00540283 5.998 0
M  V30 2386 H 226.017 0.369231 6.45946 0
M  V30 2387 N 226.149 -1.5696 0.141893 0
M  V30 2388 C 227.079 -2.19516 -0.795936 0
M  V30 2389 C 228.06 -1.14187 -1.26077 0
M  V30 2390 O 229.245 -1.42511 -1.31925 0
M  V30 2391 C 226.375 -2.81272 -2.03723 0
M  V30 2392 C 225.329 -3.92384 -1.70936 0
M  V30 2393 C 224.655 -4.41052 -3.02287 0
M  V30 2394 C 225.955 -5.13403 -0.959954 0
M  V30 2395 H 227.649 -2.98138 -0.274596 0
M  V30 2396 H 225.195 -1.43406 -0.130636 0
M  V30 2397 H 227.148 -3.237 -2.69808 0
M  V30 2398 H 225.872 -1.99973 -2.58221 0
M  V30 2399 H 224.531 -3.50566 -1.07232 0
M  V30 2400 H 224.179 -3.56582 -3.54765 0
M  V30 2401 H 223.879 -5.15993 -2.81114 0
M  V30 2402 H 225.403 -4.86146 -3.69451 0
M  V30 2403 H 226.817 -5.52706 -1.52279 0
M  V30 2404 H 225.214 -5.94073 -0.848357 0
M  V30 2405 H 226.284 -4.84875 0.0492434 0
M  V30 2406 N 227.627 0.131896 -1.57047 0
M  V30 2407 C 228.574 1.16236 -1.99393 0
M  V30 2408 C 229.544 1.41863 -0.863943 0
M  V30 2409 O 230.729 1.53946 -1.12718 0
M  V30 2410 C 227.869 2.48708 -2.39245 0
M  V30 2411 C 226.982 2.30127 -3.65603 0
M  V30 2412 C 226.117 3.55738 -3.94492 0
M  V30 2413 C 225.156 3.32259 -5.14073 0
M  V30 2414 N 224.293 4.50039 -5.38896 0
M  V30 2415 H 229.133 0.794251 -2.87221 0
M  V30 2416 H 226.67 0.380707 -1.42088 0
M  V30 2417 H 228.628 3.25969 -2.60384 0
M  V30 2418 H 227.258 2.83437 -1.54478 0
M  V30 2419 H 226.31 1.43845 -3.52154 0
M  V30 2420 H 227.622 2.08746 -4.5302 0
M  V30 2421 H 226.776 4.41423 -4.1621 0
M  V30 2422 H 225.515 3.80138 -3.05526 0
M  V30 2423 H 224.52 2.44963 -4.92212 0
M  V30 2424 H 225.745 3.09242 -6.04604 0
M  V30 2425 H 223.691 4.74584 -4.52886 0
M  V30 2426 H 223.608 4.31716 -6.2061 0
M  V30 2427 H 224.876 5.36895 -5.65123 0
M  V30 2428 N 229.106 1.52395 0.401703 0
M  V30 2429 C 230.069 1.75636 1.47257 0
M  V30 2430 C 231.069 0.62628 1.48103 0
M  V30 2431 O 232.259 0.894227 1.49497 0
M  V30 2432 C 229.391 1.84553 2.86624 0
M  V30 2433 H 230.584 2.71241 1.27938 0
M  V30 2434 H 228.137 1.42923 0.632662 0
M  V30 2435 H 228.872 0.908882 3.11303 0
M  V30 2436 H 228.657 2.66715 2.87412 0
M  V30 2437 H 230.147 2.04251 3.64241 0
M  V30 2438 N 230.584 -0.659388 1.43143 0
M  V30 2439 C 231.547 -1.75432 1.47501 0
M  V30 2440 C 232.547 -1.56707 0.360512 0
M  V30 2441 O 233.737 -1.62717 0.622002 0
M  V30 2442 C 230.869 -3.14239 1.32162 0
M  V30 2443 H 232.062 -1.7295 2.45006 0
M  V30 2444 H 229.615 -0.870469 1.29817 0
M  V30 2445 H 230.35 -3.22336 0.356401 0
M  V30 2446 H 230.135 -3.29235 2.12948 0
M  V30 2447 H 231.625 -3.94094 1.3813 0
M  V30 2448 N 232.062 -1.29571 -0.897171 0
M  V30 2449 C 232.994 -1.10724 -2.00681 0
M  V30 2450 C 234.007 -0.0540026 -1.6271 0
M  V30 2451 O 235.196 -0.298783 -1.75982 0
M  V30 2452 C 232.296 -0.663912 -3.32333 0
M  V30 2453 C 231.469 -1.79622 -3.98816 0
M  V30 2454 C 230.528 -1.34349 -5.0876 0
M  V30 2455 O 229.554 -2.04864 -5.31055 0
M  V30 2456 N 230.756 -0.215764 -5.80099 0
M  V30 2457 H 233.521 -2.06291 -2.17403 0
M  V30 2458 H 231.082 -1.21544 -1.06951 0
M  V30 2459 H 233.074 -0.344295 -4.03233 0
M  V30 2460 H 231.644 0.199375 -3.11964 0
M  V30 2461 H 230.864 -2.28459 -3.21248 0
M  V30 2462 H 232.152 -2.55535 -4.39976 0
M  V30 2463 H 231.55 0.372091 -5.64475 0
M  V30 2464 H 230.107 0.0444707 -6.51785 0
M  V30 2465 N 233.54 1.10788 -1.12088 0
M  V30 2466 C 234.765 1.87002 -0.896949 0
M  V30 2467 C 235.19 1.79933 0.548261 0
M  V30 2468 O 234.548 1.16662 1.38779 0
M  V30 2469 C 234.596 3.3349 -1.37174 0
M  V30 2470 O 233.7 4.08745 -0.547831 0
M  V30 2471 H 233.041 0.580397 -0.322545 0
M  V30 2472 H 235.571 1.39996 -1.49206 0
M  V30 2473 H 235.581 3.84339 -1.36922 0
M  V30 2474 H 234.256 3.37951 -2.42408 0
M  V30 2475 H 232.833 3.6776 -0.617034 0
M  V30 2476 N 235.018 0.912232 1.28515 0
M  V30 2477 C 235.981 0.404223 2.25607 0
M  V30 2478 C 236.981 -0.468602 1.53821 0
M  V30 2479 O 238.171 -0.271873 1.72065 0
M  V30 2480 C 235.303 -0.420653 3.38295 0
M  V30 2481 H 236.496 1.26188 2.7206 0
M  V30 2482 H 234.049 0.691495 1.40171 0
M  V30 2483 H 234.784 -1.29777 2.97201 0
M  V30 2484 H 234.569 0.204935 3.91564 0
M  V30 2485 H 236.059 -0.766971 4.10496 0
M  V30 2486 N 236.496 -1.42363 0.676048 0
M  V30 2487 C 237.444 -2.32596 -0.0131507 0
M  V30 2488 C 238.438 -1.49891 -0.789238 0
M  V30 2489 O 239.644 -1.65955 -0.697061 0
M  V30 2490 H 236.019 -0.751647 -0.0230481 0
M  V30 2491 H 237.99 -2.88421 0.765243 0
M  V30 2492 C 236.739 -3.34479 -0.949702 0
M  V30 2493 H 236.062 -3.98158 -0.361938 0
M  V30 2494 H 237.502 -4.00199 -1.4006 0
M  V30 2495 C 235.961 -2.66838 -2.05667 0
M  V30 2496 O 236.491 -2.50124 -3.14326 0
M  V30 2497 N 234.697 -2.25843 -1.82875 0
M  V30 2498 H 234.244 -2.39637 -0.945085 0
M  V30 2499 H 234.202 -1.80918 -2.5713 0
M  V30 2500 N 237.974 -0.419461 -1.51915 0
M  V30 2501 C 239.223 0.154346 -2.01109 0
M  V30 2502 C 239.536 1.45338 -1.30905 0
M  V30 2503 O 240.742 2.10906 -1.7097 0
M  V30 2504 C 239.198 0.325615 -3.58424 0
M  V30 2505 C 238.806 -0.961934 -4.37551 0
M  V30 2506 C 240.55 0.854155 -4.15818 0
M  V30 2507 C 238.457 -0.757287 -5.86531 0
M  V30 2508 H 237.387 0.0614563 -0.751491 0
M  V30 2509 H 240.038 -0.54649 -1.75173 0
M  V30 2510 H 238.42 1.08903 -3.80731 0
M  V30 2511 H 239.594 -1.7323 -4.26999 0
M  V30 2512 H 237.909 -1.41766 -3.91524 0
M  V30 2513 H 240.506 1.02346 -5.24814 0
M  V30 2514 H 240.849 1.83172 -3.73837 0
M  V30 2515 H 241.382 0.149528 -3.97519 0
M  V30 2516 H 238.121 -1.70671 -6.32892 0
M  V30 2517 H 237.641 -0.0264061 -5.99794 0
M  V30 2518 H 239.32 -0.403482 -6.45741 0
M  V30 2519 N 239.452 1.56882 -0.150215 0
M  V30 2520 C 240.677 2.01027 0.510184 0
M  V30 2521 C 241.102 1.02966 1.57415 0
M  V30 2522 O 240.46 0.00590158 1.81299 0
M  V30 2523 C 240.508 3.43899 1.08472 0
M  V30 2524 O 239.612 3.4885 2.19948 0
M  V30 2525 H 238.953 0.652233 0.124451 0
M  V30 2526 H 241.483 2.03093 -0.247894 0
M  V30 2527 H 241.493 3.82766 1.41259 0
M  V30 2528 H 240.168 4.14776 0.305582 0
M  V30 2529 H 238.745 3.21827 1.88366 0
M  V30 2530 N 240.93 -0.123565 1.57115 0
M  V30 2531 C 242.176 -0.833386 1.84885 0
M  V30 2532 C 242.509 -1.79742 0.735292 0
M  V30 2533 O 241.784 -1.92764 -0.25925 0
M  V30 2534 C 242.067 -1.5873 3.23228 0
M  V30 2535 C 241.92 -0.643183 4.45178 0
M  V30 2536 C 243.239 -2.54453 3.59085 0
M  V30 2537 H 240.358 -0.301518 0.6725 0
M  V30 2538 H 243 -0.097778 1.89748 0
M  V30 2539 H 241.15 -2.21438 3.19214 0
M  V30 2540 H 242.822 -0.0253015 4.61293 0
M  V30 2541 H 241.065 0.0456139 4.33776 0
M  V30 2542 H 241.736 -1.20724 5.38637 0
M  V30 2543 H 244.212 -2.01853 3.63861 0
M  V30 2544 H 243.088 -3.04238 4.5687 0
M  V30 2545 H 243.349 -3.36906 2.86264 0
M  V30 2546 N 242.408 -1.52605 -0.393616 0
M  V30 2547 C 243.824 -1.41753 -0.733357 0
M  V30 2548 C 244.024 -0.534293 -1.94287 0
M  V30 2549 O 243.08 -0.0059787 -2.52499 0
M  V30 2550 C 244.393 -2.84531 -0.972772 0
M  V30 2551 C 245.941 -2.93978 -1.07453 0
M  V30 2552 C 246.416 -4.37756 -1.3466 0
M  V30 2553 N 247.907 -4.4106 -1.41492 0
M  V30 2554 C 248.642 -5.49387 -1.642 0
M  V30 2555 N 248.138 -6.67806 -1.8441 0
M  V30 2556 N 249.931 -5.36923 -1.66342 0
M  V30 2557 H 242.082 -2.08555 0.402328 0
M  V30 2558 H 244.345 -0.940654 0.117789 0
M  V30 2559 H 244.051 -3.51353 -0.156204 0
M  V30 2560 H 243.925 -3.26508 -1.88871 0
M  V30 2561 H 246.312 -2.27326 -1.88167 0
M  V30 2562 H 246.393 -2.55435 -0.136605 0
M  V30 2563 H 246.037 -5.04972 -0.544581 0
M  V30 2564 H 245.967 -4.73848 -2.2973 0
M  V30 2565 H 248.458 -3.55705 -1.27601 0
M  V30 2566 H 248.771 -7.46141 -2.01231 0
M  V30 2567 H 247.116 -6.70843 -1.81644 0
M  V30 2568 H 250.307 -4.43381 -1.50102 0
M  V30 2569 H 250.48 -6.21416 -1.837 0
M  V30 2570 N 243.887 0.651787 -1.4349 0
M  V30 2571 C 245.135 1.40888 -1.44897 0
M  V30 2572 C 245.456 1.94856 -0.0749086 0
M  V30 2573 O 244.726 1.74518 0.889956 0
M  V30 2574 H 243.306 0.522887 -0.533478 0
M  V30 2575 H 245.968 0.768609 -1.79104 0
M  V30 2576 H 245.064 2.25052 -2.16236 0
M  V30 2577 N 245.365 1.30045 0.890287 0
M  V30 2578 C 246.595 1.21296 1.67245 0
M  V30 2579 C 247.003 -0.227471 1.87828 0
M  V30 2580 O 246.346 -1.16296 1.422 0
M  V30 2581 C 246.408 1.86519 3.07329 0
M  V30 2582 C 246.072 3.35837 3.09939 0
M  V30 2583 C 247.069 4.31915 2.89389 0
M  V30 2584 C 244.754 3.77196 3.31706 0
M  V30 2585 C 246.748 5.67325 2.90552 0
M  V30 2586 C 244.435 5.12725 3.32499 0
M  V30 2587 C 245.433 6.076 3.11947 0
M  V30 2588 O 245.121 7.40655 3.12547 0
M  V30 2589 H 244.853 0.4211 0.528821 0
M  V30 2590 H 247.407 1.72111 1.12103 0
M  V30 2591 H 245.637 1.30228 3.64112 0
M  V30 2592 H 247.326 1.71963 3.67673 0
M  V30 2593 H 248.092 4.01294 2.72375 0
M  V30 2594 H 243.971 3.03796 3.4674 0
M  V30 2595 H 247.515 6.41354 2.74429 0
M  V30 2596 H 243.412 5.42988 3.49047 0
M  V30 2597 H 244.18 7.49577 3.28749 0
M  V30 2598 N 246.843 -1.10192 1.12674 0
M  V30 2599 C 248.089 -1.82475 0.884915 0
M  V30 2600 C 248.422 -1.85093 -0.58773 0
M  V30 2601 O 247.697 -1.3134 -1.43457 0
M  V30 2602 C 247.98 -3.29018 1.46353 0
M  V30 2603 C 247.833 -3.34718 3.00473 0
M  V30 2604 C 249.152 -4.25473 1.12519 0
M  V30 2605 H 246.271 -0.662492 0.322915 0
M  V30 2606 H 248.913 -1.2913 1.39375 0
M  V30 2607 H 247.063 -3.74576 1.03077 0
M  V30 2608 H 248.735 -2.97622 3.52447 0
M  V30 2609 H 246.978 -2.74541 3.35872 0
M  V30 2610 H 247.649 -4.37918 3.36053 0
M  V30 2611 H 250.125 -3.88161 1.499 0
M  V30 2612 H 249.001 -5.26365 1.55663 0
M  V30 2613 H 249.262 -4.42084 0.0377407 0
M  V30 2614 N 248.321 -0.919034 -1.28029 0
M  V30 2615 C 249.546 -0.570357 -1.99403 0
M  V30 2616 C 249.971 0.842486 -1.68178 0
M  V30 2617 O 249.329 1.56391 -0.917141 0
M  V30 2618 C 249.377 -0.792541 -3.51783 0
M  V30 2619 O 248.481 0.145988 -4.12142 0
M  V30 2620 H 247.822 -0.220555 -0.6263 0
M  V30 2621 H 250.352 -1.23592 -1.63053 0
M  V30 2622 H 250.362 -0.704708 -4.01868 0
M  V30 2623 H 249.037 -1.82247 -3.73844 0
M  V30 2624 H 247.614 0.00897528 -3.72899 0
M  V30 2625 N 249.799 1.42003 -0.683588 0
M  V30 2626 C 251.039 2.03282 -0.213513 0
M  V30 2627 C 251.403 1.52924 1.16097 0
M  V30 2628 O 252.604 2.06048 1.7262 0
M  V30 2629 C 250.875 3.56483 -0.255856 0
M  V30 2630 S 252.434 4.3857 0.14193 0
M  V30 2631 H 249.252 0.705659 -0.0869853 0
M  V30 2632 H 251.854 1.73619 -0.8987 0
M  V30 2633 H 250.558 3.90631 -1.25841 0
M  V30 2634 H 250.089 3.90831 0.448875 0
M  V30 2635 H 252.104 4.76828 1.37295 0
M  V30 2636 N 251.277 0.427512 1.51691 0
M  V30 2637 C 252.24 -0.377132 2.26076 0
M  V30 2638 C 253.24 -0.958089 1.29141 0
M  V30 2639 O 254.43 -0.83408 1.52934 0
M  V30 2640 C 251.562 -1.53262 3.04506 0
M  V30 2641 H 252.755 0.27464 2.9864 0
M  V30 2642 H 250.308 0.180445 1.55255 0
M  V30 2643 H 251.043 -2.22072 2.36335 0
M  V30 2644 H 250.828 -1.12232 3.75694 0
M  V30 2645 H 252.318 -2.10135 3.60878 0
M  V30 2646 N 252.755 -1.56801 0.158532 0
M  V30 2647 C 253.685 -2.20347 -0.772609 0
M  V30 2648 C 254.666 -1.15518 -1.24859 0
M  V30 2649 O 255.851 -1.43902 -1.30406 0
M  V30 2650 C 252.981 -2.83417 -2.00729 0
M  V30 2651 C 251.935 -3.94174 -1.66765 0
M  V30 2652 C 251.261 -4.44233 -2.97592 0
M  V30 2653 C 252.561 -5.14392 -0.905447 0
M  V30 2654 H 254.255 -2.98413 -0.242959 0
M  V30 2655 H 251.801 -1.43537 -0.115419 0
M  V30 2656 H 253.754 -3.26543 -2.6636 0
M  V30 2657 H 252.478 -2.02701 -2.56086 0
M  V30 2658 H 251.137 -3.51684 -1.03508 0
M  V30 2659 H 250.785 -3.60325 -3.50963 0
M  V30 2660 H 250.485 -5.18945 -2.75626 0
M  V30 2661 H 252.009 -4.90037 -3.64274 0
M  V30 2662 H 253.423 -5.5429 -1.46408 0
M  V30 2663 H 251.82 -5.9494 -0.7853 0
M  V30 2664 H 252.89 -4.84795 0.100668 0
M  V30 2665 N 254.233 0.115231 -1.57178 0
M  V30 2666 C 255.481 0.820727 -1.84685 0
M  V30 2667 C 255.802 1.80237 -0.744279 0
M  V30 2668 O 255.072 1.94529 0.231375 0
M  V30 2669 H 253.652 0.306084 -0.681411 0
M  V30 2670 H 256.314 0.101656 -1.94635 0
M  V30 2671 H 255.41 1.36366 -2.80733 0
M  V30 2672 N 255.711 1.52812 0.385517 0
M  V30 2673 C 256.951 1.69716 1.13911 0
M  V30 2674 C 257.315 0.42962 1.87132 0
M  V30 2675 O 258.516 0.475071 2.64569 0
M  V30 2676 C 256.787 2.90021 2.0886 0
M  V30 2677 S 258.346 3.27531 2.92009 0
M  V30 2678 H 255.164 0.59739 0.385547 0
M  V30 2679 H 257.766 1.90868 0.423061 0
M  V30 2680 H 256.47 3.80493 1.53797 0
M  V30 2681 H 256.001 2.71213 2.84969 0
M  V30 2682 H 258.016 2.77989 4.11019 0
M  V30 2683 N 257.189 -0.644168 1.43834 0
M  V30 2684 C 258.6 -1.22554 1.40845 0
M  V30 2685 C 258.951 -1.9585 0.117115 0
M  V30 2686 O 258.076 -2.01734 -0.783086 0
M  V30 2687 C 258.671 -2.22907 2.55143 0
M  V30 2688 C 257.23 -2.76501 2.5539 0
M  V30 2689 C 256.377 -1.51287 2.32396 0
M  V30 2690 H 259.328 -0.43563 1.52604 0
M  V30 2691 H 259.349 -3.05259 2.2715 0
M  V30 2692 H 258.861 -1.69533 3.49114 0
M  V30 2693 H 256.962 -3.33914 1.65324 0
M  V30 2694 H 257.075 -3.23429 3.53455 0
M  V30 2695 H 255.439 -1.78957 1.81236 0
M  V30 2696 H 256.222 -0.998336 3.28463 0
M  V30 2697 N 258.668 -1.30515 -0.883378 0
M  V30 2698 C 259.898 -1.22182 -1.66599 0
M  V30 2699 C 260.306 0.217507 -1.87946 0
M  V30 2700 O 259.649 1.1554 -1.42815 0
M  V30 2701 C 259.711 -1.88146 -3.06335 0
M  V30 2702 C 259.375 -3.37476 -3.08154 0
M  V30 2703 C 260.372 -4.33443 -2.87094 0
M  V30 2704 C 258.057 -3.7895 -3.29701 0
M  V30 2705 C 260.051 -5.68858 -2.8754 0
M  V30 2706 C 257.738 -5.14482 -3.29776 0
M  V30 2707 C 258.736 -6.09246 -3.0872 0
M  V30 2708 O 258.424 -7.42302 -3.08615 0
M  V30 2709 H 258.156 -0.423898 -0.52658 0
M  V30 2710 H 260.71 -1.72703 -1.11188 0
M  V30 2711 H 258.94 -1.32157 -3.63416 0
M  V30 2712 H 260.629 -1.7391 -3.66756 0
M  V30 2713 H 261.395 -4.02733 -2.70243 0
M  V30 2714 H 257.274 -3.05631 -3.45124 0
M  V30 2715 H 260.818 -6.428 -2.71024 0
M  V30 2716 H 256.715 -5.44832 -3.46163 0
M  V30 2717 H 257.483 -7.5131 -3.24769 0
M  V30 2718 N 260.146 1.09593 -1.13257 0
M  V30 2719 C 261.056 2.19739 -0.821691 0
M  V30 2720 C 262.072 1.72926 0.19302 0
M  V30 2721 O 263.248 2.01385 0.0244895 0
M  V30 2722 C 260.313 3.45482 -0.290333 0
M  V30 2723 C 259.374 4.06985 -1.36607 0
M  V30 2724 C 258.607 5.26726 -0.859975 0
M  V30 2725 O 258.83 5.69594 0.303082 0
M  V30 2726 O 257.764 5.7931 -1.63351 0
M  V30 2727 H 261.59 2.48781 -1.74189 0
M  V30 2728 H 259.175 1.18496 -0.909894 0
M  V30 2729 H 261.057 4.214 0.000674022 0
M  V30 2730 H 259.732 3.18047 0.602306 0
M  V30 2731 H 258.639 3.32712 -1.71037 0
M  V30 2732 H 259.972 4.38643 -2.23279 0
M  V30 2733 N 261.624 0.925811 1.2754 0
M  V30 2734 C 262.872 0.564138 1.94067 0
M  V30 2735 C 263.193 -0.897188 1.73134 0
M  V30 2736 O 262.463 -1.63573 1.07799 0
M  V30 2737 H 261.043 0.205645 0.718136 0
M  V30 2738 H 263.705 1.1778 1.55287 0
M  V30 2739 H 262.801 0.76881 3.02483 0
M  V30 2740 N 263.102 -1.41638 0.69111 0
M  V30 2741 C 264.049 -2.30789 0.0229705 0
M  V30 2742 C 265.019 -1.46863 -0.775911 0
M  V30 2743 O 266.204 -1.75661 -0.74485 0
M  V30 2744 C 263.344 -3.32868 -0.910666 0
M  V30 2745 C 262.457 -4.31875 -0.103874 0
M  V30 2746 C 261.592 -5.21024 -1.03475 0
M  V30 2747 C 260.631 -6.11702 -0.220598 0
M  V30 2748 N 259.768 -6.93349 -1.10504 0
M  V30 2749 H 264.608 -2.87366 0.788978 0
M  V30 2750 H 262.145 -1.41535 0.400794 0
M  V30 2751 H 264.103 -3.90596 -1.46597 0
M  V30 2752 H 262.733 -2.77851 -1.64312 0
M  V30 2753 H 261.785 -3.76131 0.568285 0
M  V30 2754 H 263.097 -4.96003 0.527504 0
M  V30 2755 H 262.251 -5.83565 -1.65943 0
M  V30 2756 H 260.99 -4.57112 -1.69999 0
M  V30 2757 H 259.995 -5.48215 0.417187 0
M  V30 2758 H 261.22 -6.77668 0.440784 0
M  V30 2759 H 259.166 -6.3205 -1.75638 0
M  V30 2760 H 259.083 -7.54146 -0.529125 0
M  V30 2761 H 260.351 -7.60362 -1.71667 0
M  V30 2762 N 264.58 -0.43555 -1.51462 0
M  V30 2763 C 265.829 0.133007 -2.01261 0
M  V30 2764 C 266.142 1.43942 -1.32439 0
M  V30 2765 O 267.348 2.09081 -1.73198 0
M  V30 2766 C 265.804 0.287581 -3.58749 0
M  V30 2767 C 265.412 -1.00829 -4.36506 0
M  V30 2768 C 267.156 0.810004 -4.167 0
M  V30 2769 C 265.063 -0.819454 -5.85695 0
M  V30 2770 H 263.993 0.0534822 -0.752101 0
M  V30 2771 H 266.644 -0.565038 -1.74584 0
M  V30 2772 H 265.026 1.04859 -3.81865 0
M  V30 2773 H 266.2 -1.77749 -4.25138 0
M  V30 2774 H 264.515 -1.45911 -3.89999 0
M  V30 2775 H 267.112 0.967743 -5.2587 0
M  V30 2776 H 267.455 1.79196 -3.75758 0
M  V30 2777 H 267.988 0.107357 -3.97655 0
M  V30 2778 H 264.727 -1.77374 -6.31046 0
M  V30 2779 H 264.247 -0.0900208 -5.99732 0
M  V30 2780 H 265.926 -0.471949 -6.45276 0
M  V30 2781 N 266.058 1.56714 -0.166846 0
M  V30 2782 C 267.283 2.01557 0.488833 0
M  V30 2783 C 267.708 1.0463 1.56314 0
M  V30 2784 O 267.066 0.0251304 1.81283 0
M  V30 2785 C 267.114 3.4503 1.04818 0
M  V30 2786 O 266.218 3.51163 2.16236 0
M  V30 2787 H 265.559 0.653516 0.117526 0
M  V30 2788 H 268.089 2.02818 -0.269421 0
M  V30 2789 H 268.099 3.84243 1.37191 0
M  V30 2790 H 266.774 4.15077 0.261572 0
M  V30 2791 H 265.351 3.23807 1.84942 0
M  V30 2792 N 267.536 -0.106894 1.57237 0
M  V30 2793 C 268.947 -0.662723 1.74542 0
M  V30 2794 C 269.298 -1.7971 0.787319 0
M  V30 2795 O 268.423 -2.16368 -0.0369636 0
M  V30 2796 C 269.018 -1.20896 3.16496 0
M  V30 2797 C 267.577 -1.71096 3.35266 0
M  V30 2798 C 266.724 -0.615642 2.7038 0
M  V30 2799 H 269.675 0.119106 1.58252 0
M  V30 2800 H 269.696 -2.07847 3.18716 0
M  V30 2801 H 269.208 -0.383122 3.86204 0
M  V30 2802 H 267.309 -2.56119 2.70618 0
M  V30 2803 H 267.422 -1.81208 4.43509 0
M  V30 2804 H 265.786 -1.05222 2.31949 0
M  V30 2805 H 266.569 0.199419 3.4272 0
M  V30 2806 N 269.014 -1.53014 -0.377408 0
M  V30 2807 C 269.977 -1.77957 -1.44444 0
M  V30 2808 C 270.977 -0.649763 -1.47087 0
M  V30 2809 O 272.167 -0.917897 -1.48055 0
M  V30 2810 C 269.299 -1.89089 -2.83651 0
M  V30 2811 H 270.492 -2.73243 -1.23606 0
M  V30 2812 H 268.045 -1.43912 -0.609844 0
M  V30 2813 H 268.78 -0.958293 -3.09818 0
M  V30 2814 H 268.565 -2.71254 -2.83132 0
M  V30 2815 H 270.055 -2.1002 -3.60945 0
M  V30 2816 N 270.492 0.636531 -1.44174 0
M  V30 2817 C 271.439 1.74875 -1.50624 0
M  V30 2818 C 272.409 1.62275 -0.35442 0
M  V30 2819 O 273.594 1.82276 -0.563908 0
M  V30 2820 C 270.734 3.13102 -1.45125 0
M  V30 2821 C 269.847 3.36717 -2.7064 0
M  V30 2822 C 268.982 4.64885 -2.57013 0
M  V30 2823 C 268.021 4.8166 -3.77717 0
M  V30 2824 N 267.158 6.01101 -3.62798 0
M  V30 2825 H 271.998 1.68697 -2.45653 0
M  V30 2826 H 269.535 0.823004 -1.21922 0
M  V30 2827 H 271.493 3.93034 -1.39929 0
M  V30 2828 H 270.123 3.18308 -0.536671 0
M  V30 2829 H 269.175 2.50763 -2.86046 0
M  V30 2830 H 270.487 3.44993 -3.60252 0
M  V30 2831 H 269.641 5.52969 -2.49619 0
M  V30 2832 H 268.38 4.58957 -1.64953 0
M  V30 2833 H 267.385 3.92007 -3.85501 0
M  V30 2834 H 268.61 4.89406 -4.70807 0
M  V30 2835 H 266.556 5.96273 -2.73486 0
M  V30 2836 H 266.473 6.10409 -4.46023 0
M  V30 2837 H 267.741 6.91761 -3.59286 0
M  V30 2838 N 271.97 1.30982 0.876444 0
M  V30 2839 C 273.216 1.20474 1.63138 0
M  V30 2840 C 273.549 -0.238096 1.92735 0
M  V30 2841 O 272.824 -1.1692 1.55435 0
M  V30 2842 C 273.107 2.04244 2.96574 0
M  V30 2843 C 272.96 3.56793 2.73896 0
M  V30 2844 C 274.279 1.88684 3.97601 0
M  V30 2845 H 271.398 0.439001 0.591985 0
M  V30 2846 H 274.04 1.60704 1.01361 0
M  V30 2847 H 272.19 1.70063 3.493 0
M  V30 2848 H 273.862 4.01077 2.27892 0
M  V30 2849 H 272.105 3.80548 2.08245 0
M  V30 2850 H 272.776 4.10706 3.68815 0
M  V30 2851 H 275.252 2.18584 3.54062 0
M  V30 2852 H 274.128 2.4961 4.88862 0
M  V30 2853 H 274.389 0.848343 4.33884 0
M  V30 2854 N 273.449 -1.08991 1.13837 0
M  V30 2855 C 274.412 -2.13925 0.822715 0
M  V30 2856 C 275.412 -1.599 -0.1699 0
M  V30 2857 O 276.602 -1.74104 0.0577251 0
M  V30 2858 C 273.734 -3.40155 0.225318 0
M  V30 2859 H 274.927 -2.43358 1.75262 0
M  V30 2860 H 272.48 -1.24603 0.943594 0
M  V30 2861 H 273.215 -3.16352 -0.713594 0
M  V30 2862 H 273 -3.80661 0.940193 0
M  V30 2863 H 274.49 -4.17594 0.0214784 0
M  V30 2864 N 274.927 -0.932562 -1.27047 0
M  V30 2865 C 275.837 -0.441219 -2.30414 0
M  V30 2866 C 276.853 0.480525 -1.67233 0
M  V30 2867 O 278.029 0.362151 -1.98117 0
M  V30 2868 C 275.094 0.293651 -3.45454 0
M  V30 2869 C 274.155 -0.663601 -4.2414 0
M  V30 2870 C 273.388 0.0362932 -5.33688 0
M  V30 2871 O 273.611 1.2548 -5.56427 0
M  V30 2872 O 272.545 -0.638015 -5.98509 0
M  V30 2873 H 276.371 -1.29962 -2.74488 0
M  V30 2874 H 273.956 -0.6981 -1.32087 0
M  V30 2875 H 275.838 0.707951 -4.15411 0
M  V30 2876 H 274.513 1.12758 -3.03426 0
M  V30 2877 H 273.42 -1.12768 -3.56699 0
M  V30 2878 H 274.753 -1.46489 -4.69896 0
M  V30 2879 N 276.405 1.4127 -0.698611 0
M  V30 2880 C 277.651 2.01478 -0.231207 0
M  V30 2881 C 277.984 1.55215 1.16713 0
M  V30 2882 O 277.259 0.764672 1.78838 0
M  V30 2883 C 277.542 3.58912 -0.292281 0
M  V30 2884 C 277.395 4.15293 -1.72778 0
M  V30 2885 C 278.714 4.38736 0.346194 0
M  V30 2886 H 275.833 0.732025 -0.0854878 0
M  V30 2887 H 278.475 1.67977 -0.887906 0
M  V30 2888 H 276.625 3.87582 0.26686 0
M  V30 2889 H 278.297 3.97486 -2.341 0
M  V30 2890 H 276.54 3.7022 -2.26096 0
M  V30 2891 H 277.211 5.24452 -1.72202 0
M  V30 2892 H 279.687 4.15897 -0.130035 0
M  V30 2893 H 278.563 5.48221 0.272932 0
M  V30 2894 H 278.824 4.18425 1.42734 0
M  V30 2895 N 277.883 0.443576 1.51229 0
M  V30 2896 C 279.111 -0.11929 2.06556 0
M  V30 2897 C 279.526 -1.35921 1.31038 0
M  V30 2898 O 278.883 -1.78675 0.371704 0
M  V30 2899 C 278.934 -0.435228 3.5887 0
M  V30 2900 O 278.655 0.755486 4.31537 0
M  V30 2901 C 280.156 -1.04808 4.30732 0
M  V30 2902 H 277.376 -0.0051584 0.67098 0
M  V30 2903 H 279.92 0.624453 1.94733 0
M  V30 2904 H 278.075 -1.12887 3.70588 0
M  V30 2905 H 278.489 0.483491 5.22267 0
M  V30 2906 H 279.963 -1.2191 5.3837 0
M  V30 2907 H 280.44 -2.03081 3.89429 0
M  V30 2908 H 281.046 -0.393637 4.23474 0
M  V30 2909 N 279.361 -1.56624 0.175154 0
M  V30 2910 C 280.308 -2.18149 -0.753634 0
M  V30 2911 C 281.278 -1.12265 -1.22417 0
M  V30 2912 O 282.463 -1.40432 -1.29165 0
M  V30 2913 C 279.603 -2.82933 -1.97592 0
M  V30 2914 C 278.716 -4.03289 -1.5486 0
M  V30 2915 C 277.851 -4.55988 -2.72485 0
M  V30 2916 C 276.89 -5.68746 -2.26262 0
M  V30 2917 N 276.027 -6.15938 -3.36994 0
M  V30 2918 H 280.867 -2.9717 -0.222195 0
M  V30 2919 H 278.404 -1.46774 -0.0979422 0
M  V30 2920 H 280.362 -3.18653 -2.69288 0
M  V30 2921 H 278.992 -2.06509 -2.481 0
M  V30 2922 H 278.044 -3.73364 -0.728246 0
M  V30 2923 H 279.356 -4.849 -1.16933 0
M  V30 2924 H 278.51 -4.9391 -3.52332 0
M  V30 2925 H 277.249 -3.73443 -3.13674 0
M  V30 2926 H 276.254 -5.30372 -1.44863 0
M  V30 2927 H 277.479 -6.53095 -1.86127 0
M  V30 2928 H 275.425 -5.36321 -3.77751 0
M  V30 2929 H 275.342 -6.92548 -3.03172 0
M  V30 2930 H 276.61 -6.58511 -4.17114 0
M  V30 2931 N 280.839 0.0985539 -1.57292 0
M  V30 2932 C 281.786 1.11981 -2.01814 0
M  V30 2933 C 282.756 1.39999 -0.89384 0
M  V30 2934 O 283.941 1.5152 -1.15958 0
M  V30 2935 C 281.081 2.43577 -2.44467 0
M  V30 2936 C 280.194 2.2232 -3.70402 0
M  V30 2937 C 279.329 3.4729 -4.01949 0
M  V30 2938 C 278.368 3.2128 -5.21005 0
M  V30 2939 N 277.505 4.38507 -5.48321 0
M  V30 2940 H 282.345 0.733149 -2.88841 0
M  V30 2941 H 279.882 0.350482 -1.42864 0
M  V30 2942 H 281.84 3.20373 -2.6724 0
M  V30 2943 H 280.47 2.80097 -1.60455 0
M  V30 2944 H 279.522 1.36343 -3.55126 0
M  V30 2945 H 280.834 1.99089 -4.57345 0
M  V30 2946 H 279.988 4.32495 -4.25479 0
M  V30 2947 H 278.727 3.73572 -3.13521 0
M  V30 2948 H 277.732 2.34468 -4.97298 0
M  V30 2949 H 278.957 2.96348 -6.11028 0
M  V30 2950 H 276.903 4.64871 -4.62851 0
M  V30 2951 H 276.82 4.18455 -6.29628 0
M  V30 2952 H 278.088 5.24787 -5.76385 0
M  V30 2953 N 282.317 1.53212 0.369288 0
M  V30 2954 C 283.564 1.69215 1.11232 0
M  V30 2955 C 283.892 0.442048 1.8941 0
M  V30 2956 O 283.147 -0.575944 1.87033 0
M  V30 2957 C 283.446 2.89101 2.10132 0
M  V30 2958 C 283.112 4.25758 1.48463 0
M  V30 2959 C 281.774 4.6292 1.31372 0
M  V30 2960 C 284.126 5.10757 1.03811 0
M  V30 2961 C 281.454 5.82722 0.68207 0
M  V30 2962 C 283.806 6.31201 0.420487 0
M  V30 2963 C 282.47 6.67079 0.237038 0
M  V30 2964 H 281.74 0.619201 0.407027 0
M  V30 2965 H 284.387 1.87391 0.394552 0
M  V30 2966 H 282.692 2.65421 2.88199 0
M  V30 2967 H 284.389 2.98676 2.6757 0
M  V30 2968 H 280.979 3.96494 1.62758 0
M  V30 2969 H 285.163 4.82599 1.1581 0
M  V30 2970 H 280.419 6.09113 0.528316 0
M  V30 2971 H 284.593 6.96368 0.0662874 0
M  V30 2972 H 282.22 7.59774 -0.254477 0
M  V30 2973 N 283.795 -0.628877 1.44509 0
M  V30 2974 C 285.025 -1.41349 1.50678 0
M  V30 2975 C 285.433 -1.88745 0.131075 0
M  V30 2976 O 284.776 -1.61592 -0.87371 0
M  V30 2977 C 284.838 -2.66608 2.41165 0
M  V30 2978 C 284.502 -2.40993 3.88293 0
M  V30 2979 C 285.499 -2.0268 4.78766 0
M  V30 2980 C 283.184 -2.54563 4.33016 0
M  V30 2981 C 285.178 -1.78269 6.11963 0
M  V30 2982 C 282.865 -2.29766 5.6626 0
M  V30 2983 C 283.863 -1.91678 6.55552 0
M  V30 2984 O 283.551 -1.67158 7.86329 0
M  V30 2985 H 283.283 -0.439851 0.51333 0
M  V30 2986 H 285.837 -0.776084 1.90174 0
M  V30 2987 H 284.067 -3.32994 1.96601 0
M  V30 2988 H 285.756 -3.28615 2.38259 0
M  V30 2989 H 286.522 -1.91751 4.45485 0
M  V30 2990 H 282.401 -2.83179 3.63773 0
M  V30 2991 H 285.945 -1.48465 6.81619 0
M  V30 2992 H 281.842 -2.40306 5.99102 0
M  V30 2993 H 282.61 -1.81386 7.98149 0
M  V30 2994 N 285.273 -1.31445 -0.869486 0
M  V30 2995 C 286.498 -1.24256 -1.66058 0
M  V30 2996 C 286.923 0.188928 -1.87149 0
M  V30 2997 O 286.281 1.13522 -1.4136 0
M  V30 2998 C 286.329 -1.9924 -3.00559 0
M  V30 2999 O 285.433 -1.33007 -3.90362 0
M  V30 3000 H 284.774 -0.428973 -0.506831 0
M  V30 3001 H 287.304 -1.73521 -1.08404 0
M  V30 3002 H 287.314 -2.08854 -3.50491 0
M  V30 3003 H 285.989 -3.03342 -2.84528 0
M  V30 3004 H 284.566 -1.31848 -3.48813 0
M  V30 3005 N 286.751 1.08385 -1.14413 0
M  V30 3006 C 287.684 2.14642 -0.774871 0
M  V30 3007 C 288.662 1.60761 0.243876 0
M  V30 3008 O 289.846 1.88031 0.132883 0
M  V30 3009 C 286.973 3.38366 -0.150491 0
M  V30 3010 C 286.019 4.10997 -1.13945 0
M  V30 3011 S 286.852 4.63797 -2.67679 0
M  V30 3012 C 288.008 5.90808 -2.06631 0
M  V30 3013 H 288.241 2.45633 -1.67487 0
M  V30 3014 H 285.774 1.20498 -0.96538 0
M  V30 3015 H 287.732 4.09996 0.203334 0
M  V30 3016 H 286.393 3.05572 0.72694 0
M  V30 3017 H 285.586 4.99783 -0.65059 0
M  V30 3018 H 285.188 3.4528 -1.43727 0
M  V30 3019 H 287.48 6.62411 -1.4219 0
M  V30 3020 H 288.423 6.4439 -2.93542 0
M  V30 3021 H 288.831 5.4383 -1.51357 0
M  V30 3022 N 288.23 0.939286 1.26551 0
M  V30 3023 C 289.478 0.58469 1.93457 0
M  V30 3024 C 289.799 -0.878774 1.74076 0
M  V30 3025 O 289.069 -1.62421 1.09528 0
M  V30 3026 H 287.649 0.21325 0.715914 0
M  V30 3027 H 290.311 1.1942 1.54029 0
M  V30 3028 H 289.407 0.800849 3.0165 0
M  V30 3029 N 289.708 -1.40897 0.706093 0
M  V30 3030 C 290.948 -2.02916 0.245827 0
M  V30 3031 C 291.312 -1.54751 -1.13649 0
M  V30 3032 O 292.513 -2.08768 -1.69321 0
M  V30 3033 C 290.784 -3.56031 0.312537 0
M  V30 3034 S 292.343 -4.38741 -0.0721388 0
M  V30 3035 H 289.161 -0.704186 0.0982007 0
M  V30 3036 H 291.763 -1.72168 0.926207 0
M  V30 3037 H 290.467 -3.88579 1.32039 0
M  V30 3038 H 289.998 -3.91495 -0.386641 0
M  V30 3039 H 292.013 -4.78952 -1.29692 0
M  V30 3040 N 291.186 -0.45159 -1.50991 0
M  V30 3041 C 292.416 0.108177 -2.06317 0
M  V30 3042 C 292.824 1.35774 -1.31765 0
M  V30 3043 O 292.167 1.79838 -0.374694 0
M  V30 3044 C 292.229 0.481659 -3.56259 0
M  V30 3045 C 291.893 -0.663114 -4.52163 0
M  V30 3046 C 292.89 -1.53947 -4.96585 0
M  V30 3047 C 290.575 -0.8479 -4.95092 0
M  V30 3048 C 292.569 -2.58518 -5.82621 0
M  V30 3049 C 290.256 -1.89686 -5.80915 0
M  V30 3050 C 291.254 -2.76388 -6.24579 0
M  V30 3051 O 290.942 -3.79482 -7.08695 0
M  V30 3052 H 290.674 0.00499183 -0.675982 0
M  V30 3053 H 293.228 -0.633659 -1.95381 0
M  V30 3054 H 291.458 1.27641 -3.65027 0
M  V30 3055 H 293.147 0.974233 -3.94035 0
M  V30 3056 H 293.913 -1.4083 -4.64103 0
M  V30 3057 H 289.792 -0.18258 -4.60638 0
M  V30 3058 H 293.336 -3.26224 -6.16623 0
M  V30 3059 H 289.233 -2.02817 -6.12809 0
M  V30 3060 H 290.001 -3.76234 -7.26905 0
M  V30 3061 N 292.664 1.56529 -0.183458 0
M  V30 3062 C 293.574 2.22144 0.754272 0
M  V30 3063 C 294.59 1.21684 1.24374 0
M  V30 3064 O 295.766 1.54385 1.29333 0
M  V30 3065 C 292.831 2.85884 1.96141 0
M  V30 3066 C 291.892 4.01579 1.51765 0
M  V30 3067 C 291.125 4.6227 2.66725 0
M  V30 3068 O 291.348 4.21865 3.83909 0
M  V30 3069 O 290.282 5.51936 2.40104 0
M  V30 3070 H 294.108 3.02861 0.225527 0
M  V30 3071 H 291.693 1.49331 0.0453032 0
M  V30 3072 H 293.575 3.26253 2.66715 0
M  V30 3073 H 292.25 2.08154 2.47899 0
M  V30 3074 H 291.157 3.65856 0.781049 0
M  V30 3075 H 292.49 4.80938 1.04686 0
M  V30 3076 N 294.142 -0.090211 1.57342 0
M  V30 3077 C 295.391 -0.791531 1.8552 0
M  V30 3078 C 295.704 -1.79659 0.773441 0
M  V30 3079 O 296.91 -2.54616 0.942497 0
M  V30 3080 C 295.366 -1.45856 3.2902 0
M  V30 3081 C 294.974 -0.493017 4.45279 0
M  V30 3082 C 296.718 -2.14332 3.66418 0
M  V30 3083 C 294.625 -1.16491 5.79814 0
M  V30 3084 H 293.555 -0.299356 0.692027 0
M  V30 3085 H 296.206 -0.0445343 1.83446 0
M  V30 3086 H 294.588 -2.25318 3.2565 0
M  V30 3087 H 295.762 0.270464 4.60006 0
M  V30 3088 H 294.077 0.0863061 4.16311 0
M  V30 3089 H 296.674 -2.65344 4.64216 0
M  V30 3090 H 297.017 -2.93447 2.95287 0
M  V30 3091 H 297.55 -1.41724 3.71698 0
M  V30 3092 H 294.289 -0.41447 6.54188 0
M  V30 3093 H 293.809 -1.8997 5.68921 0
M  V30 3094 H 295.488 -1.69001 6.24538 0
M  V30 3095 N 295.62 -1.53406 -0.361157 0
M  V30 3096 C 296.845 -1.74024 -1.12829 0
M  V30 3097 C 297.27 -0.470069 -1.82132 0
M  V30 3098 O 296.628 0.57619 -1.719 0
M  V30 3099 C 296.676 -2.90903 -2.13091 0
M  V30 3100 O 295.78 -2.59821 -3.20261 0
M  V30 3101 H 295.121 -0.577804 -0.327168 0
M  V30 3102 H 297.651 -2.00307 -0.41693 0
M  V30 3103 H 297.661 -3.17194 -2.56616 0
M  V30 3104 H 296.336 -3.83034 -1.62042 0
M  V30 3105 H 294.913 -2.44362 -2.81677 0
M  V30 3106 N 297.098 0.621204 -1.44841 0
M  V30 3107 C 298.028 1.74366 -1.55303 0
M  V30 3108 C 299.009 1.65199 -0.405385 0
M  V30 3109 O 300.194 1.83807 -0.626787 0
M  V30 3110 C 297.324 3.12931 -1.50637 0
M  V30 3111 C 296.278 3.36896 -2.63979 0
M  V30 3112 C 295.604 4.75594 -2.44366 0
M  V30 3113 C 296.904 3.28483 -4.06074 0
M  V30 3114 H 298.598 1.65867 -2.49256 0
M  V30 3115 H 296.144 0.796558 -1.19962 0
M  V30 3116 H 298.097 3.9124 -1.56555 0
M  V30 3117 H 296.821 3.22237 -0.532057 0
M  V30 3118 H 295.48 2.60972 -2.57467 0
M  V30 3119 H 295.128 4.81616 -1.45105 0
M  V30 3120 H 294.828 4.92586 -3.20364 0
M  V30 3121 H 296.352 5.5612 -2.52117 0
M  V30 3122 H 297.766 3.96684 -4.13902 0
M  V30 3123 H 296.163 3.57008 -4.82354 0
M  V30 3124 H 297.233 2.26133 -4.28943 0
M  V30 3125 N 298.576 1.31904 0.862503 0
M  V30 3126 C 299.824 1.21776 1.61292 0
M  V30 3127 C 300.145 -0.222413 1.93727 0
M  V30 3128 O 299.415 -1.1451 1.58947 0
M  V30 3129 H 297.995 0.447717 0.597962 0
M  V30 3130 H 300.657 1.65326 1.03215 0
M  V30 3131 H 299.753 1.7948 2.5533 0
M  V30 3132 N 300.054 -1.07777 1.14986 0
M  V30 3133 C 301.331 -1.7699 0.832695 0
M  V30 3134 C 301.711 -2.001 -0.672561 0
M  V30 3135 O 301.059 -1.61598 -1.6155 0
M  V30 3136 C 301.269 -3.08139 1.63863 0
M  V30 3137 C 302.617 -3.8256 1.84208 0
M  V30 3138 O 303.641 -3.17939 1.60603 0
M  V30 3139 O 302.5 -4.98612 2.23714 0
M  V30 3140 H 299.594 -0.768389 0.305791 0
M  V30 3141 H 302.14 -1.14182 1.25541 0
M  V30 3142 H 300.912 -2.86909 2.6608 0
M  V30 3143 H 300.535 -3.78678 1.21197 0
M  V30 3144 N 301.532 -0.945985 -1.26051 0
M  V30 3145 C 302.76 -0.613025 -1.9761 0
M  V30 3146 C 303.175 0.813035 -1.70397 0
M  V30 3147 O 302.532 1.54274 -0.974979 0
M  V30 3148 C 302.583 -0.85159 -3.51326 0
M  V30 3149 O 302.304 -2.22157 -3.77595 0
M  V30 3150 C 303.805 -0.529831 -4.40122 0
M  V30 3151 H 301.025 -0.230593 -0.630133 0
M  V30 3152 H 303.569 -1.268 -1.60443 0
M  V30 3153 H 301.724 -0.243151 -3.86636 0
M  V30 3154 H 302.138 -2.2852 -4.721 0
M  V30 3155 H 303.612 -0.747348 -5.46917 0
M  V30 3156 H 304.089 0.535341 -4.35925 0
M  V30 3157 H 304.695 -1.11721 -4.10364 0
M  V30 3158 N 303.011 1.40521 -0.713556 0
M  V30 3159 C 304.26 2.00155 -0.249192 0
M  V30 3160 C 304.573 1.57224 1.16362 0
M  V30 3161 O 305.779 2.09542 1.72639 0
M  V30 3162 C 304.235 3.5773 -0.3946 0
M  V30 3163 C 303.843 4.09635 -1.81392 0
M  V30 3164 C 305.587 4.24499 0.00907364 0
M  V30 3165 C 303.494 5.59707 -1.91003 0
M  V30 3166 H 302.424 0.74868 -0.0894114 0
M  V30 3167 H 305.075 1.60784 -0.884352 0
M  V30 3168 H 303.457 3.94792 0.30911 0
M  V30 3169 H 304.631 3.83955 -2.54785 0
M  V30 3170 H 302.946 3.55456 -2.16888 0
M  V30 3171 H 305.543 5.34683 -0.0420404 0
M  V30 3172 H 305.886 4.02824 1.05065 0
M  V30 3173 H 306.419 3.92536 -0.645007 0
M  V30 3174 H 303.158 5.86234 -2.93275 0
M  V30 3175 H 302.678 5.87258 -1.22019 0
M  V30 3176 H 304.357 6.24776 -1.6812 0
M  V30 3177 N 304.489 0.459591 1.5075 0
M  V30 3178 C 305.737 -0.0991532 2.01857 0
M  V30 3179 C 306.058 -1.41247 1.34441 0
M  V30 3180 O 305.328 -1.89775 0.486022 0
M  V30 3181 H 303.908 -0.039633 0.745948 0
M  V30 3182 H 306.57 0.607387 1.85194 0
M  V30 3183 H 305.666 -0.258998 3.11023 0
M  V30 3184 N 305.967 -1.56429 0.191757 0
M  V30 3185 C 307.213 -1.97777 -0.448554 0
M  V30 3186 C 307.546 -1.07847 -1.61501 0
M  V30 3187 O 306.821 -0.129774 -1.94067 0
M  V30 3188 C 307.104 -3.48362 -0.911906 0
M  V30 3189 C 306.957 -4.4907 0.256136 0
M  V30 3190 C 308.276 -4.02561 -1.77857 0
M  V30 3191 H 305.395 -0.719071 -0.161572 0
M  V30 3192 H 308.037 -1.87896 0.282007 0
M  V30 3193 H 306.187 -3.56914 -1.53442 0
M  V30 3194 H 307.859 -4.5256 0.893733 0
M  V30 3195 H 306.102 -4.24181 0.908436 0
M  V30 3196 H 306.773 -5.51889 -0.11053 0
M  V30 3197 H 309.249 -3.96767 -1.25359 0
M  V30 3198 H 308.125 -5.08301 -2.07174 0
M  V30 3199 H 308.386 -3.47616 -2.73158 0
M  V30 3200 N 307.445 0.0818655 -1.57387 0
M  V30 3201 C 308.693 0.781368 -1.86384 0
M  V30 3202 C 309.014 1.78618 -0.782342 0
M  V30 3203 O 308.284 1.94976 0.190061 0
M  V30 3204 H 306.864 0.291562 -0.687751 0
M  V30 3205 H 309.526 0.060348 -1.94807 0
M  V30 3206 H 308.622 1.3038 -2.83562 0
M  V30 3207 N 308.923 1.53595 0.353017 0
M  V30 3208 C 310.151 1.74311 1.1146 0
M  V30 3209 C 310.566 0.477854 1.82653 0
M  V30 3210 O 309.923 -0.549977 1.74016 0
M  V30 3211 C 309.974 2.91694 2.13534 0
M  V30 3212 O 309.695 4.13325 1.45238 0
M  V30 3213 C 311.196 3.24384 3.02142 0
M  V30 3214 H 308.416 0.582669 0.332773 0
M  V30 3215 H 310.96 2.00386 0.408107 0
M  V30 3216 H 309.115 2.67977 2.79763 0
M  V30 3217 H 309.529 4.79148 2.13349 0
M  V30 3218 H 311.003 4.09893 3.69718 0
M  V30 3219 H 311.48 2.40282 3.67643 0
M  V30 3220 H 312.086 3.50073 2.41514 0
M  V30 3221 N 310.401 -0.613514 1.45168 0
M  V30 3222 C 311.812 -1.19539 1.43413 0
M  V30 3223 C 312.163 -1.95558 0.158632 0
M  V30 3224 O 311.288 -2.0335 -0.740119 0
M  V30 3225 C 311.883 -2.17445 2.59813 0
M  V30 3226 C 310.442 -2.71022 2.61197 0
M  V30 3227 C 309.589 -1.46323 2.35552 0
M  V30 3228 H 312.54 -0.403163 1.53494 0
M  V30 3229 H 312.561 -3.00373 2.33574 0
M  V30 3230 H 312.073 -1.62089 3.52631 0
M  V30 3231 H 310.174 -3.30332 1.7237 0
M  V30 3232 H 310.287 -3.15859 3.60236 0
M  V30 3233 H 308.651 -1.75072 1.84992 0
M  V30 3234 H 309.434 -0.92844 3.30507 0
M  V30 3235 N 311.879 -1.3236 -0.855495 0
M  V30 3236 C 313.127 -1.22629 -1.60644 0
M  V30 3237 C 313.448 0.212136 -1.93843 0
M  V30 3238 O 312.718 1.13666 -1.59552 0
M  V30 3239 H 311.298 -0.450882 -0.595579 0
M  V30 3240 H 313.96 -1.65871 -1.02337 0
M  V30 3241 H 313.056 -1.80832 -2.54374 0
M  V30 3242 N 313.357 1.07166 -1.15556 0
M  V30 3243 C 314.606 1.79181 -0.926132 0
M  V30 3244 C 314.919 1.87768 0.547967 0
M  V30 3245 O 316.125 2.56323 0.895036 0
M  V30 3246 C 314.581 3.22 -1.60761 0
M  V30 3247 C 314.189 3.21607 -3.11886 0
M  V30 3248 C 315.933 3.9861 -1.4598 0
M  V30 3249 C 313.84 4.59092 -3.72812 0
M  V30 3250 H 312.77 0.67154 -0.342856 0
M  V30 3251 H 315.421 1.2027 -1.3859 0
M  V30 3252 H 313.803 3.81115 -1.07553 0
M  V30 3253 H 314.977 2.72127 -3.71865 0
M  V30 3254 H 313.292 2.58495 -3.2645 0
M  V30 3255 H 315.889 5.00225 -1.88888 0
M  V30 3256 H 316.232 4.143 -0.407541 0
M  V30 3257 H 316.765 3.45996 -1.96295 0
M  V30 3258 H 313.504 4.48606 -4.77946 0
M  V30 3259 H 313.024 5.08803 -3.17616 0
M  V30 3260 H 314.703 5.28059 -3.73848 0
M  V30 3261 N 314.835 0.952656 1.25548 0
M  V30 3262 C 315.768 0.415525 2.24385 0
M  V30 3263 C 316.746 -0.502046 1.54655 0
M  V30 3264 O 317.93 -0.436875 1.83368 0
M  V30 3265 C 315.057 -0.401734 3.36309 0
M  V30 3266 C 314.103 0.455949 4.24056 0
M  V30 3267 S 314.936 1.88698 5.01152 0
M  V30 3268 C 316.092 1.07809 6.16545 0
M  V30 3269 H 316.325 1.25315 2.69599 0
M  V30 3270 H 313.858 0.756587 1.34592 0
M  V30 3271 H 315.816 -0.867329 4.01233 0
M  V30 3272 H 314.477 -1.21416 2.89684 0
M  V30 3273 H 313.67 -0.170776 5.03711 0
M  V30 3274 H 313.272 0.856675 3.64056 0
M  V30 3275 H 315.564 0.325816 6.76716 0
M  V30 3276 H 316.507 1.84849 6.83547 0
M  V30 3277 H 316.915 0.60909 5.61204 0
M  V30 3278 N 316.313 -1.40141 0.720998 0
M  V30 3279 C 317.26 -2.30688 0.071919 0
M  V30 3280 C 318.23 -1.48476 -0.744584 0
M  V30 3281 O 319.415 -1.77201 -0.707423 0
M  V30 3282 C 316.555 -3.34724 -0.839855 0
M  V30 3283 C 315.668 -4.31998 -0.0122438 0
M  V30 3284 C 314.803 -5.23102 -0.923995 0
M  V30 3285 C 313.842 -6.12033 -0.0907969 0
M  V30 3286 N 312.979 -6.95537 -0.957718 0
M  V30 3287 H 317.819 -2.85628 0.849755 0
M  V30 3288 H 315.356 -1.40653 0.430726 0
M  V30 3289 H 317.314 -3.93618 -1.38279 0
M  V30 3290 H 315.944 -2.81274 -1.58381 0
M  V30 3291 H 314.996 -3.74841 0.64794 0
M  V30 3292 H 316.308 -4.94772 0.632595 0
M  V30 3293 H 315.462 -5.86953 -1.53527 0
M  V30 3294 H 314.201 -4.60615 -1.60264 0
M  V30 3295 H 313.206 -5.47207 0.533377 0
M  V30 3296 H 314.431 -6.76581 0.584428 0
M  V30 3297 H 312.377 -6.35633 -1.62192 0
M  V30 3298 H 312.294 -7.55099 -0.36904 0
M  V30 3299 H 313.562 -7.63832 -1.555 0
M  V30 3300 N 317.792 -0.46758 -1.50504 0
M  V30 3301 C 319.069 0.15003 -1.95024 0
M  V30 3302 C 319.449 1.57304 -1.40779 0
M  V30 3303 O 318.797 2.20281 -0.607319 0
M  V30 3304 C 319.007 0.0969324 -3.48865 0
M  V30 3305 C 320.355 0.287565 -4.23625 0
M  V30 3306 O 321.379 0.173678 -3.55776 0
M  V30 3307 O 320.238 0.517186 -5.44047 0
M  V30 3308 H 317.332 0.113582 -0.819163 0
M  V30 3309 H 319.878 -0.52773 -1.61286 0
M  V30 3310 H 318.65 -0.896732 -3.80886 0
M  V30 3311 H 318.273 0.816303 -3.8913 0
M  V30 3312 N 319.27 1.56325 -0.20005 0
M  V30 3313 C 320.203 2.15234 0.758267 0
M  V30 3314 C 321.181 1.09046 1.20614 0
M  V30 3315 O 322.365 1.37186 1.29276 0
M  V30 3316 C 319.492 2.71524 2.02466 0
M  V30 3317 C 318.538 3.90345 1.71852 0
M  V30 3318 S 319.371 5.28513 0.862249 0
M  V30 3319 C 320.527 5.88227 2.13868 0
M  V30 3320 H 320.76 2.96183 0.2575 0
M  V30 3321 H 318.293 1.54393 0.0150099 0
M  V30 3322 H 320.251 3.04598 2.75191 0
M  V30 3323 H 318.912 1.90607 2.49655 0
M  V30 3324 H 318.105 4.28158 2.65888 0
M  V30 3325 H 317.707 3.58306 1.07205 0
M  V30 3326 H 319.999 6.02891 3.09076 0
M  V30 3327 H 320.942 6.84714 1.80479 0
M  V30 3328 H 321.35 5.16874 2.2694 0
M  V30 3329 N 320.748 -0.0735177 1.57428 0
M  V30 3330 C 321.678 -1.0879 2.06608 0
M  V30 3331 C 322.659 -1.40473 0.959237 0
M  V30 3332 O 323.844 -1.5013 1.23185 0
M  V30 3333 C 320.974 -2.40183 2.50857 0
M  V30 3334 C 319.928 -2.22858 3.65402 0
M  V30 3335 C 319.254 -3.59619 3.957 0
M  V30 3336 C 320.554 -1.65123 4.95511 0
M  V30 3337 H 322.248 -0.678673 2.91607 0
M  V30 3338 H 319.794 -0.325013 1.40284 0
M  V30 3339 H 321.747 -3.11437 2.83874 0
M  V30 3340 H 320.471 -2.83083 1.62885 0
M  V30 3341 H 319.13 -1.54045 3.32664 0
M  V30 3342 H 318.778 -4.00086 3.04861 0
M  V30 3343 H 318.478 -3.48866 4.72828 0
M  V30 3344 H 320.002 -4.32306 4.31212 0
M  V30 3345 H 321.416 -2.26241 5.26771 0
M  V30 3346 H 319.813 -1.65071 5.7695 0
M  V30 3347 H 320.883 -0.612559 4.81015 0
M  V30 3348 N 322.226 -1.5378 -0.344866 0
M  V30 3349 C 323.451 -1.75211 -1.10977 0
M  V30 3350 C 323.876 -0.48936 -1.81623 0
M  V30 3351 O 323.234 0.557925 -1.72502 0
M  V30 3352 C 323.282 -2.93147 -2.09993 0
M  V30 3353 O 322.386 -2.63203 -3.17487 0
M  V30 3354 H 321.727 -0.581241 -0.321021 0
M  V30 3355 H 324.257 -2.00738 -0.395661 0
M  V30 3356 H 324.267 -3.19898 -2.53237 0
M  V30 3357 H 322.942 -3.84731 -1.5797 0
M  V30 3358 H 321.519 -2.47336 -2.79069 0
M  V30 3359 N 323.704 0.605807 -1.45491 0
M  V30 3360 C 324.667 1.69836 -1.5391 0
M  V30 3361 C 325.667 1.55261 -0.418424 0
M  V30 3362 O 326.857 1.60296 -0.681965 0
M  V30 3363 C 323.989 3.09117 -1.43734 0
M  V30 3364 H 325.182 1.63738 -2.51257 0
M  V30 3365 H 322.735 0.821689 -1.32959 0
M  V30 3366 H 323.47 3.20791 -0.475788 0
M  V30 3367 H 323.255 3.21104 -2.25021 0
M  V30 3368 H 324.745 3.88696 -1.52661 0
M  V30 3369 N 325.182 1.32811 0.848464 0
M  V30 3370 C 326.428 1.23907 1.60546 0
M  V30 3371 C 326.761 -0.197161 1.93197 0
M  V30 3372 O 326.036 -1.13596 1.5788 0
M  V30 3373 C 326.319 2.10489 2.92175 0
M  V30 3374 C 326.172 3.62522 2.66266 0
M  V30 3375 C 327.491 1.97075 3.93509 0
M  V30 3376 H 324.61 0.451459 0.58254 0
M  V30 3377 H 327.252 1.62818 0.979296 0
M  V30 3378 H 325.402 1.77434 3.45614 0
M  V30 3379 H 327.074 4.05821 2.19334 0
M  V30 3380 H 325.317 3.84879 2.00126 0
M  V30 3381 H 325.988 4.18437 3.6002 0
M  V30 3382 H 328.464 2.26045 3.49346 0
M  V30 3383 H 327.34 2.59923 4.83457 0
M  V30 3384 H 327.601 0.940186 4.31987 0
M  V30 3385 N 326.66 -1.06551 1.16123 0
M  V30 3386 C 327.593 -2.13382 0.80892 0
M  V30 3387 C 328.571 -1.61128 -0.21827 0
M  V30 3388 O 329.755 -1.88219 -0.102952 0
M  V30 3389 C 326.882 -3.38083 0.204303 0
M  V30 3390 C 325.928 -4.09133 1.20469 0
M  V30 3391 S 326.761 -4.5948 2.75024 0
M  V30 3392 C 327.917 -5.87446 2.16005 0
M  V30 3393 H 328.15 -2.42937 1.71373 0
M  V30 3394 H 325.683 -1.18947 0.984428 0
M  V30 3395 H 327.641 -4.10268 -0.138081 0
M  V30 3396 H 326.302 -3.0669 -0.678234 0
M  V30 3397 H 325.495 -4.98685 0.730019 0
M  V30 3398 H 325.097 -3.4295 1.49202 0
M  V30 3399 H 327.389 -6.60065 1.5271 0
M  V30 3400 H 328.332 -6.39639 3.03756 0
M  V30 3401 H 328.74 -5.41354 1.59989 0
M  V30 3402 N 328.138 -0.959301 -1.25041 0
M  V30 3403 C 329.07 -0.440543 -2.24926 0
M  V30 3404 C 330.083 0.446131 -1.56568 0
M  V30 3405 O 331.272 0.253657 -1.76689 0
M  V30 3406 C 328.372 0.38412 -3.36716 0
M  V30 3407 C 327.545 -0.490658 -4.34639 0
M  V30 3408 C 326.604 0.276587 -5.25473 0
M  V30 3409 O 325.63 -0.326614 -5.68262 0
M  V30 3410 N 326.832 1.56844 -5.5891 0
M  V30 3411 H 329.597 -1.29931 -2.70071 0
M  V30 3412 H 327.158 -0.830181 -1.38995 0
M  V30 3413 H 329.15 0.905228 -3.94446 0
M  V30 3414 H 327.72 1.14377 -2.90924 0
M  V30 3415 H 326.94 -1.19282 -3.7572 0
M  V30 3416 H 328.228 -1.08756 -4.97041 0
M  V30 3417 H 327.626 2.08036 -5.26059 0
M  V30 3418 H 326.183 2.03541 -6.19205 0
M  V30 3419 N 329.616 1.39756 -0.72842 0
M  V30 3420 C 330.526 2.34444 -0.0855374 0
M  V30 3421 C 331.542 1.57976 0.729356 0
M  V30 3422 O 332.718 1.90301 0.659346 0
M  V30 3423 C 329.783 3.36965 0.815798 0
M  V30 3424 C 328.844 4.29299 -0.0105996 0
M  V30 3425 C 328.077 5.26923 0.84781 0
M  V30 3426 O 328.3 5.30859 2.08673 0
M  V30 3427 O 327.234 6.01249 0.279969 0
M  V30 3428 H 331.06 2.91065 -0.866892 0
M  V30 3429 H 328.645 1.4117 -0.48902 0
M  V30 3430 H 330.527 3.99804 1.33171 0
M  V30 3431 H 329.202 2.82739 1.57608 0
M  V30 3432 H 328.109 3.69703 -0.571877 0
M  V30 3433 H 329.442 4.86712 -0.73295 0
M  V30 3434 N 331.094 0.475555 1.50254 0
M  V30 3435 C 332.34 -0.0780073 2.0265 0
M  V30 3436 C 332.673 -1.38968 1.35652 0
M  V30 3437 O 331.948 -1.8839 0.483691 0
M  V30 3438 C 332.231 -0.257161 3.59181 0
M  V30 3439 C 332.084 1.07585 4.36744 0
M  V30 3440 C 333.403 -1.00965 4.28362 0
M  V30 3441 H 330.522 -0.0268758 0.73651 0
M  V30 3442 H 333.164 0.622015 1.7953 0
M  V30 3443 H 331.314 -0.853412 3.79011 0
M  V30 3444 H 332.986 1.70902 4.28474 0
M  V30 3445 H 331.229 1.6714 4.00308 0
M  V30 3446 H 331.9 0.904088 5.44546 0
M  V30 3447 H 334.376 -0.504214 4.13034 0
M  V30 3448 H 333.252 -1.10381 5.37687 0
M  V30 3449 H 333.513 -2.04731 3.91839 0
M  V30 3450 N 332.573 -1.56217 0.208337 0
M  V30 3451 C 333.984 -1.84243 -0.301904 0
M  V30 3452 C 334.335 -1.12939 -1.60434 0
M  V30 3453 O 333.46 -0.39461 -2.12772 0
M  V30 3454 C 334.055 -3.34231 -0.554543 0
M  V30 3455 C 332.614 -3.62621 -1.00912 0
M  V30 3456 C 331.761 -2.77224 -0.064933 0
M  V30 3457 H 334.712 -1.52712 0.431833 0
M  V30 3458 H 334.733 -3.5372 -1.40223 0
M  V30 3459 H 334.245 -3.86099 0.393561 0
M  V30 3460 H 332.346 -3.16197 -1.97104 0
M  V30 3461 H 332.459 -4.7071 -0.892674 0
M  V30 3462 H 330.823 -2.48256 -0.56929 0
M  V30 3463 H 331.606 -3.31887 0.877851 0
M  V30 3464 N 334.051 0.0651679 -1.57465 0
M  V30 3465 C 334.981 1.07693 -2.07182 0
M  V30 3466 C 335.962 1.39962 -0.966673 0
M  V30 3467 O 337.147 1.49475 -1.2398 0
M  V30 3468 C 334.277 2.3885 -2.52127 0
M  V30 3469 C 333.231 2.20917 -3.66579 0
M  V30 3470 C 332.557 3.57515 -3.97601 0
M  V30 3471 C 333.857 1.62493 -4.9638 0
M  V30 3472 H 335.551 0.663199 -2.91962 0
M  V30 3473 H 333.097 0.317569 -1.40455 0
M  V30 3474 H 335.05 3.09928 -2.85522 0
M  V30 3475 H 333.774 2.82215 -1.64384 0
M  V30 3476 H 332.433 1.52279 -3.33477 0
M  V30 3477 H 332.081 3.98463 -3.06979 0
M  V30 3478 H 331.781 3.46353 -4.74672 0
M  V30 3479 H 333.305 4.30013 -4.33499 0
M  V30 3480 H 334.719 2.23445 -5.27963 0
M  V30 3481 H 333.116 1.62009 -5.77818 0
M  V30 3482 H 334.186 0.587041 -4.81333 0
M  V30 3483 N 335.529 1.53961 0.336706 0
M  V30 3484 C 336.492 1.81724 1.39675 0
M  V30 3485 C 337.492 0.688532 1.45313 0
M  V30 3486 O 338.682 0.956829 1.45569 0
M  V30 3487 C 335.814 1.96543 2.78538 0
M  V30 3488 H 337.007 2.76424 1.16318 0
M  V30 3489 H 334.56 1.45478 0.571474 0
M  V30 3490 H 335.295 1.0401 3.07168 0
M  V30 3491 H 335.08 2.78665 2.75841 0
M  V30 3492 H 336.57 2.19516 3.5525 0
M  V30 3493 N 337.007 -0.598083 1.45811 0
M  V30 3494 C 337.97 -1.69018 1.54808 0
M  V30 3495 C 338.97 -1.55037 0.426652 0
M  V30 3496 O 340.16 -1.59932 0.690456 0
M  V30 3497 C 337.292 -3.0835 1.45371 0
M  V30 3498 H 338.485 -1.62403 2.52121 0
M  V30 3499 H 336.038 -0.814626 1.33392 0
M  V30 3500 H 336.773 -3.20534 0.492793 0
M  V30 3501 H 336.558 -3.19907 2.26721 0
M  V30 3502 H 338.048 -3.8788 1.54721 0
M  V30 3503 N 338.485 -1.33259 -0.841409 0
M  V30 3504 C 339.415 -1.25926 -1.96634 0
M  V30 3505 C 340.396 -0.140349 -1.6952 0
M  V30 3506 O 341.581 -0.329707 -1.91381 0
M  V30 3507 C 338.711 -0.99512 -3.32738 0
M  V30 3508 C 337.665 -2.0767 -3.74242 0
M  V30 3509 C 336.991 -1.66474 -5.08125 0
M  V30 3510 C 338.291 -3.49318 -3.88297 0
M  V30 3511 H 339.985 -2.20046 -2.03027 0
M  V30 3512 H 337.531 -1.05931 -0.975425 0
M  V30 3513 H 339.484 -0.930323 -4.11002 0
M  V30 3514 H 338.208 -0.0183004 -3.26595 0
M  V30 3515 H 336.867 -2.13187 -2.98239 0
M  V30 3516 H 336.515 -0.675012 -4.9845 0
M  V30 3517 H 336.215 -2.3885 -5.36865 0
M  V30 3518 H 337.739 -1.61455 -5.88867 0
M  V30 3519 H 339.153 -3.46316 -4.56879 0
M  V30 3520 H 337.55 -4.20158 -4.28471 0
M  V30 3521 H 338.62 -3.8801 -2.9082 0
M  V30 3522 N 339.963 1.05934 -1.16686 0
M  V30 3523 C 340.926 2.11669 -0.879144 0
M  V30 3524 C 341.926 1.60294 0.127445 0
M  V30 3525 O 343.116 1.7389 -0.103865 0
M  V30 3526 C 340.248 3.39438 -0.315425 0
M  V30 3527 H 341.441 2.38626 -1.81653 0
M  V30 3528 H 338.994 1.22058 -0.976299 0
M  V30 3529 H 339.729 3.18132 0.629468 0
M  V30 3530 H 339.514 3.78034 -1.04079 0
M  V30 3531 H 341.004 4.17391 -0.132189 0
M  V30 3532 N 341.441 0.965919 1.2453 0
M  V30 3533 C 342.687 0.62776 1.92839 0
M  V30 3534 C 343.02 -0.834694 1.75347 0
M  V30 3535 O 342.295 -1.60031 1.10546 0
M  V30 3536 C 342.578 1.00109 3.45905 0
M  V30 3537 C 342.431 2.52011 3.72573 0
M  V30 3538 C 343.75 0.53435 4.36844 0
M  V30 3539 H 340.869 0.229537 0.700344 0
M  V30 3540 H 343.511 1.2046 1.46933 0
M  V30 3541 H 341.661 0.510238 3.85135 0
M  V30 3542 H 343.333 3.08559 3.42912 0
M  V30 3543 H 341.576 2.95287 3.17786 0
M  V30 3544 H 342.247 2.73183 4.79661 0
M  V30 3545 H 344.723 0.955565 4.04979 0
M  V30 3546 H 343.599 0.824152 5.42678 0
M  V30 3547 H 343.86 -0.565589 4.38467 0
M  V30 3548 N 342.919 -1.39368 0.735821 0
M  V30 3549 C 343.869 -2.27885 0.0724287 0
M  V30 3550 C 344.853 -1.44301 -0.711756 0
M  V30 3551 O 346.045 -1.67206 -0.58063 0
M  V30 3552 C 343.174 -3.33029 -0.833454 0
M  V30 3553 C 342.26 -4.24078 -0.0433749 0
M  V30 3554 N 342.651 -4.96138 0.983903 0
M  V30 3555 C 340.949 -4.45164 -0.272905 0
M  V30 3556 C 341.65 -5.63069 1.4604 0
M  V30 3557 N 340.626 -5.37991 0.778857 0
M  V30 3558 H 344.428 -2.81052 0.859467 0
M  V30 3559 H 341.942 -1.5206 0.570227 0
M  V30 3560 H 343.939 -3.95311 -1.32419 0
M  V30 3561 H 342.599 -2.81421 -1.61964 0
M  V30 3562 H 343.61 -4.9958 1.36528 0
M  V30 3563 H 340.287 -4.04497 -1.03383 0
M  V30 3564 H 341.677 -6.30755 2.31511 0
M  V30 3565 N 344.397 -0.483516 -1.5 0
M  V30 3566 C 345.637 0.0657469 -2.04294 0
M  V30 3567 C 346.001 1.35869 -1.35659 0
M  V30 3568 O 347.202 1.99111 -1.80578 0
M  V30 3569 C 345.473 0.232758 -3.56641 0
M  V30 3570 S 347.032 0.738788 -4.32536 0
M  V30 3571 H 343.85 0.0100755 -0.710929 0
M  V30 3572 H 346.452 -0.653494 -1.84254 0
M  V30 3573 H 345.156 -0.713847 -4.04144 0
M  V30 3574 H 344.687 0.977751 -3.81056 0
M  V30 3575 H 346.702 2.01048 -4.53645 0
M  V30 3576 N 345.875 1.56104 -0.216619 0
M  V30 3577 C 346.825 2.16703 0.708798 0
M  V30 3578 C 347.809 1.11392 1.16106 0
M  V30 3579 O 349.001 1.37395 1.11587 0
M  V30 3580 C 346.13 2.84666 1.91886 0
M  V30 3581 C 345.216 3.97195 1.48651 0
M  V30 3582 N 345.607 4.99959 0.766434 0
M  V30 3583 C 343.905 4.09193 1.77418 0
M  V30 3584 C 344.606 5.79126 0.546659 0
M  V30 3585 N 343.582 5.32315 1.10188 0
M  V30 3586 H 347.384 2.93516 0.150162 0
M  V30 3587 H 344.898 1.6239 -0.0176768 0
M  V30 3588 H 346.895 3.26486 2.59253 0
M  V30 3589 H 345.555 2.09347 2.48202 0
M  V30 3590 H 346.566 5.16197 0.419634 0
M  V30 3591 H 343.243 3.45021 2.35088 0
M  V30 3592 H 344.633 6.71895 -0.026103 0
M  V30 3593 N 347.353 -0.0568162 1.57498 0
M  V30 3594 C 348.63 -0.786954 1.79071 0
M  V30 3595 C 349.01 -1.95028 0.80792 0
M  V30 3596 O 348.358 -2.27968 -0.155858 0
M  V30 3597 C 348.568 -1.24594 3.26002 0
M  V30 3598 C 349.916 -1.67323 3.90241 0
M  V30 3599 O 350.94 -1.34124 3.29984 0
M  V30 3600 O 349.799 -2.28842 4.9628 0
M  V30 3601 H 346.893 -0.378262 0.735423 0
M  V30 3602 H 349.439 -0.035734 1.69662 0
M  V30 3603 H 348.211 -0.41423 3.89101 0
M  V30 3604 H 347.834 -2.05803 3.40192 0
M  V30 3605 N 348.832 -1.54138 -0.328536 0
M  V30 3606 C 350.06 -1.76062 -1.08673 0
M  V30 3607 C 350.475 -0.506852 -1.81869 0
M  V30 3608 O 349.832 0.522223 -1.74869 0
M  V30 3609 C 349.883 -2.95054 -2.08866 0
M  V30 3610 O 349.604 -4.15583 -1.38644 0
M  V30 3611 C 351.105 -3.2915 -2.96943 0
M  V30 3612 H 348.325 -0.587889 -0.323461 0
M  V30 3613 H 350.869 -2.0101 -0.376175 0
M  V30 3614 H 349.024 -2.72394 -2.75464 0
M  V30 3615 H 349.438 -4.82481 -2.05699 0
M  V30 3616 H 350.912 -4.15723 -3.63151 0
M  V30 3617 H 351.389 -2.461 -3.63774 0
M  V30 3618 H 351.995 -3.53871 -2.35914 0
M  V30 3619 N 350.31 0.590341 -1.46126 0
M  V30 3620 C 351.54 1.37304 -1.54373 0
M  V30 3621 C 351.948 1.88332 -0.181071 0
M  V30 3622 O 351.291 1.63852 0.830559 0
M  V30 3623 C 351.353 2.6012 -2.48149 0
M  V30 3624 C 351.017 2.30613 -3.94546 0
M  V30 3625 C 352.014 1.89915 -4.83971 0
M  V30 3626 C 349.699 2.42993 -4.39613 0
M  V30 3627 C 351.693 1.61981 -6.16475 0
M  V30 3628 C 349.38 2.14672 -5.72153 0
M  V30 3629 C 350.378 1.7423 -6.60404 0
M  V30 3630 O 350.066 1.46251 -7.90485 0
M  V30 3631 H 349.798 0.426086 -0.524811 0
M  V30 3632 H 352.352 0.72539 -1.92165 0
M  V30 3633 H 350.582 3.27664 -2.05361 0
M  V30 3634 H 352.271 3.22182 -2.46887 0
M  V30 3635 H 353.037 1.79872 -4.50412 0
M  V30 3636 H 348.916 2.73435 -3.71153 0
M  V30 3637 H 352.46 1.30341 -6.85315 0
M  V30 3638 H 348.357 2.24337 -6.05263 0
M  V30 3639 H 349.125 1.6016 -8.02677 0
M  V30 3640 N 351.788 1.33704 0.83433 0
M  V30 3641 C 353.036 1.25169 1.58673 0
M  V30 3642 C 353.357 -0.18127 1.94156 0
M  V30 3643 O 352.627 -1.11113 1.6134 0
M  V30 3644 H 351.207 0.4603 0.58833 0
M  V30 3645 H 353.869 1.67478 0.996847 0
M  V30 3646 H 352.965 1.84856 2.51465 0
M  V30 3647 N 353.266 -1.05314 1.17247 0
M  V30 3648 C 354.198 -2.13023 0.845812 0
M  V30 3649 C 355.211 -1.62096 -0.151246 0
M  V30 3650 O 356.4 -1.78343 0.0748818 0
M  V30 3651 C 353.5 -3.38047 0.240292 0
M  V30 3652 C 352.673 -4.18255 1.27991 0
M  V30 3653 C 351.732 -5.21625 0.692375 0
M  V30 3654 O 350.758 -5.52619 1.36385 0
M  V30 3655 N 351.96 -5.78201 -0.516178 0
M  V30 3656 H 354.725 -2.41642 1.77283 0
M  V30 3657 H 352.286 -1.21401 1.07115 0
M  V30 3658 H 354.278 -4.04359 -0.16603 0
M  V30 3659 H 352.848 -3.06972 -0.590487 0
M  V30 3660 H 352.068 -3.47451 1.86203 0
M  V30 3661 H 353.356 -4.68643 1.98119 0
M  V30 3662 H 352.754 -5.55301 -1.07969 0
M  V30 3663 H 351.311 -6.4604 -0.86458 0
M  V30 3664 N 354.744 -0.972509 -1.24016 0
M  V30 3665 C 355.707 -0.511403 -2.23422 0
M  V30 3666 C 356.707 0.394679 -1.55881 0
M  V30 3667 O 357.897 0.189469 -1.73167 0
M  V30 3668 C 355.029 0.258769 -3.39916 0
M  V30 3669 H 356.222 -1.39024 -2.6573 0
M  V30 3670 H 353.775 -0.757585 -1.36713 0
M  V30 3671 H 354.51 1.1545 -3.03054 0
M  V30 3672 H 354.295 -0.391522 -3.9014 0
M  V30 3673 H 355.785 0.570244 -4.13688 0
M  V30 3674 N 356.222 1.38976 -0.743202 0
M  V30 3675 C 357.152 2.33171 -0.123873 0
M  V30 3676 C 358.133 1.54336 0.71516 0
M  V30 3677 O 359.318 1.82696 0.658467 0
M  V30 3678 C 356.448 3.38474 0.777978 0
M  V30 3679 C 355.402 4.27979 0.0424758 0
M  V30 3680 C 354.728 5.2405 1.06189 0
M  V30 3681 C 356.028 5.10155 -1.1198 0
M  V30 3682 H 357.722 2.85213 -0.910709 0
M  V30 3683 H 355.268 1.37133 -0.439388 0
M  V30 3684 H 357.221 4.03328 1.22084 0
M  V30 3685 H 355.945 2.84891 1.59702 0
M  V30 3686 H 354.604 3.64616 -0.380853 0
M  V30 3687 H 354.252 4.66758 1.87472 0
M  V30 3688 H 353.952 5.84785 0.574485 0
M  V30 3689 H 355.476 5.9178 1.50428 0
M  V30 3690 H 356.89 5.68307 -0.75499 0
M  V30 3691 H 355.287 5.80073 -1.53738 0
M  V30 3692 H 356.357 4.44504 -1.93764 0
M  V30 3693 N 357.7 0.491464 1.49741 0
M  V30 3694 C 358.663 -0.280906 2.27472 0
M  V30 3695 C 359.663 -0.902454 1.33088 0
M  V30 3696 O 360.853 -0.768465 1.56334 0
M  V30 3697 C 357.985 -1.40209 3.10732 0
M  V30 3698 H 359.178 0.401056 2.97206 0
M  V30 3699 H 356.731 0.246131 1.5435 0
M  V30 3700 H 357.466 -2.11849 2.45541 0
M  V30 3701 H 357.251 -0.961969 3.80117 0
M  V30 3702 H 358.741 -1.9464 3.69466 0
M  V30 3703 N 359.178 -1.55987 0.224894 0
M  V30 3704 C 360.126 -2.21808 -0.700283 0
M  V30 3705 C 361.12 -1.19854 -1.19714 0
M  V30 3706 O 362.326 -1.37925 -1.15658 0
M  V30 3707 H 358.701 -0.711226 -0.244258 0
M  V30 3708 H 360.672 -2.98152 -0.121749 0
M  V30 3709 C 359.421 -2.91444 -1.8962 0
M  V30 3710 H 358.744 -3.69655 -1.52299 0
M  V30 3711 H 360.184 -3.40894 -2.52125 0
M  V30 3712 C 358.643 -1.94098 -2.75368 0
M  V30 3713 O 359.173 -1.46004 -3.74227 0
M  V30 3714 N 357.379 -1.61675 -2.41474 0
M  V30 3715 H 356.926 -2.00979 -1.61137 0
M  V30 3716 H 356.884 -0.968036 -2.99126 0
M  V30 3717 N 360.656 0.0484629 -1.57525 0
M  V30 3718 C 361.884 0.755421 -1.92616 0
M  V30 3719 C 362.299 1.69919 -0.822984 0
M  V30 3720 O 361.656 1.81378 0.202085 0
M  V30 3721 C 361.707 1.52915 -3.27566 0
M  V30 3722 O 361.428 0.62329 -4.33644 0
M  V30 3723 C 362.929 2.33502 -3.76818 0
M  V30 3724 H 360.149 0.213465 -0.63614 0
M  V30 3725 H 362.693 0.0117698 -2.04497 0
M  V30 3726 H 360.848 2.22486 -3.17142 0
M  V30 3727 H 361.262 1.16383 -5.11425 0
M  V30 3728 H 362.736 2.83214 -4.73808 0
M  V30 3729 H 363.213 3.14068 -3.07014 0
M  V30 3730 H 363.819 1.69043 -3.90262 0
M  V30 3731 N 362.134 1.5431 0.320358 0
M  V30 3732 C 363.064 1.86912 1.3995 0
M  V30 3733 C 364.045 0.726211 1.53819 0
M  V30 3734 O 365.23 0.980233 1.67646 0
M  V30 3735 C 362.36 2.09932 2.7667 0
M  V30 3736 C 361.314 3.25776 2.77586 0
M  V30 3737 C 360.64 3.34173 4.17412 0
M  V30 3738 C 361.94 4.6335 2.41048 0
M  V30 3739 H 363.634 2.77292 1.12914 0
M  V30 3740 H 361.18 1.33421 0.541738 0
M  V30 3741 H 363.133 2.31324 3.52232 0
M  V30 3742 H 361.857 1.16304 3.0519 0
M  V30 3743 H 360.516 3.04276 2.04479 0
M  V30 3744 H 360.164 2.38098 4.43078 0
M  V30 3745 H 359.864 4.12033 4.18931 0
M  V30 3746 H 361.388 3.57803 4.94782 0
M  V30 3747 H 362.802 4.84602 3.06324 0
M  V30 3748 H 361.199 5.43782 2.53813 0
M  V30 3749 H 362.269 4.65381 1.36193 0
M  V30 3750 N 363.613 -0.582584 1.46437 0
M  V30 3751 C 364.546 -1.70633 1.51524 0
M  V30 3752 C 365.524 -1.58349 0.369351 0
M  V30 3753 O 366.708 -1.79563 0.573516 0
M  V30 3754 C 363.835 -3.08687 1.39392 0
M  V30 3755 C 362.881 -3.3949 2.58164 0
M  V30 3756 S 363.714 -3.31548 4.20519 0
M  V30 3757 C 364.87 -4.72139 4.10896 0
M  V30 3758 H 365.103 -1.66058 2.46601 0
M  V30 3759 H 362.636 -0.761337 1.34324 0
M  V30 3760 H 364.594 -3.8833 1.33079 0
M  V30 3761 H 363.255 -3.10751 0.457436 0
M  V30 3762 H 362.448 -4.40071 2.45669 0
M  V30 3763 H 362.05 -2.67415 2.61468 0
M  V30 3764 H 364.342 -5.62527 3.77584 0
M  V30 3765 H 365.285 -4.89692 5.11476 0
M  V30 3766 H 365.693 -4.48995 3.42146 0
M  V30 3767 N 365.091 -1.34144 -0.827227 0
M  V30 3768 C 366.054 -1.25264 -1.91942 0
M  V30 3769 C 367.054 -0.168866 -1.59911 0
M  V30 3770 O 368.244 -0.421198 -1.69031 0
M  V30 3771 C 365.376 -0.932952 -3.27885 0
M  V30 3772 H 366.569 -2.22357 -2.0124 0
M  V30 3773 H 364.122 -1.1837 -1.0207 0
M  V30 3774 H 364.857 0.0349917 -3.24281 0
M  V30 3775 H 364.642 -1.71682 -3.52516 0
M  V30 3776 H 366.132 -0.895874 -4.07877 0
M  V30 3777 N 366.569 1.04691 -1.17803 0
M  V30 3778 C 367.499 2.14494 -0.92275 0
M  V30 3779 C 368.48 1.69546 0.137179 0
M  V30 3780 O 369.665 1.94195 -0.0141108 0
M  V30 3781 C 366.795 3.44491 -0.440803 0
M  V30 3782 C 365.749 4.03031 -1.4405 0
M  V30 3783 C 365.075 5.28432 -0.81631 0
M  V30 3784 C 366.375 4.39932 -2.81527 0
M  V30 3785 H 368.069 2.36107 -1.84103 0
M  V30 3786 H 365.615 1.1347 -0.886599 0
M  V30 3787 H 367.568 4.2066 -0.249602 0
M  V30 3788 H 366.292 3.22546 0.513025 0
M  V30 3789 H 364.951 3.28937 -1.61853 0
M  V30 3790 H 364.599 5.02792 0.144511 0
M  V30 3791 H 364.299 5.68559 -1.48371 0
M  V30 3792 H 365.823 6.07284 -0.635496 0
M  V30 3793 H 367.237 5.07113 -2.67412 0
M  V30 3794 H 365.634 4.9109 -3.44892 0
M  V30 3795 H 366.704 3.50045 -3.35554 0
M  V30 3796 N 368.047 0.979072 1.23499 0
M  V30 3797 C 368.979 0.476271 2.24197 0
M  V30 3798 C 369.992 -0.421166 1.57258 0
M  V30 3799 O 371.181 -0.225515 1.7707 0
M  V30 3800 C 368.281 -0.330503 3.37285 0
M  V30 3801 C 367.454 0.559744 4.33804 0
M  V30 3802 C 366.513 -0.192954 5.25846 0
M  V30 3803 O 365.539 0.416978 5.67671 0
M  V30 3804 N 366.741 -1.47932 5.61334 0
M  V30 3805 H 369.506 1.34211 2.67969 0
M  V30 3806 H 367.067 0.852189 1.37657 0
M  V30 3807 H 369.059 -0.842361 3.95836 0
M  V30 3808 H 367.629 -1.09734 2.92707 0
M  V30 3809 H 366.849 1.25245 3.73775 0
M  V30 3810 H 368.137 1.1665 4.95248 0
M  V30 3811 H 367.535 -1.9964 5.29302 0
M  V30 3812 H 366.092 -1.93664 6.22364 0
M  V30 3813 N 369.525 -1.3858 0.750561 0
M  V30 3814 C 370.458 -2.28095 0.0693139 0
M  V30 3815 C 371.436 -1.45217 -0.731491 0
M  V30 3816 O 372.62 -1.74587 -0.71076 0
M  V30 3817 C 369.747 -3.26282 -0.90871 0
M  V30 3818 C 368.793 -4.26056 -0.194507 0
M  V30 3819 S 369.626 -5.24026 1.10257 0
M  V30 3820 C 370.782 -6.2577 0.127542 0
M  V30 3821 H 371.015 -2.85526 0.8284 0
M  V30 3822 H 368.548 -1.44536 0.543014 0
M  V30 3823 H 370.506 -3.83367 -1.46766 0
M  V30 3824 H 369.167 -2.6784 -1.64075 0
M  V30 3825 H 368.36 -4.95249 -0.93512 0
M  V30 3826 H 367.962 -3.72852 0.292837 0
M  V30 3827 H 370.254 -6.73796 -0.707516 0
M  V30 3828 H 371.197 -7.03712 0.787044 0
M  V30 3829 H 371.605 -5.63938 -0.251803 0
M  V30 3830 N 371.003 -0.499398 -1.49478 0
M  V30 3831 C 372.251 0.0455996 -2.02049 0
M  V30 3832 C 372.572 1.37633 -1.38138 0
M  V30 3833 O 371.842 1.8842 -0.536166 0
M  V30 3834 H 370.422 0.0198416 -0.746736 0
M  V30 3835 H 373.084 -0.656274 -1.83519 0
M  V30 3836 H 372.18 0.176445 -3.11601 0
M  V30 3837 N 372.481 1.55866 -0.233164 0
M  V30 3838 C 373.727 1.98897 0.395959 0
M  V30 3839 C 374.06 1.12091 1.58585 0
M  V30 3840 O 373.335 0.181182 1.93654 0
M  V30 3841 C 373.618 3.50658 0.819224 0
M  V30 3842 C 373.471 4.48233 -0.375109 0
M  V30 3843 C 374.79 4.07135 1.67121 0
M  V30 3844 H 371.909 0.723102 0.142451 0
M  V30 3845 H 374.551 1.87082 -0.331725 0
M  V30 3846 H 372.701 3.60857 1.43925 0
M  V30 3847 H 374.373 4.50031 -1.01341 0
M  V30 3848 H 372.616 4.21624 -1.02058 0
M  V30 3849 H 373.287 5.51988 -0.0358328 0
M  V30 3850 H 375.763 3.99952 1.14795 0
M  V30 3851 H 374.639 5.13615 1.93625 0
M  V30 3852 H 374.9 3.54736 2.63846 0
M  V30 3853 N 373.959 -0.0401083 1.57549 0
M  V30 3854 C 375.184 -0.748931 1.93406 0
M  V30 3855 C 375.609 -1.68686 0.832274 0
M  V30 3856 O 374.967 -1.80047 -0.212818 0
M  V30 3857 C 375.015 -1.4916 3.28304 0
M  V30 3858 O 374.119 -2.6042 3.19774 0
M  V30 3859 H 373.46 -0.202212 0.63246 0
M  V30 3860 H 375.99 0.00112086 2.046 0
M  V30 3861 H 376 -1.86395 3.62934 0
M  V30 3862 H 374.675 -0.80364 4.08062 0
M  V30 3863 H 373.252 -2.25808 2.96758 0
M  V30 3864 N 375.437 -1.54477 -0.31217 0
M  V30 3865 C 376.683 -1.73483 -1.0503 0
M  V30 3866 C 377.016 -0.513125 -1.87298 0
M  V30 3867 O 376.291 0.489864 -1.8823 0
M  V30 3868 C 376.574 -3.01723 -1.96558 0
M  V30 3869 C 376.427 -4.3417 -1.17545 0
M  V30 3870 C 377.746 -3.25772 -2.95907 0
M  V30 3871 H 374.865 -0.631222 -0.380432 0
M  V30 3872 H 377.507 -1.87184 -0.325932 0
M  V30 3873 H 375.657 -2.90174 -2.58324 0
M  V30 3874 H 377.329 -4.5762 -0.581513 0
M  V30 3875 H 375.572 -4.31159 -0.477925 0
M  V30 3876 H 376.243 -5.20143 -1.84811 0
M  V30 3877 H 378.719 -3.36857 -2.44267 0
M  V30 3878 H 377.595 -4.16838 -3.57123 0
M  V30 3879 H 377.856 -2.43537 -3.68974 0
M  V30 3880 N 376.915 0.57481 -1.46744 0
M  V30 3881 C 378.161 1.3347 -1.52688 0
M  V30 3882 C 378.494 1.93353 -0.181229 0
M  V30 3883 O 377.769 1.76912 0.808237 0
M  V30 3884 C 378.052 2.45811 -2.63152 0
M  V30 3885 C 377.905 1.90912 -4.07275 0
M  V30 3886 C 379.224 3.47822 -2.69644 0
M  V30 3887 H 376.343 0.483935 -0.555856 0
M  V30 3888 H 378.985 0.644968 -1.78718 0
M  V30 3889 H 377.135 3.04646 -2.41088 0
M  V30 3890 H 378.807 1.36473 -4.4065 0
M  V30 3891 H 377.05 1.21691 -4.16382 0
M  V30 3892 H 377.721 2.72042 -4.80309 0
M  V30 3893 H 380.197 2.9888 -2.895 0
M  V30 3894 H 379.073 4.23876 -3.48742 0
M  V30 3895 H 379.334 4.05555 -1.76005 0
M  V30 3896 N 378.394 1.34581 0.820102 0
M  V30 3897 C 379.671 1.17675 1.56244 0
M  V30 3898 C 380.051 -0.249541 2.0962 0
M  V30 3899 O 379.399 -1.25125 1.91196 0
M  V30 3900 C 379.609 2.23364 2.6816 0
M  V30 3901 C 380.957 2.58485 3.36854 0
M  V30 3902 O 381.981 2.22175 2.78418 0
M  V30 3903 O 380.84 3.20868 4.42386 0
M  V30 3904 H 377.934 0.456333 0.689702 0
M  V30 3905 H 380.48 1.46222 0.861231 0
M  V30 3906 H 379.252 3.19087 2.26493 0
M  V30 3907 H 378.875 1.96009 3.45928 0
M  V30 3908 N 379.872 -1.04064 1.18357 0
M  V30 3909 C 381.097 -1.81454 1.00445 0
M  V30 3910 C 381.522 -1.82823 -0.442423 0
M  V30 3911 O 380.88 -1.24555 -1.31741 0
M  V30 3912 C 380.928 -3.24925 1.56384 0
M  V30 3913 O 380.032 -4.04856 0.785209 0
M  V30 3914 H 379.373 -0.560604 0.355835 0
M  V30 3915 H 381.903 -1.31059 1.57114 0
M  V30 3916 H 381.913 -3.75702 1.59097 0
M  V30 3917 H 380.588 -3.23244 2.61699 0
M  V30 3918 H 379.165 -3.63537 0.830399 0
M  V30 3919 N 381.35 -0.985608 -1.22978 0
M  V30 3920 C 382.575 -0.675254 -1.961 0
M  V30 3921 C 383 0.752154 -1.72407 0
M  V30 3922 O 382.358 1.5131 -0.998751 0
M  V30 3923 C 382.406 -0.977899 -3.47087 0
M  V30 3924 O 381.51 -0.072685 -4.12336 0
M  V30 3925 H 380.851 -0.253443 -0.613728 0
M  V30 3926 H 383.381 -1.32061 -1.56272 0
M  V30 3927 H 383.391 -0.916739 -3.97567 0
M  V30 3928 H 382.066 -2.01807 -3.63657 0
M  V30 3929 H 380.643 -0.188703 -3.72422 0
M  V30 3930 N 382.828 1.3818 -0.7579 0
M  V30 3931 C 384.074 2.00316 -0.316453 0
M  V30 3932 C 384.407 1.60026 1.10025 0
M  V30 3933 O 383.682 0.839835 1.75434 0
M  V30 3934 C 383.965 3.57349 -0.444245 0
M  V30 3935 C 383.818 4.07591 -1.90236 0
M  V30 3936 C 385.137 4.3981 0.1598 0
M  V30 3937 H 382.256 0.727741 -0.116459 0
M  V30 3938 H 384.898 1.6406 -0.958352 0
M  V30 3939 H 383.048 3.88365 0.102233 0
M  V30 3940 H 384.72 3.87199 -2.50748 0
M  V30 3941 H 382.963 3.60297 -2.41595 0
M  V30 3942 H 383.634 5.16677 -1.94291 0
M  V30 3943 H 386.11 4.14971 -0.306314 0
M  V30 3944 H 384.986 5.48885 0.0401675 0
M  V30 3945 H 385.247 4.24102 1.24859 0
M  V30 3946 N 384.306 0.507319 1.49211 0
M  V30 3947 C 385.269 -0.256763 2.27757 0
M  V30 3948 C 386.269 -0.888287 1.34038 0
M  V30 3949 O 387.459 -0.751841 1.5714 0
M  V30 3950 C 384.591 -1.36905 3.12202 0
M  V30 3951 H 385.784 0.432557 2.96764 0
M  V30 3952 H 383.337 0.262488 1.5408 0
M  V30 3953 H 384.072 -2.09233 2.47775 0
M  V30 3954 H 383.857 -0.921599 3.81115 0
M  V30 3955 H 385.347 -1.9071 3.7151 0
M  V30 3956 N 385.784 -1.5574 0.241426 0
M  V30 3957 C 387.032 -1.98417 -0.384075 0
M  V30 3958 C 387.353 -1.13078 -1.58866 0
M  V30 3959 O 386.623 -0.212312 -1.94746 0
M  V30 3960 H 385.203 -0.732813 -0.144894 0
M  V30 3961 H 387.865 -1.9193 0.338943 0
M  V30 3962 H 386.961 -3.04219 -0.696939 0
M  V30 3963 N 387.262 0.0317525 -1.57568 0
M  V30 3964 C 388.192 1.03274 -2.0942 0
M  V30 3965 C 389.173 1.3788 -0.996143 0
M  V30 3966 O 390.358 1.46811 -1.27122 0
M  V30 3967 C 387.488 2.33448 -2.57137 0
M  V30 3968 C 386.442 2.13091 -3.71182 0
M  V30 3969 C 385.768 3.49001 -4.05095 0
M  V30 3970 C 387.068 1.51928 -4.99715 0
M  V30 3971 H 388.762 0.60112 -2.93303 0
M  V30 3972 H 386.308 0.287705 -1.41097 0
M  V30 3973 H 388.261 3.03802 -2.92032 0
M  V30 3974 H 386.985 2.78665 -1.70333 0
M  V30 3975 H 385.644 1.45171 -3.36632 0
M  V30 3976 H 385.292 3.91862 -3.15362 0
M  V30 3977 H 384.992 3.36207 -4.81911 0
M  V30 3978 H 386.516 4.20721 -4.42522 0
M  V30 3979 H 387.93 2.12196 -5.32584 0
M  V30 3980 H 386.327 1.49716 -5.81124 0
M  V30 3981 H 387.397 0.484811 -4.8247 0
M  V30 3982 N 388.74 1.54641 0.303973 0
M  V30 3983 C 389.988 1.73437 1.0375 0
M  V30 3984 C 390.309 0.521449 1.87899 0
M  V30 3985 O 389.579 -0.46432 1.90318 0
M  V30 3986 H 388.159 0.639518 0.386039 0
M  V30 3987 H 390.821 1.91988 0.335675 0
M  V30 3988 H 389.917 2.62235 1.69231 0
M  V30 3989 N 390.218 -0.567019 1.47046 0
M  V30 3990 C 391.466 -1.322 1.52864 0
M  V30 3991 C 391.787 -1.94088 0.188388 0
M  V30 3992 O 391.057 -1.7941 -0.786693 0
M  V30 3993 H 389.637 -0.490894 0.563056 0
M  V30 3994 H 392.299 -0.662879 1.83281 0
M  V30 3995 H 391.395 -2.12062 2.2899 0
M  V30 3996 N 391.696 -1.35014 -0.812953 0
M  V30 3997 C 392.936 -1.29289 -1.58315 0
M  V30 3998 C 393.3 0.132727 -1.91541 0
M  V30 3999 O 394.501 0.314269 -2.66957 0
M  V30 4000 C 392.772 -2.1681 -2.84127 0
M  V30 4001 S 394.331 -2.28538 -3.74588 0
M  V30 4002 H 391.149 -0.459569 -0.542511 0
M  V30 4003 H 393.751 -1.70336 -0.959467 0
M  V30 4004 H 392.455 -3.19379 -2.57731 0
M  V30 4005 H 391.986 -1.76697 -3.51485 0
M  V30 4006 H 394.001 -1.4655 -4.74065 0
M  V30 4007 N 393.175 1.03435 -1.18907 0
M  V30 4008 C 394.586 1.58195 -0.991523 0
M  V30 4009 C 394.937 1.90801 0.457081 0
M  V30 4010 O 394.062 1.70272 1.33553 0
M  V30 4011 C 394.657 2.87432 -1.79355 0
M  V30 4012 C 393.216 3.38785 -1.64017 0
M  V30 4013 C 392.363 2.12292 -1.78402 0
M  V30 4014 H 395.314 0.860299 -1.33359 0
M  V30 4015 H 395.335 3.58096 -1.28638 0
M  V30 4016 H 394.847 2.63669 -2.84781 0
M  V30 4017 H 392.948 3.67547 -0.611536 0
M  V30 4018 H 393.061 4.12186 -2.44212 0
M  V30 4019 H 391.425 2.23901 -1.2141 0
M  V30 4020 H 392.208 1.90977 -2.85277 0
M  V30 4021 N 394.653 0.992116 1.22453 0
M  V30 4022 C 395.883 0.684949 1.94915 0
M  V30 4023 C 396.291 -0.754292 1.73514 0
M  V30 4024 O 395.634 -1.52056 1.03076 0
M  V30 4025 C 395.696 0.910054 3.47791 0
M  V30 4026 C 395.36 2.33363 3.92926 0
M  V30 4027 C 396.357 3.31308 4.00663 0
M  V30 4028 C 394.042 2.66785 4.25595 0
M  V30 4029 C 396.036 4.6075 4.40441 0
M  V30 4030 C 393.723 3.96446 4.65053 0
M  V30 4031 C 394.721 4.9324 4.72444 0
M  V30 4032 O 394.409 6.20584 5.1101 0
M  V30 4033 H 394.141 0.25258 0.62704 0
M  V30 4034 H 396.695 1.32939 1.56577 0
M  V30 4035 H 394.925 0.208443 3.86138 0
M  V30 4036 H 396.614 0.598257 4.01467 0
M  V30 4037 H 397.38 3.0682 3.75615 0
M  V30 4038 H 393.259 1.92148 4.19047 0
M  V30 4039 H 396.803 5.363 4.46126 0
M  V30 4040 H 392.7 4.20724 4.89552 0
M  V30 4041 H 393.468 6.24509 5.29085 0
M  V30 4042 N 396.131 -1.37776 0.765217 0
M  V30 4043 C 397.094 -2.28686 0.153416 0
M  V30 4044 C 398.094 -1.47727 -0.635081 0
M  V30 4045 O 399.284 -1.68027 -0.459632 0
M  V30 4046 C 396.416 -3.31608 -0.790495 0
M  V30 4047 H 397.609 -2.84297 0.954723 0
M  V30 4048 H 395.162 -1.46932 0.53299 0
M  V30 4049 H 395.897 -2.81109 -1.61705 0
M  V30 4050 H 395.682 -3.9144 -0.227348 0
M  V30 4051 H 397.172 -3.99559 -1.21419 0
M  V30 4052 N 397.609 -0.515225 -1.4894 0
M  V30 4053 C 398.541 0.292481 -2.27326 0
M  V30 4054 C 399.554 0.917838 -1.3446 0
M  V30 4055 O 400.743 0.798772 -1.5963 0
M  V30 4056 C 397.843 1.42803 -3.07344 0
M  V30 4057 C 397.016 0.907347 -4.27885 0
M  V30 4058 C 396.075 1.92222 -4.89834 0
M  V30 4059 O 395.101 1.48506 -5.49486 0
M  V30 4060 N 396.303 3.25355 -4.80754 0
M  V30 4061 H 399.068 -0.379721 -2.97285 0
M  V30 4062 H 396.629 -0.348638 -1.58102 0
M  V30 4063 H 398.621 2.10481 -3.45658 0
M  V30 4064 H 397.191 2.00414 -2.39902 0
M  V30 4065 H 396.411 0.0550218 -3.94162 0
M  V30 4066 H 397.699 0.538108 -5.05946 0
M  V30 4067 H 397.097 3.6355 -4.33414 0
M  V30 4068 H 395.654 3.88707 -5.23211 0
M  V30 4069 N 399.087 1.5561 -0.249682 0
M  V30 4070 C 400.335 1.98618 0.373548 0
M  V30 4071 C 400.656 1.13919 1.58264 0
M  V30 4072 O 399.926 0.222637 1.94631 0
M  V30 4073 H 398.506 0.733571 0.141006 0
M  V30 4074 H 401.168 1.91748 -0.349117 0
M  V30 4075 H 400.264 3.04584 0.680796 0
M  V30 4076 N 400.565 -0.0233959 1.57583 0
M  V30 4077 C 401.528 -1.00693 2.05897 0
M  V30 4078 C 402.528 -1.28693 0.964092 0
M  V30 4079 O 403.718 -1.23602 1.22753 0
M  V30 4080 C 400.85 -2.33825 2.4807 0
M  V30 4081 H 402.043 -0.589476 2.9405 0
M  V30 4082 H 399.596 -0.270354 1.53944 0
M  V30 4083 H 400.331 -2.80307 1.6309 0
M  V30 4084 H 400.116 -2.1483 3.2801 0
M  V30 4085 H 401.606 -3.04426 2.85857 0
M  V30 4086 N 402.043 -1.548 -0.295768 0
M  V30 4087 C 403.268 -1.78653 -1.05346 0
M  V30 4088 C 403.693 -0.546894 -1.79974 0
M  V30 4089 O 403.051 0.502763 -1.7419 0
M  V30 4090 C 403.099 -2.99679 -2.00561 0
M  V30 4091 O 402.203 -2.7317 -3.08953 0
M  V30 4092 H 401.544 -0.59116 -0.302367 0
M  V30 4093 H 404.074 -2.01895 -0.331598 0
M  V30 4094 H 404.084 -3.27793 -2.42932 0
M  V30 4095 H 402.759 -3.89562 -1.4565 0
M  V30 4096 H 401.336 -2.56089 -2.71059 0
M  V30 4097 N 403.521 0.559213 -1.47345 0
M  V30 4098 C 404.769 1.31388 -1.53563 0
M  V30 4099 C 405.09 1.93985 -0.198678 0
M  V30 4100 O 404.36 1.79825 0.777167 0
M  V30 4101 H 402.94 0.487901 -0.565652 0
M  V30 4102 H 405.602 0.65315 -1.8363 0
M  V30 4103 H 404.698 2.10844 -2.30111 0
M  V30 4104 N 404.999 1.35443 0.805782 0
M  V30 4105 C 405.947 1.28465 1.93906 0
M  V30 4106 C 406.941 0.17943 1.68447 0
M  V30 4107 O 408.147 0.345459 1.76654 0
M  V30 4108 H 404.522 0.399528 0.637088 0
M  V30 4109 H 406.493 2.24206 1.96912 0
M  V30 4110 C 405.242 1.07432 3.30687 0
M  V30 4111 H 404.565 1.91716 3.50835 0
M  V30 4112 H 406.005 1.06591 4.10383 0
M  V30 4113 C 404.464 -0.22179 3.36169 0
M  V30 4114 O 404.994 -1.21731 3.82811 0
M  V30 4115 N 403.2 -0.260841 2.89427 0
M  V30 4116 H 402.747 0.549884 2.51663 0
M  V30 4117 H 402.705 -1.12777 2.93477 0
M  V30 4118 N 406.477 -1.02803 1.19454 0
M  V30 4119 C 407.407 -2.12999 0.956758 0
M  V30 4120 C 408.388 -1.69743 -0.110188 0
M  V30 4121 O 409.573 -1.94148 0.0450038 0
M  V30 4122 C 406.703 -3.43746 0.495553 0
M  V30 4123 C 405.657 -4.00688 1.50443 0
M  V30 4124 C 404.983 -5.27067 0.900275 0
M  V30 4125 C 406.283 -4.35397 2.8849 0
M  V30 4126 H 407.977 -2.33148 1.87836 0
M  V30 4127 H 405.523 -1.12045 0.904539 0
M  V30 4128 H 407.476 -4.2021 0.316493 0
M  V30 4129 H 406.2 -3.23321 -0.461646 0
M  V30 4130 H 404.859 -3.2632 1.67065 0
M  V30 4131 H 404.507 -5.02959 -0.064503 0
M  V30 4132 H 404.207 -5.66127 1.57397 0
M  V30 4133 H 405.731 -6.06196 0.73203 0
M  V30 4134 H 407.145 -5.02795 2.75446 0
M  V30 4135 H 405.542 -4.85541 3.52661 0
M  V30 4136 H 406.612 -3.44662 3.41081 0
M  V30 4137 N 407.956 -0.998596 -1.21925 0
M  V30 4138 C 408.919 -0.558679 -2.22287 0
M  V30 4139 C 409.919 0.361525 -1.56683 0
M  V30 4140 O 411.109 0.152695 -1.73529 0
M  V30 4141 C 408.241 0.18661 -3.40389 0
M  V30 4142 H 409.434 -1.4463 -2.62721 0
M  V30 4143 H 406.987 -0.786413 -1.35075 0
M  V30 4144 H 407.722 1.08996 -3.05435 0
M  V30 4145 H 407.507 -0.474188 -3.89222 0
M  V30 4146 H 408.997 0.482367 -4.14805 0
M  V30 4147 N 409.434 1.37368 -0.772513 0
M  V30 4148 C 410.662 2.03942 -0.348588 0
M  V30 4149 C 411.077 1.58264 1.02947 0
M  V30 4150 O 410.434 0.764246 1.65727 0
M  V30 4151 C 410.485 3.5946 -0.38351 0
M  V30 4152 O 410.206 4.03468 -1.70721 0
M  V30 4153 C 411.707 4.4327 0.0519152 0
M  V30 4154 H 408.927 0.654931 -0.145966 0
M  V30 4155 H 411.471 1.75686 -1.04665 0
M  V30 4156 H 409.626 3.86486 0.265978 0
M  V30 4157 H 410.04 4.97991 -1.64636 0
M  V30 4158 H 411.514 5.51995 -0.0236733 0
M  V30 4159 H 411.991 4.2514 1.10238 0
M  V30 4160 H 412.597 4.21471 -0.569415 0
M  V30 4161 N 410.912 0.523116 1.48665 0
M  V30 4162 C 411.822 -0.247406 2.33292 0
M  V30 4163 C 412.838 -0.945769 1.46052 0
M  V30 4164 O 414.014 -0.922253 1.79043 0
M  V30 4165 C 411.079 -1.28487 3.22012 0
M  V30 4166 C 410.14 -0.597592 4.2512 0
M  V30 4167 C 409.373 -1.58563 5.09601 0
M  V30 4168 O 409.596 -2.81763 4.95949 0
M  V30 4169 O 408.53 -1.12879 5.91221 0
M  V30 4170 H 412.356 0.445869 3.00409 0
M  V30 4171 H 409.941 0.284128 1.46673 0
M  V30 4172 H 411.823 -1.88459 3.7691 0
M  V30 4173 H 410.498 -1.96068 2.57564 0
M  V30 4174 H 409.405 0.0424407 3.74076 0
M  V30 4175 H 410.738 0.0361517 4.92187 0
M  V30 4176 N 412.39 -1.55475 0.257931 0
M  V30 4177 C 413.667 -1.91155 -0.414629 0
M  V30 4178 C 414.047 -1.18008 -1.75035 0
M  V30 4179 O 413.395 -0.301193 -2.26506 0
M  V30 4180 C 413.605 -3.44283 -0.571859 0
M  V30 4181 C 414.953 -4.15744 -0.862678 0
M  V30 4182 O 415.977 -3.50083 -0.657314 0
M  V30 4183 O 414.836 -5.31909 -1.2544 0
M  V30 4184 H 411.93 -0.796016 -0.22425 0
M  V30 4185 H 414.476 -1.66976 0.302814 0
M  V30 4186 H 413.248 -3.89558 0.368844 0
M  V30 4187 H 412.871 -3.7436 -1.33943 0
M  V30 4188 N 413.868 0.0150385 -1.57593 0
M  V30 4189 C 414.798 1.01047 -2.10503 0
M  V30 4190 C 415.779 1.36816 -1.01071 0
M  V30 4191 O 416.964 1.45455 -1.28672 0
M  V30 4192 C 414.094 2.30708 -2.59598 0
M  V30 4193 C 413.048 2.09142 -3.73421 0
M  V30 4194 C 412.374 3.44685 -4.08774 0
M  V30 4195 C 413.674 1.46619 -5.01298 0
M  V30 4196 H 415.368 0.569978 -2.93925 0
M  V30 4197 H 412.914 0.272724 -1.41394 0
M  V30 4198 H 414.867 3.00687 -2.95238 0
M  V30 4199 H 413.591 2.76843 -1.73279 0
M  V30 4200 H 412.25 1.41592 -3.38153 0
M  V30 4201 H 411.898 3.88495 -3.195 0
M  V30 4202 H 411.598 3.31077 -4.8545 0
M  V30 4203 H 413.122 4.16004 -4.4696 0
M  V30 4204 H 414.536 2.06535 -5.34805 0
M  V30 4205 H 412.933 1.43544 -5.82679 0
M  V30 4206 H 414.003 0.433611 -4.82957 0
M  V30 4207 N 415.346 1.54954 0.287554 0
M  V30 4208 C 416.592 1.75132 1.02257 0
M  V30 4209 C 416.925 0.542858 1.86458 0
M  V30 4210 O 416.2 -0.459856 1.88986 0
M  V30 4211 C 416.483 3.04812 1.91733 0
M  V30 4212 C 416.336 4.35985 1.10622 0
M  V30 4213 C 417.655 3.30438 2.90687 0
M  V30 4214 H 414.774 0.637194 0.370341 0
M  V30 4215 H 417.416 1.87678 0.296111 0
M  V30 4216 H 415.566 2.94247 2.53675 0
M  V30 4217 H 417.238 4.58487 0.508636 0
M  V30 4218 H 415.481 4.31865 0.409271 0
M  V30 4219 H 416.152 5.23017 1.76513 0
M  V30 4220 H 418.628 3.40701 2.38877 0
M  V30 4221 H 417.504 4.22467 3.50447 0
M  V30 4222 H 417.765 2.49377 3.65053 0
M  V30 4223 N 416.824 -0.551391 1.4764 0
M  V30 4224 C 418.054 -1.33163 1.57959 0
M  V30 4225 C 418.462 -1.87785 0.23094 0
M  V30 4226 O 417.805 -1.65996 -0.786825 0
M  V30 4227 C 417.867 -2.53449 2.54958 0
M  V30 4228 C 417.531 -2.20071 4.00522 0
M  V30 4229 C 418.528 -1.77017 4.88836 0
M  V30 4230 C 416.213 -2.31252 4.45901 0
M  V30 4231 C 418.207 -1.4558 6.20552 0
M  V30 4232 C 415.894 -1.99427 5.77644 0
M  V30 4233 C 416.892 -1.56659 6.64791 0
M  V30 4234 O 416.58 -1.25242 7.94084 0
M  V30 4235 H 416.312 -0.412022 0.535923 0
M  V30 4236 H 418.866 -0.674186 1.9402 0
M  V30 4237 H 417.096 -3.22104 2.13976 0
M  V30 4238 H 418.785 -3.15523 2.55343 0
M  V30 4239 H 419.551 -1.67867 4.55023 0
M  V30 4240 H 415.43 -2.63498 3.78272 0
M  V30 4241 H 418.974 -1.12125 6.8853 0
M  V30 4242 H 414.871 -2.08211 6.10998 0
M  V30 4243 H 415.639 -1.38822 8.06642 0
M  V30 4244 N 418.302 -1.35869 -0.798587 0
M  V30 4245 C 419.235 -1.23801 -1.91699 0
M  V30 4246 C 420.213 -0.124143 -1.62125 0
M  V30 4247 O 421.397 -0.293656 -1.86199 0
M  V30 4248 C 418.524 -0.908063 -3.263 0
M  V30 4249 C 417.57 -2.0351 -3.74815 0
M  V30 4250 S 418.403 -3.65183 -3.91665 0
M  V30 4251 C 419.559 -3.34283 -5.29156 0
M  V30 4252 H 419.792 -2.18466 -2.01643 0
M  V30 4253 H 417.325 -1.21178 -0.956833 0
M  V30 4254 H 419.283 -0.724506 -4.04056 0
M  V30 4255 H 417.944 0.0206584 -3.14093 0
M  V30 4256 H 417.137 -1.75858 -4.72324 0
M  V30 4257 H 416.739 -2.1774 -3.04081 0
M  V30 4258 H 419.031 -2.87607 -6.13424 0
M  V30 4259 H 419.974 -4.31022 -5.61806 0
M  V30 4260 H 420.382 -2.69854 -4.95822 0
M  V30 4261 N 419.78 1.02168 -1.19998 0
M  V30 4262 C 420.71 2.12488 -0.96804 0
M  V30 4263 C 421.691 1.69799 0.101185 0
M  V30 4264 O 422.876 1.94121 -0.0552993 0
M  V30 4265 C 420.006 3.43479 -0.513776 0
M  V30 4266 C 418.96 3.99884 -1.52566 0
M  V30 4267 C 418.286 5.26582 -0.928214 0
M  V30 4268 C 419.586 4.33861 -2.90795 0
M  V30 4269 H 421.28 2.32149 -1.89069 0
M  V30 4270 H 418.826 1.11564 -0.910468 0
M  V30 4271 H 420.779 4.20036 -0.338774 0
M  V30 4272 H 419.503 3.23561 0.444493 0
M  V30 4273 H 418.162 3.25429 -1.68794 0
M  V30 4274 H 417.81 5.02986 0.0378289 0
M  V30 4275 H 417.51 5.65284 -1.60397 0
M  V30 4276 H 419.034 6.05799 -0.764167 0
M  V30 4277 H 420.448 5.01327 -2.78109 0
M  V30 4278 H 418.845 4.83664 -3.55231 0
M  V30 4279 H 419.915 3.42848 -3.42904 0
M  V30 4280 N 421.258 1.00505 1.21394 0
M  V30 4281 C 422.168 0.574806 2.27449 0
M  V30 4282 C 423.184 -0.382206 1.6975 0
M  V30 4283 O 424.36 -0.246027 1.99892 0
M  V30 4284 C 421.425 -0.0917414 3.46579 0
M  V30 4285 C 420.486 0.909758 4.1955 0
M  V30 4286 C 419.719 0.274924 5.32991 0
M  V30 4287 O 419.942 -0.928254 5.62796 0
M  V30 4288 O 418.876 0.985877 5.93771 0
M  V30 4289 H 422.702 1.45744 2.66444 0
M  V30 4290 H 420.287 0.773923 1.27792 0
M  V30 4291 H 422.169 -0.464551 4.18832 0
M  V30 4292 H 420.844 -0.948755 3.09484 0
M  V30 4293 H 419.751 1.33372 3.49518 0
M  V30 4294 H 421.084 1.73636 4.60555 0
M  V30 4295 N 422.737 -1.36956 0.779787 0
M  V30 4296 C 423.985 -1.99097 0.347079 0
M  V30 4297 C 424.306 -1.62206 -1.08232 0
M  V30 4298 O 423.576 -0.891373 -1.74446 0
M  V30 4299 H 422.156 -0.736409 0.125342 0
M  V30 4300 H 424.818 -1.67308 0.999696 0
M  V30 4301 H 423.914 -3.09107 0.431162 0
M  V30 4302 N 424.215 -0.530993 -1.48385 0
M  V30 4303 C 425.145 0.219985 -2.32461 0
M  V30 4304 C 426.126 0.934111 -1.42156 0
M  V30 4305 O 427.311 0.919694 -1.71042 0
M  V30 4306 C 424.441 1.26674 -3.23375 0
M  V30 4307 C 423.395 0.67069 -4.22712 0
M  V30 4308 C 422.721 1.82017 -5.02766 0
M  V30 4309 C 424.021 -0.358268 -5.2107 0
M  V30 4310 H 425.715 -0.48187 -2.95497 0
M  V30 4311 H 423.261 -0.233182 -1.42099 0
M  V30 4312 H 425.214 1.80006 -3.81019 0
M  V30 4313 H 423.938 1.99818 -2.58341 0
M  V30 4314 H 422.597 0.158878 -3.66256 0
M  V30 4315 H 422.245 2.54002 -4.34157 0
M  V30 4316 H 421.945 1.42727 -5.70003 0
M  V30 4317 H 423.469 2.35725 -5.63264 0
M  V30 4318 H 424.883 0.0880081 -5.73232 0
M  V30 4319 H 423.28 -0.66861 -5.96364 0
M  V30 4320 H 424.35 -1.26367 -4.68145 0
M  V30 4321 N 425.693 1.55336 -0.266172 0
M  V30 4322 C 426.941 1.99003 0.35246 0
M  V30 4323 C 427.262 1.15591 1.57047 0
M  V30 4324 O 426.532 0.243268 1.94384 0
M  V30 4325 H 425.112 0.735025 0.133217 0
M  V30 4326 H 427.774 1.91367 -0.369434 0
M  V30 4327 H 426.87 3.05289 0.648453 0
M  V30 4328 N 427.171 -0.0066808 1.57599 0
M  V30 4329 C 428.42 -0.692078 1.89455 0
M  V30 4330 C 428.733 -1.75306 0.867586 0
M  V30 4331 O 429.939 -2.49262 1.07614 0
M  V30 4332 C 428.395 -1.2821 3.36289 0
M  V30 4333 C 428.003 -0.256291 4.47266 0
M  V30 4334 C 429.747 -1.94608 3.77264 0
M  V30 4335 C 427.654 -0.855927 5.85173 0
M  V30 4336 H 426.584 -0.262252 0.706923 0
M  V30 4337 H 429.235 0.052769 1.83424 0
M  V30 4338 H 427.617 -2.0774 3.37135 0
M  V30 4339 H 428.791 0.513923 4.57925 0
M  V30 4340 H 427.106 0.306862 4.15268 0
M  V30 4341 H 429.703 -2.40364 4.77629 0
M  V30 4342 H 430.046 -2.77382 3.10427 0
M  V30 4343 H 430.579 -1.21822 3.78688 0
M  V30 4344 H 427.318 -0.0671161 6.55466 0
M  V30 4345 H 426.838 -1.59546 5.78191 0
M  V30 4346 H 428.517 -1.35658 6.32618 0
M  V30 4347 N 428.649 -1.55105 -0.279332 0
M  V30 4348 C 429.599 -1.83937 -1.34727 0
M  V30 4349 C 430.583 -0.69785 -1.44979 0
M  V30 4350 O 431.775 -0.95904 -1.48766 0
M  V30 4351 C 428.904 -2.1092 -2.70864 0
M  V30 4352 C 427.99 -3.31314 -2.64748 0
M  V30 4353 N 428.381 -4.51371 -2.2825 0
M  V30 4354 C 426.679 -3.33777 -2.95819 0
M  V30 4355 C 427.38 -5.33447 -2.31969 0
M  V30 4356 N 426.356 -4.71697 -2.7019 0
M  V30 4357 H 430.158 -2.74309 -1.05506 0
M  V30 4358 H 427.672 -1.54896 -0.487959 0
M  V30 4359 H 429.669 -2.2973 -3.47893 0
M  V30 4360 H 428.329 -1.21828 -3.00979 0
M  V30 4361 H 429.34 -4.77584 -2.00335 0
M  V30 4362 H 426.017 -2.54858 -3.30687 0
M  V30 4363 H 427.407 -6.39424 -2.06365 0
M  V30 4364 N 430.127 0.543554 -1.4793 0
M  V30 4365 C 431.355 1.32516 -1.58894 0
M  V30 4366 C 431.77 1.87215 -0.244131 0
M  V30 4367 O 431.127 1.65709 0.764652 0
M  V30 4368 C 431.178 2.48554 -2.62494 0
M  V30 4369 O 430.899 1.96112 -3.91755 0
M  V30 4370 C 432.4 3.40572 -2.8377 0
M  V30 4371 H 429.62 0.403472 -0.536145 0
M  V30 4372 H 432.164 0.657106 -1.93655 0
M  V30 4373 H 430.319 3.1127 -2.30629 0
M  V30 4374 H 430.733 2.71967 -4.4848 0
M  V30 4375 H 432.207 4.18375 -3.60093 0
M  V30 4376 H 432.684 3.94965 -1.92092 0
M  V30 4377 H 433.29 2.8366 -3.16887 0
M  V30 4378 N 431.605 1.3629 0.791371 0
M  V30 4379 C 432.853 1.30154 1.5461 0
M  V30 4380 C 433.174 -0.119409 1.94634 0
M  V30 4381 O 432.444 -1.05924 1.64794 0
M  V30 4382 H 431.024 0.478784 0.573389 0
M  V30 4383 H 433.686 1.70565 0.94306 0
M  V30 4384 H 432.782 1.92762 2.45457 0
M  V30 4385 N 433.083 -1.0153 1.20538 0
M  V30 4386 C 434.329 -1.75408 1.01783 0
M  V30 4387 C 434.662 -1.88943 -0.448814 0
M  V30 4388 O 433.937 -1.4162 -1.33319 0
M  V30 4389 C 434.22 -3.17255 1.70356 0
M  V30 4390 C 434.073 -3.11508 3.24473 0
M  V30 4391 C 435.392 -4.15955 1.43769 0
M  V30 4392 H 432.511 -0.636713 0.371167 0
M  V30 4393 H 435.153 -1.18436 1.4857 0
M  V30 4394 H 433.303 -3.65898 1.30578 0
M  V30 4395 H 434.975 -2.70658 3.73553 0
M  V30 4396 H 433.218 -2.4887 3.55311 0
M  V30 4397 H 433.889 -4.11784 3.67611 0
M  V30 4398 H 436.365 -3.75973 1.7828 0
M  V30 4399 H 435.241 -5.13368 1.94279 0
M  V30 4400 H 435.502 -4.40586 0.365564 0
M  V30 4401 N 434.561 -1.01147 -1.20859 0
M  V30 4402 C 435.509 -0.57059 -2.25493 0
M  V30 4403 C 436.503 0.388109 -1.64894 0
M  V30 4404 O 437.709 0.258592 -1.78133 0
M  V30 4405 H 434.084 -0.166191 -0.733406 0
M  V30 4406 H 436.055 -1.46411 -2.60012 0
M  V30 4407 C 434.804 0.0805241 -3.47607 0
M  V30 4408 H 434.127 -0.648156 -3.94511 0
M  V30 4409 H 435.567 0.352197 -4.22535 0
M  V30 4410 C 434.026 1.32175 -3.09889 0
M  V30 4411 O 434.556 2.41553 -3.20959 0
M  V30 4412 N 432.762 1.20392 -2.64488 0
M  V30 4413 H 432.309 0.313905 -2.5568 0
M  V30 4414 H 432.267 2.03541 -2.39621 0
M  V30 4415 N 436.039 1.36541 -0.78704 0
M  V30 4416 C 436.969 2.32659 -0.197992 0
M  V30 4417 C 437.95 1.56533 0.665697 0
M  V30 4418 O 439.135 1.84698 0.60001 0
M  V30 4419 C 436.265 3.40778 0.669901 0
M  V30 4420 C 435.219 4.27897 -0.0937039 0
M  V30 4421 C 434.545 5.27163 0.894629 0
M  V30 4422 C 435.845 5.06334 -1.28154 0
M  V30 4423 H 437.539 2.82171 -1.00099 0
M  V30 4424 H 435.085 1.35665 -0.482793 0
M  V30 4425 H 437.038 4.07008 1.09191 0
M  V30 4426 H 435.762 2.89827 1.50558 0
M  V30 4427 H 434.421 3.6322 -0.49666 0
M  V30 4428 H 434.069 4.72486 1.72527 0
M  V30 4429 H 433.769 5.86317 0.388149 0
M  V30 4430 H 435.293 5.96266 1.31525 0
M  V30 4431 H 436.707 5.65617 -0.93541 0
M  V30 4432 H 435.104 5.74888 -1.72115 0
M  V30 4433 H 436.174 4.38114 -2.07807 0
M  V30 4434 N 437.518 0.538854 1.48102 0
M  V30 4435 C 438.45 -0.256278 2.27763 0
M  V30 4436 C 439.463 -0.89633 1.35904 0
M  V30 4437 O 440.652 -0.773275 1.60881 0
M  V30 4438 C 437.752 -1.37896 3.09577 0
M  V30 4439 C 436.925 -0.839159 4.29275 0
M  V30 4440 C 435.984 -1.84405 4.9283 0
M  V30 4441 O 435.01 -1.39746 5.51779 0
M  V30 4442 N 436.212 -3.17666 4.85869 0
M  V30 4443 H 438.977 0.426968 2.96643 0
M  V30 4444 H 436.538 0.373747 1.57527 0
M  V30 4445 H 438.53 -2.04955 3.48963 0
M  V30 4446 H 437.1 -1.96572 2.4306 0
M  V30 4447 H 436.32 0.00769287 3.94199 0
M  V30 4448 H 437.608 -0.457548 5.06739 0
M  V30 4449 H 437.006 -3.56609 4.39143 0
M  V30 4450 H 435.563 -3.80334 5.29329 0
M  V30 4451 N 438.996 -1.55193 0.274407 0
M  V30 4452 C 439.943 -2.225 -0.613374 0
M  V30 4453 C 440.913 -1.19823 -1.15029 0
M  V30 4454 O 442.098 -1.48362 -1.19973 0
M  V30 4455 C 439.238 -2.94927 -1.79199 0
M  V30 4456 C 438.351 -4.12322 -1.28899 0
M  V30 4457 C 437.486 -4.72394 -2.42934 0
M  V30 4458 C 436.525 -5.81984 -1.89634 0
M  V30 4459 N 435.662 -6.36123 -2.9714 0
M  V30 4460 H 440.502 -2.97982 -0.032756 0
M  V30 4461 H 438.039 -1.47099 -0.00440146 0
M  V30 4462 H 439.997 -3.35134 -2.48478 0
M  V30 4463 H 438.627 -2.2187 -2.34465 0
M  V30 4464 H 437.679 -3.7724 -0.489327 0
M  V30 4465 H 438.991 -4.91355 -0.858587 0
M  V30 4466 H 438.145 -5.15317 -3.20208 0
M  V30 4467 H 436.884 -3.92636 -2.8929 0
M  V30 4468 H 435.889 -5.38511 -1.1084 0
M  V30 4469 H 437.114 -6.6361 -1.44215 0
M  V30 4470 H 435.06 -5.59259 -3.42878 0
M  V30 4471 H 434.977 -7.10427 -2.58515 0
M  V30 4472 H 436.245 -6.83704 -3.74391 0
M  V30 4473 N 440.474 -0.00167713 -1.576 0
M  V30 4474 C 441.404 0.988091 -2.11563 0
M  V30 4475 C 442.385 1.35736 -1.02517 0
M  V30 4476 O 443.57 1.44082 -1.30208 0
M  V30 4477 C 440.7 2.27941 -2.62031 0
M  V30 4478 C 439.654 2.0517 -3.75619 0
M  V30 4479 C 438.98 3.4033 -4.12407 0
M  V30 4480 C 440.28 1.41294 -5.02825 0
M  V30 4481 H 441.974 0.538771 -2.94513 0
M  V30 4482 H 439.52 0.257712 -1.41675 0
M  V30 4483 H 441.473 2.97539 -2.9841 0
M  V30 4484 H 440.197 2.74989 -1.76205 0
M  V30 4485 H 438.856 1.37998 -3.39635 0
M  V30 4486 H 438.504 3.85085 -3.23603 0
M  V30 4487 H 438.204 3.25909 -4.88935 0
M  V30 4488 H 439.728 4.1124 -4.51347 0
M  V30 4489 H 441.142 2.00851 -5.36965 0
M  V30 4490 H 439.539 1.37356 -5.84169 0
M  V30 4491 H 440.609 0.382362 -4.8339 0
M  V30 4492 N 441.952 1.55251 0.271103 0
M  V30 4493 C 442.882 1.9127 1.33933 0
M  V30 4494 C 443.863 0.77478 1.5143 0
M  V30 4495 O 445.048 1.03307 1.64442 0
M  V30 4496 C 442.178 2.18627 2.69851 0
M  V30 4497 C 441.132 3.34442 2.67081 0
M  V30 4498 C 440.458 3.47284 4.06569 0
M  V30 4499 C 441.758 4.70784 2.26185 0
M  V30 4500 H 443.452 2.80744 1.04035 0
M  V30 4501 H 440.998 1.35077 0.499017 0
M  V30 4502 H 442.951 2.42413 3.44694 0
M  V30 4503 H 441.675 1.25955 3.01335 0
M  V30 4504 H 440.334 3.10627 1.94695 0
M  V30 4505 H 439.982 2.52074 4.35279 0
M  V30 4506 H 439.682 4.25152 4.0561 0
M  V30 4507 H 441.206 3.73363 4.83148 0
M  V30 4508 H 442.62 4.94102 2.90751 0
M  V30 4509 H 441.017 5.51582 2.36384 0
M  V30 4510 H 442.087 4.69478 1.21319 0
M  V30 4511 N 443.43 -0.535701 1.48216 0
M  V30 4512 C 444.34 -1.66785 1.64985 0
M  V30 4513 C 445.356 -1.65654 0.532414 0
M  V30 4514 O 446.532 -1.8471 0.80275 0
M  V30 4515 C 443.597 -3.0326 1.68031 0
M  V30 4516 C 442.658 -3.1529 2.9136 0
M  V30 4517 C 441.891 -4.45255 2.94252 0
M  V30 4518 O 442.114 -5.32011 2.05719 0
M  V30 4519 O 441.048 -4.6153 3.86359 0
M  V30 4520 H 444.874 -1.55576 2.60825 0
M  V30 4521 H 442.459 -0.70815 1.31551 0
M  V30 4522 H 444.341 -3.84436 1.72589 0
M  V30 4523 H 443.016 -3.14805 0.753628 0
M  V30 4524 H 441.923 -2.3343 2.92337 0
M  V30 4525 H 443.256 -3.08658 3.83394 0
M  V30 4526 N 444.908 -1.36708 -0.784132 0
M  V30 4527 C 445.871 -1.31307 -1.87859 0
M  V30 4528 C 446.871 -0.219654 -1.59293 0
M  V30 4529 O 448.061 -0.47476 -1.67606 0
M  V30 4530 C 445.193 -1.03679 -3.24751 0
M  V30 4531 H 446.386 -2.28647 -1.94064 0
M  V30 4532 H 443.939 -1.21558 -0.98252 0
M  V30 4533 H 444.674 -0.0681936 -3.24228 0
M  V30 4534 H 444.459 -1.82811 -3.46876 0
M  V30 4535 H 445.949 -1.02518 -4.04821 0
M  V30 4536 N 446.386 1.0089 -1.21074 0
M  V30 4537 C 447.634 1.74262 -1.02358 0
M  V30 4538 C 447.955 1.89869 0.444393 0
M  V30 4539 O 447.225 1.44677 1.32081 0
M  V30 4540 H 445.805 0.645615 -0.375754 0
M  V30 4541 H 448.467 1.21596 -1.52317 0
M  V30 4542 H 447.563 2.74328 -1.4883 0
M  V30 4543 N 447.864 1.01787 1.20321 0
M  V30 4544 C 448.812 0.58254 2.25187 0
M  V30 4545 C 449.806 -0.379359 1.65098 0
M  V30 4546 O 451.012 -0.249142 1.78267 0
M  V30 4547 H 447.387 0.170078 0.732514 0
M  V30 4548 H 449.358 1.47788 2.59232 0
M  V30 4549 C 448.107 -0.0620885 3.47645 0
M  V30 4550 H 447.43 0.669069 3.94162 0
M  V30 4551 H 448.87 -0.329784 4.22716 0
M  V30 4552 C 447.329 -1.3053 3.10586 0
M  V30 4553 O 447.859 -2.39848 3.22236 0
M  V30 4554 N 446.065 -1.18988 2.65123 0
M  V30 4555 H 445.612 -0.300341 2.55843 0
M  V30 4556 H 445.57 -2.02267 2.40698 0
M  V30 4557 N 449.342 -1.36122 0.79427 0
M  V30 4558 C 450.589 -1.99111 0.368905 0
M  V30 4559 C 450.917 -1.63032 -1.0607 0
M  V30 4560 O 450.172 -0.879303 -1.74833 0
M  V30 4561 C 450.471 -3.5409 0.48527 0
M  V30 4562 C 450.137 -4.10003 1.87638 0
M  V30 4563 C 448.799 -4.24986 2.257 0
M  V30 4564 C 451.151 -4.40423 2.78706 0
M  V30 4565 C 448.479 -4.67701 3.54221 0
M  V30 4566 C 450.831 -4.84573 4.0666 0
M  V30 4567 C 449.495 -4.97761 4.44737 0
M  V30 4568 H 448.765 -0.7286 0.134992 0
M  V30 4569 H 451.412 -1.62534 1.01267 0
M  V30 4570 H 449.717 -3.91052 -0.241984 0
M  V30 4571 H 451.414 -4.00766 0.137109 0
M  V30 4572 H 448.004 -3.98784 1.57064 0
M  V30 4573 H 452.188 -4.28412 2.50553 0
M  V30 4574 H 447.444 -4.761 3.83587 0
M  V30 4575 H 451.618 -5.07074 4.77336 0
M  V30 4576 H 449.245 -5.30618 5.44379 0
M  V30 4577 N 450.82 -0.546701 -1.47814 0
M  V30 4578 C 452.069 -0.0166497 -2.01693 0
M  V30 4579 C 452.382 1.33721 -1.42752 0
M  V30 4580 O 453.588 1.95658 -1.8823 0
M  V30 4581 C 452.044 0.0206769 -3.59894 0
M  V30 4582 C 451.652 -1.3293 -4.27824 0
M  V30 4583 C 453.396 0.498674 -4.21561 0
M  V30 4584 C 451.303 -1.25165 -5.78003 0
M  V30 4585 H 450.233 -0.0024541 -0.753996 0
M  V30 4586 H 452.884 -0.692984 -1.69912 0
M  V30 4587 H 451.266 0.76244 -3.88591 0
M  V30 4588 H 452.44 -2.08795 -4.10781 0
M  V30 4589 H 450.755 -1.74438 -3.78101 0
M  V30 4590 H 453.352 0.575 -5.31599 0
M  V30 4591 H 453.695 1.5083 -3.88016 0
M  V30 4592 H 454.228 -0.18791 -3.97356 0
M  V30 4593 H 450.967 -2.23695 -6.1615 0
M  V30 4594 H 450.487 -0.53464 -5.97412 0
M  V30 4595 H 452.166 -0.949299 -6.39998 0
M  V30 4596 N 452.299 1.55045 -0.282633 0
M  V30 4597 C 453.539 2.01668 0.333088 0
M  V30 4598 C 453.903 1.1667 1.52486 0
M  V30 4599 O 455.104 1.52907 2.21072 0
M  V30 4600 C 453.375 3.50509 0.698442 0
M  V30 4601 S 454.934 4.19112 1.29963 0
M  V30 4602 H 451.752 0.703468 0.103219 0
M  V30 4603 H 454.354 1.91233 -0.406222 0
M  V30 4604 H 453.058 4.10015 -0.177693 0
M  V30 4605 H 452.589 3.64943 1.46902 0
M  V30 4606 H 454.604 4.23362 2.58803 0
M  V30 4607 N 453.777 0.010035 1.57597 0
M  V30 4608 C 454.709 -1.00649 2.05918 0
M  V30 4609 C 455.722 -1.30077 0.978964 0
M  V30 4610 O 456.911 -1.26878 1.25556 0
M  V30 4611 C 454.011 -2.33876 2.45265 0
M  V30 4612 C 453.184 -2.23242 3.7614 0
M  V30 4613 C 452.243 -3.39242 4.02245 0
M  V30 4614 O 451.269 -3.1698 4.72771 0
M  V30 4615 N 452.471 -4.6242 3.50924 0
M  V30 4616 H 455.236 -0.594333 2.93748 0
M  V30 4617 H 452.797 -0.17714 1.60928 0
M  V30 4618 H 454.789 -3.1027 2.59836 0
M  V30 4619 H 453.359 -2.66799 1.62902 0
M  V30 4620 H 452.579 -1.31696 3.71551 0
M  V30 4621 H 453.867 -2.13321 4.61922 0
M  V30 4622 H 453.265 -4.83404 2.93832 0
M  V30 4623 H 451.822 -5.36046 3.70807 0
M  V30 4624 N 455.255 -1.55392 -0.262866 0
M  V30 4625 C 456.218 -1.88181 -1.30846 0
M  V30 4626 C 457.218 -0.757079 -1.41862 0
M  V30 4627 O 458.408 -1.02519 -1.40838 0
M  V30 4628 C 455.54 -2.09609 -2.68844 0
M  V30 4629 H 456.733 -2.81659 -1.02997 0
M  V30 4630 H 454.286 -1.48039 -0.501414 0
M  V30 4631 H 455.021 -1.18547 -3.01856 0
M  V30 4632 H 454.806 -2.91508 -2.62231 0
M  V30 4633 H 456.296 -2.36215 -3.44372 0
M  V30 4634 N 456.733 0.527833 -1.48498 0
M  V30 4635 C 457.663 1.64136 -1.66077 0
M  V30 4636 C 458.644 1.62286 -0.509625 0
M  V30 4637 O 459.829 1.79449 -0.742413 0
M  V30 4638 C 456.959 3.02717 -1.70234 0
M  V30 4639 C 455.913 3.19426 -2.8487 0
M  V30 4640 C 455.239 4.5909 -2.74118 0
M  V30 4641 C 456.539 3.01993 -4.26142 0
M  V30 4642 H 458.233 1.4968 -2.593 0
M  V30 4643 H 455.779 0.718654 -1.24785 0
M  V30 4644 H 457.732 3.80491 -1.8112 0
M  V30 4645 H 456.456 3.18201 -0.735911 0
M  V30 4646 H 455.115 2.4407 -2.73542 0
M  V30 4647 H 454.763 4.71413 -1.7544 0
M  V30 4648 H 454.463 4.71214 -3.51042 0
M  V30 4649 H 455.987 5.3896 -2.86974 0
M  V30 4650 H 457.401 3.69558 -4.38292 0
M  V30 4651 H 455.798 3.2561 -5.04082 0
M  V30 4652 H 456.868 1.98396 -4.42456 0
M  V30 4653 N 458.211 1.37122 0.776871 0
M  V30 4654 C 459.159 1.32549 1.91138 0
M  V30 4655 C 460.153 0.215119 1.68029 0
M  V30 4656 O 461.359 0.382852 1.75881 0
M  V30 4657 H 457.734 0.412952 0.62847 0
M  V30 4658 H 459.705 2.28332 1.92112 0
M  V30 4659 C 458.454 1.14422 3.28333 0
M  V30 4660 H 457.777 1.99115 3.46689 0
M  V30 4661 H 459.217 1.15272 4.0803 0
M  V30 4662 C 457.676 -0.150434 3.36564 0
M  V30 4663 O 458.206 -1.13584 3.85307 0
M  V30 4664 N 456.412 -0.19939 2.89915 0
M  V30 4665 H 455.959 0.603142 2.5044 0
M  V30 4666 H 455.917 -1.06526 2.95803 0
M  V30 4667 N 459.689 -1.00246 1.21608 0
M  V30 4668 C 461.105 -1.26435 0.973975 0
M  V30 4669 C 461.305 -1.98642 -0.338143 0
M  V30 4670 O 460.361 -2.29026 -1.06317 0
M  V30 4671 C 461.674 -2.08551 2.16626 0
M  V30 4672 C 463.222 -2.21769 2.20879 0
M  V30 4673 C 463.697 -3.07267 3.39633 0
M  V30 4674 N 465.188 -3.14855 3.39736 0
M  V30 4675 C 465.923 -3.81274 4.28273 0
M  V30 4676 N 465.419 -4.497 5.27012 0
M  V30 4677 N 467.212 -3.7794 4.16074 0
M  V30 4678 H 459.363 -0.518089 2.05984 0
M  V30 4679 H 461.626 -0.291368 0.902113 0
M  V30 4680 H 461.332 -1.62847 3.11727 0
M  V30 4681 H 461.206 -3.09303 2.15897 0
M  V30 4682 H 463.593 -2.66691 1.26332 0
M  V30 4683 H 463.674 -1.20478 2.25652 0
M  V30 4684 H 463.318 -2.63047 4.34475 0
M  V30 4685 H 463.248 -4.08678 3.321 0
M  V30 4686 H 465.739 -2.66147 2.6828 0
M  V30 4687 H 466.052 -4.98092 5.90867 0
M  V30 4688 H 464.397 -4.48479 5.30935 0
M  V30 4689 H 467.588 -3.23638 3.38195 0
M  V30 4690 H 467.761 -4.29424 4.85282 0
M  V30 4691 N 461.167 -1.02423 -1.1978 0
M  V30 4692 C 462.114 -0.601023 -2.22837 0
M  V30 4693 C 463.084 0.382801 -1.61629 0
M  V30 4694 O 464.269 0.280514 -1.88727 0
M  V30 4695 C 461.409 0.0467755 -3.45068 0
M  V30 4696 C 460.522 -0.98253 -4.20678 0
M  V30 4697 C 459.657 -0.304982 -5.30324 0
M  V30 4698 C 458.696 -1.32052 -5.97686 0
M  V30 4699 N 457.833 -0.669105 -6.98904 0
M  V30 4700 H 462.673 -1.48444 -2.58396 0
M  V30 4701 H 460.21 -0.742936 -1.2696 0
M  V30 4702 H 462.168 0.439556 -4.14878 0
M  V30 4703 H 460.798 0.893796 -3.10179 0
M  V30 4704 H 459.85 -1.49341 -3.49859 0
M  V30 4705 H 461.162 -1.75455 -4.66923 0
M  V30 4706 H 460.316 0.142893 -6.06532 0
M  V30 4707 H 459.055 0.499283 -4.85138 0
M  V30 4708 H 458.06 -1.7787 -5.20233 0
M  V30 4709 H 459.285 -2.1262 -6.44957 0
M  V30 4710 H 457.231 0.115152 -6.55899 0
M  V30 4711 H 457.148 -1.37908 -7.43315 0
M  V30 4712 H 458.416 -0.245076 -7.79115 0
M  V30 4713 N 462.645 1.35699 -0.801477 0
M  V30 4714 C 463.873 2.03157 -0.391768 0
M  V30 4715 C 464.288 1.60412 0.995668 0
M  V30 4716 O 463.645 0.799228 1.64069 0
M  V30 4717 C 463.696 3.58566 -0.459671 0
M  V30 4718 O 463.417 3.99756 -1.7924 0
M  V30 4719 C 464.918 4.4328 -0.0421205 0
M  V30 4720 H 462.138 0.651688 -0.159825 0
M  V30 4721 H 464.682 1.73426 -1.08368 0
M  V30 4722 H 462.837 3.86963 0.183939 0
M  V30 4723 H 463.251 4.94387 -1.75162 0
M  V30 4724 H 464.725 5.51821 -0.140754 0
M  V30 4725 H 465.202 4.27383 1.01196 0
M  V30 4726 H 465.808 4.20168 -0.658687 0
M  V30 4727 N 464.123 0.554532 1.47522 0
M  V30 4728 C 465.348 0.0322661 2.07375 0
M  V30 4729 C 465.773 -1.25079 1.40488 0
M  V30 4730 O 465.131 -1.74859 0.47896 0
M  V30 4731 C 465.179 -0.149397 3.6029 0
M  V30 4732 O 464.283 -1.21259 3.9417 0
M  V30 4733 H 463.624 0.0501228 0.662106 0
M  V30 4734 H 466.154 0.769452 1.8958 0
M  V30 4735 H 466.164 -0.364437 4.06369 0
M  V30 4736 H 464.839 0.787743 4.08372 0
M  V30 4737 H 463.416 -0.97825 3.5984 0
M  V30 4738 N 465.601 -1.54893 0.290851 0
M  V30 4739 C 466.826 -2.04804 -0.32712 0
M  V30 4740 C 467.251 -1.16721 -1.47506 0
M  V30 4741 O 466.609 -0.169107 -1.8051 0
M  V30 4742 C 466.657 -3.52268 -0.770689 0
M  V30 4743 O 465.761 -3.67236 -1.87647 0
M  V30 4744 H 465.102 -0.660789 -0.0652227 0
M  V30 4745 H 467.632 -2.00036 0.429739 0
M  V30 4746 H 467.642 -3.9393 -1.06223 0
M  V30 4747 H 466.317 -4.15843 0.069096 0
M  V30 4748 H 464.894 -3.37479 -1.58626 0
M  V30 4749 N 467.08 -0.0183926 -1.57589 0
M  V30 4750 C 468.027 0.967022 -2.09565 0
M  V30 4751 C 468.997 1.32983 -0.995225 0
M  V30 4752 O 470.182 1.42501 -1.26878 0
M  V30 4753 C 467.322 2.24772 -2.61861 0
M  V30 4754 C 466.435 1.94232 -3.85873 0
M  V30 4755 C 465.57 3.16518 -4.26603 0
M  V30 4756 C 464.609 2.81748 -5.43401 0
M  V30 4757 N 463.746 3.96626 -5.79338 0
M  V30 4758 H 468.586 0.516874 -2.93483 0
M  V30 4759 H 466.123 0.243544 -1.4507 0
M  V30 4760 H 468.081 2.99667 -2.90268 0
M  V30 4761 H 466.711 2.67423 -1.8079 0
M  V30 4762 H 465.763 1.09625 -3.64262 0
M  V30 4763 H 467.075 1.64616 -4.70853 0
M  V30 4764 H 466.229 3.99743 -4.56389 0
M  V30 4765 H 464.968 3.49286 -3.40368 0
M  V30 4766 H 463.973 1.96933 -5.1332 0
M  V30 4767 H 465.198 2.50207 -6.31327 0
M  V30 4768 H 463.144 4.29257 -4.96059 0
M  V30 4769 H 463.061 3.70598 -6.58933 0
M  V30 4770 H 464.329 4.80586 -6.13724 0
M  V30 4771 N 468.558 1.5553 0.254621 0
M  V30 4772 C 469.804 1.77262 0.985193 0
M  V30 4773 C 470.137 0.582286 1.85265 0
M  V30 4774 O 469.412 -0.419666 1.89919 0
M  V30 4775 C 469.695 3.0881 1.85225 0
M  V30 4776 C 469.548 4.38233 1.0135 0
M  V30 4777 C 470.867 3.3653 2.83612 0
M  V30 4778 H 467.986 0.644906 0.356742 0
M  V30 4779 H 470.628 1.88264 0.256236 0
M  V30 4780 H 468.778 2.99562 2.47376 0
M  V30 4781 H 470.45 4.59463 0.411269 0
M  V30 4782 H 468.693 4.32636 0.317574 0
M  V30 4783 H 469.364 5.26644 1.65379 0
M  V30 4784 H 471.84 3.45691 2.31596 0
M  V30 4785 H 470.716 4.29805 3.41407 0
M  V30 4786 H 470.977 2.57064 3.59681 0
M  V30 4787 N 470.036 -0.519951 1.48776 0
M  V30 4788 C 470.999 -1.60574 1.6355 0
M  V30 4789 C 471.999 -1.52557 0.508234 0
M  V30 4790 O 473.189 -1.56047 0.774262 0
M  V30 4791 C 470.321 -3.00211 1.61512 0
M  V30 4792 H 471.514 -1.4881 2.60376 0
M  V30 4793 H 469.067 -0.742772 1.37523 0
M  V30 4794 H 469.802 -3.17471 0.662009 0
M  V30 4795 H 469.587 -3.07439 2.43359 0
M  V30 4796 H 471.077 -3.79134 1.75064 0
M  V30 4797 N 471.514 -1.37532 -0.769588 0
M  V30 4798 C 472.446 -1.29347 -1.89214 0
M  V30 4799 C 473.459 -0.208842 -1.61455 0
M  V30 4800 O 474.648 -0.465158 -1.72333 0
M  V30 4801 C 471.748 -0.977649 -3.24492 0
M  V30 4802 C 470.921 -2.16817 -3.7988 0
M  V30 4803 C 469.98 -1.82229 -4.93639 0
M  V30 4804 O 469.006 -2.54548 -5.09111 0
M  V30 4805 N 470.208 -0.767696 -5.75401 0
M  V30 4806 H 472.973 -2.26073 -1.96751 0
M  V30 4807 H 470.534 -1.31185 -0.948795 0
M  V30 4808 H 472.526 -0.727065 -3.98115 0
M  V30 4809 H 471.096 -0.0988777 -3.12444 0
M  V30 4810 H 470.316 -2.58038 -2.9801 0
M  V30 4811 H 471.604 -2.96308 -4.13617 0
M  V30 4812 H 471.002 -0.167626 -5.65452 0
M  V30 4813 H 469.559 -0.576973 -6.49241 0
M  V30 4814 N 472.992 0.995999 -1.22138 0
M  V30 4815 C 473.955 2.06711 -0.990109 0
M  V30 4816 C 474.955 1.60744 0.0422978 0
M  V30 4817 O 476.145 1.73095 -0.195895 0
M  V30 4818 C 473.277 3.37288 -0.49491 0
M  V30 4819 H 474.47 2.28661 -1.94047 0
M  V30 4820 H 472.023 1.16711 -1.03963 0
M  V30 4821 H 472.758 3.21022 0.459948 0
M  V30 4822 H 472.543 3.71986 -1.23971 0
M  V30 4823 H 474.033 4.16103 -0.353253 0
M  V30 4824 N 474.47 1.03057 1.19235 0
M  V30 4825 C 475.698 0.747697 1.92917 0
M  V30 4826 C 476.113 -0.69372 1.75593 0
M  V30 4827 O 475.47 -1.47191 1.07894 0
M  V30 4828 C 475.521 1.09159 3.44625 0
M  V30 4829 O 475.242 2.47641 3.61394 0
M  V30 4830 C 476.743 0.831763 4.35427 0
M  V30 4831 H 473.963 0.273453 0.612751 0
M  V30 4832 H 476.507 1.37552 1.51327 0
M  V30 4833 H 474.662 0.508919 3.84043 0
M  V30 4834 H 475.076 2.60499 4.55237 0
M  V30 4835 H 476.55 1.12233 5.4047 0
M  V30 4836 H 477.027 -0.233769 4.38577 0
M  V30 4837 H 477.633 1.39725 4.01693 0
M  V30 4838 N 475.948 -1.35272 0.808662 0
M  V30 4839 C 477.188 -2.00534 0.395668 0
M  V30 4840 C 477.552 -1.62755 -1.01857 0
M  V30 4841 O 478.753 -2.20752 -1.53368 0
M  V30 4842 C 477.024 -3.52732 0.575771 0
M  V30 4843 S 478.583 -4.38067 0.253507 0
M  V30 4844 H 475.401 -0.694962 0.150165 0
M  V30 4845 H 478.003 -1.64823 1.05137 0
M  V30 4846 H 476.707 -3.77714 1.60499 0
M  V30 4847 H 476.238 -3.93285 -0.0951739 0
M  V30 4848 H 478.253 -4.87252 -0.938068 0
M  V30 4849 N 477.426 -0.562348 -1.47226 0
M  V30 4850 C 478.373 0.182461 -2.30078 0
M  V30 4851 C 479.343 0.903503 -1.39377 0
M  V30 4852 O 480.528 0.898188 -1.68337 0
M  V30 4853 C 477.668 1.20322 -3.23445 0
M  V30 4854 C 476.781 0.487717 -4.29238 0
M  V30 4855 C 475.916 1.49422 -5.09752 0
M  V30 4856 C 474.955 0.763976 -6.07314 0
M  V30 4857 N 474.092 1.71755 -6.80768 0
M  V30 4858 H 478.932 -0.530169 -2.93246 0
M  V30 4859 H 476.469 -0.273276 -1.44539 0
M  V30 4860 H 478.427 1.80768 -3.76004 0
M  V30 4861 H 477.057 1.88382 -2.6213 0
M  V30 4862 H 476.109 -0.231374 -3.79696 0
M  V30 4863 H 477.421 -0.0841003 -4.98729 0
M  V30 4864 H 476.575 2.17206 -5.66486 0
M  V30 4865 H 475.314 2.09995 -4.40174 0
M  V30 4866 H 474.319 0.0722344 -5.49753 0
M  V30 4867 H 475.544 0.16391 -6.78902 0
M  V30 4868 H 473.49 2.31177 -6.13916 0
M  V30 4869 H 473.407 1.19802 -7.46447 0
M  V30 4870 H 474.675 2.38638 -7.42073 0
M  V30 4871 N 478.904 1.54736 -0.299062 0
M  V30 4872 C 479.834 2.26409 0.571085 0
M  V30 4873 C 480.815 1.2629 1.13951 0
M  V30 4874 O 482 1.55059 1.16921 0
M  V30 4875 C 479.13 3.00338 1.74396 0
M  V30 4876 C 478.084 4.07588 1.30599 0
M  V30 4877 C 477.41 4.69222 2.56387 0
M  V30 4878 C 478.71 5.20455 0.438645 0
M  V30 4879 H 480.404 2.99388 -0.0266991 0
M  V30 4880 H 477.95 1.43993 -0.0142812 0
M  V30 4881 H 479.903 3.49198 2.35878 0
M  V30 4882 H 478.627 2.24934 2.36796 0
M  V30 4883 H 477.286 3.59575 0.71424 0
M  V30 4884 H 476.934 3.9046 3.17097 0
M  V30 4885 H 476.634 5.41653 2.27784 0
M  V30 4886 H 478.158 5.20844 3.18675 0
M  V30 4887 H 479.572 5.65221 0.959085 0
M  V30 4888 H 477.969 5.99594 0.246466 0
M  V30 4889 H 479.039 4.8192 -0.536738 0
M  V30 4890 O 480.421 0.165592 1.60649 0
M  V30 4891 H 481.112 -0.425141 1.88977 0
M  V30 END ATOM
M  V30 BEGIN BOND
M  V30 END BOND
M  V30 END CTAB
M  END
$$$$
