drugbank_target|P20823 Hepatocyte nuclear factor 1-alpha (DB04419)
 OpenBabel12092120543D

  0  0  0     0  0            999 V3000
M  V30 BEGIN CTAB
M  V30 COUNTS 9405 9517 0 0 0
M  V30 BEGIN ATOM
M  V30 1 H -0.908 1.98254 -0.117106 0
M  V30 2 N 0 1.576 0 0
M  V30 3 C 0.933 2.03868 1.02534 0
M  V30 4 C 1.911 0.928543 1.3348 0
M  V30 5 O 3.095 1.19667 1.45644 0
M  V30 6 C 0.222 2.43627 2.35294 0
M  V30 7 C -0.732 3.65373 2.2001 0
M  V30 8 S 0.101 5.13292 1.52614 0
M  V30 9 C 1.257 5.56322 2.86805 0
M  V30 10 H 1.49 2.90518 0.631377 0
M  V30 11 H -0.977 1.52953 0.210867 0
M  V30 12 H 0.981 2.67203 3.11629 0
M  V30 13 H -0.358 1.57376 2.7183 0
M  V30 14 H -1.165 3.90944 3.18086 0
M  V30 15 H -1.563 3.418 1.51819 0
M  V30 16 H 0.729 5.58782 3.83104 0
M  V30 17 H 1.672 6.56266 2.65933 0
M  V30 18 H 2.08 4.83886 2.90714 0
M  V30 19 N 1.4781 -0.272755 1.55222 0
M  V30 20 C 2.7241 -1.00581 1.761 0
M  V30 21 C 3.0571 -1.85932 0.560625 0
M  V30 22 O 2.3321 -1.89416 -0.441801 0
M  V30 23 C 2.6151 -1.88816 3.06628 0
M  V30 24 C 2.4681 -1.06457 4.37021 0
M  V30 25 C 3.7871 -2.8752 3.33197 0
M  V30 26 H 0.9061 -0.364244 0.640699 0
M  V30 27 H 3.5481 -0.278189 1.87952 0
M  V30 28 H 1.6981 -2.50856 2.96654 0
M  V30 29 H 3.3701 -0.464863 4.58952 0
M  V30 30 H 1.6131 -0.368043 4.32236 0
M  V30 31 H 2.2841 -1.71514 5.24678 0
M  V30 32 H 4.7601 -2.35615 3.42965 0
M  V30 33 H 3.6361 -3.46399 4.25792 0
M  V30 34 H 3.8971 -3.62657 2.52849 0
M  V30 35 N 2.9562 -1.48159 -0.537278 0
M  V30 36 C 4.1812 -1.59707 -1.32319 0
M  V30 37 C 4.6062 -0.254859 -1.86365 0
M  V30 38 O 3.9642 0.772378 -1.64024 0
M  V30 39 C 4.0122 -2.6412 -2.45505 0
M  V30 40 O 3.1162 -2.20774 -3.48328 0
M  V30 41 H 2.4572 -0.535791 -0.392204 0
M  V30 42 H 4.9872 -1.94092 -0.647268 0
M  V30 43 H 4.9972 -2.85166 -2.91795 0
M  V30 44 H 3.6722 -3.61567 -2.05528 0
M  V30 45 H 2.2492 -2.09911 -3.08207 0
M  V30 46 N 4.4343 0.785586 -1.36625 0
M  V30 47 C 5.3813 1.89838 -1.31264 0
M  V30 48 C 6.3513 1.65115 -0.180633 0
M  V30 49 O 7.5363 1.87222 -0.36777 0
M  V30 50 C 4.6763 3.26706 -1.11163 0
M  V30 51 C 3.7893 3.63476 -2.33472 0
M  V30 52 C 2.9243 4.89481 -2.06353 0
M  V30 53 C 1.9633 5.18941 -3.24602 0
M  V30 54 N 1.1003 6.36131 -2.97123 0
M  V30 55 H 5.9403 1.93756 -2.26413 0
M  V30 56 H 3.4773 0.947454 -1.12524 0
M  V30 57 H 5.4353 4.05639 -0.975337 0
M  V30 58 H 4.0653 3.222 -0.196674 0
M  V30 59 H 3.1173 2.79636 -2.57891 0
M  V30 60 H 4.4293 3.81193 -3.21704 0
M  V30 61 H 3.5833 5.76288 -1.89675 0
M  V30 62 H 2.3223 4.73841 -1.15437 0
M  V30 63 H 1.3273 4.30615 -3.41834 0
M  V30 64 H 2.5523 5.36498 -4.16349 0
M  V30 65 H 0.4983 6.21875 -2.08823 0
M  V30 66 H 0.4153 6.54198 -3.78894 0
M  V30 67 H 1.6833 7.2591 -2.84033 0
M  V30 68 N 5.9124 1.20967 1.01018 0
M  V30 69 C 6.8424 0.988272 2.11555 0
M  V30 70 C 7.8234 -0.0849778 1.69888 0
M  V30 71 O 9.0084 0.0738202 1.9406 0
M  V30 72 C 6.1384 0.546528 3.42973 0
M  V30 73 C 5.0924 1.56375 3.9841 0
M  V30 74 C 4.4184 0.97842 5.25672 0
M  V30 75 C 5.7184 2.94922 4.31066 0
M  V30 76 H 7.4124 1.91276 2.30334 0
M  V30 77 H 4.9584 0.921073 1.1069 0
M  V30 78 H 6.9114 0.378839 4.19694 0
M  V30 79 H 5.6354 -0.413598 3.23971 0
M  V30 80 H 4.2944 1.71891 3.23804 0
M  V30 81 H 3.9424 0.0101688 5.02999 0
M  V30 82 H 3.6424 1.65784 5.63728 0
M  V30 83 H 5.1664 0.821939 6.05043 0
M  V30 84 H 6.5804 2.8288 4.9865 0
M  V30 85 H 4.9774 3.5983 4.80253 0
M  V30 86 H 6.0474 3.4616 3.39561 0
M  V30 87 N 7.3905 -1.2043 1.01659 0
M  V30 88 C 8.6155 -1.94318 0.724942 0
M  V30 89 C 9.0405 -1.74266 -0.708034 0
M  V30 90 O 8.3985 -1.03694 -1.48719 0
M  V30 91 C 8.4465 -3.44486 1.06591 0
M  V30 92 O 7.5505 -4.12017 0.177599 0
M  V30 93 H 6.8915 -0.60708 0.26898 0
M  V30 94 H 9.4215 -1.52861 1.35995 0
M  V30 95 H 9.4315 -3.95106 1.01762 0
M  V30 96 H 8.1065 -3.58404 2.10997 0
M  V30 97 H 6.6835 -3.71821 0.283421 0
M  V30 98 N 8.8686 -0.792821 -1.36206 0
M  V30 99 C 9.8006 -0.151469 -2.28699 0
M  V30 100 C 10.8136 0.641262 -1.49638 0
M  V30 101 O 12.0026 0.475885 -1.72039 0
M  V30 102 C 9.1026 0.808424 -3.29117 0
M  V30 103 C 8.2756 0.0650202 -4.37352 0
M  V30 104 C 7.3346 0.941358 -5.17711 0
M  V30 105 O 6.3606 0.397352 -5.67811 0
M  V30 106 N 7.5626 2.2652 -5.3448 0
M  V30 107 H 10.3276 -0.945982 -2.84379 0
M  V30 108 H 7.8886 -0.647032 -1.48409 0
M  V30 109 H 9.8806 1.3986 -3.79765 0
M  V30 110 H 8.4506 1.5038 -2.74052 0
M  V30 111 H 7.6706 -0.706255 -3.87822 0
M  V30 112 H 8.9586 -0.447847 -5.06825 0
M  V30 113 H 8.3566 2.73128 -4.95396 0
M  V30 114 H 6.9136 2.80493 -5.88359 0
M  V30 115 N 10.3467 1.47872 -0.545128 0
M  V30 116 C 11.2767 2.32661 0.197793 0
M  V30 117 C 12.2577 1.43041 0.920504 0
M  V30 118 O 13.4427 1.71912 0.90333 0
M  V30 119 C 10.5727 3.24569 1.23582 0
M  V30 120 C 9.5267 4.23333 0.630323 0
M  V30 121 C 8.8527 5.0448 1.77211 0
M  V30 122 C 10.1527 5.20704 -0.407974 0
M  V30 123 H 11.8467 2.95024 -0.510045 0
M  V30 124 H 9.3927 1.4187 -0.246731 0
M  V30 125 H 11.3457 3.8272 1.76362 0
M  V30 126 H 10.0697 2.60236 1.97344 0
M  V30 127 H 8.7287 3.6639 0.123922 0
M  V30 128 H 8.3767 4.36561 2.49847 0
M  V30 129 H 8.0767 5.71339 1.37281 0
M  V30 130 H 9.6007 5.65487 2.3034 0
M  V30 131 H 11.0147 5.7329 0.033305 0
M  V30 132 H 9.4117 5.95699 -0.725486 0
M  V30 133 H 10.4817 4.66917 -1.30828 0
M  V30 134 N 11.8248 0.280983 1.55075 0
M  V30 135 C 12.7568 -0.637268 2.20163 0
M  V30 136 C 13.7698 -1.11298 1.18813 0
M  V30 137 O 14.9588 -1.03388 1.4551 0
M  V30 138 C 12.0588 -1.88199 2.81841 0
M  V30 139 C 11.2318 -1.55211 4.08936 0
M  V30 140 C 10.2908 -2.64991 4.54606 0
M  V30 141 O 9.3168 -2.30929 5.2025 0
M  V30 142 N 10.5188 -3.95161 4.25238 0
M  V30 143 H 13.2838 -0.0801694 2.99593 0
M  V30 144 H 10.8448 0.102329 1.61576 0
M  V30 145 H 12.8368 -2.60948 3.09335 0
M  V30 146 H 11.4068 -2.34799 2.06369 0
M  V30 147 H 10.6268 -0.658185 3.88666 0
M  V30 148 H 11.9148 -1.30681 4.91732 0
M  V30 149 H 11.3128 -4.25653 3.72607 0
M  V30 150 H 9.8698 -4.6427 4.5749 0
M  V30 151 N 13.3029 -1.57598 0.00835791 0
M  V30 152 C 14.5309 -1.95214 -0.68549 0
M  V30 153 C 14.9459 -0.883706 -1.66841 0
M  V30 154 O 14.3029 0.136565 -1.81988 0
M  V30 155 C 14.3539 -3.32865 -1.41007 0
M  V30 156 O 14.0749 -4.35609 -0.466552 0
M  V30 157 C 15.5759 -3.84991 -2.19765 0
M  V30 158 H 12.7959 -0.643422 -0.190392 0
M  V30 159 H 15.3399 -2.04406 0.0619607 0
M  V30 160 H 13.4949 -3.24956 -2.10908 0
M  V30 161 H 13.9089 -5.15288 -0.978699 0
M  V30 162 H 15.3829 -4.8371 -2.65948 0
M  V30 163 H 15.8599 -3.18137 -3.02796 0
M  V30 164 H 16.4659 -3.96103 -1.54864 0
M  V30 165 N 14.781 0.264519 -1.55364 0
M  V30 166 C 15.691 1.34902 -1.91934 0
M  V30 167 C 16.707 1.53595 -0.817593 0
M  V30 168 O 17.883 1.67558 -1.11742 0
M  V30 169 C 14.948 2.68676 -2.19121 0
M  V30 170 C 14.009 2.58657 -3.4263 0
M  V30 171 C 13.242 3.86051 -3.68511 0
M  V30 172 O 13.465 4.87126 -2.96757 0
M  V30 173 O 12.399 3.85744 -4.62045 0
M  V30 174 H 16.225 1.06883 -2.8427 0
M  V30 175 H 13.81 0.463775 -1.42019 0
M  V30 176 H 15.692 3.47759 -2.37995 0
M  V30 177 H 14.367 2.96463 -1.29966 0
M  V30 178 H 13.274 1.7792 -3.29082 0
M  V30 179 H 14.607 2.35818 -4.32031 0
M  V30 180 N 16.2591 1.48442 0.529413 0
M  V30 181 C 17.1891 1.65902 1.64313 0
M  V30 182 C 18.1701 0.507897 1.6234 0
M  V30 183 O 19.3551 0.740503 1.79528 0
M  V30 184 C 16.4851 1.69911 3.02898 0
M  V30 185 C 15.4391 2.8453 3.19729 0
M  V30 186 C 14.7651 2.73629 4.59381 0
M  V30 187 C 16.0651 4.25821 3.02447 0
M  V30 188 H 17.7591 2.5914 1.49955 0
M  V30 189 H 15.3051 1.24709 0.719982 0
M  V30 190 H 17.2581 1.80715 3.80684 0
M  V30 191 H 15.9821 0.732524 3.18279 0
M  V30 192 H 14.6411 2.73283 2.44361 0
M  V30 193 H 14.2891 1.74938 4.71599 0
M  V30 194 H 13.9891 3.50541 4.71588 0
M  V30 195 H 15.5131 2.86401 5.39265 0
M  V30 196 H 16.9271 4.37898 3.70024 0
M  V30 197 H 15.3241 5.03735 3.26146 0
M  V30 198 H 16.3941 4.42244 1.98867 0
M  V30 199 N 17.7372 -0.778329 1.37039 0
M  V30 200 C 18.6672 -1.90546 1.34962 0
M  V30 201 C 19.6482 -1.68681 0.219274 0
M  V30 202 O 20.8332 -1.89634 0.418624 0
M  V30 203 C 17.9632 -3.27734 1.14925 0
M  V30 204 C 16.9172 -3.64147 2.24902 0
M  V30 205 C 16.2432 -4.99806 1.89996 0
M  V30 206 C 17.5432 -3.71579 3.67051 0
M  V30 207 H 19.2372 -1.92541 2.29277 0
M  V30 208 H 16.7832 -0.924948 1.10366 0
M  V30 209 H 18.7362 -4.06215 1.12104 0
M  V30 210 H 17.4602 -3.26154 0.170631 0
M  V30 211 H 16.1192 -2.8797 2.26868 0
M  V30 212 H 15.7672 -4.94759 0.906796 0
M  V30 213 H 15.4672 -5.25139 2.63634 0
M  V30 214 H 16.9912 -5.80694 1.88749 0
M  V30 215 H 18.4052 -4.40227 3.67251 0
M  V30 216 H 16.8022 -4.08405 4.39688 0
M  V30 217 H 17.8722 -2.72404 4.01154 0
M  V30 218 N 19.2153 -1.21501 -1.00376 0
M  V30 219 C 20.1783 -0.976927 -2.07337 0
M  V30 220 C 21.1783 0.0525322 -1.60714 0
M  V30 221 O 22.3683 -0.184869 -1.73216 0
M  V30 222 C 19.5003 -0.473423 -3.37597 0
M  V30 223 H 20.6933 -1.92587 -2.29892 0
M  V30 224 H 18.2463 -1.03217 -1.17371 0
M  V30 225 H 18.9813 0.480379 -3.20722 0
M  V30 226 H 18.7663 -1.216 -3.72768 0
M  V30 227 H 20.2563 -0.32675 -4.1632 0
M  V30 228 N 20.6934 1.19889 -1.02296 0
M  V30 229 C 21.6564 2.21116 -0.603351 0
M  V30 230 C 22.6564 1.5738 0.329884 0
M  V30 231 O 23.8464 1.73802 0.117702 0
M  V30 232 C 20.9784 3.40696 0.117992 0
M  V30 233 H 22.1714 2.59754 -1.49893 0
M  V30 234 H 19.7244 1.33463 -0.813468 0
M  V30 235 H 20.4594 3.07569 1.0282 0
M  V30 236 H 20.2444 3.88188 -0.552511 0
M  V30 237 H 21.7344 4.15692 0.398696 0
M  V30 238 N 22.1715 0.800033 1.35784 0
M  V30 239 C 23.1015 0.220184 2.3246 0
M  V30 240 C 24.0825 -0.65073 1.57161 0
M  V30 241 O 25.2675 -0.582359 1.85263 0
M  V30 242 C 22.3975 -0.637353 3.41402 0
M  V30 243 C 21.3515 0.134531 4.27789 0
M  V30 244 C 20.6775 -0.844285 5.27992 0
M  V30 245 C 21.9775 1.32979 5.05088 0
M  V30 246 H 23.6715 1.02787 2.81203 0
M  V30 247 H 21.2175 0.495717 1.35199 0
M  V30 248 H 23.1705 -1.05302 4.08031 0
M  V30 249 H 21.8945 -1.47785 2.91251 0
M  V30 250 H 20.5535 0.531296 3.6273 0
M  V30 251 H 20.2015 -1.68011 4.74111 0
M  V30 252 H 19.9015 -0.332184 5.8666 0
M  V30 253 H 21.4255 -1.2583 5.97494 0
M  V30 254 H 22.8395 0.98934 5.64699 0
M  V30 255 H 21.2365 1.77593 5.7322 0
M  V30 256 H 22.3065 2.11978 4.36111 0
M  V30 257 N 23.6496 -1.47581 0.552962 0
M  V30 258 C 24.5796 -2.32762 -0.185451 0
M  V30 259 C 25.5606 -1.43527 -0.912905 0
M  V30 260 O 26.7456 -1.72388 -0.894201 0
M  V30 261 C 23.8756 -3.25219 -1.21859 0
M  V30 262 C 22.8296 -4.23661 -0.607864 0
M  V30 263 C 22.1556 -5.05413 -1.74533 0
M  V30 264 C 23.4556 -5.20481 0.435582 0
M  V30 265 H 25.1496 -2.94749 0.525684 0
M  V30 266 H 22.6956 -1.41738 0.254251 0
M  V30 267 H 24.6486 -3.8365 -1.7433 0
M  V30 268 H 23.3726 -2.61279 -1.95961 0
M  V30 269 H 22.0316 -3.66451 -0.104489 0
M  V30 270 H 21.6796 -4.3788 -2.47529 0
M  V30 271 H 21.3796 -5.72059 -1.34249 0
M  V30 272 H 22.9036 -5.66701 -2.27338 0
M  V30 273 H 24.3176 -5.733 -0.00290157 0
M  V30 274 H 22.7146 -5.95305 0.757067 0
M  V30 275 H 23.7846 -4.66217 1.33303 0
M  V30 276 N 25.1277 -0.289203 -1.54924 0
M  V30 277 C 26.0377 0.601863 -2.26748 0
M  V30 278 C 27.0537 1.15834 -1.2984 0
M  V30 279 O 28.2297 1.18564 -1.62802 0
M  V30 280 C 25.2947 1.76299 -2.98529 0
M  V30 281 C 24.3557 1.24178 -4.10948 0
M  V30 282 C 23.5887 2.34757 -4.79296 0
M  V30 283 O 23.8117 3.54411 -4.46933 0
M  V30 284 O 22.7457 2.02115 -5.66951 0
M  V30 285 H 26.5717 0.0195879 -3.03694 0
M  V30 286 H 24.1567 -0.0560868 -1.49295 0
M  V30 287 H 26.0387 2.43973 -3.43592 0
M  V30 288 H 24.7137 2.33209 -2.24488 0
M  V30 289 H 23.6207 0.531104 -3.70311 0
M  V30 290 H 24.9537 0.718252 -4.86931 0
M  V30 291 N 26.6058 1.57591 -0.0167156 0
M  V30 292 C 27.8308 1.9598 0.67872 0
M  V30 293 C 28.2558 0.892546 1.65575 0
M  V30 294 O 27.6138 -0.147772 1.80697 0
M  V30 295 C 27.6618 3.33468 1.37227 0
M  V30 296 O 26.7658 3.28954 2.48722 0
M  V30 297 H 26.1068 0.639339 0.17928 0
M  V30 298 H 28.6368 2.04463 -0.0748802 0
M  V30 299 H 28.6468 3.69417 1.7319 0
M  V30 300 H 27.3218 4.10694 0.656007 0
M  V30 301 H 25.8988 3.04705 2.14963 0
M  V30 302 N 28.0839 -0.256276 1.55502 0
M  V30 303 C 29.3319 -0.983672 1.76545 0
M  V30 304 C 29.6529 -1.86206 0.578982 0
M  V30 305 O 28.9229 -1.91656 -0.405577 0
M  V30 306 H 27.5029 -0.366191 0.651086 0
M  V30 307 H 30.1649 -0.276479 1.92929 0
M  V30 308 H 29.2609 -1.61087 2.67315 0
M  V30 309 N 29.562 -1.4872 -0.521534 0
M  V30 310 C 30.492 -1.66771 -1.63431 0
M  V30 311 C 31.473 -0.516499 -1.62069 0
M  V30 312 O 32.658 -0.750013 -1.79132 0
M  V30 313 C 29.788 -1.71515 -3.01993 0
M  V30 314 C 28.742 -2.86222 -3.18216 0
M  V30 315 C 28.068 -2.76061 -4.57924 0
M  V30 316 C 29.368 -4.27419 -3.00184 0
M  V30 317 H 31.062 -2.59932 -1.48579 0
M  V30 318 H 28.608 -1.25089 -0.713358 0
M  V30 319 H 30.561 -1.82731 -3.7972 0
M  V30 320 H 29.285 -0.749393 -3.17886 0
M  V30 321 H 27.944 -2.74575 -2.42908 0
M  V30 322 H 27.592 -1.77437 -4.70665 0
M  V30 323 H 27.292 -3.53037 -4.69722 0
M  V30 324 H 28.816 -2.89256 -5.37739 0
M  V30 325 H 30.23 -4.39855 -3.67697 0
M  V30 326 H 28.627 -5.05458 -3.2347 0
M  V30 327 H 29.697 -4.43293 -1.96518 0
M  V30 328 N 31.0401 0.771051 -1.3745 0
M  V30 329 C 32.2651 1.56529 -1.36065 0
M  V30 330 C 32.6901 1.88029 0.0515859 0
M  V30 331 O 32.0481 1.49282 1.02882 0
M  V30 332 C 32.0961 2.85187 -2.20683 0
M  V30 333 O 31.2001 3.79593 -1.61193 0
M  V30 334 H 30.5411 0.47411 -0.464883 0
M  V30 335 H 33.0711 0.954269 -1.80983 0
M  V30 336 H 33.0811 3.34283 -2.33921 0
M  V30 337 H 31.7561 2.61588 -3.23334 0
M  V30 338 H 30.3331 3.38239 -1.56999 0
M  V30 339 N 32.5182 1.22032 0.997298 0
M  V30 340 C 33.4652 0.986467 2.08656 0
M  V30 341 C 34.4352 -0.0902671 1.65855 0
M  V30 342 O 35.6202 0.0584294 1.90711 0
M  V30 343 C 32.7602 0.565569 3.40434 0
M  V30 344 C 31.8732 1.71259 3.96604 0
M  V30 345 C 31.0082 1.24011 5.16522 0
M  V30 346 C 30.0472 2.35896 5.64818 0
M  V30 347 N 29.1842 1.89726 6.7598 0
M  V30 348 H 34.0242 1.91892 2.27994 0
M  V30 349 H 31.5612 0.956199 1.11782 0
M  V30 350 H 33.5192 0.302738 4.161 0
M  V30 351 H 32.1492 -0.329879 3.2111 0
M  V30 352 H 31.2012 2.08986 3.17851 0
M  V30 353 H 32.5132 2.55436 4.28432 0
M  V30 354 H 31.6672 0.934395 5.99461 0
M  V30 355 H 30.4062 0.368487 4.86306 0
M  V30 356 H 29.4112 2.67261 4.8047 0
M  V30 357 H 30.6362 3.23567 5.97061 0
M  V30 358 H 28.5822 1.0492 6.47555 0
M  V30 359 H 28.4992 2.67471 7.07103 0
M  V30 360 H 29.7672 1.62211 7.62435 0
M  V30 361 N 33.9963 -1.19345 1.0293 0
M  V30 362 C 34.9063 -2.26245 0.620515 0
M  V30 363 C 35.9223 -1.70486 -0.347928 0
M  V30 364 O 37.0983 -2.00347 -0.205704 0
M  V30 365 C 34.1633 -3.46693 -0.0218957 0
M  V30 366 C 33.2243 -4.17632 0.994102 0
M  V30 367 C 32.4573 -5.32329 0.382253 0
M  V30 368 O 32.6803 -5.64552 -0.814676 0
M  V30 369 O 31.6143 -5.91664 1.10531 0
M  V30 370 H 35.4403 -2.63453 1.51083 0
M  V30 371 H 33.0253 -1.26207 0.799513 0
M  V30 372 H 34.9073 -4.19683 -0.380072 0
M  V30 373 H 33.5823 -3.11333 -0.886209 0
M  V30 374 H 32.4893 -3.4676 1.40387 0
M  V30 375 H 33.8223 -4.56964 1.8288 0
M  V30 376 N 35.4744 -0.807222 -1.35358 0
M  V30 377 C 36.4374 -0.223665 -2.28106 0
M  V30 378 C 37.4374 0.589354 -1.4961 0
M  V30 379 O 38.6274 0.407745 -1.69361 0
M  V30 380 C 35.7594 0.688149 -3.33882 0
M  V30 381 H 36.9524 -1.04169 -2.81227 0
M  V30 382 H 34.5054 -0.577921 -1.45223 0
M  V30 383 H 35.2404 1.52984 -2.85948 0
M  V30 384 H 35.0254 0.10687 -3.91954 0
M  V30 385 H 36.5154 1.09075 -4.03104 0
M  V30 386 N 36.9525 1.47285 -0.560781 0
M  V30 387 C 37.8825 2.32857 0.173105 0
M  V30 388 C 38.8635 1.44009 0.905281 0
M  V30 389 O 40.0485 1.7286 0.885046 0
M  V30 390 C 37.1785 3.25861 1.20133 0
M  V30 391 C 36.1325 4.23978 0.585388 0
M  V30 392 C 35.4585 5.06332 1.7185 0
M  V30 393 C 36.7585 5.20242 -0.463178 0
M  V30 394 H 38.4525 2.94466 -0.541307 0
M  V30 395 H 35.9985 1.41601 -0.261764 0
M  V30 396 H 37.9515 3.84569 1.72293 0
M  V30 397 H 36.6755 2.62315 1.94573 0
M  V30 398 H 35.3345 3.66501 0.085054 0
M  V30 399 H 34.9825 4.39186 2.45203 0
M  V30 400 H 34.6825 5.72762 1.31213 0
M  V30 401 H 36.2065 5.67899 2.24329 0
M  V30 402 H 37.6205 5.73293 -0.027502 0
M  V30 403 H 36.0175 5.94896 -0.788627 0
M  V30 404 H 37.0875 4.65504 -1.35773 0
M  V30 405 N 38.4306 0.297415 1.54768 0
M  V30 406 C 39.6796 -0.313669 1.99246 0
M  V30 407 C 39.9926 -1.55281 1.18942 0
M  V30 408 O 41.1986 -2.23825 1.5367 0
M  V30 409 C 39.6546 -0.609407 3.54703 0
M  V30 410 C 39.2626 0.611192 4.43811 0
M  V30 411 C 41.0066 -1.18188 4.07715 0
M  V30 412 C 38.9136 0.288805 5.90694 0
M  V30 413 H 37.8436 -0.120979 0.744231 0
M  V30 414 H 40.4946 0.40556 1.78962 0
M  V30 415 H 38.8766 -1.38813 3.70873 0
M  V30 416 H 40.0506 1.3875 4.39414 0
M  V30 417 H 38.3656 1.10205 4.01552 0
M  V30 418 H 40.9626 -1.43727 5.15021 0
M  V30 419 H 41.3056 -2.12299 3.58099 0
M  V30 420 H 41.8386 -0.464944 3.95074 0
M  V30 421 H 38.5776 1.19838 6.44453 0
M  V30 422 H 38.0976 -0.450305 5.98107 0
M  V30 423 H 39.7766 -0.110933 6.46905 0
M  V30 424 N 39.9087 -1.5758 0.0250728 0
M  V30 425 C 40.8407 -2.06869 -0.986796 0
M  V30 426 C 41.8537 -0.991332 -1.29137 0
M  V30 427 O 43.0427 -1.26761 -1.25674 0
M  V30 428 C 40.1427 -2.47486 -2.31525 0
M  V30 429 C 39.3157 -3.78253 -2.19643 0
M  V30 430 C 38.3747 -4.05464 -3.35388 0
M  V30 431 O 37.4007 -4.75774 -3.12454 0
M  V30 432 N 38.6027 -3.55321 -4.59051 0
M  V30 433 H 41.3677 -2.94302 -0.566276 0
M  V30 434 H 38.9287 -1.6109 -0.161776 0
M  V30 435 H 40.9207 -2.62785 -3.07776 0
M  V30 436 H 39.4907 -1.65441 -2.65232 0
M  V30 437 H 38.7107 -3.7279 -1.28144 0
M  V30 438 H 39.9987 -4.63936 -2.08903 0
M  V30 439 H 39.3967 -2.98431 -4.80578 0
M  V30 440 H 37.9537 -3.75905 -5.32483 0
M  V30 441 N 41.3868 0.248026 -1.55636 0
M  V30 442 C 42.3498 1.29044 -1.89421 0
M  V30 443 C 43.3498 1.41134 -0.770581 0
M  V30 444 O 44.5398 1.39854 -1.03858 0
M  V30 445 C 41.6718 2.66831 -2.12165 0
M  V30 446 H 42.8648 1.00305 -2.82629 0
M  V30 447 H 40.4178 0.487265 -1.48511 0
M  V30 448 H 41.1528 3.00711 -1.21422 0
M  V30 449 H 40.9378 2.59438 -2.93997 0
M  V30 450 H 42.4278 3.42103 -2.3949 0
M  V30 451 N 42.8649 1.48995 0.513639 0
M  V30 452 C 43.7949 1.67636 1.62544 0
M  V30 453 C 44.7759 0.525087 1.61793 0
M  V30 454 O 45.9609 0.759502 1.78732 0
M  V30 455 C 43.0909 1.73114 3.01079 0
M  V30 456 C 42.0449 2.87905 3.16693 0
M  V30 457 C 41.3709 2.78486 4.56453 0
M  V30 458 C 42.6709 4.29005 2.97913 0
M  V30 459 H 44.3649 2.60716 1.47198 0
M  V30 460 H 41.9109 1.25465 0.706714 0
M  V30 461 H 43.8639 1.84742 3.78746 0
M  V30 462 H 42.5879 0.766241 3.17484 0
M  V30 463 H 41.2469 2.75859 2.41448 0
M  V30 464 H 40.8949 1.7993 4.69717 0
M  V30 465 H 40.5949 3.55523 4.67843 0
M  V30 466 H 42.1189 2.92104 5.36197 0
M  V30 467 H 43.5329 4.41798 3.65359 0
M  V30 468 H 41.9299 5.07166 3.20785 0
M  V30 469 H 42.9999 4.44329 1.94165 0
M  V30 470 N 44.343 -0.763751 1.37857 0
M  V30 471 C 45.591 -1.51957 1.33243 0
M  V30 472 C 45.912 -1.94835 -0.0801709 0
M  V30 473 O 45.182 -1.66894 -1.02582 0
M  V30 474 H 43.762 -0.563626 0.49024 0
M  V30 475 H 46.424 -0.908504 1.7243 0
M  V30 476 H 45.52 -2.41523 1.97669 0
M  V30 477 N 45.8211 -1.22559 -0.990812 0
M  V30 478 C 46.7311 -1.01394 -2.11557 0
M  V30 479 C 47.7471 0.0383962 -1.73958 0
M  V30 480 O 48.9231 -0.154787 -2.00804 0
M  V30 481 C 45.9881 -0.596569 -3.41529 0
M  V30 482 C 45.0491 -1.72276 -3.93217 0
M  V30 483 C 44.2821 -1.32521 -5.16985 0
M  V30 484 O 44.5051 -0.204909 -5.70032 0
M  V30 485 O 43.4391 -2.14247 -5.62478 0
M  V30 486 H 47.2651 -1.95633 -2.32296 0
M  V30 487 H 44.8501 -1.01172 -1.0993 0
M  V30 488 H 46.7321 -0.374263 -4.19735 0
M  V30 489 H 45.4071 0.316939 -3.22145 0
M  V30 490 H 44.3141 -1.99961 -3.16174 0
M  V30 491 H 45.6471 -2.61421 -4.17037 0
M  V30 492 N 47.2992 1.18797 -1.03562 0
M  V30 493 C 48.7102 1.70322 -0.764676 0
M  V30 494 C 49.0612 1.82708 0.714996 0
M  V30 495 O 48.1862 1.50299 1.55689 0
M  V30 496 C 48.7812 3.09356 -1.38145 0
M  V30 497 C 47.3402 3.58114 -1.15895 0
M  V30 498 C 46.4872 2.34798 -1.4753 0
M  V30 499 H 49.4382 1.03543 -1.20268 0
M  V30 500 H 49.4592 3.72378 -0.781977 0
M  V30 501 H 48.9712 3.00309 -2.45837 0
M  V30 502 H 47.0722 3.72464 -0.100544 0
M  V30 503 H 47.1852 4.4184 -1.8524 0
M  V30 504 H 45.5492 2.38464 -0.894829 0
M  V30 505 H 46.3322 2.28375 -2.56319 0
M  V30 506 N 48.7773 0.814389 1.34928 0
M  V30 507 C 50.0253 0.397636 1.9815 0
M  V30 508 C 50.3463 -1.04069 1.64908 0
M  V30 509 O 49.6163 -1.72121 0.93548 0
M  V30 510 H 48.1963 0.144043 0.732981 0
M  V30 511 H 50.8583 1.04195 1.6471 0
M  V30 512 H 49.9543 0.509688 3.0791 0
M  V30 513 N 50.2554 -1.46986 0.568584 0
M  V30 514 C 51.6664 -1.86188 0.138219 0
M  V30 515 C 52.0174 -1.47388 -1.29504 0
M  V30 516 O 51.1424 -0.88219 -1.97602 0
M  V30 517 C 51.7374 -3.3792 0.244065 0
M  V30 518 C 50.2964 -3.76171 -0.131335 0
M  V30 519 C 49.4434 -2.71027 0.586465 0
M  V30 520 H 52.3944 -1.38342 0.777645 0
M  V30 521 H 52.4154 -3.76729 -0.534351 0
M  V30 522 H 51.9274 -3.66128 1.28731 0
M  V30 523 H 50.0284 -3.5358 -1.17526 0
M  V30 524 H 50.1414 -4.78523 0.235146 0
M  V30 525 H 48.5054 -2.54684 0.0282722 0
M  V30 526 H 49.2884 -3.02077 1.63109 0
M  V30 527 N 51.7335 -0.305618 -1.54608 0
M  V30 528 C 52.9635 0.304333 -2.04346 0
M  V30 529 C 53.3715 1.47715 -1.18224 0
M  V30 530 O 52.7145 1.82591 -0.201577 0
M  V30 531 C 52.7765 0.819031 -3.50046 0
M  V30 532 C 52.4405 -0.22912 -4.56425 0
M  V30 533 C 53.4375 -1.05914 -5.08997 0
M  V30 534 C 51.1225 -0.372148 -5.0092 0
M  V30 535 C 53.1165 -2.01809 -6.04609 0
M  V30 536 C 50.8035 -1.33454 -5.9635 0
M  V30 537 C 51.8015 -2.15599 -6.48079 0
M  V30 538 O 51.4895 -3.10205 -7.41639 0
M  V30 539 H 51.2215 0.0693996 -0.672428 0
M  V30 540 H 53.7755 -0.444548 -2.00532 0
M  V30 541 H 52.0055 1.61852 -3.51199 0
M  V30 542 H 53.6945 1.34537 -3.82955 0
M  V30 543 H 54.4605 -0.959538 -4.75413 0
M  V30 544 H 50.3395 0.257304 -4.60281 0
M  V30 545 H 53.8835 -2.65966 -6.44909 0
M  V30 546 H 49.7805 -1.43485 -6.29351 0
M  V30 547 H 50.5485 -3.05237 -7.59455 0
M  V30 548 N 53.2116 1.57565 -0.0334293 0
M  V30 549 C 54.1416 2.13511 0.945265 0
M  V30 550 C 55.1226 1.05231 1.33643 0
M  V30 551 O 56.3076 1.33084 1.41429 0
M  V30 552 C 53.4376 2.6657 2.22616 0
M  V30 553 C 52.3916 3.79676 1.97561 0
M  V30 554 C 51.7176 4.1918 3.31952 0
M  V30 555 C 53.0176 5.0557 1.31135 0
M  V30 556 H 54.7116 2.95538 0.479325 0
M  V30 557 H 52.2576 1.42166 0.229115 0
M  V30 558 H 54.2106 3.04344 2.91466 0
M  V30 559 H 52.9346 1.8171 2.71384 0
M  V30 560 H 51.5936 3.42347 1.31127 0
M  V30 561 H 51.2416 3.31296 3.78487 0
M  V30 562 H 50.9416 4.95402 3.15992 0
M  V30 563 H 52.4656 4.59541 4.02063 0
M  V30 564 H 53.8796 5.40903 1.89992 0
M  V30 565 H 52.2766 5.86818 1.25559 0
M  V30 566 H 53.3466 4.84062 0.284894 0
M  V30 567 N 54.6897 -0.239769 1.55765 0
M  V30 568 C 55.6197 -1.30052 1.9393 0
M  V30 569 C 56.6007 -1.49839 0.805132 0
M  V30 570 O 57.7857 -1.62328 1.06599 0
M  V30 571 C 54.9157 -2.65391 2.2402 0
M  V30 572 C 53.8697 -2.60289 3.39755 0
M  V30 573 C 53.1957 -3.99489 3.55405 0
M  V30 574 C 54.4957 -2.16654 4.75246 0
M  V30 575 H 56.1897 -0.983573 2.82783 0
M  V30 576 H 53.7357 -0.471701 1.36055 0
M  V30 577 H 55.6887 -3.3974 2.49308 0
M  V30 578 H 54.4127 -2.98736 1.32 0
M  V30 579 H 53.0717 -1.88398 3.14487 0
M  V30 580 H 52.7197 -4.30112 2.60793 0
M  V30 581 H 52.4197 -3.96962 4.33238 0
M  V30 582 H 53.9437 -4.75528 3.83022 0
M  V30 583 H 55.3577 -2.80737 4.99859 0
M  V30 584 H 53.7547 -2.25223 5.56232 0
M  V30 585 H 54.8247 -1.11835 4.71827 0
M  V30 586 N 56.1678 -1.49265 -0.50573 0
M  V30 587 C 57.1308 -1.65075 -1.59006 0
M  V30 588 C 58.1308 -0.522768 -1.52065 0
M  V30 589 O 59.3208 -0.789117 -1.55302 0
M  V30 590 C 56.4528 -1.64369 -2.98656 0
M  V30 591 H 57.6458 -2.61784 -1.46319 0
M  V30 592 H 55.1988 -1.38226 -0.729616 0
M  V30 593 H 55.9338 -0.692272 -3.16825 0
M  V30 594 H 55.7188 -2.46282 -3.05103 0
M  V30 595 H 57.2088 -1.78674 -3.77446 0
M  V30 596 N 57.6459 0.756429 -1.3826 0
M  V30 597 C 58.8939 1.51248 -1.34047 0
M  V30 598 C 59.2149 1.94875 0.0698372 0
M  V30 599 O 58.4849 1.67436 1.01696 0
M  V30 600 H 57.0649 0.561018 -0.493222 0
M  V30 601 H 59.7269 0.899347 -1.7291 0
M  V30 602 H 58.8229 2.40472 -1.98947 0
M  V30 603 N 59.124 1.23083 0.984299 0
M  V30 604 C 60.034 1.02515 2.11016 0
M  V30 605 C 61.05 -0.0291702 1.73976 0
M  V30 606 O 62.226 0.165434 2.00719 0
M  V30 607 C 59.291 0.614673 3.41208 0
M  V30 608 C 58.352 1.74359 3.92297 0
M  V30 609 C 57.585 1.35261 5.16275 0
M  V30 610 O 57.808 0.235136 5.69915 0
M  V30 611 O 56.742 2.17227 5.61334 0
M  V30 612 H 60.568 1.96862 2.31255 0
M  V30 613 H 58.153 1.01753 1.09392 0
M  V30 614 H 60.035 0.396518 4.1953 0
M  V30 615 H 58.71 -0.299851 3.22308 0
M  V30 616 H 57.617 2.01635 3.1511 0
M  V30 617 H 58.95 2.63629 4.15645 0
M  V30 618 N 60.6021 -1.18246 1.0419 0
M  V30 619 C 61.8501 -1.87886 0.744543 0
M  V30 620 C 62.1711 -1.8082 -0.730006 0
M  V30 621 O 61.4411 -1.22736 -1.52685 0
M  V30 622 H 60.0211 -0.695556 0.272417 0
M  V30 623 H 62.6831 -1.43494 1.31892 0
M  V30 624 H 61.7791 -2.9389 1.05049 0
M  V30 625 N 62.0802 -0.821533 -1.34494 0
M  V30 626 C 63.4912 -0.467956 -1.8074 0
M  V30 627 C 63.8422 1.01151 -1.68116 0
M  V30 628 O 62.9672 1.78707 -1.22036 0
M  V30 629 C 63.5622 -0.842627 -3.28154 0
M  V30 630 C 62.1212 -0.541439 -3.72485 0
M  V30 631 C 61.2682 -1.06028 -2.56229 0
M  V30 632 H 64.2192 -1.01183 -1.22261 0
M  V30 633 H 64.2402 -0.145876 -3.8022 0
M  V30 634 H 63.7522 -1.91945 -3.37311 0
M  V30 635 H 61.8532 0.526034 -3.68868 0
M  V30 636 H 61.9662 -1.08453 -4.66663 0
M  V30 637 H 60.3302 -0.481892 -2.501 0
M  V30 638 H 61.1132 -2.14352 -2.68157 0
M  V30 639 N 63.5583 1.46682 -0.576371 0
M  V30 640 C 64.4883 2.33028 0.148397 0
M  V30 641 C 65.4693 1.44961 0.889956 0
M  V30 642 O 66.6543 1.73789 0.866662 0
M  V30 643 C 63.7843 3.27117 1.1667 0
M  V30 644 C 62.7383 4.24575 0.540386 0
M  V30 645 C 62.0643 5.08126 1.6647 0
M  V30 646 C 63.3643 5.19722 -0.518331 0
M  V30 647 H 65.0583 2.93875 -0.572509 0
M  V30 648 H 62.6043 1.41315 -0.276768 0
M  V30 649 H 64.5573 3.86374 1.68204 0
M  V30 650 H 63.2813 2.64364 1.9178 0
M  V30 651 H 61.9403 3.66571 0.0461769 0
M  V30 652 H 61.5883 4.41762 2.40531 0
M  V30 653 H 61.2883 5.74122 1.25131 0
M  V30 654 H 62.8123 5.70246 2.18293 0
M  V30 655 H 64.2263 5.73232 -0.0883058 0
M  V30 656 H 62.6233 5.94026 -0.851679 0
M  V30 657 H 63.6933 4.64037 -1.40703 0
M  V30 658 N 65.0364 0.313813 1.54444 0
M  V30 659 C 66.3134 -0.345447 1.92525 0
M  V30 660 C 66.6934 -1.70667 1.24242 0
M  V30 661 O 66.0414 -2.25273 0.382654 0
M  V30 662 C 66.2514 -0.44737 3.46121 0
M  V30 663 C 67.5994 -0.712238 4.18584 0
M  V30 664 O 68.6234 -0.530678 3.52225 0
M  V30 665 O 67.4824 -1.06183 5.36085 0
M  V30 666 H 64.5764 -0.195407 0.803583 0
M  V30 667 H 67.1224 0.362813 1.65776 0
M  V30 668 H 65.8944 0.509043 3.87975 0
M  V30 669 H 65.5174 -1.20359 3.78945 0
M  V30 670 N 66.5145 -1.57545 0.0417849 0
M  V30 671 C 67.4615 -2.10977 -0.935805 0
M  V30 672 C 68.4315 -1.01486 -1.31491 0
M  V30 673 O 69.6165 -1.2898 -1.40602 0
M  V30 674 C 66.7565 -2.65169 -2.2086 0
M  V30 675 C 65.8695 -3.88714 -1.88482 0
M  V30 676 C 65.0045 -4.31254 -3.1015 0
M  V30 677 C 64.0435 -5.47524 -2.7365 0
M  V30 678 N 63.1805 -5.85162 -3.87982 0
M  V30 679 H 68.0205 -2.94218 -0.473249 0
M  V30 680 H 65.5575 -1.45415 -0.221981 0
M  V30 681 H 67.5155 -2.94685 -2.95325 0
M  V30 682 H 66.1455 -1.8474 -2.64709 0
M  V30 683 H 65.1975 -3.65849 -1.04205 0
M  V30 684 H 66.5095 -4.73245 -1.57608 0
M  V30 685 H 65.6635 -4.62273 -3.92923 0
M  V30 686 H 64.4025 -3.45516 -3.44195 0
M  V30 687 H 63.4075 -5.16187 -1.89291 0
M  V30 688 H 64.6325 -6.34971 -2.40807 0
M  V30 689 H 62.5785 -5.02377 -4.21846 0
M  V30 690 H 62.4955 -6.64362 -3.60775 0
M  V30 691 H 63.7635 -6.20791 -4.71422 0
M  V30 692 N 67.9926 0.231505 -1.5589 0
M  V30 693 C 69.2406 0.955461 -1.78088 0
M  V30 694 C 69.5616 1.85262 -0.608533 0
M  V30 695 O 68.8316 1.92277 0.375035 0
M  V30 696 H 67.4116 0.355787 -0.656829 0
M  V30 697 H 70.0736 0.245751 -1.93344 0
M  V30 698 H 69.1696 1.56814 -2.69844 0
M  V30 699 N 69.4707 1.49531 0.497807 0
M  V30 700 C 70.3807 1.69176 1.62532 0
M  V30 701 C 71.3967 0.5744 1.64246 0
M  V30 702 O 72.5727 0.849497 1.82608 0
M  V30 703 C 69.6377 1.75695 2.98885 0
M  V30 704 C 68.6987 2.9929 3.07773 0
M  V30 705 C 67.9317 3.05488 4.37622 0
M  V30 706 O 68.1547 2.19192 5.26603 0
M  V30 707 O 67.0887 3.9798 4.51548 0
M  V30 708 H 70.9147 2.647 1.48887 0
M  V30 709 H 68.4997 1.3331 0.674441 0
M  V30 710 H 70.3817 1.82317 3.79919 0
M  V30 711 H 69.0567 0.8335 3.12785 0
M  V30 712 H 67.9637 2.98183 2.25915 0
M  V30 713 H 69.2967 3.91125 2.98801 0
M  V30 714 N 70.9488 -0.749086 1.3866 0
M  V30 715 C 72.1738 -1.54344 1.38538 0
M  V30 716 C 72.5988 -1.88088 -0.0216655 0
M  V30 717 O 71.9568 -1.50899 -1.00494 0
M  V30 718 C 72.0048 -2.8164 2.25192 0
M  V30 719 O 71.1088 -3.7698 1.67212 0
M  V30 720 H 70.4498 -0.466654 0.472367 0
M  V30 721 H 72.9798 -0.925355 1.82478 0
M  V30 722 H 72.9898 -3.30519 2.3921 0
M  V30 723 H 71.6648 -2.56411 3.27454 0
M  V30 724 H 70.2418 -3.35699 1.6236 0
M  V30 725 N 72.4269 -1.23603 -0.977757 0
M  V30 726 C 73.6669 -1.08148 -1.73446 0
M  V30 727 C 74.0309 0.374785 -1.88307 0
M  V30 728 O 75.2319 0.650588 -2.60808 0
M  V30 729 C 73.5029 -1.78991 -3.0935 0
M  V30 730 S 75.0619 -1.79141 -4.00567 0
M  V30 731 H 71.8799 -0.386987 -0.596458 0
M  V30 732 H 74.4819 -1.5678 -1.16792 0
M  V30 733 H 73.1859 -2.8408 -2.96187 0
M  V30 734 H 72.7169 -1.30651 -3.71071 0
M  V30 735 H 74.7319 -0.851892 -4.88833 0
M  V30 736 N 73.905 1.17692 -1.04816 0
M  V30 737 C 75.153 1.87488 -0.754497 0
M  V30 738 C 75.474 1.81205 0.720407 0
M  V30 739 O 74.744 1.23544 1.52032 0
M  V30 740 H 73.324 0.694101 -0.276102 0
M  V30 741 H 75.986 1.42793 -1.32651 0
M  V30 742 H 75.082 2.93328 -1.06606 0
M  V30 743 N 75.3831 0.828654 1.34056 0
M  V30 744 C 76.6311 0.41863 1.97717 0
M  V30 745 C 76.9521 -1.02314 1.66002 0
M  V30 746 O 76.2221 -1.71119 0.953683 0
M  V30 747 H 74.8021 0.151809 0.731412 0
M  V30 748 H 77.4641 1.05936 1.63596 0
M  V30 749 H 76.5601 0.542318 3.07352 0
M  V30 750 N 76.8612 -1.46375 0.584142 0
M  V30 751 C 78.1092 -2.01978 0.0701287 0
M  V30 752 C 78.4302 -1.4579 -1.295 0
M  V30 753 O 77.7002 -0.64314 -1.85042 0
M  V30 754 H 76.2802 -0.746648 0.0229345 0
M  V30 755 H 78.9422 -1.79461 0.760245 0
M  V30 756 H 78.0382 -3.121 0.0022064 0
M  V30 757 N 78.3393 -0.321999 -1.54275 0
M  V30 758 C 79.7553 0.0306999 -1.5957 0
M  V30 759 C 79.9553 1.50614 -1.33857 0
M  V30 760 O 79.0113 2.2619 -1.12223 0
M  V30 761 C 80.3243 -0.386122 -2.98211 0
M  V30 762 C 81.8723 -0.336647 -3.11184 0
M  V30 763 C 82.3473 -0.728607 -4.52167 0
M  V30 764 N 83.8383 -0.681952 -4.58152 0
M  V30 765 C 84.5733 -0.957449 -5.6535 0
M  V30 766 N 84.0693 -1.3 -6.80494 0
M  V30 767 N 85.8623 -0.883113 -5.55119 0
M  V30 768 H 78.0133 -1.28332 -1.69247 0
M  V30 769 H 80.2763 -0.521716 -0.791528 0
M  V30 770 H 79.9823 -1.41404 -3.22022 0
M  V30 771 H 79.8563 0.249662 -3.76373 0
M  V30 772 H 82.2433 0.682058 -2.8711 0
M  V30 773 H 82.3243 -1.00734 -2.3513 0
M  V30 774 H 81.9683 -1.74522 -4.76974 0
M  V30 775 H 81.8983 -0.0356152 -5.26588 0
M  V30 776 H 84.3893 -0.428985 -3.75457 0
M  V30 777 H 84.7023 -1.49563 -7.58189 0
M  V30 778 H 83.0473 -1.33824 -6.81994 0
M  V30 779 H 86.2383 -0.615001 -4.64042 0
M  V30 780 H 86.4113 -1.10118 -6.38575 0
M  V30 781 N 79.8174 1.5752 -0.0501392 0
M  V30 782 C 81.0654 1.9227 0.622642 0
M  V30 783 C 81.3864 0.929083 1.71444 0
M  V30 784 O 80.6564 -0.0262186 1.95882 0
M  V30 785 H 79.2364 0.709739 0.232981 0
M  V30 786 H 81.8984 1.94628 -0.102898 0
M  V30 787 H 80.9944 2.93479 1.06191 0
M  V30 788 N 81.2955 -0.223234 1.56011 0
M  V30 789 C 82.2055 -1.29766 1.95443 0
M  V30 790 C 83.2215 -1.51373 0.858028 0
M  V30 791 O 84.3975 -1.64536 1.16146 0
M  V30 792 C 81.4625 -2.62772 2.26167 0
M  V30 793 C 80.5235 -2.49482 3.49367 0
M  V30 794 C 79.7565 -3.76145 3.78616 0
M  V30 795 O 79.9795 -4.79087 3.09568 0
M  V30 796 O 78.9135 -3.73358 4.72109 0
M  V30 797 H 82.7395 -0.99309 2.87004 0
M  V30 798 H 80.3245 -0.425958 1.43199 0
M  V30 799 H 82.2065 -3.41327 2.47131 0
M  V30 800 H 80.8815 -2.92913 1.37781 0
M  V30 801 H 79.7885 -1.69133 3.33684 0
M  V30 802 H 81.1215 -2.2428 4.38131 0
M  V30 803 N 82.7736 -1.49793 -0.48987 0
M  V30 804 C 83.7036 -1.70201 -1.59856 0
M  V30 805 C 84.6846 -0.55076 -1.60937 0
M  V30 806 O 85.8696 -0.787841 -1.77501 0
M  V30 807 C 82.9996 -1.77882 -2.98287 0
M  V30 808 C 81.9536 -2.92907 -3.12073 0
M  V30 809 C 81.2796 -2.85712 -4.51965 0
M  V30 810 C 82.5796 -4.3369 -2.91051 0
M  V30 811 H 84.2736 -2.63025 -1.43032 0
M  V30 812 H 81.8196 -1.26574 -0.686664 0
M  V30 813 H 83.7726 -1.90744 -3.75759 0
M  V30 814 H 82.4966 -0.816653 -3.16225 0
M  V30 815 H 81.1556 -2.79665 -2.37029 0
M  V30 816 H 80.8036 -1.8738 -4.66795 0
M  V30 817 H 80.5036 -3.62921 -4.62128 0
M  V30 818 H 82.0276 -3.00598 -5.31482 0
M  V30 819 H 83.4416 -4.47555 -3.58284 0
M  V30 820 H 81.8386 -5.12205 -3.12675 0
M  V30 821 H 82.9086 -4.47362 -1.87071 0
M  V30 822 N 84.2517 0.741722 -1.39055 0
M  V30 823 C 85.2147 1.83733 -1.37021 0
M  V30 824 C 86.2147 1.58542 -0.268534 0
M  V30 825 O 87.4047 1.66067 -0.526076 0
M  V30 826 C 84.5367 3.2141 -1.13617 0
M  V30 827 H 85.7297 1.86941 -2.34506 0
M  V30 828 H 83.2827 0.944676 -1.24521 0
M  V30 829 H 84.0177 3.23865 -0.167863 0
M  V30 830 H 83.8027 3.4109 -1.93391 0
M  V30 831 H 85.2927 4.01477 -1.14918 0
M  V30 832 N 85.7298 1.2412 0.971189 0
M  V30 833 C 86.6398 1.04747 2.09917 0
M  V30 834 C 87.6558 -0.0107162 1.73997 0
M  V30 835 O 88.8318 0.186714 2.00533 0
M  V30 836 C 85.8968 0.650828 3.40537 0
M  V30 837 C 84.9578 1.7851 3.90426 0
M  V30 838 C 84.1908 1.40729 5.14812 0
M  V30 839 O 84.4138 0.29557 5.69634 0
M  V30 840 O 83.3478 2.23168 5.58999 0
M  V30 841 H 87.1738 1.99304 2.29154 0
M  V30 842 H 84.7588 1.02908 1.08307 0
M  V30 843 H 86.6408 0.440992 4.19086 0
M  V30 844 H 85.3158 -0.265649 3.22608 0
M  V30 845 H 84.2228 2.04966 3.12953 0
M  V30 846 H 85.5558 2.68023 4.12825 0
M  V30 847 N 87.2079 -1.17134 1.05439 0
M  V30 848 C 88.1379 -2.2342 0.678649 0
M  V30 849 C 89.1189 -1.66971 -0.32476 0
M  V30 850 O 90.3039 -1.93149 -0.201802 0
M  V30 851 C 87.4339 -3.47256 0.0552099 0
M  V30 852 C 86.3879 -4.16543 0.98365 0
M  V30 853 C 85.7139 -5.34231 0.223961 0
M  V30 854 C 87.0139 -4.68495 2.3089 0
M  V30 855 H 88.7079 -2.55105 1.56722 0
M  V30 856 H 86.2539 -1.2262 0.754998 0
M  V30 857 H 88.2069 -4.20828 -0.21946 0
M  V30 858 H 86.9309 -3.14846 -0.868319 0
M  V30 859 H 85.5899 -3.44887 1.24293 0
M  V30 860 H 85.2379 -4.98071 -0.702412 0
M  V30 861 H 84.9379 -5.81527 0.842627 0
M  V30 862 H 86.4619 -6.10585 -0.0433671 0
M  V30 863 H 87.8759 -5.33691 2.09396 0
M  V30 864 H 86.2729 -5.26379 2.88176 0
M  V30 865 H 87.3429 -3.85169 2.94572 0
M  V30 866 N 88.686 -0.835752 -1.33615 0
M  V30 867 C 90.097 -0.487099 -1.80234 0
M  V30 868 C 90.448 0.993627 -1.69179 0
M  V30 869 O 89.573 1.77403 -1.23924 0
M  V30 870 C 90.168 -0.877385 -3.27242 0
M  V30 871 C 88.727 -0.580915 -3.7189 0
M  V30 872 C 87.874 -1.0874 -2.5509 0
M  V30 873 H 90.825 -1.02474 -1.2118 0
M  V30 874 H 90.846 -0.186195 -3.80044 0
M  V30 875 H 90.358 -1.95512 -3.35256 0
M  V30 876 H 88.459 0.486881 -3.69405 0
M  V30 877 H 88.572 -1.13396 -4.65487 0
M  V30 878 H 86.936 -0.508392 -2.49575 0
M  V30 879 H 87.719 -2.17184 -2.65868 0
M  V30 880 N 90.1641 1.46063 -0.591896 0
M  V30 881 C 91.1121 2.32124 0.148739 0
M  V30 882 C 92.1061 1.45035 0.875286 0
M  V30 883 O 93.3121 1.61609 0.792632 0
M  V30 884 H 89.6871 0.749024 0.066832 0
M  V30 885 H 91.6581 2.92392 -0.595783 0
M  V30 886 C 90.4071 3.28373 1.1431 0
M  V30 887 H 89.7301 3.95371 0.59346 0
M  V30 888 H 91.1701 3.91352 1.63155 0
M  V30 889 C 89.6291 2.54393 2.20875 0
M  V30 890 O 90.1591 2.31373 3.28374 0
M  V30 891 N 88.3651 2.14797 1.95731 0
M  V30 892 H 87.9121 2.33719 1.08319 0
M  V30 893 H 87.8701 1.65619 2.67241 0
M  V30 894 N 91.6422 0.330177 1.54103 0
M  V30 895 C 92.8902 -0.269871 2.0029 0
M  V30 896 C 93.2112 -1.52133 1.21986 0
M  V30 897 O 92.4812 -1.93212 0.323438 0
M  V30 898 H 91.0612 -0.10271 0.739905 0
M  V30 899 H 93.7232 0.448249 1.89675 0
M  V30 900 H 92.8192 -0.52166 3.07709 0
M  V30 901 N 93.1203 -1.57491 0.0584922 0
M  V30 902 C 94.0503 -2.14988 -0.911178 0
M  V30 903 C 95.0313 -1.07343 -1.31952 0
M  V30 904 O 96.2163 -1.35318 -1.39294 0
M  V30 905 C 93.3463 -2.70078 -2.18347 0
M  V30 906 C 92.3003 -3.82771 -1.91495 0
M  V30 907 C 91.6263 -4.24408 -3.25241 0
M  V30 908 C 92.9263 -5.07592 -1.23075 0
M  V30 909 H 94.6203 -2.96263 -0.432246 0
M  V30 910 H 92.1663 -1.42512 -0.206469 0
M  V30 911 H 94.1193 -3.08943 -2.86587 0
M  V30 912 H 92.8433 -1.86005 -2.68458 0
M  V30 913 H 91.5023 -3.44389 -1.25664 0
M  V30 914 H 91.1503 -3.37275 -3.73168 0
M  V30 915 H 90.8503 -5.00366 -3.08071 0
M  V30 916 H 92.3743 -4.65879 -3.94701 0
M  V30 917 H 93.7883 -5.43857 -1.81362 0
M  V30 918 H 92.1853 -5.88741 -1.16207 0
M  V30 919 H 93.2553 -4.84454 -0.207847 0
M  V30 920 N 94.5984 0.214957 -1.56127 0
M  V30 921 C 95.8464 0.936518 -1.79091 0
M  V30 922 C 96.1674 1.84606 -0.628148 0
M  V30 923 O 95.4374 1.92664 0.35462 0
M  V30 924 H 94.0174 0.3488 -0.660566 0
M  V30 925 H 96.6794 0.22523 -1.93594 0
M  V30 926 H 95.7754 1.53943 -2.71492 0
M  V30 927 N 96.0765 1.50051 0.48192 0
M  V30 928 C 96.9865 1.7089 1.60728 0
M  V30 929 C 98.0025 0.591788 1.63627 0
M  V30 930 O 99.1785 0.868817 1.81696 0
M  V30 931 C 96.2435 1.78855 2.97005 0
M  V30 932 C 95.3045 3.02537 3.04581 0
M  V30 933 C 94.5375 3.10112 4.34357 0
M  V30 934 O 94.7605 2.24765 5.24249 0
M  V30 935 O 93.6945 4.02747 4.47301 0
M  V30 936 H 97.5205 2.66264 1.46072 0
M  V30 937 H 95.1055 1.34018 0.660264 0
M  V30 938 H 96.9875 1.86336 3.77964 0
M  V30 939 H 95.6625 0.866628 3.11883 0
M  V30 940 H 94.5695 3.00563 2.22739 0
M  V30 941 H 95.9025 3.94272 2.94636 0
M  V30 942 N 97.5546 -0.734337 1.39446 0
M  V30 943 C 98.7826 -1.52358 1.39981 0
M  V30 944 C 99.1976 -1.88799 -0.0054975 0
M  V30 945 O 98.5546 -1.54146 -0.976998 0
M  V30 946 C 98.6056 -2.81072 2.27333 0
M  V30 947 O 98.3266 -2.46178 3.62392 0
M  V30 948 C 99.8276 -3.75096 2.36259 0
M  V30 949 H 97.0476 -0.470806 0.478103 0
M  V30 950 H 99.5916 -0.907339 1.83269 0
M  V30 951 H 97.7466 -3.39026 1.87457 0
M  V30 952 H 98.1606 -3.28866 4.08592 0
M  V30 953 H 99.6346 -4.62305 3.01626 0
M  V30 954 H 100.112 -4.16892 1.38194 0
M  V30 955 H 100.718 -3.23061 2.76608 0
M  V30 956 N 99.0327 -1.24633 -0.964593 0
M  V30 957 C 100.449 -1.01239 -1.2338 0
M  V30 958 C 100.649 0.2769 -1.99588 0
M  V30 959 O 99.7047 0.992241 -2.32187 0
M  V30 960 C 101.018 -2.22937 -2.01791 0
M  V30 961 C 102.566 -2.27594 -2.14872 0
M  V30 962 C 103.041 -3.48921 -2.96678 0
M  V30 963 N 104.532 -3.49257 -3.04259 0
M  V30 964 C 105.267 -4.39795 -3.67924 0
M  V30 965 N 104.763 -5.40591 -4.33281 0
M  V30 966 N 106.556 -4.275 -3.64966 0
M  V30 967 H 98.7067 -2.0748 -0.454502 0
M  V30 968 H 100.97 -0.910647 -0.26349 0
M  V30 969 H 100.676 -3.16587 -1.53184 0
M  V30 970 H 100.55 -2.25306 -3.02518 0
M  V30 971 H 102.937 -1.34473 -2.6268 0
M  V30 972 H 103.018 -2.2925 -1.13482 0
M  V30 973 H 102.662 -4.42359 -2.49562 0
M  V30 974 H 102.592 -3.4451 -3.98272 0
M  V30 975 H 105.083 -2.76337 -2.57771 0
M  V30 976 H 105.396 -6.05904 -4.79687 0
M  V30 977 H 103.741 -5.44475 -4.3194 0
M  V30 978 H 106.932 -3.47987 -3.13086 0
M  V30 979 H 107.105 -4.98258 -4.14298 0
M  V30 980 N 100.511 1.16574 -1.06058 0
M  V30 981 C 101.759 1.86677 -0.77434 0
M  V30 982 C 102.08 1.81959 0.701147 0
M  V30 983 O 101.35 1.2515 1.50713 0
M  V30 984 H 99.9298 0.691134 -0.283449 0
M  V30 985 H 102.592 1.41378 -1.34158 0
M  V30 986 H 101.688 2.92181 -1.09711 0
M  V30 987 N 101.989 0.842826 1.3317 0
M  V30 988 C 103.214 0.453129 2.02389 0
M  V30 989 C 103.639 -0.939105 1.6298 0
M  V30 990 O 102.997 -1.61472 0.8244 0
M  V30 991 C 103.045 0.586094 3.55805 0
M  V30 992 O 102.149 -0.386029 4.10589 0
M  V30 993 H 101.49 0.183664 0.638094 0
M  V30 994 H 104.02 1.13875 1.69981 0
M  V30 995 H 104.03 0.469209 4.05293 0
M  V30 996 H 102.705 1.6014 3.83833 0
M  V30 997 H 101.282 -0.226371 3.72212 0
M  V30 998 N 103.467 -1.45747 0.599634 0
M  V30 999 C 104.377 -2.34262 -0.125888 0
M  V30 1000 C 105.393 -1.50768 -0.868625 0
M  V30 1001 O 106.569 -1.83592 -0.828003 0
M  V30 1002 C 103.634 -3.28252 -1.11587 0
M  V30 1003 C 102.695 -4.27651 -0.375956 0
M  V30 1004 C 101.928 -5.1715 -1.31877 0
M  V30 1005 O 102.151 -5.09916 -2.55621 0
M  V30 1006 O 101.085 -5.96286 -0.820157 0
M  V30 1007 H 104.911 -2.97688 0.601315 0
M  V30 1008 H 102.496 -1.44999 0.359934 0
M  V30 1009 H 104.378 -3.86191 -1.68626 0
M  V30 1010 H 103.053 -2.67401 -1.82424 0
M  V30 1011 H 101.96 -3.7335 0.236698 0
M  V30 1012 H 103.293 -4.91334 0.29177 0
M  V30 1013 N 104.945 -0.338344 -1.53925 0
M  V30 1014 C 106.222 0.314774 -1.93051 0
M  V30 1015 C 106.602 1.68669 -1.26941 0
M  V30 1016 O 105.95 2.24636 -0.418445 0
M  V30 1017 C 106.16 0.392249 -3.46789 0
M  V30 1018 C 107.508 0.645554 -4.19664 0
M  V30 1019 O 108.532 0.474575 -3.53024 0
M  V30 1020 O 107.391 0.976408 -5.37707 0
M  V30 1021 H 104.485 0.182598 -0.80659 0
M  V30 1022 H 107.031 -0.389141 -1.65178 0
M  V30 1023 H 105.803 -0.570702 -3.87116 0
M  V30 1024 H 105.426 1.14316 -3.80812 0
M  V30 1025 N 106.423 1.57458 -0.0668435 0
M  V30 1026 C 107.333 2.15937 0.916975 0
M  V30 1027 C 108.349 1.12123 1.33058 0
M  V30 1028 O 109.525 1.44366 1.40429 0
M  V30 1029 C 106.59 2.70547 2.16807 0
M  V30 1030 C 105.651 3.89215 1.81135 0
M  V30 1031 C 104.884 4.41211 3.0028 0
M  V30 1032 O 105.107 3.92225 4.14144 0
M  V30 1033 O 104.041 5.32605 2.80384 0
M  V30 1034 H 107.867 3.00354 0.449561 0
M  V30 1035 H 105.452 1.48584 0.155949 0
M  V30 1036 H 107.334 3.0557 2.90181 0
M  V30 1037 H 106.009 1.89192 2.62656 0
M  V30 1038 H 104.916 3.59054 1.05028 0
M  V30 1039 H 106.249 4.71848 1.40073 0
M  V30 1040 N 107.901 -0.206675 1.56239 0
M  V30 1041 C 109.129 -0.945345 1.8404 0
M  V30 1042 C 109.544 -1.77336 0.647885 0
M  V30 1043 O 108.901 -1.78425 -0.383511 0
M  V30 1044 C 108.952 -1.8509 3.10522 0
M  V30 1045 O 108.673 -1.05634 4.25174 0
M  V30 1046 C 110.174 -2.70222 3.51418 0
M  V30 1047 H 107.394 -0.276372 0.61144 0
M  V30 1048 H 109.938 -0.217417 2.03341 0
M  V30 1049 H 108.093 -2.53259 2.93153 0
M  V30 1050 H 108.507 -1.67238 4.97124 0
M  V30 1051 H 109.981 -3.29438 4.42916 0
M  V30 1052 H 110.458 -3.43358 2.73864 0
M  V30 1053 H 111.064 -2.07443 3.71278 0
M  V30 1054 N 109.379 -1.50304 -0.473955 0
M  V30 1055 C 110.656 -1.51667 -1.23518 0
M  V30 1056 C 111.036 -0.259701 -2.09496 0
M  V30 1057 O 110.384 0.756986 -2.15597 0
M  V30 1058 C 110.594 -2.81082 -2.06868 0
M  V30 1059 C 111.942 -3.31631 -2.65153 0
M  V30 1060 O 112.966 -2.82384 -2.17113 0
M  V30 1061 O 111.825 -4.17471 -3.52675 0
M  V30 1062 H 108.919 -0.60822 -0.560355 0
M  V30 1063 H 111.465 -1.62592 -0.486011 0
M  V30 1064 H 110.237 -3.64041 -1.4349 0
M  V30 1065 H 109.86 -2.73146 -2.88924 0
M  V30 1066 N 110.857 0.726932 -1.39834 0
M  V30 1067 C 112.134 1.47902 -1.28001 0
M  V30 1068 C 112.514 2.1083 0.106789 0
M  V30 1069 O 111.862 1.99242 1.11869 0
M  V30 1070 C 112.072 2.52392 -2.41038 0
M  V30 1071 C 113.42 3.18546 -2.80737 0
M  V30 1072 O 114.444 2.62708 -2.40547 0
M  V30 1073 O 113.303 4.19604 -3.50135 0
M  V30 1074 H 110.397 0.657163 -0.502062 0
M  V30 1075 H 112.943 0.760071 -1.51727 0
M  V30 1076 H 111.715 2.04329 -3.33715 0
M  V30 1077 H 111.338 3.31837 -2.19021 0
M  V30 1078 N 112.336 1.25143 0.95797 0
M  V30 1079 C 113.613 1.00472 1.67823 0
M  V30 1080 C 113.993 -0.470056 2.058 0
M  V30 1081 O 113.341 -1.44663 1.76875 0
M  V30 1082 C 113.551 1.9372 2.90299 0
M  V30 1083 C 114.899 2.21371 3.62326 0
M  V30 1084 O 115.923 1.91451 3.00375 0
M  V30 1085 O 114.782 2.72231 4.7387 0
M  V30 1086 H 111.876 0.380752 0.734137 0
M  V30 1087 H 114.422 1.36283 1.01119 0
M  V30 1088 H 113.194 2.93316 2.59001 0
M  V30 1089 H 112.817 1.58286 3.64735 0
M  V30 1090 N 113.814 -1.1601 1.06675 0
M  V30 1091 C 115.062 -1.86264 0.784229 0
M  V30 1092 C 115.383 -1.82328 -0.691488 0
M  V30 1093 O 114.653 -1.25947 -1.50047 0
M  V30 1094 H 113.233 -0.689621 0.28711 0
M  V30 1095 H 115.895 -1.40664 1.34906 0
M  V30 1096 H 114.991 -2.91595 1.11259 0
M  V30 1097 N 115.292 -0.849877 -1.32721 0
M  V30 1098 C 116.202 -0.293791 -2.32753 0
M  V30 1099 C 117.218 0.585906 -1.63839 0
M  V30 1100 O 118.394 0.487413 -1.95413 0
M  V30 1101 C 115.459 0.512752 -3.42887 0
M  V30 1102 C 114.52 -0.39252 -4.27502 0
M  V30 1103 C 113.753 0.375625 -5.32377 0
M  V30 1104 O 113.976 1.60613 -5.4732 0
M  V30 1105 O 112.91 -0.256094 -6.01355 0
M  V30 1106 H 116.736 -1.12242 -2.82197 0
M  V30 1107 H 114.321 -0.612685 -1.36259 0
M  V30 1108 H 116.203 0.970704 -4.10067 0
M  V30 1109 H 114.878 1.31826 -2.95641 0
M  V30 1110 H 113.785 -0.898547 -3.63149 0
M  V30 1111 H 115.118 -1.16309 -4.7826 0
M  V30 1112 N 116.77 1.45427 -0.607355 0
M  V30 1113 C 118.047 1.9557 -0.0344566 0
M  V30 1114 C 118.427 1.54979 1.43334 0
M  V30 1115 O 117.775 0.812241 2.13576 0
M  V30 1116 C 117.985 3.48226 -0.232321 0
M  V30 1117 C 119.333 4.2445 -0.113001 0
M  V30 1118 O 120.357 3.55829 -0.162431 0
M  V30 1119 O 119.216 5.465 0.00209442 0
M  V30 1120 H 116.31 0.826222 0.0358667 0
M  V30 1121 H 118.856 1.55594 -0.6774 0
M  V30 1122 H 117.628 3.70739 -1.25174 0
M  V30 1123 H 117.251 3.95092 0.445896 0
M  V30 1124 N 118.248 0.346503 1.53744 0
M  V30 1125 C 119.495 -0.249104 2.00962 0
M  V30 1126 C 119.823 -1.5032 1.23426 0
M  V30 1127 O 119.078 -1.93217 0.310761 0
M  V30 1128 C 119.377 -0.605809 3.52228 0
M  V30 1129 C 119.043 0.551747 4.47512 0
M  V30 1130 C 117.705 0.86941 4.73281 0
M  V30 1131 C 120.057 1.32818 5.03993 0
M  V30 1132 C 117.385 1.96582 5.52786 0
M  V30 1133 C 119.737 2.41486 5.84694 0
M  V30 1134 C 118.401 2.73808 6.08757 0
M  V30 1135 H 117.671 -0.0911538 0.735372 0
M  V30 1136 H 120.318 0.475027 1.85515 0
M  V30 1137 H 118.623 -1.4107 3.65522 0
M  V30 1138 H 120.32 -1.07858 3.86222 0
M  V30 1139 H 116.91 0.294102 4.2759 0
M  V30 1140 H 121.094 1.09602 4.84047 0
M  V30 1141 H 116.35 2.22045 5.69654 0
M  V30 1142 H 120.524 3.02078 6.27473 0
M  V30 1143 H 118.151 3.58892 6.7015 0
M  V30 1144 N 119.726 -1.57421 0.075193 0
M  V30 1145 C 120.954 -1.97946 -0.602076 0
M  V30 1146 C 121.369 -0.953674 -1.62943 0
M  V30 1147 O 120.726 0.0592551 -1.82404 0
M  V30 1148 C 120.777 -3.38546 -1.26762 0
M  V30 1149 O 120.498 -4.37195 -0.281376 0
M  V30 1150 C 121.999 -3.93966 -2.03239 0
M  V30 1151 H 119.219 -0.650918 -0.162931 0
M  V30 1152 H 121.763 -2.03959 0.148601 0
M  V30 1153 H 119.918 -3.33609 -1.96936 0
M  V30 1154 H 120.332 -5.18975 -0.759267 0
M  V30 1155 H 121.806 -4.94555 -2.45193 0
M  V30 1156 H 122.283 -3.30693 -2.8903 0
M  V30 1157 H 122.889 -4.02315 -1.37924 0
M  V30 1158 N 121.204 0.198386 -1.56346 0
M  V30 1159 C 122.615 0.763358 -1.70381 0
M  V30 1160 C 122.966 1.83995 -0.681203 0
M  V30 1161 O 122.091 2.15785 0.16305 0
M  V30 1162 C 122.686 1.39143 -3.08909 0
M  V30 1163 C 121.245 1.90352 -3.2472 0
M  V30 1164 C 120.392 0.772233 -2.6633 0
M  V30 1165 H 123.343 -0.0266377 -1.58678 0
M  V30 1166 H 123.364 2.26076 -3.06055 0
M  V30 1167 H 122.876 0.607638 -3.83314 0
M  V30 1168 H 120.977 2.71461 -2.55225 0
M  V30 1169 H 121.09 2.06757 -4.3219 0
M  V30 1170 H 119.454 1.18566 -2.2542 0
M  V30 1171 H 120.237 0.00073556 -3.433 0
M  V30 1172 N 122.682 1.50554 0.465978 0
M  V30 1173 C 124.093 1.54599 1.04671 0
M  V30 1174 C 124.444 0.352488 1.93008 0
M  V30 1175 O 123.569 -0.534044 2.09707 0
M  V30 1176 C 124.164 2.80166 1.90505 0
M  V30 1177 C 122.723 2.86876 2.43678 0
M  V30 1178 C 121.87 2.48947 1.22151 0
M  V30 1179 H 124.821 1.56744 0.248384 0
M  V30 1180 H 124.842 2.62311 2.75633 0
M  V30 1181 H 124.354 3.67013 1.26186 0
M  V30 1182 H 122.455 2.04393 3.11536 0
M  V30 1183 H 122.568 3.89885 2.78436 0
M  V30 1184 H 120.932 2.01498 1.5579 0
M  V30 1185 H 121.715 3.38107 0.594866 0
M  V30 1186 N 124.16 -0.719506 1.40217 0
M  V30 1187 C 125.409 -1.47486 1.37589 0
M  V30 1188 C 125.722 -1.9559 -0.0201568 0
M  V30 1189 O 126.928 -2.70973 -0.169049 0
M  V30 1190 C 125.384 -2.66575 2.41796 0
M  V30 1191 C 124.992 -2.25358 3.87192 0
M  V30 1192 C 126.736 -3.4433 2.48269 0
M  V30 1193 C 124.643 -3.41262 4.83005 0
M  V30 1194 H 123.573 -0.553901 0.511576 0
M  V30 1195 H 126.224 -0.783427 1.65936 0
M  V30 1196 H 124.606 -3.3787 2.06543 0
M  V30 1197 H 125.78 -1.61509 4.31569 0
M  V30 1198 H 124.095 -1.60657 3.84159 0
M  V30 1199 H 126.692 -4.30569 3.17041 0
M  V30 1200 H 127.035 -3.87872 1.51198 0
M  V30 1201 H 127.568 -2.80076 2.82493 0
M  V30 1202 H 124.307 -3.02755 5.81394 0
M  V30 1203 H 123.827 -4.0404 4.43297 0
M  V30 1204 H 125.506 -4.07383 5.02641 0
M  V30 1205 N 125.638 -1.25649 -0.95132 0
M  V30 1206 C 126.568 -1.08808 -2.06599 0
M  V30 1207 C 127.549 0.00382547 -1.701 0
M  V30 1208 O 128.734 -0.166325 -1.93486 0
M  V30 1209 C 125.864 -0.709542 -3.39975 0
M  V30 1210 C 124.818 -1.75206 -3.90496 0
M  V30 1211 C 124.144 -1.22811 -5.20405 0
M  V30 1212 C 125.444 -3.15153 -4.16504 0
M  V30 1213 H 127.138 -2.02048 -2.20946 0
M  V30 1214 H 124.684 -0.972835 -1.06169 0
M  V30 1215 H 126.637 -0.578649 -4.17408 0
M  V30 1216 H 125.361 0.258556 -3.25575 0
M  V30 1217 H 124.02 -1.87145 -3.15234 0
M  V30 1218 H 123.668 -0.250145 -5.02378 0
M  V30 1219 H 123.368 -1.92492 -5.55176 0
M  V30 1220 H 124.892 -1.10968 -6.00432 0
M  V30 1221 H 126.306 -3.06349 -4.84586 0
M  V30 1222 H 124.703 -3.82333 -4.62538 0
M  V30 1223 H 125.773 -3.61966 -3.22658 0
M  V30 1224 N 127.117 1.15442 -1.07289 0
M  V30 1225 C 128.064 2.20161 -0.692653 0
M  V30 1226 C 129.034 1.63073 0.31564 0
M  V30 1227 O 130.219 1.89725 0.202235 0
M  V30 1228 C 127.359 3.44967 -0.0959509 0
M  V30 1229 C 126.472 4.16256 -1.15564 0
M  V30 1230 C 125.607 5.28609 -0.524011 0
M  V30 1231 C 124.646 5.91715 -1.56653 0
M  V30 1232 N 123.783 6.9554 -0.957531 0
M  V30 1233 H 128.623 2.52037 -1.59002 0
M  V30 1234 H 126.16 1.2378 -0.794798 0
M  V30 1235 H 128.118 4.16341 0.267628 0
M  V30 1236 H 126.748 3.1361 0.764772 0
M  V30 1237 H 125.8 3.43385 -1.6368 0
M  V30 1238 H 127.112 4.59268 -1.94613 0
M  V30 1239 H 126.266 6.06604 -0.108032 0
M  V30 1240 H 125.005 4.86787 0.29825 0
M  V30 1241 H 124.01 5.12433 -1.9923 0
M  V30 1242 H 125.235 6.35614 -2.39107 0
M  V30 1243 H 123.181 6.55814 -0.156162 0
M  V30 1244 H 123.098 7.36977 -1.68526 0
M  V30 1245 H 124.366 7.77435 -0.567032 0
M  V30 1246 N 128.595 0.856903 1.32268 0
M  V30 1247 C 129.505 0.306131 2.32594 0
M  V30 1248 C 130.521 -0.577209 1.64147 0
M  V30 1249 O 131.697 -0.477043 1.95669 0
M  V30 1250 C 128.762 -0.494561 3.43154 0
M  V30 1251 C 127.823 0.415186 4.27288 0
M  V30 1252 C 127.056 -0.347387 5.32568 0
M  V30 1253 O 127.279 -1.57708 5.48165 0
M  V30 1254 O 126.213 0.287982 6.01211 0
M  V30 1255 H 130.039 1.13737 2.81598 0
M  V30 1256 H 127.624 0.619902 1.35932 0
M  V30 1257 H 129.506 -0.948944 4.10576 0
M  V30 1258 H 128.181 -1.30257 2.96336 0
M  V30 1259 H 127.088 0.917793 3.62667 0
M  V30 1260 H 128.421 1.18844 4.77637 0
M  V30 1261 N 130.073 -1.45103 0.615059 0
M  V30 1262 C 131.003 -2.33339 -0.0865619 0
M  V30 1263 C 131.984 -1.4727 -0.851209 0
M  V30 1264 O 133.169 -1.76026 -0.820281 0
M  V30 1265 C 130.299 -3.30095 -1.07956 0
M  V30 1266 C 129.253 -4.25858 -0.427628 0
M  V30 1267 C 128.579 -5.12361 -1.5294 0
M  V30 1268 C 129.879 -5.18165 0.655944 0
M  V30 1269 H 131.573 -2.92254 0.650224 0
M  V30 1270 H 129.119 -1.40532 0.314138 0
M  V30 1271 H 131.072 -3.90698 -1.57901 0
M  V30 1272 H 129.796 -2.69355 -1.84703 0
M  V30 1273 H 128.455 -3.66564 0.0510292 0
M  V30 1274 H 128.103 -4.47984 -2.28734 0
M  V30 1275 H 127.803 -5.77238 -1.09865 0
M  V30 1276 H 129.327 -5.75833 -2.03098 0
M  V30 1277 H 130.741 -5.72796 0.240257 0
M  V30 1278 H 129.138 -5.91559 1.00888 0
M  V30 1279 H 130.208 -4.60144 1.52957 0
M  V30 1280 N 131.551 -0.354651 -1.53558 0
M  V30 1281 C 132.461 0.50515 -2.29097 0
M  V30 1282 C 133.477 1.10223 -1.34636 0
M  V30 1283 O 134.653 1.11553 -1.67684 0
M  V30 1284 C 131.718 1.63479 -3.05738 0
M  V30 1285 C 130.779 1.06636 -4.15845 0
M  V30 1286 C 130.012 2.14217 -4.88822 0
M  V30 1287 O 130.235 3.35137 -4.61562 0
M  V30 1288 O 129.169 1.77887 -5.75013 0
M  V30 1289 H 132.995 -0.109237 -3.03503 0
M  V30 1290 H 130.58 -0.119357 -1.48922 0
M  V30 1291 H 132.462 2.2918 -3.5363 0
M  V30 1292 H 131.137 2.23478 -2.34178 0
M  V30 1293 H 130.044 0.373565 -3.7223 0
M  V30 1294 H 131.377 0.511081 -4.89539 0
M  V30 1295 N 133.029 1.57378 -0.0835403 0
M  V30 1296 C 133.977 2.14602 0.89714 0
M  V30 1297 C 134.971 1.08589 1.30018 0
M  V30 1298 O 136.177 1.26952 1.27606 0
M  V30 1299 H 132.552 0.686346 0.3073 0
M  V30 1300 H 134.523 2.95845 0.38969 0
M  V30 1301 C 133.272 2.73188 2.15089 0
M  V30 1302 H 132.595 3.54442 1.84962 0
M  V30 1303 H 134.035 3.1681 2.81793 0
M  V30 1304 C 132.494 1.68517 2.91725 0
M  V30 1305 O 133.024 1.11718 3.85852 0
M  V30 1306 N 131.23 1.39277 2.55049 0
M  V30 1307 H 130.777 1.85655 1.78577 0
M  V30 1308 H 130.735 0.694791 3.06627 0
M  V30 1309 N 134.507 -0.190092 1.56449 0
M  V30 1310 C 135.437 -1.23816 1.97969 0
M  V30 1311 C 136.418 -1.47201 0.852395 0
M  V30 1312 O 137.603 -1.58854 1.1171 0
M  V30 1313 C 134.733 -2.5813 2.3235 0
M  V30 1314 C 133.687 -2.49348 3.47864 0
M  V30 1315 C 133.013 -3.8798 3.67934 0
M  V30 1316 C 134.313 -2.01424 4.81898 0
M  V30 1317 H 136.007 -0.89311 2.85769 0
M  V30 1318 H 133.553 -0.428177 1.37487 0
M  V30 1319 H 135.506 -3.31637 2.59991 0
M  V30 1320 H 134.23 -2.94386 1.41438 0
M  V30 1321 H 132.889 -1.78297 3.20321 0
M  V30 1322 H 132.537 -4.21597 2.74344 0
M  V30 1323 H 132.237 -3.82978 4.45648 0
M  V30 1324 H 133.761 -4.63101 3.97957 0
M  V30 1325 H 135.175 -2.64693 5.08538 0
M  V30 1326 H 133.572 -2.07413 5.63116 0
M  V30 1327 H 134.642 -0.967677 4.75146 0
M  V30 1328 N 135.985 -1.50799 -0.457987 0
M  V30 1329 C 137.21 -1.66496 -1.23668 0
M  V30 1330 C 137.635 -0.353288 -1.84752 0
M  V30 1331 O 136.993 0.684346 -1.67888 0
M  V30 1332 C 137.041 -2.76763 -2.3116 0
M  V30 1333 O 136.145 -2.38928 -3.36136 0
M  V30 1334 H 135.486 -0.555828 -0.363252 0
M  V30 1335 H 138.016 -1.9725 -0.543474 0
M  V30 1336 H 138.026 -3.00232 -2.76269 0
M  V30 1337 H 136.701 -3.71954 -1.86073 0
M  V30 1338 H 135.278 -2.25953 -2.96647 0
M  V30 1339 N 137.463 0.71206 -1.40597 0
M  V30 1340 C 138.874 1.29135 -1.34837 0
M  V30 1341 C 139.225 1.96186 -0.0235395 0
M  V30 1342 O 138.35 1.97768 0.878444 0
M  V30 1343 C 138.945 2.34827 -2.44217 0
M  V30 1344 C 137.504 2.88371 -2.41907 0
M  V30 1345 C 136.651 1.62202 -2.24913 0
M  V30 1346 H 139.602 0.507944 -1.50352 0
M  V30 1347 H 139.623 3.15749 -2.12327 0
M  V30 1348 H 139.135 1.85996 -3.40627 0
M  V30 1349 H 137.236 3.41422 -1.49204 0
M  V30 1350 H 137.349 3.39925 -3.37621 0
M  V30 1351 H 135.713 1.874 -1.72492 0
M  V30 1352 H 136.496 1.15391 -3.23326 0
M  V30 1353 N 138.941 1.26152 0.944643 0
M  V30 1354 C 139.851 1.09176 2.07648 0
M  V30 1355 C 140.867 0.0261935 1.7398 0
M  V30 1356 O 142.043 0.229208 2.00091 0
M  V30 1357 C 139.108 0.722915 3.39079 0
M  V30 1358 C 138.169 1.86752 3.86552 0
M  V30 1359 C 137.402 1.51617 5.11711 0
M  V30 1360 O 137.625 0.416331 5.68879 0
M  V30 1361 O 136.559 2.34975 5.54139 0
M  V30 1362 H 140.385 2.0412 2.24875 0
M  V30 1363 H 137.97 1.05182 1.061 0
M  V30 1364 H 139.852 0.529787 4.18056 0
M  V30 1365 H 138.527 -0.197159 3.23099 0
M  V30 1366 H 137.434 2.11558 3.08535 0
M  V30 1367 H 138.767 2.76719 4.07047 0
M  V30 1368 N 140.419 -1.14872 1.07899 0
M  V30 1369 C 141.329 -2.2341 0.715915 0
M  V30 1370 C 142.345 -1.71808 -0.275306 0
M  V30 1371 O 143.521 -2.01039 -0.120545 0
M  V30 1372 C 140.586 -3.46474 0.125168 0
M  V30 1373 C 139.647 -4.13039 1.17034 0
M  V30 1374 C 138.88 -5.30229 0.607688 0
M  V30 1375 O 139.103 -5.675 -0.574497 0
M  V30 1376 O 138.037 -5.86444 1.35526 0
M  V30 1377 H 141.863 -2.56808 1.62121 0
M  V30 1378 H 139.448 -1.22702 0.852322 0
M  V30 1379 H 141.33 -4.20917 -0.201729 0
M  V30 1380 H 140.005 -3.14811 -0.753364 0
M  V30 1381 H 138.912 -3.40493 1.54968 0
M  V30 1382 H 140.245 -4.48796 2.02097 0
M  V30 1383 N 141.898 -0.863906 -1.31812 0
M  V30 1384 C 142.861 -0.320212 -2.26952 0
M  V30 1385 C 143.861 0.525369 -1.51975 0
M  V30 1386 O 145.051 0.335547 -1.70938 0
M  V30 1387 C 142.183 0.545919 -3.365 0
M  V30 1388 H 143.376 -1.16004 -2.76556 0
M  V30 1389 H 140.929 -0.638995 -1.42641 0
M  V30 1390 H 141.664 1.40718 -2.92179 0
M  V30 1391 H 141.449 -0.0594674 -3.92055 0
M  V30 1392 H 142.939 0.918796 -4.07367 0
M  V30 1393 N 143.376 1.44774 -0.622745 0
M  V30 1394 C 144.339 2.29069 0.0774015 0
M  V30 1395 C 145.339 1.4059 0.780461 0
M  V30 1396 O 146.529 1.62551 0.626322 0
M  V30 1397 C 143.661 3.21974 1.12006 0
M  V30 1398 H 144.854 2.92459 -0.663901 0
M  V30 1399 H 142.407 1.51548 -0.382486 0
M  V30 1400 H 143.142 2.63417 1.89162 0
M  V30 1401 H 142.927 3.87168 0.619951 0
M  V30 1402 H 144.417 3.85318 1.60995 0
M  V30 1403 N 144.854 0.36279 1.53368 0
M  V30 1404 C 145.804 -0.501391 2.22419 0
M  V30 1405 C 146.788 -1.0509 1.2184 0
M  V30 1406 O 147.98 -0.981404 1.47301 0
M  V30 1407 C 145.109 -1.64201 3.01484 0
M  V30 1408 C 144.195 -1.10552 4.09438 0
M  V30 1409 N 144.586 -0.291788 5.04958 0
M  V30 1410 C 142.884 -1.3806 4.24094 0
M  V30 1411 C 143.585 0.00162655 5.817 0
M  V30 1412 N 142.561 -0.595244 5.40331 0
M  V30 1413 H 146.363 0.127159 2.93625 0
M  V30 1414 H 143.877 0.170658 1.61501 0
M  V30 1415 H 145.874 -2.27326 3.49469 0
M  V30 1416 H 144.534 -2.27365 2.31809 0
M  V30 1417 H 145.545 0.0687731 5.17854 0
M  V30 1418 H 142.222 -2.01522 3.65644 0
M  V30 1419 H 143.612 0.659278 6.68658 0
M  V30 1420 N 146.332 -1.57332 0.0918853 0
M  V30 1421 C 147.264 -2.10869 -0.898168 0
M  V30 1422 C 148.277 -1.04521 -1.24817 0
M  V30 1423 O 149.466 -1.31977 -1.20184 0
M  V30 1424 C 146.566 -2.57083 -2.2082 0
M  V30 1425 C 145.739 -3.87229 -2.03402 0
M  V30 1426 C 144.798 -4.19324 -3.17889 0
M  V30 1427 O 143.824 -4.88598 -2.91994 0
M  V30 1428 N 145.026 -3.74471 -4.43567 0
M  V30 1429 H 147.791 -2.96439 -0.440943 0
M  V30 1430 H 145.352 -1.61631 -0.0933064 0
M  V30 1431 H 147.344 -2.75602 -2.96354 0
M  V30 1432 H 145.914 -1.76541 -2.57977 0
M  V30 1433 H 145.134 -3.7789 -1.12218 0
M  V30 1434 H 146.422 -4.72379 -1.89038 0
M  V30 1435 H 145.82 -3.18546 -4.67488 0
M  V30 1436 H 144.377 -3.98151 -5.16061 0
M  V30 1437 N 147.81 0.181792 -1.56548 0
M  V30 1438 C 148.757 1.22521 -1.95595 0
M  V30 1439 C 149.727 1.4454 -0.818373 0
M  V30 1440 O 150.912 1.57454 -1.07763 0
M  V30 1441 C 148.052 2.56193 -2.31212 0
M  V30 1442 C 147.165 2.41641 -3.58097 0
M  V30 1443 C 146.3 3.68108 -3.82975 0
M  V30 1444 C 145.339 3.48445 -5.03242 0
M  V30 1445 N 144.476 4.66956 -5.24306 0
M  V30 1446 H 149.316 0.885226 -2.84548 0
M  V30 1447 H 146.853 0.425718 -1.40805 0
M  V30 1448 H 148.811 3.34088 -2.49882 0
M  V30 1449 H 147.441 2.88208 -1.45382 0
M  V30 1450 H 146.493 1.54976 -3.474 0
M  V30 1451 H 147.805 2.23052 -4.46149 0
M  V30 1452 H 146.959 4.54441 -4.01956 0
M  V30 1453 H 145.698 3.89666 -2.93278 0
M  V30 1454 H 144.703 2.60499 -4.8417 0
M  V30 1455 H 145.928 3.2832 -5.9446 0
M  V30 1456 H 143.874 4.88752 -4.37559 0
M  V30 1457 H 143.791 4.51242 -6.06561 0
M  V30 1458 H 145.059 5.54602 -5.47756 0
M  V30 1459 N 149.288 1.51039 0.449983 0
M  V30 1460 C 150.251 1.70863 1.5277 0
M  V30 1461 C 151.251 0.578846 1.5002 0
M  V30 1462 O 152.441 0.846213 1.52266 0
M  V30 1463 C 149.573 1.75341 2.9235 0
M  V30 1464 H 150.766 2.67034 1.36502 0
M  V30 1465 H 148.319 1.40838 0.677812 0
M  V30 1466 H 149.054 0.809383 3.14037 0
M  V30 1467 H 148.839 2.57436 2.95752 0
M  V30 1468 H 150.329 1.92559 3.70555 0
M  V30 1469 N 150.766 -0.704594 1.40972 0
M  V30 1470 C 152.012 -1.46675 1.40051 0
M  V30 1471 C 152.345 -1.94199 0.00641102 0
M  V30 1472 O 151.62 -1.68916 -0.964235 0
M  V30 1473 C 151.903 -2.68505 2.39952 0
M  V30 1474 C 151.756 -2.26805 3.88432 0
M  V30 1475 C 153.075 -3.70686 2.37233 0
M  V30 1476 H 150.194 -0.532015 0.510028 0
M  V30 1477 H 152.836 -0.803255 1.72185 0
M  V30 1478 H 150.986 -3.25114 2.1268 0
M  V30 1479 H 152.658 -1.75592 4.26574 0
M  V30 1480 H 150.901 -1.58685 4.03734 0
M  V30 1481 H 151.572 -3.14181 4.53866 0
M  V30 1482 H 154.048 -3.23731 2.61415 0
M  V30 1483 H 152.924 -4.53553 3.09162 0
M  V30 1484 H 153.185 -4.19754 1.38777 0
M  V30 1485 N 152.244 -1.26651 -0.937939 0
M  V30 1486 C 153.49 -1.12553 -1.687 0
M  V30 1487 C 153.823 0.329782 -1.91379 0
M  V30 1488 O 153.098 1.24202 -1.4968 0
M  V30 1489 C 153.381 -1.89862 -3.05981 0
M  V30 1490 C 153.234 -3.43318 -2.90607 0
M  V30 1491 C 154.553 -1.69499 -4.0615 0
M  V30 1492 H 151.672 -0.410257 -0.612257 0
M  V30 1493 H 154.314 -1.55685 -1.08913 0
M  V30 1494 H 152.464 -1.53204 -3.57017 0
M  V30 1495 H 154.136 -3.89747 -2.46769 0
M  V30 1496 H 152.379 -3.70179 -2.26164 0
M  V30 1497 H 153.05 -3.92642 -3.8799 0
M  V30 1498 H 155.526 -2.01442 -3.64088 0
M  V30 1499 H 154.402 -2.26002 -5.00214 0
M  V30 1500 H 154.663 -0.640365 -4.37438 0
M  V30 1501 N 153.722 1.14298 -1.08507 0
M  V30 1502 C 154.632 2.23027 -0.727753 0
M  V30 1503 C 155.648 1.71952 0.26619 0
M  V30 1504 O 156.824 2.011 0.109882 0
M  V30 1505 C 153.889 3.46403 -0.143541 0
M  V30 1506 C 152.95 4.12413 -1.19223 0
M  V30 1507 C 152.183 5.29899 -0.635798 0
M  V30 1508 O 152.406 5.67796 0.544393 0
M  V30 1509 O 151.34 5.85717 -1.38634 0
M  V30 1510 H 155.166 2.55945 -1.63481 0
M  V30 1511 H 152.751 1.22248 -0.858817 0
M  V30 1512 H 154.633 4.21018 0.179404 0
M  V30 1513 H 153.308 3.15206 0.736659 0
M  V30 1514 H 152.215 3.39667 -1.56772 0
M  V30 1515 H 153.548 4.47718 -2.04474 0
M  V30 1516 N 155.201 0.870884 1.31352 0
M  V30 1517 C 156.429 0.49677 2.00848 0
M  V30 1518 C 156.844 -0.910998 1.65367 0
M  V30 1519 O 156.201 -1.59696 0.883374 0
M  V30 1520 C 156.252 0.645308 3.55694 0
M  V30 1521 O 155.973 1.99764 3.89905 0
M  V30 1522 C 157.474 0.272326 4.42463 0
M  V30 1523 H 154.694 0.193462 0.642506 0
M  V30 1524 H 157.238 1.1723 1.67563 0
M  V30 1525 H 155.393 0.0173176 3.87396 0
M  V30 1526 H 155.807 2.00607 4.84621 0
M  V30 1527 H 157.281 0.427208 5.50344 0
M  V30 1528 H 157.758 -0.788587 4.32062 0
M  V30 1529 H 158.364 0.876054 4.1618 0
M  V30 1530 N 156.679 -1.44442 0.630414 0
M  V30 1531 C 157.609 -2.33418 -0.0618083 0
M  V30 1532 C 158.59 -1.48165 -0.835541 0
M  V30 1533 O 159.775 -1.76886 -0.801564 0
M  V30 1534 C 156.905 -3.31222 -1.04449 0
M  V30 1535 C 155.859 -4.26288 -0.382436 0
M  V30 1536 C 155.185 -5.13954 -1.47497 0
M  V30 1537 C 156.485 -5.1744 0.710865 0
M  V30 1538 H 158.179 -2.91548 0.681184 0
M  V30 1539 H 155.725 -1.40191 0.329026 0
M  V30 1540 H 157.678 -3.92351 -1.53748 0
M  V30 1541 H 156.402 -2.71299 -1.81836 0
M  V30 1542 H 155.061 -3.6649 0.0899054 0
M  V30 1543 H 154.709 -4.50385 -2.2397 0
M  V30 1544 H 154.409 -5.7837 -1.03737 0
M  V30 1545 H 155.933 -5.77955 -1.96979 0
M  V30 1546 H 157.347 -5.72509 0.300996 0
M  V30 1547 H 155.744 -5.90455 1.07156 0
M  V30 1548 H 156.814 -4.58496 1.57829 0
M  V30 1549 N 158.157 -0.370918 -1.53173 0
M  V30 1550 C 159.087 0.464847 -2.28826 0
M  V30 1551 C 160.068 1.07936 -1.31468 0
M  V30 1552 O 161.253 1.0956 -1.60344 0
M  V30 1553 C 158.383 1.60196 -3.08147 0
M  V30 1554 C 157.337 1.11443 -4.13237 0
M  V30 1555 C 156.663 2.3422 -4.80672 0
M  V30 1556 C 157.963 0.195384 -5.21934 0
M  V30 1557 H 159.657 -0.166329 -2.98938 0
M  V30 1558 H 157.203 -0.0814359 -1.4377 0
M  V30 1559 H 159.156 2.19332 -3.59822 0
M  V30 1560 H 157.88 2.26045 -2.35735 0
M  V30 1561 H 156.539 0.545727 -3.62515 0
M  V30 1562 H 156.187 2.98537 -4.04827 0
M  V30 1563 H 155.887 2.02269 -5.51689 0
M  V30 1564 H 157.411 2.94032 -5.35143 0
M  V30 1565 H 158.825 0.694375 -5.69079 0
M  V30 1566 H 157.222 -0.0335027 -6.00091 0
M  V30 1567 H 158.292 -0.760961 -4.78892 0
M  V30 1568 N 159.635 1.57281 -0.100228 0
M  V30 1569 C 160.567 2.11342 0.886972 0
M  V30 1570 C 161.58 1.05182 1.24261 0
M  V30 1571 O 162.769 1.32613 1.19483 0
M  V30 1572 C 159.869 2.5825 2.19454 0
M  V30 1573 C 159.042 3.88302 2.01346 0
M  V30 1574 C 158.101 4.21004 3.15661 0
M  V30 1575 O 157.127 4.9014 2.89398 0
M  V30 1576 N 158.329 3.76818 4.41575 0
M  V30 1577 H 161.094 2.96668 0.425216 0
M  V30 1578 H 158.655 1.61678 0.0847334 0
M  V30 1579 H 160.647 2.7717 2.94888 0
M  V30 1580 H 159.217 1.77907 2.57037 0
M  V30 1581 H 158.437 3.7848 1.10212 0
M  V30 1582 H 159.725 4.73375 1.8653 0
M  V30 1583 H 159.123 3.2102 4.65792 0
M  V30 1584 H 157.68 4.00882 5.13942 0
M  V30 1585 N 161.113 -0.173488 1.56642 0
M  V30 1586 C 162.023 -1.23482 1.99473 0
M  V30 1587 C 163.039 -1.48567 0.905752 0
M  V30 1588 O 164.215 -1.60758 1.21321 0
M  V30 1589 C 161.28 -2.55444 2.34413 0
M  V30 1590 C 160.341 -2.38241 3.57127 0
M  V30 1591 C 159.574 -3.63909 3.90392 0
M  V30 1592 O 159.797 -4.68996 3.24653 0
M  V30 1593 O 158.731 -3.58149 4.83749 0
M  V30 1594 H 162.557 -0.901279 2.90018 0
M  V30 1595 H 160.142 -0.380185 1.44482 0
M  V30 1596 H 162.024 -3.33292 2.57865 0
M  V30 1597 H 160.699 -2.88382 1.4703 0
M  V30 1598 H 159.606 -1.58431 3.38896 0
M  V30 1599 H 160.939 -2.10228 4.45045 0
M  V30 1600 N 162.591 -1.51276 -0.441967 0
M  V30 1601 C 163.868 -1.54252 -1.20273 0
M  V30 1602 C 164.248 -0.30408 -2.08898 0
M  V30 1603 O 163.596 0.711084 -2.17154 0
M  V30 1604 C 163.806 -2.85406 -2.00859 0
M  V30 1605 C 165.154 -3.37181 -2.58059 0
M  V30 1606 O 166.178 -2.86925 -2.11074 0
M  V30 1607 O 165.037 -4.24858 -3.43741 0
M  V30 1608 H 162.131 -0.619969 -0.547328 0
M  V30 1609 H 164.677 -1.63586 -0.451413 0
M  V30 1610 H 163.449 -3.67003 -1.35736 0
M  V30 1611 H 163.072 -2.79213 -2.83065 0
M  V30 1612 N 164.069 0.697108 -1.41344 0
M  V30 1613 C 165.48 1.27697 -1.36199 0
M  V30 1614 C 165.831 1.9615 -0.0443463 0
M  V30 1615 O 164.956 1.98689 0.857419 0
M  V30 1616 C 165.551 2.32223 -2.46694 0
M  V30 1617 C 164.11 2.8579 -2.44952 0
M  V30 1618 C 163.257 1.59807 -2.26621 0
M  V30 1619 H 166.208 0.491968 -1.50882 0
M  V30 1620 H 166.229 3.1348 -2.15664 0
M  V30 1621 H 165.741 1.82373 -3.42581 0
M  V30 1622 H 163.842 3.3982 -1.52817 0
M  V30 1623 H 163.955 3.36325 -3.41207 0
M  V30 1624 H 162.319 1.8556 -1.7447 0
M  V30 1625 H 163.102 1.11956 -3.24532 0
M  V30 1626 N 165.547 1.27147 0.931209 0
M  V30 1627 C 166.793 1.14455 1.68141 0
M  V30 1628 C 167.148 -0.307172 1.89932 0
M  V30 1629 O 166.441 -1.22158 1.47607 0
M  V30 1630 C 166.635 1.8579 3.05314 0
M  V30 1631 C 166.464 3.3775 2.96909 0
M  V30 1632 C 165.234 4.07062 2.99381 0
M  V30 1633 C 167.432 4.33783 2.76291 0
M  V30 1634 N 165.414 5.45618 2.8138 0
M  V30 1635 C 166.785 5.59582 2.6696 0
M  V30 1636 C 168.84 4.23915 2.61152 0
M  V30 1637 C 167.543 6.76639 2.44033 0
M  V30 1638 C 169.569 5.40689 2.39602 0
M  V30 1639 C 168.931 6.65443 2.3101 0
M  V30 1640 H 165.03 0.473667 0.622225 0
M  V30 1641 H 167.614 1.60568 1.10118 0
M  V30 1642 H 165.785 1.42138 3.61457 0
M  V30 1643 H 167.517 1.65634 3.69253 0
M  V30 1644 H 164.272 3.585 3.09475 0
M  V30 1645 H 164.696 6.184 2.75519 0
M  V30 1646 H 169.338 3.28189 2.66555 0
M  V30 1647 H 167.056 7.72451 2.3737 0
M  V30 1648 H 170.642 5.34932 2.28778 0
M  V30 1649 H 169.522 7.54277 2.14558 0
M  V30 1650 N 167.025 -1.13721 1.09112 0
M  V30 1651 C 168.441 -1.36914 0.820174 0
M  V30 1652 C 168.641 -1.93356 -0.567079 0
M  V30 1653 O 167.697 -2.15093 -1.32255 0
M  V30 1654 C 169.01 -2.3235 1.90877 0
M  V30 1655 C 170.558 -2.45973 1.93562 0
M  V30 1656 C 171.033 -3.44714 3.01556 0
M  V30 1657 N 172.524 -3.52263 3.00775 0
M  V30 1658 C 173.259 -4.28536 3.80978 0
M  V30 1659 N 172.755 -5.07991 4.71081 0
M  V30 1660 N 174.548 -4.23804 3.69251 0
M  V30 1661 H 166.699 -0.754348 1.98553 0
M  V30 1662 H 168.962 -0.3944 0.862063 0
M  V30 1663 H 168.668 -1.98027 2.90651 0
M  V30 1664 H 168.542 -3.32332 1.78424 0
M  V30 1665 H 170.929 -2.79584 0.944286 0
M  V30 1666 H 171.01 -1.45926 2.10093 0
M  V30 1667 H 170.654 -3.11835 4.00901 0
M  V30 1668 H 170.584 -4.44558 2.82269 0
M  V30 1669 H 173.075 -2.95567 2.35475 0
M  V30 1670 H 173.388 -5.63487 5.28869 0
M  V30 1671 H 171.733 -5.07235 4.75119 0
M  V30 1672 H 174.924 -3.60806 2.98222 0
M  V30 1673 H 175.097 -4.82995 4.31995 0
M  V30 1674 N 168.503 -0.877838 -1.30888 0
M  V30 1675 C 169.749 -0.493426 -1.96706 0
M  V30 1676 C 170.082 0.953504 -1.6918 0
M  V30 1677 O 169.357 1.67266 -0.992594 0
M  V30 1678 C 169.64 -0.760429 -3.51979 0
M  V30 1679 C 169.493 -2.25747 -3.89048 0
M  V30 1680 C 170.812 -0.232148 -4.39487 0
M  V30 1681 H 167.931 -0.180746 -0.714493 0
M  V30 1682 H 170.573 -1.10052 -1.54882 0
M  V30 1683 H 168.723 -0.243715 -3.87735 0
M  V30 1684 H 170.395 -2.84204 -3.63354 0
M  V30 1685 H 168.638 -2.72694 -3.37373 0
M  V30 1686 H 169.309 -2.39491 -4.97341 0
M  V30 1687 H 171.785 -0.674314 -4.106 0
M  V30 1688 H 170.661 -0.448355 -5.47066 0
M  V30 1689 H 170.922 0.866297 -4.33529 0
M  V30 1690 N 169.982 1.44106 -0.638065 0
M  V30 1691 C 170.945 2.29138 0.0531013 0
M  V30 1692 C 171.945 1.41409 0.765506 0
M  V30 1693 O 173.135 1.63206 0.609046 0
M  V30 1694 C 170.267 3.23144 1.08584 0
M  V30 1695 H 171.46 2.91739 -0.694883 0
M  V30 1696 H 169.013 1.51134 -0.398538 0
M  V30 1697 H 169.748 2.65408 1.86357 0
M  V30 1698 H 169.533 3.87804 0.578852 0
M  V30 1699 H 171.023 3.87004 1.56899 0
M  V30 1700 N 171.46 0.379036 1.52974 0
M  V30 1701 C 172.407 -0.461048 2.26148 0
M  V30 1702 C 173.377 -1.06637 1.27349 0
M  V30 1703 O 174.562 -1.09633 1.56157 0
M  V30 1704 C 171.702 -1.58782 3.06402 0
M  V30 1705 C 170.815 -1.00636 4.20115 0
M  V30 1706 C 169.95 -2.10334 4.87784 0
M  V30 1707 C 168.989 -1.49724 5.93506 0
M  V30 1708 N 168.126 -2.5331 6.54812 0
M  V30 1709 H 172.966 0.169429 2.97518 0
M  V30 1710 H 170.503 0.0953806 1.4679 0
M  V30 1711 H 172.461 -2.25174 3.51215 0
M  V30 1712 H 171.091 -2.18876 2.37261 0
M  V30 1713 H 170.143 -0.232332 3.7969 0
M  V30 1714 H 171.455 -0.523343 4.96047 0
M  V30 1715 H 170.609 -2.84519 5.35849 0
M  V30 1716 H 169.348 -2.61992 4.11353 0
M  V30 1717 H 168.353 -0.740598 5.44789 0
M  V30 1718 H 169.578 -0.988732 6.71864 0
M  V30 1719 H 167.524 -3.04156 5.81227 0
M  V30 1720 H 167.441 -2.09734 7.26325 0
M  V30 1721 H 168.709 -3.27155 7.07524 0
M  V30 1722 N 172.938 -1.57226 0.108567 0
M  V30 1723 C 173.871 -2.10447 -0.882464 0
M  V30 1724 C 174.849 -1.01829 -1.26766 0
M  V30 1725 O 176.033 -1.29415 -1.37054 0
M  V30 1726 C 173.16 -2.59258 -2.17952 0
M  V30 1727 C 172.206 -3.79662 -1.94318 0
M  V30 1728 S 173.039 -5.22586 -1.16892 0
M  V30 1729 C 174.195 -5.74758 -2.47799 0
M  V30 1730 H 174.428 -2.94178 -0.429745 0
M  V30 1731 H 171.961 -1.54043 -0.105 0
M  V30 1732 H 173.919 -2.88036 -2.92482 0
M  V30 1733 H 172.58 -1.75728 -2.60343 0
M  V30 1734 H 171.773 -4.11928 -2.90399 0
M  V30 1735 H 171.375 -3.51446 -1.27913 0
M  V30 1736 H 173.667 -5.83846 -3.43701 0
M  V30 1737 H 174.61 -6.73027 -2.20093 0
M  V30 1738 H 175.018 -5.02763 -2.56689 0
M  V30 1739 N 174.416 0.165178 -1.56732 0
M  V30 1740 C 175.662 0.882112 -1.82611 0
M  V30 1741 C 175.995 1.81628 -0.687378 0
M  V30 1742 O 175.27 1.92009 0.310267 0
M  V30 1743 C 175.553 1.67245 -3.18906 0
M  V30 1744 C 175.406 0.760987 -4.43316 0
M  V30 1745 C 176.725 2.63884 -3.52212 0
M  V30 1746 H 173.844 0.319242 -0.664269 0
M  V30 1747 H 176.486 0.148052 -1.89422 0
M  V30 1748 H 174.636 2.29824 -3.1323 0
M  V30 1749 H 176.308 0.147596 -4.61064 0
M  V30 1750 H 174.551 0.0694102 -4.33744 0
M  V30 1751 H 175.222 1.34962 -5.35247 0
M  V30 1752 H 177.698 2.11429 -3.58381 0
M  V30 1753 H 176.574 3.16245 -4.48643 0
M  V30 1754 H 176.835 3.44377 -2.77231 0
M  V30 1755 N 175.894 1.51508 0.433938 0
M  V30 1756 C 176.841 1.73068 1.52696 0
M  V30 1757 C 177.811 0.572441 1.55924 0
M  V30 1758 O 178.996 0.807253 1.72882 0
M  V30 1759 C 176.136 1.86474 2.90381 0
M  V30 1760 C 175.249 3.14037 2.96656 0
M  V30 1761 C 174.384 3.18019 4.25485 0
M  V30 1762 C 173.423 4.39882 4.2564 0
M  V30 1763 N 172.56 4.41394 5.45999 0
M  V30 1764 H 177.4 2.66366 1.33615 0
M  V30 1765 H 174.937 1.32008 0.649018 0
M  V30 1766 H 176.895 1.92229 3.70275 0
M  V30 1767 H 175.525 0.965809 3.08013 0
M  V30 1768 H 174.577 3.17575 2.09404 0
M  V30 1769 H 175.889 4.0394 2.92633 0
M  V30 1770 H 175.043 3.22708 5.13755 0
M  V30 1771 H 173.782 2.2601 4.3217 0
M  V30 1772 H 172.787 4.35366 3.35763 0
M  V30 1773 H 174.012 5.33159 4.20617 0
M  V30 1774 H 171.958 3.52258 5.53399 0
M  V30 1775 H 171.875 5.25111 5.4387 0
M  V30 1776 H 173.143 4.50281 6.36292 0
M  V30 1777 N 177.372 -0.689602 1.41712 0
M  V30 1778 C 178.597 -1.48329 1.44959 0
M  V30 1779 C 179.022 -1.8801 0.0581283 0
M  V30 1780 O 178.38 -1.55026 -0.940035 0
M  V30 1781 C 178.428 -2.71835 2.36935 0
M  V30 1782 O 177.532 -3.69549 1.8305 0
M  V30 1783 H 176.873 -0.446199 0.491734 0
M  V30 1784 H 179.403 -0.847127 1.86239 0
M  V30 1785 H 179.413 -3.20076 2.53013 0
M  V30 1786 H 178.088 -2.42291 3.38035 0
M  V30 1787 H 176.665 -3.2851 1.76452 0
M  V30 1788 N 178.85 -1.27639 -0.924453 0
M  V30 1789 C 180.08 -1.16819 -1.70402 0
M  V30 1790 C 180.488 0.277191 -1.87158 0
M  V30 1791 O 179.831 1.20025 -1.39067 0
M  V30 1792 C 179.893 -1.78305 -3.12166 0
M  V30 1793 C 179.557 -3.27502 -3.18734 0
M  V30 1794 C 180.554 -4.2409 -3.00738 0
M  V30 1795 C 178.239 -3.68269 -3.4159 0
M  V30 1796 C 180.233 -5.59422 -3.05492 0
M  V30 1797 C 177.92 -5.0373 -3.45977 0
M  V30 1798 C 178.918 -5.99116 -3.27946 0
M  V30 1799 O 178.606 -7.32108 -3.32074 0
M  V30 1800 H 178.338 -0.406931 -0.539799 0
M  V30 1801 H 180.892 -1.69078 -1.16626 0
M  V30 1802 H 179.122 -1.20528 -3.67437 0
M  V30 1803 H 180.811 -1.62154 -3.72103 0
M  V30 1804 H 181.577 -3.93931 -2.82919 0
M  V30 1805 H 177.456 -2.94496 -3.54673 0
M  V30 1806 H 181 -6.33852 -2.91337 0
M  V30 1807 H 176.897 -5.33543 -3.63321 0
M  V30 1808 H 177.665 -7.40598 -3.48507 0
M  V30 1809 N 180.328 1.1314 -1.09713 0
M  V30 1810 C 181.258 2.20748 -0.761102 0
M  V30 1811 C 182.239 1.68061 0.262566 0
M  V30 1812 O 183.424 1.93765 0.129977 0
M  V30 1813 C 180.554 3.46812 -0.184054 0
M  V30 1814 C 179.508 4.12606 -1.13757 0
M  V30 1815 C 178.834 5.33031 -0.422083 0
M  V30 1816 C 180.134 4.59603 -2.48118 0
M  V30 1817 H 181.828 2.49113 -1.66082 0
M  V30 1818 H 179.374 1.19734 -0.799987 0
M  V30 1819 H 181.327 4.21353 0.0631215 0
M  V30 1820 H 180.051 3.17851 0.750868 0
M  V30 1821 H 178.71 3.40036 -1.37007 0
M  V30 1822 H 178.358 5.00335 0.517072 0
M  V30 1823 H 178.058 5.77999 -1.05788 0
M  V30 1824 H 179.582 6.10325 -0.183277 0
M  V30 1825 H 180.996 5.25552 -2.29059 0
M  V30 1826 H 179.393 5.15321 -3.07514 0
M  V30 1827 H 180.463 3.73971 -3.08665 0
M  V30 1828 N 181.806 0.884767 1.30421 0
M  V30 1829 C 182.738 0.308655 2.27112 0
M  V30 1830 C 183.751 -0.536655 1.53701 0
M  V30 1831 O 184.94 -0.35624 1.74909 0
M  V30 1832 C 182.04 -0.579782 3.33904 0
M  V30 1833 C 181.213 0.236417 4.36761 0
M  V30 1834 C 180.272 -0.582482 5.22966 0
M  V30 1835 O 179.298 -0.00525502 5.692 0
M  V30 1836 N 180.5 -1.89163 5.48815 0
M  V30 1837 H 183.265 1.13964 2.77186 0
M  V30 1838 H 180.826 0.747731 1.43599 0
M  V30 1839 H 182.818 -1.13366 3.88497 0
M  V30 1840 H 181.388 -1.31144 2.83761 0
M  V30 1841 H 180.608 0.97174 3.82035 0
M  V30 1842 H 181.896 0.795924 5.02536 0
M  V30 1843 H 181.294 -2.38352 5.13035 0
M  V30 1844 H 179.851 -2.39296 6.06284 0
M  V30 1845 N 183.284 -1.43765 0.645699 0
M  V30 1846 C 184.216 -2.29027 -0.0890605 0
M  V30 1847 C 185.229 -1.42093 -0.794563 0
M  V30 1848 O 186.418 -1.66104 -0.653575 0
M  V30 1849 C 183.518 -3.18831 -1.14891 0
M  V30 1850 C 182.691 -4.34261 -0.523043 0
M  V30 1851 C 181.75 -5.04994 -1.47878 0
M  V30 1852 O 180.776 -5.6052 -0.990277 0
M  V30 1853 N 181.978 -5.07795 -2.81291 0
M  V30 1854 H 184.743 -2.92727 0.64272 0
M  V30 1855 H 182.304 -1.54373 0.487924 0
M  V30 1856 H 184.296 -3.63015 -1.78892 0
M  V30 1857 H 182.866 -2.56782 -1.78275 0
M  V30 1858 H 182.086 -3.93088 0.295896 0
M  V30 1859 H 183.374 -5.08728 -0.0858147 0
M  V30 1860 H 182.772 -4.64042 -3.23546 0
M  V30 1861 H 181.329 -5.55721 -3.40614 0
M  V30 1862 N 184.763 -0.387143 -1.52771 0
M  V30 1863 C 185.713 0.465942 -2.23188 0
M  V30 1864 C 186.697 1.03138 -1.23496 0
M  V30 1865 O 187.889 0.957845 -1.48843 0
M  V30 1866 C 185.018 1.59384 -3.04059 0
M  V30 1867 C 184.104 1.04024 -4.11144 0
M  V30 1868 N 184.495 0.211416 -5.05358 0
M  V30 1869 C 182.793 1.31295 -4.26237 0
M  V30 1870 C 183.494 -0.0941698 -5.81624 0
M  V30 1871 N 182.47 0.509207 -5.4121 0
M  V30 1872 H 186.272 -0.173856 -2.93385 0
M  V30 1873 H 183.786 -0.19633 -1.61209 0
M  V30 1874 H 185.783 2.21738 -3.53041 0
M  V30 1875 H 184.443 2.23648 -2.35397 0
M  V30 1876 H 185.454 -0.151151 -5.17679 0
M  V30 1877 H 182.131 1.95679 -3.68803 0
M  V30 1878 H 183.521 -0.765572 -6.67524 0
M  V30 1879 N 186.241 1.57166 -0.116904 0
M  V30 1880 C 187.189 2.16457 0.851418 0
M  V30 1881 C 188.183 1.11323 1.27686 0
M  V30 1882 O 189.389 1.2963 1.24884 0
M  V30 1883 H 185.764 0.69271 0.292672 0
M  V30 1884 H 187.735 2.96605 0.32685 0
M  V30 1885 C 186.484 2.77689 2.09246 0
M  V30 1886 H 185.807 3.58285 1.77402 0
M  V30 1887 H 187.247 3.22716 2.7501 0
M  V30 1888 C 185.706 1.74667 2.88085 0
M  V30 1889 O 186.236 1.19877 3.83396 0
M  V30 1890 N 184.442 1.44656 2.52038 0
M  V30 1891 H 183.989 1.89402 1.74599 0
M  V30 1892 H 183.947 0.759675 3.05084 0
M  V30 1893 N 187.719 -0.156864 1.56817 0
M  V30 1894 C 188.968 -0.869504 1.81996 0
M  V30 1895 C 189.281 -1.82777 0.696545 0
M  V30 1896 O 190.487 -2.58384 0.833658 0
M  V30 1897 C 188.943 -1.59679 3.22538 0
M  V30 1898 C 188.551 -0.681431 4.42787 0
M  V30 1899 C 190.295 -2.2968 3.56997 0
M  V30 1900 C 188.202 -1.40978 5.74351 0
M  V30 1901 H 187.132 -0.328438 0.678708 0
M  V30 1902 H 189.783 -0.1223 1.83092 0
M  V30 1903 H 188.165 -2.38927 3.158 0
M  V30 1904 H 189.339 0.0751166 4.60739 0
M  V30 1905 H 187.654 -0.0903431 4.16302 0
M  V30 1906 H 190.251 -2.84794 4.52544 0
M  V30 1907 H 190.594 -3.05707 2.82576 0
M  V30 1908 H 191.127 -1.57361 3.65352 0
M  V30 1909 H 187.866 -0.691561 6.51842 0
M  V30 1910 H 187.386 -2.13929 5.60352 0
M  V30 1911 H 189.065 -1.95337 6.16808 0
M  V30 1912 N 189.197 -1.51736 -0.425897 0
M  V30 1913 C 190.608 -1.5732 -1.00536 0
M  V30 1914 C 190.959 -0.403537 -1.92005 0
M  V30 1915 O 190.084 0.478256 -2.11049 0
M  V30 1916 C 190.679 -2.85119 -1.8301 0
M  V30 1917 C 189.238 -2.93236 -2.35987 0
M  V30 1918 C 188.385 -2.52098 -1.15508 0
M  V30 1919 H 191.336 -1.57348 -0.206739 0
M  V30 1920 H 191.357 -2.69526 -2.68581 0
M  V30 1921 H 190.869 -3.7023 -1.16411 0
M  V30 1922 H 188.97 -2.12581 -3.06007 0
M  V30 1923 H 189.083 -3.9713 -2.68001 0
M  V30 1924 H 187.447 -2.05558 -1.50393 0
M  V30 1925 H 188.23 -3.39565 -0.505014 0
M  V30 1926 N 190.675 0.682077 -1.42076 0
M  V30 1927 C 191.607 1.80755 -1.40926 0
M  V30 1928 C 192.62 1.59833 -0.309398 0
M  V30 1929 O 193.809 1.69087 -0.572014 0
M  V30 1930 C 190.909 3.17744 -1.17865 0
M  V30 1931 C 190.082 3.65578 -2.40149 0
M  V30 1932 C 189.141 4.81277 -2.12742 0
M  V30 1933 O 188.167 4.92197 -2.85887 0
M  V30 1934 N 189.369 5.69474 -1.12602 0
M  V30 1935 H 192.134 1.82229 -2.37935 0
M  V30 1936 H 189.695 0.864903 -1.36861 0
M  V30 1937 H 191.687 3.9279 -0.9746 0
M  V30 1938 H 190.257 3.11214 -0.294068 0
M  V30 1939 H 189.477 2.81291 -2.76169 0
M  V30 1940 H 190.765 3.94278 -3.21593 0
M  V30 1941 H 190.163 5.63297 -0.520899 0
M  V30 1942 H 188.72 6.44363 -0.981842 0
M  V30 1943 N 192.153 1.28127 0.917671 0
M  V30 1944 C 193.569 1.05749 1.19538 0
M  V30 1945 C 193.769 -0.202633 2.00479 0
M  V30 1946 O 192.825 -0.905382 2.3571 0
M  V30 1947 C 194.138 2.30273 1.93378 0
M  V30 1948 C 195.686 2.35412 2.06277 0
M  V30 1949 C 196.161 3.59692 2.83524 0
M  V30 1950 N 197.652 3.60309 2.91087 0
M  V30 1951 C 198.387 4.53147 3.51348 0
M  V30 1952 N 197.883 5.563 4.12919 0
M  V30 1953 N 199.676 4.40751 3.48849 0
M  V30 1954 H 191.827 2.09024 0.377184 0
M  V30 1955 H 194.09 0.919798 0.22951 0
M  V30 1956 H 193.796 3.22055 1.41328 0
M  V30 1957 H 193.67 2.36378 2.93947 0
M  V30 1958 H 196.057 1.4413 2.57508 0
M  V30 1959 H 196.138 2.33304 1.04895 0
M  V30 1960 H 195.782 4.51316 2.32973 0
M  V30 1961 H 195.712 3.59054 3.85211 0
M  V30 1962 H 198.203 2.85714 2.47338 0
M  V30 1963 H 198.516 6.2329 4.56869 0
M  V30 1964 H 196.861 5.60131 4.11435 0
M  V30 1965 H 200.052 3.59367 2.99955 0
M  V30 1966 H 200.225 5.13291 3.9552 0
M  V30 1967 N 193.631 -1.12557 1.10312 0
M  V30 1968 C 194.541 -2.21841 0.763142 0
M  V30 1969 C 195.557 -1.72354 -0.238801 0
M  V30 1970 O 196.733 -2.01249 -0.0778746 0
M  V30 1971 C 193.798 -3.46131 0.198632 0
M  V30 1972 C 192.859 -4.10464 1.25769 0
M  V30 1973 C 192.092 -5.28821 0.72002 0
M  V30 1974 O 192.315 -5.6859 -0.453993 0
M  V30 1975 O 191.249 -5.83437 1.47935 0
M  V30 1976 H 195.075 -2.53312 1.67532 0
M  V30 1977 H 192.66 -1.20867 0.878157 0
M  V30 1978 H 194.542 -4.2125 -0.112401 0
M  V30 1979 H 193.217 -3.16338 -0.686419 0
M  V30 1980 H 192.124 -3.3713 1.62156 0
M  V30 1981 H 193.457 -4.44408 2.11571 0
M  V30 1982 N 195.109 -0.891671 -1.2995 0
M  V30 1983 C 196.355 -0.514261 -1.96171 0
M  V30 1984 C 196.688 0.935506 -1.70182 0
M  V30 1985 O 195.963 1.66204 -1.01028 0
M  V30 1986 C 196.246 -0.797719 -3.51153 0
M  V30 1987 C 196.099 -2.2986 -3.86632 0
M  V30 1988 C 197.418 -0.278749 -4.39216 0
M  V30 1989 H 194.537 -0.188314 -0.712535 0
M  V30 1990 H 197.179 -1.11689 -1.53706 0
M  V30 1991 H 195.329 -0.284826 -3.87455 0
M  V30 1992 H 197.001 -2.88042 -3.60319 0
M  V30 1993 H 195.244 -2.76257 -3.34462 0
M  V30 1994 H 195.915 -2.44753 -4.94773 0
M  V30 1995 H 198.391 -0.717825 -4.09862 0
M  V30 1996 H 197.267 -0.506353 -5.46559 0
M  V30 1997 H 197.528 0.820266 -4.34424 0
M  V30 1998 N 196.587 1.43421 -0.653314 0
M  V30 1999 C 197.833 2.02111 -0.166992 0
M  V30 2000 C 198.166 1.51423 1.21592 0
M  V30 2001 O 197.441 0.707389 1.8118 0
M  V30 2002 C 197.724 3.5966 -0.177948 0
M  V30 2003 C 197.577 4.20579 -1.59478 0
M  V30 2004 C 198.896 4.37413 0.4856 0
M  V30 2005 H 196.015 0.734374 -0.0621557 0
M  V30 2006 H 198.657 1.70717 -0.834016 0
M  V30 2007 H 196.807 3.86537 0.390032 0
M  V30 2008 H 198.479 4.04732 -2.21336 0
M  V30 2009 H 196.722 3.77226 -2.14204 0
M  V30 2010 H 197.393 5.29665 -1.5543 0
M  V30 2011 H 199.869 4.161 0.00234528 0
M  V30 2012 H 198.745 5.47075 0.447207 0
M  V30 2013 H 199.006 4.13672 1.55974 0
M  V30 2014 N 198.065 0.39524 1.52563 0
M  V30 2015 C 199.342 -0.242908 1.94086 0
M  V30 2016 C 199.722 -1.63841 1.33114 0
M  V30 2017 O 199.07 -2.22928 0.501529 0
M  V30 2018 C 199.28 -0.26327 3.48006 0
M  V30 2019 C 200.628 -0.489354 4.21771 0
M  V30 2020 O 201.652 -0.343226 3.54543 0
M  V30 2021 O 200.511 -0.776169 5.4096 0
M  V30 2022 H 197.605 -0.152536 0.812811 0
M  V30 2023 H 200.151 0.450178 1.6362 0
M  V30 2024 H 198.923 0.713985 3.84731 0
M  V30 2025 H 198.546 -1.00103 3.84792 0
M  V30 2026 N 199.544 -1.57102 0.125237 0
M  V30 2027 C 200.772 -1.99761 -0.538797 0
M  V30 2028 C 201.187 -1.00503 -1.59827 0
M  V30 2029 O 200.544 0.00119474 -1.825 0
M  V30 2030 C 200.595 -3.42408 -1.15927 0
M  V30 2031 O 200.316 -4.37869 -0.142143 0
M  V30 2032 C 201.817 -4.00232 -1.90602 0
M  V30 2033 H 199.037 -0.655772 -0.14214 0
M  V30 2034 H 201.581 -2.03383 0.213413 0
M  V30 2035 H 199.736 -3.39706 -1.86223 0
M  V30 2036 H 200.15 -5.21128 -0.593775 0
M  V30 2037 H 201.624 -5.02105 -2.29335 0
M  V30 2038 H 202.101 -3.39721 -2.78363 0
M  V30 2039 H 202.707 -4.06499 -1.25055 0
M  V30 2040 N 201.022 0.148545 -1.56898 0
M  V30 2041 C 202.25 0.876389 -1.87422 0
M  V30 2042 C 202.665 1.74809 -0.713256 0
M  V30 2043 O 202.022 1.79725 0.317025 0
M  V30 2044 C 202.073 1.73438 -3.17178 0
M  V30 2045 O 201.794 0.897809 -4.28802 0
M  V30 2046 C 203.295 2.56993 -3.61205 0
M  V30 2047 H 200.515 0.253489 -0.621277 0
M  V30 2048 H 203.059 0.141798 -2.04008 0
M  V30 2049 H 201.214 2.42205 -3.0235 0
M  V30 2050 H 201.628 1.48672 -5.02988 0
M  V30 2051 H 203.102 3.12773 -4.54838 0
M  V30 2052 H 203.579 3.32958 -2.86419 0
M  V30 2053 H 204.185 1.9352 -3.78722 0
M  V30 2054 N 202.5 1.5196 0.417844 0
M  V30 2055 C 203.748 1.65263 1.16329 0
M  V30 2056 C 204.069 0.380634 1.91249 0
M  V30 2057 O 203.339 -0.604214 1.86349 0
M  V30 2058 H 201.919 0.60912 0.432414 0
M  V30 2059 H 204.581 1.88969 0.477162 0
M  V30 2060 H 203.677 2.4896 1.88217 0
M  V30 2061 N 203.978 -0.674533 1.42435 0
M  V30 2062 C 204.908 -1.80009 1.48724 0
M  V30 2063 C 205.889 -1.6659 0.343793 0
M  V30 2064 O 207.074 -1.86007 0.558137 0
M  V30 2065 C 204.204 -3.18306 1.38919 0
M  V30 2066 C 203.158 -3.46461 2.51294 0
M  V30 2067 C 202.484 -4.84335 2.26547 0
M  V30 2068 C 203.784 -3.43328 3.93603 0
M  V30 2069 H 205.478 -1.75004 2.42928 0
M  V30 2070 H 203.024 -0.840533 1.16923 0
M  V30 2071 H 204.977 -3.9678 1.41927 0
M  V30 2072 H 203.701 -3.2399 0.412094 0
M  V30 2073 H 202.36 -2.70348 2.47604 0
M  V30 2074 H 202.008 -4.86669 1.2713 0
M  V30 2075 H 201.708 -5.04136 3.01861 0
M  V30 2076 H 203.232 -5.65094 2.31304 0
M  V30 2077 H 204.646 -4.11772 3.98894 0
M  V30 2078 H 203.043 -3.74664 4.68771 0
M  V30 2079 H 204.113 -2.41897 4.20255 0
M  V30 2080 N 205.456 -1.28612 -0.910864 0
M  V30 2081 C 206.404 -1.1265 -2.03501 0
M  V30 2082 C 207.398 -0.0450054 -1.6934 0
M  V30 2083 O 208.604 -0.203988 -1.7884 0
M  V30 2084 H 204.979 -0.347639 -0.666822 0
M  V30 2085 H 206.95 -2.07849 -2.14106 0
M  V30 2086 C 205.699 -0.808143 -3.38178 0
M  V30 2087 H 205.022 -1.63231 -3.6496 0
M  V30 2088 H 206.462 -0.736426 -4.17556 0
M  V30 2089 C 204.921 0.488226 -3.33344 0
M  V30 2090 O 205.451 1.51766 -3.71927 0
M  V30 2091 N 203.657 0.490009 -2.86439 0
M  V30 2092 H 203.204 -0.348161 -2.55236 0
M  V30 2093 H 203.162 1.35741 -2.83587 0
M  V30 2094 N 206.934 1.1197 -1.10907 0
M  V30 2095 C 207.866 2.17592 -0.720175 0
M  V30 2096 C 208.879 1.60938 0.245495 0
M  V30 2097 O 210.068 1.78476 0.0292245 0
M  V30 2098 C 207.168 3.38873 -0.0427917 0
M  V30 2099 C 206.341 4.25006 -1.03388 0
M  V30 2100 C 205.4 5.24774 -0.387075 0
M  V30 2101 O 204.426 5.59631 -1.03934 0
M  V30 2102 N 205.628 5.74208 0.852407 0
M  V30 2103 H 208.393 2.51567 -1.62893 0
M  V30 2104 H 205.954 1.27439 -0.998543 0
M  V30 2105 H 207.946 4.02703 0.401501 0
M  V30 2106 H 206.516 3.03007 0.768456 0
M  V30 2107 H 205.736 3.57716 -1.65629 0
M  V30 2108 H 207.024 4.79397 -1.70458 0
M  V30 2109 H 206.422 5.48062 1.40161 0
M  V30 2110 H 204.979 6.39901 1.23977 0
M  V30 2111 N 208.412 0.89855 1.29475 0
M  V30 2112 C 209.637 0.538561 2.00285 0
M  V30 2113 C 210.062 -0.869135 1.66816 0
M  V30 2114 O 209.42 -1.57831 0.892145 0
M  V30 2115 C 209.468 0.736475 3.52999 0
M  V30 2116 O 208.572 -0.211537 4.11857 0
M  V30 2117 H 207.913 0.210563 0.62973 0
M  V30 2118 H 210.443 1.20982 1.64998 0
M  V30 2119 H 210.453 0.640685 4.02938 0
M  V30 2120 H 209.128 1.76276 3.76696 0
M  V30 2121 H 207.705 -0.0682991 3.72837 0
M  V30 2122 N 209.89 -1.43072 0.660911 0
M  V30 2123 C 210.84 -2.27948 -0.04847 0
M  V30 2124 C 211.824 -1.40325 -0.787246 0
M  V30 2125 O 213.016 -1.63893 -0.668446 0
M  V30 2126 C 210.145 -3.28143 -1.00881 0
M  V30 2127 C 209.231 -4.23252 -0.268108 0
M  V30 2128 N 209.622 -5.00656 0.719528 0
M  V30 2129 C 207.92 -4.43092 -0.508493 0
M  V30 2130 C 208.621 -5.70019 1.15988 0
M  V30 2131 N 207.597 -5.41364 0.492584 0
M  V30 2132 H 211.399 -2.85213 0.709279 0
M  V30 2133 H 208.913 -1.54869 0.488822 0
M  V30 2134 H 210.91 -3.87736 -1.53188 0
M  V30 2135 H 209.57 -2.7244 -1.76654 0
M  V30 2136 H 210.581 -5.06115 1.09855 0
M  V30 2137 H 207.258 -3.98449 -1.24679 0
M  V30 2138 H 208.648 -6.4214 1.97751 0
M  V30 2139 N 211.368 -0.403325 -1.52352 0
M  V30 2140 C 212.298 0.416205 -2.29761 0
M  V30 2141 C 213.279 1.05123 -1.33728 0
M  V30 2142 O 214.464 1.06134 -1.62632 0
M  V30 2143 C 211.594 1.53624 -3.11475 0
M  V30 2144 C 210.548 1.02653 -4.15507 0
M  V30 2145 C 209.874 2.23971 -4.85532 0
M  V30 2146 C 211.174 0.08463 -5.22231 0
M  V30 2147 H 212.868 -0.229701 -2.98518 0
M  V30 2148 H 210.414 -0.111913 -1.43564 0
M  V30 2149 H 212.367 2.1165 -3.64393 0
M  V30 2150 H 211.091 2.20994 -2.40477 0
M  V30 2151 H 209.75 0.46871 -3.63591 0
M  V30 2152 H 209.398 2.89883 -4.11068 0
M  V30 2153 H 209.098 1.90521 -5.55856 0
M  V30 2154 H 210.622 2.82614 -5.41259 0
M  V30 2155 H 212.036 0.573509 -5.70424 0
M  V30 2156 H 210.433 -0.160783 -5.99885 0
M  V30 2157 H 211.503 -0.86237 -4.7717 0
M  V30 2158 N 212.846 1.57033 -0.133567 0
M  V30 2159 C 214.071 2.00475 0.531477 0
M  V30 2160 C 214.496 1.01291 1.58499 0
M  V30 2161 O 213.854 -0.0133279 1.81295 0
M  V30 2162 C 213.902 3.42729 1.12113 0
M  V30 2163 O 213.006 3.46498 2.23636 0
M  V30 2164 H 212.347 0.650876 0.131362 0
M  V30 2165 H 214.877 2.03344 -0.22634 0
M  V30 2166 H 214.887 3.81246 1.4531 0
M  V30 2167 H 213.562 4.14428 0.349557 0
M  V30 2168 H 212.139 3.19811 1.91769 0
M  V30 2169 N 214.325 -0.140222 1.56975 0
M  V30 2170 C 215.257 -1.19818 1.95388 0
M  V30 2171 C 216.27 -1.38816 0.850525 0
M  V30 2172 O 217.459 -1.38267 1.12891 0
M  V30 2173 C 214.559 -2.56189 2.21857 0
M  V30 2174 C 213.732 -2.58077 3.5315 0
M  V30 2175 C 212.791 -3.76037 3.6808 0
M  V30 2176 O 211.817 -3.60598 4.40406 0
M  V30 2177 N 213.019 -4.93763 3.05251 0
M  V30 2178 H 215.784 -0.871609 2.86746 0
M  V30 2179 H 213.345 -0.32972 1.58507 0
M  V30 2180 H 215.337 -3.33623 2.2908 0
M  V30 2181 H 213.907 -2.81111 1.36731 0
M  V30 2182 H 213.127 -1.6651 3.57307 0
M  V30 2183 H 214.415 -2.56377 4.39486 0
M  V30 2184 H 213.813 -5.09209 2.46419 0
M  V30 2185 H 212.37 -5.68949 3.18026 0
M  V30 2186 N 215.803 -1.52179 -0.40978 0
M  V30 2187 C 216.753 -1.71857 -1.49831 0
M  V30 2188 C 217.737 -0.572469 -1.50372 0
M  V30 2189 O 218.929 -0.829509 -1.56359 0
M  V30 2190 C 216.058 -1.87206 -2.87765 0
M  V30 2191 C 215.144 -3.07685 -2.91875 0
M  V30 2192 N 215.535 -4.30403 -2.65683 0
M  V30 2193 C 213.833 -3.07505 -3.23043 0
M  V30 2194 C 214.534 -5.11868 -2.76344 0
M  V30 2195 N 213.51 -4.47101 -3.09195 0
M  V30 2196 H 217.312 -2.64381 -1.28375 0
M  V30 2197 H 214.826 -1.50203 -0.617479 0
M  V30 2198 H 216.823 -1.99419 -3.66111 0
M  V30 2199 H 215.483 -0.958814 -3.10221 0
M  V30 2200 H 216.494 -4.58887 -2.4009 0
M  V30 2201 H 213.171 -2.25915 -3.51096 0
M  V30 2202 H 214.561 -6.19634 -2.59814 0
M  V30 2203 N 217.281 0.66697 -1.42791 0
M  V30 2204 C 218.211 1.79218 -1.49677 0
M  V30 2205 C 219.192 1.66405 -0.352623 0
M  V30 2206 O 220.377 1.85708 -0.567993 0
M  V30 2207 C 217.507 3.17565 -1.40605 0
M  V30 2208 C 216.461 3.45124 -2.53127 0
M  V30 2209 C 215.787 4.83127 -2.29112 0
M  V30 2210 C 217.087 3.41236 -3.95418 0
M  V30 2211 H 218.781 1.73713 -2.43853 0
M  V30 2212 H 216.327 0.83432 -1.17367 0
M  V30 2213 H 218.28 3.96022 -1.44029 0
M  V30 2214 H 217.004 3.23767 -0.429271 0
M  V30 2215 H 215.663 2.69031 -2.49034 0
M  V30 2216 H 215.311 4.85988 -1.29709 0
M  V30 2217 H 215.011 5.02528 -3.04531 0
M  V30 2218 H 216.535 5.63859 -2.34297 0
M  V30 2219 H 217.949 4.09651 -4.01073 0
M  V30 2220 H 216.346 3.72173 -4.70752 0
M  V30 2221 H 217.416 2.39665 -4.21532 0
M  V30 2222 N 218.759 1.29093 0.90403 0
M  V30 2223 C 219.707 1.13727 2.02901 0
M  V30 2224 C 220.701 0.0539853 1.69314 0
M  V30 2225 O 221.907 0.213469 1.7873 0
M  V30 2226 H 218.282 0.35117 0.664969 0
M  V30 2227 H 220.253 2.08982 2.13001 0
M  V30 2228 C 219.002 0.826066 3.37745 0
M  V30 2229 H 218.325 1.65164 3.64089 0
M  V30 2230 H 219.765 0.758559 4.17159 0
M  V30 2231 C 218.224 -0.470541 3.33598 0
M  V30 2232 O 218.754 -1.49792 3.72727 0
M  V30 2233 N 216.96 -0.474812 2.86695 0
M  V30 2234 H 216.507 0.361692 2.55048 0
M  V30 2235 H 216.465 -1.34236 2.84303 0
M  V30 2236 N 220.237 -1.11381 1.11499 0
M  V30 2237 C 221.184 -2.17439 0.773887 0
M  V30 2238 C 222.154 -1.64132 -0.254899 0
M  V30 2239 O 223.339 -1.90345 -0.13168 0
M  V30 2240 C 220.479 -3.44373 0.223917 0
M  V30 2241 C 219.592 -4.1168 1.30934 0
M  V30 2242 C 218.727 -5.263 0.71984 0
M  V30 2243 C 217.766 -5.85493 1.78507 0
M  V30 2244 N 216.903 -6.91507 1.21502 0
M  V30 2245 H 221.743 -2.45962 1.68246 0
M  V30 2246 H 219.28 -1.20744 0.840191 0
M  V30 2247 H 221.238 -4.17047 -0.112921 0
M  V30 2248 H 219.868 -3.16232 -0.647851 0
M  V30 2249 H 218.92 -3.37073 1.76312 0
M  V30 2250 H 220.232 -4.51729 2.11524 0
M  V30 2251 H 219.386 -6.05785 0.333094 0
M  V30 2252 H 218.125 -4.87559 -0.117377 0
M  V30 2253 H 217.13 -5.04686 2.18111 0
M  V30 2254 H 218.355 -6.26301 2.62533 0
M  V30 2255 H 216.301 -6.54783 0.399455 0
M  V30 2256 H 216.218 -7.30214 1.95763 0
M  V30 2257 H 217.486 -7.74795 0.855181 0
M  V30 2258 N 221.715 -0.905404 -1.28997 0
M  V30 2259 C 222.963 -0.533192 -1.9494 0
M  V30 2260 C 223.284 0.924618 -1.71685 0
M  V30 2261 O 222.554 1.65268 -1.05183 0
M  V30 2262 H 221.134 -0.194194 -0.721317 0
M  V30 2263 H 223.796 -1.15294 -1.57141 0
M  V30 2264 H 222.892 -0.72059 -3.03667 0
M  V30 2265 N 223.193 1.4272 -0.668489 0
M  V30 2266 C 224.421 2.05966 -0.196348 0
M  V30 2267 C 224.836 1.50191 1.14403 0
M  V30 2268 O 224.193 0.639208 1.7094 0
M  V30 2269 C 224.244 3.61314 -0.115815 0
M  V30 2270 O 223.965 4.1502 -1.40322 0
M  V30 2271 C 225.466 4.41663 0.380579 0
M  V30 2272 H 222.686 0.663954 -0.0969829 0
M  V30 2273 H 225.23 1.82966 -0.913446 0
M  V30 2274 H 223.385 3.83448 0.551931 0
M  V30 2275 H 223.799 5.08832 -1.27243 0
M  V30 2276 H 225.273 5.5065 0.385848 0
M  V30 2277 H 225.75 4.15792 1.41471 0
M  V30 2278 H 226.356 4.24534 -0.255209 0
M  V30 2279 N 224.671 0.411399 1.52136 0
M  V30 2280 C 226.082 -0.0576826 1.86611 0
M  V30 2281 C 226.433 -1.44238 1.33003 0
M  V30 2282 O 225.558 -2.05759 0.670228 0
M  V30 2283 C 226.153 -0.111448 3.38617 0
M  V30 2284 C 224.712 -0.52487 3.72723 0
M  V30 2285 C 223.859 0.299176 2.75681 0
M  V30 2286 H 226.81 0.628368 1.4573 0
M  V30 2287 H 226.831 -0.926252 3.69054 0
M  V30 2288 H 226.343 0.896488 3.77604 0
M  V30 2289 H 224.444 -1.53936 3.39315 0
M  V30 2290 H 224.557 -0.267681 4.78352 0
M  V30 2291 H 222.921 -0.238814 2.53578 0
M  V30 2292 H 223.704 1.3055 3.17508 0
M  V30 2293 N 226.149 -1.5696 0.141893 0
M  V30 2294 C 227.082 -2.12271 -0.837627 0
M  V30 2295 C 228.06 -1.04495 -1.24578 0
M  V30 2296 O 229.244 -1.32293 -1.34278 0
M  V30 2297 C 226.371 -2.63822 -2.12404 0
M  V30 2298 C 225.417 -3.83698 -1.86221 0
M  V30 2299 S 226.25 -5.24948 -1.05781 0
M  V30 2300 C 227.406 -5.79884 -2.35552 0
M  V30 2301 H 227.639 -2.95023 -0.367249 0
M  V30 2302 H 225.172 -1.54231 -0.0723014 0
M  V30 2303 H 227.13 -2.94175 -2.86307 0
M  V30 2304 H 225.791 -1.8121 -2.56557 0
M  V30 2305 H 224.984 -4.17995 -2.81596 0
M  V30 2306 H 224.586 -3.5408 -1.20429 0
M  V30 2307 H 226.878 -5.91005 -3.31239 0
M  V30 2308 H 227.821 -6.77544 -2.05767 0
M  V30 2309 H 228.229 -5.08095 -2.45967 0
M  V30 2310 N 227.627 0.131896 -1.57047 0
M  V30 2311 C 228.574 1.16236 -1.99393 0
M  V30 2312 C 229.544 1.41863 -0.863943 0
M  V30 2313 O 230.729 1.53946 -1.12718 0
M  V30 2314 C 227.869 2.48708 -2.39245 0
M  V30 2315 C 226.982 2.30127 -3.65603 0
M  V30 2316 C 226.117 3.55738 -3.94492 0
M  V30 2317 C 225.156 3.32259 -5.14073 0
M  V30 2318 N 224.293 4.50039 -5.38896 0
M  V30 2319 H 229.133 0.794251 -2.87221 0
M  V30 2320 H 226.67 0.380707 -1.42088 0
M  V30 2321 H 228.628 3.25969 -2.60384 0
M  V30 2322 H 227.258 2.83437 -1.54478 0
M  V30 2323 H 226.31 1.43845 -3.52154 0
M  V30 2324 H 227.622 2.08746 -4.5302 0
M  V30 2325 H 226.776 4.41423 -4.1621 0
M  V30 2326 H 225.515 3.80138 -3.05526 0
M  V30 2327 H 224.52 2.44963 -4.92212 0
M  V30 2328 H 225.745 3.09242 -6.04604 0
M  V30 2329 H 223.691 4.74584 -4.52886 0
M  V30 2330 H 223.608 4.31716 -6.2061 0
M  V30 2331 H 224.876 5.36895 -5.65123 0
M  V30 2332 N 229.106 1.52395 0.401703 0
M  V30 2333 C 230.334 1.70676 1.16949 0
M  V30 2334 C 230.749 0.419503 1.8408 0
M  V30 2335 O 230.106 -0.605061 1.72178 0
M  V30 2336 C 230.157 2.84753 2.22706 0
M  V30 2337 O 229.878 4.08495 1.58314 0
M  V30 2338 C 231.379 3.14608 3.12309 0
M  V30 2339 H 228.599 0.571787 0.351142 0
M  V30 2340 H 231.143 1.98987 0.471652 0
M  V30 2341 H 229.298 2.58941 2.88147 0
M  V30 2342 H 229.712 4.72117 2.28485 0
M  V30 2343 H 231.186 3.97923 3.82572 0
M  V30 2344 H 231.663 2.28464 3.75101 0
M  V30 2345 H 232.269 3.42212 2.52529 0
M  V30 2346 N 230.584 -0.659388 1.43143 0
M  V30 2347 C 231.516 -1.7849 1.43784 0
M  V30 2348 C 232.529 -1.5932 0.334787 0
M  V30 2349 O 233.718 -1.68155 0.598842 0
M  V30 2350 C 230.818 -3.15828 1.22906 0
M  V30 2351 C 229.991 -3.61711 2.45934 0
M  V30 2352 C 229.05 -4.77831 2.20371 0
M  V30 2353 O 228.076 -4.87586 2.93681 0
M  V30 2354 N 229.278 -5.67611 1.21647 0
M  V30 2355 H 232.043 -1.7842 2.40803 0
M  V30 2356 H 229.604 -0.84302 1.3822 0
M  V30 2357 H 231.596 -3.91189 1.03697 0
M  V30 2358 H 230.166 -3.10707 0.343542 0
M  V30 2359 H 229.386 -2.76861 2.80609 0
M  V30 2360 H 230.674 -3.89112 3.27825 0
M  V30 2361 H 230.072 -5.62397 0.610449 0
M  V30 2362 H 228.629 -6.42719 1.08423 0
M  V30 2363 N 232.062 -1.29571 -0.897171 0
M  V30 2364 C 233.009 -1.14916 -2.00158 0
M  V30 2365 C 233.979 -0.0418149 -1.66047 0
M  V30 2366 O 235.164 -0.209793 -1.89643 0
M  V30 2367 C 232.304 -0.834307 -3.34863 0
M  V30 2368 C 231.417 -2.02234 -3.8174 0
M  V30 2369 C 230.552 -1.64664 -5.05034 0
M  V30 2370 C 229.591 -2.80033 -5.44286 0
M  V30 2371 N 228.728 -2.42843 -6.58765 0
M  V30 2372 H 233.568 -2.09403 -2.12025 0
M  V30 2373 H 231.105 -1.042 -1.0383 0
M  V30 2374 H 233.063 -0.632436 -4.12379 0
M  V30 2375 H 231.693 0.0736656 -3.22716 0
M  V30 2376 H 230.745 -2.33583 -3.00238 0
M  V30 2377 H 232.057 -2.88673 -4.06779 0
M  V30 2378 H 231.211 -1.4078 -5.9014 0
M  V30 2379 H 229.95 -0.753766 -4.8184 0
M  V30 2380 H 228.955 -3.04596 -4.57713 0
M  V30 2381 H 230.18 -3.69989 -5.6946 0
M  V30 2382 H 228.126 -1.56046 -6.3717 0
M  V30 2383 H 228.043 -3.22815 -6.83613 0
M  V30 2384 H 229.311 -2.22285 -7.47134 0
M  V30 2385 N 233.54 1.10788 -1.12088 0
M  V30 2386 C 234.956 1.34691 -0.856186 0
M  V30 2387 C 235.156 1.94791 0.515615 0
M  V30 2388 O 234.212 2.18524 1.26505 0
M  V30 2389 C 235.525 2.27208 -1.9697 0
M  V30 2390 C 237.073 2.40755 -2.00016 0
M  V30 2391 C 237.548 3.36598 -3.1059 0
M  V30 2392 N 239.039 3.44164 -3.10008 0
M  V30 2393 C 239.774 4.18284 -3.92206 0
M  V30 2394 N 239.27 4.95322 -4.84384 0
M  V30 2395 N 241.063 4.13865 -3.80357 0
M  V30 2396 H 233.214 0.70144 -2.00483 0
M  V30 2397 H 235.477 0.371405 -0.872217 0
M  V30 2398 H 235.183 1.90251 -2.958 0
M  V30 2399 H 235.057 3.27485 -1.87172 0
M  V30 2400 H 237.444 2.76982 -1.01808 0
M  V30 2401 H 237.525 1.40305 -2.13888 0
M  V30 2402 H 237.169 3.01096 -4.09028 0
M  V30 2403 H 237.099 4.36918 -2.93956 0
M  V30 2404 H 239.59 2.8922 -2.43228 0
M  V30 2405 H 239.903 5.49267 -5.43623 0
M  V30 2406 H 238.248 4.94459 -4.884 0
M  V30 2407 H 241.439 3.52773 -3.07683 0
M  V30 2408 H 241.612 4.71372 -4.44649 0
M  V30 2409 N 235.018 0.912232 1.28515 0
M  V30 2410 C 235.981 0.404223 2.25607 0
M  V30 2411 C 236.981 -0.468602 1.53821 0
M  V30 2412 O 238.171 -0.271873 1.72065 0
M  V30 2413 C 235.303 -0.420653 3.38295 0
M  V30 2414 H 236.496 1.26188 2.7206 0
M  V30 2415 H 234.049 0.691495 1.40171 0
M  V30 2416 H 234.784 -1.29777 2.97201 0
M  V30 2417 H 234.569 0.204935 3.91564 0
M  V30 2418 H 236.059 -0.766971 4.10496 0
M  V30 2419 N 236.496 -1.42363 0.676048 0
M  V30 2420 C 237.459 -2.29199 0.00766941 0
M  V30 2421 C 238.459 -1.43389 -0.727745 0
M  V30 2422 O 239.649 -1.64764 -0.56556 0
M  V30 2423 C 236.781 -3.2591 -0.999785 0
M  V30 2424 H 237.974 -2.89794 0.771988 0
M  V30 2425 H 235.527 -1.50024 0.438468 0
M  V30 2426 H 236.262 -2.70256 -1.79255 0
M  V30 2427 H 236.047 -3.89202 -0.475829 0
M  V30 2428 H 237.537 -3.91028 -1.46583 0
M  V30 2429 N 237.974 -0.419461 -1.51915 0
M  V30 2430 C 238.904 0.391813 -2.30189 0
M  V30 2431 C 239.885 1.03699 -1.34836 0
M  V30 2432 O 241.07 1.04403 -1.63748 0
M  V30 2433 C 238.2 1.50312 -3.13087 0
M  V30 2434 C 237.154 0.9824 -4.16573 0
M  V30 2435 C 236.48 2.18809 -4.8788 0
M  V30 2436 C 237.78 0.0292356 -5.22292 0
M  V30 2437 H 239.474 -0.26135 -2.98257 0
M  V30 2438 H 237.02 -0.127134 -1.43438 0
M  V30 2439 H 238.973 2.07773 -3.66617 0
M  V30 2440 H 237.697 2.18431 -2.42807 0
M  V30 2441 H 236.356 0.430119 -3.64068 0
M  V30 2442 H 236.004 2.85507 -4.14119 0
M  V30 2443 H 235.704 1.84615 -5.57845 0
M  V30 2444 H 237.228 2.76858 -5.44226 0
M  V30 2445 H 238.642 0.512976 -5.71 0
M  V30 2446 H 237.039 -0.2244 -5.9968 0
M  V30 2447 H 238.109 -0.912931 -4.76228 0
M  V30 2448 N 239.452 1.56882 -0.150215 0
M  V30 2449 C 240.682 2.00302 0.506213 0
M  V30 2450 C 241.09 1.02934 1.58749 0
M  V30 2451 O 240.433 0.0188384 1.8369 0
M  V30 2452 C 240.495 3.40156 1.16337 0
M  V30 2453 C 240.159 4.56439 0.226311 0
M  V30 2454 C 241.156 5.17012 -0.547265 0
M  V30 2455 C 238.841 5.02136 0.128279 0
M  V30 2456 C 240.835 6.21693 -1.40629 0
M  V30 2457 C 238.522 6.06672 -0.734345 0
M  V30 2458 C 239.52 6.6632 -1.50023 0
M  V30 2459 O 239.208 7.68831 -2.34848 0
M  V30 2460 H 238.94 0.662182 0.135984 0
M  V30 2461 H 241.494 2.03961 -0.242746 0
M  V30 2462 H 239.724 3.33346 1.96004 0
M  V30 2463 H 241.413 3.67663 1.71985 0
M  V30 2464 H 242.179 4.82603 -0.48158 0
M  V30 2465 H 238.058 4.55435 0.714157 0
M  V30 2466 H 241.602 6.68179 -2.00455 0
M  V30 2467 H 237.499 6.40507 -0.801309 0
M  V30 2468 H 238.267 7.86065 -2.28131 0
M  V30 2469 N 240.93 -0.123565 1.57115 0
M  V30 2470 C 242.158 -0.846461 1.88793 0
M  V30 2471 C 242.573 -1.73652 0.740976 0
M  V30 2472 O 241.93 -1.80207 -0.288393 0
M  V30 2473 C 241.981 -1.6837 3.19897 0
M  V30 2474 O 241.702 -0.829477 4.30176 0
M  V30 2475 C 243.203 -2.51214 3.65248 0
M  V30 2476 H 240.423 -0.243573 0.625231 0
M  V30 2477 H 242.967 -0.109324 2.04208 0
M  V30 2478 H 241.122 -2.37364 3.06165 0
M  V30 2479 H 241.536 -1.40651 5.0529 0
M  V30 2480 H 243.01 -3.05497 4.59756 0
M  V30 2481 H 243.487 -3.28359 2.9168 0
M  V30 2482 H 244.093 -1.8747 3.81752 0
M  V30 2483 N 242.408 -1.52605 -0.393616 0
M  V30 2484 C 243.654 -1.68624 -1.13743 0
M  V30 2485 C 244.009 -0.418687 -1.87789 0
M  V30 2486 O 243.302 0.58747 -1.82371 0
M  V30 2487 C 243.496 -2.85721 -2.14705 0
M  V30 2488 C 243.325 -4.23742 -1.50575 0
M  V30 2489 C 242.095 -4.89033 -1.2718 0
M  V30 2490 C 244.293 -5.05293 -0.958311 0
M  V30 2491 N 242.275 -6.11048 -0.591058 0
M  V30 2492 C 243.646 -6.18673 -0.405367 0
M  V30 2493 C 245.701 -4.90517 -0.854274 0
M  V30 2494 C 244.404 -7.18895 0.241434 0
M  V30 2495 C 246.43 -5.90986 -0.221301 0
M  V30 2496 C 245.792 -7.03669 0.320894 0
M  V30 2497 H 241.891 -0.670556 -0.402342 0
M  V30 2498 H 244.475 -1.89946 -0.427607 0
M  V30 2499 H 242.646 -2.65987 -2.83029 0
M  V30 2500 H 244.378 -2.90699 -2.8156 0
M  V30 2501 H 241.133 -4.47672 -1.54554 0
M  V30 2502 H 241.557 -6.76474 -0.266862 0
M  V30 2503 H 246.199 -4.03612 -1.25926 0
M  V30 2504 H 243.917 -8.05413 0.658448 0
M  V30 2505 H 247.503 -5.81626 -0.142111 0
M  V30 2506 H 246.383 -7.80078 0.802956 0
M  V30 2507 N 243.887 0.651787 -1.4349 0
M  V30 2508 C 245.117 1.43728 -1.48411 0
M  V30 2509 C 245.525 1.8893 -0.10103 0
M  V30 2510 O 244.868 1.60182 0.899307 0
M  V30 2511 C 244.93 2.70411 -2.36893 0
M  V30 2512 C 244.594 2.4714 -3.8441 0
M  V30 2513 C 245.591 2.10271 -4.75481 0
M  V30 2514 C 243.276 2.6142 -4.28912 0
M  V30 2515 C 245.27 1.87982 -6.0905 0
M  V30 2516 C 242.957 2.38746 -5.62533 0
M  V30 2517 C 243.955 2.02083 -6.5242 0
M  V30 2518 O 243.643 1.79647 -7.8357 0
M  V30 2519 H 243.375 0.447962 -0.506267 0
M  V30 2520 H 245.929 0.80624 -1.88915 0
M  V30 2521 H 244.159 3.36079 -1.91278 0
M  V30 2522 H 245.848 3.32364 -2.33 0
M  V30 2523 H 246.614 1.98814 -4.42378 0
M  V30 2524 H 242.493 2.88931 -3.59222 0
M  V30 2525 H 246.037 1.5929 -6.7917 0
M  V30 2526 H 241.934 2.49806 -5.95203 0
M  V30 2527 H 242.702 1.9406 -7.95162 0
M  V30 2528 N 245.365 1.30045 0.890287 0
M  V30 2529 C 246.611 1.18737 1.64406 0
M  V30 2530 C 246.944 -0.258525 1.92472 0
M  V30 2531 O 246.219 -1.18562 1.54186 0
M  V30 2532 C 246.502 2.01087 2.98724 0
M  V30 2533 C 246.355 3.53867 2.77665 0
M  V30 2534 C 247.674 1.84457 3.9958 0
M  V30 2535 H 244.793 0.432698 0.596608 0
M  V30 2536 H 247.435 1.5962 1.0306 0
M  V30 2537 H 245.585 1.66349 3.51084 0
M  V30 2538 H 247.257 3.98637 2.32133 0
M  V30 2539 H 245.5 3.78318 2.12269 0
M  V30 2540 H 246.171 4.06772 3.7315 0
M  V30 2541 H 248.647 2.14817 3.56361 0
M  V30 2542 H 247.523 2.44411 4.91482 0
M  V30 2543 H 247.784 0.802276 4.3476 0
M  V30 2544 N 246.843 -1.10192 1.12674 0
M  V30 2545 C 248.259 -1.34235 0.863317 0
M  V30 2546 C 248.459 -1.95062 -0.505277 0
M  V30 2547 O 247.515 -2.19192 -1.25345 0
M  V30 2548 C 248.828 -2.2616 1.98172 0
M  V30 2549 C 250.376 -2.3969 2.0129 0
M  V30 2550 C 250.851 -3.34946 3.1237 0
M  V30 2551 N 252.342 -3.42515 3.11829 0
M  V30 2552 C 253.077 -4.16199 3.94419 0
M  V30 2553 N 252.573 -4.92747 4.87004 0
M  V30 2554 N 254.366 -4.11843 3.82547 0
M  V30 2555 H 246.517 -0.690798 2.00853 0
M  V30 2556 H 248.78 -0.366774 0.874174 0
M  V30 2557 H 248.486 -1.8868 2.96804 0
M  V30 2558 H 248.36 -3.26488 1.88906 0
M  V30 2559 H 250.747 -2.76438 1.03276 0
M  V30 2560 H 250.828 -1.39169 2.14629 0
M  V30 2561 H 250.472 -2.98923 4.10619 0
M  V30 2562 H 250.402 -4.35353 2.96269 0
M  V30 2563 H 252.893 -2.87926 2.44759 0
M  V30 2564 H 253.206 -5.46376 5.46528 0
M  V30 2565 H 251.551 -4.91862 4.91016 0
M  V30 2566 H 254.742 -3.51136 3.0955 0
M  V30 2567 H 254.915 -4.69007 4.47142 0
M  V30 2568 N 248.321 -0.919034 -1.28029 0
M  V30 2569 C 249.268 -0.410005 -2.27129 0
M  V30 2570 C 250.238 0.518405 -1.57803 0
M  V30 2571 O 251.423 0.439451 -1.8567 0
M  V30 2572 C 248.563 0.339054 -3.4343 0
M  V30 2573 C 247.676 -0.622468 -4.27492 0
M  V30 2574 C 246.811 0.145567 -5.31001 0
M  V30 2575 C 245.85 -0.809226 -6.06727 0
M  V30 2576 N 244.987 -0.0743728 -7.02061 0
M  V30 2577 H 249.827 -1.26011 -2.70047 0
M  V30 2578 H 247.364 -0.632663 -1.328 0
M  V30 2579 H 249.322 0.789586 -4.0966 0
M  V30 2580 H 247.952 1.15346 -3.01488 0
M  V30 2581 H 247.004 -1.19153 -3.61257 0
M  V30 2582 H 248.316 -1.35252 -4.80113 0
M  V30 2583 H 247.47 0.656417 -6.03139 0
M  V30 2584 H 246.209 0.908643 -4.79161 0
M  V30 2585 H 245.214 -1.3314 -5.33436 0
M  V30 2586 H 246.439 -1.57194 -6.60656 0
M  V30 2587 H 244.385 0.670616 -6.52563 0
M  V30 2588 H 244.302 -0.744157 -7.52329 0
M  V30 2589 H 245.57 0.416109 -7.78389 0
M  V30 2590 N 249.799 1.42003 -0.683588 0
M  V30 2591 C 250.731 2.29183 0.0283068 0
M  V30 2592 C 251.744 1.4415 0.756611 0
M  V30 2593 O 252.933 1.67779 0.609306 0
M  V30 2594 C 250.033 3.21765 1.06398 0
M  V30 2595 C 249.206 4.35496 0.407723 0
M  V30 2596 C 248.265 5.08737 1.34437 0
M  V30 2597 O 247.291 5.62948 0.841318 0
M  V30 2598 N 248.493 5.15075 2.67728 0
M  V30 2599 H 251.258 2.9092 -0.720105 0
M  V30 2600 H 248.819 1.53025 -0.528682 0
M  V30 2601 H 250.811 3.6763 1.69204 0
M  V30 2602 H 249.381 2.61418 1.71404 0
M  V30 2603 H 248.601 3.92165 -0.400012 0
M  V30 2604 H 249.889 5.08776 -0.0490956 0
M  V30 2605 H 249.287 4.72457 3.11129 0
M  V30 2606 H 247.844 5.64556 3.2576 0
M  V30 2607 N 251.277 0.427512 1.51691 0
M  V30 2608 C 252.693 0.0792977 1.59403 0
M  V30 2609 C 252.893 -1.41035 1.43914 0
M  V30 2610 O 251.949 -2.17922 1.27539 0
M  V30 2611 C 253.262 0.590636 2.94842 0
M  V30 2612 C 254.81 0.550215 3.08126 0
M  V30 2613 C 255.285 1.03836 4.46074 0
M  V30 2614 N 256.776 0.995943 4.52366 0
M  V30 2615 C 257.511 1.34463 5.57411 0
M  V30 2616 N 257.007 1.76569 6.69922 0
M  V30 2617 N 258.8 1.26343 5.47717 0
M  V30 2618 H 250.951 1.39687 1.60004 0
M  V30 2619 H 253.214 0.575003 0.753708 0
M  V30 2620 H 252.92 1.63251 3.11516 0
M  V30 2621 H 252.794 0.0102061 3.77199 0
M  V30 2622 H 255.181 -0.482654 2.91126 0
M  V30 2623 H 255.262 1.16693 2.27632 0
M  V30 2624 H 254.906 2.06965 4.63819 0
M  V30 2625 H 254.836 0.398286 5.25092 0
M  V30 2626 H 257.327 0.68661 3.7161 0
M  V30 2627 H 257.64 2.01438 7.46085 0
M  V30 2628 H 255.985 1.80488 6.71155 0
M  V30 2629 H 259.176 0.933209 4.58703 0
M  V30 2630 H 259.349 1.53846 6.29472 0
M  V30 2631 N 252.755 -1.56801 0.158532 0
M  V30 2632 C 253.665 -2.20916 -0.789518 0
M  V30 2633 C 254.681 -1.1969 -1.26294 0
M  V30 2634 O 255.857 -1.52308 -1.31773 0
M  V30 2635 C 252.922 -2.82727 -2.00665 0
M  V30 2636 C 251.983 -3.99114 -1.58134 0
M  V30 2637 C 251.216 -4.57968 -2.74045 0
M  V30 2638 O 251.439 -4.15704 -3.90572 0
M  V30 2639 O 250.373 -5.48047 -2.48855 0
M  V30 2640 H 254.199 -3.02464 -0.273681 0
M  V30 2641 H 251.784 -1.4924 -0.0690548 0
M  V30 2642 H 253.666 -3.21968 -2.71872 0
M  V30 2643 H 252.341 -2.04184 -2.51179 0
M  V30 2644 H 251.248 -3.64567 -0.839155 0
M  V30 2645 H 252.581 -4.79212 -1.12325 0
M  V30 2646 N 254.233 0.115231 -1.57178 0
M  V30 2647 C 255.479 0.82357 -1.85325 0
M  V30 2648 C 255.812 1.79349 -0.744814 0
M  V30 2649 O 255.087 1.92899 0.249024 0
M  V30 2650 C 255.37 1.57014 -3.24066 0
M  V30 2651 C 255.223 0.619565 -4.45513 0
M  V30 2652 C 256.542 2.52545 -3.60429 0
M  V30 2653 H 253.661 0.297948 -0.674089 0
M  V30 2654 H 256.303 0.0877138 -1.89797 0
M  V30 2655 H 254.453 2.19742 -3.20383 0
M  V30 2656 H 256.125 0.000837639 -4.613 0
M  V30 2657 H 254.368 -0.0686174 -4.33746 0
M  V30 2658 H 255.039 1.17866 -5.3927 0
M  V30 2659 H 257.515 1.9992 -3.64926 0
M  V30 2660 H 256.391 3.01811 -4.58477 0
M  V30 2661 H 256.652 3.35383 -2.88047 0
M  V30 2662 N 255.711 1.52812 0.385517 0
M  V30 2663 C 256.674 1.77188 1.45386 0
M  V30 2664 C 257.674 0.641953 1.4743 0
M  V30 2665 O 258.864 0.910033 1.4854 0
M  V30 2666 C 255.996 1.87582 2.8465 0
M  V30 2667 H 257.189 2.72583 1.25054 0
M  V30 2668 H 254.742 1.43586 0.617467 0
M  V30 2669 H 255.477 0.941849 3.10322 0
M  V30 2670 H 255.262 2.69748 2.84567 0
M  V30 2671 H 256.752 2.08102 3.62054 0
M  V30 2672 N 257.189 -0.644168 1.43834 0
M  V30 2673 C 258.121 -1.76955 1.45669 0
M  V30 2674 C 259.134 -1.58956 0.351666 0
M  V30 2675 O 260.323 -1.6751 0.616644 0
M  V30 2676 C 257.423 -3.14507 1.26248 0
M  V30 2677 C 256.596 -3.59083 2.49757 0
M  V30 2678 C 255.655 -4.75467 2.25427 0
M  V30 2679 O 254.681 -4.84444 2.98836 0
M  V30 2680 N 255.883 -5.66289 1.27661 0
M  V30 2681 H 258.648 -1.75856 2.42682 0
M  V30 2682 H 256.209 -0.828312 1.39106 0
M  V30 2683 H 258.201 -3.90067 1.0784 0
M  V30 2684 H 256.771 -3.10325 0.376478 0
M  V30 2685 H 255.991 -2.7387 2.8353 0
M  V30 2686 H 257.279 -3.85613 3.31934 0
M  V30 2687 H 256.677 -5.61718 0.670064 0
M  V30 2688 H 255.234 -6.41533 1.15234 0
M  V30 2689 N 258.668 -1.30515 -0.883378 0
M  V30 2690 C 259.6 -1.12846 -1.99496 0
M  V30 2691 C 260.613 -0.0712571 -1.62644 0
M  V30 2692 O 261.802 -0.317432 -1.75655 0
M  V30 2693 C 258.902 -0.699123 -3.3161 0
M  V30 2694 C 258.075 -1.83842 -3.96889 0
M  V30 2695 C 257.134 -1.39737 -5.07307 0
M  V30 2696 O 256.16 -2.10485 -5.28852 0
M  V30 2697 N 257.362 -0.277279 -5.79837 0
M  V30 2698 H 260.127 -2.08585 -2.15203 0
M  V30 2699 H 257.688 -1.22672 -1.05656 0
M  V30 2700 H 259.68 -0.387044 -4.02845 0
M  V30 2701 H 258.25 0.166276 -3.12157 0
M  V30 2702 H 257.47 -2.31853 -3.18807 0
M  V30 2703 H 258.758 -2.60187 -4.37241 0
M  V30 2704 H 258.156 0.3122 -5.64838 0
M  V30 2705 H 256.713 -0.0246623 -6.51795 0
M  V30 2706 N 260.146 1.09593 -1.13257 0
M  V30 2707 C 261.393 1.81734 -0.893257 0
M  V30 2708 C 261.721 1.8563 0.580656 0
M  V30 2709 O 260.976 1.31906 1.44566 0
M  V30 2710 C 261.275 3.27802 -1.42411 0
M  V30 2711 C 260.941 3.44041 -2.91456 0
M  V30 2712 C 259.603 3.48181 -3.3215 0
M  V30 2713 C 261.955 3.48719 -3.87356 0
M  V30 2714 C 259.283 3.54575 -4.67433 0
M  V30 2715 C 261.635 3.56648 -5.2248 0
M  V30 2716 C 260.299 3.59055 -5.62704 0
M  V30 2717 H 259.569 0.665011 -0.326866 0
M  V30 2718 H 262.216 1.2912 -1.41422 0
M  V30 2719 H 260.521 3.83042 -0.823795 0
M  V30 2720 H 262.218 3.82149 -1.21503 0
M  V30 2721 H 258.808 3.41502 -2.58987 0
M  V30 2722 H 262.992 3.44763 -3.57004 0
M  V30 2723 H 258.248 3.54725 -4.97976 0
M  V30 2724 H 262.422 3.59212 -5.96607 0
M  V30 2725 H 260.049 3.63763 -6.67518 0
M  V30 2726 N 261.624 0.925811 1.2754 0
M  V30 2727 C 262.852 0.581509 1.9856 0
M  V30 2728 C 263.267 -0.840041 1.69082 0
M  V30 2729 O 262.624 -1.55805 0.950312 0
M  V30 2730 C 262.675 0.795589 3.52637 0
M  V30 2731 O 262.396 2.16121 3.81082 0
M  V30 2732 C 263.897 0.459744 4.4091 0
M  V30 2733 H 261.117 0.220538 0.633722 0
M  V30 2734 H 263.661 1.24232 1.6244 0
M  V30 2735 H 261.816 0.18161 3.86974 0
M  V30 2736 H 262.23 2.2098 4.75676 0
M  V30 2737 H 263.704 0.660244 5.48037 0
M  V30 2738 H 264.181 -0.604625 4.35018 0
M  V30 2739 H 264.787 1.05178 4.12089 0
M  V30 2740 N 263.102 -1.41638 0.69111 0
M  V30 2741 C 264.052 -2.28 -0.000107832 0
M  V30 2742 C 265.036 -1.41964 -0.757304 0
M  V30 2743 O 266.228 -1.65274 -0.633532 0
M  V30 2744 C 263.357 -3.30209 -0.938983 0
M  V30 2745 C 262.443 -4.23725 -0.17827 0
M  V30 2746 N 262.834 -4.99017 0.825563 0
M  V30 2747 C 261.132 -4.44071 -0.414392 0
M  V30 2748 C 261.833 -5.67431 1.28052 0
M  V30 2749 N 260.809 -5.40197 0.607304 0
M  V30 2750 H 264.611 -2.83644 0.769617 0
M  V30 2751 H 262.125 -1.53797 0.521562 0
M  V30 2752 H 264.122 -3.90898 -1.44929 0
M  V30 2753 H 262.782 -2.76126 -1.70836 0
M  V30 2754 H 263.793 -5.03671 1.20566 0
M  V30 2755 H 260.47 -4.01004 -1.162 0
M  V30 2756 H 261.86 -6.37801 2.11327 0
M  V30 2757 N 264.58 -0.43555 -1.51462 0
M  V30 2758 C 265.543 0.365137 -2.26273 0
M  V30 2759 C 266.543 0.951227 -1.29647 0
M  V30 2760 O 267.733 0.825958 -1.53374 0
M  V30 2761 C 264.865 1.51645 -3.05314 0
M  V30 2762 H 266.058 -0.290474 -2.9849 0
M  V30 2763 H 263.611 -0.188676 -1.55157 0
M  V30 2764 H 264.346 2.20816 -2.3751 0
M  V30 2765 H 264.131 1.10238 -3.76284 0
M  V30 2766 H 265.621 2.08218 -3.61987 0
M  V30 2767 N 266.058 1.56714 -0.166846 0
M  V30 2768 C 267.306 1.96358 0.478305 0
M  V30 2769 C 267.627 1.0537 1.6408 0
M  V30 2770 O 266.897 0.119154 1.95537 0
M  V30 2771 H 265.477 0.725065 0.179692 0
M  V30 2772 H 268.139 1.93329 -0.246985 0
M  V30 2773 H 267.235 3.00547 0.841292 0
M  V30 2774 N 267.536 -0.106894 1.57237 0
M  V30 2775 C 268.468 -1.15646 1.97885 0
M  V30 2776 C 269.481 -1.36981 0.879779 0
M  V30 2777 O 270.67 -1.35841 1.15799 0
M  V30 2778 C 267.77 -2.51425 2.27241 0
M  V30 2779 C 266.943 -2.50529 3.58545 0
M  V30 2780 C 266.002 -3.68145 3.75973 0
M  V30 2781 O 265.028 -3.51176 4.47956 0
M  V30 2782 N 266.23 -4.87177 3.15656 0
M  V30 2783 H 268.995 -0.81059 2.8853 0
M  V30 2784 H 266.556 -0.296024 1.59171 0
M  V30 2785 H 268.548 -3.28689 2.36105 0
M  V30 2786 H 267.118 -2.78147 1.42663 0
M  V30 2787 H 266.338 -1.58894 3.60758 0
M  V30 2788 H 267.626 -2.46997 4.44826 0
M  V30 2789 H 267.024 -5.03868 2.57165 0
M  V30 2790 H 265.581 -5.62075 3.30023 0
M  V30 2791 N 269.014 -1.53014 -0.377408 0
M  V30 2792 C 270.262 -1.6829 -1.11906 0
M  V30 2793 C 270.583 -0.431206 -1.90173 0
M  V30 2794 O 269.853 0.554595 -1.87886 0
M  V30 2795 H 268.433 -0.620371 -0.416112 0
M  V30 2796 H 271.095 -1.90167 -0.426893 0
M  V30 2797 H 270.191 -2.53862 -1.8155 0
M  V30 2798 N 270.492 0.636531 -1.44174 0
M  V30 2799 C 271.74 1.39343 -1.46383 0
M  V30 2800 C 272.061 1.94766 -0.0955715 0
M  V30 2801 O 271.331 1.75452 0.871395 0
M  V30 2802 H 269.911 0.517199 -0.538994 0
M  V30 2803 H 272.573 0.74957 -1.7991 0
M  V30 2804 H 271.669 2.22746 -2.18611 0
M  V30 2805 N 271.97 1.30982 0.876444 0
M  V30 2806 C 272.9 1.20668 1.99903 0
M  V30 2807 C 273.881 0.095354 1.69833 0
M  V30 2808 O 275.066 0.27885 1.92188 0
M  V30 2809 C 272.196 0.90655 3.3526 0
M  V30 2810 C 271.15 1.97675 3.79617 0
M  V30 2811 C 270.476 1.52943 5.1236 0
M  V30 2812 C 271.776 3.389 3.97422 0
M  V30 2813 H 273.47 2.14586 2.0879 0
M  V30 2814 H 271.016 1.03308 1.00317 0
M  V30 2815 H 272.969 0.821025 4.13324 0
M  V30 2816 H 271.693 -0.0682969 3.26529 0
M  V30 2817 H 270.352 2.05205 3.03787 0
M  V30 2818 H 270 0.54262 5.00065 0
M  V30 2819 H 269.7 2.24532 5.43009 0
M  V30 2820 H 271.224 1.45786 5.92941 0
M  V30 2821 H 272.638 3.34081 4.659 0
M  V30 2822 H 271.035 4.0865 4.3946 0
M  V30 2823 H 272.105 3.80163 3.01006 0
M  V30 2824 N 273.449 -1.08991 1.13837 0
M  V30 2825 C 274.698 -1.80631 0.897509 0
M  V30 2826 C 275.011 -1.86872 -0.57777 0
M  V30 2827 O 276.217 -2.54866 -0.935701 0
M  V30 2828 C 274.673 -3.24517 1.55618 0
M  V30 2829 C 274.281 -3.26529 3.0673 0
M  V30 2830 C 276.025 -4.00882 1.3962 0
M  V30 2831 C 273.932 -4.64965 3.65461 0
M  V30 2832 H 272.862 -0.67691 0.332129 0
M  V30 2833 H 275.513 -1.2246 1.3666 0
M  V30 2834 H 273.895 -3.82778 1.01476 0
M  V30 2835 H 275.069 -2.78008 3.67489 0
M  V30 2836 H 273.384 -2.63656 3.22296 0
M  V30 2837 H 275.981 -5.03167 1.80906 0
M  V30 2838 H 276.324 -4.14896 0.341578 0
M  V30 2839 H 276.857 -3.49075 1.90766 0
M  V30 2840 H 273.596 -4.56153 4.70749 0
M  V30 2841 H 273.116 -5.13792 3.09481 0
M  V30 2842 H 274.795 -5.3394 3.654 0
M  V30 2843 N 274.927 -0.932562 -1.27047 0
M  V30 2844 C 275.837 -0.441219 -2.30414 0
M  V30 2845 C 276.853 0.480525 -1.67233 0
M  V30 2846 O 278.029 0.362151 -1.98117 0
M  V30 2847 C 275.094 0.293651 -3.45454 0
M  V30 2848 C 274.155 -0.663601 -4.2414 0
M  V30 2849 C 273.388 0.0362932 -5.33688 0
M  V30 2850 O 273.611 1.2548 -5.56427 0
M  V30 2851 O 272.545 -0.638015 -5.98509 0
M  V30 2852 H 276.371 -1.29962 -2.74488 0
M  V30 2853 H 273.956 -0.6981 -1.32087 0
M  V30 2854 H 275.838 0.707951 -4.15411 0
M  V30 2855 H 274.513 1.12758 -3.03426 0
M  V30 2856 H 273.42 -1.12768 -3.56699 0
M  V30 2857 H 274.753 -1.46489 -4.69896 0
M  V30 2858 N 276.405 1.4127 -0.698611 0
M  V30 2859 C 277.315 2.34573 -0.0357891 0
M  V30 2860 C 278.331 1.56393 0.762701 0
M  V30 2861 O 279.507 1.8886 0.699564 0
M  V30 2862 C 276.572 3.35159 0.887089 0
M  V30 2863 C 275.633 4.29225 0.0804634 0
M  V30 2864 C 274.866 5.25006 0.959387 0
M  V30 2865 O 275.089 5.26314 2.19886 0
M  V30 2866 O 274.023 6.00519 0.407439 0
M  V30 2867 H 277.849 2.92838 -0.804957 0
M  V30 2868 H 275.434 1.42175 -0.458966 0
M  V30 2869 H 277.316 3.9689 1.41621 0
M  V30 2870 H 275.991 2.79333 1.6357 0
M  V30 2871 H 274.898 3.70833 -0.493328 0
M  V30 2872 H 276.231 4.88157 -0.629547 0
M  V30 2873 N 277.883 0.443576 1.51229 0
M  V30 2874 C 279.294 -0.0180867 1.86691 0
M  V30 2875 C 279.645 -1.41384 1.36033 0
M  V30 2876 O 278.77 -2.04291 0.713722 0
M  V30 2877 C 279.365 -0.039597 3.38777 0
M  V30 2878 C 277.924 -0.445692 3.73752 0
M  V30 2879 C 277.071 0.357584 2.74985 0
M  V30 2880 H 280.022 0.659138 1.44364 0
M  V30 2881 H 280.043 -0.847761 3.70936 0
M  V30 2882 H 279.555 0.976382 3.75617 0
M  V30 2883 H 277.656 -1.46704 3.42503 0
M  V30 2884 H 277.769 -0.166155 4.78812 0
M  V30 2885 H 276.133 -0.184973 2.54027 0
M  V30 2886 H 276.916 1.37256 3.14668 0
M  V30 2887 N 279.361 -1.56624 0.175154 0
M  V30 2888 C 280.589 -2.01374 -0.474971 0
M  V30 2889 C 281.004 -1.05537 -1.56548 0
M  V30 2890 O 280.361 -0.0568668 -1.82411 0
M  V30 2891 C 280.412 -3.45923 -1.04975 0
M  V30 2892 O 280.133 -4.381 -0.00276605 0
M  V30 2893 C 281.634 -4.06093 -1.77773 0
M  V30 2894 H 278.854 -0.659962 -0.121206 0
M  V30 2895 H 281.398 -2.02601 0.27801 0
M  V30 2896 H 279.553 -3.45458 -1.75321 0
M  V30 2897 H 279.967 -5.22753 -0.427681 0
M  V30 2898 H 281.441 -5.09147 -2.13245 0
M  V30 2899 H 281.918 -3.48405 -2.67414 0
M  V30 2900 H 282.524 -4.10272 -1.12059 0
M  V30 2901 N 280.839 0.0985539 -1.57292 0
M  V30 2902 C 282.087 0.801092 -1.85545 0
M  V30 2903 C 282.408 1.79438 -0.763353 0
M  V30 2904 O 281.678 1.94763 0.21073 0
M  V30 2905 H 280.258 0.29884 -0.684619 0
M  V30 2906 H 282.92 0.0810064 -1.94732 0
M  V30 2907 H 282.016 1.3338 -2.82163 0
M  V30 2908 N 282.317 1.53212 0.369288 0
M  V30 2909 C 283.594 1.59815 1.12776 0
M  V30 2910 C 283.974 0.403402 2.0721 0
M  V30 2911 O 283.322 -0.606667 2.20299 0
M  V30 2912 C 283.532 2.94664 1.87013 0
M  V30 2913 C 284.88 3.49109 2.41677 0
M  V30 2914 O 285.904 2.96669 1.97144 0
M  V30 2915 O 284.763 4.40775 3.23079 0
M  V30 2916 H 281.857 0.645376 0.517125 0
M  V30 2917 H 284.403 1.65553 0.37285 0
M  V30 2918 H 283.175 3.73061 1.18071 0
M  V30 2919 H 282.798 2.92401 2.69421 0
M  V30 2920 N 283.795 -0.628877 1.44509 0
M  V30 2921 C 284.705 -1.7694 1.54044 0
M  V30 2922 C 285.721 -1.68705 0.425987 0
M  V30 2923 O 286.897 -1.89442 0.683656 0
M  V30 2924 C 283.962 -3.13332 1.48405 0
M  V30 2925 C 283.023 -3.33181 2.70719 0
M  V30 2926 C 282.256 -4.63067 2.6534 0
M  V30 2927 O 282.479 -5.44017 1.71469 0
M  V30 2928 O 281.413 -4.85167 3.56226 0
M  V30 2929 H 285.239 -1.71848 2.50403 0
M  V30 2930 H 282.824 -0.790378 1.26781 0
M  V30 2931 H 284.706 -3.94634 1.47791 0
M  V30 2932 H 283.381 -3.1896 0.551898 0
M  V30 2933 H 282.288 -2.51549 2.769 0
M  V30 2934 H 283.621 -3.32416 3.62988 0
M  V30 2935 N 285.273 -1.31445 -0.869486 0
M  V30 2936 C 286.203 -1.21727 -1.99261 0
M  V30 2937 C 287.184 -0.104359 -1.6978 0
M  V30 2938 O 288.369 -0.289038 -1.92037 0
M  V30 2939 C 285.499 -0.924317 -3.34774 0
M  V30 2940 C 284.453 -1.99685 -3.78563 0
M  V30 2941 C 283.779 -1.55658 -5.11541 0
M  V30 2942 C 285.079 -3.41003 -3.95619 0
M  V30 2943 H 286.773 -2.1569 -2.07649 0
M  V30 2944 H 284.319 -1.03839 -0.997675 0
M  V30 2945 H 286.272 -0.842934 -4.12883 0
M  V30 2946 H 284.996 0.0509793 -3.2656 0
M  V30 2947 H 283.655 -2.06813 -3.02694 0
M  V30 2948 H 283.303 -0.569132 -4.9977 0
M  V30 2949 H 283.003 -2.27409 -5.41811 0
M  V30 2950 H 284.527 -1.48928 -5.92159 0
M  V30 2951 H 285.941 -3.36547 -4.64122 0
M  V30 2952 H 284.338 -4.10975 -4.37286 0
M  V30 2953 H 285.408 -3.81754 -2.98985 0
M  V30 2954 N 286.751 1.08385 -1.14413 0
M  V30 2955 C 288.162 1.62258 -0.923535 0
M  V30 2956 C 288.513 1.88691 0.537595 0
M  V30 2957 O 287.638 1.64454 1.40655 0
M  V30 2958 C 288.233 2.94781 -1.67002 0
M  V30 2959 C 286.792 3.45437 -1.495 0
M  V30 2960 C 285.939 2.19668 -1.69238 0
M  V30 2961 H 288.89 0.916086 -1.2959 0
M  V30 2962 H 288.911 3.63229 -1.13334 0
M  V30 2963 H 288.423 2.7551 -2.73342 0
M  V30 2964 H 286.524 3.6981 -0.455097 0
M  V30 2965 H 286.637 4.22173 -2.2651 0
M  V30 2966 H 285.001 2.28849 -1.11804 0
M  V30 2967 H 285.784 2.02905 -2.7692 0
M  V30 2968 N 288.23 0.939286 1.26551 0
M  V30 2969 C 289.458 0.602536 1.97932 0
M  V30 2970 C 289.873 -0.82206 1.69964 0
M  V30 2971 O 289.23 -1.54789 0.966784 0
M  V30 2972 C 289.281 0.832946 3.51773 0
M  V30 2973 O 289.002 2.20151 3.78768 0
M  V30 2974 C 290.503 0.506483 4.40397 0
M  V30 2975 H 287.723 0.227248 0.631347 0
M  V30 2976 H 290.267 1.25948 1.61113 0
M  V30 2977 H 288.422 0.222644 3.8676 0
M  V30 2978 H 288.836 2.26013 4.73306 0
M  V30 2979 H 290.31 0.718333 5.47306 0
M  V30 2980 H 290.787 -0.558451 4.35635 0
M  V30 2981 H 291.393 1.09543 4.10951 0
M  V30 2982 N 289.708 -1.40897 0.706093 0
M  V30 2983 C 290.655 -2.30751 0.0474474 0
M  V30 2984 C 291.625 -1.47678 -0.76029 0
M  V30 2985 O 292.81 -1.76441 -0.726177 0
M  V30 2986 C 289.95 -3.33815 -0.875309 0
M  V30 2987 C 289.063 -4.31961 -0.0580623 0
M  V30 2988 C 288.198 -5.22093 -0.979425 0
M  V30 2989 C 287.237 -6.11902 -0.155706 0
M  V30 2990 N 286.374 -6.94482 -1.03144 0
M  V30 2991 H 291.214 -2.86513 0.819413 0
M  V30 2992 H 288.751 -1.41102 0.415783 0
M  V30 2993 H 290.709 -3.92129 -1.42446 0
M  V30 2994 H 289.339 -2.79579 -1.61356 0
M  V30 2995 H 288.391 -3.75507 0.608147 0
M  V30 2996 H 289.703 -4.95415 0.580082 0
M  V30 2997 H 288.857 -5.85292 -1.59744 0
M  V30 2998 H 287.596 -4.5889 -1.65141 0
M  V30 2999 H 286.601 -5.47742 0.475309 0
M  V30 3000 H 287.826 -6.77162 0.512635 0
M  V30 3001 H 285.772 -6.33877 -1.68924 0
M  V30 3002 H 285.689 -7.54665 -0.449108 0
M  V30 3003 H 286.957 -7.6214 -1.63593 0
M  V30 3004 N 291.186 -0.45159 -1.50991 0
M  V30 3005 C 292.133 0.352625 -2.2809 0
M  V30 3006 C 293.103 1.0044 -1.32291 0
M  V30 3007 O 294.288 1.02058 -1.6121 0
M  V30 3008 C 291.428 1.43983 -3.13629 0
M  V30 3009 C 290.541 0.804772 -4.24438 0
M  V30 3010 C 289.676 1.86822 -4.97263 0
M  V30 3011 C 288.715 1.21236 -5.99973 0
M  V30 3012 N 287.852 2.2178 -6.66152 0
M  V30 3013 H 292.692 -0.311186 -2.96371 0
M  V30 3014 H 290.229 -0.165308 -1.46168 0
M  V30 3015 H 292.187 2.08161 -3.61559 0
M  V30 3016 H 290.817 2.07307 -2.47434 0
M  V30 3017 H 289.869 0.0509129 -3.80366 0
M  V30 3018 H 291.181 0.286076 -4.97979 0
M  V30 3019 H 290.335 2.58628 -5.48813 0
M  V30 3020 H 289.074 2.42068 -4.23385 0
M  V30 3021 H 288.079 0.479828 -5.47702 0
M  V30 3022 H 289.304 0.667051 -6.75816 0
M  V30 3023 H 287.25 2.76079 -5.95077 0
M  V30 3024 H 287.167 1.74841 -7.35504 0
M  V30 3025 H 288.435 2.93026 -7.22327 0
M  V30 3026 N 292.664 1.56529 -0.183458 0
M  V30 3027 C 293.912 1.96855 0.457452 0
M  V30 3028 C 294.233 1.07104 1.62953 0
M  V30 3029 O 293.503 0.139887 1.954 0
M  V30 3030 H 292.083 0.72693 0.171992 0
M  V30 3031 H 294.745 1.93056 -0.267476 0
M  V30 3032 H 293.841 3.01423 0.809368 0
M  V30 3033 N 294.142 -0.090211 1.57342 0
M  V30 3034 C 295.558 -0.444547 1.53284 0
M  V30 3035 C 295.758 -1.80238 0.900914 0
M  V30 3036 O 294.814 -2.4759 0.495513 0
M  V30 3037 C 296.127 -0.402543 2.97993 0
M  V30 3038 C 297.675 -0.48405 3.09234 0
M  V30 3039 C 298.15 -0.472144 4.5556 0
M  V30 3040 N 299.641 -0.532757 4.60126 0
M  V30 3041 C 300.376 -0.545462 5.708 0
M  V30 3042 N 299.872 -0.514082 6.9089 0
M  V30 3043 N 301.665 -0.59064 5.58988 0
M  V30 3044 H 293.816 0.799121 1.96794 0
M  V30 3045 H 296.079 0.297965 0.899956 0
M  V30 3046 H 295.785 0.528106 3.47712 0
M  V30 3047 H 295.659 -1.21969 3.56936 0
M  V30 3048 H 298.046 -1.40512 2.595 0
M  V30 3049 H 298.127 0.361328 2.53235 0
M  V30 3050 H 297.771 0.445 5.05947 0
M  V30 3051 H 297.701 -1.3348 5.09402 0
M  V30 3052 H 300.192 -0.562006 3.73698 0
M  V30 3053 H 300.505 -0.527195 7.71 0
M  V30 3054 H 298.85 -0.481054 6.93333 0
M  V30 3055 H 302.041 -0.61272 4.64073 0
M  V30 3056 H 302.214 -0.597073 6.45243 0
M  V30 3057 N 295.62 -1.53406 -0.361157 0
M  V30 3058 C 297.036 -1.43277 -0.703124 0
M  V30 3059 C 297.236 -0.575384 -1.9311 0
M  V30 3060 O 296.292 -0.0595362 -2.5243 0
M  V30 3061 C 297.605 -2.8653 -0.9122 0
M  V30 3062 C 299.153 -2.96191 -1.01193 0
M  V30 3063 C 299.628 -4.40514 -1.25345 0
M  V30 3064 N 301.119 -4.43962 -1.32105 0
M  V30 3065 C 301.854 -5.52746 -1.5251 0
M  V30 3066 N 301.35 -6.71567 -1.70203 0
M  V30 3067 N 303.143 -5.40331 -1.54916 0
M  V30 3068 H 295.294 -2.07654 0.446475 0
M  V30 3069 H 297.557 -0.937944 0.137715 0
M  V30 3070 H 297.263 -3.51605 -0.0816414 0
M  V30 3071 H 297.137 -3.30441 -1.81903 0
M  V30 3072 H 299.524 -2.31266 -1.83303 0
M  V30 3073 H 299.605 -2.55667 -0.0823929 0
M  V30 3074 H 299.249 -5.06014 -0.437346 0
M  V30 3075 H 299.179 -4.78614 -2.19627 0
M  V30 3076 H 301.67 -3.58332 -1.20028 0
M  V30 3077 H 301.983 -7.50241 -1.85359 0
M  V30 3078 H 300.328 -6.74545 -1.67373 0
M  V30 3079 H 303.519 -4.46465 -1.40663 0
M  V30 3080 H 303.692 -6.25173 -1.70477 0
M  V30 3081 N 297.098 0.621204 -1.44841 0
M  V30 3082 C 298.046 1.75385 -1.52784 0
M  V30 3083 C 299.04 1.64639 -0.398779 0
M  V30 3084 O 300.246 1.70598 -0.574137 0
M  V30 3085 H 296.621 0.579193 -0.479625 0
M  V30 3086 H 298.592 1.6581 -2.48092 0
M  V30 3087 C 297.341 3.13742 -1.4987 0
M  V30 3088 H 296.664 3.22663 -2.36069 0
M  V30 3089 H 298.104 3.92861 -1.59487 0
M  V30 3090 C 296.563 3.36175 -0.220973 0
M  V30 3091 O 297.093 3.95469 0.704782 0
M  V30 3092 N 295.299 2.90348 -0.120963 0
M  V30 3093 H 294.846 2.42278 -0.875162 0
M  V30 3094 H 294.804 3.05732 0.733168 0
M  V30 3095 N 298.576 1.31904 0.862503 0
M  V30 3096 C 299.992 1.10724 1.14945 0
M  V30 3097 C 300.192 -0.117421 2.01158 0
M  V30 3098 O 299.248 -0.804595 2.39338 0
M  V30 3099 C 300.561 2.38267 1.83437 0
M  V30 3100 C 302.109 2.43949 1.96106 0
M  V30 3101 C 302.584 3.71394 2.68013 0
M  V30 3102 N 304.075 3.72331 2.75543 0
M  V30 3103 C 304.81 4.67641 3.31812 0
M  V30 3104 N 304.306 5.73313 3.88953 0
M  V30 3105 N 306.099 4.5515 3.29841 0
M  V30 3106 H 298.25 2.10436 0.288191 0
M  V30 3107 H 300.513 0.928705 0.190292 0
M  V30 3108 H 300.219 3.27759 1.27542 0
M  V30 3109 H 300.093 2.48633 2.83657 0
M  V30 3110 H 302.48 1.54922 2.51164 0
M  V30 3111 H 302.561 2.37543 0.949059 0
M  V30 3112 H 302.205 4.60791 2.13621 0
M  V30 3113 H 302.135 3.75069 3.69636 0
M  V30 3114 H 304.626 2.95947 2.34997 0
M  V30 3115 H 304.939 6.42107 4.30022 0
M  V30 3116 H 303.284 5.77077 3.87308 0
M  V30 3117 H 306.475 3.71766 2.84443 0
M  V30 3118 H 306.648 5.29604 3.73394 0
M  V30 3119 N 300.054 -1.07777 1.14986 0
M  V30 3120 C 301.301 -1.8029 0.922056 0
M  V30 3121 C 301.629 -1.86531 -0.55105 0
M  V30 3122 O 300.884 -1.34189 -1.42449 0
M  V30 3123 C 301.183 -3.25495 1.47608 0
M  V30 3124 C 300.849 -3.39361 2.96893 0
M  V30 3125 C 299.511 -3.42852 3.37647 0
M  V30 3126 C 301.863 -3.42512 3.92854 0
M  V30 3127 C 299.191 -3.47094 4.73015 0
M  V30 3128 C 301.543 -3.4829 5.28088 0
M  V30 3129 C 300.207 -3.50058 5.68345 0
M  V30 3130 H 299.477 -0.659727 0.337404 0
M  V30 3131 H 302.124 -1.26854 1.43459 0
M  V30 3132 H 300.429 -3.81683 0.88463 0
M  V30 3133 H 302.126 -3.80168 1.27568 0
M  V30 3134 H 298.716 -3.37339 2.64387 0
M  V30 3135 H 302.9 -3.3904 3.62444 0
M  V30 3136 H 298.156 -3.46758 5.03556 0
M  V30 3137 H 302.33 -3.49675 6.02246 0
M  V30 3138 H 299.957 -3.53097 6.73221 0
M  V30 3139 N 301.532 -0.945985 -1.26051 0
M  V30 3140 C 302.479 -0.45809 -2.26208 0
M  V30 3141 C 303.449 0.484816 -1.58867 0
M  V30 3142 O 304.634 0.399969 -1.86561 0
M  V30 3143 C 301.774 0.266131 -3.44072 0
M  V30 3144 C 300.887 -0.713005 -4.26075 0
M  V30 3145 C 300.022 0.0329013 -5.3119 0
M  V30 3146 C 299.061 -0.93774 -6.04874 0
M  V30 3147 N 298.198 -0.223274 -7.01745 0
M  V30 3148 H 303.038 -1.3171 -2.67313 0
M  V30 3149 H 300.575 -0.66069 -1.31428 0
M  V30 3150 H 302.533 0.702514 -4.11243 0
M  V30 3151 H 301.163 1.08925 -3.03867 0
M  V30 3152 H 300.215 -1.26789 -3.58648 0
M  V30 3153 H 301.527 -1.45406 -4.77136 0
M  V30 3154 H 300.681 0.528335 -6.04395 0
M  V30 3155 H 299.42 0.806801 -4.8098 0
M  V30 3156 H 298.425 -1.44425 -5.30492 0
M  V30 3157 H 299.65 -1.71172 -6.57173 0
M  V30 3158 H 297.596 0.532046 -6.53839 0
M  V30 3159 H 297.513 -0.90357 -7.50581 0
M  V30 3160 H 298.781 0.250907 -7.79096 0
M  V30 3161 N 303.011 1.40521 -0.713556 0
M  V30 3162 C 304.257 2.01714 -0.261382 0
M  V30 3163 C 304.612 1.55562 1.13217 0
M  V30 3164 O 303.905 0.764893 1.7567 0
M  V30 3165 C 304.099 3.56317 -0.278 0
M  V30 3166 C 303.928 4.17476 -1.67163 0
M  V30 3167 C 302.698 4.50998 -2.2788 0
M  V30 3168 C 304.896 4.42472 -2.6215 0
M  V30 3169 N 302.878 4.9754 -3.5962 0
M  V30 3170 C 304.249 4.90985 -3.78594 0
M  V30 3171 C 306.304 4.24508 -2.60188 0
M  V30 3172 C 305.007 5.2342 -4.9338 0
M  V30 3173 C 307.033 4.58043 -3.741 0
M  V30 3174 C 306.395 5.06743 -4.89276 0
M  V30 3175 H 302.494 0.769104 -0.141434 0
M  V30 3176 H 305.078 1.70785 -0.934915 0
M  V30 3177 H 303.249 3.8668 0.36509 0
M  V30 3178 H 304.981 4.0425 0.190695 0
M  V30 3179 H 301.736 4.38062 -1.79997 0
M  V30 3180 H 302.16 5.25196 -4.27198 0
M  V30 3181 H 306.802 3.86078 -1.72348 0
M  V30 3182 H 304.52 5.60765 -5.81866 0
M  V30 3183 H 308.106 4.45785 -3.73854 0
M  V30 3184 H 306.986 5.32204 -5.75959 0
M  V30 3185 N 304.489 0.459591 1.5075 0
M  V30 3186 C 305.737 -0.0991532 2.01857 0
M  V30 3187 C 306.058 -1.41247 1.34441 0
M  V30 3188 O 305.328 -1.89775 0.486022 0
M  V30 3189 H 303.908 -0.039633 0.745948 0
M  V30 3190 H 306.57 0.607387 1.85194 0
M  V30 3191 H 305.666 -0.258998 3.11023 0
M  V30 3192 N 305.967 -1.56429 0.191757 0
M  V30 3193 C 307.378 -1.83912 -0.321428 0
M  V30 3194 C 307.729 -1.11231 -1.61623 0
M  V30 3195 O 306.854 -0.37202 -2.13178 0
M  V30 3196 C 307.449 -3.33624 -0.589961 0
M  V30 3197 C 306.008 -3.6153 -1.04753 0
M  V30 3198 C 305.155 -2.7714 -0.0943327 0
M  V30 3199 H 308.106 -1.53161 0.415612 0
M  V30 3200 H 308.127 -3.52213 -1.43966 0
M  V30 3201 H 307.639 -3.86495 0.352588 0
M  V30 3202 H 305.74 -3.14089 -2.00447 0
M  V30 3203 H 305.853 -4.69737 -0.942549 0
M  V30 3204 H 304.217 -2.47638 -0.595589 0
M  V30 3205 H 305 -3.32799 0.842601 0
M  V30 3206 N 307.445 0.0818655 -1.57387 0
M  V30 3207 C 308.408 1.08265 -2.02018 0
M  V30 3208 C 309.408 1.32183 -0.915664 0
M  V30 3209 O 310.598 1.28073 -1.18081 0
M  V30 3210 C 307.73 2.42871 -2.39221 0
M  V30 3211 H 308.923 0.698204 -2.91659 0
M  V30 3212 H 306.476 0.327303 -1.52835 0
M  V30 3213 H 307.211 2.86167 -1.52575 0
M  V30 3214 H 306.996 2.26855 -3.19811 0
M  V30 3215 H 308.486 3.14826 -2.74362 0
M  V30 3216 N 308.923 1.53595 0.353017 0
M  V30 3217 C 310.148 1.7462 1.11904 0
M  V30 3218 C 310.573 0.479721 1.8188 0
M  V30 3219 O 309.931 -0.567066 1.72204 0
M  V30 3220 C 309.979 2.92029 2.11545 0
M  V30 3221 O 309.083 2.61516 3.18878 0
M  V30 3222 H 308.424 0.579531 0.324099 0
M  V30 3223 H 310.954 2.00525 0.406301 0
M  V30 3224 H 310.964 3.18551 2.5493 0
M  V30 3225 H 309.639 3.83888 1.60008 0
M  V30 3226 H 308.216 2.45852 2.80377 0
M  V30 3227 N 310.401 -0.613514 1.45168 0
M  V30 3228 C 311.333 -1.73825 1.4939 0
M  V30 3229 C 312.346 -1.58175 0.385304 0
M  V30 3230 O 313.535 -1.66165 0.652036 0
M  V30 3231 C 310.635 -3.11758 1.32891 0
M  V30 3232 C 309.808 -3.53704 2.57317 0
M  V30 3233 C 308.867 -4.70579 2.35462 0
M  V30 3234 O 307.893 -4.77996 3.09044 0
M  V30 3235 N 309.095 -5.63454 1.39644 0
M  V30 3236 H 311.86 -1.70669 2.46358 0
M  V30 3237 H 309.421 -0.79862 1.40832 0
M  V30 3238 H 311.413 -3.87692 1.1609 0
M  V30 3239 H 309.983 -3.09456 0.442218 0
M  V30 3240 H 309.203 -2.67794 2.89275 0
M  V30 3241 H 310.491 -3.78486 3.40038 0
M  V30 3242 H 309.889 -5.6017 0.789062 0
M  V30 3243 H 308.446 -6.38944 1.28816 0
M  V30 3244 N 311.879 -1.3236 -0.855495 0
M  V30 3245 C 312.811 -1.17052 -1.97057 0
M  V30 3246 C 313.824 -0.10574 -1.62456 0
M  V30 3247 O 315.013 -0.354619 -1.74942 0
M  V30 3248 C 312.113 -0.769305 -3.30053 0
M  V30 3249 C 311.286 -1.9222 -3.929 0
M  V30 3250 C 310.345 -1.50466 -5.04228 0
M  V30 3251 O 309.371 -2.21655 -5.24269 0
M  V30 3252 N 310.573 -0.400209 -5.79119 0
M  V30 3253 H 313.338 -2.13103 -2.1073 0
M  V30 3254 H 310.899 -1.24885 -1.0303 0
M  V30 3255 H 312.891 -0.472407 -4.01933 0
M  V30 3256 H 311.461 0.100025 -3.1244 0
M  V30 3257 H 310.681 -2.38563 -3.13817 0
M  V30 3258 H 311.969 -2.69403 -4.31624 0
M  V30 3259 H 311.367 0.192319 -5.65373 0
M  V30 3260 H 309.924 -0.162912 -6.51596 0
M  V30 3261 N 313.357 1.07166 -1.15556 0
M  V30 3262 C 314.606 1.79181 -0.926132 0
M  V30 3263 C 314.919 1.87768 0.547967 0
M  V30 3264 O 316.125 2.56323 0.895036 0
M  V30 3265 C 314.581 3.22 -1.60761 0
M  V30 3266 C 314.189 3.21607 -3.11886 0
M  V30 3267 C 315.933 3.9861 -1.4598 0
M  V30 3268 C 313.84 4.59092 -3.72812 0
M  V30 3269 H 312.77 0.67154 -0.342856 0
M  V30 3270 H 315.421 1.2027 -1.3859 0
M  V30 3271 H 313.803 3.81115 -1.07553 0
M  V30 3272 H 314.977 2.72127 -3.71865 0
M  V30 3273 H 313.292 2.58495 -3.2645 0
M  V30 3274 H 315.889 5.00225 -1.88888 0
M  V30 3275 H 316.232 4.143 -0.407541 0
M  V30 3276 H 316.765 3.45996 -1.96295 0
M  V30 3277 H 313.504 4.48606 -4.77946 0
M  V30 3278 H 313.024 5.08803 -3.17616 0
M  V30 3279 H 314.703 5.28059 -3.73848 0
M  V30 3280 N 314.835 0.952656 1.25548 0
M  V30 3281 C 315.765 0.489287 2.28316 0
M  V30 3282 C 316.746 -0.463359 1.63667 0
M  V30 3283 O 317.931 -0.36274 1.90782 0
M  V30 3284 C 315.061 -0.235603 3.465 0
M  V30 3285 C 314.015 0.631593 4.23314 0
M  V30 3286 C 313.341 -0.223923 5.34231 0
M  V30 3287 C 314.641 1.90871 4.86174 0
M  V30 3288 H 316.335 1.34822 2.67326 0
M  V30 3289 H 313.881 0.649728 1.28509 0
M  V30 3290 H 315.834 -0.570882 4.17515 0
M  V30 3291 H 314.558 -1.12877 3.06474 0
M  V30 3292 H 313.217 0.949929 3.54079 0
M  V30 3293 H 312.865 -1.11678 4.90446 0
M  V30 3294 H 312.565 0.35299 5.86539 0
M  V30 3295 H 314.089 -0.554214 6.0808 0
M  V30 3296 H 315.503 1.63997 5.49343 0
M  V30 3297 H 313.9 2.43112 5.4865 0
M  V30 3298 H 314.97 2.61304 4.08471 0
M  V30 3299 N 316.313 -1.40141 0.720998 0
M  V30 3300 C 317.56 -2.00787 0.262842 0
M  V30 3301 C 317.888 -1.5718 -1.14563 0
M  V30 3302 O 317.143 -0.785391 -1.79249 0
M  V30 3303 C 317.442 -3.56165 0.296892 0
M  V30 3304 C 317.108 -4.19373 1.65641 0
M  V30 3305 C 315.77 -4.36352 2.02855 0
M  V30 3306 C 318.122 -4.54578 2.54968 0
M  V30 3307 C 315.45 -4.8582 3.28931 0
M  V30 3308 C 317.802 -5.05447 3.80402 0
M  V30 3309 C 316.466 -5.20635 4.17726 0
M  V30 3310 H 315.736 -0.734731 0.0961807 0
M  V30 3311 H 318.383 -1.67673 0.925093 0
M  V30 3312 H 316.688 -3.8922 -0.448932 0
M  V30 3313 H 318.385 -4.00929 -0.0755208 0
M  V30 3314 H 314.975 -4.06549 1.35704 0
M  V30 3315 H 319.159 -4.41091 2.27491 0
M  V30 3316 H 314.415 -4.95764 3.57811 0
M  V30 3317 H 318.589 -5.31663 4.49786 0
M  V30 3318 H 316.216 -5.58728 5.15487 0
M  V30 3319 N 317.792 -0.46758 -1.50504 0
M  V30 3320 C 318.724 0.364655 -2.26281 0
M  V30 3321 C 319.737 0.960151 -1.31472 0
M  V30 3322 O 320.926 0.849153 -1.57008 0
M  V30 3323 C 318.026 1.52509 -3.02645 0
M  V30 3324 C 317.199 1.04302 -4.24782 0
M  V30 3325 C 316.258 2.07709 -4.8347 0
M  V30 3326 O 315.284 1.65913 -5.44483 0
M  V30 3327 N 316.486 3.40485 -4.70159 0
M  V30 3328 H 319.251 -0.28495 -2.98342 0
M  V30 3329 H 316.812 -0.298163 -1.59131 0
M  V30 3330 H 318.804 2.21371 -3.38787 0
M  V30 3331 H 317.374 2.07945 -2.33404 0
M  V30 3332 H 316.594 0.180393 -3.93787 0
M  V30 3333 H 317.882 0.698798 -5.03978 0
M  V30 3334 H 317.28 3.77155 -4.21629 0
M  V30 3335 H 315.837 4.05156 -5.1058 0
M  V30 3336 N 319.27 1.56325 -0.20005 0
M  V30 3337 C 320.233 2.18084 0.705132 0
M  V30 3338 C 321.233 1.13666 1.1374 0
M  V30 3339 O 322.423 1.39023 1.04968 0
M  V30 3340 C 319.555 2.78689 1.96329 0
M  V30 3341 H 320.748 2.99435 0.167023 0
M  V30 3342 H 318.301 1.56221 0.0495725 0
M  V30 3343 H 319.036 2.0115 2.5438 0
M  V30 3344 H 318.821 3.55133 1.66202 0
M  V30 3345 H 320.311 3.26096 2.60866 0
M  V30 3346 N 320.748 -0.0735177 1.57428 0
M  V30 3347 C 321.978 -0.78483 1.91112 0
M  V30 3348 C 322.386 -1.71729 0.7941 0
M  V30 3349 O 321.729 -1.82105 -0.241542 0
M  V30 3350 C 321.791 -1.63346 3.20247 0
M  V30 3351 C 321.455 -0.870557 4.48632 0
M  V30 3352 C 322.452 -0.19058 5.19551 0
M  V30 3353 C 320.137 -0.838242 4.95256 0
M  V30 3354 C 322.131 0.511503 6.35344 0
M  V30 3355 C 319.818 -0.132386 6.10957 0
M  V30 3356 C 320.816 0.541288 6.80852 0
M  V30 3357 O 320.504 1.23578 7.94345 0
M  V30 3358 H 320.236 -0.228408 0.636244 0
M  V30 3359 H 322.79 -0.0486039 2.05342 0
M  V30 3360 H 321.02 -2.41245 3.02222 0
M  V30 3361 H 322.709 -2.22329 3.39595 0
M  V30 3362 H 323.475 -0.206864 4.84559 0
M  V30 3363 H 319.354 -1.35206 4.40727 0
M  V30 3364 H 322.898 1.03789 6.89836 0
M  V30 3365 H 318.795 -0.114023 6.45399 0
M  V30 3366 H 319.563 1.14487 8.10454 0
M  V30 3367 N 322.226 -1.5378 -0.344866 0
M  V30 3368 C 323.136 -1.84667 -1.4469 0
M  V30 3369 C 324.152 -0.736704 -1.57635 0
M  V30 3370 O 325.328 -1.02888 -1.73136 0
M  V30 3371 C 322.393 -2.04869 -2.79696 0
M  V30 3372 C 321.454 -3.28731 -2.76106 0
M  V30 3373 C 320.687 -3.4796 -4.04673 0
M  V30 3374 O 320.91 -2.71052 -5.01883 0
M  V30 3375 O 319.844 -4.41383 -4.09224 0
M  V30 3376 H 323.67 -2.78334 -1.21506 0
M  V30 3377 H 321.255 -1.39418 -0.536921 0
M  V30 3378 H 323.137 -2.19609 -3.59652 0
M  V30 3379 H 321.812 -1.14391 -3.02814 0
M  V30 3380 H 320.719 -3.19396 -1.94774 0
M  V30 3381 H 322.052 -4.19198 -2.57941 0
M  V30 3382 N 323.704 0.605807 -1.45491 0
M  V30 3383 C 325.12 0.926751 -1.29936 0
M  V30 3384 C 325.32 1.99896 -0.253706 0
M  V30 3385 O 324.376 2.50038 0.351737 0
M  V30 3386 C 325.689 1.36599 -2.67883 0
M  V30 3387 C 327.237 1.4801 -2.75793 0
M  V30 3388 C 327.712 1.95309 -4.14268 0
M  V30 3389 N 329.203 2.0254 -4.16571 0
M  V30 3390 C 329.938 2.40363 -5.20589 0
M  V30 3391 N 329.434 2.77143 -6.34952 0
M  V30 3392 N 331.227 2.40718 -5.07948 0
M  V30 3393 H 323.378 -0.102862 -2.12151 0
M  V30 3394 H 325.641 0.016639 -0.947854 0
M  V30 3395 H 325.347 0.652306 -3.45598 0
M  V30 3396 H 325.221 2.33215 -2.96463 0
M  V30 3397 H 327.608 2.1847 -1.98381 0
M  V30 3398 H 327.689 0.497041 -2.50925 0
M  V30 3399 H 327.333 1.25436 -4.92167 0
M  V30 3400 H 327.263 2.94532 -4.3653 0
M  V30 3401 H 329.754 1.76699 -3.34045 0
M  V30 3402 H 330.067 3.0489 -7.10114 0
M  V30 3403 H 328.412 2.74834 -6.3835 0
M  V30 3404 H 331.603 2.11392 -4.1765 0
M  V30 3405 H 331.776 2.69869 -5.89131 0
M  V30 3406 N 325.182 1.32811 0.848464 0
M  V30 3407 C 326.114 1.18095 1.96433 0
M  V30 3408 C 327.127 0.114354 1.62398 0
M  V30 3409 O 328.316 0.363892 1.74751 0
M  V30 3410 C 325.416 0.786798 3.2964 0
M  V30 3411 C 324.589 1.943 3.91875 0
M  V30 3412 C 323.648 1.53138 5.03423 0
M  V30 3413 O 322.674 2.24432 5.23086 0
M  V30 3414 N 323.876 0.430915 5.78898 0
M  V30 3415 H 326.641 2.14218 2.09597 0
M  V30 3416 H 324.202 1.2543 1.02367 0
M  V30 3417 H 326.194 0.493715 4.01677 0
M  V30 3418 H 324.764 -0.0834541 3.12489 0
M  V30 3419 H 323.984 2.40224 3.12547 0
M  V30 3420 H 325.272 2.71689 4.30189 0
M  V30 3421 H 324.67 -0.162333 5.65467 0
M  V30 3422 H 323.227 0.197466 6.51501 0
M  V30 3423 N 326.66 -1.06551 1.16123 0
M  V30 3424 C 327.607 -2.13961 0.865414 0
M  V30 3425 C 328.577 -1.65066 -0.185055 0
M  V30 3426 O 329.762 -1.90732 -0.05083 0
M  V30 3427 C 326.902 -3.43113 0.369776 0
M  V30 3428 C 326.015 -4.05756 1.48276 0
M  V30 3429 C 325.15 -5.22773 0.942414 0
M  V30 3430 C 324.189 -5.77395 2.03179 0
M  V30 3431 N 323.326 -6.85731 1.50721 0
M  V30 3432 H 328.166 -2.38605 1.78527 0
M  V30 3433 H 325.703 -1.17072 0.890646 0
M  V30 3434 H 327.661 -4.17151 0.0640643 0
M  V30 3435 H 326.291 -3.18695 -0.513143 0
M  V30 3436 H 325.343 -3.29292 1.9045 0
M  V30 3437 H 326.655 -4.42351 2.30493 0
M  V30 3438 H 325.809 -6.03827 0.589729 0
M  V30 3439 H 324.548 -4.87618 0.0895191 0
M  V30 3440 H 323.553 -4.94981 2.3932 0
M  V30 3441 H 324.778 -6.14603 2.8886 0
M  V30 3442 H 322.724 -6.52499 0.676811 0
M  V30 3443 H 322.641 -7.21254 2.26557 0
M  V30 3444 H 323.909 -7.7047 1.18303 0
M  V30 3445 N 328.138 -0.959301 -1.25041 0
M  V30 3446 C 329.086 -0.474437 -2.2771 0
M  V30 3447 C 330.08 0.457697 -1.631 0
M  V30 3448 O 331.286 0.333912 -1.76876 0
M  V30 3449 H 327.661 -0.134936 -0.739795 0
M  V30 3450 H 329.632 -1.35251 -2.65988 0
M  V30 3451 C 328.381 0.227884 -3.46952 0
M  V30 3452 H 327.704 -0.480248 -3.96905 0
M  V30 3453 H 329.144 0.531091 -4.20661 0
M  V30 3454 C 327.603 1.452 -3.04004 0
M  V30 3455 O 328.133 2.54949 -3.10426 0
M  V30 3456 N 326.339 1.31502 -2.59144 0
M  V30 3457 H 325.886 0.422065 -2.54119 0
M  V30 3458 H 325.844 2.13521 -2.30773 0
M  V30 3459 N 329.616 1.39756 -0.72842 0
M  V30 3460 C 331.027 1.83498 -0.344289 0
M  V30 3461 C 331.378 1.60868 1.12321 0
M  V30 3462 O 330.503 1.09634 1.86573 0
M  V30 3463 C 331.098 3.33114 -0.618112 0
M  V30 3464 C 329.657 3.753 -0.287549 0
M  V30 3465 C 328.804 2.62831 -0.884048 0
M  V30 3466 H 331.755 1.28842 -0.926578 0
M  V30 3467 H 331.776 3.80334 0.112349 0
M  V30 3468 H 331.288 3.49553 -1.68625 0
M  V30 3469 H 329.389 3.64451 0.775012 0
M  V30 3470 H 329.502 4.72945 -0.765512 0
M  V30 3471 H 327.866 2.52792 -0.311149 0
M  V30 3472 H 328.649 2.82078 -1.95671 0
M  V30 3473 N 331.094 0.475555 1.50254 0
M  V30 3474 C 332.319 -0.0777042 2.07254 0
M  V30 3475 C 332.744 -1.3235 1.3366 0
M  V30 3476 O 332.102 -1.77152 0.385597 0
M  V30 3477 C 332.15 -0.340169 3.58992 0
M  V30 3478 O 331.254 -1.41982 3.87188 0
M  V30 3479 H 330.595 0.0149556 0.663832 0
M  V30 3480 H 333.125 0.667878 1.93392 0
M  V30 3481 H 333.135 -0.579332 4.03866 0
M  V30 3482 H 331.81 0.570167 4.11973 0
M  V30 3483 H 330.387 -1.16762 3.54148 0
M  V30 3484 N 332.573 -1.56217 0.208337 0
M  V30 3485 C 333.52 -2.19699 -0.707192 0
M  V30 3486 C 334.49 -1.14836 -1.20008 0
M  V30 3487 O 335.675 -1.4314 -1.26157 0
M  V30 3488 C 332.815 -2.87061 -1.91546 0
M  V30 3489 C 331.928 -4.06483 -1.46271 0
M  V30 3490 C 331.063 -4.61665 -2.62752 0
M  V30 3491 C 330.102 -5.73417 -2.14147 0
M  V30 3492 N 329.239 -6.22948 -3.23853 0
M  V30 3493 H 334.079 -2.97575 -0.159111 0
M  V30 3494 H 331.616 -1.46948 -0.0667874 0
M  V30 3495 H 333.574 -3.24294 -2.62468 0
M  V30 3496 H 332.204 -2.11725 -2.43664 0
M  V30 3497 H 331.256 -3.74825 -0.648886 0
M  V30 3498 H 332.568 -4.87271 -1.06622 0
M  V30 3499 H 331.722 -5.01272 -3.41776 0
M  V30 3500 H 330.461 -3.80013 -3.05682 0
M  V30 3501 H 329.466 -5.33326 -1.33581 0
M  V30 3502 H 330.691 -6.56897 -1.72232 0
M  V30 3503 H 328.637 -5.44213 -3.6629 0
M  V30 3504 H 328.554 -6.98823 -2.88414 0
M  V30 3505 H 329.822 -6.6721 -4.03052 0
M  V30 3506 N 334.051 0.0651679 -1.57465 0
M  V30 3507 C 334.961 1.09448 -2.07505 0
M  V30 3508 C 335.977 1.41974 -1.00595 0
M  V30 3509 O 337.153 1.52018 -1.32107 0
M  V30 3510 C 334.218 2.38689 -2.51453 0
M  V30 3511 C 333.279 2.13073 -3.72691 0
M  V30 3512 C 332.512 3.36152 -4.14533 0
M  V30 3513 O 332.735 4.45517 -3.56189 0
M  V30 3514 O 331.669 3.23974 -5.07272 0
M  V30 3515 H 335.495 0.69935 -2.95538 0
M  V30 3516 H 333.08 0.279752 -1.46757 0
M  V30 3517 H 334.962 3.14736 -2.80212 0
M  V30 3518 H 333.637 2.77568 -1.66546 0
M  V30 3519 H 332.544 1.34709 -3.49005 0
M  V30 3520 H 333.877 1.79071 -4.5847 0
M  V30 3521 N 335.529 1.53961 0.336706 0
M  V30 3522 C 336.439 1.85432 1.43708 0
M  V30 3523 C 337.455 0.745053 1.57242 0
M  V30 3524 O 338.631 1.03804 1.72588 0
M  V30 3525 C 335.696 2.06349 2.78605 0
M  V30 3526 C 334.757 3.30191 2.74358 0
M  V30 3527 C 333.99 3.50101 4.02822 0
M  V30 3528 O 334.213 2.7371 5.00439 0
M  V30 3529 O 333.147 4.43547 4.06878 0
M  V30 3530 H 336.973 2.78975 1.20028 0
M  V30 3531 H 334.558 1.39701 0.52952 0
M  V30 3532 H 336.44 2.21513 3.58483 0
M  V30 3533 H 335.115 1.15995 3.02203 0
M  V30 3534 H 334.022 3.20425 1.93078 0
M  V30 3535 H 335.355 4.2056 2.55715 0
M  V30 3536 N 337.007 -0.598083 1.45811 0
M  V30 3537 C 338.423 -0.919847 1.30426 0
M  V30 3538 C 338.623 -1.99759 0.264303 0
M  V30 3539 O 337.679 -2.50221 -0.338472 0
M  V30 3540 C 338.992 -1.35176 2.68603 0
M  V30 3541 C 340.54 -1.46546 2.76574 0
M  V30 3542 C 341.015 -1.9311 4.15298 0
M  V30 3543 N 342.506 -2.00328 4.1764 0
M  V30 3544 C 343.241 -2.37599 5.21856 0
M  V30 3545 N 342.737 -2.73771 6.36413 0
M  V30 3546 N 344.53 -2.38021 5.09218 0
M  V30 3547 H 336.681 0.114111 2.12093 0
M  V30 3548 H 338.944 -0.0116121 0.947929 0
M  V30 3549 H 338.65 -0.633969 3.45939 0
M  V30 3550 H 338.524 -2.3164 2.97696 0
M  V30 3551 H 340.911 -2.17415 1.99537 0
M  V30 3552 H 340.992 -0.483727 2.51185 0
M  V30 3553 H 340.636 -1.22824 4.92825 0
M  V30 3554 H 340.566 -2.92213 4.38086 0
M  V30 3555 H 343.057 -1.74925 3.34977 0
M  V30 3556 H 343.37 -3.0112 7.11721 0
M  V30 3557 H 341.715 -2.71445 6.39799 0
M  V30 3558 H 344.906 -2.09174 4.18765 0
M  V30 3559 H 345.079 -2.66741 5.90554 0
M  V30 3560 N 338.485 -1.33259 -0.841409 0
M  V30 3561 C 339.395 -1.25332 -1.98316 0
M  V30 3562 C 340.411 -0.164364 -1.73222 0
M  V30 3563 O 341.587 -0.387486 -1.97637 0
M  V30 3564 C 338.652 -0.990078 -3.32262 0
M  V30 3565 C 337.713 -2.16879 -3.70489 0
M  V30 3566 C 336.946 -1.91801 -4.98044 0
M  V30 3567 O 337.169 -0.867075 -5.63771 0
M  V30 3568 O 336.103 -2.78267 -5.33714 0
M  V30 3569 H 339.929 -2.21344 -2.07944 0
M  V30 3570 H 337.514 -1.1328 -0.974058 0
M  V30 3571 H 339.396 -0.860321 -4.12524 0
M  V30 3572 H 338.071 -0.0602155 -3.23644 0
M  V30 3573 H 336.978 -2.35407 -2.90748 0
M  V30 3574 H 338.311 -3.0819 -3.8377 0
M  V30 3575 N 339.963 1.05934 -1.16686 0
M  V30 3576 C 341.191 1.8249 -0.974929 0
M  V30 3577 C 341.606 1.82679 0.476861 0
M  V30 3578 O 340.963 1.2486 1.33103 0
M  V30 3579 C 341.014 3.28943 -1.49929 0
M  V30 3580 O 340.735 3.28886 -2.89423 0
M  V30 3581 C 342.236 4.22215 -1.35089 0
M  V30 3582 H 339.456 0.575295 -0.345365 0
M  V30 3583 H 342 1.33631 -1.548 0
M  V30 3584 H 340.155 3.751 -0.968423 0
M  V30 3585 H 340.569 4.20493 -3.13506 0
M  V30 3586 H 342.043 5.22987 -1.76603 0
M  V30 3587 H 342.52 4.38195 -0.296935 0
M  V30 3588 H 343.126 3.81907 -1.87155 0
M  V30 3589 N 341.441 0.965919 1.2453 0
M  V30 3590 C 342.371 0.513476 2.27784 0
M  V30 3591 C 343.352 -0.445974 1.6415 0
M  V30 3592 O 344.537 -0.342485 1.91156 0
M  V30 3593 C 341.667 -0.198839 3.4673 0
M  V30 3594 C 340.621 0.676456 4.2262 0
M  V30 3595 C 339.947 -0.167248 5.34438 0
M  V30 3596 C 341.247 1.96017 4.84123 0
M  V30 3597 H 342.941 1.3765 2.65881 0
M  V30 3598 H 340.487 0.663321 1.27813 0
M  V30 3599 H 342.44 -0.526567 4.18097 0
M  V30 3600 H 341.164 -1.0962 3.07654 0
M  V30 3601 H 339.823 0.98743 3.53052 0
M  V30 3602 H 339.471 -1.0647 4.91603 0
M  V30 3603 H 339.171 0.415181 5.86131 0
M  V30 3604 H 340.695 -0.489688 6.08633 0
M  V30 3605 H 342.109 1.69814 5.47573 0
M  V30 3606 H 340.506 2.48918 5.4604 0
M  V30 3607 H 341.576 2.65622 4.05676 0
M  V30 3608 N 342.919 -1.39368 0.735821 0
M  V30 3609 C 344.165 -2.00794 0.284544 0
M  V30 3610 C 344.498 -1.58255 -1.12557 0
M  V30 3611 O 343.773 -0.811819 -1.76748 0
M  V30 3612 C 344.056 -3.58011 0.387337 0
M  V30 3613 C 343.909 -4.10566 1.83728 0
M  V30 3614 C 345.228 -4.395 -0.22975 0
M  V30 3615 H 342.347 -0.729501 0.104866 0
M  V30 3616 H 344.989 -1.65564 0.93213 0
M  V30 3617 H 343.139 -3.88154 -0.164006 0
M  V30 3618 H 344.811 -3.91139 2.44556 0
M  V30 3619 H 343.054 -3.64095 2.35833 0
M  V30 3620 H 343.725 -5.19702 1.86047 0
M  V30 3621 H 346.201 -4.15406 0.240257 0
M  V30 3622 H 345.077 -5.48752 -0.127485 0
M  V30 3623 H 345.338 -4.22062 -1.3159 0
M  V30 3624 N 344.397 -0.483516 -1.5 0
M  V30 3625 C 345.307 0.309172 -2.32554 0
M  V30 3626 C 346.323 0.984159 -1.43493 0
M  V30 3627 O 347.499 0.969399 -1.76535 0
M  V30 3628 C 344.564 1.36979 -3.18493 0
M  V30 3629 C 343.625 0.710095 -4.23387 0
M  V30 3630 C 342.858 1.72018 -5.05218 0
M  V30 3631 O 343.081 2.94813 -4.88305 0
M  V30 3632 O 342.015 1.28515 -5.8802 0
M  V30 3633 H 345.841 -0.366064 -3.01486 0
M  V30 3634 H 343.426 -0.24514 -1.47375 0
M  V30 3635 H 345.308 1.98385 -3.71781 0
M  V30 3636 H 343.983 2.02828 -2.52275 0
M  V30 3637 H 342.89 0.0567539 -3.74057 0
M  V30 3638 H 344.223 0.0943557 -4.9211 0
M  V30 3639 N 345.875 1.56104 -0.216619 0
M  V30 3640 C 346.785 2.23694 0.706982 0
M  V30 3641 C 347.801 1.24295 1.21765 0
M  V30 3642 O 348.977 1.57094 1.2603 0
M  V30 3643 C 346.042 2.8998 1.90033 0
M  V30 3644 C 345.103 4.04708 1.43213 0
M  V30 3645 C 344.336 4.67824 2.56859 0
M  V30 3646 O 344.559 4.29913 3.74874 0
M  V30 3647 O 343.493 5.56905 2.28343 0
M  V30 3648 H 347.319 3.03272 0.161235 0
M  V30 3649 H 344.904 1.49394 0.0136177 0
M  V30 3650 H 346.786 3.31837 2.59735 0
M  V30 3651 H 345.461 2.13365 2.43428 0
M  V30 3652 H 344.368 3.6743 0.70327 0
M  V30 3653 H 345.701 4.83051 0.944615 0
M  V30 3654 N 347.353 -0.0568162 1.57498 0
M  V30 3655 C 348.593 -0.758273 1.89815 0
M  V30 3656 C 348.957 -1.73978 0.812132 0
M  V30 3657 O 350.158 -2.48744 1.01881 0
M  V30 3658 C 348.429 -1.43465 3.27342 0
M  V30 3659 S 349.988 -2.1691 3.81439 0
M  V30 3660 H 346.806 -0.251836 0.664906 0
M  V30 3661 H 349.408 -0.0137997 1.95495 0
M  V30 3662 H 348.112 -0.706693 4.0427 0
M  V30 3663 H 347.643 -2.21825 3.24896 0
M  V30 3664 H 349.658 -3.43658 3.5793 0
M  V30 3665 N 348.832 -1.54138 -0.328536 0
M  V30 3666 C 349.78 -1.83894 -1.42428 0
M  V30 3667 C 350.774 -0.710478 -1.53781 0
M  V30 3668 O 351.98 -0.894062 -1.56226 0
M  V30 3669 H 348.355 -0.582837 -0.475189 0
M  V30 3670 H 350.326 -2.75537 -1.14552 0
M  V30 3671 C 349.075 -2.07866 -2.78724 0
M  V30 3672 H 348.398 -2.94158 -2.7076 0
M  V30 3673 H 349.838 -2.32644 -3.54476 0
M  V30 3674 C 348.297 -0.868689 -3.25508 0
M  V30 3675 O 348.827 -0.0754908 -4.01629 0
M  V30 3676 N 347.033 -0.681711 -2.82491 0
M  V30 3677 H 346.58 -1.32838 -2.20708 0
M  V30 3678 H 346.538 0.126374 -3.14146 0
M  V30 3679 N 350.31 0.590341 -1.46126 0
M  V30 3680 C 351.726 0.912917 -1.30912 0
M  V30 3681 C 351.926 1.99616 -0.274893 0
M  V30 3682 O 350.982 2.50397 0.325197 0
M  V30 3683 C 352.295 1.3375 -2.69317 0
M  V30 3684 C 353.843 1.45077 -2.77348 0
M  V30 3685 C 354.318 1.90904 -4.16317 0
M  V30 3686 N 355.809 1.9811 -4.18696 0
M  V30 3687 C 356.544 2.34828 -5.23109 0
M  V30 3688 N 356.04 2.70393 -6.37856 0
M  V30 3689 N 357.833 2.35317 -5.10473 0
M  V30 3690 H 349.984 -0.125358 -2.1203 0
M  V30 3691 H 352.247 0.00658481 -0.947977 0
M  V30 3692 H 351.953 0.615614 -3.4627 0
M  V30 3693 H 351.827 2.30058 -2.9892 0
M  V30 3694 H 354.214 2.16353 -2.00687 0
M  V30 3695 H 354.295 0.4704 -2.51438 0
M  V30 3696 H 353.939 1.20209 -4.9347 0
M  V30 3697 H 353.869 2.89886 -4.39629 0
M  V30 3698 H 356.36 1.73146 -3.359 0
M  V30 3699 H 356.673 2.97341 -7.13308 0
M  V30 3700 H 355.018 2.68048 -6.41229 0
M  V30 3701 H 358.209 2.0695 -4.19868 0
M  V30 3702 H 358.382 2.63605 -5.9196 0
M  V30 3703 N 351.788 1.33704 0.83433 0
M  V30 3704 C 352.751 1.24244 1.92603 0
M  V30 3705 C 353.751 0.160383 1.59998 0
M  V30 3706 O 354.941 0.412228 1.69252 0
M  V30 3707 C 352.073 0.91555 3.28376 0
M  V30 3708 H 353.266 2.21287 2.02416 0
M  V30 3709 H 350.819 1.17827 1.02696 0
M  V30 3710 H 351.554 -0.0521886 3.24258 0
M  V30 3711 H 351.339 1.69811 3.53422 0
M  V30 3712 H 352.829 0.874231 4.08347 0
M  V30 3713 N 353.266 -1.05314 1.17247 0
M  V30 3714 C 354.176 -2.16538 0.90268 0
M  V30 3715 C 355.192 -1.73523 -0.128707 0
M  V30 3716 O 356.368 -2.01337 0.0502701 0
M  V30 3717 C 353.433 -3.44167 0.418356 0
M  V30 3718 C 352.494 -4.01635 1.51618 0
M  V30 3719 C 351.727 -5.23171 1.05487 0
M  V30 3720 O 351.95 -5.70327 -0.0914715 0
M  V30 3721 O 350.884 -5.72848 1.8474 0
M  V30 3722 H 354.71 -2.42145 1.83302 0
M  V30 3723 H 352.295 -1.15037 0.953246 0
M  V30 3724 H 354.177 -4.21112 0.155726 0
M  V30 3725 H 352.852 -3.20063 -0.48385 0
M  V30 3726 H 351.759 -3.26135 1.83268 0
M  V30 3727 H 353.092 -4.30053 2.39405 0
M  V30 3728 N 354.744 -0.972509 -1.24016 0
M  V30 3729 C 355.984 -0.644951 -1.93958 0
M  V30 3730 C 356.348 0.80559 -1.74282 0
M  V30 3731 O 357.549 1.2436 -2.38302 0
M  V30 3732 C 355.82 -1.01521 -3.42678 0
M  V30 3733 S 357.379 -0.802927 -4.31391 0
M  V30 3734 H 354.197 -0.236452 -0.670531 0
M  V30 3735 H 356.799 -1.25048 -1.50277 0
M  V30 3736 H 355.503 -2.06769 -3.54506 0
M  V30 3737 H 355.034 -0.400648 -3.91355 0
M  V30 3738 H 357.049 0.317256 -4.95185 0
M  V30 3739 N 356.222 1.38976 -0.743202 0
M  V30 3740 C 357.471 1.99581 -0.291592 0
M  V30 3741 C 357.784 1.59656 1.13001 0
M  V30 3742 O 358.99 2.13157 1.68156 0
M  V30 3743 C 357.446 3.56813 -0.470391 0
M  V30 3744 C 357.054 4.05695 -1.90041 0
M  V30 3745 C 358.798 4.24423 -0.0809709 0
M  V30 3746 C 356.705 5.5553 -2.02832 0
M  V30 3747 H 355.635 0.746615 -0.105272 0
M  V30 3748 H 358.286 1.58872 -0.918258 0
M  V30 3749 H 356.668 3.95359 0.225299 0
M  V30 3750 H 357.842 3.78464 -2.62872 0
M  V30 3751 H 356.157 3.50775 -2.24379 0
M  V30 3752 H 358.754 5.34474 -0.155445 0
M  V30 3753 H 359.097 4.04962 0.96497 0
M  V30 3754 H 359.63 3.9108 -0.728124 0
M  V30 3755 H 356.369 5.79881 -3.05643 0
M  V30 3756 H 355.889 5.84537 -1.34448 0
M  V30 3757 H 357.568 6.21069 -1.81335 0
M  V30 3758 N 357.7 0.491464 1.49741 0
M  V30 3759 C 358.632 -0.328609 2.26832 0
M  V30 3760 C 359.645 -0.939113 1.32983 0
M  V30 3761 O 360.834 -0.824067 1.58339 0
M  V30 3762 C 357.934 -1.47675 3.05033 0
M  V30 3763 C 357.107 -0.975305 4.26388 0
M  V30 3764 C 356.166 -1.99991 4.86714 0
M  V30 3765 O 355.192 -1.57229 5.47054 0
M  V30 3766 N 356.394 -3.32962 4.75517 0
M  V30 3767 H 359.159 0.332377 2.97851 0
M  V30 3768 H 356.72 0.323441 1.58636 0
M  V30 3769 H 358.712 -2.15954 3.42266 0
M  V30 3770 H 357.282 -2.04206 2.36683 0
M  V30 3771 H 356.502 -0.117723 3.94024 0
M  V30 3772 H 357.79 -0.618531 5.05026 0
M  V30 3773 H 357.188 -3.70399 4.27576 0
M  V30 3774 H 355.745 -3.96982 5.16961 0
M  V30 3775 N 359.178 -1.55987 0.224894 0
M  V30 3776 C 360.594 -1.59066 -0.130426 0
M  V30 3777 C 360.794 -1.24176 -1.5869 0
M  V30 3778 O 359.85 -0.978592 -2.32766 0
M  V30 3779 C 361.163 -3.00042 0.198883 0
M  V30 3780 C 362.711 -3.1268 0.141391 0
M  V30 3781 C 363.186 -4.55839 0.444422 0
M  V30 3782 N 364.677 -4.6152 0.394115 0
M  V30 3783 C 365.412 -5.70231 0.602038 0
M  V30 3784 N 364.908 -6.87291 0.871914 0
M  V30 3785 N 366.701 -5.59555 0.534245 0
M  V30 3786 H 358.852 -1.76941 1.17497 0
M  V30 3787 H 361.115 -0.822604 0.471197 0
M  V30 3788 H 360.821 -3.30234 1.2099 0
M  V30 3789 H 360.695 -3.74075 -0.484535 0
M  V30 3790 H 363.082 -2.82283 -0.860265 0
M  V30 3791 H 363.163 -2.40969 0.858335 0
M  V30 3792 H 362.807 -4.86954 1.44353 0
M  V30 3793 H 362.737 -5.2578 -0.293752 0
M  V30 3794 H 365.228 -3.77405 0.193356 0
M  V30 3795 H 365.541 -7.66058 1.01858 0
M  V30 3796 H 363.886 -6.89028 0.909145 0
M  V30 3797 H 367.077 -4.6698 0.323612 0
M  V30 3798 H 367.25 -6.44211 0.699693 0
M  V30 3799 N 360.656 0.0484629 -1.57525 0
M  V30 3800 C 361.904 0.741657 -1.88 0
M  V30 3801 C 362.225 1.76918 -0.820054 0
M  V30 3802 O 361.495 1.95335 0.148661 0
M  V30 3803 H 360.075 0.276908 -0.69378 0
M  V30 3804 H 362.737 0.019013 -1.94891 0
M  V30 3805 H 361.833 1.24336 -2.86264 0
M  V30 3806 N 362.134 1.5431 0.320358 0
M  V30 3807 C 363.38 1.72924 1.05949 0
M  V30 3808 C 363.713 0.503185 1.87568 0
M  V30 3809 O 362.988 -0.499839 1.87968 0
M  V30 3810 C 363.271 3.00676 1.98156 0
M  V30 3811 C 363.124 4.3354 1.19845 0
M  V30 3812 C 364.443 3.24198 2.9763 0
M  V30 3813 H 361.562 0.629195 0.383774 0
M  V30 3814 H 364.204 1.87008 0.335854 0
M  V30 3815 H 362.354 2.888 2.59859 0
M  V30 3816 H 364.026 4.57305 0.605773 0
M  V30 3817 H 362.269 4.309 0.500784 0
M  V30 3818 H 362.94 5.19156 1.87567 0
M  V30 3819 H 365.416 3.35557 2.4605 0
M  V30 3820 H 364.292 4.14938 3.59329 0
M  V30 3821 H 364.553 2.41577 3.7026 0
M  V30 3822 N 363.613 -0.582584 1.46437 0
M  V30 3823 C 364.838 -1.37168 1.55563 0
M  V30 3824 C 365.263 -1.87061 0.19743 0
M  V30 3825 O 364.621 -1.61572 -0.822451 0
M  V30 3826 C 364.669 -2.53511 2.56446 0
M  V30 3827 O 363.773 -3.54953 2.09958 0
M  V30 3828 H 363.114 -0.408494 0.523477 0
M  V30 3829 H 365.644 -0.706646 1.9201 0
M  V30 3830 H 365.654 -3.00426 2.76058 0
M  V30 3831 H 364.329 -2.16549 3.55076 0
M  V30 3832 H 362.906 -3.14516 2.00334 0
M  V30 3833 N 365.091 -1.34144 -0.827227 0
M  V30 3834 C 366.502 -1.23557 -1.39966 0
M  V30 3835 C 366.853 0.140731 -1.95695 0
M  V30 3836 O 365.978 1.04087 -1.89723 0
M  V30 3837 C 366.573 -2.23708 -2.54441 0
M  V30 3838 C 365.132 -2.16924 -3.07605 0
M  V30 3839 C 364.279 -2.10549 -1.80456 0
M  V30 3840 H 367.23 -1.45573 -0.631991 0
M  V30 3841 H 367.251 -1.85157 -3.32411 0
M  V30 3842 H 366.763 -3.23866 -2.13851 0
M  V30 3843 H 364.864 -1.20107 -3.52711 0
M  V30 3844 H 364.977 -3.07988 -3.66988 0
M  V30 3845 H 363.341 -1.56203 -2.01178 0
M  V30 3846 H 364.124 -3.12535 -1.42046 0
M  V30 3847 N 366.569 1.04691 -1.17803 0
M  V30 3848 C 367.794 1.81984 -0.994813 0
M  V30 3849 C 368.219 1.82586 0.452112 0
M  V30 3850 O 367.577 1.23854 1.324 0
M  V30 3851 C 367.625 3.2575 -1.54659 0
M  V30 3852 O 366.729 4.05267 -0.763728 0
M  V30 3853 H 366.07 0.562483 -0.352857 0
M  V30 3854 H 368.6 1.3189 -1.56417 0
M  V30 3855 H 368.61 3.76541 -1.57102 0
M  V30 3856 H 367.285 3.24627 -2.59981 0
M  V30 3857 H 365.862 3.63972 -0.811108 0
M  V30 3858 N 368.047 0.979072 1.23499 0
M  V30 3859 C 368.979 0.476271 2.24197 0
M  V30 3860 C 369.992 -0.421166 1.57258 0
M  V30 3861 O 371.181 -0.225515 1.7707 0
M  V30 3862 C 368.281 -0.330503 3.37285 0
M  V30 3863 C 367.454 0.559744 4.33804 0
M  V30 3864 C 366.513 -0.192954 5.25846 0
M  V30 3865 O 365.539 0.416978 5.67671 0
M  V30 3866 N 366.741 -1.47932 5.61334 0
M  V30 3867 H 369.506 1.34211 2.67969 0
M  V30 3868 H 367.067 0.852189 1.37657 0
M  V30 3869 H 369.059 -0.842361 3.95836 0
M  V30 3870 H 367.629 -1.09734 2.92707 0
M  V30 3871 H 366.849 1.25245 3.73775 0
M  V30 3872 H 368.137 1.1665 4.95248 0
M  V30 3873 H 367.535 -1.9964 5.29302 0
M  V30 3874 H 366.092 -1.93664 6.22364 0
M  V30 3875 N 369.525 -1.3858 0.750561 0
M  V30 3876 C 370.488 -2.28836 0.129152 0
M  V30 3877 C 371.488 -1.47045 -0.650714 0
M  V30 3878 O 372.678 -1.6753 -0.477428 0
M  V30 3879 C 369.81 -3.30751 -0.825622 0
M  V30 3880 H 371.003 -2.85294 0.924516 0
M  V30 3881 H 368.556 -1.47489 0.517376 0
M  V30 3882 H 369.291 -2.79378 -1.64677 0
M  V30 3883 H 369.076 -3.91177 -0.268852 0
M  V30 3884 H 370.566 -3.98249 -1.2565 0
M  V30 3885 N 371.003 -0.499398 -1.49478 0
M  V30 3886 C 371.935 0.316575 -2.27003 0
M  V30 3887 C 372.948 0.932047 -1.33479 0
M  V30 3888 O 374.137 0.815658 -1.58774 0
M  V30 3889 C 371.237 1.46055 -3.05812 0
M  V30 3890 C 370.41 0.952679 -4.26899 0
M  V30 3891 C 369.469 1.97407 -4.87767 0
M  V30 3892 O 368.495 1.54326 -5.4788 0
M  V30 3893 N 369.697 3.30436 -4.77276 0
M  V30 3894 H 372.462 -0.348168 -2.97671 0
M  V30 3895 H 370.023 -0.33185 -1.58463 0
M  V30 3896 H 372.015 2.14135 -3.43407 0
M  V30 3897 H 370.585 2.02948 -2.37762 0
M  V30 3898 H 369.805 0.0968248 -3.94081 0
M  V30 3899 H 371.093 0.59174 -5.05347 0
M  V30 3900 H 370.491 3.68126 -4.29534 0
M  V30 3901 H 369.048 3.94235 -5.19059 0
M  V30 3902 N 372.481 1.55866 -0.233164 0
M  V30 3903 C 373.729 1.9821 0.394593 0
M  V30 3904 C 374.05 1.12234 1.59463 0
M  V30 3905 O 373.32 0.201981 1.94856 0
M  V30 3906 H 371.9 0.732034 0.148778 0
M  V30 3907 H 374.562 1.92107 -0.32876 0
M  V30 3908 H 373.658 3.03845 0.713063 0
M  V30 3909 N 373.959 -0.0401083 1.57549 0
M  V30 3910 C 374.889 -1.04384 2.08869 0
M  V30 3911 C 375.87 -1.38407 0.988817 0
M  V30 3912 O 377.055 -1.47483 1.26342 0
M  V30 3913 C 374.185 -2.34808 2.55895 0
M  V30 3914 C 373.139 -2.15057 3.70047 0
M  V30 3915 C 372.465 -3.51145 4.03239 0
M  V30 3916 C 373.765 -1.54576 4.98902 0
M  V30 3917 H 375.459 -0.616666 2.92981 0
M  V30 3918 H 373.005 -0.295184 1.40942 0
M  V30 3919 H 374.958 -3.05346 2.90417 0
M  V30 3920 H 373.682 -2.79565 1.68853 0
M  V30 3921 H 372.341 -1.46954 3.35857 0
M  V30 3922 H 371.989 -3.93529 3.13279 0
M  V30 3923 H 371.689 -3.38758 4.80122 0
M  V30 3924 H 373.213 -4.23062 4.40285 0
M  V30 3925 H 374.627 -2.15017 5.31451 0
M  V30 3926 H 373.024 -1.52796 5.80322 0
M  V30 3927 H 374.094 -0.51039 4.82206 0
M  V30 3928 N 375.437 -1.54477 -0.31217 0
M  V30 3929 C 376.685 -1.72884 -1.04668 0
M  V30 3930 C 377.006 -0.511477 -1.88173 0
M  V30 3931 O 376.276 0.474407 -1.90069 0
M  V30 3932 H 374.856 -0.637461 -0.389425 0
M  V30 3933 H 377.518 -1.91807 -0.345852 0
M  V30 3934 H 376.614 -2.61334 -1.70619 0
M  V30 3935 N 376.915 0.57481 -1.46744 0
M  V30 3936 C 378.14 1.36341 -1.56288 0
M  V30 3937 C 378.565 1.86954 -0.207347 0
M  V30 3938 O 377.923 1.62006 0.813871 0
M  V30 3939 C 377.971 2.52147 -2.57787 0
M  V30 3940 O 377.075 3.53834 -2.11838 0
M  V30 3941 H 376.416 0.405713 -0.525636 0
M  V30 3942 H 378.946 0.696453 -1.92382 0
M  V30 3943 H 378.956 2.98958 -2.77648 0
M  V30 3944 H 377.631 2.14663 -3.5622 0
M  V30 3945 H 376.208 3.1345 -2.01999 0
M  V30 3946 N 378.394 1.34581 0.820102 0
M  V30 3947 C 379.342 1.26401 1.95258 0
M  V30 3948 C 380.336 0.161553 1.68628 0
M  V30 3949 O 381.542 0.326703 1.7701 0
M  V30 3950 H 377.917 0.392749 0.64129 0
M  V30 3951 H 379.888 2.22105 1.99279 0
M  V30 3952 C 378.637 1.03919 3.31807 0
M  V30 3953 H 377.96 1.87984 3.52848 0
M  V30 3954 H 379.4 1.02232 4.11491 0
M  V30 3955 C 377.859 -0.257433 3.35915 0
M  V30 3956 O 378.389 -1.25784 3.81499 0
M  V30 3957 N 376.595 -0.291524 2.89134 0
M  V30 3958 H 376.142 0.523161 2.52232 0
M  V30 3959 H 376.1 -1.15883 2.92264 0
M  V30 3960 N 379.872 -1.04064 1.18357 0
M  V30 3961 C 380.802 -2.14001 0.934113 0
M  V30 3962 C 381.783 -1.69616 -0.128186 0
M  V30 3963 O 382.968 -1.94185 0.0244093 0
M  V30 3964 C 380.098 -3.44253 0.459066 0
M  V30 3965 C 379.052 -4.02261 1.46185 0
M  V30 3966 C 378.378 -5.27992 0.844322 0
M  V30 3967 C 379.678 -4.38432 2.83856 0
M  V30 3968 H 381.372 -2.35127 1.85352 0
M  V30 3969 H 378.918 -1.12998 0.892604 0
M  V30 3970 H 380.871 -4.20522 0.271907 0
M  V30 3971 H 379.595 -3.22813 -0.495912 0
M  V30 3972 H 378.254 -3.28074 1.63595 0
M  V30 3973 H 377.902 -5.02862 -0.117845 0
M  V30 3974 H 377.602 -5.67765 1.51384 0
M  V30 3975 H 379.126 -6.06938 0.667693 0
M  V30 3976 H 380.54 -5.05688 2.70098 0
M  V30 3977 H 378.937 -4.89254 3.47491 0
M  V30 3978 H 380.007 -3.4826 3.37406 0
M  V30 3979 N 381.35 -0.985608 -1.22978 0
M  V30 3980 C 382.596 -0.65836 -1.91816 0
M  V30 3981 C 382.929 0.806692 -1.76653 0
M  V30 3982 O 382.204 1.58252 -1.13078 0
M  V30 3983 C 382.487 -1.056 -3.44268 0
M  V30 3984 C 382.34 -2.57906 -3.68516 0
M  V30 3985 C 383.659 -0.603781 -4.35939 0
M  V30 3986 H 380.778 -0.24065 -0.696604 0
M  V30 3987 H 383.42 -1.22783 -1.44998 0
M  V30 3988 H 381.57 -0.571445 -3.84274 0
M  V30 3989 H 383.242 -3.13976 -3.3796 0
M  V30 3990 H 381.485 -3.00305 -3.13048 0
M  V30 3991 H 382.156 -2.80779 -4.75255 0
M  V30 3992 H 384.632 -1.01987 -4.03408 0
M  V30 3993 H 383.508 -0.910383 -5.41298 0
M  V30 3994 H 383.769 0.495761 -4.39312 0
M  V30 3995 N 382.828 1.3818 -0.7579 0
M  V30 3996 C 384.056 2.04301 -0.326937 0
M  V30 3997 C 384.471 1.57163 1.0462 0
M  V30 3998 O 383.828 0.746626 1.66529 0
M  V30 3999 C 383.879 3.59846 -0.345363 0
M  V30 4000 O 383.6 4.05256 -1.66432 0
M  V30 4001 C 385.101 4.4319 0.098927 0
M  V30 4002 H 382.321 0.656443 -0.139012 0
M  V30 4003 H 384.865 1.76786 -1.02796 0
M  V30 4004 H 383.02 3.86182 0.306955 0
M  V30 4005 H 383.434 4.99709 -1.59345 0
M  V30 4006 H 384.908 5.51989 0.0348745 0
M  V30 4007 H 385.385 4.23947 1.14741 0
M  V30 4008 H 385.991 4.22051 -0.52468 0
M  V30 4009 N 384.306 0.507319 1.49211 0
M  V30 4010 C 385.216 -0.272136 2.33016 0
M  V30 4011 C 386.232 -0.961206 1.45041 0
M  V30 4012 O 387.408 -0.941191 1.78055 0
M  V30 4013 C 384.473 -1.31895 3.20631 0
M  V30 4014 C 383.534 -0.642648 4.24463 0
M  V30 4015 C 382.767 -1.63959 5.07891 0
M  V30 4016 O 382.99 -2.87007 4.92933 0
M  V30 4017 O 381.924 -1.19143 5.8999 0
M  V30 4018 H 385.75 0.413982 3.00865 0
M  V30 4019 H 383.335 0.268556 1.46966 0
M  V30 4020 H 385.217 -1.92446 3.7489 0
M  V30 4021 H 383.892 -1.98788 2.5547 0
M  V30 4022 H 382.799 0.00276252 3.741 0
M  V30 4023 H 384.132 -0.0160534 4.92197 0
M  V30 4024 N 385.784 -1.5574 0.241426 0
M  V30 4025 C 387.03 -1.99104 -0.385406 0
M  V30 4026 C 387.363 -1.1293 -1.57988 0
M  V30 4027 O 386.638 -0.191449 -1.93555 0
M  V30 4028 C 386.921 -3.51087 -0.800616 0
M  V30 4029 C 386.774 -4.48028 0.398874 0
M  V30 4030 C 388.093 -4.08015 -1.64959 0
M  V30 4031 H 385.212 -0.723848 -0.138614 0
M  V30 4032 H 387.854 -1.86903 0.341642 0
M  V30 4033 H 386.004 -3.61615 -1.4201 0
M  V30 4034 H 387.676 -4.49487 1.03726 0
M  V30 4035 H 385.919 -4.21077 1.04293 0
M  V30 4036 H 386.59 -5.51962 0.0651056 0
M  V30 4037 H 389.066 -4.00555 -1.12672 0
M  V30 4038 H 387.942 -5.14635 -1.90898 0
M  V30 4039 H 388.203 -3.56131 -2.61961 0
M  V30 4040 N 387.262 0.0317525 -1.57568 0
M  V30 4041 C 388.678 0.38735 -1.54828 0
M  V30 4042 C 388.878 1.7677 -0.967187 0
M  V30 4043 O 387.934 2.45581 -0.587063 0
M  V30 4044 C 389.247 0.291667 -2.99282 0
M  V30 4045 C 390.795 0.368946 -3.10818 0
M  V30 4046 C 391.27 0.302741 -4.56998 0
M  V30 4047 N 392.761 0.361617 -4.61786 0
M  V30 4048 C 393.496 0.333238 -5.72431 0
M  V30 4049 N 392.992 0.257308 -6.92322 0
M  V30 4050 N 394.785 0.382769 -5.60795 0
M  V30 4051 H 386.936 -0.871609 -1.93692 0
M  V30 4052 H 389.199 -0.331161 -0.888277 0
M  V30 4053 H 388.905 -0.656794 -3.45513 0
M  V30 4054 H 388.779 1.08638 -3.61217 0
M  V30 4055 H 391.166 1.30784 -2.64536 0
M  V30 4056 H 391.247 -0.455066 -2.5172 0
M  V30 4057 H 390.891 -0.632473 -5.03947 0
M  V30 4058 H 390.821 1.14482 -5.14005 0
M  V30 4059 H 393.312 0.422923 -3.75526 0
M  V30 4060 H 393.625 0.24068 -7.72425 0
M  V30 4061 H 391.97 0.223396 -6.94641 0
M  V30 4062 H 395.161 0.44006 -4.66027 0
M  V30 4063 H 395.334 0.357184 -6.47015 0
M  V30 4064 N 388.74 1.54641 0.303973 0
M  V30 4065 C 389.986 1.74038 1.04109 0
M  V30 4066 C 390.319 0.523051 1.87024 0
M  V30 4067 O 389.594 -0.479874 1.88487 0
M  V30 4068 C 389.877 3.02761 1.94955 0
M  V30 4069 C 389.73 4.34787 1.1524 0
M  V30 4070 C 391.049 3.27336 2.94175 0
M  V30 4071 H 388.168 0.63323 0.377079 0
M  V30 4072 H 390.81 1.87354 0.316001 0
M  V30 4073 H 388.96 2.9154 2.56782 0
M  V30 4074 H 390.632 4.57922 0.557236 0
M  V30 4075 H 388.875 4.31407 0.455053 0
M  V30 4076 H 389.546 5.21116 1.8205 0
M  V30 4077 H 392.022 3.38148 2.42477 0
M  V30 4078 H 390.898 4.18726 3.54908 0
M  V30 4079 H 391.159 2.45491 3.67677 0
M  V30 4080 N 390.218 -0.567019 1.47046 0
M  V30 4081 C 391.448 -1.34831 1.56538 0
M  V30 4082 C 391.856 -1.8802 0.21101 0
M  V30 4083 O 391.199 -1.65152 -0.804387 0
M  V30 4084 C 391.261 -2.56139 2.52256 0
M  V30 4085 C 390.925 -2.24307 3.98165 0
M  V30 4086 C 391.922 -1.82192 4.86931 0
M  V30 4087 C 389.607 -2.35968 4.43423 0
M  V30 4088 C 391.601 -1.52153 6.18973 0
M  V30 4089 C 389.288 -2.05542 5.75496 0
M  V30 4090 C 390.286 -1.63701 6.63092 0
M  V30 4091 O 389.974 -1.33657 7.92711 0
M  V30 4092 H 389.706 -0.417683 0.531523 0
M  V30 4093 H 392.26 -0.694726 1.93294 0
M  V30 4094 H 390.49 -3.24356 2.10548 0
M  V30 4095 H 392.179 -3.18214 2.51982 0
M  V30 4096 H 392.945 -1.72684 4.53217 0
M  V30 4097 H 388.824 -2.67495 3.75456 0
M  V30 4098 H 392.368 -1.19421 6.87302 0
M  V30 4099 H 388.265 -2.14679 6.08755 0
M  V30 4100 H 389.033 -1.4737 8.05124 0
M  V30 4101 N 391.696 -1.35014 -0.812953 0
M  V30 4102 C 392.644 -1.27435 -1.94585 0
M  V30 4103 C 393.638 -0.170494 -1.6854 0
M  V30 4104 O 394.844 -0.336085 -1.76835 0
M  V30 4105 H 391.219 -0.396144 -0.639198 0
M  V30 4106 H 393.19 -2.23158 -1.98098 0
M  V30 4107 C 391.939 -1.05677 -3.31252 0
M  V30 4108 H 391.262 -1.89853 -3.51846 0
M  V30 4109 H 392.702 -1.04413 -4.10943 0
M  V30 4110 C 391.161 0.239615 -3.36047 0
M  V30 4111 O 391.691 1.23759 -3.8216 0
M  V30 4112 N 389.897 0.276186 -2.89285 0
M  V30 4113 H 389.444 -0.53653 -2.51951 0
M  V30 4114 H 389.402 1.14332 -2.92875 0
M  V30 4115 N 393.175 1.03435 -1.18907 0
M  V30 4116 C 394.421 1.7713 -0.99982 0
M  V30 4117 C 394.776 1.86695 0.465049 0
M  V30 4118 O 394.069 1.36866 1.34083 0
M  V30 4119 C 394.263 3.19792 -1.59586 0
M  V30 4120 C 394.092 3.24134 -3.11717 0
M  V30 4121 C 392.862 3.32398 -3.80578 0
M  V30 4122 C 395.06 3.11625 -4.09138 0
M  V30 4123 N 393.042 3.26055 -5.20155 0
M  V30 4124 C 394.413 3.12855 -5.35277 0
M  V30 4125 C 396.468 2.95713 -4.00572 0
M  V30 4126 C 395.171 2.99805 -6.53842 0
M  V30 4127 C 397.197 2.84011 -5.1874 0
M  V30 4128 C 396.559 2.8589 -6.43775 0
M  V30 4129 H 392.658 0.659683 -0.419931 0
M  V30 4130 H 395.242 1.2317 -1.50789 0
M  V30 4131 H 393.413 3.72085 -1.11389 0
M  V30 4132 H 395.145 3.81819 -1.3415 0
M  V30 4133 H 391.9 3.38392 -3.31342 0
M  V30 4134 H 392.324 3.26307 -5.93172 0
M  V30 4135 H 396.966 2.93086 -3.0473 0
M  V30 4136 H 394.684 3.01184 -7.49876 0
M  V30 4137 H 398.27 2.72744 -5.13909 0
M  V30 4138 H 397.15 2.76931 -7.33675 0
M  V30 4139 N 394.653 0.992116 1.22453 0
M  V30 4140 C 395.9 0.667534 1.91181 0
M  V30 4141 C 396.228 -0.800317 1.77271 0
M  V30 4142 O 395.483 -1.59421 1.13505 0
M  V30 4143 C 395.782 1.01832 3.42586 0
M  V30 4144 C 395.448 2.47831 3.76684 0
M  V30 4145 C 394.11 2.87729 3.85701 0
M  V30 4146 C 396.462 3.42466 3.92895 0
M  V30 4147 C 393.79 4.21252 4.08367 0
M  V30 4148 C 396.142 4.75648 4.17064 0
M  V30 4149 C 394.806 5.15288 4.24305 0
M  V30 4150 H 394.076 0.244268 0.699581 0
M  V30 4151 H 396.723 1.24816 1.45235 0
M  V30 4152 H 395.028 0.355769 3.90181 0
M  V30 4153 H 396.725 0.745228 3.94014 0
M  V30 4154 H 393.315 2.15905 3.70247 0
M  V30 4155 H 397.499 3.12814 3.85307 0
M  V30 4156 H 392.755 4.51554 4.122 0
M  V30 4157 H 396.929 5.48924 4.2855 0
M  V30 4158 H 394.556 6.18769 4.41621 0
M  V30 4159 N 396.131 -1.37776 0.765217 0
M  V30 4160 C 397.094 -2.28686 0.153416 0
M  V30 4161 C 398.094 -1.47727 -0.635081 0
M  V30 4162 O 399.284 -1.68027 -0.459632 0
M  V30 4163 C 396.416 -3.31608 -0.790495 0
M  V30 4164 H 397.609 -2.84297 0.954723 0
M  V30 4165 H 395.162 -1.46932 0.53299 0
M  V30 4166 H 395.897 -2.81109 -1.61705 0
M  V30 4167 H 395.682 -3.9144 -0.227348 0
M  V30 4168 H 397.172 -3.99559 -1.21419 0
M  V30 4169 N 397.609 -0.515225 -1.4894 0
M  V30 4170 C 398.557 0.269115 -2.31038 0
M  V30 4171 C 399.551 0.949443 -1.40292 0
M  V30 4172 O 400.757 0.87551 -1.57273 0
M  V30 4173 H 397.132 0.10565 -0.744542 0
M  V30 4174 H 399.103 -0.443096 -2.95092 0
M  V30 4175 C 397.852 1.31213 -3.21991 0
M  V30 4176 H 397.175 0.798034 -3.91754 0
M  V30 4177 H 398.615 1.83263 -3.82349 0
M  V30 4178 C 397.074 2.33791 -2.42576 0
M  V30 4179 O 397.604 3.3995 -2.14003 0
M  V30 4180 N 395.81 2.06625 -2.0434 0
M  V30 4181 H 395.357 1.20314 -2.27777 0
M  V30 4182 H 395.315 2.75483 -1.51514 0
M  V30 4183 N 399.087 1.5561 -0.249682 0
M  V30 4184 C 400.503 1.59254 0.105103 0
M  V30 4185 C 400.703 1.26685 1.56694 0
M  V30 4186 O 399.759 1.0155 2.31179 0
M  V30 4187 C 401.072 2.99687 -0.246592 0
M  V30 4188 C 402.62 3.12416 -0.191118 0
M  V30 4189 C 403.095 4.55074 -0.516885 0
M  V30 4190 N 404.586 4.60835 -0.467489 0
M  V30 4191 C 405.321 5.69201 -0.69268 0
M  V30 4192 N 404.817 6.85817 -0.981146 0
M  V30 4193 N 406.61 5.58635 -0.623198 0
M  V30 4194 H 398.761 1.75049 -1.20298 0
M  V30 4195 H 401.024 0.815003 -0.484225 0
M  V30 4196 H 400.73 3.28267 -1.26228 0
M  V30 4197 H 400.604 3.74798 0.424962 0
M  V30 4198 H 402.991 2.83615 0.815247 0
M  V30 4199 H 403.072 2.39573 -0.896563 0
M  V30 4200 H 402.716 4.84596 -1.52082 0
M  V30 4201 H 402.646 5.26181 0.210068 0
M  V30 4202 H 405.137 3.7705 -0.253373 0
M  V30 4203 H 405.45 7.64341 -1.14032 0
M  V30 4204 H 403.795 6.87494 -1.01865 0
M  V30 4205 H 406.986 4.66406 -0.397863 0
M  V30 4206 H 407.159 6.43017 -0.802093 0
M  V30 4207 N 400.565 -0.0233959 1.57583 0
M  V30 4208 C 401.981 -0.379134 1.55031 0
M  V30 4209 C 402.181 -1.76255 0.976548 0
M  V30 4210 O 401.237 -2.45266 0.600078 0
M  V30 4211 C 402.55 -0.275792 2.99433 0
M  V30 4212 C 404.098 -0.352458 3.11009 0
M  V30 4213 C 404.573 -0.278501 4.57152 0
M  V30 4214 N 406.064 -0.337123 4.61972 0
M  V30 4215 C 406.799 -0.302876 5.726 0
M  V30 4216 N 406.295 -0.220589 6.92449 0
M  V30 4217 N 408.088 -0.353023 5.6099 0
M  V30 4218 H 400.239 0.881869 1.93227 0
M  V30 4219 H 402.502 0.335867 0.886509 0
M  V30 4220 H 402.208 0.675108 3.4516 0
M  V30 4221 H 402.082 -1.06721 3.61788 0
M  V30 4222 H 404.469 -1.29379 2.65226 0
M  V30 4223 H 404.55 0.468409 2.51475 0
M  V30 4224 H 404.194 0.659189 5.03604 0
M  V30 4225 H 404.124 -1.11755 5.14605 0
M  V30 4226 H 406.615 -0.403002 3.75745 0
M  V30 4227 H 406.928 -0.199713 7.72542 0
M  V30 4228 H 405.273 -0.186555 6.9475 0
M  V30 4229 H 408.464 -0.415339 4.66254 0
M  V30 4230 H 408.637 -0.322866 6.47195 0
M  V30 4231 N 402.043 -1.548 -0.295768 0
M  V30 4232 C 402.99 -1.86113 -1.36494 0
M  V30 4233 C 403.96 -0.7105 -1.50137 0
M  V30 4234 O 405.145 -0.959626 -1.64912 0
M  V30 4235 C 402.285 -2.11861 -2.72413 0
M  V30 4236 C 401.398 -3.39471 -2.67177 0
M  V30 4237 C 400.533 -3.55035 -3.95125 0
M  V30 4238 C 399.572 -4.76418 -3.84308 0
M  V30 4239 N 398.709 -4.8876 -5.04042 0
M  V30 4240 H 403.549 -2.77314 -1.09091 0
M  V30 4241 H 401.086 -1.37315 -0.52753 0
M  V30 4242 H 403.044 -2.24786 -3.51464 0
M  V30 4243 H 401.674 -1.2392 -2.98066 0
M  V30 4244 H 400.726 -3.35139 -1.79962 0
M  V30 4245 H 402.038 -4.28646 -2.55076 0
M  V30 4246 H 401.192 -3.67653 -4.82614 0
M  V30 4247 H 399.931 -2.64002 -4.10066 0
M  V30 4248 H 398.936 -4.63827 -2.95202 0
M  V30 4249 H 400.161 -5.68863 -3.70906 0
M  V30 4250 H 398.107 -4.00652 -5.19436 0
M  V30 4251 H 398.024 -5.71945 -4.94384 0
M  V30 4252 H 399.292 -5.0574 -5.93167 0
M  V30 4253 N 403.521 0.559213 -1.47345 0
M  V30 4254 C 404.431 1.69388 -1.62311 0
M  V30 4255 C 405.447 1.6648 -0.505993 0
M  V30 4256 O 406.623 1.85964 -0.773262 0
M  V30 4257 C 403.688 3.05894 -1.63185 0
M  V30 4258 C 402.749 3.19885 -2.86307 0
M  V30 4259 C 401.982 4.49879 -2.87131 0
M  V30 4260 O 402.205 5.35217 -1.97229 0
M  V30 4261 O 401.139 4.67618 -3.78968 0
M  V30 4262 H 404.965 1.59706 -2.58317 0
M  V30 4263 H 402.55 0.728989 -1.30407 0
M  V30 4264 H 404.432 3.87133 -1.66451 0
M  V30 4265 H 403.107 3.15964 -0.70345 0
M  V30 4266 H 402.014 2.38052 -2.88587 0
M  V30 4267 H 403.347 3.14718 -3.78435 0
M  V30 4268 N 404.999 1.35443 0.805782 0
M  V30 4269 C 405.909 1.30546 1.94923 0
M  V30 4270 C 406.925 0.210233 1.72725 0
M  V30 4271 O 408.101 0.43975 1.9654 0
M  V30 4272 C 405.166 1.07782 3.29521 0
M  V30 4273 C 404.227 2.26625 3.64609 0
M  V30 4274 C 403.46 2.04938 4.92784 0
M  V30 4275 O 403.683 1.01624 5.61274 0
M  V30 4276 O 402.617 2.9232 5.26149 0
M  V30 4277 H 406.443 2.26779 2.02002 0
M  V30 4278 H 404.028 1.15823 0.943682 0
M  V30 4279 H 405.91 0.969392 4.10098 0
M  V30 4280 H 404.585 0.146003 3.23371 0
M  V30 4281 H 403.492 2.43033 2.84404 0
M  V30 4282 H 404.825 3.18257 3.75464 0
M  V30 4283 N 406.477 -1.02803 1.19454 0
M  V30 4284 C 407.44 -2.09264 0.934955 0
M  V30 4285 C 408.44 -1.60576 -0.0849015 0
M  V30 4286 O 409.63 -1.73554 0.149933 0
M  V30 4287 C 406.762 -3.38482 0.40531 0
M  V30 4288 H 407.955 -2.33726 1.87916 0
M  V30 4289 H 405.508 -1.19426 1.00832 0
M  V30 4290 H 406.243 -3.19689 -0.544899 0
M  V30 4291 H 406.028 -3.75142 1.14065 0
M  V30 4292 H 407.518 -4.16894 0.242806 0
M  V30 4293 N 407.956 -0.998596 -1.21925 0
M  V30 4294 C 409.203 -0.677663 -1.90824 0
M  V30 4295 C 409.531 0.790905 -1.77693 0
M  V30 4296 O 408.786 1.58817 -1.14349 0
M  V30 4297 C 409.085 -1.03648 -3.42041 0
M  V30 4298 C 408.751 -2.49825 -3.75364 0
M  V30 4299 C 407.413 -2.8977 -3.8417 0
M  V30 4300 C 409.765 -3.44545 -3.91073 0
M  V30 4301 C 407.093 -4.23412 -4.06127 0
M  V30 4302 C 409.445 -4.77853 -4.14535 0
M  V30 4303 C 408.109 -5.17531 -4.21566 0
M  V30 4304 H 407.379 -0.247975 -0.698276 0
M  V30 4305 H 410.026 -1.25584 -1.44571 0
M  V30 4306 H 408.331 -0.376457 -3.89987 0
M  V30 4307 H 410.028 -0.766113 -3.93614 0
M  V30 4308 H 406.618 -2.17866 -3.69097 0
M  V30 4309 H 410.802 -3.14853 -3.83642 0
M  V30 4310 H 406.058 -4.53734 -4.09799 0
M  V30 4311 H 410.232 -5.51189 -4.25633 0
M  V30 4312 H 407.859 -6.21102 -4.38333 0
M  V30 4313 N 409.434 1.37368 -0.772513 0
M  V30 4314 C 410.85 1.53059 -0.452231 0
M  V30 4315 C 411.05 1.73065 1.03203 0
M  V30 4316 O 410.106 1.75245 1.81784 0
M  V30 4317 C 411.419 2.72659 -1.26797 0
M  V30 4318 C 412.967 2.86521 -1.25995 0
M  V30 4319 C 413.442 4.09105 -2.05905 0
M  V30 4320 N 414.933 4.16219 -2.03263 0
M  V30 4321 C 415.668 5.10107 -2.61875 0
M  V30 4322 N 415.164 6.09547 -3.29278 0
M  V30 4323 N 416.957 5.02596 -2.51701 0
M  V30 4324 H 409.108 1.22634 -1.7342 0
M  V30 4325 H 411.371 0.597206 -0.736239 0
M  V30 4326 H 411.077 2.64343 -2.31982 0
M  V30 4327 H 410.951 3.66363 -0.897672 0
M  V30 4328 H 413.338 2.94308 -0.216081 0
M  V30 4329 H 413.419 1.93774 -1.66989 0
M  V30 4330 H 413.063 4.0208 -3.10313 0
M  V30 4331 H 412.993 5.00968 -1.62292 0
M  V30 4332 H 415.484 3.45012 -1.54192 0
M  V30 4333 H 415.797 6.77718 -3.71374 0
M  V30 4334 H 414.142 6.09824 -3.33377 0
M  V30 4335 H 417.333 4.23855 -1.98657 0
M  V30 4336 H 417.506 5.75582 -2.97673 0
M  V30 4337 N 410.912 0.523116 1.48665 0
M  V30 4338 C 411.862 -0.263106 2.26477 0
M  V30 4339 C 412.846 -0.916005 1.32281 0
M  V30 4340 O 414.038 -0.819946 1.56863 0
M  V30 4341 C 411.167 -1.31361 3.17174 0
M  V30 4342 C 410.253 -0.665849 4.1884 0
M  V30 4343 N 410.644 0.244434 5.05209 0
M  V30 4344 C 408.942 -0.923863 4.36326 0
M  V30 4345 C 409.643 0.617443 5.78414 0
M  V30 4346 N 408.619 -0.0198686 5.43596 0
M  V30 4347 H 412.421 0.437295 2.90629 0
M  V30 4348 H 409.935 0.340675 1.58787 0
M  V30 4349 H 411.932 -1.89052 3.71571 0
M  V30 4350 H 410.592 -2.01546 2.54576 0
M  V30 4351 H 411.603 0.616621 5.14216 0
M  V30 4352 H 408.28 -1.6168 3.84923 0
M  V30 4353 H 409.67 1.36346 6.57921 0
M  V30 4354 N 412.39 -1.55475 0.257931 0
M  V30 4355 C 413.337 -2.21837 -0.636939 0
M  V30 4356 C 414.307 -1.18596 -1.16294 0
M  V30 4357 O 415.492 -1.47081 -1.21539 0
M  V30 4358 C 412.632 -2.9301 -1.82317 0
M  V30 4359 C 411.745 -4.10931 -1.33265 0
M  V30 4360 C 410.88 -4.69791 -2.47931 0
M  V30 4361 C 409.919 -5.7994 -1.95796 0
M  V30 4362 N 409.056 -6.32935 -3.0387 0
M  V30 4363 H 413.896 -2.9793 -0.0643591 0
M  V30 4364 H 411.433 -1.47086 -0.0200031 0
M  V30 4365 H 413.391 -3.3248 -2.52018 0
M  V30 4366 H 412.021 -2.1937 -2.36805 0
M  V30 4367 H 411.073 -3.76699 -0.52931 0
M  V30 4368 H 412.385 -4.90417 -0.910654 0
M  V30 4369 H 411.539 -5.11892 -3.25656 0
M  V30 4370 H 410.278 -3.89545 -2.93438 0
M  V30 4371 H 409.283 -5.37305 -1.16546 0
M  V30 4372 H 410.508 -6.62043 -1.51246 0
M  V30 4373 H 408.454 -5.55591 -3.48791 0
M  V30 4374 H 408.371 -7.07645 -2.66035 0
M  V30 4375 H 409.639 -6.79695 -3.81621 0
M  V30 4376 N 413.868 0.0150385 -1.57593 0
M  V30 4377 C 414.798 1.01047 -2.10503 0
M  V30 4378 C 415.779 1.36816 -1.01071 0
M  V30 4379 O 416.964 1.45455 -1.28672 0
M  V30 4380 C 414.094 2.30708 -2.59598 0
M  V30 4381 C 413.048 2.09142 -3.73421 0
M  V30 4382 C 412.374 3.44685 -4.08774 0
M  V30 4383 C 413.674 1.46619 -5.01298 0
M  V30 4384 H 415.368 0.569978 -2.93925 0
M  V30 4385 H 412.914 0.272724 -1.41394 0
M  V30 4386 H 414.867 3.00687 -2.95238 0
M  V30 4387 H 413.591 2.76843 -1.73279 0
M  V30 4388 H 412.25 1.41592 -3.38153 0
M  V30 4389 H 411.898 3.88495 -3.195 0
M  V30 4390 H 411.598 3.31077 -4.8545 0
M  V30 4391 H 413.122 4.16004 -4.4696 0
M  V30 4392 H 414.536 2.06535 -5.34805 0
M  V30 4393 H 412.933 1.43544 -5.82679 0
M  V30 4394 H 414.003 0.433611 -4.82957 0
M  V30 4395 N 415.346 1.54954 0.287554 0
M  V30 4396 C 416.309 1.86076 1.33823 0
M  V30 4397 C 417.309 0.734414 1.43049 0
M  V30 4398 O 418.499 1.00266 1.42452 0
M  V30 4399 C 415.631 2.05305 2.72144 0
M  V30 4400 H 416.824 2.79984 1.07465 0
M  V30 4401 H 414.377 1.47223 0.524902 0
M  V30 4402 H 415.112 1.1373 3.03704 0
M  V30 4403 H 414.897 2.873 2.66836 0
M  V30 4404 H 416.387 2.30706 3.48087 0
M  V30 4405 N 416.824 -0.551391 1.4764 0
M  V30 4406 C 417.757 -1.6738 1.5511 0
M  V30 4407 C 418.735 -1.5753 0.402856 0
M  V30 4408 O 419.919 -1.78307 0.611475 0
M  V30 4409 C 417.046 -3.05661 1.45908 0
M  V30 4410 C 416.092 -3.33938 2.65307 0
M  V30 4411 S 416.925 -3.22553 4.27457 0
M  V30 4412 C 418.081 -4.63317 4.20818 0
M  V30 4413 H 418.314 -1.6079 2.50068 0
M  V30 4414 H 415.847 -0.732674 1.35909 0
M  V30 4415 H 417.805 -3.8542 1.41286 0
M  V30 4416 H 416.466 -3.09711 0.523248 0
M  V30 4417 H 415.659 -4.34761 2.54948 0
M  V30 4418 H 415.261 -2.61809 2.67081 0
M  V30 4419 H 417.553 -5.54391 3.89431 0
M  V30 4420 H 418.496 -4.78732 5.21748 0
M  V30 4421 H 418.904 -4.41636 3.51593 0
M  V30 4422 N 418.302 -1.35869 -0.798587 0
M  V30 4423 C 419.579 -1.20145 -1.54352 0
M  V30 4424 C 419.959 0.216161 -2.0999 0
M  V30 4425 O 419.307 1.22068 -1.93162 0
M  V30 4426 C 419.517 -2.27602 -2.64572 0
M  V30 4427 C 420.865 -2.63811 -3.32699 0
M  V30 4428 O 421.889 -2.26576 -2.74849 0
M  V30 4429 O 420.748 -3.27866 -4.37226 0
M  V30 4430 H 417.842 -0.467248 -0.682355 0
M  V30 4431 H 420.388 -1.47574 -0.837859 0
M  V30 4432 H 419.16 -3.2265 -2.21388 0
M  V30 4433 H 418.783 -2.01488 -3.42766 0
M  V30 4434 N 419.78 1.02168 -1.19998 0
M  V30 4435 C 421.008 1.79296 -1.03249 0
M  V30 4436 C 421.423 1.84103 0.418502 0
M  V30 4437 O 420.78 1.29031 1.29063 0
M  V30 4438 C 420.831 3.24007 -1.60319 0
M  V30 4439 O 420.552 3.19512 -2.99739 0
M  V30 4440 C 422.053 4.17704 -1.48453 0
M  V30 4441 H 419.273 0.564016 -0.363493 0
M  V30 4442 H 421.817 1.28639 -1.58973 0
M  V30 4443 H 419.972 3.7183 -1.08727 0
M  V30 4444 H 420.386 4.10306 -3.26725 0
M  V30 4445 H 421.86 5.17104 -1.93153 0
M  V30 4446 H 422.337 4.37029 -0.436193 0
M  V30 4447 H 422.943 3.7576 -1.99211 0
M  V30 4448 N 421.258 1.00505 1.21394 0
M  V30 4449 C 422.488 0.705584 1.94178 0
M  V30 4450 C 422.896 -0.735846 1.74304 0
M  V30 4451 O 422.239 -1.50954 1.04683 0
M  V30 4452 C 422.301 0.94689 3.46806 0
M  V30 4453 C 421.965 2.37517 3.90429 0
M  V30 4454 C 422.962 3.35539 3.97127 0
M  V30 4455 C 420.647 2.71284 4.22742 0
M  V30 4456 C 422.641 4.65395 4.3553 0
M  V30 4457 C 420.328 4.01356 4.60822 0
M  V30 4458 C 421.326 4.98223 4.67186 0
M  V30 4459 O 421.014 6.25969 5.04399 0
M  V30 4460 H 420.746 0.259216 0.624326 0
M  V30 4461 H 423.3 1.34592 1.55159 0
M  V30 4462 H 421.53 0.249386 3.85895 0
M  V30 4463 H 423.219 0.640804 4.0081 0
M  V30 4464 H 423.985 3.10786 3.7234 0
M  V30 4465 H 419.864 1.96581 4.16985 0
M  V30 4466 H 423.408 5.41002 4.40412 0
M  V30 4467 H 419.305 4.25893 4.85063 0
M  V30 4468 H 420.073 6.30085 5.22431 0
M  V30 4469 N 422.737 -1.36956 0.779787 0
M  V30 4470 C 423.962 -2.04283 0.358224 0
M  V30 4471 C 424.387 -1.58422 -1.01411 0
M  V30 4472 O 423.745 -0.748179 -1.65142 0
M  V30 4473 C 423.793 -3.58152 0.419479 0
M  V30 4474 O 422.897 -4.08342 -0.577142 0
M  V30 4475 H 422.238 -0.645967 0.153698 0
M  V30 4476 H 424.768 -1.75108 1.05822 0
M  V30 4477 H 424.778 -4.07041 0.279636 0
M  V30 4478 H 423.453 -3.90886 1.42061 0
M  V30 4479 H 422.03 -3.70751 -0.399755 0
M  V30 4480 N 424.215 -0.530993 -1.48385 0
M  V30 4481 C 425.463 0.00273189 -2.021 0
M  V30 4482 C 425.784 1.34672 -1.41027 0
M  V30 4483 O 425.054 1.8724 -0.576012 0
M  V30 4484 H 423.634 0.00399774 -0.746989 0
M  V30 4485 H 426.296 -0.695054 -1.82085 0
M  V30 4486 H 425.392 0.11031 -3.11905 0
M  V30 4487 N 425.693 1.55336 -0.266172 0
M  V30 4488 C 427.104 1.85236 0.233315 0
M  V30 4489 C 427.455 1.18816 1.56132 0
M  V30 4490 O 426.58 0.473307 2.11161 0
M  V30 4491 C 427.175 3.36059 0.430113 0
M  V30 4492 C 425.734 3.66116 0.873842 0
M  V30 4493 C 424.881 2.77274 -0.0380016 0
M  V30 4494 H 427.832 1.51004 -0.488214 0
M  V30 4495 H 427.853 3.58681 1.26998 0
M  V30 4496 H 427.365 3.84373 -0.536588 0
M  V30 4497 H 425.466 3.23295 1.85233 0
M  V30 4498 H 425.579 4.73699 0.717358 0
M  V30 4499 H 423.943 2.50198 0.476759 0
M  V30 4500 H 424.726 3.284 -1.00042 0
M  V30 4501 N 427.171 -0.0066808 1.57599 0
M  V30 4502 C 428.582 -0.550379 1.78403 0
M  V30 4503 C 428.933 -1.74339 0.900014 0
M  V30 4504 O 428.058 -2.16166 0.100713 0
M  V30 4505 C 428.653 -1.00523 3.23544 0
M  V30 4506 C 427.212 -1.49428 3.45468 0
M  V30 4507 C 426.359 -0.442444 2.73748 0
M  V30 4508 H 429.31 0.219508 1.57175 0
M  V30 4509 H 429.331 -1.87157 3.31289 0
M  V30 4510 H 428.843 -0.136735 3.87859 0
M  V30 4511 H 426.944 -2.3839 2.86358 0
M  V30 4512 H 427.057 -1.52635 4.54136 0
M  V30 4513 H 425.421 -0.902578 2.38171 0
M  V30 4514 H 426.204 0.416973 3.40758 0
M  V30 4515 N 428.649 -1.55105 -0.279332 0
M  V30 4516 C 430.06 -1.66186 -0.850832 0
M  V30 4517 C 430.411 -0.584707 -1.87285 0
M  V30 4518 O 429.536 0.274919 -2.14647 0
M  V30 4519 C 430.131 -3.01264 -1.55001 0
M  V30 4520 C 428.69 -3.14394 -2.06963 0
M  V30 4521 C 427.837 -2.61959 -0.909536 0
M  V30 4522 H 430.788 -1.58602 -0.0558235 0
M  V30 4523 H 430.809 -2.93899 -2.41669 0
M  V30 4524 H 430.321 -3.7964 -0.805931 0
M  V30 4525 H 428.422 -2.4078 -2.84352 0
M  V30 4526 H 428.535 -4.20867 -2.28928 0
M  V30 4527 H 426.899 -2.18957 -1.30116 0
M  V30 4528 H 427.682 -3.42833 -0.179062 0
M  V30 4529 N 430.127 0.543554 -1.4793 0
M  V30 4530 C 431.375 1.29752 -1.54948 0
M  V30 4531 C 431.696 1.93764 -0.219242 0
M  V30 4532 O 430.966 1.80639 0.75805 0
M  V30 4533 H 429.546 0.481874 -0.570795 0
M  V30 4534 H 432.208 0.633636 -1.84312 0
M  V30 4535 H 431.304 2.08392 -2.32334 0
M  V30 4536 N 431.605 1.3629 0.791371 0
M  V30 4537 C 433.016 1.27225 1.36641 0
M  V30 4538 C 433.367 -0.0887968 1.95999 0
M  V30 4539 O 432.492 -0.990207 1.92416 0
M  V30 4540 C 433.087 2.30375 2.48421 0
M  V30 4541 C 431.646 2.25004 3.01746 0
M  V30 4542 C 430.793 2.15259 1.7481 0
M  V30 4543 H 433.744 1.47198 0.593173 0
M  V30 4544 H 433.765 1.93905 3.27385 0
M  V30 4545 H 433.277 3.29422 2.05189 0
M  V30 4546 H 431.378 1.29417 3.49403 0
M  V30 4547 H 431.491 3.1761 3.58693 0
M  V30 4548 H 429.855 1.61482 1.96966 0
M  V30 4549 H 430.638 3.16191 1.33709 0
M  V30 4550 N 433.083 -1.0153 1.20538 0
M  V30 4551 C 434.331 -1.74803 1.01432 0
M  V30 4552 C 434.652 -1.8963 -0.454456 0
M  V30 4553 O 433.922 -1.43975 -1.32846 0
M  V30 4554 H 432.502 -0.647598 0.372324 0
M  V30 4555 H 435.164 -1.22402 1.5167 0
M  V30 4556 H 434.26 -2.75114 1.47373 0
M  V30 4557 N 434.561 -1.01147 -1.20859 0
M  V30 4558 C 435.972 -0.730205 -1.71828 0
M  V30 4559 C 436.323 0.751662 -1.8123 0
M  V30 4560 O 435.448 1.58686 -1.47132 0
M  V30 4561 C 436.043 -1.31885 -3.12077 0
M  V30 4562 C 434.602 -1.08656 -3.60376 0
M  V30 4563 C 433.749 -1.42769 -2.37723 0
M  V30 4564 H 436.7 -1.18158 -1.05945 0
M  V30 4565 H 436.721 -0.706793 -3.73878 0
M  V30 4566 H 436.233 -2.39737 -3.05201 0
M  V30 4567 H 434.334 -0.0254814 -3.72591 0
M  V30 4568 H 434.447 -1.76301 -4.45483 0
M  V30 4569 H 432.811 -0.846603 -2.40218 0
M  V30 4570 H 433.594 -2.51666 -2.33493 0
M  V30 4571 N 436.039 1.36541 -0.78704 0
M  V30 4572 C 437.287 1.98911 -0.357633 0
M  V30 4573 C 437.608 1.62778 1.07371 0
M  V30 4574 O 436.878 0.900612 1.73971 0
M  V30 4575 H 435.458 0.735734 -0.129246 0
M  V30 4576 H 438.12 1.66776 -1.00855 0
M  V30 4577 H 437.216 3.08874 -0.447549 0
M  V30 4578 N 437.518 0.538854 1.48102 0
M  V30 4579 C 438.929 0.100679 1.86428 0
M  V30 4580 C 439.28 -1.32447 1.44749 0
M  V30 4581 O 438.405 -1.99339 0.842199 0
M  V30 4582 C 439 0.175933 3.38343 0
M  V30 4583 C 437.559 -0.207098 3.7583 0
M  V30 4584 C 436.706 0.531741 2.72154 0
M  V30 4585 H 439.657 0.749614 1.3988 0
M  V30 4586 H 439.678 -0.610144 3.75576 0
M  V30 4587 H 439.19 1.21328 3.68648 0
M  V30 4588 H 437.291 -1.24626 3.5114 0
M  V30 4589 H 437.404 0.138687 4.78899 0
M  V30 4590 H 435.768 -0.0230462 2.5469 0
M  V30 4591 H 436.551 1.56989 3.05302 0
M  V30 4592 N 438.996 -1.55193 0.274407 0
M  V30 4593 C 439.959 -2.212 -0.600279 0
M  V30 4594 C 440.959 -1.18963 -1.08187 0
M  V30 4595 O 442.149 -1.43873 -0.982158 0
M  V30 4596 C 439.281 -2.87739 -1.82809 0
M  V30 4597 H 440.474 -2.9989 -0.0239682 0
M  V30 4598 H 438.027 -1.5628 0.0250192 0
M  V30 4599 H 438.762 -2.13058 -2.44493 0
M  V30 4600 H 438.547 -3.62658 -1.49069 0
M  V30 4601 H 440.037 -3.38171 -2.45011 0
M  V30 4602 N 440.474 -0.00167713 -1.576 0
M  V30 4603 C 441.404 0.988091 -2.11563 0
M  V30 4604 C 442.385 1.35736 -1.02517 0
M  V30 4605 O 443.57 1.44082 -1.30208 0
M  V30 4606 C 440.7 2.27941 -2.62031 0
M  V30 4607 C 439.654 2.0517 -3.75619 0
M  V30 4608 C 438.98 3.4033 -4.12407 0
M  V30 4609 C 440.28 1.41294 -5.02825 0
M  V30 4610 H 441.974 0.538771 -2.94513 0
M  V30 4611 H 439.52 0.257712 -1.41675 0
M  V30 4612 H 441.473 2.97539 -2.9841 0
M  V30 4613 H 440.197 2.74989 -1.76205 0
M  V30 4614 H 438.856 1.37998 -3.39635 0
M  V30 4615 H 438.504 3.85085 -3.23603 0
M  V30 4616 H 438.204 3.25909 -4.88935 0
M  V30 4617 H 439.728 4.1124 -4.51347 0
M  V30 4618 H 441.142 2.00851 -5.36965 0
M  V30 4619 H 439.539 1.37356 -5.84169 0
M  V30 4620 H 440.609 0.382362 -4.8339 0
M  V30 4621 N 441.952 1.55251 0.271103 0
M  V30 4622 C 443.363 1.66635 0.842007 0
M  V30 4623 C 443.714 0.594631 1.86972 0
M  V30 4624 O 442.839 -0.263532 2.14789 0
M  V30 4625 C 443.434 3.02082 1.53401 0
M  V30 4626 C 441.993 3.15487 2.05293 0
M  V30 4627 C 441.14 2.62438 0.895631 0
M  V30 4628 H 444.091 1.58629 0.0474117 0
M  V30 4629 H 444.112 2.95176 2.40107 0
M  V30 4630 H 443.624 3.80062 0.785786 0
M  V30 4631 H 441.725 2.42284 2.83071 0
M  V30 4632 H 441.838 4.22075 2.26693 0
M  V30 4633 H 440.202 2.19644 1.28953 0
M  V30 4634 H 440.985 3.42923 0.160878 0
M  V30 4635 N 443.43 -0.535701 1.48216 0
M  V30 4636 C 444.393 -1.623 1.61838 0
M  V30 4637 C 445.393 -1.53087 0.492024 0
M  V30 4638 O 446.583 -1.5686 0.757668 0
M  V30 4639 C 443.715 -3.01907 1.58319 0
M  V30 4640 H 444.908 -1.51564 2.58783 0
M  V30 4641 H 442.461 -0.757317 1.36727 0
M  V30 4642 H 443.196 -3.18155 0.628299 0
M  V30 4643 H 442.981 -3.10003 2.40085 0
M  V30 4644 H 444.471 -3.80969 1.71033 0
M  V30 4645 N 444.908 -1.36708 -0.784132 0
M  V30 4646 C 445.858 -1.2799 -1.88686 0
M  V30 4647 C 446.842 -0.170282 -1.59996 0
M  V30 4648 O 448.034 -0.403571 -1.72338 0
M  V30 4649 C 445.163 -1.07674 -3.25977 0
M  V30 4650 C 444.249 -2.23127 -3.60659 0
M  V30 4651 N 444.64 -3.48467 -3.66612 0
M  V30 4652 C 442.938 -2.15009 -3.90752 0
M  V30 4653 C 443.639 -4.24525 -3.97685 0
M  V30 4654 N 442.615 -3.53524 -4.12943 0
M  V30 4655 H 446.417 -2.22927 -1.91522 0
M  V30 4656 H 443.931 -1.29503 -0.979933 0
M  V30 4657 H 445.928 -0.995151 -4.04849 0
M  V30 4658 H 444.588 -0.13643 -3.24413 0
M  V30 4659 H 445.599 -3.82534 -3.49125 0
M  V30 4660 H 442.276 -1.28963 -3.97083 0
M  V30 4661 H 443.666 -5.32944 -4.0917 0
M  V30 4662 N 446.386 1.0089 -1.21074 0
M  V30 4663 C 447.611 1.78727 -1.05221 0
M  V30 4664 C 448.036 1.83932 0.393795 0
M  V30 4665 O 447.394 1.28004 1.28393 0
M  V30 4666 C 447.442 3.20665 -1.64944 0
M  V30 4667 O 446.546 4.02632 -0.892273 0
M  V30 4668 H 445.887 0.550973 -0.370574 0
M  V30 4669 H 448.417 1.26847 -1.60534 0
M  V30 4670 H 448.427 3.71352 -1.69002 0
M  V30 4671 H 447.102 3.16191 -2.70177 0
M  V30 4672 H 445.679 3.61207 -0.926492 0
M  V30 4673 N 447.864 1.01787 1.20321 0
M  V30 4674 C 449.089 0.727009 1.9424 0
M  V30 4675 C 449.514 -0.706179 1.74341 0
M  V30 4676 O 448.872 -1.48609 1.03852 0
M  V30 4677 C 448.92 1.06958 3.44372 0
M  V30 4678 O 448.024 0.181983 4.11998 0
M  V30 4679 H 447.365 0.269626 0.606793 0
M  V30 4680 H 449.895 1.36158 1.52716 0
M  V30 4681 H 449.905 1.02182 3.94997 0
M  V30 4682 H 448.58 2.11378 3.58179 0
M  V30 4683 H 447.157 0.287378 3.71791 0
M  V30 4684 N 449.342 -1.36122 0.79427 0
M  V30 4685 C 450.753 -1.81646 0.431446 0
M  V30 4686 C 451.104 -1.66043 -1.04518 0
M  V30 4687 O 450.229 -1.1841 -1.8113 0
M  V30 4688 C 450.824 -3.29785 0.776341 0
M  V30 4689 C 449.383 -3.73501 0.466282 0
M  V30 4690 C 448.53 -2.58313 1.00844 0
M  V30 4691 H 451.481 -1.24274 0.986995 0
M  V30 4692 H 451.502 -3.80437 0.0692413 0
M  V30 4693 H 451.014 -3.4111 1.8511 0
M  V30 4694 H 449.115 -3.67733 -0.600245 0
M  V30 4695 H 449.228 -4.68754 0.990288 0
M  V30 4696 H 447.592 -2.5102 0.431406 0
M  V30 4697 H 448.375 -2.72421 2.08906 0
M  V30 4698 N 450.82 -0.546701 -1.47814 0
M  V30 4699 C 452.068 -0.0187037 -2.02091 0
M  V30 4700 C 452.389 1.33168 -1.42447 0
M  V30 4701 O 451.659 1.86619 -0.595839 0
M  V30 4702 H 450.239 -0.00392531 -0.74699 0
M  V30 4703 H 452.901 -0.714327 -1.81338 0
M  V30 4704 H 451.997 0.0772219 -3.12004 0
M  V30 4705 N 452.299 1.55045 -0.282633 0
M  V30 4706 C 453.229 2.2579 0.595066 0
M  V30 4707 C 454.21 1.25074 1.15284 0
M  V30 4708 O 455.395 1.5381 1.18559 0
M  V30 4709 C 452.525 2.98472 1.77572 0
M  V30 4710 C 451.479 4.0618 1.34914 0
M  V30 4711 C 450.805 4.66477 2.6135 0
M  V30 4712 C 452.105 5.1996 0.493821 0
M  V30 4713 H 453.799 2.994 0.00505653 0
M  V30 4714 H 451.345 1.44 0.000992001 0
M  V30 4715 H 453.298 3.46677 2.39568 0
M  V30 4716 H 452.022 2.2241 2.39168 0
M  V30 4717 H 450.681 3.58797 0.752338 0
M  V30 4718 H 450.329 3.87074 3.2122 0
M  V30 4719 H 450.029 5.39207 2.33516 0
M  V30 4720 H 451.553 5.17435 3.24181 0
M  V30 4721 H 452.967 5.64172 1.01898 0
M  V30 4722 H 451.364 5.99299 0.310047 0
M  V30 4723 H 452.434 4.82462 -0.485593 0
M  V30 4724 N 453.777 0.010035 1.57597 0
M  V30 4725 C 455.188 -0.531426 1.78977 0
M  V30 4726 C 455.539 -1.73375 0.918454 0
M  V30 4727 O 454.664 -2.16047 0.123635 0
M  V30 4728 C 455.259 -0.97086 3.24592 0
M  V30 4729 C 453.818 -1.45756 3.47033 0
M  V30 4730 C 452.965 -0.413384 2.74201 0
M  V30 4731 H 455.916 0.236166 1.56933 0
M  V30 4732 H 455.937 -1.83633 3.33255 0
M  V30 4733 H 455.449 -0.0955893 3.87982 0
M  V30 4734 H 453.55 -2.35339 2.88871 0
M  V30 4735 H 453.663 -1.4781 4.55729 0
M  V30 4736 H 452.027 -0.877266 2.39115 0
M  V30 4737 H 452.81 0.453092 3.40297 0
M  V30 4738 N 455.255 -1.55392 -0.262866 0
M  V30 4739 C 456.666 -1.67079 -0.833158 0
M  V30 4740 C 457.017 -0.604539 -1.86654 0
M  V30 4741 O 456.142 0.252138 -2.14926 0
M  V30 4742 C 456.737 -3.02891 -1.51797 0
M  V30 4743 C 455.296 -3.16571 -2.03617 0
M  V30 4744 C 454.443 -2.62909 -0.881701 0
M  V30 4745 H 457.394 -1.58652 -0.0389986 0
M  V30 4746 H 457.415 -2.96445 -2.38538 0
M  V30 4747 H 456.927 -3.80473 -0.765619 0
M  V30 4748 H 455.028 -2.43782 -2.81782 0
M  V30 4749 H 455.141 -4.23271 -2.24452 0
M  V30 4750 H 453.505 -2.20324 -1.27786 0
M  V30 4751 H 454.288 -3.43003 -0.14269 0
M  V30 4752 N 456.733 0.527833 -1.48498 0
M  V30 4753 C 458.144 1.10975 -1.50138 0
M  V30 4754 C 458.495 1.943 -0.272378 0
M  V30 4755 O 457.62 2.07319 0.620301 0
M  V30 4756 C 458.215 2.01927 -2.72049 0
M  V30 4757 C 456.774 2.55332 -2.76554 0
M  V30 4758 C 455.921 1.32341 -2.43683 0
M  V30 4759 H 458.872 0.312986 -1.55583 0
M  V30 4760 H 458.893 2.86244 -2.50689 0
M  V30 4761 H 458.405 1.41254 -3.61481 0
M  V30 4762 H 456.506 3.19721 -1.91336 0
M  V30 4763 H 456.619 2.94319 -3.78038 0
M  V30 4764 H 454.983 1.63989 -1.94884 0
M  V30 4765 H 455.766 0.734165 -3.35358 0
M  V30 4766 N 458.211 1.37122 0.776871 0
M  V30 4767 C 459.174 1.32301 1.8716 0
M  V30 4768 C 460.174 0.228099 1.59174 0
M  V30 4769 O 461.364 0.483642 1.67352 0
M  V30 4770 C 458.496 1.054 3.24197 0
M  V30 4771 H 459.689 2.29673 1.92848 0
M  V30 4772 H 457.242 1.22077 0.97606 0
M  V30 4773 H 457.977 0.0853872 3.24188 0
M  V30 4774 H 457.762 1.84648 3.45901 0
M  V30 4775 H 459.252 1.04664 4.04271 0
M  V30 4776 N 459.689 -1.00246 1.21608 0
M  V30 4777 C 460.619 -2.10921 1.00172 0
M  V30 4778 C 461.6 -1.69938 -0.0741587 0
M  V30 4779 O 462.785 -1.94009 0.0861753 0
M  V30 4780 C 459.915 -3.42618 0.568355 0
M  V30 4781 C 458.869 -3.97407 1.58909 0
M  V30 4782 C 458.195 -5.25038 1.01187 0
M  V30 4783 C 459.495 -4.2918 2.97661 0
M  V30 4784 H 461.189 -2.29112 1.92739 0
M  V30 4785 H 458.735 -1.10101 0.928102 0
M  V30 4786 H 460.688 -4.19444 0.405555 0
M  V30 4787 H 459.412 -3.24227 -0.392961 0
M  V30 4788 H 458.071 -3.22703 1.73949 0
M  V30 4789 H 457.719 -5.02982 0.0421965 0
M  V30 4790 H 457.419 -5.62661 1.6937 0
M  V30 4791 H 458.943 -6.04507 0.860448 0
M  V30 4792 H 460.357 -4.96839 2.86049 0
M  V30 4793 H 458.754 -4.77952 3.6288 0
M  V30 4794 H 459.824 -3.3735 3.48315 0
M  V30 4795 N 461.167 -1.02423 -1.1978 0
M  V30 4796 C 462.392 -0.7373 -1.93852 0
M  V30 4797 C 462.817 0.696923 -1.74713 0
M  V30 4798 O 462.175 1.48056 -1.04638 0
M  V30 4799 C 462.223 -1.08783 -3.438 0
M  V30 4800 O 461.327 -0.20383 -4.11896 0
M  V30 4801 H 460.668 -0.27284 -0.605355 0
M  V30 4802 H 463.198 -1.36966 -1.51992 0
M  V30 4803 H 463.208 -1.04276 -3.9445 0
M  V30 4804 H 461.883 -2.13274 -3.57053 0
M  V30 4805 H 460.46 -0.307091 -3.71633 0
M  V30 4806 N 462.645 1.35699 -0.801477 0
M  V30 4807 C 464.056 1.81415 -0.441073 0
M  V30 4808 C 464.407 1.66595 1.03636 0
M  V30 4809 O 463.532 1.19369 1.80499 0
M  V30 4810 C 464.127 3.29369 -0.793819 0
M  V30 4811 C 462.686 3.73248 -0.486083 0
M  V30 4812 C 461.833 2.57775 -1.02213 0
M  V30 4813 H 464.784 1.23749 -0.993572 0
M  V30 4814 H 464.805 3.80395 -0.0894158 0
M  V30 4815 H 464.317 3.40123 -1.86917 0
M  V30 4816 H 462.418 3.68046 0.580735 0
M  V30 4817 H 462.531 4.68222 -1.01513 0
M  V30 4818 H 460.895 2.50788 -0.444712 0
M  V30 4819 H 461.678 2.71309 -2.10348 0
M  V30 4820 N 464.123 0.554532 1.47522 0
M  V30 4821 C 465.348 0.0322661 2.07375 0
M  V30 4822 C 465.773 -1.25079 1.40488 0
M  V30 4823 O 465.131 -1.74859 0.47896 0
M  V30 4824 C 465.179 -0.149397 3.6029 0
M  V30 4825 O 464.283 -1.21259 3.9417 0
M  V30 4826 H 463.624 0.0501228 0.662106 0
M  V30 4827 H 466.154 0.769452 1.8958 0
M  V30 4828 H 466.164 -0.364437 4.06369 0
M  V30 4829 H 464.839 0.787743 4.08372 0
M  V30 4830 H 463.416 -0.97825 3.5984 0
M  V30 4831 N 465.601 -1.54893 0.290851 0
M  V30 4832 C 466.548 -2.23138 -0.58974 0
M  V30 4833 C 467.518 -1.21036 -1.13752 0
M  V30 4834 O 468.703 -1.49626 -1.18392 0
M  V30 4835 C 465.843 -2.96811 -1.76061 0
M  V30 4836 C 464.956 -4.13665 -1.24519 0
M  V30 4837 C 464.091 -4.74944 -2.3791 0
M  V30 4838 C 463.13 -5.83963 -1.83451 0
M  V30 4839 N 462.267 -6.39239 -2.90376 0
M  V30 4840 H 467.107 -2.98 -0.00114915 0
M  V30 4841 H 464.644 -1.47096 0.0112006 0
M  V30 4842 H 466.602 -3.37751 -2.44909 0
M  V30 4843 H 465.232 -2.24344 -2.32098 0
M  V30 4844 H 464.284 -3.77737 -0.449288 0
M  V30 4845 H 465.596 -4.92238 -0.806424 0
M  V30 4846 H 464.75 -5.18684 -3.14724 0
M  V30 4847 H 463.489 -3.95682 -2.85109 0
M  V30 4848 H 462.494 -5.39657 -1.05122 0
M  V30 4849 H 463.719 -6.65103 -1.37169 0
M  V30 4850 H 461.665 -5.62864 -3.36927 0
M  V30 4851 H 461.582 -7.13129 -2.50965 0
M  V30 4852 H 462.85 -6.87637 -3.67118 0
M  V30 4853 N 467.08 -0.0183926 -1.57589 0
M  V30 4854 C 468.326 0.663543 -1.91638 0
M  V30 4855 C 468.659 1.72392 -0.894134 0
M  V30 4856 O 467.934 1.94316 0.0846449 0
M  V30 4857 C 468.217 1.28984 -3.36207 0
M  V30 4858 C 468.07 0.239761 -4.49161 0
M  V30 4859 C 469.389 2.2109 -3.80536 0
M  V30 4860 H 466.508 0.239746 -0.696915 0
M  V30 4861 H 469.15 -0.073456 -1.89858 0
M  V30 4862 H 467.3 1.91799 -3.37854 0
M  V30 4863 H 468.972 -0.390119 -4.59647 0
M  V30 4864 H 467.215 -0.435972 -4.31604 0
M  V30 4865 H 467.886 0.717383 -5.47319 0
M  V30 4866 H 470.362 1.68273 -3.80557 0
M  V30 4867 H 469.238 2.61869 -4.82406 0
M  V30 4868 H 469.499 3.09764 -3.15434 0
M  V30 4869 N 468.558 1.5553 0.254621 0
M  V30 4870 C 469.508 1.86057 1.31783 0
M  V30 4871 C 470.492 0.720827 1.4385 0
M  V30 4872 O 471.684 0.982586 1.47222 0
M  V30 4873 C 468.813 2.15203 2.67475 0
M  V30 4874 C 467.899 3.35484 2.59444 0
M  V30 4875 N 468.29 4.54945 2.2104 0
M  V30 4876 C 466.588 3.38441 2.90472 0
M  V30 4877 C 467.289 5.3707 2.23453 0
M  V30 4878 N 466.265 4.75936 2.62652 0
M  V30 4879 H 470.067 2.75953 1.01129 0
M  V30 4880 H 467.581 1.55653 0.463255 0
M  V30 4881 H 469.578 2.35235 3.44195 0
M  V30 4882 H 468.238 1.26601 2.99002 0
M  V30 4883 H 469.249 4.8071 1.92712 0
M  V30 4884 H 465.926 2.60087 3.2659 0
M  V30 4885 H 467.316 6.42626 1.96166 0
M  V30 4886 N 470.036 -0.519951 1.48776 0
M  V30 4887 C 471.284 -1.2727 1.56993 0
M  V30 4888 C 471.605 -1.9339 0.25004 0
M  V30 4889 O 470.875 -1.81822 -0.729216 0
M  V30 4890 H 469.455 -0.472732 0.578389 0
M  V30 4891 H 472.117 -0.604234 1.85297 0
M  V30 4892 H 471.213 -2.04669 2.3562 0
M  V30 4893 N 471.514 -1.37532 -0.769588 0
M  V30 4894 C 472.76 -1.33057 -1.53048 0
M  V30 4895 C 473.093 0.0841865 -1.94017 0
M  V30 4896 O 472.368 1.04198 -1.64235 0
M  V30 4897 C 472.651 -2.27166 -2.79406 0
M  V30 4898 C 472.504 -3.77429 -2.44677 0
M  V30 4899 C 473.823 -2.19683 -3.81349 0
M  V30 4900 H 470.942 -0.484655 -0.555228 0
M  V30 4901 H 473.584 -1.68251 -0.882702 0
M  V30 4902 H 471.734 -1.97283 -3.34682 0
M  V30 4903 H 473.406 -4.17918 -1.953 0
M  V30 4904 H 471.649 -3.95892 -1.77346 0
M  V30 4905 H 472.32 -4.38716 -3.35011 0
M  V30 4906 H 474.796 -2.46029 -3.35573 0
M  V30 4907 H 473.672 -2.87668 -4.67481 0
M  V30 4908 H 473.933 -1.19045 -4.25771 0
M  V30 4909 N 472.992 0.995999 -1.22138 0
M  V30 4910 C 474.408 1.25917 -0.980667 0
M  V30 4911 C 474.608 1.98819 0.327604 0
M  V30 4912 O 473.664 2.29587 1.05101 0
M  V30 4913 C 474.977 2.07399 -2.17729 0
M  V30 4914 C 476.525 2.20594 -2.22052 0
M  V30 4915 C 477 3.05462 -3.41258 0
M  V30 4916 N 478.491 3.13049 -3.41401 0
M  V30 4917 C 479.226 3.78997 -4.30289 0
M  V30 4918 N 478.722 4.46899 -5.2939 0
M  V30 4919 N 480.515 3.75728 -4.18073 0
M  V30 4920 H 472.666 0.507158 -2.06256 0
M  V30 4921 H 474.929 0.28658 -0.903646 0
M  V30 4922 H 474.635 1.61191 -3.12586 0
M  V30 4923 H 474.509 3.08154 -2.17534 0
M  V30 4924 H 476.896 2.66017 -1.27745 0
M  V30 4925 H 476.977 1.1928 -2.26287 0
M  V30 4926 H 476.621 2.60739 -4.35864 0
M  V30 4927 H 476.551 4.06911 -3.34262 0
M  V30 4928 H 479.042 2.64721 -2.69688 0
M  V30 4929 H 479.355 4.94952 -5.935 0
M  V30 4930 H 477.7 4.45657 -5.33306 0
M  V30 4931 H 480.891 3.2184 -3.39907 0
M  V30 4932 H 481.064 4.26845 -4.87553 0
M  V30 4933 N 474.47 1.03057 1.19235 0
M  V30 4934 C 475.7 0.746613 1.92638 0
M  V30 4935 C 476.108 -0.698708 1.75826 0
M  V30 4936 O 475.451 -1.487 1.07861 0
M  V30 4937 C 475.513 1.02024 3.44719 0
M  V30 4938 C 475.177 2.45745 3.85303 0
M  V30 4939 C 476.174 3.43887 3.8992 0
M  V30 4940 C 473.859 2.8019 4.16892 0
M  V30 4941 C 475.853 4.74529 4.2556 0
M  V30 4942 C 473.54 4.1104 4.52205 0
M  V30 4943 C 474.538 5.0802 4.56513 0
M  V30 4944 O 474.226 6.36527 4.91008 0
M  V30 4945 H 473.958 0.272401 0.618687 0
M  V30 4946 H 476.512 1.37853 1.52269 0
M  V30 4947 H 474.742 0.331184 3.85279 0
M  V30 4948 H 476.431 0.725677 3.9936 0
M  V30 4949 H 477.197 3.18614 3.65664 0
M  V30 4950 H 473.076 2.05382 4.12722 0
M  V30 4951 H 476.62 5.50222 4.28838 0
M  V30 4952 H 472.517 4.36086 4.7592 0
M  V30 4953 H 473.285 6.41025 5.08949 0
M  V30 4954 N 475.948 -1.35272 0.808662 0
M  V30 4955 C 477.196 -1.98316 0.389233 0
M  V30 4956 C 477.517 -1.64465 -1.04767 0
M  V30 4957 O 476.787 -0.928175 -1.72516 0
M  V30 4958 H 475.367 -0.733585 0.140935 0
M  V30 4959 H 478.029 -1.6515 1.03496 0
M  V30 4960 H 477.125 -3.08123 0.496631 0
M  V30 4961 N 477.426 -0.562348 -1.47226 0
M  V30 4962 C 478.358 0.220011 -2.28142 0
M  V30 4963 C 479.371 0.874596 -1.37312 0
M  V30 4964 O 480.56 0.747583 -1.62091 0
M  V30 4965 C 477.66 1.32953 -3.11732 0
M  V30 4966 C 476.833 0.770759 -4.30556 0
M  V30 4967 C 475.892 1.76541 -4.95701 0
M  V30 4968 O 474.918 1.3095 -5.53932 0
M  V30 4969 N 476.12 3.09896 -4.90861 0
M  V30 4970 H 478.885 -0.474107 -2.95926 0
M  V30 4971 H 476.446 -0.398761 -1.56912 0
M  V30 4972 H 478.438 1.99378 -3.5218 0
M  V30 4973 H 477.008 1.92681 -2.46156 0
M  V30 4974 H 476.228 -0.0704056 -3.94137 0
M  V30 4975 H 477.516 0.376872 -5.07402 0
M  V30 4976 H 476.914 3.49577 -4.44761 0
M  V30 4977 H 475.471 3.71865 -5.35313 0
M  V30 4978 N 478.904 1.54736 -0.299062 0
M  V30 4979 C 480.315 1.8569 0.193971 0
M  V30 4980 C 480.666 1.22101 1.53577 0
M  V30 4981 O 479.791 0.51799 2.10109 0
M  V30 4982 C 480.386 3.36895 0.358733 0
M  V30 4983 C 478.945 3.67887 0.795986 0
M  V30 4984 C 478.092 2.77131 -0.096807 0
M  V30 4985 H 481.043 1.49934 -0.520134 0
M  V30 4986 H 481.064 3.61294 1.19361 0
M  V30 4987 H 480.576 3.83148 -0.617998 0
M  V30 4988 H 478.677 3.27151 1.78334 0
M  V30 4989 H 478.79 4.75114 0.616718 0
M  V30 4990 H 477.154 2.51153 0.423581 0
M  V30 4991 H 477.937 3.26204 -1.06986 0
M  V30 4992 N 480.382 0.0267497 1.57577 0
M  V30 4993 C 481.345 -0.940916 2.08996 0
M  V30 4994 C 482.345 -1.25561 1.00455 0
M  V30 4995 O 483.535 -1.19634 1.26623 0
M  V30 4996 C 480.667 -2.25814 2.55384 0
M  V30 4997 H 481.86 -0.495628 2.95776 0
M  V30 4998 H 479.413 -0.221241 1.54726 0
M  V30 4999 H 480.148 -2.74976 1.71926 0
M  V30 5000 H 479.933 -2.04285 3.34679 0
M  V30 5001 H 481.423 -2.95178 2.95398 0
M  V30 5002 N 481.861 -1.55662 -0.24637 0
M  V30 5003 C 483.089 -1.81575 -0.991876 0
M  V30 5004 C 483.504 -0.602545 -1.78927 0
M  V30 5005 O 482.861 0.428795 -1.77391 0
M  V30 5006 C 482.912 -3.05711 -1.92933 0
M  V30 5007 O 482.633 -4.22348 -1.1642 0
M  V30 5008 C 484.134 -3.44428 -2.79078 0
M  V30 5009 H 481.354 -0.604209 -0.291844 0
M  V30 5010 H 483.898 -2.02722 -0.269095 0
M  V30 5011 H 482.053 -2.86612 -2.60638 0
M  V30 5012 H 482.467 -4.92706 -1.79835 0
M  V30 5013 H 483.941 -4.34388 -3.40603 0
M  V30 5014 H 484.418 -2.65037 -3.50217 0
M  V30 5015 H 485.024 -3.65879 -2.16824 0
M  V30 5016 N 483.339 0.512053 -1.4905 0
M  V30 5017 C 484.564 1.2959 -1.6193 0
M  V30 5018 C 484.989 1.85906 -0.286454 0
M  V30 5019 O 484.347 1.65312 0.744426 0
M  V30 5020 C 484.395 2.40987 -2.68249 0
M  V30 5021 O 483.499 3.44531 -2.26654 0
M  V30 5022 H 482.84 0.383053 -0.542371 0
M  V30 5023 H 485.37 0.614231 -1.95162 0
M  V30 5024 H 485.38 2.86913 -2.90078 0
M  V30 5025 H 484.055 1.99361 -3.65004 0
M  V30 5026 H 482.632 3.046 -2.15112 0
M  V30 5027 N 484.817 1.37938 0.762283 0
M  V30 5028 C 485.727 1.36681 1.90671 0
M  V30 5029 C 486.743 0.265078 1.71969 0
M  V30 5030 O 487.919 0.502055 1.95042 0
M  V30 5031 C 484.984 1.18211 3.25925 0
M  V30 5032 C 484.045 2.3811 3.57214 0
M  V30 5033 C 483.278 2.20512 4.86014 0
M  V30 5034 O 483.501 1.19429 5.57757 0
M  V30 5035 O 482.435 3.08911 5.16583 0
M  V30 5036 H 486.261 2.33091 1.94685 0
M  V30 5037 H 483.846 1.18767 0.906356 0
M  V30 5038 H 485.728 1.09937 4.06807 0
M  V30 5039 H 484.403 0.248807 3.22742 0
M  V30 5040 H 483.31 2.51958 2.76529 0
M  V30 5041 H 484.643 3.30041 3.65149 0
M  V30 5042 N 486.295 -0.989507 1.22664 0
M  V30 5043 C 487.523 -1.76496 1.07967 0
M  V30 5044 C 487.938 -1.85148 -0.369543 0
M  V30 5045 O 487.295 -1.32408 -1.25596 0
M  V30 5046 C 487.346 -3.19642 1.68853 0
M  V30 5047 O 487.067 -3.11453 3.08105 0
M  V30 5048 C 488.568 -4.13621 1.59475 0
M  V30 5049 H 485.788 -0.55418 0.378319 0
M  V30 5050 H 488.332 -1.24378 1.62328 0
M  V30 5051 H 486.487 -3.68816 1.18547 0
M  V30 5052 H 486.901 -4.01499 3.37489 0
M  V30 5053 H 488.375 -5.11801 2.06795 0
M  V30 5054 H 488.852 -4.35718 0.55191 0
M  V30 5055 H 489.458 -3.70346 2.09103 0
M  V30 5056 N 487.773 -1.03688 -1.18687 0
M  V30 5057 C 488.736 -0.629115 -2.20397 0
M  V30 5058 C 489.736 0.311495 -1.57754 0
M  V30 5059 O 490.926 0.0974107 -1.73927 0
M  V30 5060 C 488.058 0.0782231 -3.4081 0
M  V30 5061 H 489.251 -1.52915 -2.57987 0
M  V30 5062 H 486.804 -0.828988 -1.32505 0
M  V30 5063 H 487.539 0.992233 -3.08748 0
M  V30 5064 H 487.324 -0.597776 -3.87517 0
M  V30 5065 H 488.814 0.350156 -4.16129 0
M  V30 5066 N 489.251 1.34841 -0.815825 0
M  V30 5067 C 490.161 2.33425 -0.234462 0
M  V30 5068 C 491.177 1.62295 0.627413 0
M  V30 5069 O 492.353 1.94109 0.536987 0
M  V30 5070 C 489.418 3.41471 0.599849 0
M  V30 5071 C 488.479 4.28362 -0.283596 0
M  V30 5072 C 487.712 5.31248 0.51099 0
M  V30 5073 O 487.935 5.43056 1.7449 0
M  V30 5074 O 486.869 6.01812 -0.10297 0
M  V30 5075 H 490.695 2.84962 -1.05024 0
M  V30 5076 H 488.28 1.37774 -0.577809 0
M  V30 5077 H 490.162 4.07464 1.07475 0
M  V30 5078 H 488.837 2.9219 1.39308 0
M  V30 5079 H 487.744 3.65318 -0.805836 0
M  V30 5080 H 489.077 4.81066 -1.041 0
M  V30 5081 N 490.729 0.570148 1.46925 0
M  V30 5082 C 491.975 0.0510284 2.02736 0
M  V30 5083 C 492.308 -1.3006 1.44215 0
M  V30 5084 O 491.583 -1.84932 0.602521 0
M  V30 5085 C 491.866 -0.028215 3.60089 0
M  V30 5086 C 491.719 1.35142 4.29018 0
M  V30 5087 C 493.038 -0.735181 4.33916 0
M  V30 5088 H 490.157 0.0200178 0.736728 0
M  V30 5089 H 492.799 0.73493 1.75211 0
M  V30 5090 H 490.949 -0.610648 3.83671 0
M  V30 5091 H 492.621 1.97806 4.16738 0
M  V30 5092 H 490.864 1.9226 3.88868 0
M  V30 5093 H 491.535 1.24857 5.37694 0
M  V30 5094 H 494.011 -0.240519 4.15404 0
M  V30 5095 H 492.887 -0.759622 5.43618 0
M  V30 5096 H 493.148 -1.79397 4.04066 0
M  V30 5097 N 492.207 -1.54576 0.307264 0
M  V30 5098 C 493.618 -1.8579 -0.184121 0
M  V30 5099 C 493.969 -1.22914 -1.52927 0
M  V30 5100 O 493.094 -0.529126 -2.09831 0
M  V30 5101 C 493.689 -3.37081 -0.340862 0
M  V30 5102 C 492.248 -3.68304 -0.776465 0
M  V30 5103 C 491.395 -2.77076 0.111503 0
M  V30 5104 H 494.346 -1.49656 0.528078 0
M  V30 5105 H 494.367 -3.61922 -1.17443 0
M  V30 5106 H 493.879 -3.82815 0.638309 0
M  V30 5107 H 491.98 -3.28092 -1.76596 0
M  V30 5108 H 492.093 -4.75434 -0.591512 0
M  V30 5109 H 490.457 -2.51374 -0.410256 0
M  V30 5110 H 491.24 -3.25632 1.08714 0
M  V30 5111 N 493.685 -0.035106 -1.57561 0
M  V30 5112 C 494.91 0.655802 -1.96759 0
M  V30 5113 C 495.335 1.64523 -0.911809 0
M  V30 5114 O 494.693 1.80857 0.126673 0
M  V30 5115 C 494.741 1.33326 -3.35047 0
M  V30 5116 O 493.845 2.44866 -3.31835 0
M  V30 5117 H 493.186 0.171807 -0.641388 0
M  V30 5118 H 495.716 -0.0987369 -2.04362 0
M  V30 5119 H 495.726 1.68867 -3.71413 0
M  V30 5120 H 494.401 0.608033 -4.11431 0
M  V30 5121 H 492.978 2.11392 -3.07193 0
M  V30 5122 N 495.163 1.55791 0.238111 0
M  V30 5123 C 496.388 1.8244 0.986432 0
M  V30 5124 C 496.813 0.613314 1.7782 0
M  V30 5125 O 496.171 -0.437767 1.75935 0
M  V30 5126 C 496.219 3.06917 1.893 0
M  V30 5127 O 495.323 2.84449 2.98601 0
M  V30 5128 H 494.664 0.601975 0.280218 0
M  V30 5129 H 497.194 2.02987 0.256437 0
M  V30 5130 H 497.204 3.36583 2.30598 0
M  V30 5131 H 495.879 3.947 1.31091 0
M  V30 5132 H 494.456 2.65972 2.61368 0
M  V30 5133 N 496.642 -0.504142 1.49319 0
M  V30 5134 C 497.867 -1.28729 1.62615 0
M  V30 5135 C 498.292 -1.85752 0.296309 0
M  V30 5136 O 497.65 -1.65704 -0.735649 0
M  V30 5137 C 497.698 -2.39561 2.69524 0
M  V30 5138 O 496.802 -3.43324 2.28478 0
M  V30 5139 H 496.143 -0.380172 0.544395 0
M  V30 5140 H 498.673 -0.603872 1.95485 0
M  V30 5141 H 498.683 -2.8537 2.91595 0
M  V30 5142 H 497.358 -1.97423 3.66056 0
M  V30 5143 H 495.935 -3.03455 2.16725 0
M  V30 5144 N 498.12 -1.38341 -0.754957 0
M  V30 5145 C 499.368 -1.34208 -1.51105 0
M  V30 5146 C 499.689 0.0677634 -1.94882 0
M  V30 5147 O 498.959 1.01517 -1.67544 0
M  V30 5148 H 497.539 -0.493819 -0.560493 0
M  V30 5149 H 500.201 -1.73005 -0.897507 0
M  V30 5150 H 499.297 -1.99203 -2.4026 0
M  V30 5151 N 499.598 0.982988 -1.23187 0
M  V30 5152 C 500.846 1.72052 -1.06031 0
M  V30 5153 C 501.167 1.90769 0.404019 0
M  V30 5154 O 500.437 1.47446 1.28982 0
M  V30 5155 H 499.017 0.637499 -0.389363 0
M  V30 5156 H 501.679 1.18338 -1.54862 0
M  V30 5157 H 500.775 2.7111 -1.54615 0
M  V30 5158 N 501.076 1.04316 1.18135 0
M  V30 5159 C 502.487 0.775505 1.69832 0
M  V30 5160 C 502.838 -0.703348 1.8316 0
M  V30 5161 O 501.963 -1.54729 1.51287 0
M  V30 5162 C 502.558 1.40112 3.0847 0
M  V30 5163 C 501.117 1.18172 3.57368 0
M  V30 5164 C 500.264 1.49022 2.33854 0
M  V30 5165 H 503.215 1.20925 1.02775 0
M  V30 5166 H 503.236 0.805672 3.71873 0
M  V30 5167 H 502.748 2.47744 2.98738 0
M  V30 5168 H 500.849 0.124258 3.72393 0
M  V30 5169 H 500.962 1.8805 4.40652 0
M  V30 5170 H 499.326 0.909995 2.37889 0
M  V30 5171 H 500.109 2.57768 2.26738 0
M  V30 5172 N 502.554 -1.34406 0.822964 0
M  V30 5173 C 503.484 -2.32052 0.259608 0
M  V30 5174 C 504.465 -1.58243 -0.623961 0
M  V30 5175 O 505.65 -1.86224 -0.55083 0
M  V30 5176 C 502.78 -3.42434 -0.579314 0
M  V30 5177 C 501.734 -4.27499 0.20712 0
M  V30 5178 C 501.06 -5.29349 -0.754547 0
M  V30 5179 C 502.36 -5.02758 1.41533 0
M  V30 5180 H 504.054 -2.79418 1.07545 0
M  V30 5181 H 501.6 -1.34338 0.518593 0
M  V30 5182 H 503.553 -4.0976 -0.983612 0
M  V30 5183 H 502.277 -2.93717 -1.4282 0
M  V30 5184 H 500.936 -3.61776 0.592787 0
M  V30 5185 H 500.584 -4.76895 -1.59939 0
M  V30 5186 H 500.284 -5.8714 -0.232561 0
M  V30 5187 H 501.808 -5.99544 -1.1567 0
M  V30 5188 H 503.222 -5.62938 1.08504 0
M  V30 5189 H 501.619 -5.70123 1.87296 0
M  V30 5190 H 502.689 -4.32451 2.1935 0
M  V30 5191 N 504.032 -0.577932 -1.46621 0
M  V30 5192 C 505.278 -0.0617793 -2.02706 0
M  V30 5193 C 505.611 1.29294 -1.44903 0
M  V30 5194 O 504.886 1.8461 -0.61232 0
M  V30 5195 C 505.169 0.00911824 -3.60099 0
M  V30 5196 C 505.022 -1.37416 -4.28295 0
M  V30 5197 C 506.341 0.712159 -4.343 0
M  V30 5198 H 503.46 -0.0239246 -0.736612 0
M  V30 5199 H 506.102 -0.744211 -1.74818 0
M  V30 5200 H 504.252 0.590292 -3.83989 0
M  V30 5201 H 505.924 -2.00013 -4.15683 0
M  V30 5202 H 504.167 -1.94319 -3.87843 0
M  V30 5203 H 504.838 -1.27707 -5.37024 0
M  V30 5204 H 507.314 0.218486 -4.15526 0
M  V30 5205 H 506.19 0.730782 -5.44014 0
M  V30 5206 H 506.451 1.77251 -4.05012 0
M  V30 5207 N 505.51 1.54411 -0.315457 0
M  V30 5208 C 506.738 2.04833 0.291738 0
M  V30 5209 C 507.153 1.19203 1.46411 0
M  V30 5210 O 506.51 0.220867 1.81159 0
M  V30 5211 C 506.561 3.53969 0.73404 0
M  V30 5212 O 506.282 4.36346 -0.391682 0
M  V30 5213 C 507.783 4.2045 1.40489 0
M  V30 5214 H 505.003 0.668195 0.0612947 0
M  V30 5215 H 507.547 1.99276 -0.45929 0
M  V30 5216 H 505.702 3.5984 1.43506 0
M  V30 5217 H 506.116 5.24481 -0.0447088 0
M  V30 5218 H 507.59 5.26278 1.66539 0
M  V30 5219 H 508.067 3.71067 2.3496 0
M  V30 5220 H 508.673 4.18694 0.746662 0
M  V30 5221 N 506.988 0.0434614 1.5754 0
M  V30 5222 C 508.234 -0.632971 1.92669 0
M  V30 5223 C 508.567 -1.70947 0.921446 0
M  V30 5224 O 507.842 -1.94426 -0.0537202 0
M  V30 5225 C 508.125 -1.23619 3.38216 0
M  V30 5226 C 507.978 -0.168274 4.49485 0
M  V30 5227 C 509.297 -2.15008 3.84005 0
M  V30 5228 H 506.416 -0.228629 0.700641 0
M  V30 5229 H 509.058 0.103651 1.89717 0
M  V30 5230 H 507.208 -1.864 3.40863 0
M  V30 5231 H 508.88 0.463196 4.58969 0
M  V30 5232 H 507.123 0.504581 4.30855 0
M  V30 5233 H 507.794 -0.630218 5.48391 0
M  V30 5234 H 510.27 -1.62198 3.83185 0
M  V30 5235 H 509.146 -2.54161 4.86511 0
M  V30 5236 H 509.407 -3.04707 3.20322 0
M  V30 5237 N 508.466 -1.55915 -0.229846 0
M  V30 5238 C 509.691 -1.8296 -0.976743 0
M  V30 5239 C 510.116 -0.622735 -1.77493 0
M  V30 5240 O 509.474 0.428431 -1.76165 0
M  V30 5241 C 509.522 -3.07916 -1.8767 0
M  V30 5242 O 508.626 -2.86028 -2.97088 0
M  V30 5243 H 507.967 -0.603453 -0.277021 0
M  V30 5244 H 510.497 -2.0312 -0.245669 0
M  V30 5245 H 510.507 -3.37802 -2.2881 0
M  V30 5246 H 509.182 -3.95389 -1.28996 0
M  V30 5247 H 507.759 -2.67355 -2.59954 0
M  V30 5248 N 509.944 0.496216 -1.49584 0
M  V30 5249 C 511.172 1.27394 -1.63029 0
M  V30 5250 C 511.587 1.86344 -0.303569 0
M  V30 5251 O 510.944 1.68057 0.711547 0
M  V30 5252 C 510.995 2.40077 -2.70269 0
M  V30 5253 O 510.716 1.83549 -3.97796 0
M  V30 5254 C 512.217 3.31372 -2.94462 0
M  V30 5255 H 509.437 0.386211 -0.54871 0
M  V30 5256 H 511.981 0.595163 -1.95648 0
M  V30 5257 H 510.136 3.03775 -2.40415 0
M  V30 5258 H 510.55 2.57561 -4.56905 0
M  V30 5259 H 512.024 4.06707 -3.73221 0
M  V30 5260 H 512.501 3.88654 -2.0456 0
M  V30 5261 H 513.107 2.73435 -3.25751 0
M  V30 5262 N 511.423 1.38739 0.74761 0
M  V30 5263 C 512.834 1.31507 1.32524 0
M  V30 5264 C 513.185 -0.0263963 1.96182 0
M  V30 5265 O 512.31 -0.92849 1.95469 0
M  V30 5266 C 512.905 2.38162 2.40966 0
M  V30 5267 C 511.464 2.34489 2.94434 0
M  V30 5268 C 510.611 2.20712 1.67873 0
M  V30 5269 H 513.562 1.4901 0.546043 0
M  V30 5270 H 513.583 2.04222 3.21051 0
M  V30 5271 H 513.095 3.35783 1.94605 0
M  V30 5272 H 511.196 1.40467 3.45108 0
M  V30 5273 H 511.309 3.28861 3.48407 0
M  V30 5274 H 509.673 1.67667 1.91729 0
M  V30 5275 H 510.456 3.20285 1.23582 0
M  V30 5276 N 512.901 -0.976442 1.23707 0
M  V30 5277 C 513.831 -2.08749 1.04624 0
M  V30 5278 C 514.812 -1.70057 -0.0380956 0
M  V30 5279 O 515.997 -1.93782 0.127308 0
M  V30 5280 C 513.127 -3.41335 0.640902 0
M  V30 5281 C 512.081 -3.93947 1.67302 0
M  V30 5282 C 511.407 -5.22774 1.12301 0
M  V30 5283 C 512.707 -4.22769 3.06697 0
M  V30 5284 H 514.401 -2.24972 1.97555 0
M  V30 5285 H 511.947 -1.08108 0.951247 0
M  V30 5286 H 513.9 -4.18489 0.494434 0
M  V30 5287 H 512.624 -3.24988 -0.324099 0
M  V30 5288 H 511.283 -3.18941 1.80755 0
M  V30 5289 H 510.931 -5.0278 0.148877 0
M  V30 5290 H 510.631 -5.58942 1.81267 0
M  V30 5291 H 512.155 -6.02546 0.988479 0
M  V30 5292 H 513.569 -4.90659 2.96524 0
M  V30 5293 H 511.966 -4.70147 3.72937 0
M  V30 5294 H 513.036 -3.29885 3.55392 0
M  V30 5295 N 514.379 -1.04941 -1.1758 0
M  V30 5296 C 515.329 -0.618378 -2.19454 0
M  V30 5297 C 516.313 0.343813 -1.57184 0
M  V30 5298 O 517.505 0.16145 -1.76262 0
M  V30 5299 C 514.634 0.00803847 -3.43299 0
M  V30 5300 C 513.72 -0.977827 -4.12673 0
M  V30 5301 N 514.111 -2.14826 -4.57912 0
M  V30 5302 C 512.409 -0.805748 -4.38661 0
M  V30 5303 C 513.11 -2.77174 -5.11419 0
M  V30 5304 N 512.086 -2.04989 -5.03468 0
M  V30 5305 H 515.888 -1.51018 -2.52132 0
M  V30 5306 H 513.402 -0.919201 -1.33882 0
M  V30 5307 H 515.399 0.334584 -4.15555 0
M  V30 5308 H 514.059 0.895272 -3.12114 0
M  V30 5309 H 515.07 -2.52673 -4.52081 0
M  V30 5310 H 511.747 0.0306506 -4.17489 0
M  V30 5311 H 513.137 -3.76416 -5.56562 0
M  V30 5312 N 515.857 1.33968 -0.830081 0
M  V30 5313 C 516.789 2.28194 -0.21448 0
M  V30 5314 C 517.802 1.5135 0.599752 0
M  V30 5315 O 518.991 1.73286 0.42826 0
M  V30 5316 C 516.091 3.31221 0.717356 0
M  V30 5317 C 515.264 4.37365 -0.055613 0
M  V30 5318 C 514.323 5.2011 0.798231 0
M  V30 5319 O 513.349 5.68691 0.240616 0
M  V30 5320 N 514.551 5.40523 2.11695 0
M  V30 5321 H 517.316 2.81662 -1.02405 0
M  V30 5322 H 514.877 1.46568 -0.687713 0
M  V30 5323 H 516.869 3.83477 1.29334 0
M  V30 5324 H 515.439 2.78095 1.42765 0
M  V30 5325 H 514.659 3.85727 -0.812936 0
M  V30 5326 H 515.947 5.05397 -0.587444 0
M  V30 5327 H 515.345 5.0274 2.59363 0
M  V30 5328 H 513.902 5.95871 2.64162 0
M  V30 5329 N 517.335 0.585699 1.46312 0
M  V30 5330 C 518.581 0.0725284 2.0267 0
M  V30 5331 C 518.914 -1.28523 1.45586 0
M  V30 5332 O 518.189 -1.84283 0.622101 0
M  V30 5333 C 518.472 0.0099788 3.60099 0
M  V30 5334 C 518.325 1.39685 4.27561 0
M  V30 5335 C 519.644 -0.689117 4.34671 0
M  V30 5336 H 516.763 0.0278307 0.736474 0
M  V30 5337 H 519.405 0.753472 1.74421 0
M  V30 5338 H 517.555 -0.56992 3.84297 0
M  V30 5339 H 519.227 2.02215 4.14617 0
M  V30 5340 H 517.47 1.96374 3.86807 0
M  V30 5341 H 518.141 1.30553 5.36339 0
M  V30 5342 H 520.617 -0.196446 4.15636 0
M  V30 5343 H 519.493 -0.701921 5.44393 0
M  V30 5344 H 519.754 -1.75101 4.05946 0
M  V30 5345 N 518.813 -1.54241 0.323641 0
M  V30 5346 C 520.038 -2.05452 -0.283605 0
M  V30 5347 C 520.463 -1.19823 -1.44997 0
M  V30 5348 O 519.821 -0.207358 -1.8011 0
M  V30 5349 C 519.869 -3.53823 -0.695795 0
M  V30 5350 O 518.973 -3.71134 -1.79815 0
M  V30 5351 H 518.314 -0.662024 -0.0511917 0
M  V30 5352 H 520.844 -1.99079 0.472073 0
M  V30 5353 H 520.854 -3.96094 -0.978434 0
M  V30 5354 H 519.529 -4.15602 0.157287 0
M  V30 5355 H 518.106 -3.40768 -1.51431 0
M  V30 5356 N 520.291 -0.0518155 -1.57515 0
M  V30 5357 C 521.702 0.483787 -1.80323 0
M  V30 5358 C 522.053 1.70879 -0.964099 0
M  V30 5359 O 521.178 2.15643 -0.180872 0
M  V30 5360 C 521.773 0.884459 -3.27052 0
M  V30 5361 C 520.332 1.36504 -3.50776 0
M  V30 5362 C 519.479 0.340539 -2.75201 0
M  V30 5363 H 522.43 -0.277691 -1.56252 0
M  V30 5364 H 522.451 1.74733 -3.38007 0
M  V30 5365 H 521.963 -0.00731093 -3.88099 0
M  V30 5366 H 520.064 2.27598 -2.95009 0
M  V30 5367 H 520.177 1.35675 -4.59488 0
M  V30 5368 H 518.541 0.81356 -2.41357 0
M  V30 5369 H 519.324 -0.543156 -3.38976 0
M  V30 5370 N 521.769 1.56035 0.221574 0
M  V30 5371 C 522.997 1.8313 0.962864 0
M  V30 5372 C 523.412 0.630934 1.77946 0
M  V30 5373 O 522.769 -0.400519 1.78051 0
M  V30 5374 C 522.82 3.08742 1.88045 0
M  V30 5375 O 522.541 4.24147 1.09686 0
M  V30 5376 C 524.042 3.48824 2.73563 0
M  V30 5377 H 521.262 0.608775 0.282194 0
M  V30 5378 H 523.806 2.03124 0.23681 0
M  V30 5379 H 521.961 2.90723 2.56045 0
M  V30 5380 H 522.375 4.95505 1.71974 0
M  V30 5381 H 523.849 4.39752 3.3365 0
M  V30 5382 H 524.326 2.70575 3.45956 0
M  V30 5383 H 524.932 3.69282 2.10976 0
M  V30 5384 N 523.247 -0.488276 1.49845 0
M  V30 5385 C 524.495 -1.23911 1.59657 0
M  V30 5386 C 524.816 -1.92816 0.291005 0
M  V30 5387 O 524.086 -1.83328 -0.690485 0
M  V30 5388 H 522.666 -0.460357 0.588286 0
M  V30 5389 H 525.328 -0.564794 1.86537 0
M  V30 5390 H 524.424 -1.99625 2.39909 0
M  V30 5391 N 524.725 -1.39134 -0.740242 0
M  V30 5392 C 525.655 -1.40165 -1.86751 0
M  V30 5393 C 526.636 -0.265708 -1.68012 0
M  V30 5394 O 527.821 -0.47076 -1.88408 0
M  V30 5395 C 524.951 -1.2392 -3.2444 0
M  V30 5396 C 523.905 -2.34858 -3.57807 0
M  V30 5397 C 523.231 -2.03707 -4.94376 0
M  V30 5398 C 524.531 -3.77159 -3.61315 0
M  V30 5399 H 526.225 -2.345 -1.86145 0
M  V30 5400 H 523.771 -1.12875 -0.89416 0
M  V30 5401 H 525.724 -1.23263 -4.02969 0
M  V30 5402 H 524.448 -0.26051 -3.25559 0
M  V30 5403 H 523.107 -2.34723 -2.81604 0
M  V30 5404 H 522.755 -1.04289 -4.9207 0
M  V30 5405 H 522.455 -2.78016 -5.17669 0
M  V30 5406 H 523.979 -2.04691 -5.75268 0
M  V30 5407 H 525.393 -3.79252 -4.29931 0
M  V30 5408 H 523.79 -4.50784 -3.96124 0
M  V30 5409 H 524.86 -4.08513 -2.61238 0
M  V30 5410 N 526.204 0.969867 -1.24223 0
M  V30 5411 C 527.114 2.09806 -1.0497 0
M  V30 5412 C 528.13 1.73998 0.00886455 0
M  V30 5413 O 529.306 2.00513 -0.188848 0
M  V30 5414 C 526.371 3.40467 -0.654452 0
M  V30 5415 C 525.432 3.90236 -1.78926 0
M  V30 5416 C 524.665 5.14662 -1.41277 0
M  V30 5417 O 524.888 5.69602 -0.301632 0
M  V30 5418 O 523.822 5.58761 -2.23763 0
M  V30 5419 H 527.648 2.28942 -1.99548 0
M  V30 5420 H 525.233 1.08197 -1.03023 0
M  V30 5421 H 527.115 4.19039 -0.445452 0
M  V30 5422 H 525.79 3.22636 0.262216 0
M  V30 5423 H 524.697 3.12735 -2.05299 0
M  V30 5424 H 526.03 4.1254 -2.68462 0
M  V30 5425 N 527.682 1.05563 1.17022 0
M  V30 5426 C 529.093 0.793475 1.69 0
M  V30 5427 C 529.444 -0.683882 1.83895 0
M  V30 5428 O 528.569 -1.53116 1.5292 0
M  V30 5429 C 529.164 1.43376 3.06967 0
M  V30 5430 C 527.723 1.21956 3.56095 0
M  V30 5431 C 526.87 1.51494 2.3226 0
M  V30 5432 H 529.821 1.22008 1.01487 0
M  V30 5433 H 529.842 0.845068 3.70997 0
M  V30 5434 H 529.354 2.50899 2.96093 0
M  V30 5435 H 527.455 0.163749 3.7224 0
M  V30 5436 H 527.568 1.92713 4.38633 0
M  V30 5437 H 525.932 0.935175 2.3691 0
M  V30 5438 H 526.715 2.60159 2.23992 0
M  V30 5439 N 529.16 -1.33526 0.837174 0
M  V30 5440 C 530.385 -2.0258 0.444545 0
M  V30 5441 C 530.81 -1.6258 -0.946006 0
M  V30 5442 O 530.168 -0.817548 -1.6182 0
M  V30 5443 C 530.216 -3.5605 0.571006 0
M  V30 5444 O 529.32 -4.10422 -0.403431 0
M  V30 5445 H 528.661 -0.638866 0.180958 0
M  V30 5446 H 531.191 -1.70462 1.13154 0
M  V30 5447 H 531.201 -4.05488 0.452024 0
M  V30 5448 H 529.876 -3.84509 1.58512 0
M  V30 5449 H 528.453 -3.72113 -0.242147 0
M  V30 5450 N 530.638 -0.59345 -1.46 0
M  V30 5451 C 531.588 0.154751 -2.27474 0
M  V30 5452 C 532.572 0.851849 -1.365 0
M  V30 5453 O 533.764 0.744171 -1.60596 0
M  V30 5454 C 530.893 1.16079 -3.2308 0
M  V30 5455 C 529.979 0.465256 -4.2154 0
M  V30 5456 N 530.37 -0.485197 -5.03467 0
M  V30 5457 C 528.668 0.714634 -4.40237 0
M  V30 5458 C 529.369 -0.892709 -5.74809 0
M  V30 5459 N 528.345 -0.239511 -5.43072 0
M  V30 5460 H 532.147 -0.57546 -2.88211 0
M  V30 5461 H 529.661 -0.416046 -1.5698 0
M  V30 5462 H 531.658 1.71108 -3.80168 0
M  V30 5463 H 530.318 1.89171 -2.63903 0
M  V30 5464 H 531.329 -0.861258 -5.10689 0
M  V30 5465 H 528.006 1.43131 -3.92199 0
M  V30 5466 H 529.396 -1.67581 -6.50666 0
M  V30 5467 N 532.116 1.54067 -0.331816 0
M  V30 5468 C 533.341 2.05599 0.272705 0
M  V30 5469 C 533.766 1.2059 1.44359 0
M  V30 5470 O 533.124 0.216907 1.79998 0
M  V30 5471 C 533.172 3.54188 0.677021 0
M  V30 5472 O 532.276 3.72082 1.77844 0
M  V30 5473 H 531.617 0.662286 0.0476801 0
M  V30 5474 H 534.147 1.98826 -0.482624 0
M  V30 5475 H 534.157 3.96608 0.957415 0
M  V30 5476 H 532.832 4.15513 -0.179325 0
M  V30 5477 H 531.409 3.41566 1.49622 0
M  V30 5478 N 533.594 0.0601682 1.57485 0
M  V30 5479 C 534.524 -0.90889 2.15085 0
M  V30 5480 C 535.505 -1.31838 1.07484 0
M  V30 5481 O 536.69 -1.3915 1.35466 0
M  V30 5482 C 533.82 -2.18059 2.7031 0
M  V30 5483 C 532.774 -1.91088 3.82974 0
M  V30 5484 C 532.1 -3.24789 4.24754 0
M  V30 5485 C 533.4 -1.22535 5.07723 0
M  V30 5486 H 535.094 -0.429093 2.96309 0
M  V30 5487 H 532.64 -0.204952 1.42534 0
M  V30 5488 H 534.593 -2.86258 3.09248 0
M  V30 5489 H 533.317 -2.6826 1.8629 0
M  V30 5490 H 531.976 -1.25297 3.44523 0
M  V30 5491 H 531.624 -3.72809 3.37672 0
M  V30 5492 H 531.324 -3.07538 5.00694 0
M  V30 5493 H 532.848 -3.94205 4.66299 0
M  V30 5494 H 534.262 -1.80783 5.4405 0
M  V30 5495 H 532.659 -1.1558 5.88864 0
M  V30 5496 H 533.729 -0.202692 4.84476 0
M  V30 5497 N 535.072 -1.5615 -0.213296 0
M  V30 5498 C 536.002 -1.96109 -1.26742 0
M  V30 5499 C 536.983 -0.830448 -1.48451 0
M  V30 5500 O 538.168 -1.09339 -1.60495 0
M  V30 5501 C 535.298 -2.28492 -2.61551 0
M  V30 5502 C 534.252 -3.44124 -2.54485 0
M  V30 5503 C 533.578 -3.62134 -3.93399 0
M  V30 5504 C 534.878 -4.78855 -2.08556 0
M  V30 5505 H 536.572 -2.84412 -0.935434 0
M  V30 5506 H 534.118 -1.36836 -0.44854 0
M  V30 5507 H 536.071 -2.55039 -3.3546 0
M  V30 5508 H 534.795 -1.37052 -2.96453 0
M  V30 5509 H 533.454 -3.17639 -1.83033 0
M  V30 5510 H 533.102 -2.68055 -4.25623 0
M  V30 5511 H 532.802 -4.39913 -3.89551 0
M  V30 5512 H 534.326 -3.91038 -4.68958 0
M  V30 5513 H 535.74 -5.04552 -2.72213 0
M  V30 5514 H 534.137 -5.59975 -2.1575 0
M  V30 5515 H 535.207 -4.73657 -1.03811 0
M  V30 5516 N 536.55 0.480323 -1.50102 0
M  V30 5517 C 537.775 1.26126 -1.64642 0
M  V30 5518 C 538.2 1.85257 -0.325823 0
M  V30 5519 O 537.558 1.66854 0.709194 0
M  V30 5520 C 537.606 2.35243 -2.73301 0
M  V30 5521 O 536.71 3.39646 -2.33911 0
M  V30 5522 H 536.051 0.371463 -0.550374 0
M  V30 5523 H 538.581 0.572696 -1.96421 0
M  V30 5524 H 538.591 2.80695 -2.96098 0
M  V30 5525 H 537.266 1.91574 -3.6915 0
M  V30 5526 H 535.843 2.99969 -2.21525 0
M  V30 5527 N 538.028 1.39524 0.732853 0
M  V30 5528 C 539.256 1.40143 1.52209 0
M  V30 5529 C 539.671 -0.00348836 1.888 0
M  V30 5530 O 539.028 -0.975357 1.5425 0
M  V30 5531 C 539.079 2.27632 2.8083 0
M  V30 5532 O 538.8 3.62654 2.45792 0
M  V30 5533 C 540.301 2.36658 3.74844 0
M  V30 5534 H 537.521 0.478604 0.470297 0
M  V30 5535 H 540.065 1.83366 0.905388 0
M  V30 5536 H 538.22 1.87818 3.38826 0
M  V30 5537 H 538.634 4.08941 3.28431 0
M  V30 5538 H 540.108 3.02118 4.61984 0
M  V30 5539 H 540.585 1.38638 4.16745 0
M  V30 5540 H 541.191 2.76951 3.22766 0
M  V30 5541 N 539.506 -0.963266 1.24736 0
M  V30 5542 C 540.416 -2.09246 1.06082 0
M  V30 5543 C 541.432 -1.74 0.000363101 0
M  V30 5544 O 542.608 -2.0041 0.199479 0
M  V30 5545 C 539.673 -3.40115 0.672498 0
M  V30 5546 C 538.734 -3.89282 1.80993 0
M  V30 5547 C 537.967 -5.13905 1.44004 0
M  V30 5548 O 538.19 -5.69434 0.331835 0
M  V30 5549 O 537.124 -5.57566 2.26723 0
M  V30 5550 H 540.95 -2.27881 2.00759 0
M  V30 5551 H 538.535 -1.07649 1.03595 0
M  V30 5552 H 540.417 -4.18797 0.467668 0
M  V30 5553 H 539.092 -3.22771 -0.245102 0
M  V30 5554 H 537.999 -3.11642 2.06955 0
M  V30 5555 H 539.332 -4.1111 2.70646 0
M  V30 5556 N 540.985 -1.06182 -1.16461 0
M  V30 5557 C 541.948 -0.675723 -2.19013 0
M  V30 5558 C 542.948 0.277963 -1.58379 0
M  V30 5559 O 544.138 0.0604962 -1.74095 0
M  V30 5560 C 541.27 0.00591459 -3.40899 0
M  V30 5561 H 542.463 -1.58353 -2.54685 0
M  V30 5562 H 540.016 -0.856908 -1.30716 0
M  V30 5563 H 540.751 0.92652 -3.10783 0
M  V30 5564 H 540.536 -0.67984 -3.86161 0
M  V30 5565 H 542.026 0.26181 -4.16778 0
M  V30 5566 N 542.463 1.3308 -0.844243 0
M  V30 5567 C 543.41 2.29104 -0.279323 0
M  V30 5568 C 544.38 1.54577 0.607882 0
M  V30 5569 O 545.565 1.8285 0.545009 0
M  V30 5570 C 542.705 3.40927 0.53508 0
M  V30 5571 C 541.818 4.30354 -0.376749 0
M  V30 5572 C 540.953 5.29297 0.449276 0
M  V30 5573 C 539.992 6.10365 -0.460606 0
M  V30 5574 N 539.129 7.01335 0.327612 0
M  V30 5575 H 543.969 2.76817 -1.10346 0
M  V30 5576 H 541.506 1.36203 -0.555611 0
M  V30 5577 H 543.464 4.04469 1.02278 0
M  V30 5578 H 542.094 2.94391 1.32414 0
M  V30 5579 H 541.146 3.67485 -0.982791 0
M  V30 5580 H 542.458 4.87067 -1.07549 0
M  V30 5581 H 541.612 5.98392 1.00058 0
M  V30 5582 H 540.351 4.73174 1.18143 0
M  V30 5583 H 539.356 5.40182 -1.02388 0
M  V30 5584 H 540.581 6.68571 -1.1912 0
M  V30 5585 H 538.527 6.47655 1.04305 0
M  V30 5586 H 538.444 7.55355 -0.3123 0
M  V30 5587 H 539.712 7.74731 0.86098 0
M  V30 5588 N 543.941 0.601185 1.45683 0
M  V30 5589 C 544.871 -0.108824 2.33246 0
M  V30 5590 C 545.852 -0.865223 1.46451 0
M  V30 5591 O 547.037 -0.83704 1.75235 0
M  V30 5592 C 544.167 -1.11101 3.2905 0
M  V30 5593 C 543.121 -0.468244 4.25431 0
M  V30 5594 C 542.447 -1.57822 5.10878 0
M  V30 5595 C 543.747 0.606469 5.18767 0
M  V30 5596 H 545.441 0.622306 2.92861 0
M  V30 5597 H 542.987 0.300714 1.40825 0
M  V30 5598 H 544.94 -1.61622 3.89174 0
M  V30 5599 H 543.664 -1.87265 2.67581 0
M  V30 5600 H 542.323 0.0160484 3.66596 0
M  V30 5601 H 541.971 -2.32998 4.45781 0
M  V30 5602 H 541.671 -1.15369 5.76163 0
M  V30 5603 H 543.195 -2.08583 5.73869 0
M  V30 5604 H 544.609 0.185589 5.73 0
M  V30 5605 H 543.006 0.952381 5.92494 0
M  V30 5606 H 544.076 1.48559 4.61582 0
M  V30 5607 N 545.419 -1.53889 0.339982 0
M  V30 5608 C 546.665 -2.01152 -0.258003 0
M  V30 5609 C 546.998 -1.22749 -1.50487 0
M  V30 5610 O 546.273 -0.314156 -1.91946 0
M  V30 5611 C 546.556 -3.55468 -0.575717 0
M  V30 5612 C 546.409 -4.44584 0.682996 0
M  V30 5613 C 547.728 -4.1768 -1.38677 0
M  V30 5614 H 544.847 -0.731198 -0.0922992 0
M  V30 5615 H 547.489 -1.84352 0.459814 0
M  V30 5616 H 545.639 -3.69914 -1.18725 0
M  V30 5617 H 547.311 -4.41981 1.32102 0
M  V30 5618 H 545.554 -4.13592 1.3086 0
M  V30 5619 H 546.225 -5.5043 0.416001 0
M  V30 5620 H 548.701 -4.0691 -0.869705 0
M  V30 5621 H 547.577 -5.25734 -1.57783 0
M  V30 5622 H 547.838 -3.72069 -2.38782 0
M  V30 5623 N 546.897 -0.0685191 -1.57451 0
M  V30 5624 C 548.122 0.613919 -1.98106 0
M  V30 5625 C 548.547 1.62551 -0.946501 0
M  V30 5626 O 547.905 1.81085 0.0882824 0
M  V30 5627 C 547.953 1.26189 -3.378 0
M  V30 5628 O 547.057 2.37773 -3.36954 0
M  V30 5629 H 546.398 0.158163 -0.644888 0
M  V30 5630 H 548.928 -0.142063 -2.04106 0
M  V30 5631 H 548.938 1.60951 -3.74912 0
M  V30 5632 H 547.613 0.520625 -4.12629 0
M  V30 5633 H 546.19 2.04829 -3.11608 0
M  V30 5634 N 548.375 1.56261 0.205012 0
M  V30 5635 C 549.338 1.92908 1.23771 0
M  V30 5636 C 550.338 0.809208 1.38955 0
M  V30 5637 O 551.528 1.07676 1.36936 0
M  V30 5638 C 548.66 2.19442 2.60879 0
M  V30 5639 H 549.853 2.85287 0.924728 0
M  V30 5640 H 547.406 1.49798 0.446125 0
M  V30 5641 H 548.141 1.29668 2.97248 0
M  V30 5642 H 547.926 3.0104 2.51232 0
M  V30 5643 H 549.416 2.48833 3.35368 0
M  V30 5644 N 549.853 -0.472356 1.50355 0
M  V30 5645 C 550.816 -1.5529 1.68576 0
M  V30 5646 C 551.816 -1.50863 0.556511 0
M  V30 5647 O 553.006 -1.53505 0.823516 0
M  V30 5648 C 550.138 -2.94921 1.70981 0
M  V30 5649 H 551.331 -1.40451 2.64978 0
M  V30 5650 H 548.884 -0.698645 1.39816 0
M  V30 5651 H 549.619 -3.15204 0.762675 0
M  V30 5652 H 549.404 -2.99541 2.53017 0
M  V30 5653 H 550.894 -3.73372 1.87037 0
M  V30 5654 N 551.331 -1.39911 -0.725443 0
M  V30 5655 C 552.579 -1.37382 -1.48224 0
M  V30 5656 C 552.9 0.0264107 -1.94982 0
M  V30 5657 O 552.17 0.979408 -1.6966 0
M  V30 5658 H 550.75 -0.505596 -0.549892 0
M  V30 5659 H 553.412 -1.7487 -0.860608 0
M  V30 5660 H 552.508 -2.04254 -2.3598 0
M  V30 5661 N 552.809 0.956637 -1.25245 0
M  V30 5662 C 554.057 1.69764 -1.09657 0
M  V30 5663 C 554.378 1.91583 0.363464 0
M  V30 5664 O 553.648 1.50149 1.25825 0
M  V30 5665 H 552.228 0.629097 -0.402798 0
M  V30 5666 H 554.89 1.15026 -1.57337 0
M  V30 5667 H 553.986 2.67769 -1.60331 0
M  V30 5668 N 554.287 1.06798 1.15896 0
M  V30 5669 C 555.698 0.811355 1.68149 0
M  V30 5670 C 556.049 -0.664339 1.8461 0
M  V30 5671 O 555.174 -1.51485 1.54535 0
M  V30 5672 C 555.769 1.46624 3.05429 0
M  V30 5673 C 554.328 1.25726 3.54781 0
M  V30 5674 C 553.475 1.53949 2.3064 0
M  V30 5675 H 556.426 1.23078 1.00187 0
M  V30 5676 H 556.447 0.88437 3.7008 0
M  V30 5677 H 555.959 2.54025 2.93416 0
M  V30 5678 H 554.06 0.20322 3.72045 0
M  V30 5679 H 554.173 1.97354 4.36564 0
M  V30 5680 H 552.537 0.96025 2.35905 0
M  V30 5681 H 553.32 2.6252 2.2122 0
M  V30 5682 N 555.766 -1.3263 0.851289 0
M  V30 5683 C 556.696 -2.31449 0.308771 0
M  V30 5684 C 557.677 -1.59531 -0.590255 0
M  V30 5685 O 558.862 -1.87351 -0.511205 0
M  V30 5686 C 555.992 -3.43586 -0.506548 0
M  V30 5687 C 554.946 -4.26963 0.297753 0
M  V30 5688 C 554.272 -5.30831 -0.642094 0
M  V30 5689 C 555.572 -4.99643 1.52166 0
M  V30 5690 H 557.266 -2.77074 1.13447 0
M  V30 5691 H 554.812 -1.33207 0.546971 0
M  V30 5692 H 556.765 -4.11754 -0.896474 0
M  V30 5693 H 555.489 -2.96681 -1.36558 0
M  V30 5694 H 554.148 -3.60437 0.669391 0
M  V30 5695 H 553.796 -4.8018 -1.49788 0
M  V30 5696 H 553.496 -5.87501 -0.107968 0
M  V30 5697 H 555.02 -6.01862 -1.02927 0
M  V30 5698 H 556.434 -5.6051 1.20421 0
M  V30 5699 H 554.831 -5.66022 1.99347 0
M  V30 5700 H 555.901 -4.27701 2.28474 0
M  V30 5701 N 557.244 -0.608902 -1.45362 0
M  V30 5702 C 558.655 -0.189511 -1.85736 0
M  V30 5703 C 559.006 1.2539 -1.50903 0
M  V30 5704 O 558.131 1.95094 -0.936347 0
M  V30 5705 C 558.726 -0.33716 -3.37118 0
M  V30 5706 C 557.285 0.0275487 -3.7639 0
M  V30 5707 C 556.432 -0.660983 -2.69307 0
M  V30 5708 H 559.383 -0.815499 -1.36144 0
M  V30 5709 H 559.404 0.430257 -3.7806 0
M  V30 5710 H 558.916 -1.38779 -3.62439 0
M  V30 5711 H 557.017 1.0773 -3.56686 0
M  V30 5712 H 557.13 -0.367018 -4.77692 0
M  V30 5713 H 555.494 -0.0984958 -2.54509 0
M  V30 5714 H 556.277 -1.71377 -2.97464 0
M  V30 5715 N 558.722 1.53707 -0.348139 0
M  V30 5716 C 560.133 1.86213 0.134797 0
M  V30 5717 C 560.484 1.26925 1.49614 0
M  V30 5718 O 559.609 0.584573 2.08355 0
M  V30 5719 C 560.204 3.37866 0.251371 0
M  V30 5720 C 558.763 3.70233 0.678543 0
M  V30 5721 C 557.91 2.76683 -0.184925 0
M  V30 5722 H 560.861 1.48204 -0.567571 0
M  V30 5723 H 560.882 3.64908 1.07806 0
M  V30 5724 H 560.394 3.80988 -0.739581 0
M  V30 5725 H 558.495 3.32659 1.67835 0
M  V30 5726 H 558.608 4.76836 0.465251 0
M  V30 5727 H 556.972 2.52374 0.343465 0
M  V30 5728 H 557.755 3.22635 -1.1731 0
M  V30 5729 N 560.2 0.0768682 1.57412 0
M  V30 5730 C 561.446 -0.591961 1.93968 0
M  V30 5731 C 561.779 -1.68954 0.9575 0
M  V30 5732 O 561.054 -1.94496 -0.0124675 0
M  V30 5733 C 561.337 -1.16418 3.40762 0
M  V30 5734 C 561.19 -0.0728933 4.49741 0
M  V30 5735 C 562.509 -2.06814 3.88479 0
M  V30 5736 H 559.628 -0.213716 0.705333 0
M  V30 5737 H 562.27 0.14387 1.89455 0
M  V30 5738 H 560.42 -1.79128 3.4474 0
M  V30 5739 H 562.092 0.560446 4.57883 0
M  V30 5740 H 560.335 0.595859 4.29688 0
M  V30 5741 H 561.006 -0.513755 5.49604 0
M  V30 5742 H 563.482 -1.54033 3.8654 0
M  V30 5743 H 562.358 -2.43785 4.91793 0
M  V30 5744 H 562.619 -2.97844 3.26713 0
M  V30 5745 N 561.678 -1.56367 -0.196722 0
M  V30 5746 C 562.903 -1.84991 -0.937714 0
M  V30 5747 C 563.328 -0.660244 -1.76132 0
M  V30 5748 O 562.686 0.390967 -1.77034 0
M  V30 5749 C 562.734 -3.11828 -1.81096 0
M  V30 5750 O 561.838 -2.92266 -2.90955 0
M  V30 5751 H 561.179 -0.609193 -0.264159 0
M  V30 5752 H 563.709 -2.03595 -0.202529 0
M  V30 5753 H 563.719 -3.42579 -2.21594 0
M  V30 5754 H 562.394 -3.98037 -1.2058 0
M  V30 5755 H 560.971 -2.72809 -2.54224 0
M  V30 5756 N 563.156 0.464375 -1.50603 0
M  V30 5757 C 564.384 1.23907 -1.65695 0
M  V30 5758 C 564.799 1.85658 -0.343027 0
M  V30 5759 O 564.156 1.69529 0.675739 0
M  V30 5760 C 564.207 2.3429 -2.75301 0
M  V30 5761 O 563.928 1.7507 -4.01599 0
M  V30 5762 C 565.429 3.25051 -3.01424 0
M  V30 5763 H 562.649 0.374485 -0.556778 0
M  V30 5764 H 565.193 0.55353 -1.96866 0
M  V30 5765 H 563.348 2.98607 -2.46804 0
M  V30 5766 H 563.762 2.47812 -4.62266 0
M  V30 5767 H 565.236 3.98699 -3.81763 0
M  V30 5768 H 565.713 3.84227 -2.12758 0
M  V30 5769 H 566.319 2.66463 -3.31477 0
M  V30 5770 N 564.634 1.40294 0.718013 0
M  V30 5771 C 565.564 1.43118 1.84498 0
M  V30 5772 C 566.545 0.292403 1.67568 0
M  V30 5773 O 567.73 0.500675 1.87635 0
M  V30 5774 C 564.86 1.29065 3.22427 0
M  V30 5775 C 563.814 2.40521 3.54025 0
M  V30 5776 C 563.14 2.11546 4.91073 0
M  V30 5777 C 564.44 3.82859 3.55269 0
M  V30 5778 H 566.134 2.37432 1.82391 0
M  V30 5779 H 563.68 1.14283 0.87609 0
M  V30 5780 H 565.633 1.29658 4.00957 0
M  V30 5781 H 564.357 0.312271 3.25104 0
M  V30 5782 H 563.016 2.39173 2.77834 0
M  V30 5783 H 562.664 1.12104 4.90348 0
M  V30 5784 H 562.364 2.86216 5.1318 0
M  V30 5785 H 563.888 2.13817 5.71939 0
M  V30 5786 H 565.302 3.86044 4.23843 0
M  V30 5787 H 563.699 4.57029 3.88902 0
M  V30 5788 H 564.769 4.12617 2.54706 0
M  V30 5789 N 566.112 -0.949982 1.2575 0
M  V30 5790 C 567.34 -1.72972 1.13527 0
M  V30 5791 C 567.755 -1.8623 -0.310453 0
M  V30 5792 O 567.112 -1.36336 -1.2132 0
M  V30 5793 C 567.163 -3.14108 1.78936 0
M  V30 5794 O 566.884 -3.01493 3.17858 0
M  V30 5795 C 568.385 -4.08338 1.72554 0
M  V30 5796 H 565.605 -0.541864 0.395758 0
M  V30 5797 H 568.149 -1.19151 1.66202 0
M  V30 5798 H 566.304 -3.64858 1.30221 0
M  V30 5799 H 566.718 -3.90559 3.50092 0
M  V30 5800 H 568.192 -5.04963 2.22973 0
M  V30 5801 H 568.669 -4.33742 0.690251 0
M  V30 5802 H 569.275 -3.63506 2.2078 0
M  V30 5803 N 567.59 -1.07411 -1.15328 0
M  V30 5804 C 568.553 -0.698914 -2.18284 0
M  V30 5805 C 569.553 0.261149 -1.58665 0
M  V30 5806 O 570.743 0.0420277 -1.74149 0
M  V30 5807 C 567.875 -0.0302427 -3.40887 0
M  V30 5808 H 569.068 -1.61045 -2.52991 0
M  V30 5809 H 566.621 -0.870724 -1.298 0
M  V30 5810 H 567.356 0.893505 -3.11748 0
M  V30 5811 H 567.141 -0.720759 -3.85419 0
M  V30 5812 H 568.631 0.21759 -4.17033 0
M  V30 5813 N 569.068 1.32177 -0.85831 0
M  V30 5814 C 569.998 2.31282 -0.321041 0
M  V30 5815 C 570.979 1.59841 0.581786 0
M  V30 5816 O 572.164 1.87619 0.501262 0
M  V30 5817 C 569.294 3.4385 0.48832 0
M  V30 5818 C 568.248 4.26799 -0.320391 0
M  V30 5819 C 567.574 5.31164 0.613934 0
M  V30 5820 C 568.874 4.98829 -1.54813 0
M  V30 5821 H 570.568 2.76469 -1.14915 0
M  V30 5822 H 568.114 1.32916 -0.554028 0
M  V30 5823 H 570.067 4.12224 0.874626 0
M  V30 5824 H 568.791 2.97401 1.34983 0
M  V30 5825 H 567.45 3.60077 -0.688497 0
M  V30 5826 H 567.098 4.80967 1.47239 0
M  V30 5827 H 566.798 5.8755 0.0768097 0
M  V30 5828 H 568.322 6.024 0.997336 0
M  V30 5829 H 569.736 5.59864 -1.23392 0
M  V30 5830 H 568.133 5.64957 -2.02346 0
M  V30 5831 H 569.203 4.26483 -2.30739 0
M  V30 5832 N 570.547 0.616602 1.45037 0
M  V30 5833 C 571.497 -0.118543 2.27692 0
M  V30 5834 C 572.481 -0.830025 1.37838 0
M  V30 5835 O 573.673 -0.718528 1.6176 0
M  V30 5836 C 570.802 -1.10924 3.24886 0
M  V30 5837 C 569.888 -0.398134 4.22227 0
M  V30 5838 N 570.279 0.565233 5.02632 0
M  V30 5839 C 568.577 -0.644506 4.41319 0
M  V30 5840 C 569.278 0.984043 5.73316 0
M  V30 5841 N 568.254 0.325879 5.42622 0
M  V30 5842 H 572.056 0.621239 2.87259 0
M  V30 5843 H 569.57 0.440968 1.56299 0
M  V30 5844 H 571.567 -1.65038 3.82842 0
M  V30 5845 H 570.227 -1.84948 2.66879 0
M  V30 5846 H 571.238 0.942395 5.09254 0
M  V30 5847 H 567.915 -1.36873 3.94426 0
M  V30 5848 H 569.305 1.77911 6.47918 0
M  V30 5849 N 572.025 -1.5352 0.356285 0
M  V30 5850 C 573.25 -2.06007 -0.239961 0
M  V30 5851 C 573.675 -1.22872 -1.42422 0
M  V30 5852 O 573.033 -0.245516 -1.7963 0
M  V30 5853 C 573.081 -3.5522 -0.620587 0
M  V30 5854 O 572.185 -3.74864 -1.71902 0
M  V30 5855 H 571.526 -0.662961 -0.0371377 0
M  V30 5856 H 574.056 -1.98033 0.514194 0
M  V30 5857 H 574.066 -3.98081 -0.894197 0
M  V30 5858 H 572.741 -4.15175 0.245407 0
M  V30 5859 H 571.318 -3.43904 -1.44169 0
M  V30 5860 N 573.503 -0.0852151 -1.57369 0
M  V30 5861 C 574.433 0.874556 -2.16503 0
M  V30 5862 C 575.414 1.30111 -1.09568 0
M  V30 5863 O 576.599 1.36977 -1.37662 0
M  V30 5864 C 573.729 2.13731 -2.73745 0
M  V30 5865 C 572.683 1.84971 -3.85966 0
M  V30 5866 C 572.009 3.17991 -4.29867 0
M  V30 5867 C 573.309 1.14442 -5.09608 0
M  V30 5868 H 575.003 0.381899 -2.96954 0
M  V30 5869 H 572.549 0.18225 -1.42842 0
M  V30 5870 H 574.502 2.81302 -3.13763 0
M  V30 5871 H 573.226 2.65263 -1.90534 0
M  V30 5872 H 571.885 1.19801 -3.46473 0
M  V30 5873 H 571.533 3.6739 -3.4356 0
M  V30 5874 H 571.233 2.99534 -5.05523 0
M  V30 5875 H 572.757 3.86737 -4.72511 0
M  V30 5876 H 574.171 1.72105 -5.46857 0
M  V30 5877 H 572.568 1.06197 -5.90629 0
M  V30 5878 H 573.638 0.12559 -4.84737 0
M  V30 5879 N 574.981 1.5647 0.188427 0
M  V30 5880 C 575.891 1.98285 1.2538 0
M  V30 5881 C 576.907 0.891535 1.49424 0
M  V30 5882 O 578.083 1.19782 1.61908 0
M  V30 5883 C 575.148 2.31965 2.57669 0
M  V30 5884 C 574.209 3.54838 2.41638 0
M  V30 5885 C 573.442 3.86901 3.67618 0
M  V30 5886 O 573.665 3.20163 4.72072 0
M  V30 5887 O 572.599 4.80309 3.62749 0
M  V30 5888 H 576.425 2.89145 0.928912 0
M  V30 5889 H 574.01 1.44112 0.393955 0
M  V30 5890 H 575.892 2.54673 3.35737 0
M  V30 5891 H 574.567 1.44271 2.89771 0
M  V30 5892 H 573.474 3.37369 1.61658 0
M  V30 5893 H 574.807 4.43019 2.14465 0
M  V30 5894 N 576.459 -0.456382 1.50847 0
M  V30 5895 C 577.391 -1.57033 1.66953 0
M  V30 5896 C 578.404 -1.53207 0.550593 0
M  V30 5897 O 579.593 -1.58328 0.824285 0
M  V30 5898 C 576.693 -2.95937 1.65149 0
M  V30 5899 C 575.866 -3.24475 2.93317 0
M  V30 5900 C 574.925 -4.43007 2.83957 0
M  V30 5901 O 573.951 -4.42592 3.57912 0
M  V30 5902 N 575.153 -5.45503 1.9851 0
M  V30 5903 H 577.918 -1.43629 2.63042 0
M  V30 5904 H 575.479 -0.645037 1.48495 0
M  V30 5905 H 577.471 -3.73224 1.56481 0
M  V30 5906 H 576.041 -3.03036 0.767343 0
M  V30 5907 H 575.261 -2.35664 3.16 0
M  V30 5908 H 576.549 -3.4036 3.78196 0
M  V30 5909 H 575.947 -5.48668 1.37766 0
M  V30 5910 H 574.504 -6.21716 1.95735 0
M  V30 5911 N 577.937 -1.40673 -0.710563 0
M  V30 5912 C 579.165 -1.42547 -1.4996 0
M  V30 5913 C 579.58 -0.0265485 -1.88781 0
M  V30 5914 O 578.937 0.950694 -1.55782 0
M  V30 5915 C 578.988 -2.32071 -2.77173 0
M  V30 5916 O 578.709 -3.66518 -2.39992 0
M  V30 5917 C 580.21 -2.42591 -3.71032 0
M  V30 5918 H 577.43 -0.486025 -0.462623 0
M  V30 5919 H 579.974 -1.84783 -0.876102 0
M  V30 5920 H 578.129 -1.93184 -3.35795 0
M  V30 5921 H 578.543 -4.14115 -3.21884 0
M  V30 5922 H 580.017 -3.09429 -4.57119 0
M  V30 5923 H 580.494 -1.4525 -4.14486 0
M  V30 5924 H 581.1 -2.82051 -3.18319 0
M  V30 5925 N 579.415 0.9433 -1.26252 0
M  V30 5926 C 580.64 1.72898 -1.14547 0
M  V30 5927 C 581.065 1.85761 0.295743 0
M  V30 5928 O 580.423 1.3463 1.21427 0
M  V30 5929 C 580.471 3.11471 -1.8171 0
M  V30 5930 O 579.575 3.97336 -1.10445 0
M  V30 5931 H 578.916 0.530555 -0.399259 0
M  V30 5932 H 581.446 1.18159 -1.67032 0
M  V30 5933 H 581.456 3.61872 -1.88449 0
M  V30 5934 H 580.131 3.01425 -2.86558 0
M  V30 5935 H 578.708 3.55788 -1.11666 0
M  V30 5936 N 580.893 1.08022 1.14757 0
M  V30 5937 C 582.304 0.829144 1.67279 0
M  V30 5938 C 582.655 -0.644721 1.85305 0
M  V30 5939 O 581.78 -1.49838 1.56133 0
M  V30 5940 C 582.375 1.49855 3.03857 0
M  V30 5941 C 580.934 1.29482 3.53428 0
M  V30 5942 C 580.081 1.56386 2.28995 0
M  V30 5943 H 583.032 1.24134 0.988762 0
M  V30 5944 H 583.053 0.923572 3.69121 0
M  V30 5945 H 582.565 2.57123 2.90705 0
M  V30 5946 H 580.666 0.242669 3.71809 0
M  V30 5947 H 580.779 2.01974 4.34446 0
M  V30 5948 H 579.143 0.985217 2.34874 0
M  V30 5949 H 579.926 2.64851 2.18423 0
M  V30 5950 N 582.371 -1.3172 0.865308 0
M  V30 5951 C 583.619 -1.96487 0.472995 0
M  V30 5952 C 583.94 -1.68761 -0.976975 0
M  V30 5953 O 583.21 -1.00051 -1.68424 0
M  V30 5954 H 581.79 -0.726947 0.171922 0
M  V30 5955 H 584.452 -1.60612 1.10407 0
M  V30 5956 H 583.548 -3.0574 0.62687 0
M  V30 5957 N 583.85 -0.624285 -1.44708 0
M  V30 5958 C 584.779 0.0717025 -2.3339 0
M  V30 5959 C 585.76 0.841814 -1.47809 0
M  V30 5960 O 586.946 0.809056 -1.76544 0
M  V30 5961 C 584.076 1.05852 -3.30776 0
M  V30 5962 C 583.029 0.400503 -4.26122 0
M  V30 5963 C 582.356 1.49674 -5.13324 0
M  V30 5964 C 583.656 -0.688924 -5.17737 0
M  V30 5965 H 585.35 -0.668819 -2.91834 0
M  V30 5966 H 582.896 -0.32308 -1.40329 0
M  V30 5967 H 584.849 1.5541 -3.91696 0
M  V30 5968 H 583.572 1.82984 -2.70526 0
M  V30 5969 H 582.231 -0.0743687 -3.66525 0
M  V30 5970 H 581.88 2.25877 -4.49431 0
M  V30 5971 H 581.58 1.06188 -5.77926 0
M  V30 5972 H 583.104 1.99427 -5.77115 0
M  V30 5973 H 584.518 -0.276724 -5.72632 0
M  V30 5974 H 582.915 -1.04652 -5.90904 0
M  V30 5975 H 583.985 -1.55884 -4.5916 0
M  V30 5976 N 585.328 1.53329 -0.364422 0
M  V30 5977 C 586.276 2.27212 0.497737 0
M  V30 5978 C 587.27 1.30146 1.08437 0
M  V30 5979 O 588.476 1.47778 1.0277 0
M  V30 5980 H 584.851 0.730329 0.179232 0
M  V30 5981 H 586.822 2.98037 -0.147182 0
M  V30 5982 C 585.571 3.07333 1.6261 0
M  V30 5983 H 584.894 3.81866 1.184 0
M  V30 5984 H 586.334 3.62209 2.20409 0
M  V30 5985 C 584.793 2.18102 2.56775 0
M  V30 5986 O 585.323 1.79104 3.59562 0
M  V30 5987 N 583.529 1.82759 2.25937 0
M  V30 5988 H 583.076 2.14671 1.42387 0
M  V30 5989 H 583.034 1.23342 2.89196 0
M  V30 5990 N 586.806 0.0935595 1.57322 0
M  V30 5991 C 587.738 -0.895923 2.10964 0
M  V30 5992 C 588.751 -1.24705 1.04654 0
M  V30 5993 O 589.94 -1.20044 1.32105 0
M  V30 5994 C 587.04 -2.20546 2.57318 0
M  V30 5995 C 586.213 -2.0299 3.87445 0
M  V30 5996 C 585.272 -3.17443 4.19662 0
M  V30 5997 O 584.298 -2.91474 4.88909 0
M  V30 5998 N 585.5 -4.43168 3.74943 0
M  V30 5999 H 588.265 -0.437788 2.96485 0
M  V30 6000 H 585.826 -0.0915863 1.61641 0
M  V30 6001 H 587.818 -2.9606 2.75917 0
M  V30 6002 H 586.388 -2.57789 1.76816 0
M  V30 6003 H 585.608 -1.11815 3.78009 0
M  V30 6004 H 586.896 -1.88535 4.7258 0
M  V30 6005 H 586.294 -4.67149 3.19043 0
M  V30 6006 H 584.851 -5.15637 3.987 0
M  V30 6007 N 588.284 -1.56567 -0.180126 0
M  V30 6008 C 589.216 -1.92275 -1.24751 0
M  V30 6009 C 590.229 -0.814922 -1.40936 0
M  V30 6010 O 591.418 -1.09336 -1.41095 0
M  V30 6011 C 588.518 -2.15265 -2.61752 0
M  V30 6012 C 587.691 -3.46467 -2.66981 0
M  V30 6013 C 586.75 -3.58391 -3.85283 0
M  V30 6014 O 585.776 -4.31086 -3.7169 0
M  V30 6015 N 586.978 -2.92587 -5.01371 0
M  V30 6016 H 589.743 -2.84435 -0.944302 0
M  V30 6017 H 587.304 -1.57617 -0.369952 0
M  V30 6018 H 589.296 -2.20515 -3.39345 0
M  V30 6019 H 587.866 -1.29533 -2.845 0
M  V30 6020 H 587.086 -3.52953 -1.75549 0
M  V30 6021 H 588.374 -4.32819 -2.67479 0
M  V30 6022 H 587.772 -2.3338 -5.15316 0
M  V30 6023 H 586.329 -3.03444 -5.76858 0
M  V30 6024 N 589.762 0.448376 -1.51087 0
M  V30 6025 C 591.173 1.0286 -1.5581 0
M  V30 6026 C 591.524 1.92583 -0.374989 0
M  V30 6027 O 590.649 2.10316 0.509533 0
M  V30 6028 C 591.244 1.87223 -2.8237 0
M  V30 6029 C 589.803 2.40314 -2.897 0
M  V30 6030 C 588.95 1.19238 -2.50355 0
M  V30 6031 H 591.901 0.230075 -1.57023 0
M  V30 6032 H 591.922 2.72553 -2.6551 0
M  V30 6033 H 591.434 1.21894 -3.68461 0
M  V30 6034 H 589.535 3.09129 -2.08014 0
M  V30 6035 H 589.648 2.73866 -3.93108 0
M  V30 6036 H 588.012 1.53428 -2.03303 0
M  V30 6037 H 588.795 0.555367 -3.38778 0
M  V30 6038 N 591.24 1.41047 0.703093 0
M  V30 6039 C 592.172 1.38228 1.82827 0
M  V30 6040 C 593.185 0.285637 1.60275 0
M  V30 6041 O 594.374 0.54685 1.69917 0
M  V30 6042 C 591.474 1.13136 3.19458 0
M  V30 6043 C 590.647 2.34695 3.69103 0
M  V30 6044 C 589.706 2.05574 4.84382 0
M  V30 6045 O 588.732 2.78549 4.96386 0
M  V30 6046 N 589.934 1.04135 5.71083 0
M  V30 6047 H 592.699 2.35203 1.85741 0
M  V30 6048 H 590.26 1.35562 0.885125 0
M  V30 6049 H 592.252 0.916183 3.94193 0
M  V30 6050 H 590.822 0.247836 3.11616 0
M  V30 6051 H 590.042 2.71963 2.85359 0
M  V30 6052 H 591.33 3.15705 3.99009 0
M  V30 6053 H 590.728 0.43722 5.64008 0
M  V30 6054 H 589.285 0.886078 6.45749 0
M  V30 6055 N 592.718 -0.936591 1.26751 0
M  V30 6056 C 593.666 -2.0573 1.08527 0
M  V30 6057 C 594.66 -1.69397 0.0108784 0
M  V30 6058 O 595.866 -1.79215 0.167915 0
M  V30 6059 H 592.241 -0.673691 0.334133 0
M  V30 6060 H 594.212 -2.1825 2.03493 0
M  V30 6061 C 592.961 -3.39738 0.739845 0
M  V30 6062 H 592.284 -3.68174 1.55845 0
M  V30 6063 H 593.724 -4.18955 0.652149 0
M  V30 6064 C 592.183 -3.32292 -0.555288 0
M  V30 6065 O 592.713 -3.68794 -1.59229 0
M  V30 6066 N 590.919 -2.85394 -0.54762 0
M  V30 6067 H 590.466 -2.55886 0.296667 0
M  V30 6068 H 590.424 -2.80795 -1.41427 0
M  V30 6069 N 594.196 -1.08629 -1.14182 0
M  V30 6070 C 595.126 -0.740003 -2.21464 0
M  V30 6071 C 596.107 0.278591 -1.67803 0
M  V30 6072 O 597.292 0.148461 -1.93632 0
M  V30 6073 C 594.422 -0.150952 -3.46972 0
M  V30 6074 C 593.376 -1.09815 -4.13672 0
M  V30 6075 C 592.702 -0.3712 -5.3341 0
M  V30 6076 C 594.002 -2.43722 -4.61949 0
M  V30 6077 H 595.696 -1.63697 -2.50686 0
M  V30 6078 H 593.242 -0.788526 -1.20492 0
M  V30 6079 H 595.195 0.103325 -4.21273 0
M  V30 6080 H 593.919 0.781164 -3.1712 0
M  V30 6081 H 592.578 -1.33756 -3.41328 0
M  V30 6082 H 592.226 0.564792 -4.99819 0
M  V30 6083 H 591.926 -1.00267 -5.78982 0
M  V30 6084 H 593.45 -0.12503 -6.10472 0
M  V30 6085 H 594.864 -2.24034 -5.27714 0
M  V30 6086 H 593.261 -3.02582 -5.18232 0
M  V30 6087 H 594.331 -3.05082 -3.76899 0
M  V30 6088 N 595.674 1.31259 -0.872281 0
M  V30 6089 C 596.923 1.95893 -0.480493 0
M  V30 6090 C 597.236 1.697 0.972688 0
M  V30 6091 O 598.442 2.28214 1.47073 0
M  V30 6092 C 596.898 3.50705 -0.808342 0
M  V30 6093 C 596.506 3.85735 -2.27844 0
M  V30 6094 C 598.25 4.21719 -0.485136 0
M  V30 6095 C 596.157 5.33668 -2.54858 0
M  V30 6096 H 595.087 0.733182 -0.175955 0
M  V30 6097 H 597.738 1.49396 -1.0655 0
M  V30 6098 H 596.12 3.95706 -0.152558 0
M  V30 6099 H 597.294 3.51686 -2.97748 0
M  V30 6100 H 595.609 3.27792 -2.56791 0
M  V30 6101 H 598.206 5.30559 -0.664166 0
M  V30 6102 H 598.549 4.12316 0.574592 0
M  V30 6103 H 599.082 3.82359 -1.09756 0
M  V30 6104 H 595.821 5.48109 -3.59523 0
M  V30 6105 H 595.341 5.69061 -1.8955 0
M  V30 6106 H 597.02 6.00958 -2.39706 0
M  V30 6107 N 597.152 0.631951 1.44375 0
M  V30 6108 C 598.085 -0.121822 2.27875 0
M  V30 6109 C 599.063 -0.850457 1.38586 0
M  V30 6110 O 600.247 -0.854378 1.68026 0
M  V30 6111 C 597.374 -1.17859 3.17533 0
M  V30 6112 C 596.42 -0.550391 4.22934 0
M  V30 6113 S 597.253 0.660145 5.31415 0
M  V30 6114 C 598.409 -0.396613 6.24642 0
M  V30 6115 H 598.642 0.586537 2.91457 0
M  V30 6116 H 596.175 0.420146 1.48574 0
M  V30 6117 H 598.133 -1.78335 3.69739 0
M  V30 6118 H 596.794 -1.85915 2.53169 0
M  V30 6119 H 595.987 -1.34631 4.85685 0
M  V30 6120 H 595.589 -0.0202306 3.73995 0
M  V30 6121 H 597.881 -1.26893 6.65511 0
M  V30 6122 H 598.824 0.195345 7.0783 0
M  V30 6123 H 599.232 -0.72288 5.59852 0
M  V30 6124 N 598.631 -1.53133 0.372548 0
M  V30 6125 C 599.594 -2.24569 -0.458389 0
M  V30 6126 C 600.594 -1.25603 -1.00402 0
M  V30 6127 O 601.784 -1.49827 -0.888672 0
M  V30 6128 C 598.916 -2.98783 -1.6414 0
M  V30 6129 H 600.109 -2.99436 0.166799 0
M  V30 6130 H 597.662 -1.55805 0.124357 0
M  V30 6131 H 598.397 -2.28176 -2.30448 0
M  V30 6132 H 598.182 -3.71404 -1.25704 0
M  V30 6133 H 599.672 -3.53068 -2.23008 0
M  V30 6134 N 600.109 -0.101901 -1.5727 0
M  V30 6135 C 601.334 0.571759 -1.99363 0
M  V30 6136 C 601.759 1.60507 -0.980768 0
M  V30 6137 O 601.117 1.81231 0.0498517 0
M  V30 6138 C 601.165 1.18996 -3.404 0
M  V30 6139 O 600.269 2.30572 -3.41922 0
M  V30 6140 H 599.61 0.144449 -0.648098 0
M  V30 6141 H 602.14 -0.185325 -2.03759 0
M  V30 6142 H 602.15 1.52962 -3.78241 0
M  V30 6143 H 600.825 0.432984 -4.1364 0
M  V30 6144 H 599.402 1.98173 -3.15883 0
M  V30 6145 N 601.587 1.56661 0.17182 0
M  V30 6146 C 602.517 1.99401 1.21498 0
M  V30 6147 C 603.498 0.869516 1.46197 0
M  V30 6148 O 604.683 1.13556 1.57539 0
M  V30 6149 C 601.813 2.35346 2.55401 0
M  V30 6150 C 600.767 3.5075 2.45272 0
M  V30 6151 C 600.093 3.72437 3.8366 0
M  V30 6152 C 601.393 4.84216 1.95787 0
M  V30 6153 H 603.087 2.86792 0.859699 0
M  V30 6154 H 600.633 1.37977 0.412103 0
M  V30 6155 H 602.586 2.63843 3.2858 0
M  V30 6156 H 601.31 1.44864 2.92715 0
M  V30 6157 H 599.969 3.2238 1.74547 0
M  V30 6158 H 599.617 2.79246 4.18367 0
M  V30 6159 H 599.317 4.50087 3.77751 0
M  V30 6160 H 600.841 4.03334 4.58426 0
M  V30 6161 H 602.255 5.11592 2.5874 0
M  V30 6162 H 600.652 5.65498 2.00827 0
M  V30 6163 H 601.722 4.76243 0.912159 0
M  V30 6164 N 603.065 -0.440357 1.51323 0
M  V30 6165 C 604.476 -1.02032 1.56353 0
M  V30 6166 C 604.827 -1.92382 0.385197 0
M  V30 6167 O 603.952 -2.10583 -0.498373 0
M  V30 6168 C 604.547 -1.85723 2.83359 0
M  V30 6169 C 603.106 -2.38774 2.90971 0
M  V30 6170 C 602.253 -1.17908 2.50984 0
M  V30 6171 H 605.204 -0.221744 1.57143 0
M  V30 6172 H 605.225 -2.71141 2.66951 0
M  V30 6173 H 604.737 -1.19939 3.69102 0
M  V30 6174 H 602.838 -3.08021 2.09651 0
M  V30 6175 H 602.951 -2.71778 3.94555 0
M  V30 6176 H 601.315 -1.52347 2.04114 0
M  V30 6177 H 602.098 -0.537393 3.39068 0
M  V30 6178 N 604.543 -1.41418 -0.695603 0
M  V30 6179 C 605.791 -1.40496 -1.45277 0
M  V30 6180 C 606.112 -0.0149538 -1.94994 0
M  V30 6181 O 605.382 0.9432 -1.71699 0
M  V30 6182 H 603.962 -0.517147 -0.539044 0
M  V30 6183 H 606.624 -1.76656 -0.823321 0
M  V30 6184 H 605.72 -2.09214 -2.31595 0
M  V30 6185 N 606.021 0.929856 -1.27246 0
M  V30 6186 C 607.267 1.6798 -1.13625 0
M  V30 6187 C 607.6 1.91586 0.317589 0
M  V30 6188 O 606.875 1.50467 1.23247 0
M  V30 6189 C 607.158 3.04766 -1.91806 0
M  V30 6190 C 607.011 2.88415 -3.45162 0
M  V30 6191 C 608.33 4.05063 -1.72082 0
M  V30 6192 H 605.449 0.609632 -0.414147 0
M  V30 6193 H 608.091 1.0792 -1.56376 0
M  V30 6194 H 606.241 3.56034 -1.55474 0
M  V30 6195 H 607.913 2.44282 -3.91311 0
M  V30 6196 H 606.156 2.23802 -3.71611 0
M  V30 6197 H 606.827 3.85482 -3.95105 0
M  V30 6198 H 609.303 3.62798 -2.03757 0
M  V30 6199 H 608.179 4.98765 -2.29182 0
M  V30 6200 H 608.44 4.37021 -0.668206 0
M  V30 6201 N 607.499 1.09233 1.13605 0
M  V30 6202 C 608.432 0.6739 2.18023 0
M  V30 6203 C 609.41 -0.318603 1.59448 0
M  V30 6204 O 610.594 -0.220452 1.87206 0
M  V30 6205 C 607.721 -0.00751458 3.38699 0
M  V30 6206 C 606.767 0.946481 4.15865 0
M  V30 6207 S 607.6 2.45753 4.75779 0
M  V30 6208 C 608.756 1.78846 5.99804 0
M  V30 6209 H 608.989 1.55846 2.53178 0
M  V30 6210 H 606.522 0.908118 1.2487 0
M  V30 6211 H 608.48 -0.394368 4.08601 0
M  V30 6212 H 607.141 -0.868693 3.01849 0
M  V30 6213 H 606.334 0.416742 5.02274 0
M  V30 6214 H 605.936 1.27464 3.51609 0
M  V30 6215 H 608.228 1.11135 6.68323 0
M  V30 6216 H 609.171 2.63163 6.57382 0
M  V30 6217 H 609.579 1.25823 5.50299 0
M  V30 6218 N 608.977 -1.30795 0.87923 0
M  V30 6219 C 610.205 -2.00527 0.509548 0
M  V30 6220 C 610.62 -1.65944 -0.90045 0
M  V30 6221 O 609.977 -0.893525 -1.5913 0
M  V30 6222 C 610.028 -3.55276 0.667943 0
M  V30 6223 O 609.749 -3.88625 2.02242 0
M  V30 6224 C 611.25 -4.4228 0.300494 0
M  V30 6225 H 608.47 -0.641261 0.197549 0
M  V30 6226 H 611.014 -1.66813 1.18295 0
M  V30 6227 H 609.169 -3.87377 0.0419843 0
M  V30 6228 H 609.583 -4.83334 2.03688 0
M  V30 6229 H 611.057 -5.50061 0.462242 0
M  V30 6230 H 611.534 -4.32556 -0.76106 0
M  V30 6231 H 612.14 -4.15613 0.902536 0
M  V30 6232 N 610.455 -0.639598 -1.44038 0
M  V30 6233 C 611.704 -0.144885 -2.01179 0
M  V30 6234 C 612.017 1.24372 -1.50967 0
M  V30 6235 O 613.223 1.83291 -2.00292 0
M  V30 6236 C 611.679 -0.208244 -3.59297 0
M  V30 6237 C 611.287 -1.59869 -4.18504 0
M  V30 6238 C 613.031 0.229568 -4.23879 0
M  V30 6239 C 610.938 -1.61671 -5.68873 0
M  V30 6240 H 609.868 -0.0504005 -0.752314 0
M  V30 6241 H 612.519 -0.799639 -1.65161 0
M  V30 6242 H 610.901 0.513767 -3.92653 0
M  V30 6243 H 612.075 -2.34496 -3.96671 0
M  V30 6244 H 610.39 -1.98131 -3.66242 0
M  V30 6245 H 612.987 0.235758 -5.3418 0
M  V30 6246 H 613.33 1.25848 -3.96822 0
M  V30 6247 H 613.863 -0.440233 -3.95357 0
M  V30 6248 H 610.602 -2.62427 -6.00677 0
M  V30 6249 H 610.122 -0.913489 -5.92803 0
M  V30 6250 H 611.801 -1.35439 -6.32665 0
M  V30 6251 N 611.933 1.52934 -0.380664 0
M  V30 6252 C 613.181 2.01069 0.203874 0
M  V30 6253 C 613.502 1.26922 1.4804 0
M  V30 6254 O 612.772 0.386787 1.92044 0
M  V30 6255 H 611.352 0.742882 0.0783279 0
M  V30 6256 H 614.014 1.88099 -0.510368 0
M  V30 6257 H 613.11 3.09258 0.42021 0
M  V30 6258 N 613.412 0.11024 1.57214 0
M  V30 6259 C 614.823 -0.416527 1.81994 0
M  V30 6260 C 615.174 -1.67183 1.02686 0
M  V30 6261 O 614.299 -2.14823 0.260782 0
M  V30 6262 C 614.894 -0.762466 3.30109 0
M  V30 6263 C 613.453 -1.23391 3.556 0
M  V30 6264 C 612.6 -0.238166 2.76275 0
M  V30 6265 H 615.551 0.335491 1.55113 0
M  V30 6266 H 615.572 -1.62068 3.44259 0
M  V30 6267 H 615.084 0.151346 3.87805 0
M  V30 6268 H 613.185 -2.16492 3.03253 0
M  V30 6269 H 613.298 -1.18528 4.64207 0
M  V30 6270 H 611.662 -0.723421 2.4421 0
M  V30 6271 H 612.445 0.668591 3.36727 0
M  V30 6272 N 614.89 -1.56749 -0.16351 0
M  V30 6273 C 616.138 -1.82074 -0.87713 0
M  V30 6274 C 616.459 -0.688503 -1.82441 0
M  V30 6275 O 615.729 0.291085 -1.93725 0
M  V30 6276 H 614.309 -0.671677 -0.326893 0
M  V30 6277 H 616.971 -1.9423 -0.161459 0
M  V30 6278 H 616.067 -2.76407 -1.44934 0
M  V30 6279 N 616.368 0.432326 -1.51554 0
M  V30 6280 C 617.278 1.55023 -1.76082 0
M  V30 6281 C 618.294 1.61593 -0.645265 0
M  V30 6282 O 619.47 1.78742 -0.928086 0
M  V30 6283 C 616.535 2.90964 -1.88523 0
M  V30 6284 C 615.596 2.9447 -3.12388 0
M  V30 6285 C 614.829 4.23926 -3.24225 0
M  V30 6286 O 615.052 5.16576 -2.4188 0
M  V30 6287 O 613.986 4.33818 -4.17235 0
M  V30 6288 H 617.812 1.37238 -2.70923 0
M  V30 6289 H 615.397 0.615845 -1.36117 0
M  V30 6290 H 617.279 3.71633 -1.98662 0
M  V30 6291 H 615.954 3.08865 -0.9687 0
M  V30 6292 H 614.861 2.12737 -3.07723 0
M  V30 6293 H 616.194 2.81514 -4.03746 0
M  V30 6294 N 617.846 1.41785 0.688094 0
M  V30 6295 C 619.257 1.3701 1.26828 0
M  V30 6296 C 619.608 0.056835 1.96118 0
M  V30 6297 O 618.733 -0.84475 1.99231 0
M  V30 6298 C 619.328 2.48168 2.30648 0
M  V30 6299 C 617.887 2.46766 2.84224 0
M  V30 6300 C 617.034 2.27633 1.58361 0
M  V30 6301 H 619.985 1.51192 0.482351 0
M  V30 6302 H 620.006 2.17655 3.121 0
M  V30 6303 H 619.518 3.43735 1.80188 0
M  V30 6304 H 617.619 1.54978 3.3884 0
M  V30 6305 H 617.732 3.43342 3.34145 0
M  V30 6306 H 616.096 1.75648 1.84445 0
M  V30 6307 H 616.879 3.25238 1.09887 0
M  V30 6308 N 619.324 -0.923095 1.27737 0
M  V30 6309 C 620.287 -2.00587 1.10894 0
M  V30 6310 C 621.287 -1.60718 0.0514927 0
M  V30 6311 O 622.477 -1.71658 0.296481 0
M  V30 6312 C 619.609 -3.33829 0.690717 0
M  V30 6313 H 620.802 -2.16959 2.07048 0
M  V30 6314 H 618.355 -1.10451 1.1059 0
M  V30 6315 H 619.09 -3.23157 -0.272 0
M  V30 6316 H 618.875 -3.64125 1.45448 0
M  V30 6317 H 620.365 -4.13336 0.595252 0
M  V30 6318 N 620.802 -1.09834 -1.13024 0
M  V30 6319 C 622.027 -0.85909 -1.88771 0
M  V30 6320 C 622.452 0.584402 -1.78791 0
M  V30 6321 O 621.81 1.41101 -1.13842 0
M  V30 6322 C 621.858 -1.30427 -3.36186 0
M  V30 6323 O 620.962 -0.465368 -4.09766 0
M  V30 6324 H 620.303 -0.310786 -0.586778 0
M  V30 6325 H 622.833 -1.46355 -1.42973 0
M  V30 6326 H 622.843 -1.2915 -3.8702 0
M  V30 6327 H 621.518 -2.3555 -3.42767 0
M  V30 6328 H 620.095 -0.542814 -3.68928 0
M  V30 6329 N 622.28 1.30327 -0.886154 0
M  V30 6330 C 623.21 2.30549 -0.370028 0
M  V30 6331 C 624.191 1.61039 0.547751 0
M  V30 6332 O 625.376 1.8864 0.461353 0
M  V30 6333 C 622.506 3.44808 0.415275 0
M  V30 6334 C 621.46 4.26024 -0.41085 0
M  V30 6335 C 620.786 5.32347 0.501128 0
M  V30 6336 C 622.086 4.95433 -1.65359 0
M  V30 6337 H 623.78 2.73969 -1.20754 0
M  V30 6338 H 621.326 1.3171 -0.582097 0
M  V30 6339 H 623.279 4.13986 0.78699 0
M  V30 6340 H 622.003 3.00197 1.28644 0
M  V30 6341 H 620.662 3.58535 -0.764719 0
M  V30 6342 H 620.31 4.83982 1.37004 0
M  V30 6343 H 620.01 5.87581 -0.0478356 0
M  V30 6344 H 621.534 6.0438 0.869333 0
M  V30 6345 H 622.948 5.5712 -1.35239 0
M  V30 6346 H 621.345 5.60537 -2.14284 0
M  V30 6347 H 622.415 4.21493 -2.39733 0
M  V30 6348 N 623.758 0.647228 1.43697 0
M  V30 6349 C 625.006 0.157876 2.01482 0
M  V30 6350 C 625.327 -1.23039 1.51282 0
M  V30 6351 O 624.597 -1.82071 0.722982 0
M  V30 6352 H 623.177 0.0553745 0.744945 0
M  V30 6353 H 625.839 0.83755 1.75986 0
M  V30 6354 H 624.935 0.137895 3.11795 0
M  V30 6355 N 625.236 -1.5273 0.388769 0
M  V30 6356 C 626.647 -1.86505 -0.0853788 0
M  V30 6357 C 626.998 -1.30847 -1.46197 0
M  V30 6358 O 626.123 -0.639609 -2.06732 0
M  V30 6359 C 626.718 -3.38414 -0.161703 0
M  V30 6360 C 625.277 -3.71902 -0.580144 0
M  V30 6361 C 624.424 -2.76095 0.258218 0
M  V30 6362 H 627.375 -1.46647 0.606665 0
M  V30 6363 H 627.396 -3.67638 -0.980936 0
M  V30 6364 H 626.908 -3.78893 0.840333 0
M  V30 6365 H 625.009 -3.36992 -1.58957 0
M  V30 6366 H 625.122 -4.77902 -0.338663 0
M  V30 6367 H 623.486 -2.53195 -0.276432 0
M  V30 6368 H 624.269 -3.19411 1.25822 0
M  V30 6369 N 626.714 -0.118576 -1.57153 0
M  V30 6370 C 627.942 0.54726 -1.99531 0
M  V30 6371 C 628.357 1.60251 -0.998246 0
M  V30 6372 O 627.714 1.82498 0.00893106 0
M  V30 6373 C 627.765 1.17378 -3.41913 0
M  V30 6374 O 627.486 0.160703 -4.37805 0
M  V30 6375 C 628.987 1.92297 -3.9942 0
M  V30 6376 H 626.207 0.144919 -0.655164 0
M  V30 6377 H 628.751 -0.20479 -2.03472 0
M  V30 6378 H 626.906 1.87661 -3.38913 0
M  V30 6379 H 627.32 0.61586 -5.20872 0
M  V30 6380 H 628.794 2.31462 -5.01128 0
M  V30 6381 H 629.271 2.79801 -3.38538 0
M  V30 6382 H 629.877 1.26777 -4.05965 0
M  V30 6383 N 628.193 1.56834 0.155195 0
M  V30 6384 C 629.44 1.82898 0.869179 0
M  V30 6385 C 629.768 0.698194 1.81537 0
M  V30 6386 O 629.023 -0.313404 1.93174 0
M  V30 6387 C 629.322 3.15239 1.68402 0
M  V30 6388 C 628.988 4.42123 0.885341 0
M  V30 6389 C 627.65 4.76583 0.664971 0
M  V30 6390 C 630.002 5.20178 0.326234 0
M  V30 6391 C 627.33 5.86566 -0.125346 0
M  V30 6392 C 629.682 6.3099 -0.45108 0
M  V30 6393 C 628.346 6.64006 -0.682102 0
M  V30 6394 H 627.616 0.66927 0.318055 0
M  V30 6395 H 630.263 1.91036 0.133241 0
M  V30 6396 H 628.568 3.02515 2.48982 0
M  V30 6397 H 630.265 3.32618 2.23978 0
M  V30 6398 H 626.855 4.15102 1.06716 0
M  V30 6399 H 631.039 4.93936 0.483787 0
M  V30 6400 H 626.295 6.10594 -0.313915 0
M  V30 6401 H 630.469 6.9067 -0.89149 0
M  V30 6402 H 628.096 7.49065 -1.29636 0
M  V30 6403 N 629.671 -0.424282 1.51781 0
M  V30 6404 C 630.899 -1.1947 1.68921 0
M  V30 6405 C 631.314 -1.84683 0.39213 0
M  V30 6406 O 630.671 -1.71261 -0.630554 0
M  V30 6407 C 630.722 -2.26909 2.81416 0
M  V30 6408 O 630.443 -1.64361 4.061 0
M  V30 6409 C 631.944 -3.16945 3.09937 0
M  V30 6410 H 629.164 -0.359591 0.566511 0
M  V30 6411 H 631.708 -0.501139 1.98265 0
M  V30 6412 H 629.863 -2.91959 2.54635 0
M  V30 6413 H 630.277 -2.35468 4.68674 0
M  V30 6414 H 631.751 -3.88437 3.922 0
M  V30 6415 H 632.228 -3.78451 2.22871 0
M  V30 6416 H 632.834 -2.57581 3.38426 0
M  V30 6417 N 631.149 -1.42148 -0.680565 0
M  V30 6418 C 632.097 -1.45401 -1.81552 0
M  V30 6419 C 633.091 -0.33036 -1.66147 0
M  V30 6420 O 634.297 -0.503103 -1.72826 0
M  V30 6421 H 630.672 -0.455265 -0.59853 0
M  V30 6422 H 632.643 -2.41024 -1.75926 0
M  V30 6423 C 631.392 -1.36769 -3.19671 0
M  V30 6424 H 630.715 -2.22525 -3.32149 0
M  V30 6425 H 632.155 -1.43106 -3.9912 0
M  V30 6426 C 630.614 -0.0817752 -3.36801 0
M  V30 6427 O 631.144 0.867707 -3.92216 0
M  V30 6428 N 629.35 -0.000799811 -2.906 0
M  V30 6429 H 628.897 -0.774231 -2.4569 0
M  V30 6430 H 628.855 0.858961 -3.02439 0
M  V30 6431 N 632.627 0.916307 -1.28225 0
M  V30 6432 C 633.855 1.69901 -1.18073 0
M  V30 6433 C 634.27 1.86988 0.260968 0
M  V30 6434 O 633.627 1.39505 1.17663 0
M  V30 6435 C 633.678 3.09254 -1.87201 0
M  V30 6436 O 633.399 2.92959 -3.2574 0
M  V30 6437 C 634.9 4.0362 -1.83319 0
M  V30 6438 H 632.12 0.531181 -0.409985 0
M  V30 6439 H 634.664 1.14703 -1.69303 0
M  V30 6440 H 632.819 3.61277 -1.39848 0
M  V30 6441 H 633.233 3.81139 -3.60324 0
M  V30 6442 H 634.707 4.98873 -2.36282 0
M  V30 6443 H 635.184 4.3176 -0.805007 0
M  V30 6444 H 635.79 3.57524 -2.3034 0
M  V30 6445 N 634.105 1.10431 1.1244 0
M  V30 6446 C 635.353 0.845045 1.83585 0
M  V30 6447 C 635.674 -0.631168 1.84503 0
M  V30 6448 O 634.944 -1.45825 1.30813 0
M  V30 6449 H 633.524 0.309628 0.679809 0
M  V30 6450 H 636.186 1.39458 1.36153 0
M  V30 6451 H 635.282 1.20786 2.8778 0
M  V30 6452 N 635.583 -1.29855 0.893053 0
M  V30 6453 C 636.546 -2.26183 0.370687 0
M  V30 6454 C 637.546 -1.53108 -0.491385 0
M  V30 6455 O 638.736 -1.71643 -0.297386 0
M  V30 6456 C 635.868 -3.37633 -0.470827 0
M  V30 6457 H 637.061 -2.73903 1.22135 0
M  V30 6458 H 634.614 -1.41183 0.67061 0
M  V30 6459 H 635.349 -2.95241 -1.34175 0
M  V30 6460 H 635.134 -3.91825 0.146784 0
M  V30 6461 H 636.624 -4.09313 -0.827825 0
M  V30 6462 N 637.061 -0.65484 -1.43351 0
M  V30 6463 C 638.286 -0.175046 -2.0666 0
M  V30 6464 C 638.711 1.15104 -1.4877 0
M  V30 6465 O 638.069 1.71144 -0.598279 0
M  V30 6466 C 638.117 -0.0991544 -3.60464 0
M  V30 6467 O 637.221 0.938169 -4.01587 0
M  V30 6468 H 636.562 -0.0956148 -0.65708 0
M  V30 6469 H 639.092 -0.898222 -1.83829 0
M  V30 6470 H 639.102 0.083632 -4.07914 0
M  V30 6471 H 637.777 -1.06719 -4.01975 0
M  V30 6472 H 636.354 0.72804 -3.65724 0
M  V30 6473 N 638.539 1.52521 -0.396863 0
M  V30 6474 C 639.767 2.06091 0.18275 0
M  V30 6475 C 640.182 1.26796 1.39886 0
M  V30 6476 O 639.539 0.316585 1.79733 0
M  V30 6477 C 639.59 3.57362 0.545377 0
M  V30 6478 O 639.311 4.33656 -0.622428 0
M  V30 6479 C 640.812 4.27305 1.18004 0
M  V30 6480 H 638.032 0.670504 0.025789 0
M  V30 6481 H 640.576 1.96561 -0.564276 0
M  V30 6482 H 638.731 3.66941 1.2423 0
M  V30 6483 H 639.145 5.23507 -0.322662 0
M  V30 6484 H 640.619 5.34366 1.38408 0
M  V30 6485 H 641.096 3.83 2.1496 0
M  V30 6486 H 641.702 4.22064 0.523671 0
M  V30 6487 N 640.017 0.126909 1.57088 0
M  V30 6488 C 640.947 -0.816847 2.18746 0
M  V30 6489 C 641.928 -1.27161 1.12979 0
M  V30 6490 O 643.113 -1.33279 1.41246 0
M  V30 6491 C 640.243 -2.06398 2.79315 0
M  V30 6492 C 639.197 -1.74673 3.90735 0
M  V30 6493 C 638.523 -3.06482 4.38147 0
M  V30 6494 C 639.823 -1.0089 5.12463 0
M  V30 6495 H 641.517 -0.303032 2.97863 0
M  V30 6496 H 639.063 -0.144314 1.43275 0
M  V30 6497 H 641.016 -2.72885 3.2111 0
M  V30 6498 H 639.74 -2.60118 1.975 0
M  V30 6499 H 638.399 -1.10572 3.49527 0
M  V30 6500 H 638.047 -3.58152 3.5318 0
M  V30 6501 H 637.747 -2.86025 5.13287 0
M  V30 6502 H 639.271 -3.74073 4.82599 0
M  V30 6503 H 640.685 -1.57546 5.51228 0
M  V30 6504 H 639.082 -0.905006 5.93237 0
M  V30 6505 H 640.152 0.00297335 4.849 0
M  V30 6506 N 641.495 -1.56914 -0.146875 0
M  V30 6507 C 642.741 -1.83628 -0.860741 0
M  V30 6508 C 643.074 -0.708528 -1.80813 0
M  V30 6509 O 642.349 0.287838 -1.92358 0
M  V30 6510 C 642.632 -3.20836 -1.63511 0
M  V30 6511 C 642.485 -4.44174 -0.709199 0
M  V30 6512 C 643.804 -3.55268 -2.59756 0
M  V30 6513 H 640.923 -0.667949 -0.311468 0
M  V30 6514 H 643.565 -1.89582 -0.125936 0
M  V30 6515 H 641.715 -3.15891 -2.26153 0
M  V30 6516 H 643.387 -4.61205 -0.0937781 0
M  V30 6517 H 641.63 -4.33796 -0.0187856 0
M  V30 6518 H 642.301 -5.36785 -1.28707 0
M  V30 6519 H 644.777 -3.60824 -2.07232 0
M  V30 6520 H 643.653 -4.52303 -3.10987 0
M  V30 6521 H 643.914 -2.81231 -3.41118 0
M  V30 6522 N 642.974 0.416227 -1.52004 0
M  V30 6523 C 644.223 1.16088 -1.64944 0
M  V30 6524 C 644.536 1.91835 -0.381928 0
M  V30 6525 O 645.742 2.6867 -0.391013 0
M  V30 6526 C 644.198 2.1124 -2.91386 0
M  V30 6527 C 643.806 1.41042 -4.25219 0
M  V30 6528 C 645.55 2.86008 -3.13688 0
M  V30 6529 C 643.457 2.34801 -5.42791 0
M  V30 6530 H 642.387 0.437041 -0.61442 0
M  V30 6531 H 645.038 0.425971 -1.78487 0
M  V30 6532 H 643.42 2.88254 -2.71525 0
M  V30 6533 H 644.594 0.694416 -4.55538 0
M  V30 6534 H 642.909 0.78344 -4.08964 0
M  V30 6535 H 645.506 3.56286 -3.98703 0
M  V30 6536 H 645.849 3.48556 -2.27628 0
M  V30 6537 H 646.382 2.16095 -3.33988 0
M  V30 6538 H 643.121 1.7691 -6.31176 0
M  V30 6539 H 642.641 3.04395 -5.16821 0
M  V30 6540 H 644.32 2.9548 -5.75587 0
M  V30 6541 N 644.452 1.42507 0.673017 0
M  V30 6542 C 645.7 1.42789 1.43023 0
M  V30 6543 C 646.021 0.0459738 1.94946 0
M  V30 6544 O 645.291 -0.915765 1.73178 0
M  V30 6545 H 643.871 0.525657 0.530748 0
M  V30 6546 H 646.533 1.77944 0.795113 0
M  V30 6547 H 645.629 2.12872 2.28237 0
M  V30 6548 N 645.93 -0.909495 1.28709 0
M  V30 6549 C 646.86 -2.0291 1.15542 0
M  V30 6550 C 647.841 -1.7002 0.0521017 0
M  V30 6551 O 649.026 -1.92835 0.229849 0
M  V30 6552 C 646.156 -3.37458 0.820935 0
M  V30 6553 C 645.11 -3.84524 1.87949 0
M  V30 6554 C 644.436 -5.16086 1.39854 0
M  V30 6555 C 645.736 -4.05918 3.28676 0
M  V30 6556 H 647.43 -2.14183 2.09203 0
M  V30 6557 H 644.976 -1.02913 1.00722 0
M  V30 6558 H 646.929 -4.1528 0.715571 0
M  V30 6559 H 645.653 -3.26249 -0.151374 0
M  V30 6560 H 644.312 -3.08911 1.97408 0
M  V30 6561 H 643.96 -5.01284 0.41518 0
M  V30 6562 H 643.66 -5.48547 2.1064 0
M  V30 6563 H 645.184 -5.96459 1.30649 0
M  V30 6564 H 646.598 -4.74252 3.22115 0
M  V30 6565 H 644.995 -4.49717 3.97334 0
M  V30 6566 H 646.065 -3.10583 3.72379 0
M  V30 6567 N 647.408 -1.11026 -1.11852 0
M  V30 6568 C 648.371 -0.768006 -2.1595 0
M  V30 6569 C 649.371 0.210538 -1.59416 0
M  V30 6570 O 650.561 -0.0133978 -1.74195 0
M  V30 6571 C 647.693 -0.138678 -3.40618 0
M  V30 6572 H 648.886 -1.69012 -2.4774 0
M  V30 6573 H 646.439 -0.911578 -1.26964 0
M  V30 6574 H 647.174 0.793872 -3.14433 0
M  V30 6575 H 646.959 -0.843012 -3.8293 0
M  V30 6576 H 648.449 0.0848039 -4.17514 0
M  V30 6577 N 648.886 1.2938 -0.899927 0
M  V30 6578 C 650.111 2.00228 -0.540692 0
M  V30 6579 C 650.536 1.66909 0.867359 0
M  V30 6580 O 649.894 0.893824 1.57735 0
M  V30 6581 C 649.942 3.52921 -0.740232 0
M  V30 6582 O 649.046 4.11879 0.207154 0
M  V30 6583 H 648.387 0.629505 -0.211233 0
M  V30 6584 H 650.917 1.6487 -1.21158 0
M  V30 6585 H 650.927 4.0287 -0.644973 0
M  V30 6586 H 649.602 3.76508 -1.76677 0
M  V30 6587 H 648.179 3.72845 0.0643315 0
M  V30 6588 N 650.364 0.662433 1.43002 0
M  V30 6589 C 651.592 0.187615 2.06048 0
M  V30 6590 C 652.007 -1.15039 1.49705 0
M  V30 6591 O 651.364 -1.71209 0.631956 0
M  V30 6592 C 651.415 0.100498 3.6136 0
M  V30 6593 O 651.136 1.38562 4.15611 0
M  V30 6594 C 652.637 -0.399298 4.41498 0
M  V30 6595 H 649.857 0.0941675 0.664359 0
M  V30 6596 H 652.401 0.905681 1.83351 0
M  V30 6597 H 650.556 -0.568181 3.83211 0
M  V30 6598 H 650.97 1.25084 5.09366 0
M  V30 6599 H 652.444 -0.409187 5.50481 0
M  V30 6600 H 652.921 -1.43232 4.15188 0
M  V30 6601 H 653.527 0.23721 4.24638 0
M  V30 6602 N 651.842 -1.52309 0.404946 0
M  V30 6603 C 652.774 -2.24579 -0.45791 0
M  V30 6604 C 653.787 -1.2739 -1.01369 0
M  V30 6605 O 654.976 -1.53363 -0.91335 0
M  V30 6606 C 652.076 -2.9608 -1.64893 0
M  V30 6607 C 651.249 -4.20106 -1.21777 0
M  V30 6608 C 650.308 -4.74468 -2.27523 0
M  V30 6609 O 649.334 -5.37157 -1.88285 0
M  V30 6610 N 650.536 -4.55678 -3.59635 0
M  V30 6611 H 653.301 -2.99265 0.161341 0
M  V30 6612 H 650.862 -1.60228 0.232107 0
M  V30 6613 H 652.854 -3.29344 -2.35191 0
M  V30 6614 H 651.424 -2.24606 -2.17419 0
M  V30 6615 H 650.644 -3.92704 -0.343071 0
M  V30 6616 H 651.932 -5.00658 -0.906596 0
M  V30 6617 H 651.33 -4.05673 -3.94266 0
M  V30 6618 H 649.887 -4.9339 -4.25922 0
M  V30 6619 N 653.32 -0.135238 -1.57019 0
M  V30 6620 C 654.283 0.794707 -2.14981 0
M  V30 6621 C 655.283 1.18342 -1.08866 0
M  V30 6622 O 656.473 1.10627 -1.34563 0
M  V30 6623 C 653.605 2.07685 -2.70333 0
M  V30 6624 H 654.798 0.290696 -2.98488 0
M  V30 6625 H 652.351 0.114128 -1.55883 0
M  V30 6626 H 653.086 2.6248 -1.9046 0
M  V30 6627 H 652.871 1.80745 -3.47957 0
M  V30 6628 H 654.361 2.74127 -3.1503 0
M  V30 6629 N 654.798 1.5699 0.138552 0
M  V30 6630 C 655.73 1.95515 1.1961 0
M  V30 6631 C 656.743 0.852002 1.38726 0
M  V30 6632 O 657.932 1.13038 1.38147 0
M  V30 6633 C 655.032 2.2213 2.55952 0
M  V30 6634 C 654.205 3.53424 2.57702 0
M  V30 6635 C 653.264 3.6848 3.75645 0
M  V30 6636 O 652.29 4.4079 3.60129 0
M  V30 6637 N 653.492 3.05777 4.93438 0
M  V30 6638 H 656.257 2.86838 0.868557 0
M  V30 6639 H 653.818 1.58542 0.328033 0
M  V30 6640 H 655.81 2.29435 3.33379 0
M  V30 6641 H 654.38 1.3703 2.80965 0
M  V30 6642 H 653.6 3.57484 1.6613 0
M  V30 6643 H 654.888 4.39759 2.55909 0
M  V30 6644 H 654.286 2.46961 5.08947 0
M  V30 6645 H 652.843 3.18631 5.6861 0
M  V30 6646 N 656.276 -0.40816 1.52223 0
M  V30 6647 C 657.501 -1.18127 1.70472 0
M  V30 6648 C 657.926 -1.83491 0.41384 0
M  V30 6649 O 657.284 -1.70047 -0.628778 0
M  V30 6650 C 657.332 -2.21935 2.84213 0
M  V30 6651 O 656.436 -3.28099 2.4985 0
M  V30 6652 H 655.777 -0.344781 0.56747 0
M  V30 6653 H 658.307 -0.478328 1.9893 0
M  V30 6654 H 658.317 -2.66248 3.09153 0
M  V30 6655 H 656.992 -1.73744 3.7787 0
M  V30 6656 H 655.569 -2.89058 2.35584 0
M  V30 6657 N 657.755 -1.42862 -0.66545 0
M  V30 6658 C 659.001 -1.44043 -1.42757 0
M  V30 6659 C 659.334 -0.0599629 -1.94107 0
M  V30 6660 O 658.609 0.917286 -1.71511 0
M  V30 6661 C 658.892 -2.47266 -2.61786 0
M  V30 6662 C 658.745 -3.94539 -2.16007 0
M  V30 6663 C 660.064 -2.47365 -3.64003 0
M  V30 6664 H 657.183 -0.524506 -0.517748 0
M  V30 6665 H 659.825 -1.74335 -0.755466 0
M  V30 6666 H 657.975 -2.21565 -3.19126 0
M  V30 6667 H 659.647 -4.31254 -1.63762 0
M  V30 6668 H 657.89 -4.07957 -1.47491 0
M  V30 6669 H 658.561 -4.62357 -3.01546 0
M  V30 6670 H 661.037 -2.70243 -3.16399 0
M  V30 6671 H 659.913 -3.21552 -4.44854 0
M  V30 6672 H 660.174 -1.50299 -4.15767 0
M  V30 6673 N 659.233 0.902656 -1.29189 0
M  V30 6674 C 660.644 1.46809 -1.15343 0
M  V30 6675 C 660.995 1.94568 0.252517 0
M  V30 6676 O 660.12 1.83454 1.14777 0
M  V30 6677 C 660.715 2.66829 -2.08776 0
M  V30 6678 C 659.274 3.19518 -1.98961 0
M  V30 6679 C 658.421 1.92212 -1.99874 0
M  V30 6680 H 661.372 0.714282 -1.41717 0
M  V30 6681 H 661.393 3.42465 -1.65826 0
M  V30 6682 H 660.905 2.32039 -3.11094 0
M  V30 6683 H 659.006 3.59008 -0.99721 0
M  V30 6684 H 659.119 3.84016 -2.86477 0
M  V30 6685 H 657.483 2.0979 -1.44431 0
M  V30 6686 H 658.266 1.59702 -3.03891 0
M  V30 6687 N 660.711 1.11618 1.11262 0
M  V30 6688 C 661.957 0.867463 1.83311 0
M  V30 6689 C 662.29 -0.605366 1.84524 0
M  V30 6690 O 661.565 -1.44704 1.29965 0
M  V30 6691 C 661.848 1.43207 3.30399 0
M  V30 6692 C 661.701 2.97265 3.3757 0
M  V30 6693 C 663.02 1.08454 4.26528 0
M  V30 6694 H 660.139 0.316578 0.665543 0
M  V30 6695 H 662.781 1.38137 1.30454 0
M  V30 6696 H 660.931 0.994982 3.75543 0
M  V30 6697 H 662.603 3.49591 3.00971 0
M  V30 6698 H 660.846 3.33237 2.77733 0
M  V30 6699 H 661.517 3.31859 4.41105 0
M  V30 6700 H 663.993 1.4619 3.89574 0
M  V30 6701 H 662.869 1.50633 5.27826 0
M  V30 6702 H 663.13 -0.00444568 4.421 0
M  V30 6703 N 662.189 -1.289 0.906776 0
M  V30 6704 C 663.438 -1.9455 0.532262 0
M  V30 6705 C 663.751 -1.72219 -0.927353 0
M  V30 6706 O 664.957 -2.32033 -1.40971 0
M  V30 6707 C 663.413 -3.48438 0.901041 0
M  V30 6708 C 663.021 -3.79558 2.37991 0
M  V30 6709 C 664.765 -4.20284 0.596777 0
M  V30 6710 C 662.672 -5.26723 2.68918 0
M  V30 6711 H 661.602 -0.728259 0.195333 0
M  V30 6712 H 664.253 -1.46519 1.10474 0
M  V30 6713 H 662.635 -3.95162 0.257419 0
M  V30 6714 H 663.809 -3.43668 3.06967 0
M  V30 6715 H 662.124 -3.20868 2.65391 0
M  V30 6716 H 664.721 -5.28612 0.8046 0
M  V30 6717 H 665.064 -4.13694 -0.465072 0
M  V30 6718 H 665.597 -3.79315 1.19855 0
M  V30 6719 H 662.336 -5.38384 3.73928 0
M  V30 6720 H 661.856 -5.63836 2.04571 0
M  V30 6721 H 663.535 -5.94391 2.55555 0
M  V30 6722 N 663.667 -0.670007 -1.42649 0
M  V30 6723 C 664.615 0.0230106 -2.32589 0
M  V30 6724 C 665.609 0.795585 -1.49555 0
M  V30 6725 O 666.815 0.70409 -1.65658 0
M  V30 6726 H 663.19 0.0262342 -0.751542 0
M  V30 6727 H 665.161 -0.753009 -2.88743 0
M  V30 6728 C 663.91 0.963872 -3.34073 0
M  V30 6729 H 663.233 0.378813 -3.98001 0
M  V30 6730 H 664.673 1.41755 -3.99602 0
M  V30 6731 C 663.132 2.06797 -2.65964 0
M  V30 6732 O 663.662 3.15383 -2.48789 0
M  V30 6733 N 661.868 1.83831 -2.25066 0
M  V30 6734 H 661.415 0.955235 -2.39234 0
M  V30 6735 H 661.373 2.57895 -1.79827 0
M  V30 6736 N 665.145 1.52092 -0.413018 0
M  V30 6737 C 666.37 2.06756 0.163338 0
M  V30 6738 C 666.795 1.28073 1.37764 0
M  V30 6739 O 666.153 0.312015 1.78595 0
M  V30 6740 C 666.201 3.57278 0.488322 0
M  V30 6741 O 665.305 3.80986 1.57871 0
M  V30 6742 H 664.646 0.663882 0.0125068 0
M  V30 6743 H 667.176 1.95988 -0.587339 0
M  V30 6744 H 667.186 4.01125 0.745836 0
M  V30 6745 H 665.861 4.13978 -0.399327 0
M  V30 6746 H 664.438 3.49017 1.31306 0
M  V30 6747 N 666.623 0.143563 1.56945 0
M  V30 6748 C 667.556 -0.835367 2.1236 0
M  V30 6749 C 668.534 -1.24466 1.04627 0
M  V30 6750 O 669.718 -1.34138 1.32436 0
M  V30 6751 C 666.845 -2.12123 2.64048 0
M  V30 6752 C 665.891 -1.85812 3.83896 0
M  V30 6753 S 666.724 -1.05222 5.25061 0
M  V30 6754 C 667.88 -2.34935 5.80135 0
M  V30 6755 H 668.113 -0.364109 2.95062 0
M  V30 6756 H 665.646 -0.0706601 1.54238 0
M  V30 6757 H 667.604 -2.85993 2.94479 0
M  V30 6758 H 666.265 -2.56364 1.81483 0
M  V30 6759 H 665.458 -2.81151 4.18294 0
M  V30 6760 H 665.06 -1.20052 3.54208 0
M  V30 6761 H 667.352 -3.3061 5.91357 0
M  V30 6762 H 668.295 -2.05046 6.77762 0
M  V30 6763 H 668.703 -2.45426 5.08356 0
M  V30 6764 N 668.101 -1.57061 -0.130224 0
M  V30 6765 C 669.349 -1.83893 -0.838313 0
M  V30 6766 C 669.67 -0.727046 -1.80939 0
M  V30 6767 O 668.94 0.249927 -1.94299 0
M  V30 6768 H 667.52 -0.67846 -0.312573 0
M  V30 6769 H 670.182 -1.94529 -0.120224 0
M  V30 6770 H 669.278 -2.79419 -1.39038 0
M  V30 6771 N 669.579 0.400081 -1.52437 0
M  V30 6772 C 670.804 1.17221 -1.71096 0
M  V30 6773 C 671.229 1.83269 -0.423565 0
M  V30 6774 O 670.587 1.70378 0.619751 0
M  V30 6775 C 670.635 2.20425 -2.85386 0
M  V30 6776 O 669.739 3.26769 -2.51586 0
M  V30 6777 H 669.08 0.341766 -0.569291 0
M  V30 6778 H 671.61 0.467772 -1.99181 0
M  V30 6779 H 671.62 2.64605 -3.10561 0
M  V30 6780 H 670.295 1.71737 -3.78786 0
M  V30 6781 H 668.872 2.87804 -2.37114 0
M  V30 6782 N 671.057 1.43213 0.657864 0
M  V30 6783 C 672.282 1.48227 1.45064 0
M  V30 6784 C 672.707 0.0999939 1.87834 0
M  V30 6785 O 672.065 -0.905269 1.57081 0
M  V30 6786 C 672.113 2.42931 2.6649 0
M  V30 6787 O 671.217 1.91237 3.6538 0
M  V30 6788 H 670.558 0.501551 0.435135 0
M  V30 6789 H 673.088 1.8808 0.805431 0
M  V30 6790 H 673.098 2.6008 3.1436 0
M  V30 6791 H 671.773 3.43348 2.34701 0
M  V30 6792 H 670.35 1.83726 3.24498 0
M  V30 6793 N 672.536 -0.895792 1.29666 0
M  V30 6794 C 673.466 -2.01673 1.17688 0
M  V30 6795 C 674.447 -1.69955 0.0701317 0
M  V30 6796 O 675.632 -1.9258 0.250289 0
M  V30 6797 C 672.762 -3.36568 0.856681 0
M  V30 6798 C 671.716 -3.82509 1.92017 0
M  V30 6799 C 671.042 -5.14574 1.4532 0
M  V30 6800 C 672.342 -4.02409 3.32963 0
M  V30 6801 H 674.036 -2.11953 2.11463 0
M  V30 6802 H 671.582 -1.01839 1.01807 0
M  V30 6803 H 673.535 -4.14498 0.759577 0
M  V30 6804 H 672.259 -3.26391 -0.116763 0
M  V30 6805 H 670.918 -3.068 2.00673 0
M  V30 6806 H 670.566 -5.00815 0.468325 0
M  V30 6807 H 670.266 -5.46283 2.16447 0
M  V30 6808 H 671.79 -5.9504 1.36968 0
M  V30 6809 H 673.204 -4.70808 3.27127 0
M  V30 6810 H 671.601 -4.45478 4.02082 0
M  V30 6811 H 672.671 -3.06616 3.75652 0
M  V30 6812 N 674.014 -1.12206 -1.10668 0
M  V30 6813 C 675.242 -0.898635 -1.86366 0
M  V30 6814 C 675.657 0.551991 -1.80551 0
M  V30 6815 O 675.014 1.38152 -1.19249 0
M  V30 6816 C 675.065 -1.36199 -3.34861 0
M  V30 6817 O 674.786 -2.75576 -3.40573 0
M  V30 6818 C 676.287 -1.17515 -4.2744 0
M  V30 6819 H 673.507 -0.321281 -0.589084 0
M  V30 6820 H 676.051 -1.49142 -1.39918 0
M  V30 6821 H 674.206 -0.81249 -3.78784 0
M  V30 6822 H 674.62 -2.95851 -4.33096 0
M  V30 6823 H 676.094 -1.54827 -5.29842 0
M  V30 6824 H 676.571 -0.115486 -4.39048 0
M  V30 6825 H 677.177 -1.71203 -3.89319 0
M  V30 6826 N 675.492 1.28418 -0.913599 0
M  V30 6827 C 676.72 1.99106 -0.562536 0
M  V30 6828 C 677.135 1.68273 0.856137 0
M  V30 6829 O 676.492 0.935401 1.56705 0
M  V30 6830 C 676.543 3.5338 -0.761903 0
M  V30 6831 O 676.264 3.83127 -2.12475 0
M  V30 6832 C 677.765 4.41328 -0.417651 0
M  V30 6833 H 674.985 0.635798 -0.214481 0
M  V30 6834 H 677.529 1.63618 -1.22676 0
M  V30 6835 H 675.684 3.8713 -0.144676 0
M  V30 6836 H 676.098 4.77763 -2.16431 0
M  V30 6837 H 677.572 5.48642 -0.607919 0
M  V30 6838 H 678.049 4.34422 0.646108 0
M  V30 6839 H 678.655 4.13074 -1.01241 0
M  V30 6840 N 676.97 0.677563 1.42291 0
M  V30 6841 C 677.9 0.014968 2.33495 0
M  V30 6842 C 678.881 -0.786376 1.50831 0
M  V30 6843 O 680.066 -0.742975 1.79426 0
M  V30 6844 C 677.196 -0.935023 3.34477 0
M  V30 6845 C 676.15 -0.242074 4.27315 0
M  V30 6846 C 675.476 -1.30519 5.18526 0
M  V30 6847 C 676.776 0.880604 5.14823 0
M  V30 6848 H 678.47 0.776671 2.89151 0
M  V30 6849 H 676.016 0.37494 1.39033 0
M  V30 6850 H 677.969 -1.40766 3.97194 0
M  V30 6851 H 676.693 -1.72818 2.77131 0
M  V30 6852 H 675.352 0.210351 3.65996 0
M  V30 6853 H 675 -2.09041 4.57505 0
M  V30 6854 H 674.7 -0.846652 5.81468 0
M  V30 6855 H 676.224 -1.7787 5.84119 0
M  V30 6856 H 677.638 0.489062 5.7121 0
M  V30 6857 H 676.035 1.26511 5.86613 0
M  V30 6858 H 677.105 1.72818 4.53059 0
M  V30 6859 N 678.448 -1.51871 0.421078 0
M  V30 6860 C 679.38 -2.25052 -0.434065 0
M  V30 6861 C 680.393 -1.28458 -1.00013 0
M  V30 6862 O 681.582 -1.54323 -0.897033 0
M  V30 6863 C 678.682 -2.97813 -1.61743 0
M  V30 6864 C 677.855 -4.21374 -1.17315 0
M  V30 6865 C 676.914 -4.76854 -2.22478 0
M  V30 6866 O 675.94 -5.39123 -1.82577 0
M  V30 6867 N 677.142 -4.59467 -3.54782 0
M  V30 6868 H 679.907 -2.99077 0.193073 0
M  V30 6869 H 677.468 -1.59972 0.249088 0
M  V30 6870 H 679.46 -3.3182 -2.31685 0
M  V30 6871 H 678.03 -2.26899 -2.15024 0
M  V30 6872 H 677.25 -3.93046 -0.3014 0
M  V30 6873 H 678.538 -5.01591 -0.853444 0
M  V30 6874 H 677.936 -4.09832 -3.89941 0
M  V30 6875 H 676.493 -4.9788 -4.20665 0
M  V30 6876 N 679.926 -0.151884 -1.56866 0
M  V30 6877 C 681.337 0.368128 -1.83035 0
M  V30 6878 C 681.688 1.64402 -1.07082 0
M  V30 6879 O 680.813 2.14056 -0.317647 0
M  V30 6880 C 681.408 0.674676 -3.32014 0
M  V30 6881 C 679.967 1.13919 -3.58747 0
M  V30 6882 C 679.114 0.164833 -2.7681 0
M  V30 6883 H 682.065 -0.376499 -1.54169 0
M  V30 6884 H 682.086 1.52883 -3.48435 0
M  V30 6885 H 681.598 -0.254113 -3.87267 0
M  V30 6886 H 679.699 2.08375 -3.08886 0
M  V30 6887 H 679.812 1.06179 -4.67186 0
M  V30 6888 H 678.176 0.658419 -2.46043 0
M  V30 6889 H 678.959 -0.757633 -3.34836 0
M  V30 6890 N 681.404 1.57128 0.121893 0
M  V30 6891 C 682.65 1.84974 0.831418 0
M  V30 6892 C 682.983 0.737204 1.79663 0
M  V30 6893 O 682.258 -0.257199 1.92792 0
M  V30 6894 C 682.541 3.23397 1.58386 0
M  V30 6895 C 682.394 4.45246 0.638445 0
M  V30 6896 C 683.713 3.59355 2.54071 0
M  V30 6897 H 680.832 0.67282 0.300803 0
M  V30 6898 H 683.474 1.89759 0.0957587 0
M  V30 6899 H 681.624 3.19449 2.21098 0
M  V30 6900 H 683.296 4.61295 0.0203925 0
M  V30 6901 H 681.539 4.33771 -0.05023 0
M  V30 6902 H 682.21 5.38765 1.20151 0
M  V30 6903 H 684.686 3.64075 2.01465 0
M  V30 6904 H 683.562 4.57193 3.03752 0
M  V30 6905 H 683.823 2.86622 3.36601 0
M  V30 6906 N 682.882 -0.391992 1.52647 0
M  V30 6907 C 683.814 -1.49811 1.73463 0
M  V30 6908 C 684.827 -1.50734 0.615078 0
M  V30 6909 O 686.016 -1.5469 0.890696 0
M  V30 6910 C 683.116 -2.88667 1.77552 0
M  V30 6911 C 682.289 -3.11743 3.06815 0
M  V30 6912 C 681.348 -4.30564 3.02491 0
M  V30 6913 O 680.374 -4.27014 3.76361 0
M  V30 6914 N 681.576 -5.36593 2.21468 0
M  V30 6915 H 684.341 -1.32343 2.68897 0
M  V30 6916 H 681.902 -0.581475 1.51098 0
M  V30 6917 H 683.894 -3.66251 1.7217 0
M  V30 6918 H 682.464 -2.99508 0.895181 0
M  V30 6919 H 681.684 -2.2205 3.25711 0
M  V30 6920 H 682.972 -3.24013 3.92292 0
M  V30 6921 H 682.37 -5.42332 1.60913 0
M  V30 6922 H 680.927 -6.12855 2.21928 0
M  V30 6923 N 684.36 -1.4356 -0.65026 0
M  V30 6924 C 685.607 -1.45333 -1.41012 0
M  V30 6925 C 685.935 -0.0787282 -1.94341 0
M  V30 6926 O 685.19 0.916715 -1.72901 0
M  V30 6927 C 685.489 -2.44528 -2.60654 0
M  V30 6928 C 685.155 -3.90331 -2.25727 0
M  V30 6929 C 683.817 -4.3004 -2.15914 0
M  V30 6930 C 686.169 -4.822 -1.97821 0
M  V30 6931 C 683.497 -5.59568 -1.76354 0
M  V30 6932 C 685.849 -6.12095 -1.59759 0
M  V30 6933 C 684.513 -6.50778 -1.48473 0
M  V30 6934 H 683.783 -0.531813 -0.516 0
M  V30 6935 H 686.43 -1.76657 -0.739219 0
M  V30 6936 H 684.735 -2.06619 -3.3289 0
M  V30 6937 H 686.432 -2.43155 -3.18868 0
M  V30 6938 H 683.022 -3.58905 -2.34276 0
M  V30 6939 H 687.206 -4.5229 -2.04322 0
M  V30 6940 H 682.462 -5.88376 -1.66205 0
M  V30 6941 H 686.636 -6.82751 -1.37198 0
M  V30 6942 H 684.263 -7.5105 -1.17591 0
M  V30 6943 N 685.838 0.888903 -1.30139 0
M  V30 6944 C 687.063 1.67884 -1.21777 0
M  V30 6945 C 687.488 1.86848 0.216689 0
M  V30 6946 O 686.846 1.39659 1.15608 0
M  V30 6947 C 686.894 3.03483 -1.94757 0
M  V30 6948 O 685.998 3.92294 -1.27198 0
M  V30 6949 H 685.339 0.513144 -0.421402 0
M  V30 6950 H 687.869 1.10968 -1.71893 0
M  V30 6951 H 687.879 3.53553 -2.03627 0
M  V30 6952 H 686.554 2.89 -2.99085 0
M  V30 6953 H 685.131 3.50732 -1.26655 0
M  V30 6954 N 687.317 1.12792 1.10072 0
M  V30 6955 C 688.249 0.757003 2.16338 0
M  V30 6956 C 689.262 -0.218144 1.61332 0
M  V30 6957 O 690.451 0.0010727 1.785 0
M  V30 6958 C 687.551 0.100303 3.38752 0
M  V30 6959 C 686.724 1.10586 4.2319 0
M  V30 6960 C 685.783 0.47609 5.24042 0
M  V30 6961 O 684.809 1.13418 5.57786 0
M  V30 6962 N 686.011 -0.754823 5.75572 0
M  V30 6963 H 688.776 1.6714 2.48766 0
M  V30 6964 H 686.337 1.02003 1.25726 0
M  V30 6965 H 688.329 -0.333092 4.03327 0
M  V30 6966 H 686.899 -0.716915 3.04268 0
M  V30 6967 H 686.119 1.71677 3.54853 0
M  V30 6968 H 687.407 1.78571 4.76435 0
M  V30 6969 H 686.805 -1.30838 5.50362 0
M  V30 6970 H 685.362 -1.13098 6.41913 0
M  V30 6971 N 688.795 -1.27931 0.920396 0
M  V30 6972 C 690.206 -1.76707 0.602616 0
M  V30 6973 C 690.557 -1.75249 -0.882159 0
M  V30 6974 O 689.682 -1.35135 -1.69019 0
M  V30 6975 C 690.277 -3.20884 1.08714 0
M  V30 6976 C 688.836 -3.67356 0.820157 0
M  V30 6977 C 687.983 -2.47525 1.25006 0
M  V30 6978 H 690.934 -1.14301 1.10095 0
M  V30 6979 H 690.955 -3.78045 0.431535 0
M  V30 6980 H 690.467 -3.21913 2.1678 0
M  V30 6981 H 688.568 -3.7178 -0.247012 0
M  V30 6982 H 688.681 -4.57181 1.43257 0
M  V30 6983 H 687.045 -2.45765 0.668698 0
M  V30 6984 H 687.828 -2.51269 2.3392 0
M  V30 6985 N 690.273 -0.685099 -1.4193 0
M  V30 6986 C 691.203 -0.0273506 -2.33484 0
M  V30 6987 C 692.184 0.778366 -1.51246 0
M  V30 6988 O 693.369 0.733449 -1.79817 0
M  V30 6989 C 690.499 0.917272 -3.34968 0
M  V30 6990 C 689.453 0.21941 -4.27437 0
M  V30 6991 C 688.779 1.27768 -5.1921 0
M  V30 6992 C 690.079 -0.907894 -5.14349 0
M  V30 6993 H 691.773 -0.791994 -2.88735 0
M  V30 6994 H 689.319 -0.382308 -1.38832 0
M  V30 6995 H 691.272 1.38657 -3.97935 0
M  V30 6996 H 689.996 1.71346 -2.78043 0
M  V30 6997 H 688.655 -0.229757 -3.65879 0
M  V30 6998 H 688.303 2.06612 -4.58607 0
M  V30 6999 H 688.003 0.815803 -5.81909 0
M  V30 7000 H 689.527 1.7477 -5.85054 0
M  V30 7001 H 690.941 -0.519348 -5.70943 0
M  V30 7002 H 689.338 -1.2962 -5.85934 0
M  V30 7003 H 690.408 -1.75218 -4.52136 0
M  V30 7004 N 691.751 1.51645 -0.429126 0
M  V30 7005 C 692.701 2.24388 0.404217 0
M  V30 7006 C 693.685 1.26294 0.996933 0
M  V30 7007 O 694.877 1.51428 0.916434 0
M  V30 7008 C 692.006 3.08338 1.50938 0
M  V30 7009 C 691.092 4.13857 0.926464 0
M  V30 7010 N 691.483 5.05749 0.0719732 0
M  V30 7011 C 689.781 4.29695 1.19491 0
M  V30 7012 C 690.482 5.81143 -0.254528 0
M  V30 7013 N 689.458 5.42408 0.359763 0
M  V30 7014 H 693.26 2.92794 -0.254697 0
M  V30 7015 H 690.774 1.60606 -0.240712 0
M  V30 7016 H 692.771 3.59022 2.11918 0
M  V30 7017 H 691.431 2.41475 2.17072 0
M  V30 7018 H 692.442 5.17066 -0.293854 0
M  V30 7019 H 689.119 3.74059 1.85434 0
M  V30 7020 H 690.509 6.65159 -0.949365 0
M  V30 7021 N 693.229 0.160201 1.56784 0
M  V30 7022 C 694.64 -0.358417 1.83227 0
M  V30 7023 C 694.991 -1.63831 1.07952 0
M  V30 7024 O 694.116 -2.13885 0.328995 0
M  V30 7025 C 694.711 -0.657058 3.32368 0
M  V30 7026 C 693.27 -1.12015 3.59346 0
M  V30 7027 C 692.417 -0.15015 2.76893 0
M  V30 7028 H 695.368 0.384669 1.53967 0
M  V30 7029 H 695.389 -1.51033 3.49241 0
M  V30 7030 H 694.901 0.274647 3.87127 0
M  V30 7031 H 693.002 -2.06734 3.09987 0
M  V30 7032 H 693.115 -1.037 4.67743 0
M  V30 7033 H 691.479 -0.645361 2.46388 0
M  V30 7034 H 692.262 0.775379 3.34429 0
M  V30 7035 N 694.707 -1.5719 -0.113559 0
M  V30 7036 C 695.932 -1.89702 -0.838336 0
M  V30 7037 C 696.357 -0.752679 -1.72384 0
M  V30 7038 O 695.715 0.296575 -1.78858 0
M  V30 7039 C 695.763 -3.20989 -1.64312 0
M  V30 7040 O 694.867 -3.07278 -2.75053 0
M  V30 7041 H 694.208 -0.622339 -0.231496 0
M  V30 7042 H 696.738 -2.04382 -0.0943228 0
M  V30 7043 H 696.748 -3.53843 -2.03123 0
M  V30 7044 H 695.423 -4.03869 -0.993119 0
M  V30 7045 H 694 -2.85901 -2.39406 0
M  V30 7046 N 696.185 0.383891 -1.52853 0
M  V30 7047 C 697.415 1.14783 -1.7178 0
M  V30 7048 C 697.823 1.84055 -0.438211 0
M  V30 7049 O 697.166 1.73713 0.597465 0
M  V30 7050 C 697.228 2.23543 -2.81547 0
M  V30 7051 C 696.892 1.74195 -4.22499 0
M  V30 7052 C 697.889 1.21591 -5.05481 0
M  V30 7053 C 695.574 1.80262 -4.6884 0
M  V30 7054 C 697.568 0.757104 -6.32888 0
M  V30 7055 C 695.255 1.33993 -5.96229 0
M  V30 7056 C 696.253 0.818049 -6.78083 0
M  V30 7057 O 695.941 0.362123 -8.03084 0
M  V30 7058 H 695.673 0.349908 -0.578395 0
M  V30 7059 H 698.227 0.454377 -2.00311 0
M  V30 7060 H 696.457 2.96328 -2.48449 0
M  V30 7061 H 698.146 2.8519 -2.88828 0
M  V30 7062 H 698.912 1.16257 -4.7086 0
M  V30 7063 H 694.791 2.19825 -4.05213 0
M  V30 7064 H 698.335 0.34908 -6.96726 0
M  V30 7065 H 694.232 1.39015 -6.30353 0
M  V30 7066 H 695 0.483134 -8.17073 0
M  V30 7067 N 697.663 1.43903 0.642637 0
M  V30 7068 C 698.595 1.45857 1.768 0
M  V30 7069 C 699.608 0.353358 1.58919 0
M  V30 7070 O 700.797 0.618426 1.67445 0
M  V30 7071 C 697.897 1.26583 3.14372 0
M  V30 7072 C 697.07 2.50139 3.58817 0
M  V30 7073 C 696.129 2.25933 4.75227 0
M  V30 7074 O 695.155 2.99351 4.84125 0
M  V30 7075 N 696.357 1.28263 5.66153 0
M  V30 7076 H 699.122 2.42869 1.75598 0
M  V30 7077 H 696.683 1.39194 0.826832 0
M  V30 7078 H 698.675 1.08255 3.89953 0
M  V30 7079 H 697.245 0.37978 3.10284 0
M  V30 7080 H 696.465 2.83821 2.73568 0
M  V30 7081 H 697.753 3.32344 3.8526 0
M  V30 7082 H 697.151 0.676041 5.61646 0
M  V30 7083 H 695.708 1.15916 6.4141 0
M  V30 7084 N 699.141 -0.881989 1.30609 0
M  V30 7085 C 700.073 -1.99375 1.13058 0
M  V30 7086 C 701.086 -1.62636 0.0729879 0
M  V30 7087 O 702.275 -1.75621 0.319301 0
M  V30 7088 C 699.375 -3.31536 0.702651 0
M  V30 7089 C 698.548 -3.96693 1.84265 0
M  V30 7090 C 697.607 -5.07158 1.40277 0
M  V30 7091 O 696.633 -5.28628 2.11048 0
M  V30 7092 N 697.835 -5.79808 0.283449 0
M  V30 7093 H 700.6 -2.14981 2.08814 0
M  V30 7094 H 698.161 -1.05526 1.22784 0
M  V30 7095 H 700.153 -4.02804 0.391331 0
M  V30 7096 H 698.723 -3.12175 -0.162954 0
M  V30 7097 H 697.943 -3.1856 2.32192 0
M  V30 7098 H 699.231 -4.36964 2.60653 0
M  V30 7099 H 698.629 -5.64871 -0.306189 0
M  V30 7100 H 697.186 -6.51792 0.0315985 0
M  V30 7101 N 700.619 -1.13374 -1.09472 0
M  V30 7102 C 702.03 -0.90801 -1.63132 0
M  V30 7103 C 702.381 0.555576 -1.8817 0
M  V30 7104 O 701.506 1.42218 -1.63104 0
M  V30 7105 C 702.101 -1.64182 -2.96361 0
M  V30 7106 C 700.66 -1.46197 -3.46848 0
M  V30 7107 C 699.807 -1.67134 -2.21273 0
M  V30 7108 H 702.758 -1.2871 -0.928411 0
M  V30 7109 H 702.779 -1.09863 -3.64294 0
M  V30 7110 H 702.291 -2.707 -2.78106 0
M  V30 7111 H 700.392 -0.419788 -3.70228 0
M  V30 7112 H 700.505 -2.22472 -4.24315 0
M  V30 7113 H 698.869 -1.09616 -2.29905 0
M  V30 7114 H 699.652 -2.74971 -2.05538 0
M  V30 7115 N 702.098 1.27442 -0.927168 0
M  V30 7116 C 703.028 2.29256 -0.443188 0
M  V30 7117 C 704.009 1.62701 0.49624 0
M  V30 7118 O 705.194 1.90013 0.401105 0
M  V30 7119 C 702.324 3.45955 0.305366 0
M  V30 7120 C 701.278 4.24501 -0.546178 0
M  V30 7121 C 700.604 5.33671 0.331512 0
M  V30 7122 C 701.904 4.89921 -1.81037 0
M  V30 7123 H 703.598 2.69988 -1.29409 0
M  V30 7124 H 701.144 1.29792 -0.623705 0
M  V30 7125 H 703.097 4.1628 0.654885 0
M  V30 7126 H 701.821 3.04138 1.19029 0
M  V30 7127 H 700.48 3.55921 -0.878398 0
M  V30 7128 H 700.128 4.88096 1.21537 0
M  V30 7129 H 699.828 5.87131 -0.234746 0
M  V30 7130 H 701.352 6.0684 0.676614 0
M  V30 7131 H 702.766 5.52536 -1.52895 0
M  V30 7132 H 701.163 5.53436 -2.32009 0
M  V30 7133 H 702.233 4.13652 -2.53021 0
M  V30 7134 N 703.576 0.692616 1.41565 0
M  V30 7135 C 704.509 -0.025063 2.28186 0
M  V30 7136 C 705.487 -0.790912 1.42068 0
M  V30 7137 O 706.671 -0.782344 1.71498 0
M  V30 7138 C 703.798 -1.04285 3.22246 0
M  V30 7139 C 702.844 -0.370515 4.24888 0
M  V30 7140 S 703.677 0.884942 5.28137 0
M  V30 7141 C 704.833 -0.131324 6.25762 0
M  V30 7142 H 705.066 0.709626 2.88707 0
M  V30 7143 H 702.599 0.482783 1.46658 0
M  V30 7144 H 704.557 -1.62493 3.7697 0
M  V30 7145 H 703.218 -1.7501 2.60827 0
M  V30 7146 H 702.411 -1.13911 4.90959 0
M  V30 7147 H 702.013 0.138411 3.73744 0
M  V30 7148 H 704.305 -0.985527 6.70294 0
M  V30 7149 H 705.248 0.495384 7.06365 0
M  V30 7150 H 705.656 -0.484777 5.62415 0
M  V30 7151 N 705.054 -1.51416 0.437162 0
M  V30 7152 C 706.465 -1.86682 -0.0260005 0
M  V30 7153 C 706.816 -1.35432 -1.4196 0
M  V30 7154 O 705.941 -0.705055 -2.04592 0
M  V30 7155 C 706.536 -3.38757 -0.0539577 0
M  V30 7156 C 705.095 -3.7356 -0.461532 0
M  V30 7157 C 704.242 -2.75134 0.345924 0
M  V30 7158 H 707.193 -1.44642 0.653013 0
M  V30 7159 H 707.214 -3.70573 -0.863478 0
M  V30 7160 H 706.726 -3.76028 0.96045 0
M  V30 7161 H 704.827 -3.41878 -1.48155 0
M  V30 7162 H 704.94 -4.78737 -0.186451 0
M  V30 7163 H 703.304 -2.53947 -0.195739 0
M  V30 7164 H 704.087 -3.15247 1.35921 0
M  V30 7165 N 706.532 -0.168513 -1.56696 0
M  V30 7166 C 707.943 0.348694 -1.83415 0
M  V30 7167 C 708.294 1.63257 -1.0882 0
M  V30 7168 O 707.419 2.13707 -0.340333 0
M  V30 7169 C 708.014 0.639423 -3.32711 0
M  V30 7170 C 706.573 1.10108 -3.59935 0
M  V30 7171 C 705.72 0.135464 -2.76969 0
M  V30 7172 H 708.671 -0.392829 -1.53761 0
M  V30 7173 H 708.692 1.49179 -3.50037 0
M  V30 7174 H 708.204 -0.295173 -3.86976 0
M  V30 7175 H 706.305 2.05088 -3.11079 0
M  V30 7176 H 706.418 1.01218 -4.68286 0
M  V30 7177 H 704.782 0.632286 -2.46727 0
M  V30 7178 H 705.565 -0.793104 -3.34013 0
M  V30 7179 N 708.01 1.57248 0.105221 0
M  V30 7180 C 709.256 1.85845 0.811753 0
M  V30 7181 C 709.589 0.756219 1.78871 0
M  V30 7182 O 708.864 -0.236736 1.93054 0
M  V30 7183 C 709.147 3.25059 1.54947 0
M  V30 7184 C 709 4.45898 0.591185 0
M  V30 7185 C 710.319 3.6203 2.50245 0
M  V30 7186 H 707.438 0.675973 0.293649 0
M  V30 7187 H 710.08 1.89849 0.0756269 0
M  V30 7188 H 708.23 3.21776 2.17698 0
M  V30 7189 H 709.902 4.61291 -0.0285352 0
M  V30 7190 H 708.145 4.33693 -0.0962343 0
M  V30 7191 H 708.816 5.40009 1.1443 0
M  V30 7192 H 711.292 3.66192 1.97593 0
M  V30 7193 H 710.168 4.60389 2.98886 0
M  V30 7194 H 710.429 2.90176 3.33542 0
M  V30 7195 N 709.488 -0.375779 1.53054 0
M  V30 7196 C 710.42 -1.47963 1.75042 0
M  V30 7197 C 711.433 -1.50073 0.631031 0
M  V30 7198 O 712.622 -1.53736 0.907052 0
M  V30 7199 C 709.722 -2.86767 1.80604 0
M  V30 7200 C 708.895 -3.08471 3.10104 0
M  V30 7201 C 707.954 -4.27332 3.07041 0
M  V30 7202 O 706.98 -4.22998 3.80869 0
M  V30 7203 N 708.182 -5.34214 2.27147 0
M  V30 7204 H 710.947 -1.29484 2.70285 0
M  V30 7205 H 708.508 -0.565416 1.51706 0
M  V30 7206 H 710.5 -3.64404 1.76045 0
M  V30 7207 H 709.07 -2.98542 0.926897 0
M  V30 7208 H 708.29 -2.18583 3.28048 0
M  V30 7209 H 709.578 -3.19834 3.95706 0
M  V30 7210 H 708.976 -5.40594 1.66656 0
M  V30 7211 H 707.533 -6.10467 2.28415 0
M  V30 7212 N 710.966 -1.44241 -0.634997 0
M  V30 7213 C 712.191 -1.50516 -1.42687 0
M  V30 7214 C 712.616 -0.129864 -1.87651 0
M  V30 7215 O 711.974 0.880164 -1.58502 0
M  V30 7216 C 712.022 -2.4714 -2.62591 0
M  V30 7217 O 711.126 -1.97025 -3.62291 0
M  V30 7218 H 710.467 -0.50841 -0.427101 0
M  V30 7219 H 712.997 -1.89337 -0.775408 0
M  V30 7220 H 713.007 -2.65048 -3.10183 0
M  V30 7221 H 711.682 -3.47039 -2.29209 0
M  V30 7222 H 710.259 -1.88866 -3.21534 0
M  V30 7223 N 712.444 0.87505 -1.31075 0
M  V30 7224 C 713.394 1.96933 -1.14898 0
M  V30 7225 C 714.378 1.60783 -0.0613703 0
M  V30 7226 O 715.57 1.74678 -0.285751 0
M  V30 7227 C 712.699 3.3253 -0.853166 0
M  V30 7228 C 711.785 3.74963 -1.98151 0
M  V30 7229 N 712.176 3.89403 -3.22799 0
M  V30 7230 C 710.474 4.04436 -1.8801 0
M  V30 7231 C 711.175 4.25563 -3.96574 0
M  V30 7232 N 710.151 4.3597 -3.24701 0
M  V30 7233 H 713.953 2.06201 -2.09424 0
M  V30 7234 H 711.467 1.06551 -1.22558 0
M  V30 7235 H 713.464 4.10666 -0.718266 0
M  V30 7236 H 712.124 3.24592 0.0839218 0
M  V30 7237 H 713.135 3.74266 -3.57974 0
M  V30 7238 H 709.812 4.04915 -1.01733 0
M  V30 7239 H 711.202 4.44375 -5.03965 0
M  V30 7240 N 713.922 1.13953 1.08869 0
M  V30 7241 C 715.168 0.906151 1.8143 0
M  V30 7242 C 715.501 -0.566089 1.85766 0
M  V30 7243 O 714.776 -1.41915 1.33006 0
M  V30 7244 C 715.059 1.50183 3.27287 0
M  V30 7245 C 714.912 3.04359 3.31189 0
M  V30 7246 C 716.231 1.17477 4.24131 0
M  V30 7247 H 713.35 0.330624 0.658678 0
M  V30 7248 H 715.992 1.40873 1.27495 0
M  V30 7249 H 714.142 1.07442 3.73348 0
M  V30 7250 H 715.814 3.55896 2.93488 0
M  V30 7251 H 714.057 3.39053 2.70602 0
M  V30 7252 H 714.728 3.41141 4.33966 0
M  V30 7253 H 717.204 1.5442 3.86385 0
M  V30 7254 H 716.08 1.61795 5.24513 0
M  V30 7255 H 716.341 0.0893312 4.4201 0
M  V30 7256 N 715.4 -1.26948 0.933913 0
M  V30 7257 C 716.628 -1.98186 0.59414 0
M  V30 7258 C 717.043 -1.69614 -0.829257 0
M  V30 7259 O 716.4 -0.960213 -1.55197 0
M  V30 7260 C 716.451 -3.52123 0.818026 0
M  V30 7261 O 716.172 -3.79698 2.18543 0
M  V30 7262 C 717.673 -4.40608 0.48781 0
M  V30 7263 H 714.893 -0.632305 0.224569 0
M  V30 7264 H 717.437 -1.61646 1.25263 0
M  V30 7265 H 715.592 -3.86851 0.206246 0
M  V30 7266 H 716.006 -4.7426 2.24005 0
M  V30 7267 H 717.48 -5.47606 0.695126 0
M  V30 7268 H 717.957 -4.35394 -0.576913 0
M  V30 7269 H 718.563 -4.11411 1.078 0
M  V30 7270 N 716.879 -0.700114 -1.41195 0
M  V30 7271 C 717.811 0.00155823 -2.292 0
M  V30 7272 C 718.824 0.739736 -1.45023 0
M  V30 7273 O 720.013 0.589684 -1.68478 0
M  V30 7274 C 717.113 1.02635 -3.22985 0
M  V30 7275 C 716.286 0.356871 -4.35942 0
M  V30 7276 C 715.345 1.28491 -5.10271 0
M  V30 7277 O 714.371 0.775562 -5.63892 0
M  V30 7278 N 715.573 2.61699 -5.18164 0
M  V30 7279 H 718.338 -0.754008 -2.9006 0
M  V30 7280 H 715.899 -0.546504 -1.52397 0
M  V30 7281 H 717.891 1.64902 -3.6958 0
M  V30 7282 H 716.461 1.68341 -2.63401 0
M  V30 7283 H 715.681 -0.445753 -3.91672 0
M  V30 7284 H 716.969 -0.108469 -5.08684 0
M  V30 7285 H 716.367 3.05594 -4.76056 0
M  V30 7286 H 714.924 3.19149 -5.6832 0
M  V30 7287 N 718.357 1.51182 -0.445186 0
M  V30 7288 C 719.582 2.07056 0.119445 0
M  V30 7289 C 720.007 1.30966 1.35016 0
M  V30 7290 O 719.365 0.349827 1.77893 0
M  V30 7291 C 719.413 3.58234 0.412428 0
M  V30 7292 O 718.517 3.84249 1.49754 0
M  V30 7293 H 717.858 0.663998 -0.00157797 0
M  V30 7294 H 720.388 1.94699 -0.628779 0
M  V30 7295 H 720.398 4.02617 0.660583 0
M  V30 7296 H 719.073 4.13038 -0.487049 0
M  V30 7297 H 717.65 3.51724 1.23873 0
M  V30 7298 N 719.835 0.176821 1.56605 0
M  V30 7299 C 721.246 -0.338963 1.83597 0
M  V30 7300 C 721.597 -1.62677 1.09684 0
M  V30 7301 O 720.722 -2.13524 0.351661 0
M  V30 7302 C 721.317 -0.62177 3.33046 0
M  V30 7303 C 719.876 -1.08198 3.60514 0
M  V30 7304 C 719.023 -0.120774 2.77037 0
M  V30 7305 H 721.974 0.400978 1.53551 0
M  V30 7306 H 721.995 -1.47321 3.50823 0
M  V30 7307 H 721.507 0.315692 3.86814 0
M  V30 7308 H 719.608 -2.03435 3.12162 0
M  V30 7309 H 719.721 -0.987329 4.68816 0
M  V30 7310 H 718.085 -0.619192 2.47059 0
M  V30 7311 H 718.868 0.810806 3.33588 0
M  V30 7312 N 721.313 -1.57302 -0.09688 0
M  V30 7313 C 722.56 -1.85997 -0.800699 0
M  V30 7314 C 722.888 -0.765089 -1.7882 0
M  V30 7315 O 722.143 0.241492 -1.94204 0
M  V30 7316 C 722.442 -3.21272 -1.56586 0
M  V30 7317 C 722.108 -4.45104 -0.72064 0
M  V30 7318 C 720.77 -4.78723 -0.487632 0
M  V30 7319 C 723.122 -5.2103 -0.132948 0
M  V30 7320 C 720.45 -5.85697 0.34296 0
M  V30 7321 C 722.802 -6.28881 0.684957 0
M  V30 7322 C 721.466 -6.61017 0.928073 0
M  V30 7323 H 720.736 -0.680613 -0.292997 0
M  V30 7324 H 723.383 -1.91399 -0.0622474 0
M  V30 7325 H 721.688 -3.11547 -2.37583 0
M  V30 7326 H 723.385 -3.40702 -2.11478 0
M  V30 7327 H 719.975 -4.18777 -0.912359 0
M  V30 7328 H 724.159 -4.95392 -0.300132 0
M  V30 7329 H 719.415 -6.09008 0.540317 0
M  V30 7330 H 723.589 -6.86886 1.14721 0
M  V30 7331 H 721.216 -7.43738 1.57348 0
M  V30 7332 N 722.791 0.367657 -1.53252 0
M  V30 7333 C 723.724 1.47264 -1.74323 0
M  V30 7334 C 724.702 1.51458 -0.591535 0
M  V30 7335 O 725.886 1.69542 -0.823883 0
M  V30 7336 C 723.013 2.85637 -1.82015 0
M  V30 7337 C 722.059 2.99176 -3.03967 0
M  V30 7338 S 722.892 2.68147 -4.63527 0
M  V30 7339 C 724.048 4.08673 -4.74065 0
M  V30 7340 H 724.281 1.29169 -2.67773 0
M  V30 7341 H 721.814 0.561866 -1.43814 0
M  V30 7342 H 723.772 3.65365 -1.87132 0
M  V30 7343 H 722.433 3.01043 -0.896195 0
M  V30 7344 H 721.626 4.00511 -3.05953 0
M  V30 7345 H 721.228 2.27367 -2.96952 0
M  V30 7346 H 723.52 5.02889 -4.53992 0
M  V30 7347 H 724.463 4.11693 -5.7612 0
M  V30 7348 H 724.871 3.95576 -4.02716 0
M  V30 7349 N 724.269 1.44576 0.627338 0
M  V30 7350 C 725.232 1.51372 1.72102 0
M  V30 7351 C 726.232 0.395329 1.55865 0
M  V30 7352 O 727.422 0.658094 1.61291 0
M  V30 7353 C 724.554 1.39129 3.11217 0
M  V30 7354 H 725.747 2.48798 1.6745 0
M  V30 7355 H 723.3 1.31724 0.841336 0
M  V30 7356 H 724.035 0.428114 3.21462 0
M  V30 7357 H 723.82 2.20229 3.24409 0
M  V30 7358 H 725.31 1.46874 3.90919 0
M  V30 7359 N 725.747 -0.868086 1.31537 0
M  V30 7360 C 726.975 -1.65402 1.24298 0
M  V30 7361 C 727.39 -1.87827 -0.191389 0
M  V30 7362 O 726.747 -1.43776 -1.12404 0
M  V30 7363 C 726.798 -3.02093 1.9855 0
M  V30 7364 O 726.519 -2.80668 3.36388 0
M  V30 7365 C 728.02 -3.96538 1.98173 0
M  V30 7366 H 725.24 -0.515598 0.429417 0
M  V30 7367 H 727.784 -1.0834 1.73444 0
M  V30 7368 H 725.939 -3.55838 1.53161 0
M  V30 7369 H 726.353 -3.67504 3.74221 0
M  V30 7370 H 727.827 -4.8976 2.54635 0
M  V30 7371 H 728.304 -4.28474 0.964697 0
M  V30 7372 H 728.91 -3.48729 2.4345 0
M  V30 7373 N 727.225 -1.14528 -1.08264 0
M  V30 7374 C 728.158 -0.777154 -2.14559 0
M  V30 7375 C 729.136 0.242165 -1.60787 0
M  V30 7376 O 730.32 0.130882 -1.88045 0
M  V30 7377 C 727.447 -0.154092 -3.38349 0
M  V30 7378 C 726.493 -1.14382 -4.10876 0
M  V30 7379 S 727.326 -2.68173 -4.63512 0
M  V30 7380 C 728.482 -2.0726 -5.90588 0
M  V30 7381 H 728.715 -1.67748 -2.45454 0
M  V30 7382 H 726.248 -0.966661 -1.20395 0
M  V30 7383 H 728.206 0.19897 -4.10018 0
M  V30 7384 H 726.867 0.723688 -3.05649 0
M  V30 7385 H 726.06 -0.655908 -4.99714 0
M  V30 7386 H 725.662 -1.44095 -3.45127 0
M  V30 7387 H 727.954 -1.42895 -6.62259 0
M  V30 7388 H 728.897 -2.94227 -6.44078 0
M  V30 7389 H 729.305 -1.51935 -5.43669 0
M  V30 7390 N 728.703 1.26451 -0.940633 0
M  V30 7391 C 729.666 2.24651 -0.454378 0
M  V30 7392 C 730.666 1.54826 0.434222 0
M  V30 7393 O 731.856 1.72628 0.233477 0
M  V30 7394 C 728.988 3.39148 0.345192 0
M  V30 7395 H 730.181 2.69182 -1.32217 0
M  V30 7396 H 727.734 1.38596 -0.722547 0
M  V30 7397 H 728.469 3.00018 1.23125 0
M  V30 7398 H 728.254 3.9101 -0.292107 0
M  V30 7399 H 729.744 4.12103 0.675341 0
M  V30 7400 N 730.181 0.707592 1.40822 0
M  V30 7401 C 731.113 0.0105968 2.29198 0
M  V30 7402 C 732.126 -0.732035 1.45414 0
M  V30 7403 O 733.315 -0.580741 1.68789 0
M  V30 7404 C 730.415 -1.00921 3.23525 0
M  V30 7405 C 729.588 -0.333747 4.36125 0
M  V30 7406 C 728.647 -1.25783 5.10945 0
M  V30 7407 O 727.673 -0.745646 5.64295 0
M  V30 7408 N 728.875 -2.58947 5.19545 0
M  V30 7409 H 731.64 0.76938 2.89656 0
M  V30 7410 H 729.201 0.554579 1.52105 0
M  V30 7411 H 731.193 -1.6294 3.70449 0
M  V30 7412 H 729.763 -1.66942 2.6429 0
M  V30 7413 H 728.983 0.466518 3.9143 0
M  V30 7414 H 730.271 0.135444 5.0862 0
M  V30 7415 H 729.669 -3.03065 4.7767 0
M  V30 7416 H 728.226 -3.16131 5.70004 0
M  V30 7417 N 731.66 -1.50943 0.453197 0
M  V30 7418 C 732.59 -2.31005 -0.34044 0
M  V30 7419 C 733.571 -1.37112 -1.00669 0
M  V30 7420 O 734.756 -1.66033 -1.0073 0
M  V30 7421 C 731.886 -3.16358 -1.433 0
M  V30 7422 C 730.84 -4.18658 -0.889363 0
M  V30 7423 C 730.166 -4.92633 -2.07887 0
M  V30 7424 C 731.466 -5.22227 0.0871142 0
M  V30 7425 H 733.16 -2.97601 0.327723 0
M  V30 7426 H 730.706 -1.43119 0.159054 0
M  V30 7427 H 732.659 -3.71155 -1.99555 0
M  V30 7428 H 731.383 -2.47613 -2.12968 0
M  V30 7429 H 730.042 -3.64936 -0.348915 0
M  V30 7430 H 729.69 -4.20376 -2.76211 0
M  V30 7431 H 729.39 -5.61819 -1.72143 0
M  V30 7432 H 730.914 -5.50258 -2.64666 0
M  V30 7433 H 732.328 -5.72001 -0.385656 0
M  V30 7434 H 730.725 -5.99032 0.357926 0
M  V30 7435 H 731.795 -4.74077 1.01879 0
M  V30 7436 N 733.138 -0.185124 -1.56509 0
M  V30 7437 C 734.07 0.771401 -2.15829 0
M  V30 7438 C 735.083 1.18392 -1.11747 0
M  V30 7439 O 736.272 1.12137 -1.38879 0
M  V30 7440 C 733.372 2.05169 -2.69739 0
M  V30 7441 C 732.545 1.80056 -3.98621 0
M  V30 7442 C 731.604 2.92435 -4.37456 0
M  V30 7443 O 730.63 2.62473 -5.05071 0
M  V30 7444 N 731.832 4.20554 -4.00143 0
M  V30 7445 H 734.597 0.264184 -2.98533 0
M  V30 7446 H 732.158 -0.00281069 -1.619 0
M  V30 7447 H 734.15 2.7947 -2.92709 0
M  V30 7448 H 732.72 2.47041 -1.91545 0
M  V30 7449 H 731.94 0.895862 -3.83885 0
M  V30 7450 H 733.228 1.60662 -4.82768 0
M  V30 7451 H 732.626 4.47753 -3.45736 0
M  V30 7452 H 731.183 4.91514 -4.28085 0
M  V30 7453 N 734.616 1.57351 0.0885366 0
M  V30 7454 C 735.841 1.91011 0.80805 0
M  V30 7455 C 736.266 0.780009 1.71165 0
M  V30 7456 O 735.624 -0.268083 1.79307 0
M  V30 7457 C 735.672 3.23562 1.59185 0
M  V30 7458 O 734.776 3.11615 2.7013 0
M  V30 7459 H 734.117 0.625943 0.221565 0
M  V30 7460 H 736.647 2.04507 0.0617954 0
M  V30 7461 H 736.657 3.5703 1.97468 0
M  V30 7462 H 735.332 4.05398 0.928741 0
M  V30 7463 H 733.909 2.89673 2.34827 0
M  V30 7464 N 736.094 -0.359525 1.53444 0
M  V30 7465 C 737.505 -0.936009 1.61542 0
M  V30 7466 C 737.856 -1.90069 0.486633 0
M  V30 7467 O 736.981 -2.12929 -0.386047 0
M  V30 7468 C 737.576 -1.70441 2.92806 0
M  V30 7469 C 736.135 -2.23015 3.03218 0
M  V30 7470 C 735.282 -1.04438 2.56881 0
M  V30 7471 H 738.233 -0.138134 1.58098 0
M  V30 7472 H 738.254 -2.56609 2.80948 0
M  V30 7473 H 737.766 -1.00205 3.74941 0
M  V30 7474 H 735.867 -2.96475 2.25684 0
M  V30 7475 H 735.98 -2.50481 4.08407 0
M  V30 7476 H 734.344 -1.41314 2.11902 0
M  V30 7477 H 735.127 -0.356905 3.4144 0
M  V30 7478 N 737.572 -1.44907 -0.619662 0
M  V30 7479 C 738.522 -1.49085 -1.72504 0
M  V30 7480 C 739.506 -0.355372 -1.56926 0
M  V30 7481 O 740.698 -0.601441 -1.66468 0
M  V30 7482 C 737.827 -1.44889 -3.11227 0
M  V30 7483 C 736.913 -2.63593 -3.32234 0
M  V30 7484 N 737.304 -3.88775 -3.23555 0
M  V30 7485 C 735.602 -2.59033 -3.63067 0
M  V30 7486 C 736.303 -4.67932 -3.45564 0
M  V30 7487 N 735.279 -3.9919 -3.68983 0
M  V30 7488 H 739.081 -2.43706 -1.6427 0
M  V30 7489 H 736.595 -1.4003 -0.82252 0
M  V30 7490 H 738.592 -1.45966 -3.90512 0
M  V30 7491 H 737.252 -0.513143 -3.2062 0
M  V30 7492 H 738.263 -4.20574 -3.02221 0
M  V30 7493 H 734.94 -1.7431 -3.79371 0
M  V30 7494 H 736.33 -5.76952 -3.44349 0
M  V30 7495 N 739.05 0.861098 -1.31996 0
M  V30 7496 C 740.013 1.95068 -1.20338 0
M  V30 7497 C 741.013 1.60289 -0.128114 0
M  V30 7498 O 742.203 1.70048 -0.378044 0
M  V30 7499 C 739.335 3.30153 -0.849205 0
M  V30 7500 H 740.528 2.06833 -2.17164 0
M  V30 7501 H 738.081 1.05049 -1.15734 0
M  V30 7502 H 738.816 3.24087 0.117508 0
M  V30 7503 H 738.601 3.56771 -1.62655 0
M  V30 7504 H 740.091 4.10025 -0.791782 0
M  V30 7505 N 740.528 1.15101 1.07655 0
M  V30 7506 C 741.458 0.867864 2.16773 0
M  V30 7507 C 742.439 -0.180283 1.69142 0
M  V30 7508 O 743.624 -0.0353152 1.94168 0
M  V30 7509 C 740.754 0.35299 3.45501 0
M  V30 7510 C 739.708 1.33746 4.06566 0
M  V30 7511 C 739.034 0.681562 5.30338 0
M  V30 7512 C 740.334 2.7024 4.46954 0
M  V30 7513 H 742.028 1.78034 2.40716 0
M  V30 7514 H 739.574 0.857435 1.15689 0
M  V30 7515 H 741.527 0.142465 4.21159 0
M  V30 7516 H 740.251 -0.594945 3.21135 0
M  V30 7517 H 738.91 1.53429 3.32949 0
M  V30 7518 H 738.558 -0.272422 5.02262 0
M  V30 7519 H 738.258 1.33853 5.72151 0
M  V30 7520 H 739.782 0.48074 6.08705 0
M  V30 7521 H 741.196 2.5442 5.13754 0
M  V30 7522 H 739.593 3.32282 4.99709 0
M  V30 7523 H 740.663 3.26537 3.58471 0
M  V30 7524 N 742.006 -1.2595 0.947325 0
M  V30 7525 C 743.236 -1.97258 0.614235 0
M  V30 7526 C 743.644 -1.70682 -0.816355 0
M  V30 7527 O 742.987 -0.97527 -1.55673 0
M  V30 7528 C 743.049 -3.50845 0.784081 0
M  V30 7529 C 742.713 -4.01084 2.19045 0
M  V30 7530 C 743.71 -4.12347 3.16648 0
M  V30 7531 C 741.395 -4.34936 2.51268 0
M  V30 7532 C 743.389 -4.56766 4.44572 0
M  V30 7533 C 741.076 -4.79043 3.79422 0
M  V30 7534 C 742.074 -4.89919 4.75887 0
M  V30 7535 O 741.762 -5.3305 6.01758 0
M  V30 7536 H 741.494 -0.635738 0.22981 0
M  V30 7537 H 744.048 -1.61268 1.27207 0
M  V30 7538 H 742.278 -3.86638 0.069101 0
M  V30 7539 H 743.967 -4.03363 0.453135 0
M  V30 7540 H 744.733 -3.86432 2.93079 0
M  V30 7541 H 740.612 -4.25702 1.76916 0
M  V30 7542 H 744.156 -4.6517 5.19868 0
M  V30 7543 H 740.053 -5.04402 4.02802 0
M  V30 7544 H 740.821 -5.51255 6.05029 0
M  V30 7545 N 743.484 -0.715051 -1.40445 0
M  V30 7546 C 744.709 -0.26254 -2.05732 0
M  V30 7547 C 745.134 1.08691 -1.53519 0
M  V30 7548 O 744.492 1.68453 -0.670328 0
M  V30 7549 C 744.54 -0.25195 -3.59719 0
M  V30 7550 O 743.644 0.766998 -4.05205 0
M  V30 7551 H 742.985 -0.123398 -0.652433 0
M  V30 7552 H 745.515 -0.975382 -1.79854 0
M  V30 7553 H 745.525 -0.0894537 -4.07902 0
M  V30 7554 H 744.2 -1.23672 -3.97087 0
M  V30 7555 H 742.777 0.572269 -3.68483 0
M  V30 7556 N 744.962 1.50701 -0.461195 0
M  V30 7557 C 745.912 2.25195 0.35653 0
M  V30 7558 C 746.896 1.2838 0.96992 0
M  V30 7559 O 748.088 1.53338 0.884108 0
M  V30 7560 C 745.217 3.11471 1.44364 0
M  V30 7561 C 744.303 4.15729 0.83847 0
M  V30 7562 N 744.694 5.05788 -0.0353198 0
M  V30 7563 C 742.992 4.32133 1.1035 0
M  V30 7564 C 743.693 5.80472 -0.37774 0
M  V30 7565 N 742.669 5.43049 0.24463 0
M  V30 7566 H 746.471 2.92188 -0.316746 0
M  V30 7567 H 743.985 1.60059 -0.274725 0
M  V30 7568 H 745.982 3.63436 2.04255 0
M  V30 7569 H 744.642 2.46025 2.11901 0
M  V30 7570 H 745.653 5.16326 -0.403465 0
M  V30 7571 H 742.33 3.77908 1.77458 0
M  V30 7572 H 743.72 6.62996 -1.09024 0
M  V30 7573 N 746.441 0.193421 1.56409 0
M  V30 7574 C 747.388 -0.728124 2.19014 0
M  V30 7575 C 748.358 -1.21098 1.13686 0
M  V30 7576 O 749.543 -1.27517 1.4193 0
M  V30 7577 C 746.683 -1.94277 2.8522 0
M  V30 7578 C 745.796 -1.50143 4.05069 0
M  V30 7579 C 744.931 -2.67145 4.59137 0
M  V30 7580 C 743.97 -2.19609 5.71348 0
M  V30 7581 N 743.107 -3.29782 6.19829 0
M  V30 7582 H 747.947 -0.187499 2.9741 0
M  V30 7583 H 745.484 -0.0808064 1.46878 0
M  V30 7584 H 747.442 -2.65551 3.21774 0
M  V30 7585 H 746.072 -2.45673 2.09391 0
M  V30 7586 H 745.124 -0.684624 3.74189 0
M  V30 7587 H 746.436 -1.11266 4.86232 0
M  V30 7588 H 745.59 -3.46544 4.97988 0
M  V30 7589 H 744.329 -3.09295 3.77078 0
M  V30 7590 H 743.334 -1.38664 5.32027 0
M  V30 7591 H 744.559 -1.78492 6.55223 0
M  V30 7592 H 742.505 -3.71466 5.40693 0
M  V30 7593 H 742.422 -2.95069 6.96039 0
M  V30 7594 H 743.69 -4.094 6.63334 0
M  V30 7595 N 747.919 -1.57396 -0.0801906 0
M  V30 7596 C 749.33 -1.75642 -0.633002 0
M  V30 7597 C 749.681 -0.817708 -1.78348 0
M  V30 7598 O 748.806 0.000233743 -2.164 0
M  V30 7599 C 749.401 -3.18502 -1.15507 0
M  V30 7600 C 747.96 -3.38121 -1.65381 0
M  V30 7601 C 747.107 -2.71386 -0.569661 0
M  V30 7602 H 750.058 -1.58027 0.145949 0
M  V30 7603 H 750.079 -3.22198 -2.02408 0
M  V30 7604 H 749.591 -3.86799 -0.317515 0
M  V30 7605 H 747.692 -2.74926 -2.51488 0
M  V30 7606 H 747.805 -4.46521 -1.73654 0
M  V30 7607 H 746.169 -2.33702 -1.0127 0
M  V30 7608 H 746.952 -3.42332 0.257561 0
M  V30 7609 N 749.397 0.351382 -1.53633 0
M  V30 7610 C 750.307 1.45471 -1.84052 0
M  V30 7611 C 751.323 1.57945 -0.730015 0
M  V30 7612 O 752.499 1.73571 -1.02153 0
M  V30 7613 C 749.564 2.80562 -2.03681 0
M  V30 7614 C 748.625 2.77497 -3.27558 0
M  V30 7615 C 747.858 4.06144 -3.46241 0
M  V30 7616 O 748.081 5.03028 -2.68922 0
M  V30 7617 O 747.015 4.11092 -4.39645 0
M  V30 7618 H 750.841 1.22684 -2.77817 0
M  V30 7619 H 748.426 0.542827 -1.3919 0
M  V30 7620 H 750.308 3.6058 -2.18082 0
M  V30 7621 H 748.983 3.03296 -1.13106 0
M  V30 7622 H 747.89 1.96126 -3.18568 0
M  V30 7623 H 749.223 2.59716 -4.18101 0
M  V30 7624 N 750.875 1.45233 0.611969 0
M  V30 7625 C 752.121 1.49242 1.37312 0
M  V30 7626 C 752.454 0.131963 1.93751 0
M  V30 7627 O 751.729 -0.852999 1.74798 0
M  V30 7628 C 752.012 2.56811 2.52428 0
M  V30 7629 C 751.865 4.02284 2.01215 0
M  V30 7630 C 753.184 2.60705 3.54572 0
M  V30 7631 H 750.303 0.54336 0.497925 0
M  V30 7632 H 752.945 1.77019 0.690242 0
M  V30 7633 H 751.095 2.33256 3.10683 0
M  V30 7634 H 752.767 4.37035 1.47643 0
M  V30 7635 H 751.01 4.1315 1.32248 0
M  V30 7636 H 751.681 4.7323 2.84178 0
M  V30 7637 H 754.157 2.81799 3.06151 0
M  V30 7638 H 753.033 3.37841 4.32614 0
M  V30 7639 H 753.294 1.65627 4.09903 0
M  V30 7640 N 752.353 -0.854086 1.3245 0
M  V30 7641 C 753.316 -1.94427 1.21371 0
M  V30 7642 C 754.316 -1.60219 0.136613 0
M  V30 7643 O 755.506 -1.69846 0.387057 0
M  V30 7644 C 752.638 -3.29698 0.866701 0
M  V30 7645 H 753.831 -2.05679 2.18257 0
M  V30 7646 H 751.384 -1.04434 1.1629 0
M  V30 7647 H 752.119 -3.24145 -0.100319 0
M  V30 7648 H 751.904 -3.55903 1.64545 0
M  V30 7649 H 753.394 -4.09599 0.813515 0
M  V30 7650 N 753.831 -1.1567 -1.07043 0
M  V30 7651 C 754.763 -0.814095 -2.14255 0
M  V30 7652 C 755.776 0.175293 -1.61854 0
M  V30 7653 O 756.965 -0.0483984 -1.78434 0
M  V30 7654 C 754.065 -0.190082 -3.38367 0
M  V30 7655 C 753.238 -1.21768 -4.20109 0
M  V30 7656 C 752.297 -0.614863 -5.22595 0
M  V30 7657 O 751.323 -1.28167 -5.54583 0
M  V30 7658 N 752.525 0.601955 -5.77371 0
M  V30 7659 H 755.29 -1.73677 -2.44247 0
M  V30 7660 H 752.851 -1.05301 -1.22977 0
M  V30 7661 H 754.843 0.22604 -4.04068 0
M  V30 7662 H 753.413 0.635992 -3.06062 0
M  V30 7663 H 752.633 -1.81025 -3.50177 0
M  V30 7664 H 753.921 -1.9114 -4.71533 0
M  V30 7665 H 753.319 1.162 -5.53637 0
M  V30 7666 H 751.876 0.96039 -6.44686 0
M  V30 7667 N 755.309 1.25446 -0.953992 0
M  V30 7668 C 756.539 1.96929 -0.624688 0
M  V30 7669 C 756.947 1.71112 0.807292 0
M  V30 7670 O 756.29 0.983512 1.55154 0
M  V30 7671 C 756.352 3.50425 -0.802676 0
M  V30 7672 C 756.016 3.99916 -2.21169 0
M  V30 7673 C 757.013 4.10662 -3.18831 0
M  V30 7674 C 754.698 4.33598 -2.53571 0
M  V30 7675 C 756.692 4.54401 -4.46988 0
M  V30 7676 C 754.379 4.77024 -3.81958 0
M  V30 7677 C 755.377 4.87388 -4.78478 0
M  V30 7678 O 755.065 5.29851 -6.04577 0
M  V30 7679 H 754.797 0.634511 -0.233179 0
M  V30 7680 H 757.351 1.60591 -1.28061 0
M  V30 7681 H 755.581 3.86596 -0.0896044 0
M  V30 7682 H 757.27 4.03117 -0.47452 0
M  V30 7683 H 758.036 3.84872 -2.95124 0
M  V30 7684 H 753.915 4.24757 -1.79171 0
M  V30 7685 H 757.459 4.62406 -5.22328 0
M  V30 7686 H 753.356 5.02258 -4.05471 0
M  V30 7687 H 754.124 5.48039 -6.07944 0
M  V30 7688 N 756.787 0.722489 1.40064 0
M  V30 7689 C 758.015 0.274838 2.05066 0
M  V30 7690 C 758.43 -1.08586 1.54449 0
M  V30 7691 O 757.787 -1.68375 0.704003 0
M  V30 7692 C 757.838 0.253673 3.60609 0
M  V30 7693 O 757.559 1.56064 4.0936 0
M  V30 7694 C 759.06 -0.211684 4.42794 0
M  V30 7695 H 756.28 0.12226 0.659768 0
M  V30 7696 H 758.824 0.982632 1.79345 0
M  V30 7697 H 756.979 -0.405137 3.85276 0
M  V30 7698 H 757.393 1.46576 5.03603 0
M  V30 7699 H 758.867 -0.175341 5.51721 0
M  V30 7700 H 759.344 -1.25493 4.2089 0
M  V30 7701 H 759.95 0.4171 4.2325 0
M  V30 7702 N 758.265 -1.50454 0.469181 0
M  V30 7703 C 759.215 -2.25381 -0.344582 0
M  V30 7704 C 760.199 -1.28892 -0.963098 0
M  V30 7705 O 761.391 -1.53805 -0.875964 0
M  V30 7706 C 758.52 -3.12232 -1.4271 0
M  V30 7707 C 757.606 -4.16168 -0.816411 0
M  V30 7708 N 757.997 -5.05762 0.0621424 0
M  V30 7709 C 756.295 -4.32712 -1.08056 0
M  V30 7710 C 756.996 -5.80264 0.408519 0
M  V30 7711 N 755.972 -5.43171 -0.215827 0
M  V30 7712 H 759.774 -2.92016 0.332237 0
M  V30 7713 H 757.288 -1.59911 0.283209 0
M  V30 7714 H 759.285 -3.64514 -2.02324 0
M  V30 7715 H 757.945 -2.47145 -2.10593 0
M  V30 7716 H 758.956 -5.16105 0.430841 0
M  V30 7717 H 755.633 -3.78844 -1.75452 0
M  V30 7718 H 757.023 -6.62408 1.12539 0
M  V30 7719 N 759.743 -0.201713 -1.56304 0
M  V30 7720 C 760.971 0.440723 -2.02152 0
M  V30 7721 C 761.386 1.54735 -1.08179 0
M  V30 7722 O 760.743 1.82289 -0.0878196 0
M  V30 7723 C 760.794 0.990884 -3.47655 0
M  V30 7724 O 760.515 -0.0715937 -4.38041 0
M  V30 7725 C 762.016 1.70854 -4.09052 0
M  V30 7726 H 759.236 0.109987 -0.661924 0
M  V30 7727 H 761.78 -0.312358 -2.021 0
M  V30 7728 H 759.935 1.69432 -3.48384 0
M  V30 7729 H 760.349 0.338892 -5.23404 0
M  V30 7730 H 761.823 2.04572 -5.12693 0
M  V30 7731 H 762.3 2.61462 -3.52894 0
M  V30 7732 H 762.906 1.0508 -4.12114 0
M  V30 7733 N 761.222 1.57436 0.0718424 0
M  V30 7734 C 762.47 1.86878 0.769484 0
M  V30 7735 C 762.791 0.7937 1.78116 0
M  V30 7736 O 762.061 -0.177642 1.95093 0
M  V30 7737 H 760.641 0.689593 0.287177 0
M  V30 7738 H 763.303 1.94841 0.0479427 0
M  V30 7739 H 762.399 2.84387 1.28572 0
M  V30 7740 N 762.7 -0.34323 1.53817 0
M  V30 7741 C 763.63 -1.42709 1.84814 0
M  V30 7742 C 764.611 -1.5488 0.703297 0
M  V30 7743 O 765.796 -1.69082 0.955237 0
M  V30 7744 C 762.926 -2.79756 2.05801 0
M  V30 7745 C 761.88 -2.82392 3.21619 0
M  V30 7746 C 761.206 -4.22326 3.2794 0
M  V30 7747 C 762.506 -2.479 4.59721 0
M  V30 7748 H 764.2 -1.17018 2.75585 0
M  V30 7749 H 761.746 -0.561485 1.32602 0
M  V30 7750 H 763.699 -3.55627 2.26069 0
M  V30 7751 H 762.423 -3.06883 1.11761 0
M  V30 7752 H 761.082 -2.08974 3.01207 0
M  V30 7753 H 760.73 -4.46564 2.31494 0
M  V30 7754 H 760.43 -4.25001 4.05768 0
M  V30 7755 H 761.954 -5.00039 3.50419 0
M  V30 7756 H 763.368 -3.13484 4.80001 0
M  V30 7757 H 761.765 -2.61857 5.39954 0
M  V30 7758 H 762.835 -1.43087 4.63308 0
M  V30 7759 N 764.178 -1.45556 -0.604258 0
M  V30 7760 C 765.108 -1.57327 -1.72541 0
M  V30 7761 C 766.089 -0.424637 -1.64714 0
M  V30 7762 O 767.274 -0.648196 -1.83063 0
M  V30 7763 C 764.404 -1.54279 -3.11152 0
M  V30 7764 C 763.358 -2.67893 -3.33792 0
M  V30 7765 C 762.684 -2.499 -4.72709 0
M  V30 7766 C 763.984 -4.0988 -3.23722 0
M  V30 7767 H 765.678 -2.51175 -1.62947 0
M  V30 7768 H 763.224 -1.20884 -0.782504 0
M  V30 7769 H 765.177 -1.6111 -3.89386 0
M  V30 7770 H 763.901 -0.569627 -3.21594 0
M  V30 7771 H 762.56 -2.60495 -2.57949 0
M  V30 7772 H 762.208 -1.50715 -4.79889 0
M  V30 7773 H 761.908 -3.26091 -4.88813 0
M  V30 7774 H 763.432 -2.5859 -5.5314 0
M  V30 7775 H 764.846 -4.18503 -3.91826 0
M  V30 7776 H 763.243 -4.86487 -3.51355 0
M  V30 7777 H 764.313 -4.31553 -2.21111 0
M  V30 7778 N 765.656 0.84705 -1.32902 0
M  V30 7779 C 767.067 1.41785 -1.21466 0
M  V30 7780 C 767.418 1.95464 0.169767 0
M  V30 7781 O 766.543 1.88157 1.06892 0
M  V30 7782 C 767.138 2.57734 -2.19906 0
M  V30 7783 C 765.697 3.10791 -2.12334 0
M  V30 7784 C 764.844 1.83562 -2.07847 0
M  V30 7785 H 767.795 0.653532 -1.44619 0
M  V30 7786 H 767.816 3.35123 -1.80202 0
M  V30 7787 H 767.328 2.18635 -3.20656 0
M  V30 7788 H 765.429 3.54455 -1.14858 0
M  V30 7789 H 765.542 3.71519 -3.02506 0
M  V30 7790 H 763.906 2.03475 -1.53199 0
M  V30 7791 H 764.689 1.4667 -3.10392 0
M  V30 7792 N 767.134 1.16236 1.06428 0
M  V30 7793 C 768.066 0.825446 2.1382 0
M  V30 7794 C 769.079 -0.166707 1.61944 0
M  V30 7795 O 770.268 0.0578606 1.78406 0
M  V30 7796 C 767.368 0.208023 3.38261 0
M  V30 7797 C 766.541 1.23994 4.19457 0
M  V30 7798 C 765.6 0.642569 5.22262 0
M  V30 7799 O 764.626 1.31106 5.53895 0
M  V30 7800 N 765.828 -0.571327 5.77682 0
M  V30 7801 H 768.593 1.7497 2.43322 0
M  V30 7802 H 766.154 1.05951 1.22417 0
M  V30 7803 H 768.146 -0.204608 4.04182 0
M  V30 7804 H 766.716 -0.619752 3.06395 0
M  V30 7805 H 765.936 1.82879 3.49212 0
M  V30 7806 H 767.224 1.93638 4.70512 0
M  V30 7807 H 766.622 -1.13263 5.54245 0
M  V30 7808 H 765.179 -0.926187 6.45186 0
M  V30 7809 N 768.612 -1.24939 0.960631 0
M  V30 7810 C 769.84 -1.96881 0.636045 0
M  V30 7811 C 770.255 -1.71334 -0.793093 0
M  V30 7812 O 769.612 -0.992917 -1.53125 0
M  V30 7813 C 769.663 -3.50309 0.892533 0
M  V30 7814 O 769.384 -3.74977 2.26548 0
M  V30 7815 C 770.885 -4.39474 0.581159 0
M  V30 7816 H 768.105 -0.627399 0.237931 0
M  V30 7817 H 770.649 -1.58952 1.28664 0
M  V30 7818 H 768.804 -3.86326 0.288257 0
M  V30 7819 H 769.218 -4.69401 2.34014 0
M  V30 7820 H 770.692 -5.46008 0.811125 0
M  V30 7821 H 771.169 -4.3652 -0.48443 0
M  V30 7822 H 771.775 -4.09032 1.16502 0
M  V30 7823 N 770.09 -0.729906 -1.39679 0
M  V30 7824 C 771.023 -0.0354454 -2.28172 0
M  V30 7825 C 772.001 0.752968 -1.44115 0
M  V30 7826 O 773.185 0.736599 -1.73512 0
M  V30 7827 C 770.312 0.957047 -3.24897 0
M  V30 7828 C 769.358 0.257734 -4.25721 0
M  V30 7829 S 770.191 -1.02466 -5.25605 0
M  V30 7830 C 771.347 -0.0346322 -6.2589 0
M  V30 7831 H 771.58 -0.785922 -2.86724 0
M  V30 7832 H 769.113 -0.521497 -1.45326 0
M  V30 7833 H 771.071 1.52441 -3.81146 0
M  V30 7834 H 769.732 1.68033 -2.65375 0
M  V30 7835 H 768.925 1.00854 -4.93806 0
M  V30 7836 H 768.527 -0.237454 -3.73245 0
M  V30 7837 H 770.819 0.807464 -6.72671 0
M  V30 7838 H 771.762 -0.682491 -7.04803 0
M  V30 7839 H 772.17 0.335492 -5.63502 0
M  V30 7840 N 771.568 1.50203 -0.477153 0
M  V30 7841 C 772.498 2.31517 0.303646 0
M  V30 7842 C 773.479 1.38696 0.984753 0
M  V30 7843 O 774.664 1.67615 0.980758 0
M  V30 7844 C 771.794 3.18598 1.38249 0
M  V30 7845 C 770.748 4.2002 0.822645 0
M  V30 7846 C 770.074 4.95878 2.00024 0
M  V30 7847 C 771.374 5.22023 -0.170185 0
M  V30 7848 H 773.068 2.97042 -0.375027 0
M  V30 7849 H 770.614 1.42848 -0.181802 0
M  V30 7850 H 772.567 3.74282 1.93625 0
M  V30 7851 H 771.291 2.5097 2.09002 0
M  V30 7852 H 769.95 3.65445 0.290813 0
M  V30 7853 H 769.598 4.24717 2.69489 0
M  V30 7854 H 769.298 5.64487 1.63183 0
M  V30 7855 H 770.822 5.54399 2.55878 0
M  V30 7856 H 772.236 5.72543 0.294606 0
M  V30 7857 H 770.633 5.98386 -0.453181 0
M  V30 7858 H 771.703 4.72396 -1.09408 0
M  V30 7859 N 773.046 0.209999 1.56195 0
M  V30 7860 C 774.295 -0.425106 1.97169 0
M  V30 7861 C 774.608 -1.61718 1.10031 0
M  V30 7862 O 775.814 -2.32105 1.40853 0
M  V30 7863 C 774.27 -0.80771 3.50719 0
M  V30 7864 C 773.878 0.360902 4.46544 0
M  V30 7865 C 775.622 -1.40906 4.00432 0
M  V30 7866 C 773.529 -0.0434919 5.91384 0
M  V30 7867 H 772.459 -0.162598 0.736259 0
M  V30 7868 H 775.11 0.304382 1.80958 0
M  V30 7869 H 773.492 -1.59429 3.62489 0
M  V30 7870 H 774.666 1.13846 4.46515 0
M  V30 7871 H 772.981 0.874729 4.07109 0
M  V30 7872 H 775.578 -1.72433 5.06133 0
M  V30 7873 H 775.921 -2.32081 3.45607 0
M  V30 7874 H 776.454 -0.686154 3.91838 0
M  V30 7875 H 773.193 0.834448 6.50167 0
M  V30 7876 H 772.713 -0.785598 5.94633 0
M  V30 7877 H 774.392 -0.474176 6.4526 0
M  V30 7878 N 774.524 -1.57472 -0.0634922 0
M  V30 7879 C 775.752 -1.91887 -0.773767 0
M  V30 7880 C 776.167 -0.806733 -1.70696 0
M  V30 7881 O 775.524 0.219383 -1.81177 0
M  V30 7882 C 775.575 -3.26092 -1.56034 0
M  V30 7883 O 775.296 -4.33029 -0.66464 0
M  V30 7884 C 776.797 -3.74573 -2.37087 0
M  V30 7885 H 774.017 -0.634074 -0.219525 0
M  V30 7886 H 776.561 -2.04476 -0.0312828 0
M  V30 7887 H 774.716 -3.15004 -2.25502 0
M  V30 7888 H 775.13 -5.10291 -1.21258 0
M  V30 7889 H 776.604 -4.71084 -2.87722 0
M  V30 7890 H 777.081 -3.04003 -3.16984 0
M  V30 7891 H 777.687 -3.88631 -1.72759 0
M  V30 7892 N 776.003 0.335068 -1.53997 0
M  V30 7893 C 777.28 1.09188 -1.62288 0
M  V30 7894 C 777.66 2.0626 -0.449458 0
M  V30 7895 O 777.008 2.21596 0.557444 0
M  V30 7896 C 777.218 1.80403 -2.98757 0
M  V30 7897 C 778.566 2.33841 -3.54406 0
M  V30 7898 O 779.59 1.90487 -3.00987 0
M  V30 7899 O 778.449 3.1318 -4.47862 0
M  V30 7900 H 775.543 0.502621 -0.656736 0
M  V30 7901 H 778.089 0.33588 -1.66343 0
M  V30 7902 H 776.861 1.09732 -3.75599 0
M  V30 7903 H 776.484 2.62841 -2.9833 0
M  V30 7904 N 777.481 1.45874 0.596531 0
M  V30 7905 C 778.709 1.54013 1.38158 0
M  V30 7906 C 779.124 0.17648 1.87973 0
M  V30 7907 O 778.481 -0.823895 1.62844 0
M  V30 7908 C 778.532 2.53363 2.57855 0
M  V30 7909 O 778.253 3.8443 2.10108 0
M  V30 7910 C 779.754 2.71308 3.50581 0
M  V30 7911 H 776.974 0.521251 0.422538 0
M  V30 7912 H 779.518 1.9116 0.726493 0
M  V30 7913 H 777.673 2.19257 3.19382 0
M  V30 7914 H 778.087 4.38384 2.87958 0
M  V30 7915 H 779.561 3.44776 4.31084 0
M  V30 7916 H 780.038 1.77728 4.01633 0
M  V30 7917 H 780.644 3.06455 2.94899 0
M  V30 7918 N 778.959 -0.83999 1.33349 0
M  V30 7919 C 780.187 -1.62728 1.27778 0
M  V30 7920 C 780.602 -1.88191 -0.151505 0
M  V30 7921 O 779.959 -1.46128 -1.09329 0
M  V30 7922 C 780.01 -2.97813 2.04913 0
M  V30 7923 O 779.731 -2.73469 3.42266 0
M  V30 7924 C 781.232 -3.92245 2.0654 0
M  V30 7925 H 778.452 -0.506374 0.440257 0
M  V30 7926 H 780.996 -1.04637 1.75703 0
M  V30 7927 H 779.151 -3.52509 1.60674 0
M  V30 7928 H 779.565 -3.59483 3.81932 0
M  V30 7929 H 781.039 -4.84249 2.64966 0
M  V30 7930 H 781.516 -4.26332 1.05537 0
M  V30 7931 H 782.122 -3.43487 2.50793 0
M  V30 7932 N 780.437 -1.16799 -1.0581 0
M  V30 7933 C 781.385 -0.875111 -2.1551 0
M  V30 7934 C 782.379 0.157781 -1.68664 0
M  V30 7935 O 783.585 0.011297 -1.79996 0
M  V30 7936 H 779.96 -0.26542 -0.703602 0
M  V30 7937 H 781.931 -1.8076 -2.37421 0
M  V30 7938 C 780.68 -0.39802 -3.45414 0
M  V30 7939 H 780.003 -1.18425 -3.81858 0
M  V30 7940 H 781.443 -0.231913 -4.23365 0
M  V30 7941 C 779.902 0.88327 -3.25115 0
M  V30 7942 O 780.432 1.95145 -3.51114 0
M  V30 7943 N 778.638 0.828961 -2.78526 0
M  V30 7944 H 778.185 -0.0405029 -2.57568 0
M  V30 7945 H 778.143 1.68673 -2.65324 0
M  V30 7946 N 781.915 1.24427 -0.967243 0
M  V30 7947 C 782.845 2.2773 -0.515899 0
M  V30 7948 C 783.826 1.64197 0.444227 0
M  V30 7949 O 785.011 1.91193 0.340451 0
M  V30 7950 C 782.141 3.46751 0.195149 0
M  V30 7951 C 781.095 4.22548 -0.680953 0
M  V30 7952 C 780.421 5.34456 0.161561 0
M  V30 7953 C 781.721 4.83914 -1.96532 0
M  V30 7954 H 783.415 2.65735 -1.37933 0
M  V30 7955 H 780.961 1.27742 -0.664681 0
M  V30 7956 H 782.914 4.18153 0.522117 0
M  V30 7957 H 781.638 3.07771 1.09292 0
M  V30 7958 H 780.297 3.52946 -0.991186 0
M  V30 7959 H 779.945 4.91716 1.05947 0
M  V30 7960 H 779.645 5.86087 -0.421418 0
M  V30 7961 H 781.169 6.08685 0.483211 0
M  V30 7962 H 782.583 5.47392 -1.70396 0
M  V30 7963 H 780.98 5.45775 -2.49499 0
M  V30 7964 H 782.05 4.05393 -2.66053 0
M  V30 7965 N 783.393 0.737304 1.3929 0
M  V30 7966 C 784.618 0.295237 2.05288 0
M  V30 7967 C 785.043 -1.06235 1.55228 0
M  V30 7968 O 784.401 -1.67365 0.697043 0
M  V30 7969 C 784.449 0.309146 3.59272 0
M  V30 7970 O 783.553 -0.702437 4.06374 0
M  V30 7971 H 782.894 0.133762 0.650387 0
M  V30 7972 H 785.424 1.00387 1.78279 0
M  V30 7973 H 785.434 0.154336 4.07708 0
M  V30 7974 H 784.109 1.29974 3.95069 0
M  V30 7975 H 782.686 -0.513574 3.69346 0
M  V30 7976 N 784.871 -1.49948 0.485112 0
M  V30 7977 C 785.834 -2.27351 -0.290546 0
M  V30 7978 C 786.834 -1.32704 -0.908087 0
M  V30 7979 O 788.024 -1.56007 -0.775085 0
M  V30 7980 C 785.156 -3.10135 -1.41524 0
M  V30 7981 H 786.349 -2.97374 0.388454 0
M  V30 7982 H 783.902 -1.54453 0.239586 0
M  V30 7983 H 784.637 -2.44641 -2.12888 0
M  V30 7984 H 784.422 -3.79705 -0.978074 0
M  V30 7985 H 785.912 -3.68638 -1.96204 0
M  V30 7986 N 786.349 -0.21828 -1.56081 0
M  V30 7987 C 787.279 0.687922 -2.23136 0
M  V30 7988 C 788.26 1.20357 -1.202 0
M  V30 7989 O 789.445 1.24817 -1.48776 0
M  V30 7990 C 786.575 1.89762 -2.90874 0
M  V30 7991 C 785.529 1.51595 -4.00254 0
M  V30 7992 C 784.855 2.80415 -4.55271 0
M  V30 7993 C 786.155 0.708404 -5.17474 0
M  V30 7994 H 787.849 0.128854 -2.99123 0
M  V30 7995 H 785.395 0.0605354 -1.43873 0
M  V30 7996 H 787.348 2.53699 -3.36474 0
M  V30 7997 H 786.072 2.4816 -2.1233 0
M  V30 7998 H 784.731 0.900058 -3.55379 0
M  V30 7999 H 784.379 3.36951 -3.73461 0
M  V30 8000 H 784.079 2.55613 -5.2909 0
M  V30 8001 H 785.603 3.453 -5.03587 0
M  V30 8002 H 787.017 1.2514 -5.59476 0
M  V30 8003 H 785.414 0.557593 -5.97504 0
M  V30 8004 H 786.484 -0.285679 -4.84058 0
M  V30 8005 N 787.827 1.57504 0.0551401 0
M  V30 8006 C 788.79 2.03826 1.04821 0
M  V30 8007 C 789.79 0.937968 1.30609 0
M  V30 8008 O 790.98 1.20237 1.2605 0
M  V30 8009 C 788.112 2.43309 2.38775 0
M  V30 8010 H 789.305 2.92802 0.6486 0
M  V30 8011 H 786.858 1.53368 0.301315 0
M  V30 8012 H 787.593 1.5741 2.83536 0
M  V30 8013 H 787.378 3.23615 2.21395 0
M  V30 8014 H 788.868 2.79666 3.10124 0
M  V30 8015 N 789.305 -0.326896 1.54172 0
M  V30 8016 C 790.53 -1.08924 1.76494 0
M  V30 8017 C 790.955 -1.81039 0.510523 0
M  V30 8018 O 790.313 -1.73141 -0.537756 0
M  V30 8019 C 790.361 -2.06558 2.95578 0
M  V30 8020 O 789.465 -3.14394 2.6689 0
M  V30 8021 H 788.806 -0.314216 0.584948 0
M  V30 8022 H 791.336 -0.372207 2.01186 0
M  V30 8023 H 791.346 -2.49487 3.22832 0
M  V30 8024 H 790.021 -1.53469 3.86549 0
M  V30 8025 H 788.598 -2.76164 2.50576 0
M  V30 8026 N 790.784 -1.46188 -0.588786 0
M  V30 8027 C 791.714 -1.59148 -1.70863 0
M  V30 8028 C 792.695 -0.442083 -1.64255 0
M  V30 8029 O 793.88 -0.667575 -1.82365 0
M  V30 8030 C 791.01 -1.5757 -3.09498 0
M  V30 8031 C 789.964 -2.71418 -3.30932 0
M  V30 8032 C 789.29 -2.549 -4.70032 0
M  V30 8033 C 790.59 -4.1329 -3.19356 0
M  V30 8034 H 792.284 -2.52889 -1.60274 0
M  V30 8035 H 789.83 -1.21707 -0.769638 0
M  V30 8036 H 791.783 -1.65231 -3.87655 0
M  V30 8037 H 790.507 -0.603705 -3.20972 0
M  V30 8038 H 789.166 -2.63216 -2.55172 0
M  V30 8039 H 788.814 -1.55797 -4.78264 0
M  V30 8040 H 788.514 -3.31257 -4.85327 0
M  V30 8041 H 790.038 -2.64443 -5.50366 0
M  V30 8042 H 791.452 -4.22636 -3.87365 0
M  V30 8043 H 789.849 -4.90187 -3.46175 0
M  V30 8044 H 790.919 -4.33874 -2.16522 0
M  V30 8045 N 792.262 0.832906 -1.33792 0
M  V30 8046 C 793.49 1.62048 -1.28639 0
M  V30 8047 C 793.905 1.88269 0.141522 0
M  V30 8048 O 793.262 1.46706 1.08553 0
M  V30 8049 C 793.313 2.96722 -2.0649 0
M  V30 8050 O 793.034 2.7165 -3.43712 0
M  V30 8051 C 794.535 3.91144 -2.08617 0
M  V30 8052 H 791.755 0.504032 -0.442937 0
M  V30 8053 H 794.299 1.03704 -1.76255 0
M  V30 8054 H 792.454 3.51652 -1.62541 0
M  V30 8055 H 792.868 3.57453 -3.83833 0
M  V30 8056 H 794.342 4.82837 -2.67531 0
M  V30 8057 H 794.819 4.25766 -1.07796 0
M  V30 8058 H 795.425 3.42152 -2.52611 0
M  V30 8059 N 793.74 1.17359 1.05189 0
M  V30 8060 C 795.151 0.96793 1.5965 0
M  V30 8061 C 795.502 -0.485355 1.90102 0
M  V30 8062 O 794.627 -1.36066 1.6827 0
M  V30 8063 C 795.222 1.75068 2.90063 0
M  V30 8064 C 793.781 1.58969 3.41183 0
M  V30 8065 C 792.928 1.75231 2.14917 0
M  V30 8066 H 795.879 1.32067 0.880001 0
M  V30 8067 H 795.9 1.23308 3.59966 0
M  V30 8068 H 795.412 2.80835 2.67868 0
M  V30 8069 H 793.513 0.556906 3.68415 0
M  V30 8070 H 793.626 2.38067 4.15766 0
M  V30 8071 H 791.99 1.18073 2.25679 0
M  V30 8072 H 792.773 2.8241 1.95191 0
M  V30 8073 N 795.218 -1.23913 0.973828 0
M  V30 8074 C 796.446 -1.96195 0.656891 0
M  V30 8075 C 796.861 -1.72166 -0.774876 0
M  V30 8076 O 796.218 -1.0091 -1.52064 0
M  V30 8077 C 796.269 -3.49342 0.929638 0
M  V30 8078 O 795.99 -3.72553 2.30512 0
M  V30 8079 C 797.491 -4.38833 0.627739 0
M  V30 8080 H 794.711 -0.624841 0.244572 0
M  V30 8081 H 797.255 -1.57579 1.30343 0
M  V30 8082 H 795.41 -3.85999 0.329216 0
M  V30 8083 H 795.824 -4.66893 2.3898 0
M  V30 8084 H 797.298 -5.45117 0.868991 0
M  V30 8085 H 797.775 -4.37009 -0.438104 0
M  V30 8086 H 798.381 -4.07773 1.20834 0
M  V30 8087 N 796.696 -0.74468 -1.38897 0
M  V30 8088 C 797.643 -0.111064 -2.30533 0
M  V30 8089 C 798.613 0.719276 -1.49719 0
M  V30 8090 O 799.798 0.677244 -1.78376 0
M  V30 8091 C 796.938 0.78292 -3.36102 0
M  V30 8092 C 796.051 -0.0610817 -4.31957 0
M  V30 8093 C 795.186 0.835075 -5.24595 0
M  V30 8094 C 794.225 -0.0130974 -6.12099 0
M  V30 8095 N 793.362 0.839525 -6.97063 0
M  V30 8096 H 798.202 -0.898113 -2.84144 0
M  V30 8097 H 795.739 -0.454537 -1.39901 0
M  V30 8098 H 797.697 1.31578 -3.95908 0
M  V30 8099 H 796.327 1.53585 -2.83922 0
M  V30 8100 H 795.379 -0.711469 -3.73687 0
M  V30 8101 H 796.691 -0.716482 -4.93627 0
M  V30 8102 H 795.845 1.43542 -5.89475 0
M  V30 8103 H 794.584 1.52423 -4.63269 0
M  V30 8104 H 793.589 -0.626179 -5.46223 0
M  V30 8105 H 794.814 -0.699181 -6.75491 0
M  V30 8106 H 792.76 1.5138 -6.38295 0
M  V30 8107 H 792.677 0.240823 -7.55616 0
M  V30 8108 H 793.945 1.42513 -7.66362 0
M  V30 8109 N 798.174 1.49689 -0.493057 0
M  V30 8110 C 799.106 2.26867 0.326195 0
M  V30 8111 C 800.119 1.33083 0.937697 0
M  V30 8112 O 801.308 1.58427 0.822382 0
M  V30 8113 C 798.408 3.0519 1.4735 0
M  V30 8114 C 797.581 4.26491 0.970767 0
M  V30 8115 C 796.64 4.86926 1.99473 0
M  V30 8116 O 795.666 5.47221 1.56647 0
M  V30 8117 N 796.868 4.75871 3.32456 0
M  V30 8118 H 799.633 2.97816 -0.335547 0
M  V30 8119 H 797.194 1.58602 -0.325129 0
M  V30 8120 H 799.186 3.42496 2.15589 0
M  V30 8121 H 797.756 2.369 2.03954 0
M  V30 8122 H 796.976 3.94036 0.113529 0
M  V30 8123 H 798.264 5.05092 0.613156 0
M  V30 8124 H 797.662 4.2797 3.69944 0
M  V30 8125 H 796.219 5.17383 3.96431 0
M  V30 8126 N 799.652 0.226554 1.55963 0
M  V30 8127 C 800.898 -0.404387 1.98727 0
M  V30 8128 C 801.231 -1.59059 1.11418 0
M  V30 8129 O 800.506 -1.93729 0.172971 0
M  V30 8130 C 800.789 -0.834081 3.50307 0
M  V30 8131 C 800.642 0.356104 4.48388 0
M  V30 8132 C 801.961 -1.68845 4.06423 0
M  V30 8133 H 799.08 -0.145515 0.722492 0
M  V30 8134 H 801.722 0.323791 1.87221 0
M  V30 8135 H 799.872 -1.45454 3.60244 0
M  V30 8136 H 801.544 0.99432 4.50456 0
M  V30 8137 H 799.787 1.0027 4.22053 0
M  V30 8138 H 800.458 0.0124333 5.51999 0
M  V30 8139 H 802.934 -1.16489 3.99461 0
M  V30 8140 H 801.81 -1.958 5.1279 0
M  V30 8141 H 802.071 -2.65347 3.53615 0
M  V30 8142 N 801.13 -1.57531 -0.0467866 0
M  V30 8143 C 802.377 -1.88451 -0.74112 0
M  V30 8144 C 802.705 -0.821592 -1.76296 0
M  V30 8145 O 801.96 0.179585 -1.94874 0
M  V30 8146 C 802.259 -3.26091 -1.46285 0
M  V30 8147 C 801.925 -4.47171 -0.578669 0
M  V30 8148 C 800.587 -4.80032 -0.335083 0
M  V30 8149 C 802.939 -5.2119 0.0328809 0
M  V30 8150 C 800.267 -5.84309 0.529121 0
M  V30 8151 C 802.619 -6.26383 0.884684 0
M  V30 8152 C 801.283 -6.57729 1.1379 0
M  V30 8153 H 800.553 -0.68959 -0.271195 0
M  V30 8154 H 803.2 -1.915 -0.00132378 0
M  V30 8155 H 801.505 -3.18948 -2.27551 0
M  V30 8156 H 803.202 -3.47258 -2.00532 0
M  V30 8157 H 799.792 -4.21467 -0.778666 0
M  V30 8158 H 803.976 -4.96096 -0.142375 0
M  V30 8159 H 799.232 -6.06981 0.733794 0
M  V30 8160 H 803.406 -6.82888 1.36516 0
M  V30 8161 H 801.033 -7.38355 1.80929 0
M  V30 8162 N 802.608 0.318715 -1.54344 0
M  V30 8163 C 803.836 1.0755 -1.7675 0
M  V30 8164 C 804.251 1.81543 -0.518422 0
M  V30 8165 O 803.608 1.75198 0.511078 0
M  V30 8166 C 803.659 2.06983 -2.96378 0
M  V30 8167 O 803.38 1.35995 -4.16458 0
M  V30 8168 C 804.881 2.94841 -3.31034 0
M  V30 8169 H 802.101 0.319711 -0.589937 0
M  V30 8170 H 804.645 0.363369 -2.01246 0
M  V30 8171 H 802.8 2.73724 -2.74142 0
M  V30 8172 H 803.214 2.02623 -4.83781 0
M  V30 8173 H 804.688 3.60496 -4.18027 0
M  V30 8174 H 805.165 3.62199 -2.48412 0
M  V30 8175 H 805.771 2.33656 -3.55366 0
M  V30 8176 N 804.086 1.46499 0.581025 0
M  V30 8177 C 805.311 1.55708 1.37002 0
M  V30 8178 C 805.736 0.19942 1.8704 0
M  V30 8179 O 805.094 -0.820731 1.61659 0
M  V30 8180 C 805.142 2.56716 2.53238 0
M  V30 8181 O 804.246 2.10336 3.54729 0
M  V30 8182 H 803.587 0.523912 0.407937 0
M  V30 8183 H 806.117 1.92085 0.704602 0
M  V30 8184 H 806.127 2.76378 3.00132 0
M  V30 8185 H 804.802 3.55307 2.16171 0
M  V30 8186 H 803.379 2.00669 3.14303 0
M  V30 8187 N 805.565 -0.825799 1.34232 0
M  V30 8188 C 806.842 -1.56741 1.17011 0
M  V30 8189 C 807.222 -2.09512 -0.258425 0
M  V30 8190 O 806.57 -1.90664 -1.25935 0
M  V30 8191 C 806.78 -2.69104 2.22225 0
M  V30 8192 C 808.128 -3.37947 2.57055 0
M  V30 8193 O 809.152 -2.79358 2.20992 0
M  V30 8194 O 808.011 -4.43743 3.1899 0
M  V30 8195 H 805.105 -0.69163 0.453405 0
M  V30 8196 H 807.651 -0.867422 1.45856 0
M  V30 8197 H 806.423 -2.27844 3.18124 0
M  V30 8198 H 806.046 -3.46756 1.94541 0
M  V30 8199 N 807.043 -1.17915 -1.04565 0
M  V30 8200 C 808.271 -0.99616 -1.8134 0
M  V30 8201 C 808.686 0.455509 -1.83223 0
M  V30 8202 O 808.043 1.31636 -1.26405 0
M  V30 8203 C 808.094 -1.53758 -3.27171 0
M  V30 8204 O 807.815 -2.93241 -3.25486 0
M  V30 8205 C 809.316 -1.40007 -4.2061 0
M  V30 8206 H 806.536 -0.352055 -0.571225 0
M  V30 8207 H 809.08 -1.56349 -1.31815 0
M  V30 8208 H 807.235 -1.01213 -3.73945 0
M  V30 8209 H 807.649 -3.18392 -4.16805 0
M  V30 8210 H 809.123 -1.82695 -5.2089 0
M  V30 8211 H 809.6 -0.348054 -4.37819 0
M  V30 8212 H 810.206 -1.916 -3.79697 0
M  V30 8213 N 808.521 1.23394 -0.980386 0
M  V30 8214 C 809.431 2.28561 -0.528864 0
M  V30 8215 C 810.447 1.68946 0.416329 0
M  V30 8216 O 811.623 1.99355 0.286251 0
M  V30 8217 C 808.688 3.46323 0.16155 0
M  V30 8218 C 807.749 4.21297 -0.825044 0
M  V30 8219 C 806.982 5.33437 -0.167483 0
M  V30 8220 O 807.205 5.60812 1.04146 0
M  V30 8221 O 806.139 5.95637 -0.866047 0
M  V30 8222 H 809.965 2.69326 -1.40346 0
M  V30 8223 H 807.55 1.29325 -0.748019 0
M  V30 8224 H 809.432 4.17811 0.548841 0
M  V30 8225 H 808.107 3.0751 1.01092 0
M  V30 8226 H 807.014 3.52134 -1.26303 0
M  V30 8227 H 808.347 4.6396 -1.64322 0
M  V30 8228 N 809.999 0.752036 1.385 0
M  V30 8229 C 810.962 0.131587 2.28822 0
M  V30 8230 C 811.962 -0.649149 1.47115 0
M  V30 8231 O 813.152 -0.475645 1.67581 0
M  V30 8232 C 810.284 -0.822101 3.30839 0
M  V30 8233 H 811.477 0.927551 2.85196 0
M  V30 8234 H 809.03 0.518945 1.47434 0
M  V30 8235 H 809.765 -1.6438 2.79553 0
M  V30 8236 H 809.55 -0.264689 3.91206 0
M  V30 8237 H 811.04 -1.25226 3.98382 0
M  V30 8238 N 811.477 -1.49425 0.500989 0
M  V30 8239 C 812.702 -2.07356 -0.0425154 0
M  V30 8240 C 813.127 -1.35887 -1.30063 0
M  V30 8241 O 812.485 -0.41561 -1.76472 0
M  V30 8242 C 812.533 -3.59518 -0.279188 0
M  V30 8243 O 811.637 -3.89542 -1.3539 0
M  V30 8244 H 810.978 -0.663482 0.0262207 0
M  V30 8245 H 813.508 -1.92231 0.700607 0
M  V30 8246 H 813.518 -4.04791 -0.5107 0
M  V30 8247 H 812.193 -4.10946 0.640009 0
M  V30 8248 H 810.77 -3.56079 -1.10734 0
M  V30 8249 N 812.955 -0.234822 -1.55841 0
M  V30 8250 C 814.18 0.400741 -2.03492 0
M  V30 8251 C 814.605 1.51618 -1.11327 0
M  V30 8252 O 813.963 1.81002 -0.103922 0
M  V30 8253 C 814.011 0.897184 -3.49261 0
M  V30 8254 O 813.115 2.00764 -3.60233 0
M  V30 8255 H 812.456 0.0890023 -0.658008 0
M  V30 8256 H 814.986 -0.357345 -2.01455 0
M  V30 8257 H 814.996 1.20356 -3.89844 0
M  V30 8258 H 813.671 0.0808639 -4.15821 0
M  V30 8259 H 812.248 1.70689 -3.31541 0
M  V30 8260 N 814.433 1.57553 0.0384317 0
M  V30 8261 C 815.343 2.09333 1.0591 0
M  V30 8262 C 816.359 1.0299 1.40247 0
M  V30 8263 O 817.535 1.34669 1.49754 0
M  V30 8264 C 814.6 2.55468 2.34386 0
M  V30 8265 C 813.661 3.76254 2.06716 0
M  V30 8266 C 812.894 4.20179 3.29067 0
M  V30 8267 O 813.117 3.637 4.39407 0
M  V30 8268 O 812.051 5.12697 3.15317 0
M  V30 8269 H 815.877 2.96683 0.649087 0
M  V30 8270 H 813.462 1.47211 0.254802 0
M  V30 8271 H 815.344 2.85514 3.09935 0
M  V30 8272 H 814.019 1.71234 2.74701 0
M  V30 8273 H 812.926 3.51241 1.28766 0
M  V30 8274 H 814.259 4.61443 1.71263 0
M  V30 8275 N 815.911 -0.310526 1.54511 0
M  V30 8276 C 817.136 -1.07046 1.7764 0
M  V30 8277 C 817.561 -1.80488 0.529696 0
M  V30 8278 O 816.919 -1.73702 -0.519361 0
M  V30 8279 C 816.967 -2.03411 2.97752 0
M  V30 8280 O 816.071 -3.11545 2.7021 0
M  V30 8281 H 815.412 -0.307994 0.588248 0
M  V30 8282 H 817.942 -0.350848 2.01569 0
M  V30 8283 H 817.952 -2.46048 3.2546 0
M  V30 8284 H 816.627 -1.49361 3.88155 0
M  V30 8285 H 815.204 -2.7349 2.53491 0
M  V30 8286 N 817.389 -1.46805 -0.573248 0
M  V30 8287 C 818.637 -1.52302 -1.32847 0
M  V30 8288 C 818.958 -0.180159 -1.94166 0
M  V30 8289 O 818.228 0.794291 -1.79075 0
M  V30 8290 H 816.808 -0.56097 -0.493276 0
M  V30 8291 H 819.47 -1.82998 -0.670642 0
M  V30 8292 H 818.566 -2.28089 -2.13031 0
M  V30 8293 N 818.867 0.818669 -1.34668 0
M  V30 8294 C 819.797 1.94468 -1.29245 0
M  V30 8295 C 820.778 1.69257 -0.169101 0
M  V30 8296 O 821.963 1.90794 -0.362143 0
M  V30 8297 C 819.093 3.31001 -1.05145 0
M  V30 8298 C 818.047 3.70663 -2.13992 0
M  V30 8299 C 817.373 5.05226 -1.75074 0
M  V30 8300 C 818.673 3.82312 -3.55858 0
M  V30 8301 H 820.367 1.99263 -2.2346 0
M  V30 8302 H 817.913 0.957304 -1.07572 0
M  V30 8303 H 819.866 4.09364 -0.999949 0
M  V30 8304 H 818.59 3.26517 -0.0737312 0
M  V30 8305 H 817.249 2.94578 -2.18219 0
M  V30 8306 H 816.897 4.97233 -0.759518 0
M  V30 8307 H 816.597 5.32734 -2.47928 0
M  V30 8308 H 818.121 5.86042 -1.71427 0
M  V30 8309 H 819.535 4.50935 -3.5402 0
M  V30 8310 H 817.932 4.21278 -4.2737 0
M  V30 8311 H 819.002 2.84193 -3.9289 0
M  V30 8312 N 820.346 1.18468 1.03938 0
M  V30 8313 C 821.296 0.880799 2.103 0
M  V30 8314 C 822.28 -0.150008 1.60199 0
M  V30 8315 O 823.472 0.054213 1.76917 0
M  V30 8316 C 820.601 0.409723 3.40846 0
M  V30 8317 C 819.687 1.47267 3.9771 0
M  V30 8318 N 820.078 2.68945 4.28371 0
M  V30 8319 C 818.376 1.33349 4.25598 0
M  V30 8320 C 819.077 3.37341 4.73894 0
M  V30 8321 N 818.053 2.64725 4.74786 0
M  V30 8322 H 821.855 1.80574 2.31884 0
M  V30 8323 H 819.369 1.07527 1.21703 0
M  V30 8324 H 821.366 0.17352 4.16539 0
M  V30 8325 H 820.026 -0.508862 3.20688 0
M  V30 8326 H 821.037 3.05801 4.17978 0
M  V30 8327 H 817.714 0.477548 4.1476 0
M  V30 8328 H 819.104 4.41338 5.06627 0
M  V30 8329 N 821.824 -1.22873 0.986916 0
M  V30 8330 C 823.052 -1.95487 0.677663 0
M  V30 8331 C 823.467 -1.72978 -0.756572 0
M  V30 8332 O 822.824 -1.02517 -1.50985 0
M  V30 8333 C 822.875 -3.48337 0.966638 0
M  V30 8334 O 822.596 -3.70087 2.34451 0
M  V30 8335 C 824.097 -4.38142 0.674248 0
M  V30 8336 H 821.317 -0.622211 0.251185 0
M  V30 8337 H 823.861 -1.56187 1.32007 0
M  V30 8338 H 822.016 -3.85628 0.370137 0
M  V30 8339 H 822.43 -4.64332 2.43918 0
M  V30 8340 H 823.904 -5.44165 0.926759 0
M  V30 8341 H 824.381 -4.3745 -0.391728 0
M  V30 8342 H 824.987 -4.06469 1.25152 0
M  V30 8343 N 823.302 -0.75937 -1.38099 0
M  V30 8344 C 824.713 -0.385078 -1.82686 0
M  V30 8345 C 825.064 1.0871 -1.6333 0
M  V30 8346 O 824.189 1.84084 -1.13762 0
M  V30 8347 C 824.784 -0.692161 -3.31654 0
M  V30 8348 C 823.343 -0.371077 -3.74566 0
M  V30 8349 C 822.49 -0.942375 -2.60796 0
M  V30 8350 H 825.441 -0.955048 -1.26746 0
M  V30 8351 H 825.462 0.0276001 -3.8049 0
M  V30 8352 H 824.974 -1.76369 -3.4571 0
M  V30 8353 H 823.075 0.693637 -3.66087 0
M  V30 8354 H 823.188 -0.870672 -4.71122 0
M  V30 8355 H 821.552 -0.367383 -2.52036 0
M  V30 8356 H 822.335 -2.01905 -2.77649 0
M  V30 8357 N 824.78 1.49157 -0.508906 0
M  V30 8358 C 825.743 2.27784 0.25434 0
M  V30 8359 C 826.743 1.34132 0.88686 0
M  V30 8360 O 827.933 1.5722 0.750168 0
M  V30 8361 C 825.065 3.12347 1.36573 0
M  V30 8362 H 826.258 2.96718 -0.435714 0
M  V30 8363 H 823.811 1.54052 -0.264128 0
M  V30 8364 H 824.546 2.47997 2.08969 0
M  V30 8365 H 824.331 3.81213 0.917543 0
M  V30 8366 H 825.821 3.71712 1.90315 0
M  V30 8367 N 826.258 0.243083 1.55714 0
M  V30 8368 C 827.483 -0.389944 2.03701 0
M  V30 8369 C 827.908 -1.51025 1.12129 0
M  V30 8370 O 827.266 -1.80944 0.11352 0
M  V30 8371 C 827.314 -0.878649 3.49731 0
M  V30 8372 O 826.418 -1.98851 3.61292 0
M  V30 8373 H 825.759 -0.0855115 0.658471 0
M  V30 8374 H 828.289 0.368023 2.01263 0
M  V30 8375 H 828.299 -1.18287 3.90477 0
M  V30 8376 H 826.974 -0.0588107 4.15858 0
M  V30 8377 H 825.551 -1.68928 3.32442 0
M  V30 8378 N 827.736 -1.57571 -0.0300757 0
M  V30 8379 C 828.668 -2.0329 -1.05857 0
M  V30 8380 C 829.681 -0.945543 -1.32527 0
M  V30 8381 O 830.87 -1.22287 -1.30032 0
M  V30 8382 C 827.97 -2.39234 -2.40042 0
M  V30 8383 C 827.143 -3.70337 -2.32743 0
M  V30 8384 C 826.202 -3.93482 -3.49369 0
M  V30 8385 O 825.228 -4.64551 -3.28909 0
M  V30 8386 N 826.43 -3.39042 -4.71201 0
M  V30 8387 H 829.195 -2.9214 -0.668897 0
M  V30 8388 H 826.756 -1.60425 -0.218038 0
M  V30 8389 H 828.748 -2.51856 -3.16782 0
M  V30 8390 H 827.318 -1.5606 -2.70858 0
M  V30 8391 H 826.538 -3.68079 -1.41109 0
M  V30 8392 H 827.826 -4.56343 -2.25007 0
M  V30 8393 H 827.224 -2.81434 -4.90725 0
M  V30 8394 H 825.781 -3.57045 -5.45309 0
M  V30 8395 N 829.214 0.302327 -1.54673 0
M  V30 8396 C 830.177 1.35592 -1.8479 0
M  V30 8397 C 831.177 1.43743 -0.72073 0
M  V30 8398 O 832.367 1.43402 -0.989017 0
M  V30 8399 C 829.499 2.74091 -2.02699 0
M  V30 8400 H 830.692 1.10132 -2.78946 0
M  V30 8401 H 828.245 0.538926 -1.46715 0
M  V30 8402 H 828.98 3.04775 -1.10826 0
M  V30 8403 H 828.765 2.69565 -2.8474 0
M  V30 8404 H 830.255 3.50272 -2.27374 0
M  V30 8405 N 830.692 1.47107 0.565454 0
M  V30 8406 C 831.92 1.56909 1.3486 0
M  V30 8407 C 832.335 0.216312 1.87557 0
M  V30 8408 O 831.692 -0.789168 1.64555 0
M  V30 8409 C 831.743 2.58776 2.52423 0
M  V30 8410 O 831.464 3.888 2.01906 0
M  V30 8411 C 832.965 2.78683 3.44747 0
M  V30 8412 H 830.185 0.530096 0.411387 0
M  V30 8413 H 832.729 1.92658 0.685782 0
M  V30 8414 H 830.884 2.25983 3.1466 0
M  V30 8415 H 831.298 4.44393 2.78595 0
M  V30 8416 H 832.772 3.53842 4.23674 0
M  V30 8417 H 833.249 1.86208 3.97773 0
M  V30 8418 H 833.855 3.12641 2.88333 0
M  V30 8419 N 832.17 -0.811516 1.35101 0
M  V30 8420 C 833.398 -1.59981 1.31201 0
M  V30 8421 C 833.813 -1.8847 -0.111552 0
M  V30 8422 O 833.17 -1.48414 -1.06205 0
M  V30 8423 C 833.221 -2.934 2.11184 0
M  V30 8424 O 832.942 -2.66148 3.4799 0
M  V30 8425 C 834.443 -3.87776 2.14813 0
M  V30 8426 H 831.663 -0.496921 0.450899 0
M  V30 8427 H 834.207 -1.00886 1.77883 0
M  V30 8428 H 832.362 -3.49022 1.68115 0
M  V30 8429 H 832.776 -3.51301 3.89471 0
M  V30 8430 H 834.25 -4.7852 2.75178 0
M  V30 8431 H 834.727 -4.23997 1.14556 0
M  V30 8432 H 835.333 -3.3809 2.58022 0
M  V30 8433 N 833.648 -1.19017 -1.03309 0
M  V30 8434 C 834.578 -0.94772 -2.13402 0
M  V30 8435 C 835.559 0.117383 -1.69694 0
M  V30 8436 O 836.744 -0.0367733 -1.94165 0
M  V30 8437 C 833.874 -0.480977 -3.43953 0
M  V30 8438 C 832.828 -1.48743 -4.01322 0
M  V30 8439 C 832.154 -0.877924 -5.27443 0
M  V30 8440 C 833.454 -2.86642 -4.36616 0
M  V30 8441 H 835.148 -1.86846 -2.33942 0
M  V30 8442 H 832.694 -0.899781 -1.12427 0
M  V30 8443 H 834.647 -0.298677 -4.2034 0
M  V30 8444 H 833.371 0.475348 -3.23122 0
M  V30 8445 H 832.03 -1.65681 -3.27025 0
M  V30 8446 H 831.678 0.0858232 -5.02927 0
M  V30 8447 H 831.378 -1.54996 -5.66789 0
M  V30 8448 H 832.902 -0.706326 -6.06501 0
M  V30 8449 H 834.316 -2.73312 -5.03958 0
M  V30 8450 H 832.713 -3.50599 -4.87032 0
M  V30 8451 H 833.783 -3.39617 -3.46105 0
M  V30 8452 N 835.127 1.22348 -0.993418 0
M  V30 8453 C 836.077 2.221 -0.515333 0
M  V30 8454 C 837.061 1.55409 0.416762 0
M  V30 8455 O 838.253 1.75317 0.243497 0
M  V30 8456 C 835.382 3.42888 0.168173 0
M  V30 8457 C 834.468 4.16786 -0.784257 0
M  V30 8458 N 834.859 4.67435 -1.93231 0
M  V30 8459 C 833.157 4.41942 -0.600243 0
M  V30 8460 C 833.858 5.23792 -2.53016 0
M  V30 8461 N 832.834 5.12483 -1.8128 0
M  V30 8462 H 836.636 2.58902 -1.39093 0
M  V30 8463 H 834.15 1.38024 -0.855747 0
M  V30 8464 H 836.147 4.13542 0.528069 0
M  V30 8465 H 834.807 3.07598 1.03989 0
M  V30 8466 H 835.818 4.63375 -2.31309 0
M  V30 8467 H 832.495 4.16891 0.225369 0
M  V30 8468 H 833.885 5.73515 -3.50043 0
M  V30 8469 N 836.605 0.766683 1.37694 0
M  V30 8470 C 837.851 0.329201 2.0011 0
M  V30 8471 C 838.184 -1.09004 1.60723 0
M  V30 8472 O 837.459 -1.74895 0.850989 0
M  V30 8473 C 837.742 0.466989 3.57059 0
M  V30 8474 C 837.595 1.92828 4.06371 0
M  V30 8475 C 838.914 -0.131792 4.39903 0
M  V30 8476 H 836.033 0.12109 0.726984 0
M  V30 8477 H 838.675 0.968779 1.63446 0
M  V30 8478 H 836.825 -0.0775023 3.88423 0
M  V30 8479 H 838.497 2.53208 3.85595 0
M  V30 8480 H 836.74 2.43884 3.58752 0
M  V30 8481 H 837.411 1.97577 5.15429 0
M  V30 8482 H 839.887 0.332731 4.14768 0
M  V30 8483 H 838.763 -0.005217 5.489 0
M  V30 8484 H 839.024 -1.22156 4.24889 0
M  V30 8485 N 838.083 -1.48885 0.516809 0
M  V30 8486 C 839.494 -1.86557 0.0729921 0
M  V30 8487 C 839.845 -1.42767 -1.34581 0
M  V30 8488 O 838.97 -0.812514 -2.00567 0
M  V30 8489 C 839.565 -3.38567 0.125686 0
M  V30 8490 C 838.124 -3.75481 -0.262867 0
M  V30 8491 C 837.271 -2.72913 0.491281 0
M  V30 8492 H 840.222 -1.40978 0.728767 0
M  V30 8493 H 840.243 -3.74629 -0.665831 0
M  V30 8494 H 839.755 -3.70408 1.15842 0
M  V30 8495 H 837.856 -3.49251 -1.29824 0
M  V30 8496 H 837.969 -4.79052 0.067579 0
M  V30 8497 H 836.333 -2.54627 -0.0608525 0
M  V30 8498 H 837.116 -3.07599 1.5244 0
M  V30 8499 N 839.561 -0.251338 -1.55583 0
M  V30 8500 C 840.786 0.379136 -2.03905 0
M  V30 8501 C 841.211 1.50428 -1.12929 0
M  V30 8502 O 840.569 1.80882 -0.123114 0
M  V30 8503 C 840.617 0.86009 -3.50193 0
M  V30 8504 O 839.721 1.96932 -3.62342 0
M  V30 8505 H 839.062 0.0820183 -0.658915 0
M  V30 8506 H 841.592 -0.378692 -2.01065 0
M  V30 8507 H 841.602 1.16214 -3.91099 0
M  V30 8508 H 840.277 0.0367559 -4.15884 0
M  V30 8509 H 838.854 1.67163 -3.33333 0
M  V30 8510 N 841.039 1.57585 0.0217189 0
M  V30 8511 C 841.971 2.03849 1.04777 0
M  V30 8512 C 842.984 0.952558 1.32023 0
M  V30 8513 O 844.173 1.22974 1.29381 0
M  V30 8514 C 841.273 2.40504 2.3877 0
M  V30 8515 C 840.446 3.71566 2.30775 0
M  V30 8516 C 839.505 3.95329 3.47277 0
M  V30 8517 O 838.531 4.66289 3.26441 0
M  V30 8518 N 839.733 3.41536 4.69397 0
M  V30 8519 H 842.498 2.92491 0.653395 0
M  V30 8520 H 840.059 1.60538 0.209527 0
M  V30 8521 H 842.051 2.53532 3.15442 0
M  V30 8522 H 840.621 1.57494 2.70027 0
M  V30 8523 H 839.841 3.68822 1.39155 0
M  V30 8524 H 841.129 4.5753 2.22584 0
M  V30 8525 H 840.527 2.84033 4.89226 0
M  V30 8526 H 839.084 3.59932 5.43408 0
M  V30 8527 N 842.517 -0.29412 1.54831 0
M  V30 8528 C 843.794 -1.04847 1.65126 0
M  V30 8529 C 844.174 -2.04996 0.503986 0
M  V30 8530 O 843.522 -2.22996 -0.498496 0
M  V30 8531 C 843.732 -1.72418 3.03435 0
M  V30 8532 C 845.08 -2.24362 3.60481 0
M  V30 8533 O 846.104 -1.8244 3.05932 0
M  V30 8534 O 844.963 -3.01196 4.56008 0
M  V30 8535 H 842.057 -0.485032 0.669831 0
M  V30 8536 H 844.603 -0.291659 1.67175 0
M  V30 8537 H 843.375 -0.997351 3.78376 0
M  V30 8538 H 842.998 -2.54839 3.05193 0
M  V30 8539 N 843.995 -1.47404 -0.557645 0
M  V30 8540 C 845.406 -1.47872 -1.13977 0
M  V30 8541 C 845.757 -0.233176 -1.94809 0
M  V30 8542 O 844.882 0.661945 -2.06027 0
M  V30 8543 C 845.477 -2.67926 -2.07368 0
M  V30 8544 C 844.036 -2.71354 -2.60852 0
M  V30 8545 C 843.183 -2.40967 -1.37223 0
M  V30 8546 H 846.134 -1.54921 -0.344268 0
M  V30 8547 H 846.155 -2.44871 -2.91236 0
M  V30 8548 H 845.667 -3.58562 -1.48509 0
M  V30 8549 H 843.768 -1.84855 -3.23511 0
M  V30 8550 H 843.881 -3.72032 -3.01876 0
M  V30 8551 H 842.245 -1.91541 -1.67882 0
M  V30 8552 H 843.028 -3.33811 -0.801583 0
M  V30 8553 N 845.473 0.80434 -1.35529 0
M  V30 8554 C 846.436 1.89788 -1.28503 0
M  V30 8555 C 847.436 1.59601 -0.195983 0
M  V30 8556 O 848.626 1.68292 -0.449827 0
M  V30 8557 C 845.758 3.26255 -0.98847 0
M  V30 8558 H 846.951 1.97436 -2.25741 0
M  V30 8559 H 844.504 1.00046 -1.20086 0
M  V30 8560 H 845.239 3.24294 -0.0200541 0
M  V30 8561 H 845.024 3.49551 -1.77641 0
M  V30 8562 H 846.514 4.06298 -0.964975 0
M  V30 8563 N 846.951 1.19563 1.02676 0
M  V30 8564 C 848.199 0.997593 1.75763 0
M  V30 8565 C 848.52 -0.47253 1.89188 0
M  V30 8566 O 847.79 -1.34214 1.42701 0
M  V30 8567 H 846.37 0.366128 0.651122 0
M  V30 8568 H 849.032 1.50495 1.23844 0
M  V30 8569 H 848.128 1.44741 2.76508 0
M  V30 8570 N 848.429 -1.21819 0.999893 0
M  V30 8571 C 849.678 -1.90066 0.675108 0
M  V30 8572 C 849.991 -1.78624 -0.79705 0
M  V30 8573 O 851.197 -2.41851 -1.23371 0
M  V30 8574 C 849.653 -3.40795 1.15702 0
M  V30 8575 C 849.261 -3.60859 2.6549 0
M  V30 8576 C 851.005 -4.147 0.906889 0
M  V30 8577 C 848.912 -5.05324 3.07248 0
M  V30 8578 H 847.842 -0.711763 0.248815 0
M  V30 8579 H 850.493 -1.3792 1.21038 0
M  V30 8580 H 848.875 -3.92164 0.549832 0
M  V30 8581 H 850.049 -3.19951 3.31614 0
M  V30 8582 H 848.364 -3.00298 2.88461 0
M  V30 8583 H 850.961 -5.21187 1.1945 0
M  V30 8584 H 851.304 -4.16004 -0.156923 0
M  V30 8585 H 851.837 -3.69379 1.47662 0
M  V30 8586 H 848.576 -5.09164 4.12834 0
M  V30 8587 H 848.096 -5.47108 2.45832 0
M  V30 8588 H 849.775 -5.73797 2.98941 0
M  V30 8589 N 849.908 -0.773975 -1.37286 0
M  V30 8590 C 850.84 -0.119938 -2.28886 0
M  V30 8591 C 851.853 0.661822 -1.48741 0
M  V30 8592 O 853.042 0.499548 -1.71367 0
M  V30 8593 C 850.142 0.853703 -3.27971 0
M  V30 8594 C 849.315 0.125286 -4.37221 0
M  V30 8595 C 848.374 1.01261 -5.16365 0
M  V30 8596 O 847.4 0.475565 -5.6721 0
M  V30 8597 N 848.602 2.33864 -5.31308 0
M  V30 8598 H 851.367 -0.906702 -2.85655 0
M  V30 8599 H 848.928 -0.626519 -1.49286 0
M  V30 8600 H 850.92 1.4508 -3.77801 0
M  V30 8601 H 849.49 1.54142 -2.71954 0
M  V30 8602 H 848.71 -0.652742 -3.88758 0
M  V30 8603 H 849.998 -0.377959 -5.07394 0
M  V30 8604 H 849.396 2.79929 -4.91585 0
M  V30 8605 H 847.953 2.88575 -5.84438 0
M  V30 8606 N 851.386 1.48609 -0.524698 0
M  V30 8607 C 852.336 2.26505 0.260696 0
M  V30 8608 C 853.32 1.32378 0.914597 0
M  V30 8609 O 854.512 1.5695 0.818277 0
M  V30 8610 C 851.641 3.17313 1.31024 0
M  V30 8611 C 850.727 4.18911 0.661391 0
M  V30 8612 N 851.118 5.05183 -0.24981 0
M  V30 8613 C 849.416 4.36425 0.91922 0
M  V30 8614 C 850.117 5.78348 -0.623598 0
M  V30 8615 N 849.093 5.43598 0.0140839 0
M  V30 8616 H 852.895 2.90582 -0.440388 0
M  V30 8617 H 850.409 1.5875 -0.342364 0
M  V30 8618 H 852.406 3.71772 1.88656 0
M  V30 8619 H 851.066 2.54791 2.01275 0
M  V30 8620 H 852.077 5.1415 -0.622093 0
M  V30 8621 H 848.754 3.85095 1.6127 0
M  V30 8622 H 850.144 6.57775 -1.37046 0
M  V30 8623 N 852.864 0.259585 1.55447 0
M  V30 8624 C 853.794 -0.62852 2.24882 0
M  V30 8625 C 854.775 -1.17128 1.23349 0
M  V30 8626 O 855.96 -1.20829 1.52033 0
M  V30 8627 C 853.09 -1.81983 2.95803 0
M  V30 8628 C 852.044 -1.40929 4.04132 0
M  V30 8629 C 851.37 -2.68246 4.62545 0
M  V30 8630 C 852.67 -0.570956 5.1917 0
M  V30 8631 H 854.364 -0.0495021 2.99359 0
M  V30 8632 H 851.91 -0.0223688 1.43983 0
M  V30 8633 H 853.863 -2.44689 3.43082 0
M  V30 8634 H 852.587 -2.42444 2.18835 0
M  V30 8635 H 851.246 -0.805519 3.57641 0
M  V30 8636 H 850.894 -3.26931 3.82263 0
M  V30 8637 H 850.594 -2.41495 5.35681 0
M  V30 8638 H 852.118 -3.31827 5.12565 0
M  V30 8639 H 853.532 -1.10262 5.62597 0
M  V30 8640 H 851.929 -0.398979 5.98772 0
M  V30 8641 H 852.999 0.413918 4.8313 0
M  V30 8642 N 854.342 -1.57594 -0.0133615 0
M  V30 8643 C 855.274 -2.04402 -1.03695 0
M  V30 8644 C 856.287 -0.959546 -1.31516 0
M  V30 8645 O 857.476 -1.23659 -1.28727 0
M  V30 8646 C 854.576 -2.41766 -2.37491 0
M  V30 8647 C 853.749 -3.72785 -2.28802 0
M  V30 8648 C 852.808 -3.97165 -3.45176 0
M  V30 8649 O 851.834 -4.68013 -3.23963 0
M  V30 8650 N 853.036 -3.44021 -4.67579 0
M  V30 8651 H 855.801 -2.92833 -0.637874 0
M  V30 8652 H 853.362 -1.60647 -0.20101 0
M  V30 8653 H 855.354 -2.55201 -3.14093 0
M  V30 8654 H 853.924 -1.58924 -2.69188 0
M  V30 8655 H 853.144 -3.69555 -1.37197 0
M  V30 8656 H 854.432 -4.58704 -2.20154 0
M  V30 8657 H 853.83 -2.86623 -4.87713 0
M  V30 8658 H 852.387 -3.62808 -5.41492 0
M  V30 8659 N 855.82 0.285905 -1.54985 0
M  V30 8660 C 857.231 0.857869 -1.65824 0
M  V30 8661 C 857.582 1.87531 -0.576763 0
M  V30 8662 O 856.707 2.14528 0.284016 0
M  V30 8663 C 857.302 1.56277 -3.00604 0
M  V30 8664 C 855.861 2.08294 -3.13513 0
M  V30 8665 C 855.008 0.920633 -2.61571 0
M  V30 8666 H 857.959 0.0625463 -1.58577 0
M  V30 8667 H 857.98 2.42912 -2.92872 0
M  V30 8668 H 857.492 0.822017 -3.79295 0
M  V30 8669 H 855.593 2.8537 -2.39572 0
M  V30 8670 H 855.706 2.3071 -4.19892 0
M  V30 8671 H 854.07 1.31043 -2.18403 0
M  V30 8672 H 854.853 0.193594 -3.42754 0
M  V30 8673 N 857.298 1.47698 0.54982 0
M  V30 8674 C 858.261 1.60282 1.63837 0
M  V30 8675 C 859.261 0.477394 1.5355 0
M  V30 8676 O 860.451 0.742665 1.57576 0
M  V30 8677 C 857.583 1.55431 3.03404 0
M  V30 8678 H 858.776 2.57325 1.54026 0
M  V30 8679 H 856.329 1.35999 0.770329 0
M  V30 8680 H 857.064 0.597912 3.1874 0
M  V30 8681 H 856.849 2.37116 3.12279 0
M  V30 8682 H 858.339 1.6739 3.82584 0
M  V30 8683 N 858.776 -0.797141 1.35954 0
M  V30 8684 C 859.726 -1.89899 1.26184 0
M  V30 8685 C 860.71 -1.60152 0.155007 0
M  V30 8686 O 861.902 -1.72715 0.387108 0
M  V30 8687 C 859.031 -3.2699 1.04559 0
M  V30 8688 C 858.117 -3.62772 2.19675 0
M  V30 8689 N 858.508 -3.6992 3.44953 0
M  V30 8690 C 856.806 -3.92786 2.1127 0
M  V30 8691 C 857.507 -4.01718 4.20711 0
M  V30 8692 N 856.483 -4.16298 3.49567 0
M  V30 8693 H 860.285 -1.9364 2.2109 0
M  V30 8694 H 857.799 -0.992246 1.28562 0
M  V30 8695 H 859.796 -4.0578 0.956474 0
M  V30 8696 H 858.456 -3.24529 0.105467 0
M  V30 8697 H 859.467 -3.52759 3.79185 0
M  V30 8698 H 856.144 -3.98295 1.25168 0
M  V30 8699 H 857.534 -4.14237 5.29016 0
M  V30 8700 N 860.254 -1.20106 -1.0204 0
M  V30 8701 C 861.67 -0.955099 -1.27867 0
M  V30 8702 C 861.87 0.367595 -1.98119 0
M  V30 8703 O 860.926 1.09705 -2.27423 0
M  V30 8704 C 862.239 -2.13507 -2.11744 0
M  V30 8705 C 863.787 -2.17563 -2.25023 0
M  V30 8706 C 864.262 -3.35035 -3.12275 0
M  V30 8707 N 865.753 -3.35024 -3.19864 0
M  V30 8708 C 866.488 -4.22566 -3.8759 0
M  V30 8709 N 865.984 -5.20278 -4.57474 0
M  V30 8710 N 867.777 -4.10418 -3.84075 0
M  V30 8711 H 859.928 -2.05193 -0.54861 0
M  V30 8712 H 862.191 -0.897689 -0.304728 0
M  V30 8713 H 861.897 -3.09275 -1.67456 0
M  V30 8714 H 861.771 -2.11281 -3.12474 0
M  V30 8715 H 864.158 -1.22359 -2.68537 0
M  V30 8716 H 864.239 -2.23838 -1.23815 0
M  V30 8717 H 863.883 -4.30522 -2.69468 0
M  V30 8718 H 863.813 -3.25996 -4.13563 0
M  V30 8719 H 866.304 -2.64299 -2.701 0
M  V30 8720 H 866.617 -5.83408 -5.06809 0
M  V30 8721 H 864.962 -5.24219 -4.56311 0
M  V30 8722 H 868.153 -3.33353 -3.28623 0
M  V30 8723 H 868.326 -4.78854 -4.36581 0
M  V30 8724 N 861.732 1.21287 -1.00634 0
M  V30 8725 C 862.662 2.25973 -0.588089 0
M  V30 8726 C 863.643 1.65527 0.391764 0
M  V30 8727 O 864.828 1.92179 0.279452 0
M  V30 8728 C 861.958 3.47197 0.0847336 0
M  V30 8729 C 860.912 4.20168 -0.815039 0
M  V30 8730 C 860.238 5.34699 -0.00855393 0
M  V30 8731 C 861.538 4.77416 -2.11828 0
M  V30 8732 H 863.232 2.61212 -1.46317 0
M  V30 8733 H 860.778 1.25563 -0.704985 0
M  V30 8734 H 862.731 4.19602 0.388821 0
M  V30 8735 H 861.455 3.11092 0.994456 0
M  V30 8736 H 860.114 3.49614 -1.10297 0
M  V30 8737 H 859.762 4.94837 0.902499 0
M  V30 8738 H 859.462 5.84449 -0.607664 0
M  V30 8739 H 860.986 6.09914 0.289317 0
M  V30 8740 H 862.4 5.41694 -1.87725 0
M  V30 8741 H 860.797 5.37561 -2.66736 0
M  V30 8742 H 861.867 3.96724 -2.78816 0
M  V30 8743 N 863.21 0.781244 1.36873 0
M  V30 8744 C 864.435 0.360398 2.04245 0
M  V30 8745 C 864.86 -1.01242 1.58529 0
M  V30 8746 O 864.218 -1.65063 0.749936 0
M  V30 8747 C 864.266 0.42329 3.58107 0
M  V30 8748 O 863.37 -0.572796 4.08403 0
M  V30 8749 H 862.711 0.154386 0.645803 0
M  V30 8750 H 865.241 1.06008 1.74996 0
M  V30 8751 H 865.251 0.283967 4.07011 0
M  V30 8752 H 863.926 1.42477 3.90734 0
M  V30 8753 H 862.503 -0.395809 3.70793 0
M  V30 8754 N 864.689 -1.48329 0.532571 0
M  V30 8755 C 865.652 -2.2816 -0.218069 0
M  V30 8756 C 866.652 -1.35526 -0.865409 0
M  V30 8757 O 867.842 -1.58394 -0.725061 0
M  V30 8758 C 864.974 -3.1448 -1.31586 0
M  V30 8759 H 866.167 -2.95987 0.482865 0
M  V30 8760 H 863.72 -1.53612 0.288603 0
M  V30 8761 H 864.455 -2.5129 -2.04997 0
M  V30 8762 H 864.24 -3.82625 -0.856779 0
M  V30 8763 H 865.73 -3.74693 -1.84377 0
M  V30 8764 N 866.167 -0.267825 -1.55308 0
M  V30 8765 C 867.392 0.357487 -2.04296 0
M  V30 8766 C 867.817 1.49222 -1.14518 0
M  V30 8767 O 867.175 1.80741 -0.142292 0
M  V30 8768 C 867.223 0.822899 -3.51085 0
M  V30 8769 O 866.327 1.93078 -3.6441 0
M  V30 8770 H 865.668 0.075025 -0.659748 0
M  V30 8771 H 868.198 -0.399996 -2.00652 0
M  V30 8772 H 868.208 1.12059 -3.92309 0
M  V30 8773 H 866.883 -0.0073562 -4.15899 0
M  V30 8774 H 865.46 1.63618 -3.35087 0
M  V30 8775 N 867.645 1.57599 0.00500368 0
M  V30 8776 C 869.056 1.78462 0.54848 0
M  V30 8777 C 869.407 0.901869 1.74243 0
M  V30 8778 O 868.532 0.103014 2.16155 0
M  V30 8779 C 869.127 3.2365 1.00179 0
M  V30 8780 C 867.686 3.45627 1.49061 0
M  V30 8781 C 866.833 2.73794 0.439531 0
M  V30 8782 H 869.784 1.57151 -0.22118 0
M  V30 8783 H 869.805 3.31488 1.86805 0
M  V30 8784 H 869.317 3.87873 0.132607 0
M  V30 8785 H 867.418 2.86612 2.38085 0
M  V30 8786 H 867.531 4.54298 1.52152 0
M  V30 8787 H 865.895 2.38267 0.900043 0
M  V30 8788 H 866.678 3.40714 -0.420599 0
M  V30 8789 N 869.123 -0.277682 1.55134 0
M  V30 8790 C 870.351 -1.02826 1.7954 0
M  V30 8791 C 870.766 -1.80105 0.566373 0
M  V30 8792 O 870.123 -1.76491 -0.464448 0
M  V30 8793 C 870.174 -1.99053 3.01762 0
M  V30 8794 O 869.895 -1.24906 4.19917 0
M  V30 8795 C 871.396 -2.85961 3.38735 0
M  V30 8796 H 868.616 -0.303958 0.598206 0
M  V30 8797 H 871.16 -0.309884 2.02138 0
M  V30 8798 H 869.315 -2.66359 2.81303 0
M  V30 8799 H 869.729 -1.89725 4.88983 0
M  V30 8800 H 871.203 -3.49286 4.27438 0
M  V30 8801 H 871.68 -3.55486 2.57928 0
M  V30 8802 H 872.286 -2.24152 3.61436 0
M  V30 8803 N 870.601 -1.47988 -0.541979 0
M  V30 8804 C 871.847 -1.55623 -1.30036 0
M  V30 8805 C 872.18 -0.224254 -1.92901 0
M  V30 8806 O 871.455 0.768629 -1.78668 0
M  V30 8807 C 871.738 -2.68562 -2.39888 0
M  V30 8808 C 871.591 -4.11426 -1.81792 0
M  V30 8809 C 872.91 -2.77325 -3.41729 0
M  V30 8810 H 870.029 -0.566498 -0.471433 0
M  V30 8811 H 872.671 -1.8011 -0.604998 0
M  V30 8812 H 870.821 -2.47814 -2.992 0
M  V30 8813 H 872.493 -4.43581 -1.26624 0
M  V30 8814 H 870.736 -4.18989 -1.12386 0
M  V30 8815 H 871.407 -4.8625 -2.61276 0
M  V30 8816 H 873.883 -2.96085 -2.92357 0
M  V30 8817 H 872.759 -3.58097 -4.16002 0
M  V30 8818 H 873.02 -1.84995 -4.01534 0
M  V30 8819 N 872.079 0.78992 -1.36375 0
M  V30 8820 C 873.304 1.58389 -1.33895 0
M  V30 8821 C 873.729 1.8794 0.0774934 0
M  V30 8822 O 873.087 1.4785 1.0493 0
M  V30 8823 C 873.135 2.88201 -2.16732 0
M  V30 8824 O 872.239 3.81778 -1.55946 0
M  V30 8825 H 871.58 0.480471 -0.458305 0
M  V30 8826 H 874.11 0.979119 -1.79651 0
M  V30 8827 H 874.12 3.37475 -2.29292 0
M  V30 8828 H 872.795 2.66019 -3.19698 0
M  V30 8829 H 871.372 3.40371 -1.52323 0
M  V30 8830 N 873.557 1.20646 1.01402 0
M  V30 8831 C 874.782 1.04462 1.79172 0
M  V30 8832 C 875.207 -0.401588 1.83763 0
M  V30 8833 O 874.565 -1.28934 1.27459 0
M  V30 8834 C 874.613 1.63583 3.21361 0
M  V30 8835 O 873.717 0.875198 4.03006 0
M  V30 8836 H 873.058 0.368235 0.552539 0
M  V30 8837 H 875.588 1.59994 1.27526 0
M  V30 8838 H 875.598 1.67426 3.72065 0
M  V30 8839 H 874.273 2.68835 3.17334 0
M  V30 8840 H 872.85 0.911172 3.61597 0
M  V30 8841 N 875.035 -1.20752 1.01276 0
M  V30 8842 C 876.26 -1.94547 0.718769 0
M  V30 8843 C 876.685 -1.7404 -0.713563 0
M  V30 8844 O 876.043 -1.03221 -1.49047 0
M  V30 8845 C 876.091 -3.44823 1.05497 0
M  V30 8846 O 875.195 -4.12072 0.164516 0
M  V30 8847 H 874.536 -0.607931 0.267051 0
M  V30 8848 H 877.066 -1.53292 1.35509 0
M  V30 8849 H 877.076 -3.95427 1.00507 0
M  V30 8850 H 875.751 -3.59072 2.09858 0
M  V30 8851 H 874.328 -3.71909 0.271615 0
M  V30 8852 N 876.513 -0.788492 -1.36457 0
M  V30 8853 C 877.738 -0.371224 -2.04051 0
M  V30 8854 C 878.163 1.004 -1.59064 0
M  V30 8855 O 877.521 1.64663 -0.758679 0
M  V30 8856 C 877.569 -0.442275 -3.57877 0
M  V30 8857 O 876.673 0.55113 -4.08701 0
M  V30 8858 H 876.014 -0.157808 -0.644975 0
M  V30 8859 H 878.544 -1.06935 -1.74431 0
M  V30 8860 H 878.554 -0.305548 -4.06854 0
M  V30 8861 H 877.229 -1.44547 -3.89973 0
M  V30 8862 H 875.806 0.37614 -3.70998 0
M  V30 8863 N 877.991 1.48044 -0.54043 0
M  V30 8864 C 878.921 2.32597 0.205178 0
M  V30 8865 C 879.902 1.42748 0.925041 0
M  V30 8866 O 881.087 1.71624 0.908784 0
M  V30 8867 C 878.217 3.24175 1.24612 0
M  V30 8868 C 877.171 4.23131 0.64376 0
M  V30 8869 C 876.497 5.03915 1.78812 0
M  V30 8870 C 877.797 5.20831 -0.39144 0
M  V30 8871 H 879.491 2.95184 -0.500676 0
M  V30 8872 H 877.037 1.41948 -0.242225 0
M  V30 8873 H 878.99 3.82158 1.77576 0
M  V30 8874 H 877.714 2.59608 1.98169 0
M  V30 8875 H 876.373 3.66349 0.135554 0
M  V30 8876 H 876.021 4.35765 2.51232 0
M  V30 8877 H 875.721 5.709 1.39094 0
M  V30 8878 H 877.245 5.64753 2.32134 0
M  V30 8879 H 878.659 5.73277 0.0515064 0
M  V30 8880 H 877.056 5.95926 -0.706569 0
M  V30 8881 H 878.126 4.6733 -1.29345 0
M  V30 8882 N 879.47 0.276058 1.55163 0
M  V30 8883 C 880.716 -0.340959 1.99913 0
M  V30 8884 C 881.049 -1.55434 1.16422 0
M  V30 8885 O 880.324 -1.93081 0.234517 0
M  V30 8886 C 880.607 -0.722211 3.52783 0
M  V30 8887 C 880.46 0.498575 4.47028 0
M  V30 8888 C 881.779 -1.5583 4.11589 0
M  V30 8889 H 878.898 -0.122455 0.726756 0
M  V30 8890 H 881.54 0.38319 1.86096 0
M  V30 8891 H 879.69 -1.33919 3.64689 0
M  V30 8892 H 881.362 1.13713 4.47065 0
M  V30 8893 H 879.605 1.13646 4.18649 0
M  V30 8894 H 880.276 0.188041 5.5168 0
M  V30 8895 H 882.752 -1.03722 4.02965 0
M  V30 8896 H 881.628 -1.79387 5.1876 0
M  V30 8897 H 881.889 -2.53963 3.61877 0
M  V30 8898 N 880.948 -1.576 0.00335426 0
M  V30 8899 C 881.878 -2.11668 -0.985839 0
M  V30 8900 C 882.859 -1.02661 -1.35627 0
M  V30 8901 O 884.044 -1.30361 -1.43943 0
M  V30 8902 C 881.174 -2.62273 -2.27662 0
M  V30 8903 C 880.128 -3.75837 -2.0477 0
M  V30 8904 C 879.454 -4.12769 -3.39891 0
M  V30 8905 C 880.754 -5.02975 -1.40759 0
M  V30 8906 H 882.448 -2.9457 -0.535637 0
M  V30 8907 H 879.994 -1.41702 -0.256204 0
M  V30 8908 H 881.947 -2.98727 -2.97221 0
M  V30 8909 H 880.671 -1.76498 -2.74802 0
M  V30 8910 H 879.33 -3.39782 -1.37636 0
M  V30 8911 H 878.978 -3.24013 -3.8474 0
M  V30 8912 H 878.678 -4.89281 -3.25389 0
M  V30 8913 H 880.202 -4.51784 -4.1076 0
M  V30 8914 H 881.616 -5.37179 -2.00279 0
M  V30 8915 H 880.013 -5.84315 -1.36734 0
M  V30 8916 H 881.083 -4.83431 -0.377218 0
M  V30 8917 N 882.426 0.269451 -1.5528 0
M  V30 8918 C 883.656 1.01724 -1.79821 0
M  V30 8919 C 884.064 1.80298 -0.573532 0
M  V30 8920 O 883.407 1.77666 0.466963 0
M  V30 8921 C 883.469 2.02043 -2.97353 0
M  V30 8922 C 883.133 1.42375 -4.34256 0
M  V30 8923 C 884.13 0.837611 -5.13108 0
M  V30 8924 C 881.815 1.44988 -4.8092 0
M  V30 8925 C 883.809 0.285557 -6.3676 0
M  V30 8926 C 881.496 0.893969 -6.04526 0
M  V30 8927 C 882.494 0.312809 -6.82283 0
M  V30 8928 O 882.182 -0.234582 -8.03558 0
M  V30 8929 H 881.914 0.30604 -0.602757 0
M  V30 8930 H 884.468 0.30454 -2.0313 0
M  V30 8931 H 882.698 2.77082 -2.69745 0
M  V30 8932 H 884.387 2.6298 -3.09187 0
M  V30 8933 H 885.153 0.81009 -4.78187 0
M  V30 8934 H 881.032 1.89162 -4.20403 0
M  V30 8935 H 884.576 -0.168696 -6.97396 0
M  V30 8936 H 880.473 0.918742 -6.38928 0
M  V30 8937 H 881.241 -0.124282 -8.18406 0
M  V30 8938 N 883.904 1.48273 0.534124 0
M  V30 8939 C 884.836 1.5857 1.65494 0
M  V30 8940 C 885.849 0.470266 1.5586 0
M  V30 8941 O 887.038 0.740928 1.62396 0
M  V30 8942 C 884.138 1.49554 3.04117 0
M  V30 8943 C 883.311 2.76066 3.39273 0
M  V30 8944 C 882.37 2.60562 4.57159 0
M  V30 8945 O 881.396 3.34438 4.60587 0
M  V30 8946 N 882.598 1.69906 5.55079 0
M  V30 8947 H 885.363 2.55226 1.57099 0
M  V30 8948 H 882.924 1.44944 0.721303 0
M  V30 8949 H 884.916 1.36882 3.80848 0
M  V30 8950 H 883.486 0.608895 3.06613 0
M  V30 8951 H 882.706 3.03332 2.51761 0
M  V30 8952 H 883.994 3.60006 3.59546 0
M  V30 8953 H 883.392 1.09079 5.55084 0
M  V30 8954 H 881.949 1.63175 6.31044 0
M  V30 8955 N 885.382 -0.782676 1.36792 0
M  V30 8956 C 886.607 -1.57676 1.34733 0
M  V30 8957 C 887.032 -1.87979 -0.0675253 0
M  V30 8958 O 886.39 -1.48404 -1.04144 0
M  V30 8959 C 886.438 -2.87047 2.18257 0
M  V30 8960 O 885.542 -3.80946 1.57969 0
M  V30 8961 H 884.883 -0.478034 0.460846 0
M  V30 8962 H 887.413 -0.969578 1.80168 0
M  V30 8963 H 887.423 -3.36254 2.31079 0
M  V30 8964 H 886.098 -2.64319 3.21104 0
M  V30 8965 H 884.675 -3.39558 1.54126 0
M  V30 8966 N 886.86 -1.21182 -1.00761 0
M  V30 8967 C 888.085 -1.05411 -1.78615 0
M  V30 8968 C 888.51 0.391837 -1.83973 0
M  V30 8969 O 887.868 1.28256 -1.28141 0
M  V30 8970 C 887.916 -1.65285 -3.20489 0
M  V30 8971 O 887.02 -0.896558 -4.02536 0
M  V30 8972 H 886.361 -0.37116 -0.550578 0
M  V30 8973 H 888.891 -1.60669 -1.26676 0
M  V30 8974 H 888.901 -1.69397 -3.71172 0
M  V30 8975 H 887.576 -2.70514 -3.15904 0
M  V30 8976 H 886.153 -0.930335 -3.61108 0
M  V30 8977 N 888.338 1.20213 -1.01915 0
M  V30 8978 C 889.615 1.85348 -0.62495 0
M  V30 8979 C 889.995 1.91101 0.896854 0
M  V30 8980 O 889.343 1.42075 1.78961 0
M  V30 8981 C 889.553 3.24849 -1.27571 0
M  V30 8982 C 890.901 4.01107 -1.39277 0
M  V30 8983 O 891.925 3.34211 -1.23212 0
M  V30 8984 O 890.784 5.20914 -1.6526 0
M  V30 8985 H 887.878 0.798303 -0.215965 0
M  V30 8986 H 890.424 1.27782 -1.11669 0
M  V30 8987 H 889.196 3.1544 -2.31545 0
M  V30 8988 H 888.819 3.90049 -0.77122 0
M  V30 8989 N 889.816 0.795718 1.36037 0
M  V30 8990 C 891.041 0.38204 2.03851 0
M  V30 8991 C 891.466 -0.995553 1.59594 0
M  V30 8992 O 890.824 -1.64258 0.767401 0
M  V30 8993 C 890.872 0.461248 3.57638 0
M  V30 8994 O 889.976 -0.529448 4.08987 0
M  V30 8995 H 889.317 0.161227 0.644129 0
M  V30 8996 H 891.847 1.07858 1.73861 0
M  V30 8997 H 891.857 0.32712 4.06687 0
M  V30 8998 H 890.532 1.46613 3.89201 0
M  V30 8999 H 889.109 -0.35646 3.71192 0
M  V30 9000 N 891.294 -1.47756 0.548274 0
M  V30 9001 C 892.519 -2.07387 0.023475 0
M  V30 9002 C 892.944 -1.39956 -1.25674 0
M  V30 9003 O 892.302 -0.471543 -1.7506 0
M  V30 9004 C 892.35 -3.60224 -0.164669 0
M  V30 9005 O 891.454 -3.93653 -1.22928 0
M  V30 9006 H 890.795 -0.662312 0.0473156 0
M  V30 9007 H 893.325 -1.89905 0.761409 0
M  V30 9008 H 893.335 -4.06211 -0.38166 0
M  V30 9009 H 892.01 -4.08702 0.770425 0
M  V30 9010 H 890.587 -3.59422 -0.993495 0
M  V30 9011 N 892.772 -0.284283 -1.55015 0
M  V30 9012 C 893.72 0.615091 -2.2432 0
M  V30 9013 C 894.714 1.15051 -1.24337 0
M  V30 9014 O 895.92 1.10308 -1.4224 0
M  V30 9015 H 892.295 0.216927 -0.720033 0
M  V30 9016 H 894.266 0.00783216 -2.98399 0
M  V30 9017 C 893.015 1.78355 -2.98471 0
M  V30 9018 H 892.338 1.38076 -3.752 0
M  V30 9019 H 893.778 2.38927 -3.50271 0
M  V30 9020 C 892.237 2.67757 -2.04469 0
M  V30 9021 O 892.767 3.6838 -1.60185 0
M  V30 9022 N 890.973 2.35125 -1.70776 0
M  V30 9023 H 890.52 1.53346 -2.06985 0
M  V30 9024 H 890.478 2.95212 -1.08153 0
M  V30 9025 N 894.251 1.57596 -0.0117121 0
M  V30 9026 C 895.499 1.90694 0.669342 0
M  V30 9027 C 895.82 0.886999 1.73659 0
M  V30 9028 O 895.09 -0.0739779 1.9576 0
M  V30 9029 H 893.67 0.703846 0.250219 0
M  V30 9030 H 896.332 1.94821 -0.0554057 0
M  V30 9031 H 895.428 2.90802 1.13316 0
M  V30 9032 N 895.729 -0.261212 1.5542 0
M  V30 9033 C 896.661 -1.34571 1.85535 0
M  V30 9034 C 897.674 -1.44979 0.740612 0
M  V30 9035 O 898.863 -1.46584 1.01859 0
M  V30 9036 C 895.963 -2.7258 2.01378 0
M  V30 9037 C 895.136 -2.84618 3.32131 0
M  V30 9038 C 894.195 -4.03379 3.37893 0
M  V30 9039 O 893.221 -3.93581 4.11197 0
M  V30 9040 N 894.423 -5.15893 2.66148 0
M  V30 9041 H 897.188 -1.09078 2.79145 0
M  V30 9042 H 894.749 -0.451327 1.55482 0
M  V30 9043 H 896.741 -3.50342 2.0259 0
M  V30 9044 H 895.311 -2.90844 1.14579 0
M  V30 9045 H 894.531 -1.93647 3.43358 0
M  V30 9046 H 895.819 -2.896 4.18341 0
M  V30 9047 H 895.217 -5.26743 2.06297 0
M  V30 9048 H 893.774 -5.91842 2.73069 0
M  V30 9049 N 897.207 -1.48554 -0.526253 0
M  V30 9050 C 898.432 -1.60686 -1.31129 0
M  V30 9051 C 898.857 -0.268701 -1.86171 0
M  V30 9052 O 898.215 0.760167 -1.64594 0
M  V30 9053 C 898.263 -2.65938 -2.43536 0
M  V30 9054 O 897.367 -2.23356 -3.46678 0
M  V30 9055 H 896.708 -0.538691 -0.388211 0
M  V30 9056 H 899.238 -1.94567 -0.632826 0
M  V30 9057 H 899.248 -2.87327 -2.89668 0
M  V30 9058 H 897.923 -3.63085 -2.02835 0
M  V30 9059 H 896.5 -2.12196 -3.06639 0
M  V30 9060 N 898.685 0.775411 -1.37205 0
M  V30 9061 C 899.635 1.87867 -1.29189 0
M  V30 9062 C 900.619 1.59885 -0.180466 0
M  V30 9063 O 901.811 1.72077 -0.414536 0
M  V30 9064 C 898.94 3.25285 -1.09748 0
M  V30 9065 C 898.026 3.59231 -2.25419 0
M  V30 9066 N 898.417 3.64386 -3.50795 0
M  V30 9067 C 896.715 3.89375 -2.17492 0
M  V30 9068 C 897.416 3.94974 -4.27048 0
M  V30 9069 N 896.392 4.10684 -3.56146 0
M  V30 9070 H 900.194 1.90099 -2.24142 0
M  V30 9071 H 897.708 0.971667 -1.30125 0
M  V30 9072 H 899.705 4.04207 -1.02091 0
M  V30 9073 H 898.365 3.2432 -0.157083 0
M  V30 9074 H 899.376 3.46682 -3.8475 0
M  V30 9075 H 896.053 3.96254 -1.31489 0
M  V30 9076 H 897.443 4.05768 -5.35539 0
M  V30 9077 N 900.163 1.21714 1.00117 0
M  V30 9078 C 901.093 1.00397 2.10815 0
M  V30 9079 C 902.074 -0.0723502 1.69946 0
M  V30 9080 O 903.259 0.0882398 1.93999 0
M  V30 9081 C 900.389 0.572001 3.42557 0
M  V30 9082 C 899.343 1.59331 3.97237 0
M  V30 9083 C 898.669 1.01746 5.2493 0
M  V30 9084 C 899.969 2.98117 4.28863 0
M  V30 9085 H 901.663 1.92983 2.28906 0
M  V30 9086 H 899.209 0.929273 1.10002 0
M  V30 9087 H 901.162 0.410018 4.19401 0
M  V30 9088 H 899.886 -0.38951 3.24269 0
M  V30 9089 H 898.545 1.74293 3.22518 0
M  V30 9090 H 898.193 0.0475491 5.02978 0
M  V30 9091 H 897.893 1.69969 5.62481 0
M  V30 9092 H 899.417 0.866881 6.04415 0
M  V30 9093 H 900.831 2.86578 4.96534 0
M  V30 9094 H 899.228 3.63389 4.77565 0
M  V30 9095 H 900.298 3.48674 3.36979 0
M  V30 9096 N 901.641 -1.19671 1.02551 0
M  V30 9097 C 902.571 -2.25009 0.623965 0
M  V30 9098 C 903.552 -1.66129 -0.36538 0
M  V30 9099 O 904.737 -1.92599 -0.248842 0
M  V30 9100 C 901.867 -3.47287 -0.0294869 0
M  V30 9101 C 900.821 -4.18818 0.881781 0
M  V30 9102 C 900.147 -5.34618 0.0936189 0
M  V30 9103 C 901.447 -4.73986 2.19396 0
M  V30 9104 H 903.141 -2.58851 1.50454 0
M  V30 9105 H 900.687 -1.24425 0.724872 0
M  V30 9106 H 902.64 -4.20168 -0.322016 0
M  V30 9107 H 901.364 -3.12635 -0.944838 0
M  V30 9108 H 900.023 -3.47815 1.15845 0
M  V30 9109 H 899.671 -4.9621 -0.823661 0
M  V30 9110 H 899.371 -5.83409 0.700568 0
M  V30 9111 H 900.895 -6.10297 -0.192249 0
M  V30 9112 H 902.309 -5.38639 1.96319 0
M  V30 9113 H 900.706 -5.3325 2.75254 0
M  V30 9114 H 901.776 -3.92238 2.85092 0
M  V30 9115 N 903.119 -0.802921 -1.35613 0
M  V30 9116 C 904.53 -0.443004 -1.81368 0
M  V30 9117 C 904.881 1.03459 -1.66706 0
M  V30 9118 O 904.006 1.80372 -1.19561 0
M  V30 9119 C 904.601 -0.797324 -3.29284 0
M  V30 9120 C 903.16 -0.490055 -3.73196 0
M  V30 9121 C 902.307 -1.02487 -2.57666 0
M  V30 9122 H 905.258 -0.994888 -1.23643 0
M  V30 9123 H 905.279 -0.0934638 -3.80385 0
M  V30 9124 H 904.791 -1.87278 -3.39924 0
M  V30 9125 H 902.892 0.576818 -3.68108 0
M  V30 9126 H 903.005 -1.02012 -4.68114 0
M  V30 9127 H 901.369 -0.44738 -2.5074 0
M  V30 9128 H 902.152 -2.10636 -2.71085 0
M  V30 9129 N 904.597 1.47463 -0.556102 0
M  V30 9130 C 905.822 2.07371 -0.0344729 0
M  V30 9131 C 906.247 1.40621 1.2493 0
M  V30 9132 O 905.605 0.48082 1.74808 0
M  V30 9133 C 905.653 3.60306 0.145563 0
M  V30 9134 O 904.757 3.94299 1.20839 0
M  V30 9135 H 904.098 0.662052 -0.0508274 0
M  V30 9136 H 906.628 1.89498 -0.771469 0
M  V30 9137 H 906.638 4.06408 0.360112 0
M  V30 9138 H 905.313 4.08288 -0.792089 0
M  V30 9139 H 903.89 3.59944 0.97442 0
M  V30 9140 N 906.075 0.2925 1.54862 0
M  V30 9141 C 907.023 -0.603186 2.24643 0
M  V30 9142 C 908.017 -1.1439 1.24946 0
M  V30 9143 O 909.223 -1.09552 1.42823 0
M  V30 9144 H 905.598 -0.213105 0.721173 0
M  V30 9145 H 907.569 0.00799278 2.98399 0
M  V30 9146 C 906.318 -1.76769 2.99413 0
M  V30 9147 H 905.641 -1.36084 3.75927 0
M  V30 9148 H 907.081 -2.37066 3.51533 0
M  V30 9149 C 905.54 -2.66669 2.05886 0
M  V30 9150 O 906.07 -3.67525 1.62136 0
M  V30 9151 N 904.276 -2.34216 1.7202 0
M  V30 9152 H 903.823 -1.52246 2.07795 0
M  V30 9153 H 903.781 -2.94635 1.09717 0
M  V30 9154 N 907.553 -1.57587 0.0200696 0
M  V30 9155 C 908.503 -2.0616 -0.973751 0
M  V30 9156 C 909.487 -0.960282 -1.29102 0
M  V30 9157 O 910.679 -1.22391 -1.27865 0
M  V30 9158 C 907.808 -2.58487 -2.25919 0
M  V30 9159 C 906.894 -3.75533 -1.97068 0
M  V30 9160 N 907.285 -4.86482 -1.38451 0
M  V30 9161 C 905.583 -3.83847 -2.27107 0
M  V30 9162 C 906.284 -5.67773 -1.26527 0
M  V30 9163 N 905.26 -5.14398 -1.75772 0
M  V30 9164 H 909.062 -2.89346 -0.515365 0
M  V30 9165 H 906.576 -1.61341 -0.185163 0
M  V30 9166 H 908.573 -2.91572 -2.97979 0
M  V30 9167 H 907.233 -1.76728 -2.72392 0
M  V30 9168 H 908.244 -5.06922 -1.06069 0
M  V30 9169 H 904.921 -3.12978 -2.76316 0
M  V30 9170 H 906.311 -6.66966 -0.812785 0
M  V30 9171 N 909.032 0.252966 -1.55557 0
M  V30 9172 C 910.257 1.0038 -1.8149 0
M  V30 9173 C 910.682 1.78397 -0.596318 0
M  V30 9174 O 910.04 1.7551 0.454535 0
M  V30 9175 C 910.088 1.9222 -3.05096 0
M  V30 9176 O 909.192 3.01302 -2.81587 0
M  V30 9177 H 908.533 0.285949 -0.599274 0
M  V30 9178 H 911.063 0.275795 -2.02733 0
M  V30 9179 H 911.073 2.338 -3.34368 0
M  V30 9180 H 909.748 1.34852 -3.93431 0
M  V30 9181 H 908.325 2.63894 -2.63466 0
M  V30 9182 N 910.51 1.48831 0.518367 0
M  V30 9183 C 911.756 1.57672 1.27543 0
M  V30 9184 C 912.089 0.254915 1.9252 0
M  V30 9185 O 911.364 -0.740107 1.79868 0
M  V30 9186 C 911.647 2.72345 2.35585 0
M  V30 9187 C 911.5 4.14267 1.75224 0
M  V30 9188 C 912.819 2.82726 3.37274 0
M  V30 9189 H 909.938 0.573926 0.462361 0
M  V30 9190 H 912.58 1.8105 0.576267 0
M  V30 9191 H 910.73 2.52543 2.95219 0
M  V30 9192 H 912.402 4.45539 1.19551 0
M  V30 9193 H 910.645 4.20724 1.05706 0
M  V30 9194 H 911.316 4.90345 2.53507 0
M  V30 9195 H 913.792 3.00699 2.8761 0
M  V30 9196 H 912.668 3.6467 4.10252 0
M  V30 9197 H 912.929 1.9136 3.9854 0
M  V30 9198 N 911.988 -0.768124 1.37614 0
M  V30 9199 C 913.237 -1.5221 1.32345 0
M  V30 9200 C 913.55 -1.95399 -0.0885761 0
M  V30 9201 O 914.756 -2.70216 -0.263752 0
M  V30 9202 C 913.212 -2.74872 2.32322 0
M  V30 9203 C 912.82 -2.38767 3.79071 0
M  V30 9204 C 914.564 -3.52805 2.36069 0
M  V30 9205 C 912.471 -3.57953 4.7077 0
M  V30 9206 H 911.401 -0.571461 0.491883 0
M  V30 9207 H 914.052 -0.841004 1.63093 0
M  V30 9208 H 912.434 -3.44889 1.94596 0
M  V30 9209 H 913.608 -1.7651 4.25654 0
M  V30 9210 H 911.923 -1.74 3.78303 0
M  V30 9211 H 914.52 -4.41397 3.01782 0
M  V30 9212 H 914.863 -3.92925 1.37535 0
M  V30 9213 H 915.396 -2.89788 2.72521 0
M  V30 9214 H 912.135 -3.22911 5.70446 0
M  V30 9215 H 911.655 -4.19302 4.28889 0
M  V30 9216 H 913.334 -4.2472 4.8808 0
M  V30 9217 N 913.466 -1.22244 -0.994698 0
M  V30 9218 C 914.376 -1.00722 -2.11878 0
M  V30 9219 C 915.392 0.043919 -1.73945 0
M  V30 9220 O 916.568 -0.148411 -2.00852 0
M  V30 9221 C 913.633 -0.585723 -3.41717 0
M  V30 9222 C 912.694 -1.71027 -3.93762 0
M  V30 9223 C 911.927 -1.30879 -5.17403 0
M  V30 9224 O 912.15 -0.18681 -5.70094 0
M  V30 9225 O 911.084 -2.1246 -5.63156 0
M  V30 9226 H 914.91 -1.94894 -2.32916 0
M  V30 9227 H 912.495 -1.00822 -1.10251 0
M  V30 9228 H 914.377 -0.360935 -4.19851 0
M  V30 9229 H 913.052 0.327166 -3.22042 0
M  V30 9230 H 911.959 -1.98956 -3.16808 0
M  V30 9231 H 913.292 -2.60096 -4.17865 0
M  V30 9232 N 914.944 1.19125 -1.03184 0
M  V30 9233 C 916.172 1.92838 -0.74975 0
M  V30 9234 C 916.587 1.75667 0.691851 0
M  V30 9235 O 915.944 1.0805 1.47076 0
M  V30 9236 C 915.995 3.44509 -1.09525 0
M  V30 9237 O 915.716 3.6113 -2.48025 0
M  V30 9238 C 917.217 4.35338 -0.836397 0
M  V30 9239 H 914.437 0.61246 -0.274105 0
M  V30 9240 H 916.981 1.5118 -1.37712 0
M  V30 9241 H 915.136 3.83988 -0.513006 0
M  V30 9242 H 915.55 4.54959 -2.60984 0
M  V30 9243 H 917.024 5.4035 -1.12808 0
M  V30 9244 H 917.501 4.38602 0.229102 0
M  V30 9245 H 918.107 4.01544 -1.40152 0
M  V30 9246 N 916.422 0.810101 1.35185 0
M  V30 9247 C 917.669 0.392117 1.98667 0
M  V30 9248 C 917.997 -1.0416 1.64259 0
M  V30 9249 O 917.252 -1.73795 0.899647 0
M  V30 9250 C 917.551 0.526561 3.535 0
M  V30 9251 C 917.217 1.92411 4.07785 0
M  V30 9252 C 915.879 2.30644 4.22323 0
M  V30 9253 C 918.231 2.83827 4.37141 0
M  V30 9254 C 915.559 3.59655 4.63536 0
M  V30 9255 C 917.911 4.12287 4.79794 0
M  V30 9256 C 916.575 4.50515 4.92536 0
M  V30 9257 H 915.845 0.143486 0.726975 0
M  V30 9258 H 918.492 1.03157 1.61341 0
M  V30 9259 H 916.797 -0.19633 3.91308 0
M  V30 9260 H 918.494 0.183871 4.00578 0
M  V30 9261 H 915.084 1.61707 3.96924 0
M  V30 9262 H 919.268 2.55536 4.25459 0
M  V30 9263 H 914.524 3.89117 4.71591 0
M  V30 9264 H 918.698 4.83221 5.01468 0
M  V30 9265 H 916.325 5.50535 5.24229 0
M  V30 9266 N 917.9 -1.47166 0.563914 0
M  V30 9267 C 919.149 -2.0166 0.0401871 0
M  V30 9268 C 919.462 -1.44303 -1.32046 0
M  V30 9269 O 920.668 -1.905 -1.93448 0
M  V30 9270 C 919.124 -3.59894 0.0213257 0
M  V30 9271 C 918.732 -4.26244 1.37914 0
M  V30 9272 C 920.476 -4.22114 -0.449442 0
M  V30 9273 C 918.383 -5.76503 1.31902 0
M  V30 9274 H 917.313 -0.753916 0.0112534 0
M  V30 9275 H 919.964 -1.69091 0.712766 0
M  V30 9276 H 918.346 -3.89454 -0.717038 0
M  V30 9277 H 919.52 -4.08317 2.13574 0
M  V30 9278 H 917.835 -3.76039 1.78839 0
M  V30 9279 H 920.432 -5.32234 -0.51292 0
M  V30 9280 H 920.775 -3.89749 -1.46291 0
M  V30 9281 H 921.308 -3.9711 0.23427 0
M  V30 9282 H 918.047 -6.13498 2.3087 0
M  V30 9283 H 917.567 -5.96748 0.604324 0
M  V30 9284 H 919.246 -6.38846 1.02392 0
M  V30 9285 N 919.378 -0.300708 -1.54705 0
M  V30 9286 C 920.603 0.314073 -2.05008 0
M  V30 9287 C 921.028 1.46759 -1.17657 0
M  V30 9288 O 920.386 1.80398 -0.180598 0
M  V30 9289 C 920.434 0.748243 -3.52752 0
M  V30 9290 O 919.538 1.85305 -3.68424 0
M  V30 9291 H 918.879 0.0610139 -0.661191 0
M  V30 9292 H 921.409 -0.442467 -1.99758 0
M  V30 9293 H 921.419 1.03713 -3.94598 0
M  V30 9294 H 920.094 -0.095573 -4.1579 0
M  V30 9295 H 918.671 1.56473 -3.38483 0
M  V30 9296 N 920.856 1.57574 -0.0284266 0
M  V30 9297 C 922.084 1.96071 0.660575 0
M  V30 9298 C 922.499 0.904881 1.65703 0
M  V30 9299 O 921.856 -0.113379 1.82147 0
M  V30 9300 C 921.907 3.34634 1.36756 0
M  V30 9301 O 921.628 4.36167 0.411041 0
M  V30 9302 C 923.129 3.87758 2.14845 0
M  V30 9303 H 920.349 0.645794 0.182183 0
M  V30 9304 H 922.893 2.04311 -0.0879858 0
M  V30 9305 H 921.048 3.27616 2.06753 0
M  V30 9306 H 921.462 5.16493 0.913 0
M  V30 9307 H 922.936 4.87058 2.59767 0
M  V30 9308 H 923.413 3.21967 2.9872 0
M  V30 9309 H 924.019 3.98043 1.49807 0
M  V30 9310 N 922.334 -0.244713 1.55689 0
M  V30 9311 C 923.266 -1.32595 1.86952 0
M  V30 9312 C 924.279 -1.44185 0.755948 0
M  V30 9313 O 925.468 -1.45496 1.03408 0
M  V30 9314 C 922.568 -2.70429 2.04258 0
M  V30 9315 C 921.741 -2.8108 3.35131 0
M  V30 9316 C 920.8 -3.99773 3.42152 0
M  V30 9317 O 919.826 -3.89197 4.15348 0
M  V30 9318 N 921.028 -5.13041 2.71604 0
M  V30 9319 H 923.793 -1.06111 2.80287 0
M  V30 9320 H 921.354 -0.434811 1.55952 0
M  V30 9321 H 923.346 -3.48173 2.06295 0
M  V30 9322 H 921.916 -2.89612 1.17658 0
M  V30 9323 H 921.136 -1.89994 3.45392 0
M  V30 9324 H 922.424 -2.85147 4.21389 0
M  V30 9325 H 921.822 -5.24525 2.11872 0
M  V30 9326 H 920.379 -5.88912 2.79331 0
M  V30 9327 N 923.813 -1.49104 -0.510467 0
M  V30 9328 C 924.746 -1.59667 -1.63039 0
M  V30 9329 C 925.724 -0.446145 -1.5636 0
M  V30 9330 O 926.908 -0.660414 -1.76552 0
M  V30 9331 C 924.035 -1.54282 -3.01521 0
M  V30 9332 C 923.081 -2.74415 -3.26494 0
M  V30 9333 S 923.914 -4.3619 -3.10643 0
M  V30 9334 C 925.07 -4.33435 -4.51536 0
M  V30 9335 H 925.303 -2.54407 -1.53833 0
M  V30 9336 H 922.836 -1.37878 -0.694916 0
M  V30 9337 H 924.794 -1.51861 -3.81377 0
M  V30 9338 H 923.455 -0.608458 -3.0815 0
M  V30 9339 H 922.648 -2.66841 -4.27565 0
M  V30 9340 H 922.25 -2.74199 -2.54344 0
M  V30 9341 H 924.542 -4.04571 -5.43441 0
M  V30 9342 H 925.485 -5.34752 -4.64162 0
M  V30 9343 H 925.893 -3.63638 -4.31773 0
M  V30 9344 N 925.291 0.760815 -1.38019 0
M  V30 9345 C 926.254 1.85604 -1.34476 0
M  V30 9346 C 927.254 1.58897 -0.24666 0
M  V30 9347 O 928.444 1.66776 -0.50314 0
M  V30 9348 C 925.576 3.22945 -1.09176 0
M  V30 9349 H 926.769 1.90155 -2.31908 0
M  V30 9350 H 924.322 0.961746 -1.23208 0
M  V30 9351 H 925.057 3.24066 -0.123216 0
M  V30 9352 H 924.842 3.43723 -1.88672 0
M  V30 9353 H 926.332 4.03022 -1.09375 0
M  V30 9354 N 926.769 1.22769 0.988202 0
M  V30 9355 C 927.994 1.08239 1.76915 0
M  V30 9356 C 928.419 -0.362519 1.84574 0
M  V30 9357 O 927.777 -1.26202 1.30165 0
M  V30 9358 C 927.825 1.70363 3.17819 0
M  V30 9359 O 926.929 0.960484 4.01059 0
M  V30 9360 H 926.27 0.379872 0.544604 0
M  V30 9361 H 928.8 1.62663 1.24104 0
M  V30 9362 H 928.81 1.7528 3.6843 0
M  V30 9363 H 927.485 2.75505 3.1156 0
M  V30 9364 H 926.062 0.987667 3.59582 0
M  V30 9365 N 928.247 -1.18576 1.03814 0
M  V30 9366 C 929.472 -1.92978 0.759873 0
M  V30 9367 C 929.897 -1.75514 -0.676486 0
M  V30 9368 O 929.255 -1.06359 -1.46824 0
M  V30 9369 C 929.303 -3.42507 1.12788 0
M  V30 9370 O 928.407 -4.1163 0.251886 0
M  V30 9371 H 927.748 -0.602129 0.279886 0
M  V30 9372 H 930.278 -1.50383 1.3873 0
M  V30 9373 H 930.288 -3.93206 1.08872 0
M  V30 9374 H 928.963 -3.5454 2.17427 0
M  V30 9375 H 927.54 -3.7125 0.350441 0
M  V30 9376 N 929.725 -0.817259 -1.34754 0
M  V30 9377 C 930.95 -0.414423 -2.03217 0
M  V30 9378 C 931.375 0.970037 -1.61158 0
M  V30 9379 O 930.733 1.63016 -0.793436 0
M  V30 9380 C 930.781 -0.518087 -3.56859 0
M  V30 9381 O 929.885 0.464314 -4.09778 0
M  V30 9382 H 929.226 -0.171454 -0.641482 0
M  V30 9383 H 931.756 -1.10611 -1.72123 0
M  V30 9384 H 931.766 -0.391779 -4.06115 0
M  V30 9385 H 930.441 -1.52786 -3.86819 0
M  V30 9386 H 929.018 0.297361 -3.71712 0
M  V30 9387 N 931.203 1.46865 -0.571711 0
M  V30 9388 C 932.135 2.28277 0.205479 0
M  V30 9389 C 933.148 1.37866 0.865835 0
M  V30 9390 O 934.337 1.62564 0.737247 0
M  V30 9391 C 931.437 3.12572 1.30965 0
M  V30 9392 C 930.61 4.31038 0.743328 0
M  V30 9393 C 929.669 4.96815 1.73382 0
M  V30 9394 O 928.695 5.54755 1.2742 0
M  V30 9395 N 929.897 4.92825 3.06764 0
M  V30 9396 H 932.662 2.95618 -0.49294 0
M  V30 9397 H 930.223 1.56655 -0.408744 0
M  V30 9398 H 932.215 3.53442 1.97131 0
M  V30 9399 H 930.785 2.47378 1.91109 0
M  V30 9400 H 930.005 3.94084 -0.0955004 0
M  V30 9401 H 931.293 5.07632 0.344556 0
M  V30 9402 H 930.691 4.46978 3.46738 0
M  V30 9403 H 929.248 5.3767 3.68449 0
M  V30 9404 O 932.72 0.451008 1.55075 0
M  V30 9405 H 933.411 -0.0793462 1.93537 0
M  V30 END ATOM
M  V30 BEGIN BOND
M  V30 END BOND
M  V30 END CTAB
M  END
$$$$
