drugbank_target|F5HGI9 Tripartite terminase subunit 2 (DB12070)
 OpenBabel12092121093D

  0  0  0     0  0            999 V3000
M  V30 BEGIN CTAB
M  V30 COUNTS 2321 2343 0 0 0
M  V30 BEGIN ATOM
M  V30 1 H -0.908 1.98254 -0.117106 0
M  V30 2 N 0 1.576 0 0
M  V30 3 C 0.933 2.03868 1.02534 0
M  V30 4 C 1.911 0.928543 1.3348 0
M  V30 5 O 3.095 1.19667 1.45644 0
M  V30 6 C 0.222 2.43627 2.35294 0
M  V30 7 C -0.732 3.65373 2.2001 0
M  V30 8 S 0.101 5.13292 1.52614 0
M  V30 9 C 1.257 5.56322 2.86805 0
M  V30 10 H 1.49 2.90518 0.631377 0
M  V30 11 H -0.977 1.52953 0.210867 0
M  V30 12 H 0.981 2.67203 3.11629 0
M  V30 13 H -0.358 1.57376 2.7183 0
M  V30 14 H -1.165 3.90944 3.18086 0
M  V30 15 H -1.563 3.418 1.51819 0
M  V30 16 H 0.729 5.58782 3.83104 0
M  V30 17 H 1.672 6.56266 2.65933 0
M  V30 18 H 2.08 4.83886 2.90714 0
M  V30 19 N 1.4781 -0.272755 1.55222 0
M  V30 20 C 2.7031 -1.02683 1.80197 0
M  V30 21 C 3.1281 -1.79142 0.573551 0
M  V30 22 O 2.4861 -1.74917 -0.476849 0
M  V30 23 C 2.5341 -1.9609 3.02624 0
M  V30 24 O 1.6381 -3.04863 2.77727 0
M  V30 25 H 0.9791 -0.293557 0.595584 0
M  V30 26 H 3.5091 -0.30159 2.02365 0
M  V30 27 H 3.5191 -2.38039 3.31363 0
M  V30 28 H 2.1941 -1.39851 3.91682 0
M  V30 29 H 0.7711 -2.67228 2.60084 0
M  V30 30 N 2.9562 -1.48159 -0.537278 0
M  V30 31 C 4.2022 -1.57015 -1.29297 0
M  V30 32 C 4.5572 -0.237791 -1.90925 0
M  V30 33 O 3.8502 0.758621 -1.75942 0
M  V30 34 C 4.0442 -2.63956 -2.40961 0
M  V30 35 C 3.8732 -4.07461 -1.90278 0
M  V30 36 C 2.6432 -4.74685 -1.73213 0
M  V30 37 C 4.8412 -4.93858 -1.43556 0
M  V30 38 N 2.8232 -6.02633 -1.17078 0
M  V30 39 C 4.1942 -6.11993 -0.993204 0
M  V30 40 C 6.2492 -4.80141 -1.31792 0
M  V30 41 C 4.9522 -7.17923 -0.444872 0
M  V30 42 C 6.9782 -5.86186 -0.783585 0
M  V30 43 C 6.3402 -7.03524 -0.351261 0
M  V30 44 H 2.4392 -0.629154 -0.464423 0
M  V30 45 H 5.0232 -1.85006 -0.606705 0
M  V30 46 H 3.1942 -2.378 -3.07093 0
M  V30 47 H 4.9262 -2.62539 -3.07986 0
M  V30 48 H 1.6812 -4.30902 -1.9652 0
M  V30 49 H 2.1052 -6.7085 -0.910421 0
M  V30 50 H 6.7472 -3.89772 -1.63823 0
M  V30 51 H 4.4652 -8.08022 -0.11222 0
M  V30 52 H 8.0512 -5.77624 -0.695835 0
M  V30 53 H 6.9312 -7.8418 0.055777 0
M  V30 54 N 4.4343 0.785586 -1.36625 0
M  V30 55 C 5.3973 1.87999 -1.31107 0
M  V30 56 C 6.3973 1.59316 -0.217959 0
M  V30 57 O 7.5873 1.67656 -0.472977 0
M  V30 58 C 4.7193 3.24861 -1.03334 0
M  V30 59 H 5.9123 1.94307 -2.2844 0
M  V30 60 H 3.4653 0.983813 -1.21453 0
M  V30 61 H 4.2003 3.24235 -0.0647432 0
M  V30 62 H 3.9853 3.4707 -1.82441 0
M  V30 63 H 5.4753 4.04929 -1.02088 0
M  V30 64 N 5.9124 1.20967 1.01018 0
M  V30 65 C 6.8594 0.964281 2.09691 0
M  V30 66 C 7.8294 -0.107853 1.65749 0
M  V30 67 O 9.0144 0.0381987 1.90762 0
M  V30 68 C 6.1544 0.52943 3.41015 0
M  V30 69 C 5.2674 1.67043 3.98398 0
M  V30 70 C 4.4024 1.18525 5.17808 0
M  V30 71 C 3.4414 2.29892 5.67288 0
M  V30 72 N 2.5784 1.82546 6.77954 0
M  V30 73 H 7.4184 1.89463 2.30017 0
M  V30 74 H 4.9554 0.944289 1.1279 0
M  V30 75 H 6.9134 0.258588 4.16398 0
M  V30 76 H 5.5434 -0.363919 3.20742 0
M  V30 77 H 4.5954 2.05603 3.20049 0
M  V30 78 H 5.9074 2.50877 4.31117 0
M  V30 79 H 5.0614 0.870762 6.00419 0
M  V30 80 H 3.8004 0.316887 4.86669 0
M  V30 81 H 2.8054 2.6215 4.83278 0
M  V30 82 H 4.0304 3.17216 6.00459 0
M  V30 83 H 1.9764 0.980454 6.48632 0
M  V30 84 H 1.8934 2.59956 7.09901 0
M  V30 85 H 3.1614 1.54115 7.64113 0
M  V30 86 N 7.3905 -1.2043 1.01659 0
M  V30 87 C 8.3225 -2.22626 0.544988 0
M  V30 88 C 9.3355 -1.58479 -0.372609 0
M  V30 89 O 10.5245 -1.77679 -0.170958 0
M  V30 90 C 7.6245 -3.38141 -0.22663 0
M  V30 91 C 6.7975 -4.31877 0.692876 0
M  V30 92 C 5.8565 -5.26191 -0.0311616 0
M  V30 93 O 4.8825 -5.6612 0.591343 0
M  V30 94 N 6.0845 -5.65618 -1.30601 0
M  V30 95 H 8.8495 -2.63716 1.42388 0
M  V30 96 H 6.4105 -1.34971 0.894116 0
M  V30 97 H 8.4025 -3.98239 -0.72024 0
M  V30 98 H 6.9725 -2.95943 -1.00681 0
M  V30 99 H 6.1925 -3.69746 1.36679 0
M  V30 100 H 7.4805 -4.91426 1.31824 0
M  V30 101 H 6.8785 -5.3519 -1.83269 0
M  V30 102 H 5.4355 -6.28025 -1.74435 0
M  V30 103 N 8.8686 -0.792821 -1.36206 0
M  V30 104 C 10.2846 -0.474903 -1.52371 0
M  V30 105 C 10.4846 1.00622 -1.74578 0
M  V30 106 O 9.5406 1.79162 -1.77924 0
M  V30 107 C 10.8536 -1.3083 -2.70747 0
M  V30 108 C 12.4016 -1.30234 -2.84619 0
M  V30 109 C 12.8766 -2.11956 -4.06004 0
M  V30 110 N 14.3676 -2.09419 -4.13156 0
M  V30 111 C 15.1026 -2.69419 -5.06163 0
M  V30 112 N 14.5986 -3.3829 -6.04592 0
M  V30 113 N 16.3916 -2.59134 -4.98804 0
M  V30 114 H 8.5426 -1.75222 -1.20046 0
M  V30 115 H 10.8056 -0.745024 -0.586211 0
M  V30 116 H 10.5116 -2.35881 -2.6087 0
M  V30 117 H 10.3856 -0.95196 -3.6499 0
M  V30 118 H 12.7726 -0.259748 -2.93955 0
M  V30 119 H 12.8536 -1.69847 -1.91274 0
M  V30 120 H 12.4976 -3.16248 -3.97429 0
M  V30 121 H 12.4276 -1.69711 -4.98503 0
M  V30 122 H 14.9186 -1.59297 -3.42685 0
M  V30 123 H 15.2316 -3.81394 -6.7213 0
M  V30 124 H 13.5766 -3.42393 -6.04807 0
M  V30 125 H 16.7676 -2.04927 -4.20859 0
M  V30 126 H 16.9406 -3.06185 -5.711 0
M  V30 127 N 10.3467 1.47872 -0.545128 0
M  V30 128 C 11.5927 2.02793 -0.0166104 0
M  V30 129 C 11.9257 1.41987 1.32489 0
M  V30 130 O 11.2007 0.571045 1.85928 0
M  V30 131 C 11.4837 3.59989 0.0893294 0
M  V30 132 C 11.3367 4.3125 -1.27841 0
M  V30 133 C 12.6557 4.32606 0.808724 0
M  V30 134 H 9.7747 0.736962 -0.00751035 0
M  V30 135 H 12.4167 1.76433 -0.705085 0
M  V30 136 H 10.5667 3.82579 0.675681 0
M  V30 137 H 12.2387 4.20035 -1.90704 0
M  V30 138 H 10.4817 3.92076 -1.85632 0
M  V30 139 H 11.1527 5.39736 -1.15713 0
M  V30 140 H 13.6287 4.14936 0.310992 0
M  V30 141 H 12.5047 5.42251 0.851782 0
M  V30 142 H 12.7657 4.00963 1.86229 0
M  V30 143 N 11.8248 0.280983 1.55075 0
M  V30 144 C 13.2358 -0.215629 1.85451 0
M  V30 145 C 13.5868 -1.54991 1.203 0
M  V30 146 O 12.7118 -2.10699 0.493435 0
M  V30 147 C 13.3068 -0.398026 3.36454 0
M  V30 148 C 11.8658 -0.838866 3.66933 0
M  V30 149 C 11.0128 0.064458 2.77225 0
M  V30 150 H 13.9638 0.502601 1.50531 0
M  V30 151 H 13.9848 -1.23569 3.59876 0
M  V30 152 H 13.4968 0.573241 3.83843 0
M  V30 153 H 11.5978 -1.8214 3.25048 0
M  V30 154 H 11.7108 -0.672123 4.74362 0
M  V30 155 H 10.0748 -0.452863 2.50642 0
M  V30 156 H 10.8578 1.03172 3.2743 0
M  V30 157 N 13.3029 -1.57598 0.00835791 0
M  V30 158 C 14.5499 -1.90928 -0.674732 0
M  V30 159 C 14.8779 -0.88277 -1.73313 0
M  V30 160 O 14.1329 0.111294 -1.95383 0
M  V30 161 C 14.4319 -3.3101 -1.34787 0
M  V30 162 C 14.0979 -4.48922 -0.421861 0
M  V30 163 C 12.7599 -4.8091 -0.166927 0
M  V30 164 C 15.1119 -5.20755 0.215211 0
M  V30 165 C 12.4399 -5.821 0.733232 0
M  V30 166 C 14.7919 -6.22905 1.1033 0
M  V30 167 C 13.4559 -6.53346 1.36733 0
M  V30 168 H 12.7259 -0.698656 -0.246902 0
M  V30 169 H 15.3729 -1.91387 0.0656779 0
M  V30 170 H 13.6779 -3.26714 -2.16253 0
M  V30 171 H 15.3749 -3.54061 -1.8826 0
M  V30 172 H 11.9649 -4.23934 -0.630729 0
M  V30 173 H 16.1489 -4.9629 0.0312829 0
M  V30 174 H 11.4049 -6.04042 0.945712 0
M  V30 175 H 15.5789 -6.77694 1.60325 0
M  V30 176 H 13.2059 -7.31573 2.06652 0
M  V30 177 N 14.781 0.264519 -1.55364 0
M  V30 178 C 15.711 1.33121 -1.91836 0
M  V30 179 C 16.692 1.51101 -0.781192 0
M  V30 180 O 17.877 1.64003 -1.04003 0
M  V30 181 C 15.007 2.68921 -2.19769 0
M  V30 182 C 13.961 2.65661 -3.35571 0
M  V30 183 C 13.287 4.05093 -3.49004 0
M  V30 184 C 14.587 2.24187 -4.71739 0
M  V30 185 H 16.281 1.02844 -2.81182 0
M  V30 186 H 13.827 0.493286 -1.35287 0
M  V30 187 H 15.78 3.43663 -2.43872 0
M  V30 188 H 14.504 3.00799 -1.27231 0
M  V30 189 H 13.163 1.93377 -3.1145 0
M  V30 190 H 12.811 4.34206 -2.53917 0
M  V30 191 H 12.511 4.03804 -4.26868 0
M  V30 192 H 14.035 4.81561 -3.75408 0
M  V30 193 H 15.449 2.88654 -4.9533 0
M  V30 194 H 13.846 2.34044 -5.52579 0
M  V30 195 H 14.916 1.19327 -4.69988 0
M  V30 196 N 16.2591 1.48442 0.529413 0
M  V30 197 C 17.5361 1.46978 1.29062 0
M  V30 198 C 17.9161 0.181769 2.10316 0
M  V30 199 O 17.2641 -0.836481 2.12639 0
M  V30 200 C 17.4741 2.7321 2.17157 0
M  V30 201 C 18.8221 3.21562 2.77278 0
M  V30 202 O 19.8461 2.74131 2.27444 0
M  V30 203 O 18.7051 4.04094 3.67927 0
M  V30 204 H 15.7991 0.587003 0.582543 0
M  V30 205 H 18.3451 1.60676 0.546021 0
M  V30 206 H 17.1171 3.58465 1.56903 0
M  V30 207 H 16.7401 2.62235 2.98862 0
M  V30 208 N 17.7372 -0.778329 1.37039 0
M  V30 209 C 19.0142 -1.52551 1.22424 0
M  V30 210 C 19.3942 -2.10288 -0.184964 0
M  V30 211 O 18.7422 -1.94953 -1.19187 0
M  V30 212 C 18.9522 -2.61164 2.31504 0
M  V30 213 C 20.3002 -3.28746 2.68721 0
M  V30 214 O 21.3242 -2.71455 2.30631 0
M  V30 215 O 20.1832 -4.3231 3.3432 0
M  V30 216 H 17.2772 -0.675343 0.477326 0
M  V30 217 H 19.8232 -0.815859 1.48801 0
M  V30 218 H 18.5952 -2.16574 3.25901 0
M  V30 219 H 18.2182 -3.39737 2.06554 0
M  V30 220 N 19.2153 -1.21501 -1.00376 0
M  V30 221 C 20.4923 -0.941745 -1.71437 0
M  V30 222 C 20.8723 0.546114 -2.03914 0
M  V30 223 O 20.2203 1.51128 -1.71384 0
M  V30 224 C 20.4303 -1.82812 -2.97289 0
M  V30 225 C 21.7783 -2.07771 -3.70292 0
M  V30 226 O 22.8023 -1.80171 -3.07273 0
M  V30 227 O 21.6613 -2.54456 -4.83647 0
M  V30 228 H 18.7553 -0.353243 -0.747762 0
M  V30 229 H 21.3013 -1.32436 -1.06108 0
M  V30 230 H 20.0733 -2.83501 -2.69709 0
M  V30 231 H 19.6963 -1.4464 -3.70358 0
M  V30 232 N 20.6934 1.19889 -1.02296 0
M  V30 233 C 21.9704 1.85148 -0.630832 0
M  V30 234 C 22.3504 1.91385 0.890782 0
M  V30 235 O 21.6984 1.42642 1.78509 0
M  V30 236 C 21.9084 3.24442 -1.28602 0
M  V30 237 C 23.2564 4.00663 -1.4055 0
M  V30 238 O 24.2804 3.33818 -1.24273 0
M  V30 239 O 23.1394 5.20387 -1.66913 0
M  V30 240 H 20.2334 0.797613 -0.218499 0
M  V30 241 H 22.7794 1.27427 -1.12074 0
M  V30 242 H 21.5514 3.14704 -2.32545 0
M  V30 243 H 21.1744 3.89802 -0.7836 0
M  V30 244 N 22.1715 0.800033 1.35784 0
M  V30 245 C 23.4195 0.376597 1.9856 0
M  V30 246 C 23.7405 -1.05812 1.63795 0
M  V30 247 O 23.0105 -1.73103 0.917171 0
M  V30 248 H 21.5905 0.136261 0.734467 0
M  V30 249 H 24.2525 1.02442 1.65806 0
M  V30 250 H 23.3485 0.477002 3.08433 0
M  V30 251 N 23.6496 -1.47581 0.552962 0
M  V30 252 C 24.5596 -2.33743 -0.200353 0
M  V30 253 C 25.5756 -1.47928 -0.916151 0
M  V30 254 O 26.7516 -1.80865 -0.885993 0
M  V30 255 C 23.8166 -3.24536 -1.21973 0
M  V30 256 C 22.8776 -4.26238 -0.511819 0
M  V30 257 C 22.1106 -5.12693 -1.48263 0
M  V30 258 O 22.3336 -5.01525 -2.71714 0
M  V30 259 O 21.2676 -5.93375 -1.00945 0
M  V30 260 H 25.0936 -2.9945 0.506304 0
M  V30 261 H 22.6786 -1.46071 0.313622 0
M  V30 262 H 24.5606 -3.80631 -1.80827 0
M  V30 263 H 23.2356 -2.61462 -1.90839 0
M  V30 264 H 22.1426 -3.73914 0.117799 0
M  V30 265 H 23.4756 -4.92014 0.135308 0
M  V30 266 N 25.1277 -0.289203 -1.54924 0
M  V30 267 C 26.0377 0.601863 -2.26748 0
M  V30 268 C 27.0537 1.15834 -1.2984 0
M  V30 269 O 28.2297 1.18564 -1.62802 0
M  V30 270 C 25.2947 1.76299 -2.98529 0
M  V30 271 C 24.3557 1.24178 -4.10948 0
M  V30 272 C 23.5887 2.34757 -4.79296 0
M  V30 273 O 23.8117 3.54411 -4.46933 0
M  V30 274 O 22.7457 2.02115 -5.66951 0
M  V30 275 H 26.5717 0.0195879 -3.03694 0
M  V30 276 H 24.1567 -0.0560868 -1.49295 0
M  V30 277 H 26.0387 2.43973 -3.43592 0
M  V30 278 H 24.7137 2.33209 -2.24488 0
M  V30 279 H 23.6207 0.531104 -3.70311 0
M  V30 280 H 24.9537 0.718252 -4.86931 0
M  V30 281 N 26.6058 1.57591 -0.0167156 0
M  V30 282 C 27.5158 2.1291 0.98521 0
M  V30 283 C 28.5318 1.07834 1.36557 0
M  V30 284 O 29.7078 1.39826 1.44951 0
M  V30 285 C 26.7728 2.63512 2.25305 0
M  V30 286 C 25.8338 3.83256 1.93426 0
M  V30 287 C 25.0668 4.31435 3.14165 0
M  V30 288 O 25.2898 3.78851 4.26413 0
M  V30 289 O 24.2238 5.23416 2.97186 0
M  V30 290 H 28.0498 2.98772 0.544888 0
M  V30 291 H 25.6348 1.48012 0.203141 0
M  V30 292 H 27.5168 2.96183 2.99756 0
M  V30 293 H 26.1918 1.8074 2.68542 0
M  V30 294 H 25.0988 3.55531 1.16398 0
M  V30 295 H 26.4318 4.67153 1.55013 0
M  V30 296 N 28.0839 -0.256276 1.55502 0
M  V30 297 C 29.0319 -1.33694 1.90338 0
M  V30 298 C 30.0259 -1.50299 0.781441 0
M  V30 299 O 31.2319 -1.51885 0.965966 0
M  V30 300 H 27.6069 -0.447483 0.60437 0
M  V30 301 H 29.5779 -1.01574 2.8058 0
M  V30 302 C 28.3269 -2.68724 2.20642 0
M  V30 303 H 27.6499 -2.56743 3.06469 0
M  V30 304 H 29.0899 -3.43237 2.48926 0
M  V30 305 C 27.5489 -3.21101 1.01959 0
M  V30 306 O 28.0789 -4.0084 0.262762 0
M  V30 307 N 26.2849 -2.79003 0.812746 0
M  V30 308 H 25.8319 -2.14271 1.42989 0
M  V30 309 H 25.7899 -3.14393 0.0203076 0
M  V30 310 N 29.562 -1.4872 -0.521534 0
M  V30 311 C 30.839 -1.4766 -1.2828 0
M  V30 312 C 31.219 -0.19292 -2.10217 0
M  V30 313 O 30.567 0.825193 -2.13079 0
M  V30 314 C 30.777 -2.74358 -2.15705 0
M  V30 315 C 32.125 -3.23028 -2.75569 0
M  V30 316 O 33.149 -2.75333 -2.25987 0
M  V30 317 O 32.008 -4.0604 -3.65778 0
M  V30 318 H 29.102 -0.590085 -0.579421 0
M  V30 319 H 31.648 -1.60963 -0.537492 0
M  V30 320 H 30.42 -3.59292 -1.54999 0
M  V30 321 H 30.043 -2.63816 -2.97467 0
M  V30 322 N 31.0401 0.771051 -1.3745 0
M  V30 323 C 32.2861 1.5319 -1.32894 0
M  V30 324 C 32.6191 1.94008 0.0862511 0
M  V30 325 O 31.8941 1.64124 1.04373 0
M  V30 326 C 32.1771 2.79648 -2.26868 0
M  V30 327 C 32.0301 2.45079 -3.77169 0
M  V30 328 C 33.3491 3.81583 -2.19277 0
M  V30 329 H 30.4681 0.555744 -0.484064 0
M  V30 330 H 33.1101 0.884492 -1.68157 0
M  V30 331 H 31.2601 3.34891 -1.96926 0
M  V30 332 H 32.9321 1.95745 -4.1771 0
M  V30 333 H 31.1751 1.77767 -3.95704 0
M  V30 334 H 31.8461 3.35478 -4.38359 0
M  V30 335 H 34.3221 3.35835 -2.45671 0
M  V30 336 H 33.1981 4.67787 -2.87171 0
M  V30 337 H 33.4591 4.25897 -1.18592 0
M  V30 338 N 32.5182 1.22032 0.997298 0
M  V30 339 C 33.4502 0.944263 2.08845 0
M  V30 340 C 34.4632 -0.0754663 1.62625 0
M  V30 341 O 35.6522 0.157994 1.77799 0
M  V30 342 C 32.7522 0.397723 3.36558 0
M  V30 343 C 31.9252 1.47362 4.11829 0
M  V30 344 C 30.9842 0.934951 5.17827 0
M  V30 345 O 30.0102 1.62016 5.45655 0
M  V30 346 N 31.2122 -0.245895 5.79979 0
M  V30 347 H 33.9772 1.88363 2.33109 0
M  V30 348 H 31.5382 1.12661 1.16272 0
M  V30 349 H 33.5302 0.0227771 4.04694 0
M  V30 350 H 32.1002 -0.446646 3.09393 0
M  V30 351 H 31.3202 2.02208 3.38386 0
M  V30 352 H 32.6082 2.19764 4.58891 0
M  V30 353 H 32.0062 -0.819475 5.59733 0
M  V30 354 H 30.5632 -0.562272 6.4937 0
M  V30 355 N 33.9963 -1.19345 1.0293 0
M  V30 356 C 35.2733 -1.84811 0.640642 0
M  V30 357 C 35.6533 -1.91855 -0.88062 0
M  V30 358 O 35.0013 -1.43587 -1.7775 0
M  V30 359 C 35.2113 -3.23755 1.30321 0
M  V30 360 C 36.5593 -3.99912 1.42673 0
M  V30 361 O 37.5833 -3.33155 1.26041 0
M  V30 362 O 36.4423 -5.19494 1.6967 0
M  V30 363 H 33.5363 -0.796443 0.222726 0
M  V30 364 H 36.0823 -1.26831 1.12748 0
M  V30 365 H 34.8543 -3.13466 2.34211 0
M  V30 366 H 34.4773 -3.89381 0.804261 0
M  V30 367 N 35.4744 -0.807222 -1.35358 0
M  V30 368 C 36.7514 -0.311126 -1.9311 0
M  V30 369 C 37.1314 1.19937 -1.73719 0
M  V30 370 O 36.4794 1.99918 -1.10657 0
M  V30 371 C 36.6894 -0.723226 -3.41424 0
M  V30 372 C 38.0374 -0.713078 -4.18569 0
M  V30 373 O 39.0614 -0.664811 -3.49941 0
M  V30 374 O 37.9204 -0.772022 -5.41019 0
M  V30 375 H 35.0144 -0.081526 -0.822972 0
M  V30 376 H 37.5604 -0.890962 -1.4443 0
M  V30 377 H 36.3324 -1.76426 -3.4927 0
M  V30 378 H 35.9554 -0.118232 -3.97424 0
M  V30 379 N 36.9525 1.47285 -0.560781 0
M  V30 380 C 38.1985 2.02764 -0.0381184 0
M  V30 381 C 38.5315 1.43384 1.30976 0
M  V30 382 O 37.8065 0.590733 1.85312 0
M  V30 383 C 38.0895 3.60064 0.0511427 0
M  V30 384 C 37.9425 4.2987 -1.32408 0
M  V30 385 C 39.2615 4.33439 0.762795 0
M  V30 386 H 36.3805 0.736841 -0.0153264 0
M  V30 387 H 39.0225 1.75675 -0.723759 0
M  V30 388 H 37.1725 3.83274 0.635065 0
M  V30 389 H 38.8445 4.17989 -1.95148 0
M  V30 390 H 37.0875 3.90085 -1.8978 0
M  V30 391 H 37.7585 5.38478 -1.21431 0
M  V30 392 H 40.2345 4.15243 0.266965 0
M  V30 393 H 39.1105 5.43124 0.794221 0
M  V30 394 H 39.3715 4.02915 1.81966 0
M  V30 395 N 38.4306 0.297415 1.54768 0
M  V30 396 C 39.7076 -0.365847 1.92148 0
M  V30 397 C 40.0876 -1.71975 1.22424 0
M  V30 398 O 39.4356 -2.25666 0.358739 0
M  V30 399 C 39.6456 -0.484056 3.45627 0
M  V30 400 C 40.9936 -0.756594 4.17805 0
M  V30 401 O 42.0176 -0.568007 3.51642 0
M  V30 402 O 40.8766 -1.11863 5.34929 0
M  V30 403 H 37.9706 -0.203919 0.801465 0
M  V30 404 H 40.5166 0.34521 1.66152 0
M  V30 405 H 39.2886 0.467865 3.88493 0
M  V30 406 H 38.9116 -1.24372 3.77647 0
M  V30 407 N 39.9087 -1.5758 0.0250728 0
M  V30 408 C 41.1337 -1.96337 -0.668317 0
M  V30 409 C 41.5587 -0.901314 -1.651 0
M  V30 410 O 40.9167 0.138187 -1.80773 0
M  V30 411 C 40.9647 -3.34191 -1.35457 0
M  V30 412 O 40.0687 -3.30269 -2.46974 0
M  V30 413 H 39.4097 -0.640281 -0.175887 0
M  V30 414 H 41.9397 -2.0442 0.0857224 0
M  V30 415 H 41.9497 -3.70331 -1.71228 0
M  V30 416 H 40.6247 -4.11036 -0.634218 0
M  V30 417 H 39.2017 -3.05841 -2.13344 0
M  V30 418 N 41.3868 0.248026 -1.55636 0
M  V30 419 C 42.7978 0.817177 -1.67866 0
M  V30 420 C 43.1488 1.86069 -0.622322 0
M  V30 421 O 42.2738 2.15157 0.231618 0
M  V30 422 C 42.8688 1.489 -3.04326 0
M  V30 423 C 41.4278 2.00587 -3.185 0
M  V30 424 C 40.5748 0.856573 -2.63739 0
M  V30 425 H 43.5258 0.0238579 -1.58682 0
M  V30 426 H 43.5468 2.35698 -2.98708 0
M  V30 427 H 43.0588 0.729279 -3.81186 0
M  V30 428 H 41.1598 2.79443 -2.4646 0
M  V30 429 H 41.2728 2.20402 -4.25393 0
M  V30 430 H 39.6368 1.25678 -2.21534 0
M  V30 431 H 40.4198 0.109953 -3.43124 0
M  V30 432 N 42.8649 1.48995 0.513639 0
M  V30 433 C 44.1109 1.58076 1.27042 0
M  V30 434 C 44.4439 0.261026 1.92438 0
M  V30 435 O 43.7189 -0.734393 1.80103 0
M  V30 436 C 44.0019 2.73091 2.34719 0
M  V30 437 C 43.8549 4.14821 1.73907 0
M  V30 438 C 45.1739 2.83796 3.36375 0
M  V30 439 H 42.2929 0.575391 0.460536 0
M  V30 440 H 44.9349 1.81232 0.570516 0
M  V30 441 H 43.0849 2.53479 2.94416 0
M  V30 442 H 44.7569 4.45917 1.18135 0
M  V30 443 H 42.9999 4.21058 1.0437 0
M  V30 444 H 43.6709 4.91147 2.51949 0
M  V30 445 H 46.1469 3.01611 2.86653 0
M  V30 446 H 45.0229 3.65971 4.09093 0
M  V30 447 H 45.2839 1.92624 3.9793 0
M  V30 448 N 44.343 -0.763751 1.37857 0
M  V30 449 C 45.754 -1.3405 1.29952 0
M  V30 450 C 46.105 -1.96138 -0.0492898 0
M  V30 451 O 45.23 -1.94372 -0.951239 0
M  V30 452 C 45.825 -2.43729 2.35333 0
M  V30 453 C 44.384 -2.97151 2.31037 0
M  V30 454 C 43.531 -1.70438 2.18738 0
M  V30 455 H 46.482 -0.563396 1.48363 0
M  V30 456 H 46.503 -3.23412 2.00462 0
M  V30 457 H 46.015 -1.9851 3.33489 0
M  V30 458 H 44.116 -3.46724 1.3643 0
M  V30 459 H 44.229 -3.52221 3.24772 0
M  V30 460 H 42.593 -1.93673 1.65418 0
M  V30 461 H 43.376 -1.27312 3.18821 0
M  V30 462 N 45.8211 -1.22559 -0.990812 0
M  V30 463 C 47.0491 -1.07779 -1.76611 0
M  V30 464 C 47.4641 0.371513 -1.85109 0
M  V30 465 O 46.8211 1.25737 -1.32274 0
M  V30 466 C 46.8721 -1.68512 -3.19822 0
M  V30 467 O 46.5931 -3.07774 -3.1178 0
M  V30 468 C 48.0941 -1.59035 -4.13791 0
M  V30 469 H 45.3141 -0.377729 -0.554583 0
M  V30 470 H 47.8581 -1.62195 -1.24551 0
M  V30 471 H 46.0131 -1.18154 -3.68942 0
M  V30 472 H 46.4271 -3.37062 -4.01858 0
M  V30 473 H 47.9011 -2.0625 -5.1202 0
M  V30 474 H 48.3781 -0.547273 -4.35777 0
M  V30 475 H 48.9841 -2.08709 -3.70568 0
M  V30 476 N 47.2992 1.18797 -1.03562 0
M  V30 477 C 48.7152 1.40671 -0.753917 0
M  V30 478 C 48.9152 1.9043 0.658686 0
M  V30 479 O 47.9712 2.08538 1.42366 0
M  V30 480 C 49.2842 2.41192 -1.79574 0
M  V30 481 C 50.8322 2.54928 -1.81606 0
M  V30 482 C 51.3072 3.58709 -2.84766 0
M  V30 483 N 52.7982 3.66212 -2.83625 0
M  V30 484 C 53.5332 4.46225 -3.60098 0
M  V30 485 N 53.0292 5.29888 -4.46308 0
M  V30 486 N 54.8222 4.40939 -3.4861 0
M  V30 487 H 46.9732 0.848221 -1.94728 0
M  V30 488 H 49.2362 0.435081 -0.842264 0
M  V30 489 H 48.9422 2.11669 -2.80872 0
M  V30 490 H 48.8162 3.40467 -1.62365 0
M  V30 491 H 51.2032 2.83771 -0.809817 0
M  V30 492 H 51.2842 1.55784 -2.02891 0
M  V30 493 H 50.9282 3.30607 -3.85566 0
M  V30 494 H 50.8582 4.57519 -2.60737 0
M  V30 495 H 53.3492 3.06466 -2.21105 0
M  V30 496 H 53.6622 5.88078 -5.01382 0
M  V30 497 H 52.0072 5.29326 -4.50377 0
M  V30 498 H 55.1982 3.74624 -2.80668 0
M  V30 499 H 55.3712 5.03056 -4.08459 0
M  V30 500 N 48.7773 0.814389 1.34928 0
M  V30 501 C 50.1883 0.458364 1.80986 0
M  V30 502 C 50.5393 -1.02042 1.67577 0
M  V30 503 O 49.6643 -1.79352 1.21086 0
M  V30 504 C 50.2593 0.825212 3.28597 0
M  V30 505 C 48.8183 0.521677 3.72767 0
M  V30 506 C 47.9653 1.04668 2.56788 0
M  V30 507 H 50.9163 1.00533 1.22795 0
M  V30 508 H 50.9373 0.12571 3.80292 0
M  V30 509 H 50.4493 1.90154 3.38324 0
M  V30 510 H 48.5503 -0.545589 3.68584 0
M  V30 511 H 48.6633 1.05977 4.67232 0
M  V30 512 H 47.0273 0.468622 2.50352 0
M  V30 513 H 47.8103 2.12927 2.6929 0
M  V30 514 N 50.2554 -1.46986 0.568584 0
M  V30 515 C 51.1854 -2.32946 -0.160753 0
M  V30 516 C 52.1664 -1.44487 -0.897631 0
M  V30 517 O 53.3514 -1.73327 -0.875867 0
M  V30 518 C 50.4814 -3.26494 -1.18403 0
M  V30 519 C 49.4354 -4.24282 -0.562895 0
M  V30 520 C 48.7614 -5.07236 -1.69163 0
M  V30 521 C 50.0614 -5.19989 0.490761 0
M  V30 522 H 51.7554 -2.94175 0.556916 0
M  V30 523 H 49.3014 -1.4146 0.26927 0
M  V30 524 H 51.2544 -3.85477 -1.70251 0
M  V30 525 H 49.9784 -2.63343 -1.93179 0
M  V30 526 H 48.6374 -3.66541 -0.0656164 0
M  V30 527 H 48.2854 -4.4048 -2.42871 0
M  V30 528 H 47.9854 -5.7345 -1.28174 0
M  V30 529 H 49.5094 -5.6908 -2.21314 0
M  V30 530 H 50.9234 -5.73271 0.0579047 0
M  V30 531 H 49.3204 -5.94469 0.820165 0
M  V30 532 H 50.3904 -4.64777 1.3824 0
M  V30 533 N 51.7335 -0.305618 -1.54608 0
M  V30 534 C 52.9795 0.302746 -2.00528 0
M  V30 535 C 53.3125 1.53184 -1.19367 0
M  V30 536 O 52.5875 1.92598 -0.271321 0
M  V30 537 C 52.8705 0.654756 -3.54097 0
M  V30 538 C 52.7235 -0.583793 -4.45995 0
M  V30 539 C 54.0425 1.47947 -4.14487 0
M  V30 540 H 51.1615 0.108564 -0.72896 0
M  V30 541 H 53.8035 -0.418634 -1.85331 0
M  V30 542 H 51.9535 1.26935 -3.67178 0
M  V30 543 H 53.6255 -1.22224 -4.44814 0
M  V30 544 H 51.8685 -1.21615 -4.16404 0
M  V30 545 H 52.5395 -0.293287 -5.5122 0
M  V30 546 H 55.0155 0.96013 -4.04871 0
M  V30 547 H 53.8915 1.69454 -5.22088 0
M  V30 548 H 54.1525 2.47011 -3.66658 0
M  V30 549 N 53.2116 1.57565 -0.0334293 0
M  V30 550 C 54.4606 1.91155 0.643639 0
M  V30 551 C 54.7736 0.91192 1.73042 0
M  V30 552 O 55.9796 1.13923 2.46442 0
M  V30 553 C 54.4356 3.39443 1.1961 0
M  V30 554 C 54.0436 4.47774 0.142381 0
M  V30 555 C 55.7876 3.82094 1.84944 0
M  V30 556 C 53.6946 5.87162 0.706727 0
M  V30 557 H 52.6246 0.713368 0.244176 0
M  V30 558 H 55.2756 1.8323 -0.0994323 0
M  V30 559 H 53.6576 3.42313 1.99092 0
M  V30 560 H 54.8316 4.56469 -0.630296 0
M  V30 561 H 53.1466 4.14352 -0.412446 0
M  V30 562 H 55.7436 4.83591 2.2813 0
M  V30 563 H 56.0866 3.17386 2.69392 0
M  V30 564 H 56.6196 3.81665 1.12145 0
M  V30 565 H 53.3586 6.55424 -0.0997178 0
M  V30 566 H 52.8786 5.82064 1.44779 0
M  V30 567 H 54.5576 6.35866 1.19514 0
M  V30 568 N 54.6897 -0.239769 1.55765 0
M  V30 569 C 55.9667 -0.990056 1.68693 0
M  V30 570 C 56.3467 -2.03107 0.5754 0
M  V30 571 O 55.6947 -2.24604 -0.42017 0
M  V30 572 C 55.9047 -1.61696 3.09282 0
M  V30 573 C 57.2527 -2.11613 3.6811 0
M  V30 574 O 58.2767 -1.71624 3.12127 0
M  V30 575 O 57.1357 -2.85057 4.66267 0
M  V30 576 H 54.2297 -0.461299 0.686391 0
M  V30 577 H 56.7757 -0.232991 1.68093 0
M  V30 578 H 55.5477 -0.864357 3.81634 0
M  V30 579 H 55.1707 -2.44005 3.13923 0
M  V30 580 N 56.1678 -1.49265 -0.50573 0
M  V30 581 C 57.0778 -1.68312 -1.63427 0
M  V30 582 C 58.0938 -0.565682 -1.64548 0
M  V30 583 O 59.2698 -0.839801 -1.83055 0
M  V30 584 C 56.3348 -1.74107 -2.99813 0
M  V30 585 C 55.3958 -2.97653 -3.09356 0
M  V30 586 C 54.6288 -3.03163 -4.39236 0
M  V30 587 O 54.8518 -2.16396 -5.27758 0
M  V30 588 O 53.7858 -3.9558 -4.53652 0
M  V30 589 H 57.6118 -2.63907 -1.50289 0
M  V30 590 H 55.1968 -1.32951 -0.681502 0
M  V30 591 H 57.0788 -1.803 -3.80881 0
M  V30 592 H 55.7538 -0.816901 -3.13223 0
M  V30 593 H 54.6608 -2.96981 -2.27493 0
M  V30 594 H 55.9938 -3.89535 -3.00871 0
M  V30 595 N 57.6459 0.756429 -1.3826 0
M  V30 596 C 58.9229 1.50584 -1.24835 0
M  V30 597 C 59.3029 2.10556 0.151485 0
M  V30 598 O 58.6509 1.96825 1.1607 0
M  V30 599 C 58.8609 2.57448 -2.3563 0
M  V30 600 C 60.2089 3.24429 -2.73917 0
M  V30 601 O 61.2329 2.67751 -2.34921 0
M  V30 602 O 60.0919 4.26937 -3.41156 0
M  V30 603 H 57.1859 0.667664 -0.48801 0
M  V30 604 H 59.7319 0.792083 -1.5008 0
M  V30 605 H 58.5039 2.11362 -3.29305 0
M  V30 606 H 58.1269 3.36408 -2.11933 0
M  V30 607 N 59.124 1.23083 0.984299 0
M  V30 608 C 60.087 1.00979 2.05757 0
M  V30 609 C 61.087 -0.0269573 1.60777 0
M  V30 610 O 62.277 0.212403 1.729 0
M  V30 611 C 59.409 0.527072 3.36801 0
M  V30 612 H 60.602 1.9622 2.26799 0
M  V30 613 H 58.155 1.05072 1.15714 0
M  V30 614 H 58.89 -0.429294 3.21446 0
M  V30 615 H 58.675 1.27515 3.70786 0
M  V30 616 H 60.165 0.392942 4.15747 0
M  V30 617 N 60.6021 -1.18246 1.0419 0
M  V30 618 C 61.5121 -2.25574 0.644476 0
M  V30 619 C 62.5281 -1.70845 -0.329826 0
M  V30 620 O 63.7041 -2.00554 -0.184443 0
M  V30 621 C 60.7691 -3.46697 0.014877 0
M  V30 622 C 59.8301 -4.16554 1.03834 0
M  V30 623 C 59.0631 -5.31894 0.438692 0
M  V30 624 O 59.2861 -5.65385 -0.754752 0
M  V30 625 O 58.2201 -5.90459 1.168 0
M  V30 626 H 62.0461 -2.61836 1.53869 0
M  V30 627 H 59.6311 -1.25352 0.812854 0
M  V30 628 H 61.5131 -4.20062 -0.335538 0
M  V30 629 H 60.1881 -3.12255 -0.853138 0
M  V30 630 H 59.0951 -3.45251 1.44057 0
M  V30 631 H 60.4281 -4.54998 1.87716 0
M  V30 632 N 62.0802 -0.821533 -1.34494 0
M  V30 633 C 63.4912 -0.467956 -1.8074 0
M  V30 634 C 63.8422 1.01151 -1.68116 0
M  V30 635 O 62.9672 1.78707 -1.22036 0
M  V30 636 C 63.5622 -0.842627 -3.28154 0
M  V30 637 C 62.1212 -0.541439 -3.72485 0
M  V30 638 C 61.2682 -1.06028 -2.56229 0
M  V30 639 H 64.2192 -1.01183 -1.22261 0
M  V30 640 H 64.2402 -0.145876 -3.8022 0
M  V30 641 H 63.7522 -1.91945 -3.37311 0
M  V30 642 H 61.8532 0.526034 -3.68868 0
M  V30 643 H 61.9662 -1.08453 -4.66663 0
M  V30 644 H 60.3302 -0.481892 -2.501 0
M  V30 645 H 61.1132 -2.14352 -2.68157 0
M  V30 646 N 63.5583 1.46682 -0.576371 0
M  V30 647 C 64.5213 2.28707 0.150239 0
M  V30 648 C 65.5213 1.38035 0.824794 0
M  V30 649 O 66.7113 1.60476 0.677719 0
M  V30 650 C 63.8433 3.18248 1.22192 0
M  V30 651 H 65.0363 2.94423 -0.570521 0
M  V30 652 H 62.5893 1.52688 -0.334078 0
M  V30 653 H 63.3243 2.57265 1.97447 0
M  V30 654 H 63.1093 3.85 0.742812 0
M  V30 655 H 64.5993 3.80001 1.73172 0
M  V30 656 N 65.0364 0.313813 1.54444 0
M  V30 657 C 65.9994 -0.54379 2.22656 0
M  V30 658 C 66.9994 -1.05124 1.21678 0
M  V30 659 O 68.1894 -0.945225 1.46325 0
M  V30 660 C 65.3214 -1.75427 2.92298 0
M  V30 661 H 66.5144 0.0523599 2.99854 0
M  V30 662 H 64.0674 0.0647834 1.56166 0
M  V30 663 H 64.8024 -2.38991 2.19211 0
M  V30 664 H 64.5874 -1.39791 3.66334 0
M  V30 665 H 66.0774 -2.36325 3.44297 0
M  V30 666 N 66.5145 -1.57545 0.0417849 0
M  V30 667 C 67.7625 -1.91937 -0.632829 0
M  V30 668 C 68.0835 -0.919978 -1.71934 0
M  V30 669 O 67.3535 0.0366064 -1.95866 0
M  V30 670 H 65.9335 -0.708493 -0.236742 0
M  V30 671 H 68.5955 -1.9468 0.0925745 0
M  V30 672 H 67.6915 -2.92912 -1.07746 0
M  V30 673 N 67.9926 0.231505 -1.5589 0
M  V30 674 C 69.2206 0.974505 -1.82513 0
M  V30 675 C 69.6356 1.78344 -0.619591 0
M  V30 676 O 68.9926 1.77792 0.411848 0
M  V30 677 C 69.0436 1.90007 -3.07538 0
M  V30 678 O 68.7646 1.12385 -4.2344 0
M  V30 679 C 70.2656 2.75779 -3.47075 0
M  V30 680 H 67.4856 0.286065 -0.606966 0
M  V30 681 H 70.0296 0.249739 -2.02969 0
M  V30 682 H 68.1846 2.57891 -2.89086 0
M  V30 683 H 68.5986 1.75125 -4.944 0
M  V30 684 H 70.0726 3.36443 -4.37619 0
M  V30 685 H 70.5496 3.47672 -2.68367 0
M  V30 686 H 71.1556 2.13323 -3.67931 0
M  V30 687 N 69.4707 1.49531 0.497807 0
M  V30 688 C 70.6957 1.63159 1.28039 0
M  V30 689 C 71.1207 0.30418 1.85624 0
M  V30 690 O 70.4787 -0.728618 1.66015 0
M  V30 691 C 70.5267 2.70537 2.38416 0
M  V30 692 O 69.6307 2.29931 3.42353 0
M  V30 693 H 68.9717 0.546001 0.377861 0
M  V30 694 H 71.5017 1.9574 0.59558 0
M  V30 695 H 71.5117 2.92802 2.84132 0
M  V30 696 H 70.1867 3.6689 1.95869 0
M  V30 697 H 68.7637 2.18009 3.02533 0
M  V30 698 N 70.9488 -0.749086 1.3866 0
M  V30 699 C 72.1968 -1.50535 1.34847 0
M  V30 700 C 72.5178 -1.94909 -0.0595016 0
M  V30 701 O 71.7878 -1.67973 -1.00806 0
M  V30 702 H 70.3678 -0.558395 0.49619 0
M  V30 703 H 73.0298 -0.890165 1.73384 0
M  V30 704 H 72.1258 -2.39413 2.00219 0
M  V30 705 N 72.4269 -1.23603 -0.977757 0
M  V30 706 C 73.6749 -1.06759 -1.71601 0
M  V30 707 C 73.9959 0.395929 -1.90938 0
M  V30 708 O 73.2659 1.28356 -1.47992 0
M  V30 709 H 71.8459 -0.392062 -0.635843 0
M  V30 710 H 74.5079 -1.55362 -1.1768 0
M  V30 711 H 73.6039 -1.55763 -2.70452 0
M  V30 712 N 73.905 1.17692 -1.04816 0
M  V30 713 C 74.835 2.23777 -0.666791 0
M  V30 714 C 75.816 1.66796 0.33361 0
M  V30 715 O 77.001 1.93039 0.212042 0
M  V30 716 C 74.131 3.47281 -0.0367933 0
M  V30 717 C 73.085 4.17059 -0.961546 0
M  V30 718 C 72.411 5.34342 -0.195626 0
M  V30 719 C 73.711 4.69713 -2.28402 0
M  V30 720 H 75.405 2.55933 -1.55367 0
M  V30 721 H 72.951 1.23019 -0.748484 0
M  V30 722 H 74.904 4.20706 0.241775 0
M  V30 723 H 73.628 3.14381 0.885004 0
M  V30 724 H 72.287 3.45541 -1.22462 0
M  V30 725 H 71.935 4.97692 0.728816 0
M  V30 726 H 71.635 5.81966 -0.811775 0
M  V30 727 H 73.159 6.10553 0.0757473 0
M  V30 728 H 74.573 5.34794 -2.06563 0
M  V30 729 H 72.97 5.279 -2.8538 0
M  V30 730 H 74.04 3.86726 -2.92525 0
M  V30 731 N 75.3831 0.828654 1.34056 0
M  V30 732 C 76.2931 0.256725 2.33191 0
M  V30 733 C 77.3091 -0.611898 1.62886 0
M  V30 734 O 78.4851 -0.51844 1.94613 0
M  V30 735 C 75.5501 -0.567238 3.42028 0
M  V30 736 C 74.6111 0.324458 4.28072 0
M  V30 737 C 73.8441 -0.460274 5.31712 0
M  V30 738 O 74.0671 -1.693 5.44696 0
M  V30 739 O 73.0011 0.160391 6.01686 0
M  V30 740 H 76.8271 1.07739 2.83947 0
M  V30 741 H 74.4121 0.59093 1.37217 0
M  V30 742 H 76.2941 -1.03582 4.08471 0
M  V30 743 H 74.9691 -1.36513 2.93506 0
M  V30 744 H 73.8761 0.840659 3.64532 0
M  V30 745 H 75.2091 1.08685 4.8005 0
M  V30 746 N 76.8612 -1.46375 0.584142 0
M  V30 747 C 78.1092 -2.01978 0.0701287 0
M  V30 748 C 78.4302 -1.4579 -1.295 0
M  V30 749 O 77.7002 -0.64314 -1.85042 0
M  V30 750 H 76.2802 -0.746648 0.0229345 0
M  V30 751 H 78.9422 -1.79461 0.760245 0
M  V30 752 H 78.0382 -3.121 0.0022064 0
M  V30 753 N 78.3393 -0.321999 -1.54275 0
M  V30 754 C 79.5873 0.280489 -2.00144 0
M  V30 755 C 79.9083 1.52777 -1.21178 0
M  V30 756 O 79.1783 1.9338 -0.313187 0
M  V30 757 H 77.7583 0.106632 -0.73935 0
M  V30 758 H 80.4203 -0.438184 -1.8991 0
M  V30 759 H 79.5163 0.537972 -3.07428 0
M  V30 760 N 79.8174 1.5752 -0.0501392 0
M  V30 761 C 81.0654 1.9227 0.622642 0
M  V30 762 C 81.3864 0.929083 1.71444 0
M  V30 763 O 80.6564 -0.0262186 1.95882 0
M  V30 764 H 79.2364 0.709739 0.232981 0
M  V30 765 H 81.8984 1.94628 -0.102898 0
M  V30 766 H 80.9944 2.93479 1.06191 0
M  V30 767 N 81.2955 -0.223234 1.56011 0
M  V30 768 C 82.5435 -0.946003 1.78592 0
M  V30 769 C 82.8645 -1.84936 0.618349 0
M  V30 770 O 82.1345 -1.92473 -0.364833 0
M  V30 771 H 80.7145 -0.352298 0.658707 0
M  V30 772 H 83.3765 -0.235494 1.93472 0
M  V30 773 H 82.4725 -1.55381 2.70672 0
M  V30 774 N 82.7736 -1.49793 -0.48987 0
M  V30 775 C 84.0506 -1.50348 -1.25119 0
M  V30 776 C 84.4306 -0.237466 -2.0976 0
M  V30 777 O 83.7786 0.77981 -2.14782 0
M  V30 778 C 83.9886 -2.78872 -2.09837 0
M  V30 779 C 85.3366 -3.288 -2.68655 0
M  V30 780 O 86.3606 -2.80065 -2.20096 0
M  V30 781 O 85.2196 -4.13707 -3.57083 0
M  V30 782 H 82.3136 -0.602242 -0.566775 0
M  V30 783 H 84.8596 -1.62067 -0.503229 0
M  V30 784 H 83.6316 -3.62499 -1.47343 0
M  V30 785 H 83.2546 -2.70066 -2.91805 0
M  V30 786 N 84.2517 0.741722 -1.39055 0
M  V30 787 C 85.5287 1.49252 -1.26425 0
M  V30 788 C 85.9087 2.10705 0.129144 0
M  V30 789 O 85.2567 1.98045 1.13976 0
M  V30 790 C 85.4667 2.54934 -2.38347 0
M  V30 791 C 86.8147 3.21506 -2.77343 0
M  V30 792 O 87.8387 2.65245 -2.37747 0
M  V30 793 O 86.6977 4.23294 -3.45665 0
M  V30 794 H 83.7917 0.662451 -0.495064 0
M  V30 795 H 86.3377 0.776121 -1.50912 0
M  V30 796 H 85.1097 2.07857 -3.31529 0
M  V30 797 H 84.7327 3.34141 -2.15489 0
M  V30 798 N 85.7298 1.2412 0.971189 0
M  V30 799 C 86.6398 1.04747 2.09917 0
M  V30 800 C 87.6558 -0.0107162 1.73997 0
M  V30 801 O 88.8318 0.186714 2.00533 0
M  V30 802 C 85.8968 0.650828 3.40537 0
M  V30 803 C 84.9578 1.7851 3.90426 0
M  V30 804 C 84.1908 1.40729 5.14812 0
M  V30 805 O 84.4138 0.29557 5.69634 0
M  V30 806 O 83.3478 2.23168 5.58999 0
M  V30 807 H 87.1738 1.99304 2.29154 0
M  V30 808 H 84.7588 1.02908 1.08307 0
M  V30 809 H 86.6408 0.440992 4.19086 0
M  V30 810 H 85.3158 -0.265649 3.22608 0
M  V30 811 H 84.2228 2.04966 3.12953 0
M  V30 812 H 85.5558 2.68023 4.12825 0
M  V30 813 N 87.2079 -1.17134 1.05439 0
M  V30 814 C 88.4849 -1.83411 0.679699 0
M  V30 815 C 88.8649 -1.9368 -0.839726 0
M  V30 816 O 88.2129 -1.47325 -1.74664 0
M  V30 817 C 88.4229 -3.20918 1.37159 0
M  V30 818 C 89.7709 -3.96796 1.51123 0
M  V30 819 O 90.7949 -3.30406 1.3308 0
M  V30 820 O 89.6539 -5.15778 1.80651 0
M  V30 821 H 86.7479 -0.79154 0.239569 0
M  V30 822 H 89.2939 -1.24411 1.15413 0
M  V30 823 H 88.0659 -3.08428 2.40807 0
M  V30 824 H 87.6889 -3.87587 0.886674 0
M  V30 825 N 88.686 -0.835752 -1.33615 0
M  V30 826 C 89.934 -0.429109 -1.97492 0
M  V30 827 C 90.255 1.01433 -1.66543 0
M  V30 828 O 89.525 1.70611 -0.962744 0
M  V30 829 H 88.105 -0.155686 -0.730596 0
M  V30 830 H 90.767 -1.06802 -1.63031 0
M  V30 831 H 89.863 -0.55861 -3.0706 0
M  V30 832 N 90.1641 1.46063 -0.591896 0
M  V30 833 C 91.0741 2.34192 0.13831 0
M  V30 834 C 92.0901 1.50305 0.876608 0
M  V30 835 O 93.2661 1.8315 0.837728 0
M  V30 836 C 90.3311 3.27656 1.13326 0
M  V30 837 C 89.3921 4.27445 0.39863 0
M  V30 838 C 88.6251 5.16443 1.34618 0
M  V30 839 O 88.8481 5.08553 2.58321 0
M  V30 840 O 87.7821 5.95843 0.851768 0
M  V30 841 H 91.6081 2.98002 -0.58552 0
M  V30 842 H 89.1931 1.45188 -0.352239 0
M  V30 843 H 91.0751 3.85291 1.70671 0
M  V30 844 H 89.7501 2.6643 1.83839 0
M  V30 845 H 88.6571 3.73471 -0.216895 0
M  V30 846 H 89.9901 4.91482 -0.265709 0
M  V30 847 N 91.6422 0.330177 1.54103 0
M  V30 848 C 92.9192 -0.325007 1.92881 0
M  V30 849 C 93.2992 -1.6934 1.26045 0
M  V30 850 O 92.6472 -2.24855 0.406526 0
M  V30 851 C 92.8572 -0.410634 3.46576 0
M  V30 852 C 94.2052 -0.667801 4.19316 0
M  V30 853 O 95.2292 -0.49329 3.52768 0
M  V30 854 O 94.0882 -1.00491 5.37181 0
M  V30 855 H 91.1822 -0.186873 0.80561 0
M  V30 856 H 93.7282 0.380376 1.65382 0
M  V30 857 H 92.5002 0.550164 3.87413 0
M  V30 858 H 92.1232 -1.16333 3.802 0
M  V30 859 N 93.1203 -1.57491 0.0584922 0
M  V30 860 C 94.3683 -1.92597 -0.612436 0
M  V30 861 C 94.6893 -0.938162 -1.70949 0
M  V30 862 O 93.9593 0.0158301 -1.95894 0
M  V30 863 H 92.5393 -0.710964 -0.229214 0
M  V30 864 H 95.2013 -1.94571 0.113218 0
M  V30 865 H 94.2973 -2.94038 -1.04633 0
M  V30 866 N 94.5984 0.214957 -1.56127 0
M  V30 867 C 95.5484 1.27006 -1.8935 0
M  V30 868 C 96.5324 1.41969 -0.757202 0
M  V30 869 O 97.7244 1.44673 -1.01973 0
M  V30 870 C 94.8534 2.61911 -2.2194 0
M  V30 871 C 93.9394 2.50822 -3.41978 0
M  V30 872 N 94.3304 2.09391 -4.60423 0
M  V30 873 C 92.6284 2.81765 -3.45723 0
M  V30 874 C 93.3294 2.09712 -5.42582 0
M  V30 875 N 92.3054 2.50454 -4.82466 0
M  V30 876 H 96.1074 0.940734 -2.78437 0
M  V30 877 H 93.6214 0.423492 -1.56781 0
M  V30 878 H 95.6184 3.38096 -2.43919 0
M  V30 879 H 94.2784 2.95684 -1.34169 0
M  V30 880 H 95.2894 1.80416 -4.85459 0
M  V30 881 H 91.9664 3.19865 -2.68314 0
M  V30 882 H 93.3564 1.79748 -6.4741 0
M  V30 883 N 96.0765 1.50051 0.48192 0
M  V30 884 C 97.0395 1.67584 1.5636 0
M  V30 885 C 98.0395 0.546894 1.51214 0
M  V30 886 O 99.2295 0.813725 1.54026 0
M  V30 887 C 96.3615 1.691 2.96003 0
M  V30 888 H 97.5545 2.64078 1.42136 0
M  V30 889 H 95.1075 1.39369 0.707533 0
M  V30 890 H 95.8425 0.742589 3.15684 0
M  V30 891 H 95.6275 2.51105 3.01146 0
M  V30 892 H 97.1175 1.84656 3.74556 0
M  V30 893 N 97.5546 -0.734337 1.39446 0
M  V30 894 C 98.4846 -1.86155 1.40955 0
M  V30 895 C 99.4656 -1.67898 0.272827 0
M  V30 896 O 100.651 -1.88207 0.478743 0
M  V30 897 C 97.7806 -3.23912 1.25294 0
M  V30 898 C 96.7346 -3.56808 2.36373 0
M  V30 899 C 96.0606 -4.93508 2.058 0
M  V30 900 C 97.3606 -3.59713 3.78687 0
M  V30 901 H 99.0546 -1.8515 2.35287 0
M  V30 902 H 96.6006 -0.889367 1.13253 0
M  V30 903 H 98.5536 -4.02443 1.2497 0
M  V30 904 H 97.2776 -3.25446 0.274308 0
M  V30 905 H 95.9366 -2.80606 2.35914 0
M  V30 906 H 95.5846 -4.91623 1.06374 0
M  V30 907 H 95.2846 -5.16486 2.80208 0
M  V30 908 H 96.8086 -5.74396 2.07128 0
M  V30 909 H 98.2226 -4.2832 3.81071 0
M  V30 910 H 96.6196 -3.94209 4.52459 0
M  V30 911 H 97.6896 -2.59504 4.09617 0
M  V30 912 N 99.0327 -1.24633 -0.964593 0
M  V30 913 C 100.444 -1.08045 -1.5226 0
M  V30 914 C 100.795 0.347116 -1.93105 0
M  V30 915 O 99.9197 1.23588 -1.77637 0
M  V30 916 C 100.515 -1.95514 -2.76695 0
M  V30 917 C 99.0737 -1.8314 -3.28841 0
M  V30 918 C 98.2207 -1.90262 -2.01732 0
M  V30 919 H 101.172 -1.38064 -0.782553 0
M  V30 920 H 101.193 -1.48925 -3.50145 0
M  V30 921 H 100.705 -2.99407 -2.46936 0
M  V30 922 H 98.8057 -0.82092 -3.63444 0
M  V30 923 H 98.9187 -2.67406 -3.97531 0
M  V30 924 H 97.2827 -1.34027 -2.16584 0
M  V30 925 H 98.0657 -2.9574 -1.74334 0
M  V30 926 N 100.511 1.16574 -1.06058 0
M  V30 927 C 101.788 1.83048 -0.689416 0
M  V30 928 C 102.168 1.94122 0.829443 0
M  V30 929 O 101.516 1.48249 1.7388 0
M  V30 930 C 101.726 3.20186 -1.38859 0
M  V30 931 C 103.074 3.95989 -1.53226 0
M  V30 932 O 104.098 3.29696 -1.3483 0
M  V30 933 O 102.957 5.14813 -1.83384 0
M  V30 934 H 100.051 0.790258 -0.243764 0
M  V30 935 H 102.597 1.23797 -1.16071 0
M  V30 936 H 101.369 3.07146 -2.4244 0
M  V30 937 H 100.992 3.87112 -0.907216 0
M  V30 938 N 101.989 0.842826 1.3317 0
M  V30 939 C 102.919 0.294028 2.31641 0
M  V30 940 C 103.9 -0.600401 1.59151 0
M  V30 941 O 105.085 -0.523124 1.87022 0
M  V30 942 C 102.215 -0.528416 3.43257 0
M  V30 943 C 101.169 0.27056 4.27144 0
M  V30 944 C 100.495 -0.675881 5.30411 0
M  V30 945 C 101.795 1.48981 5.00602 0
M  V30 946 H 103.489 1.11681 2.77791 0
M  V30 947 H 101.035 0.538478 1.33553 0
M  V30 948 H 102.988 -0.922674 4.11175 0
M  V30 949 H 101.712 -1.38445 2.95805 0
M  V30 950 H 100.371 0.646427 3.60856 0
M  V30 951 H 100.019 -1.52842 4.79216 0
M  V30 952 H 99.7189 -0.145374 5.8742 0
M  V30 953 H 101.243 -1.06757 6.01195 0
M  V30 954 H 102.657 1.16849 5.61266 0
M  V30 955 H 101.054 1.95739 5.6728 0
M  V30 956 H 102.124 2.25746 4.29147 0
M  V30 957 N 103.467 -1.45747 0.599634 0
M  V30 958 C 104.744 -1.95585 0.0240846 0
M  V30 959 C 105.124 -1.54217 -1.44154 0
M  V30 960 O 104.472 -0.800903 -2.14004 0
M  V30 961 C 104.682 -3.48344 0.21385 0
M  V30 962 C 106.03 -4.24504 0.0904902 0
M  V30 963 O 107.054 -3.55911 0.143558 0
M  V30 964 O 105.913 -5.46491 -0.0310766 0
M  V30 965 H 103.007 -0.82602 -0.0402478 0
M  V30 966 H 105.553 -1.55951 0.669139 0
M  V30 967 H 104.325 -3.71397 1.23206 0
M  V30 968 H 103.948 -3.9485 -0.466842 0
M  V30 969 N 104.945 -0.338344 -1.53925 0
M  V30 970 C 106.222 0.314774 -1.93051 0
M  V30 971 C 106.602 1.68669 -1.26941 0
M  V30 972 O 105.95 2.24636 -0.418445 0
M  V30 973 C 106.16 0.392249 -3.46789 0
M  V30 974 C 107.508 0.645554 -4.19664 0
M  V30 975 O 108.532 0.474575 -3.53024 0
M  V30 976 O 107.391 0.976408 -5.37707 0
M  V30 977 H 104.485 0.182598 -0.80659 0
M  V30 978 H 107.031 -0.389141 -1.65178 0
M  V30 979 H 105.803 -0.570702 -3.87116 0
M  V30 980 H 105.426 1.14316 -3.80812 0
M  V30 981 N 106.423 1.57458 -0.0668435 0
M  V30 982 C 107.7 1.8469 0.644132 0
M  V30 983 C 108.08 0.958343 1.88093 0
M  V30 984 O 107.428 0.0233579 2.28488 0
M  V30 985 C 107.638 3.34767 0.986509 0
M  V30 986 C 108.986 4.02159 1.36212 0
M  V30 987 O 110.01 3.39484 1.07839 0
M  V30 988 O 108.869 5.12694 1.89227 0
M  V30 989 H 105.963 0.762816 0.319437 0
M  V30 990 H 108.509 1.6942 -0.0973986 0
M  V30 991 H 107.281 3.91151 0.107883 0
M  V30 992 H 106.904 3.55281 1.78497 0
M  V30 993 N 107.901 -0.206675 1.56239 0
M  V30 994 C 108.831 -1.25909 1.96645 0
M  V30 995 C 109.812 -1.48097 0.836734 0
M  V30 996 O 110.997 -1.6003 1.10019 0
M  V30 997 C 108.127 -2.6058 2.29599 0
M  V30 998 C 107.081 -2.53024 3.452 0
M  V30 999 C 106.407 -3.91861 3.63798 0
M  V30 1000 C 107.707 -2.06524 4.79734 0
M  V30 1001 H 109.401 -0.923369 2.84806 0
M  V30 1002 H 106.947 -0.442735 1.37025 0
M  V30 1003 H 108.9 -3.34375 2.56459 0
M  V30 1004 H 107.624 -2.95869 1.38307 0
M  V30 1005 H 106.283 -1.81684 3.18412 0
M  V30 1006 H 105.931 -4.24483 2.69857 0
M  V30 1007 H 105.631 -3.87683 4.4156 0
M  V30 1008 H 107.155 -4.67296 3.93022 0
M  V30 1009 H 108.569 -2.70072 5.05702 0
M  V30 1010 H 106.966 -2.13374 5.60885 0
M  V30 1011 H 108.036 -1.01802 4.74093 0
M  V30 1012 N 109.379 -1.50304 -0.473955 0
M  V30 1013 C 110.309 -1.71886 -1.58042 0
M  V30 1014 C 111.29 -0.567799 -1.60344 0
M  V30 1015 O 112.475 -0.806623 -1.76656 0
M  V30 1016 C 109.605 -1.81036 -2.96384 0
M  V30 1017 C 108.559 -2.962 -3.08949 0
M  V30 1018 C 107.885 -2.9049 -4.48909 0
M  V30 1019 C 109.185 -4.36752 -2.86434 0
M  V30 1020 H 110.879 -2.64527 -1.40234 0
M  V30 1021 H 108.425 -1.27295 -0.673201 0
M  V30 1022 H 110.378 -1.94719 -3.73714 0
M  V30 1023 H 109.102 -0.850147 -3.15341 0
M  V30 1024 H 107.761 -2.82164 -2.3405 0
M  V30 1025 H 107.409 -1.92321 -4.64781 0
M  V30 1026 H 107.109 -3.67802 -4.58253 0
M  V30 1027 H 108.633 -3.06218 -5.28264 0
M  V30 1028 H 110.047 -4.5133 -3.53517 0
M  V30 1029 H 108.444 -5.15493 -3.07225 0
M  V30 1030 H 109.514 -4.49321 -1.82316 0
M  V30 1031 N 110.857 0.726932 -1.39834 0
M  V30 1032 C 111.787 1.85405 -1.41941 0
M  V30 1033 C 112.768 1.67751 -0.281728 0
M  V30 1034 O 113.953 1.8795 -0.488717 0
M  V30 1035 C 111.083 3.23243 -1.2701 0
M  V30 1036 C 110.037 3.55549 -2.38262 0
M  V30 1037 C 109.363 4.9241 -2.08415 0
M  V30 1038 C 110.663 3.577 -3.80589 0
M  V30 1039 H 112.357 1.83899 -2.36266 0
M  V30 1040 H 109.903 0.883349 -1.13723 0
M  V30 1041 H 111.856 4.01775 -1.27103 0
M  V30 1042 H 110.58 3.25296 -0.291564 0
M  V30 1043 H 109.239 2.79351 -2.37399 0
M  V30 1044 H 108.887 4.91052 -1.0898 0
M  V30 1045 H 108.587 5.14992 -2.82943 0
M  V30 1046 H 110.111 5.73289 -2.10171 0
M  V30 1047 H 111.525 4.26293 -3.83337 0
M  V30 1048 H 109.922 3.91804 -4.54543 0
M  V30 1049 H 110.992 2.57328 -4.10987 0
M  V30 1050 N 112.336 1.25143 0.95797 0
M  V30 1051 C 113.268 1.01023 2.05735 0
M  V30 1052 C 114.281 -0.0236902 1.62783 0
M  V30 1053 O 115.47 0.21448 1.77207 0
M  V30 1054 C 112.57 0.504595 3.35122 0
M  V30 1055 C 111.743 1.6039 4.06932 0
M  V30 1056 C 110.802 1.09922 5.14591 0
M  V30 1057 O 109.828 1.79293 5.40225 0
M  V30 1058 N 111.03 -0.0612545 5.80468 0
M  V30 1059 H 113.795 1.95683 2.26998 0
M  V30 1060 H 111.356 1.16303 1.12629 0
M  V30 1061 H 113.348 0.151516 4.04416 0
M  V30 1062 H 111.918 -0.347989 3.10657 0
M  V30 1063 H 111.138 2.12872 3.31782 0
M  V30 1064 H 112.426 2.34252 4.51667 0
M  V30 1065 H 111.824 -0.640985 5.62057 0
M  V30 1066 H 110.381 -0.355395 6.5083 0
M  V30 1067 N 113.814 -1.1601 1.06675 0
M  V30 1068 C 115.061 -1.86633 0.785781 0
M  V30 1069 C 115.389 -1.81929 -0.687896 0
M  V30 1070 O 114.644 -1.23253 -1.52011 0
M  V30 1071 C 114.943 -3.35547 1.23057 0
M  V30 1072 C 114.609 -3.60448 2.70902 0
M  V30 1073 C 113.271 -3.66954 3.11285 0
M  V30 1074 C 115.623 -3.7071 3.66365 0
M  V30 1075 C 112.951 -3.81225 4.45965 0
M  V30 1076 C 115.303 -3.86503 5.00797 0
M  V30 1077 C 113.967 -3.91252 5.40813 0
M  V30 1078 H 113.237 -0.682937 0.287538 0
M  V30 1079 H 115.884 -1.37146 1.33654 0
M  V30 1080 H 114.189 -3.87193 0.59907 0
M  V30 1081 H 115.886 -3.88583 0.990163 0
M  V30 1082 H 112.476 -3.56021 2.38636 0
M  V30 1083 H 116.66 -3.64991 3.36296 0
M  V30 1084 H 111.916 -3.83155 4.76447 0
M  V30 1085 H 116.09 -3.93385 5.74649 0
M  V30 1086 H 113.717 -4.02062 6.45174 0
M  V30 1087 N 115.292 -0.849877 -1.32721 0
M  V30 1088 C 116.202 -0.293791 -2.32753 0
M  V30 1089 C 117.218 0.585906 -1.63839 0
M  V30 1090 O 118.394 0.487413 -1.95413 0
M  V30 1091 C 115.459 0.512752 -3.42887 0
M  V30 1092 C 114.52 -0.39252 -4.27502 0
M  V30 1093 C 113.753 0.375625 -5.32377 0
M  V30 1094 O 113.976 1.60613 -5.4732 0
M  V30 1095 O 112.91 -0.256094 -6.01355 0
M  V30 1096 H 116.736 -1.12242 -2.82197 0
M  V30 1097 H 114.321 -0.612685 -1.36259 0
M  V30 1098 H 116.203 0.970704 -4.10067 0
M  V30 1099 H 114.878 1.31826 -2.95641 0
M  V30 1100 H 113.785 -0.898547 -3.63149 0
M  V30 1101 H 115.118 -1.16309 -4.7826 0
M  V30 1102 N 116.77 1.45427 -0.607355 0
M  V30 1103 C 118.181 1.85756 -0.187535 0
M  V30 1104 C 118.532 1.5077 1.25551 0
M  V30 1105 O 117.657 0.93427 1.95193 0
M  V30 1106 C 118.252 3.37154 -0.333572 0
M  V30 1107 C 116.811 3.76387 0.0315542 0
M  V30 1108 C 115.958 2.69377 -0.658117 0
M  V30 1109 H 118.909 1.36231 -0.81405 0
M  V30 1110 H 118.93 3.78014 0.43428 0
M  V30 1111 H 118.442 3.62586 -1.38393 0
M  V30 1112 H 116.543 3.56571 1.0811 0
M  V30 1113 H 116.656 4.77731 -0.361935 0
M  V30 1114 H 115.02 2.5452 -0.0957873 0
M  V30 1115 H 115.803 2.97646 -1.7106 0
M  V30 1116 N 118.248 0.346503 1.53744 0
M  V30 1117 C 119.181 -0.552023 2.21423 0
M  V30 1118 C 120.159 -1.09798 1.19929 0
M  V30 1119 O 121.343 -1.1577 1.4876 0
M  V30 1120 C 118.47 -1.75972 2.89398 0
M  V30 1121 C 117.516 -1.34295 4.04805 0
M  V30 1122 S 118.349 -0.360263 5.34287 0
M  V30 1123 C 119.505 -1.57473 6.05767 0
M  V30 1124 H 119.738 0.0228119 2.97291 0
M  V30 1125 H 117.271 0.130579 1.53847 0
M  V30 1126 H 119.229 -2.45256 3.2918 0
M  V30 1127 H 117.89 -2.30578 2.1329 0
M  V30 1128 H 117.083 -2.24349 4.51313 0
M  V30 1129 H 116.685 -0.729555 3.66815 0
M  V30 1130 H 118.977 -2.50875 6.29339 0
M  V30 1131 H 119.92 -1.15138 6.98676 0
M  V30 1132 H 120.328 -1.77212 5.35963 0
M  V30 1133 N 119.726 -1.57421 0.075193 0
M  V30 1134 C 120.656 -2.15942 -0.888324 0
M  V30 1135 C 121.637 -1.08737 -1.30806 0
M  V30 1136 O 122.822 -1.36787 -1.37851 0
M  V30 1137 C 119.952 -2.72379 -2.1547 0
M  V30 1138 C 118.906 -3.8478 -1.87425 0
M  V30 1139 C 118.232 -4.27834 -3.20721 0
M  V30 1140 C 119.532 -5.08869 -1.17684 0
M  V30 1141 H 121.226 -2.96705 -0.400799 0
M  V30 1142 H 118.772 -1.42723 -0.191342 0
M  V30 1143 H 120.725 -3.11965 -2.83295 0
M  V30 1144 H 119.449 -1.88841 -2.6647 0
M  V30 1145 H 118.108 -3.45703 -1.22004 0
M  V30 1146 H 117.756 -3.41214 -3.6957 0
M  V30 1147 H 117.456 -5.03605 -3.02746 0
M  V30 1148 H 118.98 -4.70039 -3.89738 0
M  V30 1149 H 120.394 -5.4575 -1.75584 0
M  V30 1150 H 118.791 -5.8994 -1.09956 0
M  V30 1151 H 119.861 -4.84648 -0.156453 0
M  V30 1152 N 121.204 0.198386 -1.56346 0
M  V30 1153 C 122.615 0.763358 -1.70381 0
M  V30 1154 C 122.966 1.83995 -0.681203 0
M  V30 1155 O 122.091 2.15785 0.16305 0
M  V30 1156 C 122.686 1.39143 -3.08909 0
M  V30 1157 C 121.245 1.90352 -3.2472 0
M  V30 1158 C 120.392 0.772233 -2.6633 0
M  V30 1159 H 123.343 -0.0266377 -1.58678 0
M  V30 1160 H 123.364 2.26076 -3.06055 0
M  V30 1161 H 122.876 0.607638 -3.83314 0
M  V30 1162 H 120.977 2.71461 -2.55225 0
M  V30 1163 H 121.09 2.06757 -4.3219 0
M  V30 1164 H 119.454 1.18566 -2.2542 0
M  V30 1165 H 120.237 0.00073556 -3.433 0
M  V30 1166 N 122.682 1.50554 0.465978 0
M  V30 1167 C 124.098 1.38093 0.800154 0
M  V30 1168 C 124.298 0.440988 1.96615 0
M  V30 1169 O 123.354 -0.114499 2.5224 0
M  V30 1170 C 124.667 2.79565 1.10742 0
M  V30 1171 C 126.215 2.88516 1.21357 0
M  V30 1172 C 126.69 4.30833 1.55393 0
M  V30 1173 N 128.181 4.33807 1.62375 0
M  V30 1174 C 128.916 5.40927 1.90225 0
M  V30 1175 N 128.412 6.58247 2.16062 0
M  V30 1176 N 130.205 5.28376 1.9177 0
M  V30 1177 H 122.356 2.10237 -0.302366 0
M  V30 1178 H 124.619 0.945203 -0.0727746 0
M  V30 1179 H 124.325 3.50208 0.323661 0
M  V30 1180 H 124.199 3.17125 2.04234 0
M  V30 1181 H 126.586 2.1809 1.98799 0
M  V30 1182 H 126.667 2.54492 0.258321 0
M  V30 1183 H 126.311 5.01799 0.784889 0
M  V30 1184 H 126.241 4.62347 2.52076 0
M  V30 1185 H 128.732 3.49212 1.44427 0
M  V30 1186 H 129.045 7.3569 2.36601 0
M  V30 1187 H 127.39 6.61413 2.13444 0
M  V30 1188 H 130.581 4.35715 1.71085 0
M  V30 1189 H 130.754 6.11944 2.13139 0
M  V30 1190 N 124.16 -0.719506 1.40217 0
M  V30 1191 C 125.406 -1.48152 1.38488 0
M  V30 1192 C 125.739 -1.94195 -0.0141867 0
M  V30 1193 O 125.014 -1.67884 -0.982096 0
M  V30 1194 C 125.297 -2.71035 2.37091 0
M  V30 1195 C 125.15 -2.30912 3.86005 0
M  V30 1196 C 126.469 -3.73182 2.33288 0
M  V30 1197 H 123.588 -0.537395 0.504357 0
M  V30 1198 H 126.23 -0.821472 1.71324 0
M  V30 1199 H 124.38 -3.27352 2.0922 0
M  V30 1200 H 126.052 -1.80107 4.24687 0
M  V30 1201 H 124.295 -1.62958 4.02029 0
M  V30 1202 H 124.966 -3.18978 4.50508 0
M  V30 1203 H 127.442 -3.26485 2.57966 0
M  V30 1204 H 126.318 -4.56806 3.04334 0
M  V30 1205 H 126.579 -4.21202 1.34317 0
M  V30 1206 N 125.638 -1.25649 -0.95132 0
M  V30 1207 C 126.868 -1.13179 -1.72841 0
M  V30 1208 C 127.276 0.316827 -1.86528 0
M  V30 1209 O 126.619 1.22948 -1.3649 0
M  V30 1210 C 126.681 -1.71644 -3.15878 0
M  V30 1211 C 126.345 -3.20667 -3.25609 0
M  V30 1212 C 127.342 -4.17616 -3.09666 0
M  V30 1213 C 125.027 -3.6094 -3.49324 0
M  V30 1214 C 127.021 -5.52817 -3.17289 0
M  V30 1215 C 124.708 -4.96278 -3.56584 0
M  V30 1216 C 125.706 -5.92025 -3.40581 0
M  V30 1217 O 125.394 -7.24899 -3.47528 0
M  V30 1218 H 125.126 -0.395389 -0.54831 0
M  V30 1219 H 127.68 -1.66566 -1.20187 0
M  V30 1220 H 125.91 -1.12707 -3.69911 0
M  V30 1221 H 127.599 -1.54225 -3.75459 0
M  V30 1222 H 128.365 -3.87842 -2.91211 0
M  V30 1223 H 124.244 -2.86907 -3.6084 0
M  V30 1224 H 127.788 -6.2753 -3.04716 0
M  V30 1225 H 123.685 -5.25716 -3.74556 0
M  V30 1226 H 124.453 -7.33039 -3.64138 0
M  V30 1227 N 127.117 1.15442 -1.07289 0
M  V30 1228 C 128.394 1.82306 -0.708792 0
M  V30 1229 C 128.774 1.94991 0.808807 0
M  V30 1230 O 128.122 1.50085 1.72298 0
M  V30 1231 C 128.332 3.18695 -1.42247 0
M  V30 1232 C 129.68 3.94341 -1.57417 0
M  V30 1233 O 130.704 3.28247 -1.38319 0
M  V30 1234 O 129.563 5.12839 -1.88834 0
M  V30 1235 H 126.657 0.787628 -0.252132 0
M  V30 1236 H 129.203 1.22559 -1.17377 0
M  V30 1237 H 127.975 3.04557 -2.45684 0
M  V30 1238 H 127.598 3.86128 -0.948223 0
M  V30 1239 N 128.595 0.856903 1.32268 0
M  V30 1240 C 129.525 0.31858 2.31316 0
M  V30 1241 C 130.506 -0.583487 1.59779 0
M  V30 1242 O 131.691 -0.503259 1.87566 0
M  V30 1243 C 128.821 -0.491979 3.43798 0
M  V30 1244 C 127.775 0.315849 4.26833 0
M  V30 1245 C 127.101 -0.619586 5.31098 0
M  V30 1246 C 128.401 1.54282 4.98993 0
M  V30 1247 H 130.095 1.14621 2.76591 0
M  V30 1248 H 127.641 0.552613 1.32974 0
M  V30 1249 H 129.594 -0.879012 4.1213 0
M  V30 1250 H 128.318 -1.35299 2.97257 0
M  V30 1251 H 126.977 0.684664 3.6015 0
M  V30 1252 H 126.625 -1.47751 4.8081 0
M  V30 1253 H 126.325 -0.0830621 5.87541 0
M  V30 1254 H 127.849 -1.00375 6.02293 0
M  V30 1255 H 129.263 1.22796 5.59995 0
M  V30 1256 H 127.66 2.01745 5.65172 0
M  V30 1257 H 128.73 2.30285 4.26728 0
M  V30 1258 N 130.073 -1.45103 0.615059 0
M  V30 1259 C 131.003 -2.33339 -0.0865619 0
M  V30 1260 C 131.984 -1.4727 -0.851209 0
M  V30 1261 O 133.169 -1.76026 -0.820281 0
M  V30 1262 C 130.299 -3.30095 -1.07956 0
M  V30 1263 C 129.253 -4.25858 -0.427628 0
M  V30 1264 C 128.579 -5.12361 -1.5294 0
M  V30 1265 C 129.879 -5.18165 0.655944 0
M  V30 1266 H 131.573 -2.92254 0.650224 0
M  V30 1267 H 129.119 -1.40532 0.314138 0
M  V30 1268 H 131.072 -3.90698 -1.57901 0
M  V30 1269 H 129.796 -2.69355 -1.84703 0
M  V30 1270 H 128.455 -3.66564 0.0510292 0
M  V30 1271 H 128.103 -4.47984 -2.28734 0
M  V30 1272 H 127.803 -5.77238 -1.09865 0
M  V30 1273 H 129.327 -5.75833 -2.03098 0
M  V30 1274 H 130.741 -5.72796 0.240257 0
M  V30 1275 H 129.138 -5.91559 1.00888 0
M  V30 1276 H 130.208 -4.60144 1.52957 0
M  V30 1277 N 131.551 -0.354651 -1.53558 0
M  V30 1278 C 132.481 0.489091 -2.2832 0
M  V30 1279 C 133.462 1.09324 -1.30316 0
M  V30 1280 O 134.647 1.11255 -1.59173 0
M  V30 1281 C 131.777 1.63456 -3.0643 0
M  V30 1282 C 130.731 1.1582 -4.12031 0
M  V30 1283 C 130.057 2.39305 -4.7816 0
M  V30 1284 C 131.357 0.250731 -5.21698 0
M  V30 1285 H 133.051 -0.134614 -2.99097 0
M  V30 1286 H 130.597 -0.0661826 -1.43848 0
M  V30 1287 H 132.55 2.23136 -3.57475 0
M  V30 1288 H 131.274 2.28533 -2.33325 0
M  V30 1289 H 129.933 0.584146 -3.61916 0
M  V30 1290 H 129.581 3.02814 -4.01637 0
M  V30 1291 H 129.281 2.08109 -5.49513 0
M  V30 1292 H 130.805 2.99691 -5.31994 0
M  V30 1293 H 132.219 0.754695 -5.68311 0
M  V30 1294 H 130.616 0.0301468 -6.00092 0
M  V30 1295 H 131.686 -0.710125 -4.79672 0
M  V30 1296 N 133.029 1.57378 -0.0835403 0
M  V30 1297 C 134.44 1.81261 0.447358 0
M  V30 1298 C 134.791 0.998331 1.68902 0
M  V30 1299 O 133.916 0.224282 2.15235 0
M  V30 1300 C 134.511 3.28767 0.818386 0
M  V30 1301 C 133.07 3.53455 1.29409 0
M  V30 1302 C 132.217 2.75831 0.285024 0
M  V30 1303 H 135.168 1.5566 -0.309115 0
M  V30 1304 H 135.189 3.41459 1.67887 0
M  V30 1305 H 134.701 3.88006 -0.0855019 0
M  V30 1306 H 132.802 2.99534 2.21608 0
M  V30 1307 H 132.915 4.62128 1.2639 0
M  V30 1308 H 131.279 2.42947 0.764767 0
M  V30 1309 H 132.062 3.37813 -0.611341 0
M  V30 1310 N 134.507 -0.190092 1.56449 0
M  V30 1311 C 135.732 -0.929864 1.85387 0
M  V30 1312 C 136.157 -1.7585 0.667704 0
M  V30 1313 O 135.515 -1.77198 -0.383459 0
M  V30 1314 C 135.563 -1.79773 3.12593 0
M  V30 1315 O 134.667 -2.89713 2.93496 0
M  V30 1316 H 134.008 -0.261574 0.610307 0
M  V30 1317 H 136.538 -0.193896 2.03679 0
M  V30 1318 H 136.548 -2.20139 3.43515 0
M  V30 1319 H 135.223 -1.18892 3.98544 0
M  V30 1320 H 133.8 -2.53065 2.73884 0
M  V30 1321 N 135.985 -1.50799 -0.457987 0
M  V30 1322 C 136.915 -1.73553 -1.5621 0
M  V30 1323 C 137.896 -0.584774 -1.59732 0
M  V30 1324 O 139.081 -0.825314 -1.7579 0
M  V30 1325 C 136.211 -1.84169 -2.94447 0
M  V30 1326 C 135.165 -2.99461 -3.0579 0
M  V30 1327 C 134.491 -2.95235 -4.45803 0
M  V30 1328 C 135.791 -4.39766 -2.81786 0
M  V30 1329 H 137.485 -2.66 -1.37421 0
M  V30 1330 H 135.031 -1.28002 -0.659662 0
M  V30 1331 H 136.984 -1.98672 -3.71628 0
M  V30 1332 H 135.708 -0.883545 -3.14422 0
M  V30 1333 H 134.367 -2.8463 -2.31044 0
M  V30 1334 H 134.015 -1.97239 -4.62715 0
M  V30 1335 H 133.715 -3.72642 -4.54326 0
M  V30 1336 H 135.239 -3.11803 -5.24987 0
M  V30 1337 H 136.653 -4.55054 -3.4871 0
M  V30 1338 H 135.05 -5.18722 -3.0174 0
M  V30 1339 H 136.12 -4.51229 -1.7754 0
M  V30 1340 N 137.463 0.71206 -1.40597 0
M  V30 1341 C 138.74 1.46536 -1.29563 0
M  V30 1342 C 139.12 2.10931 0.0844217 0
M  V30 1343 O 138.468 2.00418 1.0975 0
M  V30 1344 C 138.678 2.49821 -2.43701 0
M  V30 1345 C 140.026 3.15551 -2.841 0
M  V30 1346 O 141.05 2.60142 -2.4332 0
M  V30 1347 O 139.909 4.15867 -3.54566 0
M  V30 1348 H 137.003 0.651801 -0.509004 0
M  V30 1349 H 139.549 0.743935 -1.52524 0
M  V30 1350 H 138.321 2.00778 -3.35863 0
M  V30 1351 H 137.944 3.29495 -2.22528 0
M  V30 1352 N 138.941 1.26152 0.944643 0
M  V30 1353 C 139.904 1.07474 2.0244 0
M  V30 1354 C 140.904 0.0242064 1.60782 0
M  V30 1355 O 142.094 0.267302 1.72137 0
M  V30 1356 C 139.226 0.633956 3.34953 0
M  V30 1357 H 140.419 2.03336 2.20442 0
M  V30 1358 H 137.972 1.087 1.12312 0
M  V30 1359 H 138.707 -0.326811 3.22649 0
M  V30 1360 H 138.492 1.39247 3.66542 0
M  V30 1361 H 139.982 0.52501 4.14287 0
M  V30 1362 N 140.419 -1.14872 1.07899 0
M  V30 1363 C 141.835 -1.37776 0.805606 0
M  V30 1364 C 142.035 -1.92743 -0.587555 0
M  V30 1365 O 141.091 -2.13678 -1.34528 0
M  V30 1366 C 142.404 -2.34361 1.88402 0
M  V30 1367 C 143.952 -2.48012 1.90942 0
M  V30 1368 C 144.427 -3.47893 2.97883 0
M  V30 1369 N 145.918 -3.55433 2.97021 0
M  V30 1370 C 146.653 -4.32553 3.76412 0
M  V30 1371 N 146.149 -5.12959 4.65666 0
M  V30 1372 N 147.942 -4.27697 3.64735 0
M  V30 1373 H 140.093 -0.775365 1.97742 0
M  V30 1374 H 142.356 -0.403521 0.857831 0
M  V30 1375 H 142.062 -2.01098 2.88535 0
M  V30 1376 H 141.936 -3.34206 1.74889 0
M  V30 1377 H 144.323 -2.8057 0.914579 0
M  V30 1378 H 144.404 -1.48147 2.08534 0
M  V30 1379 H 144.048 -3.16069 3.97571 0
M  V30 1380 H 143.978 -4.47527 2.77538 0
M  V30 1381 H 146.469 -2.98048 2.32326 0
M  V30 1382 H 146.782 -5.69065 5.22862 0
M  V30 1383 H 145.127 -5.12245 4.69712 0
M  V30 1384 H 148.318 -3.63949 2.94378 0
M  V30 1385 H 148.491 -4.8755 4.26848 0
M  V30 1386 N 141.898 -0.863906 -1.31812 0
M  V30 1387 C 142.828 -0.330843 -2.31144 0
M  V30 1388 C 143.809 0.575005 -1.60087 0
M  V30 1389 O 144.994 0.493304 -1.8783 0
M  V30 1390 C 142.124 0.47374 -3.44054 0
M  V30 1391 C 141.078 -0.338481 -4.26659 0
M  V30 1392 C 140.404 0.591412 -5.31419 0
M  V30 1393 C 141.704 -1.56926 -4.98168 0
M  V30 1394 H 143.398 -1.16086 -2.75979 0
M  V30 1395 H 140.944 -0.559657 -1.32679 0
M  V30 1396 H 142.897 0.857143 -4.12591 0
M  V30 1397 H 141.621 1.33721 -2.9797 0
M  V30 1398 H 140.28 -0.703754 -3.59782 0
M  V30 1399 H 139.928 1.45199 -4.81587 0
M  V30 1400 H 139.628 0.0519022 -5.87577 0
M  V30 1401 H 141.152 0.97179 -6.02817 0
M  V30 1402 H 142.566 -1.25764 -5.59336 0
M  V30 1403 H 140.963 -2.04739 -5.64094 0
M  V30 1404 H 142.033 -2.32544 -4.25501 0
M  V30 1405 N 143.376 1.44774 -0.622745 0
M  V30 1406 C 144.324 2.32387 0.0994683 0
M  V30 1407 C 145.318 1.46859 0.844326 0
M  V30 1408 O 146.524 1.63254 0.758174 0
M  V30 1409 H 142.899 0.750273 0.0509291 0
M  V30 1410 H 144.87 2.91062 -0.65767 0
M  V30 1411 C 143.619 3.30723 1.07319 0
M  V30 1412 H 142.942 3.96541 0.509462 0
M  V30 1413 H 144.382 3.94725 1.54817 0
M  V30 1414 C 142.841 2.59021 2.15429 0
M  V30 1415 O 143.371 2.38286 3.23393 0
M  V30 1416 N 141.577 2.189 1.91131 0
M  V30 1417 H 141.124 2.35964 1.03337 0
M  V30 1418 H 141.082 1.71251 2.63668 0
M  V30 1419 N 144.854 0.36279 1.53368 0
M  V30 1420 C 146.101 -0.227776 2.01215 0
M  V30 1421 C 146.429 -1.49003 1.25014 0
M  V30 1422 O 145.684 -1.92876 0.331236 0
M  V30 1423 C 145.983 -0.568417 3.52851 0
M  V30 1424 C 145.649 0.59918 4.46901 0
M  V30 1425 C 144.311 0.919559 4.72332 0
M  V30 1426 C 146.663 1.38156 5.02556 0
M  V30 1427 C 143.991 2.02434 5.5067 0
M  V30 1428 C 146.343 2.47674 5.821 0
M  V30 1429 C 145.007 2.8025 6.05819 0
M  V30 1430 H 144.277 -0.083349 0.736297 0
M  V30 1431 H 146.924 0.494677 1.85001 0
M  V30 1432 H 145.229 -1.37185 3.66998 0
M  V30 1433 H 146.926 -1.03756 3.87344 0
M  V30 1434 H 143.516 0.339437 4.27254 0
M  V30 1435 H 147.7 1.14729 4.82857 0
M  V30 1436 H 142.956 2.28075 5.67267 0
M  V30 1437 H 147.13 3.08716 6.24234 0
M  V30 1438 H 144.757 3.65979 6.66306 0
M  V30 1439 N 146.332 -1.57332 0.0918853 0
M  V30 1440 C 147.578 -1.94524 -0.573425 0
M  V30 1441 C 147.911 -0.973578 -1.68033 0
M  V30 1442 O 147.186 -0.00609226 -1.94499 0
M  V30 1443 C 147.469 -3.41858 -1.13161 0
M  V30 1444 C 147.322 -4.4979 -0.0299747 0
M  V30 1445 C 148.641 -3.90435 -2.03098 0
M  V30 1446 H 145.76 -0.70734 -0.206975 0
M  V30 1447 H 148.402 -1.89309 0.161942 0
M  V30 1448 H 146.552 -3.46433 -1.7583 0
M  V30 1449 H 148.224 -4.57327 0.604112 0
M  V30 1450 H 146.467 -4.291 0.636833 0
M  V30 1451 H 147.138 -5.50069 -0.461287 0
M  V30 1452 H 149.614 -3.87992 -1.50338 0
M  V30 1453 H 148.49 -4.94097 -2.39081 0
M  V30 1454 H 148.751 -3.29541 -2.94712 0
M  V30 1455 N 147.81 0.181792 -1.56548 0
M  V30 1456 C 148.758 1.24461 -1.965 0
M  V30 1457 C 149.752 1.464 -0.852261 0
M  V30 1458 O 150.958 1.47103 -1.03733 0
M  V30 1459 H 147.333 0.418138 -0.625031 0
M  V30 1460 H 149.304 0.880714 -2.85107 0
M  V30 1461 C 148.053 2.57891 -2.33212 0
M  V30 1462 H 147.376 2.41829 -3.18369 0
M  V30 1463 H 148.816 3.3097 -2.65019 0
M  V30 1464 C 147.275 3.15871 -1.17163 0
M  V30 1465 O 147.805 3.9913 -0.453708 0
M  V30 1466 N 146.011 2.74808 -0.944936 0
M  V30 1467 H 145.558 2.07205 -1.53049 0
M  V30 1468 H 145.516 3.13939 -0.170286 0
M  V30 1469 N 149.288 1.51039 0.449983 0
M  V30 1470 C 150.251 1.70863 1.5277 0
M  V30 1471 C 151.251 0.578846 1.5002 0
M  V30 1472 O 152.441 0.846213 1.52266 0
M  V30 1473 C 149.573 1.75341 2.9235 0
M  V30 1474 H 150.766 2.67034 1.36502 0
M  V30 1475 H 148.319 1.40838 0.677812 0
M  V30 1476 H 149.054 0.809383 3.14037 0
M  V30 1477 H 148.839 2.57436 2.95752 0
M  V30 1478 H 150.329 1.92559 3.70555 0
M  V30 1479 N 150.766 -0.704594 1.40972 0
M  V30 1480 C 152.014 -1.46169 1.39568 0
M  V30 1481 C 152.335 -1.95 0.00253745 0
M  V30 1482 O 151.605 -1.71095 -0.954114 0
M  V30 1483 H 150.185 -0.542326 0.513704 0
M  V30 1484 H 152.847 -0.834553 1.76128 0
M  V30 1485 H 151.943 -2.32922 2.07735 0
M  V30 1486 N 152.244 -1.26651 -0.937939 0
M  V30 1487 C 153.176 -1.04283 -2.04102 0
M  V30 1488 C 154.189 -0.00221014 -1.628 0
M  V30 1489 O 155.378 -0.242645 -1.76843 0
M  V30 1490 C 152.478 -0.557846 -3.34277 0
M  V30 1491 C 151.651 -1.66843 -4.04329 0
M  V30 1492 C 150.71 -1.18095 -5.12777 0
M  V30 1493 O 149.736 -1.87865 -5.37304 0
M  V30 1494 N 150.938 -0.0311006 -5.80492 0
M  V30 1495 H 153.703 -1.9927 -2.23856 0
M  V30 1496 H 151.264 -1.1808 -1.10764 0
M  V30 1497 H 153.256 -0.215836 -4.04124 0
M  V30 1498 H 151.826 0.298523 -3.11171 0
M  V30 1499 H 151.046 -2.18123 -3.28353 0
M  V30 1500 H 152.334 -2.41408 -4.47883 0
M  V30 1501 H 151.732 0.551486 -5.63005 0
M  V30 1502 H 150.289 0.251809 -6.51313 0
M  V30 1503 N 153.722 1.14298 -1.08507 0
M  V30 1504 C 154.669 2.19414 -0.715965 0
M  V30 1505 C 155.639 1.63399 0.298326 0
M  V30 1506 O 156.824 1.89929 0.182101 0
M  V30 1507 C 153.964 3.44845 -0.132534 0
M  V30 1508 C 153.077 4.15007 -1.19973 0
M  V30 1509 C 152.212 5.28024 -0.580048 0
M  V30 1510 C 151.251 5.9002 -1.62921 0
M  V30 1511 N 150.388 6.94485 -1.03125 0
M  V30 1512 H 155.228 2.50336 -1.61666 0
M  V30 1513 H 152.765 1.2293 -0.807882 0
M  V30 1514 H 154.723 4.16601 0.223454 0
M  V30 1515 H 153.353 3.14403 0.731467 0
M  V30 1516 H 152.405 3.41629 -1.67313 0
M  V30 1517 H 153.717 4.57178 -1.99473 0
M  V30 1518 H 152.871 6.06455 -0.172364 0
M  V30 1519 H 151.61 4.87076 0.246603 0
M  V30 1520 H 150.615 5.10291 -2.04654 0
M  V30 1521 H 151.84 6.33042 -2.45835 0
M  V30 1522 H 149.786 6.55612 -0.225711 0
M  V30 1523 H 149.703 7.35148 -1.76334 0
M  V30 1524 H 150.971 7.7679 -0.649458 0
M  V30 1525 N 155.201 0.870884 1.31352 0
M  V30 1526 C 156.431 0.496049 2.00557 0
M  V30 1527 C 156.839 -0.916241 1.65534 0
M  V30 1528 O 156.182 -1.61188 0.881134 0
M  V30 1529 C 156.244 0.574418 3.54881 0
M  V30 1530 C 155.908 1.94849 4.1338 0
M  V30 1531 C 156.905 2.91611 4.30417 0
M  V30 1532 C 154.59 2.25005 4.49086 0
M  V30 1533 C 156.584 4.16672 4.82352 0
M  V30 1534 C 154.271 3.50315 5.00722 0
M  V30 1535 C 155.269 4.45964 5.17306 0
M  V30 1536 O 154.957 5.69052 5.67833 0
M  V30 1537 H 154.689 0.191664 0.64826 0
M  V30 1538 H 157.243 1.17409 1.68536 0
M  V30 1539 H 155.473 -0.160549 3.86367 0
M  V30 1540 H 157.162 0.212879 4.05341 0
M  V30 1541 H 157.928 2.69622 4.03149 0
M  V30 1542 H 153.807 1.51332 4.35453 0
M  V30 1543 H 157.351 4.91336 4.95211 0
M  V30 1544 H 153.248 3.72147 5.27424 0
M  V30 1545 H 154.016 5.71236 5.86201 0
M  V30 1546 N 156.679 -1.44442 0.630414 0
M  V30 1547 C 157.642 -2.29107 -0.0652523 0
M  V30 1548 C 158.642 -1.41002 -0.772995 0
M  V30 1549 O 159.832 -1.62881 -0.617692 0
M  V30 1550 C 156.964 -3.22564 -1.10296 0
M  V30 1551 H 158.157 -2.92103 0.679401 0
M  V30 1552 H 155.71 -1.51343 0.390517 0
M  V30 1553 H 156.445 -2.64416 -1.87762 0
M  V30 1554 H 156.23 -3.87491 -0.59941 0
M  V30 1555 H 157.72 -3.86167 -1.5895 0
M  V30 1556 N 158.157 -0.370918 -1.53173 0
M  V30 1557 C 159.12 0.460778 -2.24521 0
M  V30 1558 C 160.12 1.00536 -1.25496 0
M  V30 1559 O 161.31 0.890266 -1.49733 0
M  V30 1560 C 158.442 1.64457 -2.98608 0
M  V30 1561 H 159.635 -0.163613 -2.99453 0
M  V30 1562 H 157.188 -0.122699 -1.55818 0
M  V30 1563 H 157.923 2.30691 -2.2793 0
M  V30 1564 H 157.708 1.26099 -3.7127 0
M  V30 1565 H 159.198 2.23384 -3.5283 0
M  V30 1566 N 159.635 1.57281 -0.100228 0
M  V30 1567 C 160.882 1.94537 0.562268 0
M  V30 1568 C 161.21 0.982315 1.67871 0
M  V30 1569 O 160.465 0.00280936 1.957 0
M  V30 1570 C 160.764 3.38305 1.15259 0
M  V30 1571 C 160.43 4.50618 0.159409 0
M  V30 1572 C 159.092 4.81066 -0.113741 0
M  V30 1573 C 161.444 5.18615 -0.518461 0
M  V30 1574 C 158.772 5.76835 -1.07137 0
M  V30 1575 C 161.124 6.15412 -1.46459 0
M  V30 1576 C 159.788 6.44262 -1.74592 0
M  V30 1577 H 159.058 0.711863 0.205748 0
M  V30 1578 H 161.705 1.90679 -0.17715 0
M  V30 1579 H 160.01 3.38766 1.96836 0
M  V30 1580 H 161.707 3.64435 1.67297 0
M  V30 1581 H 158.297 4.2689 0.382491 0
M  V30 1582 H 162.481 4.95264 -0.320581 0
M  V30 1583 H 157.737 5.975 -1.29628 0
M  V30 1584 H 161.911 6.67194 -1.99564 0
M  V30 1585 H 159.538 7.1828 -2.48953 0
M  V30 1586 N 161.113 -0.173488 1.56642 0
M  V30 1587 C 162.043 -1.2171 1.99271 0
M  V30 1588 C 163.024 -1.46289 0.867959 0
M  V30 1589 O 164.209 -1.5766 1.13388 0
M  V30 1590 C 161.339 -2.55651 2.35074 0
M  V30 1591 C 160.293 -2.45645 3.50489 0
M  V30 1592 C 159.619 -3.84056 3.72028 0
M  V30 1593 C 160.919 -1.96302 4.84007 0
M  V30 1594 H 162.613 -0.86275 2.867 0
M  V30 1595 H 160.159 -0.413571 1.37933 0
M  V30 1596 H 162.112 -3.2886 2.63494 0
M  V30 1597 H 160.836 -2.92869 1.44552 0
M  V30 1598 H 159.495 -1.7489 3.22194 0
M  V30 1599 H 159.143 -4.18664 2.788 0
M  V30 1600 H 158.843 -3.7823 4.49684 0
M  V30 1601 H 160.367 -4.58854 4.02846 0
M  V30 1602 H 161.781 -2.59284 5.11317 0
M  V30 1603 H 160.178 -2.01429 5.65284 0
M  V30 1604 H 161.248 -0.917226 4.76146 0
M  V30 1605 N 162.591 -1.51276 -0.441967 0
M  V30 1606 C 163.538 -1.72256 -1.53612 0
M  V30 1607 C 164.508 -0.564164 -1.56225 0
M  V30 1608 O 165.693 -0.798074 -1.73307 0
M  V30 1609 C 162.833 -1.84932 -2.91366 0
M  V30 1610 C 161.946 -3.12459 -2.98317 0
M  V30 1611 C 161.081 -3.15758 -4.27166 0
M  V30 1612 C 160.12 -4.37619 -4.27967 0
M  V30 1613 N 159.257 -4.38493 -5.48333 0
M  V30 1614 H 164.097 -2.65654 -1.35026 0
M  V30 1615 H 161.634 -1.31662 -0.656009 0
M  V30 1616 H 163.592 -1.90263 -3.7129 0
M  V30 1617 H 162.222 -0.949461 -3.08521 0
M  V30 1618 H 161.274 -3.1646 -2.11086 0
M  V30 1619 H 162.586 -4.02382 -2.94771 0
M  V30 1620 H 161.74 -3.19979 -5.15459 0
M  V30 1621 H 160.479 -2.23715 -4.33362 0
M  V30 1622 H 159.484 -4.33579 -3.38067 0
M  V30 1623 H 160.709 -5.30921 -4.23438 0
M  V30 1624 H 158.655 -3.49318 -5.55259 0
M  V30 1625 H 158.572 -5.22219 -5.46647 0
M  V30 1626 H 159.84 -4.469 -6.38671 0
M  V30 1627 N 164.069 0.697108 -1.41344 0
M  V30 1628 C 165.299 1.48377 -1.43763 0
M  V30 1629 C 165.707 1.89156 -0.0408726 0
M  V30 1630 O 165.05 1.57239 0.949812 0
M  V30 1631 C 165.112 2.7781 -2.2817 0
M  V30 1632 C 164.776 2.59244 -3.76353 0
M  V30 1633 C 165.773 2.25292 -4.68551 0
M  V30 1634 C 163.458 2.74933 -4.20378 0
M  V30 1635 C 165.452 2.07264 -6.02761 0
M  V30 1636 C 163.139 2.56521 -5.54653 0
M  V30 1637 C 164.137 2.22737 -6.4566 0
M  V30 1638 O 163.825 2.04485 -7.77458 0
M  V30 1639 H 163.557 0.463842 -0.491759 0
M  V30 1640 H 166.111 0.865934 -1.86255 0
M  V30 1641 H 164.341 3.41995 -1.8049 0
M  V30 1642 H 166.03 3.39608 -2.22309 0
M  V30 1643 H 166.796 2.12787 -4.35829 0
M  V30 1644 H 162.675 3.00213 -3.49848 0
M  V30 1645 H 166.219 1.80817 -6.73759 0
M  V30 1646 H 162.116 2.68616 -5.86955 0
M  V30 1647 H 162.884 2.1926 -7.88586 0
M  V30 1648 N 165.547 1.27147 0.931209 0
M  V30 1649 C 166.793 1.13446 1.68101 0
M  V30 1650 C 167.126 -0.319628 1.91552 0
M  V30 1651 O 166.401 -1.23407 1.50336 0
M  V30 1652 C 166.684 1.91482 3.0497 0
M  V30 1653 C 166.537 3.44855 2.88782 0
M  V30 1654 C 167.856 1.71651 4.05246 0
M  V30 1655 H 164.975 0.413498 0.610072 0
M  V30 1656 H 167.617 1.56261 1.08086 0
M  V30 1657 H 165.767 1.55095 3.56199 0
M  V30 1658 H 167.439 3.9105 2.44698 0
M  V30 1659 H 165.682 3.71373 2.24198 0
M  V30 1660 H 166.353 3.94694 3.85902 0
M  V30 1661 H 168.829 2.0337 3.63015 0
M  V30 1662 H 167.705 2.28651 4.99009 0
M  V30 1663 H 167.966 0.663555 4.37092 0
M  V30 1664 N 167.025 -1.13721 1.09112 0
M  V30 1665 C 167.975 -2.17082 0.697091 0
M  V30 1666 C 168.959 -1.58321 -0.286923 0
M  V30 1667 O 170.151 -1.7673 -0.0978008 0
M  V30 1668 C 167.28 -3.43105 0.115729 0
M  V30 1669 C 166.366 -4.0888 1.12596 0
M  V30 1670 N 166.757 -4.4987 2.31195 0
M  V30 1671 C 165.055 -4.35471 0.963366 0
M  V30 1672 C 165.756 -5.01094 2.95431 0
M  V30 1673 N 164.732 -4.95751 2.23006 0
M  V30 1674 H 168.534 -2.46524 1.6001 0
M  V30 1675 H 166.048 -1.30481 0.966869 0
M  V30 1676 H 168.045 -4.16491 -0.184555 0
M  V30 1677 H 166.705 -3.15138 -0.78217 0
M  V30 1678 H 167.716 -4.42678 2.68806 0
M  V30 1679 H 164.393 -4.17328 0.119878 0
M  V30 1680 H 165.783 -5.4263 3.96236 0
M  V30 1681 N 168.503 -0.877838 -1.30888 0
M  V30 1682 C 169.751 -0.491723 -1.96027 0
M  V30 1683 C 170.072 0.960827 -1.69685 0
M  V30 1684 O 169.342 1.67462 -1.01654 0
M  V30 1685 H 167.922 -0.17885 -0.725273 0
M  V30 1686 H 170.584 -1.11935 -1.59551 0
M  V30 1687 H 169.68 -0.656016 -3.05128 0
M  V30 1688 N 169.982 1.44106 -0.638065 0
M  V30 1689 C 171.259 1.95453 -0.0759321 0
M  V30 1690 C 171.639 1.57984 1.40015 0
M  V30 1691 O 170.987 0.857361 2.11806 0
M  V30 1692 C 171.197 3.47655 -0.306132 0
M  V30 1693 C 172.545 4.24114 -0.203008 0
M  V30 1694 O 173.569 3.55405 -0.237871 0
M  V30 1695 O 172.428 5.46381 -0.113827 0
M  V30 1696 H 169.522 0.826797 0.0183332 0
M  V30 1697 H 172.068 1.54122 -0.710251 0
M  V30 1698 H 170.84 3.68 -1.3301 0
M  V30 1699 H 170.463 3.95949 0.361991 0
M  V30 1700 N 171.46 0.379036 1.52974 0
M  V30 1701 C 172.7 -0.206325 2.03356 0
M  V30 1702 C 173.064 -1.44892 1.25977 0
M  V30 1703 O 174.265 -2.11078 1.66432 0
M  V30 1704 C 172.536 -0.477887 3.54191 0
M  V30 1705 S 174.095 -1.035 4.26419 0
M  V30 1706 H 170.913 -0.0590259 0.708546 0
M  V30 1707 H 173.515 0.525013 1.88319 0
M  V30 1708 H 172.219 0.433745 4.08101 0
M  V30 1709 H 171.75 -1.23793 3.73415 0
M  V30 1710 H 173.765 -2.31821 4.38718 0
M  V30 1711 N 172.938 -1.57226 0.108567 0
M  V30 1712 C 173.901 -2.13602 -0.831082 0
M  V30 1713 C 174.901 -1.06841 -1.20173 0
M  V30 1714 O 176.091 -1.32666 -1.12895 0
M  V30 1715 C 173.223 -2.66769 -2.12243 0
M  V30 1716 H 174.416 -2.97951 -0.341317 0
M  V30 1717 H 171.969 -1.55667 -0.14057 0
M  V30 1718 H 172.704 -1.85977 -2.65675 0
M  V30 1719 H 172.489 -3.44839 -1.86625 0
M  V30 1720 H 173.979 -3.10332 -2.79435 0
M  V30 1721 N 174.416 0.165178 -1.56732 0
M  V30 1722 C 175.644 0.896218 -1.86482 0
M  V30 1723 C 176.059 1.75555 -0.694675 0
M  V30 1724 O 175.416 1.79379 0.33607 0
M  V30 1725 C 175.467 1.76792 -3.1532 0
M  V30 1726 O 175.188 0.943239 -4.27825 0
M  V30 1727 C 176.689 2.6081 -3.58459 0
M  V30 1728 H 173.909 0.260064 -0.618553 0
M  V30 1729 H 176.453 0.163428 -2.03846 0
M  V30 1730 H 174.608 2.45398 -2.99764 0
M  V30 1731 H 175.022 1.53998 -5.01383 0
M  V30 1732 H 176.496 3.17579 -4.51495 0
M  V30 1733 H 176.973 3.35977 -2.82872 0
M  V30 1734 H 177.579 1.97526 -3.76648 0
M  V30 1735 N 175.894 1.51508 0.433938 0
M  V30 1736 C 177.134 1.66006 1.19253 0
M  V30 1737 C 177.498 0.369868 1.88404 0
M  V30 1738 O 178.699 0.39066 2.65946 0
M  V30 1739 C 176.97 2.83229 2.17981 0
M  V30 1740 S 178.529 3.18075 3.02281 0
M  V30 1741 H 175.347 0.584821 0.404358 0
M  V30 1742 H 177.949 1.89425 0.48357 0
M  V30 1743 H 176.653 3.75407 1.65824 0
M  V30 1744 H 176.184 2.6201 2.93453 0
M  V30 1745 H 178.199 2.64772 4.19655 0
M  V30 1746 N 177.372 -0.689602 1.41712 0
M  V30 1747 C 178.597 -1.48329 1.44959 0
M  V30 1748 C 179.022 -1.8801 0.0581283 0
M  V30 1749 O 178.38 -1.55026 -0.940035 0
M  V30 1750 C 178.428 -2.71835 2.36935 0
M  V30 1751 O 177.532 -3.69549 1.8305 0
M  V30 1752 H 176.873 -0.446199 0.491734 0
M  V30 1753 H 179.403 -0.847127 1.86239 0
M  V30 1754 H 179.413 -3.20076 2.53013 0
M  V30 1755 H 178.088 -2.42291 3.38035 0
M  V30 1756 H 176.665 -3.2851 1.76452 0
M  V30 1757 N 178.85 -1.27639 -0.924453 0
M  V30 1758 C 179.8 -1.07295 -2.01176 0
M  V30 1759 C 180.784 5.77352e-05 -1.609 0
M  V30 1760 O 181.976 -0.218855 -1.75642 0
M  V30 1761 C 179.105 -0.725592 -3.35544 0
M  V30 1762 C 178.191 -1.83691 -3.82254 0
M  V30 1763 N 178.582 -3.07697 -4.01443 0
M  V30 1764 C 176.88 -1.72433 -4.11319 0
M  V30 1765 C 177.581 -3.80037 -4.40394 0
M  V30 1766 N 176.557 -3.0782 -4.48049 0
M  V30 1767 H 180.359 -2.01399 -2.14046 0
M  V30 1768 H 177.873 -1.18401 -1.11153 0
M  V30 1769 H 179.87 -0.560959 -4.13109 0
M  V30 1770 H 178.53 0.207782 -3.24034 0
M  V30 1771 H 179.541 -3.43424 -3.8766 0
M  V30 1772 H 176.218 -0.862005 -4.08504 0
M  V30 1773 H 177.608 -4.86632 -4.63291 0
M  V30 1774 N 180.328 1.1314 -1.09713 0
M  V30 1775 C 181.576 1.84119 -0.833338 0
M  V30 1776 C 181.897 1.84097 0.642904 0
M  V30 1777 O 181.167 1.29881 1.46655 0
M  V30 1778 H 179.747 0.681766 -0.305293 0
M  V30 1779 H 182.409 1.37038 -1.38588 0
M  V30 1780 H 181.505 2.88543 -1.18951 0
M  V30 1781 N 181.806 0.884767 1.30421 0
M  V30 1782 C 182.716 0.355398 2.31892 0
M  V30 1783 C 183.732 -0.542261 1.65335 0
M  V30 1784 O 184.908 -0.435432 1.96637 0
M  V30 1785 C 181.973 -0.421661 3.44126 0
M  V30 1786 C 181.034 0.505727 4.26311 0
M  V30 1787 C 180.267 -0.234343 5.33185 0
M  V30 1788 O 180.49 -1.46045 5.51386 0
M  V30 1789 O 179.424 0.415443 6.00465 0
M  V30 1790 H 183.25 1.19685 2.79122 0
M  V30 1791 H 180.835 0.648596 1.34587 0
M  V30 1792 H 182.717 -0.861641 4.12497 0
M  V30 1793 H 181.392 -1.23942 2.99032 0
M  V30 1794 H 180.299 0.994513 3.60639 0
M  V30 1795 H 181.632 1.28948 4.75009 0
M  V30 1796 N 183.284 -1.43765 0.645699 0
M  V30 1797 C 184.533 -2.01116 0.153412 0
M  V30 1798 C 184.846 -1.51493 -1.23731 0
M  V30 1799 O 186.052 -2.01067 -1.8244 0
M  V30 1800 C 184.508 -3.59206 0.223473 0
M  V30 1801 C 184.116 -4.17823 1.61642 0
M  V30 1802 C 185.86 -4.23972 -0.211597 0
M  V30 1803 C 183.767 -5.68183 1.64081 0
M  V30 1804 H 182.697 -0.752093 0.0535891 0
M  V30 1805 H 185.348 -1.6482 0.806633 0
M  V30 1806 H 183.73 -3.92867 -0.497118 0
M  V30 1807 H 184.904 -3.95674 2.36176 0
M  V30 1808 H 183.219 -3.65399 1.99681 0
M  V30 1809 H 185.816 -5.34275 -0.213112 0
M  V30 1810 H 186.159 -3.97352 -1.24165 0
M  V30 1811 H 186.692 -3.95166 0.456988 0
M  V30 1812 H 183.431 -5.99559 2.64971 0
M  V30 1813 H 182.951 -5.9241 0.938611 0
M  V30 1814 H 184.63 -6.32085 1.3812 0
M  V30 1815 N 184.763 -0.387143 -1.52771 0
M  V30 1816 C 185.693 0.440551 -2.29306 0
M  V30 1817 C 186.674 1.06535 -1.32606 0
M  V30 1818 O 187.859 1.07853 -1.61497 0
M  V30 1819 C 184.989 1.56919 -3.09829 0
M  V30 1820 C 183.943 1.07054 -4.14395 0
M  V30 1821 C 183.269 2.29109 -4.83129 0
M  V30 1822 C 184.569 0.140015 -5.22112 0
M  V30 1823 H 186.263 -0.198026 -2.98744 0
M  V30 1824 H 183.809 -0.09668 -1.43675 0
M  V30 1825 H 185.762 2.15503 -3.62128 0
M  V30 1826 H 184.486 2.23532 -2.3812 0
M  V30 1827 H 183.145 0.507247 -3.63074 0
M  V30 1828 H 182.793 2.94227 -4.0797 0
M  V30 1829 H 182.493 1.96406 -5.53804 0
M  V30 1830 H 184.017 2.88339 -5.38231 0
M  V30 1831 H 185.431 0.633978 -5.69784 0
M  V30 1832 H 183.828 -0.0971485 -6.00021 0
M  V30 1833 H 184.898 -0.811711 -4.78058 0
M  V30 1834 N 186.241 1.57166 -0.116904 0
M  V30 1835 C 187.657 1.5779 0.239693 0
M  V30 1836 C 187.857 1.1295 1.66867 0
M  V30 1837 O 186.913 0.81592 2.38954 0
M  V30 1838 C 188.226 3.00699 0.00828202 0
M  V30 1839 C 189.774 3.12912 0.0743438 0
M  V30 1840 C 190.249 4.57817 -0.129348 0
M  V30 1841 N 191.74 4.63139 -0.075247 0
M  V30 1842 C 192.475 5.73023 -0.207788 0
M  V30 1843 N 191.971 6.91665 -0.396382 0
M  V30 1844 N 193.764 5.61906 -0.14751 0
M  V30 1845 H 185.915 1.84615 -1.05029 0
M  V30 1846 H 188.178 0.85311 -0.41341 0
M  V30 1847 H 187.884 3.37784 -0.979531 0
M  V30 1848 H 187.758 3.69848 0.741077 0
M  V30 1849 H 190.145 2.75686 1.05268 0
M  V30 1850 H 190.226 2.4631 -0.690297 0
M  V30 1851 H 189.87 4.95742 -1.10465 0
M  V30 1852 H 189.8 5.22507 0.655253 0
M  V30 1853 H 192.291 3.7784 0.0670898 0
M  V30 1854 H 192.604 7.71255 -0.488437 0
M  V30 1855 H 190.949 6.93654 -0.432329 0
M  V30 1856 H 194.14 4.681 -0.00115036 0
M  V30 1857 H 194.313 6.47501 -0.254247 0
M  V30 1858 N 187.719 -0.156864 1.56817 0
M  V30 1859 C 188.629 -1.2136 2.00771 0
M  V30 1860 C 189.645 -1.47598 0.921459 0
M  V30 1861 O 190.821 -1.59462 1.2302 0
M  V30 1862 C 187.886 -2.52943 2.37109 0
M  V30 1863 C 186.947 -2.34439 3.59634 0
M  V30 1864 C 186.18 -3.59748 3.94229 0
M  V30 1865 O 186.403 -4.65526 3.29609 0
M  V30 1866 O 185.337 -3.52998 4.8752 0
M  V30 1867 H 189.163 -0.870468 2.90958 0
M  V30 1868 H 186.748 -0.36484 1.44877 0
M  V30 1869 H 188.63 -3.30538 2.61386 0
M  V30 1870 H 187.305 -2.86806 1.5008 0
M  V30 1871 H 186.212 -1.54828 3.40557 0
M  V30 1872 H 187.545 -2.05496 4.4725 0
M  V30 1873 N 189.197 -1.51736 -0.425897 0
M  V30 1874 C 190.144 -1.73875 -1.51776 0
M  V30 1875 C 191.114 -0.580702 -1.55618 0
M  V30 1876 O 192.299 -0.81641 -1.72451 0
M  V30 1877 C 189.439 -1.88012 -2.89388 0
M  V30 1878 C 188.552 -3.15606 -2.94986 0
M  V30 1879 C 187.687 -3.20271 -4.23793 0
M  V30 1880 C 186.726 -4.42134 -4.23302 0
M  V30 1881 N 185.863 -4.44284 -5.43651 0
M  V30 1882 H 190.703 -2.67071 -1.32201 0
M  V30 1883 H 188.24 -1.32351 -0.642008 0
M  V30 1884 H 190.198 -1.9419 -3.69251 0
M  V30 1885 H 188.828 -0.98213 -3.07496 0
M  V30 1886 H 187.88 -3.18681 -2.07717 0
M  V30 1887 H 189.192 -4.05486 -2.90486 0
M  V30 1888 H 188.346 -3.25428 -5.12036 0
M  V30 1889 H 187.085 -2.28299 -4.30965 0
M  V30 1890 H 186.09 -4.3714 -3.3345 0
M  V30 1891 H 187.315 -5.35382 -4.17783 0
M  V30 1892 H 185.261 -3.55188 -5.51523 0
M  V30 1893 H 185.178 -5.27988 -5.41078 0
M  V30 1894 H 186.446 -4.53649 -6.33895 0
M  V30 1895 N 190.675 0.682077 -1.42076 0
M  V30 1896 C 191.903 1.47057 -1.4554 0
M  V30 1897 C 192.318 1.8869 -0.0645779 0
M  V30 1898 O 191.675 1.57666 0.919115 0
M  V30 1899 C 191.726 2.72442 -2.37609 0
M  V30 1900 O 191.447 2.32559 -3.71279 0
M  V30 1901 C 192.948 3.66069 -2.50017 0
M  V30 1902 H 190.168 0.452737 -0.495248 0
M  V30 1903 H 192.712 0.838695 -1.8651 0
M  V30 1904 H 190.867 3.31835 -1.9991 0
M  V30 1905 H 191.281 3.13475 -4.20516 0
M  V30 1906 H 192.755 4.50792 -3.18576 0
M  V30 1907 H 193.232 4.11476 -1.53572 0
M  V30 1908 H 193.838 3.12572 -2.88407 0
M  V30 1909 N 192.153 1.28127 0.917671 0
M  V30 1910 C 193.085 1.07517 2.02417 0
M  V30 1911 C 194.098 0.0281099 1.62776 0
M  V30 1912 O 195.287 0.270748 1.76435 0
M  V30 1913 C 192.387 0.610957 3.33347 0
M  V30 1914 C 191.56 1.73255 4.01624 0
M  V30 1915 C 190.619 1.26238 5.10833 0
M  V30 1916 O 189.645 1.96389 5.34247 0
M  V30 1917 N 190.847 0.123448 5.80369 0
M  V30 1918 H 193.612 2.02806 2.20658 0
M  V30 1919 H 191.173 1.19827 1.08871 0
M  V30 1920 H 193.165 0.280101 4.0373 0
M  V30 1921 H 191.735 -0.24898 3.11607 0
M  V30 1922 H 190.955 2.23319 3.24842 0
M  V30 1923 H 192.243 2.48503 4.43986 0
M  V30 1924 H 191.641 -0.461847 5.63812 0
M  V30 1925 H 190.198 -0.148158 6.51632 0
M  V30 1926 N 193.631 -1.12557 1.10312 0
M  V30 1927 C 194.561 -2.20341 0.772798 0
M  V30 1928 C 195.542 -1.68198 -0.25365 0
M  V30 1929 O 196.727 -1.93831 -0.119699 0
M  V30 1930 C 193.857 -3.46709 0.202443 0
M  V30 1931 C 192.811 -4.11996 1.15943 0
M  V30 1932 C 192.137 -5.328 0.450345 0
M  V30 1933 C 193.437 -4.5828 2.50552 0
M  V30 1934 H 195.131 -2.48229 1.674 0
M  V30 1935 H 192.677 -1.19308 0.806326 0
M  V30 1936 H 194.63 -4.2138 -0.0407752 0
M  V30 1937 H 193.354 -3.18245 -0.734001 0
M  V30 1938 H 192.013 -3.39305 1.38808 0
M  V30 1939 H 191.661 -5.00602 -0.490531 0
M  V30 1940 H 191.361 -5.7743 1.08851 0
M  V30 1941 H 192.885 -6.10219 0.215642 0
M  V30 1942 H 194.299 -5.2433 2.31843 0
M  V30 1943 H 192.696 -5.13683 3.10242 0
M  V30 1944 H 193.766 -3.72329 3.10643 0
M  V30 1945 N 195.109 -0.891671 -1.2995 0
M  V30 1946 C 196.039 -0.379797 -2.30391 0
M  V30 1947 C 197.02 0.540919 -1.6127 0
M  V30 1948 O 198.205 0.453352 -1.88834 0
M  V30 1949 C 195.335 0.400654 -3.44981 0
M  V30 1950 C 194.289 -0.428905 -4.25846 0
M  V30 1951 C 193.615 0.478557 -5.32554 0
M  V30 1952 C 194.915 -1.67458 -4.94727 0
M  V30 1953 H 196.609 -1.21914 -2.73454 0
M  V30 1954 H 194.155 -0.587675 -1.31462 0
M  V30 1955 H 196.108 0.769434 -4.14316 0
M  V30 1956 H 194.832 1.27371 -3.0074 0
M  V30 1957 H 193.491 -0.779911 -3.58208 0
M  V30 1958 H 193.139 1.34951 -4.84559 0
M  V30 1959 H 192.839 -0.0727433 -5.87555 0
M  V30 1960 H 194.363 0.843705 -6.04743 0
M  V30 1961 H 195.777 -1.376 -5.56542 0
M  V30 1962 H 194.174 -2.16659 -5.59624 0
M  V30 1963 H 195.244 -2.41518 -4.20473 0
M  V30 1964 N 196.587 1.43421 -0.653314 0
M  V30 1965 C 197.815 2.06163 -0.174491 0
M  V30 1966 C 198.23 1.48969 1.1599 0
M  V30 1967 O 197.587 0.621042 1.71608 0
M  V30 1968 C 197.638 3.61417 -0.0774865 0
M  V30 1969 O 197.359 4.16485 -1.35912 0
M  V30 1970 C 198.86 4.41235 0.427402 0
M  V30 1971 H 196.08 0.664946 -0.0899353 0
M  V30 1972 H 198.624 1.83924 -0.893988 0
M  V30 1973 H 196.779 3.82841 0.59257 0
M  V30 1974 H 197.193 5.10153 -1.21839 0
M  V30 1975 H 198.667 5.5021 0.44423 0
M  V30 1976 H 199.144 4.14268 1.45873 0
M  V30 1977 H 199.75 4.2478 -0.210167 0
M  V30 1978 N 198.065 0.39524 1.52563 0
M  V30 1979 C 199.028 -0.425001 2.25225 0
M  V30 1980 C 200.028 -0.985266 1.27079 0
M  V30 1981 O 201.218 -0.866332 1.5113 0
M  V30 1982 C 198.35 -1.59686 3.01186 0
M  V30 1983 H 199.543 0.211233 2.99155 0
M  V30 1984 H 197.096 0.147472 1.55603 0
M  V30 1985 H 197.831 -2.27035 2.31572 0
M  V30 1986 H 197.616 -1.20176 3.73229 0
M  V30 1987 H 199.106 -2.17743 3.5634 0
M  V30 1988 N 199.544 -1.57102 0.125237 0
M  V30 1989 C 200.793 -1.94582 -0.531095 0
M  V30 1990 C 201.106 -1.01126 -1.6743 0
M  V30 1991 O 202.312 -1.28097 -2.39381 0
M  V30 1992 C 200.768 -3.45839 -0.996164 0
M  V30 1993 C 200.376 -4.47842 0.118926 0
M  V30 1994 C 202.12 -3.92227 -1.62352 0
M  V30 1995 C 200.027 -5.90284 -0.363192 0
M  V30 1996 H 198.957 -0.726391 -0.20217 0
M  V30 1997 H 201.608 -1.82339 0.206092 0
M  V30 1998 H 199.99 -3.53338 -1.78796 0
M  V30 1999 H 201.164 -4.52018 0.895358 0
M  V30 2000 H 199.479 -4.11243 0.653324 0
M  V30 2001 H 202.076 -4.96069 -1.99548 0
M  V30 2002 H 202.419 -3.32552 -2.50429 0
M  V30 2003 H 202.952 -3.87554 -0.897019 0
M  V30 2004 H 199.691 -6.53728 0.481679 0
M  V30 2005 H 199.211 -5.89515 -1.10597 0
M  V30 2006 H 200.89 -6.41752 -0.822377 0
M  V30 2007 N 201.022 0.148545 -1.56898 0
M  V30 2008 C 202.268 0.862694 -1.83536 0
M  V30 2009 C 202.601 1.80889 -0.706604 0
M  V30 2010 O 201.876 1.92328 0.289885 0
M  V30 2011 C 202.159 1.63853 -3.20662 0
M  V30 2012 C 202.012 0.713925 -4.44098 0
M  V30 2013 C 203.331 2.60133 -3.54991 0
M  V30 2014 H 200.45 0.312179 -0.667618 0
M  V30 2015 H 203.092 0.127953 -1.89569 0
M  V30 2016 H 201.242 2.26489 -3.1565 0
M  V30 2017 H 202.914 0.098686 -4.61194 0
M  V30 2018 H 201.157 0.0234019 -4.33794 0
M  V30 2019 H 201.828 1.29278 -5.36648 0
M  V30 2020 H 204.304 2.07616 -3.60603 0
M  V30 2021 H 203.18 3.11468 -4.51972 0
M  V30 2022 H 203.441 3.41417 -2.80868 0
M  V30 2023 N 202.5 1.5196 0.417844 0
M  V30 2024 C 203.725 1.69717 1.1921 0
M  V30 2025 C 204.15 0.402148 1.83751 0
M  V30 2026 O 203.508 -0.639593 1.69643 0
M  V30 2027 C 203.556 2.82794 2.2374 0
M  V30 2028 O 202.66 2.47756 3.29683 0
M  V30 2029 H 202.001 0.565263 0.348387 0
M  V30 2030 H 204.531 1.98621 0.490985 0
M  V30 2031 H 204.541 3.07452 2.68212 0
M  V30 2032 H 203.216 3.76756 1.76146 0
M  V30 2033 H 201.793 2.33739 2.90552 0
M  V30 2034 N 203.978 -0.674533 1.42435 0
M  V30 2035 C 204.925 -1.78807 1.45934 0
M  V30 2036 C 205.895 -1.63157 0.311271 0
M  V30 2037 O 207.08 -1.83707 0.515383 0
M  V30 2038 C 204.22 -3.16839 1.36773 0
M  V30 2039 C 203.333 -3.43774 2.61617 0
M  V30 2040 C 202.468 -4.71536 2.44597 0
M  V30 2041 C 201.507 -4.91505 3.64814 0
M  V30 2042 N 200.644 -6.10508 3.46734 0
M  V30 2043 H 205.484 -1.75151 2.41093 0
M  V30 2044 H 203.021 -0.85504 1.19697 0
M  V30 2045 H 204.979 -3.96606 1.29459 0
M  V30 2046 H 203.609 -3.19619 0.452089 0
M  V30 2047 H 202.661 -2.58259 2.79297 0
M  V30 2048 H 203.973 -3.54423 3.50978 0
M  V30 2049 H 203.127 -5.59393 2.3487 0
M  V30 2050 H 201.866 -4.6317 1.52726 0
M  V30 2051 H 200.871 -4.0209 3.74972 0
M  V30 2052 H 202.096 -5.01716 4.57665 0
M  V30 2053 H 200.042 -6.03315 2.5758 0
M  V30 2054 H 199.959 -6.2202 4.29682 0
M  V30 2055 H 201.227 -7.01044 3.40819 0
M  V30 2056 N 205.456 -1.28612 -0.910864 0
M  V30 2057 C 206.386 -1.15326 -2.03032 0
M  V30 2058 C 207.367 -0.0502924 -1.70026 0
M  V30 2059 O 208.552 -0.227797 -1.92859 0
M  V30 2060 C 205.682 -0.817343 -3.37545 0
M  V30 2061 C 204.636 -1.8754 -3.84724 0
M  V30 2062 C 203.962 -1.39305 -5.16235 0
M  V30 2063 C 205.262 -3.28244 -4.06267 0
M  V30 2064 H 206.956 -2.08975 -2.14406 0
M  V30 2065 H 204.502 -1.00612 -1.03021 0
M  V30 2066 H 206.455 -0.711151 -4.15356 0
M  V30 2067 H 205.179 0.154846 -3.26233 0
M  V30 2068 H 203.838 -1.97079 -3.09121 0
M  V30 2069 H 203.486 -0.409846 -5.01328 0
M  V30 2070 H 203.186 -2.10057 -5.48771 0
M  V30 2071 H 204.71 -1.30014 -5.96598 0
M  V30 2072 H 206.124 -3.21611 -4.74594 0
M  V30 2073 H 204.521 -3.96855 -4.5014 0
M  V30 2074 H 205.591 -3.72048 -3.10979 0
M  V30 2075 N 206.934 1.1197 -1.10907 0
M  V30 2076 C 207.867 2.16998 -0.706192 0
M  V30 2077 C 208.845 1.59903 0.294897 0
M  V30 2078 O 210.029 1.87513 0.192636 0
M  V30 2079 C 207.156 3.38673 -0.0427664 0
M  V30 2080 C 206.202 4.14414 -1.00811 0
M  V30 2081 S 207.035 4.72079 -2.52789 0
M  V30 2082 C 208.191 5.97083 -1.87731 0
M  V30 2083 H 208.424 2.50837 -1.59587 0
M  V30 2084 H 205.957 1.23508 -0.926555 0
M  V30 2085 H 207.915 4.09142 0.333668 0
M  V30 2086 H 206.576 3.03105 0.823788 0
M  V30 2087 H 205.769 5.016 -0.491259 0
M  V30 2088 H 205.371 3.49678 -1.3267 0
M  V30 2089 H 207.663 6.66599 -1.21044 0
M  V30 2090 H 208.606 6.53403 -2.72892 0
M  V30 2091 H 209.014 5.4837 -1.33979 0
M  V30 2092 N 208.412 0.89855 1.29475 0
M  V30 2093 C 209.689 0.443416 1.90508 0
M  V30 2094 C 210.069 -1.07685 1.81569 0
M  V30 2095 O 209.417 -1.9182 1.24166 0
M  V30 2096 C 209.627 0.956708 3.35631 0
M  V30 2097 C 210.975 0.999728 4.12663 0
M  V30 2098 O 211.999 0.904299 3.4453 0
M  V30 2099 O 210.858 1.14289 5.34416 0
M  V30 2100 H 207.952 0.138025 0.815401 0
M  V30 2101 H 210.498 0.98834 1.37949 0
M  V30 2102 H 209.27 2.00067 3.36287 0
M  V30 2103 H 208.893 0.391728 3.95666 0
M  V30 2104 N 209.89 -1.43072 0.660911 0
M  V30 2105 C 211.139 -2.00942 0.174735 0
M  V30 2106 C 211.452 -1.52797 -1.22117 0
M  V30 2107 O 212.658 -2.02991 -1.80297 0
M  V30 2108 C 211.114 -3.58948 0.261559 0
M  V30 2109 C 210.722 -4.16085 1.66064 0
M  V30 2110 C 212.466 -4.24173 -0.166617 0
M  V30 2111 C 210.373 -5.6641 1.70098 0
M  V30 2112 H 209.303 -0.751483 0.0615631 0
M  V30 2113 H 211.954 -1.63955 0.824069 0
M  V30 2114 H 210.336 -3.93372 -0.455421 0
M  V30 2115 H 211.51 -3.93147 2.40359 0
M  V30 2116 H 209.825 -3.6326 2.03546 0
M  V30 2117 H 212.422 -5.34471 -0.156433 0
M  V30 2118 H 212.765 -3.98647 -1.19943 0
M  V30 2119 H 213.298 -3.94659 0.498875 0
M  V30 2120 H 210.037 -5.96715 2.71315 0
M  V30 2121 H 209.557 -5.91382 1.00139 0
M  V30 2122 H 211.236 -6.30585 1.44816 0
M  V30 2123 N 211.368 -0.403325 -1.52352 0
M  V30 2124 C 212.316 0.439752 -2.28405 0
M  V30 2125 C 213.31 1.05089 -1.32863 0
M  V30 2126 O 214.516 0.989759 -1.50345 0
M  V30 2127 H 210.891 0.160587 -0.734653 0
M  V30 2128 H 212.862 -0.222983 -2.97566 0
M  V30 2129 C 211.611 1.54736 -3.11371 0
M  V30 2130 H 210.934 1.08643 -3.84755 0
M  V30 2131 H 212.374 2.1112 -3.67701 0
M  V30 2132 C 210.833 2.51141 -2.24566 0
M  V30 2133 O 211.363 3.54887 -1.88196 0
M  V30 2134 N 209.569 2.21213 -1.8845 0
M  V30 2135 H 209.116 1.36878 -2.18225 0
M  V30 2136 H 209.074 2.85963 -1.30662 0
M  V30 2137 N 212.846 1.57033 -0.133567 0
M  V30 2138 C 214.094 1.953 0.519848 0
M  V30 2139 C 214.415 1.01866 1.66278 0
M  V30 2140 O 213.685 0.0776513 1.95746 0
M  V30 2141 H 212.265 0.721091 0.195032 0
M  V30 2142 H 214.927 1.93809 -0.205921 0
M  V30 2143 H 214.023 2.98695 0.904854 0
M  V30 2144 N 214.325 -0.140222 1.56975 0
M  V30 2145 C 215.574 -0.850152 1.82908 0
M  V30 2146 C 215.887 -1.82028 0.715892 0
M  V30 2147 O 217.093 -2.57485 0.861016 0
M  V30 2148 C 215.549 -1.5625 3.24213 0
M  V30 2149 C 215.157 -0.63443 4.43485 0
M  V30 2150 C 216.901 -2.25881 3.59413 0
M  V30 2151 C 214.808 -1.34879 5.75814 0
M  V30 2152 H 213.738 -0.321221 0.682153 0
M  V30 2153 H 216.389 -0.102874 1.83211 0
M  V30 2154 H 214.771 -2.35565 3.18316 0
M  V30 2155 H 215.945 0.12398 4.60633 0
M  V30 2156 H 214.26 -0.0461836 4.16374 0
M  V30 2157 H 216.857 -2.79978 4.5554 0
M  V30 2158 H 217.2 -3.02693 2.85802 0
M  V30 2159 H 217.733 -1.53477 3.67001 0
M  V30 2160 H 214.472 -0.622385 6.52539 0
M  V30 2161 H 213.992 -2.07974 5.6259 0
M  V30 2162 H 215.671 -1.88784 6.18845 0
M  V30 2163 N 215.803 -1.52179 -0.40978 0
M  V30 2164 C 216.733 -1.78435 -1.5061 0
M  V30 2165 C 217.714 -0.635295 -1.57791 0
M  V30 2166 O 218.899 -0.880823 -1.73076 0
M  V30 2167 C 216.029 -1.93444 -2.88439 0
M  V30 2168 C 214.983 -3.09038 -2.96108 0
M  V30 2169 C 214.309 -3.09268 -4.36185 0
M  V30 2170 C 215.609 -4.48508 -2.67652 0
M  V30 2171 H 217.303 -2.70237 -1.28889 0
M  V30 2172 H 214.849 -1.30036 -0.618605 0
M  V30 2173 H 216.802 -2.10394 -3.65119 0
M  V30 2174 H 215.526 -0.983129 -3.11452 0
M  V30 2175 H 214.185 -2.91837 -2.21872 0
M  V30 2176 H 213.833 -2.11861 -4.56206 0
M  V30 2177 H 213.533 -3.86907 -4.42241 0
M  V30 2178 H 215.057 -3.28348 -5.14801 0
M  V30 2179 H 216.471 -4.65918 -3.34056 0
M  V30 2180 H 214.868 -5.28059 -2.85085 0
M  V30 2181 H 215.938 -4.56649 -1.63095 0
M  V30 2182 N 217.281 0.66697 -1.42791 0
M  V30 2183 C 218.191 1.80962 -1.49299 0
M  V30 2184 C 219.207 1.69775 -0.381108 0
M  V30 2185 O 220.383 1.91188 -0.633188 0
M  V30 2186 C 217.448 3.17156 -1.40045 0
M  V30 2187 C 216.509 3.40242 -2.6179 0
M  V30 2188 C 215.742 4.69939 -2.52969 0
M  V30 2189 O 215.965 5.48372 -1.56985 0
M  V30 2190 O 214.899 4.94441 -3.43237 0
M  V30 2191 H 218.725 1.78427 -2.45759 0
M  V30 2192 H 216.31 0.823713 -1.24641 0
M  V30 2193 H 218.192 3.98413 -1.37276 0
M  V30 2194 H 216.867 3.20312 -0.467138 0
M  V30 2195 H 215.774 2.58802 -2.70134 0
M  V30 2196 H 217.107 3.41923 -3.54047 0
M  V30 2197 N 218.759 1.29093 0.90403 0
M  V30 2198 C 220.007 1.16583 1.65085 0
M  V30 2199 C 220.328 -0.283933 1.92922 0
M  V30 2200 O 219.598 -1.19509 1.55224 0
M  V30 2201 H 218.178 0.428467 0.611903 0
M  V30 2202 H 220.84 1.61959 1.08422 0
M  V30 2203 H 219.936 1.71266 2.6091 0
M  V30 2204 N 220.237 -1.11381 1.11499 0
M  V30 2205 C 221.184 -2.17439 0.773887 0
M  V30 2206 C 222.154 -1.64132 -0.254899 0
M  V30 2207 O 223.339 -1.90345 -0.13168 0
M  V30 2208 C 220.479 -3.44373 0.223917 0
M  V30 2209 C 219.592 -4.1168 1.30934 0
M  V30 2210 C 218.727 -5.263 0.71984 0
M  V30 2211 C 217.766 -5.85493 1.78507 0
M  V30 2212 N 216.903 -6.91507 1.21502 0
M  V30 2213 H 221.743 -2.45962 1.68246 0
M  V30 2214 H 219.28 -1.20744 0.840191 0
M  V30 2215 H 221.238 -4.17047 -0.112921 0
M  V30 2216 H 219.868 -3.16232 -0.647851 0
M  V30 2217 H 218.92 -3.37073 1.76312 0
M  V30 2218 H 220.232 -4.51729 2.11524 0
M  V30 2219 H 219.386 -6.05785 0.333094 0
M  V30 2220 H 218.125 -4.87559 -0.117377 0
M  V30 2221 H 217.13 -5.04686 2.18111 0
M  V30 2222 H 218.355 -6.26301 2.62533 0
M  V30 2223 H 216.301 -6.54783 0.399455 0
M  V30 2224 H 216.218 -7.30214 1.95763 0
M  V30 2225 H 217.486 -7.74795 0.855181 0
M  V30 2226 N 221.715 -0.905404 -1.28997 0
M  V30 2227 C 222.992 -0.453513 -1.9027 0
M  V30 2228 C 223.372 1.06721 -1.82137 0
M  V30 2229 O 222.72 1.91159 -1.25182 0
M  V30 2230 C 222.93 -0.974494 -3.35119 0
M  V30 2231 C 224.278 -1.0216 -4.12127 0
M  V30 2232 O 225.302 -0.922557 -3.44046 0
M  V30 2233 O 224.161 -1.17121 -5.33802 0
M  V30 2234 H 221.255 -0.142347 -0.814657 0
M  V30 2235 H 223.801 -0.995642 -1.37423 0
M  V30 2236 H 222.573 -2.01848 -3.35221 0
M  V30 2237 H 222.196 -0.412706 -3.95452 0
M  V30 2238 N 223.193 1.4272 -0.668489 0
M  V30 2239 C 224.103 2.34596 0.0139753 0
M  V30 2240 C 225.119 1.5474 0.795703 0
M  V30 2241 O 226.295 1.87334 0.739466 0
M  V30 2242 C 223.36 3.33202 0.957982 0
M  V30 2243 C 222.421 4.28957 0.17149 0
M  V30 2244 C 221.654 5.22853 1.07053 0
M  V30 2245 O 221.877 5.21531 2.31001 0
M  V30 2246 O 220.811 5.9952 0.534727 0
M  V30 2247 H 224.637 2.9448 -0.742661 0
M  V30 2248 H 222.222 1.43117 -0.428705 0
M  V30 2249 H 224.104 3.93796 1.50008 0
M  V30 2250 H 222.779 2.758 1.69458 0
M  V30 2251 H 221.686 3.71796 -0.414558 0
M  V30 2252 H 223.019 4.89383 -0.52586 0
M  V30 2253 N 224.671 0.411399 1.52136 0
M  V30 2254 C 226.082 -0.0576826 1.86611 0
M  V30 2255 C 226.433 -1.44238 1.33003 0
M  V30 2256 O 225.558 -2.05759 0.670228 0
M  V30 2257 C 226.153 -0.111448 3.38617 0
M  V30 2258 C 224.712 -0.52487 3.72723 0
M  V30 2259 C 223.859 0.299176 2.75681 0
M  V30 2260 H 226.81 0.628368 1.4573 0
M  V30 2261 H 226.831 -0.926252 3.69054 0
M  V30 2262 H 226.343 0.896488 3.77604 0
M  V30 2263 H 224.444 -1.53936 3.39315 0
M  V30 2264 H 224.557 -0.267681 4.78352 0
M  V30 2265 H 222.921 -0.238814 2.53578 0
M  V30 2266 H 223.704 1.3055 3.17508 0
M  V30 2267 N 226.149 -1.5696 0.141893 0
M  V30 2268 C 227.112 -2.15316 -0.785587 0
M  V30 2269 C 228.112 -1.09366 -1.1788 0
M  V30 2270 O 229.302 -1.35031 -1.10056 0
M  V30 2271 C 226.434 -2.71211 -2.06537 0
M  V30 2272 H 227.627 -2.98608 -0.278041 0
M  V30 2273 H 225.18 -1.5593 -0.107519 0
M  V30 2274 H 225.915 -1.91571 -2.6167 0
M  V30 2275 H 225.7 -3.4872 -1.79268 0
M  V30 2276 H 227.19 -3.16189 -2.72789 0
M  V30 2277 N 227.627 0.131896 -1.57047 0
M  V30 2278 C 229.038 0.690407 -1.73465 0
M  V30 2279 C 229.389 1.8094 -0.758629 0
M  V30 2280 O 228.514 2.16282 0.0713813 0
M  V30 2281 C 229.109 1.25916 -3.14532 0
M  V30 2282 C 227.668 1.76409 -3.32501 0
M  V30 2283 C 226.815 0.658579 -2.69366 0
M  V30 2284 H 229.766 -0.0939144 -1.58422 0
M  V30 2285 H 229.787 2.12892 -3.15369 0
M  V30 2286 H 229.299 0.444515 -3.85546 0
M  V30 2287 H 227.4 2.60391 -2.66509 0
M  V30 2288 H 227.513 1.88241 -4.4057 0
M  V30 2289 H 225.877 1.08899 -2.30246 0
M  V30 2290 H 226.66 -0.14487 -3.42994 0
M  V30 2291 N 229.106 1.52395 0.401703 0
M  V30 2292 C 230.354 1.66488 1.14569 0
M  V30 2293 C 230.675 0.400897 1.90835 0
M  V30 2294 O 229.945 -0.584415 1.8698 0
M  V30 2295 H 228.525 0.613672 0.425929 0
M  V30 2296 H 231.187 1.89464 0.457093 0
M  V30 2297 H 230.283 2.50942 1.85566 0
M  V30 2298 N 230.584 -0.659388 1.43143 0
M  V30 2299 C 231.531 -1.77249 1.47822 0
M  V30 2300 C 232.501 -1.62818 0.328558 0
M  V30 2301 O 233.686 -1.83151 0.534838 0
M  V30 2302 C 230.826 -3.15371 1.40126 0
M  V30 2303 C 229.939 -3.4098 2.65249 0
M  V30 2304 C 229.074 -4.68915 2.49584 0
M  V30 2305 C 228.113 -4.87608 3.70006 0
M  V30 2306 N 227.25 -6.06796 3.53189 0
M  V30 2307 H 232.09 -1.72584 2.42938 0
M  V30 2308 H 229.627 -0.842297 1.20598 0
M  V30 2309 H 231.585 -3.9521 1.33659 0
M  V30 2310 H 230.215 -3.19121 0.485964 0
M  V30 2311 H 229.267 -2.55282 2.8202 0
M  V30 2312 H 230.579 -3.50681 3.54717 0
M  V30 2313 H 229.733 -5.56871 2.4079 0
M  V30 2314 H 228.472 -4.61524 1.5763 0
M  V30 2315 H 227.477 -3.9809 3.79215 0
M  V30 2316 H 228.702 -4.96834 4.62961 0
M  V30 2317 H 226.648 -6.00549 2.63965 0
M  V30 2318 H 226.565 -6.17428 4.36255 0
M  V30 2319 H 227.833 -6.9739 3.48236 0
M  V30 2320 O 232.101 -1.40162 -0.802292 0
M  V30 2321 H 232.792 -1.28727 -1.44738 0
M  V30 END ATOM
M  V30 BEGIN BOND
M  V30 END BOND
M  V30 END CTAB
M  END
$$$$
