drugbank_target|P46098 5-hydroxytryptamine receptor 3A (DB00333; DB00334; DB00363; DB00377; DB00408; DB00543; DB00555; DB00604; DB00721; DB00726; DB00728; DB00757; DB00889; DB00898; DB00904; DB00969; DB00988; DB01043; DB01156; DB01199; DB01221; DB01224; DB01233; DB01238; DB04885; DB04917; DB05049; DB05642; DB06204; DB06422; DB08839; DB09061; DB09068; DB09290; DB11699; DB14185)
 OpenBabel12092119293D

  0  0  0     0  0            999 V3000
M  V30 BEGIN CTAB
M  V30 COUNTS 7859 7964 0 0 0
M  V30 BEGIN ATOM
M  V30 1 H -0.908 1.98254 -0.117106 0
M  V30 2 N 0 1.576 0 0
M  V30 3 C 0.933 2.03868 1.02534 0
M  V30 4 C 1.911 0.928543 1.3348 0
M  V30 5 O 3.095 1.19667 1.45644 0
M  V30 6 C 0.222 2.43627 2.35294 0
M  V30 7 C -0.732 3.65373 2.2001 0
M  V30 8 S 0.101 5.13292 1.52614 0
M  V30 9 C 1.257 5.56322 2.86805 0
M  V30 10 H 1.49 2.90518 0.631377 0
M  V30 11 H -0.977 1.52953 0.210867 0
M  V30 12 H 0.981 2.67203 3.11629 0
M  V30 13 H -0.358 1.57376 2.7183 0
M  V30 14 H -1.165 3.90944 3.18086 0
M  V30 15 H -1.563 3.418 1.51819 0
M  V30 16 H 0.729 5.58782 3.83104 0
M  V30 17 H 1.672 6.56266 2.65933 0
M  V30 18 H 2.08 4.83886 2.90714 0
M  V30 19 N 1.4781 -0.272755 1.55222 0
M  V30 20 C 2.4081 -1.34136 1.91127 0
M  V30 21 C 3.3891 -1.51513 0.773168 0
M  V30 22 O 4.5741 -1.64552 1.03132 0
M  V30 23 C 1.7041 -2.70083 2.1834 0
M  V30 24 C 0.6581 -2.67437 3.34158 0
M  V30 25 C -0.0159 -4.06938 3.46851 0
M  V30 26 C 1.2841 -2.26686 4.70543 0
M  V30 27 H 2.9781 -1.04333 2.80633 0
M  V30 28 H 0.5241 -0.500454 1.35024 0
M  V30 29 H 2.4771 -3.44952 2.42046 0
M  V30 30 H 1.2011 -3.01469 1.25634 0
M  V30 31 H -0.1399 -1.95026 3.1042 0
M  V30 32 H -0.4919 -4.35547 2.51611 0
M  V30 33 H -0.7919 -4.06062 4.2472 0
M  V30 34 H 0.7321 -4.83545 3.72849 0
M  V30 35 H 2.1461 -2.91277 4.93792 0
M  V30 36 H 0.5431 -2.36971 5.5133 0
M  V30 37 H 1.6131 -1.21818 4.69349 0
M  V30 38 N 2.9562 -1.48159 -0.537278 0
M  V30 39 C 3.8862 -1.65029 -1.6519 0
M  V30 40 C 4.8672 -0.499281 -1.62607 0
M  V30 41 O 6.0522 -0.730972 -1.79918 0
M  V30 42 C 3.1822 -1.68303 -3.03795 0
M  V30 43 C 2.1362 -2.8283 -3.21234 0
M  V30 44 C 1.4622 -2.71189 -4.60826 0
M  V30 45 C 2.7622 -4.24211 -3.04701 0
M  V30 46 H 4.4562 -2.58341 -1.51328 0
M  V30 47 H 2.0022 -1.24325 -0.726585 0
M  V30 48 H 3.9552 -1.78693 -3.81637 0
M  V30 49 H 2.6792 -0.715635 -3.18663 0
M  V30 50 H 1.3382 -2.71983 -2.45807 0
M  V30 51 H 0.9862 -1.72435 -4.7252 0
M  V30 52 H 0.6862 -3.48035 -4.7344 0
M  V30 53 H 2.2102 -2.83537 -5.40777 0
M  V30 54 H 3.6242 -4.3593 -3.72341 0
M  V30 55 H 2.0212 -5.01998 -3.28813 0
M  V30 56 H 3.0912 -4.41184 -2.01209 0
M  V30 57 N 4.4343 0.785586 -1.36625 0
M  V30 58 C 5.6803 1.5452 -1.32269 0
M  V30 59 C 6.0353 1.92159 0.0962266 0
M  V30 60 O 5.3283 1.60158 1.05167 0
M  V30 61 C 5.5223 2.83007 -2.1827 0
M  V30 62 C 5.3513 2.57925 -3.68382 0
M  V30 63 C 4.1213 2.52752 -4.37544 0
M  V30 64 C 6.3193 2.26861 -4.61561 0
M  V30 65 N 4.3013 2.19608 -5.73276 0
M  V30 66 C 5.6723 2.03738 -5.85569 0
M  V30 67 C 7.7273 2.129 -4.50087 0
M  V30 68 C 6.4303 1.68065 -6.9939 0
M  V30 69 C 8.4563 1.78626 -5.63779 0
M  V30 70 C 7.8183 1.56353 -6.86828 0
M  V30 71 H 3.9173 0.566301 -0.539283 0
M  V30 72 H 6.5013 0.917736 -1.71714 0
M  V30 73 H 4.6723 3.43614 -1.81063 0
M  V30 74 H 6.4043 3.48775 -2.05275 0
M  V30 75 H 3.1593 2.6813 -3.90389 0
M  V30 76 H 3.5833 2.05771 -6.44971 0
M  V30 77 H 8.2253 2.28808 -3.55537 0
M  V30 78 H 5.9433 1.50895 -7.93887 0
M  V30 79 H 9.5293 1.68502 -5.56865 0
M  V30 80 H 8.4093 1.30223 -7.73312 0
M  V30 81 N 5.9124 1.20967 1.01018 0
M  V30 82 C 7.1584 1.02526 1.74975 0
M  V30 83 C 7.4914 -0.4408 1.89131 0
M  V30 84 O 6.7664 -1.32718 1.42184 0
M  V30 85 C 7.0494 1.71699 3.1653 0
M  V30 86 C 6.9024 3.25791 3.10129 0
M  V30 87 C 8.2214 1.45531 4.15342 0
M  V30 88 H 5.3404 0.373863 0.635134 0
M  V30 89 H 7.9824 1.49071 1.17805 0
M  V30 90 H 6.1324 1.32128 3.65341 0
M  V30 91 H 7.8044 3.74697 2.69072 0
M  V30 92 H 6.0474 3.56363 2.47362 0
M  V30 93 H 6.7184 3.69353 4.10222 0
M  V30 94 H 9.1944 1.79872 3.75213 0
M  V30 95 H 8.0704 1.96453 5.1254 0
M  V30 96 H 8.3314 0.384237 4.40427 0
M  V30 97 N 7.3905 -1.2043 1.01659 0
M  V30 98 C 8.3225 -2.22626 0.544988 0
M  V30 99 C 9.3355 -1.58479 -0.372609 0
M  V30 100 O 10.5245 -1.77679 -0.170958 0
M  V30 101 C 7.6245 -3.38141 -0.22663 0
M  V30 102 C 6.7975 -4.31877 0.692876 0
M  V30 103 C 5.8565 -5.26191 -0.0311616 0
M  V30 104 O 4.8825 -5.6612 0.591343 0
M  V30 105 N 6.0845 -5.65618 -1.30601 0
M  V30 106 H 8.8495 -2.63716 1.42388 0
M  V30 107 H 6.4105 -1.34971 0.894116 0
M  V30 108 H 8.4025 -3.98239 -0.72024 0
M  V30 109 H 6.9725 -2.95943 -1.00681 0
M  V30 110 H 6.1925 -3.69746 1.36679 0
M  V30 111 H 7.4805 -4.91426 1.31824 0
M  V30 112 H 6.8785 -5.3519 -1.83269 0
M  V30 113 H 5.4355 -6.28025 -1.74435 0
M  V30 114 N 8.8686 -0.792821 -1.36206 0
M  V30 115 C 9.8006 -0.151469 -2.28699 0
M  V30 116 C 10.8136 0.641262 -1.49638 0
M  V30 117 O 12.0026 0.475885 -1.72039 0
M  V30 118 C 9.1026 0.808424 -3.29117 0
M  V30 119 C 8.2756 0.0650202 -4.37352 0
M  V30 120 C 7.3346 0.941358 -5.17711 0
M  V30 121 O 6.3606 0.397352 -5.67811 0
M  V30 122 N 7.5626 2.2652 -5.3448 0
M  V30 123 H 10.3276 -0.945982 -2.84379 0
M  V30 124 H 7.8886 -0.647032 -1.48409 0
M  V30 125 H 9.8806 1.3986 -3.79765 0
M  V30 126 H 8.4506 1.5038 -2.74052 0
M  V30 127 H 7.6706 -0.706255 -3.87822 0
M  V30 128 H 8.9586 -0.447847 -5.06825 0
M  V30 129 H 8.3566 2.73128 -4.95396 0
M  V30 130 H 6.9136 2.80493 -5.88359 0
M  V30 131 N 10.3467 1.47872 -0.545128 0
M  V30 132 C 11.3097 2.28337 0.198717 0
M  V30 133 C 12.3097 1.36255 0.853888 0
M  V30 134 O 13.4997 1.59003 0.711606 0
M  V30 135 C 10.6317 3.15585 1.28915 0
M  V30 136 H 11.8247 2.95567 -0.507941 0
M  V30 137 H 9.3777 1.53362 -0.301616 0
M  V30 138 H 10.1127 2.53019 2.02859 0
M  V30 139 H 9.8977 3.83337 0.824309 0
M  V30 140 H 11.3877 3.76243 1.81194 0
M  V30 141 N 11.8248 0.280983 1.55075 0
M  V30 142 C 12.7548 -0.597469 2.25727 0
M  V30 143 C 13.7358 -1.15417 1.24952 0
M  V30 144 O 14.9208 -1.18722 1.53684 0
M  V30 145 C 12.0508 -1.7789 2.98283 0
M  V30 146 C 11.0048 -1.35347 4.06036 0
M  V30 147 C 10.3308 -2.61846 4.66198 0
M  V30 148 C 11.6308 -0.499354 5.19907 0
M  V30 149 H 13.3248 -0.00824265 2.99399 0
M  V30 150 H 10.8708 -0.0025244 1.44 0
M  V30 151 H 12.8238 -2.39937 3.46422 0
M  V30 152 H 11.5478 -2.39405 2.22155 0
M  V30 153 H 10.2068 -0.756156 3.58717 0
M  V30 154 H 9.8548 -3.21632 3.86732 0
M  V30 155 H 9.5548 -2.3409 5.38958 0
M  V30 156 H 11.0788 -3.24732 5.1709 0
M  V30 157 H 12.4928 -1.02498 5.64063 0
M  V30 158 H 10.8898 -0.316424 5.99265 0
M  V30 159 H 11.9598 0.480459 4.82514 0
M  V30 160 N 13.3029 -1.57598 0.00835791 0
M  V30 161 C 14.2329 -2.1198 -0.979113 0
M  V30 162 C 15.2139 -1.03091 -1.35301 0
M  V30 163 O 16.3989 -1.30818 -1.43528 0
M  V30 164 C 13.5289 -2.62995 -2.26828 0
M  V30 165 C 12.4829 -3.76485 -2.03576 0
M  V30 166 C 11.8089 -4.13846 -3.38579 0
M  V30 167 C 13.1089 -5.0342 -1.39161 0
M  V30 168 H 14.8029 -2.94738 -0.526281 0
M  V30 169 H 12.3489 -1.41783 -0.251704 0
M  V30 170 H 14.3019 -2.99669 -2.96271 0
M  V30 171 H 13.0259 -1.7737 -2.7424 0
M  V30 172 H 11.6849 -3.40217 -1.36557 0
M  V30 173 H 11.3329 -3.25232 -3.83709 0
M  V30 174 H 11.0329 -4.90312 -3.23834 0
M  V30 175 H 12.5569 -4.53086 -4.09323 0
M  V30 176 H 13.9709 -5.37812 -1.98573 0
M  V30 177 H 12.3679 -5.84746 -1.34878 0
M  V30 178 H 13.4379 -4.83548 -0.361868 0
M  V30 179 N 14.781 0.264519 -1.55364 0
M  V30 180 C 15.744 1.31046 -1.88042 0
M  V30 181 C 16.744 1.41943 -0.755569 0
M  V30 182 O 17.934 1.40947 -1.02369 0
M  V30 183 C 15.066 2.69067 -2.09323 0
M  V30 184 H 16.259 1.03297 -2.81549 0
M  V30 185 H 13.812 0.502989 -1.47986 0
M  V30 186 H 14.547 3.01982 -1.18226 0
M  V30 187 H 14.332 2.62542 -2.91229 0
M  V30 188 H 15.822 3.44623 -2.35848 0
M  V30 189 N 16.2591 1.48442 0.529413 0
M  V30 190 C 17.1891 1.65902 1.64313 0
M  V30 191 C 18.1701 0.507897 1.6234 0
M  V30 192 O 19.3551 0.740503 1.79528 0
M  V30 193 C 16.4851 1.69911 3.02898 0
M  V30 194 C 15.4391 2.8453 3.19729 0
M  V30 195 C 14.7651 2.73629 4.59381 0
M  V30 196 C 16.0651 4.25821 3.02447 0
M  V30 197 H 17.7591 2.5914 1.49955 0
M  V30 198 H 15.3051 1.24709 0.719982 0
M  V30 199 H 17.2581 1.80715 3.80684 0
M  V30 200 H 15.9821 0.732524 3.18279 0
M  V30 201 H 14.6411 2.73283 2.44361 0
M  V30 202 H 14.2891 1.74938 4.71599 0
M  V30 203 H 13.9891 3.50541 4.71588 0
M  V30 204 H 15.5131 2.86401 5.39265 0
M  V30 205 H 16.9271 4.37898 3.70024 0
M  V30 206 H 15.3241 5.03735 3.26146 0
M  V30 207 H 16.3941 4.42244 1.98867 0
M  V30 208 N 17.7372 -0.778329 1.37039 0
M  V30 209 C 18.6672 -1.90546 1.34962 0
M  V30 210 C 19.6482 -1.68681 0.219274 0
M  V30 211 O 20.8332 -1.89634 0.418624 0
M  V30 212 C 17.9632 -3.27734 1.14925 0
M  V30 213 C 16.9172 -3.64147 2.24902 0
M  V30 214 C 16.2432 -4.99806 1.89996 0
M  V30 215 C 17.5432 -3.71579 3.67051 0
M  V30 216 H 19.2372 -1.92541 2.29277 0
M  V30 217 H 16.7832 -0.924948 1.10366 0
M  V30 218 H 18.7362 -4.06215 1.12104 0
M  V30 219 H 17.4602 -3.26154 0.170631 0
M  V30 220 H 16.1192 -2.8797 2.26868 0
M  V30 221 H 15.7672 -4.94759 0.906796 0
M  V30 222 H 15.4672 -5.25139 2.63634 0
M  V30 223 H 16.9912 -5.80694 1.88749 0
M  V30 224 H 18.4052 -4.40227 3.67251 0
M  V30 225 H 16.8022 -4.08405 4.39688 0
M  V30 226 H 17.8722 -2.72404 4.01154 0
M  V30 227 N 19.2153 -1.21501 -1.00376 0
M  V30 228 C 20.1453 -0.999478 -2.11028 0
M  V30 229 C 21.1263 0.0759671 -1.6993 0
M  V30 230 O 22.3113 -0.0841106 -1.94018 0
M  V30 231 C 19.4413 -0.564709 -3.42678 0
M  V30 232 C 18.3953 -1.58486 -3.97576 0
M  V30 233 C 17.7213 -1.00628 -5.25146 0
M  V30 234 C 19.0213 -2.97204 -4.29496 0
M  V30 235 H 20.7153 -1.92495 -2.29317 0
M  V30 236 H 18.2613 -0.92693 -1.102 0
M  V30 237 H 20.2143 -0.401091 -4.19487 0
M  V30 238 H 18.9383 0.396411 -3.24185 0
M  V30 239 H 17.5973 -1.73606 -3.22888 0
M  V30 240 H 17.2453 -0.0368439 -5.02987 0
M  V30 241 H 16.9453 -1.68771 -5.62841 0
M  V30 242 H 18.4693 -0.854015 -6.04598 0
M  V30 243 H 19.8833 -2.8552 -4.97143 0
M  V30 244 H 18.2803 -3.62372 -4.78338 0
M  V30 245 H 19.3503 -3.47956 -3.3772 0
M  V30 246 N 20.6934 1.19889 -1.02296 0
M  V30 247 C 22.1044 1.71124 -0.746568 0
M  V30 248 C 22.4554 1.81939 0.734335 0
M  V30 249 O 21.5804 1.48639 1.57275 0
M  V30 250 C 22.1754 3.10804 -1.34857 0
M  V30 251 C 20.7344 3.59323 -1.1209 0
M  V30 252 C 19.8814 2.3635 -1.45031 0
M  V30 253 H 22.8324 1.04813 -1.19163 0
M  V30 254 H 22.8534 3.73186 -0.742437 0
M  V30 255 H 22.3654 3.029 -2.42638 0
M  V30 256 H 20.4664 3.7255 -0.0610337 0
M  V30 257 H 20.5794 4.4378 -1.80544 0
M  V30 258 H 18.9434 2.39399 -0.869487 0
M  V30 259 H 19.7264 2.31081 -2.53883 0
M  V30 260 N 22.1715 0.800033 1.35784 0
M  V30 261 C 23.3995 0.389606 2.03199 0
M  V30 262 C 23.8145 -0.997375 1.60306 0
M  V30 263 O 23.1715 -1.64154 0.797481 0
M  V30 264 C 23.2225 0.455855 3.58614 0
M  V30 265 O 22.9435 1.78815 3.99946 0
M  V30 266 C 24.4445 0.0374032 4.43284 0
M  V30 267 H 21.6645 0.159132 0.651857 0
M  V30 268 H 24.2085 1.08183 1.73541 0
M  V30 269 H 22.3635 -0.188057 3.86943 0
M  V30 270 H 22.7775 1.74636 4.94573 0
M  V30 271 H 24.2515 0.134882 5.51835 0
M  V30 272 H 24.7285 -1.01651 4.27275 0
M  V30 273 H 25.3345 0.654215 4.20238 0
M  V30 274 N 23.6496 -1.47581 0.552962 0
M  V30 275 C 24.5796 -2.32762 -0.185451 0
M  V30 276 C 25.5606 -1.43527 -0.912905 0
M  V30 277 O 26.7456 -1.72388 -0.894201 0
M  V30 278 C 23.8756 -3.25219 -1.21859 0
M  V30 279 C 22.8296 -4.23661 -0.607864 0
M  V30 280 C 22.1556 -5.05413 -1.74533 0
M  V30 281 C 23.4556 -5.20481 0.435582 0
M  V30 282 H 25.1496 -2.94749 0.525684 0
M  V30 283 H 22.6956 -1.41738 0.254251 0
M  V30 284 H 24.6486 -3.8365 -1.7433 0
M  V30 285 H 23.3726 -2.61279 -1.95961 0
M  V30 286 H 22.0316 -3.66451 -0.104489 0
M  V30 287 H 21.6796 -4.3788 -2.47529 0
M  V30 288 H 21.3796 -5.72059 -1.34249 0
M  V30 289 H 22.9036 -5.66701 -2.27338 0
M  V30 290 H 24.3176 -5.733 -0.00290157 0
M  V30 291 H 22.7146 -5.95305 0.757067 0
M  V30 292 H 23.7846 -4.66217 1.33303 0
M  V30 293 N 25.1277 -0.289203 -1.54924 0
M  V30 294 C 26.0577 0.58549 -2.2604 0
M  V30 295 C 27.0387 1.14753 -1.25562 0
M  V30 296 O 28.2237 1.17906 -1.54311 0
M  V30 297 C 25.3537 1.76305 -2.99222 0
M  V30 298 C 24.3077 1.33191 -4.06748 0
M  V30 299 C 23.6337 2.5937 -4.6758 0
M  V30 300 C 24.9337 0.471775 -5.20165 0
M  V30 301 H 26.6277 -0.00763532 -2.99399 0
M  V30 302 H 24.1737 -0.00511229 -1.43999 0
M  V30 303 H 26.1267 2.38097 -3.47689 0
M  V30 304 H 24.8507 2.38223 -2.23422 0
M  V30 305 H 23.5097 0.737121 -3.59113 0
M  V30 306 H 23.1577 3.19576 -3.88433 0
M  V30 307 H 22.8577 2.31228 -5.40192 0
M  V30 308 H 24.3817 3.21985 -5.18804 0
M  V30 309 H 25.7957 0.995056 -5.64599 0
M  V30 310 H 24.1927 0.284639 -5.99425 0
M  V30 311 H 25.2627 -0.506041 -4.82252 0
M  V30 312 N 26.6058 1.57591 -0.0167156 0
M  V30 313 C 27.5688 2.08393 0.954204 0
M  V30 314 C 28.5688 0.996531 1.26198 0
M  V30 315 O 29.7588 1.25858 1.20438 0
M  V30 316 C 26.8908 2.5394 2.27436 0
M  V30 317 H 28.0838 2.95455 0.514451 0
M  V30 318 H 25.6368 1.54582 0.231089 0
M  V30 319 H 26.3718 1.70171 2.76066 0
M  V30 320 H 26.1568 3.33371 2.06412 0
M  V30 321 H 27.6468 2.93512 2.97053 0
M  V30 322 N 28.0839 -0.256276 1.55502 0
M  V30 323 C 29.0159 -1.33981 1.85962 0
M  V30 324 C 30.0289 -1.44743 0.745212 0
M  V30 325 O 31.2179 -1.4626 1.02324 0
M  V30 326 C 28.3179 -2.7194 2.02242 0
M  V30 327 C 27.4909 -2.83562 3.33033 0
M  V30 328 C 26.5499 -4.02304 3.39172 0
M  V30 329 O 25.5759 -3.92273 4.12444 0
M  V30 330 N 26.7779 -5.15045 2.67784 0
M  V30 331 H 29.5429 -1.08191 2.7949 0
M  V30 332 H 27.1039 -0.446388 1.55624 0
M  V30 333 H 29.0959 -3.49697 2.03701 0
M  V30 334 H 27.6659 -2.90479 1.15502 0
M  V30 335 H 26.8859 -1.92555 3.43971 0
M  V30 336 H 28.1739 -2.88271 4.19258 0
M  V30 337 H 27.5719 -5.26085 2.07968 0
M  V30 338 H 26.1289 -5.90972 2.74947 0
M  V30 339 N 29.562 -1.4872 -0.521534 0
M  V30 340 C 30.81 -1.56857 -1.27437 0
M  V30 341 C 31.131 -0.247982 -1.93417 0
M  V30 342 O 30.401 0.731151 -1.81744 0
M  V30 343 H 28.981 -0.577885 -0.473347 0
M  V30 344 H 31.643 -1.85233 -0.606205 0
M  V30 345 H 30.739 -2.35402 -2.0492 0
M  V30 346 N 31.0401 0.771051 -1.3745 0
M  V30 347 C 31.9501 1.91538 -1.35464 0
M  V30 348 C 32.9661 1.72134 -0.254123 0
M  V30 349 O 34.1421 1.95358 -0.489626 0
M  V30 350 C 31.2071 3.26671 -1.16134 0
M  V30 351 C 30.2681 3.58723 -2.35831 0
M  V30 352 C 29.5011 4.87409 -2.17413 0
M  V30 353 O 29.7241 5.58506 -1.15876 0
M  V30 354 O 28.6581 5.18539 -3.05615 0
M  V30 355 H 32.4841 1.96165 -2.31847 0
M  V30 356 H 30.0691 0.9139 -1.18187 0
M  V30 357 H 31.9511 4.07499 -1.07345 0
M  V30 358 H 30.6261 3.22894 -0.228251 0
M  V30 359 H 29.5331 2.78127 -2.50192 0
M  V30 360 H 30.8661 3.67243 -3.27709 0
M  V30 361 N 32.5182 1.22032 0.997298 0
M  V30 362 C 33.4812 0.987909 2.06816 0
M  V30 363 C 34.4812 -0.0440084 1.6074 0
M  V30 364 O 35.6712 0.194053 1.73116 0
M  V30 365 C 32.8032 0.49132 3.37341 0
M  V30 366 H 33.9962 1.93803 2.28868 0
M  V30 367 H 31.5492 1.03838 1.16822 0
M  V30 368 H 32.2842 -0.463364 3.20973 0
M  V30 369 H 32.0692 1.23575 3.72118 0
M  V30 370 H 33.5592 0.348824 4.16141 0
M  V30 371 N 33.9963 -1.19345 1.0293 0
M  V30 372 C 35.4123 -1.41069 0.746446 0
M  V30 373 C 35.6123 -1.90078 -0.668776 0
M  V30 374 O 34.6683 -2.0778 -1.4347 0
M  V30 375 C 35.9813 -2.42141 1.78292 0
M  V30 376 C 37.5293 -2.55887 1.80252 0
M  V30 377 C 38.0043 -3.60214 2.8286 0
M  V30 378 N 39.4953 -3.67711 2.81679 0
M  V30 379 C 40.2303 -4.48128 3.57727 0
M  V30 380 N 39.7263 -5.32248 4.43491 0
M  V30 381 N 41.5193 -4.42782 3.46267 0
M  V30 382 H 33.6703 -0.858536 1.94275 0
M  V30 383 H 35.9333 -0.439541 0.839945 0
M  V30 384 H 35.6393 -2.13155 2.79746 0
M  V30 385 H 35.5133 -3.41323 1.60557 0
M  V30 386 H 37.9003 -2.84196 0.794757 0
M  V30 387 H 37.9813 -1.56858 2.02062 0
M  V30 388 H 37.6253 -3.32647 3.83807 0
M  V30 389 H 37.5553 -4.58895 2.58307 0
M  V30 390 H 40.0463 -3.07634 2.19476 0
M  V30 391 H 40.3593 -5.90729 4.98256 0
M  V30 392 H 38.7043 -5.31707 4.47564 0
M  V30 393 H 41.8953 -3.76107 2.78677 0
M  V30 394 H 42.0683 -5.05215 4.05785 0
M  V30 395 N 35.4744 -0.807222 -1.35358 0
M  V30 396 C 36.8904 -0.491038 -1.51858 0
M  V30 397 C 37.0904 0.987648 -1.75635 0
M  V30 398 O 36.1464 1.77265 -1.79815 0
M  V30 399 C 37.4594 -1.33695 -2.69344 0
M  V30 400 C 39.0074 -1.33246 -2.83222 0
M  V30 401 C 39.4824 -2.1625 -4.03733 0
M  V30 402 N 40.9734 -2.1379 -4.10911 0
M  V30 403 C 41.7084 -2.74772 -5.03277 0
M  V30 404 N 41.2044 -3.44684 -6.0097 0
M  V30 405 N 42.9974 -2.6441 -4.96028 0
M  V30 406 H 35.1484 -1.76485 -1.18181 0
M  V30 407 H 37.4114 -0.751199 -0.578276 0
M  V30 408 H 37.1174 -2.38634 -2.58354 0
M  V30 409 H 36.9914 -0.990618 -3.6396 0
M  V30 410 H 39.3784 -0.290911 -2.93663 0
M  V30 411 H 39.4594 -1.71866 -1.89461 0
M  V30 412 H 39.1034 -3.20445 -3.94052 0
M  V30 413 H 39.0334 -1.74989 -4.96675 0
M  V30 414 H 41.5244 -1.62923 -3.40976 0
M  V30 415 H 41.8374 -3.88501 -6.68047 0
M  V30 416 H 40.1824 -3.48788 -6.01142 0
M  V30 417 H 43.3734 -2.0938 -4.18662 0
M  V30 418 H 43.5464 -3.12225 -5.6782 0
M  V30 419 N 36.9525 1.47285 -0.560781 0
M  V30 420 C 38.1775 2.07359 -0.0410566 0
M  V30 421 C 38.6025 1.41017 1.24483 0
M  V30 422 O 37.9605 0.486368 1.74654 0
M  V30 423 C 38.0085 3.6035 0.134123 0
M  V30 424 O 37.1125 3.94681 1.19587 0
M  V30 425 H 36.4535 0.661887 -0.0529291 0
M  V30 426 H 38.9835 1.89252 -0.777482 0
M  V30 427 H 38.9935 4.0652 0.347207 0
M  V30 428 H 37.6685 4.08034 -0.805047 0
M  V30 429 H 36.2455 3.60251 0.962987 0
M  V30 430 N 38.4306 0.297415 1.54768 0
M  V30 431 C 39.8466 -0.0560823 1.59501 0
M  V30 432 C 40.0466 -1.52725 1.31444 0
M  V30 433 O 39.1026 -2.27947 1.08611 0
M  V30 434 C 40.4156 0.338631 2.98787 0
M  V30 435 C 41.9636 0.287097 3.11681 0
M  V30 436 C 42.4386 0.656579 4.53269 0
M  V30 437 N 43.9296 0.608977 4.59179 0
M  V30 438 C 44.6646 0.867385 5.66802 0
M  V30 439 N 44.1606 1.19157 6.82476 0
M  V30 440 N 45.9536 0.794687 5.56454 0
M  V30 441 H 38.1046 1.25624 1.71267 0
M  V30 442 H 40.3676 0.509057 0.799728 0
M  V30 443 H 40.0736 1.36263 3.2423 0
M  V30 444 H 39.9476 -0.309508 3.75928 0
M  V30 445 H 42.3346 -0.727649 2.85988 0
M  V30 446 H 42.4156 0.969809 2.36703 0
M  V30 447 H 42.0596 1.66912 4.7969 0
M  V30 448 H 41.9896 -0.0481649 5.26578 0
M  V30 449 H 44.4806 0.369198 3.76092 0
M  V30 450 H 44.7936 1.37482 7.60473 0
M  V30 451 H 43.1386 1.22958 6.84037 0
M  V30 452 H 46.3296 0.541098 4.64962 0
M  V30 453 H 46.5026 0.999445 6.40246 0
M  V30 454 N 39.9087 -1.5758 0.0250728 0
M  V30 455 C 40.8567 -2.11125 -0.97617 0
M  V30 456 C 41.8507 -1.03689 -1.33959 0
M  V30 457 O 43.0567 -1.22128 -1.3223 0
M  V30 458 H 39.4317 -0.674468 -0.332561 0
M  V30 459 H 41.4027 -2.94194 -0.499223 0
M  V30 460 C 40.1517 -2.65017 -2.2508 0
M  V30 461 H 39.4747 -3.47333 -1.9799 0
M  V30 462 H 40.9147 -3.06133 -2.93357 0
M  V30 463 C 39.3737 -1.57574 -2.97779 0
M  V30 464 O 39.9037 -0.973203 -3.89733 0
M  V30 465 N 38.1097 -1.29716 -2.60043 0
M  V30 466 H 37.6567 -1.789 -1.85345 0
M  V30 467 H 37.6147 -0.58051 -3.08994 0
M  V30 468 N 41.3868 0.248026 -1.55636 0
M  V30 469 C 42.6148 0.993808 -1.81469 0
M  V30 470 C 43.0298 1.78991 -0.60064 0
M  V30 471 O 42.3868 1.77345 0.430682 0
M  V30 472 C 42.4378 1.93258 -3.05506 0
M  V30 473 O 42.1588 1.16869 -4.22224 0
M  V30 474 C 43.6598 2.79444 -3.4413 0
M  V30 475 H 40.8798 0.292486 -0.603898 0
M  V30 476 H 43.4238 0.271253 -2.02693 0
M  V30 477 H 41.5788 2.60943 -2.86335 0
M  V30 478 H 41.9928 1.80359 -4.92515 0
M  V30 479 H 43.4668 3.41066 -4.34026 0
M  V30 480 H 43.9438 3.50499 -2.64665 0
M  V30 481 H 44.5498 2.17214 -3.65648 0
M  V30 482 N 42.8649 1.48995 0.513639 0
M  V30 483 C 44.0929 1.61531 1.29288 0
M  V30 484 C 44.5079 0.281801 1.86685 0
M  V30 485 O 43.8649 -0.731111 1.67215 0
M  V30 486 C 43.9159 2.67449 2.43215 0
M  V30 487 O 43.6369 3.95626 1.88179 0
M  V30 488 C 45.1379 2.90575 3.34785 0
M  V30 489 H 42.3579 0.544165 0.392588 0
M  V30 490 H 44.9019 1.9494 0.617956 0
M  V30 491 H 43.0569 2.36853 3.0656 0
M  V30 492 H 43.4709 4.53868 2.62876 0
M  V30 493 H 44.9449 3.68449 4.11035 0
M  V30 494 H 45.4219 2.00011 3.91015 0
M  V30 495 H 46.0279 3.22538 2.77218 0
M  V30 496 N 44.343 -0.763751 1.37857 0
M  V30 497 C 45.759 -1.06542 1.18832 0
M  V30 498 C 45.959 -2.01478 0.0299722 0
M  V30 499 O 45.015 -2.4458 -0.627447 0
M  V30 500 C 46.328 -1.65525 2.51042 0
M  V30 501 C 47.876 -1.77745 2.57635 0
M  V30 502 C 48.351 -2.4014 3.89996 0
M  V30 503 N 49.842 -2.47582 3.91481 0
M  V30 504 C 50.577 -2.96732 4.9065 0
M  V30 505 N 50.073 -3.45993 6.00217 0
M  V30 506 N 51.866 -2.95679 4.78048 0
M  V30 507 H 44.017 -0.133556 2.1198 0
M  V30 508 H 46.28 -0.121879 0.940133 0
M  V30 509 H 45.986 -1.03236 3.36207 0
M  V30 510 H 45.86 -2.64719 2.68707 0
M  V30 511 H 48.247 -2.39164 1.72872 0
M  V30 512 H 48.328 -0.772836 2.43846 0
M  V30 513 H 47.972 -1.79358 4.75177 0
M  V30 514 H 47.902 -3.41223 4.01092 0
M  V30 515 H 50.393 -2.1273 3.12337 0
M  V30 516 H 50.706 -3.81922 6.7183 0
M  V30 517 H 49.051 -3.44077 6.03851 0
M  V30 518 H 52.242 -2.56499 3.91568 0
M  V30 519 H 52.415 -3.33672 5.55488 0
M  V30 520 N 45.8211 -1.22559 -0.990812 0
M  V30 521 C 47.2321 -1.04791 -1.54518 0
M  V30 522 C 47.5831 0.387998 -1.92325 0
M  V30 523 O 46.7081 1.27328 -1.74976 0
M  V30 524 C 47.3031 -1.896 -2.80779 0
M  V30 525 C 45.8621 -1.76124 -3.32652 0
M  V30 526 C 45.0091 -1.8594 -2.05722 0
M  V30 527 H 47.9601 -1.36374 -0.811662 0
M  V30 528 H 47.9811 -1.41464 -3.53225 0
M  V30 529 H 47.4931 -2.94101 -2.53231 0
M  V30 530 H 45.5941 -0.743643 -3.65104 0
M  V30 531 H 45.7071 -2.58913 -4.03114 0
M  V30 532 H 44.0711 -1.29403 -2.19379 0
M  V30 533 H 44.8541 -2.91976 -1.80568 0
M  V30 534 N 47.2992 1.18797 -1.03562 0
M  V30 535 C 48.2622 2.20464 -0.626769 0
M  V30 536 C 49.2622 1.57721 0.313173 0
M  V30 537 O 50.4522 1.73917 0.0992615 0
M  V30 538 C 47.5842 3.40802 0.0818498 0
M  V30 539 H 48.7772 2.58149 -1.5264 0
M  V30 540 H 46.3302 1.32593 -0.827578 0
M  V30 541 H 47.0652 3.08642 0.995518 0
M  V30 542 H 46.8502 3.8758 -0.593652 0
M  V30 543 H 48.3402 4.16092 0.354584 0
M  V30 544 N 48.7773 0.814389 1.34928 0
M  V30 545 C 49.7073 0.244827 2.32213 0
M  V30 546 C 50.6883 -0.634024 1.57842 0
M  V30 547 O 51.8733 -0.562676 1.8587 0
M  V30 548 C 49.0033 -0.601106 3.42058 0
M  V30 549 C 47.9573 0.179896 4.27622 0
M  V30 550 C 47.2833 -0.788237 5.28858 0
M  V30 551 C 48.5833 1.38329 5.03649 0
M  V30 552 H 50.2773 1.05763 2.80097 0
M  V30 553 H 47.8233 0.510029 1.34665 0
M  V30 554 H 49.7763 -1.00968 4.09125 0
M  V30 555 H 48.5003 -1.44688 2.92802 0
M  V30 556 H 47.1593 0.569739 3.62146 0
M  V30 557 H 46.8073 -1.62973 4.75866 0
M  V30 558 H 46.5073 -0.269942 5.8698 0
M  V30 559 H 48.0313 -1.19485 5.98795 0
M  V30 560 H 49.4453 1.04918 5.63618 0
M  V30 561 H 47.8423 1.83662 5.71304 0
M  V30 562 H 48.9123 2.16592 4.33839 0
M  V30 563 N 50.2554 -1.46986 0.568584 0
M  V30 564 C 51.1854 -2.32946 -0.160753 0
M  V30 565 C 52.1664 -1.44487 -0.897631 0
M  V30 566 O 53.3514 -1.73327 -0.875867 0
M  V30 567 C 50.4814 -3.26494 -1.18403 0
M  V30 568 C 49.4354 -4.24282 -0.562895 0
M  V30 569 C 48.7614 -5.07236 -1.69163 0
M  V30 570 C 50.0614 -5.19989 0.490761 0
M  V30 571 H 51.7554 -2.94175 0.556916 0
M  V30 572 H 49.3014 -1.4146 0.26927 0
M  V30 573 H 51.2544 -3.85477 -1.70251 0
M  V30 574 H 49.9784 -2.63343 -1.93179 0
M  V30 575 H 48.6374 -3.66541 -0.0656164 0
M  V30 576 H 48.2854 -4.4048 -2.42871 0
M  V30 577 H 47.9854 -5.7345 -1.28174 0
M  V30 578 H 49.5094 -5.6908 -2.21314 0
M  V30 579 H 50.9234 -5.73271 0.0579047 0
M  V30 580 H 49.3204 -5.94469 0.820165 0
M  V30 581 H 50.3904 -4.64777 1.3824 0
M  V30 582 N 51.7335 -0.305618 -1.54608 0
M  V30 583 C 53.1495 0.0476228 -1.59529 0
M  V30 584 C 53.3495 1.52025 -1.32252 0
M  V30 585 O 52.4055 2.27368 -1.09818 0
M  V30 586 C 53.7185 -0.354471 -2.98603 0
M  V30 587 C 55.2665 -0.303622 -3.11524 0
M  V30 588 C 55.7415 -0.680608 -4.52915 0
M  V30 589 N 57.2325 -0.63332 -4.5885 0
M  V30 590 C 57.9675 -0.897432 -5.66334 0
M  V30 591 N 57.4635 -1.22775 -6.81834 0
M  V30 592 N 59.2565 -0.824186 -5.56025 0
M  V30 593 H 51.4075 -1.2653 -1.70599 0
M  V30 594 H 53.6705 -0.513291 -0.797017 0
M  V30 595 H 53.3765 -1.3798 -3.23503 0
M  V30 596 H 53.2505 0.289568 -3.76087 0
M  V30 597 H 55.6375 0.712472 -2.8637 0
M  V30 598 H 55.7185 -0.982348 -2.36185 0
M  V30 599 H 55.3625 -1.69453 -4.78799 0
M  V30 600 H 55.2925 0.0202385 -5.26596 0
M  V30 601 H 57.7835 -0.389138 -3.75891 0
M  V30 602 H 58.0965 -1.41513 -7.59733 0
M  V30 603 H 56.4415 -1.26583 -6.83375 0
M  V30 604 H 59.6325 -0.565748 -4.64669 0
M  V30 605 H 59.8055 -1.03338 -6.39707 0
M  V30 606 N 53.2116 1.57565 -0.0334293 0
M  V30 607 C 54.1416 2.13511 0.945265 0
M  V30 608 C 55.1226 1.05231 1.33643 0
M  V30 609 O 56.3076 1.33084 1.41429 0
M  V30 610 C 53.4376 2.6657 2.22616 0
M  V30 611 C 52.3916 3.79676 1.97561 0
M  V30 612 C 51.7176 4.1918 3.31952 0
M  V30 613 C 53.0176 5.0557 1.31135 0
M  V30 614 H 54.7116 2.95538 0.479325 0
M  V30 615 H 52.2576 1.42166 0.229115 0
M  V30 616 H 54.2106 3.04344 2.91466 0
M  V30 617 H 52.9346 1.8171 2.71384 0
M  V30 618 H 51.5936 3.42347 1.31127 0
M  V30 619 H 51.2416 3.31296 3.78487 0
M  V30 620 H 50.9416 4.95402 3.15992 0
M  V30 621 H 52.4656 4.59541 4.02063 0
M  V30 622 H 53.8796 5.40903 1.89992 0
M  V30 623 H 52.2766 5.86818 1.25559 0
M  V30 624 H 53.3466 4.84062 0.284894 0
M  V30 625 N 54.6897 -0.239769 1.55765 0
M  V30 626 C 55.9147 -0.988373 1.82335 0
M  V30 627 C 56.3397 -1.77886 0.611421 0
M  V30 628 O 55.6977 -1.75889 -0.439639 0
M  V30 629 C 55.7457 -1.89627 3.06715 0
M  V30 630 O 54.8497 -2.98904 2.84131 0
M  V30 631 H 54.1907 -0.280858 0.601677 0
M  V30 632 H 56.7207 -0.258597 2.02959 0
M  V30 633 H 56.7307 -2.30957 3.36338 0
M  V30 634 H 55.4057 -1.31511 3.9456 0
M  V30 635 H 53.9827 -2.61651 2.65694 0
M  V30 636 N 56.1678 -1.49265 -0.50573 0
M  V30 637 C 57.4448 -1.49012 -1.26707 0
M  V30 638 C 57.8248 -0.215205 -2.1 0
M  V30 639 O 57.1728 0.802547 -2.13943 0
M  V30 640 C 57.3828 -2.7663 -2.12783 0
M  V30 641 C 58.7308 -3.25932 -2.72127 0
M  V30 642 O 59.7548 -2.77715 -2.23054 0
M  V30 643 O 58.6138 -4.09897 -3.61451 0
M  V30 644 H 55.7078 -0.596197 -0.57313 0
M  V30 645 H 58.2538 -1.61524 -0.52039 0
M  V30 646 H 57.0258 -3.60916 -1.5118 0
M  V30 647 H 56.6488 -2.66956 -2.94653 0
M  V30 648 N 57.6459 0.756429 -1.3826 0
M  V30 649 C 58.8759 1.54341 -1.3734 0
M  V30 650 C 59.2839 1.89159 0.0393917 0
M  V30 651 O 58.6269 1.5307 1.01565 0
M  V30 652 C 58.6889 2.87238 -2.16182 0
M  V30 653 C 58.3529 2.74973 -3.65019 0
M  V30 654 C 59.3499 2.44962 -4.58574 0
M  V30 655 C 57.0349 2.92515 -4.08338 0
M  V30 656 C 59.0289 2.32642 -5.93428 0
M  V30 657 C 56.7159 2.79815 -5.43274 0
M  V30 658 C 57.7139 2.49921 -6.35632 0
M  V30 659 O 57.4019 2.37275 -7.68086 0
M  V30 660 H 57.1339 0.484281 -0.471643 0
M  V30 661 H 59.6879 0.944152 -1.82414 0
M  V30 662 H 57.9179 3.49342 -1.65822 0
M  V30 663 H 59.6069 3.48731 -2.07705 0
M  V30 664 H 60.3729 2.31081 -4.26412 0
M  V30 665 H 56.2519 3.14781 -3.368 0
M  V30 666 H 59.7959 2.0923 -6.65484 0
M  V30 667 H 55.6929 2.93269 -5.75034 0
M  V30 668 H 56.4609 2.52509 -7.78577 0
M  V30 669 N 59.124 1.23083 0.984299 0
M  V30 670 C 60.054 1.03292 2.09411 0
M  V30 671 C 61.035 -0.048923 1.7003 0
M  V30 672 O 62.22 0.114967 1.93859 0
M  V30 673 C 59.35 0.619155 3.41736 0
M  V30 674 C 58.304 1.64791 3.95004 0
M  V30 675 C 57.63 1.0897 5.23478 0
M  V30 676 C 58.93 3.03999 4.24714 0
M  V30 677 H 60.624 1.96119 2.26225 0
M  V30 678 H 58.17 0.944344 1.08711 0
M  V30 679 H 60.123 0.467777 4.18796 0
M  V30 680 H 58.847 -0.344786 3.24775 0
M  V30 681 H 57.506 1.78721 3.20085 0
M  V30 682 H 57.154 0.11686 5.02864 0
M  V30 683 H 56.854 1.77704 5.60085 0
M  V30 684 H 58.378 0.950093 6.03163 0
M  V30 685 H 59.792 2.93393 4.92538 0
M  V30 686 H 58.189 3.69936 4.72512 0
M  V30 687 H 59.259 3.53285 3.32142 0
M  V30 688 N 60.6021 -1.18246 1.0419 0
M  V30 689 C 61.5321 -2.24127 0.654914 0
M  V30 690 C 62.5131 -1.66617 -0.342451 0
M  V30 691 O 63.6981 -1.92924 -0.222277 0
M  V30 692 C 60.8281 -3.47295 0.0183757 0
M  V30 693 C 59.7821 -4.17563 0.939414 0
M  V30 694 C 59.1081 -5.34438 0.167286 0
M  V30 695 C 60.4081 -4.70917 2.25908 0
M  V30 696 H 62.1021 -2.56753 1.54007 0
M  V30 697 H 59.6481 -1.23414 0.74195 0
M  V30 698 H 61.6011 -4.20572 -0.264082 0
M  V30 699 H 60.3251 -3.13907 -0.901664 0
M  V30 700 H 58.9841 -3.46186 1.20628 0
M  V30 701 H 58.6321 -4.97298 -0.7552 0
M  V30 702 H 58.3321 -5.82388 0.780901 0
M  V30 703 H 59.8561 -6.10504 -0.108125 0
M  V30 704 H 61.2701 -5.35882 2.03724 0
M  V30 705 H 59.6671 -5.29406 2.82577 0
M  V30 706 H 60.7371 -3.88272 2.9047 0
M  V30 707 N 62.0802 -0.821533 -1.34494 0
M  V30 708 C 63.3082 -0.421884 -2.02553 0
M  V30 709 C 63.7232 0.971745 -1.61872 0
M  V30 710 O 63.0802 1.62864 -0.823496 0
M  V30 711 C 63.1312 -0.51285 -3.57844 0
M  V30 712 O 62.8522 -1.85155 -3.97051 0
M  V30 713 C 64.3532 -0.107921 -4.43169 0
M  V30 714 H 61.5732 -0.169482 -0.649243 0
M  V30 715 H 64.1172 -1.1093 -1.71798 0
M  V30 716 H 62.2722 0.126474 -3.87193 0
M  V30 717 H 62.6862 -1.82482 -4.91732 0
M  V30 718 H 64.1602 -0.222657 -5.51551 0
M  V30 719 H 64.6372 0.948401 -4.28838 0
M  V30 720 H 65.2432 -0.720989 -4.19144 0
M  V30 721 N 63.5583 1.46682 -0.576371 0
M  V30 722 C 64.5063 2.31953 0.17335 0
M  V30 723 C 65.5003 1.44098 0.89062 0
M  V30 724 O 66.7063 1.60759 0.809728 0
M  V30 725 H 63.0813 0.748273 0.0747727 0
M  V30 726 H 65.0523 2.93007 -0.564738 0
M  V30 727 C 63.8013 3.27142 1.17786 0
M  V30 728 H 63.1243 3.94719 0.635361 0
M  V30 729 H 64.5643 3.896 1.67296 0
M  V30 730 C 63.0233 2.52036 2.23561 0
M  V30 731 O 63.5533 2.27877 3.3081 0
M  V30 732 N 61.7593 2.12709 1.97998 0
M  V30 733 H 61.3063 2.32557 1.10792 0
M  V30 734 H 61.2643 1.62776 2.68982 0
M  V30 735 N 65.0364 0.313813 1.54444 0
M  V30 736 C 66.2664 -0.293491 2.04505 0
M  V30 737 C 66.6744 -1.47086 1.19005 0
M  V30 738 O 66.0174 -1.82481 0.211257 0
M  V30 739 C 66.0794 -0.800455 3.50475 0
M  V30 740 C 65.7434 0.253322 4.56297 0
M  V30 741 C 66.7404 1.08612 5.08428 0
M  V30 742 C 64.4254 0.398708 5.00715 0
M  V30 743 C 66.4194 2.05013 6.0353 0
M  V30 744 C 64.1064 1.36614 5.95634 0
M  V30 745 C 65.1044 2.19033 6.46926 0
M  V30 746 O 64.7924 3.14134 7.39983 0
M  V30 747 H 64.5244 -0.0658325 0.672787 0
M  V30 748 H 67.0784 0.455177 2.00293 0
M  V30 749 H 65.3084 -1.59987 3.52053 0
M  V30 750 H 66.9974 -1.32504 3.83663 0
M  V30 751 H 67.7634 0.984736 4.74898 0
M  V30 752 H 63.6424 -0.23289 4.60411 0
M  V30 753 H 67.1864 2.69382 6.4349 0
M  V30 754 H 63.0834 1.4682 6.28581 0
M  V30 755 H 63.8514 3.0926 7.57826 0
M  V30 756 N 66.5145 -1.57545 0.0417849 0
M  V30 757 C 67.9305 -1.56467 -0.314704 0
M  V30 758 C 68.1305 -1.04859 -1.72066 0
M  V30 759 O 67.1865 -0.700983 -2.42575 0
M  V30 760 C 68.4995 -3.00317 -0.15174 0
M  V30 761 C 70.0475 -3.12201 -0.223553 0
M  V30 762 C 70.5225 -4.57913 -0.0892295 0
M  V30 763 N 72.0135 -4.6297 -0.145808 0
M  V30 764 C 72.7485 -5.73362 -0.0658459 0
M  V30 765 N 72.2445 -6.92769 0.0659282 0
M  V30 766 N 74.0375 -5.6197 -0.12075 0
M  V30 767 H 66.1885 -1.89416 0.961014 0
M  V30 768 H 68.4515 -0.871862 0.372237 0
M  V30 769 H 68.1575 -3.42073 0.817254 0
M  V30 770 H 68.0315 -3.65892 -0.916692 0
M  V30 771 H 70.4185 -2.70349 -1.18301 0
M  V30 772 H 70.4995 -2.49323 0.571994 0
M  V30 773 H 70.1435 -5.00448 0.866867 0
M  V30 774 H 70.0735 -5.18786 -0.903802 0
M  V30 775 H 72.5645 -3.7709 -0.247286 0
M  V30 776 H 72.8775 -7.72707 0.119905 0
M  V30 777 H 71.2225 -6.94927 0.100885 0
M  V30 778 H 74.4135 -4.67572 -0.222187 0
M  V30 779 H 74.5865 -6.47977 -0.0549735 0
M  V30 780 N 67.9926 0.231505 -1.5589 0
M  V30 781 C 68.9396 1.28682 -1.91598 0
M  V30 782 C 69.9096 1.47071 -0.771974 0
M  V30 783 O 71.0946 1.60802 -1.027 0
M  V30 784 C 68.2346 2.6342 -2.22944 0
M  V30 785 C 67.3476 2.52912 -3.50228 0
M  V30 786 C 66.4826 3.80106 -3.7107 0
M  V30 787 C 65.5216 3.64279 -4.91902 0
M  V30 788 N 64.6586 4.834 -5.09184 0
M  V30 789 H 69.4986 0.975305 -2.81588 0
M  V30 790 H 67.0356 0.470299 -1.39379 0
M  V30 791 H 68.9936 3.41869 -2.39126 0
M  V30 792 H 67.6236 2.92687 -1.36139 0
M  V30 793 H 66.6756 1.6595 -3.42294 0
M  V30 794 H 67.9876 2.37133 -4.38827 0
M  V30 795 H 67.1416 4.66999 -3.87295 0
M  V30 796 H 65.8806 3.98799 -2.80733 0
M  V30 797 H 64.8856 2.7577 -4.75637 0
M  V30 798 H 66.1106 3.47067 -5.83714 0
M  V30 799 H 64.0566 5.02425 -4.21788 0
M  V30 800 H 63.9736 4.70311 -5.91898 0
M  V30 801 H 65.2416 5.71747 -5.29835 0
M  V30 802 N 69.4707 1.49531 0.497807 0
M  V30 803 C 70.7187 1.58865 1.24926 0
M  V30 804 C 71.0397 0.278721 1.92998 0
M  V30 805 O 70.3097 -0.702144 1.82885 0
M  V30 806 H 68.8897 0.585343 0.464094 0
M  V30 807 H 71.5517 1.86174 0.57666 0
M  V30 808 H 70.6477 2.38633 2.01149 0
M  V30 809 N 70.9488 -0.749086 1.3866 0
M  V30 810 C 72.1948 -1.51056 1.35314 0
M  V30 811 C 72.5278 -1.94121 -0.0553751 0
M  V30 812 O 71.8028 -1.65763 -1.01749 0
M  V30 813 C 72.0858 -2.76003 2.31288 0
M  V30 814 C 71.9388 -2.39047 3.8102 0
M  V30 815 C 73.2578 -3.78046 2.2532 0
M  V30 816 H 70.3768 -0.547972 0.492844 0
M  V30 817 H 73.0188 -0.857628 1.69543 0
M  V30 818 H 71.1688 -3.31716 2.02229 0
M  V30 819 H 72.8408 -1.89074 4.20771 0
M  V30 820 H 71.0838 -1.71449 3.98482 0
M  V30 821 H 71.7548 -3.28462 4.4364 0
M  V30 822 H 74.2308 -3.31884 2.50983 0
M  V30 823 H 73.1068 -4.63159 2.94576 0
M  V30 824 H 73.3678 -4.23957 1.25352 0
M  V30 825 N 72.4269 -1.23603 -0.977757 0
M  V30 826 C 73.8429 -0.999251 -1.24447 0
M  V30 827 C 74.0429 0.298053 -1.99283 0
M  V30 828 O 73.0989 1.01681 -2.31122 0
M  V30 829 C 74.4119 -2.20784 -2.04144 0
M  V30 830 C 75.9599 -2.25303 -2.17273 0
M  V30 831 C 76.4349 -3.45755 -3.00362 0
M  V30 832 N 77.9259 -3.4601 -3.07947 0
M  V30 833 C 78.6609 -4.35868 -3.72568 0
M  V30 834 N 78.1569 -5.35966 -4.38991 0
M  V30 835 N 79.9499 -4.23605 -3.6948 0
M  V30 836 H 72.1009 -2.06986 -0.476483 0
M  V30 837 H 74.3639 -0.907801 -0.273134 0
M  V30 838 H 74.0699 -3.14945 -1.56533 0
M  V30 839 H 73.9439 -2.22085 -3.04891 0
M  V30 840 H 76.3309 -1.3168 -2.64092 0
M  V30 841 H 76.4119 -2.28033 -1.15907 0
M  V30 842 H 76.0559 -4.39687 -2.5424 0
M  V30 843 H 75.9859 -3.40266 -4.01904 0
M  V30 844 H 78.4769 -2.73588 -2.60688 0
M  V30 845 H 78.7899 -6.00783 -4.86086 0
M  V30 846 H 77.1349 -5.39863 -4.37691 0
M  V30 847 H 80.3259 -3.44647 -3.16759 0
M  V30 848 H 80.4989 -4.93836 -4.1956 0
M  V30 849 N 73.905 1.17692 -1.04816 0
M  V30 850 C 75.316 1.69501 -0.782698 0
M  V30 851 C 75.667 1.83456 0.695577 0
M  V30 852 O 74.792 1.51942 1.54086 0
M  V30 853 C 75.387 3.07874 -1.41419 0
M  V30 854 C 73.946 3.56864 -1.19686 0
M  V30 855 C 73.093 2.3322 -1.50012 0
M  V30 856 H 76.044 1.02262 -1.2136 0
M  V30 857 H 76.065 3.71528 -0.821428 0
M  V30 858 H 75.577 2.97685 -2.49009 0
M  V30 859 H 73.678 3.72337 -0.140043 0
M  V30 860 H 73.791 4.39851 -1.89916 0
M  V30 861 H 72.155 2.37501 -0.920071 0
M  V30 862 H 72.938 2.25644 -2.58727 0
M  V30 863 N 75.3831 0.828654 1.34056 0
M  V30 864 C 76.6291 0.42008 1.98402 0
M  V30 865 C 76.9621 -1.01564 1.65525 0
M  V30 866 O 76.2371 -1.70834 0.929831 0
M  V30 867 C 76.5201 0.62927 3.54559 0
M  V30 868 C 76.3731 2.11152 3.97159 0
M  V30 869 C 77.6921 0.0688756 4.40046 0
M  V30 870 H 74.8111 0.154104 0.720709 0
M  V30 871 H 77.4531 1.04228 1.5886 0
M  V30 872 H 75.6031 0.0996418 3.88372 0
M  V30 873 H 77.2751 2.70522 3.73651 0
M  V30 874 H 75.5181 2.59985 3.47261 0
M  V30 875 H 76.1891 2.20868 5.05887 0
M  V30 876 H 78.6651 0.521458 4.1282 0
M  V30 877 H 77.5411 0.245006 5.48353 0
M  V30 878 H 77.8021 -1.0266 4.30015 0
M  V30 879 N 76.8612 -1.46375 0.584142 0
M  V30 880 C 78.2772 -1.57694 0.245929 0
M  V30 881 C 78.4772 -1.57903 -1.25175 0
M  V30 882 O 77.5332 -1.49676 -2.03355 0
M  V30 883 C 78.8462 -2.87028 0.896402 0
M  V30 884 C 80.3942 -3.00662 0.870127 0
M  V30 885 C 80.8692 -4.32734 1.50017 0
M  V30 886 N 82.3602 -4.39436 1.46458 0
M  V30 887 C 83.0952 -5.40248 1.92144 0
M  V30 888 N 82.5912 -6.47726 2.4581 0
M  V30 889 N 84.3842 -5.31459 1.83052 0
M  V30 890 H 76.5352 -1.44483 1.55687 0
M  V30 891 H 78.7982 -0.689291 0.650831 0
M  V30 892 H 78.5042 -2.9269 1.95002 0
M  V30 893 H 78.3782 -3.75014 0.405486 0
M  V30 894 H 80.7652 -2.94581 -0.174871 0
M  V30 895 H 80.8462 -2.14148 1.39908 0
M  V30 896 H 80.4902 -4.39573 2.54437 0
M  V30 897 H 80.4202 -5.18025 0.946432 0
M  V30 898 H 82.9112 -3.62367 1.07231 0
M  V30 899 H 83.2242 -7.20863 2.78525 0
M  V30 900 H 81.5692 -6.48542 2.49836 0
M  V30 901 H 84.7602 -4.46396 1.40883 0
M  V30 902 H 84.9332 -6.09881 2.18973 0
M  V30 903 N 78.3393 -0.321999 -1.54275 0
M  V30 904 C 79.6163 0.335232 -1.92706 0
M  V30 905 C 79.9963 1.70006 -1.25145 0
M  V30 906 O 79.3443 2.25067 -0.394596 0
M  V30 907 C 79.5543 0.429008 -3.46353 0
M  V30 908 C 80.9023 0.690029 -4.18956 0
M  V30 909 O 81.9263 0.511992 -3.52501 0
M  V30 910 O 80.7853 1.03338 -5.36641 0
M  V30 911 H 77.8793 0.191143 -0.804608 0
M  V30 912 H 80.4253 -0.3716 -1.65581 0
M  V30 913 H 79.1973 -0.529611 -3.87699 0
M  V30 914 H 78.8203 1.18348 -3.79578 0
M  V30 915 N 79.8174 1.5752 -0.0501392 0
M  V30 916 C 81.0634 1.93755 0.618901 0
M  V30 917 C 81.4184 0.928514 1.68512 0
M  V30 918 O 80.7114 -0.0524613 1.91528 0
M  V30 919 C 80.9054 3.34467 1.25963 0
M  V30 920 C 80.7344 4.48965 0.257 0
M  V30 921 C 79.5044 5.05075 -0.150656 0
M  V30 922 C 81.7024 5.11891 -0.497166 0
M  V30 923 N 79.6844 6.03104 -1.14626 0
M  V30 924 C 81.0554 6.05216 -1.34588 0
M  V30 925 C 83.1104 4.9479 -0.55559 0
M  V30 926 C 81.8134 6.83277 -2.24778 0
M  V30 927 C 83.8394 5.73477 -1.44492 0
M  V30 928 C 83.2014 6.66433 -2.28136 0
M  V30 929 H 79.3004 0.756479 0.198149 0
M  V30 930 H 81.8844 1.94316 -0.122229 0
M  V30 931 H 80.0554 3.34685 1.97079 0
M  V30 932 H 81.7874 3.57994 1.88739 0
M  V30 933 H 78.5424 4.7305 0.228094 0
M  V30 934 H 78.9664 6.56813 -1.64092 0
M  V30 935 H 83.6084 4.2273 0.0768625 0
M  V30 936 H 81.3264 7.54629 -2.89069 0
M  V30 937 H 84.9124 5.62273 -1.49468 0
M  V30 938 H 83.7924 7.26258 -2.95835 0
M  V30 939 N 81.2955 -0.223234 1.56011 0
M  V30 940 C 82.7115 -0.572856 1.48965 0
M  V30 941 C 82.9115 -1.87225 0.74492 0
M  V30 942 O 81.9675 -2.50899 0.283896 0
M  V30 943 C 83.2805 -0.653646 2.9351 0
M  V30 944 C 84.8285 -0.744386 3.0402 0
M  V30 945 C 85.3035 -0.856535 4.49919 0
M  V30 946 N 86.7945 -0.9208 4.53955 0
M  V30 947 C 87.5295 -1.02726 5.64123 0
M  V30 948 N 87.0255 -1.09777 6.84047 0
M  V30 949 N 88.8185 -1.06226 5.51971 0
M  V30 950 H 80.9695 0.629462 2.02858 0
M  V30 951 H 83.2325 0.220621 0.921971 0
M  V30 952 H 82.9385 0.231518 3.50937 0
M  V30 953 H 82.8125 -1.51781 3.45315 0
M  V30 954 H 85.1995 -1.61999 2.46658 0
M  V30 955 H 85.2805 0.14541 2.55386 0
M  V30 956 H 84.9245 0.0146069 5.07898 0
M  V30 957 H 84.8545 -1.76172 4.96257 0
M  V30 958 H 87.3455 -0.876694 3.6759 0
M  V30 959 H 87.6585 -1.17872 7.63758 0
M  V30 960 H 86.0035 -1.06693 6.86762 0
M  V30 961 H 89.1945 -1.00382 4.5721 0
M  V30 962 H 89.3675 -1.14177 6.37862 0
M  V30 963 N 82.7736 -1.49793 -0.48987 0
M  V30 964 C 83.7206 -1.67281 -1.59014 0
M  V30 965 C 84.6906 -0.514177 -1.57941 0
M  V30 966 O 85.8756 -0.742533 -1.75759 0
M  V30 967 C 83.0156 -1.75569 -2.97102 0
M  V30 968 C 82.1286 -3.0281 -3.08107 0
M  V30 969 C 81.2636 -3.02008 -4.36995 0
M  V30 970 C 80.3026 -4.23782 -4.41673 0
M  V30 971 N 79.4396 -4.20826 -5.62005 0
M  V30 972 H 84.2796 -2.61224 -1.43409 0
M  V30 973 H 81.8166 -1.29508 -0.697565 0
M  V30 974 H 83.7746 -1.78354 -3.77155 0
M  V30 975 H 82.4046 -0.850827 -3.11385 0
M  V30 976 H 81.4566 -3.09584 -2.21047 0
M  V30 977 H 82.7686 -3.92801 -3.07423 0
M  V30 978 H 81.9226 -3.03418 -5.25378 0
M  V30 979 H 80.6616 -2.09815 -4.4026 0
M  V30 980 H 79.6666 -4.22604 -3.5169 0
M  V30 981 H 80.8916 -5.17181 -4.40115 0
M  V30 982 H 78.8376 -3.31476 -5.66091 0
M  V30 983 H 78.7546 -5.04564 -5.62984 0
M  V30 984 H 80.0226 -4.26355 -6.52565 0
M  V30 985 N 84.2517 0.741722 -1.39055 0
M  V30 986 C 85.6627 1.31966 -1.32068 0
M  V30 987 C 86.0137 1.96192 0.0180797 0
M  V30 988 O 85.1387 1.95861 0.920196 0
M  V30 989 C 85.7337 2.39954 -2.39181 0
M  V30 990 C 84.2927 2.93438 -2.35735 0
M  V30 991 C 83.4397 1.66936 -2.21422 0
M  V30 992 H 86.3907 0.539721 -1.4924 0
M  V30 993 H 86.4117 3.20182 -2.05581 0
M  V30 994 H 85.9237 1.9318 -3.36605 0
M  V30 995 H 84.0247 3.4451 -1.41929 0
M  V30 996 H 84.1377 3.4701 -3.30335 0
M  V30 997 H 82.5017 1.91016 -1.68478 0
M  V30 998 H 83.2847 1.22224 -3.20806 0
M  V30 999 N 85.7298 1.2412 0.971189 0
M  V30 1000 C 86.9578 1.10575 1.74874 0
M  V30 1001 C 87.3728 -0.342017 1.85676 0
M  V30 1002 O 86.7298 -1.23617 1.34258 0
M  V30 1003 C 86.7808 1.73579 3.171 0
M  V30 1004 O 86.5018 3.12695 3.06844 0
M  V30 1005 C 88.0028 1.65598 4.11208 0
M  V30 1006 H 85.2228 0.386504 0.548503 0
M  V30 1007 H 87.7668 1.64156 1.21955 0
M  V30 1008 H 85.9218 1.24009 3.67016 0
M  V30 1009 H 86.3358 3.43412 3.96445 0
M  V30 1010 H 87.8098 2.1437 5.08674 0
M  V30 1011 H 88.2868 0.616532 4.34851 0
M  V30 1012 H 88.8928 2.14578 3.67201 0
M  V30 1013 N 87.2079 -1.17134 1.05439 0
M  V30 1014 C 88.4359 -1.91372 0.786414 0
M  V30 1015 C 88.8509 -1.76955 -0.658202 0
M  V30 1016 O 88.2079 -1.10838 -1.44987 0
M  V30 1017 C 88.2589 -3.42356 1.1608 0
M  V30 1018 O 87.9799 -3.56332 2.54871 0
M  V30 1019 C 89.4809 -4.33663 0.919322 0
M  V30 1020 H 86.7009 -0.607118 0.285743 0
M  V30 1021 H 89.2449 -1.48525 1.40572 0
M  V30 1022 H 87.3999 -3.82939 0.586191 0
M  V30 1023 H 87.8139 -4.49896 2.69618 0
M  V30 1024 H 89.2879 -5.38099 1.231 0
M  V30 1025 H 89.7649 -4.38959 -0.145359 0
M  V30 1026 H 90.3709 -3.98796 1.47789 0
M  V30 1027 N 88.686 -0.835752 -1.33615 0
M  V30 1028 C 89.932 -0.430596 -1.98176 0
M  V30 1029 C 90.265 1.00684 -1.66061 0
M  V30 1030 O 89.54 1.70339 -0.938877 0
M  V30 1031 C 89.823 -0.648065 -3.5422 0
M  V30 1032 C 89.676 -2.13255 -3.96033 0
M  V30 1033 C 90.995 -0.0922113 -4.40003 0
M  V30 1034 H 88.114 -0.157924 -0.719881 0
M  V30 1035 H 90.756 -1.05069 -1.58305 0
M  V30 1036 H 88.906 -0.120237 -3.88314 0
M  V30 1037 H 90.578 -2.725 -3.72211 0
M  V30 1038 H 88.821 -2.61823 -3.45878 0
M  V30 1039 H 89.492 -2.23547 -5.04708 0
M  V30 1040 H 91.968 -0.543343 -4.12537 0
M  V30 1041 H 90.844 -0.274083 -5.48215 0
M  V30 1042 H 91.105 1.00378 -4.30554 0
M  V30 1043 N 90.1641 1.46063 -0.591896 0
M  V30 1044 C 91.3891 2.07226 -0.0850314 0
M  V30 1045 C 91.8141 1.43625 1.21463 0
M  V30 1046 O 91.1721 0.523305 1.73583 0
M  V30 1047 C 91.2201 3.60554 0.0576567 0
M  V30 1048 O 90.3241 3.97128 1.11188 0
M  V30 1049 H 89.6651 0.660615 -0.0669568 0
M  V30 1050 H 92.1951 1.8756 -0.81745 0
M  V30 1051 H 92.2051 4.07165 0.2609 0
M  V30 1052 H 90.8801 4.06235 -0.891416 0
M  V30 1053 H 89.4571 3.62213 0.886356 0
M  V30 1054 N 91.6422 0.330177 1.54103 0
M  V30 1055 C 92.8912 -0.271336 1.99867 0
M  V30 1056 C 93.2042 -1.52723 1.22209 0
M  V30 1057 O 94.4102 -2.20515 1.58383 0
M  V30 1058 C 92.8662 -0.534032 3.55916 0
M  V30 1059 C 92.4742 0.705193 4.42415 0
M  V30 1060 C 94.2182 -1.09514 4.1013 0
M  V30 1061 C 92.1252 0.414035 5.89949 0
M  V30 1062 H 91.0552 -0.105166 0.74663 0
M  V30 1063 H 93.7062 0.443429 1.78062 0
M  V30 1064 H 92.0882 -1.30915 3.73734 0
M  V30 1065 H 93.2622 1.4804 4.36372 0
M  V30 1066 H 91.5772 1.18698 3.99124 0
M  V30 1067 H 94.1742 -1.3277 5.17954 0
M  V30 1068 H 94.5172 -2.04656 3.62521 0
M  V30 1069 H 95.0502 -0.381038 3.95971 0
M  V30 1070 H 91.7892 1.33481 6.41766 0
M  V30 1071 H 91.3092 -0.323336 5.98928 0
M  V30 1072 H 92.9882 0.0263105 6.46995 0
M  V30 1073 N 93.1203 -1.57491 0.0584922 0
M  V30 1074 C 94.3973 -1.84346 -0.653918 0
M  V30 1075 C 94.7773 -0.948355 -1.88599 0
M  V30 1076 O 94.1253 -0.0112403 -2.28497 0
M  V30 1077 C 94.3353 -3.34239 -1.00425 0
M  V30 1078 C 95.6833 -4.01431 -1.38342 0
M  V30 1079 O 96.7073 -3.38907 -1.09637 0
M  V30 1080 O 95.5663 -5.11683 -1.91943 0
M  V30 1081 H 92.6603 -0.761112 -0.323478 0
M  V30 1082 H 95.2063 -1.6947 0.0884125 0
M  V30 1083 H 93.9783 -3.91089 -0.128625 0
M  V30 1084 H 93.6013 -3.54329 -1.80378 0
M  V30 1085 N 94.5984 0.214957 -1.56127 0
M  V30 1086 C 95.8444 0.939762 -1.79712 0
M  V30 1087 C 96.1774 1.83723 -0.629247 0
M  V30 1088 O 95.4524 1.90925 0.371197 0
M  V30 1089 C 95.7354 1.77306 -3.13424 0
M  V30 1090 C 95.5884 0.90164 -4.40671 0
M  V30 1091 C 96.9074 2.74956 -3.43638 0
M  V30 1092 H 94.0264 0.340214 -0.653776 0
M  V30 1093 H 96.6684 0.20824 -1.88855 0
M  V30 1094 H 94.8184 2.39673 -3.0576 0
M  V30 1095 H 96.4904 0.294206 -4.60361 0
M  V30 1096 H 94.7334 0.207368 -4.33304 0
M  V30 1097 H 95.4044 1.51923 -5.30682 0
M  V30 1098 H 97.8804 2.22724 -3.51473 0
M  V30 1099 H 96.7564 3.30358 -4.38355 0
M  V30 1100 H 97.0174 3.53023 -2.66134 0
M  V30 1101 N 96.0765 1.50051 0.48192 0
M  V30 1102 C 97.3255 1.59741 1.23149 0
M  V30 1103 C 97.6385 0.298163 1.93314 0
M  V30 1104 O 98.8445 0.273835 2.70116 0
M  V30 1105 C 97.3005 2.81926 2.23708 0
M  V30 1106 C 96.9085 4.18685 1.59396 0
M  V30 1107 C 98.6525 3.00956 2.99375 0
M  V30 1108 C 96.5595 5.3207 2.58178 0
M  V30 1109 H 95.4895 0.594838 0.46334 0
M  V30 1110 H 98.1405 1.76467 0.503169 0
M  V30 1111 H 96.5225 2.58736 2.99786 0
M  V30 1112 H 97.6965 4.52088 0.891811 0
M  V30 1113 H 96.0115 4.05171 0.960503 0
M  V30 1114 H 98.6085 3.82836 3.73283 0
M  V30 1115 H 98.9515 2.12258 3.58123 0
M  V30 1116 H 99.4845 3.24277 2.30411 0
M  V30 1117 H 96.2235 6.22888 2.04184 0
M  V30 1118 H 95.7435 5.03098 3.26577 0
M  V30 1119 H 97.4225 5.62196 3.20225 0
M  V30 1120 N 97.5546 -0.734337 1.39446 0
M  V30 1121 C 98.8006 -1.49613 1.36908 0
M  V30 1122 C 99.1336 -1.94169 -0.0347829 0
M  V30 1123 O 98.4086 -1.66833 -0.999847 0
M  V30 1124 C 98.6916 -2.73534 2.34203 0
M  V30 1125 C 98.5446 -2.34993 3.83534 0
M  V30 1126 C 99.8636 -3.75635 2.29317 0
M  V30 1127 H 96.9826 -0.542714 0.498629 0
M  V30 1128 H 99.6246 -0.839597 1.70443 0
M  V30 1129 H 97.7746 -3.29553 2.05736 0
M  V30 1130 H 99.4466 -1.84601 4.22753 0
M  V30 1131 H 97.6896 -1.67213 4.00278 0
M  V30 1132 H 98.3606 -3.23738 4.47099 0
M  V30 1133 H 100.837 -3.29203 2.54489 0
M  V30 1134 H 99.7126 -4.60008 2.99472 0
M  V30 1135 H 99.9736 -4.22603 1.29842 0
M  V30 1136 N 99.0327 -1.24633 -0.964593 0
M  V30 1137 C 100.263 -1.11339 -1.74032 0
M  V30 1138 C 100.671 0.336593 -1.86182 0
M  V30 1139 O 100.014 1.24389 -1.35178 0
M  V30 1140 C 100.076 -1.68284 -3.1768 0
M  V30 1141 C 99.7397 -3.17196 -3.28992 0
M  V30 1142 C 100.737 -4.14308 -3.14078 0
M  V30 1143 C 98.4217 -3.57215 -3.53133 0
M  V30 1144 C 100.416 -5.4942 -3.23135 0
M  V30 1145 C 98.1027 -4.92468 -3.61827 0
M  V30 1146 C 99.1007 -5.8838 -3.46841 0
M  V30 1147 O 98.7887 -7.21173 -3.55197 0
M  V30 1148 H 98.5207 -0.389551 -0.552472 0
M  V30 1149 H 101.075 -1.65282 -1.21946 0
M  V30 1150 H 99.3047 -1.08777 -3.71085 0
M  V30 1151 H 100.994 -1.50234 -3.77074 0
M  V30 1152 H 101.76 -3.84731 -2.95308 0
M  V30 1153 H 97.6387 -2.83063 -3.63863 0
M  V30 1154 H 101.183 -6.24263 -3.11355 0
M  V30 1155 H 97.0797 -5.21714 -3.80111 0
M  V30 1156 H 97.8477 -7.29135 -3.71892 0
M  V30 1157 N 100.511 1.16574 -1.06058 0
M  V30 1158 C 101.474 2.19085 -0.673392 0
M  V30 1159 C 102.474 1.5835 0.279648 0
M  V30 1160 O 103.664 1.74088 0.0623488 0
M  V30 1161 C 100.796 3.40899 0.00954234 0
M  V30 1162 H 101.989 2.54853 -1.58081 0
M  V30 1163 H 99.5418 1.30808 -0.855516 0
M  V30 1164 H 100.277 3.10684 0.929826 0
M  V30 1165 H 100.062 3.86233 -0.67573 0
M  V30 1166 H 101.552 4.1675 0.266245 0
M  V30 1167 N 101.989 0.842826 1.3317 0
M  V30 1168 C 103.238 0.436738 1.96915 0
M  V30 1169 C 103.551 -1.01025 1.67491 0
M  V30 1170 O 104.757 -1.5212 2.24881 0
M  V30 1171 C 103.213 0.730021 3.52418 0
M  V30 1172 C 102.821 2.19195 3.90714 0
M  V30 1173 C 104.565 0.391076 4.22695 0
M  V30 1174 C 102.472 2.42907 5.39212 0
M  V30 1175 H 101.402 0.15958 0.736919 0
M  V30 1176 H 104.053 1.03196 1.51733 0
M  V30 1177 H 102.435 0.0643755 3.95948 0
M  V30 1178 H 103.609 2.8984 3.58231 0
M  V30 1179 H 101.924 2.49425 3.33431 0
M  V30 1180 H 104.521 0.545817 5.31907 0
M  V30 1181 H 104.864 -0.666294 4.10933 0
M  V30 1182 H 105.397 1.01212 3.84709 0
M  V30 1183 H 102.136 3.47224 5.55982 0
M  V30 1184 H 101.656 1.76827 5.73142 0
M  V30 1185 H 103.335 2.2626 6.06148 0
M  V30 1186 N 103.467 -1.45747 0.599634 0
M  V30 1187 C 104.397 -2.33235 -0.111306 0
M  V30 1188 C 105.378 -1.46359 -0.866781 0
M  V30 1189 O 106.563 -1.75146 -0.838904 0
M  V30 1190 C 103.693 -3.28932 -1.11451 0
M  V30 1191 C 102.647 -4.25381 -0.472772 0
M  V30 1192 C 101.973 -5.1071 -1.58365 0
M  V30 1193 C 103.273 -5.18831 0.600948 0
M  V30 1194 H 104.967 -2.92927 0.61919 0
M  V30 1195 H 102.513 -1.40857 0.299215 0
M  V30 1196 H 104.466 -3.89002 -1.62036 0
M  V30 1197 H 103.19 -2.67381 -1.8755 0
M  V30 1198 H 101.849 -3.66598 0.0121472 0
M  V30 1199 H 101.497 -4.45533 -2.33473 0
M  V30 1200 H 101.197 -5.7604 -1.15982 0
M  V30 1201 H 102.721 -5.73647 -2.09194 0
M  V30 1202 H 104.135 -5.73019 0.179491 0
M  V30 1203 H 102.532 -5.92595 0.946076 0
M  V30 1204 H 103.602 -4.6174 1.48068 0
M  V30 1205 N 104.945 -0.338344 -1.53925 0
M  V30 1206 C 105.893 0.536231 -2.26335 0
M  V30 1207 C 106.887 1.1063 -1.28286 0
M  V30 1208 O 108.093 1.05264 -1.46012 0
M  V30 1209 H 104.468 0.191602 -0.727181 0
M  V30 1210 H 106.439 -0.0965747 -2.98244 0
M  V30 1211 C 105.188 1.67803 -3.04528 0
M  V30 1212 H 104.511 1.24864 -3.79801 0
M  V30 1213 H 105.951 2.26526 -3.58416 0
M  V30 1214 C 104.41 2.60439 -2.13712 0
M  V30 1215 O 104.94 3.6255 -1.72975 0
M  V30 1216 N 103.146 2.29006 -1.78898 0
M  V30 1217 H 102.693 1.46011 -2.12223 0
M  V30 1218 H 102.651 2.91248 -1.18416 0
M  V30 1219 N 106.423 1.57458 -0.0668435 0
M  V30 1220 C 107.669 1.93587 0.6043 0
M  V30 1221 C 108.002 0.946722 1.69561 0
M  V30 1222 O 107.277 -0.0248516 1.94484 0
M  V30 1223 C 107.56 3.40014 1.18585 0
M  V30 1224 C 107.413 4.49685 0.101529 0
M  V30 1225 C 108.732 3.87154 2.09284 0
M  V30 1226 H 105.851 0.703958 0.218202 0
M  V30 1227 H 108.493 1.89542 -0.131804 0
M  V30 1228 H 106.643 3.43592 1.81319 0
M  V30 1229 H 108.315 4.5823 -0.531279 0
M  V30 1230 H 106.558 4.30059 -0.568487 0
M  V30 1231 H 107.229 5.49266 0.54874 0
M  V30 1232 H 109.705 3.85551 1.56491 0
M  V30 1233 H 108.581 4.90231 2.46911 0
M  V30 1234 H 108.842 3.2481 2.99918 0
M  V30 1235 N 107.901 -0.206675 1.56239 0
M  V30 1236 C 109.178 -0.954051 1.70755 0
M  V30 1237 C 109.558 -2.01841 0.618353 0
M  V30 1238 O 108.906 -2.25444 -0.372434 0
M  V30 1239 C 109.116 -1.551 3.12642 0
M  V30 1240 C 110.464 -2.03757 3.72516 0
M  V30 1241 O 111.488 -1.64965 3.15698 0
M  V30 1242 O 110.347 -2.75103 4.72208 0
M  V30 1243 H 107.441 -0.446636 0.696021 0
M  V30 1244 H 109.987 -0.197283 1.68549 0
M  V30 1245 H 108.759 -0.783212 3.83382 0
M  V30 1246 H 108.382 -2.37291 3.19028 0
M  V30 1247 N 109.379 -1.50304 -0.473955 0
M  V30 1248 C 110.289 -1.7174 -1.5982 0
M  V30 1249 C 111.305 -0.600457 -1.63311 0
M  V30 1250 O 112.481 -0.878441 -1.81233 0
M  V30 1251 C 109.546 -1.80427 -2.96052 0
M  V30 1252 C 108.607 -3.04148 -3.02972 0
M  V30 1253 C 107.84 -3.12411 -4.32706 0
M  V30 1254 O 108.063 -2.27542 -5.23049 0
M  V30 1255 O 106.997 -4.05113 -4.45159 0
M  V30 1256 H 110.823 -2.67035 -1.44657 0
M  V30 1257 H 108.408 -1.34366 -0.653148 0
M  V30 1258 H 110.29 -1.88338 -3.7697 0
M  V30 1259 H 108.965 -0.883156 -3.11419 0
M  V30 1260 H 107.872 -3.0174 -2.21142 0
M  V30 1261 H 109.205 -3.95829 -2.92541 0
M  V30 1262 N 110.857 0.726932 -1.39834 0
M  V30 1263 C 111.804 1.841 -1.39197 0
M  V30 1264 C 112.774 1.642 -0.250502 0
M  V30 1265 O 113.959 1.85494 -0.446846 0
M  V30 1266 C 111.099 3.21697 -1.24919 0
M  V30 1267 C 110.212 3.53247 -2.48678 0
M  V30 1268 C 109.347 4.80289 -2.26928 0
M  V30 1269 C 108.386 5.04707 -3.4632 0
M  V30 1270 N 107.523 6.22956 -3.23836 0
M  V30 1271 H 112.363 1.83979 -2.34427 0
M  V30 1272 H 109.9 0.898876 -1.16442 0
M  V30 1273 H 111.858 4.01137 -1.1465 0
M  V30 1274 H 110.488 3.21076 -0.333153 0
M  V30 1275 H 109.54 2.68447 -2.69519 0
M  V30 1276 H 110.852 3.67205 -3.37582 0
M  V30 1277 H 110.006 5.67725 -2.13947 0
M  V30 1278 H 108.745 4.68519 -1.35431 0
M  V30 1279 H 107.75 4.1573 -3.5979 0
M  V30 1280 H 108.975 5.18357 -4.38729 0
M  V30 1281 H 106.921 6.12459 -2.35011 0
M  V30 1282 H 106.838 6.37539 -4.063 0
M  V30 1283 H 108.106 7.1321 -3.14566 0
M  V30 1284 N 112.336 1.25143 0.95797 0
M  V30 1285 C 113.284 1.05019 2.07542 0
M  V30 1286 C 114.278 -0.0178751 1.69391 0
M  V30 1287 O 115.484 0.137472 1.79474 0
M  V30 1288 H 111.859 0.32265 0.679265 0
M  V30 1289 H 113.83 1.99759 2.21673 0
M  V30 1290 C 112.579 0.682074 3.40944 0
M  V30 1291 H 111.902 1.49573 3.70767 0
M  V30 1292 H 113.342 0.580945 4.20001 0
M  V30 1293 C 111.801 -0.611608 3.31302 0
M  V30 1294 O 112.331 -1.65465 3.66038 0
M  V30 1295 N 110.537 -0.595982 2.84423 0
M  V30 1296 H 110.084 0.253192 2.56353 0
M  V30 1297 H 110.042 -1.46173 2.78354 0
M  V30 1298 N 113.814 -1.1601 1.06675 0
M  V30 1299 C 114.746 -2.20115 0.638921 0
M  V30 1300 C 115.759 -1.59916 -0.305057 0
M  V30 1301 O 116.948 -1.78245 -0.0954446 0
M  V30 1302 C 114.048 -3.38798 -0.0830083 0
M  V30 1303 C 113.221 -4.2855 0.875426 0
M  V30 1304 C 112.28 -5.25849 0.192042 0
M  V30 1305 O 111.306 -5.63102 0.830921 0
M  V30 1306 N 112.508 -5.70648 -1.06493 0
M  V30 1307 H 115.273 -2.57439 1.53444 0
M  V30 1308 H 112.834 -1.31057 0.950557 0
M  V30 1309 H 114.826 -4.00936 -0.550685 0
M  V30 1310 H 113.396 -2.99947 -0.880386 0
M  V30 1311 H 112.616 -3.63617 1.52238 0
M  V30 1312 H 113.904 -4.85393 1.52548 0
M  V30 1313 H 113.302 -5.42482 -1.60405 0
M  V30 1314 H 111.859 -6.34859 -1.47641 0
M  V30 1315 N 115.292 -0.849877 -1.32721 0
M  V30 1316 C 116.538 -0.451591 -1.97708 0
M  V30 1317 C 116.871 0.989175 -1.6712 0
M  V30 1318 O 116.146 1.69334 -0.956891 0
M  V30 1319 C 116.429 -0.685598 -3.53513 0
M  V30 1320 C 116.282 -2.17444 -3.93749 0
M  V30 1321 C 117.601 -0.138874 -4.39881 0
M  V30 1322 H 114.72 -0.16555 -0.718166 0
M  V30 1323 H 117.362 -1.06742 -1.57182 0
M  V30 1324 H 115.512 -0.161416 -3.88165 0
M  V30 1325 H 117.184 -2.76433 -3.693 0
M  V30 1326 H 115.427 -2.65476 -3.43081 0
M  V30 1327 H 116.098 -2.28888 -5.02309 0
M  V30 1328 H 118.574 -0.587068 -4.11938 0
M  V30 1329 H 117.45 -0.332213 -5.47894 0
M  V30 1330 H 117.711 0.95806 -4.31594 0
M  V30 1331 N 116.77 1.45427 -0.607355 0
M  V30 1332 C 117.7 2.3329 0.0989352 0
M  V30 1333 C 118.681 1.46816 0.859007 0
M  V30 1334 O 119.866 1.75588 0.829604 0
M  V30 1335 C 116.996 3.29518 1.09705 0
M  V30 1336 C 115.95 4.25626 0.450206 0
M  V30 1337 C 115.276 5.11542 1.55655 0
M  V30 1338 C 116.576 5.18505 -0.628455 0
M  V30 1339 H 118.27 2.92595 -0.634716 0
M  V30 1340 H 115.816 1.40696 -0.306681 0
M  V30 1341 H 117.769 3.89855 1.59971 0
M  V30 1342 H 116.493 2.68372 1.86129 0
M  V30 1343 H 115.152 3.66586 -0.0315886 0
M  V30 1344 H 114.8 4.46765 2.31107 0
M  V30 1345 H 114.5 5.76647 1.12925 0
M  V30 1346 H 116.024 5.74748 2.06148 0
M  V30 1347 H 117.438 5.72916 -0.209877 0
M  V30 1348 H 115.835 5.92085 -0.977489 0
M  V30 1349 H 116.905 4.60948 -1.50514 0
M  V30 1350 N 118.248 0.346503 1.53744 0
M  V30 1351 C 119.476 -0.25041 2.05379 0
M  V30 1352 C 119.891 -1.43979 1.22129 0
M  V30 1353 O 119.248 -1.80677 0.257321 0
M  V30 1354 C 119.299 -0.662575 3.55376 0
M  V30 1355 O 119.02 0.479515 4.35468 0
M  V30 1356 C 120.521 -1.31989 4.23195 0
M  V30 1357 H 117.741 -0.0478198 0.669294 0
M  V30 1358 H 120.285 0.499346 1.9831 0
M  V30 1359 H 118.44 -1.36227 3.62658 0
M  V30 1360 H 118.854 0.15037 5.24284 0
M  V30 1361 H 120.328 -1.55902 5.29527 0
M  V30 1362 H 120.805 -2.27436 3.75725 0
M  V30 1363 H 121.411 -0.662154 4.20114 0
M  V30 1364 N 119.726 -1.57421 0.075193 0
M  V30 1365 C 120.954 -1.97946 -0.602076 0
M  V30 1366 C 121.369 -0.953674 -1.62943 0
M  V30 1367 O 120.726 0.0592551 -1.82404 0
M  V30 1368 C 120.777 -3.38546 -1.26762 0
M  V30 1369 O 120.498 -4.37195 -0.281376 0
M  V30 1370 C 121.999 -3.93966 -2.03239 0
M  V30 1371 H 119.219 -0.650918 -0.162931 0
M  V30 1372 H 121.763 -2.03959 0.148601 0
M  V30 1373 H 119.918 -3.33609 -1.96936 0
M  V30 1374 H 120.332 -5.18975 -0.759267 0
M  V30 1375 H 121.806 -4.94555 -2.45193 0
M  V30 1376 H 122.283 -3.30693 -2.8903 0
M  V30 1377 H 122.889 -4.02315 -1.37924 0
M  V30 1378 N 121.204 0.198386 -1.56346 0
M  V30 1379 C 122.434 0.934215 -1.84271 0
M  V30 1380 C 122.842 1.77496 -0.655125 0
M  V30 1381 O 122.185 1.7961 0.385488 0
M  V30 1382 C 122.247 1.88278 -3.06254 0
M  V30 1383 C 121.911 1.22431 -4.40295 0
M  V30 1384 C 122.908 0.602839 -5.16393 0
M  V30 1385 C 120.593 1.22915 -4.87029 0
M  V30 1386 C 122.587 -0.0050083 -6.374 0
M  V30 1387 C 120.274 0.617465 -6.07973 0
M  V30 1388 C 121.272 0.00146341 -6.83 0
M  V30 1389 O 120.96 -0.600642 -8.01653 0
M  V30 1390 H 120.692 0.278245 -0.616081 0
M  V30 1391 H 123.246 0.211626 -2.04307 0
M  V30 1392 H 121.476 2.64498 -2.82095 0
M  V30 1393 H 123.165 2.48612 -3.20853 0
M  V30 1394 H 123.931 0.591265 -4.81382 0
M  V30 1395 H 119.81 1.69801 -4.28589 0
M  V30 1396 H 123.354 -0.48643 -6.95902 0
M  V30 1397 H 119.251 0.62653 -6.42452 0
M  V30 1398 H 120.019 -0.497225 -8.16988 0
M  V30 1399 N 122.682 1.50554 0.465978 0
M  V30 1400 C 123.931 1.61038 1.21448 0
M  V30 1401 C 124.244 0.31865 1.92987 0
M  V30 1402 O 125.45 0.302469 2.6981 0
M  V30 1403 C 123.906 2.84283 2.20706 0
M  V30 1404 C 123.514 4.20352 1.54946 0
M  V30 1405 C 125.258 3.04115 2.96166 0
M  V30 1406 C 123.165 5.34778 2.5252 0
M  V30 1407 H 122.095 0.599718 0.457005 0
M  V30 1408 H 124.746 1.7699 0.484424 0
M  V30 1409 H 123.128 2.61901 2.97025 0
M  V30 1410 H 124.302 4.53008 0.843811 0
M  V30 1411 H 122.617 4.06167 0.917475 0
M  V30 1412 H 125.214 3.86774 3.69202 0
M  V30 1413 H 125.557 2.16045 3.55852 0
M  V30 1414 H 126.09 3.26702 2.26959 0
M  V30 1415 H 122.829 6.25018 1.97566 0
M  V30 1416 H 122.349 5.06534 3.21222 0
M  V30 1417 H 124.028 5.65561 3.14245 0
M  V30 1418 N 124.16 -0.719506 1.40217 0
M  V30 1419 C 125.406 -1.48034 1.39491 0
M  V30 1420 C 125.761 -1.92399 -0.00443536 0
M  V30 1421 O 125.054 -1.64993 -0.974061 0
M  V30 1422 C 125.248 -2.72271 2.31524 0
M  V30 1423 C 125.077 -2.40055 3.80268 0
M  V30 1424 C 123.847 -2.31588 4.49105 0
M  V30 1425 C 126.045 -2.04581 4.71859 0
M  V30 1426 N 124.027 -1.92006 5.83101 0
M  V30 1427 C 125.398 -1.75568 5.94623 0
M  V30 1428 C 127.453 -1.91183 4.59732 0
M  V30 1429 C 126.156 -1.34505 7.06612 0
M  V30 1430 C 128.182 -1.51524 5.71659 0
M  V30 1431 C 127.544 -1.23406 6.93506 0
M  V30 1432 H 123.643 -0.539927 0.565688 0
M  V30 1433 H 126.227 -0.834764 1.75897 0
M  V30 1434 H 124.398 -3.34584 1.97251 0
M  V30 1435 H 126.13 -3.38584 2.21682 0
M  V30 1436 H 122.885 -2.49199 4.02737 0
M  V30 1437 H 123.309 -1.74764 6.54054 0
M  V30 1438 H 127.951 -2.11584 3.66049 0
M  V30 1439 H 125.669 -1.12846 8.00182 0
M  V30 1440 H 129.255 -1.41741 5.6427 0
M  V30 1441 H 128.135 -0.931788 7.78645 0
M  V30 1442 N 125.638 -1.25649 -0.95132 0
M  V30 1443 C 126.868 -1.13179 -1.72841 0
M  V30 1444 C 127.276 0.316827 -1.86528 0
M  V30 1445 O 126.619 1.22948 -1.3649 0
M  V30 1446 C 126.681 -1.71644 -3.15878 0
M  V30 1447 C 126.345 -3.20667 -3.25609 0
M  V30 1448 C 127.342 -4.17616 -3.09666 0
M  V30 1449 C 125.027 -3.6094 -3.49324 0
M  V30 1450 C 127.021 -5.52817 -3.17289 0
M  V30 1451 C 124.708 -4.96278 -3.56584 0
M  V30 1452 C 125.706 -5.92025 -3.40581 0
M  V30 1453 O 125.394 -7.24899 -3.47528 0
M  V30 1454 H 125.126 -0.395389 -0.54831 0
M  V30 1455 H 127.68 -1.66566 -1.20187 0
M  V30 1456 H 125.91 -1.12707 -3.69911 0
M  V30 1457 H 127.599 -1.54225 -3.75459 0
M  V30 1458 H 128.365 -3.87842 -2.91211 0
M  V30 1459 H 124.244 -2.86907 -3.6084 0
M  V30 1460 H 127.788 -6.2753 -3.04716 0
M  V30 1461 H 123.685 -5.25716 -3.74556 0
M  V30 1462 H 124.453 -7.33039 -3.64138 0
M  V30 1463 N 127.117 1.15442 -1.07289 0
M  V30 1464 C 128.533 1.38201 -0.798288 0
M  V30 1465 C 128.733 1.92429 0.597769 0
M  V30 1466 O 127.789 2.12962 1.3566 0
M  V30 1467 C 129.102 2.35357 -1.87156 0
M  V30 1468 C 130.65 2.49021 -1.89624 0
M  V30 1469 C 131.125 3.49468 -2.96034 0
M  V30 1470 N 132.616 3.57003 -2.95132 0
M  V30 1471 C 133.351 4.34543 -3.74112 0
M  V30 1472 N 132.847 5.15421 -4.6294 0
M  V30 1473 N 134.64 4.29625 -3.62462 0
M  V30 1474 H 126.791 0.78584 -1.97328 0
M  V30 1475 H 129.054 0.408065 -0.855679 0
M  V30 1476 H 128.76 2.02626 -2.87464 0
M  V30 1477 H 128.634 3.35129 -1.73114 0
M  V30 1478 H 131.021 2.81051 -0.899687 0
M  V30 1479 H 131.102 1.4925 -2.07745 0
M  V30 1480 H 130.746 3.18173 -3.95889 0
M  V30 1481 H 130.676 4.48992 -2.75161 0
M  V30 1482 H 133.167 2.99276 -2.30743 0
M  V30 1483 H 133.48 5.7183 -5.19837 0
M  V30 1484 H 131.825 5.14729 -4.66989 0
M  V30 1485 H 135.016 3.65505 -2.92444 0
M  V30 1486 H 135.189 4.89807 -4.24256 0
M  V30 1487 N 128.595 0.856903 1.32268 0
M  V30 1488 C 129.527 0.260412 2.27716 0
M  V30 1489 C 130.54 -0.569137 1.52528 0
M  V30 1490 O 131.729 -0.39326 1.74114 0
M  V30 1491 C 128.829 -0.650477 3.32599 0
M  V30 1492 C 128.002 0.14372 4.37164 0
M  V30 1493 C 127.061 -0.69328 5.21613 0
M  V30 1494 O 126.087 -0.12599 5.69061 0
M  V30 1495 N 127.289 -2.00761 5.44679 0
M  V30 1496 H 130.054 1.08059 2.79541 0
M  V30 1497 H 127.615 0.717103 1.45152 0
M  V30 1498 H 129.607 -1.21581 3.86005 0
M  V30 1499 H 128.177 -1.37133 2.80915 0
M  V30 1500 H 127.397 0.890486 3.8401 0
M  V30 1501 H 128.685 0.68915 5.04111 0
M  V30 1502 H 128.083 -2.49181 5.07863 0
M  V30 1503 H 126.64 -2.52103 6.01072 0
M  V30 1504 N 130.073 -1.45103 0.615059 0
M  V30 1505 C 131.303 -2.06254 0.119596 0
M  V30 1506 C 131.711 -1.4591 -1.20445 0
M  V30 1507 O 131.054 -0.570384 -1.7462 0
M  V30 1508 C 131.116 -3.59396 -0.0865591 0
M  V30 1509 C 130.78 -4.42116 1.15683 0
M  V30 1510 C 131.777 -4.7662 2.07676 0
M  V30 1511 C 129.462 -4.82749 1.38775 0
M  V30 1512 C 131.456 -5.50622 3.21082 0
M  V30 1513 C 129.143 -5.56504 2.52481 0
M  V30 1514 C 130.141 -5.90358 3.43463 0
M  V30 1515 O 129.829 -6.62615 4.55189 0
M  V30 1516 H 129.561 -0.672423 0.0694512 0
M  V30 1517 H 132.115 -1.87219 0.844885 0
M  V30 1518 H 130.345 -3.76859 -0.866823 0
M  V30 1519 H 132.034 -4.02365 -0.534555 0
M  V30 1520 H 132.8 -4.4578 1.91063 0
M  V30 1521 H 128.679 -4.55829 0.688545 0
M  V30 1522 H 132.223 -5.76965 3.92119 0
M  V30 1523 H 128.12 -5.86759 2.69043 0
M  V30 1524 H 128.888 -6.81071 4.53966 0
M  V30 1525 N 131.551 -0.354651 -1.53558 0
M  V30 1526 C 132.797 0.231422 -2.02079 0
M  V30 1527 C 133.152 1.47308 -1.23767 0
M  V30 1528 O 132.445 1.8891 -0.319947 0
M  V30 1529 C 132.639 0.587121 -3.52545 0
M  V30 1530 C 132.468 -0.618513 -4.45426 0
M  V30 1531 C 131.238 -1.12724 -4.92566 0
M  V30 1532 C 133.436 -1.48039 -4.92533 0
M  V30 1533 N 131.418 -2.29404 -5.69427 0
M  V30 1534 C 132.789 -2.49397 -5.67628 0
M  V30 1535 C 134.844 -1.50454 -4.74624 0
M  V30 1536 C 133.547 -3.53013 -6.26717 0
M  V30 1537 C 135.573 -2.52958 -5.34571 0
M  V30 1538 C 134.935 -3.5304 -6.09543 0
M  V30 1539 H 131.034 0.0476909 -0.780544 0
M  V30 1540 H 133.618 -0.496727 -1.88257 0
M  V30 1541 H 131.789 1.28436 -3.6655 0
M  V30 1542 H 133.521 1.15734 -3.87799 0
M  V30 1543 H 130.276 -0.693577 -4.68494 0
M  V30 1544 H 130.7 -2.88347 -6.12524 0
M  V30 1545 H 135.342 -0.744356 -4.16196 0
M  V30 1546 H 133.06 -4.2992 -6.84247 0
M  V30 1547 H 136.646 -2.55667 -5.22614 0
M  V30 1548 H 135.526 -4.31056 -6.55103 0
M  V30 1549 N 133.029 1.57378 -0.0835403 0
M  V30 1550 C 134.257 1.98263 0.59157 0
M  V30 1551 C 134.672 0.962302 1.62435 0
M  V30 1552 O 134.029 -0.049581 1.82433 0
M  V30 1553 C 134.08 3.39214 1.24965 0
M  V30 1554 O 133.801 4.37339 0.258186 0
M  V30 1555 C 135.302 3.95038 2.01147 0
M  V30 1556 H 132.522 0.651773 0.159477 0
M  V30 1557 H 135.066 2.03878 -0.159415 0
M  V30 1558 H 133.221 3.34649 1.95164 0
M  V30 1559 H 133.635 5.19371 0.731734 0
M  V30 1560 H 135.109 4.95848 2.42567 0
M  V30 1561 H 135.586 3.32222 2.87272 0
M  V30 1562 H 136.192 4.0304 1.35789 0
M  V30 1563 N 134.507 -0.190092 1.56449 0
M  V30 1564 C 135.784 -0.935886 1.71757 0
M  V30 1565 C 136.164 -2.01173 0.639726 0
M  V30 1566 O 135.512 -2.25827 -0.348502 0
M  V30 1567 C 135.722 -1.51775 3.1427 0
M  V30 1568 C 137.07 -1.99794 3.74656 0
M  V30 1569 O 138.094 -1.61607 3.1743 0
M  V30 1570 O 136.953 -2.70079 4.751 0
M  V30 1571 H 134.047 -0.439229 0.700719 0
M  V30 1572 H 136.593 -0.179395 1.68749 0
M  V30 1573 H 135.365 -0.742505 3.84191 0
M  V30 1574 H 134.988 -2.33894 3.21527 0
M  V30 1575 N 135.985 -1.50799 -0.457987 0
M  V30 1576 C 136.895 -1.73426 -1.57989 0
M  V30 1577 C 137.911 -0.617745 -1.62665 0
M  V30 1578 O 139.087 -0.897614 -1.80291 0
M  V30 1579 C 136.152 -1.83557 -2.94122 0
M  V30 1580 C 135.213 -3.07345 -2.99729 0
M  V30 1581 C 134.446 -3.16983 -4.29368 0
M  V30 1582 O 134.669 -2.33077 -5.20607 0
M  V30 1583 O 133.603 -4.09812 -4.40837 0
M  V30 1584 H 137.429 -2.68555 -1.41817 0
M  V30 1585 H 135.014 -1.35052 -0.638859 0
M  V30 1586 H 136.896 -1.92326 -3.74952 0
M  V30 1587 H 135.571 -0.916137 -3.10465 0
M  V30 1588 H 134.478 -3.04068 -2.1793 0
M  V30 1589 H 135.811 -3.9891 -2.88326 0
M  V30 1590 N 137.463 0.71206 -1.40597 0
M  V30 1591 C 138.71 1.47197 -1.39065 0
M  V30 1592 C 139.038 1.94499 0.00583891 0
M  V30 1593 O 138.293 1.68752 0.99102 0
M  V30 1594 C 138.592 2.71039 -2.32965 0
M  V30 1595 C 138.258 2.42484 -3.80148 0
M  V30 1596 C 136.92 2.34406 -4.20247 0
M  V30 1597 C 139.272 2.18598 -4.73143 0
M  V30 1598 C 136.6 2.00516 -5.51371 0
M  V30 1599 C 138.952 1.8622 -6.0457 0
M  V30 1600 C 137.616 1.76626 -6.43708 0
M  V30 1601 H 136.886 0.538634 -0.508876 0
M  V30 1602 H 139.533 0.815325 -1.73276 0
M  V30 1603 H 137.838 3.41558 -1.91951 0
M  V30 1604 H 139.535 3.29138 -2.29061 0
M  V30 1605 H 136.125 2.49659 -3.4838 0
M  V30 1606 H 140.309 2.23793 -4.42979 0
M  V30 1607 H 135.565 1.91628 -5.80593 0
M  V30 1608 H 139.739 1.66752 -6.76141 0
M  V30 1609 H 137.366 1.50133 -7.45228 0
M  V30 1610 N 138.941 1.26152 0.944643 0
M  V30 1611 C 139.871 1.09902 2.06019 0
M  V30 1612 C 140.852 0.00519538 1.70099 0
M  V30 1613 O 142.037 0.176583 1.93396 0
M  V30 1614 C 139.167 0.727562 3.39594 0
M  V30 1615 C 138.121 1.77274 3.89561 0
M  V30 1616 C 137.447 1.25569 5.19747 0
M  V30 1617 C 138.747 3.17357 4.14827 0
M  V30 1618 H 140.441 2.03217 2.19871 0
M  V30 1619 H 137.987 0.978452 1.05652 0
M  V30 1620 H 139.94 0.600777 4.17095 0
M  V30 1621 H 138.664 -0.241287 3.25707 0
M  V30 1622 H 137.323 1.88814 3.14237 0
M  V30 1623 H 136.971 0.276783 5.02238 0
M  V30 1624 H 136.671 1.95433 5.54148 0
M  V30 1625 H 138.195 1.1415 5.99835 0
M  V30 1626 H 139.609 3.08914 4.82954 0
M  V30 1627 H 138.006 3.84781 4.60504 0
M  V30 1628 H 139.076 3.63673 3.20734 0
M  V30 1629 N 140.419 -1.14872 1.07899 0
M  V30 1630 C 141.351 -2.19425 0.662231 0
M  V30 1631 C 142.364 -1.60231 -0.288079 0
M  V30 1632 O 143.553 -1.78336 -0.076534 0
M  V30 1633 C 140.653 -3.38867 -0.0470695 0
M  V30 1634 C 139.826 -4.27597 0.920831 0
M  V30 1635 C 138.885 -5.25616 0.247805 0
M  V30 1636 O 137.911 -5.62189 0.890599 0
M  V30 1637 N 139.113 -5.71746 -1.00435 0
M  V30 1638 H 141.878 -2.55797 1.56166 0
M  V30 1639 H 139.439 -1.30042 0.964404 0
M  V30 1640 H 141.431 -4.01497 -0.50813 0
M  V30 1641 H 140.001 -3.00864 -0.848523 0
M  V30 1642 H 139.221 -3.61982 1.56087 0
M  V30 1643 H 140.509 -4.83748 1.57688 0
M  V30 1644 H 139.907 -5.44153 -1.54642 0
M  V30 1645 H 138.464 -6.36389 -1.40899 0
M  V30 1646 N 141.898 -0.863906 -1.31812 0
M  V30 1647 C 143.144 -0.481841 -1.9761 0
M  V30 1648 C 143.499 0.954048 -1.6708 0
M  V30 1649 O 142.792 1.66182 -0.953624 0
M  V30 1650 C 142.986 -0.668547 -3.51091 0
M  V30 1651 C 142.815 -2.12103 -3.96538 0
M  V30 1652 C 141.585 -2.76141 -4.23171 0
M  V30 1653 C 143.783 -3.09265 -4.10925 0
M  V30 1654 N 141.765 -4.12205 -4.54929 0
M  V30 1655 C 143.136 -4.30341 -4.46326 0
M  V30 1656 C 145.191 -3.05337 -3.93286 0
M  V30 1657 C 143.894 -5.48 -4.65928 0
M  V30 1658 C 145.92 -4.22248 -4.14078 0
M  V30 1659 C 145.282 -5.42085 -4.49804 0
M  V30 1660 H 141.381 -0.225238 -0.74886 0
M  V30 1661 H 143.965 -1.11723 -1.59455 0
M  V30 1662 H 142.136 -0.0627898 -3.88349 0
M  V30 1663 H 143.868 -0.255467 -4.03893 0
M  V30 1664 H 140.623 -2.27125 -4.15585 0
M  V30 1665 H 141.047 -4.82416 -4.74978 0
M  V30 1666 H 145.689 -2.138 -3.64759 0
M  V30 1667 H 143.407 -6.40059 -4.93305 0
M  V30 1668 H 146.993 -4.20654 -4.01922 0
M  V30 1669 H 145.873 -6.31044 -4.65567 0
M  V30 1670 N 143.376 1.44774 -0.622745 0
M  V30 1671 C 144.324 2.32387 0.0994683 0
M  V30 1672 C 145.318 1.46859 0.844326 0
M  V30 1673 O 146.524 1.63254 0.758174 0
M  V30 1674 H 142.899 0.750273 0.0509291 0
M  V30 1675 H 144.87 2.91062 -0.65767 0
M  V30 1676 C 143.619 3.30723 1.07319 0
M  V30 1677 H 142.942 3.96541 0.509462 0
M  V30 1678 H 144.382 3.94725 1.54817 0
M  V30 1679 C 142.841 2.59021 2.15429 0
M  V30 1680 O 143.371 2.38286 3.23393 0
M  V30 1681 N 141.577 2.189 1.91131 0
M  V30 1682 H 141.124 2.35964 1.03337 0
M  V30 1683 H 141.082 1.71251 2.63668 0
M  V30 1684 N 144.854 0.36279 1.53368 0
M  V30 1685 C 146.265 -0.117022 1.86333 0
M  V30 1686 C 146.616 -1.48397 1.28347 0
M  V30 1687 O 145.741 -2.07787 0.604428 0
M  V30 1688 C 146.336 -0.21912 3.38091 0
M  V30 1689 C 144.895 -0.643184 3.70864 0
M  V30 1690 C 144.042 0.211318 2.76494 0
M  V30 1691 H 146.993 0.581687 1.47655 0
M  V30 1692 H 147.014 -1.04319 3.6592 0
M  V30 1693 H 146.526 0.775902 3.80265 0
M  V30 1694 H 144.627 -1.64654 3.34245 0
M  V30 1695 H 144.74 -0.41973 4.77258 0
M  V30 1696 H 143.104 -0.319367 2.5269 0
M  V30 1697 H 143.887 1.20383 3.21501 0
M  V30 1698 N 146.332 -1.57332 0.0918853 0
M  V30 1699 C 147.242 -2.17368 -0.882505 0
M  V30 1700 C 148.258 -1.14226 -1.31257 0
M  V30 1701 O 149.434 -1.46582 -1.38115 0
M  V30 1702 C 146.499 -2.73962 -2.12476 0
M  V30 1703 C 145.56 -3.92048 -1.7492 0
M  V30 1704 C 144.793 -4.45933 -2.93223 0
M  V30 1705 O 145.016 -3.98764 -4.07852 0
M  V30 1706 O 143.95 -5.36999 -2.71875 0
M  V30 1707 H 147.776 -3.01031 -0.40172 0
M  V30 1708 H 145.361 -1.48813 -0.132291 0
M  V30 1709 H 147.243 -3.10147 -2.85283 0
M  V30 1710 H 145.918 -1.93347 -2.59613 0
M  V30 1711 H 144.825 -3.6068 -0.993025 0
M  V30 1712 H 146.158 -4.74017 -1.32548 0
M  V30 1713 N 147.81 0.181792 -1.56548 0
M  V30 1714 C 149.087 0.926765 -1.72251 0
M  V30 1715 C 149.467 2.00831 -0.650386 0
M  V30 1716 O 148.815 2.26008 0.336521 0
M  V30 1717 C 149.025 1.50106 -3.1507 0
M  V30 1718 C 150.373 1.97805 -3.75711 0
M  V30 1719 O 151.397 1.59922 -3.18282 0
M  V30 1720 O 150.256 2.67555 -4.76525 0
M  V30 1721 H 147.35 0.435506 -0.703039 0
M  V30 1722 H 149.896 0.170443 -1.68842 0
M  V30 1723 H 148.668 0.72212 -3.84579 0
M  V30 1724 H 148.291 2.32186 -3.22763 0
M  V30 1725 N 149.288 1.51039 0.449983 0
M  V30 1726 C 150.535 1.63081 1.20045 0
M  V30 1727 C 150.863 0.341024 1.91487 0
M  V30 1728 O 150.118 -0.674276 1.83717 0
M  V30 1729 C 150.417 2.77556 2.25161 0
M  V30 1730 C 150.083 4.17289 1.70823 0
M  V30 1731 C 148.745 4.55305 1.55725 0
M  V30 1732 C 151.097 5.04536 1.3074 0
M  V30 1733 C 148.425 5.78287 0.989999 0
M  V30 1734 C 150.777 6.28085 0.754482 0
M  V30 1735 C 149.441 6.64885 0.590308 0
M  V30 1736 H 148.711 0.596755 0.439277 0
M  V30 1737 H 151.358 1.85037 0.49333 0
M  V30 1738 H 149.663 2.49771 3.01863 0
M  V30 1739 H 151.36 2.84073 2.83026 0
M  V30 1740 H 147.95 3.8731 1.83546 0
M  V30 1741 H 152.134 4.75782 1.41229 0
M  V30 1742 H 147.39 6.05456 0.850451 0
M  V30 1743 H 151.564 6.95038 0.435324 0
M  V30 1744 H 149.191 7.60055 0.14862 0
M  V30 1745 N 150.766 -0.704594 1.40972 0
M  V30 1746 C 152.043 -1.45847 1.30338 0
M  V30 1747 C 152.423 -2.10973 -0.0732344 0
M  V30 1748 O 151.771 -2.00997 -1.08685 0
M  V30 1749 C 151.981 -2.48525 2.45023 0
M  V30 1750 C 153.329 -3.1404 2.8577 0
M  V30 1751 O 154.353 -2.58848 2.44696 0
M  V30 1752 O 153.212 -4.13981 3.56766 0
M  V30 1753 H 150.306 -0.649092 0.512454 0
M  V30 1754 H 152.852 -0.735836 1.52917 0
M  V30 1755 H 151.624 -1.98994 3.36923 0
M  V30 1756 H 151.247 -3.2831 2.24272 0
M  V30 1757 N 152.244 -1.26651 -0.937939 0
M  V30 1758 C 153.192 -1.08308 -2.05845 0
M  V30 1759 C 154.186 -0.0090757 -1.69398 0
M  V30 1760 O 155.392 -0.166007 -1.79233 0
M  V30 1761 H 151.767 -0.333416 -0.674046 0
M  V30 1762 H 153.738 -2.03261 -2.18467 0
M  V30 1763 C 152.487 -0.736229 -3.39816 0
M  V30 1764 H 151.81 -1.55453 -3.6834 0
M  V30 1765 H 153.25 -0.64769 -4.19024 0
M  V30 1766 C 151.709 0.558824 -3.32233 0
M  V30 1767 O 152.239 1.59621 -3.68624 0
M  V30 1768 N 150.445 0.550657 -2.85335 0
M  V30 1769 H 149.992 -0.293943 -2.55917 0
M  V30 1770 H 149.95 1.41726 -2.80644 0
M  V30 1771 N 153.722 1.14298 -1.08507 0
M  V30 1772 C 154.971 1.84708 -0.810305 0
M  V30 1773 C 155.284 1.83903 0.666271 0
M  V30 1774 O 156.49 2.50112 1.05624 0
M  V30 1775 C 154.946 3.31572 -1.39957 0
M  V30 1776 C 154.554 3.40791 -2.90801 0
M  V30 1777 C 156.298 4.07087 -1.20334 0
M  V30 1778 C 154.205 4.81872 -3.4286 0
M  V30 1779 H 153.135 0.691985 -0.299454 0
M  V30 1780 H 155.786 1.28841 -1.30661 0
M  V30 1781 H 154.168 3.87183 -0.830976 0
M  V30 1782 H 155.342 2.95225 -3.53806 0
M  V30 1783 H 153.657 2.78732 -3.0935 0
M  V30 1784 H 156.254 5.11225 -1.56693 0
M  V30 1785 H 156.597 4.16054 -0.143237 0
M  V30 1786 H 157.13 3.57779 -1.73893 0
M  V30 1787 H 153.869 4.78094 -4.48449 0
M  V30 1788 H 153.389 5.27972 -2.84615 0
M  V30 1789 H 155.068 5.50765 -3.39509 0
M  V30 1790 N 155.201 0.870884 1.31352 0
M  V30 1791 C 156.429 0.49677 2.00848 0
M  V30 1792 C 156.844 -0.910998 1.65367 0
M  V30 1793 O 156.201 -1.59696 0.883374 0
M  V30 1794 C 156.252 0.645308 3.55694 0
M  V30 1795 O 155.973 1.99764 3.89905 0
M  V30 1796 C 157.474 0.272326 4.42463 0
M  V30 1797 H 154.694 0.193462 0.642506 0
M  V30 1798 H 157.238 1.1723 1.67563 0
M  V30 1799 H 155.393 0.0173176 3.87396 0
M  V30 1800 H 155.807 2.00607 4.84621 0
M  V30 1801 H 157.281 0.427208 5.50344 0
M  V30 1802 H 157.758 -0.788587 4.32062 0
M  V30 1803 H 158.364 0.876054 4.1618 0
M  V30 1804 N 156.679 -1.44442 0.630414 0
M  V30 1805 C 157.626 -2.30678 -0.0749355 0
M  V30 1806 C 158.596 -1.4344 -0.837502 0
M  V30 1807 O 159.781 -1.72343 -0.818684 0
M  V30 1808 C 156.921 -3.28706 -1.05103 0
M  V30 1809 C 156.034 -4.31046 -0.286954 0
M  V30 1810 C 155.169 -5.16167 -1.2548 0
M  V30 1811 C 154.208 -6.10216 -0.479843 0
M  V30 1812 N 153.345 -6.88039 -1.39811 0
M  V30 1813 H 158.185 -2.90454 0.666386 0
M  V30 1814 H 155.722 -1.43107 0.340404 0
M  V30 1815 H 157.68 -3.84027 -1.63031 0
M  V30 1816 H 156.31 -2.70632 -1.75949 0
M  V30 1817 H 155.362 -3.78203 0.408243 0
M  V30 1818 H 156.674 -4.97794 0.316657 0
M  V30 1819 H 155.828 -5.76002 -1.90544 0
M  V30 1820 H 154.567 -4.49491 -1.89233 0
M  V30 1821 H 153.572 -5.49491 0.184295 0
M  V30 1822 H 154.797 -6.78928 0.152965 0
M  V30 1823 H 152.743 -6.24032 -2.02287 0
M  V30 1824 H 152.66 -7.51223 -0.848508 0
M  V30 1825 H 153.928 -7.52397 -2.03762 0
M  V30 1826 N 158.157 -0.370918 -1.53173 0
M  V30 1827 C 159.087 0.464847 -2.28826 0
M  V30 1828 C 160.068 1.07936 -1.31468 0
M  V30 1829 O 161.253 1.0956 -1.60344 0
M  V30 1830 C 158.383 1.60196 -3.08147 0
M  V30 1831 C 157.337 1.11443 -4.13237 0
M  V30 1832 C 156.663 2.3422 -4.80672 0
M  V30 1833 C 157.963 0.195384 -5.21934 0
M  V30 1834 H 159.657 -0.166329 -2.98938 0
M  V30 1835 H 157.203 -0.0814359 -1.4377 0
M  V30 1836 H 159.156 2.19332 -3.59822 0
M  V30 1837 H 157.88 2.26045 -2.35735 0
M  V30 1838 H 156.539 0.545727 -3.62515 0
M  V30 1839 H 156.187 2.98537 -4.04827 0
M  V30 1840 H 155.887 2.02269 -5.51689 0
M  V30 1841 H 157.411 2.94032 -5.35143 0
M  V30 1842 H 158.825 0.694375 -5.69079 0
M  V30 1843 H 157.222 -0.0335027 -6.00091 0
M  V30 1844 H 158.292 -0.760961 -4.78892 0
M  V30 1845 N 159.635 1.57281 -0.100228 0
M  V30 1846 C 160.86 1.99302 0.573881 0
M  V30 1847 C 161.285 0.979059 1.60611 0
M  V30 1848 O 160.643 -0.0517803 1.81226 0
M  V30 1849 C 160.691 3.40274 1.19358 0
M  V30 1850 O 159.795 3.41676 2.30935 0
M  V30 1851 H 159.136 0.647944 0.145138 0
M  V30 1852 H 161.666 2.03779 -0.183156 0
M  V30 1853 H 161.676 3.78078 1.53365 0
M  V30 1854 H 160.351 4.13594 0.437385 0
M  V30 1855 H 158.928 3.15672 1.98509 0
M  V30 1856 N 161.113 -0.173488 1.56642 0
M  V30 1857 C 162.362 -0.888758 1.81063 0
M  V30 1858 C 162.675 -1.83506 0.67712 0
M  V30 1859 O 163.881 -2.59254 0.806206 0
M  V30 1860 C 162.337 -1.63091 3.20826 0
M  V30 1861 C 161.945 -0.728357 4.4204 0
M  V30 1862 C 163.689 -2.33454 3.54541 0
M  V30 1863 C 161.596 -1.47062 5.72823 0
M  V30 1864 H 160.526 -0.335618 0.675186 0
M  V30 1865 H 163.177 -0.141712 1.82952 0
M  V30 1866 H 161.559 -2.42263 3.13248 0
M  V30 1867 H 162.733 0.0262449 4.60793 0
M  V30 1868 H 161.048 -0.134492 4.16183 0
M  V30 1869 H 163.645 -2.89578 4.49498 0
M  V30 1870 H 163.988 -3.08687 2.79317 0
M  V30 1871 H 164.521 -1.61227 3.63663 0
M  V30 1872 H 161.26 -0.760658 6.51072 0
M  V30 1873 H 160.78 -2.1986 5.58052 0
M  V30 1874 H 162.459 -2.01868 6.14702 0
M  V30 1875 N 162.591 -1.51276 -0.441967 0
M  V30 1876 C 164.002 -1.56244 -1.02199 0
M  V30 1877 C 164.353 -0.383149 -1.92422 0
M  V30 1878 O 163.478 0.500613 -2.1053 0
M  V30 1879 C 164.073 -2.83162 -1.86024 0
M  V30 1880 C 162.632 -2.90716 -2.39084 0
M  V30 1881 C 161.779 -2.50858 -1.18175 0
M  V30 1882 H 164.73 -1.5712 -0.223416 0
M  V30 1883 H 164.751 -2.66663 -2.71425 0
M  V30 1884 H 164.263 -3.68974 -1.20331 0
M  V30 1885 H 162.364 -2.09323 -3.08244 0
M  V30 1886 H 162.477 -3.94266 -2.72198 0
M  V30 1887 H 160.841 -2.03951 -1.52565 0
M  V30 1888 H 161.624 -3.3901 -0.541001 0
M  V30 1889 N 164.069 0.697108 -1.41344 0
M  V30 1890 C 165.297 1.48593 -1.43972 0
M  V30 1891 C 165.712 1.88747 -0.0445612 0
M  V30 1892 O 165.069 1.56682 0.935785 0
M  V30 1893 C 165.12 2.74946 -2.34706 0
M  V30 1894 O 164.841 2.36484 -3.68791 0
M  V30 1895 C 166.342 3.687 -2.46121 0
M  V30 1896 H 163.562 0.457964 -0.490418 0
M  V30 1897 H 166.106 0.858429 -1.8561 0
M  V30 1898 H 164.261 3.33937 -1.9638 0
M  V30 1899 H 164.675 3.17918 -4.17167 0
M  V30 1900 H 166.149 4.54145 -3.13777 0
M  V30 1901 H 166.626 4.13081 -1.49199 0
M  V30 1902 H 167.232 3.15613 -2.85076 0
M  V30 1903 N 165.547 1.27147 0.931209 0
M  V30 1904 C 166.824 1.0401 1.65654 0
M  V30 1905 C 167.204 -0.426297 2.06751 0
M  V30 1906 O 166.552 -1.40879 1.79904 0
M  V30 1907 C 166.762 1.99834 2.86125 0
M  V30 1908 C 168.11 2.29007 3.57549 0
M  V30 1909 O 169.134 1.97779 2.96246 0
M  V30 1910 O 167.993 2.82222 4.67989 0
M  V30 1911 H 165.087 0.396239 0.725895 0
M  V30 1912 H 167.633 1.38397 0.982056 0
M  V30 1913 H 166.405 2.98744 2.52721 0
M  V30 1914 H 166.028 1.65987 3.61295 0
M  V30 1915 N 167.025 -1.13721 1.09112 0
M  V30 1916 C 168.25 -1.89314 0.847053 0
M  V30 1917 C 168.675 -1.78416 -0.595774 0
M  V30 1918 O 168.033 -1.12942 -1.41823 0
M  V30 1919 C 168.081 -3.3701 1.28284 0
M  V30 1920 O 167.185 -4.10054 0.439267 0
M  V30 1921 H 166.526 -0.588745 0.307044 0
M  V30 1922 H 169.056 -1.43902 1.45442 0
M  V30 1923 H 169.066 -3.87834 1.26683 0
M  V30 1924 H 167.741 -3.4426 2.33363 0
M  V30 1925 H 166.318 -3.69266 0.519312 0
M  V30 1926 N 168.503 -0.877838 -1.30888 0
M  V30 1927 C 169.752 -0.488793 -1.95688 0
M  V30 1928 C 170.065 0.965485 -1.70111 0
M  V30 1929 O 171.271 1.46104 -2.28836 0
M  V30 1930 C 169.727 -0.823201 -3.50359 0
M  V30 1931 C 169.335 -2.29477 -3.84765 0
M  V30 1932 C 171.079 -0.503009 -4.21509 0
M  V30 1933 C 168.986 -2.57118 -5.32583 0
M  V30 1934 H 167.916 -0.179062 -0.732429 0
M  V30 1935 H 170.567 -1.07183 -1.48943 0
M  V30 1936 H 168.949 -0.169331 -3.95638 0
M  V30 1937 H 170.123 -2.99236 -3.5042 0
M  V30 1938 H 168.438 -2.58178 -3.267 0
M  V30 1939 H 171.035 -0.68665 -5.30273 0
M  V30 1940 H 171.378 0.557109 -4.12555 0
M  V30 1941 H 171.911 -1.11376 -3.8189 0
M  V30 1942 H 168.65 -3.61843 -5.4658 0
M  V30 1943 H 168.17 -1.91961 -5.68253 0
M  V30 1944 H 169.849 -2.42251 -5.99936 0
M  V30 1945 N 169.982 1.44106 -0.638065 0
M  V30 1946 C 171.228 2.02815 -0.15409 0
M  V30 1947 C 171.583 1.49342 1.21304 0
M  V30 1948 O 170.876 0.670699 1.79478 0
M  V30 1949 C 171.07 3.5729 -0.0887327 0
M  V30 1950 C 170.899 4.2575 -1.44799 0
M  V30 1951 C 169.669 4.62443 -2.03653 0
M  V30 1952 C 171.867 4.55746 -2.38327 0
M  V30 1953 N 169.849 5.15903 -3.32741 0
M  V30 1954 C 171.22 5.10364 -3.52036 0
M  V30 1955 C 173.275 4.37703 -2.3732 0
M  V30 1956 C 171.978 5.48837 -4.64941 0
M  V30 1957 C 174.004 4.77229 -3.49294 0
M  V30 1958 C 173.366 5.31966 -4.61726 0
M  V30 1959 H 169.465 0.775519 -0.100466 0
M  V30 1960 H 172.049 1.755 -0.843071 0
M  V30 1961 H 170.22 3.84201 0.569548 0
M  V30 1962 H 171.952 4.02671 0.404711 0
M  V30 1963 H 168.707 4.46987 -1.56523 0
M  V30 1964 H 169.131 5.47102 -3.98758 0
M  V30 1965 H 173.773 3.94671 -1.51641 0
M  V30 1966 H 171.491 5.9082 -5.51323 0
M  V30 1967 H 175.077 4.64976 -3.49698 0
M  V30 1968 H 173.957 5.61986 -5.46939 0
M  V30 1969 N 171.46 0.379036 1.52974 0
M  V30 1970 C 172.706 -0.206727 2.01744 0
M  V30 1971 C 173.039 -1.47314 1.26539 0
M  V30 1972 O 172.314 -1.91084 0.362903 0
M  V30 1973 C 172.597 -0.485066 3.56818 0
M  V30 1974 C 172.45 0.795919 4.42702 0
M  V30 1975 C 173.769 -1.28003 4.21074 0
M  V30 1976 H 170.888 -0.0736607 0.73331 0
M  V30 1977 H 173.53 0.506581 1.83122 0
M  V30 1978 H 171.68 -1.09272 3.72816 0
M  V30 1979 H 173.352 1.43307 4.38476 0
M  V30 1980 H 171.595 1.41344 4.10127 0
M  V30 1981 H 172.266 0.555947 5.49193 0
M  V30 1982 H 174.742 -0.765867 4.08991 0
M  V30 1983 H 173.618 -1.44352 5.29579 0
M  V30 1984 H 173.879 -2.29236 3.78026 0
M  V30 1985 N 172.938 -1.57226 0.108567 0
M  V30 1986 C 174.349 -1.8195 -0.418464 0
M  V30 1987 C 174.7 -1.02508 -1.67292 0
M  V30 1988 O 173.825 -0.258496 -2.14851 0
M  V30 1989 C 174.42 -3.30028 -0.765979 0
M  V30 1990 C 172.979 -3.55469 -1.23769 0
M  V30 1991 C 172.126 -2.7625 -0.241106 0
M  V30 1992 H 175.077 -1.55149 0.33384 0
M  V30 1993 H 175.098 -3.44086 -1.62434 0
M  V30 1994 H 174.61 -3.87821 0.147219 0
M  V30 1995 H 172.711 -3.03022 -2.16814 0
M  V30 1996 H 172.824 -4.6408 -1.19022 0
M  V30 1997 H 171.188 -2.44133 -0.72602 0
M  V30 1998 H 171.971 -3.36797 0.665007 0
M  V30 1999 N 174.416 0.165178 -1.56732 0
M  V30 2000 C 175.693 0.908443 -1.73224 0
M  V30 2001 C 176.073 2.0013 -0.67165 0
M  V30 2002 O 175.421 2.26353 0.31253 0
M  V30 2003 C 175.631 1.46756 -3.16644 0
M  V30 2004 C 176.979 1.93809 -3.77787 0
M  V30 2005 O 178.003 1.56537 -3.1996 0
M  V30 2006 O 176.862 2.62486 -4.79336 0
M  V30 2007 H 173.956 0.428025 -0.707618 0
M  V30 2008 H 176.502 0.152526 -1.69013 0
M  V30 2009 H 175.274 0.68129 -3.85323 0
M  V30 2010 H 174.897 2.28749 -3.25207 0
M  V30 2011 N 175.894 1.51508 0.433938 0
M  V30 2012 C 177.143 1.63578 1.18005 0
M  V30 2013 C 177.456 0.359514 1.92268 0
M  V30 2014 O 178.662 0.359632 2.69108 0
M  V30 2015 C 177.118 2.88901 2.14626 0
M  V30 2016 C 176.726 4.23544 1.45995 0
M  V30 2017 C 178.47 3.10328 2.89649 0
M  V30 2018 C 176.377 5.40014 2.4112 0
M  V30 2019 H 175.307 0.609277 0.444182 0
M  V30 2020 H 177.958 1.77978 0.446773 0
M  V30 2021 H 176.34 2.68142 2.91403 0
M  V30 2022 H 177.514 4.54696 0.747532 0
M  V30 2023 H 175.829 4.08021 0.831115 0
M  V30 2024 H 178.426 3.94518 3.60915 0
M  V30 2025 H 178.769 2.23544 3.51189 0
M  V30 2026 H 179.302 3.31443 2.19978 0
M  V30 2027 H 176.041 6.29068 1.84264 0
M  V30 2028 H 175.561 5.13233 3.10406 0
M  V30 2029 H 177.24 5.72099 3.02177 0
M  V30 2030 N 177.372 -0.689602 1.41712 0
M  V30 2031 C 178.302 -1.81577 1.46806 0
M  V30 2032 C 179.283 -1.66945 0.326105 0
M  V30 2033 O 180.468 -1.86588 0.538377 0
M  V30 2034 C 177.598 -3.19762 1.35535 0
M  V30 2035 C 176.552 -3.49107 2.47605 0
M  V30 2036 C 175.878 -4.86711 2.21397 0
M  V30 2037 C 177.178 -3.47483 3.89939 0
M  V30 2038 H 178.872 -1.7757 2.41058 0
M  V30 2039 H 176.418 -0.852887 1.16025 0
M  V30 2040 H 178.371 -3.98263 1.3771 0
M  V30 2041 H 177.095 -3.24409 0.377708 0
M  V30 2042 H 175.754 -2.72959 2.44722 0
M  V30 2043 H 175.402 -4.8799 1.21961 0
M  V30 2044 H 175.102 -5.0731 2.96497 0
M  V30 2045 H 176.626 -5.67515 2.25297 0
M  V30 2046 H 178.04 -4.1598 3.94505 0
M  V30 2047 H 176.437 -3.79615 4.64771 0
M  V30 2048 H 177.507 -2.46341 4.17665 0
M  V30 2049 N 178.85 -1.27639 -0.924453 0
M  V30 2050 C 180.099 -1.13549 -1.66702 0
M  V30 2051 C 180.412 0.317487 -1.93006 0
M  V30 2052 O 181.618 0.579333 -2.65247 0
M  V30 2053 C 180.074 -1.98426 -3.00259 0
M  V30 2054 C 179.682 -3.484 -2.81641 0
M  V30 2055 C 181.426 -1.92993 -3.78092 0
M  V30 2056 C 179.333 -4.25464 -4.10773 0
M  V30 2057 H 178.263 -0.421351 -0.625283 0
M  V30 2058 H 180.914 -1.52085 -1.02676 0
M  V30 2059 H 179.296 -1.52736 -3.6536 0
M  V30 2060 H 180.47 -4.01973 -2.25287 0
M  V30 2061 H 178.785 -3.55245 -2.17232 0
M  V30 2062 H 181.382 -2.47844 -4.7379 0
M  V30 2063 H 181.725 -0.904281 -4.0636 0
M  V30 2064 H 182.258 -2.36595 -3.19793 0
M  V30 2065 H 178.997 -5.28566 -3.87683 0
M  V30 2066 H 178.517 -3.76667 -4.66779 0
M  V30 2067 H 180.196 -4.34812 -4.79111 0
M  V30 2068 N 180.328 1.1314 -1.09713 0
M  V30 2069 C 181.276 2.20717 -0.733934 0
M  V30 2070 C 182.27 1.6729 0.266506 0
M  V30 2071 O 183.476 1.79547 0.127656 0
M  V30 2072 H 179.851 0.719292 -0.21937 0
M  V30 2073 H 181.822 2.48611 -1.6503 0
M  V30 2074 C 180.571 3.47265 -0.173849 0
M  V30 2075 H 179.894 3.88716 -0.934873 0
M  V30 2076 H 181.334 4.23979 0.0423126 0
M  V30 2077 C 179.793 3.18724 1.09164 0
M  V30 2078 O 180.323 3.37762 2.17439 0
M  V30 2079 N 178.529 2.72583 1.00732 0
M  V30 2080 H 178.076 2.57291 0.126121 0
M  V30 2081 H 178.034 2.53862 1.85476 0
M  V30 2082 N 181.806 0.884767 1.30421 0
M  V30 2083 C 182.716 0.355398 2.31892 0
M  V30 2084 C 183.732 -0.542261 1.65335 0
M  V30 2085 O 184.908 -0.435432 1.96637 0
M  V30 2086 C 181.973 -0.421661 3.44126 0
M  V30 2087 C 181.034 0.505727 4.26311 0
M  V30 2088 C 180.267 -0.234343 5.33185 0
M  V30 2089 O 180.49 -1.46045 5.51386 0
M  V30 2090 O 179.424 0.415443 6.00465 0
M  V30 2091 H 183.25 1.19685 2.79122 0
M  V30 2092 H 180.835 0.648596 1.34587 0
M  V30 2093 H 182.717 -0.861641 4.12497 0
M  V30 2094 H 181.392 -1.23942 2.99032 0
M  V30 2095 H 180.299 0.994513 3.60639 0
M  V30 2096 H 181.632 1.28948 4.75009 0
M  V30 2097 N 183.284 -1.43765 0.645699 0
M  V30 2098 C 184.531 -2.01898 0.15604 0
M  V30 2099 C 184.859 -1.50887 -1.22733 0
M  V30 2100 O 184.114 -0.689271 -1.8316 0
M  V30 2101 C 184.413 -3.57238 0.107679 0
M  V30 2102 C 184.079 -4.27564 1.43178 0
M  V30 2103 C 182.741 -4.46492 1.7944 0
M  V30 2104 C 185.093 -4.67454 2.30513 0
M  V30 2105 C 182.421 -5.02573 3.02716 0
M  V30 2106 C 184.773 -5.24901 3.53074 0
M  V30 2107 C 183.437 -5.42046 3.89541 0
M  V30 2108 H 182.707 -0.738797 0.057099 0
M  V30 2109 H 185.354 -1.72341 0.834912 0
M  V30 2110 H 183.659 -3.86293 -0.654618 0
M  V30 2111 H 185.356 -3.99965 -0.287938 0
M  V30 2112 H 181.946 -4.13171 1.13963 0
M  V30 2113 H 186.13 -4.5253 2.0379 0
M  V30 2114 H 181.386 -5.14033 3.31028 0
M  V30 2115 H 185.56 -5.54758 4.20971 0
M  V30 2116 H 183.187 -5.85268 4.85145 0
M  V30 2117 N 184.763 -0.387143 -1.52771 0
M  V30 2118 C 186.009 0.196025 -2.0185 0
M  V30 2119 C 186.342 1.46641 -1.27319 0
M  V30 2120 O 185.617 1.90889 -0.373032 0
M  V30 2121 C 185.9 0.466136 -3.5707 0
M  V30 2122 C 185.753 -0.819385 -4.42274 0
M  V30 2123 C 187.072 1.25768 -4.21747 0
M  V30 2124 H 184.191 0.0697708 -0.73369 0
M  V30 2125 H 186.833 -0.516286 -1.82851 0
M  V30 2126 H 184.983 1.07293 -3.7339 0
M  V30 2127 H 186.655 -1.4563 -4.37709 0
M  V30 2128 H 184.898 -1.43517 -4.09372 0
M  V30 2129 H 185.569 -0.585065 -5.48891 0
M  V30 2130 H 188.045 0.744167 -4.09391 0
M  V30 2131 H 186.921 1.41541 -5.30337 0
M  V30 2132 H 187.182 2.27228 -3.79236 0
M  V30 2133 N 186.241 1.57166 -0.116904 0
M  V30 2134 C 187.518 1.86645 0.585049 0
M  V30 2135 C 187.898 1.0177 1.84949 0
M  V30 2136 O 187.246 0.0960379 2.28298 0
M  V30 2137 C 187.456 3.37736 0.879507 0
M  V30 2138 C 188.804 4.06289 1.23348 0
M  V30 2139 O 189.828 3.42743 0.969836 0
M  V30 2140 O 188.687 5.18455 1.7282 0
M  V30 2141 H 185.781 0.772593 0.295007 0
M  V30 2142 H 188.327 1.69025 -0.151249 0
M  V30 2143 H 187.099 3.91296 -0.0166136 0
M  V30 2144 H 186.722 3.6078 1.67103 0
M  V30 2145 N 187.719 -0.156864 1.56817 0
M  V30 2146 C 188.965 -0.872416 1.83076 0
M  V30 2147 C 189.298 -1.81261 0.697001 0
M  V30 2148 O 188.573 -1.92171 -0.30008 0
M  V30 2149 C 188.856 -1.65551 3.19789 0
M  V30 2150 C 188.709 -0.737467 4.43713 0
M  V30 2151 C 190.028 -2.62012 3.53606 0
M  V30 2152 H 187.147 -0.315715 0.665953 0
M  V30 2153 H 189.789 -0.138004 1.89498 0
M  V30 2154 H 187.939 -2.28159 3.14445 0
M  V30 2155 H 189.611 -0.123143 4.61136 0
M  V30 2156 H 187.854 -0.0464067 4.33775 0
M  V30 2157 H 188.525 -1.32122 5.35955 0
M  V30 2158 H 191.001 -2.09525 3.59497 0
M  V30 2159 H 189.877 -3.13861 4.50314 0
M  V30 2160 H 190.138 -3.42902 2.79053 0
M  V30 2161 N 189.197 -1.51736 -0.425897 0
M  V30 2162 C 190.445 -1.64644 -1.17204 0
M  V30 2163 C 190.766 -0.370486 -1.91448 0
M  V30 2164 O 190.036 0.614088 -1.86026 0
M  V30 2165 H 188.616 -0.606819 -0.435638 0
M  V30 2166 H 191.278 -1.88713 -0.487177 0
M  V30 2167 H 190.374 -2.47958 -1.89534 0
M  V30 2168 N 190.675 0.682077 -1.42076 0
M  V30 2169 C 191.622 1.79578 -1.44984 0
M  V30 2170 C 192.592 1.6332 -0.302614 0
M  V30 2171 O 193.777 1.83978 -0.505633 0
M  V30 2172 C 190.917 3.1756 -1.35091 0
M  V30 2173 C 190.03 3.45156 -2.59791 0
M  V30 2174 C 189.165 4.72826 -2.42093 0
M  V30 2175 C 188.204 4.93433 -3.62202 0
M  V30 2176 N 187.341 6.12338 -3.43491 0
M  V30 2177 H 192.181 1.76427 -2.40161 0
M  V30 2178 H 189.718 0.861376 -1.19242 0
M  V30 2179 H 191.676 3.97287 -1.27354 0
M  V30 2180 H 190.306 3.19854 -0.435133 0
M  V30 2181 H 189.358 2.59736 -2.77923 0
M  V30 2182 H 190.67 3.5628 -3.49094 0
M  V30 2183 H 189.824 5.60631 -2.319 0
M  V30 2184 H 188.563 4.63973 -1.50268 0
M  V30 2185 H 187.568 4.04073 -3.72834 0
M  V30 2186 H 188.793 5.04136 -4.54998 0
M  V30 2187 H 186.739 6.04672 -2.54377 0
M  V30 2188 H 186.656 6.2429 -4.26377 0
M  V30 2189 H 187.924 7.02841 -3.37097 0
M  V30 2190 N 192.153 1.28127 0.917671 0
M  V30 2191 C 193.378 1.18007 1.70555 0
M  V30 2192 C 193.803 -0.258257 1.86319 0
M  V30 2193 O 193.161 -1.1869 1.37049 0
M  V30 2194 C 193.209 1.87948 3.07746 0
M  V30 2195 O 192.313 1.18427 3.9503 0
M  V30 2196 H 191.654 0.409867 0.522403 0
M  V30 2197 H 194.184 1.69379 1.1477 0
M  V30 2198 H 194.194 1.95701 3.58001 0
M  V30 2199 H 192.869 2.92573 2.95591 0
M  V30 2200 H 191.446 1.18811 3.53466 0
M  V30 2201 N 193.631 -1.12557 1.10312 0
M  V30 2202 C 195.042 -1.65574 0.862678 0
M  V30 2203 C 195.393 -1.86566 -0.607256 0
M  V30 2204 O 194.518 -1.59121 -1.46662 0
M  V30 2205 C 195.113 -3.00776 1.55947 0
M  V30 2206 C 193.672 -3.50748 1.36576 0
M  V30 2207 C 192.819 -2.25797 1.60968 0
M  V30 2208 H 195.77 -0.963552 1.26101 0
M  V30 2209 H 195.791 -3.67185 0.997753 0
M  V30 2210 H 195.303 -2.85465 2.62928 0
M  V30 2211 H 193.404 -3.71245 0.317531 0
M  V30 2212 H 193.517 -4.30289 2.10686 0
M  V30 2213 H 191.881 -2.32841 1.03234 0
M  V30 2214 H 192.664 -2.13043 2.69198 0
M  V30 2215 N 195.109 -0.891671 -1.2995 0
M  V30 2216 C 196.057 -0.353066 -2.29905 0
M  V30 2217 C 197.051 0.543509 -1.60444 0
M  V30 2218 O 198.257 0.4272 -1.74857 0
M  V30 2219 H 194.632 -0.095531 -0.745907 0
M  V30 2220 H 196.603 -1.20961 -2.72784 0
M  V30 2221 C 195.352 0.411475 -3.45257 0
M  V30 2222 H 194.675 -0.269182 -3.98893 0
M  V30 2223 H 196.115 0.753328 -4.17254 0
M  V30 2224 C 194.574 1.6111 -2.9588 0
M  V30 2225 O 195.104 2.71045 -2.96475 0
M  V30 2226 N 193.31 1.45054 -2.51809 0
M  V30 2227 H 192.857 0.556175 -2.51524 0
M  V30 2228 H 192.815 2.25453 -2.1913 0
M  V30 2229 N 196.587 1.43421 -0.653314 0
M  V30 2230 C 197.836 2.01032 -0.164076 0
M  V30 2231 C 198.149 1.52147 1.22926 0
M  V30 2232 O 199.355 2.02031 1.81371 0
M  V30 2233 C 197.811 3.59082 -0.24252 0
M  V30 2234 C 197.419 4.1696 -1.63855 0
M  V30 2235 C 199.163 4.24079 0.18911 0
M  V30 2236 C 197.07 5.67304 -1.67092 0
M  V30 2237 H 196 0.751798 -0.0575769 0
M  V30 2238 H 198.651 1.6439 -0.815362 0
M  V30 2239 H 197.033 3.93125 0.476276 0
M  V30 2240 H 198.207 3.94416 -2.38271 0
M  V30 2241 H 196.522 3.64335 -2.01616 0
M  V30 2242 H 199.119 5.34381 0.184775 0
M  V30 2243 H 199.462 3.98005 1.22056 0
M  V30 2244 H 199.995 3.94918 -0.477938 0
M  V30 2245 H 196.734 5.98145 -2.68146 0
M  V30 2246 H 196.254 5.91904 -0.970014 0
M  V30 2247 H 197.933 6.31344 -1.4147 0
M  V30 2248 N 198.065 0.39524 1.52563 0
M  V30 2249 C 199.476 -0.0774719 1.86539 0
M  V30 2250 C 199.827 -1.45641 1.31466 0
M  V30 2251 O 198.952 -2.06459 0.648367 0
M  V30 2252 C 199.547 -0.147356 3.38479 0
M  V30 2253 C 198.106 -0.564373 3.72145 0
M  V30 2254 C 197.253 0.269919 2.75983 0
M  V30 2255 H 200.204 0.612876 1.46388 0
M  V30 2256 H 200.225 -0.965343 3.68051 0
M  V30 2257 H 199.737 0.856387 3.78534 0
M  V30 2258 H 197.838 -1.57527 3.37663 0
M  V30 2259 H 197.951 -0.318402 4.78041 0
M  V30 2260 H 196.315 -0.265696 2.5331 0
M  V30 2261 H 197.098 1.27175 3.18875 0
M  V30 2262 N 199.544 -1.57102 0.125237 0
M  V30 2263 C 200.774 -1.99472 -0.538015 0
M  V30 2264 C 201.182 -1.00395 -1.60366 0
M  V30 2265 O 200.525 0.0103875 -1.83697 0
M  V30 2266 C 200.587 -3.38262 -1.21734 0
M  V30 2267 C 200.251 -4.56021 -0.298897 0
M  V30 2268 C 201.248 -5.17817 0.464943 0
M  V30 2269 C 198.933 -5.01869 -0.208149 0
M  V30 2270 C 200.927 -6.23852 1.3072 0
M  V30 2271 C 198.614 -6.07763 0.637736 0
M  V30 2272 C 199.612 -6.68622 1.39403 0
M  V30 2273 O 199.3 -7.7247 2.22586 0
M  V30 2274 H 199.032 -0.659934 -0.146501 0
M  V30 2275 H 201.586 -2.04321 0.210267 0
M  V30 2276 H 199.816 -3.30185 -2.01282 0
M  V30 2277 H 201.505 -3.6488 -1.77813 0
M  V30 2278 H 202.271 -4.83308 0.404741 0
M  V30 2279 H 198.15 -4.54241 -0.786522 0
M  V30 2280 H 201.694 -6.71284 1.898 0
M  V30 2281 H 197.591 -6.41701 0.699309 0
M  V30 2282 H 198.359 -7.89595 2.15596 0
M  V30 2283 N 201.022 0.148545 -1.56898 0
M  V30 2284 C 202.268 0.862694 -1.83536 0
M  V30 2285 C 202.601 1.80889 -0.706604 0
M  V30 2286 O 201.876 1.92328 0.289885 0
M  V30 2287 C 202.159 1.63853 -3.20662 0
M  V30 2288 C 202.012 0.713925 -4.44098 0
M  V30 2289 C 203.331 2.60133 -3.54991 0
M  V30 2290 H 200.45 0.312179 -0.667618 0
M  V30 2291 H 203.092 0.127953 -1.89569 0
M  V30 2292 H 201.242 2.26489 -3.1565 0
M  V30 2293 H 202.914 0.098686 -4.61194 0
M  V30 2294 H 201.157 0.0234019 -4.33794 0
M  V30 2295 H 201.828 1.29278 -5.36648 0
M  V30 2296 H 204.304 2.07616 -3.60603 0
M  V30 2297 H 203.18 3.11468 -4.51972 0
M  V30 2298 H 203.441 3.41417 -2.80868 0
M  V30 2299 N 202.5 1.5196 0.417844 0
M  V30 2300 C 203.73 1.69181 1.18581 0
M  V30 2301 C 204.138 0.397104 1.84986 0
M  V30 2302 O 203.481 -0.636011 1.72339 0
M  V30 2303 C 203.543 2.76497 2.29759 0
M  V30 2304 C 203.207 4.18514 1.83563 0
M  V30 2305 C 204.204 5.02648 1.32821 0
M  V30 2306 C 201.889 4.64708 1.90661 0
M  V30 2307 C 203.883 6.31044 0.897894 0
M  V30 2308 C 201.57 5.93096 1.47241 0
M  V30 2309 C 202.568 6.76093 0.968891 0
M  V30 2310 O 202.256 8.02078 0.540924 0
M  V30 2311 H 201.988 0.570457 0.362705 0
M  V30 2312 H 204.542 1.99249 0.498885 0
M  V30 2313 H 202.772 2.41786 3.01789 0
M  V30 2314 H 204.461 2.82403 2.91553 0
M  V30 2315 H 205.227 4.68154 1.26716 0
M  V30 2316 H 201.106 4.00216 2.28797 0
M  V30 2317 H 204.65 6.95776 0.504192 0
M  V30 2318 H 200.547 6.271 1.53022 0
M  V30 2319 H 201.315 8.15794 0.66502 0
M  V30 2320 N 203.978 -0.674533 1.42435 0
M  V30 2321 C 205.227 -1.43034 1.42212 0
M  V30 2322 C 205.54 -1.95555 0.0420788 0
M  V30 2323 O 206.746 -2.71374 -0.0827558 0
M  V30 2324 C 205.202 -2.58748 2.50155 0
M  V30 2325 C 204.81 -2.12925 3.94166 0
M  V30 2326 C 206.554 -3.36257 2.59098 0
M  V30 2327 C 204.461 -3.25723 4.93618 0
M  V30 2328 H 203.391 -0.537345 0.528939 0
M  V30 2329 H 206.042 -0.73024 1.68344 0
M  V30 2330 H 204.424 -3.31128 2.17188 0
M  V30 2331 H 205.598 -1.47697 4.36488 0
M  V30 2332 H 203.913 -1.48354 3.89076 0
M  V30 2333 H 206.51 -4.20264 3.30578 0
M  V30 2334 H 206.853 -3.82866 1.63461 0
M  V30 2335 H 207.386 -2.70947 2.9126 0
M  V30 2336 H 204.125 -2.84105 5.90732 0
M  V30 2337 H 203.645 -3.89732 4.55926 0
M  V30 2338 H 205.324 -3.91186 5.15347 0
M  V30 2339 N 205.456 -1.28612 -0.910864 0
M  V30 2340 C 206.872 -1.06381 -1.18976 0
M  V30 2341 C 207.072 0.191998 -2.00583 0
M  V30 2342 O 206.128 0.892869 -2.36187 0
M  V30 2343 C 207.441 -2.31295 -1.92154 0
M  V30 2344 C 208.989 -2.36503 -2.05025 0
M  V30 2345 C 209.464 -3.61191 -2.81612 0
M  V30 2346 N 210.955 -3.61847 -2.89172 0
M  V30 2347 C 211.69 -4.55004 -3.4894 0
M  V30 2348 N 211.186 -5.58482 -4.09963 0
M  V30 2349 N 212.979 -4.42594 -3.46506 0
M  V30 2350 H 205.13 -2.09221 -0.366094 0
M  V30 2351 H 207.393 -0.921003 -0.224629 0
M  V30 2352 H 207.099 -3.228 -1.39618 0
M  V30 2353 H 206.973 -2.37934 -2.9269 0
M  V30 2354 H 209.36 -1.45494 -2.5674 0
M  V30 2355 H 209.441 -2.33857 -1.03657 0
M  V30 2356 H 209.085 -4.52545 -2.30576 0
M  V30 2357 H 209.015 -3.61092 -3.83302 0
M  V30 2358 H 211.506 -2.87022 -2.45819 0
M  V30 2359 H 211.819 -6.25704 -4.53557 0
M  V30 2360 H 210.164 -5.62305 -4.08459 0
M  V30 2361 H 213.355 -3.60953 -2.98045 0
M  V30 2362 H 213.528 -5.15381 -3.92793 0
M  V30 2363 N 206.934 1.1197 -1.10907 0
M  V30 2364 C 207.884 2.15946 -0.731538 0
M  V30 2365 C 208.868 1.58758 0.261699 0
M  V30 2366 O 210.06 1.76863 0.0696722 0
M  V30 2367 C 207.189 3.42877 -0.170299 0
M  V30 2368 C 206.275 4.07037 -1.19087 0
M  V30 2369 N 206.666 4.46135 -2.38322 0
M  V30 2370 C 204.964 4.33884 -1.03252 0
M  V30 2371 C 205.665 4.96331 -3.03366 0
M  V30 2372 N 204.641 4.9214 -2.30865 0
M  V30 2373 H 208.443 2.43947 -1.63912 0
M  V30 2374 H 205.957 1.28927 -0.987505 0
M  V30 2375 H 207.954 4.16732 0.118271 0
M  V30 2376 H 206.614 3.16343 0.731935 0
M  V30 2377 H 207.625 4.38345 -2.75815 0
M  V30 2378 H 204.302 4.17084 -0.186256 0
M  V30 2379 H 205.692 5.36257 -4.04818 0
M  V30 2380 N 208.412 0.89855 1.29475 0
M  V30 2381 C 209.344 0.332726 2.26772 0
M  V30 2382 C 210.357 -0.520323 1.54261 0
M  V30 2383 O 211.546 -0.337668 1.75277 0
M  V30 2384 C 208.646 -0.544334 3.345 0
M  V30 2385 C 207.819 0.282728 4.36485 0
M  V30 2386 C 206.878 -0.526982 5.23555 0
M  V30 2387 O 205.904 0.0551165 5.69173 0
M  V30 2388 N 207.106 -1.83331 5.5079 0
M  V30 2389 H 209.871 1.16897 2.75962 0
M  V30 2390 H 207.432 0.762919 1.42798 0
M  V30 2391 H 209.424 -1.09239 3.89678 0
M  V30 2392 H 207.994 -1.28127 2.85136 0
M  V30 2393 H 207.214 1.01221 3.80983 0
M  V30 2394 H 208.502 0.84918 5.01664 0
M  V30 2395 H 207.9 -2.32898 5.15534 0
M  V30 2396 H 206.457 -2.32852 6.08788 0
M  V30 2397 N 209.89 -1.43072 0.660911 0
M  V30 2398 C 211.138 -2.01323 0.177094 0
M  V30 2399 C 211.459 -1.5245 -1.2159 0
M  V30 2400 O 210.729 -0.740322 -1.81373 0
M  V30 2401 H 209.309 -0.744382 0.0624804 0
M  V30 2402 H 211.971 -1.75179 0.854305 0
M  V30 2403 H 211.067 -3.11649 0.167641 0
M  V30 2404 N 211.368 -0.403325 -1.52352 0
M  V30 2405 C 212.278 0.432009 -2.30588 0
M  V30 2406 C 213.294 1.05884 -1.38075 0
M  V30 2407 O 214.47 1.06161 -1.71148 0
M  V30 2408 C 211.535 1.53669 -3.10784 0
M  V30 2409 C 210.596 0.933525 -4.19027 0
M  V30 2410 C 209.829 1.98557 -4.9539 0
M  V30 2411 O 210.052 3.20283 -4.71991 0
M  V30 2412 O 208.986 1.59504 -5.80381 0
M  V30 2413 H 212.812 -0.205739 -3.03002 0
M  V30 2414 H 210.397 -0.166675 -1.48467 0
M  V30 2415 H 212.279 2.17814 -3.60742 0
M  V30 2416 H 210.954 2.15915 -2.41169 0
M  V30 2417 H 209.861 0.254954 -3.7323 0
M  V30 2418 H 211.194 0.35508 -4.90918 0
M  V30 2419 N 212.846 1.57033 -0.133567 0
M  V30 2420 C 214.092 1.95976 0.521649 0
M  V30 2421 C 214.425 1.01779 1.65393 0
M  V30 2422 O 213.7 0.0576581 1.94415 0
M  V30 2423 C 213.983 3.44738 1.04057 0
M  V30 2424 C 213.836 4.49711 -0.0892897 0
M  V30 2425 C 215.155 3.95682 1.92675 0
M  V30 2426 H 212.274 0.712579 0.188149 0
M  V30 2427 H 214.916 1.88813 -0.212076 0
M  V30 2428 H 213.066 3.50973 1.66583 0
M  V30 2429 H 214.738 4.55565 -0.725152 0
M  V30 2430 H 212.981 4.27261 -0.750378 0
M  V30 2431 H 213.652 5.51099 0.315284 0
M  V30 2432 H 216.128 3.91841 1.39998 0
M  V30 2433 H 215.004 5.00262 2.25897 0
M  V30 2434 H 215.265 3.37239 2.85872 0
M  V30 2435 N 214.325 -0.140222 1.56975 0
M  V30 2436 C 215.257 -1.19818 1.95388 0
M  V30 2437 C 216.27 -1.38816 0.850525 0
M  V30 2438 O 217.459 -1.38267 1.12891 0
M  V30 2439 C 214.559 -2.56189 2.21857 0
M  V30 2440 C 213.732 -2.58077 3.5315 0
M  V30 2441 C 212.791 -3.76037 3.6808 0
M  V30 2442 O 211.817 -3.60598 4.40406 0
M  V30 2443 N 213.019 -4.93763 3.05251 0
M  V30 2444 H 215.784 -0.871609 2.86746 0
M  V30 2445 H 213.345 -0.32972 1.58507 0
M  V30 2446 H 215.337 -3.33623 2.2908 0
M  V30 2447 H 213.907 -2.81111 1.36731 0
M  V30 2448 H 213.127 -1.6651 3.57307 0
M  V30 2449 H 214.415 -2.56377 4.39486 0
M  V30 2450 H 213.813 -5.09209 2.46419 0
M  V30 2451 H 212.37 -5.68949 3.18026 0
M  V30 2452 N 215.803 -1.52179 -0.40978 0
M  V30 2453 C 216.751 -1.76086 -1.51975 0
M  V30 2454 C 217.745 -0.627964 -1.57331 0
M  V30 2455 O 218.951 -0.809993 -1.60745 0
M  V30 2456 H 215.326 -0.556829 -0.505416 0
M  V30 2457 H 217.297 -2.69077 -1.28996 0
M  V30 2458 C 216.046 -1.92799 -2.8935 0
M  V30 2459 H 215.369 -2.79392 -2.85972 0
M  V30 2460 H 216.809 -2.13527 -3.66309 0
M  V30 2461 C 215.268 -0.694923 -3.29655 0
M  V30 2462 O 215.798 0.13751 -4.01465 0
M  V30 2463 N 214.004 -0.53101 -2.85707 0
M  V30 2464 H 213.551 -1.20952 -2.27439 0
M  V30 2465 H 213.509 0.292718 -3.13034 0
M  V30 2466 N 217.281 0.66697 -1.42791 0
M  V30 2467 C 218.511 1.45294 -1.46878 0
M  V30 2468 C 218.919 1.89027 -0.0809861 0
M  V30 2469 O 218.262 1.59219 0.916246 0
M  V30 2470 C 218.324 2.72908 -2.34012 0
M  V30 2471 C 217.988 2.51203 -3.81767 0
M  V30 2472 C 218.985 2.15302 -4.73224 0
M  V30 2473 C 216.67 2.65954 -4.26115 0
M  V30 2474 C 218.664 1.94431 -6.07022 0
M  V30 2475 C 216.351 2.44699 -5.59969 0
M  V30 2476 C 217.349 2.08992 -6.5024 0
M  V30 2477 O 217.037 1.87948 -7.81621 0
M  V30 2478 H 216.769 0.453306 -0.501487 0
M  V30 2479 H 219.323 0.826232 -1.88049 0
M  V30 2480 H 217.553 3.38089 -1.87703 0
M  V30 2481 H 219.242 3.34816 -2.29462 0
M  V30 2482 H 220.008 2.03495 -4.40244 0
M  V30 2483 H 215.887 2.92724 -3.56137 0
M  V30 2484 H 219.431 1.66484 -6.77443 0
M  V30 2485 H 215.328 2.56105 -5.9252 0
M  V30 2486 H 216.096 2.02483 -7.93059 0
M  V30 2487 N 218.759 1.29093 0.90403 0
M  V30 2488 C 219.706 1.13853 2.00764 0
M  V30 2489 C 220.676 0.0330084 1.66067 0
M  V30 2490 O 221.861 0.199733 1.89752 0
M  V30 2491 C 219.001 0.816537 3.35301 0
M  V30 2492 C 218.114 2.00206 3.82807 0
M  V30 2493 C 217.249 1.61983 5.059 0
M  V30 2494 C 216.288 2.77143 5.45764 0
M  V30 2495 N 215.425 2.39346 6.60044 0
M  V30 2496 H 220.265 2.08276 2.13132 0
M  V30 2497 H 217.802 1.03648 1.04381 0
M  V30 2498 H 219.76 0.610557 4.12708 0
M  V30 2499 H 218.39 -0.090779 3.22672 0
M  V30 2500 H 217.442 2.31988 3.01473 0
M  V30 2501 H 218.754 2.86512 4.08304 0
M  V30 2502 H 217.908 1.37649 5.90879 0
M  V30 2503 H 216.647 0.728202 4.82233 0
M  V30 2504 H 215.652 3.02165 4.59322 0
M  V30 2505 H 216.877 3.66964 5.71414 0
M  V30 2506 H 214.823 1.52665 6.37989 0
M  V30 2507 H 214.74 3.19185 6.85315 0
M  V30 2508 H 216.008 2.1832 7.48303 0
M  V30 2509 N 220.237 -1.11381 1.11499 0
M  V30 2510 C 221.648 -1.6465 0.880191 0
M  V30 2511 C 221.999 -1.87199 -0.587434 0
M  V30 2512 O 221.124 -1.60667 -1.44966 0
M  V30 2513 C 221.719 -2.99105 1.59128 0
M  V30 2514 C 220.278 -3.49279 1.40289 0
M  V30 2515 C 219.425 -2.24077 1.63354 0
M  V30 2516 H 222.376 -0.950123 1.27116 0
M  V30 2517 H 222.397 -3.66107 1.03664 0
M  V30 2518 H 221.909 -2.82661 2.65941 0
M  V30 2519 H 220.01 -3.70887 0.356888 0
M  V30 2520 H 220.123 -4.2803 2.15238 0
M  V30 2521 H 218.487 -2.31733 1.05698 0
M  V30 2522 H 219.27 -2.10175 2.71443 0
M  V30 2523 N 221.715 -0.905404 -1.28997 0
M  V30 2524 C 222.645 -0.404212 -2.29975 0
M  V30 2525 C 223.626 0.523784 -1.61835 0
M  V30 2526 O 224.811 0.433298 -1.89304 0
M  V30 2527 C 221.941 0.364042 -3.45387 0
M  V30 2528 C 220.895 -0.474048 -4.25367 0
M  V30 2529 C 220.221 0.422045 -5.33032 0
M  V30 2530 C 221.521 -1.72696 -4.92923 0
M  V30 2531 H 223.215 -1.24807 -2.72146 0
M  V30 2532 H 220.761 -0.601585 -1.30832 0
M  V30 2533 H 222.714 0.725447 -4.15109 0
M  V30 2534 H 221.438 1.24174 -3.02074 0
M  V30 2535 H 220.097 -0.81786 -3.57361 0
M  V30 2536 H 219.745 1.29804 -4.85963 0
M  V30 2537 H 219.445 -0.135057 -5.87445 0
M  V30 2538 H 220.969 0.779517 -6.05604 0
M  V30 2539 H 222.383 -1.43495 -5.55051 0
M  V30 2540 H 220.78 -2.22582 -5.57295 0
M  V30 2541 H 221.85 -2.45964 -4.17887 0
M  V30 2542 N 223.193 1.4272 -0.668489 0
M  V30 2543 C 224.125 2.2914 0.052613 0
M  V30 2544 C 225.138 1.43339 0.771857 0
M  V30 2545 O 226.327 1.67123 0.627067 0
M  V30 2546 C 223.427 3.20618 1.09804 0
M  V30 2547 C 222.6 4.35039 0.45389 0
M  V30 2548 C 221.659 5.07282 1.39825 0
M  V30 2549 O 220.685 5.62024 0.900978 0
M  V30 2550 N 221.887 5.12206 2.73176 0
M  V30 2551 H 224.652 2.91668 -0.689209 0
M  V30 2552 H 222.213 1.53577 -0.512422 0
M  V30 2553 H 224.205 3.65815 1.73094 0
M  V30 2554 H 222.775 2.59585 1.74167 0
M  V30 2555 H 221.995 3.92567 -0.358396 0
M  V30 2556 H 223.283 5.088 0.00486972 0
M  V30 2557 H 222.681 4.6913 3.16122 0
M  V30 2558 H 221.238 5.61069 3.31729 0
M  V30 2559 N 224.671 0.411399 1.52136 0
M  V30 2560 C 225.917 -0.163888 2.02137 0
M  V30 2561 C 226.25 -1.44597 1.29636 0
M  V30 2562 O 225.525 -1.90272 0.403353 0
M  V30 2563 C 225.808 -0.40927 3.57767 0
M  V30 2564 C 225.661 0.889643 4.40914 0
M  V30 2565 C 226.98 -1.19042 4.23694 0
M  V30 2566 H 224.099 -0.0580896 0.734707 0
M  V30 2567 H 226.741 0.54531 1.82007 0
M  V30 2568 H 224.891 -1.0134 3.7505 0
M  V30 2569 H 226.563 1.52575 4.35337 0
M  V30 2570 H 224.806 1.50011 4.07037 0
M  V30 2571 H 225.477 0.672314 5.4789 0
M  V30 2572 H 227.953 -0.678942 4.10524 0
M  V30 2573 H 226.829 -1.33086 5.32522 0
M  V30 2574 H 227.09 -2.21166 3.82803 0
M  V30 2575 N 226.149 -1.5696 0.141893 0
M  V30 2576 C 227.395 -1.9625 -0.511248 0
M  V30 2577 C 227.728 -1.02654 -1.64851 0
M  V30 2578 O 227.003 -0.0679676 -1.94381 0
M  V30 2579 C 227.286 -3.45285 -1.02227 0
M  V30 2580 C 227.139 -4.49658 0.113138 0
M  V30 2581 C 228.458 -3.96698 -1.90574 0
M  V30 2582 H 225.577 -0.713567 -0.184367 0
M  V30 2583 H 228.219 -1.88698 0.222087 0
M  V30 2584 H 226.369 -3.51852 -1.64719 0
M  V30 2585 H 228.041 -4.55174 0.749302 0
M  V30 2586 H 226.284 -4.26857 0.773026 0
M  V30 2587 H 226.955 -5.51258 -0.286053 0
M  V30 2588 H 229.431 -3.92578 -1.37918 0
M  V30 2589 H 228.307 -5.01453 -2.2324 0
M  V30 2590 H 228.568 -3.3875 -2.84079 0
M  V30 2591 N 227.627 0.131896 -1.57047 0
M  V30 2592 C 228.855 0.856461 -1.88341 0
M  V30 2593 C 229.27 1.74042 -0.731757 0
M  V30 2594 O 228.627 1.80051 0.297945 0
M  V30 2595 C 228.678 1.70064 -3.18999 0
M  V30 2596 O 228.399 0.852278 -4.2973 0
M  V30 2597 C 229.9 2.53148 -3.63911 0
M  V30 2598 H 227.12 0.246885 -0.62393 0
M  V30 2599 H 229.664 0.120152 -2.04147 0
M  V30 2600 H 227.819 2.38984 -3.04902 0
M  V30 2601 H 228.233 1.43329 -5.04537 0
M  V30 2602 H 229.707 3.07931 -4.58129 0
M  V30 2603 H 230.184 3.29901 -2.89935 0
M  V30 2604 H 230.79 1.89492 -3.80753 0
M  V30 2605 N 229.106 1.52395 0.401703 0
M  V30 2606 C 230.069 1.75636 1.47257 0
M  V30 2607 C 231.069 0.62628 1.48103 0
M  V30 2608 O 232.259 0.894227 1.49497 0
M  V30 2609 C 229.391 1.84553 2.86624 0
M  V30 2610 H 230.584 2.71241 1.27938 0
M  V30 2611 H 228.137 1.42923 0.632662 0
M  V30 2612 H 228.872 0.908882 3.11303 0
M  V30 2613 H 228.657 2.66715 2.87412 0
M  V30 2614 H 230.147 2.04251 3.64241 0
M  V30 2615 N 230.584 -0.659388 1.43143 0
M  V30 2616 C 231.824 -1.43121 1.45931 0
M  V30 2617 C 232.188 -1.91838 0.0789298 0
M  V30 2618 O 233.389 -2.68794 -0.018491 0
M  V30 2619 C 231.66 -2.58534 2.46769 0
M  V30 2620 S 233.219 -3.47154 2.68384 0
M  V30 2621 H 230.037 -0.488624 0.516496 0
M  V30 2622 H 232.639 -0.766128 1.79863 0
M  V30 2623 H 231.343 -2.21007 3.45809 0
M  V30 2624 H 230.874 -3.29898 2.14315 0
M  V30 2625 H 232.889 -4.55051 1.97845 0
M  V30 2626 N 232.062 -1.29571 -0.897171 0
M  V30 2627 C 233.287 -1.20705 -1.68656 0
M  V30 2628 C 233.712 0.228582 -1.86706 0
M  V30 2629 O 233.07 1.16494 -1.3892 0
M  V30 2630 C 233.118 -1.9282 -3.04717 0
M  V30 2631 O 232.222 -1.24697 -3.93096 0
M  V30 2632 H 231.563 -0.418126 -0.515816 0
M  V30 2633 H 234.093 -1.71183 -1.12061 0
M  V30 2634 H 234.103 -2.01372 -3.54843 0
M  V30 2635 H 232.778 -2.97239 -2.90899 0
M  V30 2636 H 231.355 -1.2442 -3.51531 0
M  V30 2637 N 233.54 1.10788 -1.12088 0
M  V30 2638 C 234.47 2.19083 -0.807755 0
M  V30 2639 C 235.451 1.6858 0.226859 0
M  V30 2640 O 236.636 1.93997 0.0888475 0
M  V30 2641 C 233.766 3.46344 -0.257576 0
M  V30 2642 C 232.72 4.101 -1.22483 0
M  V30 2643 C 232.046 5.32016 -0.535052 0
M  V30 2644 C 233.346 4.54236 -2.57811 0
M  V30 2645 H 235.04 2.45534 -1.71328 0
M  V30 2646 H 232.586 1.1801 -0.825205 0
M  V30 2647 H 234.539 4.21392 -0.0262679 0
M  V30 2648 H 233.263 3.19373 0.683278 0
M  V30 2649 H 231.922 3.37054 -1.44189 0
M  V30 2650 H 231.57 5.01319 0.410827 0
M  V30 2651 H 231.27 5.75625 -1.18024 0
M  V30 2652 H 232.794 6.09799 -0.312695 0
M  V30 2653 H 234.208 5.20575 -2.40155 0
M  V30 2654 H 232.605 5.08682 -3.18375 0
M  V30 2655 H 233.675 3.6734 -3.16528 0
M  V30 2656 N 235.018 0.912232 1.28515 0
M  V30 2657 C 236.295 0.463597 1.90027 0
M  V30 2658 C 236.675 -1.05753 1.82701 0
M  V30 2659 O 236.023 -1.90492 1.26194 0
M  V30 2660 C 236.233 0.992253 3.34597 0
M  V30 2661 C 237.581 1.04344 4.11579 0
M  V30 2662 O 238.605 0.94079 3.43551 0
M  V30 2663 O 237.464 1.1995 5.33174 0
M  V30 2664 H 234.558 0.146666 0.813891 0
M  V30 2665 H 237.104 1.00292 1.36893 0
M  V30 2666 H 235.876 2.03623 3.34146 0
M  V30 2667 H 235.499 0.433672 3.95228 0
M  V30 2668 N 236.496 -1.42363 0.676048 0
M  V30 2669 C 237.745 -2.00745 0.196037 0
M  V30 2670 C 238.058 -1.54083 -1.20489 0
M  V30 2671 O 239.264 -2.04891 -1.78134 0
M  V30 2672 C 237.72 -3.58651 0.299616 0
M  V30 2673 C 237.328 -4.143 1.70468 0
M  V30 2674 C 239.072 -4.24326 -0.121619 0
M  V30 2675 C 236.979 -5.64574 1.76096 0
M  V30 2676 H 235.909 -0.750787 0.0695301 0
M  V30 2677 H 238.56 -1.63072 0.841412 0
M  V30 2678 H 236.942 -3.93833 -0.413673 0
M  V30 2679 H 238.116 -3.90575 2.44515 0
M  V30 2680 H 236.431 -3.61081 2.07387 0
M  V30 2681 H 239.028 -5.34607 -0.0997362 0
M  V30 2682 H 239.371 -3.99897 -1.15708 0
M  V30 2683 H 239.904 -3.94108 0.540706 0
M  V30 2684 H 236.643 -5.93804 2.77628 0
M  V30 2685 H 236.163 -5.90286 1.06406 0
M  V30 2686 H 237.842 -6.29013 1.51496 0
M  V30 2687 N 237.974 -0.419461 -1.51915 0
M  V30 2688 C 239.204 0.151915 -2.06041 0
M  V30 2689 C 239.612 1.38539 -1.28855 0
M  V30 2690 O 238.955 1.80592 -0.336463 0
M  V30 2691 C 239.017 0.557119 -3.55157 0
M  V30 2692 C 238.681 -0.567054 -4.53468 0
M  V30 2693 C 239.678 -1.43379 -4.99738 0
M  V30 2694 C 237.363 -0.742693 -4.96779 0
M  V30 2695 C 239.357 -2.46102 -5.87973 0
M  V30 2696 C 237.044 -1.77322 -5.84808 0
M  V30 2697 C 238.042 -2.63078 -6.30301 0
M  V30 2698 O 237.73 -3.64364 -7.16585 0
M  V30 2699 H 237.462 0.0193293 -0.675724 0
M  V30 2700 H 240.016 -0.592073 -1.96682 0
M  V30 2701 H 238.246 1.35355 -3.62238 0
M  V30 2702 H 239.935 1.05759 -3.9188 0
M  V30 2703 H 240.701 -1.30954 -4.66986 0
M  V30 2704 H 236.58 -0.0848307 -4.60922 0
M  V30 2705 H 240.124 -3.13071 -6.23404 0
M  V30 2706 H 236.021 -1.89773 -6.16974 0
M  V30 2707 H 236.789 -3.60731 -7.34721 0
M  V30 2708 N 239.452 1.56882 -0.150215 0
M  V30 2709 C 240.4 2.18214 0.805313 0
M  V30 2710 C 241.394 1.14006 1.25296 0
M  V30 2711 O 242.6 1.3225 1.22107 0
M  V30 2712 H 238.975 0.698762 0.277913 0
M  V30 2713 H 240.946 2.97231 0.263862 0
M  V30 2714 C 239.695 2.82065 2.03309 0
M  V30 2715 H 239.018 3.61968 1.69763 0
M  V30 2716 H 240.458 3.28477 2.68103 0
M  V30 2717 C 238.917 1.80739 2.84315 0
M  V30 2718 O 239.447 1.27983 3.80767 0
M  V30 2719 N 237.653 1.4997 2.48913 0
M  V30 2720 H 237.2 1.93062 1.70542 0
M  V30 2721 H 237.158 0.824217 3.03404 0
M  V30 2722 N 240.93 -0.123565 1.57115 0
M  V30 2723 C 242.177 -0.832153 1.84612 0
M  V30 2724 C 242.505 -1.80093 0.734627 0
M  V30 2725 O 241.76 -1.93766 -0.27442 0
M  V30 2726 C 242.059 -1.62016 3.18568 0
M  V30 2727 C 241.725 -0.796084 4.43817 0
M  V30 2728 C 240.387 -0.568816 4.77826 0
M  V30 2729 C 242.739 -0.221364 5.2073 0
M  V30 2730 C 240.067 0.243499 5.86194 0
M  V30 2731 C 242.419 0.578117 6.29953 0
M  V30 2732 C 241.083 0.815744 6.62497 0
M  V30 2733 H 240.353 -0.304507 0.675542 0
M  V30 2734 H 243 -0.0947248 1.91266 0
M  V30 2735 H 241.305 -2.42837 3.0747 0
M  V30 2736 H 243.002 -2.17231 3.37064 0
M  V30 2737 H 239.592 -0.983307 4.17168 0
M  V30 2738 H 243.776 -0.384173 4.94811 0
M  V30 2739 H 239.032 0.436871 6.09837 0
M  V30 2740 H 243.206 1.03046 6.88734 0
M  V30 2741 H 240.833 1.44701 7.46301 0
M  V30 2742 N 242.408 -1.52605 -0.393616 0
M  V30 2743 C 243.819 -1.59417 -0.971761 0
M  V30 2744 C 244.17 -0.444173 -1.91106 0
M  V30 2745 O 243.295 0.433382 -2.12016 0
M  V30 2746 C 243.89 -2.88936 -1.76921 0
M  V30 2747 C 242.449 -2.98175 -2.29714 0
M  V30 2748 C 241.596 -2.54491 -1.10135 0
M  V30 2749 H 244.547 -1.57751 -0.173317 0
M  V30 2750 H 244.568 -2.75163 -2.62804 0
M  V30 2751 H 244.08 -3.72616 -1.08532 0
M  V30 2752 H 242.181 -2.19024 -3.01429 0
M  V30 2753 H 242.294 -4.02726 -2.59517 0
M  V30 2754 H 240.658 -2.08702 -1.45999 0
M  V30 2755 H 241.441 -3.4056 -0.432874 0
M  V30 2756 N 243.887 0.651787 -1.4349 0
M  V30 2757 C 245.134 1.41167 -1.45183 0
M  V30 2758 C 245.462 1.94349 -0.0766601 0
M  V30 2759 O 244.717 1.72804 0.918555 0
M  V30 2760 C 245.016 2.60914 -2.44251 0
M  V30 2761 C 244.682 2.26142 -3.9009 0
M  V30 2762 C 243.344 2.16371 -4.2981 0
M  V30 2763 C 245.696 1.98334 -4.81989 0
M  V30 2764 C 243.024 1.7695 -5.5938 0
M  V30 2765 C 245.376 1.6041 -6.11924 0
M  V30 2766 C 244.04 1.49166 -6.5062 0
M  V30 2767 H 243.31 0.516566 -0.531263 0
M  V30 2768 H 245.957 0.741099 -1.76579 0
M  V30 2769 H 244.262 3.3311 -2.06265 0
M  V30 2770 H 245.959 3.19127 -2.42815 0
M  V30 2771 H 242.549 2.34658 -3.58655 0
M  V30 2772 H 246.733 2.04803 -4.52072 0
M  V30 2773 H 241.989 1.66831 -5.88198 0
M  V30 2774 H 246.163 1.37925 -6.82605 0
M  V30 2775 H 243.79 1.1839 -7.50925 0
M  V30 2776 N 245.365 1.30045 0.890287 0
M  V30 2777 C 246.642 1.09227 1.62262 0
M  V30 2778 C 247.022 -0.360305 2.08002 0
M  V30 2779 O 246.37 -1.35084 1.84295 0
M  V30 2780 C 246.58 2.08835 2.79623 0
M  V30 2781 C 247.928 2.40266 3.50082 0
M  V30 2782 O 248.952 2.07104 2.89804 0
M  V30 2783 O 247.811 2.96967 4.58773 0
M  V30 2784 H 244.905 0.419132 0.712922 0
M  V30 2785 H 247.451 1.41451 0.937529 0
M  V30 2786 H 246.223 3.06633 2.43089 0
M  V30 2787 H 245.846 1.77397 3.55832 0
M  V30 2788 N 246.843 -1.10192 1.12674 0
M  V30 2789 C 248.089 -1.82475 0.884915 0
M  V30 2790 C 248.422 -1.85093 -0.58773 0
M  V30 2791 O 247.697 -1.3134 -1.43457 0
M  V30 2792 C 247.98 -3.29018 1.46353 0
M  V30 2793 C 247.833 -3.34718 3.00473 0
M  V30 2794 C 249.152 -4.25473 1.12519 0
M  V30 2795 H 246.271 -0.662492 0.322915 0
M  V30 2796 H 248.913 -1.2913 1.39375 0
M  V30 2797 H 247.063 -3.74576 1.03077 0
M  V30 2798 H 248.735 -2.97622 3.52447 0
M  V30 2799 H 246.978 -2.74541 3.35872 0
M  V30 2800 H 247.649 -4.37918 3.36053 0
M  V30 2801 H 250.125 -3.88161 1.499 0
M  V30 2802 H 249.001 -5.26365 1.55663 0
M  V30 2803 H 249.262 -4.42084 0.0377407 0
M  V30 2804 N 248.321 -0.919034 -1.28029 0
M  V30 2805 C 249.253 -0.368762 -2.26214 0
M  V30 2806 C 250.266 0.495716 -1.55069 0
M  V30 2807 O 251.455 0.30974 -1.75792 0
M  V30 2808 C 248.555 0.491049 -3.35324 0
M  V30 2809 C 247.728 -0.352133 -4.3598 0
M  V30 2810 C 246.787 0.443622 -5.24327 0
M  V30 2811 O 245.813 -0.14566 -5.69014 0
M  V30 2812 N 247.015 1.74545 -5.53637 0
M  V30 2813 H 249.78 -1.21273 -2.74068 0
M  V30 2814 H 247.341 -0.785541 -1.41566 0
M  V30 2815 H 249.333 1.03026 -3.91366 0
M  V30 2816 H 247.903 1.23574 -2.87138 0
M  V30 2817 H 247.123 -1.07269 -3.79324 0
M  V30 2818 H 248.411 -0.928883 -5.00249 0
M  V30 2819 H 247.809 2.24666 -5.19174 0
M  V30 2820 H 246.366 2.23138 -6.12416 0
M  V30 2821 N 249.799 1.42003 -0.683588 0
M  V30 2822 C 250.747 2.326 0.000815408 0
M  V30 2823 C 251.741 1.50308 0.781278 0
M  V30 2824 O 252.947 1.66322 0.688251 0
M  V30 2825 H 249.322 0.751758 0.0190616 0
M  V30 2826 H 251.293 2.88011 -0.780528 0
M  V30 2827 C 250.042 3.34978 0.93195 0
M  V30 2828 H 249.365 3.98345 0.340817 0
M  V30 2829 H 250.805 4.00936 1.37936 0
M  V30 2830 C 249.264 2.67925 2.04249 0
M  V30 2831 O 249.794 2.51788 3.12995 0
M  V30 2832 N 248 2.2681 1.81675 0
M  V30 2833 H 247.547 2.40135 0.932363 0
M  V30 2834 H 247.505 1.8228 2.56167 0
M  V30 2835 N 251.277 0.427512 1.51691 0
M  V30 2836 C 252.517 -0.141524 2.03909 0
M  V30 2837 C 252.881 -1.40811 1.30523 0
M  V30 2838 O 254.082 -2.05676 1.73063 0
M  V30 2839 C 252.353 -0.364962 3.55532 0
M  V30 2840 S 253.912 -0.898812 4.29496 0
M  V30 2841 H 250.73 -0.0364542 0.710065 0
M  V30 2842 H 253.332 0.584659 1.86553 0
M  V30 2843 H 252.036 0.56336 4.06515 0
M  V30 2844 H 251.567 -1.1185 3.77164 0
M  V30 2845 H 253.582 -2.17747 4.45871 0
M  V30 2846 N 252.755 -1.56801 0.158532 0
M  V30 2847 C 253.98 -2.01295 -0.499516 0
M  V30 2848 C 254.405 -1.03799 -1.56867 0
M  V30 2849 O 253.763 -0.0155162 -1.81293 0
M  V30 2850 C 253.811 -3.44469 -1.06647 0
M  V30 2851 O 252.915 -3.50012 -2.18095 0
M  V30 2852 H 252.256 -0.652884 -0.12099 0
M  V30 2853 H 254.786 -2.02958 0.258661 0
M  V30 2854 H 254.796 -3.8351 -1.39227 0
M  V30 2855 H 253.471 -4.14932 -0.283581 0
M  V30 2856 H 252.048 -3.22822 -1.86656 0
M  V30 2857 N 254.233 0.115231 -1.57178 0
M  V30 2858 C 255.163 1.1423 -2.03651 0
M  V30 2859 C 256.144 1.42967 -0.921655 0
M  V30 2860 O 257.329 1.53343 -1.19162 0
M  V30 2861 C 254.459 2.4675 -2.44401 0
M  V30 2862 C 253.413 2.32467 -3.59365 0
M  V30 2863 C 252.739 3.69984 -3.86026 0
M  V30 2864 C 254.039 1.78203 -4.90959 0
M  V30 2865 H 255.733 0.755749 -2.89705 0
M  V30 2866 H 253.279 0.362093 -1.39373 0
M  V30 2867 H 255.232 3.18854 -2.75517 0
M  V30 2868 H 253.956 2.87302 -1.55322 0
M  V30 2869 H 252.615 1.62811 -3.28463 0
M  V30 2870 H 252.263 4.08028 -2.94147 0
M  V30 2871 H 251.963 3.61279 -4.63412 0
M  V30 2872 H 253.487 4.43587 -4.19599 0
M  V30 2873 H 254.901 2.40128 -5.20587 0
M  V30 2874 H 253.298 1.8031 -5.72371 0
M  V30 2875 H 254.368 0.739876 -4.79222 0
M  V30 2876 N 255.711 1.52812 0.385517 0
M  V30 2877 C 256.939 1.71907 1.15133 0
M  V30 2878 C 257.354 0.439004 1.83625 0
M  V30 2879 O 256.711 -0.586765 1.7281 0
M  V30 2880 C 256.762 2.87099 2.19673 0
M  V30 2881 O 256.483 4.10151 1.53973 0
M  V30 2882 C 257.984 3.17902 3.08955 0
M  V30 2883 H 255.204 0.575479 0.345057 0
M  V30 2884 H 257.748 1.99476 0.45052 0
M  V30 2885 H 255.903 2.61982 2.85384 0
M  V30 2886 H 256.317 4.74514 2.23465 0
M  V30 2887 H 257.791 4.01959 3.7833 0
M  V30 2888 H 258.268 2.3243 3.72657 0
M  V30 2889 H 258.874 3.44871 2.48885 0
M  V30 2890 N 257.189 -0.644168 1.43834 0
M  V30 2891 C 258.436 -1.40395 1.4593 0
M  V30 2892 C 258.764 -1.94305 0.0869658 0
M  V30 2893 O 258.019 -1.73288 -0.909378 0
M  V30 2894 C 258.318 -2.59615 2.45631 0
M  V30 2895 C 257.984 -2.2407 3.91284 0
M  V30 2896 C 256.646 -2.14089 4.30952 0
M  V30 2897 C 258.998 -1.95775 4.83034 0
M  V30 2898 C 256.326 -1.73981 5.6031 0
M  V30 2899 C 258.678 -1.57163 6.12766 0
M  V30 2900 C 257.342 -1.45713 6.51402 0
M  V30 2901 H 256.612 -0.513741 0.533995 0
M  V30 2902 H 259.259 -0.731724 1.76969 0
M  V30 2903 H 257.564 -3.32011 2.08028 0
M  V30 2904 H 259.261 -3.17834 2.44504 0
M  V30 2905 H 255.851 -2.32753 3.59895 0
M  V30 2906 H 260.035 -2.02403 4.53152 0
M  V30 2907 H 255.291 -1.63709 5.89075 0
M  V30 2908 H 259.465 -1.34303 6.83327 0
M  V30 2909 H 257.092 -1.14406 7.51542 0
M  V30 2910 N 258.668 -1.30515 -0.883378 0
M  V30 2911 C 259.896 -1.22359 -1.66841 0
M  V30 2912 C 260.311 0.213296 -1.87591 0
M  V30 2913 O 259.668 1.14075 -1.42454 0
M  V30 2914 C 259.719 -1.95011 -3.04389 0
M  V30 2915 O 259.44 -3.3309 -2.84575 0
M  V30 2916 C 260.941 -1.93532 -3.98824 0
M  V30 2917 H 258.161 -0.423371 -0.520575 0
M  V30 2918 H 260.705 -1.72167 -1.10357 0
M  V30 2919 H 258.86 -1.48997 -3.57601 0
M  V30 2920 H 259.274 -3.69907 -3.71846 0
M  V30 2921 H 260.748 -2.48902 -4.92699 0
M  V30 2922 H 261.225 -0.914627 -4.29571 0
M  V30 2923 H 261.831 -2.39364 -3.51547 0
M  V30 2924 N 260.146 1.09593 -1.13257 0
M  V30 2925 C 261.371 1.8604 -0.916732 0
M  V30 2926 C 261.796 1.80504 0.529146 0
M  V30 2927 O 261.154 1.18127 1.37534 0
M  V30 2928 C 261.202 3.32017 -1.40703 0
M  V30 2929 O 260.306 4.08141 -0.591153 0
M  V30 2930 H 259.647 0.576943 -0.328683 0
M  V30 2931 H 262.177 1.38405 -1.50682 0
M  V30 2932 H 262.187 3.82865 -1.4099 0
M  V30 2933 H 260.862 3.35361 -2.45979 0
M  V30 2934 H 259.439 3.67084 -0.656005 0
M  V30 2935 N 261.624 0.925811 1.2754 0
M  V30 2936 C 262.87 0.575575 1.95086 0
M  V30 2937 C 263.225 -0.873246 1.71441 0
M  V30 2938 O 262.518 -1.61443 1.03183 0
M  V30 2939 C 262.712 0.835296 3.47502 0
M  V30 2940 C 262.541 2.30781 3.85967 0
M  V30 2941 C 261.311 2.96017 4.09514 0
M  V30 2942 C 263.509 3.28519 3.95702 0
M  V30 2943 N 261.491 4.3344 4.34744 0
M  V30 2944 C 262.862 4.51146 4.25285 0
M  V30 2945 C 264.917 3.23753 3.7827 0
M  V30 2946 C 263.62 5.69606 4.39251 0
M  V30 2947 C 265.646 4.41523 3.9346 0
M  V30 2948 C 265.008 5.62928 4.23428 0
M  V30 2949 H 261.107 0.260711 0.737261 0
M  V30 2950 H 263.691 1.19204 1.53943 0
M  V30 2951 H 261.862 0.248005 3.87607 0
M  V30 2952 H 263.594 0.447878 4.02214 0
M  V30 2953 H 260.349 2.46695 4.04275 0
M  V30 2954 H 260.773 5.04528 4.5142 0
M  V30 2955 H 265.415 2.3096 3.54143 0
M  V30 2956 H 263.133 6.62866 4.62205 0
M  V30 2957 H 266.719 4.39351 3.81394 0
M  V30 2958 H 265.599 6.52538 4.34929 0
M  V30 2959 N 263.102 -1.41638 0.69111 0
M  V30 2960 C 264.032 -2.3347 0.037248 0
M  V30 2961 C 265.013 -1.51575 -0.771947 0
M  V30 2962 O 266.198 -1.80126 -0.72582 0
M  V30 2963 C 263.328 -3.35354 -0.903064 0
M  V30 2964 C 262.282 -4.27526 -0.201288 0
M  V30 2965 C 261.608 -5.19747 -1.25565 0
M  V30 2966 C 262.908 -5.13959 0.929689 0
M  V30 2967 H 264.602 -2.88397 0.804227 0
M  V30 2968 H 262.148 -1.38669 0.388189 0
M  V30 2969 H 264.101 -3.98519 -1.36969 0
M  V30 2970 H 262.825 -2.78767 -1.70166 0
M  V30 2971 H 261.484 -3.65779 0.245265 0
M  V30 2972 H 261.132 -4.59479 -2.04666 0
M  V30 2973 H 260.832 -5.8225 -0.791128 0
M  V30 2974 H 262.356 -5.85789 -1.72288 0
M  V30 2975 H 263.77 -5.70718 0.543546 0
M  V30 2976 H 262.167 -5.85379 1.32103 0
M  V30 2977 H 263.237 -4.51389 1.77133 0
M  V30 2978 N 264.58 -0.43555 -1.51462 0
M  V30 2979 C 265.53 0.394701 -2.24558 0
M  V30 2980 C 266.514 0.99157 -1.26715 0
M  V30 2981 O 267.706 0.910007 -1.51815 0
M  V30 2982 C 264.835 1.4963 -3.08975 0
M  V30 2983 C 263.921 0.908912 -4.14246 0
M  V30 2984 N 264.312 0.0505335 -5.05775 0
M  V30 2985 C 262.61 1.17668 -4.30198 0
M  V30 2986 C 263.311 -0.279161 -5.8103 0
M  V30 2987 N 262.287 0.336767 -5.42556 0
M  V30 2988 H 266.089 -0.267106 -2.92684 0
M  V30 2989 H 263.603 -0.247518 -1.60503 0
M  V30 2990 H 265.6 2.10394 -3.59917 0
M  V30 2991 H 264.26 2.16046 -2.42393 0
M  V30 2992 H 265.271 -0.31577 -5.16936 0
M  V30 2993 H 261.948 1.83847 -3.74842 0
M  V30 2994 H 263.338 -0.977553 -6.64751 0
M  V30 2995 N 266.058 1.56714 -0.166846 0
M  V30 2996 C 267.286 2.0112 0.485644 0
M  V30 2997 C 267.701 1.04705 1.57106 0
M  V30 2998 O 267.058 0.0471923 1.82439 0
M  V30 2999 C 267.109 3.45361 1.06808 0
M  V30 3000 O 266.83 4.38092 0.0259995 0
M  V30 3001 C 268.331 4.05145 1.79924 0
M  V30 3002 H 265.551 0.65931 0.124704 0
M  V30 3003 H 268.095 2.02746 -0.267262 0
M  V30 3004 H 266.25 3.44524 1.7715 0
M  V30 3005 H 266.664 5.22519 0.455398 0
M  V30 3006 H 268.138 5.08009 2.15942 0
M  V30 3007 H 268.615 3.46982 2.69258 0
M  V30 3008 H 269.221 4.09672 1.14234 0
M  V30 3009 N 267.536 -0.106894 1.57237 0
M  V30 3010 C 268.785 -0.811163 1.8467 0
M  V30 3011 C 269.098 -1.80469 0.754342 0
M  V30 3012 O 270.304 -2.55601 0.915439 0
M  V30 3013 C 268.76 -1.49337 3.27454 0
M  V30 3014 C 268.368 -0.540217 4.44731 0
M  V30 3015 C 270.112 -2.18206 3.64124 0
M  V30 3016 C 268.019 -1.22634 5.78545 0
M  V30 3017 H 266.949 -0.306679 0.688813 0
M  V30 3018 H 269.6 -0.0639887 1.83388 0
M  V30 3019 H 267.982 -2.2876 3.23241 0
M  V30 3020 H 269.156 0.221659 4.60267 0
M  V30 3021 H 267.471 0.042146 4.16379 0
M  V30 3022 H 270.068 -2.70253 4.61376 0
M  V30 3023 H 270.411 -2.96562 2.92158 0
M  V30 3024 H 270.944 -1.45658 3.70174 0
M  V30 3025 H 267.683 -0.483832 6.53712 0
M  V30 3026 H 267.203 -1.95993 5.66874 0
M  V30 3027 H 268.882 -1.75615 6.2271 0
M  V30 3028 N 269.014 -1.53014 -0.377408 0
M  V30 3029 C 269.946 -1.74884 -1.48149 0
M  V30 3030 C 270.959 -0.629433 -1.5014 0
M  V30 3031 O 272.148 -0.905416 -1.53833 0
M  V30 3032 C 269.248 -1.80299 -2.86959 0
M  V30 3033 C 268.421 -3.09776 -3.08801 0
M  V30 3034 C 267.48 -3.06586 -4.27658 0
M  V30 3035 O 266.506 -3.80419 -4.23403 0
M  V30 3036 N 267.708 -2.26578 -5.34455 0
M  V30 3037 H 270.473 -2.70147 -1.29771 0
M  V30 3038 H 268.034 -1.51646 -0.56703 0
M  V30 3039 H 270.026 -1.75657 -3.64591 0
M  V30 3040 H 268.596 -0.92372 -2.98641 0
M  V30 3041 H 267.816 -3.27815 -2.18931 0
M  V30 3042 H 269.104 -3.95366 -3.20255 0
M  V30 3043 H 268.502 -1.66081 -5.40771 0
M  V30 3044 H 267.059 -2.27766 -6.10709 0
M  V30 3045 N 270.492 0.636531 -1.44174 0
M  V30 3046 C 271.769 1.39463 -1.37148 0
M  V30 3047 C 272.149 2.11082 -0.027507 0
M  V30 3048 O 271.497 2.05954 0.989716 0
M  V30 3049 C 271.707 2.36552 -2.56601 0
M  V30 3050 C 273.055 3.00048 -3.00427 0
M  V30 3051 O 274.079 2.46878 -2.56767 0
M  V30 3052 O 272.938 3.96488 -3.76111 0
M  V30 3053 H 270.032 0.623903 -0.542839 0
M  V30 3054 H 272.578 0.662039 -1.56253 0
M  V30 3055 H 271.35 1.82692 -3.46034 0
M  V30 3056 H 270.973 3.17236 -2.39681 0
M  V30 3057 N 271.97 1.30982 0.876444 0
M  V30 3058 C 273.219 1.19658 1.62373 0
M  V30 3059 C 273.532 -0.245636 1.94052 0
M  V30 3060 O 274.738 -0.48049 2.67214 0
M  V30 3061 C 273.194 2.09433 2.92687 0
M  V30 3062 C 272.802 3.58613 2.68516 0
M  V30 3063 C 274.546 2.06893 3.70669 0
M  V30 3064 C 272.453 4.40416 3.94699 0
M  V30 3065 H 271.383 0.444268 0.609214 0
M  V30 3066 H 274.034 1.55791 0.969605 0
M  V30 3067 H 272.416 1.66191 3.59439 0
M  V30 3068 H 273.59 4.10058 2.10212 0
M  V30 3069 H 271.905 3.63063 2.03898 0
M  V30 3070 H 274.502 2.65258 4.64265 0
M  V30 3071 H 274.845 1.05448 4.02724 0
M  V30 3072 H 275.378 2.48301 3.10792 0
M  V30 3073 H 272.117 5.42591 3.67798 0
M  V30 3074 H 271.637 3.93731 4.52477 0
M  V30 3075 H 273.316 4.52294 4.62644 0
M  V30 3076 N 273.449 -1.08991 1.13837 0
M  V30 3077 C 274.397 -2.17841 0.815347 0
M  V30 3078 C 275.391 -1.68164 -0.204233 0
M  V30 3079 O 276.597 -1.79897 -0.0609304 0
M  V30 3080 H 272.972 -0.710654 0.245915 0
M  V30 3081 H 274.943 -2.42315 1.74143 0
M  V30 3082 C 273.692 -3.46381 0.302614 0
M  V30 3083 H 273.015 -3.84979 1.0785 0
M  V30 3084 H 274.455 -4.23844 0.115074 0
M  V30 3085 C 272.914 -3.22556 -0.972591 0
M  V30 3086 O 273.444 -3.45599 -2.04754 0
M  V30 3087 N 271.65 -2.76134 -0.905455 0
M  V30 3088 H 271.197 -2.57582 -0.0305421 0
M  V30 3089 H 271.155 -2.60571 -1.75926 0
M  V30 3090 N 274.927 -0.932562 -1.27047 0
M  V30 3091 C 276.176 -0.571351 -1.93439 0
M  V30 3092 C 276.489 0.892467 -1.74053 0
M  V30 3093 O 277.695 1.36267 -2.34826 0
M  V30 3094 C 276.151 -0.97106 -3.46552 0
M  V30 3095 C 275.759 -2.4559 -3.74686 0
M  V30 3096 C 277.503 -0.681333 -4.18997 0
M  V30 3097 C 275.41 -2.79475 -5.21198 0
M  V30 3098 H 274.34 -0.209966 -0.724176 0
M  V30 3099 H 276.991 -1.13403 -1.44263 0
M  V30 3100 H 275.373 -0.336983 -3.94564 0
M  V30 3101 H 276.547 -3.13829 -3.37414 0
M  V30 3102 H 274.862 -2.71802 -3.15456 0
M  V30 3103 H 277.459 -0.910939 -5.26883 0
M  V30 3104 H 277.802 0.381628 -4.14547 0
M  V30 3105 H 278.335 -1.27473 -3.76823 0
M  V30 3106 H 275.074 -3.847 -5.30741 0
M  V30 3107 H 274.594 -2.1589 -5.596 0
M  V30 3108 H 276.273 -2.67478 -5.89122 0
M  V30 3109 N 276.405 1.4127 -0.698611 0
M  V30 3110 C 277.63 2.06024 -0.238512 0
M  V30 3111 C 278.055 1.5224 1.10475 0
M  V30 3112 O 277.413 0.650623 1.69223 0
M  V30 3113 C 277.461 3.59988 -0.209952 0
M  V30 3114 O 276.565 4.04282 0.814235 0
M  V30 3115 H 275.906 0.653829 -0.115775 0
M  V30 3116 H 278.436 1.8098 -0.954326 0
M  V30 3117 H 278.446 4.07979 -0.0418436 0
M  V30 3118 H 277.121 3.98503 -1.1903 0
M  V30 3119 H 275.698 3.6779 0.615234 0
M  V30 3120 N 277.883 0.443576 1.51229 0
M  V30 3121 C 278.813 -0.355142 2.30783 0
M  V30 3122 C 279.794 -1.0154 1.36468 0
M  V30 3123 O 280.979 -1.01785 1.65389 0
M  V30 3124 C 278.109 -1.45312 3.15439 0
M  V30 3125 C 277.063 -0.916002 4.18083 0
M  V30 3126 C 276.389 -2.1102 4.91299 0
M  V30 3127 C 277.689 0.0538602 5.22272 0
M  V30 3128 H 279.383 0.308767 2.97804 0
M  V30 3129 H 276.929 0.149937 1.43217 0
M  V30 3130 H 278.882 -2.01914 3.69876 0
M  V30 3131 H 277.606 -2.14541 2.46252 0
M  V30 3132 H 276.265 -0.372145 3.64706 0
M  V30 3133 H 275.913 -2.78882 4.18609 0
M  V30 3134 H 275.613 -1.75717 5.60712 0
M  V30 3135 H 277.137 -2.68164 5.48562 0
M  V30 3136 H 278.551 -0.422069 5.71744 0
M  V30 3137 H 276.948 0.319776 5.99247 0
M  V30 3138 H 278.018 0.98858 4.74716 0
M  V30 3139 N 279.361 -1.56624 0.175154 0
M  V30 3140 C 280.607 -1.98061 -0.462976 0
M  V30 3141 C 280.962 -1.05949 -1.60601 0
M  V30 3142 O 280.255 -0.0999027 -1.91339 0
M  V30 3143 C 280.449 -3.43419 -0.989864 0
M  V30 3144 C 280.278 -4.49587 0.100583 0
M  V30 3145 C 279.048 -5.02281 0.551539 0
M  V30 3146 C 281.246 -5.06322 0.902369 0
M  V30 3147 N 279.228 -5.92088 1.62189 0
M  V30 3148 C 280.599 -5.92607 1.82256 0
M  V30 3149 C 282.654 -4.88811 0.947019 0
M  V30 3150 C 281.357 -6.63254 2.78364 0
M  V30 3151 C 283.383 -5.60182 1.89606 0
M  V30 3152 C 282.745 -6.46197 2.80372 0
M  V30 3153 H 278.844 -0.769833 -0.137409 0
M  V30 3154 H 281.428 -1.9273 0.276256 0
M  V30 3155 H 279.599 -3.49288 -1.6986 0
M  V30 3156 H 281.331 -3.7186 -1.59694 0
M  V30 3157 H 278.086 -4.73367 0.148537 0
M  V30 3158 H 278.51 -6.41696 2.15767 0
M  V30 3159 H 283.152 -4.22004 0.259304 0
M  V30 3160 H 280.87 -7.29271 3.48122 0
M  V30 3161 H 284.456 -5.48617 1.93676 0
M  V30 3162 H 283.336 -7.00453 3.52612 0
M  V30 3163 N 280.839 0.0985539 -1.57292 0
M  V30 3164 C 282.255 0.45267 -1.53046 0
M  V30 3165 C 282.455 1.80713 -0.891342 0
M  V30 3166 O 281.511 2.4785 -0.482375 0
M  V30 3167 C 282.824 0.418341 -2.97776 0
M  V30 3168 C 284.372 0.500443 -3.08973 0
M  V30 3169 C 284.847 0.496297 -4.55303 0
M  V30 3170 N 286.338 0.557151 -4.59837 0
M  V30 3171 C 287.073 0.575726 -5.70502 0
M  V30 3172 N 286.569 0.550714 -6.90608 0
M  V30 3173 N 288.362 0.620277 -5.58667 0
M  V30 3174 H 280.513 -0.788673 -1.97215 0
M  V30 3175 H 282.776 -0.293188 -0.901524 0
M  V30 3176 H 282.482 -0.509659 -3.47988 0
M  V30 3177 H 282.356 1.2386 -3.56284 0
M  V30 3178 H 284.743 1.41886 -2.58751 0
M  V30 3179 H 284.824 -0.347894 -2.53423 0
M  V30 3180 H 284.468 -0.418162 -5.06176 0
M  V30 3181 H 284.398 1.3618 -5.08687 0
M  V30 3182 H 286.889 0.581816 -3.73394 0
M  V30 3183 H 287.202 0.568075 -7.70709 0
M  V30 3184 H 285.547 0.517816 -6.93068 0
M  V30 3185 H 288.738 0.637322 -4.63741 0
M  V30 3186 H 288.911 0.631283 -6.44918 0
M  V30 3187 N 282.317 1.53212 0.369288 0
M  V30 3188 C 283.247 1.82365 1.45826 0
M  V30 3189 C 284.228 0.676907 1.56051 0
M  V30 3190 O 285.413 0.926401 1.70679 0
M  V30 3191 C 282.543 2.01023 2.83208 0
M  V30 3192 C 281.497 3.1678 2.8781 0
M  V30 3193 C 280.823 3.20724 4.27832 0
M  V30 3194 C 282.123 4.55447 2.55667 0
M  V30 3195 H 283.817 2.73559 1.21678 0
M  V30 3196 H 281.363 1.3163 0.583911 0
M  V30 3197 H 283.316 2.20001 3.59413 0
M  V30 3198 H 282.04 1.06536 3.08736 0
M  V30 3199 H 280.699 2.97616 2.14056 0
M  V30 3200 H 280.347 2.23882 4.50429 0
M  V30 3201 H 280.047 3.98496 4.31827 0
M  V30 3202 H 281.571 3.41881 5.05915 0
M  V30 3203 H 282.985 4.74611 3.21586 0
M  V30 3204 H 281.382 5.35432 2.70984 0
M  V30 3205 H 282.452 4.60812 1.5093 0
M  V30 3206 N 283.795 -0.628877 1.44509 0
M  V30 3207 C 285.206 -1.21054 1.42137 0
M  V30 3208 C 285.557 -1.95715 0.137881 0
M  V30 3209 O 284.682 -2.02554 -0.761645 0
M  V30 3210 C 285.277 -2.20189 2.57493 0
M  V30 3211 C 283.836 -2.73777 2.58308 0
M  V30 3212 C 282.983 -1.48813 2.33987 0
M  V30 3213 H 285.934 -0.41942 1.53057 0
M  V30 3214 H 285.955 -3.02833 2.30375 0
M  V30 3215 H 285.467 -1.6582 3.50892 0
M  V30 3216 H 283.568 -3.32142 1.68856 0
M  V30 3217 H 283.681 -3.19662 3.56865 0
M  V30 3218 H 282.045 -1.77024 1.83124 0
M  V30 3219 H 282.828 -0.963442 3.29504 0
M  V30 3220 N 285.273 -1.31445 -0.869486 0
M  V30 3221 C 286.183 -1.21097 -2.0093 0
M  V30 3222 C 287.199 -0.127584 -1.73532 0
M  V30 3223 O 288.375 -0.345477 -1.98415 0
M  V30 3224 C 285.44 -0.919378 -3.34288 0
M  V30 3225 C 284.501 -2.08971 -3.75006 0
M  V30 3226 C 283.734 -1.81194 -5.02001 0
M  V30 3227 O 283.957 -0.747296 -5.65484 0
M  V30 3228 O 282.891 -2.66883 -5.39497 0
M  V30 3229 H 286.717 -2.16883 -2.12592 0
M  V30 3230 H 284.302 -1.11189 -0.997868 0
M  V30 3231 H 286.184 -0.772625 -4.14257 0
M  V30 3232 H 284.859 0.00844772 -3.23699 0
M  V30 3233 H 283.766 -2.29187 -2.95676 0
M  V30 3234 H 285.099 -2.9998 -3.90221 0
M  V30 3235 N 286.751 1.08385 -1.14413 0
M  V30 3236 C 287.698 2.15311 -0.831265 0
M  V30 3237 C 288.668 1.64751 0.211292 0
M  V30 3238 O 289.853 1.90627 0.0811674 0
M  V30 3239 C 286.993 3.43658 -0.315143 0
M  V30 3240 C 286.106 4.08064 -1.41802 0
M  V30 3241 C 285.241 5.24207 -0.859126 0
M  V30 3242 C 284.28 5.80554 -1.93967 0
M  V30 3243 N 283.417 6.88042 -1.39793 0
M  V30 3244 H 288.257 2.41415 -1.74708 0
M  V30 3245 H 285.794 1.18474 -0.871909 0
M  V30 3246 H 287.752 4.172 0.00230884 0
M  V30 3247 H 286.382 3.17839 0.56378 0
M  V30 3248 H 285.434 3.3228 -1.85187 0
M  V30 3249 H 286.746 4.45962 -2.23427 0
M  V30 3250 H 285.9 6.04689 -0.49359 0
M  V30 3251 H 284.639 4.87699 -0.011932 0
M  V30 3252 H 283.644 4.98725 -2.31415 0
M  V30 3253 H 284.869 6.19121 -2.79046 0
M  V30 3254 H 282.815 6.53493 -0.572919 0
M  V30 3255 H 282.732 7.24767 -2.15054 0
M  V30 3256 H 284 7.72255 -1.0603 0
M  V30 3257 N 288.23 0.939286 1.26551 0
M  V30 3258 C 289.476 0.586715 1.94128 0
M  V30 3259 C 289.809 -0.8717 1.73537 0
M  V30 3260 O 289.084 -1.62339 1.07127 0
M  V30 3261 C 289.367 0.927497 3.4795 0
M  V30 3262 C 289.22 2.44052 3.77834 0
M  V30 3263 C 290.539 0.441569 4.37879 0
M  V30 3264 H 287.658 0.21463 0.705055 0
M  V30 3265 H 290.3 1.17316 1.49455 0
M  V30 3266 H 288.45 0.428431 3.8613 0
M  V30 3267 H 290.122 3.01216 3.4938 0
M  V30 3268 H 288.365 2.8848 3.23978 0
M  V30 3269 H 289.036 2.62947 4.85348 0
M  V30 3270 H 291.512 0.869448 4.06915 0
M  V30 3271 H 290.388 0.708856 5.44304 0
M  V30 3272 H 290.649 -0.658467 4.37169 0
M  V30 3273 N 289.708 -1.40897 0.706093 0
M  V30 3274 C 290.655 -2.30751 0.0474474 0
M  V30 3275 C 291.625 -1.47678 -0.76029 0
M  V30 3276 O 292.81 -1.76441 -0.726177 0
M  V30 3277 C 289.95 -3.33815 -0.875309 0
M  V30 3278 C 289.063 -4.31961 -0.0580623 0
M  V30 3279 C 288.198 -5.22093 -0.979425 0
M  V30 3280 C 287.237 -6.11902 -0.155706 0
M  V30 3281 N 286.374 -6.94482 -1.03144 0
M  V30 3282 H 291.214 -2.86513 0.819413 0
M  V30 3283 H 288.751 -1.41102 0.415783 0
M  V30 3284 H 290.709 -3.92129 -1.42446 0
M  V30 3285 H 289.339 -2.79579 -1.61356 0
M  V30 3286 H 288.391 -3.75507 0.608147 0
M  V30 3287 H 289.703 -4.95415 0.580082 0
M  V30 3288 H 288.857 -5.85292 -1.59744 0
M  V30 3289 H 287.596 -4.5889 -1.65141 0
M  V30 3290 H 286.601 -5.47742 0.475309 0
M  V30 3291 H 287.826 -6.77162 0.512635 0
M  V30 3292 H 285.772 -6.33877 -1.68924 0
M  V30 3293 H 285.689 -7.54665 -0.449108 0
M  V30 3294 H 286.957 -7.6214 -1.63593 0
M  V30 3295 N 291.186 -0.45159 -1.50991 0
M  V30 3296 C 292.411 0.110667 -2.07105 0
M  V30 3297 C 292.836 1.3446 -1.31538 0
M  V30 3298 O 292.194 1.77743 -0.357365 0
M  V30 3299 C 292.242 0.397238 -3.58405 0
M  V30 3300 O 291.346 1.48124 -3.84881 0
M  V30 3301 H 290.687 -0.00439271 -0.663985 0
M  V30 3302 H 293.217 -0.637026 -1.9443 0
M  V30 3303 H 293.227 0.64351 -4.02893 0
M  V30 3304 H 291.902 -0.504553 -4.12828 0
M  V30 3305 H 290.479 1.22381 -3.52246 0
M  V30 3306 N 292.664 1.56529 -0.183458 0
M  V30 3307 C 293.941 1.88959 0.50536 0
M  V30 3308 C 294.321 1.09523 1.80466 0
M  V30 3309 O 293.669 0.19278 2.27685 0
M  V30 3310 C 293.879 3.41162 0.73547 0
M  V30 3311 C 295.227 4.11155 1.06005 0
M  V30 3312 O 296.251 3.46548 0.823594 0
M  V30 3313 O 295.11 5.25318 1.50675 0
M  V30 3314 H 292.204 0.78441 0.261973 0
M  V30 3315 H 294.75 1.68231 -0.222802 0
M  V30 3316 H 293.522 3.90874 -0.182561 0
M  V30 3317 H 293.145 3.67543 1.51651 0
M  V30 3318 N 294.142 -0.090211 1.57342 0
M  V30 3319 C 295.558 -0.444547 1.53284 0
M  V30 3320 C 295.758 -1.80238 0.900914 0
M  V30 3321 O 294.814 -2.4759 0.495513 0
M  V30 3322 C 296.127 -0.402543 2.97993 0
M  V30 3323 C 297.675 -0.48405 3.09234 0
M  V30 3324 C 298.15 -0.472144 4.5556 0
M  V30 3325 N 299.641 -0.532757 4.60126 0
M  V30 3326 C 300.376 -0.545462 5.708 0
M  V30 3327 N 299.872 -0.514082 6.9089 0
M  V30 3328 N 301.665 -0.59064 5.58988 0
M  V30 3329 H 293.816 0.799121 1.96794 0
M  V30 3330 H 296.079 0.297965 0.899956 0
M  V30 3331 H 295.785 0.528106 3.47712 0
M  V30 3332 H 295.659 -1.21969 3.56936 0
M  V30 3333 H 298.046 -1.40512 2.595 0
M  V30 3334 H 298.127 0.361328 2.53235 0
M  V30 3335 H 297.771 0.445 5.05947 0
M  V30 3336 H 297.701 -1.3348 5.09402 0
M  V30 3337 H 300.192 -0.562006 3.73698 0
M  V30 3338 H 300.505 -0.527195 7.71 0
M  V30 3339 H 298.85 -0.481054 6.93333 0
M  V30 3340 H 302.041 -0.61272 4.64073 0
M  V30 3341 H 302.214 -0.597073 6.45243 0
M  V30 3342 N 295.62 -1.53406 -0.361157 0
M  V30 3343 C 296.845 -1.74024 -1.12829 0
M  V30 3344 C 297.27 -0.470069 -1.82132 0
M  V30 3345 O 296.628 0.57619 -1.719 0
M  V30 3346 C 296.676 -2.90903 -2.13091 0
M  V30 3347 O 295.78 -2.59821 -3.20261 0
M  V30 3348 H 295.121 -0.577804 -0.327168 0
M  V30 3349 H 297.651 -2.00307 -0.41693 0
M  V30 3350 H 297.661 -3.17194 -2.56616 0
M  V30 3351 H 296.336 -3.83034 -1.62042 0
M  V30 3352 H 294.913 -2.44362 -2.81677 0
M  V30 3353 N 297.098 0.621204 -1.44841 0
M  V30 3354 C 298.344 1.3826 -1.48365 0
M  V30 3355 C 298.677 1.93831 -0.119624 0
M  V30 3356 O 297.952 1.74251 0.864111 0
M  V30 3357 C 298.235 2.54058 -2.55199 0
M  V30 3358 C 298.088 2.03772 -4.00995 0
M  V30 3359 C 299.407 3.56225 -2.58442 0
M  V30 3360 H 296.526 0.501374 -0.540179 0
M  V30 3361 H 299.168 0.7015 -1.76576 0
M  V30 3362 H 297.318 3.12162 -2.31274 0
M  V30 3363 H 298.99 1.50423 -4.36086 0
M  V30 3364 H 297.233 1.34876 -4.12299 0
M  V30 3365 H 297.904 2.87185 -4.71411 0
M  V30 3366 H 300.38 3.07939 -2.79844 0
M  V30 3367 H 299.256 4.34756 -3.3508 0
M  V30 3368 H 299.517 4.10949 -1.63013 0
M  V30 3369 N 298.576 1.31904 0.862503 0
M  V30 3370 C 299.823 1.22017 1.61611 0
M  V30 3371 C 300.151 -0.21991 1.93253 0
M  V30 3372 O 299.406 -1.17076 1.56817 0
M  V30 3373 C 299.705 2.01713 2.95037 0
M  V30 3374 C 299.371 3.51145 2.82857 0
M  V30 3375 C 298.033 3.91889 2.79243 0
M  V30 3376 C 300.385 4.46204 2.69353 0
M  V30 3377 C 297.713 5.25947 2.59993 0
M  V30 3378 C 300.065 5.80397 2.5164 0
M  V30 3379 C 298.729 6.20352 2.46413 0
M  V30 3380 H 297.999 0.44649 0.591378 0
M  V30 3381 H 300.646 1.63248 1.00111 0
M  V30 3382 H 298.951 1.53185 3.60613 0
M  V30 3383 H 300.648 1.91437 3.52353 0
M  V30 3384 H 297.238 3.1878 2.86491 0
M  V30 3385 H 301.422 4.15652 2.71196 0
M  V30 3386 H 296.678 5.5597 2.54376 0
M  V30 3387 H 300.852 6.53676 2.40169 0
M  V30 3388 H 298.479 7.24172 2.31256 0
M  V30 3389 N 300.054 -1.07777 1.14986 0
M  V30 3390 C 300.987 -2.14228 0.786243 0
M  V30 3391 C 301.965 -1.60888 -0.235347 0
M  V30 3392 O 303.149 -1.88099 -0.122909 0
M  V30 3393 C 300.276 -3.38281 0.168433 0
M  V30 3394 C 299.322 -4.10387 1.16123 0
M  V30 3395 S 300.155 -4.62371 2.70135 0
M  V30 3396 C 301.311 -5.89704 2.09762 0
M  V30 3397 H 301.544 -2.44741 1.68787 0
M  V30 3398 H 299.077 -1.19984 0.971756 0
M  V30 3399 H 301.035 -4.10098 -0.181588 0
M  V30 3400 H 299.696 -3.05953 -0.710725 0
M  V30 3401 H 298.889 -4.99431 0.677086 0
M  V30 3402 H 298.491 -3.44513 1.45556 0
M  V30 3403 H 300.783 -6.61648 1.45701 0
M  V30 3404 H 301.726 -6.42824 2.96955 0
M  V30 3405 H 302.134 -5.4302 1.54239 0
M  V30 3406 N 301.532 -0.945985 -1.26051 0
M  V30 3407 C 302.48 -0.450259 -2.282 0
M  V30 3408 C 303.474 0.47497 -1.62605 0
M  V30 3409 O 304.68 0.352653 -1.76512 0
M  V30 3410 H 301.055 -0.127081 -0.741184 0
M  V30 3411 H 303.026 -1.32422 -2.67408 0
M  V30 3412 C 301.775 0.26467 -3.46691 0
M  V30 3413 H 301.098 -0.438123 -3.97392 0
M  V30 3414 H 302.538 0.575678 -4.20074 0
M  V30 3415 C 300.997 1.48416 -3.02447 0
M  V30 3416 O 301.527 2.58227 -3.07704 0
M  V30 3417 N 299.733 1.34243 -2.57735 0
M  V30 3418 H 299.28 0.448994 -2.53657 0
M  V30 3419 H 299.238 2.15957 -2.28495 0
M  V30 3420 N 303.011 1.40521 -0.713556 0
M  V30 3421 C 303.943 2.29191 -0.0203126 0
M  V30 3422 C 304.956 1.45723 0.725864 0
M  V30 3423 O 306.145 1.69033 0.573581 0
M  V30 3424 C 303.245 3.2395 0.995486 0
M  V30 3425 C 302.418 4.36262 0.315256 0
M  V30 3426 C 301.477 5.11474 1.23616 0
M  V30 3427 O 300.503 5.64606 0.721719 0
M  V30 3428 N 301.705 5.20638 2.56743 0
M  V30 3429 H 304.47 2.89327 -0.781652 0
M  V30 3430 H 302.031 1.51869 -0.561022 0
M  V30 3431 H 304.023 3.71137 1.61368 0
M  V30 3432 H 302.593 2.64995 1.6582 0
M  V30 3433 H 301.813 3.91228 -0.483106 0
M  V30 3434 H 303.101 5.08558 -0.157004 0
M  V30 3435 H 302.499 4.7895 3.01037 0
M  V30 3436 H 301.056 5.71339 3.13712 0
M  V30 3437 N 304.489 0.459591 1.5075 0
M  V30 3438 C 305.737 -0.0991532 2.01857 0
M  V30 3439 C 306.058 -1.41247 1.34441 0
M  V30 3440 O 305.328 -1.89775 0.486022 0
M  V30 3441 H 303.908 -0.039633 0.745948 0
M  V30 3442 H 306.57 0.607387 1.85194 0
M  V30 3443 H 305.666 -0.258998 3.11023 0
M  V30 3444 N 305.967 -1.56429 0.191757 0
M  V30 3445 C 306.877 -2.22541 -0.742481 0
M  V30 3446 C 307.893 -1.22342 -1.23727 0
M  V30 3447 O 309.069 -1.55069 -1.28513 0
M  V30 3448 C 306.134 -2.8692 -1.94623 0
M  V30 3449 C 305.195 -4.02378 -1.49633 0
M  V30 3450 C 304.428 -4.63678 -2.6427 0
M  V30 3451 O 304.651 -4.23895 -3.81666 0
M  V30 3452 O 303.585 -5.53202 -2.37174 0
M  V30 3453 H 307.411 -3.02977 -0.209462 0
M  V30 3454 H 304.996 -1.49353 -0.0373832 0
M  V30 3455 H 306.878 -3.27663 -2.64982 0
M  V30 3456 H 305.553 -2.09466 -2.46791 0
M  V30 3457 H 304.46 -3.66265 -0.761636 0
M  V30 3458 H 305.793 -4.81487 -1.02134 0
M  V30 3459 N 307.445 0.0818655 -1.57387 0
M  V30 3460 C 308.691 0.778884 -1.87896 0
M  V30 3461 C 309.046 1.75692 -0.784229 0
M  V30 3462 O 308.339 1.90417 0.212567 0
M  V30 3463 C 308.533 1.53513 -3.22752 0
M  V30 3464 C 308.362 0.631838 -4.45239 0
M  V30 3465 C 307.132 0.272571 -5.04564 0
M  V30 3466 C 309.33 -0.0670191 -5.14256 0
M  V30 3467 N 307.312 -0.637498 -6.10581 0
M  V30 3468 C 308.683 -0.834653 -6.14356 0
M  V30 3469 C 310.738 -0.139551 -4.97704 0
M  V30 3470 C 309.441 -1.66806 -6.99691 0
M  V30 3471 C 311.467 -0.959903 -5.83558 0
M  V30 3472 C 310.829 -1.71561 -6.83188 0
M  V30 3473 H 306.928 0.260764 -0.737242 0
M  V30 3474 H 309.512 0.0408227 -1.94657 0
M  V30 3475 H 307.683 2.24398 -3.17018 0
M  V30 3476 H 309.415 2.18038 -3.40942 0
M  V30 3477 H 306.17 0.62319 -4.69482 0
M  V30 3478 H 306.594 -1.08548 -6.68241 0
M  V30 3479 H 311.236 0.430376 -4.20604 0
M  V30 3480 H 308.954 -2.249 -7.76174 0
M  V30 3481 H 312.54 -1.01887 -5.72809 0
M  V30 3482 H 311.42 -2.34017 -7.48469 0
M  V30 3483 N 308.923 1.53595 0.353017 0
M  V30 3484 C 309.833 1.83897 1.45667 0
M  V30 3485 C 310.849 0.728334 1.58023 0
M  V30 3486 O 312.025 1.01968 1.73679 0
M  V30 3487 C 309.09 2.03383 2.80778 0
M  V30 3488 C 308.151 3.27262 2.77845 0
M  V30 3489 C 307.384 3.45809 4.06512 0
M  V30 3490 O 307.607 2.68387 5.03314 0
M  V30 3491 O 306.541 4.39207 4.11559 0
M  V30 3492 H 310.367 2.77686 1.2298 0
M  V30 3493 H 307.952 1.39132 0.544308 0
M  V30 3494 H 309.834 2.17698 3.60812 0
M  V30 3495 H 308.509 1.12783 3.03417 0
M  V30 3496 H 307.416 3.18359 1.96465 0
M  V30 3497 H 308.749 4.17824 2.60161 0
M  V30 3498 N 310.401 -0.613514 1.45168 0
M  V30 3499 C 311.331 -1.7354 1.56225 0
M  V30 3500 C 312.312 -1.64981 0.41414 0
M  V30 3501 O 313.497 -1.83472 0.636526 0
M  V30 3502 C 310.627 -3.12128 1.52295 0
M  V30 3503 C 309.581 -3.35491 2.65762 0
M  V30 3504 C 308.907 -4.74291 2.46885 0
M  V30 3505 C 310.207 -3.26325 4.0781 0
M  V30 3506 H 311.901 -1.64543 2.50132 0
M  V30 3507 H 309.447 -0.790185 1.20383 0
M  V30 3508 H 311.4 -3.90404 1.58628 0
M  V30 3509 H 310.124 -3.2195 0.549139 0
M  V30 3510 H 308.783 -2.59603 2.58847 0
M  V30 3511 H 308.431 -4.80839 1.47657 0
M  V30 3512 H 308.131 -4.9088 3.22972 0
M  V30 3513 H 309.655 -5.54775 2.55063 0
M  V30 3514 H 311.069 -3.94483 4.16 0
M  V30 3515 H 309.466 -3.54445 4.8424 0
M  V30 3516 H 310.536 -2.23855 4.30136 0
M  V30 3517 N 311.879 -1.3236 -0.855495 0
M  V30 3518 C 312.809 -1.23833 -1.97958 0
M  V30 3519 C 313.79 -0.122361 -1.69659 0
M  V30 3520 O 314.975 -0.30939 -1.9172 0
M  V30 3521 C 312.105 -0.959772 -3.33775 0
M  V30 3522 C 311.059 -2.03689 -3.76424 0
M  V30 3523 C 310.385 -1.61075 -5.09862 0
M  V30 3524 C 311.685 -3.4518 -3.9198 0
M  V30 3525 H 313.379 -2.1788 -2.0535 0
M  V30 3526 H 310.925 -1.04891 -0.986605 0
M  V30 3527 H 312.878 -0.886678 -4.11966 0
M  V30 3528 H 311.602 0.0163404 -3.26596 0
M  V30 3529 H 310.261 -2.10012 -3.00484 0
M  V30 3530 H 309.909 -0.622107 -4.99138 0
M  V30 3531 H 309.609 -2.33143 -5.39368 0
M  V30 3532 H 311.133 -1.55201 -5.90546 0
M  V30 3533 H 312.547 -3.4145 -4.60526 0
M  V30 3534 H 310.944 -4.1559 -4.32903 0
M  V30 3535 H 312.014 -3.84903 -2.94919 0
M  V30 3536 N 313.357 1.07166 -1.15556 0
M  V30 3537 C 314.605 1.79443 -0.929764 0
M  V30 3538 C 314.926 1.87246 0.544414 0
M  V30 3539 O 314.196 1.37473 1.39564 0
M  V30 3540 H 312.776 0.664625 -0.341003 0
M  V30 3541 H 315.438 1.29499 -1.45657 0
M  V30 3542 H 314.534 2.81832 -1.34079 0
M  V30 3543 N 314.835 0.952656 1.25548 0
M  V30 3544 C 316.081 0.607272 1.93494 0
M  V30 3545 C 316.414 -0.853245 1.74452 0
M  V30 3546 O 315.689 -1.61194 1.08843 0
M  V30 3547 C 315.972 0.96435 3.46947 0
M  V30 3548 C 315.825 2.48045 3.75225 0
M  V30 3549 C 317.144 0.487987 4.37386 0
M  V30 3550 H 314.263 0.222096 0.702739 0
M  V30 3551 H 316.905 1.18895 1.48203 0
M  V30 3552 H 315.055 0.469361 3.85654 0
M  V30 3553 H 316.727 3.04905 3.46166 0
M  V30 3554 H 314.97 2.919 3.209 0
M  V30 3555 H 315.641 2.6808 4.82532 0
M  V30 3556 H 318.117 0.912558 4.0597 0
M  V30 3557 H 316.993 0.766547 5.43521 0
M  V30 3558 H 317.254 -0.612063 4.37843 0
M  V30 3559 N 316.313 -1.40141 0.720998 0
M  V30 3560 C 317.243 -2.33339 0.0867621 0
M  V30 3561 C 318.224 -1.53178 -0.739622 0
M  V30 3562 O 319.409 -1.81625 -0.687449 0
M  V30 3563 C 316.539 -3.37194 -0.831728 0
M  V30 3564 C 315.493 -4.27857 -0.110558 0
M  V30 3565 C 314.819 -5.22294 -1.14513 0
M  V30 3566 C 316.119 -5.11872 1.0385 0
M  V30 3567 H 317.813 -2.86626 0.865219 0
M  V30 3568 H 315.359 -1.37814 0.417516 0
M  V30 3569 H 317.312 -4.01335 -1.28485 0
M  V30 3570 H 316.036 -2.82314 -1.64214 0
M  V30 3571 H 314.695 -3.65176 0.322797 0
M  V30 3572 H 314.343 -4.63717 -1.94874 0
M  V30 3573 H 314.043 -5.83797 -0.667446 0
M  V30 3574 H 315.567 -5.89312 -1.59824 0
M  V30 3575 H 316.981 -5.69436 0.664482 0
M  V30 3576 H 315.378 -5.82445 1.4449 0
M  V30 3577 H 316.448 -4.4753 1.86668 0
M  V30 3578 N 317.792 -0.46758 -1.50504 0
M  V30 3579 C 319.203 -0.0116166 -1.86696 0
M  V30 3580 C 319.554 1.39202 -1.38265 0
M  V30 3581 O 318.679 2.0313 -0.746132 0
M  V30 3582 C 319.274 -0.0143044 -3.38797 0
M  V30 3583 C 317.833 0.386175 -3.74414 0
M  V30 3584 C 316.98 -0.401287 -2.74381 0
M  V30 3585 H 319.931 -0.682022 -1.43297 0
M  V30 3586 H 319.952 0.788641 -3.72237 0
M  V30 3587 H 319.464 -1.03602 -3.74016 0
M  V30 3588 H 317.565 1.41237 -3.44794 0
M  V30 3589 H 317.678 0.0899596 -4.79016 0
M  V30 3590 H 316.042 0.144536 -2.5429 0
M  V30 3591 H 316.825 -1.42244 -3.12444 0
M  V30 3592 N 319.27 1.56325 -0.20005 0
M  V30 3593 C 320.5 2.01811 0.442232 0
M  V30 3594 C 320.908 1.07932 1.55394 0
M  V30 3595 O 320.251 0.0772685 1.83537 0
M  V30 3596 C 320.313 3.43685 1.05457 0
M  V30 3597 C 319.977 4.56928 0.0809833 0
M  V30 3598 C 320.974 5.15009 -0.711471 0
M  V30 3599 C 318.659 5.0229 -0.0315364 0
M  V30 3600 C 320.653 6.16904 -1.60336 0
M  V30 3601 C 318.34 6.04028 -0.926981 0
M  V30 3602 C 319.338 6.6121 -1.71146 0
M  V30 3603 O 319.026 7.60971 -2.59189 0
M  V30 3604 H 318.758 0.666173 0.114848 0
M  V30 3605 H 321.312 2.03085 -0.307511 0
M  V30 3606 H 319.542 3.39413 1.85299 0
M  V30 3607 H 321.231 3.72948 1.60201 0
M  V30 3608 H 321.997 4.80827 -0.634873 0
M  V30 3609 H 317.876 4.57476 0.568902 0
M  V30 3610 H 321.42 6.61464 -2.21611 0
M  V30 3611 H 317.317 6.37634 -1.00468 0
M  V30 3612 H 318.085 7.7841 -2.53023 0
M  V30 3613 N 320.748 -0.0735177 1.57428 0
M  V30 3614 C 321.995 -0.772999 1.87166 0
M  V30 3615 C 322.323 -1.77665 0.791551 0
M  V30 3616 O 321.578 -1.94541 -0.212636 0
M  V30 3617 C 321.877 -1.51799 3.23561 0
M  V30 3618 C 321.543 -0.654484 4.46125 0
M  V30 3619 C 320.205 -0.416511 4.79394 0
M  V30 3620 C 322.557 -0.0555862 5.2117 0
M  V30 3621 C 319.885 0.429869 5.85123 0
M  V30 3622 C 322.237 0.778239 6.27795 0
M  V30 3623 C 320.901 1.0261 6.59566 0
M  V30 3624 H 320.171 -0.282861 0.684888 0
M  V30 3625 H 322.818 -0.0338272 1.9147 0
M  V30 3626 H 321.123 -2.32932 3.1504 0
M  V30 3627 H 322.82 -2.06397 3.43804 0
M  V30 3628 H 319.41 -0.850091 4.20085 0
M  V30 3629 H 323.594 -0.226558 4.95783 0
M  V30 3630 H 318.85 0.630665 6.08139 0
M  V30 3631 H 323.024 1.24906 6.85107 0
M  V30 3632 H 320.651 1.68371 7.4132 0
M  V30 3633 N 322.226 -1.5378 -0.344866 0
M  V30 3634 C 323.642 -1.44015 -0.687888 0
M  V30 3635 C 323.842 -0.595834 -1.92489 0
M  V30 3636 O 322.898 -0.0863064 -2.52352 0
M  V30 3637 C 324.211 -2.87481 -0.881758 0
M  V30 3638 C 325.759 -2.97247 -0.980459 0
M  V30 3639 C 326.234 -4.41819 -1.20665 0
M  V30 3640 N 327.725 -4.45339 -1.27389 0
M  V30 3641 C 328.46 -5.54333 -1.46639 0
M  V30 3642 N 327.956 -6.73335 -1.63071 0
M  V30 3643 N 329.749 -5.41944 -1.49176 0
M  V30 3644 H 321.9 -2.07169 0.468475 0
M  V30 3645 H 324.163 -0.93643 0.147655 0
M  V30 3646 H 323.869 -3.51672 -0.0443444 0
M  V30 3647 H 323.743 -3.32352 -1.78388 0
M  V30 3648 H 326.13 -2.33197 -1.8084 0
M  V30 3649 H 326.211 -2.5574 -0.0552713 0
M  V30 3650 H 325.855 -5.06449 -0.383652 0
M  V30 3651 H 325.785 -4.80917 -2.14539 0
M  V30 3652 H 328.276 -3.59585 -1.1622 0
M  V30 3653 H 328.589 -7.52165 -1.77391 0
M  V30 3654 H 326.934 -6.76282 -1.60209 0
M  V30 3655 H 330.125 -4.47932 -1.3592 0
M  V30 3656 H 330.298 -6.26946 -1.63837 0
M  V30 3657 N 323.704 0.605807 -1.45491 0
M  V30 3658 C 324.614 1.74466 -1.56839 0
M  V30 3659 C 325.63 1.68006 -0.452772 0
M  V30 3660 O 326.806 1.8833 -0.713708 0
M  V30 3661 C 323.871 3.10931 -1.53371 0
M  V30 3662 C 322.932 3.28832 -2.75986 0
M  V30 3663 C 322.165 4.58787 -2.72673 0
M  V30 3664 O 322.388 5.4122 -1.80102 0
M  V30 3665 O 321.322 4.79438 -3.63899 0
M  V30 3666 H 325.148 1.67843 -2.53106 0
M  V30 3667 H 322.733 0.770108 -1.28022 0
M  V30 3668 H 324.615 3.92233 -1.54051 0
M  V30 3669 H 323.29 3.18042 -0.602572 0
M  V30 3670 H 322.197 2.47112 -2.80867 0
M  V30 3671 H 323.53 3.26599 -3.68231 0
M  V30 3672 N 325.182 1.32811 0.848464 0
M  V30 3673 C 326.429 1.23724 1.60308 0
M  V30 3674 C 326.757 -0.1994 1.93475 0
M  V30 3675 O 326.012 -1.15406 1.5805 0
M  V30 3676 C 326.311 2.04831 2.92881 0
M  V30 3677 C 325.977 3.54125 2.79117 0
M  V30 3678 C 324.639 3.94829 2.7507 0
M  V30 3679 C 326.991 4.49036 2.64606 0
M  V30 3680 C 324.319 5.28675 2.544 0
M  V30 3681 C 326.671 5.83033 2.4547 0
M  V30 3682 C 325.335 6.22931 2.39819 0
M  V30 3683 H 324.605 0.452737 0.586609 0
M  V30 3684 H 327.252 1.64301 0.983743 0
M  V30 3685 H 325.557 1.57001 3.58968 0
M  V30 3686 H 327.254 1.95164 3.50303 0
M  V30 3687 H 323.844 3.21801 2.83094 0
M  V30 3688 H 328.028 4.18505 2.66772 0
M  V30 3689 H 323.284 5.58637 2.48465 0
M  V30 3690 H 327.458 6.56186 2.33222 0
M  V30 3691 H 325.085 7.26584 2.23562 0
M  V30 3692 N 326.66 -1.06551 1.16123 0
M  V30 3693 C 327.885 -1.83544 0.965735 0
M  V30 3694 C 328.31 -1.81843 -0.481102 0
M  V30 3695 O 327.668 -1.21732 -1.34354 0
M  V30 3696 C 327.716 -3.28169 1.49457 0
M  V30 3697 O 326.82 -4.0643 0.699157 0
M  V30 3698 H 326.161 -0.568026 0.343864 0
M  V30 3699 H 328.691 -1.34362 1.54299 0
M  V30 3700 H 328.701 -3.78992 1.51092 0
M  V30 3701 H 327.376 -3.28722 2.54784 0
M  V30 3702 H 325.953 -3.65216 0.7531 0
M  V30 3703 N 328.138 -0.959301 -1.25041 0
M  V30 3704 C 329.071 -0.427418 -2.24161 0
M  V30 3705 C 330.049 0.493837 -1.54919 0
M  V30 3706 O 331.233 0.427144 -1.83597 0
M  V30 3707 C 328.36 0.383893 -3.36517 0
M  V30 3708 C 327.406 -0.478431 -4.23808 0
M  V30 3709 S 328.239 -1.91353 -5.00144 0
M  V30 3710 C 329.395 -1.11077 -6.15965 0
M  V30 3711 H 329.628 -1.26743 -2.6893 0
M  V30 3712 H 327.161 -0.763714 -1.34189 0
M  V30 3713 H 329.119 0.846039 -4.01687 0
M  V30 3714 H 327.78 1.19878 -2.90324 0
M  V30 3715 H 326.973 0.14406 -5.03794 0
M  V30 3716 H 326.575 -0.87597 -3.63597 0
M  V30 3717 H 328.867 -0.361699 -6.76534 0
M  V30 3718 H 329.81 -1.88472 -6.82557 0
M  V30 3719 H 330.218 -0.638843 -5.60873 0
M  V30 3720 N 329.616 1.39756 -0.72842 0
M  V30 3721 C 330.526 2.34444 -0.0855374 0
M  V30 3722 C 331.542 1.57976 0.729356 0
M  V30 3723 O 332.718 1.90301 0.659346 0
M  V30 3724 C 329.783 3.36965 0.815798 0
M  V30 3725 C 328.844 4.29299 -0.0105996 0
M  V30 3726 C 328.077 5.26923 0.84781 0
M  V30 3727 O 328.3 5.30859 2.08673 0
M  V30 3728 O 327.234 6.01249 0.279969 0
M  V30 3729 H 331.06 2.91065 -0.866892 0
M  V30 3730 H 328.645 1.4117 -0.48902 0
M  V30 3731 H 330.527 3.99804 1.33171 0
M  V30 3732 H 329.202 2.82739 1.57608 0
M  V30 3733 H 328.109 3.69703 -0.571877 0
M  V30 3734 H 329.442 4.86712 -0.73295 0
M  V30 3735 N 331.094 0.475555 1.50254 0
M  V30 3736 C 332.319 -0.0777042 2.07254 0
M  V30 3737 C 332.744 -1.3235 1.3366 0
M  V30 3738 O 332.102 -1.77152 0.385597 0
M  V30 3739 C 332.15 -0.340169 3.58992 0
M  V30 3740 O 331.254 -1.41982 3.87188 0
M  V30 3741 H 330.595 0.0149556 0.663832 0
M  V30 3742 H 333.125 0.667878 1.93392 0
M  V30 3743 H 333.135 -0.579332 4.03866 0
M  V30 3744 H 331.81 0.570167 4.11973 0
M  V30 3745 H 330.387 -1.16762 3.54148 0
M  V30 3746 N 332.573 -1.56217 0.208337 0
M  V30 3747 C 333.798 -2.02782 -0.435222 0
M  V30 3748 C 334.223 -1.08738 -1.53485 0
M  V30 3749 O 333.581 -0.0731855 -1.81152 0
M  V30 3750 C 333.629 -3.47687 -0.956335 0
M  V30 3751 O 332.733 -3.56773 -2.06849 0
M  V30 3752 H 332.074 -0.656403 -0.100158 0
M  V30 3753 H 334.604 -2.02033 0.3231 0
M  V30 3754 H 334.614 -3.87745 -1.26955 0
M  V30 3755 H 333.289 -4.15624 -0.15143 0
M  V30 3756 H 331.866 -3.28597 -1.76292 0
M  V30 3757 N 334.051 0.0651679 -1.57465 0
M  V30 3758 C 334.999 1.09542 -2.05191 0
M  V30 3759 C 335.993 1.39675 -0.958509 0
M  V30 3760 O 337.199 1.39003 -1.14359 0
M  V30 3761 H 333.574 0.370623 -0.654326 0
M  V30 3762 H 335.545 0.666802 -2.90854 0
M  V30 3763 C 334.294 2.39881 -2.51699 0
M  V30 3764 H 333.617 2.17547 -3.3543 0
M  V30 3765 H 335.057 3.104 -2.88839 0
M  V30 3766 C 333.516 3.0631 -1.40271 0
M  V30 3767 O 334.046 3.94664 -0.748523 0
M  V30 3768 N 332.252 2.67041 -1.14618 0
M  V30 3769 H 331.799 1.95281 -1.67997 0
M  V30 3770 H 331.757 3.1181 -0.402688 0
M  V30 3771 N 335.529 1.53961 0.336706 0
M  V30 3772 C 336.759 1.75229 1.09446 0
M  V30 3773 C 337.167 0.494602 1.82621 0
M  V30 3774 O 336.51 -0.543764 1.75468 0
M  V30 3775 C 336.572 2.88288 2.1478 0
M  V30 3776 C 336.236 4.27656 1.6112 0
M  V30 3777 C 337.233 5.08981 1.0599 0
M  V30 3778 C 334.918 4.74161 1.6576 0
M  V30 3779 C 336.912 6.34916 0.562129 0
M  V30 3780 C 334.599 6.00067 1.15595 0
M  V30 3781 C 335.597 6.80278 0.609147 0
M  V30 3782 O 335.285 8.03818 0.114999 0
M  V30 3783 H 335.017 0.588881 0.331956 0
M  V30 3784 H 337.571 2.01614 0.392566 0
M  V30 3785 H 335.801 2.57443 2.88548 0
M  V30 3786 H 337.49 2.97461 2.76174 0
M  V30 3787 H 338.256 4.74213 1.01722 0
M  V30 3788 H 334.135 4.11781 2.07261 0
M  V30 3789 H 337.679 6.9747 0.134668 0
M  V30 3790 H 333.576 6.3433 1.19566 0
M  V30 3791 H 334.344 8.18172 0.231651 0
M  V30 3792 N 337.007 -0.598083 1.45811 0
M  V30 3793 C 338.237 -1.38121 1.53643 0
M  V30 3794 C 338.645 -1.88425 0.171081 0
M  V30 3795 O 337.988 -1.63409 -0.839237 0
M  V30 3796 C 338.05 -2.61432 2.46766 0
M  V30 3797 C 337.714 -2.32702 3.93318 0
M  V30 3798 C 338.711 -1.92479 4.82957 0
M  V30 3799 C 336.396 -2.45321 4.38318 0
M  V30 3800 C 338.39 -1.65248 6.15607 0
M  V30 3801 C 336.077 -2.17703 5.71007 0
M  V30 3802 C 337.075 -1.7773 6.5947 0
M  V30 3803 O 336.763 -1.50441 7.89698 0
M  V30 3804 H 336.495 -0.428863 0.522544 0
M  V30 3805 H 339.049 -0.73557 1.91777 0
M  V30 3806 H 337.279 -3.28749 2.0362 0
M  V30 3807 H 338.968 -3.23487 2.45175 0
M  V30 3808 H 339.734 -1.82258 4.49452 0
M  V30 3809 H 335.613 -2.75399 3.69697 0
M  V30 3810 H 339.157 -1.33973 6.84614 0
M  V30 3811 H 335.054 -2.27544 6.04065 0
M  V30 3812 H 335.822 -1.64415 8.01817 0
M  V30 3813 N 338.485 -1.33259 -0.841409 0
M  V30 3814 C 339.448 -1.23221 -1.9326 0
M  V30 3815 C 340.448 -0.151895 -1.60081 0
M  V30 3816 O 341.638 -0.403246 -1.69468 0
M  V30 3817 C 338.77 -0.898123 -3.28856 0
M  V30 3818 H 339.963 -2.2021 -2.03587 0
M  V30 3819 H 337.516 -1.17281 -1.03319 0
M  V30 3820 H 338.251 0.0693841 -3.24226 0
M  V30 3821 H 338.036 -1.67934 -3.54317 0
M  V30 3822 H 339.526 -0.852563 -4.08805 0
M  V30 3823 N 339.963 1.05934 -1.16686 0
M  V30 3824 C 340.873 2.17014 -0.891183 0
M  V30 3825 C 341.889 1.73453 0.137907 0
M  V30 3826 O 343.065 2.01361 -0.039592 0
M  V30 3827 C 340.13 3.44384 -0.400099 0
M  V30 3828 C 339.191 4.02433 -1.49486 0
M  V30 3829 C 338.424 5.23723 -1.02711 0
M  V30 3830 O 338.647 5.7027 0.121716 0
M  V30 3831 O 337.581 5.7382 -1.81699 0
M  V30 3832 H 341.407 2.43113 -1.82015 0
M  V30 3833 H 338.992 1.15541 -0.947132 0
M  V30 3834 H 340.874 4.21189 -0.133392 0
M  V30 3835 H 339.549 3.19802 0.500817 0
M  V30 3836 H 338.456 3.27102 -1.81535 0
M  V30 3837 H 339.789 4.31317 -2.37121 0
M  V30 3838 N 341.441 0.965919 1.2453 0
M  V30 3839 C 342.374 0.4393 2.23932 0
M  V30 3840 C 343.352 -0.485615 1.55179 0
M  V30 3841 O 344.536 -0.417402 1.83821 0
M  V30 3842 C 341.663 -0.366042 3.36716 0
M  V30 3843 C 340.709 0.5009 4.23548 0
M  V30 3844 S 341.542 1.94002 4.99123 0
M  V30 3845 C 342.698 1.14342 6.15367 0
M  V30 3846 H 342.931 1.28167 2.68254 0
M  V30 3847 H 340.464 0.770819 1.33782 0
M  V30 3848 H 342.422 -0.824724 4.0213 0
M  V30 3849 H 341.083 -1.18337 2.90956 0
M  V30 3850 H 340.276 -0.117341 5.03863 0
M  V30 3851 H 339.878 0.89524 3.63127 0
M  V30 3852 H 342.17 0.397572 6.76332 0
M  V30 3853 H 343.113 1.92089 6.81548 0
M  V30 3854 H 343.521 0.668579 5.60527 0
M  V30 3855 N 342.919 -1.39368 0.735821 0
M  V30 3856 C 343.866 -2.30599 0.0963825 0
M  V30 3857 C 344.836 -1.49257 -0.728794 0
M  V30 3858 O 346.021 -1.77941 -0.688588 0
M  V30 3859 C 343.161 -3.35596 -0.804305 0
M  V30 3860 C 342.274 -4.31987 0.0335761 0
M  V30 3861 C 341.409 -5.24053 -0.868461 0
M  V30 3862 C 340.448 -6.12095 -0.0258776 0
M  V30 3863 N 339.585 -6.96514 -0.883893 0
M  V30 3864 H 344.425 -2.8471 0.880002 0
M  V30 3865 H 341.962 -1.40188 0.445619 0
M  V30 3866 H 343.92 -3.95062 -1.34096 0
M  V30 3867 H 342.55 -2.82938 -1.55389 0
M  V30 3868 H 341.602 -3.74133 0.68766 0
M  V30 3869 H 342.914 -4.94074 0.685036 0
M  V30 3870 H 342.068 -5.88549 -1.47293 0
M  V30 3871 H 340.807 -4.62289 -1.5537 0
M  V30 3872 H 339.812 -5.4661 0.591386 0
M  V30 3873 H 341.037 -6.75923 0.656156 0
M  V30 3874 H 338.983 -6.37318 -1.55441 0
M  V30 3875 H 338.9 -7.55448 -0.288931 0
M  V30 3876 H 340.168 -7.65439 -1.4739 0
M  V30 3877 N 344.397 -0.483516 -1.5 0
M  V30 3878 C 345.644 0.0671597 -2.02389 0
M  V30 3879 C 345.972 1.38597 -1.36459 0
M  V30 3880 O 345.227 1.89634 -0.483458 0
M  V30 3881 C 345.526 0.286226 -3.56252 0
M  V30 3882 C 345.192 -0.952416 -4.40726 0
M  V30 3883 C 343.854 -1.29199 -4.63531 0
M  V30 3884 C 346.206 -1.77655 -4.89988 0
M  V30 3885 C 343.534 -2.45553 -5.32842 0
M  V30 3886 C 345.886 -2.93147 -5.60578 0
M  V30 3887 C 344.55 -3.27505 -5.81633 0
M  V30 3888 H 343.82 0.0245755 -0.740592 0
M  V30 3889 H 346.467 -0.640124 -1.80485 0
M  V30 3890 H 344.772 1.07587 -3.76739 0
M  V30 3891 H 346.469 0.726473 -3.94365 0
M  V30 3892 H 343.059 -0.677881 -4.23205 0
M  V30 3893 H 347.243 -1.52737 -4.72213 0
M  V30 3894 H 342.499 -2.72431 -5.47349 0
M  V30 3895 H 346.673 -3.57344 -5.97727 0
M  V30 3896 H 344.3 -4.1777 -6.35116 0
M  V30 3897 N 345.875 1.56104 -0.216619 0
M  V30 3898 C 347.105 2.02269 0.420802 0
M  V30 3899 C 347.513 1.09575 1.5424 0
M  V30 3900 O 346.856 0.0967308 1.83445 0
M  V30 3901 C 346.918 3.44784 1.01806 0
M  V30 3902 C 346.582 4.56988 0.0325154 0
M  V30 3903 C 347.579 5.14225 -0.766055 0
M  V30 3904 C 345.264 5.02228 -0.0848092 0
M  V30 3905 C 347.258 6.15169 -1.6687 0
M  V30 3906 C 344.945 6.03011 -0.990994 0
M  V30 3907 C 345.943 6.59357 -1.78149 0
M  V30 3908 O 345.631 7.58179 -2.67245 0
M  V30 3909 H 345.363 0.667353 0.107776 0
M  V30 3910 H 347.917 2.02747 -0.329034 0
M  V30 3911 H 346.147 3.41359 1.81689 0
M  V30 3912 H 347.836 3.74626 1.56237 0
M  V30 3913 H 348.602 4.80126 -0.685836 0
M  V30 3914 H 344.481 4.58054 0.520349 0
M  V30 3915 H 348.025 6.59076 -2.28615 0
M  V30 3916 H 343.922 6.36532 -1.07225 0
M  V30 3917 H 344.69 7.75682 -2.61265 0
M  V30 3918 N 347.353 -0.0568162 1.57498 0
M  V30 3919 C 348.599 -0.75422 1.88253 0
M  V30 3920 C 348.932 -1.76461 0.810865 0
M  V30 3921 O 348.207 -1.93691 -0.177259 0
M  V30 3922 C 348.49 -1.44878 3.2967 0
M  V30 3923 C 348.343 -0.453789 4.47505 0
M  V30 3924 C 349.662 -2.38994 3.69554 0
M  V30 3925 H 346.781 -0.272724 0.684683 0
M  V30 3926 H 349.423 -0.0172113 1.89992 0
M  V30 3927 H 347.573 -2.077 3.28318 0
M  V30 3928 H 349.245 0.170371 4.60985 0
M  V30 3929 H 347.488 0.229552 4.33192 0
M  V30 3930 H 348.159 -0.977699 5.43273 0
M  V30 3931 H 350.635 -1.86239 3.72095 0
M  V30 3932 H 349.511 -2.84587 4.69363 0
M  V30 3933 H 349.772 -3.24461 3.00296 0
M  V30 3934 N 348.832 -1.54138 -0.328536 0
M  V30 3935 C 350.078 -1.7236 -1.06865 0
M  V30 3936 C 350.411 -0.493231 -1.87832 0
M  V30 3937 O 349.686 0.5098 -1.877 0
M  V30 3938 C 349.969 -2.99621 -1.99747 0
M  V30 3939 C 349.822 -4.32899 -1.22143 0
M  V30 3940 C 351.141 -3.22615 -2.99345 0
M  V30 3941 H 348.26 -0.627151 -0.387105 0
M  V30 3942 H 350.902 -1.86827 -0.345767 0
M  V30 3943 H 349.052 -2.87418 -2.61387 0
M  V30 3944 H 350.724 -4.56978 -0.630017 0
M  V30 3945 H 348.967 -4.30628 -0.523628 0
M  V30 3946 H 349.638 -5.18154 -1.90318 0
M  V30 3947 H 352.114 -3.34248 -2.47826 0
M  V30 3948 H 350.99 -4.13027 -3.61524 0
M  V30 3949 H 351.251 -2.3961 -3.71536 0
M  V30 3950 N 350.31 0.590341 -1.46126 0
M  V30 3951 C 351.559 1.34499 -1.50309 0
M  V30 3952 C 351.872 1.94977 -0.156021 0
M  V30 3953 O 353.078 2.71395 -0.0756037 0
M  V30 3954 C 351.534 2.43723 -2.64815 0
M  V30 3955 C 351.142 1.89582 -4.0591 0
M  V30 3956 C 352.886 3.20579 -2.78262 0
M  V30 3957 C 350.793 2.9639 -5.11769 0
M  V30 3958 H 349.723 0.505593 -0.559368 0
M  V30 3959 H 352.374 0.630848 -1.72315 0
M  V30 3960 H 350.756 3.17902 -2.36124 0
M  V30 3961 H 351.93 1.21997 -4.44357 0
M  V30 3962 H 350.245 1.25418 -3.97063 0
M  V30 3963 H 352.842 4.00276 -3.54519 0
M  V30 3964 H 353.185 3.72684 -1.85505 0
M  V30 3965 H 353.718 2.53505 -3.06562 0
M  V30 3966 H 350.457 2.49181 -6.06291 0
M  V30 3967 H 349.977 3.62487 -4.77873 0
M  V30 3968 H 351.656 3.60474 -5.37278 0
M  V30 3969 N 351.788 1.33704 0.83433 0
M  V30 3970 C 353.204 1.13137 1.12571 0
M  V30 3971 C 353.404 -0.0747261 2.01361 0
M  V30 3972 O 352.46 -0.753647 2.4099 0
M  V30 3973 C 353.773 2.42105 1.78342 0
M  V30 3974 C 355.321 2.48054 1.90888 0
M  V30 3975 C 355.796 3.76995 2.60075 0
M  V30 3976 N 357.287 3.78092 2.67584 0
M  V30 3977 C 358.022 4.74574 3.21818 0
M  V30 3978 N 357.518 5.81434 3.76705 0
M  V30 3979 N 359.311 4.62044 3.20112 0
M  V30 3980 H 351.462 2.11 0.243489 0
M  V30 3981 H 353.725 0.932532 0.17055 0
M  V30 3982 H 353.431 3.30391 1.20561 0
M  V30 3983 H 353.305 2.54594 2.7832 0
M  V30 3984 H 355.692 1.60215 2.47821 0
M  V30 3985 H 355.773 2.39502 0.898459 0
M  V30 3986 H 355.417 4.65219 2.03799 0
M  V30 3987 H 355.347 3.82825 3.61597 0
M  V30 3988 H 357.838 3.00865 2.28667 0
M  V30 3989 H 358.151 6.51084 4.16305 0
M  V30 3990 H 356.496 5.85163 3.7498 0
M  V30 3991 H 359.687 3.77716 2.76493 0
M  V30 3992 H 359.86 5.37406 3.62076 0
M  V30 3993 N 353.266 -1.05314 1.17247 0
M  V30 3994 C 354.682 -1.30452 0.919473 0
M  V30 3995 C 354.882 -1.9703 -0.42209 0
M  V30 3996 O 353.938 -2.24311 -1.15935 0
M  V30 3997 C 355.251 -2.17551 2.07586 0
M  V30 3998 C 356.799 -2.30937 2.11275 0
M  V30 3999 C 357.274 -3.21396 3.26296 0
M  V30 4000 N 358.765 -3.28981 3.26076 0
M  V30 4001 C 359.5 -3.99095 4.11716 0
M  V30 4002 N 358.996 -4.71648 5.07465 0
M  V30 4003 N 360.789 -3.95247 3.9967 0
M  V30 4004 H 352.94 -0.604988 2.03602 0
M  V30 4005 H 355.203 -0.329368 0.888944 0
M  V30 4006 H 354.909 -1.75921 3.0454 0
M  V30 4007 H 354.783 -3.18182 2.02584 0
M  V30 4008 H 357.17 -2.71809 1.14907 0
M  V30 4009 H 357.251 -1.2994 2.20339 0
M  V30 4010 H 356.895 -2.81238 4.22927 0
M  V30 4011 H 356.825 -4.22395 3.14467 0
M  V30 4012 H 359.316 -2.77286 2.5675 0
M  V30 4013 H 359.629 -5.22705 5.6921 0
M  V30 4014 H 357.974 -4.70594 5.11435 0
M  V30 4015 H 361.165 -3.37691 3.24164 0
M  V30 4016 H 361.338 -4.4962 4.66632 0
M  V30 4017 N 354.744 -0.972509 -1.24016 0
M  V30 4018 C 356.16 -0.679827 -1.44397 0
M  V30 4019 C 356.36 0.756716 -1.86751 0
M  V30 4020 O 355.416 1.53007 -2.00861 0
M  V30 4021 C 356.729 -1.66803 -2.50195 0
M  V30 4022 C 358.277 -1.68119 -2.64017 0
M  V30 4023 C 358.752 -2.65748 -3.73017 0
M  V30 4024 N 360.243 -2.64219 -3.8045 0
M  V30 4025 C 360.978 -3.36433 -4.64328 0
M  V30 4026 N 360.474 -4.1818 -5.52356 0
M  V30 4027 N 362.267 -3.25235 -4.58453 0
M  V30 4028 H 354.418 -1.90059 -0.948228 0
M  V30 4029 H 356.681 -0.818527 -0.478245 0
M  V30 4030 H 356.387 -2.69498 -2.25973 0
M  V30 4031 H 356.261 -1.4446 -3.48441 0
M  V30 4032 H 358.648 -0.661319 -2.87594 0
M  V30 4033 H 358.729 -1.94525 -1.66113 0
M  V30 4034 H 358.373 -3.67872 -3.50189 0
M  V30 4035 H 358.303 -2.36619 -4.70446 0
M  V30 4036 H 360.794 -2.04887 -3.17537 0
M  V30 4037 H 361.107 -4.70157 -6.13329 0
M  V30 4038 H 359.452 -4.22273 -5.52006 0
M  V30 4039 H 362.643 -2.60829 -3.88698 0
M  V30 4040 H 362.816 -3.81776 -5.23594 0
M  V30 4041 N 356.222 1.38976 -0.743202 0
M  V30 4042 C 357.633 1.83123 -0.363732 0
M  V30 4043 C 357.984 1.6205 1.10609 0
M  V30 4044 O 357.109 1.11606 1.854 0
M  V30 4045 C 357.704 3.32439 -0.653408 0
M  V30 4046 C 356.263 3.74974 -0.327338 0
M  V30 4047 C 355.41 2.61878 -0.911875 0
M  V30 4048 H 358.361 1.27852 -0.940191 0
M  V30 4049 H 358.382 3.80432 0.0720031 0
M  V30 4050 H 357.894 3.47745 -1.72323 0
M  V30 4051 H 355.995 3.65252 0.736314 0
M  V30 4052 H 356.108 4.72106 -0.815631 0
M  V30 4053 H 354.472 2.52448 -0.337944 0
M  V30 4054 H 355.255 2.79987 -1.98651 0
M  V30 4055 N 357.7 0.491464 1.49741 0
M  V30 4056 C 358.63 -0.28154 2.31796 0
M  V30 4057 C 359.611 -0.971473 1.3963 0
M  V30 4058 O 360.796 -0.964719 1.68543 0
M  V30 4059 C 357.926 -1.35203 3.19902 0
M  V30 4060 C 356.88 -0.782529 4.20786 0
M  V30 4061 C 356.206 -1.95283 4.97764 0
M  V30 4062 C 357.506 0.21999 5.21837 0
M  V30 4063 H 359.2 0.403355 2.96671 0
M  V30 4064 H 356.746 0.195425 1.42668 0
M  V30 4065 H 358.699 -1.90045 3.76113 0
M  V30 4066 H 357.423 -2.06598 2.52953 0
M  V30 4067 H 356.082 -0.255928 3.65706 0
M  V30 4068 H 355.73 -2.65423 4.2727 0
M  V30 4069 H 355.43 -1.57789 5.66018 0
M  V30 4070 H 356.954 -2.50577 5.56816 0
M  V30 4071 H 358.368 -0.23996 5.72798 0
M  V30 4072 H 356.765 0.51026 5.97927 0
M  V30 4073 H 357.835 1.13911 4.7133 0
M  V30 4074 N 359.178 -1.55987 0.224894 0
M  V30 4075 C 360.425 -1.9839 -0.4059 0
M  V30 4076 C 360.753 -1.11261 -1.59535 0
M  V30 4077 O 360.008 -0.158314 -1.95059 0
M  V30 4078 C 360.307 -3.46394 -0.880106 0
M  V30 4079 C 359.973 -4.5046 0.19918 0
M  V30 4080 C 358.635 -4.7864 0.495661 0
M  V30 4081 C 360.987 -5.12855 0.928939 0
M  V30 4082 C 358.315 -5.66497 1.52636 0
M  V30 4083 C 360.667 -6.01828 1.949 0
M  V30 4084 C 359.331 -6.28351 2.25236 0
M  V30 4085 H 358.601 -0.725961 -0.148529 0
M  V30 4086 H 361.248 -1.88668 0.328113 0
M  V30 4087 H 359.553 -3.53337 -1.69294 0
M  V30 4088 H 361.25 -3.76577 -1.37808 0
M  V30 4089 H 357.84 -4.28579 -0.0420526 0
M  V30 4090 H 362.024 -4.9115 0.713129 0
M  V30 4091 H 357.28 -5.8531 1.76698 0
M  V30 4092 H 361.454 -6.49225 2.51951 0
M  V30 4093 H 359.081 -6.96226 3.05244 0
M  V30 4094 N 360.656 0.0484629 -1.57525 0
M  V30 4095 C 361.886 0.754326 -1.92337 0
M  V30 4096 C 362.294 1.70443 -0.82132 0
M  V30 4097 O 361.637 1.82466 0.21254 0
M  V30 4098 C 361.699 1.58231 -3.22805 0
M  V30 4099 C 361.363 0.799074 -4.4996 0
M  V30 4100 C 362.36 0.1079 -5.19788 0
M  V30 4101 C 360.045 0.759345 -4.96527 0
M  V30 4102 C 362.039 -0.612516 -6.3445 0
M  V30 4103 C 359.726 0.0351713 -6.1109 0
M  V30 4104 C 360.724 -0.649537 -6.79904 0
M  V30 4105 O 360.412 -1.36199 -7.92278 0
M  V30 4106 H 360.144 0.218257 -0.639797 0
M  V30 4107 H 362.698 0.0159295 -2.05394 0
M  V30 4108 H 360.928 2.36406 -3.06021 0
M  V30 4109 H 362.617 2.16898 -3.43089 0
M  V30 4110 H 363.383 0.129748 -4.84826 0
M  V30 4111 H 359.262 1.28177 -4.42822 0
M  V30 4112 H 362.806 -1.14751 -6.88097 0
M  V30 4113 H 358.703 0.0113314 -6.45499 0
M  V30 4114 H 359.471 -1.27366 -8.0853 0
M  V30 4115 N 362.134 1.5431 0.320358 0
M  V30 4116 C 363.38 1.72924 1.05949 0
M  V30 4117 C 363.713 0.503185 1.87568 0
M  V30 4118 O 362.988 -0.499839 1.87968 0
M  V30 4119 C 363.271 3.00676 1.98156 0
M  V30 4120 C 363.124 4.3354 1.19845 0
M  V30 4121 C 364.443 3.24198 2.9763 0
M  V30 4122 H 361.562 0.629195 0.383774 0
M  V30 4123 H 364.204 1.87008 0.335854 0
M  V30 4124 H 362.354 2.888 2.59859 0
M  V30 4125 H 364.026 4.57305 0.605773 0
M  V30 4126 H 362.269 4.309 0.500784 0
M  V30 4127 H 362.94 5.19156 1.87567 0
M  V30 4128 H 365.416 3.35557 2.4605 0
M  V30 4129 H 364.292 4.14938 3.59329 0
M  V30 4130 H 364.553 2.41577 3.7026 0
M  V30 4131 N 363.613 -0.582584 1.46437 0
M  V30 4132 C 364.859 -1.34278 1.51978 0
M  V30 4133 C 365.192 -1.93446 0.170973 0
M  V30 4134 O 364.467 -1.76481 -0.817608 0
M  V30 4135 C 364.75 -2.47203 2.61845 0
M  V30 4136 C 364.603 -1.93069 4.06257 0
M  V30 4137 C 365.922 -3.49247 2.67795 0
M  V30 4138 H 363.041 -0.486876 0.553282 0
M  V30 4139 H 365.683 -0.654437 1.78374 0
M  V30 4140 H 363.833 -3.0592 2.39469 0
M  V30 4141 H 365.505 -1.38808 4.3992 0
M  V30 4142 H 363.748 -1.23898 4.1573 0
M  V30 4143 H 364.419 -2.74586 4.7886 0
M  V30 4144 H 366.895 -3.00411 2.8791 0
M  V30 4145 H 365.771 -4.25719 3.46489 0
M  V30 4146 H 366.032 -4.06482 1.73852 0
M  V30 4147 N 365.091 -1.34144 -0.827227 0
M  V30 4148 C 366.316 -1.29476 -1.62021 0
M  V30 4149 C 366.741 0.129292 -1.87655 0
M  V30 4150 O 366.099 1.08967 -1.449 0
M  V30 4151 C 366.147 -2.08702 -2.94068 0
M  V30 4152 O 365.251 -1.45359 -3.85933 0
M  V30 4153 H 364.592 -0.444881 -0.492927 0
M  V30 4154 H 367.122 -1.76882 -1.02829 0
M  V30 4155 H 367.132 -2.19898 -3.43669 0
M  V30 4156 H 365.807 -3.12241 -2.74734 0
M  V30 4157 H 364.384 -1.42879 -3.44442 0
M  V30 4158 N 366.569 1.04691 -1.17803 0
M  V30 4159 C 367.499 2.14494 -0.92275 0
M  V30 4160 C 368.48 1.69546 0.137179 0
M  V30 4161 O 369.665 1.94195 -0.0141108 0
M  V30 4162 C 366.795 3.44491 -0.440803 0
M  V30 4163 C 365.749 4.03031 -1.4405 0
M  V30 4164 C 365.075 5.28432 -0.81631 0
M  V30 4165 C 366.375 4.39932 -2.81527 0
M  V30 4166 H 368.069 2.36107 -1.84103 0
M  V30 4167 H 365.615 1.1347 -0.886599 0
M  V30 4168 H 367.568 4.2066 -0.249602 0
M  V30 4169 H 366.292 3.22546 0.513025 0
M  V30 4170 H 364.951 3.28937 -1.61853 0
M  V30 4171 H 364.599 5.02792 0.144511 0
M  V30 4172 H 364.299 5.68559 -1.48371 0
M  V30 4173 H 365.823 6.07284 -0.635496 0
M  V30 4174 H 367.237 5.07113 -2.67412 0
M  V30 4175 H 365.634 4.9109 -3.44892 0
M  V30 4176 H 366.704 3.50045 -3.35554 0
M  V30 4177 N 368.047 0.979072 1.23499 0
M  V30 4178 C 368.977 0.537606 2.27227 0
M  V30 4179 C 369.958 -0.428539 1.64613 0
M  V30 4180 O 371.143 -0.322191 1.91509 0
M  V30 4181 C 368.273 -0.162052 3.46922 0
M  V30 4182 C 367.227 0.721242 4.21879 0
M  V30 4183 C 366.553 -0.110555 5.34586 0
M  V30 4184 C 367.853 2.01141 4.82016 0
M  V30 4185 H 369.547 1.40462 2.64406 0
M  V30 4186 H 367.093 0.67684 1.27102 0
M  V30 4187 H 369.046 -0.482192 4.18632 0
M  V30 4188 H 367.77 -1.06351 3.08799 0
M  V30 4189 H 366.429 1.02482 3.51984 0
M  V30 4190 H 366.077 -1.0125 4.92704 0
M  V30 4191 H 365.777 0.477325 5.85658 0
M  V30 4192 H 367.301 -0.425107 6.09118 0
M  V30 4193 H 368.715 1.75612 5.45741 0
M  V30 4194 H 367.112 2.54695 5.43369 0
M  V30 4195 H 368.182 2.69909 4.02836 0
M  V30 4196 N 369.525 -1.3858 0.750561 0
M  V30 4197 C 370.455 -2.33102 0.136237 0
M  V30 4198 C 371.436 -1.54713 -0.706965 0
M  V30 4199 O 372.621 -1.83043 -0.648769 0
M  V30 4200 C 369.751 -3.38882 -0.760017 0
M  V30 4201 C 368.705 -4.27995 -0.0197785 0
M  V30 4202 C 368.031 -5.24605 -1.03408 0
M  V30 4203 C 369.331 -5.09554 1.14684 0
M  V30 4204 H 371.025 -2.84726 0.925822 0
M  V30 4205 H 368.571 -1.36898 0.446654 0
M  V30 4206 H 370.524 -4.0397 -1.19943 0
M  V30 4207 H 369.248 -2.85734 -1.58189 0
M  V30 4208 H 367.907 -3.64409 0.400184 0
M  V30 4209 H 367.555 -4.67746 -1.84994 0
M  V30 4210 H 367.255 -5.85081 -0.543464 0
M  V30 4211 H 368.779 -5.9257 -1.47288 0
M  V30 4212 H 370.193 -5.67899 0.785118 0
M  V30 4213 H 368.59 -5.7925 1.56812 0
M  V30 4214 H 369.66 -4.4347 1.96118 0
M  V30 4215 N 371.003 -0.499398 -1.49478 0
M  V30 4216 C 372.414 -0.051215 -1.8663 0
M  V30 4217 C 372.765 1.36238 -1.41186 0
M  V30 4218 O 371.89 2.01502 -0.789051 0
M  V30 4219 C 372.485 -0.0861651 -3.3869 0
M  V30 4220 C 371.044 0.30667 -3.75149 0
M  V30 4221 C 370.191 -0.459397 -2.73468 0
M  V30 4222 H 373.142 -0.712264 -1.41818 0
M  V30 4223 H 373.163 0.709507 -3.73826 0
M  V30 4224 H 372.675 -1.11512 -3.71735 0
M  V30 4225 H 370.776 1.33892 -3.47712 0
M  V30 4226 H 370.889 -0.0116669 -4.79099 0
M  V30 4227 H 369.253 0.0905645 -2.54539 0
M  V30 4228 H 370.036 -1.4884 -3.09357 0
M  V30 4229 N 372.481 1.55866 -0.233164 0
M  V30 4230 C 373.706 2.03449 0.402906 0
M  V30 4231 C 374.131 1.11166 1.51736 0
M  V30 4232 O 373.489 0.101996 1.81013 0
M  V30 4233 C 373.537 3.49165 0.9009 0
M  V30 4234 O 372.641 3.60019 2.01147 0
M  V30 4235 H 371.982 0.657913 0.0897025 0
M  V30 4236 H 374.512 2.01493 -0.355201 0
M  V30 4237 H 374.522 3.89716 1.2077 0
M  V30 4238 H 373.197 4.15813 0.0852889 0
M  V30 4239 H 371.774 3.3136 1.71042 0
M  V30 4240 N 373.959 -0.0401083 1.57549 0
M  V30 4241 C 375.208 -0.732108 1.87944 0
M  V30 4242 C 375.521 -1.77107 0.830206 0
M  V30 4243 O 376.727 -2.51488 1.02302 0
M  V30 4244 C 375.183 -1.35315 3.33494 0
M  V30 4245 C 374.791 -0.351105 4.46622 0
M  V30 4246 C 376.535 -2.02566 3.73051 0
M  V30 4247 C 374.442 -0.979859 5.83226 0
M  V30 4248 H 373.372 -0.277188 0.701201 0
M  V30 4249 H 376.023 0.0138501 1.83495 0
M  V30 4250 H 374.405 -2.14844 3.32653 0
M  V30 4251 H 375.579 0.416674 4.58912 0
M  V30 4252 H 373.894 0.218708 4.15825 0
M  V30 4253 H 376.491 -2.50441 4.72423 0
M  V30 4254 H 376.834 -2.83904 3.04474 0
M  V30 4255 H 377.367 -1.29827 3.76018 0
M  V30 4256 H 374.106 -0.206135 6.55176 0
M  V30 4257 H 373.626 -1.71774 5.74677 0
M  V30 4258 H 375.305 -1.49046 6.29599 0
M  V30 4259 N 375.437 -1.54477 -0.31217 0
M  V30 4260 C 376.684 -1.73227 -1.04875 0
M  V30 4261 C 377.012 -0.512042 -1.87639 0
M  V30 4262 O 376.267 0.506131 -1.89042 0
M  V30 4263 C 376.566 -2.967 -1.99258 0
M  V30 4264 C 376.232 -4.30974 -1.32559 0
M  V30 4265 C 374.894 -4.67477 -1.141 0
M  V30 4266 C 377.246 -5.14258 -0.847835 0
M  V30 4267 C 374.574 -5.84852 -0.465326 0
M  V30 4268 C 376.926 -6.32327 -0.185931 0
M  V30 4269 C 375.59 -6.67499 0.0107077 0
M  V30 4270 H 374.86 -0.633881 -0.383765 0
M  V30 4271 H 377.507 -1.88727 -0.324731 0
M  V30 4272 H 375.812 -2.75935 -2.7815 0
M  V30 4273 H 377.509 -3.08401 -2.563 0
M  V30 4274 H 374.099 -4.02262 -1.4793 0
M  V30 4275 H 378.283 -4.86565 -0.978192 0
M  V30 4276 H 373.539 -6.10654 -0.301883 0
M  V30 4277 H 377.713 -6.96135 0.192211 0
M  V30 4278 H 375.34 -7.58306 0.536287 0
M  V30 4279 N 376.915 0.57481 -1.46744 0
M  V30 4280 C 377.845 1.69337 -1.60771 0
M  V30 4281 C 378.826 1.63825 -0.457736 0
M  V30 4282 O 380.011 1.8172 -0.684947 0
M  V30 4283 C 377.141 3.0798 -1.60517 0
M  V30 4284 C 376.095 3.28327 -2.74564 0
M  V30 4285 C 375.421 4.67578 -2.59373 0
M  V30 4286 C 376.721 3.15398 -4.16319 0
M  V30 4287 H 378.415 1.57853 -2.54407 0
M  V30 4288 H 375.961 0.75799 -1.22436 0
M  V30 4289 H 377.914 3.86061 -1.68923 0
M  V30 4290 H 376.638 3.20381 -0.634305 0
M  V30 4291 H 375.297 2.52649 -2.65639 0
M  V30 4292 H 374.945 4.76755 -1.60353 0
M  V30 4293 H 374.645 4.82144 -3.35873 0
M  V30 4294 H 376.169 5.47817 -2.69682 0
M  V30 4295 H 377.583 3.83315 -4.26313 0
M  V30 4296 H 375.98 3.41482 -4.93468 0
M  V30 4297 H 377.05 2.12372 -4.3592 0
M  V30 4298 N 378.394 1.34581 0.820102 0
M  V30 4299 C 379.327 1.20735 1.93644 0
M  V30 4300 C 380.305 0.0983343 1.62302 0
M  V30 4301 O 381.489 0.263997 1.86642 0
M  V30 4302 C 378.616 0.856037 3.27704 0
M  V30 4303 C 377.662 1.97521 3.78005 0
M  V30 4304 S 378.495 3.58906 3.97425 0
M  V30 4305 C 379.651 3.25822 5.34407 0
M  V30 4306 H 379.884 2.15231 2.05093 0
M  V30 4307 H 377.417 1.1964 0.97599 0
M  V30 4308 H 379.375 0.660133 4.05157 0
M  V30 4309 H 378.036 -0.0706253 3.14021 0
M  V30 4310 H 377.229 1.68321 4.75062 0
M  V30 4311 H 376.831 2.12875 3.07507 0
M  V30 4312 H 379.123 2.77812 6.17922 0
M  V30 4313 H 380.066 4.22029 5.68592 0
M  V30 4314 H 380.474 2.61932 5.00052 0
M  V30 4315 N 379.872 -1.04064 1.18357 0
M  V30 4316 C 381.118 -1.77528 0.980397 0
M  V30 4317 C 381.451 -1.87948 -0.48879 0
M  V30 4318 O 380.726 -1.3876 -1.36293 0
M  V30 4319 C 381.009 -3.20797 1.63588 0
M  V30 4320 C 380.862 -3.1832 3.17793 0
M  V30 4321 C 382.181 -4.18911 1.34914 0
M  V30 4322 H 379.3 -0.644443 0.357578 0
M  V30 4323 H 381.942 -1.2156 1.46024 0
M  V30 4324 H 380.092 -3.68586 1.22788 0
M  V30 4325 H 381.764 -2.78521 3.67728 0
M  V30 4326 H 380.007 -2.56351 3.49952 0
M  V30 4327 H 380.678 -4.19489 3.58794 0
M  V30 4328 H 383.154 -3.7967 1.70265 0
M  V30 4329 H 382.03 -5.17374 1.83346 0
M  V30 4330 H 382.291 -4.41262 0.272027 0
M  V30 4331 N 381.35 -0.985608 -1.22978 0
M  V30 4332 C 382.283 -0.47487 -2.23204 0
M  V30 4333 C 383.261 0.460865 -1.55932 0
M  V30 4334 O 384.445 0.388105 -1.84461 0
M  V30 4335 C 381.572 0.312427 -3.37256 0
M  V30 4336 C 380.618 -0.568219 -4.22698 0
M  V30 4337 S 381.451 -2.01919 -4.95973 0
M  V30 4338 C 382.607 -1.24118 -6.1347 0
M  V30 4339 H 382.84 -1.32419 -2.66181 0
M  V30 4340 H 380.373 -0.792005 -1.32539 0
M  V30 4341 H 382.331 0.760645 -4.03391 0
M  V30 4342 H 380.992 1.13693 -2.92801 0
M  V30 4343 H 380.185 0.0371657 -5.03986 0
M  V30 4344 H 379.787 -0.952897 -3.61657 0
M  V30 4345 H 382.079 -0.505121 -6.75614 0
M  V30 4346 H 383.022 -2.02907 -6.78406 0
M  V30 4347 H 383.43 -0.757669 -5.59392 0
M  V30 4348 N 382.828 1.3818 -0.7579 0
M  V30 4349 C 384.105 1.94106 -0.241306 0
M  V30 4350 C 384.485 1.69282 1.26122 0
M  V30 4351 O 383.833 1.03378 2.03777 0
M  V30 4352 C 384.043 3.43809 -0.59967 0
M  V30 4353 C 385.391 4.20868 -0.561717 0
M  V30 4354 O 386.415 3.5211 -0.538222 0
M  V30 4355 O 385.274 5.43451 -0.576478 0
M  V30 4356 H 382.368 0.825376 -0.0518042 0
M  V30 4357 H 384.914 1.47548 -0.838315 0
M  V30 4358 H 383.686 3.55403 -1.6372 0
M  V30 4359 H 383.309 3.97592 0.0251197 0
M  V30 4360 N 384.306 0.507319 1.49211 0
M  V30 4361 C 385.555 -0.0368315 2.01666 0
M  V30 4362 C 385.868 -1.37459 1.39156 0
M  V30 4363 O 387.074 -2.00579 1.82976 0
M  V30 4364 C 385.53 -0.116089 3.59713 0
M  V30 4365 C 385.138 1.2154 4.31198 0
M  V30 4366 C 386.882 -0.610268 4.2009 0
M  V30 4367 C 384.789 1.09796 5.81119 0
M  V30 4368 H 383.719 -0.0175376 0.753796 0
M  V30 4369 H 386.37 0.647691 1.71689 0
M  V30 4370 H 384.752 -0.8652 3.86433 0
M  V30 4371 H 385.926 1.9783 4.16173 0
M  V30 4372 H 384.241 1.64352 3.82593 0
M  V30 4373 H 386.838 -0.715742 5.29888 0
M  V30 4374 H 387.181 -1.61064 3.8388 0
M  V30 4375 H 387.714 0.0824916 3.97714 0
M  V30 4376 H 384.453 2.0728 6.21864 0
M  V30 4377 H 383.973 0.376058 5.9862 0
M  V30 4378 H 385.652 0.779281 6.4229 0
M  V30 4379 N 385.784 -1.5574 0.241426 0
M  V30 4380 C 387.03 -1.99104 -0.385406 0
M  V30 4381 C 387.363 -1.1293 -1.57988 0
M  V30 4382 O 386.638 -0.191449 -1.93555 0
M  V30 4383 C 386.921 -3.51087 -0.800616 0
M  V30 4384 C 386.774 -4.48028 0.398874 0
M  V30 4385 C 388.093 -4.08015 -1.64959 0
M  V30 4386 H 385.212 -0.723848 -0.138614 0
M  V30 4387 H 387.854 -1.86903 0.341642 0
M  V30 4388 H 386.004 -3.61615 -1.4201 0
M  V30 4389 H 387.676 -4.49487 1.03726 0
M  V30 4390 H 385.919 -4.21077 1.04293 0
M  V30 4391 H 386.59 -5.51962 0.0651056 0
M  V30 4392 H 389.066 -4.00555 -1.12672 0
M  V30 4393 H 387.942 -5.14635 -1.90898 0
M  V30 4394 H 388.203 -3.56131 -2.61961 0
M  V30 4395 N 387.262 0.0317525 -1.57568 0
M  V30 4396 C 388.51 0.721676 -1.88776 0
M  V30 4397 C 388.831 1.76039 -0.838772 0
M  V30 4398 O 388.101 1.95482 0.127935 0
M  V30 4399 H 386.681 0.269534 -0.696678 0
M  V30 4400 H 389.343 -0.00165879 -1.949 0
M  V30 4401 H 388.439 1.21293 -2.87566 0
M  V30 4402 N 388.74 1.54641 0.303973 0
M  V30 4403 C 389.987 1.7378 1.03955 0
M  V30 4404 C 390.315 0.521986 1.87365 0
M  V30 4405 O 389.57 -0.496099 1.89308 0
M  V30 4406 C 389.869 2.97753 1.97681 0
M  V30 4407 C 389.535 4.31671 1.30271 0
M  V30 4408 C 388.197 4.68075 1.11619 0
M  V30 4409 C 390.549 5.147 0.82055 0
M  V30 4410 C 387.877 5.8509 0.434304 0
M  V30 4411 C 390.229 6.32416 0.152395 0
M  V30 4412 C 388.893 6.67484 -0.0461067 0
M  V30 4413 H 388.163 0.635908 0.380398 0
M  V30 4414 H 390.81 1.88896 0.314718 0
M  V30 4415 H 389.115 2.77406 2.76682 0
M  V30 4416 H 390.812 3.09756 2.54661 0
M  V30 4417 H 387.402 4.03041 1.45795 0
M  V30 4418 H 391.586 4.87077 0.952374 0
M  V30 4419 H 386.842 6.10806 0.269495 0
M  V30 4420 H 391.016 6.96023 -0.229126 0
M  V30 4421 H 388.643 7.58011 -0.576494 0
M  V30 4422 N 390.218 -0.567019 1.47046 0
M  V30 4423 C 391.448 -1.34831 1.56538 0
M  V30 4424 C 391.856 -1.8802 0.21101 0
M  V30 4425 O 391.199 -1.65152 -0.804387 0
M  V30 4426 C 391.261 -2.56139 2.52256 0
M  V30 4427 C 390.925 -2.24307 3.98165 0
M  V30 4428 C 391.922 -1.82192 4.86931 0
M  V30 4429 C 389.607 -2.35968 4.43423 0
M  V30 4430 C 391.601 -1.52153 6.18973 0
M  V30 4431 C 389.288 -2.05542 5.75496 0
M  V30 4432 C 390.286 -1.63701 6.63092 0
M  V30 4433 O 389.974 -1.33657 7.92711 0
M  V30 4434 H 389.706 -0.417683 0.531523 0
M  V30 4435 H 392.26 -0.694726 1.93294 0
M  V30 4436 H 390.49 -3.24356 2.10548 0
M  V30 4437 H 392.179 -3.18214 2.51982 0
M  V30 4438 H 392.945 -1.72684 4.53217 0
M  V30 4439 H 388.824 -2.67495 3.75456 0
M  V30 4440 H 392.368 -1.19421 6.87302 0
M  V30 4441 H 388.265 -2.14679 6.08755 0
M  V30 4442 H 389.033 -1.4737 8.05124 0
M  V30 4443 N 391.696 -1.35014 -0.812953 0
M  V30 4444 C 392.626 -1.30069 -1.93919 0
M  V30 4445 C 393.607 -0.176275 -1.69184 0
M  V30 4446 O 394.792 -0.370227 -1.90638 0
M  V30 4447 C 391.922 -1.06547 -3.30552 0
M  V30 4448 C 390.876 -2.15561 -3.69753 0
M  V30 4449 C 390.202 -1.77214 -5.04479 0
M  V30 4450 C 391.502 -3.57476 -3.808 0
M  V30 4451 H 393.196 -2.24303 -1.98314 0
M  V30 4452 H 390.742 -1.07977 -0.952736 0
M  V30 4453 H 392.695 -1.01729 -4.08937 0
M  V30 4454 H 391.419 -0.0875719 -3.26483 0
M  V30 4455 H 390.078 -2.19466 -2.9365 0
M  V30 4456 H 389.726 -0.780589 -4.96906 0
M  V30 4457 H 389.426 -2.50184 -5.31678 0
M  V30 4458 H 390.95 -1.7391 -5.8531 0
M  V30 4459 H 392.364 -3.55929 -4.4943 0
M  V30 4460 H 390.761 -4.29152 -4.19462 0
M  V30 4461 H 391.831 -3.94091 -2.82525 0
M  V30 4462 N 393.175 1.03435 -1.18907 0
M  V30 4463 C 394.586 1.58195 -0.991523 0
M  V30 4464 C 394.937 1.90801 0.457081 0
M  V30 4465 O 394.062 1.70272 1.33553 0
M  V30 4466 C 394.657 2.87432 -1.79355 0
M  V30 4467 C 393.216 3.38785 -1.64017 0
M  V30 4468 C 392.363 2.12292 -1.78402 0
M  V30 4469 H 395.314 0.860299 -1.33359 0
M  V30 4470 H 395.335 3.58096 -1.28638 0
M  V30 4471 H 394.847 2.63669 -2.84781 0
M  V30 4472 H 392.948 3.67547 -0.611536 0
M  V30 4473 H 393.061 4.12186 -2.44212 0
M  V30 4474 H 391.425 2.23901 -1.2141 0
M  V30 4475 H 392.208 1.90977 -2.85277 0
M  V30 4476 N 394.653 0.992116 1.22453 0
M  V30 4477 C 396.064 0.702776 1.72968 0
M  V30 4478 C 396.415 -0.780399 1.80012 0
M  V30 4479 O 395.54 -1.61007 1.44589 0
M  V30 4480 C 396.135 1.26903 3.14135 0
M  V30 4481 C 394.694 1.02909 3.62059 0
M  V30 4482 C 393.841 1.38969 2.39964 0
M  V30 4483 H 396.792 1.16457 1.07812 0
M  V30 4484 H 396.813 0.647223 3.74955 0
M  V30 4485 H 396.325 2.34851 3.08977 0
M  V30 4486 H 394.426 -0.0337979 3.72585 0
M  V30 4487 H 394.539 1.69191 4.48231 0
M  V30 4488 H 392.903 0.808279 2.41535 0
M  V30 4489 H 393.686 2.4792 2.37467 0
M  V30 4490 N 396.131 -1.37776 0.765217 0
M  V30 4491 C 397.079 -2.32209 0.134798 0
M  V30 4492 C 398.073 -1.54607 -0.692315 0
M  V30 4493 O 399.279 -1.70052 -0.590109 0
M  V30 4494 H 395.654 -0.751591 0.0248005 0
M  V30 4495 H 397.625 -2.8297 0.947119 0
M  V30 4496 C 396.374 -3.39841 -0.735063 0
M  V30 4497 H 395.697 -3.99654 -0.107991 0
M  V30 4498 H 397.137 -4.08296 -1.14326 0
M  V30 4499 C 395.596 -2.79378 -1.88281 0
M  V30 4500 O 396.126 -2.69608 -2.97783 0
M  V30 4501 N 394.332 -2.37016 -1.68142 0
M  V30 4502 H 393.879 -2.45162 -0.790772 0
M  V30 4503 H 393.837 -1.96905 -2.45104 0
M  V30 4504 N 397.609 -0.515225 -1.4894 0
M  V30 4505 C 398.834 0.022727 -2.07388 0
M  V30 4506 C 399.259 1.2876 -1.37122 0
M  V30 4507 O 398.617 1.76067 -0.432431 0
M  V30 4508 C 398.665 0.244869 -3.59768 0
M  V30 4509 O 397.769 1.31667 -3.90817 0
M  V30 4510 H 397.11 -0.0325506 -0.663202 0
M  V30 4511 H 399.64 -0.718918 -1.91553 0
M  V30 4512 H 399.65 0.47205 -4.0526 0
M  V30 4513 H 398.325 -0.679194 -4.10317 0
M  V30 4514 H 396.902 1.07331 -3.5712 0
M  V30 4515 N 399.087 1.5561 -0.249682 0
M  V30 4516 C 400.335 1.98618 0.373548 0
M  V30 4517 C 400.656 1.13919 1.58264 0
M  V30 4518 O 399.926 0.222637 1.94631 0
M  V30 4519 H 398.506 0.733571 0.141006 0
M  V30 4520 H 401.168 1.91748 -0.349117 0
M  V30 4521 H 400.264 3.04584 0.680796 0
M  V30 4522 N 400.565 -0.0233959 1.57583 0
M  V30 4523 C 401.475 -1.03907 2.10334 0
M  V30 4524 C 402.491 -1.39257 1.04323 0
M  V30 4525 O 403.667 -1.48462 1.36091 0
M  V30 4526 C 400.732 -2.31938 2.57693 0
M  V30 4527 C 399.793 -2.03117 3.78209 0
M  V30 4528 C 399.026 -3.25043 4.233 0
M  V30 4529 O 399.249 -4.35916 3.67876 0
M  V30 4530 O 398.183 -3.10411 5.15683 0
M  V30 4531 H 402.009 -0.620748 2.97288 0
M  V30 4532 H 399.594 -0.240743 1.47448 0
M  V30 4533 H 401.476 -3.07196 2.88458 0
M  V30 4534 H 400.151 -2.73055 1.73847 0
M  V30 4535 H 399.058 -1.25408 3.52454 0
M  V30 4536 H 400.391 -1.66852 4.63056 0
M  V30 4537 N 402.043 -1.548 -0.295768 0
M  V30 4538 C 403.459 -1.4613 -0.641722 0
M  V30 4539 C 403.659 -0.656771 -1.90496 0
M  V30 4540 O 402.715 -0.166547 -2.5195 0
M  V30 4541 C 404.028 -2.90141 -0.789852 0
M  V30 4542 C 405.576 -3.00216 -0.885396 0
M  V30 4543 C 406.051 -4.45434 -1.06548 0
M  V30 4544 N 407.542 -4.49166 -1.13156 0
M  V30 4545 C 408.277 -5.58717 -1.28929 0
M  V30 4546 N 407.773 -6.78182 -1.41567 0
M  V30 4547 N 409.566 -5.46415 -1.31859 0
M  V30 4548 H 401.717 -2.05574 0.534147 0
M  V30 4549 H 403.98 -0.931259 0.177372 0
M  V30 4550 H 403.686 -3.51635 0.0675598 0
M  V30 4551 H 403.56 -3.37859 -1.67724 0
M  V30 4552 H 405.947 -2.38833 -1.73329 0
M  V30 4553 H 406.028 -2.55787 0.0261185 0
M  V30 4554 H 405.672 -5.07413 -0.222335 0
M  V30 4555 H 405.602 -4.87499 -1.9913 0
M  V30 4556 H 408.093 -3.631 -1.04721 0
M  V30 4557 H 408.406 -7.57428 -1.53372 0
M  V30 4558 H 406.751 -6.81037 -1.38613 0
M  V30 4559 H 409.942 -4.5203 -1.21601 0
M  V30 4560 H 410.115 -6.31841 -1.43808 0
M  V30 4561 N 403.521 0.559213 -1.47345 0
M  V30 4562 C 404.767 1.31843 -1.54095 0
M  V30 4563 C 405.1 1.93149 -0.201726 0
M  V30 4564 O 404.375 1.77759 0.789428 0
M  V30 4565 C 404.658 2.43006 -2.65744 0
M  V30 4566 C 404.511 1.86581 -4.09277 0
M  V30 4567 C 405.83 3.44943 -2.73318 0
M  V30 4568 H 402.949 0.478012 -0.560957 0
M  V30 4569 H 405.591 0.625977 -1.79392 0
M  V30 4570 H 403.741 3.02072 -2.44305 0
M  V30 4571 H 405.413 1.31792 -4.42073 0
M  V30 4572 H 403.656 1.17268 -4.17649 0
M  V30 4573 H 404.327 2.66933 -4.83168 0
M  V30 4574 H 406.803 2.95793 -2.92653 0
M  V30 4575 H 405.679 4.20153 -3.53218 0
M  V30 4576 H 405.94 4.03665 -1.80296 0
M  V30 4577 N 404.999 1.35443 0.805782 0
M  V30 4578 C 406.224 1.32037 1.59941 0
M  V30 4579 C 406.649 -0.0994215 1.87837 0
M  V30 4580 O 406.007 -1.06648 1.46615 0
M  V30 4581 C 406.055 2.13354 2.90711 0
M  V30 4582 O 405.159 1.5148 3.83572 0
M  V30 4583 H 404.5 0.452666 0.485787 0
M  V30 4584 H 407.03 1.78496 1.00002 0
M  V30 4585 H 407.04 2.25338 3.40128 0
M  V30 4586 H 405.715 3.16572 2.69732 0
M  V30 4587 H 404.292 1.4834 3.42125 0
M  V30 4588 N 406.477 -1.02803 1.19454 0
M  V30 4589 C 407.724 -1.76217 0.997693 0
M  V30 4590 C 408.052 -1.887 -0.47144 0
M  V30 4591 O 407.307 -1.4011 -1.3663 0
M  V30 4592 C 407.606 -3.18941 1.6128 0
M  V30 4593 C 407.272 -3.26463 3.11019 0
M  V30 4594 C 405.934 -3.28223 3.51885 0
M  V30 4595 C 408.286 -3.25542 4.07028 0
M  V30 4596 C 405.614 -3.26719 4.8731 0
M  V30 4597 C 407.966 -3.25579 5.42385 0
M  V30 4598 C 406.63 -3.25637 5.82681 0
M  V30 4599 H 405.9 -0.644823 0.365082 0
M  V30 4600 H 408.547 -1.20655 1.4871 0
M  V30 4601 H 406.852 -3.77587 1.04572 0
M  V30 4602 H 408.549 -3.74415 1.43577 0
M  V30 4603 H 405.139 -3.25822 2.78457 0
M  V30 4604 H 409.323 -3.23362 3.76498 0
M  V30 4605 H 404.579 -3.25089 5.1781 0
M  V30 4606 H 408.753 -3.23817 6.16535 0
M  V30 4607 H 406.38 -3.24226 6.87591 0
M  V30 4608 N 407.956 -0.998596 -1.21925 0
M  V30 4609 C 408.903 -0.553621 -2.24062 0
M  V30 4610 C 409.873 0.416999 -1.6078 0
M  V30 4611 O 411.058 0.320482 -1.88089 0
M  V30 4612 C 408.198 0.119959 -3.44891 0
M  V30 4613 C 407.311 -0.893077 -4.22668 0
M  V30 4614 C 406.446 -0.192424 -5.30851 0
M  V30 4615 C 405.485 -1.19344 -6.00353 0
M  V30 4616 N 404.622 -0.520707 -7.00166 0
M  V30 4617 H 409.462 -1.4293 -2.61486 0
M  V30 4618 H 406.999 -0.715838 -1.28507 0
M  V30 4619 H 408.957 0.527459 -4.13852 0
M  V30 4620 H 407.587 0.959389 -3.08214 0
M  V30 4621 H 406.639 -1.41886 -3.52948 0
M  V30 4622 H 407.951 -1.65512 -4.70539 0
M  V30 4623 H 407.105 0.271515 -6.06092 0
M  V30 4624 H 405.844 0.602075 -4.83969 0
M  V30 4625 H 404.849 -1.66795 -5.23889 0
M  V30 4626 H 406.074 -1.98891 -6.49322 0
M  V30 4627 H 404.02 0.254252 -6.55507 0
M  V30 4628 H 403.937 -1.2211 -7.46073 0
M  V30 4629 H 405.205 -0.0797596 -7.79459 0
M  V30 4630 N 409.434 1.37368 -0.772513 0
M  V30 4631 C 410.683 1.98918 -0.333861 0
M  V30 4632 C 410.996 1.62017 1.09589 0
M  V30 4633 O 412.202 2.16676 1.63596 0
M  V30 4634 C 410.658 3.55735 -0.545971 0
M  V30 4635 C 410.266 4.01573 -1.98603 0
M  V30 4636 C 412.01 4.24156 -0.170979 0
M  V30 4637 C 409.917 5.51102 -2.1457 0
M  V30 4638 H 408.847 0.744214 -0.121085 0
M  V30 4639 H 411.498 1.56888 -0.95175 0
M  V30 4640 H 409.88 3.95748 0.141387 0
M  V30 4641 H 411.054 3.72803 -2.7084 0
M  V30 4642 H 409.369 3.45937 -2.31769 0
M  V30 4643 H 411.966 5.34024 -0.26878 0
M  V30 4644 H 412.309 4.06917 0.878855 0
M  V30 4645 H 412.842 3.89447 -0.810914 0
M  V30 4646 H 409.581 5.73268 -3.17875 0
M  V30 4647 H 409.101 5.81554 -1.46817 0
M  V30 4648 H 410.78 6.17083 -1.94468 0
M  V30 4649 N 410.912 0.523116 1.48665 0
M  V30 4650 C 412.14 -0.0096312 2.06898 0
M  V30 4651 C 412.555 -1.28784 1.38059 0
M  V30 4652 O 411.912 -1.76453 0.465893 0
M  V30 4653 C 411.963 -0.244386 3.60673 0
M  V30 4654 O 411.684 0.983172 4.26925 0
M  V30 4655 C 413.185 -0.818289 4.35682 0
M  V30 4656 H 410.405 0.0304161 0.67031 0
M  V30 4657 H 412.949 0.726799 1.91149 0
M  V30 4658 H 411.104 -0.930847 3.76051 0
M  V30 4659 H 411.518 0.759653 5.1897 0
M  V30 4660 H 412.992 -0.93201 5.44075 0
M  V30 4661 H 413.469 -1.82153 3.99646 0
M  V30 4662 H 414.075 -0.168609 4.24966 0
M  V30 4663 N 412.39 -1.55475 0.257931 0
M  V30 4664 C 413.32 -2.24815 -0.630912 0
M  V30 4665 C 414.301 -1.23224 -1.17259 0
M  V30 4666 O 415.486 -1.51904 -1.20991 0
M  V30 4667 C 412.616 -2.95609 -1.82298 0
M  V30 4668 C 411.57 -4.03982 -1.41359 0
M  V30 4669 C 410.896 -4.6226 -2.68738 0
M  V30 4670 C 412.196 -5.19109 -0.57648 0
M  V30 4671 H 413.89 -2.99354 -0.0526878 0
M  V30 4672 H 411.436 -1.4398 -0.023901 0
M  V30 4673 H 413.389 -3.42822 -2.45054 0
M  V30 4674 H 412.113 -2.18577 -2.42676 0
M  V30 4675 H 410.772 -3.57555 -0.809324 0
M  V30 4676 H 410.42 -3.81915 -3.27338 0
M  V30 4677 H 410.12 -5.35424 -2.42065 0
M  V30 4678 H 411.644 -5.12212 -3.32372 0
M  V30 4679 H 413.058 -5.62479 -1.10861 0
M  V30 4680 H 411.455 -5.98729 -0.405351 0
M  V30 4681 H 412.525 -4.83174 0.408776 0
M  V30 4682 N 413.868 0.0150385 -1.57593 0
M  V30 4683 C 414.798 1.01047 -2.10503 0
M  V30 4684 C 415.779 1.36816 -1.01071 0
M  V30 4685 O 416.964 1.45455 -1.28672 0
M  V30 4686 C 414.094 2.30708 -2.59598 0
M  V30 4687 C 413.048 2.09142 -3.73421 0
M  V30 4688 C 412.374 3.44685 -4.08774 0
M  V30 4689 C 413.674 1.46619 -5.01298 0
M  V30 4690 H 415.368 0.569978 -2.93925 0
M  V30 4691 H 412.914 0.272724 -1.41394 0
M  V30 4692 H 414.867 3.00687 -2.95238 0
M  V30 4693 H 413.591 2.76843 -1.73279 0
M  V30 4694 H 412.25 1.41592 -3.38153 0
M  V30 4695 H 411.898 3.88495 -3.195 0
M  V30 4696 H 411.598 3.31077 -4.8545 0
M  V30 4697 H 413.122 4.16004 -4.4696 0
M  V30 4698 H 414.536 2.06535 -5.34805 0
M  V30 4699 H 412.933 1.43544 -5.82679 0
M  V30 4700 H 414.003 0.433611 -4.82957 0
M  V30 4701 N 415.346 1.54954 0.287554 0
M  V30 4702 C 416.276 1.89839 1.35954 0
M  V30 4703 C 417.257 0.758675 1.52244 0
M  V30 4704 O 418.442 1.01557 1.65529 0
M  V30 4705 C 415.572 2.15753 2.72154 0
M  V30 4706 C 414.526 3.3159 2.70614 0
M  V30 4707 C 413.852 3.42952 4.10229 0
M  V30 4708 C 415.152 4.68359 2.31165 0
M  V30 4709 H 416.846 2.79625 1.07007 0
M  V30 4710 H 414.392 1.3454 0.513316 0
M  V30 4711 H 416.345 2.38743 3.47246 0
M  V30 4712 H 415.069 1.22752 3.02654 0
M  V30 4713 H 413.728 3.08545 1.97979 0
M  V30 4714 H 413.376 2.47443 4.37928 0
M  V30 4715 H 413.076 4.20826 4.10097 0
M  V30 4716 H 414.6 3.68218 4.87081 0
M  V30 4717 H 416.014 4.9099 2.95976 0
M  V30 4718 H 414.411 5.49044 2.42221 0
M  V30 4719 H 415.481 4.68165 1.26291 0
M  V30 4720 N 416.824 -0.551391 1.4764 0
M  V30 4721 C 418.072 -1.30572 1.54258 0
M  V30 4722 C 418.393 -1.93877 0.208963 0
M  V30 4723 O 417.663 -1.80234 -0.767619 0
M  V30 4724 H 416.243 -0.484894 0.568231 0
M  V30 4725 H 418.905 -0.643402 1.83974 0
M  V30 4726 H 418.001 -2.09621 2.31226 0
M  V30 4727 N 418.302 -1.35869 -0.798587 0
M  V30 4728 C 419.532 -1.32529 -1.58491 0
M  V30 4729 C 419.94 0.0975405 -1.88948 0
M  V30 4730 O 419.283 1.06224 -1.49874 0
M  V30 4731 C 419.345 -2.07247 -2.9375 0
M  V30 4732 C 419.009 -3.56391 -2.86068 0
M  V30 4733 C 420.006 -4.50824 -2.58947 0
M  V30 4734 C 417.691 -3.9915 -3.04933 0
M  V30 4735 C 419.685 -5.85993 -2.5078 0
M  V30 4736 C 417.372 -5.34413 -2.96389 0
M  V30 4737 C 418.37 -6.27646 -2.69349 0
M  V30 4738 O 418.058 -7.60426 -2.60782 0
M  V30 4739 H 417.79 -0.456529 -0.498556 0
M  V30 4740 H 420.344 -1.79425 -0.999799 0
M  V30 4741 H 418.574 -1.55001 -3.54276 0
M  V30 4742 H 420.263 -1.96883 -3.54954 0
M  V30 4743 H 421.029 -4.19104 -2.44084 0
M  V30 4744 H 416.908 -3.26961 -3.24989 0
M  V30 4745 H 420.452 -6.58735 -2.29595 0
M  V30 4746 H 416.349 -5.65743 -3.10813 0
M  V30 4747 H 417.117 -7.70444 -2.76331 0
M  V30 4748 N 419.78 1.02168 -1.19998 0
M  V30 4749 C 421.005 1.79833 -1.03319 0
M  V30 4750 C 421.43 1.83504 0.413281 0
M  V30 4751 O 420.788 1.26635 1.29743 0
M  V30 4752 C 420.836 3.22396 -1.61533 0
M  V30 4753 O 419.94 4.03555 -0.849519 0
M  V30 4754 H 419.281 0.554872 -0.364709 0
M  V30 4755 H 421.811 1.28542 -1.59179 0
M  V30 4756 H 421.821 3.73124 -1.65054 0
M  V30 4757 H 420.496 3.19039 -2.66809 0
M  V30 4758 H 419.073 3.62169 -0.888129 0
M  V30 4759 N 421.258 1.00505 1.21394 0
M  V30 4760 C 422.504 0.688793 1.90745 0
M  V30 4761 C 422.837 -0.778486 1.77914 0
M  V30 4762 O 422.112 -1.56433 1.15581 0
M  V30 4763 C 422.395 1.11063 3.42545 0
M  V30 4764 C 422.248 2.63737 3.64367 0
M  V30 4765 C 423.567 0.673059 4.34923 0
M  V30 4766 H 420.686 0.251702 0.692687 0
M  V30 4767 H 423.328 1.25074 1.43026 0
M  V30 4768 H 421.478 0.632508 3.83317 0
M  V30 4769 H 423.15 3.19313 3.32922 0
M  V30 4770 H 421.393 3.05248 3.08231 0
M  V30 4771 H 422.064 2.88305 4.70727 0
M  V30 4772 H 424.54 1.08392 4.01734 0
M  V30 4773 H 423.416 0.996383 5.39781 0
M  V30 4774 H 423.677 -0.425808 4.40045 0
M  V30 4775 N 422.737 -1.36956 0.779787 0
M  V30 4776 C 423.984 -1.99491 0.347766 0
M  V30 4777 C 424.312 -1.61898 -1.07793 0
M  V30 4778 O 423.567 -0.86071 -1.75756 0
M  V30 4779 C 423.866 -3.54585 0.447686 0
M  V30 4780 C 423.532 -4.1197 1.83279 0
M  V30 4781 C 422.194 -4.27356 2.2118 0
M  V30 4782 C 424.546 -4.43354 2.74019 0
M  V30 4783 C 421.874 -4.71432 3.4924 0
M  V30 4784 C 424.226 -4.88858 4.01497 0
M  V30 4785 C 422.89 -5.0245 4.39432 0
M  V30 4786 H 422.16 -0.729991 0.127257 0
M  V30 4787 H 424.807 -1.63599 0.995376 0
M  V30 4788 H 423.112 -3.90773 -0.283447 0
M  V30 4789 H 424.809 -4.00888 0.0945948 0
M  V30 4790 H 421.399 -4.00428 1.52825 0
M  V30 4791 H 425.583 -4.31045 2.45995 0
M  V30 4792 H 420.839 -4.80141 3.78516 0
M  V30 4793 H 425.013 -5.12108 4.71931 0
M  V30 4794 H 422.64 -5.36362 5.38721 0
M  V30 4795 N 424.215 -0.530993 -1.48385 0
M  V30 4796 C 425.145 0.219985 -2.32461 0
M  V30 4797 C 426.126 0.934111 -1.42156 0
M  V30 4798 O 427.311 0.919694 -1.71042 0
M  V30 4799 C 424.441 1.26674 -3.23375 0
M  V30 4800 C 423.395 0.67069 -4.22712 0
M  V30 4801 C 422.721 1.82017 -5.02766 0
M  V30 4802 C 424.021 -0.358268 -5.2107 0
M  V30 4803 H 425.715 -0.48187 -2.95497 0
M  V30 4804 H 423.261 -0.233182 -1.42099 0
M  V30 4805 H 425.214 1.80006 -3.81019 0
M  V30 4806 H 423.938 1.99818 -2.58341 0
M  V30 4807 H 422.597 0.158878 -3.66256 0
M  V30 4808 H 422.245 2.54002 -4.34157 0
M  V30 4809 H 421.945 1.42727 -5.70003 0
M  V30 4810 H 423.469 2.35725 -5.63264 0
M  V30 4811 H 424.883 0.0880081 -5.73232 0
M  V30 4812 H 423.28 -0.66861 -5.96364 0
M  V30 4813 H 424.35 -1.26367 -4.68145 0
M  V30 4814 N 425.693 1.55336 -0.266172 0
M  V30 4815 C 426.942 1.98574 0.353749 0
M  V30 4816 C 427.255 1.15789 1.57646 0
M  V30 4817 O 428.461 1.49129 2.26876 0
M  V30 4818 C 426.917 3.53403 0.680747 0
M  V30 4819 C 426.525 4.44953 -0.52165 0
M  V30 4820 C 428.269 4.05251 1.26379 0
M  V30 4821 C 426.176 5.91156 -0.169736 0
M  V30 4822 H 425.106 0.741643 0.135949 0
M  V30 4823 H 427.757 1.79743 -0.369421 0
M  V30 4824 H 426.139 3.68001 1.46257 0
M  V30 4825 H 427.313 4.42121 -1.29869 0
M  V30 4826 H 425.628 4.03691 -1.02093 0
M  V30 4827 H 428.225 5.12021 1.54074 0
M  V30 4828 H 428.568 3.53749 2.19471 0
M  V30 4829 H 429.101 3.94057 0.544447 0
M  V30 4830 H 425.84 6.46736 -1.0683 0
M  V30 4831 H 425.36 5.97079 0.570717 0
M  V30 4832 H 427.039 6.4655 0.241245 0
M  V30 4833 N 427.171 -0.0066808 1.57599 0
M  V30 4834 C 428.42 -0.692078 1.89455 0
M  V30 4835 C 428.733 -1.75306 0.867586 0
M  V30 4836 O 429.939 -2.49262 1.07614 0
M  V30 4837 C 428.395 -1.2821 3.36289 0
M  V30 4838 C 428.003 -0.256291 4.47266 0
M  V30 4839 C 429.747 -1.94608 3.77264 0
M  V30 4840 C 427.654 -0.855927 5.85173 0
M  V30 4841 H 426.584 -0.262252 0.706923 0
M  V30 4842 H 429.235 0.052769 1.83424 0
M  V30 4843 H 427.617 -2.0774 3.37135 0
M  V30 4844 H 428.791 0.513923 4.57925 0
M  V30 4845 H 427.106 0.306862 4.15268 0
M  V30 4846 H 429.703 -2.40364 4.77629 0
M  V30 4847 H 430.046 -2.77382 3.10427 0
M  V30 4848 H 430.579 -1.21822 3.78688 0
M  V30 4849 H 427.318 -0.0671161 6.55466 0
M  V30 4850 H 426.838 -1.59546 5.78191 0
M  V30 4851 H 428.517 -1.35658 6.32618 0
M  V30 4852 N 428.649 -1.55105 -0.279332 0
M  V30 4853 C 429.895 -1.75672 -1.01327 0
M  V30 4854 C 430.228 -0.552739 -1.86168 0
M  V30 4855 O 429.503 0.449827 -1.89227 0
M  V30 4856 C 429.786 -3.05825 -1.90114 0
M  V30 4857 C 429.639 -4.36565 -1.08309 0
M  V30 4858 C 430.958 -3.31975 -2.8893 0
M  V30 4859 H 428.077 -0.639149 -0.366957 0
M  V30 4860 H 430.719 -1.87833 -0.286154 0
M  V30 4861 H 428.869 -2.95588 -2.52111 0
M  V30 4862 H 430.541 -4.58751 -0.484314 0
M  V30 4863 H 428.784 -4.32076 -0.386362 0
M  V30 4864 H 429.455 -5.23946 -1.73737 0
M  V30 4865 H 431.931 -3.41963 -2.37067 0
M  V30 4866 H 430.807 -4.2432 -3.48201 0
M  V30 4867 H 431.068 -2.51309 -3.63725 0
M  V30 4868 N 430.127 0.543554 -1.4793 0
M  V30 4869 C 431.352 1.32995 -1.59145 0
M  V30 4870 C 431.777 1.86472 -0.246956 0
M  V30 4871 O 431.135 1.63696 0.779324 0
M  V30 4872 C 431.183 2.46623 -2.63077 0
M  V30 4873 O 430.287 3.49261 -2.19295 0
M  V30 4874 H 429.628 0.394472 -0.534124 0
M  V30 4875 H 432.158 0.655489 -1.93816 0
M  V30 4876 H 432.168 2.93001 -2.83926 0
M  V30 4877 H 430.843 2.07059 -3.60693 0
M  V30 4878 H 429.42 3.09094 -2.08603 0
M  V30 4879 N 431.605 1.3629 0.791371 0
M  V30 4880 C 432.882 1.20962 1.53712 0
M  V30 4881 C 433.262 -0.205021 2.10102 0
M  V30 4882 O 432.61 -1.21042 1.93807 0
M  V30 4883 C 432.82 2.29002 2.63361 0
M  V30 4884 C 434.168 2.65572 3.31295 0
M  V30 4885 O 435.192 2.2803 2.73643 0
M  V30 4886 O 434.051 3.3018 4.35481 0
M  V30 4887 H 431.145 0.47086 0.679867 0
M  V30 4888 H 433.691 1.48016 0.830021 0
M  V30 4889 H 432.463 3.2382 2.19674 0
M  V30 4890 H 432.086 2.03303 3.41692 0
M  V30 4891 N 433.083 -1.0153 1.20538 0
M  V30 4892 C 434.311 -1.78746 1.04199 0
M  V30 4893 C 434.726 -1.84323 -0.408733 0
M  V30 4894 O 434.083 -1.29714 -1.28377 0
M  V30 4895 C 434.134 -3.23152 1.62035 0
M  V30 4896 O 433.855 -3.17918 3.0143 0
M  V30 4897 C 435.356 -4.16911 1.50666 0
M  V30 4898 H 432.576 -0.56208 0.366479 0
M  V30 4899 H 435.12 -1.27794 1.59653 0
M  V30 4900 H 433.275 -3.71248 1.10697 0
M  V30 4901 H 433.689 -4.08567 3.28897 0
M  V30 4902 H 435.163 -5.16072 1.95892 0
M  V30 4903 H 435.64 -4.36791 0.459363 0
M  V30 4904 H 436.246 -3.74698 2.01201 0
M  V30 4905 N 434.561 -1.01147 -1.20859 0
M  V30 4906 C 435.491 -0.597663 -2.25722 0
M  V30 4907 C 436.472 0.384744 -1.65692 0
M  V30 4908 O 437.657 0.271303 -1.92296 0
M  V30 4909 C 434.787 0.0700149 -3.47229 0
M  V30 4910 C 433.741 -0.832843 -4.19819 0
M  V30 4911 C 433.067 -0.0312202 -5.34691 0
M  V30 4912 C 434.367 -2.1385 -4.76514 0
M  V30 4913 H 436.061 -1.47423 -2.60589 0
M  V30 4914 H 433.607 -0.710301 -1.25263 0
M  V30 4915 H 435.56 0.37103 -4.19763 0
M  V30 4916 H 434.284 0.981259 -3.11511 0
M  V30 4917 H 432.943 -1.11778 -3.49144 0
M  V30 4918 H 432.591 0.881515 -4.95215 0
M  V30 4919 H 432.291 -0.632434 -5.84187 0
M  V30 4920 H 433.815 0.26346 -6.10031 0
M  V30 4921 H 435.229 -1.9002 -5.40893 0
M  V30 4922 H 433.626 -2.69012 -5.36426 0
M  V30 4923 H 434.696 -2.80495 -3.95538 0
M  V30 4924 N 436.039 1.36541 -0.78704 0
M  V30 4925 C 437.45 1.81873 -0.421807 0
M  V30 4926 C 437.801 1.65487 1.05397 0
M  V30 4927 O 436.926 1.17448 1.81755 0
M  V30 4928 C 437.521 3.30192 -0.758841 0
M  V30 4929 C 436.08 3.73743 -0.446468 0
M  V30 4930 C 435.227 2.58844 -0.994728 0
M  V30 4931 H 438.178 1.24796 -0.98039 0
M  V30 4932 H 438.199 3.80468 -0.0490648 0
M  V30 4933 H 437.711 3.42087 -1.83299 0
M  V30 4934 H 435.812 3.6741 0.619739 0
M  V30 4935 H 435.925 4.69272 -0.965415 0
M  V30 4936 H 434.289 2.51245 -0.418087 0
M  V30 4937 H 435.072 2.73525 -2.07458 0
M  V30 4938 N 437.518 0.538854 1.48102 0
M  V30 4939 C 438.481 -0.208395 2.28251 0
M  V30 4940 C 439.481 -0.859656 1.35892 0
M  V30 4941 O 440.671 -0.71834 1.58699 0
M  V30 4942 C 437.803 -1.30252 3.15035 0
M  V30 4943 H 438.996 0.495407 2.9578 0
M  V30 4944 H 436.549 0.295112 1.53489 0
M  V30 4945 H 437.284 -2.0393 2.52157 0
M  V30 4946 H 437.069 -0.840551 3.82985 0
M  V30 4947 H 438.559 -1.82787 3.75471 0
M  V30 4948 N 438.996 -1.55193 0.274407 0
M  V30 4949 C 440.224 -2.03987 -0.345943 0
M  V30 4950 C 440.639 -1.15279 -1.4952 0
M  V30 4951 O 439.996 -0.172759 -1.8168 0
M  V30 4952 C 440.047 -3.51898 -0.827631 0
M  V30 4953 O 439.768 -4.37231 0.275855 0
M  V30 4954 C 441.269 -4.16577 -1.51587 0
M  V30 4955 H 438.489 -0.666335 -0.0789892 0
M  V30 4956 H 441.033 -2.00423 0.406294 0
M  V30 4957 H 439.188 -3.55909 -1.52996 0
M  V30 4958 H 439.602 -5.24415 -0.0943638 0
M  V30 4959 H 441.076 -5.21678 -1.80433 0
M  V30 4960 H 441.553 -3.64707 -2.44716 0
M  V30 4961 H 442.159 -4.16568 -0.857409 0
M  V30 4962 N 440.474 -0.00167713 -1.576 0
M  V30 4963 C 441.437 0.974046 -2.07473 0
M  V30 4964 C 442.437 1.27143 -0.984444 0
M  V30 4965 O 443.627 1.21633 -1.24703 0
M  V30 4966 C 440.759 2.29849 -2.51759 0
M  V30 4967 H 441.952 0.54262 -2.9495 0
M  V30 4968 H 439.505 0.245829 -1.54355 0
M  V30 4969 H 440.24 2.77677 -1.67529 0
M  V30 4970 H 440.025 2.09584 -3.31386 0
M  V30 4971 H 441.515 2.9984 -2.90664 0
M  V30 4972 N 441.952 1.55251 0.271103 0
M  V30 4973 C 443.201 1.75151 1.00025 0
M  V30 4974 C 443.514 0.561041 1.87381 0
M  V30 4975 O 444.72 0.642506 2.63788 0
M  V30 4976 C 443.176 3.09999 1.82835 0
M  V30 4977 C 442.784 4.3662 1.00336 0
M  V30 4978 C 444.528 3.39249 2.55168 0
M  V30 4979 C 442.435 5.62506 1.82595 0
M  V30 4980 H 441.365 0.652877 0.377183 0
M  V30 4981 H 444.016 1.81708 0.255843 0
M  V30 4982 H 442.398 2.97485 2.61378 0
M  V30 4983 H 443.572 4.60055 0.261959 0
M  V30 4984 H 441.887 4.14527 0.394486 0
M  V30 4985 H 444.484 4.3051 3.1712 0
M  V30 4986 H 444.827 2.59467 3.2555 0
M  V30 4987 H 445.36 3.52869 1.83653 0
M  V30 4988 H 442.099 6.45041 1.16631 0
M  V30 4989 H 441.619 5.43211 2.54327 0
M  V30 4990 H 443.298 6.00875 2.39913 0
M  V30 4991 N 443.43 -0.535701 1.48216 0
M  V30 4992 C 444.678 -1.28928 1.55634 0
M  V30 4993 C 444.999 -1.93645 0.229514 0
M  V30 4994 O 444.269 -1.81038 -0.74846 0
M  V30 4995 H 442.849 -0.47884 0.573342 0
M  V30 4996 H 445.511 -0.623853 1.84646 0
M  V30 4997 H 444.607 -2.07157 2.33436 0
M  V30 4998 N 444.908 -1.36708 -0.784132 0
M  V30 4999 C 446.136 -1.34398 -1.57305 0
M  V30 5000 C 446.551 0.0735577 -1.88657 0
M  V30 5001 O 445.908 1.03193 -1.50524 0
M  V30 5002 C 445.959 -2.17053 -2.89085 0
M  V30 5003 O 445.68 -3.53281 -2.59083 0
M  V30 5004 C 447.181 -2.22583 -3.83369 0
M  V30 5005 H 444.401 -0.460819 -0.487736 0
M  V30 5006 H 446.945 -1.79879 -0.972819 0
M  V30 5007 H 445.1 -1.75113 -3.45564 0
M  V30 5008 H 445.514 -3.9647 -3.43383 0
M  V30 5009 H 446.988 -2.84763 -4.72878 0
M  V30 5010 H 447.465 -1.23075 -4.21603 0
M  V30 5011 H 448.071 -2.64781 -3.32823 0
M  V30 5012 N 446.386 1.0089 -1.21074 0
M  V30 5013 C 447.797 1.56056 -1.02486 0
M  V30 5014 C 448.148 1.91728 0.416506 0
M  V30 5015 O 447.273 1.73066 1.29912 0
M  V30 5016 C 447.868 2.83563 -1.85411 0
M  V30 5017 C 446.427 3.3523 -1.71166 0
M  V30 5018 C 445.574 2.0846 -1.82865 0
M  V30 5019 H 448.525 0.831818 -1.35154 0
M  V30 5020 H 448.546 3.55286 -1.36205 0
M  V30 5021 H 448.058 2.57569 -2.9031 0
M  V30 5022 H 446.159 3.66167 -0.689361 0
M  V30 5023 H 446.272 4.06913 -2.52901 0
M  V30 5024 H 444.636 2.21275 -1.26132 0
M  V30 5025 H 445.419 1.84883 -2.89263 0
M  V30 5026 N 447.864 1.01787 1.20321 0
M  V30 5027 C 448.794 0.609625 2.25401 0
M  V30 5028 C 449.775 -0.375951 1.65893 0
M  V30 5029 O 450.96 -0.261101 1.92437 0
M  V30 5030 C 448.09 -0.0515995 3.47262 0
M  V30 5031 C 447.044 0.855095 4.19371 0
M  V30 5032 C 446.37 0.0595757 5.34667 0
M  V30 5033 C 447.67 2.16374 4.75373 0
M  V30 5034 H 449.364 1.48803 2.59804 0
M  V30 5035 H 446.91 0.716934 1.24884 0
M  V30 5036 H 448.863 -0.348764 4.19954 0
M  V30 5037 H 447.587 -0.964726 3.12027 0
M  V30 5038 H 446.246 1.13628 3.48546 0
M  V30 5039 H 445.894 -0.85524 4.95676 0
M  V30 5040 H 445.594 0.663406 5.83843 0
M  V30 5041 H 447.118 -0.231105 6.10162 0
M  V30 5042 H 448.532 1.92885 5.39878 0
M  V30 5043 H 446.929 2.71853 5.34991 0
M  V30 5044 H 447.999 2.82589 3.94045 0
M  V30 5045 N 449.342 -1.36122 0.79427 0
M  V30 5046 C 450.591 -1.98361 0.365464 0
M  V30 5047 C 450.904 -1.6374 -1.06997 0
M  V30 5048 O 452.11 -2.19251 -1.60129 0
M  V30 5049 C 450.566 -3.54821 0.602496 0
M  V30 5050 C 450.174 -3.98362 2.04967 0
M  V30 5051 C 451.918 -4.2383 0.238437 0
M  V30 5052 C 449.825 -5.47619 2.2331 0
M  V30 5053 H 448.755 -0.742193 0.13291 0
M  V30 5054 H 451.406 -1.55354 0.976589 0
M  V30 5055 H 449.788 -3.95922 -0.078409 0
M  V30 5056 H 450.962 -3.68447 2.76737 0
M  V30 5057 H 449.277 -3.42206 2.37243 0
M  V30 5058 H 451.874 -5.33529 0.353705 0
M  V30 5059 H 452.217 -4.08264 -0.814006 0
M  V30 5060 H 452.75 -3.88108 0.872769 0
M  V30 5061 H 449.489 -5.68138 3.26955 0
M  V30 5062 H 449.009 -5.79145 1.5605 0
M  V30 5063 H 450.688 -6.13911 2.0426 0
M  V30 5064 N 450.82 -0.546701 -1.47814 0
M  V30 5065 C 452.068 -0.0187037 -2.02091 0
M  V30 5066 C 452.389 1.33168 -1.42447 0
M  V30 5067 O 451.659 1.86619 -0.595839 0
M  V30 5068 H 450.239 -0.00392531 -0.74699 0
M  V30 5069 H 452.901 -0.714327 -1.81338 0
M  V30 5070 H 451.997 0.0772219 -3.12004 0
M  V30 5071 N 452.299 1.55045 -0.282633 0
M  V30 5072 C 453.545 2.00056 0.332481 0
M  V30 5073 C 453.878 1.1708 1.54939 0
M  V30 5074 O 453.153 0.2427 1.9298 0
M  V30 5075 C 453.436 3.53086 0.70725 0
M  V30 5076 C 453.289 4.46813 -0.517521 0
M  V30 5077 C 454.608 4.12245 1.54084 0
M  V30 5078 H 451.727 0.727268 0.119373 0
M  V30 5079 H 454.369 1.85932 -0.391076 0
M  V30 5080 H 452.519 3.65253 1.32372 0
M  V30 5081 H 454.191 4.46579 -1.15607 0
M  V30 5082 H 452.434 4.18163 -1.1542 0
M  V30 5083 H 453.105 5.51595 -0.211426 0
M  V30 5084 H 455.581 4.03401 1.02013 0
M  V30 5085 H 454.457 5.19515 1.77186 0
M  V30 5086 H 454.718 3.62951 2.52427 0
M  V30 5087 N 453.777 0.010035 1.57597 0
M  V30 5088 C 455.007 -0.682422 1.95004 0
M  V30 5089 C 455.415 -1.67278 0.884014 0
M  V30 5090 O 454.758 -1.83129 -0.144672 0
M  V30 5091 C 454.82 -1.46141 3.28456 0
M  V30 5092 C 454.484 -0.631523 4.52615 0
M  V30 5093 C 455.481 0.0850905 5.1983 0
M  V30 5094 C 453.166 -0.574539 4.99003 0
M  V30 5095 C 455.16 0.847566 6.3174 0
M  V30 5096 C 452.847 0.191655 6.10799 0
M  V30 5097 C 453.845 0.901432 6.77025 0
M  V30 5098 O 453.533 1.65511 7.86677 0
M  V30 5099 H 453.265 -0.194361 0.647456 0
M  V30 5100 H 455.819 0.060312 2.05311 0
M  V30 5101 H 454.049 -2.24885 3.14585 0
M  V30 5102 H 455.738 -2.04016 3.50902 0
M  V30 5103 H 456.504 0.0502812 4.84974 0
M  V30 5104 H 452.383 -1.11654 4.47274 0
M  V30 5105 H 455.927 1.4021 6.83364 0
M  V30 5106 H 451.824 0.228249 6.45096 0
M  V30 5107 H 452.592 1.57287 8.03245 0
M  V30 5108 N 455.255 -1.55392 -0.262866 0
M  V30 5109 C 456.502 -1.76476 -0.993109 0
M  V30 5110 C 456.83 -0.571479 -1.85915 0
M  V30 5111 O 456.085 0.445733 -1.90556 0
M  V30 5112 C 456.384 -3.02889 -1.89718 0
M  V30 5113 C 456.05 -4.34974 -1.18781 0
M  V30 5114 C 454.712 -4.7087 -0.991699 0
M  V30 5115 C 457.064 -5.16695 -0.683798 0
M  V30 5116 C 454.392 -5.86036 -0.279024 0
M  V30 5117 C 456.744 -6.32598 0.0153327 0
M  V30 5118 C 455.408 -6.67127 0.223062 0
M  V30 5119 H 454.678 -0.64577 -0.363404 0
M  V30 5120 H 457.325 -1.89664 -0.264525 0
M  V30 5121 H 455.63 -2.84644 -2.6923 0
M  V30 5122 H 457.327 -3.16399 -2.46359 0
M  V30 5123 H 453.917 -4.06765 -1.35058 0
M  V30 5124 H 458.101 -4.8943 -0.8229 0
M  V30 5125 H 453.357 -6.11306 -0.107456 0
M  V30 5126 H 457.531 -6.95171 0.413584 0
M  V30 5127 H 455.158 -7.56216 0.777265 0
M  V30 5128 N 456.733 0.527833 -1.48498 0
M  V30 5129 C 457.979 1.28545 -1.56857 0
M  V30 5130 C 458.312 1.92678 -0.242651 0
M  V30 5131 O 457.587 1.79394 0.751545 0
M  V30 5132 C 457.87 2.37314 -2.70839 0
M  V30 5133 C 457.723 1.77858 -4.13142 0
M  V30 5134 C 459.042 3.39068 -2.80573 0
M  V30 5135 H 456.161 0.466006 -0.570971 0
M  V30 5136 H 458.803 0.587784 -1.8068 0
M  V30 5137 H 456.953 2.96821 -2.50658 0
M  V30 5138 H 458.625 1.22385 -4.44769 0
M  V30 5139 H 456.868 1.08383 -4.20042 0
M  V30 5140 H 457.539 2.56624 -4.88721 0
M  V30 5141 H 460.015 2.89518 -2.98862 0
M  V30 5142 H 458.891 4.12566 -3.6205 0
M  V30 5143 H 459.152 3.9975 -1.88818 0
M  V30 5144 N 458.211 1.37122 0.776871 0
M  V30 5145 C 459.457 1.32243 1.53752 0
M  V30 5146 C 459.79 -0.0944745 1.9397 0
M  V30 5147 O 459.065 -1.05068 1.6368 0
M  V30 5148 C 459.348 2.25681 2.80607 0
M  V30 5149 C 459.201 3.76127 2.46676 0
M  V30 5150 C 460.52 2.17657 3.82509 0
M  V30 5151 H 457.639 0.481704 0.557791 0
M  V30 5152 H 460.281 1.6778 0.891612 0
M  V30 5153 H 458.431 1.95505 3.35723 0
M  V30 5154 H 460.103 4.16877 1.97513 0
M  V30 5155 H 458.346 3.94946 1.79443 0
M  V30 5156 H 459.017 4.36933 3.37333 0
M  V30 5157 H 461.493 2.44245 3.36873 0
M  V30 5158 H 460.369 2.85185 4.69 0
M  V30 5159 H 460.63 1.16785 4.26396 0
M  V30 5160 N 459.689 -1.00246 1.21608 0
M  V30 5161 C 460.929 -1.75589 1.04631 0
M  V30 5162 C 461.293 -1.87513 -0.412648 0
M  V30 5163 O 462.494 -2.59444 -0.703003 0
M  V30 5164 C 460.765 -3.12893 1.72722 0
M  V30 5165 S 462.324 -4.04095 1.71034 0
M  V30 5166 H 459.142 -0.604133 0.374892 0
M  V30 5167 H 461.744 -1.19927 1.54395 0
M  V30 5168 H 460.448 -3.0185 2.78055 0
M  V30 5169 H 459.979 -3.73628 1.23149 0
M  V30 5170 H 461.994 -4.9045 0.753231 0
M  V30 5171 N 461.167 -1.02423 -1.1978 0
M  V30 5172 C 462.1 -0.545641 -2.21581 0
M  V30 5173 C 463.078 0.411024 -1.57319 0
M  V30 5174 O 464.262 0.329223 -1.85603 0
M  V30 5175 C 461.389 0.204973 -3.38079 0
M  V30 5176 C 460.435 -0.70241 -4.20676 0
M  V30 5177 S 461.268 -2.17595 -4.89298 0
M  V30 5178 C 462.424 -1.43572 -6.09211 0
M  V30 5179 H 462.657 -1.4082 -2.61834 0
M  V30 5180 H 460.19 -0.833771 -1.29952 0
M  V30 5181 H 462.148 0.631924 -4.05607 0
M  V30 5182 H 460.809 1.0432 -2.9627 0
M  V30 5183 H 460.002 -0.123193 -5.03849 0
M  V30 5184 H 459.604 -1.06747 -3.58442 0
M  V30 5185 H 461.896 -0.719806 -6.73665 0
M  V30 5186 H 462.839 -2.24388 -6.71607 0
M  V30 5187 H 463.247 -0.935252 -5.56699 0
M  V30 5188 N 462.645 1.35699 -0.801477 0
M  V30 5189 C 463.608 2.28199 -0.213994 0
M  V30 5190 C 464.608 1.49359 0.595691 0
M  V30 5191 O 465.798 1.69186 0.414921 0
M  V30 5192 C 462.93 3.33587 0.702297 0
M  V30 5193 H 464.123 2.81666 -1.02976 0
M  V30 5194 H 461.676 1.45467 -0.571759 0
M  V30 5195 H 462.411 2.85297 1.54195 0
M  V30 5196 H 462.196 3.91906 0.123484 0
M  V30 5197 H 463.686 4.02638 1.10783 0
M  V30 5198 N 464.123 0.554532 1.47522 0
M  V30 5199 C 465.053 -0.182974 2.32782 0
M  V30 5200 C 466.034 -0.911377 1.43624 0
M  V30 5201 O 467.219 -0.892366 1.72483 0
M  V30 5202 C 464.349 -1.21513 3.25349 0
M  V30 5203 C 463.303 -0.603355 4.23726 0
M  V30 5204 C 462.629 -1.73995 5.05598 0
M  V30 5205 C 463.929 0.441121 5.20434 0
M  V30 5206 H 465.623 0.52882 2.94693 0
M  V30 5207 H 463.169 0.255759 1.41711 0
M  V30 5208 H 465.122 -1.73922 3.83835 0
M  V30 5209 H 463.846 -1.95683 2.61487 0
M  V30 5210 H 462.505 -0.10059 3.66462 0
M  V30 5211 H 462.153 -2.47063 4.38143 0
M  V30 5212 H 461.853 -1.3364 5.72201 0
M  V30 5213 H 463.377 -2.26735 5.66942 0
M  V30 5214 H 464.791 0.00319931 5.733 0
M  V30 5215 H 463.188 0.763402 5.95224 0
M  V30 5216 H 464.258 1.33799 4.66075 0
M  V30 5217 N 465.601 -1.54893 0.290851 0
M  V30 5218 C 466.531 -2.26103 -0.583084 0
M  V30 5219 C 467.512 -1.25684 -1.14619 0
M  V30 5220 O 468.697 -1.54436 -1.17741 0
M  V30 5221 C 465.827 -2.99409 -1.75987 0
M  V30 5222 C 464.781 -4.0689 -1.32758 0
M  V30 5223 C 464.107 -4.67856 -2.58872 0
M  V30 5224 C 465.407 -5.20215 -0.46624 0
M  V30 5225 H 467.101 -2.99398 0.0108214 0
M  V30 5226 H 464.647 -1.43998 0.00664468 0
M  V30 5227 H 466.6 -3.47943 -2.37727 0
M  V30 5228 H 465.324 -2.23675 -2.37985 0
M  V30 5229 H 463.983 -3.59191 -0.733299 0
M  V30 5230 H 463.631 -3.88772 -3.19163 0
M  V30 5231 H 463.331 -5.40438 -2.30653 0
M  V30 5232 H 464.855 -5.19147 -3.21433 0
M  V30 5233 H 466.269 -5.64704 -0.989047 0
M  V30 5234 H 464.666 -5.99455 -0.27826 0
M  V30 5235 H 465.736 -4.82198 0.511173 0
M  V30 5236 N 467.08 -0.0183926 -1.57589 0
M  V30 5237 C 468.326 0.663543 -1.91638 0
M  V30 5238 C 468.659 1.72392 -0.894134 0
M  V30 5239 O 467.934 1.94316 0.0846449 0
M  V30 5240 C 468.217 1.28984 -3.36207 0
M  V30 5241 C 468.07 0.239761 -4.49161 0
M  V30 5242 C 469.389 2.2109 -3.80536 0
M  V30 5243 H 466.508 0.239746 -0.696915 0
M  V30 5244 H 469.15 -0.073456 -1.89858 0
M  V30 5245 H 467.3 1.91799 -3.37854 0
M  V30 5246 H 468.972 -0.390119 -4.59647 0
M  V30 5247 H 467.215 -0.435972 -4.31604 0
M  V30 5248 H 467.886 0.717383 -5.47319 0
M  V30 5249 H 470.362 1.68273 -3.80557 0
M  V30 5250 H 469.238 2.61869 -4.82406 0
M  V30 5251 H 469.499 3.09764 -3.15434 0
M  V30 5252 N 468.558 1.5553 0.254621 0
M  V30 5253 C 469.807 1.76202 0.981612 0
M  V30 5254 C 470.12 0.580883 1.86776 0
M  V30 5255 O 471.326 0.670448 2.63092 0
M  V30 5256 C 469.782 3.11921 1.79537 0
M  V30 5257 C 469.39 4.37659 0.956991 0
M  V30 5258 C 471.134 3.41936 2.51555 0
M  V30 5259 C 469.041 5.64411 1.76619 0
M  V30 5260 H 467.971 0.656841 0.370237 0
M  V30 5261 H 470.622 1.81969 0.236556 0
M  V30 5262 H 469.004 3.00241 2.58208 0
M  V30 5263 H 470.178 4.60307 0.21315 0
M  V30 5264 H 468.493 4.14922 0.350497 0
M  V30 5265 H 471.09 4.33849 3.12536 0
M  V30 5266 H 471.433 2.62905 3.22779 0
M  V30 5267 H 471.966 3.54797 1.799 0
M  V30 5268 H 468.705 6.46241 1.09783 0
M  V30 5269 H 468.225 5.45877 2.48551 0
M  V30 5270 H 469.904 6.03386 2.33527 0
M  V30 5271 N 470.036 -0.519951 1.48776 0
M  V30 5272 C 471.261 -1.30447 1.6124 0
M  V30 5273 C 471.686 -1.86055 0.276591 0
M  V30 5274 O 471.044 -1.64915 -0.753183 0
M  V30 5275 C 471.092 -2.42406 2.66967 0
M  V30 5276 O 470.196 -3.45728 2.24824 0
M  V30 5277 H 469.537 -0.385924 0.540332 0
M  V30 5278 H 472.067 -0.624572 1.94834 0
M  V30 5279 H 472.077 -2.88447 2.88552 0
M  V30 5280 H 470.752 -2.01294 3.63941 0
M  V30 5281 H 469.329 -3.05737 2.13494 0
M  V30 5282 N 471.514 -1.37532 -0.769588 0
M  V30 5283 C 472.444 -1.36172 -1.89682 0
M  V30 5284 C 473.425 -0.23001 -1.68538 0
M  V30 5285 O 474.61 -0.43069 -1.89364 0
M  V30 5286 C 471.74 -1.1701 -3.26995 0
M  V30 5287 C 470.694 -2.27216 -3.62708 0
M  V30 5288 C 470.02 -1.93174 -4.98586 0
M  V30 5289 C 471.32 -3.6941 -3.69234 0
M  V30 5290 H 473.014 -2.30499 -1.91078 0
M  V30 5291 H 470.56 -1.10953 -0.917902 0
M  V30 5292 H 472.513 -1.14688 -4.05493 0
M  V30 5293 H 471.237 -0.191395 -3.26039 0
M  V30 5294 H 469.896 -2.28697 -2.86519 0
M  V30 5295 H 469.544 -0.938281 -4.94171 0
M  V30 5296 H 469.244 -2.66973 -5.23449 0
M  V30 5297 H 470.768 -1.92443 -5.79481 0
M  V30 5298 H 472.182 -3.70047 -4.37879 0
M  V30 5299 H 470.579 -4.4228 -4.05597 0
M  V30 5300 H 471.649 -4.0288 -2.69844 0
M  V30 5301 N 472.992 0.995999 -1.22138 0
M  V30 5302 C 473.955 2.06711 -0.990109 0
M  V30 5303 C 474.955 1.60744 0.0422978 0
M  V30 5304 O 476.145 1.73095 -0.195895 0
M  V30 5305 C 473.277 3.37288 -0.49491 0
M  V30 5306 H 474.47 2.28661 -1.94047 0
M  V30 5307 H 472.023 1.16711 -1.03963 0
M  V30 5308 H 472.758 3.21022 0.459948 0
M  V30 5309 H 472.543 3.71986 -1.23971 0
M  V30 5310 H 474.033 4.16103 -0.353253 0
M  V30 5311 N 474.47 1.03057 1.19235 0
M  V30 5312 C 475.38 0.622922 2.26179 0
M  V30 5313 C 476.396 -0.346113 1.70523 0
M  V30 5314 O 477.572 -0.203572 2.00369 0
M  V30 5315 C 474.637 -0.0182063 3.46695 0
M  V30 5316 C 473.698 0.998546 4.17526 0
M  V30 5317 C 472.931 0.387917 5.32288 0
M  V30 5318 O 473.154 -0.808668 5.64639 0
M  V30 5319 O 472.088 1.1116 5.91546 0
M  V30 5320 H 475.914 1.51363 2.63292 0
M  V30 5321 H 473.499 0.800856 1.26122 0
M  V30 5322 H 475.381 -0.375606 4.19723 0
M  V30 5323 H 474.056 -0.882895 3.11427 0
M  V30 5324 H 472.963 1.40756 3.4661 0
M  V30 5325 H 474.296 1.83366 4.56769 0
M  V30 5326 N 475.948 -1.35272 0.808662 0
M  V30 5327 C 477.176 -2.02946 0.402537 0
M  V30 5328 C 477.591 -1.60937 -0.987147 0
M  V30 5329 O 476.948 -0.807917 -1.63643 0
M  V30 5330 C 476.999 -3.58317 0.47868 0
M  V30 5331 O 476.72 -3.98799 1.81358 0
M  V30 5332 C 478.221 -4.43251 0.0656281 0
M  V30 5333 H 475.441 -0.650831 0.163279 0
M  V30 5334 H 477.985 -1.72849 1.09286 0
M  V30 5335 H 476.14 -3.87055 -0.163415 0
M  V30 5336 H 476.554 -4.93451 1.77781 0
M  V30 5337 H 478.028 -5.51738 0.170017 0
M  V30 5338 H 478.505 -4.27913 -0.989278 0
M  V30 5339 H 479.111 -4.19813 0.68096 0
M  V30 5340 N 477.426 -0.562348 -1.47226 0
M  V30 5341 C 478.675 -0.038041 -2.01664 0
M  V30 5342 C 478.988 1.32199 -1.44162 0
M  V30 5343 O 480.194 1.9365 -1.90294 0
M  V30 5344 C 478.65 -0.0174958 -3.59896 0
M  V30 5345 C 478.258 -1.3746 -4.2639 0
M  V30 5346 C 480.002 0.453934 -4.22066 0
M  V30 5347 C 477.909 -1.31289 -5.76643 0
M  V30 5348 H 476.839 -0.0104511 -0.753928 0
M  V30 5349 H 479.49 -0.710966 -1.69167 0
M  V30 5350 H 477.872 0.721182 -3.89378 0
M  V30 5351 H 479.046 -2.1314 -4.08544 0
M  V30 5352 H 477.361 -1.78438 -3.7623 0
M  V30 5353 H 479.958 0.518584 -5.32179 0
M  V30 5354 H 480.301 1.46706 -3.89594 0
M  V30 5355 H 480.834 -0.230044 -3.97134 0
M  V30 5356 H 477.573 -2.30217 -6.13743 0
M  V30 5357 H 477.093 -0.597973 -5.96812 0
M  V30 5358 H 478.772 -1.01713 -6.38955 0
M  V30 5359 N 478.904 1.54736 -0.299062 0
M  V30 5360 C 480.151 2.00101 0.310784 0
M  V30 5361 C 480.479 1.18746 1.54045 0
M  V30 5362 O 479.734 0.251198 1.94081 0
M  V30 5363 C 480.033 3.50199 0.713835 0
M  V30 5364 C 479.699 4.48997 -0.413873 0
M  V30 5365 C 478.361 4.7573 -0.723462 0
M  V30 5366 C 480.713 5.07839 -1.17257 0
M  V30 5367 C 478.041 5.5857 -1.79491 0
M  V30 5368 C 480.393 5.91844 -2.23392 0
M  V30 5369 C 479.057 6.16889 -2.54959 0
M  V30 5370 H 478.327 0.732221 0.113724 0
M  V30 5371 H 480.974 1.86888 -0.417756 0
M  V30 5372 H 479.279 3.61012 1.52243 0
M  V30 5373 H 480.976 3.82723 1.19684 0
M  V30 5374 H 477.566 4.28292 -0.162476 0
M  V30 5375 H 481.75 4.87188 -0.946651 0
M  V30 5376 H 477.006 5.76213 -2.04423 0
M  V30 5377 H 481.18 6.36465 -2.8264 0
M  V30 5378 H 478.807 6.80869 -3.38114 0
M  V30 5379 N 480.382 0.0267497 1.57577 0
M  V30 5380 C 481.631 -0.651736 1.9088 0
M  V30 5381 C 481.944 -1.73427 0.904576 0
M  V30 5382 O 483.15 -2.46923 1.12877 0
M  V30 5383 C 481.606 -1.21048 3.38933 0
M  V30 5384 C 481.214 -0.161362 4.47709 0
M  V30 5385 C 482.958 -1.86562 3.81307 0
M  V30 5386 C 480.865 -0.731611 5.86857 0
M  V30 5387 H 479.795 -0.247198 0.712326 0
M  V30 5388 H 482.446 0.0916641 1.83271 0
M  V30 5389 H 480.828 -2.00542 3.41466 0
M  V30 5390 H 482.002 0.61094 4.56732 0
M  V30 5391 H 480.317 0.394877 4.14523 0
M  V30 5392 H 482.914 -2.30178 4.8262 0
M  V30 5393 H 483.257 -2.70735 3.16241 0
M  V30 5394 H 483.79 -1.13762 3.81186 0
M  V30 5395 H 480.529 0.0719329 6.55461 0
M  V30 5396 H 480.049 -1.47245 5.81445 0
M  V30 5397 H 481.728 -1.22208 6.35354 0
M  V30 5398 N 481.861 -1.55662 -0.24637 0
M  V30 5399 C 483.107 -1.77782 -0.975779 0
M  V30 5400 C 483.44 -0.592103 -1.84953 0
M  V30 5401 O 482.715 0.409588 -1.90138 0
M  V30 5402 C 482.998 -3.09788 -1.83584 0
M  V30 5403 C 482.851 -4.38764 -0.990241 0
M  V30 5404 C 484.17 -3.38029 -2.81823 0
M  V30 5405 H 481.289 -0.646789 -0.353317 0
M  V30 5406 H 483.931 -1.88398 -0.246248 0
M  V30 5407 H 482.081 -3.00869 -2.45784 0
M  V30 5408 H 483.753 -4.59675 -0.386897 0
M  V30 5409 H 481.996 -4.32798 -0.294626 0
M  V30 5410 H 482.667 -5.27514 -1.62584 0
M  V30 5411 H 485.143 -3.46915 -2.2976 0
M  V30 5412 H 484.019 -4.3161 -3.39122 0
M  V30 5413 H 484.28 -2.58968 -3.58313 0
M  V30 5414 N 483.339 0.512053 -1.4905 0
M  V30 5415 C 484.755 0.84224 -1.35567 0
M  V30 5416 C 484.955 1.97878 -0.380319 0
M  V30 5417 O 484.011 2.51769 0.19201 0
M  V30 5418 C 485.324 1.19286 -2.76028 0
M  V30 5419 C 486.872 1.30171 -2.84648 0
M  V30 5420 C 487.347 1.68568 -4.25851 0
M  V30 5421 N 488.838 1.75638 -4.28609 0
M  V30 5422 C 489.573 2.06769 -5.34821 0
M  V30 5423 N 489.069 2.36201 -6.51292 0
M  V30 5424 N 490.862 2.07927 -5.22229 0
M  V30 5425 H 483.013 -0.237574 -2.11067 0
M  V30 5426 H 485.276 -0.0436747 -0.946993 0
M  V30 5427 H 484.982 0.431199 -3.49047 0
M  V30 5428 H 484.856 2.13889 -3.10695 0
M  V30 5429 H 487.243 2.05411 -2.11873 0
M  V30 5430 H 487.324 0.336457 -2.53578 0
M  V30 5431 H 486.968 0.938824 -4.99148 0
M  V30 5432 H 486.898 2.66174 -4.54377 0
M  V30 5433 H 489.389 1.55097 -3.44606 0
M  V30 5434 H 489.702 2.59112 -7.28066 0
M  V30 5435 H 488.047 2.33681 -6.54536 0
M  V30 5436 H 491.238 1.84403 -4.30248 0
M  V30 5437 H 491.411 2.31856 -6.05101 0
M  V30 5438 N 484.817 1.37938 0.762283 0
M  V30 5439 C 485.747 1.37176 1.88958 0
M  V30 5440 C 486.728 0.238945 1.68413 0
M  V30 5441 O 487.913 0.440726 1.89133 0
M  V30 5442 C 485.043 1.18742 3.2637 0
M  V30 5443 C 483.997 2.29136 3.61498 0
M  V30 5444 C 483.323 1.95816 4.97554 0
M  V30 5445 C 484.623 3.71363 3.6727 0
M  V30 5446 H 486.317 2.31509 1.89853 0
M  V30 5447 H 483.863 1.11438 0.912005 0
M  V30 5448 H 485.816 1.16837 4.04879 0
M  V30 5449 H 484.54 0.208683 3.25933 0
M  V30 5450 H 483.199 2.30213 2.85303 0
M  V30 5451 H 482.847 0.964475 4.93667 0
M  V30 5452 H 482.547 2.69745 5.22026 0
M  V30 5453 H 484.071 1.95513 5.78452 0
M  V30 5454 H 485.485 3.72364 4.35911 0
M  V30 5455 H 483.882 4.44425 4.03245 0
M  V30 5456 H 484.952 4.04305 2.67704 0
M  V30 5457 N 486.295 -0.989507 1.22664 0
M  V30 5458 C 487.541 -1.7321 1.05481 0
M  V30 5459 C 487.874 -1.89852 -0.408635 0
M  V30 5460 O 487.149 -1.44416 -1.30285 0
M  V30 5461 C 487.432 -3.1357 1.77047 0
M  V30 5462 C 487.285 -3.04555 3.31008 0
M  V30 5463 C 488.604 -4.12812 1.5256 0
M  V30 5464 H 485.723 -0.628697 0.384589 0
M  V30 5465 H 488.365 -1.15258 1.51049 0
M  V30 5466 H 486.515 -3.63046 1.3831 0
M  V30 5467 H 488.187 -2.62674 3.7921 0
M  V30 5468 H 486.43 -2.41278 3.6051 0
M  V30 5469 H 487.101 -4.03894 3.76263 0
M  V30 5470 H 489.577 -3.72106 1.86215 0
M  V30 5471 H 488.453 -5.09132 2.05124 0
M  V30 5472 H 488.714 -4.39711 0.458936 0
M  V30 5473 N 487.773 -1.03688 -1.18687 0
M  V30 5474 C 488.723 -0.595067 -2.20098 0
M  V30 5475 C 489.707 0.360465 -1.5681 0
M  V30 5476 O 490.899 0.180136 -1.76081 0
M  V30 5477 C 488.028 0.0444495 -3.43271 0
M  V30 5478 C 487.114 -0.934002 -4.13687 0
M  V30 5479 N 487.505 -2.09957 -4.60165 0
M  V30 5480 C 485.803 -0.759177 -4.39491 0
M  V30 5481 C 486.504 -2.71735 -5.1433 0
M  V30 5482 N 485.48 -1.99638 -5.05614 0
M  V30 5483 H 489.282 -1.48336 -2.5372 0
M  V30 5484 H 486.796 -0.904949 -1.3485 0
M  V30 5485 H 488.793 0.37864 -4.15177 0
M  V30 5486 H 487.453 0.928325 -3.11147 0
M  V30 5487 H 488.464 -2.47863 -4.54735 0
M  V30 5488 H 485.141 0.0749292 -4.17433 0
M  V30 5489 H 486.531 -3.70492 -5.60523 0
M  V30 5490 N 489.251 1.34841 -0.815825 0
M  V30 5491 C 490.198 2.29644 -0.230664 0
M  V30 5492 C 491.168 1.53253 0.640533 0
M  V30 5493 O 492.353 1.81653 0.583672 0
M  V30 5494 C 489.493 3.39715 0.607275 0
M  V30 5495 C 488.606 4.31056 -0.28538 0
M  V30 5496 C 487.741 5.28225 0.561446 0
M  V30 5497 C 486.78 6.11204 -0.331035 0
M  V30 5498 N 485.917 7.00483 0.476302 0
M  V30 5499 H 490.757 2.79095 -1.0445 0
M  V30 5500 H 488.294 1.37351 -0.526595 0
M  V30 5501 H 490.252 4.02208 1.10835 0
M  V30 5502 H 488.882 2.91517 1.38629 0
M  V30 5503 H 487.934 3.69487 -0.904621 0
M  V30 5504 H 489.246 4.89239 -0.97193 0
M  V30 5505 H 488.4 5.96135 1.12728 0
M  V30 5506 H 487.139 4.70562 1.28153 0
M  V30 5507 H 486.144 5.42232 -0.909069 0
M  V30 5508 H 487.369 6.70947 -1.04912 0
M  V30 5509 H 485.315 6.45296 1.18019 0
M  V30 5510 H 485.232 7.55847 -0.152008 0
M  V30 5511 H 486.5 7.7273 1.02512 0
M  V30 5512 N 490.729 0.570148 1.46925 0
M  V30 5513 C 491.661 -0.207909 2.28255 0
M  V30 5514 C 492.674 -0.867301 1.37774 0
M  V30 5515 O 493.863 -0.738976 1.62485 0
M  V30 5516 C 490.963 -1.31298 3.12433 0
M  V30 5517 C 490.136 -0.747915 4.30958 0
M  V30 5518 C 489.195 -1.7391 4.9663 0
M  V30 5519 O 488.221 -1.2801 5.54619 0
M  V30 5520 N 489.423 -3.07288 4.92498 0
M  V30 5521 H 492.188 0.489794 2.95671 0
M  V30 5522 H 489.749 0.407076 1.56699 0
M  V30 5523 H 491.741 -1.97507 3.53232 0
M  V30 5524 H 490.311 -1.91373 2.47175 0
M  V30 5525 H 489.531 0.0913066 3.94094 0
M  V30 5526 H 490.819 -0.349958 5.07595 0
M  V30 5527 H 490.217 -3.47213 4.46609 0
M  V30 5528 H 488.774 -3.69021 5.37277 0
M  V30 5529 N 492.207 -1.54576 0.307264 0
M  V30 5530 C 493.484 -1.92377 -0.353605 0
M  V30 5531 C 493.864 -1.23517 -1.71192 0
M  V30 5532 O 493.212 -0.373101 -2.25433 0
M  V30 5533 C 493.422 -3.45928 -0.462039 0
M  V30 5534 C 494.77 -4.18278 -0.729975 0
M  V30 5535 O 495.794 -3.51997 -0.545605 0
M  V30 5536 O 494.653 -5.3563 -1.08454 0
M  V30 5537 H 491.747 -0.802747 -0.198812 0
M  V30 5538 H 494.293 -1.65929 0.355783 0
M  V30 5539 H 493.065 -3.88187 0.492592 0
M  V30 5540 H 492.688 -3.78431 -1.21965 0
M  V30 5541 N 493.685 -0.035106 -1.57561 0
M  V30 5542 C 494.615 0.942993 -2.13612 0
M  V30 5543 C 495.596 1.33531 -1.05373 0
M  V30 5544 O 496.781 1.41287 -1.33235 0
M  V30 5545 C 493.911 2.22332 -2.66807 0
M  V30 5546 C 492.865 1.97156 -3.79886 0
M  V30 5547 C 492.191 3.31506 -4.19533 0
M  V30 5548 C 493.491 1.30596 -5.05709 0
M  V30 5549 H 495.185 0.476179 -2.95589 0
M  V30 5550 H 492.731 0.227602 -1.4219 0
M  V30 5551 H 494.684 2.91142 -3.04654 0
M  V30 5552 H 493.408 2.7119 -1.81999 0
M  V30 5553 H 492.067 1.30763 -3.42486 0
M  V30 5554 H 491.715 3.78134 -3.31698 0
M  V30 5555 H 491.415 3.15465 -4.95738 0
M  V30 5556 H 492.939 4.01574 -4.59968 0
M  V30 5557 H 494.353 1.89416 -5.41105 0
M  V30 5558 H 492.75 1.24934 -5.86951 0
M  V30 5559 H 493.82 0.279742 -4.84092 0
M  V30 5560 N 495.163 1.55791 0.238111 0
M  V30 5561 C 496.095 1.87513 1.31802 0
M  V30 5562 C 497.108 0.762053 1.43863 0
M  V30 5563 O 498.297 1.04024 1.45056 0
M  V30 5564 C 495.397 2.05402 2.69561 0
M  V30 5565 C 494.57 3.3632 2.79656 0
M  V30 5566 C 493.629 3.43844 3.98319 0
M  V30 5567 O 492.655 4.16994 3.87433 0
M  V30 5568 N 493.857 2.73777 5.11885 0
M  V30 5569 H 496.622 2.80734 1.04922 0
M  V30 5570 H 494.183 1.56135 0.428196 0
M  V30 5571 H 496.175 2.07769 3.47296 0
M  V30 5572 H 494.745 1.18884 2.89111 0
M  V30 5573 H 493.965 3.46195 1.88528 0
M  V30 5574 H 495.253 4.22594 2.83358 0
M  V30 5575 H 494.651 2.14094 5.23622 0
M  V30 5576 H 493.208 2.81825 5.87723 0
M  V30 5577 N 496.642 -0.504142 1.49319 0
M  V30 5578 C 497.574 -1.62265 1.61872 0
M  V30 5579 C 498.587 -1.54881 0.501573 0
M  V30 5580 O 499.776 -1.6087 0.773497 0
M  V30 5581 C 496.876 -3.01042 1.55651 0
M  V30 5582 C 496.049 -3.33642 2.82845 0
M  V30 5583 C 495.108 -4.51816 2.69719 0
M  V30 5584 O 494.134 -4.53755 3.4365 0
M  V30 5585 N 495.336 -5.51543 1.81055 0
M  V30 5586 H 498.101 -1.51924 2.58339 0
M  V30 5587 H 495.662 -0.691954 1.46368 0
M  V30 5588 H 497.654 -3.78013 1.44528 0
M  V30 5589 H 496.224 -3.05323 0.670546 0
M  V30 5590 H 495.444 -2.45598 3.08343 0
M  V30 5591 H 496.732 -3.5222 3.67177 0
M  V30 5592 H 496.13 -5.52774 1.20241 0
M  V30 5593 H 494.687 -6.27629 1.75856 0
M  V30 5594 N 498.12 -1.38341 -0.754957 0
M  V30 5595 C 499.531 -1.30803 -1.3322 0
M  V30 5596 C 499.882 0.0368 -1.96165 0
M  V30 5597 O 499.007 0.938844 -1.94974 0
M  V30 5598 C 499.602 -2.3688 -2.42225 0
M  V30 5599 C 498.161 -2.32925 -2.95674 0
M  V30 5600 C 497.308 -2.19819 -1.69042 0
M  V30 5601 H 500.259 -1.48719 -0.553937 0
M  V30 5602 H 500.28 -2.02517 -3.22129 0
M  V30 5603 H 499.792 -3.34747 -1.96383 0
M  V30 5604 H 497.893 -1.38635 -3.45848 0
M  V30 5605 H 498.006 -3.27008 -3.50146 0
M  V30 5606 H 496.37 -1.66648 -1.92615 0
M  V30 5607 H 497.153 -3.19625 -1.25279 0
M  V30 5608 N 499.598 0.982988 -1.23187 0
M  V30 5609 C 500.844 1.72648 -1.06398 0
M  V30 5610 C 501.177 1.90066 0.398561 0
M  V30 5611 O 500.452 1.45105 1.29518 0
M  V30 5612 C 500.735 3.12627 -1.78707 0
M  V30 5613 C 500.588 3.02795 -3.32618 0
M  V30 5614 C 501.907 4.11997 -1.54747 0
M  V30 5615 H 499.026 0.626649 -0.387918 0
M  V30 5616 H 501.668 1.14455 -1.51658 0
M  V30 5617 H 499.818 3.62308 -1.40234 0
M  V30 5618 H 501.49 2.60659 -3.80598 0
M  V30 5619 H 499.733 2.39362 -3.61785 0
M  V30 5620 H 500.404 4.01893 -3.78399 0
M  V30 5621 H 502.88 3.71114 -1.88186 0
M  V30 5622 H 501.756 5.08037 -2.07821 0
M  V30 5623 H 502.017 4.39462 -0.482249 0
M  V30 5624 N 501.076 1.04316 1.18135 0
M  V30 5625 C 502.487 0.775505 1.69832 0
M  V30 5626 C 502.838 -0.703348 1.8316 0
M  V30 5627 O 501.963 -1.54729 1.51287 0
M  V30 5628 C 502.558 1.40112 3.0847 0
M  V30 5629 C 501.117 1.18172 3.57368 0
M  V30 5630 C 500.264 1.49022 2.33854 0
M  V30 5631 H 503.215 1.20925 1.02775 0
M  V30 5632 H 503.236 0.805672 3.71873 0
M  V30 5633 H 502.748 2.47744 2.98738 0
M  V30 5634 H 500.849 0.124258 3.72393 0
M  V30 5635 H 500.962 1.8805 4.40652 0
M  V30 5636 H 499.326 0.909995 2.37889 0
M  V30 5637 H 500.109 2.57768 2.26738 0
M  V30 5638 N 502.554 -1.34406 0.822964 0
M  V30 5639 C 503.517 -2.2783 0.250271 0
M  V30 5640 C 504.517 -1.50288 -0.571854 0
M  V30 5641 O 505.707 -1.69825 -0.387952 0
M  V30 5642 C 502.839 -3.34663 -0.649137 0
M  V30 5643 H 504.032 -2.79992 1.07444 0
M  V30 5644 H 501.585 -1.44539 0.594829 0
M  V30 5645 H 502.32 -2.87714 -1.49637 0
M  V30 5646 H 502.105 -3.92052 -0.0611199 0
M  V30 5647 H 503.595 -4.04349 -1.04363 0
M  V30 5648 N 504.032 -0.577932 -1.46621 0
M  V30 5649 C 505.278 -0.0700937 -2.03279 0
M  V30 5650 C 505.633 1.27376 -1.44198 0
M  V30 5651 O 504.926 1.82097 -0.595911 0
M  V30 5652 C 505.12 0.0590832 -3.57351 0
M  V30 5653 C 504.949 -1.2707 -4.31374 0
M  V30 5654 C 503.719 -1.84357 -4.70469 0
M  V30 5655 C 505.917 -2.19278 -4.65211 0
M  V30 5656 N 503.899 -3.11124 -5.29221 0
M  V30 5657 C 505.27 -3.30631 -5.24484 0
M  V30 5658 C 507.325 -2.19018 -4.47142 0
M  V30 5659 C 506.028 -4.41849 -5.67593 0
M  V30 5660 C 508.054 -3.29262 -4.91264 0
M  V30 5661 C 507.416 -4.39335 -5.50604 0
M  V30 5662 H 503.515 -0.0683127 -0.779011 0
M  V30 5663 H 506.099 -0.76978 -1.78836 0
M  V30 5664 H 504.27 0.727929 -3.81518 0
M  V30 5665 H 506.002 0.57087 -4.00653 0
M  V30 5666 H 502.757 -1.37906 -4.53077 0
M  V30 5667 H 503.181 -3.75794 -5.63123 0
M  V30 5668 H 507.823 -1.35191 -4.00604 0
M  V30 5669 H 505.541 -5.26421 -6.13112 0
M  V30 5670 H 509.127 -3.30172 -4.79038 0
M  V30 5671 H 508.007 -5.23233 -5.84121 0
M  V30 5672 N 505.51 1.54411 -0.315457 0
M  V30 5673 C 506.44 2.27002 0.547039 0
M  V30 5674 C 507.421 1.27492 1.12605 0
M  V30 5675 O 508.606 1.5629 1.15269 0
M  V30 5676 C 505.736 3.02171 1.71201 0
M  V30 5677 C 504.69 4.0895 1.26268 0
M  V30 5678 C 504.016 4.71915 2.51396 0
M  V30 5679 C 505.316 5.20891 0.383419 0
M  V30 5680 H 507.01 2.99343 -0.0584517 0
M  V30 5681 H 504.556 1.4397 -0.0295527 0
M  V30 5682 H 506.509 3.51681 2.32161 0
M  V30 5683 H 505.233 2.27433 2.34397 0
M  V30 5684 H 503.892 3.60312 0.676062 0
M  V30 5685 H 503.54 3.93801 3.12937 0
M  V30 5686 H 503.24 5.44039 2.22026 0
M  V30 5687 H 504.764 5.24195 3.13133 0
M  V30 5688 H 506.178 5.66206 0.899082 0
M  V30 5689 H 504.575 5.99821 0.182857 0
M  V30 5690 H 505.645 4.81324 -0.587821 0
M  V30 5691 N 506.988 0.0434614 1.5754 0
M  V30 5692 C 508.404 -0.313039 1.565 0
M  V30 5693 C 508.604 -1.71954 1.05043 0
M  V30 5694 O 507.66 -2.425 0.703564 0
M  V30 5695 C 508.973 -0.148544 3.00333 0
M  V30 5696 C 510.521 -0.220231 3.12224 0
M  V30 5697 C 510.996 -0.0843565 4.57922 0
M  V30 5698 N 512.487 -0.140881 4.62986 0
M  V30 5699 C 513.222 -0.0597443 5.73369 0
M  V30 5700 N 512.718 0.0733004 6.92761 0
M  V30 5701 N 514.511 -0.11477 5.61983 0
M  V30 5702 H 506.662 0.96303 1.89313 0
M  V30 5703 H 508.925 0.373164 0.871466 0
M  V30 5704 H 508.631 0.820894 3.41986 0
M  V30 5705 H 508.505 -0.912798 3.65989 0
M  V30 5706 H 510.892 -1.18014 2.70475 0
M  V30 5707 H 510.973 0.574646 2.49262 0
M  V30 5708 H 510.617 0.872192 5.00355 0
M  V30 5709 H 510.547 -0.898281 5.18882 0
M  V30 5710 H 513.038 -0.243273 3.77116 0
M  V30 5711 H 513.351 0.128128 7.72694 0
M  V30 5712 H 511.696 0.10828 6.94916 0
M  V30 5713 H 514.887 -0.217212 4.67596 0
M  V30 5714 H 515.06 -0.0480779 6.47982 0
M  V30 5715 N 508.466 -1.55915 -0.229846 0
M  V30 5716 C 509.416 -1.8813 -1.28807 0
M  V30 5717 C 510.4 -0.743621 -1.42685 0
M  V30 5718 O 511.592 -1.00588 -1.4564 0
M  V30 5719 C 508.721 -2.19431 -2.64017 0
M  V30 5720 C 507.807 -3.39569 -2.54074 0
M  V30 5721 N 508.198 -4.58404 -2.13774 0
M  V30 5722 C 506.496 -3.43019 -2.85051 0
M  V30 5723 C 507.197 -5.40557 -2.1488 0
M  V30 5724 N 506.173 -4.80054 -2.55047 0
M  V30 5725 H 509.975 -2.77527 -0.967261 0
M  V30 5726 H 507.489 -1.5637 -0.438433 0
M  V30 5727 H 509.486 -2.40681 -3.40409 0
M  V30 5728 H 508.146 -1.31341 -2.9695 0
M  V30 5729 H 509.157 -4.83716 -1.8504 0
M  V30 5730 H 505.834 -2.65249 -3.22411 0
M  V30 5731 H 507.224 -6.45666 -1.85918 0
M  V30 5732 N 509.944 0.496216 -1.49584 0
M  V30 5733 C 510.874 1.60576 -1.69521 0
M  V30 5734 C 511.855 1.61169 -0.543933 0
M  V30 5735 O 513.04 1.77834 -0.78031 0
M  V30 5736 C 510.17 2.99038 -1.76616 0
M  V30 5737 C 509.124 3.13312 -2.91581 0
M  V30 5738 C 508.45 4.53172 -2.83794 0
M  V30 5739 C 509.75 2.92886 -4.32452 0
M  V30 5740 H 511.444 1.44146 -2.62416 0
M  V30 5741 H 508.99 0.692024 -1.26282 0
M  V30 5742 H 510.943 3.76564 -1.8915 0
M  V30 5743 H 509.667 3.16568 -0.80324 0
M  V30 5744 H 508.326 2.38213 -2.78658 0
M  V30 5745 H 507.974 4.67585 -1.854 0
M  V30 5746 H 507.674 4.63662 -3.60958 0
M  V30 5747 H 509.198 5.32752 -2.98342 0
M  V30 5748 H 510.612 3.60178 -4.46032 0
M  V30 5749 H 509.009 3.14844 -5.10875 0
M  V30 5750 H 510.079 1.88966 -4.46565 0
M  V30 5751 N 511.423 1.38739 0.74761 0
M  V30 5752 C 512.669 1.35475 1.50912 0
M  V30 5753 C 513.002 -0.0533093 1.94127 0
M  V30 5754 O 512.277 -1.01572 1.65871 0
M  V30 5755 C 512.56 2.31582 2.75757 0
M  V30 5756 C 512.413 3.81274 2.38642 0
M  V30 5757 C 513.732 2.25722 3.77806 0
M  V30 5758 H 510.851 0.493427 0.547447 0
M  V30 5759 H 513.493 1.69634 0.855823 0
M  V30 5760 H 511.643 2.02582 3.31501 0
M  V30 5761 H 513.315 4.20972 1.88626 0
M  V30 5762 H 511.558 3.98664 1.71025 0
M  V30 5763 H 512.229 4.4399 3.27989 0
M  V30 5764 H 514.705 2.51336 3.31616 0
M  V30 5765 H 513.581 2.95069 4.62845 0
M  V30 5766 H 513.842 1.25803 4.23823 0
M  V30 5767 N 512.901 -0.976442 1.23707 0
M  V30 5768 C 513.831 -2.08749 1.04624 0
M  V30 5769 C 514.812 -1.70057 -0.0380956 0
M  V30 5770 O 515.997 -1.93782 0.127308 0
M  V30 5771 C 513.127 -3.41335 0.640902 0
M  V30 5772 C 512.081 -3.93947 1.67302 0
M  V30 5773 C 511.407 -5.22774 1.12301 0
M  V30 5774 C 512.707 -4.22769 3.06697 0
M  V30 5775 H 514.401 -2.24972 1.97555 0
M  V30 5776 H 511.947 -1.08108 0.951247 0
M  V30 5777 H 513.9 -4.18489 0.494434 0
M  V30 5778 H 512.624 -3.24988 -0.324099 0
M  V30 5779 H 511.283 -3.18941 1.80755 0
M  V30 5780 H 510.931 -5.0278 0.148877 0
M  V30 5781 H 510.631 -5.58942 1.81267 0
M  V30 5782 H 512.155 -6.02546 0.988479 0
M  V30 5783 H 513.569 -4.90659 2.96524 0
M  V30 5784 H 511.966 -4.70147 3.72937 0
M  V30 5785 H 513.036 -3.29885 3.55392 0
M  V30 5786 N 514.379 -1.04941 -1.1758 0
M  V30 5787 C 515.289 -0.658826 -2.25159 0
M  V30 5788 C 516.305 0.318941 -1.71052 0
M  V30 5789 O 517.481 0.171669 -2.00667 0
M  V30 5790 C 514.546 -0.0369522 -3.4668 0
M  V30 5791 C 513.607 -1.06484 -4.15884 0
M  V30 5792 C 512.84 -0.472551 -5.31604 0
M  V30 5793 O 513.063 0.718736 -5.65854 0
M  V30 5794 O 511.997 -1.20557 -5.89703 0
M  V30 5795 H 515.823 -1.55533 -2.60851 0
M  V30 5796 H 513.408 -0.820819 -1.24832 0
M  V30 5797 H 515.29 0.308784 -4.20267 0
M  V30 5798 H 513.965 0.833238 -3.12792 0
M  V30 5799 H 512.872 -1.46253 -3.44327 0
M  V30 5800 H 514.205 -1.9061 -4.53794 0
M  V30 5801 N 515.857 1.33968 -0.830081 0
M  V30 5802 C 517.273 1.51003 -0.516742 0
M  V30 5803 C 517.473 1.77286 0.957694 0
M  V30 5804 O 516.529 1.82797 1.74188 0
M  V30 5805 C 517.842 2.67036 -1.38247 0
M  V30 5806 C 519.39 2.80919 -1.38034 0
M  V30 5807 C 519.865 4.00004 -2.23071 0
M  V30 5808 N 521.356 4.07224 -2.20733 0
M  V30 5809 C 522.091 4.98541 -2.83275 0
M  V30 5810 N 521.587 5.95033 -3.54835 0
M  V30 5811 N 523.38 4.91469 -2.72791 0
M  V30 5812 H 515.531 1.15168 -1.78466 0
M  V30 5813 H 517.794 0.565443 -0.760906 0
M  V30 5814 H 517.5 2.54266 -2.42985 0
M  V30 5815 H 517.374 3.62226 -1.05225 0
M  V30 5816 H 519.761 2.93127 -0.340713 0
M  V30 5817 H 519.842 1.86517 -1.75057 0
M  V30 5818 H 519.486 3.88557 -3.27087 0
M  V30 5819 H 519.416 4.93634 -1.83394 0
M  V30 5820 H 521.907 3.38162 -1.68687 0
M  V30 5821 H 522.22 6.61357 -3.99784 0
M  V30 5822 H 520.565 5.95135 -3.58942 0
M  V30 5823 H 523.756 4.15048 -2.16456 0
M  V30 5824 H 523.929 5.62439 -3.21818 0
M  V30 5825 N 517.335 0.585699 1.46312 0
M  V30 5826 C 518.584 0.0701192 2.01578 0
M  V30 5827 C 518.897 -1.29889 1.46247 0
M  V30 5828 O 520.103 -1.90598 1.93351 0
M  V30 5829 C 518.559 0.0747499 3.59822 0
M  V30 5830 C 518.167 1.44226 4.24149 0
M  V30 5831 C 519.911 -0.38673 4.22735 0
M  V30 5832 C 517.818 1.40446 5.74481 0
M  V30 5833 H 516.748 0.0224441 0.753666 0
M  V30 5834 H 519.399 0.737789 1.68015 0
M  V30 5835 H 517.781 -0.659144 3.90476 0
M  V30 5836 H 518.955 2.19612 4.05101 0
M  V30 5837 H 517.27 1.84401 3.73343 0
M  V30 5838 H 519.867 -0.433853 5.32937 0
M  V30 5839 H 520.21 -1.40489 3.91878 0
M  V30 5840 H 520.743 0.293195 3.96718 0
M  V30 5841 H 517.482 2.39952 6.10003 0
M  V30 5842 H 517.002 0.692845 5.95785 0
M  V30 5843 H 518.681 1.11865 6.37256 0
M  V30 5844 N 518.813 -1.54241 0.323641 0
M  V30 5845 C 519.776 -2.22997 -0.529602 0
M  V30 5846 C 520.776 -1.22345 -1.04347 0
M  V30 5847 O 521.966 -1.46924 -0.935889 0
M  V30 5848 C 519.098 -2.93409 -1.73562 0
M  V30 5849 H 520.291 -2.99815 0.0714518 0
M  V30 5850 H 517.844 -1.56121 0.0747258 0
M  V30 5851 H 518.579 -2.20729 -2.37591 0
M  V30 5852 H 518.364 -3.67217 -1.37456 0
M  V30 5853 H 519.854 -3.45794 -2.34128 0
M  V30 5854 N 520.291 -0.0518155 -1.57515 0
M  V30 5855 C 521.537 0.616839 -1.93821 0
M  V30 5856 C 521.892 1.68413 -0.930307 0
M  V30 5857 O 521.185 1.91534 0.0504231 0
M  V30 5858 C 521.379 1.25607 -3.34601 0
M  V30 5859 C 521.208 0.252222 -4.48992 0
M  V30 5860 C 519.978 -0.156031 -5.05059 0
M  V30 5861 C 522.176 -0.502613 -5.11838 0
M  V30 5862 N 520.158 -1.15267 -6.02981 0
M  V30 5863 C 521.529 -1.35232 -6.05072 0
M  V30 5864 C 523.584 -0.560855 -4.94731 0
M  V30 5865 C 522.287 -2.25505 -6.83037 0
M  V30 5866 C 524.313 -1.45102 -5.73323 0
M  V30 5867 C 523.675 -2.28845 -6.6619 0
M  V30 5868 H 519.774 0.197344 -0.75669 0
M  V30 5869 H 522.358 -0.124297 -1.94303 0
M  V30 5870 H 520.529 1.96723 -3.34895 0
M  V30 5871 H 522.261 1.88358 -3.58195 0
M  V30 5872 H 519.016 0.22306 -4.73074 0
M  V30 5873 H 519.44 -1.64791 -6.56638 0
M  V30 5874 H 524.082 0.0723639 -4.22738 0
M  V30 5875 H 521.8 -2.89872 -7.54321 0
M  V30 5876 H 525.386 -1.50066 -5.62113 0
M  V30 5877 H 524.266 -2.96608 -7.25943 0
M  V30 5878 N 521.769 1.56035 0.221574 0
M  V30 5879 C 522.699 1.95434 1.2778 0
M  V30 5880 C 523.68 0.822564 1.48889 0
M  V30 5881 O 524.865 1.08486 1.61072 0
M  V30 5882 C 521.995 2.27102 2.62759 0
M  V30 5883 C 520.949 3.4277 2.56306 0
M  V30 5884 C 520.275 3.60043 3.95314 0
M  V30 5885 C 521.575 4.77742 2.11093 0
M  V30 5886 H 523.269 2.83912 0.950504 0
M  V30 5887 H 520.815 1.36596 0.455791 0
M  V30 5888 H 522.768 2.53256 3.36807 0
M  V30 5889 H 521.492 1.35478 2.97176 0
M  V30 5890 H 520.151 3.16664 1.84715 0
M  V30 5891 H 519.799 2.65794 4.27039 0
M  V30 5892 H 519.499 4.37841 3.91879 0
M  V30 5893 H 521.023 3.88545 4.71025 0
M  V30 5894 H 522.437 5.03102 2.74885 0
M  V30 5895 H 520.834 5.58823 2.18716 0
M  V30 5896 H 521.904 4.731 1.06321 0
M  V30 5897 N 523.247 -0.488276 1.49845 0
M  V30 5898 C 524.177 -1.59675 1.70371 0
M  V30 5899 C 525.158 -1.60878 0.552473 0
M  V30 5900 O 526.343 -1.77417 0.78973 0
M  V30 5901 C 523.473 -2.98098 1.782 0
M  V30 5902 C 522.427 -3.11761 2.93239 0
M  V30 5903 C 521.753 -4.51661 2.86193 0
M  V30 5904 C 523.053 -2.90589 4.33999 0
M  V30 5905 H 524.747 -1.42752 2.63177 0
M  V30 5906 H 522.293 -0.685317 1.26647 0
M  V30 5907 H 524.246 -3.75555 1.91144 0
M  V30 5908 H 522.97 -3.16138 0.820018 0
M  V30 5909 H 521.629 -2.36732 2.79917 0
M  V30 5910 H 521.277 -4.66595 1.87877 0
M  V30 5911 H 520.977 -4.61742 3.63412 0
M  V30 5912 H 522.501 -5.31162 3.01163 0
M  V30 5913 H 523.915 -3.57807 4.47936 0
M  V30 5914 H 522.312 -3.1213 5.12538 0
M  V30 5915 H 523.382 -1.86595 4.4756 0
M  V30 5916 N 524.725 -1.39134 -0.740242 0
M  V30 5917 C 525.965 -1.37499 -1.51239 0
M  V30 5918 C 526.329 0.0310084 -1.91975 0
M  V30 5919 O 527.53 0.172319 -2.68247 0
M  V30 5920 C 525.801 -2.31566 -2.72235 0
M  V30 5921 S 527.36 -2.48073 -3.61947 0
M  V30 5922 H 524.178 -0.48768 -0.517387 0
M  V30 5923 H 526.78 -1.75183 -0.867826 0
M  V30 5924 H 525.484 -3.32592 -2.40439 0
M  V30 5925 H 525.015 -1.9508 -3.41625 0
M  V30 5926 H 527.03 -1.71473 -4.6563 0
M  V30 5927 N 526.204 0.969867 -1.24223 0
M  V30 5928 C 527.134 2.08191 -1.05729 0
M  V30 5929 C 528.115 1.70075 0.0290765 0
M  V30 5930 O 529.3 1.93712 -0.137583 0
M  V30 5931 C 526.43 3.40991 -0.658995 0
M  V30 5932 C 525.384 3.93054 -1.69389 0
M  V30 5933 C 524.71 5.22171 -1.15072 0
M  V30 5934 C 526.01 4.21137 -3.08935 0
M  V30 5935 H 527.704 2.23921 -1.98746 0
M  V30 5936 H 525.25 1.07602 -0.956967 0
M  V30 5937 H 527.203 4.18221 -0.51662 0
M  V30 5938 H 525.927 3.25155 0.30686 0
M  V30 5939 H 524.586 3.17977 -1.82444 0
M  V30 5940 H 524.234 5.02694 -0.175539 0
M  V30 5941 H 523.934 5.57973 -1.84229 0
M  V30 5942 H 525.458 6.02013 -1.02042 0
M  V30 5943 H 526.872 4.8908 -2.99121 0
M  V30 5944 H 525.269 4.68163 -3.75425 0
M  V30 5945 H 526.339 3.27996 -3.57137 0
M  V30 5946 N 527.682 1.05563 1.17022 0
M  V30 5947 C 529.098 0.777684 1.39371 0
M  V30 5948 C 529.298 -0.626269 1.91521 0
M  V30 5949 O 528.354 -1.38806 2.10924 0
M  V30 5950 C 529.667 1.83642 2.3811 0
M  V30 5951 C 531.215 1.85907 2.51809 0
M  V30 5952 C 531.69 2.90813 3.53824 0
M  V30 5953 N 533.181 2.898 3.61345 0
M  V30 5954 C 533.916 3.6762 4.40049 0
M  V30 5955 N 533.412 4.55237 5.22237 0
M  V30 5956 N 535.205 3.56044 4.34959 0
M  V30 5957 H 527.356 1.9614 0.815047 0
M  V30 5958 H 529.619 0.849527 0.420722 0
M  V30 5959 H 529.325 2.84425 2.06871 0
M  V30 5960 H 529.199 1.6812 3.37662 0
M  V30 5961 H 531.586 0.857865 2.82356 0
M  V30 5962 H 531.667 2.05506 1.52318 0
M  V30 5963 H 531.311 3.91122 3.24015 0
M  V30 5964 H 531.241 2.68465 4.53028 0
M  V30 5965 H 533.732 2.26274 3.02669 0
M  V30 5966 H 534.045 5.11291 5.79484 0
M  V30 5967 H 532.39 4.59296 5.21605 0
M  V30 5968 H 535.581 2.86986 3.69806 0
M  V30 5969 H 535.754 4.16938 4.96051 0
M  V30 5970 N 529.16 -1.33526 0.837174 0
M  V30 5971 C 530.07 -2.33023 0.271568 0
M  V30 5972 C 531.086 -1.63272 -0.601514 0
M  V30 5973 O 532.262 -1.94939 -0.506038 0
M  V30 5974 C 529.327 -3.42382 -0.545448 0
M  V30 5975 C 528.388 -4.27857 0.351709 0
M  V30 5976 C 527.621 -5.31994 -0.426409 0
M  V30 5977 O 527.844 -5.45763 -1.65828 0
M  V30 5978 O 526.778 -6.01572 0.1987 0
M  V30 5979 H 530.604 -2.83256 1.09545 0
M  V30 5980 H 528.189 -1.36837 0.599655 0
M  V30 5981 H 530.071 -4.09122 -1.00979 0
M  V30 5982 H 528.746 -2.94369 -1.34641 0
M  V30 5983 H 527.653 -3.6399 0.863853 0
M  V30 5984 H 528.986 -4.79349 1.1174 0
M  V30 5985 N 530.638 -0.59345 -1.46 0
M  V30 5986 C 531.57 0.171569 -2.28557 0
M  V30 5987 C 532.583 0.845273 -1.39137 0
M  V30 5988 O 533.772 0.713033 -1.6364 0
M  V30 5989 C 530.872 1.26311 -3.14482 0
M  V30 5990 C 530.045 0.679258 -4.32094 0
M  V30 5991 C 529.104 1.65987 -4.99334 0
M  V30 5992 O 528.13 1.19171 -5.56585 0
M  V30 5993 N 529.332 2.99414 -4.97324 0
M  V30 5994 H 532.097 -0.536771 -2.94854 0
M  V30 5995 H 529.658 -0.431954 -1.56031 0
M  V30 5996 H 531.65 1.91863 -3.5633 0
M  V30 5997 H 530.22 1.87416 -2.50188 0
M  V30 5998 H 529.44 -0.153992 -3.93899 0
M  V30 5999 H 530.728 0.26916 -5.08088 0
M  V30 6000 H 530.126 3.40064 -4.52076 0
M  V30 6001 H 528.683 3.60426 -5.4308 0
M  V30 6002 N 532.116 1.54067 -0.331816 0
M  V30 6003 C 533.341 2.05599 0.272705 0
M  V30 6004 C 533.766 1.2059 1.44359 0
M  V30 6005 O 533.124 0.216907 1.79998 0
M  V30 6006 C 533.172 3.54188 0.677021 0
M  V30 6007 O 532.276 3.72082 1.77844 0
M  V30 6008 H 531.617 0.662286 0.0476801 0
M  V30 6009 H 534.147 1.98826 -0.482624 0
M  V30 6010 H 534.157 3.96608 0.957415 0
M  V30 6011 H 532.832 4.15513 -0.179325 0
M  V30 6012 H 531.409 3.41566 1.49622 0
M  V30 6013 N 533.594 0.0601682 1.57485 0
M  V30 6014 C 534.822 -0.620937 1.97363 0
M  V30 6015 C 535.237 -1.63846 0.938082 0
M  V30 6016 O 534.594 -1.82339 -0.0766578 0
M  V30 6017 C 534.645 -1.29987 3.37321 0
M  V30 6018 O 534.366 -0.323081 4.36907 0
M  V30 6019 C 535.867 -2.06989 3.92008 0
M  V30 6020 H 533.087 -0.169135 0.649334 0
M  V30 6021 H 535.631 0.129132 2.04092 0
M  V30 6022 H 533.786 -2.0011 3.31715 0
M  V30 6023 H 534.2 -0.808754 5.18227 0
M  V30 6024 H 535.674 -2.49901 4.92192 0
M  V30 6025 H 536.151 -2.92173 3.2792 0
M  V30 6026 H 536.757 -1.41757 4.0098 0
M  V30 6027 N 535.072 -1.5615 -0.213296 0
M  V30 6028 C 536.297 -1.83986 -0.957282 0
M  V30 6029 C 536.722 -0.641526 -1.76822 0
M  V30 6030 O 536.08 0.409722 -1.7661 0
M  V30 6031 C 536.128 -3.09889 -1.84393 0
M  V30 6032 O 535.232 -2.89163 -2.94038 0
M  V30 6033 H 534.573 -0.606357 -0.270605 0
M  V30 6034 H 537.103 -2.03369 -0.224111 0
M  V30 6035 H 537.113 -3.40209 -2.25215 0
M  V30 6036 H 535.788 -3.96735 -1.24795 0
M  V30 6037 H 534.365 -2.70097 -2.57103 0
M  V30 6038 N 536.55 0.480323 -1.50102 0
M  V30 6039 C 537.482 1.59669 -1.64433 0
M  V30 6040 C 538.495 1.54063 -0.52615 0
M  V30 6041 O 539.684 1.59619 -0.798992 0
M  V30 6042 C 536.784 2.98527 -1.6042 0
M  V30 6043 C 535.957 3.291 -2.88117 0
M  V30 6044 C 535.016 4.47468 -2.76873 0
M  V30 6045 O 534.042 4.4823 -3.50825 0
M  V30 6046 N 535.244 5.48593 -1.89806 0
M  V30 6047 H 538.009 1.47795 -2.60723 0
M  V30 6048 H 535.57 0.66858 -1.4745 0
M  V30 6049 H 537.562 3.75666 -1.50523 0
M  V30 6050 H 536.132 3.04218 -0.719036 0
M  V30 6051 H 535.352 2.40662 -3.12211 0
M  V30 6052 H 536.64 3.46334 -3.72734 0
M  V30 6053 H 536.038 5.50791 -1.2902 0
M  V30 6054 H 534.595 6.24752 -1.85819 0
M  V30 6055 N 538.028 1.39524 0.732853 0
M  V30 6056 C 539.444 1.21176 1.03868 0
M  V30 6057 C 539.644 0.0748448 2.01361 0
M  V30 6058 O 538.7 -0.57281 2.45917 0
M  V30 6059 C 540.013 2.54667 1.59892 0
M  V30 6060 C 541.561 2.6153 1.71962 0
M  V30 6061 C 542.036 3.95248 2.31394 0
M  V30 6062 N 543.527 3.96899 2.38801 0
M  V30 6063 C 544.262 4.97138 2.85729 0
M  V30 6064 N 543.758 6.07775 3.32537 0
M  V30 6065 N 545.551 4.84516 2.84957 0
M  V30 6066 H 537.702 2.12225 0.086304 0
M  V30 6067 H 539.965 0.942614 0.100907 0
M  V30 6068 H 539.671 3.38423 0.95721 0
M  V30 6069 H 539.545 2.74538 2.58668 0
M  V30 6070 H 541.932 1.78156 2.35254 0
M  V30 6071 H 542.013 2.45507 0.718327 0
M  V30 6072 H 541.657 4.79054 1.68729 0
M  V30 6073 H 541.587 4.08593 3.32204 0
M  V30 6074 H 544.078 3.16998 2.05719 0
M  V30 6075 H 544.391 6.8017 3.66862 0
M  V30 6076 H 542.736 6.11366 3.30541 0
M  V30 6077 H 545.927 3.97185 2.47713 0
M  V30 6078 H 546.1 5.62783 3.21215 0
M  V30 6079 N 539.506 -0.963266 1.24736 0
M  V30 6080 C 540.917 -1.52145 1.08207 0
M  V30 6081 C 541.268 -1.93142 -0.345061 0
M  V30 6082 O 540.393 -1.77769 -1.23399 0
M  V30 6083 C 540.988 -2.76486 1.95808 0
M  V30 6084 C 539.547 -3.28646 1.8349 0
M  V30 6085 C 538.694 -2.01529 1.90476 0
M  V30 6086 H 541.645 -0.781083 1.38148 0
M  V30 6087 H 541.666 -3.49986 1.49297 0
M  V30 6088 H 541.178 -2.46617 2.99669 0
M  V30 6089 H 539.279 -3.63357 0.824787 0
M  V30 6090 H 539.392 -3.97246 2.67829 0
M  V30 6091 H 537.756 -2.16442 1.34258 0
M  V30 6092 H 538.539 -1.7402 2.95926 0
M  V30 6093 N 540.985 -1.06182 -1.16461 0
M  V30 6094 C 542.396 -0.802426 -1.68576 0
M  V30 6095 C 542.747 0.67412 -1.84255 0
M  V30 6096 O 541.872 1.52303 -1.5373 0
M  V30 6097 C 542.467 -1.45002 -3.06202 0
M  V30 6098 C 541.026 -1.23843 -3.55443 0
M  V30 6099 C 540.173 -1.52724 -2.31454 0
M  V30 6100 H 543.124 -1.22545 -1.00839 0
M  V30 6101 H 543.145 -0.864731 -3.70544 0
M  V30 6102 H 542.657 -2.52466 -2.94759 0
M  V30 6103 H 540.758 -0.183487 -3.72148 0
M  V30 6104 H 540.871 -1.95036 -4.37604 0
M  V30 6105 H 539.235 -0.947726 -2.36411 0
M  V30 6106 H 540.018 -2.61343 -2.22609 0
M  V30 6107 N 542.463 1.3308 -0.844243 0
M  V30 6108 C 543.426 2.27403 -0.286485 0
M  V30 6109 C 544.426 1.51179 0.547872 0
M  V30 6110 O 545.616 1.70421 0.360886 0
M  V30 6111 C 542.748 3.35653 0.595813 0
M  V30 6112 H 543.941 2.78248 -1.11885 0
M  V30 6113 H 541.494 1.43574 -0.617749 0
M  V30 6114 H 542.229 2.90058 1.4504 0
M  V30 6115 H 542.014 3.921 -0.00125994 0
M  V30 6116 H 543.504 4.05958 0.979168 0
M  V30 6117 N 543.941 0.601185 1.45683 0
M  V30 6118 C 545.169 0.100054 2.06658 0
M  V30 6119 C 545.584 -1.21285 1.44691 0
M  V30 6120 O 544.941 -1.73735 0.558772 0
M  V30 6121 C 544.992 -0.0528579 3.61461 0
M  V30 6122 O 544.713 1.20809 4.21114 0
M  V30 6123 C 546.214 -0.586193 4.39407 0
M  V30 6124 H 543.434 0.065905 0.667756 0
M  V30 6125 H 545.978 0.827101 1.87028 0
M  V30 6126 H 544.133 -0.730203 3.80456 0
M  V30 6127 H 544.547 1.03368 5.14213 0
M  V30 6128 H 546.021 -0.642297 5.4825 0
M  V30 6129 H 546.498 -1.60713 4.0874 0
M  V30 6130 H 547.104 0.0568935 4.25262 0
M  V30 6131 N 545.419 -1.53889 0.339982 0
M  V30 6132 C 546.644 -2.05741 -0.261798 0
M  V30 6133 C 547.069 -1.21354 -1.43718 0
M  V30 6134 O 546.427 -0.22645 -1.7988 0
M  V30 6135 C 546.475 -3.54542 -0.658228 0
M  V30 6136 O 545.579 -3.7302 -1.75869 0
M  V30 6137 H 544.92 -0.662529 -0.0441672 0
M  V30 6138 H 547.45 -1.98568 0.493161 0
M  V30 6139 H 547.46 -3.9711 -0.936368 0
M  V30 6140 H 546.135 -4.15412 0.201358 0
M  V30 6141 H 544.712 -3.42355 -1.47809 0
M  V30 6142 N 546.897 -0.0685191 -1.57451 0
M  V30 6143 C 547.829 0.929372 -2.09512 0
M  V30 6144 C 548.842 1.26354 -1.02657 0
M  V30 6145 O 550.031 1.2213 -1.30179 0
M  V30 6146 C 547.131 2.24612 -2.53777 0
M  V30 6147 C 546.304 2.09128 -3.84167 0
M  V30 6148 C 545.363 3.24079 -4.14559 0
M  V30 6149 O 544.389 2.99215 -4.8421 0
M  V30 6150 N 545.591 4.49077 -3.67845 0
M  V30 6151 H 548.356 0.484901 -2.95751 0
M  V30 6152 H 545.917 0.11729 -1.61475 0
M  V30 6153 H 547.909 3.00412 -2.71172 0
M  V30 6154 H 546.479 2.60569 -1.72692 0
M  V30 6155 H 545.699 1.17815 -3.76182 0
M  V30 6156 H 546.987 1.9603 -4.69521 0
M  V30 6157 H 546.385 4.72165 -3.11571 0
M  V30 6158 H 544.942 5.21915 -3.90446 0
M  V30 6159 N 548.375 1.56261 0.205012 0
M  V30 6160 C 549.338 1.92908 1.23771 0
M  V30 6161 C 550.338 0.809208 1.38955 0
M  V30 6162 O 551.528 1.07676 1.36936 0
M  V30 6163 C 548.66 2.19442 2.60879 0
M  V30 6164 H 549.853 2.85287 0.924728 0
M  V30 6165 H 547.406 1.49798 0.446125 0
M  V30 6166 H 548.141 1.29668 2.97248 0
M  V30 6167 H 547.926 3.0104 2.51232 0
M  V30 6168 H 549.416 2.48833 3.35368 0
M  V30 6169 N 549.853 -0.472356 1.50355 0
M  V30 6170 C 551.081 -1.24784 1.65035 0
M  V30 6171 C 551.496 -1.85837 0.333176 0
M  V30 6172 O 550.853 -1.69168 -0.68472 0
M  V30 6173 C 550.904 -2.35747 2.74054 0
M  V30 6174 O 550.625 -1.77197 4.00665 0
M  V30 6175 C 552.126 -3.26645 2.99696 0
M  V30 6176 H 549.346 -0.377432 0.554785 0
M  V30 6177 H 551.89 -0.563962 1.9657 0
M  V30 6178 H 550.045 -2.99912 2.45217 0
M  V30 6179 H 550.459 -2.5026 4.60945 0
M  V30 6180 H 551.933 -4.00718 3.79644 0
M  V30 6181 H 552.41 -3.8535 2.10718 0
M  V30 6182 H 553.016 -2.68218 3.3006 0
M  V30 6183 N 551.331 -1.39911 -0.725443 0
M  V30 6184 C 552.278 -1.39393 -1.83952 0
M  V30 6185 C 553.248 -0.252249 -1.64173 0
M  V30 6186 O 554.433 -0.44882 -1.85446 0
M  V30 6187 C 551.573 -1.25262 -3.21564 0
M  V30 6188 C 550.686 -2.49054 -3.52982 0
M  V30 6189 C 549.821 -2.27439 -4.80047 0
M  V30 6190 C 548.86 -3.46857 -5.04338 0
M  V30 6191 N 547.997 -3.24499 -6.22611 0
M  V30 6192 H 552.837 -2.34622 -1.83729 0
M  V30 6193 H 550.374 -1.16537 -0.897636 0
M  V30 6194 H 552.332 -1.15077 -4.01015 0
M  V30 6195 H 550.962 -0.33657 -3.21041 0
M  V30 6196 H 550.014 -2.69805 -2.6816 0
M  V30 6197 H 551.326 -3.37973 -3.66846 0
M  V30 6198 H 550.48 -2.14551 -5.67497 0
M  V30 6199 H 549.219 -1.35929 -4.68374 0
M  V30 6200 H 548.224 -3.60232 -4.15346 0
M  V30 6201 H 549.449 -4.3928 -5.17889 0
M  V30 6202 H 547.395 -2.35663 -6.12208 0
M  V30 6203 H 547.312 -4.06978 -6.37106 0
M  V30 6204 H 548.58 -3.15325 -7.12875 0
M  V30 6205 N 552.809 0.956637 -1.25245 0
M  V30 6206 C 554.037 1.73571 -1.12608 0
M  V30 6207 C 554.452 1.86063 0.320324 0
M  V30 6208 O 553.809 1.35691 1.22042 0
M  V30 6209 C 553.86 3.15053 -1.77268 0
M  V30 6210 O 553.581 3.03174 -3.16255 0
M  V30 6211 C 555.082 4.09248 -1.70386 0
M  V30 6212 H 552.302 0.543955 -0.392879 0
M  V30 6213 H 554.846 1.20031 -1.65568 0
M  V30 6214 H 553.001 3.65543 -1.28284 0
M  V30 6215 H 553.415 3.9241 -3.48015 0
M  V30 6216 H 554.889 5.06138 -2.20291 0
M  V30 6217 H 555.366 4.34102 -0.667239 0
M  V30 6218 H 555.972 3.64672 -2.18849 0
M  V30 6219 N 554.287 1.06798 1.15896 0
M  V30 6220 C 555.564 0.701057 1.82605 0
M  V30 6221 C 555.944 -0.817066 1.94646 0
M  V30 6222 O 555.292 -1.72933 1.49353 0
M  V30 6223 C 555.502 1.40895 3.19296 0
M  V30 6224 C 556.85 1.55744 3.95005 0
M  V30 6225 O 557.874 1.36927 3.28831 0
M  V30 6226 O 556.733 1.86658 5.13635 0
M  V30 6227 H 553.827 0.248791 0.78869 0
M  V30 6228 H 556.373 1.16857 1.23055 0
M  V30 6229 H 555.145 2.4439 3.05596 0
M  V30 6230 H 554.768 0.931847 3.86526 0
M  V30 6231 N 555.766 -1.3263 0.851289 0
M  V30 6232 C 557.043 -1.91982 0.374448 0
M  V30 6233 C 557.423 -1.77568 -1.14161 0
M  V30 6234 O 556.771 -1.1717 -1.96172 0
M  V30 6235 C 556.981 -3.38862 0.835088 0
M  V30 6236 C 558.329 -4.15999 0.850309 0
M  V30 6237 O 559.353 -3.47566 0.779505 0
M  V30 6238 O 558.212 -5.38189 0.949481 0
M  V30 6239 H 555.306 -0.819846 0.10854 0
M  V30 6240 H 557.852 -1.41422 0.937966 0
M  V30 6241 H 556.624 -3.43281 1.87814 0
M  V30 6242 H 556.247 -3.96821 0.248833 0
M  V30 6243 N 557.244 -0.608902 -1.45362 0
M  V30 6244 C 558.484 -0.10763 -2.04116 0
M  V30 6245 C 558.848 1.23883 -1.46686 0
M  V30 6246 O 560.049 1.83091 -1.96803 0
M  V30 6247 C 558.32 -0.0703351 -3.57331 0
M  V30 6248 S 559.879 0.369554 -4.37241 0
M  V30 6249 H 556.697 -0.0502123 -0.709225 0
M  V30 6250 H 559.299 -0.8073 -1.78053 0
M  V30 6251 H 558.003 -1.05379 -3.9664 0
M  V30 6252 H 557.534 0.651287 -3.87971 0
M  V30 6253 H 559.549 1.61878 -4.69052 0
M  V30 6254 N 558.722 1.53707 -0.348139 0
M  V30 6255 C 559.947 2.05877 0.250883 0
M  V30 6256 C 560.372 1.22115 1.43072 0
M  V30 6257 O 559.73 0.235986 1.79758 0
M  V30 6258 C 559.778 3.54886 0.639416 0
M  V30 6259 O 558.882 3.73948 1.73888 0
M  V30 6260 H 558.223 0.662754 0.040653 0
M  V30 6261 H 560.753 1.98303 -0.503685 0
M  V30 6262 H 560.763 3.97601 0.915295 0
M  V30 6263 H 559.438 4.153 -0.223386 0
M  V30 6264 H 558.015 3.43134 1.45991 0
M  V30 6265 N 560.2 0.0768682 1.57412 0
M  V30 6266 C 561.163 -0.873949 2.11884 0
M  V30 6267 C 562.163 -1.22301 1.04398 0
M  V30 6268 O 563.353 -1.15545 1.30365 0
M  V30 6269 C 560.485 -2.17575 2.62438 0
M  V30 6270 H 561.678 -0.401278 2.97203 0
M  V30 6271 H 559.231 -0.171904 1.55352 0
M  V30 6272 H 559.966 -2.69368 1.80587 0
M  V30 6273 H 559.751 -1.93534 3.41009 0
M  V30 6274 H 561.241 -2.85631 3.04639 0
M  V30 6275 N 561.678 -1.56367 -0.196722 0
M  V30 6276 C 562.611 -1.89475 -1.2718 0
M  V30 6277 C 563.589 -0.754667 -1.44026 0
M  V30 6278 O 564.773 -1.00551 -1.59442 0
M  V30 6279 C 561.9 -2.12352 -2.63864 0
M  V30 6280 C 560.946 -3.35053 -2.63897 0
M  V30 6281 S 561.779 -4.90228 -2.15492 0
M  V30 6282 C 562.935 -5.16171 -3.54004 0
M  V30 6283 H 563.168 -2.80365 -0.989075 0
M  V30 6284 H 560.701 -1.49125 -0.40014 0
M  V30 6285 H 562.659 -2.26214 -3.42545 0
M  V30 6286 H 561.32 -1.22214 -2.89349 0
M  V30 6287 H 560.513 -3.48182 -3.64397 0
M  V30 6288 H 560.115 -3.20176 -1.93296 0
M  V30 6289 H 562.407 -5.06591 -4.49857 0
M  V30 6290 H 563.35 -6.17938 -3.45771 0
M  V30 6291 H 563.758 -4.43814 -3.48841 0
M  V30 6292 N 563.156 0.464375 -1.50603 0
M  V30 6293 C 564.404 1.21356 -1.61608 0
M  V30 6294 C 564.725 1.92329 -0.321643 0
M  V30 6295 O 563.995 1.84403 0.661232 0
M  V30 6296 H 562.575 0.45094 -0.595535 0
M  V30 6297 H 565.237 0.535046 -1.87412 0
M  V30 6298 H 564.333 1.95783 -2.43054 0
M  V30 6299 N 564.634 1.40294 0.718013 0
M  V30 6300 C 565.582 1.40536 1.85344 0
M  V30 6301 C 566.576 0.286192 1.66965 0
M  V30 6302 O 567.782 0.457105 1.74099 0
M  V30 6303 H 564.157 0.439236 0.61039 0
M  V30 6304 H 566.128 2.36275 1.82255 0
M  V30 6305 C 564.877 1.28245 3.23185 0
M  V30 6306 H 564.2 2.1364 3.37932 0
M  V30 6307 H 565.64 1.32474 4.02774 0
M  V30 6308 C 564.099 -0.0075503 3.36899 0
M  V30 6309 O 564.629 -0.971391 3.89778 0
M  V30 6310 N 562.835 -0.0762479 2.905 0
M  V30 6311 H 562.382 0.708819 2.47656 0
M  V30 6312 H 562.34 -0.938846 3.00055 0
M  V30 6313 N 566.112 -0.949982 1.2575 0
M  V30 6314 C 567.062 -2.03297 1.03221 0
M  V30 6315 C 568.046 -1.60867 -0.0324751 0
M  V30 6316 O 569.238 -1.76047 0.183423 0
M  V30 6317 C 566.367 -3.36938 0.657841 0
M  V30 6318 C 565.453 -3.85878 1.75952 0
M  V30 6319 N 565.844 -4.0756 2.99547 0
M  V30 6320 C 564.142 -4.14709 1.64111 0
M  V30 6321 C 564.843 -4.47961 3.71087 0
M  V30 6322 N 563.819 -4.5416 2.98731 0
M  V30 6323 H 567.621 -2.1806 1.97045 0
M  V30 6324 H 565.135 -1.13516 1.16138 0
M  V30 6325 H 567.132 -4.14155 0.477614 0
M  V30 6326 H 565.792 -3.2355 -0.273025 0
M  V30 6327 H 566.803 -3.94501 3.35544 0
M  V30 6328 H 563.48 -4.10158 0.779527 0
M  V30 6329 H 564.87 -4.73002 4.77199 0
M  V30 6330 N 567.59 -1.07411 -1.15328 0
M  V30 6331 C 568.83 -0.807011 -1.87794 0
M  V30 6332 C 569.194 0.654987 -1.80482 0
M  V30 6333 O 570.395 1.03716 -2.47985 0
M  V30 6334 C 568.666 -1.30198 -3.32841 0
M  V30 6335 S 570.225 -1.16564 -4.23034 0
M  V30 6336 H 567.043 -0.292429 -0.648079 0
M  V30 6337 H 569.645 -1.37334 -1.39139 0
M  V30 6338 H 568.349 -2.3607 -3.35707 0
M  V30 6339 H 567.88 -0.730881 -3.86551 0
M  V30 6340 H 569.895 -0.103557 -4.96092 0
M  V30 6341 N 569.068 1.32177 -0.85831 0
M  V30 6342 C 570.293 2.01847 -0.476718 0
M  V30 6343 C 570.718 1.64065 0.920021 0
M  V30 6344 O 570.076 0.843189 1.60499 0
M  V30 6345 C 570.124 3.55097 -0.627578 0
M  V30 6346 O 569.228 4.11012 0.338086 0
M  V30 6347 H 568.569 0.635907 -0.191099 0
M  V30 6348 H 571.099 1.68641 -1.15851 0
M  V30 6349 H 571.109 4.04718 -0.516476 0
M  V30 6350 H 569.784 3.81938 -1.64609 0
M  V30 6351 H 568.361 3.72451 0.182917 0
M  V30 6352 N 570.547 0.616602 1.45037 0
M  V30 6353 C 571.497 -0.118543 2.27692 0
M  V30 6354 C 572.481 -0.830025 1.37838 0
M  V30 6355 O 573.673 -0.718528 1.6176 0
M  V30 6356 C 570.802 -1.10924 3.24886 0
M  V30 6357 C 569.888 -0.398134 4.22227 0
M  V30 6358 N 570.279 0.565233 5.02632 0
M  V30 6359 C 568.577 -0.644506 4.41319 0
M  V30 6360 C 569.278 0.984043 5.73316 0
M  V30 6361 N 568.254 0.325879 5.42622 0
M  V30 6362 H 572.056 0.621239 2.87259 0
M  V30 6363 H 569.57 0.440968 1.56299 0
M  V30 6364 H 571.567 -1.65038 3.82842 0
M  V30 6365 H 570.227 -1.84948 2.66879 0
M  V30 6366 H 571.238 0.942395 5.09254 0
M  V30 6367 H 567.915 -1.36873 3.94426 0
M  V30 6368 H 569.305 1.77911 6.47918 0
M  V30 6369 N 572.025 -1.5352 0.356285 0
M  V30 6370 C 572.958 -2.2177 -0.537913 0
M  V30 6371 C 573.936 -1.20626 -1.09033 0
M  V30 6372 O 575.12 -1.49494 -1.1482 0
M  V30 6373 C 572.247 -2.90513 -1.74126 0
M  V30 6374 C 571.293 -4.05652 -1.31715 0
M  V30 6375 S 572.126 -5.34505 -0.326236 0
M  V30 6376 C 573.282 -6.06757 -1.53612 0
M  V30 6377 H 573.515 -2.97271 0.0417411 0
M  V30 6378 H 571.048 -1.53761 0.140372 0
M  V30 6379 H 573.006 -3.30735 -2.43155 0
M  V30 6380 H 571.667 -2.14754 -2.29215 0
M  V30 6381 H 570.86 -4.52733 -2.21471 0
M  V30 6382 H 570.462 -3.67272 -0.706183 0
M  V30 6383 H 572.754 -6.30924 -2.46863 0
M  V30 6384 H 573.697 -6.99395 -1.10687 0
M  V30 6385 H 574.105 -5.3708 -1.73796 0
M  V30 6386 N 573.503 -0.0852151 -1.57369 0
M  V30 6387 C 574.751 0.579658 -1.93609 0
M  V30 6388 C 575.072 1.69332 -0.967043 0
M  V30 6389 O 574.342 1.95892 -0.0174215 0
M  V30 6390 H 572.922 0.217113 -0.714752 0
M  V30 6391 H 575.584 -0.146226 -1.94351 0
M  V30 6392 H 574.68 0.996276 -2.95771 0
M  V30 6393 N 574.981 1.5647 0.188427 0
M  V30 6394 C 576.229 1.80655 0.905986 0
M  V30 6395 C 576.55 0.659391 1.83513 0
M  V30 6396 O 575.82 -0.321868 1.93238 0
M  V30 6397 H 574.4 0.666391 0.337538 0
M  V30 6398 H 577.062 1.93949 0.192339 0
M  V30 6399 H 576.158 2.74066 1.49313 0
M  V30 6400 N 576.459 -0.456382 1.50847 0
M  V30 6401 C 577.87 -1.03685 1.55262 0
M  V30 6402 C 578.221 -1.92779 0.364771 0
M  V30 6403 O 577.346 -2.10043 -0.52068 0
M  V30 6404 C 577.941 -1.88718 2.81374 0
M  V30 6405 C 576.5 -2.41847 2.88422 0
M  V30 6406 C 575.647 -1.20564 2.49719 0
M  V30 6407 H 578.598 -0.238399 1.56899 0
M  V30 6408 H 578.619 -2.73957 2.6406 0
M  V30 6409 H 578.131 -1.23847 3.67809 0
M  V30 6410 H 576.232 -3.10228 2.06372 0
M  V30 6411 H 576.345 -2.75947 3.9165 0
M  V30 6412 H 574.709 -1.54504 2.02486 0
M  V30 6413 H 575.492 -0.573326 3.38479 0
M  V30 6414 N 577.937 -1.40673 -0.710563 0
M  V30 6415 C 578.869 -1.37256 -1.83558 0
M  V30 6416 C 579.882 -0.277133 -1.60424 0
M  V30 6417 O 581.071 -0.537831 -1.70205 0
M  V30 6418 C 578.171 -1.1144 -3.20054 0
M  V30 6419 C 577.344 -2.32734 -3.70342 0
M  V30 6420 C 576.403 -2.03002 -4.85465 0
M  V30 6421 O 575.429 -2.75912 -4.97857 0
M  V30 6422 N 576.631 -1.01105 -5.71627 0
M  V30 6423 H 579.396 -2.34215 -1.86985 0
M  V30 6424 H 576.957 -1.35091 -0.892301 0
M  V30 6425 H 578.949 -0.895265 -3.94673 0
M  V30 6426 H 577.519 -0.231307 -3.11743 0
M  V30 6427 H 576.739 -2.70446 -2.86798 0
M  V30 6428 H 578.027 -3.13584 -4.00678 0
M  V30 6429 H 577.425 -0.407303 -5.64232 0
M  V30 6430 H 575.982 -0.85182 -6.4621 0
M  V30 6431 N 579.415 0.9433 -1.26252 0
M  V30 6432 C 580.692 1.66639 -1.02424 0
M  V30 6433 C 581.072 2.06335 0.446006 0
M  V30 6434 O 580.42 1.78551 1.42589 0
M  V30 6435 C 580.63 2.88019 -1.97094 0
M  V30 6436 C 581.978 3.59718 -2.25584 0
M  V30 6437 O 583.002 2.9812 -1.94943 0
M  V30 6438 O 581.861 4.7066 -2.77743 0
M  V30 6439 H 578.955 0.729643 -0.389294 0
M  V30 6440 H 581.501 0.995218 -1.37454 0
M  V30 6441 H 580.273 2.5556 -2.96319 0
M  V30 6442 H 579.896 3.62863 -1.62532 0
M  V30 6443 N 580.893 1.08022 1.14757 0
M  V30 6444 C 582.14 0.807509 1.85703 0
M  V30 6445 C 582.468 -0.666617 1.8272 0
M  V30 6446 O 581.723 -1.50562 1.25018 0
M  V30 6447 C 582.022 1.26964 3.34088 0
M  V30 6448 C 581.688 2.7509 3.57262 0
M  V30 6449 C 580.35 3.15547 3.63296 0
M  V30 6450 C 582.702 3.70667 3.66409 0
M  V30 6451 C 580.03 4.50384 3.75994 0
M  V30 6452 C 582.382 5.05274 3.80632 0
M  V30 6453 C 581.046 5.45342 3.84913 0
M  V30 6454 H 580.316 0.295488 0.679535 0
M  V30 6455 H 582.963 1.35245 1.35577 0
M  V30 6456 H 581.268 0.644216 3.86467 0
M  V30 6457 H 582.965 1.03544 3.87401 0
M  V30 6458 H 579.555 2.42775 3.53212 0
M  V30 6459 H 583.739 3.40533 3.61041 0
M  V30 6460 H 578.995 4.80886 3.77569 0
M  V30 6461 H 583.169 5.79201 3.86652 0
M  V30 6462 H 580.796 6.49823 3.94505 0
M  V30 6463 N 582.371 -1.3172 0.865308 0
M  V30 6464 C 583.281 -2.32394 0.320935 0
M  V30 6465 C 584.297 -1.64511 -0.566746 0
M  V30 6466 O 585.473 -1.95969 -0.464575 0
M  V30 6467 C 582.538 -3.43462 -0.472701 0
M  V30 6468 C 581.599 -4.27015 0.442385 0
M  V30 6469 C 580.832 -5.32779 -0.313469 0
M  V30 6470 O 581.055 -5.49158 -1.54214 0
M  V30 6471 O 579.989 -6.01015 0.326257 0
M  V30 6472 H 583.815 -2.80868 1.15528 0
M  V30 6473 H 581.4 -1.35535 0.628545 0
M  V30 6474 H 583.282 -4.11172 -0.922781 0
M  V30 6475 H 581.957 -2.97159 -1.28367 0
M  V30 6476 H 580.864 -3.62075 0.940866 0
M  V30 6477 H 582.197 -4.76871 1.21882 0
M  V30 6478 N 583.85 -0.624285 -1.44708 0
M  V30 6479 C 584.797 0.0847135 -2.30644 0
M  V30 6480 C 585.767 0.843575 -1.43084 0
M  V30 6481 O 586.952 0.825982 -1.71995 0
M  V30 6482 C 584.091 1.06495 -3.28257 0
M  V30 6483 C 583.205 0.305224 -4.3092 0
M  V30 6484 C 582.34 1.27667 -5.1563 0
M  V30 6485 C 581.379 0.505706 -6.10007 0
M  V30 6486 N 580.516 1.42727 -6.8744 0
M  V30 6487 H 585.356 -0.654068 -2.90733 0
M  V30 6488 H 582.893 -0.334334 -1.4325 0
M  V30 6489 H 584.851 1.64658 -3.83332 0
M  V30 6490 H 583.481 1.77094 -2.69884 0
M  V30 6491 H 582.533 -0.392207 -3.78373 0
M  V30 6492 H 583.845 -0.295553 -4.97924 0
M  V30 6493 H 582.999 1.92984 -5.75189 0
M  V30 6494 H 581.738 1.91137 -4.48685 0
M  V30 6495 H 580.743 -0.160999 -5.49564 0
M  V30 6496 H 581.968 -0.124183 -6.78986 0
M  V30 6497 H 579.913 2.04931 -6.23169 0
M  V30 6498 H 579.831 0.880345 -7.50857 0
M  V30 6499 H 581.099 2.0695 -7.51526 0
M  V30 6500 N 585.328 1.53329 -0.364422 0
M  V30 6501 C 586.553 2.06132 0.229033 0
M  V30 6502 C 586.978 1.23625 1.41769 0
M  V30 6503 O 586.336 0.255038 1.79497 0
M  V30 6504 C 586.384 3.55544 0.60174 0
M  V30 6505 O 585.488 3.75771 1.69912 0
M  V30 6506 H 584.829 0.663148 0.0336213 0
M  V30 6507 H 587.359 1.97758 -0.524689 0
M  V30 6508 H 587.369 3.98549 0.873073 0
M  V30 6509 H 586.044 4.15039 -0.267421 0
M  V30 6510 H 584.621 3.44663 1.42343 0
M  V30 6511 N 586.806 0.0935595 1.57322 0
M  V30 6512 C 588.217 -0.435807 1.81542 0
M  V30 6513 C 588.568 -1.68263 1.00907 0
M  V30 6514 O 587.693 -2.15087 0.237983 0
M  V30 6515 C 588.288 -0.797436 3.29282 0
M  V30 6516 C 586.847 -1.27155 3.54272 0
M  V30 6517 C 585.994 -0.267455 2.76007 0
M  V30 6518 H 588.945 0.31902 1.5546 0
M  V30 6519 H 588.966 -1.6571 3.42521 0
M  V30 6520 H 588.478 0.110206 3.87943 0
M  V30 6521 H 586.579 -2.19696 3.00939 0
M  V30 6522 H 586.692 -1.23445 4.62923 0
M  V30 6523 H 585.056 -0.749282 2.43429 0
M  V30 6524 H 585.839 0.632839 3.37417 0
M  V30 6525 N 588.284 -1.56567 -0.180126 0
M  V30 6526 C 589.7 -1.50488 -0.531559 0
M  V30 6527 C 589.9 -0.796267 -1.851 0
M  V30 6528 O 588.956 -0.352978 -2.50021 0
M  V30 6529 C 590.269 -2.95201 -0.572456 0
M  V30 6530 C 591.817 -3.05957 -0.660264 0
M  V30 6531 C 592.292 -4.5211 -0.732135 0
M  V30 6532 N 593.783 -4.56322 -0.795262 0
M  V30 6533 C 594.518 -5.66742 -0.871296 0
M  V30 6534 N 594.014 -6.86815 -0.908708 0
M  V30 6535 N 595.807 -5.54691 -0.909639 0
M  V30 6536 H 587.958 -2.01045 0.685165 0
M  V30 6537 H 590.221 -0.915536 0.245962 0
M  V30 6538 H 589.927 -3.50165 0.328208 0
M  V30 6539 H 589.801 -3.49369 -1.422 0
M  V30 6540 H 592.188 -2.51032 -1.55136 0
M  V30 6541 H 592.269 -2.54888 0.215783 0
M  V30 6542 H 591.913 -5.07664 0.154664 0
M  V30 6543 H 591.843 -5.00926 -1.6242 0
M  V30 6544 H 594.334 -3.69868 -0.77499 0
M  V30 6545 H 594.647 -7.66718 -0.967654 0
M  V30 6546 H 592.992 -6.89443 -0.877132 0
M  V30 6547 H 596.183 -4.59804 -0.877353 0
M  V30 6548 H 596.356 -6.40768 -0.965434 0
M  V30 6549 N 589.762 0.448376 -1.51087 0
M  V30 6550 C 591.039 1.20926 -1.53741 0
M  V30 6551 C 591.419 2.09025 -0.295222 0
M  V30 6552 O 590.767 2.16851 0.720283 0
M  V30 6553 C 590.977 2.02067 -2.84552 0
M  V30 6554 C 592.325 2.59486 -3.36084 0
M  V30 6555 O 593.349 2.12289 -2.86028 0
M  V30 6556 O 592.208 3.45539 -4.23397 0
M  V30 6557 H 589.302 0.549951 -0.617643 0
M  V30 6558 H 591.848 0.458344 -1.63393 0
M  V30 6559 H 590.62 1.37291 -3.66425 0
M  V30 6560 H 590.243 2.84246 -2.78011 0
M  V30 6561 N 591.24 1.41047 0.703093 0
M  V30 6562 C 592.656 1.23351 1.01275 0
M  V30 6563 C 592.856 0.11754 2.01157 0
M  V30 6564 O 591.912 -0.520518 2.47077 0
M  V30 6565 C 593.225 2.58001 1.54454 0
M  V30 6566 C 594.773 2.65119 1.66376 0
M  V30 6567 C 595.248 4.00067 2.22958 0
M  V30 6568 N 596.739 4.01875 2.30328 0
M  V30 6569 C 597.474 5.03087 2.75119 0
M  V30 6570 N 596.97 6.14692 3.19571 0
M  V30 6571 N 598.763 4.90451 2.74616 0
M  V30 6572 H 590.914 2.1236 0.0412686 0
M  V30 6573 H 593.177 0.944543 0.08089 0
M  V30 6574 H 592.883 3.40378 0.88521 0
M  V30 6575 H 592.757 2.79962 2.52786 0
M  V30 6576 H 595.144 1.83106 2.31422 0
M  V30 6577 H 595.225 2.46975 0.666089 0
M  V30 6578 H 594.869 4.82526 1.58529 0
M  V30 6579 H 594.799 4.15547 3.23462 0
M  V30 6580 H 597.29 3.21291 1.98949 0
M  V30 6581 H 597.603 6.87799 3.52352 0
M  V30 6582 H 595.948 6.18239 3.17498 0
M  V30 6583 H 599.139 4.0235 2.39233 0
M  V30 6584 H 599.312 5.6947 3.09206 0
M  V30 6585 N 592.718 -0.936591 1.26751 0
M  V30 6586 C 593.958 -1.69796 1.13792 0
M  V30 6587 C 594.322 -1.89437 -0.312671 0
M  V30 6588 O 595.523 -2.62806 -0.564489 0
M  V30 6589 C 593.794 -3.03297 1.89065 0
M  V30 6590 S 595.353 -3.94461 1.92214 0
M  V30 6591 H 592.171 -0.583412 0.406389 0
M  V30 6592 H 594.773 -1.11575 1.60535 0
M  V30 6593 H 593.477 -2.86687 2.93665 0
M  V30 6594 H 593.008 -3.66575 1.42781 0
M  V30 6595 H 595.023 -4.85767 1.01215 0
M  V30 6596 N 594.196 -1.08629 -1.14182 0
M  V30 6597 C 595.421 -0.83902 -1.89671 0
M  V30 6598 C 595.846 0.603332 -1.78161 0
M  V30 6599 O 595.204 1.42301 -1.12339 0
M  V30 6600 C 595.252 -1.26854 -3.37551 0
M  V30 6601 O 594.356 -0.42188 -4.10236 0
M  V30 6602 H 593.697 -0.304545 -0.590041 0
M  V30 6603 H 596.227 -1.4483 -1.44518 0
M  V30 6604 H 596.237 -1.25038 -3.88368 0
M  V30 6605 H 594.912 -2.31901 -3.45246 0
M  V30 6606 H 593.489 -0.503654 -3.69483 0
M  V30 6607 N 595.674 1.31259 -0.872281 0
M  V30 6608 C 597.085 1.78822 -0.536617 0
M  V30 6609 C 597.436 1.71855 0.946594 0
M  V30 6610 O 596.561 1.28769 1.73918 0
M  V30 6611 C 597.156 3.24698 -0.967294 0
M  V30 6612 C 595.715 3.70147 -0.683251 0
M  V30 6613 C 594.862 2.51994 -1.15733 0
M  V30 6614 H 597.813 1.18308 -1.05777 0
M  V30 6615 H 597.834 3.79386 -0.290929 0
M  V30 6616 H 597.346 3.29737 -2.04683 0
M  V30 6617 H 595.447 3.70607 0.384825 0
M  V30 6618 H 595.56 4.62183 -1.2619 0
M  V30 6619 H 593.924 2.48078 -0.577024 0
M  V30 6620 H 594.707 2.59778 -2.24434 0
M  V30 6621 N 597.152 0.631951 1.44375 0
M  V30 6622 C 598.563 0.219036 1.85411 0
M  V30 6623 C 598.914 -1.22974 1.52879 0
M  V30 6624 O 598.039 -1.93579 0.967266 0
M  V30 6625 C 598.634 0.39075 3.36539 0
M  V30 6626 C 597.193 0.0323351 3.76386 0
M  V30 6627 C 596.34 0.703744 2.68221 0
M  V30 6628 H 599.291 0.837056 1.3483 0
M  V30 6629 H 599.312 -0.370056 3.78696 0
M  V30 6630 H 598.824 1.44527 3.60185 0
M  V30 6631 H 596.925 -1.02042 3.58355 0
M  V30 6632 H 597.038 0.442969 4.77048 0
M  V30 6633 H 595.402 0.138974 2.54321 0
M  V30 6634 H 596.185 1.76088 2.947 0
M  V30 6635 N 598.631 -1.53133 0.372548 0
M  V30 6636 C 600.042 -1.86404 -0.105155 0
M  V30 6637 C 600.393 -1.29289 -1.47576 0
M  V30 6638 O 599.518 -0.617646 -2.07398 0
M  V30 6639 C 600.113 -3.38223 -0.197588 0
M  V30 6640 C 598.672 -3.71266 -0.619556 0
M  V30 6641 C 597.819 -2.76353 0.228919 0
M  V30 6642 H 600.77 -1.47282 0.591077 0
M  V30 6643 H 600.791 -3.66577 -1.01987 0
M  V30 6644 H 600.303 -3.79763 0.800099 0
M  V30 6645 H 598.404 -3.35287 -1.62522 0
M  V30 6646 H 598.517 -4.77515 -0.389332 0
M  V30 6647 H 596.881 -2.52888 -0.303271 0
M  V30 6648 H 597.664 -3.20728 1.22428 0
M  V30 6649 N 600.109 -0.101901 -1.5727 0
M  V30 6650 C 601.52 0.426173 -1.81771 0
M  V30 6651 C 601.871 1.67725 -1.01797 0
M  V30 6652 O 600.996 2.14958 -0.249386 0
M  V30 6653 C 601.591 0.779962 -3.297 0
M  V30 6654 C 600.15 1.25275 -3.54941 0
M  V30 6655 C 599.297 0.252814 -2.76145 0
M  V30 6656 H 602.248 -0.32726 -1.55289 0
M  V30 6657 H 602.269 1.63891 -3.43395 0
M  V30 6658 H 601.781 -0.130778 -3.8788 0
M  V30 6659 H 599.882 2.18097 -3.021 0
M  V30 6660 H 599.995 1.20988 -4.63572 0
M  V30 6661 H 598.359 0.736362 -2.43823 0
M  V30 6662 H 599.142 -0.650724 -3.37076 0
M  V30 6663 N 601.587 1.56661 0.17182 0
M  V30 6664 C 602.998 1.71652 0.734329 0
M  V30 6665 C 603.349 0.712335 1.82812 0
M  V30 6666 O 602.474 -0.126401 2.16031 0
M  V30 6667 C 603.069 3.11226 1.3388 0
M  V30 6668 C 601.628 3.27904 1.84813 0
M  V30 6669 C 600.775 2.67603 0.726917 0
M  V30 6670 H 603.726 1.5861 -0.0535665 0
M  V30 6671 H 603.747 3.09849 2.20849 0
M  V30 6672 H 603.259 3.8429 0.54249 0
M  V30 6673 H 601.36 2.59796 2.6709 0
M  V30 6674 H 601.473 4.35637 1.99392 0
M  V30 6675 H 599.837 2.274 1.14723 0
M  V30 6676 H 600.62 3.43252 -0.0575334 0
M  V30 6677 N 603.065 -0.440357 1.51323 0
M  V30 6678 C 604.481 -0.7766 1.39431 0
M  V30 6679 C 604.681 -1.95838 0.474296 0
M  V30 6680 O 603.737 -2.52398 -0.0716692 0
M  V30 6681 C 605.05 -1.05981 2.81405 0
M  V30 6682 C 606.598 -1.16442 2.90534 0
M  V30 6683 C 607.073 -1.48058 4.33408 0
M  V30 6684 N 608.564 -1.54988 4.36501 0
M  V30 6685 C 609.299 -1.81017 5.44078 0
M  V30 6686 N 608.795 -2.04858 6.61819 0
M  V30 6687 N 610.588 -1.82774 5.31554 0
M  V30 6688 H 602.739 0.338006 2.09693 0
M  V30 6689 H 605.002 0.0888072 0.943831 0
M  V30 6690 H 604.708 -0.264173 3.50706 0
M  V30 6691 H 604.582 -1.98822 3.20546 0
M  V30 6692 H 606.969 -1.95068 2.21432 0
M  V30 6693 H 607.05 -0.215088 2.54894 0
M  V30 6694 H 606.694 -0.699605 5.03059 0
M  V30 6695 H 606.624 -2.44192 4.66559 0
M  V30 6696 H 609.115 -1.38479 3.51613 0
M  V30 6697 H 609.428 -2.2408 7.396 0
M  V30 6698 H 607.773 -2.02187 6.6494 0
M  V30 6699 H 610.964 -1.63665 4.38556 0
M  V30 6700 H 611.137 -2.02722 6.15474 0
M  V30 6701 N 604.543 -1.41418 -0.695603 0
M  V30 6702 C 605.453 -1.45622 -1.83933 0
M  V30 6703 C 606.469 -0.346825 -1.70508 0
M  V30 6704 O 607.645 -0.59454 -1.92424 0
M  V30 6705 C 604.71 -1.33627 -3.19914 0
M  V30 6706 C 603.771 -2.54882 -3.45447 0
M  V30 6707 C 603.004 -2.43449 -4.7494 0
M  V30 6708 O 603.227 -1.45905 -5.51424 0
M  V30 6709 O 602.161 -3.33206 -5.01256 0
M  V30 6710 H 605.987 -2.42114 -1.83342 0
M  V30 6711 H 603.572 -1.22956 -0.848658 0
M  V30 6712 H 605.454 -1.29221 -4.01098 0
M  V30 6713 H 604.129 -0.402508 -3.21188 0
M  V30 6714 H 603.036 -2.64865 -2.64192 0
M  V30 6715 H 604.369 -3.47087 -3.48987 0
M  V30 6716 N 606.021 0.929856 -1.27246 0
M  V30 6717 C 606.984 2.01172 -1.09829 0
M  V30 6718 C 607.984 1.60743 -0.0429687 0
M  V30 6719 O 609.174 1.71813 -0.287373 0
M  V30 6720 C 606.306 3.34191 -0.673003 0
M  V30 6721 H 607.499 2.18054 -2.05895 0
M  V30 6722 H 605.052 1.11036 -1.10003 0
M  V30 6723 H 605.787 3.23009 0.289134 0
M  V30 6724 H 605.572 3.64892 -1.43515 0
M  V30 6725 H 607.062 4.13646 -0.573323 0
M  V30 6726 N 607.499 1.09233 1.13605 0
M  V30 6727 C 608.724 0.849067 1.89224 0
M  V30 6728 C 609.149 -0.593875 1.78479 0
M  V30 6729 O 608.507 -1.41703 1.13092 0
M  V30 6730 C 608.555 1.28642 3.36873 0
M  V30 6731 O 607.659 0.44363 4.10007 0
M  V30 6732 H 607 0.30767 0.588417 0
M  V30 6733 H 609.53 1.45595 1.43748 0
M  V30 6734 H 609.54 1.27096 3.87699 0
M  V30 6735 H 608.215 2.33729 3.44011 0
M  V30 6736 H 606.792 0.523241 3.69211 0
M  V30 6737 N 608.977 -1.30795 0.87923 0
M  V30 6738 C 609.907 -2.30742 0.357796 0
M  V30 6739 C 610.888 -1.60747 -0.556283 0
M  V30 6740 O 612.073 -1.88393 -0.47135 0
M  V30 6741 C 609.203 -3.44583 -0.433555 0
M  V30 6742 C 608.157 -4.26235 0.388251 0
M  V30 6743 C 607.483 -5.32073 -0.529352 0
M  V30 6744 C 608.783 -4.96303 1.62729 0
M  V30 6745 H 610.477 -2.74605 1.19299 0
M  V30 6746 H 608.023 -1.32017 0.575104 0
M  V30 6747 H 609.976 -4.13563 -0.808934 0
M  V30 6748 H 608.7 -2.99511 -1.30234 0
M  V30 6749 H 607.359 -3.58936 0.745695 0
M  V30 6750 H 607.007 -4.83249 -1.39569 0
M  V30 6751 H 606.707 -5.87598 0.0166741 0
M  V30 6752 H 608.231 -6.0391 -0.901373 0
M  V30 6753 H 609.645 -5.5783 1.32283 0
M  V30 6754 H 608.042 -5.61666 2.11309 0
M  V30 6755 H 609.112 -4.22758 2.37494 0
M  V30 6756 N 610.455 -0.639598 -1.44038 0
M  V30 6757 C 611.418 0.0506628 -2.29144 0
M  V30 6758 C 612.418 0.764001 -1.41491 0
M  V30 6759 O 613.608 0.607309 -1.63271 0
M  V30 6760 C 610.74 1.0824 -3.2326 0
M  V30 6761 H 611.933 -0.697987 -2.91664 0
M  V30 6762 H 609.486 -0.400146 -1.51091 0
M  V30 6763 H 610.221 1.86075 -2.65606 0
M  V30 6764 H 610.006 0.574725 -3.87865 0
M  V30 6765 H 611.496 1.56487 -3.87171 0
M  V30 6766 N 611.933 1.52934 -0.380664 0
M  V30 6767 C 613.179 2.01765 0.20458 0
M  V30 6768 C 613.512 1.26696 1.47179 0
M  V30 6769 O 612.787 0.364936 1.91046 0
M  V30 6770 C 613.07 3.56869 0.481269 0
M  V30 6771 C 612.923 4.42617 -0.800629 0
M  V30 6772 C 614.242 4.2121 1.27554 0
M  V30 6773 H 611.361 0.733388 0.0728803 0
M  V30 6774 H 614.003 1.83068 -0.50853 0
M  V30 6775 H 612.153 3.72932 1.08875 0
M  V30 6776 H 613.825 4.38323 -1.43773 0
M  V30 6777 H 612.068 4.09977 -1.4178 0
M  V30 6778 H 612.739 5.49134 -0.561791 0
M  V30 6779 H 615.215 4.09072 0.761514 0
M  V30 6780 H 614.091 5.29732 1.43788 0
M  V30 6781 H 614.352 3.78269 2.28833 0
M  V30 6782 N 613.412 0.11024 1.57214 0
M  V30 6783 C 614.652 -0.553061 1.96775 0
M  V30 6784 C 615.016 -1.64403 0.991753 0
M  V30 6785 O 616.217 -2.36561 1.27642 0
M  V30 6786 C 614.488 -1.08004 3.4069 0
M  V30 6787 S 616.047 -1.75309 4.02259 0
M  V30 6788 H 612.865 -0.18003 0.68783 0
M  V30 6789 H 615.467 0.193242 1.94543 0
M  V30 6790 H 614.171 -0.274735 4.09479 0
M  V30 6791 H 613.702 -1.86182 3.46554 0
M  V30 6792 H 615.717 -3.03834 3.923 0
M  V30 6793 N 614.89 -1.56749 -0.16351 0
M  V30 6794 C 616.138 -1.82074 -0.87713 0
M  V30 6795 C 616.459 -0.688503 -1.82441 0
M  V30 6796 O 615.729 0.291085 -1.93725 0
M  V30 6797 H 614.309 -0.671677 -0.326893 0
M  V30 6798 H 616.971 -1.9423 -0.161459 0
M  V30 6799 H 616.067 -2.76407 -1.44934 0
M  V30 6800 N 616.368 0.432326 -1.51554 0
M  V30 6801 C 617.298 1.53242 -1.76179 0
M  V30 6802 C 618.279 1.58717 -0.611801 0
M  V30 6803 O 619.464 1.74364 -0.855033 0
M  V30 6804 C 616.594 2.91278 -1.89141 0
M  V30 6805 C 615.548 3.00663 -3.04608 0
M  V30 6806 C 614.874 4.40728 -3.02759 0
M  V30 6807 C 616.174 2.74281 -4.44485 0
M  V30 6808 H 617.868 1.32886 -2.68294 0
M  V30 6809 H 615.414 0.637841 -1.29103 0
M  V30 6810 H 617.367 3.68203 -2.04951 0
M  V30 6811 H 616.091 3.12877 -0.936785 0
M  V30 6812 H 614.75 2.26179 -2.88511 0
M  V30 6813 H 614.398 4.59301 -2.05065 0
M  V30 6814 H 614.098 4.47936 -3.80299 0
M  V30 6815 H 615.622 5.19619 -3.20669 0
M  V30 6816 H 617.036 3.40936 -4.60907 0
M  V30 6817 H 615.433 2.92893 -5.23769 0
M  V30 6818 H 616.503 1.69856 -4.54177 0
M  V30 6819 N 617.846 1.41785 0.688094 0
M  V30 6820 C 618.776 1.47 1.8142 0
M  V30 6821 C 619.757 0.327881 1.6691 0
M  V30 6822 O 620.942 0.540362 1.86531 0
M  V30 6823 C 618.072 1.35876 3.19617 0
M  V30 6824 C 617.026 2.47976 3.48844 0
M  V30 6825 C 616.352 2.21915 4.86475 0
M  V30 6826 C 617.652 3.90309 3.47068 0
M  V30 6827 H 619.346 2.41247 1.77314 0
M  V30 6828 H 616.892 1.16116 0.851651 0
M  V30 6829 H 618.845 1.38134 3.98117 0
M  V30 6830 H 617.569 0.38116 3.24368 0
M  V30 6831 H 616.228 2.45013 2.72698 0
M  V30 6832 H 615.876 1.2248 4.8786 0
M  V30 6833 H 615.576 2.97037 5.06994 0
M  V30 6834 H 617.1 2.25901 5.67275 0
M  V30 6835 H 618.514 3.94947 4.1556 0
M  V30 6836 H 616.911 4.65175 3.7912 0
M  V30 6837 H 617.981 4.17927 2.45896 0
M  V30 6838 N 619.324 -0.923095 1.27737 0
M  V30 6839 C 620.256 -2.02871 1.06658 0
M  V30 6840 C 621.269 -1.62786 0.0212095 0
M  V30 6841 O 622.458 -1.76548 0.263267 0
M  V30 6842 C 619.558 -3.33603 0.59682 0
M  V30 6843 C 618.731 -4.02354 1.71551 0
M  V30 6844 C 617.79 -5.11364 1.24071 0
M  V30 6845 O 616.816 -5.35075 1.94123 0
M  V30 6846 N 618.018 -5.80416 0.0988444 0
M  V30 6847 H 620.783 -2.21515 2.01869 0
M  V30 6848 H 618.344 -1.09378 1.19365 0
M  V30 6849 H 620.336 -4.03845 0.262984 0
M  V30 6850 H 618.906 -3.11499 -0.262187 0
M  V30 6851 H 618.126 -3.25786 2.2194 0
M  V30 6852 H 619.414 -4.45035 2.46619 0
M  V30 6853 H 618.812 -5.63611 -0.485743 0
M  V30 6854 H 617.369 -6.51563 -0.17578 0
M  V30 6855 N 620.802 -1.09834 -1.13024 0
M  V30 6856 C 621.712 -0.753731 -2.22162 0
M  V30 6857 C 622.728 0.246105 -1.72251 0
M  V30 6858 O 623.904 0.0864051 -2.01215 0
M  V30 6859 C 620.969 -0.183958 -3.46212 0
M  V30 6860 C 620.03 -1.24028 -4.10993 0
M  V30 6861 C 619.263 -0.697597 -5.29121 0
M  V30 6862 O 619.486 0.478092 -5.68393 0
M  V30 6863 O 618.42 -1.4546 -5.84059 0
M  V30 6864 H 622.246 -1.66456 -2.5402 0
M  V30 6865 H 619.831 -0.873026 -1.21238 0
M  V30 6866 H 621.713 0.130257 -4.21199 0
M  V30 6867 H 620.388 0.699823 -3.16045 0
M  V30 6868 H 619.295 -1.60725 -3.37814 0
M  V30 6869 H 620.628 -2.09685 -4.45301 0
M  V30 6870 N 622.28 1.30327 -0.886154 0
M  V30 6871 C 623.21 2.30549 -0.370028 0
M  V30 6872 C 624.191 1.61039 0.547751 0
M  V30 6873 O 625.376 1.8864 0.461353 0
M  V30 6874 C 622.506 3.44808 0.415275 0
M  V30 6875 C 621.46 4.26024 -0.41085 0
M  V30 6876 C 620.786 5.32347 0.501128 0
M  V30 6877 C 622.086 4.95433 -1.65359 0
M  V30 6878 H 623.78 2.73969 -1.20754 0
M  V30 6879 H 621.326 1.3171 -0.582097 0
M  V30 6880 H 623.279 4.13986 0.78699 0
M  V30 6881 H 622.003 3.00197 1.28644 0
M  V30 6882 H 620.662 3.58535 -0.764719 0
M  V30 6883 H 620.31 4.83982 1.37004 0
M  V30 6884 H 620.01 5.87581 -0.0478356 0
M  V30 6885 H 621.534 6.0438 0.869333 0
M  V30 6886 H 622.948 5.5712 -1.35239 0
M  V30 6887 H 621.345 5.60537 -2.14284 0
M  V30 6888 H 622.415 4.21493 -2.39733 0
M  V30 6889 N 623.758 0.647228 1.43697 0
M  V30 6890 C 624.983 0.164083 2.0675 0
M  V30 6891 C 625.408 -1.15892 1.48158 0
M  V30 6892 O 624.766 -1.71459 0.589194 0
M  V30 6893 C 624.814 0.0800368 3.60511 0
M  V30 6894 O 623.918 -0.959453 4.01084 0
M  V30 6895 H 623.259 0.0921288 0.657578 0
M  V30 6896 H 625.789 0.88846 1.84303 0
M  V30 6897 H 625.799 -0.105263 4.07864 0
M  V30 6898 H 624.474 1.04586 4.02535 0
M  V30 6899 H 623.051 -0.747425 3.65333 0
M  V30 6900 N 625.236 -1.5273 0.388769 0
M  V30 6901 C 626.461 -2.0647 -0.19621 0
M  V30 6902 C 626.886 -1.25865 -1.39784 0
M  V30 6903 O 626.244 -0.283562 -1.79069 0
M  V30 6904 C 626.292 -3.56456 -0.5451 0
M  V30 6905 O 625.396 -3.78426 -1.63912 0
M  V30 6906 H 624.737 -0.663599 -0.023067 0
M  V30 6907 H 627.267 -1.96898 0.556084 0
M  V30 6908 H 627.277 -3.99888 -0.809557 0
M  V30 6909 H 625.952 -4.14561 0.333417 0
M  V30 6910 H 624.529 -3.46884 -1.36842 0
M  V30 6911 N 626.714 -0.118576 -1.57153 0
M  V30 6912 C 627.963 0.539339 -1.94355 0
M  V30 6913 C 628.276 1.67858 -1.00415 0
M  V30 6914 O 629.482 2.39922 -1.27081 0
M  V30 6915 C 627.938 1.01082 -3.45414 0
M  V30 6916 C 627.546 -0.0999402 -4.47889 0
M  V30 6917 C 629.29 1.64013 -3.91535 0
M  V30 6918 C 627.197 0.388212 -5.90124 0
M  V30 6919 H 626.127 0.205247 -0.725527 0
M  V30 6920 H 628.778 -0.19836 -1.82425 0
M  V30 6921 H 627.16 1.80292 -3.52577 0
M  V30 6922 H 628.334 -0.876189 -4.52393 0
M  V30 6923 H 626.649 -0.635885 -4.11516 0
M  V30 6924 H 629.246 2.01649 -4.95219 0
M  V30 6925 H 629.589 2.51836 -3.31488 0
M  V30 6926 H 630.122 0.913439 -3.87171 0
M  V30 6927 H 626.861 -0.453963 -6.53926 0
M  V30 6928 H 626.381 1.13095 -5.89041 0
M  V30 6929 H 628.06 0.849574 -6.41398 0
M  V30 6930 N 628.193 1.56834 0.155195 0
M  V30 6931 C 629.609 1.51315 0.50755 0
M  V30 6932 C 629.809 0.825614 1.83809 0
M  V30 6933 O 628.865 0.39271 2.49427 0
M  V30 6934 C 630.178 2.96074 0.52542 0
M  V30 6935 C 631.726 3.06968 0.611505 0
M  V30 6936 C 632.201 4.53218 0.660115 0
M  V30 6937 N 633.692 4.5753 0.722564 0
M  V30 6938 C 634.427 5.68056 0.781023 0
M  V30 6939 N 633.923 6.88173 0.799327 0
M  V30 6940 N 635.716 5.56068 0.821278 0
M  V30 6941 H 627.867 1.9993 -0.717063 0
M  V30 6942 H 630.13 0.911507 -0.260496 0
M  V30 6943 H 629.836 3.49599 -0.383875 0
M  V30 6944 H 629.71 3.51587 1.36624 0
M  V30 6945 H 632.097 2.53468 1.51122 0
M  V30 6946 H 632.178 2.54513 -0.256306 0
M  V30 6947 H 631.822 5.07354 -0.23541 0
M  V30 6948 H 631.752 5.03447 1.5443 0
M  V30 6949 H 634.243 3.71054 0.716049 0
M  V30 6950 H 634.556 7.6816 0.845553 0
M  V30 6951 H 632.901 6.90751 0.767337 0
M  V30 6952 H 636.092 4.61142 0.804091 0
M  V30 6953 H 636.265 6.42223 0.863372 0
M  V30 6954 N 629.671 -0.424282 1.51781 0
M  V30 6955 C 630.603 -1.53457 1.70246 0
M  V30 6956 C 631.616 -1.52004 0.582967 0
M  V30 6957 O 632.805 -1.56544 0.857683 0
M  V30 6958 C 629.905 -2.92368 1.71389 0
M  V30 6959 C 629.078 -3.1818 3.00133 0
M  V30 6960 C 628.137 -4.36884 2.9329 0
M  V30 6961 O 627.163 -4.34901 3.67219 0
M  V30 6962 N 628.365 -5.4117 2.10036 0
M  V30 6963 H 631.13 -1.38017 2.66029 0
M  V30 6964 H 628.691 -0.613394 1.4983 0
M  V30 6965 H 630.683 -3.6982 1.64362 0
M  V30 6966 H 629.253 -3.0134 0.831449 0
M  V30 6967 H 628.473 -2.28908 3.20928 0
M  V30 6968 H 629.761 -3.32261 3.85331 0
M  V30 6969 H 629.159 -5.45623 1.49373 0
M  V30 6970 H 627.716 -6.17425 2.08878 0
M  V30 6971 N 631.149 -1.42148 -0.680565 0
M  V30 6972 C 632.396 -1.4231 -1.44063 0
M  V30 6973 C 632.724 -0.037488 -1.94464 0
M  V30 6974 O 631.979 0.953184 -1.70918 0
M  V30 6975 C 632.278 -2.38945 -2.65782 0
M  V30 6976 C 631.944 -3.85455 -2.33956 0
M  V30 6977 C 630.606 -4.25364 -2.24987 0
M  V30 6978 C 632.958 -4.77895 -2.08004 0
M  V30 6979 C 630.286 -5.55701 -1.88184 0
M  V30 6980 C 632.638 -6.08568 -1.72706 0
M  V30 6981 C 631.302 -6.47482 -1.62244 0
M  V30 6982 H 630.572 -0.520748 -0.527164 0
M  V30 6983 H 633.219 -1.7505 -0.776524 0
M  V30 6984 H 631.524 -1.99511 -3.37198 0
M  V30 6985 H 633.221 -2.36336 -3.23954 0
M  V30 6986 H 629.811 -3.53855 -2.41836 0
M  V30 6987 H 633.995 -4.47854 -2.1387 0
M  V30 6988 H 629.251 -5.84718 -1.78648 0
M  V30 6989 H 633.425 -6.79688 -1.5165 0
M  V30 6990 H 631.052 -7.48387 -1.33496 0
M  V30 6991 N 632.627 0.916307 -1.28225 0
M  V30 6992 C 633.557 2.0352 -1.14464 0
M  V30 6993 C 634.538 1.70045 -0.0430844 0
M  V30 6994 O 635.723 1.92954 -0.219619 0
M  V30 6995 C 632.853 3.37889 -0.803027 0
M  V30 6996 C 631.807 3.85516 -1.85908 0
M  V30 6997 C 631.133 5.1682 -1.37116 0
M  V30 6998 C 632.433 4.07655 -3.26519 0
M  V30 6999 H 634.127 2.1529 -2.08064 0
M  V30 7000 H 631.673 1.03446 -1.00174 0
M  V30 7001 H 633.626 4.15654 -0.693537 0
M  V30 7002 H 632.35 3.26164 0.168674 0
M  V30 7003 H 631.009 3.09953 -1.95767 0
M  V30 7004 H 630.657 5.01497 -0.38859 0
M  V30 7005 H 630.357 5.49657 -2.07728 0
M  V30 7006 H 631.881 5.97143 -1.27484 0
M  V30 7007 H 633.295 4.75953 -3.19596 0
M  V30 7008 H 631.692 4.51818 -3.94943 0
M  V30 7009 H 632.762 3.12553 -3.70727 0
M  V30 7010 N 634.105 1.10431 1.1244 0
M  V30 7011 C 635.015 0.765502 2.21759 0
M  V30 7012 C 636.031 -0.236966 1.72379 0
M  V30 7013 O 637.207 -0.0757329 2.01258 0
M  V30 7014 C 634.272 0.202316 3.46109 0
M  V30 7015 C 633.333 1.26205 4.1033 0
M  V30 7016 C 632.566 0.725648 5.28744 0
M  V30 7017 O 632.789 -0.447942 5.68638 0
M  V30 7018 O 631.723 1.48555 5.83279 0
M  V30 7019 H 635.549 1.67801 2.53133 0
M  V30 7020 H 633.134 0.879443 1.20773 0
M  V30 7021 H 635.016 -0.107918 4.21262 0
M  V30 7022 H 633.691 -0.683052 3.16411 0
M  V30 7023 H 632.598 1.62514 3.36957 0
M  V30 7024 H 633.931 2.12044 4.44183 0
M  V30 7025 N 635.583 -1.29855 0.893053 0
M  V30 7026 C 636.53 -2.27909 0.364161 0
M  V30 7027 C 637.5 -1.56726 -0.550093 0
M  V30 7028 O 638.685 -1.84747 -0.47677 0
M  V30 7029 C 635.825 -3.42678 -0.408178 0
M  V30 7030 C 634.938 -4.28659 0.536212 0
M  V30 7031 C 634.073 -5.30599 -0.252521 0
M  V30 7032 C 633.112 -6.08234 0.686822 0
M  V30 7033 N 632.249 -7.02068 -0.0670902 0
M  V30 7034 H 637.089 -2.72531 1.20544 0
M  V30 7035 H 634.626 -1.34047 0.605779 0
M  V30 7036 H 636.584 -4.07986 -0.871962 0
M  V30 7037 H 635.214 -2.99103 -1.21397 0
M  V30 7038 H 634.266 -3.63584 1.1185 0
M  V30 7039 H 635.578 -4.8274 1.25552 0
M  V30 7040 H 634.732 -6.01694 -0.777801 0
M  V30 7041 H 633.471 -4.77233 -1.005 0
M  V30 7042 H 632.476 -5.3601 1.22366 0
M  V30 7043 H 633.701 -6.63689 1.43852 0
M  V30 7044 H 631.647 -6.5108 -0.801955 0
M  V30 7045 H 631.564 -7.53675 0.59243 0
M  V30 7046 H 632.832 -7.77392 -0.572851 0
M  V30 7047 N 637.061 -0.65484 -1.43351 0
M  V30 7048 C 638.477 -0.32255 -1.56307 0
M  V30 7049 C 638.677 1.17324 -1.63821 0
M  V30 7050 O 637.733 1.95813 -1.59417 0
M  V30 7051 C 639.046 -1.03533 -2.82314 0
M  V30 7052 C 640.594 -1.01574 -2.9606 0
M  V30 7053 C 641.069 -1.70945 -4.24902 0
M  V30 7054 N 642.56 -1.67716 -4.3177 0
M  V30 7055 C 643.295 -2.18265 -5.30234 0
M  V30 7056 N 642.791 -2.7711 -6.34966 0
M  V30 7057 N 644.584 -2.08756 -5.21898 0
M  V30 7058 H 636.735 -1.62549 -1.36717 0
M  V30 7059 H 638.998 -0.683676 -0.656727 0
M  V30 7060 H 638.704 -2.09045 -2.8283 0
M  V30 7061 H 638.578 -0.587913 -3.7259 0
M  V30 7062 H 640.965 0.0309834 -2.95084 0
M  V30 7063 H 641.046 -1.50186 -2.07069 0
M  V30 7064 H 640.69 -2.75574 -4.26639 0
M  V30 7065 H 640.62 -1.19797 -5.12793 0
M  V30 7066 H 643.111 -1.24777 -3.56706 0
M  V30 7067 H 643.424 -3.13353 -7.06421 0
M  V30 7068 H 641.769 -2.81171 -6.35585 0
M  V30 7069 H 644.96 -1.62488 -4.38994 0
M  V30 7070 H 645.133 -2.48459 -5.98475 0
M  V30 7071 N 638.539 1.52521 -0.396863 0
M  V30 7072 C 639.816 1.94112 0.240842 0
M  V30 7073 C 640.196 1.33288 1.637 0
M  V30 7074 O 639.544 0.503901 2.22875 0
M  V30 7075 C 639.754 3.48033 0.259567 0
M  V30 7076 C 641.102 4.21822 0.484866 0
M  V30 7077 O 642.126 3.54579 0.339453 0
M  V30 7078 O 640.985 5.41042 0.770412 0
M  V30 7079 H 638.079 0.812973 0.151671 0
M  V30 7080 H 640.625 1.63572 -0.451918 0
M  V30 7081 H 639.397 3.84655 -0.718078 0
M  V30 7082 H 639.02 3.84899 0.996937 0
M  V30 7083 N 640.017 0.126909 1.57088 0
M  V30 7084 C 640.927 -0.833867 2.1928 0
M  V30 7085 C 641.943 -1.2868 1.17122 0
M  V30 7086 O 643.119 -1.34815 1.49622 0
M  V30 7087 C 640.184 -2.0632 2.78627 0
M  V30 7088 C 639.245 -1.66143 3.95847 0
M  V30 7089 C 638.478 -2.83217 4.52354 0
M  V30 7090 O 638.701 -3.98868 4.0775 0
M  V30 7091 O 637.635 -2.59846 5.42922 0
M  V30 7092 H 641.461 -0.334564 3.01852 0
M  V30 7093 H 639.046 -0.0991091 1.49071 0
M  V30 7094 H 640.928 -2.78304 3.16425 0
M  V30 7095 H 639.603 -2.55242 1.99082 0
M  V30 7096 H 638.51 -0.912435 3.62802 0
M  V30 7097 H 639.843 -1.21957 4.76852 0
M  V30 7098 N 641.495 -1.56914 -0.146875 0
M  V30 7099 C 642.744 -1.82546 -0.857898 0
M  V30 7100 C 643.057 -0.708169 -1.8233 0
M  V30 7101 O 644.263 -0.850093 -2.57848 0
M  V30 7102 C 642.719 -3.23548 -1.57623 0
M  V30 7103 C 642.327 -4.43212 -0.653224 0
M  V30 7104 C 644.071 -3.58453 -2.27402 0
M  V30 7105 C 641.978 -5.75237 -1.37318 0
M  V30 7106 H 640.908 -0.680786 -0.32411 0
M  V30 7107 H 643.559 -1.83166 -0.110639 0
M  V30 7108 H 641.941 -3.17315 -2.36912 0
M  V30 7109 H 643.115 -4.60682 0.104452 0
M  V30 7110 H 641.43 -4.16351 -0.0638336 0
M  V30 7111 H 644.027 -4.54349 -2.81907 0
M  V30 7112 H 644.37 -2.84516 -3.03901 0
M  V30 7113 H 644.903 -3.66347 -1.55032 0
M  V30 7114 H 641.642 -6.52269 -0.650041 0
M  V30 7115 H 641.162 -5.61703 -2.10357 0
M  V30 7116 H 642.841 -6.18039 -1.91406 0
M  V30 7117 N 642.974 0.416227 -1.52004 0
M  V30 7118 C 644.39 0.754319 -1.40649 0
M  V30 7119 C 644.59 1.95059 -0.505392 0
M  V30 7120 O 643.646 2.5248 0.0315057 0
M  V30 7121 C 644.959 1.0149 -2.83055 0
M  V30 7122 C 646.507 1.11805 -2.9235 0
M  V30 7123 C 646.982 1.41144 -4.35709 0
M  V30 7124 N 648.473 1.48024 -4.38911 0
M  V30 7125 C 649.208 1.72338 -5.46889 0
M  V30 7126 N 648.704 1.94303 -6.64995 0
M  V30 7127 N 650.497 1.74294 -5.34395 0
M  V30 7128 H 642.648 -0.371324 -2.09129 0
M  V30 7129 H 644.911 -0.103811 -0.942299 0
M  V30 7130 H 644.617 0.208345 -3.51082 0
M  V30 7131 H 644.491 1.93697 -3.23668 0
M  V30 7132 H 646.878 1.91521 -2.24508 0
M  V30 7133 H 646.959 0.17451 -2.55204 0
M  V30 7134 H 646.603 0.619484 -5.04108 0
M  V30 7135 H 646.533 2.36739 -4.70385 0
M  V30 7136 H 649.024 1.32868 -3.53772 0
M  V30 7137 H 649.337 2.12286 -7.43071 0
M  V30 7138 H 647.682 1.91582 -6.68073 0
M  V30 7139 H 650.873 1.56667 -4.41104 0
M  V30 7140 H 651.046 1.92904 -6.18621 0
M  V30 7141 N 644.452 1.42507 0.673017 0
M  V30 7142 C 645.362 1.4853 1.81593 0
M  V30 7143 C 646.378 0.373907 1.69935 0
M  V30 7144 O 647.554 0.625078 1.91454 0
M  V30 7145 C 644.619 1.387 3.17747 0
M  V30 7146 C 643.68 2.60346 3.41348 0
M  V30 7147 C 642.913 2.50975 4.71007 0
M  V30 7148 O 643.136 1.54659 5.49033 0
M  V30 7149 O 642.07 3.41138 4.95892 0
M  V30 7150 H 645.896 2.45001 1.79467 0
M  V30 7151 H 643.481 1.2429 0.82899 0
M  V30 7152 H 645.363 1.35586 3.98992 0
M  V30 7153 H 644.038 0.453555 3.20507 0
M  V30 7154 H 642.945 2.69034 2.59945 0
M  V30 7155 H 644.278 3.52595 3.43421 0
M  V30 7156 N 645.93 -0.909495 1.28709 0
M  V30 7157 C 647.176 -1.66151 1.16283 0
M  V30 7158 C 647.509 -1.92067 -0.287069 0
M  V30 7159 O 646.784 -1.52409 -1.20837 0
M  V30 7160 C 647.067 -3.01676 1.9663 0
M  V30 7161 C 646.92 -2.82888 3.49707 0
M  V30 7162 C 648.239 -4.02274 1.78504 0
M  V30 7163 H 645.358 -0.602966 0.423793 0
M  V30 7164 H 648 -1.05418 1.58073 0
M  V30 7165 H 646.15 -3.53515 1.61119 0
M  V30 7166 H 647.822 -2.38026 3.95147 0
M  V30 7167 H 646.065 -2.17862 3.75125 0
M  V30 7168 H 646.736 -3.79147 4.01187 0
M  V30 7169 H 649.212 -3.59511 2.09503 0
M  V30 7170 H 648.088 -4.95056 2.37088 0
M  V30 7171 H 648.349 -4.35903 0.737647 0
M  V30 7172 N 647.408 -1.11026 -1.11852 0
M  V30 7173 C 648.371 -0.768006 -2.1595 0
M  V30 7174 C 649.371 0.210538 -1.59416 0
M  V30 7175 O 650.561 -0.0133978 -1.74195 0
M  V30 7176 C 647.693 -0.138678 -3.40618 0
M  V30 7177 H 648.886 -1.69012 -2.4774 0
M  V30 7178 H 646.439 -0.911578 -1.26964 0
M  V30 7179 H 647.174 0.793872 -3.14433 0
M  V30 7180 H 646.959 -0.843012 -3.8293 0
M  V30 7181 H 648.449 0.0848039 -4.17514 0
M  V30 7182 N 648.886 1.2938 -0.899927 0
M  V30 7183 C 650.302 1.48052 -0.596059 0
M  V30 7184 C 650.502 1.82114 0.862372 0
M  V30 7185 O 649.558 1.91774 1.64253 0
M  V30 7186 C 650.871 2.59332 -1.52208 0
M  V30 7187 C 652.419 2.73208 -1.5273 0
M  V30 7188 C 652.894 3.87617 -2.43961 0
M  V30 7189 N 654.385 3.9495 -2.42009 0
M  V30 7190 C 655.12 4.82824 -3.09303 0
M  V30 7191 N 654.616 5.75387 -3.85877 0
M  V30 7192 N 656.409 4.76317 -2.98459 0
M  V30 7193 H 648.56 1.05546 -1.8432 0
M  V30 7194 H 650.823 0.524314 -0.78981 0
M  V30 7195 H 650.529 2.41029 -2.56121 0
M  V30 7196 H 650.403 3.56139 -1.24278 0
M  V30 7197 H 652.79 2.90908 -0.495614 0
M  V30 7198 H 652.871 1.76975 -1.84698 0
M  V30 7199 H 652.515 3.70672 -3.47224 0
M  V30 7200 H 652.445 4.83218 -2.09303 0
M  V30 7201 H 654.936 3.28744 -1.86375 0
M  V30 7202 H 655.249 6.39235 -4.34279 0
M  V30 7203 H 653.594 5.75272 -3.89984 0
M  V30 7204 H 656.785 4.0299 -2.38152 0
M  V30 7205 H 656.958 5.44589 -3.51179 0
M  V30 7206 N 650.364 0.662433 1.43002 0
M  V30 7207 C 651.641 0.109096 1.95296 0
M  V30 7208 C 652.021 -1.37313 1.60338 0
M  V30 7209 O 651.369 -2.1032 0.893187 0
M  V30 7210 C 651.579 0.365096 3.47085 0
M  V30 7211 C 652.927 0.274964 4.23709 0
M  V30 7212 O 653.951 0.29816 3.5495 0
M  V30 7213 O 652.81 0.206549 5.4611 0
M  V30 7214 H 649.904 -0.00429724 0.826989 0
M  V30 7215 H 652.45 0.736308 1.52894 0
M  V30 7216 H 651.222 1.39237 3.65689 0
M  V30 7217 H 650.845 -0.294733 3.96506 0
M  V30 7218 N 651.842 -1.52309 0.404946 0
M  V30 7219 C 653.088 -2.02731 -0.164857 0
M  V30 7220 C 653.443 -1.28543 -1.43159 0
M  V30 7221 O 652.736 -0.381883 -1.87756 0
M  V30 7222 C 652.93 -3.54284 -0.470895 0
M  V30 7223 C 652.759 -4.43152 0.764625 0
M  V30 7224 C 651.529 -4.88594 1.28858 0
M  V30 7225 C 653.727 -4.874 1.64152 0
M  V30 7226 N 651.709 -5.61577 2.48001 0
M  V30 7227 C 653.08 -5.59121 2.67924 0
M  V30 7228 C 655.135 -4.69421 1.65978 0
M  V30 7229 C 653.838 -6.14772 3.73427 0
M  V30 7230 C 655.864 -5.25966 2.70396 0
M  V30 7231 C 655.226 -5.97606 3.7289 0
M  V30 7232 H 651.325 -0.78169 -0.0220025 0
M  V30 7233 H 653.909 -1.86522 0.558354 0
M  V30 7234 H 652.08 -3.70574 -1.16315 0
M  V30 7235 H 653.812 -3.91394 -1.02921 0
M  V30 7236 H 650.567 -4.6596 0.847232 0
M  V30 7237 H 650.991 -6.02712 3.08329 0
M  V30 7238 H 655.633 -4.13524 0.88079 0
M  V30 7239 H 653.351 -6.69743 4.52184 0
M  V30 7240 H 656.937 -5.13926 2.72711 0
M  V30 7241 H 655.817 -6.40577 4.52361 0
M  V30 7242 N 653.32 -0.135238 -1.57019 0
M  V30 7243 C 654.25 0.805235 -2.19176 0
M  V30 7244 C 655.231 1.2656 -1.13651 0
M  V30 7245 O 656.416 1.32528 -1.4195 0
M  V30 7246 C 653.546 2.04914 -2.80406 0
M  V30 7247 C 652.5 1.72598 -3.91655 0
M  V30 7248 C 651.826 3.04154 -4.39766 0
M  V30 7249 C 653.126 0.981709 -5.12991 0
M  V30 7250 H 654.82 0.287232 -2.98019 0
M  V30 7251 H 652.366 0.136714 -1.4335 0
M  V30 7252 H 654.319 2.71178 -3.22553 0
M  V30 7253 H 653.043 2.59067 -1.98877 0
M  V30 7254 H 651.702 1.08717 -3.50109 0
M  V30 7255 H 651.35 3.56274 -3.55075 0
M  V30 7256 H 651.05 2.83299 -5.14796 0
M  V30 7257 H 652.574 3.71509 -4.84576 0
M  V30 7258 H 653.988 1.5462 -5.52056 0
M  V30 7259 H 652.385 0.873533 -5.93708 0
M  V30 7260 H 653.455 -0.0286887 -4.84892 0
M  V30 7261 N 654.798 1.5699 0.138552 0
M  V30 7262 C 656.214 1.51844 0.491472 0
M  V30 7263 C 656.414 0.845063 1.82923 0
M  V30 7264 O 655.47 0.419143 2.48997 0
M  V30 7265 C 656.783 2.96615 0.493987 0
M  V30 7266 C 658.331 3.076 0.578913 0
M  V30 7267 C 658.806 4.53893 0.612009 0
M  V30 7268 N 660.297 4.5827 0.673997 0
M  V30 7269 C 661.032 5.68852 0.720729 0
M  V30 7270 N 660.528 6.88982 0.726292 0
M  V30 7271 N 662.321 5.56908 0.762253 0
M  V30 7272 H 654.472 1.99158 -0.738228 0
M  V30 7273 H 656.735 0.908693 -0.270149 0
M  V30 7274 H 656.441 3.49172 -0.420933 0
M  V30 7275 H 656.315 3.53017 1.32887 0
M  V30 7276 H 658.702 2.55057 1.48425 0
M  V30 7277 H 658.783 2.54227 -0.283286 0
M  V30 7278 H 658.427 5.07076 -0.289208 0
M  V30 7279 H 658.357 5.05057 1.49082 0
M  V30 7280 H 660.848 3.71793 0.676654 0
M  V30 7281 H 661.161 7.69014 0.764032 0
M  V30 7282 H 659.506 6.91526 0.69403 0
M  V30 7283 H 662.697 4.61969 0.755135 0
M  V30 7284 H 662.87 6.43102 0.795207 0
M  V30 7285 N 656.276 -0.40816 1.52223 0
M  V30 7286 C 657.522 -1.15673 1.66576 0
M  V30 7287 C 657.855 -1.90141 0.394996 0
M  V30 7288 O 657.13 -1.84798 -0.606613 0
M  V30 7289 C 657.413 -2.15042 2.88841 0
M  V30 7290 C 657.266 -1.44465 4.25969 0
M  V30 7291 C 658.585 -3.15699 3.0663 0
M  V30 7292 H 655.704 -0.41916 0.606196 0
M  V30 7293 H 658.346 -0.442348 1.84779 0
M  V30 7294 H 656.496 -2.75964 2.73452 0
M  V30 7295 H 658.168 -0.866544 4.53088 0
M  V30 7296 H 656.411 -0.746612 4.27327 0
M  V30 7297 H 657.082 -2.16976 5.07568 0
M  V30 7298 H 659.558 -2.64854 3.20923 0
M  V30 7299 H 658.434 -3.82491 3.9369 0
M  V30 7300 H 658.695 -3.83481 2.19987 0
M  V30 7301 N 657.755 -1.42862 -0.66545 0
M  V30 7302 C 659.003 -1.43546 -1.42264 0
M  V30 7303 C 659.324 -0.0563116 -1.94919 0
M  V30 7304 O 658.594 0.906568 -1.73661 0
M  V30 7305 H 657.174 -0.528464 -0.527953 0
M  V30 7306 H 659.836 -1.78363 -0.785665 0
M  V30 7307 H 658.932 -2.14079 -2.27105 0
M  V30 7308 N 659.233 0.902656 -1.29189 0
M  V30 7309 C 660.458 1.69167 -1.19989 0
M  V30 7310 C 660.883 1.86607 0.236495 0
M  V30 7311 O 660.241 1.38425 1.17082 0
M  V30 7312 C 660.289 3.05532 -1.91527 0
M  V30 7313 O 659.393 3.93621 -1.2303 0
M  V30 7314 H 658.734 0.517584 -0.415936 0
M  V30 7315 H 661.264 1.12785 -1.70706 0
M  V30 7316 H 661.274 3.55693 -1.99866 0
M  V30 7317 H 659.949 2.92156 -2.96003 0
M  V30 7318 H 658.526 3.52055 -1.22928 0
M  V30 7319 N 660.711 1.11618 1.11262 0
M  V30 7320 C 661.957 0.867463 1.83311 0
M  V30 7321 C 662.29 -0.605366 1.84524 0
M  V30 7322 O 661.565 -1.44704 1.29965 0
M  V30 7323 C 661.848 1.43207 3.30399 0
M  V30 7324 C 661.701 2.97265 3.3757 0
M  V30 7325 C 663.02 1.08454 4.26528 0
M  V30 7326 H 660.139 0.316578 0.665543 0
M  V30 7327 H 662.781 1.38137 1.30454 0
M  V30 7328 H 660.931 0.994982 3.75543 0
M  V30 7329 H 662.603 3.49591 3.00971 0
M  V30 7330 H 660.846 3.33237 2.77733 0
M  V30 7331 H 661.517 3.31859 4.41105 0
M  V30 7332 H 663.993 1.4619 3.89574 0
M  V30 7333 H 662.869 1.50633 5.27826 0
M  V30 7334 H 663.13 -0.00444568 4.421 0
M  V30 7335 N 662.189 -1.289 0.906776 0
M  V30 7336 C 663.119 -2.29932 0.406659 0
M  V30 7337 C 664.1 -1.6189 -0.522061 0
M  V30 7338 O 665.285 -1.8935 -0.431283 0
M  V30 7339 C 662.415 -3.45425 -0.360366 0
M  V30 7340 C 661.369 -4.25316 0.478574 0
M  V30 7341 C 660.695 -5.33076 -0.416373 0
M  V30 7342 C 661.995 -4.92739 1.7322 0
M  V30 7343 H 663.689 -2.72013 1.25097 0
M  V30 7344 H 661.235 -1.30768 0.602977 0
M  V30 7345 H 663.188 -4.15186 -0.721029 0
M  V30 7346 H 661.912 -3.02206 -1.23852 0
M  V30 7347 H 660.571 -3.57273 0.821662 0
M  V30 7348 H 660.219 -4.86101 -1.29287 0
M  V30 7349 H 659.919 -5.8743 0.141309 0
M  V30 7350 H 661.443 -6.05686 -0.773072 0
M  V30 7351 H 662.857 -5.54898 1.44086 0
M  V30 7352 H 661.254 -5.57057 2.23175 0
M  V30 7353 H 662.324 -4.17625 2.46408 0
M  V30 7354 N 663.667 -0.670007 -1.42649 0
M  V30 7355 C 664.944 -0.119451 -1.95235 0
M  V30 7356 C 665.324 1.36461 -1.61064 0
M  V30 7357 O 664.672 2.09843 -0.904329 0
M  V30 7358 C 664.882 -0.383498 -3.46887 0
M  V30 7359 C 666.23 -0.297431 -4.23557 0
M  V30 7360 O 667.254 -0.31698 -3.54787 0
M  V30 7361 O 666.113 -0.235507 -5.45992 0
M  V30 7362 H 663.207 -8.85474e-05 -0.827 0
M  V30 7363 H 665.753 -0.744406 -1.52501 0
M  V30 7364 H 664.525 -1.41174 -3.64946 0
M  V30 7365 H 664.148 0.273702 -3.96657 0
M  V30 7366 N 665.145 1.52092 -0.413018 0
M  V30 7367 C 666.092 2.27119 0.410558 0
M  V30 7368 C 667.062 1.29692 1.03774 0
M  V30 7369 O 668.247 1.58561 1.06128 0
M  V30 7370 C 665.387 3.09863 1.51918 0
M  V30 7371 C 664.5 4.22252 0.912528 0
M  V30 7372 C 663.635 4.92348 1.99417 0
M  V30 7373 C 662.674 5.96694 1.36466 0
M  V30 7374 N 661.811 6.60292 2.38661 0
M  V30 7375 H 666.651 2.97067 -0.235661 0
M  V30 7376 H 664.188 1.46542 -0.128055 0
M  V30 7377 H 666.146 3.56144 2.17295 0
M  V30 7378 H 664.776 2.42078 2.13537 0
M  V30 7379 H 663.828 3.80113 0.147697 0
M  V30 7380 H 665.14 4.9709 0.412717 0
M  V30 7381 H 664.294 5.42054 2.72512 0
M  V30 7382 H 663.033 4.17087 2.52764 0
M  V30 7383 H 662.038 5.46304 0.61906 0
M  V30 7384 H 663.263 6.73899 0.838827 0
M  V30 7385 H 661.209 5.87858 2.91134 0
M  V30 7386 H 661.126 7.30816 1.93503 0
M  V30 7387 H 662.394 7.14635 3.11314 0
M  V30 7388 N 666.623 0.143563 1.56945 0
M  V30 7389 C 667.553 -0.7936 2.196 0
M  V30 7390 C 668.534 -1.25955 1.14321 0
M  V30 7391 O 669.719 -1.31773 1.42651 0
M  V30 7392 C 666.849 -2.03424 2.81489 0
M  V30 7393 C 665.803 -1.70519 3.92565 0
M  V30 7394 C 665.129 -3.01817 4.41373 0
M  V30 7395 C 666.429 -0.95449 5.13504 0
M  V30 7396 H 668.123 -0.271423 2.98167 0
M  V30 7397 H 665.669 -0.12911 1.4342 0
M  V30 7398 H 667.622 -2.69463 3.23987 0
M  V30 7399 H 666.346 -2.58008 2.00248 0
M  V30 7400 H 665.005 -1.06859 3.5068 0
M  V30 7401 H 664.653 -3.54386 3.56959 0
M  V30 7402 H 664.353 -2.80565 5.16292 0
M  V30 7403 H 665.877 -3.68934 4.86539 0
M  V30 7404 H 667.291 -1.5169 5.52868 0
M  V30 7405 H 665.688 -0.842035 5.94163 0
M  V30 7406 H 666.758 0.0544033 4.84869 0
M  V30 7407 N 668.101 -1.57061 -0.130224 0
M  V30 7408 C 669.031 -2.02552 -1.16168 0
M  V30 7409 C 670.012 -0.907971 -1.4384 0
M  V30 7410 O 671.197 -1.17693 -1.54473 0
M  V30 7411 C 668.327 -2.42035 -2.49071 0
M  V30 7412 C 667.281 -3.5713 -2.35886 0
M  V30 7413 C 666.607 -3.82478 -3.7365 0
M  V30 7414 C 667.907 -4.89236 -1.8288 0
M  V30 7415 H 669.601 -2.8897 -0.783359 0
M  V30 7416 H 667.147 -1.39021 -0.375376 0
M  V30 7417 H 669.1 -2.72462 -3.21469 0
M  V30 7418 H 667.824 -1.52573 -2.88771 0
M  V30 7419 H 666.483 -3.26895 -1.65938 0
M  V30 7420 H 666.131 -2.9024 -4.10816 0
M  V30 7421 H 665.831 -4.59944 -3.65685 0
M  V30 7422 H 667.355 -4.15347 -4.47571 0
M  V30 7423 H 668.769 -5.18272 -2.45085 0
M  V30 7424 H 667.166 -5.70624 -1.85763 0
M  V30 7425 H 668.236 -4.78494 -0.785571 0
M  V30 7426 N 669.579 0.400081 -1.52437 0
M  V30 7427 C 670.826 1.14619 -1.6694 0
M  V30 7428 C 671.154 1.90262 -0.403797 0
M  V30 7429 O 670.409 1.85835 0.61351 0
M  V30 7430 C 670.708 2.15914 -2.84808 0
M  V30 7431 C 670.374 1.57011 -4.2268 0
M  V30 7432 C 669.036 1.40672 -4.60179 0
M  V30 7433 C 671.388 1.14081 -5.08562 0
M  V30 7434 C 668.716 0.799335 -5.81229 0
M  V30 7435 C 671.068 0.547573 -6.30226 0
M  V30 7436 C 669.732 0.371389 -6.66466 0
M  V30 7437 H 669.002 0.419419 -0.610875 0
M  V30 7438 H 671.649 0.432227 -1.86558 0
M  V30 7439 H 669.954 2.93488 -2.59561 0
M  V30 7440 H 671.651 2.73533 -2.93225 0
M  V30 7441 H 668.241 1.70713 -3.93135 0
M  V30 7442 H 672.425 1.2551 -4.80168 0
M  V30 7443 H 667.681 0.65093 -6.07925 0
M  V30 7444 H 671.855 0.206575 -6.96094 0
M  V30 7445 H 669.482 -0.10135 -7.60132 0
M  V30 7446 N 671.057 1.43213 0.657864 0
M  V30 7447 C 672.007 1.44459 1.76396 0
M  V30 7448 C 672.991 0.313641 1.57814 0
M  V30 7449 O 674.183 0.557094 1.68004 0
M  V30 7450 C 671.312 1.36586 3.14959 0
M  V30 7451 C 670.398 2.54692 3.39106 0
M  V30 7452 N 670.789 3.80059 3.33749 0
M  V30 7453 C 669.087 2.49316 3.69807 0
M  V30 7454 C 669.788 4.58606 3.57849 0
M  V30 7455 N 668.764 3.89267 3.79437 0
M  V30 7456 H 672.566 2.39265 1.70673 0
M  V30 7457 H 670.08 1.378 0.859357 0
M  V30 7458 H 672.077 1.35561 3.94245 0
M  V30 7459 H 670.737 0.427956 3.21867 0
M  V30 7460 H 671.748 4.12414 3.13266 0
M  V30 7461 H 668.425 1.6419 3.83859 0
M  V30 7462 H 669.815 5.67619 3.59525 0
M  V30 7463 N 672.536 -0.895792 1.29666 0
M  V30 7464 C 673.785 -1.64131 1.17234 0
M  V30 7465 C 674.098 -1.93665 -0.274416 0
M  V30 7466 O 675.304 -2.66472 -0.520105 0
M  V30 7467 C 673.76 -2.95764 2.05065 0
M  V30 7468 C 673.368 -2.7381 3.54587 0
M  V30 7469 C 675.112 -3.737 2.01367 0
M  V30 7470 C 673.019 -4.01194 4.34508 0
M  V30 7471 H 671.949 -0.615742 0.435175 0
M  V30 7472 H 674.6 -0.992626 1.54335 0
M  V30 7473 H 672.982 -3.61867 1.60837 0
M  V30 7474 H 674.156 -2.16277 4.06892 0
M  V30 7475 H 672.471 -2.09265 3.59996 0
M  V30 7476 H 675.068 -4.68152 2.58337 0
M  V30 7477 H 675.411 -4.04245 0.994575 0
M  V30 7478 H 675.944 -3.14444 2.43659 0
M  V30 7479 H 672.683 -3.75813 5.37071 0
M  V30 7480 H 672.203 -4.58272 3.86971 0
M  V30 7481 H 673.882 -4.69307 4.45376 0
M  V30 7482 N 674.014 -1.12206 -1.10668 0
M  V30 7483 C 675.244 -0.897332 -1.86095 0
M  V30 7484 C 675.652 0.556778 -1.80822 0
M  V30 7485 O 674.995 1.39658 -1.19337 0
M  V30 7486 C 675.057 -1.29095 -3.35522 0
M  V30 7487 C 674.721 -2.75586 -3.64556 0
M  V30 7488 C 675.718 -3.73785 -3.6136 0
M  V30 7489 C 673.403 -3.12432 -3.93309 0
M  V30 7490 C 675.397 -5.06845 -3.86506 0
M  V30 7491 C 673.084 -4.45675 -4.18111 0
M  V30 7492 C 674.082 -5.42691 -4.147 0
M  V30 7493 O 673.77 -6.73532 -4.38873 0
M  V30 7494 H 673.502 -0.320704 -0.595084 0
M  V30 7495 H 676.056 -1.49517 -1.40833 0
M  V30 7496 H 674.286 -0.636299 -3.81429 0
M  V30 7497 H 675.975 -1.04073 -3.92331 0
M  V30 7498 H 676.741 -3.46664 -3.39189 0
M  V30 7499 H 672.62 -2.3753 -3.95096 0
M  V30 7500 H 676.164 -5.82559 -3.83758 0
M  V30 7501 H 672.061 -4.72526 -4.39761 0
M  V30 7502 H 672.829 -6.79442 -4.564 0
M  V30 7503 N 675.492 1.28418 -0.913599 0
M  V30 7504 C 676.422 2.29713 -0.418847 0
M  V30 7505 C 677.403 1.62165 0.513469 0
M  V30 7506 O 678.588 1.89576 0.421235 0
M  V30 7507 C 675.718 3.45612 0.342042 0
M  V30 7508 C 674.672 4.25056 -0.501123 0
M  V30 7509 C 673.998 5.3329 0.388097 0
M  V30 7510 C 675.298 4.91814 -1.75831 0
M  V30 7511 H 676.992 2.71346 -1.26538 0
M  V30 7512 H 674.538 1.30446 -0.609903 0
M  V30 7513 H 676.491 4.15562 0.699 0
M  V30 7514 H 675.215 3.02858 1.22248 0
M  V30 7515 H 673.874 3.56833 -0.840598 0
M  V30 7516 H 673.522 4.8678 1.26707 0
M  V30 7517 H 673.222 5.87347 -0.172459 0
M  V30 7518 H 674.746 6.06088 0.74094 0
M  V30 7519 H 676.16 5.54126 -1.47026 0
M  V30 7520 H 674.557 5.55866 -2.26126 0
M  V30 7521 H 675.627 4.16313 -2.4862 0
M  V30 7522 N 676.97 0.677563 1.42291 0
M  V30 7523 C 677.9 0.014968 2.33495 0
M  V30 7524 C 678.881 -0.786376 1.50831 0
M  V30 7525 O 680.066 -0.742975 1.79426 0
M  V30 7526 C 677.196 -0.935023 3.34477 0
M  V30 7527 C 676.15 -0.242074 4.27315 0
M  V30 7528 C 675.476 -1.30519 5.18526 0
M  V30 7529 C 676.776 0.880604 5.14823 0
M  V30 7530 H 678.47 0.776671 2.89151 0
M  V30 7531 H 676.016 0.37494 1.39033 0
M  V30 7532 H 677.969 -1.40766 3.97194 0
M  V30 7533 H 676.693 -1.72818 2.77131 0
M  V30 7534 H 675.352 0.210351 3.65996 0
M  V30 7535 H 675 -2.09041 4.57505 0
M  V30 7536 H 674.7 -0.846652 5.81468 0
M  V30 7537 H 676.224 -1.7787 5.84119 0
M  V30 7538 H 677.638 0.489062 5.7121 0
M  V30 7539 H 676.035 1.26511 5.86613 0
M  V30 7540 H 677.105 1.72818 4.53059 0
M  V30 7541 N 678.448 -1.51871 0.421078 0
M  V30 7542 C 679.411 -2.25914 -0.386712 0
M  V30 7543 C 680.411 -1.28733 -0.963555 0
M  V30 7544 O 681.601 -1.52579 -0.840556 0
M  V30 7545 C 678.733 -3.03853 -1.54551 0
M  V30 7546 H 679.926 -2.98754 0.261978 0
M  V30 7547 H 677.479 -1.5533 0.173862 0
M  V30 7548 H 678.214 -2.35392 -2.23072 0
M  V30 7549 H 677.999 -3.75215 -1.13824 0
M  V30 7550 H 679.489 -3.59984 -2.11663 0
M  V30 7551 N 679.926 -0.151884 -1.56866 0
M  V30 7552 C 681.172 0.498742 -1.96572 0
M  V30 7553 C 681.505 1.64194 -1.03702 0
M  V30 7554 O 680.78 1.94334 -0.0803432 0
M  V30 7555 C 681.063 1.00027 -3.45929 0
M  V30 7556 C 680.916 -0.141767 -4.49577 0
M  V30 7557 C 682.235 1.88044 -3.97904 0
M  V30 7558 H 679.354 0.17982 -0.714726 0
M  V30 7559 H 681.996 -0.234097 -1.88552 0
M  V30 7560 H 680.146 1.62476 -3.52894 0
M  V30 7561 H 681.818 -0.778269 -4.54687 0
M  V30 7562 H 680.061 -0.80019 -4.26356 0
M  V30 7563 H 680.732 0.250947 -5.51429 0
M  V30 7564 H 683.208 1.35416 -3.93449 0
M  V30 7565 H 682.084 2.20043 -5.02864 0
M  V30 7566 H 682.345 2.81916 -3.40552 0
M  V30 7567 N 681.404 1.57128 0.121893 0
M  V30 7568 C 682.334 2.03165 1.15092 0
M  V30 7569 C 683.315 0.915587 1.43356 0
M  V30 7570 O 684.5 1.1851 1.53847 0
M  V30 7571 C 681.63 2.43352 2.47784 0
M  V30 7572 C 680.584 3.58376 2.33989 0
M  V30 7573 C 679.91 3.84454 3.71617 0
M  V30 7574 C 681.21 4.90199 1.80283 0
M  V30 7575 H 682.904 2.89382 0.768023 0
M  V30 7576 H 680.45 1.39218 0.367998 0
M  V30 7577 H 682.403 2.74163 3.20019 0
M  V30 7578 H 681.127 1.54103 2.87958 0
M  V30 7579 H 679.786 3.2777 1.64202 0
M  V30 7580 H 679.434 2.92414 4.09271 0
M  V30 7581 H 679.134 4.61877 3.6324 0
M  V30 7582 H 680.658 4.17714 4.45362 0
M  V30 7583 H 682.072 5.19565 2.42333 0
M  V30 7584 H 680.469 5.71601 1.82735 0
M  V30 7585 H 681.539 4.78904 0.760184 0
M  V30 7586 N 682.882 -0.391992 1.52647 0
M  V30 7587 C 683.845 -1.46135 1.7657 0
M  V30 7588 C 684.845 -1.47701 0.635698 0
M  V30 7589 O 686.035 -1.48924 0.903728 0
M  V30 7590 C 683.167 -2.85443 1.86374 0
M  V30 7591 H 684.36 -1.26208 2.72051 0
M  V30 7592 H 681.913 -0.623549 1.43323 0
M  V30 7593 H 682.648 -3.10718 0.928685 0
M  V30 7594 H 682.433 -2.85708 2.68539 0
M  V30 7595 H 683.923 -3.62933 2.06566 0
M  V30 7596 N 684.36 -1.4356 -0.65026 0
M  V30 7597 C 685.59 -1.48563 -1.4357 0
M  V30 7598 C 685.998 -0.103041 -1.88919 0
M  V30 7599 O 685.341 0.897602 -1.60277 0
M  V30 7600 C 685.403 -2.37181 -2.70158 0
M  V30 7601 C 685.067 -3.84673 -2.4673 0
M  V30 7602 C 686.064 -4.75704 -2.09765 0
M  V30 7603 C 683.749 -4.29189 -2.60963 0
M  V30 7604 C 685.743 -6.09249 -1.87334 0
M  V30 7605 C 683.43 -5.62787 -2.38147 0
M  V30 7606 C 684.428 -6.52634 -2.01389 0
M  V30 7607 O 684.116 -7.83761 -1.78813 0
M  V30 7608 H 683.848 -0.506743 -0.447423 0
M  V30 7609 H 686.402 -1.89001 -0.80423 0
M  V30 7610 H 684.632 -1.91636 -3.35876 0
M  V30 7611 H 686.321 -2.33354 -3.32116 0
M  V30 7612 H 687.087 -4.42589 -1.98343 0
M  V30 7613 H 682.966 -3.59529 -2.88548 0
M  V30 7614 H 686.51 -6.7934 -1.58567 0
M  V30 7615 H 682.407 -5.95469 -2.49173 0
M  V30 7616 H 683.175 -7.95368 -1.93214 0
M  V30 7617 N 685.838 0.888903 -1.30139 0
M  V30 7618 C 687.063 1.67884 -1.21777 0
M  V30 7619 C 687.488 1.86848 0.216689 0
M  V30 7620 O 686.846 1.39659 1.15608 0
M  V30 7621 C 686.894 3.03483 -1.94757 0
M  V30 7622 O 685.998 3.92294 -1.27198 0
M  V30 7623 H 685.339 0.513144 -0.421402 0
M  V30 7624 H 687.869 1.10968 -1.71893 0
M  V30 7625 H 687.879 3.53553 -2.03627 0
M  V30 7626 H 686.554 2.89 -2.99085 0
M  V30 7627 H 685.131 3.50732 -1.26655 0
M  V30 7628 N 687.317 1.12792 1.10072 0
M  V30 7629 C 688.566 0.880232 1.81479 0
M  V30 7630 C 688.879 -0.595575 1.86312 0
M  V30 7631 O 690.085 -0.959979 2.53962 0
M  V30 7632 C 688.541 1.52514 3.25987 0
M  V30 7633 C 688.149 3.036 3.29441 0
M  V30 7634 C 689.893 1.35788 4.02196 0
M  V30 7635 C 687.8 3.61007 4.68431 0
M  V30 7636 H 686.73 0.325654 0.680048 0
M  V30 7637 H 689.381 1.35485 1.23758 0
M  V30 7638 H 687.763 0.978188 3.83728 0
M  V30 7639 H 688.937 3.64819 2.81502 0
M  V30 7640 H 687.252 3.19765 2.66719 0
M  V30 7641 H 689.849 1.76096 5.0487 0
M  V30 7642 H 690.192 0.301972 4.15203 0
M  V30 7643 H 690.725 1.87426 3.50879 0
M  V30 7644 H 687.464 4.66375 4.60625 0
M  V30 7645 H 686.984 3.04564 5.16721 0
M  V30 7646 H 688.663 3.60289 5.37402 0
M  V30 7647 N 688.795 -1.27931 0.920396 0
M  V30 7648 C 690.023 -1.98805 0.573087 0
M  V30 7649 C 690.438 -1.68724 -0.847201 0
M  V30 7650 O 689.795 -0.943699 -1.56207 0
M  V30 7651 C 689.846 -3.52971 0.780633 0
M  V30 7652 O 689.567 -3.81994 2.14504 0
M  V30 7653 C 691.068 -4.411 0.44105 0
M  V30 7654 H 688.288 -0.634651 0.21785 0
M  V30 7655 H 690.832 -1.62965 1.23542 0
M  V30 7656 H 688.987 -3.87048 0.165204 0
M  V30 7657 H 689.401 -4.76609 2.18962 0
M  V30 7658 H 690.875 -5.48312 0.637006 0
M  V30 7659 H 691.352 -4.34758 -0.62306 0
M  V30 7660 H 691.958 -4.12532 1.0343 0
M  V30 7661 N 690.273 -0.685099 -1.4193 0
M  V30 7662 C 691.203 -0.0273506 -2.33484 0
M  V30 7663 C 692.184 0.778366 -1.51246 0
M  V30 7664 O 693.369 0.733449 -1.79817 0
M  V30 7665 C 690.499 0.917272 -3.34968 0
M  V30 7666 C 689.453 0.21941 -4.27437 0
M  V30 7667 C 688.779 1.27768 -5.1921 0
M  V30 7668 C 690.079 -0.907894 -5.14349 0
M  V30 7669 H 691.773 -0.791994 -2.88735 0
M  V30 7670 H 689.319 -0.382308 -1.38832 0
M  V30 7671 H 691.272 1.38657 -3.97935 0
M  V30 7672 H 689.996 1.71346 -2.78043 0
M  V30 7673 H 688.655 -0.229757 -3.65879 0
M  V30 7674 H 688.303 2.06612 -4.58607 0
M  V30 7675 H 688.003 0.815803 -5.81909 0
M  V30 7676 H 689.527 1.7477 -5.85054 0
M  V30 7677 H 690.941 -0.519348 -5.70943 0
M  V30 7678 H 689.338 -1.2962 -5.85934 0
M  V30 7679 H 690.408 -1.75218 -4.52136 0
M  V30 7680 N 691.751 1.51645 -0.429126 0
M  V30 7681 C 692.997 2.02314 0.140286 0
M  V30 7682 C 693.33 1.31314 1.43074 0
M  V30 7683 O 692.605 0.425531 1.89788 0
M  V30 7684 C 692.888 3.5822 0.36749 0
M  V30 7685 C 692.741 4.39846 -0.941039 0
M  V30 7686 C 694.06 4.25055 1.14089 0
M  V30 7687 H 691.179 0.735335 0.0495112 0
M  V30 7688 H 693.821 1.81358 -0.566514 0
M  V30 7689 H 691.971 3.76207 0.969556 0
M  V30 7690 H 693.643 4.33527 -1.57646 0
M  V30 7691 H 691.886 4.05259 -1.54751 0
M  V30 7692 H 692.557 5.47069 -0.73621 0
M  V30 7693 H 695.033 4.11288 0.630986 0
M  V30 7694 H 693.909 5.34038 1.26863 0
M  V30 7695 H 694.17 3.85358 2.16683 0
M  V30 7696 N 693.229 0.160201 1.56784 0
M  V30 7697 C 694.162 -0.812797 2.13234 0
M  V30 7698 C 695.14 -1.2335 1.05942 0
M  V30 7699 O 696.324 -1.32725 1.33852 0
M  V30 7700 C 693.451 -2.09311 2.66283 0
M  V30 7701 C 692.497 -1.8173 3.85845 0
M  V30 7702 S 693.33 -0.996473 5.26147 0
M  V30 7703 C 694.486 -2.28769 5.82594 0
M  V30 7704 H 694.719 -0.332794 2.95432 0
M  V30 7705 H 692.252 -0.0542971 1.54304 0
M  V30 7706 H 694.21 -2.82854 2.97496 0
M  V30 7707 H 692.871 -2.54425 1.84192 0
M  V30 7708 H 692.064 -2.76699 4.21253 0
M  V30 7709 H 691.666 -1.16289 3.55462 0
M  V30 7710 H 693.958 -3.24319 5.9483 0
M  V30 7711 H 694.901 -1.97846 6.79899 0
M  V30 7712 H 695.309 -2.40021 5.10931 0
M  V30 7713 N 694.707 -1.5719 -0.113559 0
M  V30 7714 C 695.637 -2.03772 -1.14013 0
M  V30 7715 C 696.618 -0.923176 -1.42869 0
M  V30 7716 O 697.803 -1.19325 -1.53216 0
M  V30 7717 C 694.933 -2.44663 -2.4649 0
M  V30 7718 C 693.887 -3.59612 -2.32085 0
M  V30 7719 C 693.213 -3.8642 -3.69573 0
M  V30 7720 C 694.513 -4.91149 -1.7768 0
M  V30 7721 H 696.207 -2.89785 -0.752665 0
M  V30 7722 H 693.753 -1.39412 -0.360609 0
M  V30 7723 H 695.706 -2.75857 -3.18561 0
M  V30 7724 H 694.43 -1.55628 -2.87137 0
M  V30 7725 H 693.089 -3.28636 -1.62461 0
M  V30 7726 H 692.737 -2.94581 -4.07715 0
M  V30 7727 H 692.437 -4.63797 -3.60786 0
M  V30 7728 H 693.961 -4.2007 -4.4314 0
M  V30 7729 H 695.375 -5.20843 -2.39574 0
M  V30 7730 H 693.772 -5.72562 -1.79701 0
M  V30 7731 H 694.842 -4.79301 -0.734776 0
M  V30 7732 N 696.185 0.383891 -1.52853 0
M  V30 7733 C 697.431 1.12667 -1.69345 0
M  V30 7734 C 697.786 1.87519 -0.430635 0
M  V30 7735 O 697.079 1.82742 0.575846 0
M  V30 7736 C 697.273 2.12881 -2.87082 0
M  V30 7737 C 697.102 1.47873 -4.24692 0
M  V30 7738 C 695.872 1.24064 -4.89833 0
M  V30 7739 C 698.07 0.926118 -5.05893 0
M  V30 7740 N 696.052 0.552138 -6.11412 0
M  V30 7741 C 697.423 0.365966 -6.18919 0
M  V30 7742 C 699.478 0.823023 -4.91051 0
M  V30 7743 C 698.181 -0.287204 -7.18726 0
M  V30 7744 C 700.207 0.183666 -5.91115 0
M  V30 7745 C 699.569 -0.365693 -7.0345 0
M  V30 7746 H 695.668 0.398064 -0.673104 0
M  V30 7747 H 698.252 0.415504 -1.90215 0
M  V30 7748 H 696.423 2.81329 -2.67784 0
M  V30 7749 H 698.155 2.79703 -2.92486 0
M  V30 7750 H 694.91 1.51701 -4.48647 0
M  V30 7751 H 695.334 0.223783 -6.7663 0
M  V30 7752 H 699.976 1.23354 -4.04405 0
M  V30 7753 H 697.694 -0.709719 -8.04977 0
M  V30 7754 H 701.28 0.105074 -5.81705 0
M  V30 7755 H 700.16 -0.85261 -7.79551 0
M  V30 7756 N 697.663 1.43903 0.642637 0
M  V30 7757 C 698.888 1.49758 1.43483 0
M  V30 7758 C 699.313 0.119911 1.87717 0
M  V30 7759 O 698.671 -0.888558 1.58033 0
M  V30 7760 C 698.719 2.45744 2.63898 0
M  V30 7761 O 697.823 1.95101 3.63331 0
M  V30 7762 H 697.164 0.506138 0.429791 0
M  V30 7763 H 699.694 1.88923 0.785438 0
M  V30 7764 H 699.704 2.63399 3.11584 0
M  V30 7765 H 698.379 3.45818 2.31046 0
M  V30 7766 H 696.956 1.87158 3.22531 0
M  V30 7767 N 699.141 -0.881989 1.30609 0
M  V30 7768 C 700.39 -1.62878 1.18969 0
M  V30 7769 C 700.703 -1.93946 -0.253859 0
M  V30 7770 O 701.909 -2.67008 -0.491813 0
M  V30 7771 C 700.365 -2.93573 2.0819 0
M  V30 7772 C 699.973 -2.70034 3.57471 0
M  V30 7773 C 701.717 -3.71543 2.0532 0
M  V30 7774 C 699.624 -3.96563 4.38739 0
M  V30 7775 H 698.554 -0.611092 0.441682 0
M  V30 7776 H 701.205 -0.976201 1.55379 0
M  V30 7777 H 699.587 -3.6014 1.64666 0
M  V30 7778 H 700.761 -2.11949 4.09163 0
M  V30 7779 H 699.076 -2.05435 3.62195 0
M  V30 7780 H 701.673 -4.65386 2.63288 0
M  V30 7781 H 702.016 -4.03167 1.03739 0
M  V30 7782 H 702.549 -3.11842 2.46981 0
M  V30 7783 H 699.288 -3.70095 5.41027 0
M  V30 7784 H 698.808 -4.54142 3.9181 0
M  V30 7785 H 700.487 -4.64557 4.50329 0
M  V30 7786 N 700.619 -1.13374 -1.09472 0
M  V30 7787 C 701.865 -0.906459 -1.82085 0
M  V30 7788 C 702.22 0.5614 -1.84027 0
M  V30 7789 O 701.513 1.41012 -1.29716 0
M  V30 7790 C 701.707 -1.42759 -3.2765 0
M  V30 7791 C 701.536 -2.94459 -3.39888 0
M  V30 7792 C 700.306 -3.62798 -3.51718 0
M  V30 7793 C 702.504 -3.92398 -3.32457 0
M  V30 7794 N 700.486 -5.02516 -3.52635 0
M  V30 7795 C 701.857 -5.18304 -3.40237 0
M  V30 7796 C 703.912 -3.84671 -3.16122 0
M  V30 7797 C 702.615 -6.37386 -3.33364 0
M  V30 7798 C 704.641 -5.03287 -3.10574 0
M  V30 7799 C 704.003 -6.28055 -3.18945 0
M  V30 7800 H 700.102 -0.385097 -0.680606 0
M  V30 7801 H 702.686 -1.44187 -1.30836 0
M  V30 7802 H 700.857 -0.919102 -3.77369 0
M  V30 7803 H 702.589 -1.14136 -3.88272 0
M  V30 7804 H 699.344 -3.13317 -3.55147 0
M  V30 7805 H 699.768 -5.75421 -3.56679 0
M  V30 7806 H 704.41 -2.89094 -3.0852 0
M  V30 7807 H 702.128 -7.33219 -3.3973 0
M  V30 7808 H 705.714 -4.99047 -2.9907 0
M  V30 7809 H 704.594 -7.18299 -3.14668 0
M  V30 7810 N 702.098 1.27442 -0.927168 0
M  V30 7811 C 703.03 2.25975 -0.383158 0
M  V30 7812 C 704.043 1.55382 0.485832 0
M  V30 7813 O 705.232 1.75986 0.298541 0
M  V30 7814 C 702.332 3.35629 0.469688 0
M  V30 7815 C 701.505 4.35747 -0.379886 0
M  V30 7816 C 700.564 5.24598 0.410227 0
M  V30 7817 O 699.59 5.68909 -0.181888 0
M  V30 7818 N 700.792 5.54737 1.71017 0
M  V30 7819 H 703.557 2.7329 -1.23015 0
M  V30 7820 H 701.118 1.41063 -0.794539 0
M  V30 7821 H 703.11 3.92015 1.00532 0
M  V30 7822 H 701.68 2.87919 1.21744 0
M  V30 7823 H 700.9 3.78634 -1.09682 0
M  V30 7824 H 702.188 4.99648 -0.960717 0
M  V30 7825 H 701.586 5.20594 2.21356 0
M  V30 7826 H 700.143 6.13824 2.19234 0
M  V30 7827 N 703.576 0.692616 1.41565 0
M  V30 7828 C 704.806 0.230943 2.05305 0
M  V30 7829 C 705.214 -1.12379 1.52209 0
M  V30 7830 O 704.557 -1.71281 0.663968 0
M  V30 7831 C 704.619 0.107894 3.59338 0
M  V30 7832 C 704.283 1.39419 4.35214 0
M  V30 7833 C 705.28 2.33143 4.64694 0
M  V30 7834 C 702.965 1.64674 4.74539 0
M  V30 7835 C 704.959 3.50385 5.32456 0
M  V30 7836 C 702.646 2.82202 5.42038 0
M  V30 7837 C 703.644 3.74881 5.70923 0
M  V30 7838 O 703.332 4.90351 6.37033 0
M  V30 7839 H 703.064 0.105708 0.667684 0
M  V30 7840 H 705.618 0.94488 1.82376 0
M  V30 7841 H 703.848 -0.661785 3.80995 0
M  V30 7842 H 705.537 -0.316213 4.04666 0
M  V30 7843 H 706.303 2.14887 4.34797 0
M  V30 7844 H 702.182 0.934007 4.51439 0
M  V30 7845 H 705.726 4.22743 5.54918 0
M  V30 7846 H 701.623 3.00376 5.71353 0
M  V30 7847 H 702.391 4.90128 6.55528 0
M  V30 7848 N 705.054 -1.51416 0.437162 0
M  V30 7849 C 706.017 -2.26312 -0.362729 0
M  V30 7850 C 707.017 -1.29748 -0.949847 0
M  V30 7851 O 708.207 -1.53462 -0.824325 0
M  V30 7852 C 705.339 -3.05475 -1.5132 0
M  V30 7853 H 706.532 -2.98459 0.29365 0
M  V30 7854 H 704.085 -1.55137 0.190327 0
M  V30 7855 H 704.82 -2.37744 -2.20563 0
M  V30 7856 H 704.605 -3.76401 -1.09838 0
M  V30 7857 H 706.095 -3.62209 -2.07833 0
M  V30 7858 O 706.571 -0.309557 -1.58506 0
M  V30 7859 H 707.262 0.253272 -1.92037 0
M  V30 END ATOM
M  V30 BEGIN BOND
M  V30 END BOND
M  V30 END CTAB
M  END
$$$$
