drugbank_target|P04190 Beta-lactamase 2 (DB02133; DB02153; DB04272)
 OpenBabel12092119543D

  0  0  0     0  0            999 V3000
M  V30 BEGIN CTAB
M  V30 COUNTS 4025 4054 0 0 0
M  V30 BEGIN ATOM
M  V30 1 H -0.908 1.98254 -0.117106 0
M  V30 2 N 0 1.576 0 0
M  V30 3 C 0.933 2.03868 1.02534 0
M  V30 4 C 1.911 0.928543 1.3348 0
M  V30 5 O 3.095 1.19667 1.45644 0
M  V30 6 C 0.222 2.43627 2.35294 0
M  V30 7 C -0.732 3.65373 2.2001 0
M  V30 8 S 0.101 5.13292 1.52614 0
M  V30 9 C 1.257 5.56322 2.86805 0
M  V30 10 H 1.49 2.90518 0.631377 0
M  V30 11 H -0.977 1.52953 0.210867 0
M  V30 12 H 0.981 2.67203 3.11629 0
M  V30 13 H -0.358 1.57376 2.7183 0
M  V30 14 H -1.165 3.90944 3.18086 0
M  V30 15 H -1.563 3.418 1.51819 0
M  V30 16 H 0.729 5.58782 3.83104 0
M  V30 17 H 1.672 6.56266 2.65933 0
M  V30 18 H 2.08 4.83886 2.90714 0
M  V30 19 N 1.4781 -0.272755 1.55222 0
M  V30 20 C 2.4251 -1.33716 1.88119 0
M  V30 21 C 3.3951 -1.49066 0.73271 0
M  V30 22 O 4.5801 -1.63469 0.984002 0
M  V30 23 C 1.7201 -2.69238 2.15882 0
M  V30 24 C 0.8331 -2.62108 3.43399 0
M  V30 25 C -0.0319 -3.89811 3.60861 0
M  V30 26 C -0.9929 -3.77193 4.8207 0
M  V30 27 N -1.8559 -4.9673 4.96189 0
M  V30 28 H 2.9841 -1.04962 2.78903 0
M  V30 29 H 0.5211 -0.507088 1.38083 0
M  V30 30 H 2.4791 -3.48089 2.29978 0
M  V30 31 H 1.1091 -2.96194 1.28331 0
M  V30 32 H 0.1611 -1.74967 3.37773 0
M  V30 33 H 1.4731 -2.48685 4.32386 0
M  V30 34 H 0.6271 -4.77103 3.74777 0
M  V30 35 H -0.6339 -4.06102 2.7006 0
M  V30 36 H -1.6289 -2.88284 4.68159 0
M  V30 37 H -0.4039 -3.62421 5.74307 0
M  V30 38 H -2.4579 -5.13431 4.08319 0
M  V30 39 H -2.5409 -4.85839 5.79221 0
M  V30 40 H -1.2729 -5.85594 5.1449 0
M  V30 41 N 2.9562 -1.48159 -0.537278 0
M  V30 42 C 3.9032 -1.62138 -1.64256 0
M  V30 43 C 4.8732 -0.463668 -1.59497 0
M  V30 44 O 6.0582 -0.686241 -1.78032 0
M  V30 45 C 3.1982 -1.66028 -3.02537 0
M  V30 46 C 2.3112 -2.92855 -3.17585 0
M  V30 47 C 1.4462 -2.87952 -4.46382 0
M  V30 48 C 0.4852 -4.09516 -4.54932 0
M  V30 49 N -0.3778 -4.02733 -5.75109 0
M  V30 50 H 4.4622 -2.56529 -1.51647 0
M  V30 51 H 1.9992 -1.27224 -0.738414 0
M  V30 52 H 3.9572 -1.66265 -3.82638 0
M  V30 53 H 2.5872 -0.751331 -3.13934 0
M  V30 54 H 1.6392 -3.02395 -2.30784 0
M  V30 55 H 2.9512 -3.82822 -3.19764 0
M  V30 56 H 2.1052 -2.8655 -5.34765 0
M  V30 57 H 0.8442 -1.95702 -4.46712 0
M  V30 58 H -0.1508 -4.11201 -3.64957 0
M  V30 59 H 1.0742 -5.02917 -4.56346 0
M  V30 60 H -0.9798 -3.13299 -5.76351 0
M  V30 61 H -1.0628 -4.86397 -5.78752 0
M  V30 62 H 0.2052 -4.05379 -6.65799 0
M  V30 63 N 4.4343 0.785586 -1.36625 0
M  V30 64 C 5.3823 1.91978 -1.31329 0
M  V30 65 C 6.3763 1.68162 -0.204416 0
M  V30 66 O 7.5823 1.76122 -0.371645 0
M  V30 67 H 3.9573 0.631087 -0.408942 0
M  V30 68 H 5.9283 1.93562 -2.27104 0
M  V30 69 C 4.6773 3.29055 -1.12329 0
M  V30 70 H 4.0003 3.4795 -1.96903 0
M  V30 71 H 5.4403 4.08756 -1.12671 0
M  V30 72 C 3.8993 3.36461 0.171861 0
M  V30 73 O 4.4293 3.84576 1.16035 0
M  V30 74 N 2.6353 2.89782 0.217846 0
M  V30 75 H 2.1823 2.50819 -0.587183 0
M  V30 76 H 2.1403 2.95119 1.08408 0
M  V30 77 N 5.9124 1.20967 1.01018 0
M  V30 78 C 7.1404 1.04956 1.78303 0
M  V30 79 C 7.5554 -0.400915 1.84494 0
M  V30 80 O 6.9124 -1.27826 1.30257 0
M  V30 81 C 6.9634 1.63403 3.22462 0
M  V30 82 O 6.6844 3.02775 3.16637 0
M  V30 83 C 8.1854 1.52432 4.16268 0
M  V30 84 H 5.4054 0.368858 0.560522 0
M  V30 85 H 7.9494 1.60193 1.27116 0
M  V30 86 H 6.1044 1.1227 3.70775 0
M  V30 87 H 6.5184 3.30626 4.07169 0
M  V30 88 H 7.9924 1.98078 5.15237 0
M  V30 89 H 8.4694 0.477875 4.36592 0
M  V30 90 H 9.0754 2.02787 3.73841 0
M  V30 91 N 7.3905 -1.2043 1.01659 0
M  V30 92 C 8.3205 -2.25466 0.607226 0
M  V30 93 C 9.3015 -1.65853 -0.377716 0
M  V30 94 O 10.4865 -1.92409 -0.263149 0
M  V30 95 C 7.6165 -3.47256 -0.0552949 0
M  V30 96 C 6.5705 -4.19462 0.850632 0
M  V30 97 C 5.8965 -5.34673 0.0538859 0
M  V30 98 C 7.1965 -4.75603 2.15868 0
M  V30 99 H 8.8905 -2.59962 1.48526 0
M  V30 100 H 6.4365 -1.2496 0.715605 0
M  V30 101 H 8.3895 -4.19917 -0.353233 0
M  V30 102 H 7.1135 -3.11924 -0.968045 0
M  V30 103 H 5.7725 -3.48667 1.13257 0
M  V30 104 H 5.4205 -4.95585 -0.860514 0
M  V30 105 H 5.1205 -5.83913 0.657192 0
M  V30 106 H 6.6445 -6.10138 -0.237598 0
M  V30 107 H 8.0585 -5.40083 1.92311 0
M  V30 108 H 6.4555 -5.3528 2.71284 0
M  V30 109 H 7.5255 -3.94346 2.82169 0
M  V30 110 N 8.8686 -0.792821 -1.36206 0
M  V30 111 C 9.7986 -0.207853 -2.32573 0
M  V30 112 C 10.7796 0.659055 -1.56813 0
M  V30 113 O 11.9646 0.592176 -1.84951 0
M  V30 114 C 9.0946 0.655449 -3.41059 0
M  V30 115 C 8.0486 -0.111842 -4.27854 0
M  V30 116 C 7.3746 0.872274 -5.27537 0
M  V30 117 C 8.6746 -1.30299 -5.05786 0
M  V30 118 H 10.3686 -1.01294 -2.81744 0
M  V30 119 H 7.9146 -0.48854 -1.3546 0
M  V30 120 H 9.8676 1.07464 -4.07467 0
M  V30 121 H 8.5916 1.49328 -2.90463 0
M  V30 122 H 7.2506 -0.512053 -3.63006 0
M  V30 123 H 6.8986 1.70523 -4.73214 0
M  V30 124 H 6.5986 0.363291 -5.86476 0
M  V30 125 H 8.1226 1.28996 -5.96818 0
M  V30 126 H 9.5366 -0.959379 -5.65216 0
M  V30 127 H 7.9336 -1.7455 -5.74154 0
M  V30 128 H 9.0036 -2.09663 -4.37229 0
M  V30 129 N 10.3467 1.47872 -0.545128 0
M  V30 130 C 11.2937 2.29849 0.2093 0
M  V30 131 C 12.2637 1.38313 0.919707 0
M  V30 132 O 13.4487 1.67277 0.917772 0
M  V30 133 C 10.5887 3.22019 1.24088 0
M  V30 134 C 9.7017 4.2864 0.537778 0
M  V30 135 C 8.8367 5.07973 1.5536 0
M  V30 136 C 7.8757 6.06381 0.8348 0
M  V30 137 N 7.0127 6.78717 1.79688 0
M  V30 138 H 11.8527 2.93845 -0.49591 0
M  V30 139 H 9.3897 1.44848 -0.256389 0
M  V30 140 H 11.3477 3.73868 1.85144 0
M  V30 141 H 9.9777 2.59914 1.91428 0
M  V30 142 H 9.0297 3.7994 -0.187046 0
M  V30 143 H 10.3417 4.98793 -0.0258907 0
M  V30 144 H 9.4957 5.63912 2.23803 0
M  V30 145 H 8.2347 4.37693 2.15118 0
M  V30 146 H 7.2397 5.49631 0.136388 0
M  V30 147 H 8.4647 6.78665 0.24313 0
M  V30 148 H 6.4107 6.11177 2.38326 0
M  V30 149 H 6.3277 7.44998 1.28505 0
M  V30 150 H 7.5957 7.39237 2.47282 0
M  V30 151 N 11.8248 0.280983 1.55075 0
M  V30 152 C 13.0708 -0.33461 2.00021 0
M  V30 153 C 13.4038 -1.55063 1.16915 0
M  V30 154 O 12.6788 -1.93006 0.240646 0
M  V30 155 C 12.9618 -0.711007 3.53011 0
M  V30 156 C 12.8148 0.512766 4.46868 0
M  V30 157 C 14.1338 -1.54522 4.12081 0
M  V30 158 H 11.2528 -0.120147 0.727141 0
M  V30 159 H 13.8948 0.389097 1.85973 0
M  V30 160 H 12.0448 -1.32761 3.65112 0
M  V30 161 H 13.7168 1.15131 4.46702 0
M  V30 162 H 11.9598 1.14975 4.18286 0
M  V30 163 H 12.6308 0.205556 5.51617 0
M  V30 164 H 15.1068 -1.02442 4.03293 0
M  V30 165 H 13.9828 -1.77739 5.19327 0
M  V30 166 H 14.2438 -2.52813 3.62682 0
M  V30 167 N 13.3029 -1.57598 0.00835791 0
M  V30 168 C 14.5509 -1.90551 -0.6734 0
M  V30 169 C 14.8719 -0.883301 -1.73847 0
M  V30 170 O 14.1419 0.0781442 -1.95744 0
M  V30 171 H 12.7219 -0.703312 -0.251717 0
M  V30 172 H 15.3839 -1.94833 0.0512592 0
M  V30 173 H 14.4799 -2.9056 -1.13935 0
M  V30 174 N 14.781 0.264519 -1.55364 0
M  V30 175 C 15.711 1.33121 -1.91836 0
M  V30 176 C 16.692 1.51101 -0.781192 0
M  V30 177 O 17.877 1.64003 -1.04003 0
M  V30 178 C 15.007 2.68921 -2.19769 0
M  V30 179 C 13.961 2.65661 -3.35571 0
M  V30 180 C 13.287 4.05093 -3.49004 0
M  V30 181 C 14.587 2.24187 -4.71739 0
M  V30 182 H 16.281 1.02844 -2.81182 0
M  V30 183 H 13.827 0.493286 -1.35287 0
M  V30 184 H 15.78 3.43663 -2.43872 0
M  V30 185 H 14.504 3.00799 -1.27231 0
M  V30 186 H 13.163 1.93377 -3.1145 0
M  V30 187 H 12.811 4.34206 -2.53917 0
M  V30 188 H 12.511 4.03804 -4.26868 0
M  V30 189 H 14.035 4.81561 -3.75408 0
M  V30 190 H 15.449 2.88654 -4.9533 0
M  V30 191 H 13.846 2.34044 -5.52579 0
M  V30 192 H 14.916 1.19327 -4.69988 0
M  V30 193 N 16.2591 1.48442 0.529413 0
M  V30 194 C 17.4991 1.58086 1.29569 0
M  V30 195 C 17.8631 0.249302 1.90375 0
M  V30 196 O 19.0641 0.220738 2.67892 0
M  V30 197 C 17.3351 2.68793 2.35552 0
M  V30 198 S 18.8941 2.98207 3.21898 0
M  V30 199 H 15.7121 0.557922 0.440732 0
M  V30 200 H 18.3141 1.85966 0.603059 0
M  V30 201 H 17.0181 3.64102 1.89363 0
M  V30 202 H 16.5491 2.42817 3.09522 0
M  V30 203 H 18.5641 2.37548 4.35644 0
M  V30 204 N 17.7372 -0.778329 1.37039 0
M  V30 205 C 18.9832 -1.53892 1.32079 0
M  V30 206 C 19.3162 -1.9396 -0.0965386 0
M  V30 207 O 18.5912 -1.63568 -1.05242 0
M  V30 208 C 18.8742 -2.80847 2.25382 0
M  V30 209 C 18.7272 -2.47076 3.75864 0
M  V30 210 C 20.0462 -3.82741 2.1725 0
M  V30 211 H 17.1652 -0.558303 0.48111 0
M  V30 212 H 19.8072 -0.893397 1.67685 0
M  V30 213 H 17.9572 -3.35931 1.95148 0
M  V30 214 H 19.6292 -1.97957 4.16666 0
M  V30 215 H 17.8722 -1.79863 3.94755 0
M  V30 216 H 18.5432 -3.37798 4.36574 0
M  V30 217 H 21.0192 -3.37133 2.43887 0
M  V30 218 H 19.8952 -4.69303 2.84686 0
M  V30 219 H 20.1562 -4.2652 1.16331 0
M  V30 220 N 19.2153 -1.21501 -1.00376 0
M  V30 221 C 20.4633 -1.03095 -1.73827 0
M  V30 222 C 20.7843 0.436341 -1.90055 0
M  V30 223 O 20.0543 1.31466 -1.45236 0
M  V30 224 H 18.6343 -0.378487 -0.644016 0
M  V30 225 H 21.2963 -1.52831 -1.20949 0
M  V30 226 H 20.3923 -1.49991 -2.73695 0
M  V30 227 N 20.6934 1.19889 -1.02296 0
M  V30 228 C 21.6234 2.25141 -0.619174 0
M  V30 229 C 22.6044 1.66051 0.368915 0
M  V30 230 O 23.7894 1.92546 0.252941 0
M  V30 231 C 20.9194 3.4728 0.0368783 0
M  V30 232 C 19.8734 4.19005 -0.872865 0
M  V30 233 C 19.1994 5.34637 -0.0822402 0
M  V30 234 C 20.4994 4.74452 -2.18387 0
M  V30 235 H 22.1934 2.59171 -1.49903 0
M  V30 236 H 19.7394 1.24579 -0.722222 0
M  V30 237 H 21.6924 4.20098 0.330958 0
M  V30 238 H 20.4164 3.12433 0.95149 0
M  V30 239 H 19.0754 3.48061 -1.15105 0
M  V30 240 H 18.7234 4.96034 0.83422 0
M  V30 241 H 18.4234 5.83557 -0.688149 0
M  V30 242 H 19.9474 6.10255 0.205238 0
M  V30 243 H 21.3614 5.39055 -1.95172 0
M  V30 244 H 19.7584 5.33834 -2.74119 0
M  V30 245 H 20.8284 3.92844 -2.84257 0
M  V30 246 N 22.1715 0.800033 1.35784 0
M  V30 247 C 23.1015 0.220184 2.3246 0
M  V30 248 C 24.0825 -0.65073 1.57161 0
M  V30 249 O 25.2675 -0.582359 1.85263 0
M  V30 250 C 22.3975 -0.637353 3.41402 0
M  V30 251 C 21.3515 0.134531 4.27789 0
M  V30 252 C 20.6775 -0.844285 5.27992 0
M  V30 253 C 21.9775 1.32979 5.05088 0
M  V30 254 H 23.6715 1.02787 2.81203 0
M  V30 255 H 21.2175 0.495717 1.35199 0
M  V30 256 H 23.1705 -1.05302 4.08031 0
M  V30 257 H 21.8945 -1.47785 2.91251 0
M  V30 258 H 20.5535 0.531296 3.6273 0
M  V30 259 H 20.2015 -1.68011 4.74111 0
M  V30 260 H 19.9015 -0.332184 5.8666 0
M  V30 261 H 21.4255 -1.2583 5.97494 0
M  V30 262 H 22.8395 0.98934 5.64699 0
M  V30 263 H 21.2365 1.77593 5.7322 0
M  V30 264 H 22.3065 2.11978 4.36111 0
M  V30 265 N 23.6496 -1.47581 0.552962 0
M  V30 266 C 24.8976 -2.02082 0.0272703 0
M  V30 267 C 25.2186 -1.4301 -1.32563 0
M  V30 268 O 24.4886 -0.603745 -1.86365 0
M  V30 269 H 23.0686 -0.746966 0.00709182 0
M  V30 270 H 25.7306 -1.81033 0.722008 0
M  V30 271 H 24.8266 -3.12034 -0.0639951 0
M  V30 272 N 25.1277 -0.289203 -1.54924 0
M  V30 273 C 26.3557 0.326463 -2.04308 0
M  V30 274 C 26.7707 1.48413 -1.16701 0
M  V30 275 O 26.1277 1.81507 -0.190087 0
M  V30 276 C 26.1787 0.794014 -3.52672 0
M  V30 277 O 25.8997 -0.317564 -4.36948 0
M  V30 278 C 27.4007 1.47605 -4.18004 0
M  V30 279 H 24.6207 0.0726272 -0.667058 0
M  V30 280 H 27.1647 -0.425401 -2.00026 0
M  V30 281 H 25.3197 1.49593 -3.57352 0
M  V30 282 H 25.7337 0.0443186 -5.24481 0
M  V30 283 H 27.2077 1.75447 -5.23376 0
M  V30 284 H 27.6847 2.41224 -3.67025 0
M  V30 285 H 28.2907 0.81762 -4.17367 0
M  V30 286 N 26.6058 1.57591 -0.0167156 0
M  V30 287 C 27.8548 1.90461 0.663877 0
M  V30 288 C 28.1678 0.893515 1.73999 0
M  V30 289 O 29.3738 1.11302 2.47637 0
M  V30 290 C 27.8298 3.38155 1.23204 0
M  V30 291 C 27.4378 4.47597 0.189866 0
M  V30 292 C 29.1818 3.80111 1.88986 0
M  V30 293 C 27.0888 5.86379 0.768964 0
M  V30 294 H 26.0188 0.710738 0.251729 0
M  V30 295 H 28.6698 1.83326 -0.0799926 0
M  V30 296 H 27.0518 3.40182 2.02712 0
M  V30 297 H 28.2258 4.57112 -0.581846 0
M  V30 298 H 26.5408 4.14766 -0.368475 0
M  V30 299 H 29.1378 4.81145 2.33247 0
M  V30 300 H 29.4808 3.14511 2.72743 0
M  V30 301 H 30.0138 3.80454 1.16187 0
M  V30 302 H 26.7528 6.55493 -0.0301957 0
M  V30 303 H 26.2728 5.80496 1.50945 0
M  V30 304 H 27.9518 6.34563 1.26251 0
M  V30 305 N 28.0839 -0.256276 1.55502 0
M  V30 306 C 29.0159 -1.33981 1.85962 0
M  V30 307 C 30.0289 -1.44743 0.745212 0
M  V30 308 O 31.2179 -1.4626 1.02324 0
M  V30 309 C 28.3179 -2.7194 2.02242 0
M  V30 310 C 27.4909 -2.83562 3.33033 0
M  V30 311 C 26.5499 -4.02304 3.39172 0
M  V30 312 O 25.5759 -3.92273 4.12444 0
M  V30 313 N 26.7779 -5.15045 2.67784 0
M  V30 314 H 29.5429 -1.08191 2.7949 0
M  V30 315 H 27.1039 -0.446388 1.55624 0
M  V30 316 H 29.0959 -3.49697 2.03701 0
M  V30 317 H 27.6659 -2.90479 1.15502 0
M  V30 318 H 26.8859 -1.92555 3.43971 0
M  V30 319 H 28.1739 -2.88271 4.19258 0
M  V30 320 H 27.5719 -5.26085 2.07968 0
M  V30 321 H 26.1289 -5.90972 2.74947 0
M  V30 322 N 29.562 -1.4872 -0.521534 0
M  V30 323 C 30.809 -1.57168 -1.27689 0
M  V30 324 C 31.137 -0.249275 -1.92896 0
M  V30 325 O 30.392 0.761162 -1.80291 0
M  V30 326 C 30.691 -2.66497 -2.38148 0
M  V30 327 C 30.357 -4.08664 -1.90538 0
M  V30 328 C 29.019 -4.47357 -1.77271 0
M  V30 329 C 31.371 -4.97724 -1.54663 0
M  V30 330 C 28.699 -5.72905 -1.26478 0
M  V30 331 C 31.051 -6.2377 -1.05329 0
M  V30 332 C 29.715 -6.61311 -0.906861 0
M  V30 333 H 28.985 -0.575117 -0.467249 0
M  V30 334 H 31.632 -1.82472 -0.581051 0
M  V30 335 H 29.937 -2.35085 -3.13437 0
M  V30 336 H 31.634 -2.70246 -2.96257 0
M  V30 337 H 28.224 -3.78111 -2.01816 0
M  V30 338 H 32.408 -4.68501 -1.63768 0
M  V30 339 H 27.664 -6.00709 -1.13835 0
M  V30 340 H 31.838 -6.9217 -0.76644 0
M  V30 341 H 29.465 -7.5848 -0.511083 0
M  V30 342 N 31.0401 0.771051 -1.3745 0
M  V30 343 C 32.2861 1.5319 -1.32894 0
M  V30 344 C 32.6191 1.94008 0.0862511 0
M  V30 345 O 31.8941 1.64124 1.04373 0
M  V30 346 C 32.1771 2.79648 -2.26868 0
M  V30 347 C 32.0301 2.45079 -3.77169 0
M  V30 348 C 33.3491 3.81583 -2.19277 0
M  V30 349 H 30.4681 0.555744 -0.484064 0
M  V30 350 H 33.1101 0.884492 -1.68157 0
M  V30 351 H 31.2601 3.34891 -1.96926 0
M  V30 352 H 32.9321 1.95745 -4.1771 0
M  V30 353 H 31.1751 1.77767 -3.95704 0
M  V30 354 H 31.8461 3.35478 -4.38359 0
M  V30 355 H 34.3221 3.35835 -2.45671 0
M  V30 356 H 33.1981 4.67787 -2.87171 0
M  V30 357 H 33.4591 4.25897 -1.18592 0
M  V30 358 N 32.5182 1.22032 0.997298 0
M  V30 359 C 33.7432 1.06921 1.77715 0
M  V30 360 C 34.1682 -0.376226 1.84299 0
M  V30 361 O 33.5262 -1.27165 1.29223 0
M  V30 362 C 33.5742 1.67996 3.19076 0
M  V30 363 O 32.6782 0.930653 4.01762 0
M  V30 364 H 32.0192 0.375814 0.547412 0
M  V30 365 H 34.5492 1.61737 1.25309 0
M  V30 366 H 34.5592 1.72538 3.69723 0
M  V30 367 H 33.2342 2.73182 3.13599 0
M  V30 368 H 31.8112 0.960917 3.60307 0
M  V30 369 N 33.9963 -1.19345 1.0293 0
M  V30 370 C 35.2243 -1.92997 0.745644 0
M  V30 371 C 35.6393 -1.75519 -0.695589 0
M  V30 372 O 34.9963 -1.07737 -1.47306 0
M  V30 373 C 35.0473 -3.44741 1.08792 0
M  V30 374 O 34.7683 -3.61658 2.47256 0
M  V30 375 C 36.2693 -4.35515 0.827129 0
M  V30 376 H 33.4893 -0.613042 0.272801 0
M  V30 377 H 36.0333 -1.51473 1.3739 0
M  V30 378 H 34.1883 -3.84097 0.504832 0
M  V30 379 H 34.6023 -4.55514 2.60015 0
M  V30 380 H 36.0763 -5.40589 1.11658 0
M  V30 381 H 36.5533 -4.38552 -0.238436 0
M  V30 382 H 37.1593 -4.01841 1.39297 0
M  V30 383 N 35.4744 -0.807222 -1.35358 0
M  V30 384 C 36.7234 -0.384376 -1.98004 0
M  V30 385 C 37.0364 1.0543 -1.64754 0
M  V30 386 O 38.2424 1.58029 -2.20769 0
M  V30 387 C 36.6984 -0.636326 -3.5423 0
M  V30 388 C 36.3064 -2.08759 -3.96388 0
M  V30 389 C 38.0504 -0.278869 -4.23583 0
M  V30 390 C 35.9574 -2.28525 -5.45463 0
M  V30 391 H 34.8874 -0.139986 -0.740891 0
M  V30 392 H 37.5384 -0.991369 -1.54415 0
M  V30 393 H 35.9204 0.0406256 -3.95979 0
M  V30 394 H 37.0944 -2.8024 -3.6579 0
M  V30 395 H 35.4094 -2.40497 -3.39926 0
M  V30 396 H 38.0064 -0.404599 -5.33167 0
M  V30 397 H 38.3494 0.775012 -4.09022 0
M  V30 398 H 38.8824 -0.909764 -3.87257 0
M  V30 399 H 35.6214 -3.32361 -5.64992 0
M  V30 400 H 35.1414 -1.61569 -5.77629 0
M  V30 401 H 36.8204 -2.10109 -6.11934 0
M  V30 402 N 36.9525 1.47285 -0.560781 0
M  V30 403 C 38.1775 2.07359 -0.0410566 0
M  V30 404 C 38.6025 1.41017 1.24483 0
M  V30 405 O 37.9605 0.486368 1.74654 0
M  V30 406 C 38.0085 3.6035 0.134123 0
M  V30 407 O 37.1125 3.94681 1.19587 0
M  V30 408 H 36.4535 0.661887 -0.0529291 0
M  V30 409 H 38.9835 1.89252 -0.777482 0
M  V30 410 H 38.9935 4.0652 0.347207 0
M  V30 411 H 37.6685 4.08034 -0.805047 0
M  V30 412 H 36.2455 3.60251 0.962987 0
M  V30 413 N 38.4306 0.297415 1.54768 0
M  V30 414 C 39.6556 -0.318435 2.04941 0
M  V30 415 C 40.0806 -1.4701 1.17345 0
M  V30 416 O 39.4386 -1.80436 0.176758 0
M  V30 417 C 39.4866 -0.755749 3.52592 0
M  V30 418 O 38.5906 -1.86088 3.68028 0
M  V30 419 H 37.9316 -0.062421 0.661059 0
M  V30 420 H 40.4616 0.438215 1.99852 0
M  V30 421 H 40.4716 -1.04552 3.94376 0
M  V30 422 H 39.1466 0.0867233 4.1581 0
M  V30 423 H 37.7236 -1.57193 3.38149 0
M  V30 424 N 39.9087 -1.5758 0.0250728 0
M  V30 425 C 41.1547 -1.91917 -0.655413 0
M  V30 426 C 41.4877 -0.901433 -1.72011 0
M  V30 427 O 40.7627 0.0764069 -1.9435 0
M  V30 428 C 41.0457 -3.36751 -1.27558 0
M  V30 429 C 40.8987 -4.49258 -0.220719 0
M  V30 430 C 42.2177 -3.81469 -2.19475 0
M  V30 431 H 39.3367 -0.697925 -0.23679 0
M  V30 432 H 41.9787 -1.89825 0.0815036 0
M  V30 433 H 40.1287 -3.38664 -1.90365 0
M  V30 434 H 41.8007 -4.59478 0.409601 0
M  V30 435 H 40.0437 -4.31415 0.454264 0
M  V30 436 H 40.7147 -5.47618 -0.694175 0
M  V30 437 H 43.1907 -3.81266 -1.66659 0
M  V30 438 H 42.0667 -4.83512 -2.59822 0
M  V30 439 H 42.3277 -3.16744 -3.08424 0
M  V30 440 N 41.3868 0.248026 -1.55636 0
M  V30 441 C 42.3188 1.32993 -1.8667 0
M  V30 442 C 43.3318 1.44345 -0.752877 0
M  V30 443 O 44.5208 1.45715 -1.03098 0
M  V30 444 C 41.6208 2.70863 -2.03682 0
M  V30 445 C 40.7938 2.81792 -3.34532 0
M  V30 446 C 39.8528 4.005 -3.41301 0
M  V30 447 O 38.8788 3.9008 -4.14519 0
M  V30 448 N 40.0808 5.13618 -2.70512 0
M  V30 449 H 42.8458 1.06707 -2.8006 0
M  V30 450 H 40.4068 0.438129 -1.55859 0
M  V30 451 H 42.3988 3.48612 -2.05553 0
M  V30 452 H 40.9688 2.89862 -1.17041 0
M  V30 453 H 40.1888 1.90729 -3.44987 0
M  V30 454 H 41.4768 2.86043 -4.20781 0
M  V30 455 H 40.8748 5.24975 -2.10755 0
M  V30 456 H 39.4318 5.89505 -2.78077 0
M  V30 457 N 42.8649 1.48995 0.513639 0
M  V30 458 C 43.8279 1.64229 1.59879 0
M  V30 459 C 44.8279 0.514696 1.5234 0
M  V30 460 O 46.0179 0.78087 1.55718 0
M  V30 461 C 43.1499 1.62783 2.99524 0
M  V30 462 H 44.3429 2.61004 1.47705 0
M  V30 463 H 41.8959 1.37837 0.736936 0
M  V30 464 H 42.6309 0.675461 3.17188 0
M  V30 465 H 42.4159 2.4466 3.06404 0
M  V30 466 H 43.9059 1.76669 3.78388 0
M  V30 467 N 44.343 -0.763751 1.37857 0
M  V30 468 C 45.568 -1.55805 1.36893 0
M  V30 469 C 45.993 -1.88054 -0.0416135 0
M  V30 470 O 45.351 -1.49825 -1.02089 0
M  V30 471 C 45.399 -2.84012 2.22192 0
M  V30 472 O 44.503 -3.78732 1.63204 0
M  V30 473 H 43.844 -0.471638 0.46739 0
M  V30 474 H 46.374 -0.944657 1.81487 0
M  V30 475 H 46.384 -3.33037 2.35691 0
M  V30 476 H 45.059 -2.59869 3.24716 0
M  V30 477 H 43.636 -3.37402 1.58791 0
M  V30 478 N 45.8211 -1.22559 -0.990812 0
M  V30 479 C 46.7531 -0.955325 -2.08342 0
M  V30 480 C 47.7661 0.0668408 -1.62663 0
M  V30 481 O 48.9551 -0.167421 -1.77713 0
M  V30 482 C 46.0551 -0.415566 -3.36342 0
M  V30 483 C 45.2281 -1.49544 -4.11042 0
M  V30 484 C 44.2871 -0.962399 -5.17324 0
M  V30 485 O 43.3131 -1.64907 -5.44788 0
M  V30 486 N 44.5151 0.215134 -5.80101 0
M  V30 487 H 47.2801 -1.89596 -2.32106 0
M  V30 488 H 44.8411 -1.13276 -1.15673 0
M  V30 489 H 46.8331 -0.0442386 -4.04676 0
M  V30 490 H 45.4031 0.430232 -3.09625 0
M  V30 491 H 44.6231 -2.04 -3.37309 0
M  V30 492 H 45.9111 -2.22195 -4.57719 0
M  V30 493 H 45.3091 0.789779 -5.6016 0
M  V30 494 H 43.8661 0.527826 -6.49659 0
M  V30 495 N 47.2992 1.18797 -1.03562 0
M  V30 496 C 48.2462 2.22253 -0.622259 0
M  V30 497 C 49.2162 1.61987 0.36736 0
M  V30 498 O 50.4012 1.88986 0.262492 0
M  V30 499 C 47.5412 3.45097 0.0138462 0
M  V30 500 C 46.6542 4.19722 -1.02263 0
M  V30 501 C 45.7892 5.30009 -0.355573 0
M  V30 502 C 44.8282 5.96399 -1.37749 0
M  V30 503 N 43.9652 6.98234 -0.735766 0
M  V30 504 H 48.8052 2.56968 -1.50903 0
M  V30 505 H 46.3422 1.26245 -0.755017 0
M  V30 506 H 48.3002 4.15279 0.399948 0
M  V30 507 H 46.9302 3.11018 0.864158 0
M  V30 508 H 45.9822 3.48418 -1.52673 0
M  V30 509 H 47.2942 4.65227 -1.79903 0
M  V30 510 H 46.4482 6.0664 0.0850095 0
M  V30 511 H 45.1872 4.85592 0.452967 0
M  V30 512 H 44.1922 5.18512 -1.82826 0
M  V30 513 H 45.4172 6.42899 -2.18764 0
M  V30 514 H 43.3632 6.55979 0.0525597 0
M  V30 515 H 43.2802 7.41965 -1.44995 0
M  V30 516 H 44.5482 7.78845 -0.31941 0
M  V30 517 N 48.7773 0.814389 1.34928 0
M  V30 518 C 50.0233 0.399013 1.98836 0
M  V30 519 C 50.3563 -1.03314 1.64438 0
M  V30 520 O 49.6313 -1.71811 0.911659 0
M  V30 521 C 49.9143 0.591629 3.55207 0
M  V30 522 C 49.7673 2.06928 3.99376 0
M  V30 523 C 51.0863 0.022199 4.40094 0
M  V30 524 H 48.2053 0.146451 0.722303 0
M  V30 525 H 50.8473 1.02537 1.59957 0
M  V30 526 H 48.9973 0.0584441 3.88456 0
M  V30 527 H 50.6693 2.66544 3.76499 0
M  V30 528 H 48.9123 2.56287 3.49999 0
M  V30 529 H 49.5833 2.1549 5.08201 0
M  V30 530 H 52.0593 0.477643 4.13349 0
M  V30 531 H 50.9353 0.186832 5.48582 0
M  V30 532 H 51.1963 -1.07215 4.28902 0
M  V30 533 N 50.2554 -1.46986 0.568584 0
M  V30 534 C 51.1654 -2.33942 -0.17555 0
M  V30 535 C 52.1814 -1.48891 -0.90041 0
M  V30 536 O 53.3574 -1.81794 -0.86676 0
M  V30 537 C 50.4224 -3.25811 -1.18524 0
M  V30 538 C 49.4834 -4.26757 -0.466582 0
M  V30 539 C 48.7164 -5.14236 -1.42817 0
M  V30 540 O 48.9394 -5.04379 -2.66379 0
M  V30 541 O 47.8734 -5.94412 -0.946453 0
M  V30 542 H 51.6994 -2.98896 0.538036 0
M  V30 543 H 49.2844 -1.4573 0.329097 0
M  V30 544 H 51.1664 -3.82527 -1.76779 0
M  V30 545 H 49.8414 -2.63471 -1.88055 0
M  V30 546 H 48.7484 -3.73769 0.157451 0
M  V30 547 H 50.0814 -4.91843 0.187485 0
M  V30 548 N 51.7335 -0.305618 -1.54608 0
M  V30 549 C 52.6805 0.568421 -2.23691 0
M  V30 550 C 53.6505 1.12592 -1.22116 0
M  V30 551 O 54.8355 1.16959 -1.50749 0
M  V30 552 C 51.9755 1.7322 -2.98477 0
M  V30 553 C 51.0885 1.20566 -4.14835 0
M  V30 554 C 50.2235 2.33368 -4.77193 0
M  V30 555 C 49.2625 1.7787 -5.85686 0
M  V30 556 N 48.3995 2.84263 -6.4198 0
M  V30 557 H 53.2395 -0.0272867 -2.97988 0
M  V30 558 H 50.7765 -0.0252363 -1.47078 0
M  V30 559 H 52.7345 2.41675 -3.40072 0
M  V30 560 H 51.3645 2.29947 -2.26548 0
M  V30 561 H 50.4165 0.413223 -3.78149 0
M  V30 562 H 51.7285 0.759417 -4.92985 0
M  V30 563 H 50.8825 3.09761 -5.21664 0
M  V30 564 H 49.6215 2.8132 -3.98385 0
M  V30 565 H 48.6265 0.99968 -5.40635 0
M  V30 566 H 49.8515 1.30816 -6.66381 0
M  V30 567 H 47.7975 3.31541 -5.66053 0
M  V30 568 H 47.7145 2.44149 -7.15491 0
M  V30 569 H 48.9825 3.6054 -6.91109 0
M  V30 570 N 53.2116 1.57565 -0.0334293 0
M  V30 571 C 54.4396 1.9628 0.654347 0
M  V30 572 C 54.8546 0.910138 1.65414 0
M  V30 573 O 54.2116 -0.107595 1.82183 0
M  V30 574 C 54.2626 3.35067 1.35693 0
M  V30 575 O 53.9836 4.36296 0.397191 0
M  V30 576 C 55.4846 3.88439 2.13613 0
M  V30 577 H 52.7046 0.646369 0.180132 0
M  V30 578 H 55.2486 2.04282 -0.0944721 0
M  V30 579 H 53.4036 3.2827 2.05712 0
M  V30 580 H 53.8176 5.1678 0.896597 0
M  V30 581 H 55.2916 4.8788 2.58219 0
M  V30 582 H 55.7686 3.22914 2.97696 0
M  V30 583 H 56.3746 3.98516 1.48543 0
M  V30 584 N 54.6897 -0.239769 1.55765 0
M  V30 585 C 55.9357 -0.968234 1.78194 0
M  V30 586 C 56.2687 -1.84701 0.599938 0
M  V30 587 O 55.5437 -1.9031 -0.401524 0
M  V30 588 C 55.8267 -1.8227 3.10564 0
M  V30 589 C 55.6797 -0.971633 4.3918 0
M  V30 590 C 56.9987 -2.80388 3.39221 0
M  V30 591 H 54.1177 -0.350572 0.648281 0
M  V30 592 H 56.7597 -0.238259 1.885 0
M  V30 593 H 54.9097 -2.44507 3.01908 0
M  V30 594 H 56.5817 -0.367408 4.59835 0
M  V30 595 H 54.8247 -0.276276 4.32919 0
M  V30 596 H 55.4957 -1.60346 5.28198 0
M  V30 597 H 57.9717 -2.28287 3.47885 0
M  V30 598 H 56.8477 -3.3729 4.33044 0
M  V30 599 H 57.1087 -3.57212 2.60484 0
M  V30 600 N 56.1678 -1.49265 -0.50573 0
M  V30 601 C 57.4168 -1.57761 -1.25675 0
M  V30 602 C 57.7298 -0.267371 -1.93764 0
M  V30 603 O 58.9358 -0.230827 -2.70517 0
M  V30 604 C 57.3918 -2.78332 -2.28165 0
M  V30 605 C 56.9998 -4.16096 -1.66037 0
M  V30 606 C 58.7438 -2.96155 -3.04125 0
M  V30 607 C 56.6508 -5.27895 -2.6661 0
M  V30 608 H 55.5808 -0.587391 -0.472745 0
M  V30 609 H 58.2318 -1.75644 -0.53118 0
M  V30 610 H 56.6138 -2.53934 -3.03865 0
M  V30 611 H 57.7878 -4.50612 -0.963622 0
M  V30 612 H 56.1028 -4.03591 -1.02484 0
M  V30 613 H 58.6998 -3.76849 -3.79327 0
M  V30 614 H 59.0428 -2.06534 -3.61455 0
M  V30 615 H 59.5758 -3.2057 -2.35541 0
M  V30 616 H 56.3148 -6.1956 -2.14068 0
M  V30 617 H 55.8348 -4.97839 -3.34539 0
M  V30 618 H 57.5138 -5.57031 -3.29129 0
M  V30 619 N 57.6459 0.756429 -1.3826 0
M  V30 620 C 58.5929 1.87011 -1.35261 0
M  V30 621 C 59.5629 1.64695 -0.215616 0
M  V30 622 O 60.7479 1.864 -0.407399 0
M  V30 623 C 57.8879 3.24275 -1.18068 0
M  V30 624 C 57.0009 3.58442 -2.41129 0
M  V30 625 C 56.1359 4.84994 -2.16689 0
M  V30 626 C 55.1749 5.11939 -3.35537 0
M  V30 627 N 54.3119 6.29685 -3.10549 0
M  V30 628 H 59.1519 1.8891 -2.30472 0
M  V30 629 H 56.6889 0.923373 -1.14509 0
M  V30 630 H 58.6469 4.03479 -1.06116 0
M  V30 631 H 57.2769 3.21711 -0.264973 0
M  V30 632 H 56.3289 2.74103 -2.63764 0
M  V30 633 H 57.6409 3.74283 -3.29717 0
M  V30 634 H 56.7949 5.72135 -2.01857 0
M  V30 635 H 55.5339 4.71286 -1.25462 0
M  V30 636 H 54.5389 4.23268 -3.50891 0
M  V30 637 H 55.7639 5.27546 -4.27635 0
M  V30 638 H 53.7099 6.17306 -2.21967 0
M  V30 639 H 53.6269 6.46014 -3.92686 0
M  V30 640 H 54.8949 7.19722 -2.99367 0
M  V30 641 N 59.124 1.23083 0.984299 0
M  V30 642 C 60.072 1.00593 2.09723 0
M  V30 643 C 61.066 -0.0538014 1.69315 0
M  V30 644 O 62.272 0.0993719 1.79725 0
M  V30 645 H 58.647 0.30817 0.685956 0
M  V30 646 H 60.618 1.95012 2.2586 0
M  V30 647 C 59.367 0.609601 3.42314 0
M  V30 648 H 58.69 1.41675 3.73856 0
M  V30 649 H 60.13 0.491726 4.21139 0
M  V30 650 C 58.589 -0.681745 3.2993 0
M  V30 651 O 59.119 -1.73192 3.62446 0
M  V30 652 N 57.325 -0.656178 2.83095 0
M  V30 653 H 56.872 0.198759 2.56832 0
M  V30 654 H 56.83 -1.52044 2.75191 0
M  V30 655 N 60.6021 -1.18246 1.0419 0
M  V30 656 C 61.5121 -2.25574 0.644476 0
M  V30 657 C 62.5281 -1.70845 -0.329826 0
M  V30 658 O 63.7041 -2.00554 -0.184443 0
M  V30 659 C 60.7691 -3.46697 0.014877 0
M  V30 660 C 59.8301 -4.16554 1.03834 0
M  V30 661 C 59.0631 -5.31894 0.438692 0
M  V30 662 O 59.2861 -5.65385 -0.754752 0
M  V30 663 O 58.2201 -5.90459 1.168 0
M  V30 664 H 62.0461 -2.61836 1.53869 0
M  V30 665 H 59.6311 -1.25352 0.812854 0
M  V30 666 H 61.5131 -4.20062 -0.335538 0
M  V30 667 H 60.1881 -3.12255 -0.853138 0
M  V30 668 H 59.0951 -3.45251 1.44057 0
M  V30 669 H 60.4281 -4.54998 1.87716 0
M  V30 670 N 62.0802 -0.821533 -1.34494 0
M  V30 671 C 63.3082 -0.421884 -2.02553 0
M  V30 672 C 63.7232 0.971745 -1.61872 0
M  V30 673 O 63.0802 1.62864 -0.823496 0
M  V30 674 C 63.1312 -0.51285 -3.57844 0
M  V30 675 O 62.8522 -1.85155 -3.97051 0
M  V30 676 C 64.3532 -0.107921 -4.43169 0
M  V30 677 H 61.5732 -0.169482 -0.649243 0
M  V30 678 H 64.1172 -1.1093 -1.71798 0
M  V30 679 H 62.2722 0.126474 -3.87193 0
M  V30 680 H 62.6862 -1.82482 -4.91732 0
M  V30 681 H 64.1602 -0.222657 -5.51551 0
M  V30 682 H 64.6372 0.948401 -4.28838 0
M  V30 683 H 65.2432 -0.720989 -4.19144 0
M  V30 684 N 63.5583 1.46682 -0.576371 0
M  V30 685 C 64.8063 2.02013 -0.0594163 0
M  V30 686 C 65.1273 1.45101 1.30271 0
M  V30 687 O 64.3973 0.633317 1.8538 0
M  V30 688 H 62.9773 0.746759 -0.0189745 0
M  V30 689 H 65.6393 1.79862 -0.750717 0
M  V30 690 H 64.7353 3.12097 0.014345 0
M  V30 691 N 65.0364 0.313813 1.54444 0
M  V30 692 C 66.2644 -0.293918 2.04802 0
M  V30 693 C 66.6794 -1.46537 1.19047 0
M  V30 694 O 66.0364 -1.81182 0.218939 0
M  V30 695 C 66.0874 -0.737806 3.53891 0
M  V30 696 O 65.8084 0.387038 4.36387 0
M  V30 697 C 67.3094 -1.40936 4.203 0
M  V30 698 H 64.5294 -0.0620057 0.668129 0
M  V30 699 H 67.0734 0.457169 1.99324 0
M  V30 700 H 65.2284 -1.43889 3.59687 0
M  V30 701 H 65.6424 0.0391274 5.24485 0
M  V30 702 H 67.1164 -1.67099 5.26101 0
M  V30 703 H 67.5934 -2.35355 3.70816 0
M  V30 704 H 68.1994 -0.751117 4.18615 0
M  V30 705 N 66.5145 -1.57545 0.0417849 0
M  V30 706 C 67.7635 -1.91494 -0.633492 0
M  V30 707 C 68.0765 -0.921084 -1.72556 0
M  V30 708 O 69.2825 -1.15228 -2.45835 0
M  V30 709 C 67.7385 -3.40072 -1.17808 0
M  V30 710 C 67.3465 -4.47843 -0.118633 0
M  V30 711 C 69.0905 -3.8307 -1.82915 0
M  V30 712 C 66.9975 -5.87529 -0.675578 0
M  V30 713 H 65.9275 -0.714653 -0.24039 0
M  V30 714 H 68.5785 -1.83175 0.109148 0
M  V30 715 H 66.9605 -3.43364 -1.97274 0
M  V30 716 H 68.1345 -4.56128 0.654494 0
M  V30 717 H 66.4495 -4.14128 0.434414 0
M  V30 718 H 69.0465 -4.84794 -2.25563 0
M  V30 719 H 69.3895 -3.1881 -2.67705 0
M  V30 720 H 69.9225 -3.82255 -1.10119 0
M  V30 721 H 66.6615 -6.55362 0.134475 0
M  V30 722 H 66.1815 -5.82824 -1.4169 0
M  V30 723 H 67.8605 -6.36491 -1.1614 0
M  V30 724 N 67.9926 0.231505 -1.5589 0
M  V30 725 C 69.2176 0.978689 -1.82856 0
M  V30 726 C 69.6426 1.77559 -0.620846 0
M  V30 727 O 69.0006 1.76119 0.430305 0
M  V30 728 C 69.0486 1.87997 -3.07716 0
M  V30 729 O 68.1526 2.97393 -2.85712 0
M  V30 730 H 67.4936 0.277663 -0.603158 0
M  V30 731 H 70.0236 0.24783 -2.03093 0
M  V30 732 H 70.0336 2.2917 -3.37558 0
M  V30 733 H 68.7086 1.29417 -3.95252 0
M  V30 734 H 67.2856 2.60238 -2.67078 0
M  V30 735 N 69.4707 1.49531 0.497807 0
M  V30 736 C 70.7197 1.58426 1.24837 0
M  V30 737 C 71.0327 0.277643 1.93619 0
M  V30 738 O 72.2387 0.24517 2.70391 0
M  V30 739 C 70.6947 2.79538 2.26686 0
M  V30 740 C 70.3027 4.16971 1.63828 0
M  V30 741 C 72.0467 2.97764 3.0255 0
M  V30 742 C 69.9537 5.29301 2.63807 0
M  V30 743 H 68.8837 0.58989 0.469623 0
M  V30 744 H 71.5347 1.75923 0.521857 0
M  V30 745 H 69.9167 2.55542 3.02514 0
M  V30 746 H 71.0907 4.51116 0.939711 0
M  V30 747 H 69.4057 4.04129 1.00342 0
M  V30 748 H 72.0027 3.78856 3.77323 0
M  V30 749 H 72.3457 2.08448 3.60354 0
M  V30 750 H 72.8787 3.21815 2.33838 0
M  V30 751 H 69.6177 6.20687 2.10779 0
M  V30 752 H 69.1377 4.99606 3.31894 0
M  V30 753 H 70.8167 5.58768 3.2617 0
M  V30 754 N 70.9488 -0.749086 1.3866 0
M  V30 755 C 72.1738 -1.54344 1.38538 0
M  V30 756 C 72.5988 -1.88088 -0.0216655 0
M  V30 757 O 71.9568 -1.50899 -1.00494 0
M  V30 758 C 72.0048 -2.8164 2.25192 0
M  V30 759 O 71.1088 -3.7698 1.67212 0
M  V30 760 H 70.4498 -0.466654 0.472367 0
M  V30 761 H 72.9798 -0.925355 1.82478 0
M  V30 762 H 72.9898 -3.30519 2.3921 0
M  V30 763 H 71.6648 -2.56411 3.27454 0
M  V30 764 H 70.2418 -3.35699 1.6236 0
M  V30 765 N 72.4269 -1.23603 -0.977757 0
M  V30 766 C 73.3589 -0.977369 -2.07317 0
M  V30 767 C 74.3719 0.0495845 -1.62724 0
M  V30 768 O 75.5609 -0.186261 -1.77526 0
M  V30 769 C 72.6609 -0.451216 -3.35883 0
M  V30 770 C 71.8339 -1.53896 -4.09432 0
M  V30 771 C 70.8929 -1.01721 -5.16274 0
M  V30 772 O 69.9189 -1.70676 -5.43009 0
M  V30 773 N 71.1209 0.153594 -5.80297 0
M  V30 774 H 73.8859 -1.92047 -2.30082 0
M  V30 775 H 71.4469 -1.14497 -1.14465 0
M  V30 776 H 73.4389 -0.0871574 -4.04606 0
M  V30 777 H 72.0089 0.397368 -3.10064 0
M  V30 778 H 71.2289 -2.07566 -3.35127 0
M  V30 779 H 72.5169 -2.27037 -4.55337 0
M  V30 780 H 71.9149 0.730323 -5.60966 0
M  V30 781 H 70.4719 0.458892 -6.50183 0
M  V30 782 N 73.905 1.17692 -1.04816 0
M  V30 783 C 74.835 2.23777 -0.666791 0
M  V30 784 C 75.816 1.66796 0.33361 0
M  V30 785 O 77.001 1.93039 0.212042 0
M  V30 786 C 74.131 3.47281 -0.0367933 0
M  V30 787 C 73.085 4.17059 -0.961546 0
M  V30 788 C 72.411 5.34342 -0.195626 0
M  V30 789 C 73.711 4.69713 -2.28402 0
M  V30 790 H 75.405 2.55933 -1.55367 0
M  V30 791 H 72.951 1.23019 -0.748484 0
M  V30 792 H 74.904 4.20706 0.241775 0
M  V30 793 H 73.628 3.14381 0.885004 0
M  V30 794 H 72.287 3.45541 -1.22462 0
M  V30 795 H 71.935 4.97692 0.728816 0
M  V30 796 H 71.635 5.81966 -0.811775 0
M  V30 797 H 73.159 6.10553 0.0757473 0
M  V30 798 H 74.573 5.34794 -2.06563 0
M  V30 799 H 72.97 5.279 -2.8538 0
M  V30 800 H 74.04 3.86726 -2.92525 0
M  V30 801 N 75.3831 0.828654 1.34056 0
M  V30 802 C 76.3311 0.242973 2.31327 0
M  V30 803 C 77.3251 -0.61944 1.57668 0
M  V30 804 O 78.5311 -0.51014 1.7262 0
M  V30 805 H 74.9061 0.059834 0.749616 0
M  V30 806 H 76.8771 1.07809 2.78244 0
M  V30 807 C 75.6261 -0.575733 3.429 0
M  V30 808 H 74.9491 0.0785582 3.99723 0
M  V30 809 H 76.3891 -0.951547 4.13185 0
M  V30 810 C 74.8481 -1.75044 2.87856 0
M  V30 811 O 75.3781 -2.84882 2.83205 0
M  V30 812 N 73.5841 -1.56903 2.44602 0
M  V30 813 H 73.1311 -0.675547 2.48584 0
M  V30 814 H 73.0891 -2.35652 2.08124 0
M  V30 815 N 76.8612 -1.46375 0.584142 0
M  V30 816 C 77.8082 -2.30323 -0.148286 0
M  V30 817 C 78.7782 -1.40703 -0.882713 0
M  V30 818 O 79.9632 -1.69651 -0.873099 0
M  V30 819 C 77.1032 -3.25196 -1.15507 0
M  V30 820 C 76.2162 -4.29915 -0.423943 0
M  V30 821 C 75.3512 -5.11914 -1.41838 0
M  V30 822 C 74.3902 -6.08381 -0.673736 0
M  V30 823 N 73.5272 -6.83242 -1.6163 0
M  V30 824 H 78.3672 -2.92427 0.573644 0
M  V30 825 H 75.9042 -1.44118 0.294703 0
M  V30 826 H 77.8622 -3.78646 -1.75166 0
M  V30 827 H 76.4922 -2.64898 -1.8447 0
M  V30 828 H 75.5442 -3.7931 0.287714 0
M  V30 829 H 76.8562 -4.98549 0.158128 0
M  V30 830 H 76.0102 -5.69648 -2.08773 0
M  V30 831 H 74.7492 -4.43243 -2.03438 0
M  V30 832 H 73.7542 -5.49799 0.00938483 0
M  V30 833 H 74.9792 -6.79071 -0.0631082 0
M  V30 834 H 72.9252 -6.1728 -2.22038 0
M  V30 835 H 72.8422 -7.48144 -1.08707 0
M  V30 836 H 74.1102 -7.45534 -2.27596 0
M  V30 837 N 78.3393 -0.321999 -1.54275 0
M  V30 838 C 79.2873 0.560206 -2.25753 0
M  V30 839 C 80.2813 1.11984 -1.27106 0
M  V30 840 O 81.4873 1.06806 -1.44888 0
M  V30 841 H 77.8623 0.199304 -0.725108 0
M  V30 842 H 79.8333 -0.0649365 -2.98329 0
M  V30 843 C 78.5823 1.71023 -3.02731 0
M  V30 844 H 77.9053 1.28885 -3.78456 0
M  V30 845 H 79.3453 2.30314 -3.55993 0
M  V30 846 C 77.8043 2.62692 -2.10938 0
M  V30 847 O 78.3343 3.64364 -1.6912 0
M  V30 848 N 76.5403 2.30891 -1.76459 0
M  V30 849 H 76.0873 1.48253 -2.10663 0
M  V30 850 H 76.0453 2.92487 -1.1532 0
M  V30 851 N 79.8174 1.5752 -0.0501392 0
M  V30 852 C 81.0634 1.92936 0.624798 0
M  V30 853 C 81.3964 0.928685 1.70555 0
M  V30 854 O 80.6714 -0.0454779 1.94447 0
M  V30 855 C 80.9544 3.38737 1.22185 0
M  V30 856 C 80.8074 4.49552 0.149218 0
M  V30 857 C 82.1264 3.84913 2.13378 0
M  V30 858 H 79.2454 0.701604 0.225657 0
M  V30 859 H 81.8874 1.89671 -0.111693 0
M  V30 860 H 80.0374 3.4165 1.84953 0
M  V30 861 H 81.7094 4.58768 -0.482648 0
M  V30 862 H 79.9524 4.30638 -0.522841 0
M  V30 863 H 80.6234 5.48653 0.606966 0
M  V30 864 H 83.0994 3.8387 1.60572 0
M  V30 865 H 81.9754 4.87584 2.52097 0
M  V30 866 H 82.2364 3.21611 3.03346 0
M  V30 867 N 81.2955 -0.223234 1.56011 0
M  V30 868 C 82.5415 -0.944891 1.8012 0
M  V30 869 C 82.8965 -1.82039 0.622862 0
M  V30 870 O 82.1895 -1.8773 -0.383143 0
M  V30 871 C 82.3835 -1.81948 3.0762 0
M  V30 872 C 82.2125 -1.03014 4.37742 0
M  V30 873 C 80.9825 -0.72574 5.00061 0
M  V30 874 C 83.1805 -0.396256 5.12771 0
M  V30 875 N 81.1625 0.0851816 6.13841 0
M  V30 876 C 82.5335 0.278137 6.19376 0
M  V30 877 C 84.5885 -0.309117 4.9694 0
M  V30 878 C 83.2915 1.03133 7.11868 0
M  V30 879 C 85.3175 0.430607 5.8983 0
M  V30 880 C 84.6795 1.09355 6.9586 0
M  V30 881 H 80.7785 -0.326081 0.710771 0
M  V30 882 H 83.3625 -0.215914 1.93499 0
M  V30 883 H 81.5335 -2.52029 2.95527 0
M  V30 884 H 83.2655 -2.47848 3.19927 0
M  V30 885 H 80.0205 -1.04335 4.61964 0
M  V30 886 H 80.4445 0.479428 6.753 0
M  V30 887 H 85.0865 -0.807313 4.15021 0
M  V30 888 H 82.8045 1.54105 7.9327 0
M  V30 889 H 86.3905 0.499012 5.79656 0
M  V30 890 H 85.2705 1.65679 7.66499 0
M  V30 891 N 82.7736 -1.49793 -0.48987 0
M  V30 892 C 84.0196 -1.60078 -1.24511 0
M  V30 893 C 84.3526 -0.291608 -1.91998 0
M  V30 894 O 83.6276 0.705647 -1.81248 0
M  V30 895 C 83.9106 -2.76791 -2.30345 0
M  V30 896 C 83.7636 -4.17535 -1.67286 0
M  V30 897 C 85.0826 -2.89111 -3.31817 0
M  V30 898 H 82.2016 -0.582645 -0.451324 0
M  V30 899 H 84.8436 -1.82117 -0.541612 0
M  V30 900 H 82.9936 -2.5813 -2.90346 0
M  V30 901 H 84.6656 -4.4774 -1.11026 0
M  V30 902 H 82.9086 -4.22665 -0.976577 0
M  V30 903 H 83.5796 -4.95094 -2.44103 0
M  V30 904 H 86.0556 -3.06133 -2.81819 0
M  V30 905 H 84.9316 -3.72433 -4.03219 0
M  V30 906 H 85.1926 -1.9893 -3.94815 0
M  V30 907 N 84.2517 0.741722 -1.39055 0
M  V30 908 C 85.2017 1.84661 -1.33732 0
M  V30 909 C 86.1857 1.59397 -0.219401 0
M  V30 910 O 87.3777 1.71015 -0.456375 0
M  V30 911 C 84.5067 3.22512 -1.17647 0
M  V30 912 C 83.5927 3.53628 -2.34112 0
M  V30 913 N 83.9837 3.55723 -3.59576 0
M  V30 914 C 82.2817 3.83956 -2.26923 0
M  V30 915 C 82.9827 3.84443 -4.36553 0
M  V30 916 N 81.9587 4.01877 -3.66055 0
M  V30 917 H 85.7607 1.84576 -2.28711 0
M  V30 918 H 83.2747 0.939647 -1.32455 0
M  V30 919 H 85.2717 4.01597 -1.11917 0
M  V30 920 H 83.9317 3.2384 -0.236124 0
M  V30 921 H 84.9427 3.37196 -3.93089 0
M  V30 922 H 81.6197 3.92929 -1.41113 0
M  V30 923 H 83.0097 3.92588 -5.45274 0
M  V30 924 N 85.7298 1.2412 0.971189 0
M  V30 925 C 86.9578 1.10575 1.74874 0
M  V30 926 C 87.3728 -0.342017 1.85676 0
M  V30 927 O 86.7298 -1.23617 1.34258 0
M  V30 928 C 86.7808 1.73579 3.171 0
M  V30 929 O 86.5018 3.12695 3.06844 0
M  V30 930 C 88.0028 1.65598 4.11208 0
M  V30 931 H 85.2228 0.386504 0.548503 0
M  V30 932 H 87.7668 1.64156 1.21955 0
M  V30 933 H 85.9218 1.24009 3.67016 0
M  V30 934 H 86.3358 3.43412 3.96445 0
M  V30 935 H 87.8098 2.1437 5.08674 0
M  V30 936 H 88.2868 0.616532 4.34851 0
M  V30 937 H 88.8928 2.14578 3.67201 0
M  V30 938 N 87.2079 -1.17134 1.05439 0
M  V30 939 C 88.1179 -2.24878 0.668365 0
M  V30 940 C 89.1339 -1.71186 -0.311687 0
M  V30 941 O 90.3099 -2.00738 -0.163161 0
M  V30 942 C 87.3749 -3.46662 0.051648 0
M  V30 943 C 86.4359 -4.15429 1.08246 0
M  V30 944 C 85.6689 -5.31399 0.495082 0
M  V30 945 O 85.8919 -5.66153 -0.694743 0
M  V30 946 O 84.8259 -5.89187 1.23056 0
M  V30 947 H 88.6519 -2.60189 1.56637 0
M  V30 948 H 86.2369 -1.24482 0.826104 0
M  V30 949 H 88.1189 -4.20394 -0.290966 0
M  V30 950 H 86.7939 -3.13142 -0.819971 0
M  V30 951 H 85.7009 -3.43704 1.47711 0
M  V30 952 H 87.0339 -4.52982 1.92532 0
M  V30 953 N 88.686 -0.835752 -1.33615 0
M  V30 954 C 89.616 -0.281739 -2.31794 0
M  V30 955 C 90.597 0.608833 -1.58831 0
M  V30 956 O 91.782 0.533035 -1.86741 0
M  V30 957 C 88.912 0.546612 -3.42971 0
M  V30 958 C 87.866 -0.247904 -4.27281 0
M  V30 959 C 87.192 0.704001 -5.30045 0
M  V30 960 C 88.492 -1.46324 -5.01385 0
M  V30 961 H 90.186 -1.10206 -2.78379 0
M  V30 962 H 87.732 -0.531388 -1.33837 0
M  V30 963 H 89.685 0.944467 -4.1068 0
M  V30 964 H 88.409 1.40011 -2.95067 0
M  V30 965 H 87.068 -0.627281 -3.61194 0
M  V30 966 H 86.716 1.55381 -4.78399 0
M  V30 967 H 86.416 0.176524 -5.87335 0
M  V30 968 H 87.94 1.09944 -6.0062 0
M  V30 969 H 89.354 -1.13871 -5.61877 0
M  V30 970 H 87.751 -1.92728 -5.6831 0
M  V30 971 H 88.821 -2.23467 -4.30338 0
M  V30 972 N 90.1641 1.46063 -0.591896 0
M  V30 973 C 91.4121 2.01938 -0.0808391 0
M  V30 974 C 91.7331 1.46475 1.28725 0
M  V30 975 O 91.0031 0.652944 1.84698 0
M  V30 976 H 89.5831 0.746516 -0.0268938 0
M  V30 977 H 92.2451 1.79055 -0.769752 0
M  V30 978 H 91.3411 3.12094 -0.0187578 0
M  V30 979 N 91.6422 0.330177 1.54103 0
M  V30 980 C 92.8672 -0.274893 2.0557 0
M  V30 981 C 93.2922 -1.44487 1.20437 0
M  V30 982 O 92.6502 -1.80021 0.214991 0
M  V30 983 C 92.6982 -0.68079 3.54115 0
M  V30 984 O 91.8022 -1.7824 3.71893 0
M  V30 985 H 91.1432 -0.0483849 0.662235 0
M  V30 986 H 93.6732 0.480508 1.98878 0
M  V30 987 H 93.6832 -0.961635 3.96505 0
M  V30 988 H 92.3582 0.174903 4.15532 0
M  V30 989 H 90.9352 -1.49985 3.41407 0
M  V30 990 N 93.1203 -1.57491 0.0584922 0
M  V30 991 C 94.3673 -1.92978 -0.613648 0
M  V30 992 C 94.6953 -0.937461 -1.70417 0
M  V30 993 O 93.9503 0.049078 -1.95638 0
M  V30 994 C 94.2493 -3.3513 -1.24188 0
M  V30 995 C 93.9153 -4.50037 -0.278826 0
M  V30 996 C 92.5773 -4.81198 -0.0138447 0
M  V30 997 C 94.9293 -5.19807 0.380777 0
M  V30 998 C 92.2573 -5.79473 0.918052 0
M  V30 999 C 94.6093 -6.19079 1.30091 0
M  V30 1000 C 93.2733 -6.48665 1.57449 0
M  V30 1001 H 92.5433 -0.706157 -0.22455 0
M  V30 1002 H 95.1903 -1.91082 0.126533 0
M  V30 1003 H 93.4953 -3.33429 -2.05749 0
M  V30 1004 H 95.1923 -3.59871 -1.769 0
M  V30 1005 H 91.7823 -4.25726 -0.495539 0
M  V30 1006 H 95.9663 -4.95939 0.189158 0
M  V30 1007 H 91.2223 -6.00727 1.1374 0
M  V30 1008 H 95.3963 -6.7225 1.81804 0
M  V30 1009 H 93.0233 -7.24628 2.29822 0
M  V30 1010 N 94.5984 0.214957 -1.56127 0
M  V30 1011 C 95.5464 1.28601 -1.93816 0
M  V30 1012 C 96.5404 1.48175 -0.821016 0
M  V30 1013 O 97.7464 1.49271 -1.0059 0
M  V30 1014 H 94.1214 0.431302 -0.616022 0
M  V30 1015 H 96.0924 0.940991 -2.83175 0
M  V30 1016 C 94.8414 2.62779 -2.27689 0
M  V30 1017 H 94.1644 2.48527 -3.13168 0
M  V30 1018 H 95.6044 3.36517 -2.57939 0
M  V30 1019 C 94.0634 3.18285 -1.10436 0
M  V30 1020 O 94.5934 4.00002 -0.368945 0
M  V30 1021 N 92.7994 2.7675 -0.886433 0
M  V30 1022 H 92.3464 2.10404 -1.48619 0
M  V30 1023 H 92.3044 3.14229 -0.103656 0
M  V30 1024 N 96.0765 1.50051 0.48192 0
M  V30 1025 C 97.3245 1.60181 1.23234 0
M  V30 1026 C 97.6455 0.299176 1.92691 0
M  V30 1027 O 96.9155 -0.682708 1.83619 0
M  V30 1028 H 95.4955 0.590232 0.457859 0
M  V30 1029 H 98.1575 1.86775 0.556881 0
M  V30 1030 H 97.2535 2.40753 1.98607 0
M  V30 1031 N 97.5546 -0.734337 1.39446 0
M  V30 1032 C 98.4646 -1.87879 1.40495 0
M  V30 1033 C 99.4806 -1.714 0.299672 0
M  V30 1034 O 100.657 -1.93991 0.541249 0
M  V30 1035 C 97.7216 -3.23477 1.24754 0
M  V30 1036 C 96.7826 -3.52344 2.45259 0
M  V30 1037 C 96.0156 -4.81473 2.30259 0
M  V30 1038 O 96.2386 -5.55237 1.30643 0
M  V30 1039 O 95.1726 -5.10254 3.19256 0
M  V30 1040 H 98.9986 -1.89949 2.36966 0
M  V30 1041 H 96.5836 -0.882243 1.20569 0
M  V30 1042 H 98.4656 -4.04509 1.18111 0
M  V30 1043 H 97.1406 -3.22176 0.313781 0
M  V30 1044 H 96.0476 -2.71396 2.57478 0
M  V30 1045 H 97.3806 -3.58426 3.37331 0
M  V30 1046 N 99.0327 -1.24633 -0.964593 0
M  V30 1047 C 99.9957 -1.0424 -2.04124 0
M  V30 1048 C 100.996 0.00137563 -1.608 0
M  V30 1049 O 102.186 -0.239883 -1.7254 0
M  V30 1050 C 99.3177 -0.580588 -3.3592 0
M  V30 1051 H 100.511 -1.99803 -2.23649 0
M  V30 1052 H 98.0637 -1.06899 -1.14027 0
M  V30 1053 H 98.7987 0.3781 -3.22088 0
M  V30 1054 H 98.5837 -1.33398 -3.6871 0
M  V30 1055 H 100.074 -0.459034 -4.15069 0
M  V30 1056 N 100.511 1.16574 -1.06058 0
M  V30 1057 C 101.757 1.87324 -0.777022 0
M  V30 1058 C 102.09 1.81351 0.694645 0
M  V30 1059 O 101.365 1.22753 1.50871 0
M  V30 1060 C 101.648 3.36991 -1.26922 0
M  V30 1061 C 101.501 3.51667 -2.80447 0
M  V30 1062 C 102.82 4.3131 -0.87521 0
M  V30 1063 H 99.9388 0.680191 -0.28374 0
M  V30 1064 H 102.581 1.37036 -1.3161 0
M  V30 1065 H 100.731 3.79949 -0.81063 0
M  V30 1066 H 102.403 3.17664 -3.34495 0
M  V30 1067 H 100.646 2.93656 -3.19294 0
M  V30 1068 H 101.317 4.56766 -3.0995 0
M  V30 1069 H 103.793 3.9624 -1.27014 0
M  V30 1070 H 102.669 5.34545 -1.2471 0
M  V30 1071 H 102.93 4.41552 0.220071 0
M  V30 1072 N 101.989 0.842826 1.3317 0
M  V30 1073 C 103.4 0.496651 1.79973 0
M  V30 1074 C 103.751 -0.984641 1.69703 0
M  V30 1075 O 102.876 -1.76743 1.24863 0
M  V30 1076 C 103.471 0.894727 3.26772 0
M  V30 1077 C 102.03 0.600629 3.71577 0
M  V30 1078 C 101.177 1.10091 2.5451 0
M  V30 1079 H 104.128 1.03116 1.20635 0
M  V30 1080 H 104.149 0.206347 3.7994 0
M  V30 1081 H 103.661 1.97287 3.34215 0
M  V30 1082 H 101.762 -0.467284 3.69658 0
M  V30 1083 H 101.875 1.15863 4.64879 0
M  V30 1084 H 100.239 0.52162 2.49301 0
M  V30 1085 H 101.022 2.18591 2.64713 0
M  V30 1086 N 103.467 -1.45747 0.599634 0
M  V30 1087 C 104.692 -2.07178 0.0960198 0
M  V30 1088 C 105.117 -1.44268 -1.207 0
M  V30 1089 O 104.475 -0.532503 -1.73303 0
M  V30 1090 C 104.523 -3.60579 -0.0385348 0
M  V30 1091 O 103.627 -3.97713 -1.0908 0
M  V30 1092 H 102.968 -0.660251 0.0704593 0
M  V30 1093 H 105.498 -1.87124 0.827385 0
M  V30 1094 H 105.508 -4.07298 -0.239304 0
M  V30 1095 H 104.183 -4.05756 0.912947 0
M  V30 1096 H 102.76 -3.62678 -0.867135 0
M  V30 1097 N 104.945 -0.338344 -1.53925 0
M  V30 1098 C 105.893 0.536231 -2.26335 0
M  V30 1099 C 106.887 1.1063 -1.28286 0
M  V30 1100 O 108.093 1.05264 -1.46012 0
M  V30 1101 H 104.468 0.191602 -0.727181 0
M  V30 1102 H 106.439 -0.0965747 -2.98244 0
M  V30 1103 C 105.188 1.67803 -3.04528 0
M  V30 1104 H 104.511 1.24864 -3.79801 0
M  V30 1105 H 105.951 2.26526 -3.58416 0
M  V30 1106 C 104.41 2.60439 -2.13712 0
M  V30 1107 O 104.94 3.6255 -1.72975 0
M  V30 1108 N 103.146 2.29006 -1.78898 0
M  V30 1109 H 102.693 1.46011 -2.12223 0
M  V30 1110 H 102.651 2.91248 -1.18416 0
M  V30 1111 N 106.423 1.57458 -0.0668435 0
M  V30 1112 C 107.671 1.92919 0.602214 0
M  V30 1113 C 107.992 0.947215 1.70449 0
M  V30 1114 O 107.262 -0.00544117 1.95899 0
M  V30 1115 H 105.842 0.71217 0.22544 0
M  V30 1116 H 108.504 1.94508 -0.123535 0
M  V30 1117 H 107.6 2.94589 1.03073 0
M  V30 1118 N 107.901 -0.206675 1.56239 0
M  V30 1119 C 108.831 -1.25909 1.96645 0
M  V30 1120 C 109.812 -1.48097 0.836734 0
M  V30 1121 O 110.997 -1.6003 1.10019 0
M  V30 1122 C 108.127 -2.6058 2.29599 0
M  V30 1123 C 107.081 -2.53024 3.452 0
M  V30 1124 C 106.407 -3.91861 3.63798 0
M  V30 1125 C 107.707 -2.06524 4.79734 0
M  V30 1126 H 109.401 -0.923369 2.84806 0
M  V30 1127 H 106.947 -0.442735 1.37025 0
M  V30 1128 H 108.9 -3.34375 2.56459 0
M  V30 1129 H 107.624 -2.95869 1.38307 0
M  V30 1130 H 106.283 -1.81684 3.18412 0
M  V30 1131 H 105.931 -4.24483 2.69857 0
M  V30 1132 H 105.631 -3.87683 4.4156 0
M  V30 1133 H 107.155 -4.67296 3.93022 0
M  V30 1134 H 108.569 -2.70072 5.05702 0
M  V30 1135 H 106.966 -2.13374 5.60885 0
M  V30 1136 H 108.036 -1.01802 4.74093 0
M  V30 1137 N 109.379 -1.50304 -0.473955 0
M  V30 1138 C 110.625 -1.61389 -1.22806 0
M  V30 1139 C 110.958 -0.311955 -1.91678 0
M  V30 1140 O 110.233 0.686384 -1.81986 0
M  V30 1141 C 110.516 -2.79219 -2.27396 0
M  V30 1142 C 110.369 -4.19286 -1.62848 0
M  V30 1143 C 111.688 -2.92614 -3.28732 0
M  V30 1144 H 108.807 -0.587399 -0.445119 0
M  V30 1145 H 111.449 -1.82681 -0.522265 0
M  V30 1146 H 109.599 -2.61195 -2.87592 0
M  V30 1147 H 111.271 -4.48892 -1.06271 0
M  V30 1148 H 109.514 -4.23677 -0.931693 0
M  V30 1149 H 110.185 -4.97655 -2.38838 0
M  V30 1150 H 112.661 -3.09105 -2.78556 0
M  V30 1151 H 111.537 -3.76688 -3.99246 0
M  V30 1152 H 111.798 -2.03107 -3.92683 0
M  V30 1153 N 110.857 0.726932 -1.39834 0
M  V30 1154 C 111.787 1.85405 -1.41941 0
M  V30 1155 C 112.768 1.67751 -0.281728 0
M  V30 1156 O 113.953 1.8795 -0.488717 0
M  V30 1157 C 111.083 3.23243 -1.2701 0
M  V30 1158 C 110.037 3.55549 -2.38262 0
M  V30 1159 C 109.363 4.9241 -2.08415 0
M  V30 1160 C 110.663 3.577 -3.80589 0
M  V30 1161 H 112.357 1.83899 -2.36266 0
M  V30 1162 H 109.903 0.883349 -1.13723 0
M  V30 1163 H 111.856 4.01775 -1.27103 0
M  V30 1164 H 110.58 3.25296 -0.291564 0
M  V30 1165 H 109.239 2.79351 -2.37399 0
M  V30 1166 H 108.887 4.91052 -1.0898 0
M  V30 1167 H 108.587 5.14992 -2.82943 0
M  V30 1168 H 110.111 5.73289 -2.10171 0
M  V30 1169 H 111.525 4.26293 -3.83337 0
M  V30 1170 H 109.922 3.91804 -4.54543 0
M  V30 1171 H 110.992 2.57328 -4.10987 0
M  V30 1172 N 112.336 1.25143 0.95797 0
M  V30 1173 C 113.284 1.05019 2.07542 0
M  V30 1174 C 114.278 -0.0178751 1.69391 0
M  V30 1175 O 115.484 0.137472 1.79474 0
M  V30 1176 H 111.859 0.32265 0.679265 0
M  V30 1177 H 113.83 1.99759 2.21673 0
M  V30 1178 C 112.579 0.682074 3.40944 0
M  V30 1179 H 111.902 1.49573 3.70767 0
M  V30 1180 H 113.342 0.580945 4.20001 0
M  V30 1181 C 111.801 -0.611608 3.31302 0
M  V30 1182 O 112.331 -1.65465 3.66038 0
M  V30 1183 N 110.537 -0.595982 2.84423 0
M  V30 1184 H 110.084 0.253192 2.56353 0
M  V30 1185 H 110.042 -1.46173 2.78354 0
M  V30 1186 N 113.814 -1.1601 1.06675 0
M  V30 1187 C 115.042 -1.90527 0.806667 0
M  V30 1188 C 115.457 -1.77643 -0.639396 0
M  V30 1189 O 114.814 -1.12369 -1.43803 0
M  V30 1190 C 114.865 -3.41106 1.19705 0
M  V30 1191 O 114.586 -3.53608 2.58636 0
M  V30 1192 C 116.087 -4.32663 0.965266 0
M  V30 1193 H 113.307 -0.604053 0.292166 0
M  V30 1194 H 115.851 -1.47026 1.4214 0
M  V30 1195 H 114.006 -3.82296 0.626774 0
M  V30 1196 H 114.42 -4.47011 2.74375 0
M  V30 1197 H 115.894 -5.36763 1.288 0
M  V30 1198 H 116.371 -4.39089 -0.0987936 0
M  V30 1199 H 116.977 -3.97206 1.52011 0
M  V30 1200 N 115.292 -0.849877 -1.32721 0
M  V30 1201 C 116.517 -0.463856 -2.02146 0
M  V30 1202 C 116.942 0.930449 -1.63476 0
M  V30 1203 O 116.3 1.61033 -0.832952 0
M  V30 1204 C 116.348 -0.604955 -3.55489 0
M  V30 1205 O 115.452 0.36425 -4.10788 0
M  V30 1206 H 114.793 -0.187046 -0.637111 0
M  V30 1207 H 117.323 -1.14775 -1.69375 0
M  V30 1208 H 117.333 -0.490696 -4.05038 0
M  V30 1209 H 116.008 -1.62174 -3.82978 0
M  V30 1210 H 114.585 0.206628 -3.72327 0
M  V30 1211 N 116.77 1.45427 -0.607355 0
M  V30 1212 C 117.717 2.3053 0.111625 0
M  V30 1213 C 118.687 1.4209 0.860216 0
M  V30 1214 O 119.872 1.71019 0.845998 0
M  V30 1215 C 117.012 3.26992 1.10319 0
M  V30 1216 C 116.125 4.30535 0.355493 0
M  V30 1217 C 115.26 5.14105 1.33676 0
M  V30 1218 C 114.299 6.09376 0.576862 0
M  V30 1219 N 113.436 6.85727 1.5074 0
M  V30 1220 H 118.276 2.91477 -0.620093 0
M  V30 1221 H 115.813 1.43631 -0.317594 0
M  V30 1222 H 117.771 3.81385 1.6912 0
M  V30 1223 H 116.401 2.67799 1.80232 0
M  V30 1224 H 115.453 3.78805 -0.348023 0
M  V30 1225 H 116.765 4.98235 -0.237423 0
M  V30 1226 H 115.919 5.72897 1.99684 0
M  V30 1227 H 114.658 4.46423 1.9636 0
M  V30 1228 H 113.663 5.49715 -0.0968519 0
M  V30 1229 H 114.888 6.79085 -0.0449341 0
M  V30 1230 H 112.834 6.20735 2.12189 0
M  V30 1231 H 112.751 7.49778 0.967913 0
M  V30 1232 H 114.019 7.4906 2.15706 0
M  V30 1233 N 118.248 0.346503 1.53744 0
M  V30 1234 C 119.496 -0.248612 2.00565 0
M  V30 1235 C 119.817 -1.5083 1.23593 0
M  V30 1236 O 119.087 -1.92858 0.343912 0
M  V30 1237 H 117.667 -0.0948564 0.740953 0
M  V30 1238 H 120.329 0.468341 1.89189 0
M  V30 1239 H 119.425 -0.488994 3.08245 0
M  V30 1240 N 119.726 -1.57421 0.075193 0
M  V30 1241 C 120.656 -2.15942 -0.888324 0
M  V30 1242 C 121.637 -1.08737 -1.30806 0
M  V30 1243 O 122.822 -1.36787 -1.37851 0
M  V30 1244 C 119.952 -2.72379 -2.1547 0
M  V30 1245 C 118.906 -3.8478 -1.87425 0
M  V30 1246 C 118.232 -4.27834 -3.20721 0
M  V30 1247 C 119.532 -5.08869 -1.17684 0
M  V30 1248 H 121.226 -2.96705 -0.400799 0
M  V30 1249 H 118.772 -1.42723 -0.191342 0
M  V30 1250 H 120.725 -3.11965 -2.83295 0
M  V30 1251 H 119.449 -1.88841 -2.6647 0
M  V30 1252 H 118.108 -3.45703 -1.22004 0
M  V30 1253 H 117.756 -3.41214 -3.6957 0
M  V30 1254 H 117.456 -5.03605 -3.02746 0
M  V30 1255 H 118.98 -4.70039 -3.89738 0
M  V30 1256 H 120.394 -5.4575 -1.75584 0
M  V30 1257 H 118.791 -5.8994 -1.09956 0
M  V30 1258 H 119.861 -4.84648 -0.156453 0
M  V30 1259 N 121.204 0.198386 -1.56346 0
M  V30 1260 C 122.45 0.920648 -1.80698 0
M  V30 1261 C 122.783 1.83045 -0.648697 0
M  V30 1262 O 122.058 1.91308 0.350925 0
M  V30 1263 C 122.341 1.73971 -3.15287 0
M  V30 1264 C 122.194 0.85485 -4.41602 0
M  V30 1265 C 123.513 2.71296 -3.46535 0
M  V30 1266 H 120.632 0.333261 -0.657348 0
M  V30 1267 H 123.274 0.188198 -1.89066 0
M  V30 1268 H 121.424 2.36416 -3.08285 0
M  V30 1269 H 123.096 0.245362 -4.60647 0
M  V30 1270 H 121.339 0.161398 -4.335 0
M  V30 1271 H 122.01 1.46286 -5.32264 0
M  V30 1272 H 124.486 2.18983 -3.53816 0
M  V30 1273 H 123.362 3.2569 -4.41834 0
M  V30 1274 H 123.623 3.5018 -2.69864 0
M  V30 1275 N 122.682 1.50554 0.465978 0
M  V30 1276 C 123.612 1.72722 1.57128 0
M  V30 1277 C 124.593 0.576294 1.6004 0
M  V30 1278 O 125.778 0.81598 1.76225 0
M  V30 1279 C 122.908 1.82605 2.95419 0
M  V30 1280 C 121.862 2.97835 3.07373 0
M  V30 1281 C 121.188 2.92867 4.47363 0
M  V30 1282 C 122.488 4.38265 2.84114 0
M  V30 1283 H 124.182 2.65267 1.38829 0
M  V30 1284 H 121.728 1.2765 0.666441 0
M  V30 1285 H 123.681 1.96698 3.72677 0
M  V30 1286 H 122.405 0.866858 3.14886 0
M  V30 1287 H 121.064 2.83401 2.3255 0
M  V30 1288 H 120.712 1.94783 4.63755 0
M  V30 1289 H 120.412 3.70227 4.56296 0
M  V30 1290 H 121.936 3.09015 5.26633 0
M  V30 1291 H 123.35 4.53198 3.51118 0
M  V30 1292 H 121.747 5.17115 3.04487 0
M  V30 1293 H 122.817 4.50281 1.7993 0
M  V30 1294 N 124.16 -0.719506 1.40217 0
M  V30 1295 C 125.406 -1.48152 1.38488 0
M  V30 1296 C 125.739 -1.94195 -0.0141867 0
M  V30 1297 O 125.014 -1.67884 -0.982096 0
M  V30 1298 C 125.297 -2.71035 2.37091 0
M  V30 1299 C 125.15 -2.30912 3.86005 0
M  V30 1300 C 126.469 -3.73182 2.33288 0
M  V30 1301 H 123.588 -0.537395 0.504357 0
M  V30 1302 H 126.23 -0.821472 1.71324 0
M  V30 1303 H 124.38 -3.27352 2.0922 0
M  V30 1304 H 126.052 -1.80107 4.24687 0
M  V30 1305 H 124.295 -1.62958 4.02029 0
M  V30 1306 H 124.966 -3.18978 4.50508 0
M  V30 1307 H 127.442 -3.26485 2.57966 0
M  V30 1308 H 126.318 -4.56806 3.04334 0
M  V30 1309 H 126.579 -4.21202 1.34317 0
M  V30 1310 N 125.638 -1.25649 -0.95132 0
M  V30 1311 C 126.915 -1.01361 -1.67288 0
M  V30 1312 C 127.295 0.459135 -2.06046 0
M  V30 1313 O 126.643 1.43723 -1.7764 0
M  V30 1314 C 126.853 -1.95256 -2.89268 0
M  V30 1315 C 128.201 -2.23289 -3.61147 0
M  V30 1316 O 129.225 -1.93041 -2.99355 0
M  V30 1317 O 128.084 -2.74741 -4.72419 0
M  V30 1318 H 125.178 -0.38464 -0.732107 0
M  V30 1319 H 127.724 -1.36817 -1.00395 0
M  V30 1320 H 126.496 -2.94685 -2.57442 0
M  V30 1321 H 126.119 -1.60218 -3.6389 0
M  V30 1322 N 127.117 1.15442 -1.07289 0
M  V30 1323 C 128.342 1.90638 -0.816828 0
M  V30 1324 C 128.767 1.77445 0.624083 0
M  V30 1325 O 128.125 1.10671 1.43602 0
M  V30 1326 C 128.173 3.39008 -1.22906 0
M  V30 1327 O 127.277 4.10701 -0.373975 0
M  V30 1328 H 126.618 0.593555 -0.297638 0
M  V30 1329 H 129.148 1.46198 -1.43134 0
M  V30 1330 H 129.158 3.89801 -1.20497 0
M  V30 1331 H 127.833 3.47929 -2.27856 0
M  V30 1332 H 126.41 3.70046 -0.460499 0
M  V30 1333 N 128.595 0.856903 1.32268 0
M  V30 1334 C 129.82 0.474569 2.01897 0
M  V30 1335 C 130.245 -0.921766 1.63967 0
M  V30 1336 O 129.603 -1.60589 0.84148 0
M  V30 1337 C 129.651 0.623799 3.55164 0
M  V30 1338 O 128.755 -0.342459 4.10976 0
M  V30 1339 H 128.096 0.190422 0.63611 0
M  V30 1340 H 130.626 1.15672 1.68764 0
M  V30 1341 H 130.636 0.512169 4.04773 0
M  V30 1342 H 129.311 1.64202 3.82113 0
M  V30 1343 H 127.888 -0.18688 3.72431 0
M  V30 1344 N 130.073 -1.45103 0.615059 0
M  V30 1345 C 131.319 -2.03035 0.121804 0
M  V30 1346 C 131.674 -1.47393 -1.23665 0
M  V30 1347 O 130.967 -0.642061 -1.80522 0
M  V30 1348 C 131.161 -3.57386 0.0318797 0
M  V30 1349 C 130.99 -4.28 1.38007 0
M  V30 1350 C 129.76 -4.65624 1.9627 0
M  V30 1351 C 131.958 -4.5948 2.31047 0
M  V30 1352 N 129.94 -5.21132 3.24492 0
M  V30 1353 C 131.311 -5.159 3.43872 0
M  V30 1354 C 133.366 -4.41423 2.30326 0
M  V30 1355 C 132.069 -5.56165 4.5615 0
M  V30 1356 C 134.095 -4.82726 3.41658 0
M  V30 1357 C 133.457 -5.39245 4.53205 0
M  V30 1358 H 129.556 -0.77702 0.0881159 0
M  V30 1359 H 132.14 -1.76819 0.815044 0
M  V30 1360 H 130.311 -3.83247 -0.630599 0
M  V30 1361 H 132.043 -4.01976 -0.468721 0
M  V30 1362 H 128.798 -4.49421 1.49392 0
M  V30 1363 H 129.222 -5.53377 3.90004 0
M  V30 1364 H 133.864 -3.97033 1.45343 0
M  V30 1365 H 131.582 -5.99517 5.41854 0
M  V30 1366 H 135.168 -4.7048 3.42257 0
M  V30 1367 H 134.048 -5.70616 5.37929 0
M  V30 1368 N 131.551 -0.354651 -1.53558 0
M  V30 1369 C 132.828 0.294281 -1.93374 0
M  V30 1370 C 133.208 1.67313 -1.28723 0
M  V30 1371 O 132.556 2.24179 -0.442247 0
M  V30 1372 C 132.766 0.355445 -3.47185 0
M  V30 1373 C 134.114 0.601007 -4.20325 0
M  V30 1374 O 135.138 0.437106 -3.53508 0
M  V30 1375 O 133.997 0.919322 -5.38712 0
M  V30 1376 H 131.091 0.174033 -0.808481 0
M  V30 1377 H 133.637 -0.406638 -1.64756 0
M  V30 1378 H 132.409 -0.611729 -3.86489 0
M  V30 1379 H 132.032 1.1027 -3.82003 0
M  V30 1380 N 133.029 1.57378 -0.0835403 0
M  V30 1381 C 134.306 1.85363 0.624507 0
M  V30 1382 C 134.686 0.978239 1.87066 0
M  V30 1383 O 134.034 0.0475908 2.2845 0
M  V30 1384 C 134.244 3.35795 0.950947 0
M  V30 1385 C 135.592 4.03581 1.31939 0
M  V30 1386 O 136.616 3.40609 1.04232 0
M  V30 1387 O 135.475 5.14672 1.83779 0
M  V30 1388 H 132.569 0.766162 0.311329 0
M  V30 1389 H 135.115 1.69307 -0.115362 0
M  V30 1390 H 133.887 3.91244 0.0663899 0
M  V30 1391 H 133.51 3.57154 1.74719 0
M  V30 1392 N 134.507 -0.190092 1.56449 0
M  V30 1393 C 135.454 -1.23557 1.94942 0
M  V30 1394 C 136.424 -1.44972 0.810696 0
M  V30 1395 O 137.609 -1.58023 1.06927 0
M  V30 1396 C 134.749 -2.57416 2.2985 0
M  V30 1397 C 133.862 -2.43537 3.5681 0
M  V30 1398 C 132.997 -3.70134 3.81017 0
M  V30 1399 C 132.036 -3.51109 5.01387 0
M  V30 1400 N 131.173 -4.6973 5.21822 0
M  V30 1401 H 136.013 -0.900304 2.84075 0
M  V30 1402 H 133.55 -0.43318 1.40577 0
M  V30 1403 H 135.508 -3.35409 2.48106 0
M  V30 1404 H 134.138 -2.88975 1.43852 0
M  V30 1405 H 133.19 -1.56816 3.46573 0
M  V30 1406 H 134.502 -2.25415 4.4496 0
M  V30 1407 H 133.656 -4.56566 3.9954 0
M  V30 1408 H 132.395 -3.91215 2.91207 0
M  V30 1409 H 131.4 -2.63063 4.82782 0
M  V30 1410 H 132.625 -3.31468 5.9271 0
M  V30 1411 H 130.571 -4.91065 4.34961 0
M  V30 1412 H 130.488 -4.54452 6.0416 0
M  V30 1413 H 131.756 -5.57499 5.44808 0
M  V30 1414 N 135.985 -1.50799 -0.457987 0
M  V30 1415 C 136.915 -1.73553 -1.5621 0
M  V30 1416 C 137.896 -0.584774 -1.59732 0
M  V30 1417 O 139.081 -0.825314 -1.7579 0
M  V30 1418 C 136.211 -1.84169 -2.94447 0
M  V30 1419 C 135.165 -2.99461 -3.0579 0
M  V30 1420 C 134.491 -2.95235 -4.45803 0
M  V30 1421 C 135.791 -4.39766 -2.81786 0
M  V30 1422 H 137.485 -2.66 -1.37421 0
M  V30 1423 H 135.031 -1.28002 -0.659662 0
M  V30 1424 H 136.984 -1.98672 -3.71628 0
M  V30 1425 H 135.708 -0.883545 -3.14422 0
M  V30 1426 H 134.367 -2.8463 -2.31044 0
M  V30 1427 H 134.015 -1.97239 -4.62715 0
M  V30 1428 H 133.715 -3.72642 -4.54326 0
M  V30 1429 H 135.239 -3.11803 -5.24987 0
M  V30 1430 H 136.653 -4.55054 -3.4871 0
M  V30 1431 H 135.05 -5.18722 -3.0174 0
M  V30 1432 H 136.12 -4.51229 -1.7754 0
M  V30 1433 N 137.463 0.71206 -1.40597 0
M  V30 1434 C 138.691 1.50111 -1.42388 0
M  V30 1435 C 139.106 1.88784 -0.0245395 0
M  V30 1436 O 138.463 1.55681 0.952351 0
M  V30 1437 C 138.514 2.7742 -2.31776 0
M  V30 1438 O 138.235 2.40382 -3.66262 0
M  V30 1439 C 139.736 3.7129 -2.42196 0
M  V30 1440 H 136.956 0.46314 -0.485533 0
M  V30 1441 H 139.5 0.878068 -1.8469 0
M  V30 1442 H 137.655 3.36001 -1.92827 0
M  V30 1443 H 138.069 3.22324 -4.13772 0
M  V30 1444 H 139.543 4.57448 -3.08943 0
M  V30 1445 H 140.02 4.14641 -1.44809 0
M  V30 1446 H 140.626 3.18619 -2.81712 0
M  V30 1447 N 138.941 1.26152 0.944643 0
M  V30 1448 C 139.888 1.07408 2.04285 0
M  V30 1449 C 140.858 -0.0198413 1.66088 0
M  V30 1450 O 142.043 0.139264 1.90291 0
M  V30 1451 C 139.183 0.70945 3.37729 0
M  V30 1452 C 138.296 1.87926 3.88983 0
M  V30 1453 C 137.431 1.45807 5.10797 0
M  V30 1454 C 136.47 2.5964 5.54305 0
M  V30 1455 N 135.607 2.18226 6.67324 0
M  V30 1456 H 140.447 2.01389 2.1965 0
M  V30 1457 H 137.984 1.00275 1.07626 0
M  V30 1458 H 139.942 0.478948 4.14442 0
M  V30 1459 H 138.572 -0.193389 3.2222 0
M  V30 1460 H 137.624 2.22279 3.08701 0
M  V30 1461 H 138.936 2.73377 4.17213 0
M  V30 1462 H 138.09 1.18781 5.94959 0
M  V30 1463 H 136.829 0.574414 4.84305 0
M  V30 1464 H 135.834 2.87399 4.68702 0
M  V30 1465 H 137.059 3.48599 5.828 0
M  V30 1466 H 135.005 1.3229 6.42523 0
M  V30 1467 H 134.922 2.97221 6.95123 0
M  V30 1468 H 136.19 1.94403 7.54869 0
M  V30 1469 N 140.419 -1.14872 1.07899 0
M  V30 1470 C 141.329 -2.2341 0.715915 0
M  V30 1471 C 142.345 -1.71808 -0.275306 0
M  V30 1472 O 143.521 -2.01039 -0.120545 0
M  V30 1473 C 140.586 -3.46474 0.125168 0
M  V30 1474 C 139.647 -4.13039 1.17034 0
M  V30 1475 C 138.88 -5.30229 0.607688 0
M  V30 1476 O 139.103 -5.675 -0.574497 0
M  V30 1477 O 138.037 -5.86444 1.35526 0
M  V30 1478 H 141.863 -2.56808 1.62121 0
M  V30 1479 H 139.448 -1.22702 0.852322 0
M  V30 1480 H 141.33 -4.20917 -0.201729 0
M  V30 1481 H 140.005 -3.14811 -0.753364 0
M  V30 1482 H 138.912 -3.40493 1.54968 0
M  V30 1483 H 140.245 -4.48796 2.02097 0
M  V30 1484 N 141.898 -0.863906 -1.31812 0
M  V30 1485 C 142.828 -0.330843 -2.31144 0
M  V30 1486 C 143.809 0.575005 -1.60087 0
M  V30 1487 O 144.994 0.493304 -1.8783 0
M  V30 1488 C 142.124 0.47374 -3.44054 0
M  V30 1489 C 141.078 -0.338481 -4.26659 0
M  V30 1490 C 140.404 0.591412 -5.31419 0
M  V30 1491 C 141.704 -1.56926 -4.98168 0
M  V30 1492 H 143.398 -1.16086 -2.75979 0
M  V30 1493 H 140.944 -0.559657 -1.32679 0
M  V30 1494 H 142.897 0.857143 -4.12591 0
M  V30 1495 H 141.621 1.33721 -2.9797 0
M  V30 1496 H 140.28 -0.703754 -3.59782 0
M  V30 1497 H 139.928 1.45199 -4.81587 0
M  V30 1498 H 139.628 0.0519022 -5.87577 0
M  V30 1499 H 141.152 0.97179 -6.02817 0
M  V30 1500 H 142.566 -1.25764 -5.59336 0
M  V30 1501 H 140.963 -2.04739 -5.64094 0
M  V30 1502 H 142.033 -2.32544 -4.25501 0
M  V30 1503 N 143.376 1.44774 -0.622745 0
M  V30 1504 C 144.625 2.01334 -0.121397 0
M  V30 1505 C 144.938 1.49505 1.26125 0
M  V30 1506 O 146.144 1.98139 1.85616 0
M  V30 1507 C 144.6 3.59516 -0.166298 0
M  V30 1508 C 144.208 4.20342 -1.54974 0
M  V30 1509 C 145.952 4.23582 0.279021 0
M  V30 1510 C 143.859 5.70721 -1.55021 0
M  V30 1511 H 142.789 0.752851 -0.0416172 0
M  V30 1512 H 145.44 1.66083 -0.780309 0
M  V30 1513 H 143.822 3.92027 0.559557 0
M  V30 1514 H 144.996 3.99381 -2.29851 0
M  V30 1515 H 143.311 3.68529 -1.93843 0
M  V30 1516 H 145.908 5.33868 0.298083 0
M  V30 1517 H 146.251 3.95327 1.30471 0
M  V30 1518 H 146.784 3.95843 -0.394063 0
M  V30 1519 H 143.523 6.03698 -2.55399 0
M  V30 1520 H 143.043 5.93829 -0.844245 0
M  V30 1521 H 144.722 6.34203 -1.28047 0
M  V30 1522 N 144.854 0.36279 1.53368 0
M  V30 1523 C 145.764 -0.492994 2.29362 0
M  V30 1524 C 146.78 -1.09507 1.35219 0
M  V30 1525 O 147.956 -1.10662 1.68273 0
M  V30 1526 C 145.021 -1.61855 3.066 0
M  V30 1527 C 144.082 -1.04429 4.16405 0
M  V30 1528 C 143.315 -2.11621 4.89951 0
M  V30 1529 O 143.538 -3.32684 4.63333 0
M  V30 1530 O 142.472 -1.74835 5.75948 0
M  V30 1531 H 146.298 0.125331 3.03441 0
M  V30 1532 H 143.883 0.127253 1.48857 0
M  V30 1533 H 145.765 -2.27302 3.54841 0
M  V30 1534 H 144.44 -2.22233 2.3536 0
M  V30 1535 H 143.347 -0.353819 3.72423 0
M  V30 1536 H 144.68 -0.485113 4.89804 0
M  V30 1537 N 146.332 -1.57332 0.0918853 0
M  V30 1538 C 147.265 -2.09499 -0.904735 0
M  V30 1539 C 148.243 -1.00479 -1.27839 0
M  V30 1540 O 149.427 -1.27954 -1.38419 0
M  V30 1541 C 146.554 -2.56931 -2.2069 0
M  V30 1542 C 145.6 -3.77579 -1.98334 0
M  V30 1543 S 146.433 -5.21317 -1.22428 0
M  V30 1544 C 147.589 -5.72097 -2.53882 0
M  V30 1545 H 147.822 -2.93705 -0.460922 0
M  V30 1546 H 145.355 -1.53923 -0.121332 0
M  V30 1547 H 147.313 -2.84917 -2.95521 0
M  V30 1548 H 145.974 -1.72956 -2.62192 0
M  V30 1549 H 145.167 -4.08824 -2.94752 0
M  V30 1550 H 144.769 -3.5007 -1.31633 0
M  V30 1551 H 147.061 -5.80168 -3.49874 0
M  V30 1552 H 148.004 -6.70654 -2.27219 0
M  V30 1553 H 148.412 -5.00012 -2.62007 0
M  V30 1554 N 147.81 0.181792 -1.56548 0
M  V30 1555 C 149.056 0.901431 -1.81665 0
M  V30 1556 C 149.389 1.82347 -0.668075 0
M  V30 1557 O 148.664 1.91669 0.330615 0
M  V30 1558 C 148.947 1.70618 -3.17115 0
M  V30 1559 C 148.8 0.807964 -4.42484 0
M  V30 1560 C 150.119 2.67605 -3.49393 0
M  V30 1561 H 147.238 0.32627 -0.660846 0
M  V30 1562 H 149.88 0.168134 -1.89255 0
M  V30 1563 H 148.03 2.33133 -3.10775 0
M  V30 1564 H 149.702 0.19649 -4.60881 0
M  V30 1565 H 147.945 0.115411 -4.33646 0
M  V30 1566 H 148.616 1.40632 -5.33785 0
M  V30 1567 H 151.092 2.15218 -3.56118 0
M  V30 1568 H 149.968 3.20985 -4.45264 0
M  V30 1569 H 150.229 3.47298 -2.73563 0
M  V30 1570 N 149.288 1.51039 0.449983 0
M  V30 1571 C 150.198 1.74261 1.57067 0
M  V30 1572 C 151.214 0.626363 1.62335 0
M  V30 1573 O 152.39 0.907162 1.79812 0
M  V30 1574 C 149.455 1.85114 2.93144 0
M  V30 1575 C 148.516 3.0893 2.98095 0
M  V30 1576 C 147.749 3.19256 4.27681 0
M  V30 1577 O 147.972 2.35835 5.19363 0
M  V30 1578 O 146.906 4.12144 4.38658 0
M  V30 1579 H 150.732 2.69303 1.40391 0
M  V30 1580 H 148.317 1.35389 0.631688 0
M  V30 1581 H 150.199 1.94311 3.73926 0
M  V30 1582 H 148.874 0.932588 3.09975 0
M  V30 1583 H 147.781 3.0522 2.16314 0
M  V30 1584 H 149.114 4.00433 2.86206 0
M  V30 1585 N 150.766 -0.704594 1.40972 0
M  V30 1586 C 151.713 -1.81862 1.42109 0
M  V30 1587 C 152.683 -1.63781 0.276593 0
M  V30 1588 O 153.868 -1.84759 0.4763 0
M  V30 1589 C 151.008 -3.19669 1.30022 0
M  V30 1590 C 150.121 -3.49246 2.54267 0
M  V30 1591 C 149.256 -4.76618 2.3454 0
M  V30 1592 C 148.295 -4.99133 3.54306 0
M  V30 1593 N 147.432 -6.17726 3.33706 0
M  V30 1594 H 152.272 -1.80226 2.37324 0
M  V30 1595 H 149.809 -0.880238 1.17857 0
M  V30 1596 H 151.767 -3.99263 1.21018 0
M  V30 1597 H 150.397 -3.20506 0.384192 0
M  V30 1598 H 149.449 -2.64125 2.73756 0
M  V30 1599 H 150.761 -3.61788 3.43381 0
M  V30 1600 H 149.915 -5.64249 2.22952 0
M  V30 1601 H 148.654 -4.66305 1.42867 0
M  V30 1602 H 147.659 -4.09953 3.66359 0
M  V30 1603 H 148.884 -5.11311 4.4692 0
M  V30 1604 H 146.83 -6.08642 2.44725 0
M  V30 1605 H 146.747 -6.30995 4.16391 0
M  V30 1606 H 148.015 -7.08115 3.25873 0
M  V30 1607 N 152.244 -1.26651 -0.937939 0
M  V30 1608 C 153.191 -1.0849 -2.03712 0
M  V30 1609 C 154.161 0.011033 -1.66096 0
M  V30 1610 O 155.346 -0.149353 -1.90215 0
M  V30 1611 C 152.486 -0.72735 -3.37348 0
M  V30 1612 C 151.599 -1.89986 -3.87981 0
M  V30 1613 C 150.734 -1.48513 -5.10017 0
M  V30 1614 C 149.773 -2.62575 -5.5292 0
M  V30 1615 N 148.91 -2.21762 -6.66158 0
M  V30 1616 H 153.75 -2.02551 -2.18579 0
M  V30 1617 H 151.287 -1.00844 -1.07093 0
M  V30 1618 H 153.245 -0.50092 -4.14182 0
M  V30 1619 H 151.875 0.176298 -3.22318 0
M  V30 1620 H 150.927 -2.23913 -3.07518 0
M  V30 1621 H 152.239 -2.75586 -4.15757 0
M  V30 1622 H 151.393 -1.21934 -5.94321 0
M  V30 1623 H 150.132 -0.60009 -4.83994 0
M  V30 1624 H 149.137 -2.8988 -4.67172 0
M  V30 1625 H 150.362 -3.51685 -5.80943 0
M  V30 1626 H 148.308 -1.35696 -6.41812 0
M  V30 1627 H 148.225 -3.00903 -6.93537 0
M  V30 1628 H 149.493 -1.98403 -7.53828 0
M  V30 1629 N 153.722 1.14298 -1.08507 0
M  V30 1630 C 154.969 1.85359 -0.815373 0
M  V30 1631 C 155.297 1.83001 0.658865 0
M  V30 1632 O 154.552 1.25655 1.50031 0
M  V30 1633 C 154.851 3.33547 -1.28379 0
M  V30 1634 C 154.517 3.56093 -2.76602 0
M  V30 1635 C 153.179 3.61955 -3.17084 0
M  V30 1636 C 155.531 3.64834 -3.72217 0
M  V30 1637 C 152.859 3.74082 -4.51973 0
M  V30 1638 C 155.211 3.78487 -5.06883 0
M  V30 1639 C 153.875 3.82598 -5.46969 0
M  V30 1640 H 153.145 0.678276 -0.298366 0
M  V30 1641 H 155.792 1.35002 -1.35819 0
M  V30 1642 H 154.097 3.86191 -0.660593 0
M  V30 1643 H 155.794 3.86959 -1.05186 0
M  V30 1644 H 152.384 3.52179 -2.4427 0
M  V30 1645 H 156.568 3.59595 -3.42061 0
M  V30 1646 H 151.824 3.75527 -4.82483 0
M  V30 1647 H 155.998 3.84193 -5.80834 0
M  V30 1648 H 153.625 3.91747 -6.51489 0
M  V30 1649 N 155.201 0.870884 1.31352 0
M  V30 1650 C 156.133 0.28455 2.27427 0
M  V30 1651 C 157.146 -0.552927 1.53123 0
M  V30 1652 O 158.335 -0.374771 1.74521 0
M  V30 1653 C 155.435 -0.615164 3.3327 0
M  V30 1654 C 154.608 0.190079 4.36987 0
M  V30 1655 C 153.667 -0.637917 5.22319 0
M  V30 1656 O 152.693 -0.065626 5.69162 0
M  V30 1657 N 153.895 -1.94973 5.46778 0
M  V30 1658 H 156.66 1.11017 2.7838 0
M  V30 1659 H 154.221 0.732458 1.44384 0
M  V30 1660 H 156.213 -1.1748 3.87273 0
M  V30 1661 H 154.783 -1.34146 2.82354 0
M  V30 1662 H 154.003 0.931165 3.83044 0
M  V30 1663 H 155.291 0.742579 5.03352 0
M  V30 1664 H 154.689 -2.4378 5.10478 0
M  V30 1665 H 153.246 -2.45713 6.03712 0
M  V30 1666 N 156.679 -1.44442 0.630414 0
M  V30 1667 C 157.626 -2.30678 -0.0749355 0
M  V30 1668 C 158.596 -1.4344 -0.837502 0
M  V30 1669 O 159.781 -1.72343 -0.818684 0
M  V30 1670 C 156.921 -3.28706 -1.05103 0
M  V30 1671 C 156.034 -4.31046 -0.286954 0
M  V30 1672 C 155.169 -5.16167 -1.2548 0
M  V30 1673 C 154.208 -6.10216 -0.479843 0
M  V30 1674 N 153.345 -6.88039 -1.39811 0
M  V30 1675 H 158.185 -2.90454 0.666386 0
M  V30 1676 H 155.722 -1.43107 0.340404 0
M  V30 1677 H 157.68 -3.84027 -1.63031 0
M  V30 1678 H 156.31 -2.70632 -1.75949 0
M  V30 1679 H 155.362 -3.78203 0.408243 0
M  V30 1680 H 156.674 -4.97794 0.316657 0
M  V30 1681 H 155.828 -5.76002 -1.90544 0
M  V30 1682 H 154.567 -4.49491 -1.89233 0
M  V30 1683 H 153.572 -5.49491 0.184295 0
M  V30 1684 H 154.797 -6.78928 0.152965 0
M  V30 1685 H 152.743 -6.24032 -2.02287 0
M  V30 1686 H 152.66 -7.51223 -0.848508 0
M  V30 1687 H 153.928 -7.52397 -2.03762 0
M  V30 1688 N 158.157 -0.370918 -1.53173 0
M  V30 1689 C 159.573 -0.0200818 -1.59587 0
M  V30 1690 C 159.773 1.46279 -1.38581 0
M  V30 1691 O 158.829 2.22506 -1.19363 0
M  V30 1692 C 160.142 -0.4808 -2.96831 0
M  V30 1693 C 161.69 -0.435477 -3.09956 0
M  V30 1694 C 162.165 -0.872092 -4.4962 0
M  V30 1695 N 163.656 -0.827364 -4.55751 0
M  V30 1696 C 164.391 -1.13683 -5.62018 0
M  V30 1697 N 163.887 -1.51584 -6.76014 0
M  V30 1698 N 165.68 -1.05927 -5.52029 0
M  V30 1699 H 157.831 -1.33652 -1.65079 0
M  V30 1700 H 160.094 -0.546634 -0.774529 0
M  V30 1701 H 159.8 -1.51577 -3.1736 0
M  V30 1702 H 159.674 0.129796 -3.76977 0
M  V30 1703 H 162.061 0.590371 -2.89134 0
M  V30 1704 H 162.142 -1.08164 -2.31806 0
M  V30 1705 H 161.786 -1.89608 -4.71181 0
M  V30 1706 H 161.716 -0.203127 -5.26208 0
M  V30 1707 H 164.207 -0.548216 -3.73902 0
M  V30 1708 H 164.52 -1.73609 -7.53047 0
M  V30 1709 H 162.865 -1.55454 -6.77391 0
M  V30 1710 H 166.056 -0.762321 -4.61851 0
M  V30 1711 H 166.229 -1.30378 -6.34749 0
M  V30 1712 N 159.635 1.57281 -0.100228 0
M  V30 1713 C 160.881 1.94826 0.563101 0
M  V30 1714 C 161.214 0.982475 1.67514 0
M  V30 1715 O 160.489 0.0164069 1.94493 0
M  V30 1716 C 160.772 3.42453 1.11346 0
M  V30 1717 C 160.625 4.498 0.00612081 0
M  V30 1718 C 161.944 3.91506 2.01024 0
M  V30 1719 H 159.063 0.708428 0.203221 0
M  V30 1720 H 161.705 1.8922 -0.171979 0
M  V30 1721 H 159.855 3.47361 1.7399 0
M  V30 1722 H 161.527 4.57 -0.628357 0
M  V30 1723 H 159.77 4.28756 -0.659581 0
M  V30 1724 H 160.441 5.50306 0.432109 0
M  V30 1725 H 162.917 3.88784 1.48278 0
M  V30 1726 H 161.793 4.95358 2.36457 0
M  V30 1727 H 162.054 3.31099 2.92961 0
M  V30 1728 N 161.113 -0.173488 1.56642 0
M  V30 1729 C 162.341 -0.906095 1.86004 0
M  V30 1730 C 162.756 -1.75921 0.685355 0
M  V30 1731 O 162.113 -1.79198 -0.345578 0
M  V30 1732 C 162.164 -1.78462 3.14378 0
M  V30 1733 O 161.885 -0.965914 4.27319 0
M  V30 1734 C 163.386 -2.62707 3.57071 0
M  V30 1735 H 160.606 -0.263341 0.617165 0
M  V30 1736 H 163.15 -0.174236 2.03756 0
M  V30 1737 H 161.305 -2.46984 2.98459 0
M  V30 1738 H 161.719 -1.56655 5.00559 0
M  V30 1739 H 163.193 -3.19969 4.49804 0
M  V30 1740 H 163.67 -3.37472 2.81086 0
M  V30 1741 H 164.276 -1.99521 3.75595 0
M  V30 1742 N 162.591 -1.51276 -0.441967 0
M  V30 1743 C 163.868 -1.54252 -1.20273 0
M  V30 1744 C 164.248 -0.30408 -2.08898 0
M  V30 1745 O 163.596 0.711084 -2.17154 0
M  V30 1746 C 163.806 -2.85406 -2.00859 0
M  V30 1747 C 165.154 -3.37181 -2.58059 0
M  V30 1748 O 166.178 -2.86925 -2.11074 0
M  V30 1749 O 165.037 -4.24858 -3.43741 0
M  V30 1750 H 162.131 -0.619969 -0.547328 0
M  V30 1751 H 164.677 -1.63586 -0.451413 0
M  V30 1752 H 163.449 -3.67003 -1.35736 0
M  V30 1753 H 163.072 -2.79213 -2.83065 0
M  V30 1754 N 164.069 0.697108 -1.41344 0
M  V30 1755 C 165.315 1.4593 -1.40827 0
M  V30 1756 C 165.648 1.94193 -0.0167098 0
M  V30 1757 O 164.923 1.69425 0.955263 0
M  V30 1758 C 165.206 2.67229 -2.41373 0
M  V30 1759 C 165.059 2.24741 -3.8963 0
M  V30 1760 C 166.378 3.69423 -2.39196 0
M  V30 1761 H 163.497 0.529303 -0.512842 0
M  V30 1762 H 166.139 0.794112 -1.72609 0
M  V30 1763 H 164.289 3.23982 -2.14401 0
M  V30 1764 H 165.961 1.73327 -4.27499 0
M  V30 1765 H 164.204 1.56542 -4.0457 0
M  V30 1766 H 164.875 3.1177 -4.55525 0
M  V30 1767 H 167.351 3.2234 -2.63128 0
M  V30 1768 H 166.227 4.51907 -3.11563 0
M  V30 1769 H 166.488 4.19012 -1.41001 0
M  V30 1770 N 165.547 1.27147 0.931209 0
M  V30 1771 C 166.796 1.12664 1.67302 0
M  V30 1772 C 167.109 -0.327718 1.92835 0
M  V30 1773 O 168.315 -0.593392 2.64936 0
M  V30 1774 C 166.771 1.9683 3.01307 0
M  V30 1775 C 166.379 3.46901 2.83485 0
M  V30 1776 C 168.123 1.90985 3.79111 0
M  V30 1777 C 166.03 4.23279 4.13024 0
M  V30 1778 H 164.96 0.41803 0.627509 0
M  V30 1779 H 167.611 1.51539 1.03481 0
M  V30 1780 H 165.993 1.50797 3.66164 0
M  V30 1781 H 167.167 4.00773 2.27415 0
M  V30 1782 H 165.482 3.54088 2.19113 0
M  V30 1783 H 168.079 2.45328 4.75098 0
M  V30 1784 H 168.422 0.882718 4.06834 0
M  V30 1785 H 168.955 2.34895 3.21044 0
M  V30 1786 H 165.694 5.26503 3.90481 0
M  V30 1787 H 165.214 3.74186 4.6877 0
M  V30 1788 H 166.893 4.32265 4.81411 0
M  V30 1789 N 167.025 -1.13721 1.09112 0
M  V30 1790 C 168.274 -1.84275 0.82009 0
M  V30 1791 C 168.587 -1.84253 -0.656509 0
M  V30 1792 O 169.793 -2.50668 -1.04296 0
M  V30 1793 C 168.249 -3.30825 1.41714 0
M  V30 1794 C 167.857 -3.39244 2.92605 0
M  V30 1795 C 169.601 -4.06443 1.22492 0
M  V30 1796 C 167.508 -4.80047 3.45411 0
M  V30 1797 H 166.438 -0.690387 0.30312 0
M  V30 1798 H 169.089 -1.28146 1.31343 0
M  V30 1799 H 167.471 -3.86737 0.851498 0
M  V30 1800 H 168.645 -2.93344 3.55367 0
M  V30 1801 H 166.96 -2.77088 3.10823 0
M  V30 1802 H 169.557 -5.10387 1.59402 0
M  V30 1803 H 169.9 -4.15972 0.165299 0
M  V30 1804 H 170.433 -3.56852 1.75788 0
M  V30 1805 H 167.172 -4.75709 4.50978 0
M  V30 1806 H 166.692 -5.26455 2.87411 0
M  V30 1807 H 168.371 -5.48957 3.42425 0
M  V30 1808 N 168.503 -0.877838 -1.30888 0
M  V30 1809 C 169.731 -0.507414 -2.00581 0
M  V30 1810 C 170.146 0.902216 -1.65848 0
M  V30 1811 O 169.503 1.59225 -0.891831 0
M  V30 1812 C 169.554 -0.664162 -3.55347 0
M  V30 1813 O 169.275 -2.01829 -3.8884 0
M  V30 1814 C 170.776 -0.295787 -4.42312 0
M  V30 1815 H 167.996 -0.196866 -0.641471 0
M  V30 1816 H 170.54 -1.18117 -1.66939 0
M  V30 1817 H 168.695 -0.0378619 -3.87381 0
M  V30 1818 H 169.109 -2.03174 -4.8355 0
M  V30 1819 H 170.583 -0.456388 -5.5011 0
M  V30 1820 H 171.06 0.765663 -4.32475 0
M  V30 1821 H 171.666 -0.898113 -4.15709 0
M  V30 1822 N 169.982 1.44106 -0.638065 0
M  V30 1823 C 170.932 2.27843 0.0847285 0
M  V30 1824 C 171.916 1.39055 0.809471 0
M  V30 1825 O 173.108 1.62808 0.694435 0
M  V30 1826 C 170.237 3.26497 1.06089 0
M  V30 1827 C 169.323 4.22772 0.33541 0
M  V30 1828 N 169.714 5.01737 -0.639787 0
M  V30 1829 C 168.012 4.42227 0.578921 0
M  V30 1830 C 168.713 5.71792 -1.06904 0
M  V30 1831 N 167.689 5.42079 -0.406395 0
M  V30 1832 H 171.491 2.86305 -0.663814 0
M  V30 1833 H 169.005 1.55627 -0.464122 0
M  V30 1834 H 171.002 3.8525 1.59337 0
M  V30 1835 H 169.662 2.69595 1.80966 0
M  V30 1836 H 170.673 5.07799 -1.01789 0
M  V30 1837 H 167.35 3.96415 1.31003 0
M  V30 1838 H 168.74 6.45205 -1.8751 0
M  V30 1839 N 171.46 0.379036 1.52974 0
M  V30 1840 C 172.423 -0.448865 2.24762 0
M  V30 1841 C 173.423 -0.998689 1.26027 0
M  V30 1842 O 174.613 -0.882313 1.50203 0
M  V30 1843 C 171.745 -1.62872 2.99476 0
M  V30 1844 H 172.938 0.179491 2.99362 0
M  V30 1845 H 170.491 0.13096 1.5575 0
M  V30 1846 H 171.226 -2.29479 2.29151 0
M  V30 1847 H 171.011 -1.24128 3.71934 0
M  V30 1848 H 172.501 -2.2151 3.5401 0
M  V30 1849 N 172.938 -1.57226 0.108567 0
M  V30 1850 C 173.888 -2.11305 -0.856396 0
M  V30 1851 C 174.872 -1.03129 -1.23504 0
M  V30 1852 O 176.064 -1.29381 -1.20787 0
M  V30 1853 C 173.193 -2.70771 -2.11041 0
M  V30 1854 C 172.279 -3.86011 -1.7566 0
M  V30 1855 N 172.67 -4.93492 -1.10902 0
M  V30 1856 C 170.968 -3.95999 -2.05185 0
M  V30 1857 C 171.669 -5.73984 -0.944308 0
M  V30 1858 N 170.645 -5.2346 -1.46596 0
M  V30 1859 H 174.447 -2.91784 -0.352002 0
M  V30 1860 H 171.961 -1.62126 -0.0942324 0
M  V30 1861 H 173.958 -3.07851 -2.81128 0
M  V30 1862 H 172.618 -1.91751 -2.62034 0
M  V30 1863 H 173.629 -5.1208 -0.774235 0
M  V30 1864 H 170.306 -3.28007 -2.58298 0
M  V30 1865 H 171.696 -6.70479 -0.436813 0
M  V30 1866 N 174.416 0.165178 -1.56732 0
M  V30 1867 C 175.379 1.18822 -1.95995 0
M  V30 1868 C 176.379 1.3685 -0.84431 0
M  V30 1869 O 177.569 1.34152 -1.11126 0
M  V30 1870 C 174.701 2.5521 -2.26011 0
M  V30 1871 H 175.894 0.851825 -2.87548 0
M  V30 1872 H 173.447 0.407857 -1.50885 0
M  V30 1873 H 174.182 2.93852 -1.37191 0
M  V30 1874 H 173.967 2.43489 -3.07336 0
M  V30 1875 H 175.457 3.28927 -2.57288 0
M  V30 1876 N 175.894 1.51508 0.433938 0
M  V30 1877 C 177.171 1.54888 1.19453 0
M  V30 1878 C 177.551 0.315154 2.08734 0
M  V30 1879 O 176.899 -0.699558 2.17528 0
M  V30 1880 C 177.109 2.86467 1.99342 0
M  V30 1881 C 178.457 3.38545 2.56267 0
M  V30 1882 O 179.481 2.88041 2.0955 0
M  V30 1883 O 178.34 4.26675 3.41483 0
M  V30 1884 H 175.434 0.622863 0.544032 0
M  V30 1885 H 177.98 1.63823 0.442732 0
M  V30 1886 H 176.752 3.67718 1.33788 0
M  V30 1887 H 176.375 2.8071 2.8158 0
M  V30 1888 N 177.372 -0.689602 1.41712 0
M  V30 1889 C 178.788 -1.00093 1.24312 0
M  V30 1890 C 178.988 -2.01036 0.136729 0
M  V30 1891 O 178.044 -2.47562 -0.496918 0
M  V30 1892 C 179.357 -1.51985 2.59463 0
M  V30 1893 C 180.905 -1.63838 2.66695 0
M  V30 1894 C 181.38 -2.1913 4.02177 0
M  V30 1895 N 182.871 -2.26483 4.04054 0
M  V30 1896 C 183.606 -2.70306 5.0569 0
M  V30 1897 N 183.102 -3.13691 6.17713 0
M  V30 1898 N 184.895 -2.69923 4.9305 0
M  V30 1899 H 177.046 -0.0210029 2.1239 0
M  V30 1900 H 179.309 -0.0718733 0.945272 0
M  V30 1901 H 179.015 -0.85269 3.41207 0
M  V30 1902 H 178.889 -2.50103 2.82362 0
M  V30 1903 H 181.276 -2.29664 1.85306 0
M  V30 1904 H 181.357 -0.642492 2.476 0
M  V30 1905 H 181.001 -1.53918 4.84016 0
M  V30 1906 H 180.931 -3.19482 4.18615 0
M  V30 1907 H 183.422 -1.95874 3.23174 0
M  V30 1908 H 183.735 -3.45773 6.9113 0
M  V30 1909 H 182.08 -3.11585 6.21241 0
M  V30 1910 H 185.271 -2.35382 4.04614 0
M  V30 1911 H 185.444 -3.03758 5.72394 0
M  V30 1912 N 178.85 -1.27639 -0.924453 0
M  V30 1913 C 180.099 -1.13549 -1.66702 0
M  V30 1914 C 180.412 0.317487 -1.93006 0
M  V30 1915 O 181.618 0.579333 -2.65247 0
M  V30 1916 C 180.074 -1.98426 -3.00259 0
M  V30 1917 C 179.682 -3.484 -2.81641 0
M  V30 1918 C 181.426 -1.92993 -3.78092 0
M  V30 1919 C 179.333 -4.25464 -4.10773 0
M  V30 1920 H 178.263 -0.421351 -0.625283 0
M  V30 1921 H 180.914 -1.52085 -1.02676 0
M  V30 1922 H 179.296 -1.52736 -3.6536 0
M  V30 1923 H 180.47 -4.01973 -2.25287 0
M  V30 1924 H 178.785 -3.55245 -2.17232 0
M  V30 1925 H 181.382 -2.47844 -4.7379 0
M  V30 1926 H 181.725 -0.904281 -4.0636 0
M  V30 1927 H 182.258 -2.36595 -3.19793 0
M  V30 1928 H 178.997 -5.28566 -3.87683 0
M  V30 1929 H 178.517 -3.76667 -4.66779 0
M  V30 1930 H 180.196 -4.34812 -4.79111 0
M  V30 1931 N 180.328 1.1314 -1.09713 0
M  V30 1932 C 181.576 1.84119 -0.833338 0
M  V30 1933 C 181.897 1.84097 0.642904 0
M  V30 1934 O 181.167 1.29881 1.46655 0
M  V30 1935 H 179.747 0.681766 -0.305293 0
M  V30 1936 H 182.409 1.37038 -1.38588 0
M  V30 1937 H 181.505 2.88543 -1.18951 0
M  V30 1938 N 181.806 0.884767 1.30421 0
M  V30 1939 C 183.054 0.502112 1.95763 0
M  V30 1940 C 183.375 -0.951815 1.70192 0
M  V30 1941 O 182.645 -1.6692 1.0254 0
M  V30 1942 H 181.225 0.182694 0.724315 0
M  V30 1943 H 183.887 1.1278 1.58955 0
M  V30 1944 H 182.983 0.672188 3.04775 0
M  V30 1945 N 183.284 -1.43765 0.645699 0
M  V30 1946 C 184.533 -2.01116 0.153412 0
M  V30 1947 C 184.846 -1.51493 -1.23731 0
M  V30 1948 O 186.052 -2.01067 -1.8244 0
M  V30 1949 C 184.508 -3.59206 0.223473 0
M  V30 1950 C 184.116 -4.17823 1.61642 0
M  V30 1951 C 185.86 -4.23972 -0.211597 0
M  V30 1952 C 183.767 -5.68183 1.64081 0
M  V30 1953 H 182.697 -0.752093 0.0535891 0
M  V30 1954 H 185.348 -1.6482 0.806633 0
M  V30 1955 H 183.73 -3.92867 -0.497118 0
M  V30 1956 H 184.904 -3.95674 2.36176 0
M  V30 1957 H 183.219 -3.65399 1.99681 0
M  V30 1958 H 185.816 -5.34275 -0.213112 0
M  V30 1959 H 186.159 -3.97352 -1.24165 0
M  V30 1960 H 186.692 -3.95166 0.456988 0
M  V30 1961 H 183.431 -5.99559 2.64971 0
M  V30 1962 H 182.951 -5.9241 0.938611 0
M  V30 1963 H 184.63 -6.32085 1.3812 0
M  V30 1964 N 184.763 -0.387143 -1.52771 0
M  V30 1965 C 185.71 0.449048 -2.26389 0
M  V30 1966 C 186.68 1.05961 -1.27912 0
M  V30 1967 O 187.865 1.08804 -1.56737 0
M  V30 1968 C 185.005 1.57155 -3.0724 0
M  V30 1969 C 184.118 0.984066 -4.20643 0
M  V30 1970 C 183.253 2.07745 -4.88892 0
M  V30 1971 C 182.292 1.46574 -5.94292 0
M  V30 1972 N 181.429 2.49834 -6.56146 0
M  V30 1973 H 186.269 -0.185205 -2.97424 0
M  V30 1974 H 183.806 -0.103164 -1.46738 0
M  V30 1975 H 185.764 2.23309 -3.52405 0
M  V30 1976 H 184.394 2.17615 -2.38419 0
M  V30 1977 H 183.446 0.212193 -3.79808 0
M  V30 1978 H 184.758 0.497029 -4.96318 0
M  V30 1979 H 183.912 2.81673 -5.3735 0
M  V30 1980 H 182.651 2.59807 -4.12737 0
M  V30 1981 H 181.656 0.711696 -5.45174 0
M  V30 1982 H 182.881 0.953088 -6.72379 0
M  V30 1983 H 180.827 3.0107 -5.82832 0
M  V30 1984 H 180.744 2.05879 -7.27427 0
M  V30 1985 H 182.012 3.23399 -7.09249 0
M  V30 1986 N 186.241 1.57166 -0.116904 0
M  V30 1987 C 187.469 1.99473 0.549383 0
M  V30 1988 C 187.884 0.996541 1.60357 0
M  V30 1989 O 187.241 -0.0108731 1.82497 0
M  V30 1990 C 187.292 3.41788 1.17741 0
M  V30 1991 O 187.013 4.37788 0.165362 0
M  V30 1992 C 188.514 3.99216 1.92722 0
M  V30 1993 H 185.734 0.655009 0.145616 0
M  V30 1994 H 188.278 2.03494 -0.202625 0
M  V30 1995 H 186.433 3.38713 1.88021 0
M  V30 1996 H 186.847 5.20806 0.621403 0
M  V30 1997 H 188.321 5.00882 2.31995 0
M  V30 1998 H 188.798 3.3824 2.80161 0
M  V30 1999 H 189.404 4.0583 1.27209 0
M  V30 2000 N 187.719 -0.156864 1.56817 0
M  V30 2001 C 188.649 -1.19589 2.00551 0
M  V30 2002 C 189.63 -1.4536 0.883426 0
M  V30 2003 O 190.815 -1.56449 1.15054 0
M  V30 2004 C 187.945 -2.53143 2.37773 0
M  V30 2005 C 186.899 -2.41913 3.53075 0
M  V30 2006 C 186.225 -3.80088 3.76081 0
M  V30 2007 C 187.525 -1.91157 4.86062 0
M  V30 2008 H 189.219 -0.832293 2.87599 0
M  V30 2009 H 186.765 -0.398918 1.38364 0
M  V30 2010 H 188.718 -3.26047 2.66967 0
M  V30 2011 H 187.442 -2.91319 1.4765 0
M  V30 2012 H 186.101 -1.71462 3.24031 0
M  V30 2013 H 185.749 -4.15683 2.83225 0
M  V30 2014 H 185.449 -3.73439 4.53671 0
M  V30 2015 H 186.973 -4.54556 4.0769 0
M  V30 2016 H 188.387 -2.53846 5.14038 0
M  V30 2017 H 186.784 -1.95422 5.67389 0
M  V30 2018 H 187.854 -0.866673 4.77092 0
M  V30 2019 N 189.197 -1.51736 -0.425897 0
M  V30 2020 C 190.144 -1.73875 -1.51776 0
M  V30 2021 C 191.114 -0.580702 -1.55618 0
M  V30 2022 O 192.299 -0.81641 -1.72451 0
M  V30 2023 C 189.439 -1.88012 -2.89388 0
M  V30 2024 C 188.552 -3.15606 -2.94986 0
M  V30 2025 C 187.687 -3.20271 -4.23793 0
M  V30 2026 C 186.726 -4.42134 -4.23302 0
M  V30 2027 N 185.863 -4.44284 -5.43651 0
M  V30 2028 H 190.703 -2.67071 -1.32201 0
M  V30 2029 H 188.24 -1.32351 -0.642008 0
M  V30 2030 H 190.198 -1.9419 -3.69251 0
M  V30 2031 H 188.828 -0.98213 -3.07496 0
M  V30 2032 H 187.88 -3.18681 -2.07717 0
M  V30 2033 H 189.192 -4.05486 -2.90486 0
M  V30 2034 H 188.346 -3.25428 -5.12036 0
M  V30 2035 H 187.085 -2.28299 -4.30965 0
M  V30 2036 H 186.09 -4.3714 -3.3345 0
M  V30 2037 H 187.315 -5.35382 -4.17783 0
M  V30 2038 H 185.261 -3.55188 -5.51523 0
M  V30 2039 H 185.178 -5.27988 -5.41078 0
M  V30 2040 H 186.446 -4.53649 -6.33895 0
M  V30 2041 N 190.675 0.682077 -1.42076 0
M  V30 2042 C 191.585 1.82535 -1.47371 0
M  V30 2043 C 192.601 1.7017 -0.363079 0
M  V30 2044 O 193.777 1.91848 -0.612875 0
M  V30 2045 C 190.842 3.18624 -1.36674 0
M  V30 2046 C 189.903 3.42999 -2.58167 0
M  V30 2047 C 189.136 4.72595 -2.4797 0
M  V30 2048 O 189.359 5.50006 -1.5116 0
M  V30 2049 O 188.293 4.98054 -3.37974 0
M  V30 2050 H 192.119 1.81023 -2.43853 0
M  V30 2051 H 189.704 0.836887 -1.2376 0
M  V30 2052 H 191.586 3.99847 -1.33043 0
M  V30 2053 H 190.261 3.20789 -0.433138 0
M  V30 2054 H 189.168 2.61653 -2.67373 0
M  V30 2055 H 190.501 3.45659 -3.50401 0
M  V30 2056 N 192.153 1.28127 0.917671 0
M  V30 2057 C 193.569 1.05749 1.19538 0
M  V30 2058 C 193.769 -0.202633 2.00479 0
M  V30 2059 O 192.825 -0.905382 2.3571 0
M  V30 2060 C 194.138 2.30273 1.93378 0
M  V30 2061 C 195.686 2.35412 2.06277 0
M  V30 2062 C 196.161 3.59692 2.83524 0
M  V30 2063 N 197.652 3.60309 2.91087 0
M  V30 2064 C 198.387 4.53147 3.51348 0
M  V30 2065 N 197.883 5.563 4.12919 0
M  V30 2066 N 199.676 4.40751 3.48849 0
M  V30 2067 H 191.827 2.09024 0.377184 0
M  V30 2068 H 194.09 0.919798 0.22951 0
M  V30 2069 H 193.796 3.22055 1.41328 0
M  V30 2070 H 193.67 2.36378 2.93947 0
M  V30 2071 H 196.057 1.4413 2.57508 0
M  V30 2072 H 196.138 2.33304 1.04895 0
M  V30 2073 H 195.782 4.51316 2.32973 0
M  V30 2074 H 195.712 3.59054 3.85211 0
M  V30 2075 H 198.203 2.85714 2.47338 0
M  V30 2076 H 198.516 6.2329 4.56869 0
M  V30 2077 H 196.861 5.60131 4.11435 0
M  V30 2078 H 200.052 3.59367 2.99955 0
M  V30 2079 H 200.225 5.13291 3.9552 0
M  V30 2080 N 193.631 -1.12557 1.10312 0
M  V30 2081 C 194.879 -1.83675 0.843091 0
M  V30 2082 C 195.2 -1.84435 -0.633131 0
M  V30 2083 O 194.47 -1.30657 -1.45964 0
M  V30 2084 H 193.05 -0.680138 0.308904 0
M  V30 2085 H 195.712 -1.36301 1.39313 0
M  V30 2086 H 194.808 -2.87908 1.2048 0
M  V30 2087 N 195.109 -0.891671 -1.2995 0
M  V30 2088 C 196.358 -0.509521 -1.95158 0
M  V30 2089 C 196.671 0.947388 -1.71125 0
M  V30 2090 O 197.877 1.43669 -2.30372 0
M  V30 2091 C 196.333 -0.860315 -3.49466 0
M  V30 2092 C 195.941 -2.33545 -3.8231 0
M  V30 2093 C 197.685 -0.547687 -4.20952 0
M  V30 2094 C 195.592 -2.62752 -5.29826 0
M  V30 2095 H 194.522 -0.18682 -0.730489 0
M  V30 2096 H 197.173 -1.08756 -1.47798 0
M  V30 2097 H 195.555 -0.211285 -3.95436 0
M  V30 2098 H 196.729 -3.02936 -3.47227 0
M  V30 2099 H 195.044 -2.61629 -3.23944 0
M  V30 2100 H 197.641 -0.742854 -5.29515 0
M  V30 2101 H 197.984 0.51332 -4.13123 0
M  V30 2102 H 198.517 -1.1542 -3.80688 0
M  V30 2103 H 195.256 -3.6762 -5.42712 0
M  V30 2104 H 194.776 -1.97977 -5.66185 0
M  V30 2105 H 196.455 -2.48601 -5.97333 0
M  V30 2106 N 196.587 1.43421 -0.653314 0
M  V30 2107 C 197.534 2.30768 0.0382271 0
M  V30 2108 C 198.504 1.44755 0.814576 0
M  V30 2109 O 199.689 1.73624 0.791162 0
M  V30 2110 C 196.829 3.30336 0.998599 0
M  V30 2111 C 195.942 4.31448 0.218342 0
M  V30 2112 C 195.077 5.18098 1.17252 0
M  V30 2113 C 194.116 6.10902 0.382702 0
M  V30 2114 N 193.253 6.90176 1.28848 0
M  V30 2115 H 198.093 2.89357 -0.712511 0
M  V30 2116 H 195.63 1.42548 -0.363128 0
M  V30 2117 H 197.588 3.86572 1.56901 0
M  V30 2118 H 196.218 2.73397 1.71621 0
M  V30 2119 H 195.27 3.77506 -0.46836 0
M  V30 2120 H 196.582 4.97227 -0.395812 0
M  V30 2121 H 195.736 5.7896 1.81356 0
M  V30 2122 H 194.475 4.52444 1.82058 0
M  V30 2123 H 193.48 5.49128 -0.27169 0
M  V30 2124 H 194.705 6.78598 -0.260957 0
M  V30 2125 H 192.651 6.27171 1.92334 0
M  V30 2126 H 192.568 7.52478 0.728887 0
M  V30 2127 H 193.836 7.55543 1.91766 0
M  V30 2128 N 198.065 0.39524 1.52563 0
M  V30 2129 C 199.028 -0.425001 2.25225 0
M  V30 2130 C 200.028 -0.985266 1.27079 0
M  V30 2131 O 201.218 -0.866332 1.5113 0
M  V30 2132 C 198.35 -1.59686 3.01186 0
M  V30 2133 H 199.543 0.211233 2.99155 0
M  V30 2134 H 197.096 0.147472 1.55603 0
M  V30 2135 H 197.831 -2.27035 2.31572 0
M  V30 2136 H 197.616 -1.20176 3.73229 0
M  V30 2137 H 199.106 -2.17743 3.5634 0
M  V30 2138 N 199.544 -1.57102 0.125237 0
M  V30 2139 C 200.494 -2.12202 -0.833936 0
M  V30 2140 C 201.478 -1.04433 -1.22403 0
M  V30 2141 O 202.67 -1.30655 -1.19408 0
M  V30 2142 C 199.799 -2.72994 -2.08157 0
M  V30 2143 C 198.885 -3.87852 -1.71556 0
M  V30 2144 N 199.276 -4.9464 -1.05662 0
M  V30 2145 C 197.574 -3.98153 -2.00973 0
M  V30 2146 C 198.275 -5.74953 -0.883376 0
M  V30 2147 N 197.251 -5.24985 -1.41036 0
M  V30 2148 H 201.053 -2.92141 -0.321035 0
M  V30 2149 H 198.567 -1.62217 -0.0770315 0
M  V30 2150 H 200.564 -3.10816 -2.77847 0
M  V30 2151 H 199.224 -1.9452 -2.59985 0
M  V30 2152 H 200.235 -5.12872 -0.719878 0
M  V30 2153 H 196.912 -3.30728 -2.54804 0
M  V30 2154 H 198.302 -6.70904 -0.365675 0
M  V30 2155 N 201.022 0.148545 -1.56898 0
M  V30 2156 C 202.247 0.880385 -1.87787 0
M  V30 2157 C 202.672 1.74018 -0.714093 0
M  V30 2158 O 202.03 1.78153 0.336343 0
M  V30 2159 C 202.078 1.71422 -3.17249 0
M  V30 2160 O 201.182 2.8183 -3.01074 0
M  V30 2161 H 200.523 0.245301 -0.617028 0
M  V30 2162 H 203.053 0.139826 -2.04122 0
M  V30 2163 H 203.063 2.10954 -3.49231 0
M  V30 2164 H 201.738 1.08284 -4.01556 0
M  V30 2165 H 200.315 2.45715 -2.80497 0
M  V30 2166 N 202.5 1.5196 0.417844 0
M  V30 2167 C 203.728 1.69426 1.18753 0
M  V30 2168 C 204.143 0.399955 1.84515 0
M  V30 2169 O 203.5 -0.623288 1.71527 0
M  V30 2170 C 203.551 2.82375 2.25714 0
M  V30 2171 O 203.272 4.06793 1.62638 0
M  V30 2172 C 204.773 3.11277 3.15628 0
M  V30 2173 H 201.993 0.568031 0.357186 0
M  V30 2174 H 204.537 1.98475 0.49273 0
M  V30 2175 H 202.692 2.5587 2.90877 0
M  V30 2176 H 203.106 4.69667 2.3348 0
M  V30 2177 H 204.58 3.93843 3.86771 0
M  V30 2178 H 205.057 2.24473 3.77503 0
M  V30 2179 H 205.663 3.39515 2.56144 0
M  V30 2180 N 203.978 -0.674533 1.42435 0
M  V30 2181 C 204.941 -1.76986 1.45632 0
M  V30 2182 C 205.941 -1.5708 0.343871 0
M  V30 2183 O 207.131 -1.63367 0.604709 0
M  V30 2184 C 204.263 -3.15623 1.28822 0
M  V30 2185 H 205.456 -1.75539 2.43158 0
M  V30 2186 H 203.009 -0.884189 1.28887 0
M  V30 2187 H 203.744 -3.22696 0.322193 0
M  V30 2188 H 203.529 -3.31475 2.09444 0
M  V30 2189 H 205.019 -3.95537 1.33942 0
M  V30 2190 N 205.456 -1.28612 -0.910864 0
M  V30 2191 C 206.386 -1.15326 -2.03032 0
M  V30 2192 C 207.367 -0.0502924 -1.70026 0
M  V30 2193 O 208.552 -0.227797 -1.92859 0
M  V30 2194 C 205.682 -0.817343 -3.37545 0
M  V30 2195 C 204.636 -1.8754 -3.84724 0
M  V30 2196 C 203.962 -1.39305 -5.16235 0
M  V30 2197 C 205.262 -3.28244 -4.06267 0
M  V30 2198 H 206.956 -2.08975 -2.14406 0
M  V30 2199 H 204.502 -1.00612 -1.03021 0
M  V30 2200 H 206.455 -0.711151 -4.15356 0
M  V30 2201 H 205.179 0.154846 -3.26233 0
M  V30 2202 H 203.838 -1.97079 -3.09121 0
M  V30 2203 H 203.486 -0.409846 -5.01328 0
M  V30 2204 H 203.186 -2.10057 -5.48771 0
M  V30 2205 H 204.71 -1.30014 -5.96598 0
M  V30 2206 H 206.124 -3.21611 -4.74594 0
M  V30 2207 H 204.521 -3.96855 -4.5014 0
M  V30 2208 H 205.591 -3.72048 -3.10979 0
M  V30 2209 N 206.934 1.1197 -1.10907 0
M  V30 2210 C 208.162 1.87402 -0.876824 0
M  V30 2211 C 208.577 1.79894 0.573025 0
M  V30 2212 O 207.934 1.17629 1.39534 0
M  V30 2213 C 207.985 3.36428 -1.32282 0
M  V30 2214 O 207.706 3.43765 -2.71582 0
M  V30 2215 C 209.207 4.28783 -1.12518 0
M  V30 2216 H 206.427 0.592793 -0.314384 0
M  V30 2217 H 208.971 1.41649 -1.47499 0
M  V30 2218 H 207.126 3.79706 -0.768229 0
M  V30 2219 H 207.54 4.3652 -2.90776 0
M  V30 2220 H 209.014 5.31613 -1.48633 0
M  V30 2221 H 209.491 4.39153 -0.0642394 0
M  V30 2222 H 210.097 3.91291 -1.66648 0
M  V30 2223 N 208.412 0.89855 1.29475 0
M  V30 2224 C 209.375 0.380272 2.26023 0
M  V30 2225 C 210.375 -0.484891 1.53315 0
M  V30 2226 O 211.565 -0.290108 1.71767 0
M  V30 2227 C 208.697 -0.45651 3.3783 0
M  V30 2228 H 209.89 1.23295 2.73383 0
M  V30 2229 H 207.443 0.676589 1.40897 0
M  V30 2230 H 208.178 -1.32922 2.95808 0
M  V30 2231 H 207.963 0.163393 3.91759 0
M  V30 2232 H 209.453 -0.810466 4.0966 0
M  V30 2233 N 209.89 -1.43072 0.660911 0
M  V30 2234 C 210.8 -2.34585 -0.0264163 0
M  V30 2235 C 211.816 -1.54316 -0.803898 0
M  V30 2236 O 212.992 -1.86939 -0.749391 0
M  V30 2237 C 210.057 -3.32689 -0.975639 0
M  V30 2238 C 209.118 -4.2886 -0.194236 0
M  V30 2239 C 208.351 -5.22278 -1.09825 0
M  V30 2240 O 208.574 -5.20299 -2.33763 0
M  V30 2241 O 207.508 -5.99228 -0.566513 0
M  V30 2242 H 211.334 -2.94869 0.727034 0
M  V30 2243 H 208.919 -1.43342 0.42111 0
M  V30 2244 H 210.801 -3.92995 -1.52094 0
M  V30 2245 H 209.476 -2.74898 -1.70918 0
M  V30 2246 H 208.383 -3.72011 0.394835 0
M  V30 2247 H 209.716 -4.89655 0.499899 0
M  V30 2248 N 211.368 -0.403325 -1.52352 0
M  V30 2249 C 212.298 0.416205 -2.29761 0
M  V30 2250 C 213.279 1.05123 -1.33728 0
M  V30 2251 O 214.464 1.06134 -1.62632 0
M  V30 2252 C 211.594 1.53624 -3.11475 0
M  V30 2253 C 210.548 1.02653 -4.15507 0
M  V30 2254 C 209.874 2.23971 -4.85532 0
M  V30 2255 C 211.174 0.08463 -5.22231 0
M  V30 2256 H 212.868 -0.229701 -2.98518 0
M  V30 2257 H 210.414 -0.111913 -1.43564 0
M  V30 2258 H 212.367 2.1165 -3.64393 0
M  V30 2259 H 211.091 2.20994 -2.40477 0
M  V30 2260 H 209.75 0.46871 -3.63591 0
M  V30 2261 H 209.398 2.89883 -4.11068 0
M  V30 2262 H 209.098 1.90521 -5.55856 0
M  V30 2263 H 210.622 2.82614 -5.41259 0
M  V30 2264 H 212.036 0.573509 -5.70424 0
M  V30 2265 H 210.433 -0.160783 -5.99885 0
M  V30 2266 H 211.503 -0.86237 -4.7717 0
M  V30 2267 N 212.846 1.57033 -0.133567 0
M  V30 2268 C 213.809 2.14897 0.796995 0
M  V30 2269 C 214.809 1.0874 1.18458 0
M  V30 2270 O 215.999 1.34446 1.1077 0
M  V30 2271 C 213.131 2.70112 2.07973 0
M  V30 2272 H 214.324 2.98457 0.293873 0
M  V30 2273 H 211.877 1.55871 0.115787 0
M  V30 2274 H 212.612 1.9018 2.62682 0
M  V30 2275 H 212.397 3.47764 1.81115 0
M  V30 2276 H 213.887 3.14738 2.74462 0
M  V30 2277 N 214.325 -0.140222 1.56975 0
M  V30 2278 C 215.272 -1.17292 1.98774 0
M  V30 2279 C 216.242 -1.4232 0.856408 0
M  V30 2280 O 217.427 -1.54541 1.119 0
M  V30 2281 C 214.567 -2.49973 2.37923 0
M  V30 2282 C 213.68 -2.32062 3.64378 0
M  V30 2283 C 212.815 -3.57825 3.926 0
M  V30 2284 C 211.854 -3.3498 5.12303 0
M  V30 2285 N 210.991 -4.52891 5.36502 0
M  V30 2286 H 215.831 -0.809472 2.86795 0
M  V30 2287 H 213.368 -0.388237 1.41884 0
M  V30 2288 H 215.326 -3.27346 2.58652 0
M  V30 2289 H 213.956 -2.84252 1.52972 0
M  V30 2290 H 213.008 -1.45711 3.51387 0
M  V30 2291 H 214.32 -2.11145 4.51906 0
M  V30 2292 H 213.474 -4.43624 4.13863 0
M  V30 2293 H 212.213 -3.81753 3.03506 0
M  V30 2294 H 211.218 -2.4757 4.90906 0
M  V30 2295 H 212.443 -3.12444 6.02956 0
M  V30 2296 H 210.389 -4.76979 4.50363 0
M  V30 2297 H 210.306 -4.35001 6.18312 0
M  V30 2298 H 211.574 -5.39884 5.62268 0
M  V30 2299 N 215.803 -1.52179 -0.40978 0
M  V30 2300 C 216.75 -1.75475 -1.49924 0
M  V30 2301 C 217.72 -0.597175 -1.54994 0
M  V30 2302 O 218.905 -0.834655 -1.71575 0
M  V30 2303 C 216.045 -1.9107 -2.87378 0
M  V30 2304 C 215.158 -3.18717 -2.91622 0
M  V30 2305 C 214.293 -3.24747 -4.20372 0
M  V30 2306 C 213.332 -4.46598 -4.18588 0
M  V30 2307 N 212.469 -4.50025 -5.38908 0
M  V30 2308 H 217.309 -2.68458 -1.29361 0
M  V30 2309 H 214.846 -1.33024 -0.627934 0
M  V30 2310 H 216.804 -1.98096 -3.6717 0
M  V30 2311 H 215.434 -1.01469 -3.06437 0
M  V30 2312 H 214.486 -3.20866 -2.04326 0
M  V30 2313 H 215.798 -4.08544 -2.86169 0
M  V30 2314 H 214.952 -3.30841 -5.08556 0
M  V30 2315 H 213.691 -2.32857 -4.28519 0
M  V30 2316 H 212.696 -4.40652 -3.28794 0
M  V30 2317 H 213.921 -5.39783 -4.12081 0
M  V30 2318 H 211.867 -3.61017 -5.47725 0
M  V30 2319 H 211.784 -5.33697 -5.35447 0
M  V30 2320 H 213.052 -4.60347 -6.29048 0
M  V30 2321 N 217.281 0.66697 -1.42791 0
M  V30 2322 C 218.229 1.80157 -1.47127 0
M  V30 2323 C 219.223 1.65825 -0.346199 0
M  V30 2324 O 220.429 1.72338 -0.519572 0
M  V30 2325 H 216.804 0.594158 -0.460956 0
M  V30 2326 H 218.775 1.73619 -2.42692 0
M  V30 2327 C 217.524 3.18351 -1.39813 0
M  V30 2328 H 216.847 3.3001 -2.25684 0
M  V30 2329 H 218.287 3.97736 -1.46908 0
M  V30 2330 C 216.746 3.36707 -0.11391 0
M  V30 2331 O 217.276 3.93027 0.830241 0
M  V30 2332 N 215.482 2.90586 -0.0285295 0
M  V30 2333 H 215.029 2.4494 -0.79764 0
M  V30 2334 H 214.987 3.03245 0.830063 0
M  V30 2335 N 218.759 1.29093 0.90403 0
M  V30 2336 C 220.007 1.16583 1.65085 0
M  V30 2337 C 220.328 -0.283933 1.92922 0
M  V30 2338 O 219.598 -1.19509 1.55224 0
M  V30 2339 H 218.178 0.428467 0.611903 0
M  V30 2340 H 220.84 1.61959 1.08422 0
M  V30 2341 H 219.936 1.71266 2.6091 0
M  V30 2342 N 220.237 -1.11381 1.11499 0
M  V30 2343 C 221.467 -1.86663 0.885464 0
M  V30 2344 C 221.875 -1.80464 -0.568281 0
M  V30 2345 O 221.218 -1.18445 -1.40415 0
M  V30 2346 C 221.28 -3.36337 1.26956 0
M  V30 2347 C 220.944 -3.66304 2.73259 0
M  V30 2348 C 221.941 -3.63733 3.71476 0
M  V30 2349 C 219.626 -3.9529 3.09921 0
M  V30 2350 C 221.62 -3.89725 5.04374 0
M  V30 2351 C 219.307 -4.20941 4.43004 0
M  V30 2352 C 220.305 -4.18147 5.40039 0
M  V30 2353 O 219.993 -4.43153 6.70724 0
M  V30 2354 H 219.725 -0.597114 0.316908 0
M  V30 2355 H 222.279 -1.41782 1.48617 0
M  V30 2356 H 220.509 -3.81826 0.611999 0
M  V30 2357 H 222.198 -3.92986 1.01573 0
M  V30 2358 H 222.964 -3.41389 3.44498 0
M  V30 2359 H 218.843 -3.966 2.35009 0
M  V30 2360 H 222.387 -3.8746 5.80104 0
M  V30 2361 H 218.284 -4.42761 4.69716 0
M  V30 2362 H 219.052 -4.60717 6.76522 0
M  V30 2363 N 221.715 -0.905404 -1.28997 0
M  V30 2364 C 222.625 -0.392246 -2.31298 0
M  V30 2365 C 223.641 0.515889 -1.66176 0
M  V30 2366 O 224.817 0.404093 -1.97304 0
M  V30 2367 C 221.882 0.36686 -3.44754 0
M  V30 2368 C 220.943 -0.573485 -4.25452 0
M  V30 2369 C 220.176 0.149488 -5.33491 0
M  V30 2370 O 220.399 1.37255 -5.5364 0
M  V30 2371 O 219.333 -0.510919 -5.99728 0
M  V30 2372 H 223.159 -1.2411 -2.77183 0
M  V30 2373 H 220.744 -0.669926 -1.33538 0
M  V30 2374 H 222.626 0.795907 -4.13816 0
M  V30 2375 H 221.301 1.19169 -3.00966 0
M  V30 2376 H 220.208 -1.05176 -3.59011 0
M  V30 2377 H 221.541 -1.36489 -4.72897 0
M  V30 2378 N 223.193 1.4272 -0.668489 0
M  V30 2379 C 224.103 2.34596 0.0139753 0
M  V30 2380 C 225.119 1.5474 0.795703 0
M  V30 2381 O 226.295 1.87334 0.739466 0
M  V30 2382 C 223.36 3.33202 0.957982 0
M  V30 2383 C 222.421 4.28957 0.17149 0
M  V30 2384 C 221.654 5.22853 1.07053 0
M  V30 2385 O 221.877 5.21531 2.31001 0
M  V30 2386 O 220.811 5.9952 0.534727 0
M  V30 2387 H 224.637 2.9448 -0.742661 0
M  V30 2388 H 222.222 1.43117 -0.428705 0
M  V30 2389 H 224.104 3.93796 1.50008 0
M  V30 2390 H 222.779 2.758 1.69458 0
M  V30 2391 H 221.686 3.71796 -0.414558 0
M  V30 2392 H 223.019 4.89383 -0.52586 0
M  V30 2393 N 224.671 0.411399 1.52136 0
M  V30 2394 C 226.082 -0.0576826 1.86611 0
M  V30 2395 C 226.433 -1.44238 1.33003 0
M  V30 2396 O 225.558 -2.05759 0.670228 0
M  V30 2397 C 226.153 -0.111448 3.38617 0
M  V30 2398 C 224.712 -0.52487 3.72723 0
M  V30 2399 C 223.859 0.299176 2.75681 0
M  V30 2400 H 226.81 0.628368 1.4573 0
M  V30 2401 H 226.831 -0.926252 3.69054 0
M  V30 2402 H 226.343 0.896488 3.77604 0
M  V30 2403 H 224.444 -1.53936 3.39315 0
M  V30 2404 H 224.557 -0.267681 4.78352 0
M  V30 2405 H 222.921 -0.238814 2.53578 0
M  V30 2406 H 223.704 1.3055 3.17508 0
M  V30 2407 N 226.149 -1.5696 0.141893 0
M  V30 2408 C 227.079 -2.19516 -0.795936 0
M  V30 2409 C 228.06 -1.14187 -1.26077 0
M  V30 2410 O 229.245 -1.42511 -1.31925 0
M  V30 2411 C 226.375 -2.81272 -2.03723 0
M  V30 2412 C 225.329 -3.92384 -1.70936 0
M  V30 2413 C 224.655 -4.41052 -3.02287 0
M  V30 2414 C 225.955 -5.13403 -0.959954 0
M  V30 2415 H 227.649 -2.98138 -0.274596 0
M  V30 2416 H 225.195 -1.43406 -0.130636 0
M  V30 2417 H 227.148 -3.237 -2.69808 0
M  V30 2418 H 225.872 -1.99973 -2.58221 0
M  V30 2419 H 224.531 -3.50566 -1.07232 0
M  V30 2420 H 224.179 -3.56582 -3.54765 0
M  V30 2421 H 223.879 -5.15993 -2.81114 0
M  V30 2422 H 225.403 -4.86146 -3.69451 0
M  V30 2423 H 226.817 -5.52706 -1.52279 0
M  V30 2424 H 225.214 -5.94073 -0.848357 0
M  V30 2425 H 226.284 -4.84875 0.0492434 0
M  V30 2426 N 227.627 0.131896 -1.57047 0
M  V30 2427 C 228.875 0.840269 -1.83804 0
M  V30 2428 C 229.196 1.81017 -0.72512 0
M  V30 2429 O 228.466 1.94272 0.251995 0
M  V30 2430 H 227.046 0.313294 -0.678127 0
M  V30 2431 H 229.708 0.122294 -1.94516 0
M  V30 2432 H 228.804 1.39335 -2.79271 0
M  V30 2433 N 229.106 1.52395 0.401703 0
M  V30 2434 C 230.383 1.57387 1.16141 0
M  V30 2435 C 230.763 0.359359 2.08019 0
M  V30 2436 O 230.111 -0.65326 2.18963 0
M  V30 2437 C 230.321 2.90631 1.93221 0
M  V30 2438 C 231.669 3.43904 2.49028 0
M  V30 2439 O 232.693 2.92421 2.03393 0
M  V30 2440 O 231.552 4.33823 3.32356 0
M  V30 2441 H 228.646 0.634262 0.530698 0
M  V30 2442 H 231.192 1.64725 0.407883 0
M  V30 2443 H 229.964 3.70473 1.25958 0
M  V30 2444 H 229.587 2.8662 2.75563 0
M  V30 2445 N 230.584 -0.659388 1.43143 0
M  V30 2446 C 231.514 -1.78422 1.50625 0
M  V30 2447 C 232.495 -1.66216 0.361443 0
M  V30 2448 O 233.68 -1.85404 0.577834 0
M  V30 2449 C 230.81 -3.16815 1.42287 0
M  V30 2450 C 229.764 -3.43777 2.54954 0
M  V30 2451 C 229.09 -4.81905 2.31671 0
M  V30 2452 C 230.39 -3.39134 3.97222 0
M  V30 2453 H 232.084 -1.72417 2.44771 0
M  V30 2454 H 229.63 -0.828084 1.17808 0
M  V30 2455 H 231.583 -3.95253 1.46127 0
M  V30 2456 H 230.307 -3.23534 0.446435 0
M  V30 2457 H 228.966 -2.67707 2.50457 0
M  V30 2458 H 228.614 -4.85294 1.32284 0
M  V30 2459 H 228.314 -5.00906 3.07192 0
M  V30 2460 H 229.838 -5.62609 2.37284 0
M  V30 2461 H 231.252 -4.07518 4.03239 0
M  V30 2462 H 229.649 -3.69671 4.72719 0
M  V30 2463 H 230.719 -2.37426 4.22797 0
M  V30 2464 N 232.062 -1.29571 -0.897171 0
M  V30 2465 C 232.994 -1.10724 -2.00681 0
M  V30 2466 C 234.007 -0.0540026 -1.6271 0
M  V30 2467 O 235.196 -0.298783 -1.75982 0
M  V30 2468 C 232.296 -0.663912 -3.32333 0
M  V30 2469 C 231.469 -1.79622 -3.98816 0
M  V30 2470 C 230.528 -1.34349 -5.0876 0
M  V30 2471 O 229.554 -2.04864 -5.31055 0
M  V30 2472 N 230.756 -0.215764 -5.80099 0
M  V30 2473 H 233.521 -2.06291 -2.17403 0
M  V30 2474 H 231.082 -1.21544 -1.06951 0
M  V30 2475 H 233.074 -0.344295 -4.03233 0
M  V30 2476 H 231.644 0.199375 -3.11964 0
M  V30 2477 H 230.864 -2.28459 -3.21248 0
M  V30 2478 H 232.152 -2.55535 -4.39976 0
M  V30 2479 H 231.55 0.372091 -5.64475 0
M  V30 2480 H 230.107 0.0444707 -6.51785 0
M  V30 2481 N 233.54 1.10788 -1.12088 0
M  V30 2482 C 234.768 1.86461 -0.896651 0
M  V30 2483 C 235.183 1.80492 0.553912 0
M  V30 2484 O 234.54 1.19102 1.38278 0
M  V30 2485 C 234.591 3.35006 -1.35843 0
M  V30 2486 O 234.312 3.40866 -2.75213 0
M  V30 2487 C 235.813 4.27565 -1.1706 0
M  V30 2488 H 233.033 0.589425 -0.320654 0
M  V30 2489 H 235.577 1.40076 -1.48993 0
M  V30 2490 H 233.732 3.7887 -0.808458 0
M  V30 2491 H 234.146 4.33411 -2.9539 0
M  V30 2492 H 235.62 5.30007 -1.54263 0
M  V30 2493 H 236.097 4.3906 -0.110814 0
M  V30 2494 H 236.703 3.89501 -1.70789 0
M  V30 2495 N 235.018 0.912232 1.28515 0
M  V30 2496 C 236.264 0.545405 1.95328 0
M  V30 2497 C 236.597 -0.908313 1.71649 0
M  V30 2498 O 235.872 -1.64575 1.03659 0
M  V30 2499 C 236.155 0.853483 3.4984 0
M  V30 2500 C 236.008 2.35982 3.82926 0
M  V30 2501 C 237.327 0.348589 4.38717 0
M  V30 2502 H 234.446 0.199626 0.709449 0
M  V30 2503 H 237.088 1.1412 1.5191 0
M  V30 2504 H 235.238 0.34643 3.86952 0
M  V30 2505 H 236.91 2.93738 3.55691 0
M  V30 2506 H 235.153 2.81543 3.30024 0
M  V30 2507 H 235.824 2.52593 4.90816 0
M  V30 2508 H 238.3 0.78294 4.08668 0
M  V30 2509 H 237.176 0.593242 5.45685 0
M  V30 2510 H 237.437 -0.751049 4.35674 0
M  V30 2511 N 236.496 -1.42363 0.676048 0
M  V30 2512 C 237.724 -2.05859 0.207268 0
M  V30 2513 C 238.139 -1.50796 -1.13605 0
M  V30 2514 O 237.496 -0.648265 -1.70598 0
M  V30 2515 C 237.547 -3.61248 0.134975 0
M  V30 2516 O 237.268 -4.1427 1.42521 0
M  V30 2517 C 238.769 -4.41859 -0.357151 0
M  V30 2518 H 235.989 -0.663431 0.100503 0
M  V30 2519 H 238.533 -1.82479 0.923136 0
M  V30 2520 H 236.688 -3.83735 -0.531588 0
M  V30 2521 H 237.102 -5.0815 1.29939 0
M  V30 2522 H 238.576 -5.50847 -0.356641 0
M  V30 2523 H 239.053 -4.16536 -1.39264 0
M  V30 2524 H 239.659 -4.24392 0.27772 0
M  V30 2525 N 237.974 -0.419461 -1.51915 0
M  V30 2526 C 238.922 0.415502 -2.28859 0
M  V30 2527 C 239.916 1.03674 -1.3397 0
M  V30 2528 O 241.122 0.973757 -1.51387 0
M  V30 2529 H 237.497 0.152786 -0.736315 0
M  V30 2530 H 239.468 -0.254531 -2.97312 0
M  V30 2531 C 238.217 1.51425 -3.12995 0
M  V30 2532 H 237.54 1.04556 -3.85886 0
M  V30 2533 H 238.98 2.07208 -3.6992 0
M  V30 2534 C 237.439 2.48745 -2.27217 0
M  V30 2535 O 237.969 3.52871 -1.9195 0
M  V30 2536 N 236.175 2.19202 -1.90785 0
M  V30 2537 H 235.722 1.34556 -2.19664 0
M  V30 2538 H 235.68 2.84561 -1.33687 0
M  V30 2539 N 239.452 1.56882 -0.150215 0
M  V30 2540 C 240.382 2.19935 0.784284 0
M  V30 2541 C 241.363 1.14854 1.25469 0
M  V30 2542 O 242.548 1.43209 1.31168 0
M  V30 2543 C 239.678 2.82349 2.02229 0
M  V30 2544 C 238.632 3.93285 1.68853 0
M  V30 2545 C 237.958 4.42649 2.99944 0
M  V30 2546 C 239.258 5.13904 0.932714 0
M  V30 2547 H 240.952 2.9828 0.258781 0
M  V30 2548 H 238.498 1.43473 0.123029 0
M  V30 2549 H 240.451 3.25126 2.68088 0
M  V30 2550 H 239.175 2.0134 2.57157 0
M  V30 2551 H 237.834 3.5113 1.05371 0
M  V30 2552 H 237.482 3.58458 3.52869 0
M  V30 2553 H 237.182 5.17476 2.78374 0
M  V30 2554 H 238.706 4.88099 3.66868 0
M  V30 2555 H 240.12 5.53506 1.49345 0
M  V30 2556 H 238.517 5.94515 0.81684 0
M  V30 2557 H 239.587 4.84842 -0.0749568 0
M  V30 2558 N 240.93 -0.123565 1.57115 0
M  V30 2559 C 241.877 -1.15177 2.00007 0
M  V30 2560 C 242.847 -1.41403 0.871454 0
M  V30 2561 O 244.032 -1.53346 1.13533 0
M  V30 2562 C 241.172 -2.47436 2.40561 0
M  V30 2563 C 240.285 -2.28184 3.66819 0
M  V30 2564 C 239.42 -3.53641 3.96373 0
M  V30 2565 C 238.459 -3.29528 5.15827 0
M  V30 2566 N 237.596 -4.47175 5.41275 0
M  V30 2567 H 242.436 -0.779008 2.87638 0
M  V30 2568 H 239.973 -0.373166 1.42288 0
M  V30 2569 H 241.931 -3.24584 2.62109 0
M  V30 2570 H 240.561 -2.82614 1.55978 0
M  V30 2571 H 239.613 -1.41976 3.52912 0
M  V30 2572 H 240.925 -2.0634 4.5412 0
M  V30 2573 H 240.079 -4.39209 4.18545 0
M  V30 2574 H 238.818 -3.78512 3.07538 0
M  V30 2575 H 237.823 -2.42349 4.93505 0
M  V30 2576 H 239.048 -3.06031 6.06236 0
M  V30 2577 H 236.994 -4.72175 4.55397 0
M  V30 2578 H 236.911 -4.28419 6.22891 0
M  V30 2579 H 238.179 -5.3389 5.67963 0
M  V30 2580 N 242.408 -1.52605 -0.393616 0
M  V30 2581 C 243.655 -1.67424 -1.1391 0
M  V30 2582 C 243.983 -0.411859 -1.90089 0
M  V30 2583 O 243.238 0.605626 -1.86093 0
M  V30 2584 C 243.537 -2.85721 -2.14705 0
M  V30 2585 C 243.203 -4.23342 -1.55218 0
M  V30 2586 C 241.865 -4.60771 -1.3872 0
M  V30 2587 C 244.217 -5.09041 -1.11924 0
M  V30 2588 C 241.545 -5.81563 -0.774689 0
M  V30 2589 C 243.897 -6.30452 -0.520853 0
M  V30 2590 C 242.561 -6.66617 -0.343134 0
M  V30 2591 H 241.831 -0.612648 -0.416826 0
M  V30 2592 H 244.478 -1.8674 -0.424315 0
M  V30 2593 H 242.783 -2.60803 -2.92385 0
M  V30 2594 H 244.48 -2.94382 -2.72288 0
M  V30 2595 H 241.07 -3.93855 -1.69045 0
M  V30 2596 H 245.254 -4.80695 -1.23473 0
M  V30 2597 H 240.51 -6.08196 -0.625154 0
M  V30 2598 H 244.684 -6.96175 -0.177065 0
M  V30 2599 H 242.311 -7.60083 0.133571 0
M  V30 2600 N 243.887 0.651787 -1.4349 0
M  V30 2601 C 245.135 1.40888 -1.44897 0
M  V30 2602 C 245.456 1.94856 -0.0749086 0
M  V30 2603 O 244.726 1.74518 0.889956 0
M  V30 2604 H 243.306 0.522887 -0.533478 0
M  V30 2605 H 245.968 0.768609 -1.79104 0
M  V30 2606 H 245.064 2.25052 -2.16236 0
M  V30 2607 N 245.365 1.30045 0.890287 0
M  V30 2608 C 246.313 1.15873 2.01683 0
M  V30 2609 C 247.307 0.0719403 1.69247 0
M  V30 2610 O 248.513 0.232414 1.78493 0
M  V30 2611 H 244.888 0.358203 0.661207 0
M  V30 2612 H 246.859 2.11229 2.10772 0
M  V30 2613 C 245.608 0.861842 3.36849 0
M  V30 2614 H 244.931 1.69016 3.62317 0
M  V30 2615 H 246.371 0.802762 4.16331 0
M  V30 2616 C 244.83 -0.435132 3.34078 0
M  V30 2617 O 245.36 -1.4583 3.74295 0
M  V30 2618 N 243.566 -0.444377 2.87182 0
M  V30 2619 H 243.113 0.388723 2.5465 0
M  V30 2620 H 243.071 -1.31213 2.85711 0
M  V30 2621 N 246.843 -1.10192 1.12674 0
M  V30 2622 C 247.776 -2.15847 0.740625 0
M  V30 2623 C 248.754 -1.60352 -0.269421 0
M  V30 2624 O 249.938 -1.87796 -0.16278 0
M  V30 2625 C 247.065 -3.38562 0.096641 0
M  V30 2626 C 246.111 -4.12758 1.07391 0
M  V30 2627 S 246.944 -4.67997 2.60267 0
M  V30 2628 C 248.1 -5.94021 1.97206 0
M  V30 2629 H 248.333 -2.48266 1.63558 0
M  V30 2630 H 245.866 -1.22019 0.946087 0
M  V30 2631 H 247.824 -4.09621 -0.268535 0
M  V30 2632 H 246.485 -3.04377 -0.775462 0
M  V30 2633 H 245.678 -5.00755 0.570997 0
M  V30 2634 H 245.28 -3.47523 1.38216 0
M  V30 2635 H 247.572 -6.64589 1.31634 0
M  V30 2636 H 248.515 -6.48979 2.83253 0
M  V30 2637 H 248.923 -5.46169 1.42686 0
M  V30 2638 N 248.321 -0.919034 -1.28029 0
M  V30 2639 C 249.268 -0.410005 -2.27129 0
M  V30 2640 C 250.238 0.518405 -1.57803 0
M  V30 2641 O 251.423 0.439451 -1.8567 0
M  V30 2642 C 248.563 0.339054 -3.4343 0
M  V30 2643 C 247.676 -0.622468 -4.27492 0
M  V30 2644 C 246.811 0.145567 -5.31001 0
M  V30 2645 C 245.85 -0.809226 -6.06727 0
M  V30 2646 N 244.987 -0.0743728 -7.02061 0
M  V30 2647 H 249.827 -1.26011 -2.70047 0
M  V30 2648 H 247.364 -0.632663 -1.328 0
M  V30 2649 H 249.322 0.789586 -4.0966 0
M  V30 2650 H 247.952 1.15346 -3.01488 0
M  V30 2651 H 247.004 -1.19153 -3.61257 0
M  V30 2652 H 248.316 -1.35252 -4.80113 0
M  V30 2653 H 247.47 0.656417 -6.03139 0
M  V30 2654 H 246.209 0.908643 -4.79161 0
M  V30 2655 H 245.214 -1.3314 -5.33436 0
M  V30 2656 H 246.439 -1.57194 -6.60656 0
M  V30 2657 H 244.385 0.670616 -6.52563 0
M  V30 2658 H 244.302 -0.744157 -7.52329 0
M  V30 2659 H 245.57 0.416109 -7.78389 0
M  V30 2660 N 249.799 1.42003 -0.683588 0
M  V30 2661 C 251.045 2.01712 -0.209825 0
M  V30 2662 C 251.378 1.53968 1.18353 0
M  V30 2663 O 250.653 0.745661 1.79639 0
M  V30 2664 C 250.936 3.59202 -0.254197 0
M  V30 2665 C 250.789 4.17102 -1.68363 0
M  V30 2666 C 252.108 4.38344 0.392709 0
M  V30 2667 H 249.227 0.732891 -0.0777189 0
M  V30 2668 H 251.869 1.68909 -0.87004 0
M  V30 2669 H 250.019 3.87278 0.307954 0
M  V30 2670 H 251.691 3.99946 -2.29871 0
M  V30 2671 H 249.934 3.72597 -2.22157 0
M  V30 2672 H 250.605 5.26249 -1.6663 0
M  V30 2673 H 253.081 4.16011 -0.0859162 0
M  V30 2674 H 251.957 5.47901 0.331063 0
M  V30 2675 H 252.218 4.16887 1.47164 0
M  V30 2676 N 251.277 0.427512 1.51691 0
M  V30 2677 C 252.187 -0.39527 2.31246 0
M  V30 2678 C 253.203 -1.03674 1.39742 0
M  V30 2679 O 254.379 -1.03425 1.72816 0
M  V30 2680 C 251.444 -1.48706 3.13189 0
M  V30 2681 C 250.505 -0.866743 4.20459 0
M  V30 2682 C 249.738 -1.90651 4.98486 0
M  V30 2683 O 249.961 -3.12733 4.77026 0
M  V30 2684 O 248.895 -1.5025 5.82845 0
M  V30 2685 H 252.721 0.253918 3.02637 0
M  V30 2686 H 250.306 0.190274 1.48183 0
M  V30 2687 H 252.188 -2.12047 3.64162 0
M  V30 2688 H 250.863 -2.12051 2.44573 0
M  V30 2689 H 249.77 -0.195544 3.73589 0
M  V30 2690 H 251.103 -0.276934 4.9142 0
M  V30 2691 N 252.755 -1.56801 0.158532 0
M  V30 2692 C 253.983 -2.00859 -0.496303 0
M  V30 2693 C 254.398 -1.03871 -1.57659 0
M  V30 2694 O 253.755 -0.0375165 -1.82461 0
M  V30 2695 C 253.806 -3.4479 -1.08638 0
M  V30 2696 O 253.527 -4.38072 -0.0492322 0
M  V30 2697 C 255.028 -4.04185 -1.8207 0
M  V30 2698 H 252.248 -0.65864 -0.128199 0
M  V30 2699 H 254.792 -2.02885 0.256506 0
M  V30 2700 H 252.947 -3.43579 -1.78975 0
M  V30 2701 H 253.361 -5.2227 -0.483102 0
M  V30 2702 H 254.835 -5.06857 -2.18633 0
M  V30 2703 H 255.312 -3.45549 -2.71095 0
M  V30 2704 H 255.918 -4.0906 -1.16405 0
M  V30 2705 N 254.233 0.115231 -1.57178 0
M  V30 2706 C 255.48 0.822351 -1.8505 0
M  V30 2707 C 255.808 1.79701 -0.744168 0
M  V30 2708 O 255.063 1.93909 0.26414 0
M  V30 2709 C 255.362 1.60324 -3.19423 0
M  V30 2710 C 255.028 0.772536 -4.44233 0
M  V30 2711 C 253.69 0.543468 -4.78121 0
M  V30 2712 C 256.042 0.193746 -5.2084 0
M  V30 2713 C 253.37 -0.274583 -5.86057 0
M  V30 2714 C 255.722 -0.611517 -6.29637 0
M  V30 2715 C 254.386 -0.850867 -6.62055 0
M  V30 2716 H 253.656 0.30092 -0.677147 0
M  V30 2717 H 256.303 0.0845802 -1.91313 0
M  V30 2718 H 254.608 2.41203 -3.08753 0
M  V30 2719 H 256.305 2.1544 -3.38211 0
M  V30 2720 H 252.895 0.96117 -4.17683 0
M  V30 2721 H 257.079 0.357926 -4.95008 0
M  V30 2722 H 252.335 -0.469206 -6.09597 0
M  V30 2723 H 256.509 -1.06697 -6.88178 0
M  V30 2724 H 254.136 -1.48657 -7.45523 0
M  V30 2725 N 255.711 1.52812 0.385517 0
M  V30 2726 C 256.941 1.71658 1.14966 0
M  V30 2727 C 257.349 0.436253 1.84102 0
M  V30 2728 O 256.692 -0.599313 1.73649 0
M  V30 2729 C 256.754 2.81309 2.23843 0
M  V30 2730 C 256.418 4.22313 1.74644 0
M  V30 2731 C 257.415 5.05352 1.22129 0
M  V30 2732 C 255.1 4.68648 1.80761 0
M  V30 2733 C 257.094 6.32807 0.763838 0
M  V30 2734 C 254.781 5.96086 1.34627 0
M  V30 2735 C 255.779 6.77996 0.825264 0
M  V30 2736 O 255.467 8.03045 0.370669 0
M  V30 2737 H 255.199 0.578022 0.350523 0
M  V30 2738 H 257.753 2.00263 0.456509 0
M  V30 2739 H 255.983 2.48133 2.96592 0
M  V30 2740 H 257.672 2.88524 2.85497 0
M  V30 2741 H 258.438 4.70736 1.16758 0
M  V30 2742 H 254.317 4.04979 2.20256 0
M  V30 2743 H 257.861 6.96689 0.356494 0
M  V30 2744 H 253.758 6.30205 1.39686 0
M  V30 2745 H 254.526 8.17021 0.491829 0
M  V30 2746 N 257.189 -0.644168 1.43834 0
M  V30 2747 C 258.6 -1.22554 1.40845 0
M  V30 2748 C 258.951 -1.9585 0.117115 0
M  V30 2749 O 258.076 -2.01734 -0.783086 0
M  V30 2750 C 258.671 -2.22907 2.55143 0
M  V30 2751 C 257.23 -2.76501 2.5539 0
M  V30 2752 C 256.377 -1.51287 2.32396 0
M  V30 2753 H 259.328 -0.43563 1.52604 0
M  V30 2754 H 259.349 -3.05259 2.2715 0
M  V30 2755 H 258.861 -1.69533 3.49114 0
M  V30 2756 H 256.962 -3.33914 1.65324 0
M  V30 2757 H 257.075 -3.23429 3.53455 0
M  V30 2758 H 255.439 -1.78957 1.81236 0
M  V30 2759 H 256.222 -0.998336 3.28463 0
M  V30 2760 N 258.668 -1.30515 -0.883378 0
M  V30 2761 C 259.916 -1.19194 -1.63209 0
M  V30 2762 C 260.237 0.253205 -1.93349 0
M  V30 2763 O 259.507 1.17025 -1.57105 0
M  V30 2764 H 258.087 -0.438148 -0.605009 0
M  V30 2765 H 260.749 -1.63663 -1.05832 0
M  V30 2766 H 259.845 -1.75396 -2.58153 0
M  V30 2767 N 260.146 1.09593 -1.13257 0
M  V30 2768 C 261.093 2.1618 -0.808381 0
M  V30 2769 C 262.063 1.64517 0.228754 0
M  V30 2770 O 263.248 1.9053 0.101381 0
M  V30 2771 C 260.388 3.43973 -0.278675 0
M  V30 2772 C 259.501 4.09545 -1.37466 0
M  V30 2773 C 258.636 5.25088 -0.803479 0
M  V30 2774 C 257.675 5.82579 -1.87799 0
M  V30 2775 N 256.812 6.89486 -1.32488 0
M  V30 2776 H 261.652 2.43254 -1.72138 0
M  V30 2777 H 259.189 1.19392 -0.859294 0
M  V30 2778 H 261.147 4.17174 0.0465583 0
M  V30 2779 H 259.777 3.17223 0.597459 0
M  V30 2780 H 258.829 3.34226 -1.81652 0
M  V30 2781 H 260.141 4.48307 -2.18684 0
M  V30 2782 H 259.295 6.05178 -0.429427 0
M  V30 2783 H 258.034 4.87684 0.0397956 0
M  V30 2784 H 257.039 5.01152 -2.26113 0
M  V30 2785 H 258.264 6.22045 -2.72463 0
M  V30 2786 H 256.21 6.54064 -0.503575 0
M  V30 2787 H 256.127 7.27007 -2.07355 0
M  V30 2788 H 257.395 7.73336 -0.978336 0
M  V30 2789 N 261.624 0.925811 1.2754 0
M  V30 2790 C 262.872 0.564138 1.94067 0
M  V30 2791 C 263.193 -0.897188 1.73134 0
M  V30 2792 O 262.463 -1.63573 1.07799 0
M  V30 2793 H 261.043 0.205645 0.718136 0
M  V30 2794 H 263.705 1.1778 1.55287 0
M  V30 2795 H 262.801 0.76881 3.02483 0
M  V30 2796 N 263.102 -1.41638 0.69111 0
M  V30 2797 C 264.052 -2.28 -0.000107832 0
M  V30 2798 C 265.036 -1.41964 -0.757304 0
M  V30 2799 O 266.228 -1.65274 -0.633532 0
M  V30 2800 C 263.357 -3.30209 -0.938983 0
M  V30 2801 C 262.443 -4.23725 -0.17827 0
M  V30 2802 N 262.834 -4.99017 0.825563 0
M  V30 2803 C 261.132 -4.44071 -0.414392 0
M  V30 2804 C 261.833 -5.67431 1.28052 0
M  V30 2805 N 260.809 -5.40197 0.607304 0
M  V30 2806 H 264.611 -2.83644 0.769617 0
M  V30 2807 H 262.125 -1.53797 0.521562 0
M  V30 2808 H 264.122 -3.90898 -1.44929 0
M  V30 2809 H 262.782 -2.76126 -1.70836 0
M  V30 2810 H 263.793 -5.03671 1.20566 0
M  V30 2811 H 260.47 -4.01004 -1.162 0
M  V30 2812 H 261.86 -6.37801 2.11327 0
M  V30 2813 N 264.58 -0.43555 -1.51462 0
M  V30 2814 C 265.808 0.130242 -2.0649 0
M  V30 2815 C 266.223 1.36614 -1.30315 0
M  V30 2816 O 265.58 1.78869 -0.362223 0
M  V30 2817 C 265.631 0.454253 -3.58635 0
M  V30 2818 O 265.352 -0.73259 -4.31931 0
M  V30 2819 C 266.853 1.07091 -4.3017 0
M  V30 2820 H 264.073 0.00871669 -0.670943 0
M  V30 2821 H 266.617 -0.614117 -1.95061 0
M  V30 2822 H 264.772 1.14851 -3.69984 0
M  V30 2823 H 265.186 -0.455787 -5.22516 0
M  V30 2824 H 266.66 1.24764 -5.37716 0
M  V30 2825 H 267.137 2.05144 -3.88346 0
M  V30 2826 H 267.743 0.416089 -4.2326 0
M  V30 2827 N 266.058 1.56714 -0.166846 0
M  V30 2828 C 266.968 2.21331 0.777791 0
M  V30 2829 C 267.984 1.20358 1.25658 0
M  V30 2830 O 269.16 1.53005 1.30964 0
M  V30 2831 C 266.225 2.83787 1.99163 0
M  V30 2832 C 265.286 3.99947 1.56016 0
M  V30 2833 C 264.519 4.59415 2.71613 0
M  V30 2834 O 264.742 4.17769 3.88362 0
M  V30 2835 O 263.676 5.49359 2.45945 0
M  V30 2836 H 267.502 3.02605 0.257636 0
M  V30 2837 H 265.087 1.49275 0.0611393 0
M  V30 2838 H 266.969 3.23405 2.70161 0
M  V30 2839 H 265.644 2.05513 2.50092 0
M  V30 2840 H 264.551 3.65007 0.819809 0
M  V30 2841 H 265.884 4.79801 1.09782 0
M  V30 2842 N 267.536 -0.106894 1.57237 0
M  V30 2843 C 268.813 -0.843526 1.76477 0
M  V30 2844 C 269.193 -1.97499 0.745464 0
M  V30 2845 O 268.541 -2.27357 -0.228306 0
M  V30 2846 C 268.751 -1.34903 3.21873 0
M  V30 2847 C 270.099 -1.79654 3.8472 0
M  V30 2848 O 271.123 -1.44554 3.2555 0
M  V30 2849 O 269.982 -2.44515 4.88748 0
M  V30 2850 H 267.076 -0.401468 0.723016 0
M  V30 2851 H 269.622 -0.0896927 1.69463 0
M  V30 2852 H 268.394 -0.53781 3.87586 0
M  V30 2853 H 268.017 -2.16522 3.33473 0
M  V30 2854 N 269.014 -1.53014 -0.377408 0
M  V30 2855 C 269.962 -1.7927 -1.48206 0
M  V30 2856 C 270.956 -0.661195 -1.55963 0
M  V30 2857 O 272.162 -0.843908 -1.58991 0
M  V30 2858 H 268.537 -0.567425 -0.493491 0
M  V30 2859 H 270.508 -2.71753 -1.2326 0
M  V30 2860 C 269.257 -1.98894 -2.85196 0
M  V30 2861 H 268.58 -2.85395 -2.79981 0
M  V30 2862 H 270.02 -2.21249 -3.61698 0
M  V30 2863 C 268.479 -0.764691 -3.28107 0
M  V30 2864 O 269.009 0.0523226 -4.01666 0
M  V30 2865 N 267.215 -0.591493 -2.84517 0
M  V30 2866 H 266.762 -1.25749 -2.24822 0
M  V30 2867 H 266.72 0.226253 -3.13585 0
M  V30 2868 N 270.492 0.636531 -1.44174 0
M  V30 2869 C 271.741 1.39213 -1.45954 0
M  V30 2870 C 272.054 1.95374 -0.0939119 0
M  V30 2871 O 273.26 2.71498 0.0107767 0
M  V30 2872 C 271.716 2.52025 -2.56927 0
M  V30 2873 C 271.324 2.024 -3.99673 0
M  V30 2874 C 273.068 3.29269 -2.67922 0
M  V30 2875 C 270.975 3.12521 -5.0208 0
M  V30 2876 H 269.905 0.523132 -0.542999 0
M  V30 2877 H 272.556 0.685349 -1.70221 0
M  V30 2878 H 270.938 3.25253 -2.25891 0
M  V30 2879 H 272.112 1.36073 -4.40251 0
M  V30 2880 H 270.427 1.37987 -3.92872 0
M  V30 2881 H 273.024 4.11352 -3.41605 0
M  V30 2882 H 273.367 3.78397 -1.73555 0
M  V30 2883 H 273.9 2.63129 -2.98342 0
M  V30 2884 H 270.639 2.68343 -5.98057 0
M  V30 2885 H 270.159 3.77507 -4.66099 0
M  V30 2886 H 271.838 3.77385 -5.25538 0
M  V30 2887 N 271.97 1.30982 0.876444 0
M  V30 2888 C 273.216 1.20474 1.63138 0
M  V30 2889 C 273.549 -0.238096 1.92735 0
M  V30 2890 O 272.824 -1.1692 1.55435 0
M  V30 2891 C 273.107 2.04244 2.96574 0
M  V30 2892 C 272.96 3.56793 2.73896 0
M  V30 2893 C 274.279 1.88684 3.97601 0
M  V30 2894 H 271.398 0.439001 0.591985 0
M  V30 2895 H 274.04 1.60704 1.01361 0
M  V30 2896 H 272.19 1.70063 3.493 0
M  V30 2897 H 273.862 4.01077 2.27892 0
M  V30 2898 H 272.105 3.80548 2.08245 0
M  V30 2899 H 272.776 4.10706 3.68815 0
M  V30 2900 H 275.252 2.18584 3.54062 0
M  V30 2901 H 274.128 2.4961 4.88862 0
M  V30 2902 H 274.389 0.848343 4.33884 0
M  V30 2903 N 273.449 -1.08991 1.13837 0
M  V30 2904 C 274.695 -1.81526 0.90422 0
M  V30 2905 C 275.028 -1.85706 -0.568066 0
M  V30 2906 O 274.303 -1.32855 -1.42056 0
M  V30 2907 C 274.586 -3.27447 1.49835 0
M  V30 2908 C 274.439 -3.31512 3.04006 0
M  V30 2909 C 275.758 -4.24256 1.17025 0
M  V30 2910 H 272.877 -0.659029 0.329923 0
M  V30 2911 H 275.519 -1.27644 1.40737 0
M  V30 2912 H 273.669 -3.73462 1.07044 0
M  V30 2913 H 275.341 -2.93867 3.55584 0
M  V30 2914 H 273.584 -2.70963 3.38765 0
M  V30 2915 H 274.255 -4.34329 3.40679 0
M  V30 2916 H 276.731 -3.86549 1.54009 0
M  V30 2917 H 275.607 -5.24684 1.61237 0
M  V30 2918 H 275.868 -4.42019 0.0846274 0
M  V30 2919 N 274.927 -0.932562 -1.27047 0
M  V30 2920 C 276.173 -0.585913 -1.94778 0
M  V30 2921 C 276.528 0.864142 -1.71902 0
M  V30 2922 O 275.821 1.60894 -1.04037 0
M  V30 2923 C 276.015 -0.853713 -3.47054 0
M  V30 2924 C 275.844 -2.32825 -3.84737 0
M  V30 2925 C 274.614 -2.98184 -4.07939 0
M  V30 2926 C 276.812 -3.30612 -3.93954 0
M  V30 2927 N 274.794 -4.3574 -4.3244 0
M  V30 2928 C 276.165 -4.53395 -4.22887 0
M  V30 2929 C 278.22 -3.25755 -3.76548 0
M  V30 2930 C 276.923 -5.71927 -4.36224 0
M  V30 2931 C 278.949 -4.43604 -3.91113 0
M  V30 2932 C 278.311 -5.65166 -4.20437 0
M  V30 2933 H 274.41 -0.264617 -0.735868 0
M  V30 2934 H 276.994 -1.20019 -1.53309 0
M  V30 2935 H 275.165 -0.268557 -3.8747 0
M  V30 2936 H 276.897 -0.469202 -4.01971 0
M  V30 2937 H 273.652 -2.48835 -4.02961 0
M  V30 2938 H 274.076 -5.06915 -4.48738 0
M  V30 2939 H 278.718 -2.32835 -3.52913 0
M  V30 2940 H 276.436 -6.65308 -4.58683 0
M  V30 2941 H 280.022 -4.41368 -3.79059 0
M  V30 2942 H 278.902 -6.54836 -4.31462 0
M  V30 2943 N 276.405 1.4127 -0.698611 0
M  V30 2944 C 277.335 2.33447 -0.049629 0
M  V30 2945 C 278.316 1.51982 0.763898 0
M  V30 2946 O 279.501 1.80509 0.716257 0
M  V30 2947 C 276.631 3.35828 0.885267 0
M  V30 2948 C 275.585 4.27627 0.178613 0
M  V30 2949 C 274.911 5.20406 1.22807 0
M  V30 2950 C 276.211 5.13459 -0.956933 0
M  V30 2951 H 277.905 2.87966 -0.81951 0
M  V30 2952 H 275.451 1.38461 -0.395538 0
M  V30 2953 H 277.404 3.9924 1.34854 0
M  V30 2954 H 276.128 2.79666 1.68685 0
M  V30 2955 H 274.787 3.65643 -0.26466 0
M  V30 2956 H 274.435 4.60558 2.02226 0
M  V30 2957 H 274.135 5.82661 0.760239 0
M  V30 2958 H 275.659 5.86695 1.69179 0
M  V30 2959 H 277.073 5.70421 -0.573805 0
M  V30 2960 H 275.47 5.8467 -1.35205 0
M  V30 2961 H 276.54 4.50443 -1.79524 0
M  V30 2962 N 277.883 0.443576 1.51229 0
M  V30 2963 C 279.294 -0.0180867 1.86691 0
M  V30 2964 C 279.645 -1.41384 1.36033 0
M  V30 2965 O 278.77 -2.04291 0.713722 0
M  V30 2966 C 279.365 -0.039597 3.38777 0
M  V30 2967 C 277.924 -0.445692 3.73752 0
M  V30 2968 C 277.071 0.357584 2.74985 0
M  V30 2969 H 280.022 0.659138 1.44364 0
M  V30 2970 H 280.043 -0.847761 3.70936 0
M  V30 2971 H 279.555 0.976382 3.75617 0
M  V30 2972 H 277.656 -1.46704 3.42503 0
M  V30 2973 H 277.769 -0.166155 4.78812 0
M  V30 2974 H 276.133 -0.184973 2.54027 0
M  V30 2975 H 276.916 1.37256 3.14668 0
M  V30 2976 N 279.361 -1.56624 0.175154 0
M  V30 2977 C 280.293 -2.15333 -0.785128 0
M  V30 2978 C 281.306 -1.1099 -1.19101 0
M  V30 2979 O 282.495 -1.38162 -1.13019 0
M  V30 2980 C 279.595 -2.68427 -2.06882 0
M  V30 2981 C 278.768 -3.97466 -1.8259 0
M  V30 2982 C 277.827 -4.35585 -2.95215 0
M  V30 2983 O 276.853 -5.03389 -2.65684 0
M  V30 2984 N 278.055 -3.97457 -4.23094 0
M  V30 2985 H 280.82 -2.98359 -0.283187 0
M  V30 2986 H 278.381 -1.61898 -0.00749817 0
M  V30 2987 H 280.373 -2.90924 -2.81328 0
M  V30 2988 H 278.943 -1.89968 -2.48256 0
M  V30 2989 H 278.163 -3.83307 -0.920287 0
M  V30 2990 H 279.451 -4.81736 -1.63733 0
M  V30 2991 H 278.849 -3.42878 -4.49945 0
M  V30 2992 H 277.406 -4.24947 -4.9423 0
M  V30 2993 N 280.839 0.0985539 -1.57292 0
M  V30 2994 C 282.069 0.815135 -1.8984 0
M  V30 2995 C 282.477 1.7297 -0.766679 0
M  V30 2996 O 281.82 1.81698 0.270483 0
M  V30 2997 C 281.882 1.6842 -3.17608 0
M  V30 2998 C 281.546 0.94182 -4.4719 0
M  V30 2999 C 282.543 0.273212 -5.19182 0
M  V30 3000 C 280.228 0.916927 -4.9386 0
M  V30 3001 C 282.222 -0.410361 -6.36078 0
M  V30 3002 C 279.909 0.229567 -6.10669 0
M  V30 3003 C 280.907 -0.432902 -6.81627 0
M  V30 3004 O 280.595 -1.10925 -7.9621 0
M  V30 3005 H 280.327 0.238501 -0.632529 0
M  V30 3006 H 282.881 0.0812659 -2.05239 0
M  V30 3007 H 281.111 2.46022 -2.98345 0
M  V30 3008 H 282.8 2.27704 -3.36015 0
M  V30 3009 H 283.566 0.283927 -4.84168 0
M  V30 3010 H 279.445 1.42201 -4.3852 0
M  V30 3011 H 282.989 -0.928013 -6.914 0
M  V30 3012 H 278.886 0.216686 -6.45136 0
M  V30 3013 H 279.654 -1.01579 -8.12172 0
M  V30 3014 N 282.317 1.53212 0.369288 0
M  V30 3015 C 283.265 1.80054 1.47253 0
M  V30 3016 C 284.259 0.669456 1.55611 0
M  V30 3017 O 285.465 0.852328 1.58541 0
M  V30 3018 H 281.84 0.570034 0.490475 0
M  V30 3019 H 283.811 2.72403 1.21817 0
M  V30 3020 C 282.56 2.00403 2.84137 0
M  V30 3021 H 281.883 2.86876 2.78464 0
M  V30 3022 H 283.323 2.23164 3.60519 0
M  V30 3023 C 281.782 0.782081 3.27697 0
M  V30 3024 O 282.312 -0.0310205 4.01688 0
M  V30 3025 N 280.518 0.606573 2.84199 0
M  V30 3026 H 280.065 1.26939 2.24152 0
M  V30 3027 H 280.023 -0.20962 3.137 0
M  V30 3028 N 283.795 -0.628877 1.44509 0
M  V30 3029 C 285.044 -1.38437 1.4669 0
M  V30 3030 C 285.357 -1.95322 0.104272 0
M  V30 3031 O 286.563 -2.715 0.00362163 0
M  V30 3032 C 285.019 -2.50659 2.5826 0
M  V30 3033 C 284.627 -2.00277 4.0074 0
M  V30 3034 C 286.371 -3.27844 2.69664 0
M  V30 3035 C 284.278 -3.09854 5.0373 0
M  V30 3036 H 283.208 -0.520245 0.545766 0
M  V30 3037 H 285.859 -0.676313 1.70582 0
M  V30 3038 H 284.241 -3.2405 2.27612 0
M  V30 3039 H 285.415 -1.33736 4.40966 0
M  V30 3040 H 283.73 -1.35901 3.93599 0
M  V30 3041 H 286.327 -4.09534 3.43781 0
M  V30 3042 H 286.67 -3.77471 1.75559 0
M  V30 3043 H 287.203 -2.61543 2.99733 0
M  V30 3044 H 283.942 -2.65168 5.99472 0
M  V30 3045 H 283.462 -3.7503 4.68095 0
M  V30 3046 H 285.141 -3.74592 5.27532 0
M  V30 3047 N 285.273 -1.31445 -0.869486 0
M  V30 3048 C 286.203 -1.21727 -1.99261 0
M  V30 3049 C 287.184 -0.104359 -1.6978 0
M  V30 3050 O 288.369 -0.289038 -1.92037 0
M  V30 3051 C 285.499 -0.924317 -3.34774 0
M  V30 3052 C 284.453 -1.99685 -3.78563 0
M  V30 3053 C 283.779 -1.55658 -5.11541 0
M  V30 3054 C 285.079 -3.41003 -3.95619 0
M  V30 3055 H 286.773 -2.1569 -2.07649 0
M  V30 3056 H 284.319 -1.03839 -0.997675 0
M  V30 3057 H 286.272 -0.842934 -4.12883 0
M  V30 3058 H 284.996 0.0509793 -3.2656 0
M  V30 3059 H 283.655 -2.06813 -3.02694 0
M  V30 3060 H 283.303 -0.569132 -4.9977 0
M  V30 3061 H 283.003 -2.27409 -5.41811 0
M  V30 3062 H 284.527 -1.48928 -5.92159 0
M  V30 3063 H 285.941 -3.36547 -4.64122 0
M  V30 3064 H 284.338 -4.10975 -4.37286 0
M  V30 3065 H 285.408 -3.81754 -2.98985 0
M  V30 3066 N 286.751 1.08385 -1.14413 0
M  V30 3067 C 287.997 1.81044 -0.913834 0
M  V30 3068 C 288.33 1.86004 0.558209 0
M  V30 3069 O 287.605 1.33606 1.4135 0
M  V30 3070 C 287.888 3.26648 -1.51569 0
M  V30 3071 C 287.741 3.29895 -3.0576 0
M  V30 3072 C 289.06 4.23629 -1.19273 0
M  V30 3073 H 286.179 0.65727 -0.333414 0
M  V30 3074 H 288.821 1.26896 -1.41412 0
M  V30 3075 H 286.971 3.72889 -1.09023 0
M  V30 3076 H 288.643 2.91977 -3.57137 0
M  V30 3077 H 286.886 2.69163 -3.40197 0
M  V30 3078 H 287.557 4.32516 -3.42977 0
M  V30 3079 H 290.033 3.85727 -1.56057 0
M  V30 3080 H 288.909 5.23822 -1.64017 0
M  V30 3081 H 289.17 4.41968 -0.108068 0
M  V30 3082 N 288.23 0.939286 1.26551 0
M  V30 3083 C 289.478 0.58469 1.93457 0
M  V30 3084 C 289.799 -0.878774 1.74076 0
M  V30 3085 O 289.069 -1.62421 1.09528 0
M  V30 3086 H 287.649 0.21325 0.715914 0
M  V30 3087 H 290.311 1.1942 1.54029 0
M  V30 3088 H 289.407 0.800849 3.0165 0
M  V30 3089 N 289.708 -1.40897 0.706093 0
M  V30 3090 C 290.956 -2.00657 0.241054 0
M  V30 3091 C 291.277 -1.56241 -1.16678 0
M  V30 3092 O 290.547 -0.79765 -1.78926 0
M  V30 3093 H 289.127 -0.742018 0.0861308 0
M  V30 3094 H 291.789 -1.72372 0.909604 0
M  V30 3095 H 290.885 -3.10958 0.266705 0
M  V30 3096 N 291.186 -0.45159 -1.50991 0
M  V30 3097 C 292.426 0.109066 -2.04109 0
M  V30 3098 C 292.79 1.38716 -1.32747 0
M  V30 3099 O 293.991 2.02896 -1.76314 0
M  V30 3100 C 292.262 0.308354 -3.56067 0
M  V30 3101 S 293.821 0.830369 -4.30872 0
M  V30 3102 H 290.639 0.0251531 -0.710555 0
M  V30 3103 H 293.241 -0.614264 -1.85599 0
M  V30 3104 H 291.945 -0.627962 -4.05567 0
M  V30 3105 H 291.476 1.05836 -3.78896 0
M  V30 3106 H 293.491 2.10626 -4.49279 0
M  V30 3107 N 292.664 1.56529 -0.183458 0
M  V30 3108 C 293.594 2.21549 0.737456 0
M  V30 3109 C 294.575 1.17489 1.23005 0
M  V30 3110 O 295.76 1.45959 1.281 0
M  V30 3111 C 292.89 2.86575 1.96194 0
M  V30 3112 C 291.844 3.96778 1.60473 0
M  V30 3113 C 291.17 4.48911 2.90487 0
M  V30 3114 C 292.47 5.15767 0.823497 0
M  V30 3115 H 294.164 2.98761 0.195453 0
M  V30 3116 H 291.71 1.43702 0.0925686 0
M  V30 3117 H 293.663 3.30739 2.61131 0
M  V30 3118 H 292.387 2.06749 2.52828 0
M  V30 3119 H 291.046 3.53286 0.978997 0
M  V30 3120 H 290.694 3.65862 3.45186 0
M  V30 3121 H 290.394 5.23265 2.67335 0
M  V30 3122 H 291.918 4.95771 3.56432 0
M  V30 3123 H 293.332 5.56549 1.37571 0
M  V30 3124 H 291.729 5.96114 0.690551 0
M  V30 3125 H 292.799 4.84574 -0.177782 0
M  V30 3126 N 294.142 -0.090211 1.57342 0
M  V30 3127 C 295.388 -0.793982 1.86611 0
M  V30 3128 C 295.721 -1.78142 0.773252 0
M  V30 3129 O 294.996 -1.93271 -0.218304 0
M  V30 3130 C 295.279 -1.51839 3.26523 0
M  V30 3131 C 295.132 -0.548609 4.46442 0
M  V30 3132 C 296.451 -2.46779 3.64401 0
M  V30 3133 H 293.57 -0.287186 0.678744 0
M  V30 3134 H 296.212 -0.0575076 1.89913 0
M  V30 3135 H 294.362 -2.14617 3.23839 0
M  V30 3136 H 296.034 0.0725513 4.61243 0
M  V30 3137 H 294.277 0.137614 4.33582 0
M  V30 3138 H 294.948 -1.09271 5.41076 0
M  V30 3139 H 297.424 -1.94089 3.68061 0
M  V30 3140 H 296.3 -2.94479 4.63221 0
M  V30 3141 H 296.561 -3.30758 2.93346 0
M  V30 3142 N 295.62 -1.53406 -0.361157 0
M  V30 3143 C 296.567 -1.80156 -1.44265 0
M  V30 3144 C 297.537 -0.646183 -1.53015 0
M  V30 3145 O 298.722 -0.888818 -1.68833 0
M  V30 3146 C 295.862 -2.00116 -2.81154 0
M  V30 3147 C 294.975 -3.27833 -2.81335 0
M  V30 3148 C 294.11 -3.37957 -4.09828 0
M  V30 3149 C 293.149 -4.59689 -4.04168 0
M  V30 3150 N 292.286 -4.66942 -5.24318 0
M  V30 3151 H 297.126 -2.72438 -1.20754 0
M  V30 3152 H 294.663 -1.34954 -0.585296 0
M  V30 3153 H 296.621 -2.09677 -3.60682 0
M  V30 3154 H 295.251 -1.11167 -3.03054 0
M  V30 3155 H 294.303 -3.27204 -1.94014 0
M  V30 3156 H 295.615 -4.17442 -2.73027 0
M  V30 3157 H 294.769 -3.46853 -4.97773 0
M  V30 3158 H 293.508 -2.46372 -4.20894 0
M  V30 3159 H 292.513 -4.50889 -3.14609 0
M  V30 3160 H 293.738 -5.5262 -3.947 0
M  V30 3161 H 291.684 -3.7826 -5.35962 0
M  V30 3162 H 291.601 -5.50462 -5.18197 0
M  V30 3163 H 292.869 -4.80127 -6.14084 0
M  V30 3164 N 297.098 0.621204 -1.44841 0
M  V30 3165 C 298.323 1.41244 -1.51871 0
M  V30 3166 C 298.748 1.87519 -0.147764 0
M  V30 3167 O 298.106 1.59334 0.865 0
M  V30 3168 C 298.154 2.60221 -2.49634 0
M  V30 3169 O 297.258 3.60395 -2.00473 0
M  V30 3170 H 296.599 0.42223 -0.512463 0
M  V30 3171 H 299.129 0.757305 -1.90069 0
M  V30 3172 H 299.139 3.0764 -2.67996 0
M  V30 3173 H 297.814 2.25887 -3.4921 0
M  V30 3174 H 296.391 3.19717 -1.91925 0
M  V30 3175 N 298.576 1.31904 0.862503 0
M  V30 3176 C 299.804 1.24998 1.64873 0
M  V30 3177 C 300.219 -0.183425 1.87907 0
M  V30 3178 O 299.576 -1.11794 1.44251 0
M  V30 3179 C 299.627 1.99829 3.01248 0
M  V30 3180 O 299.348 3.37575 2.79239 0
M  V30 3181 C 300.849 1.99852 3.95694 0
M  V30 3182 H 298.069 0.431599 0.513773 0
M  V30 3183 H 300.613 1.73901 1.07604 0
M  V30 3184 H 298.768 1.54668 3.55185 0
M  V30 3185 H 299.182 3.75776 3.65914 0
M  V30 3186 H 300.656 2.56709 4.88676 0
M  V30 3187 H 301.133 0.982852 4.28062 0
M  V30 3188 H 301.739 2.44926 3.47694 0
M  V30 3189 N 300.054 -1.07777 1.14986 0
M  V30 3190 C 301.279 -1.84558 0.946213 0
M  V30 3191 C 301.704 -1.81323 -0.500362 0
M  V30 3192 O 301.062 -1.20301 -1.35637 0
M  V30 3193 C 301.11 -3.29736 1.45968 0
M  V30 3194 O 300.214 -4.07149 0.65601 0
M  V30 3195 H 299.555 -0.571641 0.33782 0
M  V30 3196 H 302.085 -1.35991 1.52865 0
M  V30 3197 H 302.095 -3.80574 1.47063 0
M  V30 3198 H 300.77 -3.31406 2.51283 0
M  V30 3199 H 299.347 -3.65994 0.714322 0
M  V30 3200 N 301.532 -0.945985 -1.26051 0
M  V30 3201 C 302.495 -0.463897 -2.24456 0
M  V30 3202 C 303.495 0.427655 -1.55009 0
M  V30 3203 O 304.685 0.226157 -1.72726 0
M  V30 3204 C 301.817 0.330812 -3.39291 0
M  V30 3205 H 303.01 -1.33357 -2.68619 0
M  V30 3206 H 300.563 -0.728416 -1.38289 0
M  V30 3207 H 301.298 1.21852 -3.00537 0
M  V30 3208 H 301.083 -0.308679 -3.90883 0
M  V30 3209 H 302.573 0.657865 -4.12386 0
M  V30 3210 N 303.011 1.40521 -0.713556 0
M  V30 3211 C 303.958 2.30723 -0.059684 0
M  V30 3212 C 304.928 1.48079 0.752448 0
M  V30 3213 O 306.113 1.76823 0.71681 0
M  V30 3214 C 303.253 3.34274 0.857594 0
M  V30 3215 C 302.366 4.31986 0.0351536 0
M  V30 3216 C 301.501 5.22605 0.951724 0
M  V30 3217 C 300.54 6.11976 0.123253 0
M  V30 3218 N 299.677 6.9502 0.99459 0
M  V30 3219 H 304.517 2.86074 -0.834596 0
M  V30 3220 H 302.054 1.40879 -0.42326 0
M  V30 3221 H 304.012 3.92879 1.40364 0
M  V30 3222 H 302.642 2.8043 1.59871 0
M  V30 3223 H 301.694 3.7518 -0.628052 0
M  V30 3224 H 303.006 4.95101 -0.606347 0
M  V30 3225 H 302.16 5.86131 1.56638 0
M  V30 3226 H 300.899 4.59759 1.62705 0
M  V30 3227 H 299.904 5.47482 -0.50435 0
M  V30 3228 H 301.129 6.76881 -0.548539 0
M  V30 3229 H 299.075 6.34764 1.6556 0
M  V30 3230 H 298.992 7.54892 0.40908 0
M  V30 3231 H 300.26 7.62997 1.59549 0
M  V30 3232 N 304.489 0.459591 1.5075 0
M  V30 3233 C 305.766 -0.160371 1.94941 0
M  V30 3234 C 306.146 -1.58048 1.39943 0
M  V30 3235 O 305.494 -2.206 0.595629 0
M  V30 3236 C 305.704 -0.115432 3.48809 0
M  V30 3237 C 307.052 -0.310026 4.23467 0
M  V30 3238 O 308.076 -0.192543 3.55679 0
M  V30 3239 O 306.935 -0.546031 5.43765 0
M  V30 3240 H 304.029 -0.117925 0.818549 0
M  V30 3241 H 306.575 0.519169 1.61563 0
M  V30 3242 H 305.347 0.87652 3.81357 0
M  V30 3243 H 304.97 -0.836928 3.88692 0
M  V30 3244 N 305.967 -1.56429 0.191757 0
M  V30 3245 C 306.897 -2.21937 -0.725696 0
M  V30 3246 C 307.878 -1.1814 -1.2238 0
M  V30 3247 O 309.063 -1.46636 -1.27325 0
M  V30 3248 C 306.193 -2.87611 -1.94672 0
M  V30 3249 C 305.147 -3.97623 -1.58366 0
M  V30 3250 C 304.473 -4.50446 -2.88102 0
M  V30 3251 C 305.773 -5.16197 -0.796133 0
M  V30 3252 H 307.467 -2.98861 -0.179606 0
M  V30 3253 H 305.013 -1.43749 -0.0849464 0
M  V30 3254 H 306.966 -3.3212 -2.59373 0
M  V30 3255 H 305.69 -2.08087 -2.51728 0
M  V30 3256 H 304.349 -3.53801 -0.960247 0
M  V30 3257 H 303.997 -3.67688 -3.43241 0
M  V30 3258 H 303.697 -5.24675 -2.64556 0
M  V30 3259 H 305.221 -4.97654 -3.53798 0
M  V30 3260 H 306.635 -5.57271 -1.34618 0
M  V30 3261 H 305.032 -5.96471 -0.658928 0
M  V30 3262 H 306.102 -4.84473 0.203478 0
M  V30 3263 N 307.445 0.0818655 -1.57387 0
M  V30 3264 C 308.693 0.781368 -1.86384 0
M  V30 3265 C 309.014 1.78618 -0.782342 0
M  V30 3266 O 308.284 1.94976 0.190061 0
M  V30 3267 H 306.864 0.291562 -0.687751 0
M  V30 3268 H 309.526 0.060348 -1.94807 0
M  V30 3269 H 308.622 1.3038 -2.83562 0
M  V30 3270 N 308.923 1.53595 0.353017 0
M  V30 3271 C 309.871 1.81605 1.45335 0
M  V30 3272 C 310.865 0.685923 1.54892 0
M  V30 3273 O 312.071 0.869095 1.57628 0
M  V30 3274 H 308.446 0.575204 0.484401 0
M  V30 3275 H 310.417 2.73679 1.18921 0
M  V30 3276 C 309.166 2.03406 2.81995 0
M  V30 3277 H 308.489 2.89814 2.75405 0
M  V30 3278 H 309.929 2.26975 3.58132 0
M  V30 3279 C 308.388 0.816794 3.26849 0
M  V30 3280 O 308.918 0.0115856 4.01698 0
M  V30 3281 N 307.124 0.636682 2.8354 0
M  V30 3282 H 306.671 1.2931 2.22793 0
M  V30 3283 H 306.629 -0.176336 3.13905 0
M  V30 3284 N 310.401 -0.613514 1.45168 0
M  V30 3285 C 311.647 -1.37471 1.49096 0
M  V30 3286 C 311.98 -1.93765 0.129901 0
M  V30 3287 O 311.255 -1.74707 -0.854858 0
M  V30 3288 C 311.538 -2.52701 2.56542 0
M  V30 3289 C 311.391 -2.01643 4.0207 0
M  V30 3290 C 312.71 -3.54849 2.60327 0
M  V30 3291 H 309.829 -0.498502 0.54283 0
M  V30 3292 H 312.471 -0.692125 1.76945 0
M  V30 3293 H 310.621 -3.10931 2.32926 0
M  V30 3294 H 312.293 -1.48108 4.36877 0
M  V30 3295 H 310.536 -1.32688 4.13009 0
M  V30 3296 H 311.207 -2.84681 4.72928 0
M  V30 3297 H 313.683 -3.0645 2.81474 0
M  V30 3298 H 312.559 -4.32973 3.37381 0
M  V30 3299 H 312.82 -4.10079 1.6519 0
M  V30 3300 N 311.879 -1.3236 -0.855495 0
M  V30 3301 C 312.842 -1.21164 -1.94556 0
M  V30 3302 C 313.842 -0.134908 -1.60233 0
M  V30 3303 O 315.032 -0.385249 -1.69887 0
M  V30 3304 C 312.164 -0.863192 -3.29791 0
M  V30 3305 H 313.357 -2.18038 -2.05911 0
M  V30 3306 H 310.91 -1.16179 -1.04557 0
M  V30 3307 H 311.645 0.103769 -3.24134 0
M  V30 3308 H 311.43 -1.64166 -3.56078 0
M  V30 3309 H 312.92 -0.809156 -4.09686 0
M  V30 3310 N 313.357 1.07166 -1.15556 0
M  V30 3311 C 314.634 1.76546 -0.842069 0
M  V30 3312 C 315.014 2.00453 0.661939 0
M  V30 3313 O 314.362 1.62452 1.60691 0
M  V30 3314 C 314.572 3.07266 -1.65495 0
M  V30 3315 C 315.92 3.81578 -1.86234 0
M  V30 3316 O 316.944 3.17083 -1.62287 0
M  V30 3317 O 315.803 4.97419 -2.26355 0
M  V30 3318 H 312.897 0.766756 -0.309862 0
M  V30 3319 H 315.443 1.13514 -1.26145 0
M  V30 3320 H 314.215 2.85494 -2.67598 0
M  V30 3321 H 313.838 3.7803 -1.23203 0
M  V30 3322 N 314.835 0.952656 1.25548 0
M  V30 3323 C 315.798 0.475794 2.24207 0
M  V30 3324 C 316.798 -0.419428 1.55234 0
M  V30 3325 O 317.988 -0.216994 1.72843 0
M  V30 3326 C 315.12 -0.312814 3.39462 0
M  V30 3327 H 316.313 1.34779 2.67908 0
M  V30 3328 H 313.866 0.735739 1.37901 0
M  V30 3329 H 314.601 -1.20257 3.01179 0
M  V30 3330 H 314.386 0.329404 3.90714 0
M  V30 3331 H 315.876 -0.635986 4.12729 0
M  V30 3332 N 316.313 -1.40141 0.720998 0
M  V30 3333 C 317.543 -2.04798 0.27226 0
M  V30 3334 C 317.951 -1.54442 -1.09289 0
M  V30 3335 O 317.294 -0.698342 -1.69908 0
M  V30 3336 C 317.356 -3.59048 0.18027 0
M  V30 3337 C 317.02 -4.32317 1.48159 0
M  V30 3338 C 318.017 -4.59902 2.42458 0
M  V30 3339 C 315.702 -4.71125 1.74202 0
M  V30 3340 C 317.696 -5.25288 3.61042 0
M  V30 3341 C 315.383 -5.36242 2.93066 0
M  V30 3342 C 316.381 -5.63254 3.86308 0
M  V30 3343 O 316.069 -6.27024 5.03086 0
M  V30 3344 H 315.801 -0.665419 0.119139 0
M  V30 3345 H 318.355 -1.80436 0.981432 0
M  V30 3346 H 316.585 -3.82251 -0.58489 0
M  V30 3347 H 318.274 -4.05221 -0.234618 0
M  V30 3348 H 319.04 -4.30379 2.23604 0
M  V30 3349 H 314.919 -4.49466 1.02477 0
M  V30 3350 H 318.463 -5.46289 4.33837 0
M  V30 3351 H 314.36 -5.65185 3.11826 0
M  V30 3352 H 315.128 -6.4552 5.03235 0
M  V30 3353 N 317.792 -0.46758 -1.50504 0
M  V30 3354 C 319.038 0.0887532 -2.02606 0
M  V30 3355 C 319.371 1.39686 -1.34913 0
M  V30 3356 O 318.646 1.88644 -0.473694 0
M  V30 3357 C 318.929 0.276206 -3.59039 0
M  V30 3358 C 318.782 -1.05267 -4.37309 0
M  V30 3359 C 320.101 1.03235 -4.27821 0
M  V30 3360 H 317.22 0.0307814 -0.736357 0
M  V30 3361 H 319.862 -0.612485 -1.79857 0
M  V30 3362 H 318.012 0.8735 -3.78553 0
M  V30 3363 H 319.684 -1.68628 -4.29374 0
M  V30 3364 H 317.927 -1.65015 -4.01189 0
M  V30 3365 H 318.598 -0.875197 -5.45018 0
M  V30 3366 H 321.074 0.526111 -4.12761 0
M  V30 3367 H 319.95 1.1323 -5.37094 0
M  V30 3368 H 320.211 2.06806 -3.90748 0
M  V30 3369 N 319.27 1.56325 -0.20005 0
M  V30 3370 C 320.218 2.20666 0.735482 0
M  V30 3371 C 321.212 1.17934 1.21605 0
M  V30 3372 O 322.418 1.36068 1.17837 0
M  V30 3373 H 318.793 0.70725 0.255542 0
M  V30 3374 H 320.764 2.9792 0.169166 0
M  V30 3375 C 319.513 2.88391 1.94232 0
M  V30 3376 H 318.836 3.67185 1.58161 0
M  V30 3377 H 320.276 3.3684 2.57517 0
M  V30 3378 C 318.735 1.89692 2.78421 0
M  V30 3379 O 319.265 1.40032 3.76502 0
M  V30 3380 N 317.471 1.57813 2.44015 0
M  V30 3381 H 317.018 1.9839 1.64314 0
M  V30 3382 H 316.976 0.920325 3.00628 0
M  V30 3383 N 320.748 -0.0735177 1.57428 0
M  V30 3384 C 321.658 -1.10547 2.06922 0
M  V30 3385 C 322.674 -1.42506 0.998402 0
M  V30 3386 O 323.85 -1.52717 1.31299 0
M  V30 3387 C 320.915 -2.40019 2.50184 0
M  V30 3388 C 319.976 -2.15046 3.71556 0
M  V30 3389 C 319.209 -3.38345 4.12745 0
M  V30 3390 O 319.432 -4.47399 3.53822 0
M  V30 3391 O 318.366 -3.2666 5.05546 0
M  V30 3392 H 322.192 -0.715013 2.95163 0
M  V30 3393 H 319.777 -0.287531 1.46607 0
M  V30 3394 H 321.659 -3.16218 2.78539 0
M  V30 3395 H 320.334 -2.78447 1.65072 0
M  V30 3396 H 319.241 -1.36558 3.48285 0
M  V30 3397 H 320.574 -1.81499 4.57514 0
M  V30 3398 N 322.226 -1.5378 -0.344866 0
M  V30 3399 C 323.472 -1.72158 -1.0832 0
M  V30 3400 C 323.827 -0.478218 -1.86362 0
M  V30 3401 O 323.12 0.529152 -1.84148 0
M  V30 3402 C 323.314 -2.92407 -2.05506 0
M  V30 3403 C 323.143 -4.28318 -1.37017 0
M  V30 3404 C 321.913 -4.92832 -1.11558 0
M  V30 3405 C 324.111 -5.08086 -0.797071 0
M  V30 3406 N 322.093 -6.12619 -0.396358 0
M  V30 3407 C 323.464 -6.1965 -0.208336 0
M  V30 3408 C 325.519 -4.92986 -0.697787 0
M  V30 3409 C 324.222 -7.17763 0.470023 0
M  V30 3410 C 326.248 -5.91391 -0.033171 0
M  V30 3411 C 325.61 -7.02292 0.544599 0
M  V30 3412 H 321.709 -0.683017 -0.380805 0
M  V30 3413 H 324.293 -1.91211 -0.366961 0
M  V30 3414 H 322.464 -2.74857 -2.74423 0
M  V30 3415 H 324.196 -2.9951 -2.72169 0
M  V30 3416 H 320.951 -4.52362 -1.40234 0
M  V30 3417 H 321.375 -6.7698 -0.0515119 0
M  V30 3418 H 326.017 -4.07414 -1.13022 0
M  V30 3419 H 323.735 -8.0291 0.914351 0
M  V30 3420 H 327.321 -5.81784 0.0430009 0
M  V30 3421 H 326.201 -7.77129 1.05073 0
M  V30 3422 N 323.704 0.605807 -1.45491 0
M  V30 3423 C 324.929 1.39625 -1.53361 0
M  V30 3424 C 325.354 1.87351 -0.167645 0
M  V30 3425 O 324.712 1.60243 0.848051 0
M  V30 3426 C 324.76 2.57559 -2.5238 0
M  V30 3427 O 323.864 3.58248 -2.04285 0
M  V30 3428 H 323.205 0.416771 -0.516912 0
M  V30 3429 H 325.735 0.737103 -1.90861 0
M  V30 3430 H 325.745 3.0478 -2.71244 0
M  V30 3431 H 324.42 2.22171 -3.51586 0
M  V30 3432 H 322.997 3.17664 -1.95305 0
M  V30 3433 N 325.182 1.32811 0.848464 0
M  V30 3434 C 326.41 1.26739 1.63538 0
M  V30 3435 C 326.825 -0.163484 1.88091 0
M  V30 3436 O 326.182 -1.10258 1.45429 0
M  V30 3437 C 326.233 2.03013 2.99112 0
M  V30 3438 O 325.954 3.40518 2.75643 0
M  V30 3439 C 327.455 2.04038 3.93552 0
M  V30 3440 H 324.675 0.437024 0.509167 0
M  V30 3441 H 327.219 1.75033 1.05753 0
M  V30 3442 H 325.374 1.58426 3.53525 0
M  V30 3443 H 325.788 3.79635 3.61908 0
M  V30 3444 H 327.262 2.61877 4.85926 0
M  V30 3445 H 327.739 1.0282 4.26995 0
M  V30 3446 H 328.345 2.486 3.45077 0
M  V30 3447 N 326.66 -1.06551 1.16123 0
M  V30 3448 C 327.885 -1.83544 0.965735 0
M  V30 3449 C 328.31 -1.81843 -0.481102 0
M  V30 3450 O 327.668 -1.21732 -1.34354 0
M  V30 3451 C 327.716 -3.28169 1.49457 0
M  V30 3452 O 326.82 -4.0643 0.699157 0
M  V30 3453 H 326.161 -0.568026 0.343864 0
M  V30 3454 H 328.691 -1.34362 1.54299 0
M  V30 3455 H 328.701 -3.78992 1.51092 0
M  V30 3456 H 327.376 -3.28722 2.54784 0
M  V30 3457 H 325.953 -3.65216 0.7531 0
M  V30 3458 N 328.138 -0.959301 -1.25041 0
M  V30 3459 C 329.387 -0.612254 -1.92183 0
M  V30 3460 C 329.7 0.855347 -1.75907 0
M  V30 3461 O 330.906 1.31256 -2.37664 0
M  V30 3462 C 329.362 -1.04435 -3.44414 0
M  V30 3463 C 328.97 -2.53482 -3.69393 0
M  V30 3464 C 330.714 -0.770055 -4.17457 0
M  V30 3465 C 328.621 -2.90468 -5.15153 0
M  V30 3466 H 327.551 -0.225279 -0.719559 0
M  V30 3467 H 330.202 -1.16438 -1.41825 0
M  V30 3468 H 328.584 -0.4206 -3.9376 0
M  V30 3469 H 329.758 -3.20916 -3.30681 0
M  V30 3470 H 328.073 -2.78432 -3.0962 0
M  V30 3471 H 330.67 -1.02249 -5.24832 0
M  V30 3472 H 331.013 0.293611 -4.15263 0
M  V30 3473 H 331.546 -1.35437 -3.74034 0
M  V30 3474 H 328.285 -3.95871 -5.22462 0
M  V30 3475 H 327.805 -2.27711 -5.54894 0
M  V30 3476 H 329.484 -2.79914 -5.83315 0
M  V30 3477 N 329.616 1.39756 -0.72842 0
M  V30 3478 C 330.526 2.34444 -0.0855374 0
M  V30 3479 C 331.542 1.57976 0.729356 0
M  V30 3480 O 332.718 1.90301 0.659346 0
M  V30 3481 C 329.783 3.36965 0.815798 0
M  V30 3482 C 328.844 4.29299 -0.0105996 0
M  V30 3483 C 328.077 5.26923 0.84781 0
M  V30 3484 O 328.3 5.30859 2.08673 0
M  V30 3485 O 327.234 6.01249 0.279969 0
M  V30 3486 H 331.06 2.91065 -0.866892 0
M  V30 3487 H 328.645 1.4117 -0.48902 0
M  V30 3488 H 330.527 3.99804 1.33171 0
M  V30 3489 H 329.202 2.82739 1.57608 0
M  V30 3490 H 328.109 3.69703 -0.571877 0
M  V30 3491 H 329.442 4.86712 -0.73295 0
M  V30 3492 N 331.094 0.475555 1.50254 0
M  V30 3493 C 332.042 -0.330276 2.30243 0
M  V30 3494 C 333.036 -0.986306 1.37726 0
M  V30 3495 O 334.242 -0.9169 1.54897 0
M  V30 3496 H 330.617 -0.125353 0.741479 0
M  V30 3497 H 332.588 0.364702 2.96163 0
M  V30 3498 C 331.337 -1.39704 3.18399 0
M  V30 3499 H 330.66 -0.901621 3.89501 0
M  V30 3500 H 332.1 -1.93336 3.77355 0
M  V30 3501 C 330.559 -2.4014 2.36293 0
M  V30 3502 O 331.089 -3.45504 2.04914 0
M  V30 3503 N 329.295 -2.1197 1.98789 0
M  V30 3504 H 328.842 -1.2631 2.24507 0
M  V30 3505 H 328.8 -2.79403 1.44157 0
M  V30 3506 N 332.573 -1.56217 0.208337 0
M  V30 3507 C 333.819 -1.98242 -0.427552 0
M  V30 3508 C 334.152 -1.09554 -1.60348 0
M  V30 3509 O 333.427 -0.15035 -1.93918 0
M  V30 3510 C 333.71 -3.4931 -0.874907 0
M  V30 3511 C 333.563 -4.48773 0.303751 0
M  V30 3512 C 334.882 -4.04424 -1.73577 0
M  V30 3513 H 332.001 -0.720744 -0.153936 0
M  V30 3514 H 334.643 -1.87586 0.30192 0
M  V30 3515 H 332.793 -3.58522 -1.49648 0
M  V30 3516 H 334.465 -4.51586 0.941682 0
M  V30 3517 H 332.708 -4.23194 0.953375 0
M  V30 3518 H 333.379 -5.51976 -0.0519883 0
M  V30 3519 H 335.855 -3.98075 -1.21143 0
M  V30 3520 H 334.731 -5.1047 -2.01771 0
M  V30 3521 H 334.992 -3.50494 -2.69456 0
M  V30 3522 N 334.051 0.0651679 -1.57465 0
M  V30 3523 C 334.981 1.07693 -2.07182 0
M  V30 3524 C 335.962 1.39962 -0.966673 0
M  V30 3525 O 337.147 1.49475 -1.2398 0
M  V30 3526 C 334.277 2.3885 -2.52127 0
M  V30 3527 C 333.231 2.20917 -3.66579 0
M  V30 3528 C 332.557 3.57515 -3.97601 0
M  V30 3529 C 333.857 1.62493 -4.9638 0
M  V30 3530 H 335.551 0.663199 -2.91962 0
M  V30 3531 H 333.097 0.317569 -1.40455 0
M  V30 3532 H 335.05 3.09928 -2.85522 0
M  V30 3533 H 333.774 2.82215 -1.64384 0
M  V30 3534 H 332.433 1.52279 -3.33477 0
M  V30 3535 H 332.081 3.98463 -3.06979 0
M  V30 3536 H 331.781 3.46353 -4.74672 0
M  V30 3537 H 333.305 4.30013 -4.33499 0
M  V30 3538 H 334.719 2.23445 -5.27963 0
M  V30 3539 H 333.116 1.62009 -5.77818 0
M  V30 3540 H 334.186 0.587041 -4.81333 0
M  V30 3541 N 335.529 1.53961 0.336706 0
M  V30 3542 C 336.476 1.82428 1.41381 0
M  V30 3543 C 337.446 0.670444 1.51968 0
M  V30 3544 O 338.631 0.915565 1.67398 0
M  V30 3545 C 335.771 2.04564 2.77934 0
M  V30 3546 C 334.884 3.32267 2.76084 0
M  V30 3547 C 334.019 3.44434 4.04399 0
M  V30 3548 C 333.058 4.66061 3.96804 0
M  V30 3549 N 332.195 4.75224 5.16823 0
M  V30 3550 H 337.035 2.74324 1.16405 0
M  V30 3551 H 334.572 1.35869 0.563752 0
M  V30 3552 H 336.53 2.15388 3.57301 0
M  V30 3553 H 335.16 1.15974 3.01247 0
M  V30 3554 H 334.212 3.3025 1.88784 0
M  V30 3555 H 335.524 4.21733 2.66351 0
M  V30 3556 H 334.678 3.54728 4.92192 0
M  V30 3557 H 333.417 2.53037 4.16921 0
M  V30 3558 H 332.422 4.55838 3.07396 0
M  V30 3559 H 333.647 5.58829 3.85858 0
M  V30 3560 H 331.593 3.86739 5.29876 0
M  V30 3561 H 331.51 5.58636 5.09374 0
M  V30 3562 H 332.778 4.89835 6.06367 0
M  V30 3563 N 337.007 -0.598083 1.45811 0
M  V30 3564 C 338.423 -0.919847 1.30426 0
M  V30 3565 C 338.623 -1.99759 0.264303 0
M  V30 3566 O 337.679 -2.50221 -0.338472 0
M  V30 3567 C 338.992 -1.35176 2.68603 0
M  V30 3568 C 340.54 -1.46546 2.76574 0
M  V30 3569 C 341.015 -1.9311 4.15298 0
M  V30 3570 N 342.506 -2.00328 4.1764 0
M  V30 3571 C 343.241 -2.37599 5.21856 0
M  V30 3572 N 342.737 -2.73771 6.36413 0
M  V30 3573 N 344.53 -2.38021 5.09218 0
M  V30 3574 H 336.681 0.114111 2.12093 0
M  V30 3575 H 338.944 -0.0116121 0.947929 0
M  V30 3576 H 338.65 -0.633969 3.45939 0
M  V30 3577 H 338.524 -2.3164 2.97696 0
M  V30 3578 H 340.911 -2.17415 1.99537 0
M  V30 3579 H 340.992 -0.483727 2.51185 0
M  V30 3580 H 340.636 -1.22824 4.92825 0
M  V30 3581 H 340.566 -2.92213 4.38086 0
M  V30 3582 H 343.057 -1.74925 3.34977 0
M  V30 3583 H 343.37 -3.0112 7.11721 0
M  V30 3584 H 341.715 -2.71445 6.39799 0
M  V30 3585 H 344.906 -2.09174 4.18765 0
M  V30 3586 H 345.079 -2.66741 5.90554 0
M  V30 3587 N 338.485 -1.33259 -0.841409 0
M  V30 3588 C 339.715 -1.2742 -1.62628 0
M  V30 3589 C 340.123 0.157604 -1.88542 0
M  V30 3590 O 339.466 1.10938 -1.46419 0
M  V30 3591 C 339.528 -1.97797 -3.00194 0
M  V30 3592 C 339.192 -3.47109 -2.97261 0
M  V30 3593 C 340.189 -4.42358 -2.73159 0
M  V30 3594 C 337.874 -3.89247 -3.17478 0
M  V30 3595 C 339.868 -5.77718 -2.69296 0
M  V30 3596 C 337.555 -5.24713 -3.13241 0
M  V30 3597 C 338.553 -6.1876 -2.89181 0
M  V30 3598 O 338.241 -7.51745 -2.84843 0
M  V30 3599 H 337.973 -0.440436 -0.512827 0
M  V30 3600 H 340.527 -1.76153 -1.05638 0
M  V30 3601 H 338.757 -1.43652 -3.59028 0
M  V30 3602 H 340.446 -1.8549 -3.61038 0
M  V30 3603 H 341.212 -4.11127 -2.57294 0
M  V30 3604 H 337.091 -3.16456 -3.35226 0
M  V30 3605 H 340.635 -6.51097 -2.50436 0
M  V30 3606 H 336.532 -5.55569 -3.28654 0
M  V30 3607 H 337.3 -7.61262 -3.00702 0
M  V30 3608 N 339.963 1.05934 -1.16686 0
M  V30 3609 C 341.379 1.30938 -0.912542 0
M  V30 3610 C 341.579 1.96803 0.432533 0
M  V30 3611 O 340.635 2.23693 1.17123 0
M  V30 3612 C 341.948 2.18649 -2.06429 0
M  V30 3613 C 343.496 2.32055 -2.10047 0
M  V30 3614 C 343.971 3.23122 -3.24586 0
M  V30 3615 N 345.462 3.30706 -3.24327 0
M  V30 3616 C 346.197 4.01273 -4.09594 0
M  V30 3617 N 345.693 4.74332 -5.04956 0
M  V30 3618 N 347.486 3.97361 -3.97569 0
M  V30 3619 H 339.637 0.615777 -2.03278 0
M  V30 3620 H 341.9 0.334077 -0.887185 0
M  V30 3621 H 341.606 1.77534 -3.03603 0
M  V30 3622 H 341.48 3.19252 -2.00894 0
M  V30 3623 H 343.867 2.72415 -1.13464 0
M  V30 3624 H 343.948 1.31107 -2.19647 0
M  V30 3625 H 343.592 2.83477 -4.2143 0
M  V30 3626 H 343.522 4.24057 -3.12223 0
M  V30 3627 H 346.013 2.78644 -2.55276 0
M  V30 3628 H 346.326 5.25716 -5.6643 0
M  V30 3629 H 344.671 4.733 -5.08933 0
M  V30 3630 H 347.862 3.39405 -3.22369 0
M  V30 3631 H 348.035 4.52089 -4.64241 0
M  V30 3632 N 341.441 0.965919 1.2453 0
M  V30 3633 C 342.389 0.486506 2.27455 0
M  V30 3634 C 343.383 -0.449041 1.6334 0
M  V30 3635 O 344.589 -0.324527 1.7705 0
M  V30 3636 H 340.964 0.138857 0.739069 0
M  V30 3637 H 342.935 1.3666 2.65267 0
M  V30 3638 C 341.684 -0.209481 3.47068 0
M  V30 3639 H 341.007 0.50129 3.96645 0
M  V30 3640 H 342.447 -0.508775 4.20936 0
M  V30 3641 C 340.906 -1.43586 3.0477 0
M  V30 3642 O 341.436 -2.53299 3.11773 0
M  V30 3643 N 339.642 -1.30126 2.59838 0
M  V30 3644 H 339.189 -0.408583 2.54339 0
M  V30 3645 H 339.147 -2.12294 2.31902 0
M  V30 3646 N 342.919 -1.39368 0.735821 0
M  V30 3647 C 344.168 -1.99733 0.281004 0
M  V30 3648 C 344.481 -1.59055 -1.13846 0
M  V30 3649 O 345.687 -2.12262 -1.69284 0
M  V30 3650 C 344.143 -3.57057 0.451462 0
M  V30 3651 C 343.751 -4.06697 1.87886 0
M  V30 3652 C 345.495 -4.2446 0.0584616 0
M  V30 3653 C 343.402 -5.56598 1.99883 0
M  V30 3654 H 342.332 -0.747163 0.101311 0
M  V30 3655 H 344.983 -1.59357 0.909819 0
M  V30 3656 H 343.365 -3.95234 -0.246263 0
M  V30 3657 H 344.539 -3.79853 2.60861 0
M  V30 3658 H 342.854 -3.5196 2.22515 0
M  V30 3659 H 345.451 -5.34549 0.127099 0
M  V30 3660 H 345.794 -4.04444 -0.986433 0
M  V30 3661 H 346.327 -3.9146 0.707374 0
M  V30 3662 H 343.066 -5.81494 3.02564 0
M  V30 3663 H 342.586 -5.85242 1.31346 0
M  V30 3664 H 344.265 -6.22022 1.78039 0
M  V30 3665 N 344.397 -0.483516 -1.5 0
M  V30 3666 C 345.345 0.318061 -2.30415 0
M  V30 3667 C 346.339 0.978988 -1.38247 0
M  V30 3668 O 347.545 0.908673 -1.55381 0
M  V30 3669 H 343.92 0.121419 -0.742133 0
M  V30 3670 H 345.891 -0.380403 -2.95965 0
M  V30 3671 C 344.64 1.38013 -3.19136 0
M  V30 3672 H 343.963 0.880952 -3.89973 0
M  V30 3673 H 345.403 1.91332 -3.78375 0
M  V30 3674 C 343.862 2.38884 -2.37563 0
M  V30 3675 O 344.392 3.44412 -2.06744 0
M  V30 3676 N 342.598 2.10912 -1.99911 0
M  V30 3677 H 342.145 1.25118 -2.25174 0
M  V30 3678 H 342.103 2.78635 -1.45636 0
M  V30 3679 N 345.875 1.56104 -0.216619 0
M  V30 3680 C 346.838 2.18819 0.681962 0
M  V30 3681 C 347.838 1.14866 1.12528 0
M  V30 3682 O 349.028 1.40128 1.03488 0
M  V30 3683 C 346.16 2.80756 1.93362 0
M  V30 3684 H 347.353 2.99595 0.135254 0
M  V30 3685 H 344.906 1.56265 0.0330003 0
M  V30 3686 H 345.641 2.03837 2.52232 0
M  V30 3687 H 345.426 3.56876 1.62426 0
M  V30 3688 H 346.916 3.28844 2.57393 0
M  V30 3689 N 347.353 -0.0568162 1.57498 0
M  V30 3690 C 348.599 -0.75422 1.88253 0
M  V30 3691 C 348.932 -1.76461 0.810865 0
M  V30 3692 O 348.207 -1.93691 -0.177259 0
M  V30 3693 C 348.49 -1.44878 3.2967 0
M  V30 3694 C 348.343 -0.453789 4.47505 0
M  V30 3695 C 349.662 -2.38994 3.69554 0
M  V30 3696 H 346.781 -0.272724 0.684683 0
M  V30 3697 H 349.423 -0.0172113 1.89992 0
M  V30 3698 H 347.573 -2.077 3.28318 0
M  V30 3699 H 349.245 0.170371 4.60985 0
M  V30 3700 H 347.488 0.229552 4.33192 0
M  V30 3701 H 348.159 -0.977699 5.43273 0
M  V30 3702 H 350.635 -1.86239 3.72095 0
M  V30 3703 H 349.511 -2.84587 4.69363 0
M  V30 3704 H 349.772 -3.24461 3.00296 0
M  V30 3705 N 348.832 -1.54138 -0.328536 0
M  V30 3706 C 350.078 -1.7236 -1.06865 0
M  V30 3707 C 350.411 -0.493231 -1.87832 0
M  V30 3708 O 349.686 0.5098 -1.877 0
M  V30 3709 C 349.969 -2.99621 -1.99747 0
M  V30 3710 C 349.822 -4.32899 -1.22143 0
M  V30 3711 C 351.141 -3.22615 -2.99345 0
M  V30 3712 H 348.26 -0.627151 -0.387105 0
M  V30 3713 H 350.902 -1.86827 -0.345767 0
M  V30 3714 H 349.052 -2.87418 -2.61387 0
M  V30 3715 H 350.724 -4.56978 -0.630017 0
M  V30 3716 H 348.967 -4.30628 -0.523628 0
M  V30 3717 H 349.638 -5.18154 -1.90318 0
M  V30 3718 H 352.114 -3.34248 -2.47826 0
M  V30 3719 H 350.99 -4.13027 -3.61524 0
M  V30 3720 H 351.251 -2.3961 -3.71536 0
M  V30 3721 N 350.31 0.590341 -1.46126 0
M  V30 3722 C 351.721 1.17243 -1.45296 0
M  V30 3723 C 352.072 1.95281 -0.189723 0
M  V30 3724 O 351.197 2.04502 0.707674 0
M  V30 3725 C 351.792 2.13284 -2.6324 0
M  V30 3726 C 350.351 2.66832 -2.65476 0
M  V30 3727 C 349.498 1.42557 -2.3785 0
M  V30 3728 H 352.449 0.378692 -1.54116 0
M  V30 3729 H 352.47 2.96619 -2.38323 0
M  V30 3730 H 351.982 1.56459 -3.55165 0
M  V30 3731 H 350.083 3.27548 -1.77603 0
M  V30 3732 H 350.196 3.10088 -3.65215 0
M  V30 3733 H 348.56 1.72107 -1.87753 0
M  V30 3734 H 349.343 0.875741 -3.31942 0
M  V30 3735 N 351.788 1.33704 0.83433 0
M  V30 3736 C 353.036 1.25169 1.58673 0
M  V30 3737 C 353.357 -0.18127 1.94156 0
M  V30 3738 O 352.627 -1.11113 1.6134 0
M  V30 3739 H 351.207 0.4603 0.58833 0
M  V30 3740 H 353.869 1.67478 0.996847 0
M  V30 3741 H 352.965 1.84856 2.51465 0
M  V30 3742 N 353.266 -1.05314 1.17247 0
M  V30 3743 C 354.216 -2.11313 0.856196 0
M  V30 3744 C 355.2 -1.60013 -0.168694 0
M  V30 3745 O 356.392 -1.76968 0.0335624 0
M  V30 3746 C 353.521 -3.41301 0.369917 0
M  V30 3747 C 352.607 -3.99401 1.42616 0
M  V30 3748 N 352.998 -4.31481 2.63928 0
M  V30 3749 C 351.296 -4.27126 1.28373 0
M  V30 3750 C 351.997 -4.77799 3.31787 0
M  V30 3751 N 350.973 -4.77843 2.59166 0
M  V30 3752 H 354.775 -2.33976 1.77856 0
M  V30 3753 H 352.289 -1.2295 1.06099 0
M  V30 3754 H 354.286 -4.16713 0.124897 0
M  V30 3755 H 352.946 -3.20072 -0.546253 0
M  V30 3756 H 353.957 -4.21519 3.00902 0
M  V30 3757 H 350.634 -4.15289 0.429111 0
M  V30 3758 H 352.024 -5.11743 4.35395 0
M  V30 3759 N 354.744 -0.972509 -1.24016 0
M  V30 3760 C 355.992 -0.635776 -1.91839 0
M  V30 3761 C 356.313 0.832312 -1.76345 0
M  V30 3762 O 355.583 1.5946 -1.13795 0
M  V30 3763 H 354.163 -0.232157 -0.710009 0
M  V30 3764 H 356.825 -1.23462 -1.50809 0
M  V30 3765 H 355.921 -0.880545 -2.99421 0
M  V30 3766 N 356.222 1.38976 -0.743202 0
M  V30 3767 C 357.132 2.3434 -0.110399 0
M  V30 3768 C 358.148 1.58741 0.712559 0
M  V30 3769 O 359.324 1.9099 0.639125 0
M  V30 3770 C 356.389 3.37812 0.780012 0
M  V30 3771 C 355.45 4.29263 -0.0561319 0
M  V30 3772 C 354.683 5.27793 0.791875 0
M  V30 3773 O 354.906 5.33043 2.03031 0
M  V30 3774 O 353.84 6.01512 0.216183 0
M  V30 3775 H 357.666 2.90129 -0.897714 0
M  V30 3776 H 355.251 1.40643 -0.503966 0
M  V30 3777 H 357.133 4.01194 1.28923 0
M  V30 3778 H 355.808 2.84395 1.546 0
M  V30 3779 H 354.715 3.69076 -0.611056 0
M  V30 3780 H 356.048 4.85907 -0.784531 0
M  V30 3781 N 357.7 0.491464 1.49741 0
M  V30 3782 C 358.946 -0.0565092 2.02721 0
M  V30 3783 C 359.279 -1.37522 1.37118 0
M  V30 3784 O 358.554 -1.87866 0.503645 0
M  V30 3785 C 358.837 -0.219051 3.59433 0
M  V30 3786 C 358.69 1.12211 4.35579 0
M  V30 3787 C 360.009 -0.964157 4.29409 0
M  V30 3788 H 357.128 -0.0190627 0.736753 0
M  V30 3789 H 359.77 0.641021 1.7886 0
M  V30 3790 H 357.92 -0.813165 3.79895 0
M  V30 3791 H 359.592 1.75437 4.26637 0
M  V30 3792 H 357.835 1.71377 3.98513 0
M  V30 3793 H 358.506 0.961794 5.43556 0
M  V30 3794 H 360.982 -0.460378 4.13545 0
M  V30 3795 H 359.858 -1.04671 5.38828 0
M  V30 3796 H 360.119 -2.00563 3.93988 0
M  V30 3797 N 359.178 -1.55987 0.224894 0
M  V30 3798 C 360.426 -1.97998 -0.405099 0
M  V30 3799 C 360.747 -1.11387 -1.60056 0
M  V30 3800 O 360.017 -0.191645 -1.9496 0
M  V30 3801 H 358.597 -0.731235 -0.152658 0
M  V30 3802 H 361.259 -1.92279 0.318567 0
M  V30 3803 H 360.355 -3.03463 -0.729167 0
M  V30 3804 N 360.656 0.0484629 -1.57525 0
M  V30 3805 C 361.933 0.777447 -1.79486 0
M  V30 3806 C 362.313 1.94597 -0.818251 0
M  V30 3807 O 361.661 2.28047 0.143767 0
M  V30 3808 C 361.871 1.22864 -3.26658 0
M  V30 3809 C 363.219 1.65251 -3.91123 0
M  V30 3810 O 364.243 1.32372 -3.3069 0
M  V30 3811 O 363.102 2.26207 -4.97486 0
M  V30 3812 H 360.196 0.374357 -0.737419 0
M  V30 3813 H 362.742 0.0267359 -1.69679 0
M  V30 3814 H 361.514 0.393589 -3.89316 0
M  V30 3815 H 361.137 2.03996 -3.41279 0
M  V30 3816 N 362.134 1.5431 0.320358 0
M  V30 3817 C 363.081 1.83918 1.39438 0
M  V30 3818 C 364.051 0.686525 1.51248 0
M  V30 3819 O 365.236 0.933269 1.66417 0
M  V30 3820 C 362.376 2.075 2.75749 0
M  V30 3821 C 361.489 3.35177 2.72544 0
M  V30 3822 C 360.624 3.48704 4.00723 0
M  V30 3823 C 359.663 4.70244 3.91838 0
M  V30 3824 N 358.8 4.80679 5.11754 0
M  V30 3825 H 363.64 2.75544 1.13489 0
M  V30 3826 H 361.177 1.36459 0.549309 0
M  V30 3827 H 363.135 2.19166 3.54996 0
M  V30 3828 H 361.765 1.19163 3 0
M  V30 3829 H 360.817 3.32233 1.85271 0
M  V30 3830 H 362.129 4.24534 2.61863 0
M  V30 3831 H 361.283 3.59928 4.88402 0
M  V30 3832 H 360.022 2.57445 4.14214 0
M  V30 3833 H 359.027 4.59072 3.02544 0
M  V30 3834 H 360.252 5.6289 3.7991 0
M  V30 3835 H 358.198 3.92337 5.25745 0
M  V30 3836 H 358.115 5.64007 5.0342 0
M  V30 3837 H 359.383 4.96239 6.01138 0
M  V30 3838 N 363.613 -0.582584 1.46437 0
M  V30 3839 C 364.861 -1.33814 1.51453 0
M  V30 3840 C 365.182 -1.94277 0.167792 0
M  V30 3841 O 364.452 -1.78566 -0.805677 0
M  V30 3842 H 363.032 -0.496838 0.557818 0
M  V30 3843 H 365.694 -0.682281 1.82568 0
M  V30 3844 H 364.79 -2.14479 2.26728 0
M  V30 3845 N 365.091 -1.34144 -0.827227 0
M  V30 3846 C 366.021 -1.28005 -1.95287 0
M  V30 3847 C 367.002 -0.158321 -1.69362 0
M  V30 3848 O 368.187 -0.349987 -1.9102 0
M  V30 3849 C 365.317 -1.03036 -3.31664 0
M  V30 3850 C 364.271 -2.11628 -3.72019 0
M  V30 3851 C 363.597 -1.71854 -5.0633 0
M  V30 3852 C 364.897 -3.53417 -3.8457 0
M  V30 3853 H 366.591 -2.22187 -2.00682 0
M  V30 3854 H 364.137 -1.0696 -0.964135 0
M  V30 3855 H 366.09 -0.973863 -4.09993 0
M  V30 3856 H 364.814 -0.0529391 -3.26557 0
M  V30 3857 H 363.473 -2.16339 -2.95961 0
M  V30 3858 H 363.121 -0.727841 -4.97706 0
M  V30 3859 H 362.821 -2.44531 -5.34302 0
M  V30 3860 H 364.345 -1.67692 -5.87122 0
M  V30 3861 H 365.759 -3.51142 -4.5318 0
M  V30 3862 H 364.156 -4.24679 -4.2399 0
M  V30 3863 H 365.226 -3.91072 -2.86689 0
M  V30 3864 N 366.569 1.04691 -1.17803 0
M  V30 3865 C 367.499 2.14494 -0.92275 0
M  V30 3866 C 368.48 1.69546 0.137179 0
M  V30 3867 O 369.665 1.94195 -0.0141108 0
M  V30 3868 C 366.795 3.44491 -0.440803 0
M  V30 3869 C 365.749 4.03031 -1.4405 0
M  V30 3870 C 365.075 5.28432 -0.81631 0
M  V30 3871 C 366.375 4.39932 -2.81527 0
M  V30 3872 H 368.069 2.36107 -1.84103 0
M  V30 3873 H 365.615 1.1347 -0.886599 0
M  V30 3874 H 367.568 4.2066 -0.249602 0
M  V30 3875 H 366.292 3.22546 0.513025 0
M  V30 3876 H 364.951 3.28937 -1.61853 0
M  V30 3877 H 364.599 5.02792 0.144511 0
M  V30 3878 H 364.299 5.68559 -1.48371 0
M  V30 3879 H 365.823 6.07284 -0.635496 0
M  V30 3880 H 367.237 5.07113 -2.67412 0
M  V30 3881 H 365.634 4.9109 -3.44892 0
M  V30 3882 H 366.704 3.50045 -3.35554 0
M  V30 3883 N 368.047 0.979072 1.23499 0
M  V30 3884 C 368.977 0.537606 2.27227 0
M  V30 3885 C 369.958 -0.428539 1.64613 0
M  V30 3886 O 371.143 -0.322191 1.91509 0
M  V30 3887 C 368.273 -0.162052 3.46922 0
M  V30 3888 C 367.227 0.721242 4.21879 0
M  V30 3889 C 366.553 -0.110555 5.34586 0
M  V30 3890 C 367.853 2.01141 4.82016 0
M  V30 3891 H 369.547 1.40462 2.64406 0
M  V30 3892 H 367.093 0.67684 1.27102 0
M  V30 3893 H 369.046 -0.482192 4.18632 0
M  V30 3894 H 367.77 -1.06351 3.08799 0
M  V30 3895 H 366.429 1.02482 3.51984 0
M  V30 3896 H 366.077 -1.0125 4.92704 0
M  V30 3897 H 365.777 0.477325 5.85658 0
M  V30 3898 H 367.301 -0.425107 6.09118 0
M  V30 3899 H 368.715 1.75612 5.45741 0
M  V30 3900 H 367.112 2.54695 5.43369 0
M  V30 3901 H 368.182 2.69909 4.02836 0
M  V30 3902 N 369.525 -1.3858 0.750561 0
M  V30 3903 C 370.475 -2.27795 0.0965949 0
M  V30 3904 C 371.459 -1.45048 -0.696411 0
M  V30 3905 O 372.651 -1.67812 -0.562863 0
M  V30 3906 C 369.78 -3.33894 -0.798085 0
M  V30 3907 C 368.866 -4.241 0.0016067 0
M  V30 3908 N 369.257 -4.95067 1.03647 0
M  V30 3909 C 367.555 -4.45429 -0.225674 0
M  V30 3910 C 368.256 -5.61489 1.52004 0
M  V30 3911 N 367.232 -5.37135 0.835874 0
M  V30 3912 H 371.034 -2.80125 0.889228 0
M  V30 3913 H 368.548 -1.51446 0.586323 0
M  V30 3914 H 370.545 -3.96693 -1.28219 0
M  V30 3915 H 369.205 -2.83123 -1.5897 0
M  V30 3916 H 370.216 -4.98104 1.41819 0
M  V30 3917 H 366.893 -4.05571 -0.990872 0
M  V30 3918 H 368.283 -6.28264 2.38188 0
M  V30 3919 N 371.003 -0.499398 -1.49478 0
M  V30 3920 C 372.231 0.0425456 -2.06856 0
M  V30 3921 C 372.646 1.30964 -1.35992 0
M  V30 3922 O 372.003 1.77172 -0.437762 0
M  V30 3923 C 372.054 0.301735 -3.60239 0
M  V30 3924 O 371.775 -0.915127 -4.28436 0
M  V30 3925 C 373.276 0.887499 -4.34325 0
M  V30 3926 H 370.496 -0.0197482 -0.670709 0
M  V30 3927 H 373.04 -0.696297 -1.92281 0
M  V30 3928 H 371.195 0.990556 -3.74522 0
M  V30 3929 H 371.609 -0.676993 -5.20113 0
M  V30 3930 H 373.083 1.01845 -5.42523 0
M  V30 3931 H 373.56 1.88488 -3.96698 0
M  V30 3932 H 374.166 0.236196 -4.24644 0
M  V30 3933 N 372.481 1.55866 -0.233164 0
M  V30 3934 C 373.411 2.23783 0.666599 0
M  V30 3935 C 374.392 1.21343 1.19205 0
M  V30 3936 O 375.577 1.4996 1.23392 0
M  V30 3937 C 372.707 2.92671 1.86978 0
M  V30 3938 C 371.661 4.01682 1.47768 0
M  V30 3939 C 370.987 4.57926 2.76058 0
M  V30 3940 C 372.287 5.18126 0.658993 0
M  V30 3941 H 373.981 2.99232 0.100306 0
M  V30 3942 H 371.527 1.43924 0.046804 0
M  V30 3943 H 373.48 3.3888 2.50476 0
M  V30 3944 H 372.204 2.14688 2.46123 0
M  V30 3945 H 370.863 3.56222 0.866106 0
M  V30 3946 H 370.511 3.76659 3.33372 0
M  V30 3947 H 370.211 5.31505 2.50552 0
M  V30 3948 H 371.735 5.06859 3.40479 0
M  V30 3949 H 373.149 5.60644 1.19795 0
M  V30 3950 H 371.546 5.98009 0.500552 0
M  V30 3951 H 372.616 4.83763 -0.331856 0
M  V30 3952 N 373.959 -0.0401083 1.57549 0
M  V30 3953 C 375.236 -0.767917 1.79896 0
M  V30 3954 C 375.616 -1.9416 0.82856 0
M  V30 3955 O 374.964 -2.2812 -0.131671 0
M  V30 3956 C 375.174 -1.2113 3.27305 0
M  V30 3957 C 376.522 -1.63175 3.91994 0
M  V30 3958 O 377.546 -1.30616 3.31388 0
M  V30 3959 O 376.405 -2.23565 4.98679 0
M  V30 3960 H 373.499 -0.370441 0.739393 0
M  V30 3961 H 376.045 -0.017737 1.69691 0
M  V30 3962 H 374.817 -0.372937 3.89519 0
M  V30 3963 H 374.44 -2.02183 3.42356 0
M  V30 3964 N 375.437 -1.54477 -0.31217 0
M  V30 3965 C 376.367 -1.87652 -1.38957 0
M  V30 3966 C 377.348 -0.734358 -1.53431 0
M  V30 3967 O 378.533 -0.98911 -1.67123 0
M  V30 3968 C 375.663 -2.11396 -2.75552 0
M  V30 3969 C 374.617 -3.27243 -2.75855 0
M  V30 3970 C 373.943 -3.36382 -4.15633 0
M  V30 3971 C 375.243 -4.64622 -2.38587 0
M  V30 3972 H 376.937 -2.77887 -1.11442 0
M  V30 3973 H 374.483 -1.33707 -0.534655 0
M  V30 3974 H 376.436 -2.33189 -3.51 0
M  V30 3975 H 375.16 -1.17921 -3.04569 0
M  V30 3976 H 373.819 -3.05356 -2.02863 0
M  V30 3977 H 373.467 -2.40445 -4.41809 0
M  V30 3978 H 373.167 -4.14249 -4.1674 0
M  V30 3979 H 374.691 -3.60422 -4.92877 0
M  V30 3980 H 376.105 -4.86219 -3.03749 0
M  V30 3981 H 374.502 -5.45121 -2.50925 0
M  V30 3982 H 375.572 -4.66097 -1.33723 0
M  V30 3983 N 376.915 0.57481 -1.46744 0
M  V30 3984 C 377.845 1.69337 -1.60771 0
M  V30 3985 C 378.826 1.63825 -0.457736 0
M  V30 3986 O 380.011 1.8172 -0.684947 0
M  V30 3987 C 377.141 3.0798 -1.60517 0
M  V30 3988 C 376.095 3.28327 -2.74564 0
M  V30 3989 C 375.421 4.67578 -2.59373 0
M  V30 3990 C 376.721 3.15398 -4.16319 0
M  V30 3991 H 378.415 1.57853 -2.54407 0
M  V30 3992 H 375.961 0.75799 -1.22436 0
M  V30 3993 H 377.914 3.86061 -1.68923 0
M  V30 3994 H 376.638 3.20381 -0.634305 0
M  V30 3995 H 375.297 2.52649 -2.65639 0
M  V30 3996 H 374.945 4.76755 -1.60353 0
M  V30 3997 H 374.645 4.82144 -3.35873 0
M  V30 3998 H 376.169 5.47817 -2.69682 0
M  V30 3999 H 377.583 3.83315 -4.26313 0
M  V30 4000 H 375.98 3.41482 -4.93468 0
M  V30 4001 H 377.05 2.12372 -4.3592 0
M  V30 4002 N 378.394 1.34581 0.820102 0
M  V30 4003 C 379.341 1.2639 1.93117 0
M  V30 4004 C 380.311 0.138554 1.65521 0
M  V30 4005 O 381.496 0.320004 1.88097 0
M  V30 4006 C 378.636 1.02812 3.29429 0
M  V30 4007 C 377.749 2.24146 3.693 0
M  V30 4008 C 376.884 1.93829 4.94574 0
M  V30 4009 C 375.923 3.1129 5.27034 0
M  V30 4010 N 375.06 2.80838 6.43486 0
M  V30 4011 H 379.9 2.21408 1.99455 0
M  V30 4012 H 377.437 1.10077 0.975784 0
M  V30 4013 H 379.395 0.871788 4.0799 0
M  V30 4014 H 378.025 0.114612 3.22596 0
M  V30 4015 H 377.077 2.50691 2.86109 0
M  V30 4016 H 378.389 3.11899 3.89257 0
M  V30 4017 H 377.543 1.74948 5.80929 0
M  V30 4018 H 376.282 1.03341 4.76626 0
M  V30 4019 H 375.287 3.30764 4.39175 0
M  V30 4020 H 376.512 4.02561 5.4692 0
M  V30 4021 H 374.458 1.92929 6.26988 0
M  V30 4022 H 374.375 3.62123 6.63629 0
M  V30 4023 H 375.643 2.65467 7.32903 0
M  V30 4024 O 379.911 -0.958615 1.29972 0
M  V30 4025 H 380.602 -1.5862 1.11172 0
M  V30 END ATOM
M  V30 BEGIN BOND
M  V30 END BOND
M  V30 END CTAB
M  END
$$$$
