drugbank_target|Q59H18 Serine/threonine-protein kinase TNNI3K (DB12010)
 OpenBabel12092121143D

  0  0  0     0  0            999 V3000
M  V30 BEGIN CTAB
M  V30 COUNTS 12949 13091 0 0 0
M  V30 BEGIN ATOM
M  V30 1 H -0.908 1.98254 -0.117106 0
M  V30 2 N 0 1.576 0 0
M  V30 3 C 0.933 2.03868 1.02534 0
M  V30 4 C 1.911 0.928543 1.3348 0
M  V30 5 O 3.095 1.19667 1.45644 0
M  V30 6 C 0.222 2.43627 2.35294 0
M  V30 7 C -0.732 3.65373 2.2001 0
M  V30 8 S 0.101 5.13292 1.52614 0
M  V30 9 C 1.257 5.56322 2.86805 0
M  V30 10 H 1.49 2.90518 0.631377 0
M  V30 11 H -0.977 1.52953 0.210867 0
M  V30 12 H 0.981 2.67203 3.11629 0
M  V30 13 H -0.358 1.57376 2.7183 0
M  V30 14 H -1.165 3.90944 3.18086 0
M  V30 15 H -1.563 3.418 1.51819 0
M  V30 16 H 0.729 5.58782 3.83104 0
M  V30 17 H 1.672 6.56266 2.65933 0
M  V30 18 H 2.08 4.83886 2.90714 0
M  V30 19 N 1.4781 -0.272755 1.55222 0
M  V30 20 C 2.7261 -1.00234 1.75492 0
M  V30 21 C 3.0471 -1.8681 0.5592 0
M  V30 22 O 2.3171 -1.91215 -0.425882 0
M  V30 23 H 0.8971 -0.373076 0.647166 0
M  V30 24 H 3.5591 -0.296926 1.92625 0
M  V30 25 H 2.6551 -1.63913 2.65592 0
M  V30 26 N 2.9562 -1.48159 -0.537278 0
M  V30 27 C 3.9042 -1.62573 -1.66352 0
M  V30 28 C 4.8982 -0.492366 -1.62087 0
M  V30 29 O 6.1042 -0.670847 -1.67032 0
M  V30 30 H 2.4792 -0.511992 -0.550789 0
M  V30 31 H 4.4502 -2.57176 -1.51337 0
M  V30 32 C 3.1992 -1.67583 -3.04649 0
M  V30 33 H 2.5222 -2.54151 -3.08622 0
M  V30 34 H 3.9622 -1.81713 -3.83088 0
M  V30 35 C 2.4212 -0.413039 -3.34358 0
M  V30 36 O 2.9512 0.477259 -3.98855 0
M  V30 37 N 1.1572 -0.286961 -2.8918 0
M  V30 38 H 0.7042 -1.01241 -2.36871 0
M  V30 39 H 0.6622 0.556963 -3.09427 0
M  V30 40 N 4.4343 0.785586 -1.36625 0
M  V30 41 C 5.6643 1.5722 -1.34036 0
M  V30 42 C 6.0723 1.89033 0.0795062 0
M  V30 43 O 5.4153 1.50881 1.04789 0
M  V30 44 C 5.4773 2.91759 -2.10041 0
M  V30 45 C 5.1413 2.82654 -3.59104 0
M  V30 46 C 6.1383 2.54634 -4.53274 0
M  V30 47 C 3.8233 3.01111 -4.02042 0
M  V30 48 C 5.8173 2.45177 -5.88359 0
M  V30 49 C 3.5043 2.91276 -5.37216 0
M  V30 50 C 4.5023 2.63348 -6.30188 0
M  V30 51 O 4.1903 2.53514 -7.6288 0
M  V30 52 H 3.9223 0.494177 -0.461265 0
M  V30 53 H 6.4763 0.982632 -1.8037 0
M  V30 54 H 4.7063 3.52781 -1.58375 0
M  V30 55 H 6.3953 3.53059 -2.00261 0
M  V30 56 H 7.1613 2.40073 -4.21414 0
M  V30 57 H 3.0403 3.21854 -3.30047 0
M  V30 58 H 6.5843 2.23299 -6.60896 0
M  V30 59 H 2.4813 3.054 -5.68684 0
M  V30 60 H 3.2493 2.68967 -7.73045 0
M  V30 61 N 5.9124 1.20967 1.01018 0
M  V30 62 C 6.8594 0.964281 2.09691 0
M  V30 63 C 7.8294 -0.107853 1.65749 0
M  V30 64 O 9.0144 0.0381987 1.90762 0
M  V30 65 C 6.1544 0.52943 3.41015 0
M  V30 66 C 5.2674 1.67043 3.98398 0
M  V30 67 C 4.4024 1.18525 5.17808 0
M  V30 68 C 3.4414 2.29892 5.67288 0
M  V30 69 N 2.5784 1.82546 6.77954 0
M  V30 70 H 7.4184 1.89463 2.30017 0
M  V30 71 H 4.9554 0.944289 1.1279 0
M  V30 72 H 6.9134 0.258588 4.16398 0
M  V30 73 H 5.5434 -0.363919 3.20742 0
M  V30 74 H 4.5954 2.05603 3.20049 0
M  V30 75 H 5.9074 2.50877 4.31117 0
M  V30 76 H 5.0614 0.870762 6.00419 0
M  V30 77 H 3.8004 0.316887 4.86669 0
M  V30 78 H 2.8054 2.6215 4.83278 0
M  V30 79 H 4.0304 3.17216 6.00459 0
M  V30 80 H 1.9764 0.980454 6.48632 0
M  V30 81 H 1.8934 2.59956 7.09901 0
M  V30 82 H 3.1614 1.54115 7.64113 0
M  V30 83 N 7.3905 -1.2043 1.01659 0
M  V30 84 C 8.6155 -1.94318 0.724942 0
M  V30 85 C 9.0405 -1.74266 -0.708034 0
M  V30 86 O 8.3985 -1.03694 -1.48719 0
M  V30 87 C 8.4465 -3.44486 1.06591 0
M  V30 88 O 7.5505 -4.12017 0.177599 0
M  V30 89 H 6.8915 -0.60708 0.26898 0
M  V30 90 H 9.4215 -1.52861 1.35995 0
M  V30 91 H 9.4315 -3.95106 1.01762 0
M  V30 92 H 8.1065 -3.58404 2.10997 0
M  V30 93 H 6.6835 -3.71821 0.283421 0
M  V30 94 N 8.8686 -0.792821 -1.36206 0
M  V30 95 C 10.2846 -0.474903 -1.52371 0
M  V30 96 C 10.4846 1.00622 -1.74578 0
M  V30 97 O 9.5406 1.79162 -1.77924 0
M  V30 98 C 10.8536 -1.3083 -2.70747 0
M  V30 99 C 12.4016 -1.30234 -2.84619 0
M  V30 100 C 12.8766 -2.11956 -4.06004 0
M  V30 101 N 14.3676 -2.09419 -4.13156 0
M  V30 102 C 15.1026 -2.69419 -5.06163 0
M  V30 103 N 14.5986 -3.3829 -6.04592 0
M  V30 104 N 16.3916 -2.59134 -4.98804 0
M  V30 105 H 8.5426 -1.75222 -1.20046 0
M  V30 106 H 10.8056 -0.745024 -0.586211 0
M  V30 107 H 10.5116 -2.35881 -2.6087 0
M  V30 108 H 10.3856 -0.95196 -3.6499 0
M  V30 109 H 12.7726 -0.259748 -2.93955 0
M  V30 110 H 12.8536 -1.69847 -1.91274 0
M  V30 111 H 12.4976 -3.16248 -3.97429 0
M  V30 112 H 12.4276 -1.69711 -4.98503 0
M  V30 113 H 14.9186 -1.59297 -3.42685 0
M  V30 114 H 15.2316 -3.81394 -6.7213 0
M  V30 115 H 13.5766 -3.42393 -6.04807 0
M  V30 116 H 16.7676 -2.04927 -4.20859 0
M  V30 117 H 16.9406 -3.06185 -5.711 0
M  V30 118 N 10.3467 1.47872 -0.545128 0
M  V30 119 C 11.7577 1.86384 -0.108581 0
M  V30 120 C 12.1087 1.45309 1.31832 0
M  V30 121 O 11.2337 0.850641 1.9898 0
M  V30 122 C 11.8287 3.38265 -0.190274 0
M  V30 123 C 10.3877 3.75914 0.191164 0
M  V30 124 C 9.5347 2.71926 -0.543273 0
M  V30 125 H 12.4857 1.39561 -0.755537 0
M  V30 126 H 12.5067 3.75831 0.594217 0
M  V30 127 H 12.0187 3.6813 -1.2289 0
M  V30 128 H 10.1197 3.51665 1.23136 0
M  V30 129 H 10.2327 4.78836 -0.158987 0
M  V30 130 H 8.5967 2.54697 0.0122495 0
M  V30 131 H 9.3797 3.04634 -1.58282 0
M  V30 132 N 11.8248 0.280983 1.55075 0
M  V30 133 C 13.0528 -0.337293 2.04132 0
M  V30 134 C 13.4678 -1.4903 1.15912 0
M  V30 135 O 12.8248 -1.81606 0.180459 0
M  V30 136 C 12.8758 -0.812706 3.52246 0
M  V30 137 O 12.5968 0.294387 4.3711 0
M  V30 138 C 14.0978 -1.4982 4.17216 0
M  V30 139 H 11.3178 -0.0761638 0.666663 0
M  V30 140 H 13.8618 0.414787 2.00249 0
M  V30 141 H 12.0168 -1.51486 3.56554 0
M  V30 142 H 12.4308 -0.0721325 5.2445 0
M  V30 143 H 13.9048 -1.7822 5.22438 0
M  V30 144 H 14.3818 -2.43168 3.65741 0
M  V30 145 H 14.9878 -0.839742 4.16927 0
M  V30 146 N 13.3029 -1.57598 0.00835791 0
M  V30 147 C 14.2349 -2.05811 -1.00868 0
M  V30 148 C 15.2479 -0.977579 -1.30182 0
M  V30 149 O 16.4369 -1.25421 -1.27011 0
M  V30 150 C 13.5369 -2.45016 -2.34137 0
M  V30 151 C 12.7099 -3.75903 -2.23643 0
M  V30 152 C 11.7689 -4.01884 -3.3967 0
M  V30 153 O 10.7949 -4.72433 -3.17483 0
M  V30 154 N 11.9969 -3.50432 -4.62793 0
M  V30 155 H 14.7619 -2.93684 -0.597458 0
M  V30 156 H 12.3229 -1.60909 -0.178852 0
M  V30 157 H 14.3149 -2.59506 -3.10546 0
M  V30 158 H 12.8849 -1.62618 -2.66972 0
M  V30 159 H 12.1049 -3.7141 -1.32091 0
M  V30 160 H 13.3929 -4.61695 -2.13812 0
M  V30 161 H 12.7909 -2.93317 -4.83716 0
M  V30 162 H 11.3479 -3.70236 -5.3644 0
M  V30 163 N 14.781 0.264519 -1.55364 0
M  V30 164 C 16.009 1.013 -1.80405 0
M  V30 165 C 16.424 1.79618 -0.581622 0
M  V30 166 O 15.781 1.76879 0.449468 0
M  V30 167 C 15.832 1.96487 -3.03439 0
M  V30 168 O 15.553 1.21341 -4.20961 0
M  V30 169 C 17.054 2.83079 -3.41147 0
M  V30 170 H 14.274 0.298875 -0.600762 0
M  V30 171 H 16.818 0.292736 -2.02394 0
M  V30 172 H 14.973 2.63965 -2.83551 0
M  V30 173 H 15.387 1.85573 -4.90574 0
M  V30 174 H 16.861 3.4565 -4.30384 0
M  V30 175 H 17.338 3.53286 -2.60932 0
M  V30 176 H 17.944 2.2108 -3.63323 0
M  V30 177 N 16.2591 1.48442 0.529413 0
M  V30 178 C 17.4991 1.58086 1.29569 0
M  V30 179 C 17.8631 0.249302 1.90375 0
M  V30 180 O 19.0641 0.220738 2.67892 0
M  V30 181 C 17.3351 2.68793 2.35552 0
M  V30 182 S 18.8941 2.98207 3.21898 0
M  V30 183 H 15.7121 0.557922 0.440732 0
M  V30 184 H 18.3141 1.85966 0.603059 0
M  V30 185 H 17.0181 3.64102 1.89363 0
M  V30 186 H 16.5491 2.42817 3.09522 0
M  V30 187 H 18.5641 2.37548 4.35644 0
M  V30 188 N 17.7372 -0.778329 1.37039 0
M  V30 189 C 18.9652 -1.56734 1.35063 0
M  V30 190 C 19.3802 -1.88686 -0.0655597 0
M  V30 191 O 18.7372 -1.5096 -1.02554 0
M  V30 192 C 18.7882 -2.88163 2.18276 0
M  V30 193 O 18.5092 -2.57583 3.54376 0
M  V30 194 C 20.0102 -3.82422 2.24206 0
M  V30 195 H 17.2302 -0.485778 0.462883 0
M  V30 196 H 19.7742 -0.965185 1.8029 0
M  V30 197 H 17.9292 -3.44818 1.76576 0
M  V30 198 H 18.3432 -3.41699 3.97922 0
M  V30 199 H 19.8172 -4.71667 2.86765 0
M  V30 200 H 20.2942 -4.21078 1.24861 0
M  V30 201 H 20.9002 -3.31697 2.6619 0
M  V30 202 N 19.2153 -1.21501 -1.00376 0
M  V30 203 C 20.4923 -0.941745 -1.71437 0
M  V30 204 C 20.8723 0.546114 -2.03914 0
M  V30 205 O 20.2203 1.51128 -1.71384 0
M  V30 206 C 20.4303 -1.82812 -2.97289 0
M  V30 207 C 21.7783 -2.07771 -3.70292 0
M  V30 208 O 22.8023 -1.80171 -3.07273 0
M  V30 209 O 21.6613 -2.54456 -4.83647 0
M  V30 210 H 18.7553 -0.353243 -0.747762 0
M  V30 211 H 21.3013 -1.32436 -1.06108 0
M  V30 212 H 20.0733 -2.83501 -2.69709 0
M  V30 213 H 19.6963 -1.4464 -3.70358 0
M  V30 214 N 20.6934 1.19889 -1.02296 0
M  V30 215 C 21.6034 2.26571 -0.608508 0
M  V30 216 C 22.6194 1.70299 0.356964 0
M  V30 217 O 23.7954 2.00235 0.216326 0
M  V30 218 C 20.8604 3.46677 0.0402814 0
M  V30 219 C 19.9214 4.18153 -0.97194 0
M  V30 220 C 19.1544 5.32525 -0.354016 0
M  V30 221 O 19.3774 5.64112 0.844604 0
M  V30 222 O 18.3114 5.92242 -1.07391 0
M  V30 223 H 22.1374 2.64251 -1.49684 0
M  V30 224 H 19.7224 1.26629 -0.792809 0
M  V30 225 H 21.6044 4.19475 0.402324 0
M  V30 226 H 20.2794 3.10858 0.902707 0
M  V30 227 H 19.1864 3.47499 -1.38546 0
M  V30 228 H 20.5194 4.57927 -1.80454 0
M  V30 229 N 22.1715 0.800033 1.35784 0
M  V30 230 C 23.4175 0.38701 1.99684 0
M  V30 231 C 23.7725 -1.03268 1.62338 0
M  V30 232 O 23.0655 -1.70543 0.87325 0
M  V30 233 C 23.2595 0.500276 3.53881 0
M  V30 234 C 23.0885 1.92942 4.06206 0
M  V30 235 C 21.8585 2.55637 4.35865 0
M  V30 236 C 24.0565 2.89307 4.25213 0
M  V30 237 N 22.0385 3.9003 4.74078 0
M  V30 238 C 23.4095 4.08556 4.66349 0
M  V30 239 C 25.4645 2.86225 4.07406 0
M  V30 240 C 24.1675 5.25146 4.91543 0
M  V30 241 C 26.1935 4.02011 4.33752 0
M  V30 242 C 25.5555 5.20007 4.75155 0
M  V30 243 H 21.6545 0.189252 0.758754 0
M  V30 244 H 24.2385 1.03988 1.64604 0
M  V30 245 H 22.4095 -0.122568 3.88207 0
M  V30 246 H 24.1415 0.0624733 4.04652 0
M  V30 247 H 20.8965 2.07039 4.25948 0
M  V30 248 H 21.3205 4.59205 4.97454 0
M  V30 249 H 25.9625 1.96154 3.74544 0
M  V30 250 H 23.6805 6.15794 5.23281 0
M  V30 251 H 27.2665 4.00999 4.21534 0
M  V30 252 H 26.1465 6.08113 4.95145 0
M  V30 253 N 23.6496 -1.47581 0.552962 0
M  V30 254 C 24.5966 -2.29957 -0.197108 0
M  V30 255 C 25.5666 -1.38799 -0.912359 0
M  V30 256 O 26.7516 -1.67761 -0.908888 0
M  V30 257 C 23.8916 -3.22672 -1.22379 0
M  V30 258 C 23.0046 -4.28919 -0.515038 0
M  V30 259 C 22.1396 -5.0879 -1.52664 0
M  V30 260 C 21.1786 -6.06815 -0.802631 0
M  V30 261 N 20.3156 -6.7966 -1.76086 0
M  V30 262 H 25.1556 -2.93578 0.511486 0
M  V30 263 H 22.6926 -1.4471 0.264067 0
M  V30 264 H 24.6506 -3.74845 -1.83159 0
M  V30 265 H 23.2806 -2.60925 -1.90047 0
M  V30 266 H 22.3326 -3.79835 0.207192 0
M  V30 267 H 23.6446 -4.98773 0.0523425 0
M  V30 268 H 22.7986 -5.65091 -2.20809 0
M  V30 269 H 21.5376 -4.38828 -2.12794 0
M  V30 270 H 20.5426 -5.49695 -0.107238 0
M  V30 271 H 21.7676 -6.78784 -0.207135 0
M  V30 272 H 19.7136 -6.12432 -2.35081 0
M  V30 273 H 19.6306 -7.45669 -1.24552 0
M  V30 274 H 20.8986 -7.40538 -2.43359 0
M  V30 275 N 25.1277 -0.289203 -1.54924 0
M  V30 276 C 26.0747 0.592115 -2.23075 0
M  V30 277 C 27.0447 1.13881 -1.20915 0
M  V30 278 O 28.2297 1.18551 -1.495 0
M  V30 279 C 25.3697 1.76376 -2.96623 0
M  V30 280 C 24.4827 1.24959 -4.13533 0
M  V30 281 C 23.6177 2.38416 -4.74691 0
M  V30 282 C 22.6567 1.84072 -5.83767 0
M  V30 283 N 21.7937 2.91057 -6.38929 0
M  V30 284 H 26.6337 0.00432038 -2.98 0
M  V30 285 H 24.1707 -0.00963529 -1.47097 0
M  V30 286 H 26.1287 2.45268 -3.3749 0
M  V30 287 H 24.7587 2.32337 -2.24097 0
M  V30 288 H 23.8107 0.453307 -3.77689 0
M  V30 289 H 25.1227 0.811662 -4.92152 0
M  V30 290 H 24.2767 3.15276 -5.18349 0
M  V30 291 H 23.0157 2.8553 -3.95378 0
M  V30 292 H 22.0207 1.05697 -5.39545 0
M  V30 293 H 23.2457 1.37877 -6.64956 0
M  V30 294 H 21.1917 3.37526 -5.62505 0
M  V30 295 H 21.1087 2.51724 -7.12861 0
M  V30 296 H 22.3767 3.6785 -6.87246 0
M  V30 297 N 26.6058 1.57591 -0.0167156 0
M  V30 298 C 27.5528 2.09462 0.969251 0
M  V30 299 C 28.5228 0.99381 1.33089 0
M  V30 300 O 29.7078 1.26726 1.42636 0
M  V30 301 C 26.8478 2.61622 2.25051 0
M  V30 302 C 25.9608 3.85666 1.94642 0
M  V30 303 C 25.0958 4.26266 3.16972 0
M  V30 304 C 24.1348 5.43101 2.82326 0
M  V30 305 N 23.2718 5.78915 3.97243 0
M  V30 306 H 28.1118 2.93428 0.519997 0
M  V30 307 H 25.6488 1.45044 0.245087 0
M  V30 308 H 27.6068 2.89949 2.99976 0
M  V30 309 H 26.2368 1.80505 2.67615 0
M  V30 310 H 25.2888 3.64145 1.10013 0
M  V30 311 H 26.6008 4.70678 1.65117 0
M  V30 312 H 25.7548 4.55963 4.00228 0
M  V30 313 H 24.4938 3.39996 3.49648 0
M  V30 314 H 23.4988 5.1311 1.97479 0
M  V30 315 H 24.7238 6.3106 2.50879 0
M  V30 316 H 22.6698 4.95602 4.29785 0
M  V30 317 H 22.5868 6.58539 3.71299 0
M  V30 318 H 23.8548 6.13212 4.81239 0
M  V30 319 N 28.0839 -0.256276 1.55502 0
M  V30 320 C 29.3299 -0.987079 1.77157 0
M  V30 321 C 29.6629 -1.85327 0.580315 0
M  V30 322 O 28.9379 -1.89874 -0.421686 0
M  V30 323 C 29.2209 -1.85553 3.08613 0
M  V30 324 C 29.0739 -1.01816 4.38125 0
M  V30 325 C 30.3929 -2.8397 3.36228 0
M  V30 326 H 27.5119 -0.357428 0.644526 0
M  V30 327 H 30.1539 -0.258239 1.88237 0
M  V30 328 H 28.3039 -2.47695 2.99298 0
M  V30 329 H 29.9759 -0.416159 4.59419 0
M  V30 330 H 28.2189 -0.322178 4.32602 0
M  V30 331 H 28.8899 -1.65939 5.26468 0
M  V30 332 H 31.3659 -2.31964 3.45445 0
M  V30 333 H 30.2419 -3.41864 4.29442 0
M  V30 334 H 30.5029 -3.59955 2.56681 0
M  V30 335 N 29.562 -1.4872 -0.521534 0
M  V30 336 C 30.787 -1.61101 -1.30618 0
M  V30 337 C 31.212 -0.274611 -1.86085 0
M  V30 338 O 30.57 0.754937 -1.64834 0
M  V30 339 C 30.618 -2.66709 -2.4269 0
M  V30 340 O 29.722 -2.24456 -3.45967 0
M  V30 341 H 29.063 -0.539921 -0.386499 0
M  V30 342 H 31.593 -1.94767 -0.626645 0
M  V30 343 H 31.603 -2.88245 -2.88754 0
M  V30 344 H 30.278 -3.63727 -2.01682 0
M  V30 345 H 28.855 -2.13168 -3.05964 0
M  V30 346 N 31.0401 0.771051 -1.3745 0
M  V30 347 C 31.9501 1.91538 -1.35464 0
M  V30 348 C 32.9661 1.72134 -0.254123 0
M  V30 349 O 34.1421 1.95358 -0.489626 0
M  V30 350 C 31.2071 3.26671 -1.16134 0
M  V30 351 C 30.2681 3.58723 -2.35831 0
M  V30 352 C 29.5011 4.87409 -2.17413 0
M  V30 353 O 29.7241 5.58506 -1.15876 0
M  V30 354 O 28.6581 5.18539 -3.05615 0
M  V30 355 H 32.4841 1.96165 -2.31847 0
M  V30 356 H 30.0691 0.9139 -1.18187 0
M  V30 357 H 31.9511 4.07499 -1.07345 0
M  V30 358 H 30.6261 3.22894 -0.228251 0
M  V30 359 H 29.5331 2.78127 -2.50192 0
M  V30 360 H 30.8661 3.67243 -3.27709 0
M  V30 361 N 32.5182 1.22032 0.997298 0
M  V30 362 C 33.7432 1.06921 1.77715 0
M  V30 363 C 34.1682 -0.376226 1.84299 0
M  V30 364 O 33.5262 -1.27165 1.29223 0
M  V30 365 C 33.5742 1.67996 3.19076 0
M  V30 366 O 32.6782 0.930653 4.01762 0
M  V30 367 H 32.0192 0.375814 0.547412 0
M  V30 368 H 34.5492 1.61737 1.25309 0
M  V30 369 H 34.5592 1.72538 3.69723 0
M  V30 370 H 33.2342 2.73182 3.13599 0
M  V30 371 H 31.8112 0.960917 3.60307 0
M  V30 372 N 33.9963 -1.19345 1.0293 0
M  V30 373 C 35.2263 -1.92717 0.744563 0
M  V30 374 C 35.6343 -1.75751 -0.700579 0
M  V30 375 O 34.9773 -1.07703 -1.48815 0
M  V30 376 C 35.0393 -3.44828 1.01657 0
M  V30 377 C 34.7033 -3.85564 2.45335 0
M  V30 378 C 35.7003 -3.90286 3.43472 0
M  V30 379 C 33.3853 -4.1719 2.79746 0
M  V30 380 C 35.3793 -4.26065 4.74075 0
M  V30 381 C 33.0663 -4.52642 4.10559 0
M  V30 382 C 34.0643 -4.57054 5.07534 0
M  V30 383 O 33.7523 -4.91685 6.36004 0
M  V30 384 H 33.4843 -0.618977 0.271742 0
M  V30 385 H 36.0383 -1.52415 1.37691 0
M  V30 386 H 34.2683 -3.85314 0.327084 0
M  V30 387 H 35.9573 -3.99437 0.721427 0
M  V30 388 H 36.7233 -3.66002 3.18225 0
M  V30 389 H 32.6023 -4.1294 2.04943 0
M  V30 390 H 36.1463 -4.29423 5.49765 0
M  V30 391 H 32.0433 -4.76383 4.35579 0
M  V30 392 H 32.8113 -5.09631 6.40483 0
M  V30 393 N 35.4744 -0.807222 -1.35358 0
M  V30 394 C 36.7204 -0.388463 -1.99045 0
M  V30 395 C 37.0534 1.04184 -1.63888 0
M  V30 396 O 36.3284 1.72292 -0.902535 0
M  V30 397 C 36.6114 -0.572783 -3.55515 0
M  V30 398 C 36.4644 -2.04807 -4.00468 0
M  V30 399 C 37.7834 0.00114064 -4.401 0
M  V30 400 H 34.9024 -0.142619 -0.723069 0
M  V30 401 H 37.5444 -1.01687 -1.60498 0
M  V30 402 H 35.6944 -0.0378425 -3.88482 0
M  V30 403 H 37.3664 -2.64544 -3.77908 0
M  V30 404 H 35.6094 -2.54427 -3.51353 0
M  V30 405 H 36.2804 -2.12792 -5.09337 0
M  V30 406 H 38.7564 -0.455716 -4.13597 0
M  V30 407 H 37.6324 -0.157737 -5.48673 0
M  V30 408 H 37.8934 1.09488 -4.28328 0
M  V30 409 N 36.9525 1.47285 -0.560781 0
M  V30 410 C 38.2015 2.01668 -0.035895 0
M  V30 411 C 38.5145 1.44021 1.32353 0
M  V30 412 O 39.7205 1.90088 1.93853 0
M  V30 413 C 38.1765 3.59897 -0.0136659 0
M  V30 414 C 37.7845 4.26536 -1.37006 0
M  V30 415 C 39.5285 4.22017 0.458425 0
M  V30 416 C 37.4355 5.76782 -1.30675 0
M  V30 417 H 36.3655 0.753938 -0.00964879 0
M  V30 418 H 39.0165 1.69243 -0.709166 0
M  V30 419 H 37.3985 3.89301 0.725325 0
M  V30 420 H 38.5725 4.0877 -2.12705 0
M  V30 421 H 36.8875 3.76419 -1.78038 0
M  V30 422 H 39.4845 5.32124 0.524247 0
M  V30 423 H 39.8275 3.89437 1.4712 0
M  V30 424 H 40.3605 3.97159 -0.225818 0
M  V30 425 H 37.0995 6.13988 -2.29564 0
M  V30 426 H 36.6195 5.96875 -0.591622 0
M  V30 427 H 38.2985 6.39063 -1.01033 0
M  V30 428 N 38.4306 0.297415 1.54768 0
M  V30 429 C 39.6586 -0.315623 2.04478 0
M  V30 430 C 40.0736 -1.47792 1.17486 0
M  V30 431 O 39.4306 -1.81404 0.19971 0
M  V30 432 C 39.4816 -0.7753 3.53088 0
M  V30 433 O 39.2026 0.340732 4.36773 0
M  V30 434 C 40.7036 -1.45386 4.18781 0
M  V30 435 H 37.9236 -0.0690887 0.667434 0
M  V30 436 H 40.4676 0.436003 1.99798 0
M  V30 437 H 38.6226 -1.47696 3.58141 0
M  V30 438 H 39.0366 -0.0165035 5.24497 0
M  V30 439 H 40.5106 -1.72669 5.24299 0
M  V30 440 H 40.9876 -2.39275 3.68299 0
M  V30 441 H 41.5936 -0.795475 4.17795 0
M  V30 442 N 39.9087 -1.5758 0.0250728 0
M  V30 443 C 41.1577 -1.90811 -0.653767 0
M  V30 444 C 41.4707 -0.90273 -1.73523 0
M  V30 445 O 42.6767 -1.12614 -2.47043 0
M  V30 446 C 41.1327 -3.38804 -1.21409 0
M  V30 447 C 40.7407 -4.47692 -0.166126 0
M  V30 448 C 42.4847 -3.81108 -1.86967 0
M  V30 449 C 40.3917 -5.86779 -0.737856 0
M  V30 450 H 39.3217 -0.712063 -0.247956 0
M  V30 451 H 41.9727 -1.83281 0.0897137 0
M  V30 452 H 40.3547 -3.41252 -2.00905 0
M  V30 453 H 41.5287 -4.56797 0.606079 0
M  V30 454 H 39.8437 -4.14565 0.390466 0
M  V30 455 H 42.4407 -4.82375 -2.30692 0
M  V30 456 H 42.7837 -3.15953 -2.71071 0
M  V30 457 H 43.3167 -3.81065 -1.14167 0
M  V30 458 H 40.0557 -6.55468 0.0649577 0
M  V30 459 H 39.5757 -5.81288 -1.47864 0
M  V30 460 H 41.2547 -6.35223 -1.22884 0
M  V30 461 N 41.3868 0.248026 -1.55636 0
M  V30 462 C 42.2968 1.32859 -1.93354 0
M  V30 463 C 43.3128 1.52719 -0.833838 0
M  V30 464 O 44.4888 1.66363 -1.13513 0
M  V30 465 C 41.5538 2.66337 -2.21958 0
M  V30 466 C 40.6148 2.55008 -3.45354 0
M  V30 467 C 39.8478 3.82121 -3.72584 0
M  V30 468 O 40.0708 4.83951 -3.01907 0
M  V30 469 O 39.0048 3.80822 -4.6611 0
M  V30 470 H 42.8308 1.03862 -2.85388 0
M  V30 471 H 40.4158 0.448686 -1.42503 0
M  V30 472 H 42.2978 3.45216 -2.4167 0
M  V30 473 H 40.9728 2.95068 -1.33103 0
M  V30 474 H 39.8798 1.7442 -3.30951 0
M  V30 475 H 41.2128 2.31222 -4.34508 0
M  V30 476 N 42.8649 1.48995 0.513639 0
M  V30 477 C 44.2809 1.35478 0.843682 0
M  V30 478 C 44.4809 0.378213 1.97919 0
M  V30 479 O 43.5369 -0.194689 2.51748 0
M  V30 480 C 44.8499 2.75901 1.1958 0
M  V30 481 C 46.3979 2.84509 1.30474 0
M  V30 482 C 46.8729 4.25671 1.69021 0
M  V30 483 N 48.3639 4.28422 1.76094 0
M  V30 484 C 49.0989 5.34601 2.07338 0
M  V30 485 N 48.5949 6.5104 2.36894 0
M  V30 486 N 50.3879 5.22007 2.08483 0
M  V30 487 H 42.5389 2.11092 -0.235328 0
M  V30 488 H 44.8019 0.947039 -0.0426669 0
M  V30 489 H 44.5079 3.49001 0.434913 0
M  V30 490 H 44.3819 3.10467 2.1422 0
M  V30 491 H 46.7689 2.11655 2.05637 0
M  V30 492 H 46.8499 2.53542 0.339155 0
M  V30 493 H 46.4939 4.99048 0.944135 0
M  V30 494 H 46.4239 4.54094 2.66658 0
M  V30 495 H 48.9149 3.44441 1.55464 0
M  V30 496 H 49.2279 7.2779 2.59887 0
M  V30 497 H 47.5729 6.54287 2.34378 0
M  V30 498 H 50.7639 4.30051 1.84861 0
M  V30 499 H 50.9369 6.04854 2.325 0
M  V30 500 N 44.343 -0.763751 1.37857 0
M  V30 501 C 45.273 -1.89103 1.36975 0
M  V30 502 C 46.254 -1.68439 0.237152 0
M  V30 503 O 47.439 -1.8918 0.438713 0
M  V30 504 C 44.569 -3.26496 1.18395 0
M  V30 505 C 43.523 -3.61741 2.28751 0
M  V30 506 C 42.849 -4.97762 1.95286 0
M  V30 507 C 44.149 -3.67665 3.70972 0
M  V30 508 H 45.843 -1.90099 2.31307 0
M  V30 509 H 43.389 -0.91319 1.11341 0
M  V30 510 H 45.342 -4.05003 1.16406 0
M  V30 511 H 44.066 -3.25955 0.205215 0
M  V30 512 H 42.725 -2.85547 2.29909 0
M  V30 513 H 42.373 -4.93769 0.959221 0
M  V30 514 H 42.073 -5.22313 2.69189 0
M  V30 515 H 43.597 -5.7866 1.94898 0
M  V30 516 H 45.011 -4.36307 3.719 0
M  V30 517 H 43.408 -4.03718 4.43995 0
M  V30 518 H 44.478 -2.68134 4.0402 0
M  V30 519 N 45.8211 -1.22559 -0.990812 0
M  V30 520 C 46.7311 -1.01394 -2.11557 0
M  V30 521 C 47.7471 0.0383962 -1.73958 0
M  V30 522 O 48.9231 -0.154787 -2.00804 0
M  V30 523 C 45.9881 -0.596569 -3.41529 0
M  V30 524 C 45.0491 -1.72276 -3.93217 0
M  V30 525 C 44.2821 -1.32521 -5.16985 0
M  V30 526 O 44.5051 -0.204909 -5.70032 0
M  V30 527 O 43.4391 -2.14247 -5.62478 0
M  V30 528 H 47.2651 -1.95633 -2.32296 0
M  V30 529 H 44.8501 -1.01172 -1.0993 0
M  V30 530 H 46.7321 -0.374263 -4.19735 0
M  V30 531 H 45.4071 0.316939 -3.22145 0
M  V30 532 H 44.3141 -1.99961 -3.16174 0
M  V30 533 H 45.6471 -2.61421 -4.17037 0
M  V30 534 N 47.2992 1.18797 -1.03562 0
M  V30 535 C 48.5762 1.84469 -0.650434 0
M  V30 536 C 48.9562 1.92319 0.870433 0
M  V30 537 O 48.3042 1.44528 1.76986 0
M  V30 538 C 48.5142 3.2306 -1.32036 0
M  V30 539 C 49.8622 3.9915 -1.44792 0
M  V30 540 O 50.8862 3.32481 -1.27806 0
M  V30 541 O 49.7452 5.18587 -1.72423 0
M  V30 542 H 46.8392 0.795251 -0.226946 0
M  V30 543 H 49.3852 1.26231 -1.13419 0
M  V30 544 H 48.1572 3.1222 -2.3587 0
M  V30 545 H 47.7802 3.88949 -0.8249 0
M  V30 546 N 48.7773 0.814389 1.34928 0
M  V30 547 C 50.0543 0.321363 1.92942 0
M  V30 548 C 50.4343 -1.19014 1.74353 0
M  V30 549 O 49.7823 -1.99328 1.11716 0
M  V30 550 C 49.9923 0.741323 3.41036 0
M  V30 551 C 51.3403 0.735266 4.18185 0
M  V30 552 O 52.3643 0.68336 3.49584 0
M  V30 553 O 51.2233 0.800703 5.40602 0
M  V30 554 H 48.3173 0.0858893 0.822528 0
M  V30 555 H 50.8633 0.898609 1.43955 0
M  V30 556 H 49.6353 1.78276 3.4833 0
M  V30 557 H 49.2583 0.139307 3.97356 0
M  V30 558 N 50.2554 -1.46986 0.568584 0
M  V30 559 C 51.1854 -2.32946 -0.160753 0
M  V30 560 C 52.1664 -1.44487 -0.897631 0
M  V30 561 O 53.3514 -1.73327 -0.875867 0
M  V30 562 C 50.4814 -3.26494 -1.18403 0
M  V30 563 C 49.4354 -4.24282 -0.562895 0
M  V30 564 C 48.7614 -5.07236 -1.69163 0
M  V30 565 C 50.0614 -5.19989 0.490761 0
M  V30 566 H 51.7554 -2.94175 0.556916 0
M  V30 567 H 49.3014 -1.4146 0.26927 0
M  V30 568 H 51.2544 -3.85477 -1.70251 0
M  V30 569 H 49.9784 -2.63343 -1.93179 0
M  V30 570 H 48.6374 -3.66541 -0.0656164 0
M  V30 571 H 48.2854 -4.4048 -2.42871 0
M  V30 572 H 47.9854 -5.7345 -1.28174 0
M  V30 573 H 49.5094 -5.6908 -2.21314 0
M  V30 574 H 50.9234 -5.73271 0.0579047 0
M  V30 575 H 49.3204 -5.94469 0.820165 0
M  V30 576 H 50.3904 -4.64777 1.3824 0
M  V30 577 N 51.7335 -0.305618 -1.54608 0
M  V30 578 C 52.6655 0.602161 -2.21149 0
M  V30 579 C 53.6785 1.09394 -1.20569 0
M  V30 580 O 54.8675 1.0106 -1.47136 0
M  V30 581 C 51.9675 1.83692 -2.84799 0
M  V30 582 C 51.1405 1.48686 -4.11353 0
M  V30 583 C 50.1995 2.57725 -4.58764 0
M  V30 584 O 49.2255 2.22623 -5.23858 0
M  V30 585 N 50.4275 3.88346 -4.31471 0
M  V30 586 H 53.1925 0.0324966 -2.99682 0
M  V30 587 H 50.7535 -0.128021 -1.61393 0
M  V30 588 H 52.7455 2.55994 -3.13448 0
M  V30 589 H 51.3155 2.31486 -2.10078 0
M  V30 590 H 50.5355 0.596269 -3.89664 0
M  V30 591 H 51.8235 1.22842 -4.93748 0
M  V30 592 H 51.2215 4.19671 -3.79331 0
M  V30 593 H 49.7785 4.56932 -4.64818 0
M  V30 594 N 53.2116 1.57565 -0.0334293 0
M  V30 595 C 54.4606 1.91155 0.643639 0
M  V30 596 C 54.7736 0.91192 1.73042 0
M  V30 597 O 55.9796 1.13923 2.46442 0
M  V30 598 C 54.4356 3.39443 1.1961 0
M  V30 599 C 54.0436 4.47774 0.142381 0
M  V30 600 C 55.7876 3.82094 1.84944 0
M  V30 601 C 53.6946 5.87162 0.706727 0
M  V30 602 H 52.6246 0.713368 0.244176 0
M  V30 603 H 55.2756 1.8323 -0.0994323 0
M  V30 604 H 53.6576 3.42313 1.99092 0
M  V30 605 H 54.8316 4.56469 -0.630296 0
M  V30 606 H 53.1466 4.14352 -0.412446 0
M  V30 607 H 55.7436 4.83591 2.2813 0
M  V30 608 H 56.0866 3.17386 2.69392 0
M  V30 609 H 56.6196 3.81665 1.12145 0
M  V30 610 H 53.3586 6.55424 -0.0997178 0
M  V30 611 H 52.8786 5.82064 1.44779 0
M  V30 612 H 54.5576 6.35866 1.19514 0
M  V30 613 N 54.6897 -0.239769 1.55765 0
M  V30 614 C 55.6367 -1.29696 1.90913 0
M  V30 615 C 56.6067 -1.47478 0.764164 0
M  V30 616 O 57.7917 -1.61345 1.01845 0
M  V30 617 C 54.9317 -2.64598 2.21544 0
M  V30 618 C 54.0447 -2.54765 3.48882 0
M  V30 619 C 53.1797 -3.82069 3.69049 0
M  V30 620 C 52.2187 -3.66883 4.89963 0
M  V30 621 N 51.3557 -4.86094 5.06614 0
M  V30 622 H 56.1957 -0.990224 2.81067 0
M  V30 623 H 53.7327 -0.477684 1.39128 0
M  V30 624 H 55.6907 -3.43132 2.3731 0
M  V30 625 H 54.3207 -2.93405 1.34585 0
M  V30 626 H 53.3727 -1.67763 3.41409 0
M  V30 627 H 54.6847 -2.39457 4.37563 0
M  V30 628 H 53.8387 -4.69046 3.84812 0
M  V30 629 H 52.5777 -4.00282 2.78614 0
M  V30 630 H 51.5827 -2.78289 4.74168 0
M  V30 631 H 52.8077 -3.50157 5.81865 0
M  V30 632 H 50.7537 -5.04655 4.19117 0
M  V30 633 H 50.6707 -4.73443 5.89396 0
M  V30 634 H 51.9387 -5.74549 5.26795 0
M  V30 635 N 56.1678 -1.49265 -0.50573 0
M  V30 636 C 57.0778 -1.68312 -1.63427 0
M  V30 637 C 58.0938 -0.565682 -1.64548 0
M  V30 638 O 59.2698 -0.839801 -1.83055 0
M  V30 639 C 56.3348 -1.74107 -2.99813 0
M  V30 640 C 55.3958 -2.97653 -3.09356 0
M  V30 641 C 54.6288 -3.03163 -4.39236 0
M  V30 642 O 54.8518 -2.16396 -5.27758 0
M  V30 643 O 53.7858 -3.9558 -4.53652 0
M  V30 644 H 57.6118 -2.63907 -1.50289 0
M  V30 645 H 55.1968 -1.32951 -0.681502 0
M  V30 646 H 57.0788 -1.803 -3.80881 0
M  V30 647 H 55.7538 -0.816901 -3.13223 0
M  V30 648 H 54.6608 -2.96981 -2.27493 0
M  V30 649 H 55.9938 -3.89535 -3.00871 0
M  V30 650 N 57.6459 0.756429 -1.3826 0
M  V30 651 C 58.5929 1.87011 -1.35261 0
M  V30 652 C 59.5629 1.64695 -0.215616 0
M  V30 653 O 60.7479 1.864 -0.407399 0
M  V30 654 C 57.8879 3.24275 -1.18068 0
M  V30 655 C 57.0009 3.58442 -2.41129 0
M  V30 656 C 56.1359 4.84994 -2.16689 0
M  V30 657 C 55.1749 5.11939 -3.35537 0
M  V30 658 N 54.3119 6.29685 -3.10549 0
M  V30 659 H 59.1519 1.8891 -2.30472 0
M  V30 660 H 56.6889 0.923373 -1.14509 0
M  V30 661 H 58.6469 4.03479 -1.06116 0
M  V30 662 H 57.2769 3.21711 -0.264973 0
M  V30 663 H 56.3289 2.74103 -2.63764 0
M  V30 664 H 57.6409 3.74283 -3.29717 0
M  V30 665 H 56.7949 5.72135 -2.01857 0
M  V30 666 H 55.5339 4.71286 -1.25462 0
M  V30 667 H 54.5389 4.23268 -3.50891 0
M  V30 668 H 55.7639 5.27546 -4.27635 0
M  V30 669 H 53.7099 6.17306 -2.21967 0
M  V30 670 H 53.6269 6.46014 -3.92686 0
M  V30 671 H 54.8949 7.19722 -2.99367 0
M  V30 672 N 59.124 1.23083 0.984299 0
M  V30 673 C 60.034 1.02515 2.11016 0
M  V30 674 C 61.05 -0.0291702 1.73976 0
M  V30 675 O 62.226 0.165434 2.00719 0
M  V30 676 C 59.291 0.614673 3.41208 0
M  V30 677 C 58.352 1.74359 3.92297 0
M  V30 678 C 57.585 1.35261 5.16275 0
M  V30 679 O 57.808 0.235136 5.69915 0
M  V30 680 O 56.742 2.17227 5.61334 0
M  V30 681 H 60.568 1.96862 2.31255 0
M  V30 682 H 58.153 1.01753 1.09392 0
M  V30 683 H 60.035 0.396518 4.1953 0
M  V30 684 H 58.71 -0.299851 3.22308 0
M  V30 685 H 57.617 2.01635 3.1511 0
M  V30 686 H 58.95 2.63629 4.15645 0
M  V30 687 N 60.6021 -1.18246 1.0419 0
M  V30 688 C 61.5321 -2.24127 0.654914 0
M  V30 689 C 62.5131 -1.66617 -0.342451 0
M  V30 690 O 63.6981 -1.92924 -0.222277 0
M  V30 691 C 60.8281 -3.47295 0.0183757 0
M  V30 692 C 59.7821 -4.17563 0.939414 0
M  V30 693 C 59.1081 -5.34438 0.167286 0
M  V30 694 C 60.4081 -4.70917 2.25908 0
M  V30 695 H 62.1021 -2.56753 1.54007 0
M  V30 696 H 59.6481 -1.23414 0.74195 0
M  V30 697 H 61.6011 -4.20572 -0.264082 0
M  V30 698 H 60.3251 -3.13907 -0.901664 0
M  V30 699 H 58.9841 -3.46186 1.20628 0
M  V30 700 H 58.6321 -4.97298 -0.7552 0
M  V30 701 H 58.3321 -5.82388 0.780901 0
M  V30 702 H 59.8561 -6.10504 -0.108125 0
M  V30 703 H 61.2701 -5.35882 2.03724 0
M  V30 704 H 59.6671 -5.29406 2.82577 0
M  V30 705 H 60.7371 -3.88272 2.9047 0
M  V30 706 N 62.0802 -0.821533 -1.34494 0
M  V30 707 C 63.3082 -0.421884 -2.02553 0
M  V30 708 C 63.7232 0.971745 -1.61872 0
M  V30 709 O 63.0802 1.62864 -0.823496 0
M  V30 710 C 63.1312 -0.51285 -3.57844 0
M  V30 711 O 62.8522 -1.85155 -3.97051 0
M  V30 712 C 64.3532 -0.107921 -4.43169 0
M  V30 713 H 61.5732 -0.169482 -0.649243 0
M  V30 714 H 64.1172 -1.1093 -1.71798 0
M  V30 715 H 62.2722 0.126474 -3.87193 0
M  V30 716 H 62.6862 -1.82482 -4.91732 0
M  V30 717 H 64.1602 -0.222657 -5.51551 0
M  V30 718 H 64.6372 0.948401 -4.28838 0
M  V30 719 H 65.2432 -0.720989 -4.19144 0
M  V30 720 N 63.5583 1.46682 -0.576371 0
M  V30 721 C 64.4683 2.34032 0.163141 0
M  V30 722 C 65.4843 1.49367 0.892501 0
M  V30 723 O 66.6603 1.82252 0.857106 0
M  V30 724 C 63.7253 3.26435 1.16795 0
M  V30 725 C 62.7863 4.26998 0.443944 0
M  V30 726 C 62.0193 5.14986 1.40088 0
M  V30 727 O 62.2423 5.05785 2.637 0
M  V30 728 O 61.1763 5.94906 0.914917 0
M  V30 729 H 65.0023 2.98607 -0.55388 0
M  V30 730 H 62.5873 1.45554 -0.336821 0
M  V30 731 H 64.4693 3.83459 1.74748 0
M  V30 732 H 63.1443 2.64465 1.86655 0
M  V30 733 H 62.0513 3.7368 -0.177271 0
M  V30 734 H 63.3843 4.91736 -0.213566 0
M  V30 735 N 65.0364 0.313813 1.54444 0
M  V30 736 C 65.9664 -0.549454 2.26943 0
M  V30 737 C 66.9474 -1.12741 1.27372 0
M  V30 738 O 68.1324 -1.15436 1.56167 0
M  V30 739 C 65.2624 -1.71523 3.01989 0
M  V30 740 C 64.2164 -1.26703 4.08816 0
M  V30 741 C 63.5424 -2.51898 4.71647 0
M  V30 742 C 64.8424 -0.388962 5.2085 0
M  V30 743 H 66.5364 0.0552661 2.99349 0
M  V30 744 H 64.0824 0.0280207 1.43973 0
M  V30 745 H 66.0354 -2.32535 3.51433 0
M  V30 746 H 64.7594 -2.34639 2.27183 0
M  V30 747 H 63.4184 -0.679896 3.6024 0
M  V30 748 H 63.0664 -3.13356 3.93468 0
M  V30 749 H 62.7664 -2.22605 5.43802 0
M  V30 750 H 64.2904 -3.1369 5.23861 0
M  V30 751 H 65.7044 -0.905107 5.6611 0
M  V30 752 H 64.1014 -0.18924 5.99802 0
M  V30 753 H 65.1714 0.582699 4.81386 0
M  V30 754 N 66.5145 -1.57545 0.0417849 0
M  V30 755 C 67.9305 -1.56467 -0.314704 0
M  V30 756 C 68.1305 -1.04859 -1.72066 0
M  V30 757 O 67.1865 -0.700983 -2.42575 0
M  V30 758 C 68.4995 -3.00317 -0.15174 0
M  V30 759 C 70.0475 -3.12201 -0.223553 0
M  V30 760 C 70.5225 -4.57913 -0.0892295 0
M  V30 761 N 72.0135 -4.6297 -0.145808 0
M  V30 762 C 72.7485 -5.73362 -0.0658459 0
M  V30 763 N 72.2445 -6.92769 0.0659282 0
M  V30 764 N 74.0375 -5.6197 -0.12075 0
M  V30 765 H 66.1885 -1.89416 0.961014 0
M  V30 766 H 68.4515 -0.871862 0.372237 0
M  V30 767 H 68.1575 -3.42073 0.817254 0
M  V30 768 H 68.0315 -3.65892 -0.916692 0
M  V30 769 H 70.4185 -2.70349 -1.18301 0
M  V30 770 H 70.4995 -2.49323 0.571994 0
M  V30 771 H 70.1435 -5.00448 0.866867 0
M  V30 772 H 70.0735 -5.18786 -0.903802 0
M  V30 773 H 72.5645 -3.7709 -0.247286 0
M  V30 774 H 72.8775 -7.72707 0.119905 0
M  V30 775 H 71.2225 -6.94927 0.100885 0
M  V30 776 H 74.4135 -4.67572 -0.222187 0
M  V30 777 H 74.5865 -6.47977 -0.0549735 0
M  V30 778 N 67.9926 0.231505 -1.5589 0
M  V30 779 C 68.9406 1.30649 -1.92441 0
M  V30 780 C 69.9346 1.49037 -0.805254 0
M  V30 781 O 71.1406 1.50329 -0.990007 0
M  V30 782 H 67.5156 0.437812 -0.611412 0
M  V30 783 H 69.4866 0.970973 -2.82161 0
M  V30 784 C 68.2356 2.65179 -2.24889 0
M  V30 785 H 67.5586 2.51835 -3.10514 0
M  V30 786 H 68.9986 3.39234 -2.54355 0
M  V30 787 C 67.4576 3.19439 -1.07054 0
M  V30 788 O 67.9876 4.00371 -0.326499 0
M  V30 789 N 66.1936 2.77675 -0.85703 0
M  V30 790 H 65.7406 2.11969 -1.46379 0
M  V30 791 H 65.6986 3.14321 -0.0703223 0
M  V30 792 N 69.4707 1.49531 0.497807 0
M  V30 793 C 70.7197 1.58426 1.24837 0
M  V30 794 C 71.0327 0.277643 1.93619 0
M  V30 795 O 72.2387 0.24517 2.70391 0
M  V30 796 C 70.6947 2.79538 2.26686 0
M  V30 797 C 70.3027 4.16971 1.63828 0
M  V30 798 C 72.0467 2.97764 3.0255 0
M  V30 799 C 69.9537 5.29301 2.63807 0
M  V30 800 H 68.8837 0.58989 0.469623 0
M  V30 801 H 71.5347 1.75923 0.521857 0
M  V30 802 H 69.9167 2.55542 3.02514 0
M  V30 803 H 71.0907 4.51116 0.939711 0
M  V30 804 H 69.4057 4.04129 1.00342 0
M  V30 805 H 72.0027 3.78856 3.77323 0
M  V30 806 H 72.3457 2.08448 3.60354 0
M  V30 807 H 72.8787 3.21815 2.33838 0
M  V30 808 H 69.6177 6.20687 2.10779 0
M  V30 809 H 69.1377 4.99606 3.31894 0
M  V30 810 H 70.8167 5.58768 3.2617 0
M  V30 811 N 70.9488 -0.749086 1.3866 0
M  V30 812 C 72.1958 -1.50833 1.35114 0
M  V30 813 C 72.5238 -1.94415 -0.0574049 0
M  V30 814 O 71.7788 -1.66065 -1.03541 0
M  V30 815 C 72.0778 -2.7712 2.25697 0
M  V30 816 C 71.7438 -2.52477 3.73585 0
M  V30 817 C 70.4058 -2.45466 4.13884 0
M  V30 818 C 72.7578 -2.31066 4.67181 0
M  V30 819 C 70.0858 -2.15064 5.45861 0
M  V30 820 C 72.4378 -2.02183 5.9942 0
M  V30 821 C 71.1018 -1.93631 6.38798 0
M  V30 822 H 70.3718 -0.551936 0.494416 0
M  V30 823 H 73.0188 -0.860979 1.71054 0
M  V30 824 H 71.3238 -3.46528 1.82827 0
M  V30 825 H 73.0208 -3.35096 2.20254 0
M  V30 826 H 69.6108 -2.58807 3.41638 0
M  V30 827 H 73.7948 -2.35459 4.3689 0
M  V30 828 H 69.0508 -2.06954 5.75308 0
M  V30 829 H 73.2248 -1.8462 6.71482 0
M  V30 830 H 70.8518 -1.69839 7.40985 0
M  V30 831 N 72.4269 -1.23603 -0.977757 0
M  V30 832 C 73.6749 -1.06759 -1.71601 0
M  V30 833 C 73.9959 0.395929 -1.90938 0
M  V30 834 O 73.2659 1.28356 -1.47992 0
M  V30 835 H 71.8459 -0.392062 -0.635843 0
M  V30 836 H 74.5079 -1.55362 -1.1768 0
M  V30 837 H 73.6039 -1.55763 -2.70452 0
M  V30 838 N 73.905 1.17692 -1.04816 0
M  V30 839 C 75.13 1.92327 -0.776207 0
M  V30 840 C 75.555 1.76082 0.661581 0
M  V30 841 O 74.913 1.076 1.45917 0
M  V30 842 C 74.961 3.41539 -1.15687 0
M  V30 843 O 74.065 4.11402 -0.286775 0
M  V30 844 H 73.406 0.599735 -0.284981 0
M  V30 845 H 75.936 1.49201 -1.4 0
M  V30 846 H 75.946 3.92269 -1.12202 0
M  V30 847 H 74.621 3.52684 -2.20425 0
M  V30 848 H 73.198 3.70939 -0.381903 0
M  V30 849 N 75.3831 0.828654 1.34056 0
M  V30 850 C 76.6601 0.341809 1.9259 0
M  V30 851 C 77.0401 -1.17158 1.75605 0
M  V30 852 O 76.3881 -1.98132 1.13824 0
M  V30 853 C 76.5981 0.777453 3.4023 0
M  V30 854 C 77.9461 0.779579 4.17382 0
M  V30 855 O 78.9701 0.7204 3.48839 0
M  V30 856 O 77.8291 0.857996 5.39723 0
M  V30 857 H 74.9231 0.0946085 0.821571 0
M  V30 858 H 77.4691 0.913827 1.42994 0
M  V30 859 H 76.2411 1.8196 3.46419 0
M  V30 860 H 75.8641 0.181444 3.97186 0
M  V30 861 N 76.8612 -1.46375 0.584142 0
M  V30 862 C 77.7712 -2.34115 -0.150728 0
M  V30 863 C 78.7872 -1.49838 -0.884567 0
M  V30 864 O 79.9632 -1.82704 -0.847429 0
M  V30 865 C 77.0282 -3.2705 -1.15062 0
M  V30 866 C 76.0892 -4.27228 -0.421293 0
M  V30 867 C 75.3222 -5.15722 -1.37355 0
M  V30 868 O 75.5452 -5.07176 -2.61014 0
M  V30 869 O 74.4792 -5.95383 -0.883355 0
M  V30 870 H 78.3052 -2.98309 0.569708 0
M  V30 871 H 75.8902 -1.45373 0.344535 0
M  V30 872 H 77.7722 -3.84381 -1.72712 0
M  V30 873 H 76.4472 -2.65451 -1.8525 0
M  V30 874 H 75.3542 -3.7358 0.197085 0
M  V30 875 H 76.6872 -4.91616 0.239641 0
M  V30 876 N 78.3393 -0.321999 -1.54275 0
M  V30 877 C 79.3023 0.531975 -2.22941 0
M  V30 878 C 80.3023 1.04478 -1.22234 0
M  V30 879 O 81.4923 0.937452 -1.46825 0
M  V30 880 C 78.6243 1.73874 -2.93224 0
M  V30 881 H 79.8173 -0.0682612 -2.99822 0
M  V30 882 H 77.3703 -0.0730644 -1.56129 0
M  V30 883 H 78.1053 2.37825 -2.20476 0
M  V30 884 H 77.8903 1.37847 -3.6707 0
M  V30 885 H 79.3803 2.34496 -3.45545 0
M  V30 886 N 79.8174 1.5752 -0.0501392 0
M  V30 887 C 81.0644 1.9265 0.623874 0
M  V30 888 C 81.3924 0.928411 1.70912 0
M  V30 889 O 80.6474 -0.0594525 1.9561 0
M  V30 890 C 80.9464 3.34467 1.25963 0
M  V30 891 C 80.6124 4.49883 0.302689 0
M  V30 892 C 79.2744 4.81184 0.0393636 0
M  V30 893 C 81.6264 5.20002 -0.353205 0
M  V30 894 C 78.9544 5.79951 -0.887308 0
M  V30 895 C 81.3064 6.1976 -1.26806 0
M  V30 896 C 79.9704 6.49491 -1.54007 0
M  V30 897 H 79.2404 0.704957 0.228292 0
M  V30 898 H 81.8874 1.91146 -0.116398 0
M  V30 899 H 80.1924 3.32333 2.07514 0
M  V30 900 H 81.8894 3.58928 1.78806 0
M  V30 901 H 78.4794 4.25457 0.518109 0
M  V30 902 H 82.6634 4.96033 -0.162854 0
M  V30 903 H 77.9194 6.01322 -1.10553 0
M  V30 904 H 82.0934 6.73205 -1.78236 0
M  V30 905 H 79.7204 7.25837 -2.25976 0
M  V30 906 N 81.2955 -0.223234 1.56011 0
M  V30 907 C 82.5205 -0.968978 1.83373 0
M  V30 908 C 82.9455 -1.77227 0.630254 0
M  V30 909 O 82.3035 -1.76345 -0.420959 0
M  V30 910 C 82.3515 -1.86363 3.08709 0
M  V30 911 O 81.4555 -2.95873 2.87285 0
M  V30 912 H 80.7965 -0.274461 0.604622 0
M  V30 913 H 83.3265 -0.237056 2.03222 0
M  V30 914 H 83.3365 -2.27376 3.38768 0
M  V30 915 H 82.0115 -1.27319 3.95933 0
M  V30 916 H 80.5885 -2.58818 2.68454 0
M  V30 917 N 82.7736 -1.49793 -0.48987 0
M  V30 918 C 83.7206 -1.67281 -1.59014 0
M  V30 919 C 84.6906 -0.514177 -1.57941 0
M  V30 920 O 85.8756 -0.742533 -1.75759 0
M  V30 921 C 83.0156 -1.75569 -2.97102 0
M  V30 922 C 82.1286 -3.0281 -3.08107 0
M  V30 923 C 81.2636 -3.02008 -4.36995 0
M  V30 924 C 80.3026 -4.23782 -4.41673 0
M  V30 925 N 79.4396 -4.20826 -5.62005 0
M  V30 926 H 84.2796 -2.61224 -1.43409 0
M  V30 927 H 81.8166 -1.29508 -0.697565 0
M  V30 928 H 83.7746 -1.78354 -3.77155 0
M  V30 929 H 82.4046 -0.850827 -3.11385 0
M  V30 930 H 81.4566 -3.09584 -2.21047 0
M  V30 931 H 82.7686 -3.92801 -3.07423 0
M  V30 932 H 81.9226 -3.03418 -5.25378 0
M  V30 933 H 80.6616 -2.09815 -4.4026 0
M  V30 934 H 79.6666 -4.22604 -3.5169 0
M  V30 935 H 80.8916 -5.17181 -4.40115 0
M  V30 936 H 78.8376 -3.31476 -5.66091 0
M  V30 937 H 78.7546 -5.04564 -5.62984 0
M  V30 938 H 80.0226 -4.26355 -6.52565 0
M  V30 939 N 84.2517 0.741722 -1.39055 0
M  V30 940 C 85.4977 1.50336 -1.36113 0
M  V30 941 C 85.8307 1.94148 0.0450796 0
M  V30 942 O 85.1057 1.66301 1.00868 0
M  V30 943 C 85.3887 2.74773 -2.32749 0
M  V30 944 C 85.2417 2.37023 -3.82283 0
M  V30 945 C 86.5607 3.76846 -2.27322 0
M  V30 946 H 83.6797 0.545351 -0.495743 0
M  V30 947 H 86.3217 0.848624 -1.69995 0
M  V30 948 H 84.4717 3.30639 -2.03986 0
M  V30 949 H 86.1437 1.8684 -4.21768 0
M  V30 950 H 84.3867 1.69334 -3.99385 0
M  V30 951 H 85.0577 3.26104 -4.45376 0
M  V30 952 H 87.5337 3.30548 -2.5274 0
M  V30 953 H 86.4097 4.6159 -2.97028 0
M  V30 954 H 86.6707 4.23286 -1.27599 0
M  V30 955 N 85.7298 1.2412 0.971189 0
M  V30 956 C 86.6778 1.02812 2.08644 0
M  V30 957 C 87.6718 -0.0358403 1.69362 0
M  V30 958 O 88.8778 0.118429 1.7961 0
M  V30 959 H 85.2528 0.315428 0.682649 0
M  V30 960 H 87.2238 1.97397 2.23779 0
M  V30 961 C 85.9728 0.645874 3.41649 0
M  V30 962 H 85.2958 1.45632 3.72332 0
M  V30 963 H 86.7358 0.536366 4.20594 0
M  V30 964 C 85.1948 -0.646713 3.30635 0
M  V30 965 O 85.7248 -1.69338 3.64263 0
M  V30 966 N 83.9308 -0.626115 2.83775 0
M  V30 967 H 83.4778 0.225988 2.56607 0
M  V30 968 H 83.4358 -1.49117 2.76788 0
M  V30 969 N 87.2079 -1.17134 1.05439 0
M  V30 970 C 88.1379 -2.2342 0.678649 0
M  V30 971 C 89.1189 -1.66971 -0.32476 0
M  V30 972 O 90.3039 -1.93149 -0.201802 0
M  V30 973 C 87.4339 -3.47256 0.0552099 0
M  V30 974 C 86.3879 -4.16543 0.98365 0
M  V30 975 C 85.7139 -5.34231 0.223961 0
M  V30 976 C 87.0139 -4.68495 2.3089 0
M  V30 977 H 88.7079 -2.55105 1.56722 0
M  V30 978 H 86.2539 -1.2262 0.754998 0
M  V30 979 H 88.2069 -4.20828 -0.21946 0
M  V30 980 H 86.9309 -3.14846 -0.868319 0
M  V30 981 H 85.5899 -3.44887 1.24293 0
M  V30 982 H 85.2379 -4.98071 -0.702412 0
M  V30 983 H 84.9379 -5.81527 0.842627 0
M  V30 984 H 86.4619 -6.10585 -0.0433671 0
M  V30 985 H 87.8759 -5.33691 2.09396 0
M  V30 986 H 86.2729 -5.26379 2.88176 0
M  V30 987 H 87.3429 -3.85169 2.94572 0
M  V30 988 N 88.686 -0.835752 -1.33615 0
M  V30 989 C 89.634 -0.255238 -2.31195 0
M  V30 990 C 90.628 0.61107 -1.57995 0
M  V30 991 O 91.834 0.500979 -1.72888 0
M  V30 992 H 88.209 -0.0638085 -0.749288 0
M  V30 993 H 90.18 -1.09283 -2.77669 0
M  V30 994 C 88.929 0.55754 -3.43201 0
M  V30 995 H 88.252 -0.0997553 -3.99676 0
M  V30 996 H 89.692 0.929622 -4.13683 0
M  V30 997 C 88.151 1.73515 -2.88781 0
M  V30 998 O 88.681 2.83376 -2.84712 0
M  V30 999 N 86.887 1.55603 -2.4543 0
M  V30 1000 H 86.434 0.662354 -2.48939 0
M  V30 1001 H 86.392 2.34545 -2.09371 0
M  V30 1002 N 90.1641 1.46063 -0.591896 0
M  V30 1003 C 91.3941 2.06418 -0.0867676 0
M  V30 1004 C 91.8021 1.43975 1.22751 0
M  V30 1005 O 91.1451 0.542531 1.75506 0
M  V30 1006 C 91.2071 3.59213 0.143725 0
M  V30 1007 C 90.8711 4.439 -1.08635 0
M  V30 1008 C 91.8681 4.79864 -2.00067 0
M  V30 1009 C 89.5531 4.84896 -1.31077 0
M  V30 1010 C 91.5471 5.55661 -3.12282 0
M  V30 1011 C 89.2341 5.6045 -2.43596 0
M  V30 1012 C 90.2321 5.95747 -3.34027 0
M  V30 1013 O 89.9201 6.69772 -4.4459 0
M  V30 1014 H 89.6521 0.673443 -0.0587447 0
M  V30 1015 H 92.2061 1.88539 -0.814994 0
M  V30 1016 H 90.4361 3.75433 0.926668 0
M  V30 1017 H 92.1251 4.01463 0.5985 0
M  V30 1018 H 92.8911 4.48763 -1.83947 0
M  V30 1019 H 88.7701 4.56867 -0.61594 0
M  V30 1020 H 92.3141 5.8313 -3.82891 0
M  V30 1021 H 88.2111 5.90965 -2.59674 0
M  V30 1022 H 88.9791 6.88207 -4.43073 0
M  V30 1023 N 91.6422 0.330177 1.54103 0
M  V30 1024 C 93.0582 -0.0222371 1.59585 0
M  V30 1025 C 93.2582 -1.49902 1.34654 0
M  V30 1026 O 92.3142 -2.25592 1.13421 0
M  V30 1027 C 93.6272 0.401932 2.98002 0
M  V30 1028 C 95.1752 0.353145 3.11001 0
M  V30 1029 C 95.6502 0.752576 4.51775 0
M  V30 1030 N 97.1412 0.706239 4.57784 0
M  V30 1031 C 97.8762 0.987417 5.64834 0
M  V30 1032 N 97.3722 1.33607 6.79795 0
M  V30 1033 N 99.1652 0.91254 5.54643 0
M  V30 1034 H 91.3162 1.29228 1.68564 0
M  V30 1035 H 93.5792 0.525906 0.78875 0
M  V30 1036 H 93.2852 1.4311 3.21267 0
M  V30 1037 H 93.1592 -0.229699 3.765 0
M  V30 1038 H 95.5462 -0.666822 2.87467 0
M  V30 1039 H 95.6272 1.0198 2.34593 0
M  V30 1040 H 95.2712 1.77049 4.76042 0
M  V30 1041 H 95.2012 0.0635409 5.26562 0
M  V30 1042 H 97.6922 0.44889 3.75224 0
M  V30 1043 H 98.0052 1.53582 7.57385 0
M  V30 1044 H 96.3502 1.37439 6.81275 0
M  V30 1045 H 99.5412 0.639601 4.6371 0
M  V30 1046 H 99.7142 1.13503 6.37982 0
M  V30 1047 N 93.1203 -1.57491 0.0584922 0
M  V30 1048 C 94.3483 -1.97296 -0.623037 0
M  V30 1049 C 94.7633 -0.936338 -1.63946 0
M  V30 1050 O 94.1203 0.0785981 -1.82331 0
M  V30 1051 C 94.1713 -3.37183 -1.30345 0
M  V30 1052 O 93.8923 -4.36872 -0.32773 0
M  V30 1053 C 95.3933 -3.91788 -2.07406 0
M  V30 1054 H 92.6133 -0.649153 -0.169826 0
M  V30 1055 H 95.1573 -2.04106 0.12696 0
M  V30 1056 H 93.3123 -3.31502 -2.00463 0
M  V30 1057 H 93.7263 -5.18141 -0.814269 0
M  V30 1058 H 95.2003 -4.91926 -2.50425 0
M  V30 1059 H 95.6773 -3.27609 -2.92521 0
M  V30 1060 H 96.2833 -4.00829 -1.42184 0
M  V30 1061 N 94.5984 0.214957 -1.56127 0
M  V30 1062 C 95.5084 1.28727 -1.96129 0
M  V30 1063 C 96.5244 1.50916 -0.866044 0
M  V30 1064 O 97.7004 1.63918 -1.17016 0
M  V30 1065 C 94.7654 2.61569 -2.27558 0
M  V30 1066 C 93.8264 2.47625 -3.50685 0
M  V30 1067 C 93.0594 3.74132 -3.80606 0
M  V30 1068 O 93.2824 4.77438 -3.12104 0
M  V30 1069 O 92.2164 3.70849 -4.74083 0
M  V30 1070 H 96.0424 0.977855 -2.87527 0
M  V30 1071 H 93.6274 0.418358 -1.43423 0
M  V30 1072 H 95.5094 3.40012 -2.48938 0
M  V30 1073 H 94.1844 2.92178 -1.39332 0
M  V30 1074 H 93.0914 1.67361 -3.34576 0
M  V30 1075 H 94.4244 2.21954 -4.39315 0
M  V30 1076 N 96.0765 1.50051 0.48192 0
M  V30 1077 C 97.0245 1.68635 1.60203 0
M  V30 1078 C 98.0185 0.552184 1.60148 0
M  V30 1079 O 99.2245 0.732377 1.64427 0
M  V30 1080 H 95.5995 0.532081 0.531407 0
M  V30 1081 H 97.5705 2.62616 1.41688 0
M  V30 1082 C 96.3195 1.78775 2.9822 0
M  V30 1083 H 95.6425 2.6543 2.98976 0
M  V30 1084 H 97.0825 1.95806 3.7608 0
M  V30 1085 C 95.5415 0.536849 3.32595 0
M  V30 1086 O 96.0715 -0.328897 4.00351 0
M  V30 1087 N 94.2775 0.394091 2.87915 0
M  V30 1088 H 93.8245 1.09962 2.32951 0
M  V30 1089 H 93.7825 -0.441737 3.11281 0
M  V30 1090 N 97.5546 -0.734337 1.39446 0
M  V30 1091 C 98.8026 -1.49096 1.36436 0
M  V30 1092 C 99.1236 -1.94961 -0.0388255 0
M  V30 1093 O 98.3936 -1.69033 -0.990191 0
M  V30 1094 H 96.9736 -0.5531 0.502085 0
M  V30 1095 H 99.6356 -0.871725 1.74319 0
M  V30 1096 H 98.7316 -2.37276 2.02747 0
M  V30 1097 N 99.0327 -1.24633 -0.964593 0
M  V30 1098 C 99.9627 -1.06611 -2.07741 0
M  V30 1099 C 100.944 0.0218666 -1.70086 0
M  V30 1100 O 102.129 -0.145793 -1.93652 0
M  V30 1101 C 99.2587 -0.673444 -3.40708 0
M  V30 1102 C 98.2127 -1.71054 -3.92332 0
M  V30 1103 C 97.5387 -1.17285 -5.21678 0
M  V30 1104 C 98.8387 -3.10718 -4.19824 0
M  V30 1105 H 100.533 -1.99693 -2.23076 0
M  V30 1106 H 98.0787 -0.96152 -1.07195 0
M  V30 1107 H 100.032 -0.534345 -4.17998 0
M  V30 1108 H 98.7557 0.293073 -3.25282 0
M  V30 1109 H 97.4147 -1.83791 -3.17201 0
M  V30 1110 H 97.0627 -0.196847 -5.02615 0
M  V30 1111 H 96.7627 -1.86592 -5.57187 0
M  V30 1112 H 98.2867 -1.04593 -6.01575 0
M  V30 1113 H 99.7007 -3.01192 -4.87808 0
M  V30 1114 H 98.0977 -3.77406 -4.66567 0
M  V30 1115 H 99.1677 -3.58524 -3.26479 0
M  V30 1116 N 100.511 1.16574 -1.06058 0
M  V30 1117 C 101.736 1.91493 -0.796562 0
M  V30 1118 C 102.161 1.76773 0.642868 0
M  V30 1119 O 101.519 1.09142 1.44768 0
M  V30 1120 C 101.567 3.40293 -1.19303 0
M  V30 1121 O 100.671 4.11074 -0.330394 0
M  V30 1122 H 100.012 0.596678 -0.291326 0
M  V30 1123 H 102.542 1.47708 -1.41575 0
M  V30 1124 H 102.552 3.91057 -1.16356 0
M  V30 1125 H 101.227 3.50326 -2.24153 0
M  V30 1126 H 99.8038 3.70513 -0.421225 0
M  V30 1127 N 101.989 0.842826 1.3317 0
M  V30 1128 C 102.919 0.294028 2.31641 0
M  V30 1129 C 103.9 -0.600401 1.59151 0
M  V30 1130 O 105.085 -0.523124 1.87022 0
M  V30 1131 C 102.215 -0.528416 3.43257 0
M  V30 1132 C 101.169 0.27056 4.27144 0
M  V30 1133 C 100.495 -0.675881 5.30411 0
M  V30 1134 C 101.795 1.48981 5.00602 0
M  V30 1135 H 103.489 1.11681 2.77791 0
M  V30 1136 H 101.035 0.538478 1.33553 0
M  V30 1137 H 102.988 -0.922674 4.11175 0
M  V30 1138 H 101.712 -1.38445 2.95805 0
M  V30 1139 H 100.371 0.646427 3.60856 0
M  V30 1140 H 100.019 -1.52842 4.79216 0
M  V30 1141 H 99.7189 -0.145374 5.8742 0
M  V30 1142 H 101.243 -1.06757 6.01195 0
M  V30 1143 H 102.657 1.16849 5.61266 0
M  V30 1144 H 101.054 1.95739 5.6728 0
M  V30 1145 H 102.124 2.25746 4.29147 0
M  V30 1146 N 103.467 -1.45747 0.599634 0
M  V30 1147 C 104.397 -2.33235 -0.111306 0
M  V30 1148 C 105.378 -1.46359 -0.866781 0
M  V30 1149 O 106.563 -1.75146 -0.838904 0
M  V30 1150 C 103.693 -3.28932 -1.11451 0
M  V30 1151 C 102.647 -4.25381 -0.472772 0
M  V30 1152 C 101.973 -5.1071 -1.58365 0
M  V30 1153 C 103.273 -5.18831 0.600948 0
M  V30 1154 H 104.967 -2.92927 0.61919 0
M  V30 1155 H 102.513 -1.40857 0.299215 0
M  V30 1156 H 104.466 -3.89002 -1.62036 0
M  V30 1157 H 103.19 -2.67381 -1.8755 0
M  V30 1158 H 101.849 -3.66598 0.0121472 0
M  V30 1159 H 101.497 -4.45533 -2.33473 0
M  V30 1160 H 101.197 -5.7604 -1.15982 0
M  V30 1161 H 102.721 -5.73647 -2.09194 0
M  V30 1162 H 104.135 -5.73019 0.179491 0
M  V30 1163 H 102.532 -5.92595 0.946076 0
M  V30 1164 H 103.602 -4.6174 1.48068 0
M  V30 1165 N 104.945 -0.338344 -1.53925 0
M  V30 1166 C 105.895 0.536712 -2.21593 0
M  V30 1167 C 106.879 1.07015 -1.20153 0
M  V30 1168 O 108.071 1.00471 -1.45721 0
M  V30 1169 C 105.2 1.68977 -2.98834 0
M  V30 1170 C 104.286 1.17052 -4.07627 0
M  V30 1171 N 104.677 0.372085 -5.0443 0
M  V30 1172 C 102.975 1.44789 -4.21844 0
M  V30 1173 C 103.676 0.0909171 -5.81629 0
M  V30 1174 N 102.652 0.681131 -5.39316 0
M  V30 1175 H 106.454 -0.0804298 -2.9379 0
M  V30 1176 H 103.968 -0.144943 -1.61752 0
M  V30 1177 H 105.965 2.32857 -3.45808 0
M  V30 1178 H 104.625 2.31024 -2.28162 0
M  V30 1179 H 105.636 0.0136217 -5.17898 0
M  V30 1180 H 102.313 2.07313 -3.62391 0
M  V30 1181 H 103.703 -0.552817 -6.69622 0
M  V30 1182 N 106.423 1.57458 -0.0668435 0
M  V30 1183 C 107.353 2.15468 0.899764 0
M  V30 1184 C 108.334 1.08042 1.31381 0
M  V30 1185 O 109.519 1.36054 1.38574 0
M  V30 1186 C 106.649 2.71232 2.16911 0
M  V30 1187 C 105.603 3.83781 1.89463 0
M  V30 1188 C 104.929 4.26127 3.22986 0
M  V30 1189 C 106.229 5.08238 1.20381 0
M  V30 1190 H 107.923 2.96488 0.416529 0
M  V30 1191 H 105.469 1.4262 0.198908 0
M  V30 1192 H 107.422 3.10458 2.84945 0
M  V30 1193 H 106.146 1.87426 2.67468 0
M  V30 1194 H 104.805 3.45051 1.23836 0
M  V30 1195 H 104.453 3.39249 3.71374 0
M  V30 1196 H 104.153 5.01993 3.05413 0
M  V30 1197 H 105.677 4.67966 3.92225 0
M  V30 1198 H 107.091 5.44811 1.78475 0
M  V30 1199 H 105.488 5.89349 1.13083 0
M  V30 1200 H 106.558 4.84558 0.182153 0
M  V30 1201 N 107.901 -0.206675 1.56239 0
M  V30 1202 C 109.141 -0.93574 1.81723 0
M  V30 1203 C 109.505 -1.80927 0.642609 0
M  V30 1204 O 110.706 -2.57323 0.777081 0
M  V30 1205 C 108.977 -1.74012 3.12177 0
M  V30 1206 S 110.536 -2.52279 3.59028 0
M  V30 1207 H 107.354 -0.314065 0.637875 0
M  V30 1208 H 109.956 -0.200071 1.94474 0
M  V30 1209 H 108.66 -1.0888 3.95693 0
M  V30 1210 H 108.191 -2.51782 3.02274 0
M  V30 1211 H 110.206 -3.76209 3.23545 0
M  V30 1212 N 109.379 -1.50304 -0.473955 0
M  V30 1213 C 110.619 -1.62786 -1.23612 0
M  V30 1214 C 110.983 -0.319786 -1.89318 0
M  V30 1215 O 112.184 -0.320012 -2.66888 0
M  V30 1216 C 110.455 -2.77351 -2.25414 0
M  V30 1217 S 112.014 -3.09948 -3.10608 0
M  V30 1218 H 108.832 -0.573895 -0.419721 0
M  V30 1219 H 111.434 -1.88076 -0.533623 0
M  V30 1220 H 110.138 -3.70879 -1.75719 0
M  V30 1221 H 109.669 -2.54137 -3.00296 0
M  V30 1222 H 111.684 -2.53553 -4.26527 0
M  V30 1223 N 110.857 0.726932 -1.39834 0
M  V30 1224 C 112.106 1.48214 -1.36805 0
M  V30 1225 C 112.419 1.95576 0.0305291 0
M  V30 1226 O 113.625 2.7088 0.183417 0
M  V30 1227 C 112.081 2.67854 -2.40379 0
M  V30 1228 C 111.689 2.27408 -3.85992 0
M  V30 1229 C 113.433 3.45641 -2.46439 0
M  V30 1230 C 111.34 3.43819 -4.81189 0
M  V30 1231 H 110.27 0.556606 -0.508631 0
M  V30 1232 H 112.921 0.792216 -1.65518 0
M  V30 1233 H 111.303 3.3896 -2.04749 0
M  V30 1234 H 112.477 1.63795 -4.30706 0
M  V30 1235 H 110.792 1.62692 -3.83302 0
M  V30 1236 H 113.389 4.32244 -3.14753 0
M  V30 1237 H 113.732 3.88669 -1.49139 0
M  V30 1238 H 114.265 2.8157 -2.81004 0
M  V30 1239 H 111.004 3.05834 -5.79781 0
M  V30 1240 H 110.524 4.06385 -4.41148 0
M  V30 1241 H 112.203 4.10043 -5.00474 0
M  V30 1242 N 112.336 1.25143 0.95797 0
M  V30 1243 C 113.576 1.10893 1.71703 0
M  V30 1244 C 113.94 -0.34478 1.88879 0
M  V30 1245 O 115.141 -0.609014 2.6181 0
M  V30 1246 C 113.412 1.83889 3.06463 0
M  V30 1247 S 114.971 1.85491 3.97666 0
M  V30 1248 H 111.789 0.396428 0.590226 0
M  V30 1249 H 114.391 1.58618 1.14283 0
M  V30 1250 H 113.095 2.88756 2.9163 0
M  V30 1251 H 112.626 1.36538 3.68946 0
M  V30 1252 H 114.641 0.929553 4.87415 0
M  V30 1253 N 113.814 -1.1601 1.06675 0
M  V30 1254 C 115.062 -1.86264 0.784229 0
M  V30 1255 C 115.383 -1.82328 -0.691488 0
M  V30 1256 O 114.653 -1.25947 -1.50047 0
M  V30 1257 H 113.233 -0.689621 0.28711 0
M  V30 1258 H 115.895 -1.40664 1.34906 0
M  V30 1259 H 114.991 -2.91595 1.11259 0
M  V30 1260 N 115.292 -0.849877 -1.32721 0
M  V30 1261 C 116.54 -0.450032 -1.97026 0
M  V30 1262 C 116.861 0.996604 -1.67609 0
M  V30 1263 O 116.131 1.6958 -0.980786 0
M  V30 1264 H 114.711 -0.163426 -0.728904 0
M  V30 1265 H 117.373 -1.08526 -1.6189 0
M  V30 1266 H 116.469 -0.591146 -3.0645 0
M  V30 1267 N 116.77 1.45427 -0.607355 0
M  V30 1268 C 117.717 2.3053 0.111625 0
M  V30 1269 C 118.687 1.4209 0.860216 0
M  V30 1270 O 119.872 1.71019 0.845998 0
M  V30 1271 C 117.012 3.26992 1.10319 0
M  V30 1272 C 116.125 4.30535 0.355493 0
M  V30 1273 C 115.26 5.14105 1.33676 0
M  V30 1274 C 114.299 6.09376 0.576862 0
M  V30 1275 N 113.436 6.85727 1.5074 0
M  V30 1276 H 118.276 2.91477 -0.620093 0
M  V30 1277 H 115.813 1.43631 -0.317594 0
M  V30 1278 H 117.771 3.81385 1.6912 0
M  V30 1279 H 116.401 2.67799 1.80232 0
M  V30 1280 H 115.453 3.78805 -0.348023 0
M  V30 1281 H 116.765 4.98235 -0.237423 0
M  V30 1282 H 115.919 5.72897 1.99684 0
M  V30 1283 H 114.658 4.46423 1.9636 0
M  V30 1284 H 113.663 5.49715 -0.0968519 0
M  V30 1285 H 114.888 6.79085 -0.0449341 0
M  V30 1286 H 112.834 6.20735 2.12189 0
M  V30 1287 H 112.751 7.49778 0.967913 0
M  V30 1288 H 114.019 7.4906 2.15706 0
M  V30 1289 N 118.248 0.346503 1.53744 0
M  V30 1290 C 119.195 -0.508914 2.25119 0
M  V30 1291 C 120.165 -1.09315 1.25058 0
M  V30 1292 O 121.35 -1.12921 1.53797 0
M  V30 1293 C 118.49 -1.65246 3.02965 0
M  V30 1294 C 117.603 -1.09525 4.17886 0
M  V30 1295 C 116.738 -2.20634 4.83212 0
M  V30 1296 C 115.777 -1.62279 5.90196 0
M  V30 1297 N 114.914 -2.67143 6.49291 0
M  V30 1298 H 119.754 0.106283 2.9781 0
M  V30 1299 H 117.291 0.0642227 1.4696 0
M  V30 1300 H 119.249 -2.32574 3.4636 0
M  V30 1301 H 117.879 -2.2386 2.32565 0
M  V30 1302 H 116.931 -0.312818 3.79112 0
M  V30 1303 H 118.243 -0.628444 4.94825 0
M  V30 1304 H 117.397 -2.95821 5.29693 0
M  V30 1305 H 116.136 -2.70659 4.05703 0
M  V30 1306 H 115.141 -0.855989 5.43096 0
M  V30 1307 H 116.366 -1.13102 6.69615 0
M  V30 1308 H 114.312 -3.16417 5.74645 0
M  V30 1309 H 114.229 -2.25093 7.21713 0
M  V30 1310 H 115.497 -3.4209 7.00425 0
M  V30 1311 N 119.726 -1.57421 0.075193 0
M  V30 1312 C 120.951 -1.98364 -0.605515 0
M  V30 1313 C 121.376 -0.953383 -1.62149 0
M  V30 1314 O 120.734 0.0806053 -1.81121 0
M  V30 1315 C 120.782 -3.38332 -1.24756 0
M  V30 1316 O 119.886 -3.37959 -2.36342 0
M  V30 1317 H 119.227 -0.645553 -0.155428 0
M  V30 1318 H 121.757 -2.04044 0.150714 0
M  V30 1319 H 121.767 -3.75591 -1.5936 0
M  V30 1320 H 120.442 -4.12846 -0.503129 0
M  V30 1321 H 119.019 -3.12474 -2.03506 0
M  V30 1322 N 121.204 0.198386 -1.56346 0
M  V30 1323 C 122.154 1.2499 -1.90687 0
M  V30 1324 C 123.138 1.41158 -0.772217 0
M  V30 1325 O 124.33 1.43584 -1.03502 0
M  V30 1326 C 121.459 2.59542 -2.24706 0
M  V30 1327 C 120.545 2.47181 -3.44619 0
M  V30 1328 N 120.936 2.04495 -4.62618 0
M  V30 1329 C 119.234 2.78082 -3.48692 0
M  V30 1330 C 119.935 2.03945 -5.44776 0
M  V30 1331 N 118.911 2.45323 -4.85095 0
M  V30 1332 H 122.713 0.911149 -2.7942 0
M  V30 1333 H 120.227 0.40684 -1.57221 0
M  V30 1334 H 122.224 3.3549 -2.47491 0
M  V30 1335 H 120.884 2.94244 -1.37298 0
M  V30 1336 H 121.895 1.75256 -4.87345 0
M  V30 1337 H 118.572 3.17002 -2.71691 0
M  V30 1338 H 119.962 1.72872 -6.4928 0
M  V30 1339 N 122.682 1.50554 0.465978 0
M  V30 1340 C 123.931 1.61038 1.21448 0
M  V30 1341 C 124.244 0.31865 1.92987 0
M  V30 1342 O 125.45 0.302469 2.6981 0
M  V30 1343 C 123.906 2.84283 2.20706 0
M  V30 1344 C 123.514 4.20352 1.54946 0
M  V30 1345 C 125.258 3.04115 2.96166 0
M  V30 1346 C 123.165 5.34778 2.5252 0
M  V30 1347 H 122.095 0.599718 0.457005 0
M  V30 1348 H 124.746 1.7699 0.484424 0
M  V30 1349 H 123.128 2.61901 2.97025 0
M  V30 1350 H 124.302 4.53008 0.843811 0
M  V30 1351 H 122.617 4.06167 0.917475 0
M  V30 1352 H 125.214 3.86774 3.69202 0
M  V30 1353 H 125.557 2.16045 3.55852 0
M  V30 1354 H 126.09 3.26702 2.26959 0
M  V30 1355 H 122.829 6.25018 1.97566 0
M  V30 1356 H 122.349 5.06534 3.21222 0
M  V30 1357 H 124.028 5.65561 3.14245 0
M  V30 1358 N 124.16 -0.719506 1.40217 0
M  V30 1359 C 125.576 -1.02707 1.22161 0
M  V30 1360 C 125.776 -2.0128 0.0940557 0
M  V30 1361 O 124.832 -2.46452 -0.549318 0
M  V30 1362 C 126.145 -1.57454 2.56181 0
M  V30 1363 C 127.693 -1.69458 2.63159 0
M  V30 1364 C 128.168 -2.27611 3.97438 0
M  V30 1365 N 129.659 -2.35002 3.99159 0
M  V30 1366 C 130.394 -2.80972 4.99842 0
M  V30 1367 N 129.89 -3.26723 6.10921 0
M  V30 1368 N 131.683 -2.80321 4.87213 0
M  V30 1369 H 123.834 -0.0660492 2.12297 0
M  V30 1370 H 126.097 -0.0919077 0.943534 0
M  V30 1371 H 125.803 -0.924873 3.39321 0
M  V30 1372 H 125.677 -2.56036 2.76993 0
M  V30 1373 H 128.064 -2.33543 1.80393 0
M  V30 1374 H 128.145 -0.694867 2.46181 0
M  V30 1375 H 127.789 -1.6415 4.80643 0
M  V30 1376 H 127.719 -3.2829 4.11744 0
M  V30 1377 H 130.21 -2.02685 3.18947 0
M  V30 1378 H 130.523 -3.60355 6.8364 0
M  V30 1379 H 128.868 -3.24692 6.14492 0
M  V30 1380 H 132.059 -2.43912 3.9953 0
M  V30 1381 H 132.232 -3.15831 5.65822 0
M  V30 1382 N 125.638 -1.25649 -0.95132 0
M  V30 1383 C 126.866 -1.13343 -1.73092 0
M  V30 1384 C 127.281 0.312434 -1.86197 0
M  V30 1385 O 126.638 1.21465 -1.36207 0
M  V30 1386 C 126.689 -1.78602 -3.14299 0
M  V30 1387 O 126.41 -3.17537 -3.01831 0
M  V30 1388 C 127.911 -1.72119 -4.08522 0
M  V30 1389 H 125.131 -0.395181 -0.542285 0
M  V30 1390 H 127.675 -1.66076 -1.19328 0
M  V30 1391 H 125.83 -1.29832 -3.64996 0
M  V30 1392 H 126.244 -3.49676 -3.90931 0
M  V30 1393 H 127.718 -2.22435 -5.052 0
M  V30 1394 H 128.195 -0.685635 -4.33815 0
M  V30 1395 H 128.801 -2.20393 -3.63741 0
M  V30 1396 N 127.117 1.15442 -1.07289 0
M  V30 1397 C 128.047 2.22312 -0.714107 0
M  V30 1398 C 129.028 1.67467 0.298155 0
M  V30 1399 O 130.213 1.93445 0.171048 0
M  V30 1400 C 127.343 3.47124 -0.110448 0
M  V30 1401 C 126.297 4.14926 -1.04979 0
M  V30 1402 C 125.623 5.33807 -0.308924 0
M  V30 1403 C 126.923 4.64762 -2.38314 0
M  V30 1404 H 128.617 2.5258 -1.6076 0
M  V30 1405 H 126.163 1.21404 -0.77441 0
M  V30 1406 H 128.116 4.21124 0.152482 0
M  V30 1407 H 126.84 3.16187 0.81812 0
M  V30 1408 H 125.499 3.42866 -1.29764 0
M  V30 1409 H 125.147 4.99126 0.623084 0
M  V30 1410 H 124.847 5.80113 -0.935036 0
M  V30 1411 H 126.371 6.10576 -0.0537771 0
M  V30 1412 H 127.785 5.30292 -2.1786 0
M  V30 1413 H 126.182 5.21728 -2.96514 0
M  V30 1414 H 127.252 3.80434 -3.00663 0
M  V30 1415 N 128.595 0.856903 1.32268 0
M  V30 1416 C 129.528 0.247937 2.26849 0
M  V30 1417 C 130.506 -0.615382 1.50505 0
M  V30 1418 O 131.69 -0.571689 1.79622 0
M  V30 1419 C 128.817 -0.650093 3.32403 0
M  V30 1420 C 127.863 0.140138 4.2627 0
M  V30 1421 S 128.696 1.51004 5.13769 0
M  V30 1422 C 129.852 0.61778 6.22844 0
M  V30 1423 H 130.085 1.04971 2.78152 0
M  V30 1424 H 127.618 0.654665 1.39834 0
M  V30 1425 H 129.576 -1.16256 3.93694 0
M  V30 1426 H 128.237 -1.4257 2.7988 0
M  V30 1427 H 127.43 -0.543945 5.01056 0
M  V30 1428 H 127.032 0.584267 3.69408 0
M  V30 1429 H 129.324 -0.177053 6.77269 0
M  V30 1430 H 130.267 1.33636 6.95375 0
M  V30 1431 H 130.675 0.191124 5.64176 0
M  V30 1432 N 130.073 -1.45103 0.615059 0
M  V30 1433 C 131.003 -2.33339 -0.0865619 0
M  V30 1434 C 131.984 -1.4727 -0.851209 0
M  V30 1435 O 133.169 -1.76026 -0.820281 0
M  V30 1436 C 130.299 -3.30095 -1.07956 0
M  V30 1437 C 129.253 -4.25858 -0.427628 0
M  V30 1438 C 128.579 -5.12361 -1.5294 0
M  V30 1439 C 129.879 -5.18165 0.655944 0
M  V30 1440 H 131.573 -2.92254 0.650224 0
M  V30 1441 H 129.119 -1.40532 0.314138 0
M  V30 1442 H 131.072 -3.90698 -1.57901 0
M  V30 1443 H 129.796 -2.69355 -1.84703 0
M  V30 1444 H 128.455 -3.66564 0.0510292 0
M  V30 1445 H 128.103 -4.47984 -2.28734 0
M  V30 1446 H 127.803 -5.77238 -1.09865 0
M  V30 1447 H 129.327 -5.75833 -2.03098 0
M  V30 1448 H 130.741 -5.72796 0.240257 0
M  V30 1449 H 129.138 -5.91559 1.00888 0
M  V30 1450 H 130.208 -4.60144 1.52957 0
M  V30 1451 N 131.551 -0.354651 -1.53558 0
M  V30 1452 C 132.498 0.496968 -2.25386 0
M  V30 1453 C 133.468 1.0865 -1.25636 0
M  V30 1454 O 134.653 1.12104 -1.54394 0
M  V30 1455 C 131.793 1.63637 -3.03837 0
M  V30 1456 C 130.906 1.07307 -4.18461 0
M  V30 1457 C 130.041 2.18068 -4.84376 0
M  V30 1458 C 129.08 1.59147 -5.91049 0
M  V30 1459 N 128.217 2.63695 -6.50699 0
M  V30 1460 H 133.057 -0.122075 -2.9775 0
M  V30 1461 H 130.594 -0.0720154 -1.46924 0
M  V30 1462 H 132.552 2.30734 -3.47589 0
M  V30 1463 H 131.182 2.22623 -2.33749 0
M  V30 1464 H 130.234 0.292708 -3.79272 0
M  V30 1465 H 131.546 0.602193 -4.95152 0
M  V30 1466 H 130.7 2.93007 -5.31255 0
M  V30 1467 H 129.439 2.68504 -4.07133 0
M  V30 1468 H 128.444 0.827175 -5.43542 0
M  V30 1469 H 129.669 1.09549 -6.70206 0
M  V30 1470 H 127.615 3.13365 -5.76315 0
M  V30 1471 H 127.532 2.21263 -7.22896 0
M  V30 1472 H 128.8 3.3837 -7.02229 0
M  V30 1473 N 133.029 1.57378 -0.0835403 0
M  V30 1474 C 134.277 1.93547 0.581718 0
M  V30 1475 C 134.598 0.96524 1.69435 0
M  V30 1476 O 133.868 0.0153369 1.95894 0
M  V30 1477 H 132.448 0.714521 0.217874 0
M  V30 1478 H 135.11 1.94366 -0.144158 0
M  V30 1479 H 134.206 2.95665 0.999423 0
M  V30 1480 N 134.507 -0.190092 1.56449 0
M  V30 1481 C 135.437 -1.23816 1.97969 0
M  V30 1482 C 136.418 -1.47201 0.852395 0
M  V30 1483 O 137.603 -1.58854 1.1171 0
M  V30 1484 C 134.733 -2.5813 2.3235 0
M  V30 1485 C 133.687 -2.49348 3.47864 0
M  V30 1486 C 133.013 -3.8798 3.67934 0
M  V30 1487 C 134.313 -2.01424 4.81898 0
M  V30 1488 H 136.007 -0.89311 2.85769 0
M  V30 1489 H 133.553 -0.428177 1.37487 0
M  V30 1490 H 135.506 -3.31637 2.59991 0
M  V30 1491 H 134.23 -2.94386 1.41438 0
M  V30 1492 H 132.889 -1.78297 3.20321 0
M  V30 1493 H 132.537 -4.21597 2.74344 0
M  V30 1494 H 132.237 -3.82978 4.45648 0
M  V30 1495 H 133.761 -4.63101 3.97957 0
M  V30 1496 H 135.175 -2.64693 5.08538 0
M  V30 1497 H 133.572 -2.07413 5.63116 0
M  V30 1498 H 134.642 -0.967677 4.75146 0
M  V30 1499 N 135.985 -1.50799 -0.457987 0
M  V30 1500 C 137.401 -1.38515 -0.792819 0
M  V30 1501 C 137.601 -0.451409 -1.96379 0
M  V30 1502 O 136.657 0.10112 -2.52297 0
M  V30 1503 C 137.97 -2.80149 -1.09258 0
M  V30 1504 C 139.518 -2.89156 -1.19825 0
M  V30 1505 C 139.993 -4.31651 -1.53106 0
M  V30 1506 N 141.484 -4.34662 -1.60072 0
M  V30 1507 C 142.219 -5.41928 -1.87354 0
M  V30 1508 N 141.715 -6.59384 -2.12568 0
M  V30 1509 N 143.508 -5.29385 -1.88965 0
M  V30 1510 H 135.659 -2.10073 0.313511 0
M  V30 1511 H 137.922 -0.944803 0.0777862 0
M  V30 1512 H 137.628 -3.50374 -0.305084 0
M  V30 1513 H 137.502 -3.18204 -2.02549 0
M  V30 1514 H 139.889 -2.19141 -1.97639 0
M  V30 1515 H 139.97 -2.54626 -0.244821 0
M  V30 1516 H 139.614 -5.02208 -0.758266 0
M  V30 1517 H 139.544 -4.63678 -2.49621 0
M  V30 1518 H 142.035 -3.49973 -1.42573 0
M  V30 1519 H 142.348 -7.36934 -2.32696 0
M  V30 1520 H 140.693 -6.62535 -2.09933 0
M  V30 1521 H 143.884 -4.36616 -1.68772 0
M  V30 1522 H 144.057 -6.13066 -2.09891 0
M  V30 1523 N 137.463 0.71206 -1.40597 0
M  V30 1524 C 138.874 1.29135 -1.34837 0
M  V30 1525 C 139.225 1.96186 -0.0235395 0
M  V30 1526 O 138.35 1.97768 0.878444 0
M  V30 1527 C 138.945 2.34827 -2.44217 0
M  V30 1528 C 137.504 2.88371 -2.41907 0
M  V30 1529 C 136.651 1.62202 -2.24913 0
M  V30 1530 H 139.602 0.507944 -1.50352 0
M  V30 1531 H 139.623 3.15749 -2.12327 0
M  V30 1532 H 139.135 1.85996 -3.40627 0
M  V30 1533 H 137.236 3.41422 -1.49204 0
M  V30 1534 H 137.349 3.39925 -3.37621 0
M  V30 1535 H 135.713 1.874 -1.72492 0
M  V30 1536 H 136.496 1.15391 -3.23326 0
M  V30 1537 N 138.941 1.26152 0.944643 0
M  V30 1538 C 140.166 1.14363 1.7302 0
M  V30 1539 C 140.591 -0.29772 1.85729 0
M  V30 1540 O 139.949 -1.2157 1.34501 0
M  V30 1541 C 139.997 1.81378 3.11664 0
M  V30 1542 O 139.101 1.10022 3.97453 0
M  V30 1543 H 138.442 0.398694 0.53098 0
M  V30 1544 H 140.972 1.66906 1.18337 0
M  V30 1545 H 140.982 1.88064 3.62072 0
M  V30 1546 H 139.657 2.86237 3.0173 0
M  V30 1547 H 138.234 1.11287 3.55907 0
M  V30 1548 N 140.419 -1.14872 1.07899 0
M  V30 1549 C 141.835 -1.37776 0.805606 0
M  V30 1550 C 142.035 -1.92743 -0.587555 0
M  V30 1551 O 141.091 -2.13678 -1.34528 0
M  V30 1552 C 142.404 -2.34361 1.88402 0
M  V30 1553 C 143.952 -2.48012 1.90942 0
M  V30 1554 C 144.427 -3.47893 2.97883 0
M  V30 1555 N 145.918 -3.55433 2.97021 0
M  V30 1556 C 146.653 -4.32553 3.76412 0
M  V30 1557 N 146.149 -5.12959 4.65666 0
M  V30 1558 N 147.942 -4.27697 3.64735 0
M  V30 1559 H 140.093 -0.775365 1.97742 0
M  V30 1560 H 142.356 -0.403521 0.857831 0
M  V30 1561 H 142.062 -2.01098 2.88535 0
M  V30 1562 H 141.936 -3.34206 1.74889 0
M  V30 1563 H 144.323 -2.8057 0.914579 0
M  V30 1564 H 144.404 -1.48147 2.08534 0
M  V30 1565 H 144.048 -3.16069 3.97571 0
M  V30 1566 H 143.978 -4.47527 2.77538 0
M  V30 1567 H 146.469 -2.98048 2.32326 0
M  V30 1568 H 146.782 -5.69065 5.22862 0
M  V30 1569 H 145.127 -5.12245 4.69712 0
M  V30 1570 H 148.318 -3.63949 2.94378 0
M  V30 1571 H 148.491 -4.8755 4.26848 0
M  V30 1572 N 141.898 -0.863906 -1.31812 0
M  V30 1573 C 142.828 -0.330843 -2.31144 0
M  V30 1574 C 143.809 0.575005 -1.60087 0
M  V30 1575 O 144.994 0.493304 -1.8783 0
M  V30 1576 C 142.124 0.47374 -3.44054 0
M  V30 1577 C 141.078 -0.338481 -4.26659 0
M  V30 1578 C 140.404 0.591412 -5.31419 0
M  V30 1579 C 141.704 -1.56926 -4.98168 0
M  V30 1580 H 143.398 -1.16086 -2.75979 0
M  V30 1581 H 140.944 -0.559657 -1.32679 0
M  V30 1582 H 142.897 0.857143 -4.12591 0
M  V30 1583 H 141.621 1.33721 -2.9797 0
M  V30 1584 H 140.28 -0.703754 -3.59782 0
M  V30 1585 H 139.928 1.45199 -4.81587 0
M  V30 1586 H 139.628 0.0519022 -5.87577 0
M  V30 1587 H 141.152 0.97179 -6.02817 0
M  V30 1588 H 142.566 -1.25764 -5.59336 0
M  V30 1589 H 140.963 -2.04739 -5.64094 0
M  V30 1590 H 142.033 -2.32544 -4.25501 0
M  V30 1591 N 143.376 1.44774 -0.622745 0
M  V30 1592 C 144.604 2.06487 -0.130722 0
M  V30 1593 C 145.019 1.46476 1.19123 0
M  V30 1594 O 144.376 0.584502 1.72887 0
M  V30 1595 C 144.427 3.615 -0.000807207 0
M  V30 1596 O 144.148 4.19274 -1.27048 0
M  V30 1597 C 145.649 4.40229 0.520898 0
M  V30 1598 H 142.869 0.666704 -0.0758106 0
M  V30 1599 H 145.413 1.85779 -0.854774 0
M  V30 1600 H 143.568 3.81498 0.673643 0
M  V30 1601 H 143.982 5.12622 -1.1099 0
M  V30 1602 H 145.456 5.49144 0.560838 0
M  V30 1603 H 145.933 4.1108 1.54627 0
M  V30 1604 H 146.539 4.25131 -0.120018 0
M  V30 1605 N 144.854 0.36279 1.53368 0
M  V30 1606 C 146.27 0.0116182 1.59596 0
M  V30 1607 C 146.47 -1.47012 1.37803 0
M  V30 1608 O 145.526 -2.23136 1.18181 0
M  V30 1609 C 146.839 0.465052 2.97082 0
M  V30 1610 C 148.387 0.419033 3.10182 0
M  V30 1611 C 148.862 0.848235 4.50077 0
M  V30 1612 N 150.353 0.803183 4.56183 0
M  V30 1613 C 151.088 1.107 5.62613 0
M  V30 1614 N 150.584 1.47996 6.76808 0
M  V30 1615 N 152.377 1.02998 5.52583 0
M  V30 1616 H 144.528 1.32775 1.65785 0
M  V30 1617 H 146.791 0.542518 0.777417 0
M  V30 1618 H 146.497 1.49892 3.18159 0
M  V30 1619 H 146.371 -0.149786 3.76902 0
M  V30 1620 H 148.758 -0.605696 2.88817 0
M  V30 1621 H 148.839 1.06933 2.32377 0
M  V30 1622 H 148.483 1.87107 4.7218 0
M  V30 1623 H 148.413 0.175218 5.26308 0
M  V30 1624 H 150.904 0.52838 3.74188 0
M  V30 1625 H 151.217 1.69613 7.53957 0
M  V30 1626 H 149.562 1.51859 6.78206 0
M  V30 1627 H 152.753 0.737817 4.62249 0
M  V30 1628 H 152.926 1.2701 6.35431 0
M  V30 1629 N 146.332 -1.57332 0.0918853 0
M  V30 1630 C 147.28 -2.15075 -0.885747 0
M  V30 1631 C 148.274 -1.09277 -1.29441 0
M  V30 1632 O 149.48 -1.27627 -1.26931 0
M  V30 1633 H 145.855 -0.687966 -0.303656 0
M  V30 1634 H 147.826 -2.96047 -0.373995 0
M  V30 1635 C 146.575 -2.74325 -2.13638 0
M  V30 1636 H 145.898 -3.55418 -1.8308 0
M  V30 1637 H 147.338 -3.183 -2.80109 0
M  V30 1638 C 145.797 -1.70062 -2.90827 0
M  V30 1639 O 146.327 -1.13763 -3.85254 0
M  V30 1640 N 144.533 -1.40628 -2.54307 0
M  V30 1641 H 144.08 -1.866 -1.7759 0
M  V30 1642 H 144.038 -0.711043 -3.06254 0
M  V30 1643 N 147.81 0.181792 -1.56548 0
M  V30 1644 C 149.058 0.89832 -1.81038 0
M  V30 1645 C 149.379 1.83232 -0.667164 0
M  V30 1646 O 148.649 1.93372 0.313673 0
M  V30 1647 H 147.229 0.33471 -0.667816 0
M  V30 1648 H 149.891 0.184116 -1.94028 0
M  V30 1649 H 148.987 1.4815 -2.74696 0
M  V30 1650 N 149.288 1.51039 0.449983 0
M  V30 1651 C 150.535 1.63081 1.20045 0
M  V30 1652 C 150.863 0.341024 1.91487 0
M  V30 1653 O 150.118 -0.674276 1.83717 0
M  V30 1654 C 150.417 2.77556 2.25161 0
M  V30 1655 C 150.083 4.17289 1.70823 0
M  V30 1656 C 148.745 4.55305 1.55725 0
M  V30 1657 C 151.097 5.04536 1.3074 0
M  V30 1658 C 148.425 5.78287 0.989999 0
M  V30 1659 C 150.777 6.28085 0.754482 0
M  V30 1660 C 149.441 6.64885 0.590308 0
M  V30 1661 H 148.711 0.596755 0.439277 0
M  V30 1662 H 151.358 1.85037 0.49333 0
M  V30 1663 H 149.663 2.49771 3.01863 0
M  V30 1664 H 151.36 2.84073 2.83026 0
M  V30 1665 H 147.95 3.8731 1.83546 0
M  V30 1666 H 152.134 4.75782 1.41229 0
M  V30 1667 H 147.39 6.05456 0.850451 0
M  V30 1668 H 151.564 6.95038 0.435324 0
M  V30 1669 H 149.191 7.60055 0.14862 0
M  V30 1670 N 150.766 -0.704594 1.40972 0
M  V30 1671 C 151.994 -1.49354 1.43182 0
M  V30 1672 C 152.409 -1.88768 0.0345508 0
M  V30 1673 O 151.766 -1.56184 -0.944081 0
M  V30 1674 C 151.817 -2.76187 2.33244 0
M  V30 1675 O 151.538 -2.38436 3.67532 0
M  V30 1676 C 153.039 -3.7 2.44162 0
M  V30 1677 H 150.259 -0.460559 0.487982 0
M  V30 1678 H 152.803 -0.868261 1.85153 0
M  V30 1679 H 150.958 -3.34974 1.94606 0
M  V30 1680 H 151.372 -3.20126 4.15475 0
M  V30 1681 H 152.846 -4.55803 3.11364 0
M  V30 1682 H 153.323 -4.13867 1.47006 0
M  V30 1683 H 153.929 -3.17121 2.83398 0
M  V30 1684 N 152.244 -1.26651 -0.937939 0
M  V30 1685 C 153.207 -1.08546 -2.01867 0
M  V30 1686 C 154.207 -0.0327327 -1.60767 0
M  V30 1687 O 155.397 -0.276427 -1.71993 0
M  V30 1688 C 152.529 -0.651711 -3.34613 0
M  V30 1689 H 153.722 -2.04502 -2.1936 0
M  V30 1690 H 151.275 -1.09294 -1.11734 0
M  V30 1691 H 152.01 0.309696 -3.22818 0
M  V30 1692 H 151.795 -1.41189 -3.65798 0
M  V30 1693 H 153.285 -0.546973 -4.14002 0
M  V30 1694 N 153.722 1.14298 -1.08507 0
M  V30 1695 C 154.652 2.21542 -0.737646 0
M  V30 1696 C 155.633 1.67773 0.280377 0
M  V30 1697 O 156.818 1.93616 0.150521 0
M  V30 1698 C 153.948 3.46988 -0.147259 0
M  V30 1699 C 152.902 4.13789 -1.09374 0
M  V30 1700 C 152.228 5.33449 -0.365524 0
M  V30 1701 C 153.528 4.62208 -2.4323 0
M  V30 1702 H 155.222 2.5086 -1.6343 0
M  V30 1703 H 152.768 1.20576 -0.787243 0
M  V30 1704 H 154.721 4.21262 0.107808 0
M  V30 1705 H 153.445 3.17037 0.784538 0
M  V30 1706 H 152.104 3.4147 -1.33393 0
M  V30 1707 H 151.752 4.99759 0.57011 0
M  V30 1708 H 151.452 5.79088 -0.996512 0
M  V30 1709 H 152.976 6.10485 -0.118534 0
M  V30 1710 H 154.39 5.27952 -2.23472 0
M  V30 1711 H 152.787 5.18553 -3.02031 0
M  V30 1712 H 153.857 3.77224 -3.04681 0
M  V30 1713 N 155.201 0.870884 1.31352 0
M  V30 1714 C 156.151 0.298889 2.26032 0
M  V30 1715 C 157.135 -0.564595 1.50669 0
M  V30 1716 O 158.327 -0.411323 1.72154 0
M  V30 1717 C 155.456 -0.497842 3.39671 0
M  V30 1718 C 154.542 0.378937 4.22404 0
M  V30 1719 N 154.933 1.47284 4.83881 0
M  V30 1720 C 153.231 0.171535 4.4567 0
M  V30 1721 C 153.932 2.01359 5.45738 0
M  V30 1722 N 152.908 1.31047 5.27568 0
M  V30 1723 H 156.71 1.13494 2.71102 0
M  V30 1724 H 154.224 0.718745 1.45629 0
M  V30 1725 H 156.221 -0.924155 4.06528 0
M  V30 1726 H 154.881 -1.33149 2.96144 0
M  V30 1727 H 155.892 1.85575 4.8351 0
M  V30 1728 H 152.569 -0.626091 4.12779 0
M  V30 1729 H 153.959 2.93143 6.0458 0
M  V30 1730 N 156.679 -1.44442 0.630414 0
M  V30 1731 C 157.609 -2.33418 -0.0618083 0
M  V30 1732 C 158.59 -1.48165 -0.835541 0
M  V30 1733 O 159.775 -1.76886 -0.801564 0
M  V30 1734 C 156.905 -3.31222 -1.04449 0
M  V30 1735 C 155.859 -4.26288 -0.382436 0
M  V30 1736 C 155.185 -5.13954 -1.47497 0
M  V30 1737 C 156.485 -5.1744 0.710865 0
M  V30 1738 H 158.179 -2.91548 0.681184 0
M  V30 1739 H 155.725 -1.40191 0.329026 0
M  V30 1740 H 157.678 -3.92351 -1.53748 0
M  V30 1741 H 156.402 -2.71299 -1.81836 0
M  V30 1742 H 155.061 -3.6649 0.0899054 0
M  V30 1743 H 154.709 -4.50385 -2.2397 0
M  V30 1744 H 154.409 -5.7837 -1.03737 0
M  V30 1745 H 155.933 -5.77955 -1.96979 0
M  V30 1746 H 157.347 -5.72509 0.300996 0
M  V30 1747 H 155.744 -5.90455 1.07156 0
M  V30 1748 H 156.814 -4.58496 1.57829 0
M  V30 1749 N 158.157 -0.370918 -1.53173 0
M  V30 1750 C 159.12 0.460778 -2.24521 0
M  V30 1751 C 160.12 1.00536 -1.25496 0
M  V30 1752 O 161.31 0.890266 -1.49733 0
M  V30 1753 C 158.442 1.64457 -2.98608 0
M  V30 1754 H 159.635 -0.163613 -2.99453 0
M  V30 1755 H 157.188 -0.122699 -1.55818 0
M  V30 1756 H 157.923 2.30691 -2.2793 0
M  V30 1757 H 157.708 1.26099 -3.7127 0
M  V30 1758 H 159.198 2.23384 -3.5283 0
M  V30 1759 N 159.635 1.57281 -0.100228 0
M  V30 1760 C 160.881 1.94826 0.563101 0
M  V30 1761 C 161.214 0.982475 1.67514 0
M  V30 1762 O 160.489 0.0164069 1.94493 0
M  V30 1763 C 160.772 3.42453 1.11346 0
M  V30 1764 C 160.625 4.498 0.00612081 0
M  V30 1765 C 161.944 3.91506 2.01024 0
M  V30 1766 H 159.063 0.708428 0.203221 0
M  V30 1767 H 161.705 1.8922 -0.171979 0
M  V30 1768 H 159.855 3.47361 1.7399 0
M  V30 1769 H 161.527 4.57 -0.628357 0
M  V30 1770 H 159.77 4.28756 -0.659581 0
M  V30 1771 H 160.441 5.50306 0.432109 0
M  V30 1772 H 162.917 3.88784 1.48278 0
M  V30 1773 H 161.793 4.95358 2.36457 0
M  V30 1774 H 162.054 3.31099 2.92961 0
M  V30 1775 N 161.113 -0.173488 1.56642 0
M  V30 1776 C 162.343 -0.904781 1.85734 0
M  V30 1777 C 162.751 -1.76431 0.68328 0
M  V30 1778 O 162.094 -1.802 -0.356865 0
M  V30 1779 C 162.156 -1.83382 3.09211 0
M  V30 1780 C 161.82 -1.15411 4.42187 0
M  V30 1781 C 162.817 -0.520609 5.17287 0
M  V30 1782 C 160.502 -1.15151 4.88923 0
M  V30 1783 C 162.496 0.106412 6.37311 0
M  V30 1784 C 160.183 -0.520664 6.08878 0
M  V30 1785 C 161.181 0.107196 6.82916 0
M  V30 1786 O 160.869 0.728102 8.00596 0
M  V30 1787 H 160.601 -0.268408 0.62043 0
M  V30 1788 H 163.155 -0.179096 2.04618 0
M  V30 1789 H 161.385 -2.59976 2.86268 0
M  V30 1790 H 163.074 -2.43476 3.24768 0
M  V30 1791 H 163.84 -0.514606 4.82262 0
M  V30 1792 H 159.719 -1.62961 4.31236 0
M  V30 1793 H 163.263 0.597081 6.9504 0
M  V30 1794 H 159.16 -0.524242 6.43368 0
M  V30 1795 H 159.928 0.627138 8.16094 0
M  V30 1796 N 162.591 -1.51276 -0.441967 0
M  V30 1797 C 163.538 -1.72256 -1.53612 0
M  V30 1798 C 164.508 -0.564164 -1.56225 0
M  V30 1799 O 165.693 -0.798074 -1.73307 0
M  V30 1800 C 162.833 -1.84932 -2.91366 0
M  V30 1801 C 161.946 -3.12459 -2.98317 0
M  V30 1802 C 161.081 -3.15758 -4.27166 0
M  V30 1803 C 160.12 -4.37619 -4.27967 0
M  V30 1804 N 159.257 -4.38493 -5.48333 0
M  V30 1805 H 164.097 -2.65654 -1.35026 0
M  V30 1806 H 161.634 -1.31662 -0.656009 0
M  V30 1807 H 163.592 -1.90263 -3.7129 0
M  V30 1808 H 162.222 -0.949461 -3.08521 0
M  V30 1809 H 161.274 -3.1646 -2.11086 0
M  V30 1810 H 162.586 -4.02382 -2.94771 0
M  V30 1811 H 161.74 -3.19979 -5.15459 0
M  V30 1812 H 160.479 -2.23715 -4.33362 0
M  V30 1813 H 159.484 -4.33579 -3.38067 0
M  V30 1814 H 160.709 -5.30921 -4.23438 0
M  V30 1815 H 158.655 -3.49318 -5.55259 0
M  V30 1816 H 158.572 -5.22219 -5.46647 0
M  V30 1817 H 159.84 -4.469 -6.38671 0
M  V30 1818 N 164.069 0.697108 -1.41344 0
M  V30 1819 C 165.346 1.45154 -1.31109 0
M  V30 1820 C 165.726 2.11009 0.0620449 0
M  V30 1821 O 165.074 2.01571 1.07618 0
M  V30 1822 C 165.284 2.47223 -2.46337 0
M  V30 1823 C 166.632 3.1252 -2.87431 0
M  V30 1824 O 167.656 2.57547 -2.46065 0
M  V30 1825 O 166.515 4.12083 -3.58957 0
M  V30 1826 H 163.609 0.646365 -0.515889 0
M  V30 1827 H 166.155 0.727716 -1.53305 0
M  V30 1828 H 164.927 1.97204 -3.37974 0
M  V30 1829 H 164.55 3.27116 -2.2601 0
M  V30 1830 N 165.547 1.27147 0.931209 0
M  V30 1831 C 166.495 1.09398 2.05268 0
M  V30 1832 C 167.489 0.0180591 1.6939 0
M  V30 1833 O 168.695 0.17551 1.79142 0
M  V30 1834 H 165.07 0.336986 0.672268 0
M  V30 1835 H 167.041 2.04416 2.17386 0
M  V30 1836 C 165.79 0.75424 3.39421 0
M  V30 1837 H 165.113 1.57404 3.67511 0
M  V30 1838 H 166.553 0.669903 4.18674 0
M  V30 1839 C 165.012 -0.541197 3.32525 0
M  V30 1840 O 165.542 -1.57664 3.69466 0
M  V30 1841 N 163.748 -0.535517 2.85623 0
M  V30 1842 H 163.295 0.307511 2.55758 0
M  V30 1843 H 163.253 -1.40236 2.81392 0
M  V30 1844 N 167.025 -1.13721 1.09112 0
M  V30 1845 C 167.988 -2.17222 0.731241 0
M  V30 1846 C 168.988 -1.59035 -0.237566 0
M  V30 1847 O 170.178 -1.74192 -0.0161704 0
M  V30 1848 C 167.31 -3.40804 0.0808443 0
M  V30 1849 H 168.503 -2.50573 1.64783 0
M  V30 1850 H 166.056 -1.28493 0.889897 0
M  V30 1851 H 166.791 -3.1304 -0.847127 0
M  V30 1852 H 166.576 -3.84306 0.777896 0
M  V30 1853 H 168.066 -4.1731 -0.155657 0
M  V30 1854 N 168.503 -0.877838 -1.30888 0
M  V30 1855 C 169.413 -0.343096 -2.32078 0
M  V30 1856 C 170.429 0.551022 -1.65045 0
M  V30 1857 O 171.605 0.445854 -1.96403 0
M  V30 1858 C 168.67 0.439905 -3.43898 0
M  V30 1859 C 167.731 -0.483111 -4.26573 0
M  V30 1860 C 166.964 0.262616 -5.33053 0
M  V30 1861 O 167.187 1.48967 -5.50604 0
M  V30 1862 O 166.121 -0.383593 -6.00676 0
M  V30 1863 H 169.947 -1.18203 -2.79753 0
M  V30 1864 H 167.532 -0.64145 -1.34929 0
M  V30 1865 H 169.414 0.883504 -4.12034 0
M  V30 1866 H 168.089 1.25526 -2.98371 0
M  V30 1867 H 166.996 -0.975374 -3.61161 0
M  V30 1868 H 168.329 -1.26427 -4.75686 0
M  V30 1869 N 169.982 1.44106 -0.638065 0
M  V30 1870 C 170.912 2.33448 0.0494287 0
M  V30 1871 C 171.893 1.48606 0.827672 0
M  V30 1872 O 173.078 1.77308 0.792173 0
M  V30 1873 C 170.208 3.31771 1.02691 0
M  V30 1874 C 169.162 4.26485 0.359823 0
M  V30 1875 C 168.488 5.14729 1.44769 0
M  V30 1876 C 169.788 5.17056 -0.738296 0
M  V30 1877 H 171.482 2.91183 -0.696636 0
M  V30 1878 H 169.028 1.40014 -0.336456 0
M  V30 1879 H 170.981 3.93161 1.51666 0
M  V30 1880 H 169.705 2.7226 1.80395 0
M  V30 1881 H 168.364 3.66437 -0.10934 0
M  V30 1882 H 168.012 4.51566 2.21578 0
M  V30 1883 H 167.712 5.78913 1.00668 0
M  V30 1884 H 169.236 5.78991 1.93911 0
M  V30 1885 H 170.65 5.72342 -0.331354 0
M  V30 1886 H 169.047 5.89879 -1.10286 0
M  V30 1887 H 170.117 4.57652 -1.60258 0
M  V30 1888 N 171.46 0.379036 1.52974 0
M  V30 1889 C 172.709 -0.207612 2.00629 0
M  V30 1890 C 173.022 -1.48758 1.27006 0
M  V30 1891 O 174.228 -2.15365 1.65318 0
M  V30 1892 C 172.684 -0.42053 3.57435 0
M  V30 1893 C 172.292 0.845587 4.39948 0
M  V30 1894 C 174.036 -0.964102 4.13407 0
M  V30 1895 C 171.943 0.601513 5.88333 0
M  V30 1896 H 170.873 -0.0813591 0.749598 0
M  V30 1897 H 173.524 0.499853 1.76561 0
M  V30 1898 H 171.906 -1.18959 3.7771 0
M  V30 1899 H 173.08 1.61848 4.31442 0
M  V30 1900 H 171.395 1.31336 3.95145 0
M  V30 1901 H 173.992 -1.16225 5.21916 0
M  V30 1902 H 174.335 -1.93019 3.68849 0
M  V30 1903 H 174.868 -0.25487 3.96983 0
M  V30 1904 H 171.607 1.53831 6.37194 0
M  V30 1905 H 171.127 -0.132628 5.99653 0
M  V30 1906 H 172.806 0.232134 6.46583 0
M  V30 1907 N 172.938 -1.57226 0.108567 0
M  V30 1908 C 174.166 -1.99179 -0.559954 0
M  V30 1909 C 174.581 -0.988022 -1.60884 0
M  V30 1910 O 173.938 0.0205512 -1.82488 0
M  V30 1911 C 173.989 -3.41159 -1.19552 0
M  V30 1912 O 173.71 -4.37694 -0.188577 0
M  V30 1913 C 175.211 -3.98188 -1.94837 0
M  V30 1914 H 172.431 -0.654228 -0.149088 0
M  V30 1915 H 174.975 -2.03598 0.19183 0
M  V30 1916 H 173.13 -3.37711 -1.89815 0
M  V30 1917 H 173.544 -5.20469 -0.649014 0
M  V30 1918 H 175.018 -4.99644 -2.34648 0
M  V30 1919 H 175.495 -3.3675 -2.81951 0
M  V30 1920 H 176.101 -4.0515 -1.2936 0
M  V30 1921 N 174.416 0.165178 -1.56732 0
M  V30 1922 C 175.641 0.900253 -1.86843 0
M  V30 1923 C 176.066 1.74766 -0.695596 0
M  V30 1924 O 175.424 1.77786 0.35522 0
M  V30 1925 C 175.472 1.74777 -3.15413 0
M  V30 1926 O 174.576 2.85007 -2.98068 0
M  V30 1927 H 173.917 0.251832 -0.614391 0
M  V30 1928 H 176.447 0.161468 -2.03962 0
M  V30 1929 H 176.457 2.14646 -3.46974 0
M  V30 1930 H 175.132 1.12537 -4.00385 0
M  V30 1931 H 173.709 2.48676 -2.77875 0
M  V30 1932 N 175.894 1.51508 0.433938 0
M  V30 1933 C 176.824 1.76016 1.53429 0
M  V30 1934 C 177.805 0.610112 1.58782 0
M  V30 1935 O 178.99 0.853177 1.74455 0
M  V30 1936 C 176.12 1.88831 2.9148 0
M  V30 1937 C 175.074 3.04288 3.00987 0
M  V30 1938 C 174.4 3.0229 4.4105 0
M  V30 1939 C 175.7 4.44193 2.74754 0
M  V30 1940 H 177.394 2.68152 1.33171 0
M  V30 1941 H 174.94 1.29035 0.639214 0
M  V30 1942 H 176.893 2.04559 3.6842 0
M  V30 1943 H 175.617 0.933455 3.12976 0
M  V30 1944 H 174.276 2.8827 2.26486 0
M  V30 1945 H 173.924 2.04576 4.59519 0
M  V30 1946 H 173.624 3.79822 4.4834 0
M  V30 1947 H 175.148 3.20116 5.1996 0
M  V30 1948 H 176.562 4.60544 3.41426 0
M  V30 1949 H 174.959 5.23457 2.9345 0
M  V30 1950 H 176.029 4.53996 1.70339 0
M  V30 1951 N 177.372 -0.689602 1.41712 0
M  V30 1952 C 178.302 -1.81577 1.46806 0
M  V30 1953 C 179.283 -1.66945 0.326105 0
M  V30 1954 O 180.468 -1.86588 0.538377 0
M  V30 1955 C 177.598 -3.19762 1.35535 0
M  V30 1956 C 176.552 -3.49107 2.47605 0
M  V30 1957 C 175.878 -4.86711 2.21397 0
M  V30 1958 C 177.178 -3.47483 3.89939 0
M  V30 1959 H 178.872 -1.7757 2.41058 0
M  V30 1960 H 176.418 -0.852887 1.16025 0
M  V30 1961 H 178.371 -3.98263 1.3771 0
M  V30 1962 H 177.095 -3.24409 0.377708 0
M  V30 1963 H 175.754 -2.72959 2.44722 0
M  V30 1964 H 175.402 -4.8799 1.21961 0
M  V30 1965 H 175.102 -5.0731 2.96497 0
M  V30 1966 H 176.626 -5.67515 2.25297 0
M  V30 1967 H 178.04 -4.1598 3.94505 0
M  V30 1968 H 176.437 -3.79615 4.64771 0
M  V30 1969 H 177.507 -2.46341 4.17665 0
M  V30 1970 N 178.85 -1.27639 -0.924453 0
M  V30 1971 C 179.8 -1.07295 -2.01176 0
M  V30 1972 C 180.784 5.77352e-05 -1.609 0
M  V30 1973 O 181.976 -0.218855 -1.75642 0
M  V30 1974 C 179.105 -0.725592 -3.35544 0
M  V30 1975 C 178.191 -1.83691 -3.82254 0
M  V30 1976 N 178.582 -3.07697 -4.01443 0
M  V30 1977 C 176.88 -1.72433 -4.11319 0
M  V30 1978 C 177.581 -3.80037 -4.40394 0
M  V30 1979 N 176.557 -3.0782 -4.48049 0
M  V30 1980 H 180.359 -2.01399 -2.14046 0
M  V30 1981 H 177.873 -1.18401 -1.11153 0
M  V30 1982 H 179.87 -0.560959 -4.13109 0
M  V30 1983 H 178.53 0.207782 -3.24034 0
M  V30 1984 H 179.541 -3.43424 -3.8766 0
M  V30 1985 H 176.218 -0.862005 -4.08504 0
M  V30 1986 H 177.608 -4.86632 -4.63291 0
M  V30 1987 N 180.328 1.1314 -1.09713 0
M  V30 1988 C 181.553 1.88862 -0.857081 0
M  V30 1989 C 181.978 1.78729 0.586304 0
M  V30 1990 O 181.336 1.13692 1.41222 0
M  V30 1991 C 181.384 3.36325 -1.30069 0
M  V30 1992 O 180.488 4.09815 -0.461007 0
M  V30 1993 H 179.829 0.587108 -0.310162 0
M  V30 1994 H 182.359 1.43129 -1.46203 0
M  V30 1995 H 182.369 3.87157 -1.28738 0
M  V30 1996 H 181.044 3.43017 -2.35185 0
M  V30 1997 H 179.621 3.68986 -0.538888 0
M  V30 1998 N 181.806 0.884767 1.30421 0
M  V30 1999 C 183.054 0.502112 1.95763 0
M  V30 2000 C 183.375 -0.951815 1.70192 0
M  V30 2001 O 182.645 -1.6692 1.0254 0
M  V30 2002 H 181.225 0.182694 0.724315 0
M  V30 2003 H 183.887 1.1278 1.58955 0
M  V30 2004 H 182.983 0.672188 3.04775 0
M  V30 2005 N 183.284 -1.43765 0.645699 0
M  V30 2006 C 184.247 -2.29163 -0.0409488 0
M  V30 2007 C 185.247 -1.41813 -0.757996 0
M  V30 2008 O 186.437 -1.63527 -0.600382 0
M  V30 2009 C 183.569 -3.23716 -1.06869 0
M  V30 2010 H 184.762 -2.91366 0.710345 0
M  V30 2011 H 182.315 -1.5092 0.406547 0
M  V30 2012 H 183.05 -2.66393 -1.84947 0
M  V30 2013 H 182.835 -3.88105 -0.558277 0
M  V30 2014 H 184.325 -3.87831 -1.54845 0
M  V30 2015 N 184.763 -0.387143 -1.52771 0
M  V30 2016 C 186.04 0.253197 -1.93954 0
M  V30 2017 C 186.42 1.64545 -1.32243 0
M  V30 2018 O 185.768 2.23191 -0.489699 0
M  V30 2019 C 185.978 0.281722 -3.47861 0
M  V30 2020 C 187.326 0.511715 -4.21505 0
M  V30 2021 O 188.35 0.362023 -3.54356 0
M  V30 2022 O 187.209 0.804847 -5.40541 0
M  V30 2023 H 184.303 0.156845 -0.811991 0
M  V30 2024 H 186.849 -0.441494 -1.63856 0
M  V30 2025 H 185.621 -0.693571 -3.85104 0
M  V30 2026 H 185.244 1.02142 -3.84256 0
M  V30 2027 N 186.241 1.57166 -0.116904 0
M  V30 2028 C 187.49 1.94298 0.541407 0
M  V30 2029 C 187.803 1.00236 1.67964 0
M  V30 2030 O 189.009 1.26826 2.40057 0
M  V30 2031 C 187.465 3.45306 1.01449 0
M  V30 2032 C 187.073 4.47899 -0.0951738 0
M  V30 2033 C 188.817 3.91361 1.6443 0
M  V30 2034 C 186.724 5.90083 0.394491 0
M  V30 2035 H 185.654 0.725308 0.206019 0
M  V30 2036 H 188.305 1.82446 -0.196419 0
M  V30 2037 H 186.687 3.52385 1.80667 0
M  V30 2038 H 187.861 4.52486 -0.871374 0
M  V30 2039 H 186.176 4.11583 -0.631505 0
M  V30 2040 H 188.773 4.95004 2.02176 0
M  V30 2041 H 189.116 3.3122 2.52189 0
M  V30 2042 H 189.649 3.87073 0.917559 0
M  V30 2043 H 186.388 6.53974 -0.447004 0
M  V30 2044 H 185.908 5.88921 1.13722 0
M  V30 2045 H 187.587 6.41307 0.856399 0
M  V30 2046 N 187.719 -0.156864 1.56817 0
M  V30 2047 C 188.651 -1.21883 1.94106 0
M  V30 2048 C 189.664 -1.3971 0.835754 0
M  V30 2049 O 190.853 -1.39457 1.11418 0
M  V30 2050 C 187.953 -2.58527 2.19127 0
M  V30 2051 C 187.126 -2.61809 3.50393 0
M  V30 2052 C 186.185 -3.7992 3.64071 0
M  V30 2053 O 185.211 -3.65249 4.36557 0
M  V30 2054 N 186.413 -4.96973 2.99997 0
M  V30 2055 H 189.178 -0.901974 2.85805 0
M  V30 2056 H 186.739 -0.346513 1.58148 0
M  V30 2057 H 188.731 -3.36034 2.25529 0
M  V30 2058 H 187.301 -2.82545 1.33742 0
M  V30 2059 H 186.521 -1.7029 3.5552 0
M  V30 2060 H 187.809 -2.61024 4.36742 0
M  V30 2061 H 187.207 -5.11794 2.41004 0
M  V30 2062 H 185.764 -5.7229 3.11974 0
M  V30 2063 N 189.197 -1.51736 -0.425897 0
M  V30 2064 C 190.129 -1.70083 -1.53638 0
M  V30 2065 C 191.142 -0.581349 -1.52066 0
M  V30 2066 O 192.331 -0.856017 -1.56635 0
M  V30 2067 C 189.431 -1.71078 -2.9255 0
M  V30 2068 C 188.604 -2.99795 -3.185 0
M  V30 2069 C 187.663 -2.92825 -4.37196 0
M  V30 2070 O 186.689 -3.66756 -4.35291 0
M  V30 2071 N 187.891 -2.0946 -5.41393 0
M  V30 2072 H 190.656 -2.65882 -1.383 0
M  V30 2073 H 188.217 -1.49765 -0.614988 0
M  V30 2074 H 190.209 -1.63969 -3.69995 0
M  V30 2075 H 188.779 -0.828242 -3.01428 0
M  V30 2076 H 187.999 -3.20684 -2.2925 0
M  V30 2077 H 189.287 -3.84977 -3.32671 0
M  V30 2078 H 188.685 -1.48792 -5.45781 0
M  V30 2079 H 187.242 -2.08221 -6.17647 0
M  V30 2080 N 190.675 0.682077 -1.42076 0
M  V30 2081 C 191.921 1.44428 -1.42367 0
M  V30 2082 C 192.254 1.94164 -0.0373056 0
M  V30 2083 O 191.529 1.70429 0.937239 0
M  V30 2084 C 191.812 2.64654 -2.44194 0
M  V30 2085 C 191.665 2.20596 -3.91991 0
M  V30 2086 C 192.984 3.66865 -2.431 0
M  V30 2087 H 190.103 0.523834 -0.518428 0
M  V30 2088 H 192.745 0.77576 -1.73442 0
M  V30 2089 H 190.895 3.2169 -2.17826 0
M  V30 2090 H 192.567 1.68783 -4.29313 0
M  V30 2091 H 190.81 1.52242 -4.06208 0
M  V30 2092 H 191.481 3.06921 -4.58807 0
M  V30 2093 H 193.957 3.19531 -2.66532 0
M  V30 2094 H 192.833 4.48577 -3.16339 0
M  V30 2095 H 193.094 4.17493 -1.45437 0
M  V30 2096 N 192.153 1.28127 0.917671 0
M  V30 2097 C 193.401 1.14825 1.66312 0
M  V30 2098 C 193.722 -0.304379 1.9261 0
M  V30 2099 O 192.992 -1.21149 1.53947 0
M  V30 2100 H 191.572 0.421953 0.616413 0
M  V30 2101 H 194.234 1.608 1.10134 0
M  V30 2102 H 193.33 1.68489 2.62712 0
M  V30 2103 N 193.631 -1.12557 1.10312 0
M  V30 2104 C 194.861 -1.87592 0.865617 0
M  V30 2105 C 195.269 -1.79851 -0.587389 0
M  V30 2106 O 194.612 -1.16949 -1.41664 0
M  V30 2107 C 194.674 -3.37665 1.23381 0
M  V30 2108 C 194.338 -3.69181 2.69359 0
M  V30 2109 C 195.335 -3.67652 3.67597 0
M  V30 2110 C 193.02 -3.98555 3.05711 0
M  V30 2111 C 195.014 -3.95053 5.00212 0
M  V30 2112 C 192.701 -4.25616 4.38514 0
M  V30 2113 C 193.699 -4.23851 5.35574 0
M  V30 2114 O 193.387 -4.50242 6.65986 0
M  V30 2115 H 193.119 -0.600442 0.310557 0
M  V30 2116 H 195.673 -1.4335 1.47105 0
M  V30 2117 H 193.903 -3.82454 0.571467 0
M  V30 2118 H 195.592 -3.94041 0.973994 0
M  V30 2119 H 196.358 -3.45024 3.40857 0
M  V30 2120 H 192.237 -3.99071 2.30789 0
M  V30 2121 H 195.781 -3.93591 5.75962 0
M  V30 2122 H 191.678 -4.47718 4.64994 0
M  V30 2123 H 192.446 -4.67867 6.71597 0
M  V30 2124 N 195.109 -0.891671 -1.2995 0
M  V30 2125 C 196.357 -0.512486 -1.95494 0
M  V30 2126 C 196.678 0.942776 -1.70695 0
M  V30 2127 O 195.948 1.66374 -1.03424 0
M  V30 2128 H 194.528 -0.186533 -0.723336 0
M  V30 2129 H 197.19 -1.13621 -1.58355 0
M  V30 2130 H 196.286 -0.688342 -3.04415 0
M  V30 2131 N 196.587 1.43421 -0.653314 0
M  V30 2132 C 197.835 2.01414 -0.166415 0
M  V30 2133 C 198.156 1.51803 1.22397 0
M  V30 2134 O 197.426 0.730693 1.81763 0
M  V30 2135 H 196.006 0.744703 -0.0585319 0
M  V30 2136 H 198.668 1.75629 -0.845003 0
M  V30 2137 H 197.764 3.11734 -0.151111 0
M  V30 2138 N 198.065 0.39524 1.52563 0
M  V30 2139 C 198.995 -0.428384 2.29537 0
M  V30 2140 C 199.976 -1.05831 1.33169 0
M  V30 2141 O 201.161 -1.06995 1.62067 0
M  V30 2142 C 198.291 -1.55274 3.10656 0
M  V30 2143 C 197.245 -1.04855 4.14957 0
M  V30 2144 C 196.571 -2.26543 4.84337 0
M  V30 2145 C 197.871 -0.112324 5.22179 0
M  V30 2146 H 199.565 0.213867 2.98635 0
M  V30 2147 H 197.111 0.104298 1.43622 0
M  V30 2148 H 199.064 -2.1358 3.63265 0
M  V30 2149 H 197.788 -2.22266 2.39302 0
M  V30 2150 H 196.447 -0.487985 3.63338 0
M  V30 2151 H 196.095 -2.92059 4.09525 0
M  V30 2152 H 195.795 -1.93466 5.54837 0
M  V30 2153 H 197.319 -2.85481 5.39753 0
M  V30 2154 H 198.733 -0.603752 5.70112 0
M  V30 2155 H 197.13 0.128968 5.99961 0
M  V30 2156 H 198.2 0.837052 4.77621 0
M  V30 2157 N 199.544 -1.57102 0.125237 0
M  V30 2158 C 200.772 -1.99761 -0.538797 0
M  V30 2159 C 201.187 -1.00503 -1.59827 0
M  V30 2160 O 200.544 0.00119474 -1.825 0
M  V30 2161 C 200.595 -3.42408 -1.15927 0
M  V30 2162 O 200.316 -4.37869 -0.142143 0
M  V30 2163 C 201.817 -4.00232 -1.90602 0
M  V30 2164 H 199.037 -0.655772 -0.14214 0
M  V30 2165 H 201.581 -2.03383 0.213413 0
M  V30 2166 H 199.736 -3.39706 -1.86223 0
M  V30 2167 H 200.15 -5.21128 -0.593775 0
M  V30 2168 H 201.624 -5.02105 -2.29335 0
M  V30 2169 H 202.101 -3.39721 -2.78363 0
M  V30 2170 H 202.707 -4.06499 -1.25055 0
M  V30 2171 N 201.022 0.148545 -1.56898 0
M  V30 2172 C 201.985 1.16736 -1.97244 0
M  V30 2173 C 202.985 1.35947 -0.858777 0
M  V30 2174 O 204.175 1.32966 -1.12542 0
M  V30 2175 C 201.307 2.52798 -2.28705 0
M  V30 2176 H 202.5 0.821279 -2.88435 0
M  V30 2177 H 200.053 0.391831 -1.51309 0
M  V30 2178 H 200.788 2.92381 -1.403 0
M  V30 2179 H 200.573 2.40216 -3.09901 0
M  V30 2180 H 202.063 3.26179 -2.60762 0
M  V30 2181 N 202.5 1.5196 0.417844 0
M  V30 2182 C 203.43 1.77634 1.51554 0
M  V30 2183 C 204.411 0.626918 1.58126 0
M  V30 2184 O 205.596 0.871632 1.7354 0
M  V30 2185 C 202.726 1.91911 2.8946 0
M  V30 2186 C 201.68 3.07463 2.97743 0
M  V30 2187 C 201.006 3.06951 4.37819 0
M  V30 2188 C 202.306 4.47082 2.70027 0
M  V30 2189 H 204 2.6955 1.3032 0
M  V30 2190 H 201.546 1.29706 0.625492 0
M  V30 2191 H 203.499 2.08455 3.6623 0
M  V30 2192 H 202.223 0.966598 3.11969 0
M  V30 2193 H 200.882 2.90656 2.23416 0
M  V30 2194 H 200.53 2.09438 4.57323 0
M  V30 2195 H 200.23 3.84556 4.44286 0
M  V30 2196 H 201.754 3.25613 5.16535 0
M  V30 2197 H 203.168 4.6414 3.36522 0
M  V30 2198 H 201.565 5.2654 2.87881 0
M  V30 2199 H 202.635 4.55777 1.65514 0
M  V30 2200 N 203.978 -0.674533 1.42435 0
M  V30 2201 C 204.928 -1.7807 1.4239 0
M  V30 2202 C 205.912 -1.58169 0.295202 0
M  V30 2203 O 207.104 -1.68643 0.537449 0
M  V30 2204 C 204.233 -3.16532 1.32901 0
M  V30 2205 C 203.319 -3.42055 2.50717 0
M  V30 2206 N 203.71 -3.38162 3.76139 0
M  V30 2207 C 202.008 -3.72692 2.44983 0
M  V30 2208 C 202.709 -3.63177 4.54398 0
M  V30 2209 N 201.685 -3.83954 3.84812 0
M  V30 2210 H 205.487 -1.73454 2.37257 0
M  V30 2211 H 203.001 -0.875381 1.36788 0
M  V30 2212 H 204.998 -3.958 1.30951 0
M  V30 2213 H 203.658 -3.22345 0.390363 0
M  V30 2214 H 204.669 -3.18057 4.0873 0
M  V30 2215 H 201.346 -3.85749 1.59699 0
M  V30 2216 H 202.736 -3.66125 5.63384 0
M  V30 2217 N 205.456 -1.28612 -0.910864 0
M  V30 2218 C 206.705 -1.15311 -1.65488 0
M  V30 2219 C 207.018 0.296999 -1.93332 0
M  V30 2220 O 208.224 0.551168 -2.65847 0
M  V30 2221 C 206.68 -2.01599 -2.98137 0
M  V30 2222 C 206.288 -3.51367 -2.7793 0
M  V30 2223 C 208.032 -1.96993 -3.76024 0
M  V30 2224 C 205.939 -4.29797 -4.06237 0
M  V30 2225 H 204.869 -0.42796 -0.620779 0
M  V30 2226 H 207.52 -1.53166 -1.01057 0
M  V30 2227 H 205.902 -1.56603 -3.63719 0
M  V30 2228 H 207.076 -4.0434 -2.21011 0
M  V30 2229 H 205.391 -3.57529 -2.13452 0
M  V30 2230 H 207.988 -2.52856 -4.71135 0
M  V30 2231 H 208.331 -0.94733 -4.05378 0
M  V30 2232 H 208.864 -2.39973 -3.17266 0
M  V30 2233 H 205.603 -5.32648 -3.82055 0
M  V30 2234 H 205.123 -3.81596 -4.62757 0
M  V30 2235 H 206.802 -4.39869 -4.74473 0
M  V30 2236 N 206.934 1.1197 -1.10907 0
M  V30 2237 C 207.897 2.16031 -0.765707 0
M  V30 2238 C 208.897 1.59393 0.212235 0
M  V30 2239 O 210.087 1.74196 -0.0115441 0
M  V30 2240 C 207.219 3.40632 -0.135053 0
M  V30 2241 H 208.412 2.47919 -1.68748 0
M  V30 2242 H 205.965 1.27061 -0.910226 0
M  V30 2243 H 206.7 3.14348 0.797218 0
M  V30 2244 H 206.485 3.8302 -0.838937 0
M  V30 2245 H 207.975 4.17505 0.0892469 0
M  V30 2246 N 208.412 0.89855 1.29475 0
M  V30 2247 C 209.64 0.539261 1.99749 0
M  V30 2248 C 210.055 -0.875716 1.67262 0
M  V30 2249 O 209.412 -1.57786 0.917049 0
M  V30 2250 C 209.463 0.72061 3.54245 0
M  V30 2251 O 209.184 2.07989 3.8558 0
M  V30 2252 C 210.685 0.366118 4.41786 0
M  V30 2253 H 207.905 0.207047 0.638258 0
M  V30 2254 H 210.449 1.20758 1.65039 0
M  V30 2255 H 208.604 0.0994862 3.87272 0
M  V30 2256 H 209.018 2.10841 4.80257 0
M  V30 2257 H 210.492 0.543848 5.49314 0
M  V30 2258 H 210.969 -0.696763 4.33638 0
M  V30 2259 H 211.575 0.964135 4.14228 0
M  V30 2260 N 209.89 -1.43072 0.660911 0
M  V30 2261 C 211.139 -2.00942 0.174735 0
M  V30 2262 C 211.452 -1.52797 -1.22117 0
M  V30 2263 O 212.658 -2.02991 -1.80297 0
M  V30 2264 C 211.114 -3.58948 0.261559 0
M  V30 2265 C 210.722 -4.16085 1.66064 0
M  V30 2266 C 212.466 -4.24173 -0.166617 0
M  V30 2267 C 210.373 -5.6641 1.70098 0
M  V30 2268 H 209.303 -0.751483 0.0615631 0
M  V30 2269 H 211.954 -1.63955 0.824069 0
M  V30 2270 H 210.336 -3.93372 -0.455421 0
M  V30 2271 H 211.51 -3.93147 2.40359 0
M  V30 2272 H 209.825 -3.6326 2.03546 0
M  V30 2273 H 212.422 -5.34471 -0.156433 0
M  V30 2274 H 212.765 -3.98647 -1.19943 0
M  V30 2275 H 213.298 -3.94659 0.498875 0
M  V30 2276 H 210.037 -5.96715 2.71315 0
M  V30 2277 H 209.557 -5.91382 1.00139 0
M  V30 2278 H 211.236 -6.30585 1.44816 0
M  V30 2279 N 211.368 -0.403325 -1.52352 0
M  V30 2280 C 212.331 0.413051 -2.25447 0
M  V30 2281 C 213.331 0.978513 -1.276 0
M  V30 2282 O 214.521 0.858305 -1.51587 0
M  V30 2283 C 211.653 1.58087 -3.02029 0
M  V30 2284 H 212.846 -0.227094 -2.99039 0
M  V30 2285 H 210.399 -0.155722 -1.55522 0
M  V30 2286 H 211.134 2.25804 -2.32772 0
M  V30 2287 H 210.919 1.18195 -3.73861 0
M  V30 2288 H 212.409 2.1585 -3.57489 0
M  V30 2289 N 212.846 1.57033 -0.133567 0
M  V30 2290 C 214.094 1.953 0.519848 0
M  V30 2291 C 214.415 1.01866 1.66278 0
M  V30 2292 O 213.685 0.0776513 1.95746 0
M  V30 2293 H 212.265 0.721091 0.195032 0
M  V30 2294 H 214.927 1.93809 -0.205921 0
M  V30 2295 H 214.023 2.98695 0.904854 0
M  V30 2296 N 214.325 -0.140222 1.56975 0
M  V30 2297 C 215.275 -1.17827 1.95194 0
M  V30 2298 C 216.259 -1.38195 0.824075 0
M  V30 2299 O 217.451 -1.39643 1.0876 0
M  V30 2300 C 214.58 -2.51024 2.34184 0
M  V30 2301 C 213.666 -2.3422 3.53556 0
M  V30 2302 N 214.057 -1.87185 4.69889 0
M  V30 2303 C 212.355 -2.64949 3.58773 0
M  V30 2304 C 213.056 -1.83586 5.5197 0
M  V30 2305 N 212.032 -2.2715 4.93866 0
M  V30 2306 H 215.834 -0.806817 2.82609 0
M  V30 2307 H 213.348 -0.348208 1.58623 0
M  V30 2308 H 215.345 -3.26074 2.59772 0
M  V30 2309 H 214.005 -2.88945 1.48124 0
M  V30 2310 H 215.016 -1.57048 4.93514 0
M  V30 2311 H 211.693 -3.067 2.8327 0
M  V30 2312 H 213.083 -1.48655 6.55249 0
M  V30 2313 N 215.803 -1.52179 -0.40978 0
M  V30 2314 C 216.733 -1.78435 -1.5061 0
M  V30 2315 C 217.714 -0.635295 -1.57791 0
M  V30 2316 O 218.899 -0.880823 -1.73076 0
M  V30 2317 C 216.029 -1.93444 -2.88439 0
M  V30 2318 C 214.983 -3.09038 -2.96108 0
M  V30 2319 C 214.309 -3.09268 -4.36185 0
M  V30 2320 C 215.609 -4.48508 -2.67652 0
M  V30 2321 H 217.303 -2.70237 -1.28889 0
M  V30 2322 H 214.849 -1.30036 -0.618605 0
M  V30 2323 H 216.802 -2.10394 -3.65119 0
M  V30 2324 H 215.526 -0.983129 -3.11452 0
M  V30 2325 H 214.185 -2.91837 -2.21872 0
M  V30 2326 H 213.833 -2.11861 -4.56206 0
M  V30 2327 H 213.533 -3.86907 -4.42241 0
M  V30 2328 H 215.057 -3.28348 -5.14801 0
M  V30 2329 H 216.471 -4.65918 -3.34056 0
M  V30 2330 H 214.868 -5.28059 -2.85085 0
M  V30 2331 H 215.938 -4.56649 -1.63095 0
M  V30 2332 N 217.281 0.66697 -1.42791 0
M  V30 2333 C 218.191 1.80962 -1.49299 0
M  V30 2334 C 219.207 1.69775 -0.381108 0
M  V30 2335 O 220.383 1.91188 -0.633188 0
M  V30 2336 C 217.448 3.17156 -1.40045 0
M  V30 2337 C 216.509 3.40242 -2.6179 0
M  V30 2338 C 215.742 4.69939 -2.52969 0
M  V30 2339 O 215.965 5.48372 -1.56985 0
M  V30 2340 O 214.899 4.94441 -3.43237 0
M  V30 2341 H 218.725 1.78427 -2.45759 0
M  V30 2342 H 216.31 0.823713 -1.24641 0
M  V30 2343 H 218.192 3.98413 -1.37276 0
M  V30 2344 H 216.867 3.20312 -0.467138 0
M  V30 2345 H 215.774 2.58802 -2.70134 0
M  V30 2346 H 217.107 3.41923 -3.54047 0
M  V30 2347 N 218.759 1.29093 0.90403 0
M  V30 2348 C 219.722 1.1386 1.98919 0
M  V30 2349 C 220.722 0.0753457 1.60623 0
M  V30 2350 O 221.912 0.321931 1.71199 0
M  V30 2351 C 219.044 0.740198 3.32767 0
M  V30 2352 H 220.237 2.10246 2.13861 0
M  V30 2353 H 217.79 1.12218 1.08797 0
M  V30 2354 H 218.525 -0.223997 3.23525 0
M  V30 2355 H 218.31 1.50838 3.61926 0
M  V30 2356 H 219.8 0.656546 4.12407 0
M  V30 2357 N 220.237 -1.11381 1.11499 0
M  V30 2358 C 221.2 -2.15622 0.777153 0
M  V30 2359 C 222.2 -1.59504 -0.203779 0
M  V30 2360 O 223.39 -1.74188 0.020782 0
M  V30 2361 C 220.522 -3.40556 0.153116 0
M  V30 2362 H 221.715 -2.47021 1.70061 0
M  V30 2363 H 219.268 -1.26577 0.916952 0
M  V30 2364 H 220.003 -3.14767 -0.780536 0
M  V30 2365 H 219.788 -3.8257 0.859238 0
M  V30 2366 H 221.278 -4.17546 -0.0671044 0
M  V30 2367 N 221.715 -0.905404 -1.28997 0
M  V30 2368 C 222.992 -0.453513 -1.9027 0
M  V30 2369 C 223.372 1.06721 -1.82137 0
M  V30 2370 O 222.72 1.91159 -1.25182 0
M  V30 2371 C 222.93 -0.974494 -3.35119 0
M  V30 2372 C 224.278 -1.0216 -4.12127 0
M  V30 2373 O 225.302 -0.922557 -3.44046 0
M  V30 2374 O 224.161 -1.17121 -5.33802 0
M  V30 2375 H 221.255 -0.142347 -0.814657 0
M  V30 2376 H 223.801 -0.995642 -1.37423 0
M  V30 2377 H 222.573 -2.01848 -3.35221 0
M  V30 2378 H 222.196 -0.412706 -3.95452 0
M  V30 2379 N 223.193 1.4272 -0.668489 0
M  V30 2380 C 224.439 2.01923 -0.188419 0
M  V30 2381 C 224.772 1.52704 1.19979 0
M  V30 2382 O 224.047 0.726566 1.8042 0
M  V30 2383 C 224.33 3.59451 -0.216085 0
M  V30 2384 C 224.183 4.18864 -1.6393 0
M  V30 2385 C 225.502 4.37903 0.439179 0
M  V30 2386 H 222.621 0.733674 -0.0699412 0
M  V30 2387 H 225.263 1.69822 -0.852076 0
M  V30 2388 H 223.413 3.86929 0.349012 0
M  V30 2389 H 225.085 4.02362 -2.25616 0
M  V30 2390 H 223.328 3.74933 -2.18193 0
M  V30 2391 H 223.999 5.27987 -1.61039 0
M  V30 2392 H 226.475 4.16079 -0.0417878 0
M  V30 2393 H 225.351 5.47519 0.389157 0
M  V30 2394 H 225.612 4.15303 1.51577 0
M  V30 2395 N 224.671 0.411399 1.52136 0
M  V30 2396 C 225.601 -0.404015 2.29978 0
M  V30 2397 C 226.582 -1.04412 1.34284 0
M  V30 2398 O 227.767 -1.0527 1.63192 0
M  V30 2399 C 224.897 -1.5197 3.12286 0
M  V30 2400 C 223.851 -1.00448 4.16046 0
M  V30 2401 C 223.177 -2.21393 4.86712 0
M  V30 2402 C 224.477 -0.0569336 5.22269 0
M  V30 2403 H 226.171 0.245529 2.98392 0
M  V30 2404 H 223.717 0.119525 1.43503 0
M  V30 2405 H 225.67 -2.09715 3.6551 0
M  V30 2406 H 224.394 -2.19716 2.41646 0
M  V30 2407 H 223.053 -0.449421 3.63835 0
M  V30 2408 H 222.701 -2.87699 4.12599 0
M  V30 2409 H 222.401 -1.87571 5.56858 0
M  V30 2410 H 223.925 -2.7974 5.4275 0
M  V30 2411 H 225.339 -0.54325 5.7072 0
M  V30 2412 H 223.736 0.192594 5.99791 0
M  V30 2413 H 224.806 0.887663 4.76706 0
M  V30 2414 N 226.149 -1.5696 0.141893 0
M  V30 2415 C 227.079 -2.19516 -0.795936 0
M  V30 2416 C 228.06 -1.14187 -1.26077 0
M  V30 2417 O 229.245 -1.42511 -1.31925 0
M  V30 2418 C 226.375 -2.81272 -2.03723 0
M  V30 2419 C 225.329 -3.92384 -1.70936 0
M  V30 2420 C 224.655 -4.41052 -3.02287 0
M  V30 2421 C 225.955 -5.13403 -0.959954 0
M  V30 2422 H 227.649 -2.98138 -0.274596 0
M  V30 2423 H 225.195 -1.43406 -0.130636 0
M  V30 2424 H 227.148 -3.237 -2.69808 0
M  V30 2425 H 225.872 -1.99973 -2.58221 0
M  V30 2426 H 224.531 -3.50566 -1.07232 0
M  V30 2427 H 224.179 -3.56582 -3.54765 0
M  V30 2428 H 223.879 -5.15993 -2.81114 0
M  V30 2429 H 225.403 -4.86146 -3.69451 0
M  V30 2430 H 226.817 -5.52706 -1.52279 0
M  V30 2431 H 225.214 -5.94073 -0.848357 0
M  V30 2432 H 226.284 -4.84875 0.0492434 0
M  V30 2433 N 227.627 0.131896 -1.57047 0
M  V30 2434 C 228.559 1.1878 -1.9602 0
M  V30 2435 C 229.572 1.38363 -0.857875 0
M  V30 2436 O 230.761 1.37666 -1.13623 0
M  V30 2437 C 227.861 2.55008 -2.23213 0
M  V30 2438 C 227.034 2.56201 -3.54513 0
M  V30 2439 C 226.093 3.7408 -3.70069 0
M  V30 2440 O 225.119 3.58258 -4.42312 0
M  V30 2441 N 226.321 4.92137 -3.07866 0
M  V30 2442 H 229.086 0.85639 -2.87204 0
M  V30 2443 H 226.647 0.321309 -1.5868 0
M  V30 2444 H 228.639 3.32404 -2.30846 0
M  V30 2445 H 227.209 2.80382 -1.3822 0
M  V30 2446 H 226.429 1.64613 -3.58185 0
M  V30 2447 H 227.717 2.54043 -4.4084 0
M  V30 2448 H 227.115 5.07895 -2.49116 0
M  V30 2449 H 225.672 5.67254 -3.21039 0
M  V30 2450 N 229.106 1.52395 0.401703 0
M  V30 2451 C 230.056 1.72649 1.48917 0
M  V30 2452 C 231.04 0.580436 1.50066 0
M  V30 2453 O 232.232 0.83779 1.55917 0
M  V30 2454 C 229.361 1.88729 2.86769 0
M  V30 2455 C 228.447 3.09228 2.90239 0
M  V30 2456 N 228.838 4.31805 2.63396 0
M  V30 2457 C 227.136 3.09214 3.21408 0
M  V30 2458 C 227.837 5.13326 2.73625 0
M  V30 2459 N 226.813 4.48735 3.06819 0
M  V30 2460 H 230.615 2.65058 1.26971 0
M  V30 2461 H 228.129 1.50528 0.609504 0
M  V30 2462 H 230.126 2.01358 3.65049 0
M  V30 2463 H 228.786 0.975252 3.09708 0
M  V30 2464 H 229.797 4.60154 2.37653 0
M  V30 2465 H 226.474 2.27774 3.49893 0
M  V30 2466 H 227.864 6.21003 2.56524 0
M  V30 2467 N 230.584 -0.659388 1.43143 0
M  V30 2468 C 231.832 -1.41654 1.44147 0
M  V30 2469 C 232.153 -1.94893 0.0645739 0
M  V30 2470 O 231.423 -1.74044 -0.899198 0
M  V30 2471 H 230.003 -0.525708 0.530697 0
M  V30 2472 H 232.665 -0.778097 1.78694 0
M  V30 2473 H 231.761 -2.26195 2.1504 0
M  V30 2474 N 232.062 -1.29571 -0.897171 0
M  V30 2475 C 233.025 -1.14913 -1.98312 0
M  V30 2476 C 234.025 -0.0838629 -1.60581 0
M  V30 2477 O 235.215 -0.331006 -1.71026 0
M  V30 2478 C 232.347 -0.757835 -3.3237 0
M  V30 2479 H 233.54 -2.11377 -2.12743 0
M  V30 2480 H 231.093 -1.12793 -1.08201 0
M  V30 2481 H 231.828 0.206837 -3.2364 0
M  V30 2482 H 231.613 -1.52755 -3.61121 0
M  V30 2483 H 233.103 -0.678408 -4.12053 0
M  V30 2484 N 233.54 1.10788 -1.12088 0
M  V30 2485 C 234.488 2.19111 -0.780587 0
M  V30 2486 C 235.482 1.67818 0.230961 0
M  V30 2487 O 236.688 1.79777 0.0895427 0
M  V30 2488 H 233.063 0.714477 -0.234578 0
M  V30 2489 H 235.034 2.45055 -1.70266 0
M  V30 2490 C 233.783 3.46818 -0.24747 0
M  V30 2491 H 233.106 3.86646 -1.01712 0
M  V30 2492 H 234.546 4.23973 -0.0476291 0
M  V30 2493 C 233.005 3.20968 1.02378 0
M  V30 2494 O 233.535 3.42298 2.10226 0
M  V30 2495 N 231.741 2.74658 0.949271 0
M  V30 2496 H 231.288 2.57501 0.0715173 0
M  V30 2497 H 231.246 2.57739 1.80049 0
M  V30 2498 N 235.018 0.912232 1.28515 0
M  V30 2499 C 236.264 0.545405 1.95328 0
M  V30 2500 C 236.597 -0.908313 1.71649 0
M  V30 2501 O 235.872 -1.64575 1.03659 0
M  V30 2502 C 236.155 0.853483 3.4984 0
M  V30 2503 C 236.008 2.35982 3.82926 0
M  V30 2504 C 237.327 0.348589 4.38717 0
M  V30 2505 H 234.446 0.199626 0.709449 0
M  V30 2506 H 237.088 1.1412 1.5191 0
M  V30 2507 H 235.238 0.34643 3.86952 0
M  V30 2508 H 236.91 2.93738 3.55691 0
M  V30 2509 H 235.153 2.81543 3.30024 0
M  V30 2510 H 235.824 2.52593 4.90816 0
M  V30 2511 H 238.3 0.78294 4.08668 0
M  V30 2512 H 237.176 0.593242 5.45685 0
M  V30 2513 H 237.437 -0.751049 4.35674 0
M  V30 2514 N 236.496 -1.42363 0.676048 0
M  V30 2515 C 237.444 -2.32596 -0.0131507 0
M  V30 2516 C 238.438 -1.49891 -0.789238 0
M  V30 2517 O 239.644 -1.65955 -0.697061 0
M  V30 2518 H 236.019 -0.751647 -0.0230481 0
M  V30 2519 H 237.99 -2.88421 0.765243 0
M  V30 2520 C 236.739 -3.34479 -0.949702 0
M  V30 2521 H 236.062 -3.98158 -0.361938 0
M  V30 2522 H 237.502 -4.00199 -1.4006 0
M  V30 2523 C 235.961 -2.66838 -2.05667 0
M  V30 2524 O 236.491 -2.50124 -3.14326 0
M  V30 2525 N 234.697 -2.25843 -1.82875 0
M  V30 2526 H 234.244 -2.39637 -0.945085 0
M  V30 2527 H 234.202 -1.80918 -2.5713 0
M  V30 2528 N 237.974 -0.419461 -1.51915 0
M  V30 2529 C 239.223 0.154346 -2.01109 0
M  V30 2530 C 239.536 1.45338 -1.30905 0
M  V30 2531 O 240.742 2.10906 -1.7097 0
M  V30 2532 C 239.198 0.325615 -3.58424 0
M  V30 2533 C 238.806 -0.961934 -4.37551 0
M  V30 2534 C 240.55 0.854155 -4.15818 0
M  V30 2535 C 238.457 -0.757287 -5.86531 0
M  V30 2536 H 237.387 0.0614563 -0.751491 0
M  V30 2537 H 240.038 -0.54649 -1.75173 0
M  V30 2538 H 238.42 1.08903 -3.80731 0
M  V30 2539 H 239.594 -1.7323 -4.26999 0
M  V30 2540 H 237.909 -1.41766 -3.91524 0
M  V30 2541 H 240.506 1.02346 -5.24814 0
M  V30 2542 H 240.849 1.83172 -3.73837 0
M  V30 2543 H 241.382 0.149528 -3.97519 0
M  V30 2544 H 238.121 -1.70671 -6.32892 0
M  V30 2545 H 237.641 -0.0264061 -5.99794 0
M  V30 2546 H 239.32 -0.403482 -6.45741 0
M  V30 2547 N 239.452 1.56882 -0.150215 0
M  V30 2548 C 240.384 2.14057 0.819286 0
M  V30 2549 C 241.397 1.09082 1.20851 0
M  V30 2550 O 242.586 1.36347 1.15203 0
M  V30 2551 C 239.686 2.65102 2.11127 0
M  V30 2552 C 238.859 3.94511 1.88891 0
M  V30 2553 C 237.918 4.30834 3.02107 0
M  V30 2554 O 236.944 4.99099 2.73659 0
M  V30 2555 N 238.146 3.90676 4.29363 0
M  V30 2556 H 240.911 2.97871 0.330618 0
M  V30 2557 H 238.472 1.61866 0.0332538 0
M  V30 2558 H 240.464 2.86411 2.85921 0
M  V30 2559 H 239.034 1.85994 2.51247 0
M  V30 2560 H 238.254 3.81795 0.981152 0
M  V30 2561 H 239.542 4.7907 1.71376 0
M  V30 2562 H 238.94 3.35677 4.55343 0
M  V30 2563 H 237.497 4.1703 5.00928 0
M  V30 2564 N 240.93 -0.123565 1.57115 0
M  V30 2565 C 242.207 -0.862196 1.75572 0
M  V30 2566 C 242.587 -1.98279 0.724475 0
M  V30 2567 O 241.935 -2.27102 -0.252407 0
M  V30 2568 C 242.145 -1.38309 3.20424 0
M  V30 2569 C 243.493 -1.83724 3.82793 0
M  V30 2570 O 244.517 -1.47999 3.23998 0
M  V30 2571 O 243.376 -2.49685 4.86127 0
M  V30 2572 H 240.47 -0.409113 0.718718 0
M  V30 2573 H 243.016 -0.107661 1.69358 0
M  V30 2574 H 241.788 -0.578889 3.86994 0
M  V30 2575 H 241.411 -2.20046 3.31158 0
M  V30 2576 N 242.408 -1.52605 -0.393616 0
M  V30 2577 C 243.371 -1.76415 -1.46323 0
M  V30 2578 C 244.371 -0.634126 -1.47768 0
M  V30 2579 O 245.561 -0.902142 -1.4902 0
M  V30 2580 C 242.693 -1.8607 -2.85641 0
M  V30 2581 H 243.886 -2.71916 -1.26498 0
M  V30 2582 H 241.439 -1.43257 -0.625073 0
M  V30 2583 H 242.174 -0.925378 -3.10817 0
M  V30 2584 H 241.959 -2.68235 -2.85993 0
M  V30 2585 H 243.449 -2.06179 -3.63153 0
M  V30 2586 N 243.887 0.651787 -1.4349 0
M  V30 2587 C 245.133 1.41376 -1.45398 0
M  V30 2588 C 245.466 1.94041 -0.0784823 0
M  V30 2589 O 244.741 1.72379 0.900878 0
M  V30 2590 C 245.024 2.59414 -2.49752 0
M  V30 2591 C 244.877 2.12232 -3.96582 0
M  V30 2592 C 246.196 3.61626 -2.50827 0
M  V30 2593 H 243.315 0.512719 -0.529422 0
M  V30 2594 H 245.957 0.738796 -1.75048 0
M  V30 2595 H 244.107 3.16997 -2.246 0
M  V30 2596 H 245.779 1.59639 -4.32797 0
M  V30 2597 H 244.022 1.43592 -4.09346 0
M  V30 2598 H 244.693 2.9712 -4.65214 0
M  V30 2599 H 247.169 3.13805 -2.7325 0
M  V30 2600 H 246.045 4.41766 -3.25783 0
M  V30 2601 H 246.306 4.14314 -1.5426 0
M  V30 2602 N 245.365 1.30045 0.890287 0
M  V30 2603 C 246.612 1.18561 1.64163 0
M  V30 2604 C 246.94 -0.260852 1.92743 0
M  V30 2605 O 246.195 -1.20376 1.54299 0
M  V30 2606 C 246.494 1.95409 2.99249 0
M  V30 2607 C 246.16 3.45066 2.90242 0
M  V30 2608 C 244.822 3.85878 2.87492 0
M  V30 2609 C 247.174 4.4039 2.78758 0
M  V30 2610 C 244.502 5.20314 2.7109 0
M  V30 2611 C 246.854 5.74928 2.63894 0
M  V30 2612 C 245.518 6.14986 2.59516 0
M  V30 2613 H 244.788 0.433846 0.600715 0
M  V30 2614 H 247.435 1.61088 1.03552 0
M  V30 2615 H 245.74 1.45501 3.63781 0
M  V30 2616 H 247.437 1.8392 3.56334 0
M  V30 2617 H 244.027 3.12631 2.93189 0
M  V30 2618 H 248.211 4.09806 2.79952 0
M  V30 2619 H 243.467 5.50449 2.66112 0
M  V30 2620 H 247.641 6.48434 2.53981 0
M  V30 2621 H 245.268 7.19104 2.46565 0
M  V30 2622 N 246.843 -1.10192 1.12674 0
M  V30 2623 C 248.09 -1.82205 0.883606 0
M  V30 2624 C 248.418 -1.8532 -0.590492 0
M  V30 2625 O 247.673 -1.31137 -1.45264 0
M  V30 2626 C 247.972 -3.28552 1.4067 0
M  V30 2627 C 247.638 -3.45582 2.89627 0
M  V30 2628 C 246.3 -3.49937 3.30299 0
M  V30 2629 C 248.652 -3.50768 3.85501 0
M  V30 2630 C 245.98 -3.57049 4.65546 0
M  V30 2631 C 248.332 -3.59414 5.20581 0
M  V30 2632 C 246.996 -3.62034 5.60792 0
M  V30 2633 H 246.266 -0.666735 0.323334 0
M  V30 2634 H 248.913 -1.29868 1.40736 0
M  V30 2635 H 247.218 -3.83473 0.80347 0
M  V30 2636 H 248.915 -3.82788 1.19475 0
M  V30 2637 H 245.505 -3.42871 2.57172 0
M  V30 2638 H 249.689 -3.46651 3.55171 0
M  V30 2639 H 244.945 -3.57361 4.96088 0
M  V30 2640 H 249.119 -3.62371 5.94693 0
M  V30 2641 H 246.746 -3.67298 6.6558 0
M  V30 2642 N 248.321 -0.919034 -1.28029 0
M  V30 2643 C 249.549 -0.570971 -1.98866 0
M  V30 2644 C 249.964 0.848996 -1.68634 0
M  V30 2645 O 249.321 1.56307 -0.942036 0
M  V30 2646 C 249.372 -0.776876 -3.53054 0
M  V30 2647 O 249.093 -2.14097 -3.82222 0
M  V30 2648 C 250.594 -0.436356 -4.41147 0
M  V30 2649 H 247.814 -0.217175 -0.634883 0
M  V30 2650 H 250.358 -1.23368 -1.63097 0
M  V30 2651 H 248.513 -0.161085 -3.87065 0
M  V30 2652 H 248.927 -2.18455 -4.76841 0
M  V30 2653 H 250.401 -0.63117 -5.4838 0
M  V30 2654 H 250.878 0.627686 -4.34692 0
M  V30 2655 H 251.484 -1.02991 -4.12641 0
M  V30 2656 N 249.799 1.42003 -0.683588 0
M  V30 2657 C 251.21 1.84501 -0.285736 0
M  V30 2658 C 251.561 1.57213 1.17382 0
M  V30 2659 O 250.686 1.03642 1.89966 0
M  V30 2660 C 251.281 3.34912 -0.511821 0
M  V30 2661 C 249.84 3.76025 -0.168005 0
M  V30 2662 C 248.987 2.6551 -0.799983 0
M  V30 2663 H 251.938 1.31724 -0.885119 0
M  V30 2664 H 251.959 3.79784 0.233292 0
M  V30 2665 H 251.471 3.54741 -1.57418 0
M  V30 2666 H 249.572 3.61801 0.890567 0
M  V30 2667 H 249.685 4.75141 -0.614661 0
M  V30 2668 H 248.049 2.53654 -0.230568 0
M  V30 2669 H 248.832 2.8816 -1.86597 0
M  V30 2670 N 251.277 0.427512 1.51691 0
M  V30 2671 C 252.207 -0.3796 2.30394 0
M  V30 2672 C 253.188 -1.02982 1.35384 0
M  V30 2673 O 254.373 -1.03534 1.643 0
M  V30 2674 C 251.503 -1.48649 3.1388 0
M  V30 2675 C 250.457 -0.960294 4.17088 0
M  V30 2676 C 249.783 -2.16219 4.89033 0
M  V30 2677 C 251.083 -0.00153679 5.223 0
M  V30 2678 H 252.777 0.277164 2.98114 0
M  V30 2679 H 250.323 0.134739 1.43368 0
M  V30 2680 H 252.276 -2.05826 3.67714 0
M  V30 2681 H 251 -2.1714 2.43962 0
M  V30 2682 H 249.659 -0.410806 3.64291 0
M  V30 2683 H 249.307 -2.83307 4.15628 0
M  V30 2684 H 249.007 -1.81654 5.58816 0
M  V30 2685 H 250.531 -2.73968 5.45687 0
M  V30 2686 H 251.945 -0.482687 5.71264 0
M  V30 2687 H 250.342 0.256199 5.99553 0
M  V30 2688 H 251.412 0.938174 4.75738 0
M  V30 2689 N 252.755 -1.56801 0.158532 0
M  V30 2690 C 253.705 -2.13923 -0.788738 0
M  V30 2691 C 254.689 -1.07006 -1.2016 0
M  V30 2692 O 255.881 -1.33159 -1.1661 0
M  V30 2693 C 253.01 -2.77348 -2.02319 0
M  V30 2694 C 252.096 -3.91404 -1.6329 0
M  V30 2695 N 252.487 -4.9677 -0.951463 0
M  V30 2696 C 250.785 -4.02326 -1.92482 0
M  V30 2697 C 251.486 -5.76698 -0.761221 0
M  V30 2698 N 250.462 -5.27859 -1.29869 0
M  V30 2699 H 254.264 -2.92757 -0.258995 0
M  V30 2700 H 251.778 -1.62344 -0.0426055 0
M  V30 2701 H 253.775 -3.16639 -2.71192 0
M  V30 2702 H 252.435 -1.99991 -2.558 0
M  V30 2703 H 253.446 -5.14284 -0.610928 0
M  V30 2704 H 250.123 -3.36059 -2.47732 0
M  V30 2705 H 251.513 -6.71529 -0.223284 0
M  V30 2706 N 254.233 0.115231 -1.57178 0
M  V30 2707 C 255.482 0.820945 -1.84237 0
M  V30 2708 C 255.795 1.80866 -0.744761 0
M  V30 2709 O 257.001 2.56083 -0.901871 0
M  V30 2710 C 255.457 1.51072 -3.26658 0
M  V30 2711 C 255.065 0.563795 -4.44438 0
M  V30 2712 C 256.809 2.20134 -3.62962 0
M  V30 2713 C 254.716 1.25701 -5.77887 0
M  V30 2714 H 253.646 0.310328 -0.687177 0
M  V30 2715 H 256.297 0.0737134 -1.83352 0
M  V30 2716 H 254.679 2.30471 -3.22024 0
M  V30 2717 H 255.853 -0.197247 -4.60378 0
M  V30 2718 H 254.168 -0.0200638 -4.16395 0
M  V30 2719 H 256.765 2.72696 -4.59936 0
M  V30 2720 H 257.108 2.98107 -2.90582 0
M  V30 2721 H 257.641 1.47619 -3.69396 0
M  V30 2722 H 254.38 0.518493 -6.53446 0
M  V30 2723 H 253.9 1.98997 -5.65827 0
M  V30 2724 H 255.579 1.78915 -6.2177 0
M  V30 2725 N 255.711 1.52812 0.385517 0
M  V30 2726 C 256.674 1.77188 1.45386 0
M  V30 2727 C 257.674 0.641953 1.4743 0
M  V30 2728 O 258.864 0.910033 1.4854 0
M  V30 2729 C 255.996 1.87582 2.8465 0
M  V30 2730 H 257.189 2.72583 1.25054 0
M  V30 2731 H 254.742 1.43586 0.617467 0
M  V30 2732 H 255.477 0.941849 3.10322 0
M  V30 2733 H 255.262 2.69748 2.84567 0
M  V30 2734 H 256.752 2.08102 3.62054 0
M  V30 2735 N 257.189 -0.644168 1.43834 0
M  V30 2736 C 258.152 -1.73857 1.49353 0
M  V30 2737 C 259.152 -1.56315 0.377112 0
M  V30 2738 O 260.342 -1.62048 0.639226 0
M  V30 2739 C 257.474 -3.12819 1.35488 0
M  V30 2740 H 258.667 -1.70342 2.46827 0
M  V30 2741 H 256.22 -0.856652 1.30733 0
M  V30 2742 H 256.955 -3.2194 0.390569 0
M  V30 2743 H 256.74 -3.26958 2.16428 0
M  V30 2744 H 258.23 -3.92606 1.42302 0
M  V30 2745 N 258.668 -1.30515 -0.883378 0
M  V30 2746 C 259.898 -1.22182 -1.66599 0
M  V30 2747 C 260.306 0.217507 -1.87946 0
M  V30 2748 O 259.649 1.1554 -1.42815 0
M  V30 2749 C 259.711 -1.88146 -3.06335 0
M  V30 2750 C 259.375 -3.37476 -3.08154 0
M  V30 2751 C 260.372 -4.33443 -2.87094 0
M  V30 2752 C 258.057 -3.7895 -3.29701 0
M  V30 2753 C 260.051 -5.68858 -2.8754 0
M  V30 2754 C 257.738 -5.14482 -3.29776 0
M  V30 2755 C 258.736 -6.09246 -3.0872 0
M  V30 2756 O 258.424 -7.42302 -3.08615 0
M  V30 2757 H 258.156 -0.423898 -0.52658 0
M  V30 2758 H 260.71 -1.72703 -1.11188 0
M  V30 2759 H 258.94 -1.32157 -3.63416 0
M  V30 2760 H 260.629 -1.7391 -3.66756 0
M  V30 2761 H 261.395 -4.02733 -2.70243 0
M  V30 2762 H 257.274 -3.05631 -3.45124 0
M  V30 2763 H 260.818 -6.428 -2.71024 0
M  V30 2764 H 256.715 -5.44832 -3.46163 0
M  V30 2765 H 257.483 -7.5131 -3.24769 0
M  V30 2766 N 260.146 1.09593 -1.13257 0
M  V30 2767 C 261.376 1.85231 -0.915049 0
M  V30 2768 C 261.784 1.81345 0.539498 0
M  V30 2769 O 261.127 1.20664 1.38513 0
M  V30 2770 C 261.189 3.34275 -1.3229 0
M  V30 2771 C 260.853 3.6191 -2.79052 0
M  V30 2772 C 261.85 3.57777 -3.77216 0
M  V30 2773 C 259.535 3.90309 -3.16171 0
M  V30 2774 C 261.529 3.81652 -5.1051 0
M  V30 2775 C 259.216 4.13839 -4.49644 0
M  V30 2776 C 260.214 4.09502 -5.46623 0
M  V30 2777 O 259.902 4.32426 -6.77689 0
M  V30 2778 H 259.634 0.591997 -0.326367 0
M  V30 2779 H 262.188 1.394 -1.50854 0
M  V30 2780 H 260.418 3.80805 -0.672667 0
M  V30 2781 H 262.107 3.9132 -1.07812 0
M  V30 2782 H 262.873 3.35865 -3.49885 0
M  V30 2783 H 258.752 3.92811 -2.41289 0
M  V30 2784 H 262.296 3.78182 -5.86195 0
M  V30 2785 H 258.193 4.35232 -4.767 0
M  V30 2786 H 258.961 4.49896 -6.83766 0
M  V30 2787 N 261.624 0.925811 1.2754 0
M  V30 2788 C 262.872 0.564138 1.94067 0
M  V30 2789 C 263.193 -0.897188 1.73134 0
M  V30 2790 O 262.463 -1.63573 1.07799 0
M  V30 2791 H 261.043 0.205645 0.718136 0
M  V30 2792 H 263.705 1.1778 1.55287 0
M  V30 2793 H 262.801 0.76881 3.02483 0
M  V30 2794 N 263.102 -1.41638 0.69111 0
M  V30 2795 C 264.052 -2.28 -0.000107832 0
M  V30 2796 C 265.036 -1.41964 -0.757304 0
M  V30 2797 O 266.228 -1.65274 -0.633532 0
M  V30 2798 C 263.357 -3.30209 -0.938983 0
M  V30 2799 C 262.443 -4.23725 -0.17827 0
M  V30 2800 N 262.834 -4.99017 0.825563 0
M  V30 2801 C 261.132 -4.44071 -0.414392 0
M  V30 2802 C 261.833 -5.67431 1.28052 0
M  V30 2803 N 260.809 -5.40197 0.607304 0
M  V30 2804 H 264.611 -2.83644 0.769617 0
M  V30 2805 H 262.125 -1.53797 0.521562 0
M  V30 2806 H 264.122 -3.90898 -1.44929 0
M  V30 2807 H 262.782 -2.76126 -1.70836 0
M  V30 2808 H 263.793 -5.03671 1.20566 0
M  V30 2809 H 260.47 -4.01004 -1.162 0
M  V30 2810 H 261.86 -6.37801 2.11327 0
M  V30 2811 N 264.58 -0.43555 -1.51462 0
M  V30 2812 C 265.49 0.383001 -2.31453 0
M  V30 2813 C 266.506 1.02931 -1.4029 0
M  V30 2814 O 267.682 1.02507 -1.73362 0
M  V30 2815 C 264.747 1.47043 -3.13973 0
M  V30 2816 C 263.808 0.844433 -4.20913 0
M  V30 2817 C 263.041 1.88004 -4.9949 0
M  V30 2818 O 263.264 3.10199 -4.78678 0
M  V30 2819 O 262.198 1.47157 -5.83634 0
M  V30 2820 H 266.024 -0.269964 -3.02498 0
M  V30 2821 H 263.609 -0.19813 -1.4808 0
M  V30 2822 H 265.491 2.10113 -3.65281 0
M  V30 2823 H 264.166 2.10751 -2.45695 0
M  V30 2824 H 263.073 0.175729 -3.73687 0
M  V30 2825 H 264.406 0.250869 -4.9156 0
M  V30 2826 N 266.058 1.56714 -0.166846 0
M  V30 2827 C 266.99 2.14914 0.796537 0
M  V30 2828 C 268.003 1.10357 1.19688 0
M  V30 2829 O 269.192 1.37561 1.13751 0
M  V30 2830 C 266.292 2.67326 2.08303 0
M  V30 2831 C 265.465 3.96493 1.84696 0
M  V30 2832 C 264.524 4.34014 2.97521 0
M  V30 2833 O 263.55 5.01973 2.6835 0
M  V30 2834 N 264.752 3.95208 4.25196 0
M  V30 2835 H 267.517 2.98205 0.299006 0
M  V30 2836 H 265.078 1.61892 0.0160839 0
M  V30 2837 H 267.07 2.89428 2.82867 0
M  V30 2838 H 265.64 1.88649 2.4926 0
M  V30 2839 H 264.86 3.82814 0.940602 0
M  V30 2840 H 266.148 4.8086 1.66285 0
M  V30 2841 H 265.546 3.40487 4.51758 0
M  V30 2842 H 264.103 4.2232 4.96477 0
M  V30 2843 N 267.536 -0.106894 1.57237 0
M  V30 2844 C 268.782 -0.81373 1.85759 0
M  V30 2845 C 269.115 -1.78952 0.754315 0
M  V30 2846 O 268.39 -1.93029 -0.23879 0
M  V30 2847 C 268.673 -1.55293 3.24894 0
M  V30 2848 C 268.526 -0.595929 4.45835 0
M  V30 2849 C 269.845 -2.5063 3.61763 0
M  V30 2850 H 266.964 -0.294369 0.67566 0
M  V30 2851 H 269.606 -0.0776472 1.89841 0
M  V30 2852 H 267.756 -2.1804 3.21544 0
M  V30 2853 H 269.428 0.0236262 4.61294 0
M  V30 2854 H 267.671 0.0916191 4.33703 0
M  V30 2855 H 268.342 -1.15004 5.39887 0
M  V30 2856 H 270.818 -1.97982 3.65981 0
M  V30 2857 H 269.694 -2.99376 4.60071 0
M  V30 2858 H 269.955 -3.3385 2.89821 0
M  V30 2859 N 269.014 -1.53014 -0.377408 0
M  V30 2860 C 270.242 -1.72515 -1.14219 0
M  V30 2861 C 270.657 -0.448735 -1.8339 0
M  V30 2862 O 270.014 0.577592 -1.73119 0
M  V30 2863 C 270.065 -2.8826 -2.18148 0
M  V30 2864 O 269.786 -4.10962 -1.51795 0
M  V30 2865 C 271.287 -3.19536 -3.07264 0
M  V30 2866 H 268.507 -0.577301 -0.342001 0
M  V30 2867 H 271.051 -1.99712 -0.439935 0
M  V30 2868 H 269.206 -2.63492 -2.83991 0
M  V30 2869 H 269.62 -4.75693 -2.20945 0
M  V30 2870 H 271.094 -4.03959 -3.76193 0
M  V30 2871 H 271.571 -2.34403 -3.71419 0
M  V30 2872 H 272.177 -3.46186 -2.47053 0
M  V30 2873 N 270.492 0.636531 -1.44174 0
M  V30 2874 C 271.908 0.954104 -1.27941 0
M  V30 2875 C 272.108 2.0039 -0.211248 0
M  V30 2876 O 271.164 2.49236 0.404695 0
M  V30 2877 C 272.477 1.4225 -2.64925 0
M  V30 2878 C 274.025 1.53827 -2.72592 0
M  V30 2879 C 274.5 2.04053 -4.10032 0
M  V30 2880 N 275.991 2.11331 -4.12182 0
M  V30 2881 C 276.726 2.51352 -5.15374 0
M  V30 2882 N 276.222 2.90549 -6.2893 0
M  V30 2883 N 278.015 2.51438 -5.02728 0
M  V30 2884 H 270.166 -0.0578386 -2.12321 0
M  V30 2885 H 272.429 0.0367406 -0.947288 0
M  V30 2886 H 272.135 0.725466 -3.44136 0
M  V30 2887 H 272.009 2.39451 -2.9145 0
M  V30 2888 H 274.396 2.22628 -1.93702 0
M  V30 2889 H 274.477 0.550154 -2.49814 0
M  V30 2890 H 274.121 1.35848 -4.89395 0
M  V30 2891 H 274.051 3.03726 -4.30184 0
M  V30 2892 H 276.542 1.83745 -3.30222 0
M  V30 2893 H 276.855 3.19884 -7.03487 0
M  V30 2894 H 275.2 2.88313 -6.32377 0
M  V30 2895 H 278.391 2.20203 -4.13072 0
M  V30 2896 H 278.564 2.82304 -5.83274 0
M  V30 2897 N 271.97 1.30982 0.876444 0
M  V30 2898 C 272.9 1.20668 1.99903 0
M  V30 2899 C 273.881 0.095354 1.69833 0
M  V30 2900 O 275.066 0.27885 1.92188 0
M  V30 2901 C 272.196 0.90655 3.3526 0
M  V30 2902 C 271.15 1.97675 3.79617 0
M  V30 2903 C 270.476 1.52943 5.1236 0
M  V30 2904 C 271.776 3.389 3.97422 0
M  V30 2905 H 273.47 2.14586 2.0879 0
M  V30 2906 H 271.016 1.03308 1.00317 0
M  V30 2907 H 272.969 0.821025 4.13324 0
M  V30 2908 H 271.693 -0.0682969 3.26529 0
M  V30 2909 H 270.352 2.05205 3.03787 0
M  V30 2910 H 270 0.54262 5.00065 0
M  V30 2911 H 269.7 2.24532 5.43009 0
M  V30 2912 H 271.224 1.45786 5.92941 0
M  V30 2913 H 272.638 3.34081 4.659 0
M  V30 2914 H 271.035 4.0865 4.3946 0
M  V30 2915 H 272.105 3.80163 3.01006 0
M  V30 2916 N 273.449 -1.08991 1.13837 0
M  V30 2917 C 274.379 -2.17771 0.842507 0
M  V30 2918 C 275.36 -1.6892 -0.20001 0
M  V30 2919 O 276.545 -1.94113 -0.0579731 0
M  V30 2920 C 273.675 -3.4589 0.312644 0
M  V30 2921 C 272.629 -4.08099 1.28992 0
M  V30 2922 C 271.955 -5.31098 0.619623 0
M  V30 2923 C 273.255 -4.50077 2.65005 0
M  V30 2924 H 274.949 -2.42777 1.75213 0
M  V30 2925 H 272.495 -1.16682 0.843875 0
M  V30 2926 H 274.448 -4.21297 0.0933043 0
M  V30 2927 H 273.172 -3.20419 -0.632382 0
M  V30 2928 H 271.831 -3.34717 1.49533 0
M  V30 2929 H 271.479 -5.0191 -0.33102 0
M  V30 2930 H 271.179 -5.73674 1.27167 0
M  V30 2931 H 272.703 -6.09224 0.409669 0
M  V30 2932 H 274.117 -5.16688 2.48407 0
M  V30 2933 H 272.514 -5.03553 3.26427 0
M  V30 2934 H 273.584 -3.62257 3.22332 0
M  V30 2935 N 274.927 -0.932562 -1.27047 0
M  V30 2936 C 275.857 -0.452902 -2.29066 0
M  V30 2937 C 276.838 0.489338 -1.62909 0
M  V30 2938 O 278.023 0.393046 -1.90181 0
M  V30 2939 C 275.153 0.290698 -3.46081 0
M  V30 2940 C 274.107 -0.564168 -4.24265 0
M  V30 2941 C 273.433 0.308886 -5.33807 0
M  V30 2942 C 274.733 -1.83112 -4.89149 0
M  V30 2943 H 276.427 -1.30552 -2.69437 0
M  V30 2944 H 273.973 -0.629201 -1.29526 0
M  V30 2945 H 275.926 0.637233 -4.16554 0
M  V30 2946 H 274.65 1.17738 -3.0464 0
M  V30 2947 H 273.309 -0.893477 -3.55545 0
M  V30 2948 H 272.957 1.19467 -4.88607 0
M  V30 2949 H 272.657 -0.259633 -5.87026 0
M  V30 2950 H 274.181 0.650884 -6.07121 0
M  V30 2951 H 275.595 -1.55236 -5.51883 0
M  V30 2952 H 273.992 -2.34353 -5.52448 0
M  V30 2953 H 275.062 -2.54772 -4.12576 0
M  V30 2954 N 276.405 1.4127 -0.698611 0
M  V30 2955 C 277.352 2.30773 -0.0352094 0
M  V30 2956 C 278.322 1.47273 0.768111 0
M  V30 2957 O 279.507 1.76053 0.735524 0
M  V30 2958 C 276.647 3.33346 0.893 0
M  V30 2959 C 275.76 4.31924 0.0809695 0
M  V30 2960 C 274.895 5.21566 1.0071 0
M  V30 2961 C 273.934 6.11811 0.188155 0
M  V30 2962 N 273.071 6.93926 1.06825 0
M  V30 2963 H 277.911 2.86943 -0.804207 0
M  V30 2964 H 275.448 1.4132 -0.408294 0
M  V30 2965 H 277.406 3.91368 1.44523 0
M  V30 2966 H 276.036 2.78719 1.62836 0
M  V30 2967 H 275.088 3.75825 -0.588224 0
M  V30 2968 H 276.4 4.95716 -0.553801 0
M  V30 2969 H 275.554 5.84437 1.62845 0
M  V30 2970 H 274.293 4.58008 1.67572 0
M  V30 2971 H 273.298 5.47986 -0.446254 0
M  V30 2972 H 274.523 6.77425 -0.476716 0
M  V30 2973 H 272.469 6.32973 1.72283 0
M  V30 2974 H 272.386 7.54416 0.489123 0
M  V30 2975 H 273.654 7.61262 1.67632 0
M  V30 2976 N 277.883 0.443576 1.51229 0
M  V30 2977 C 279.13 -0.120796 2.02139 0
M  V30 2978 C 279.458 -1.42166 1.32736 0
M  V30 2979 O 278.713 -1.90849 0.43301 0
M  V30 2980 C 279.012 -0.380579 3.55368 0
M  V30 2981 C 278.678 0.83523 4.43097 0
M  V30 2982 C 277.34 1.16864 4.66794 0
M  V30 2983 C 279.692 1.64601 4.94526 0
M  V30 2984 C 277.02 2.31339 5.39165 0
M  V30 2985 C 279.372 2.78181 5.68153 0
M  V30 2986 C 278.036 3.11969 5.90112 0
M  V30 2987 H 277.306 -0.0442023 0.73968 0
M  V30 2988 H 279.953 0.592046 1.82118 0
M  V30 2989 H 278.258 -1.17538 3.73754 0
M  V30 2990 H 279.955 -0.830777 3.923 0
M  V30 2991 H 276.545 0.565437 4.24854 0
M  V30 2992 H 280.729 1.40163 4.76097 0
M  V30 2993 H 275.985 2.57823 5.5438 0
M  V30 2994 H 280.159 3.41371 6.06992 0
M  V30 2995 H 277.786 4.00784 6.45969 0
M  V30 2996 N 279.361 -1.56624 0.175154 0
M  V30 2997 C 280.609 -1.96609 -0.467885 0
M  V30 2998 C 280.93 -1.06238 -1.63519 0
M  V30 2999 O 280.2 -0.129523 -1.95471 0
M  V30 3000 H 278.78 -0.726008 -0.175845 0
M  V30 3001 H 281.442 -1.93195 0.257234 0
M  V30 3002 H 280.538 -3.00989 -0.825342 0
M  V30 3003 N 280.839 0.0985539 -1.57292 0
M  V30 3004 C 281.802 1.10402 -2.00858 0
M  V30 3005 C 282.802 1.33146 -0.901593 0
M  V30 3006 O 283.992 1.29318 -1.16716 0
M  V30 3007 C 281.124 2.45394 -2.36632 0
M  V30 3008 H 282.317 0.729099 -2.90902 0
M  V30 3009 H 279.87 0.343495 -1.52479 0
M  V30 3010 H 280.605 2.87769 -1.49531 0
M  V30 3011 H 280.39 2.30235 -3.17387 0
M  V30 3012 H 281.88 3.17718 -2.71007 0
M  V30 3013 N 282.317 1.53212 0.369288 0
M  V30 3014 C 283.594 1.59815 1.12776 0
M  V30 3015 C 283.974 0.403402 2.0721 0
M  V30 3016 O 283.322 -0.606667 2.20299 0
M  V30 3017 C 283.532 2.94664 1.87013 0
M  V30 3018 C 284.88 3.49109 2.41677 0
M  V30 3019 O 285.904 2.96669 1.97144 0
M  V30 3020 O 284.763 4.40775 3.23079 0
M  V30 3021 H 281.857 0.645376 0.517125 0
M  V30 3022 H 284.403 1.65553 0.37285 0
M  V30 3023 H 283.175 3.73061 1.18071 0
M  V30 3024 H 282.798 2.92401 2.69421 0
M  V30 3025 N 283.795 -0.628877 1.44509 0
M  V30 3026 C 285.041 -1.39045 1.47629 0
M  V30 3027 C 285.374 -1.93892 0.109343 0
M  V30 3028 O 284.649 -1.7379 -0.87334 0
M  V30 3029 C 284.932 -2.55408 2.53848 0
M  V30 3030 C 284.785 -2.05896 3.99909 0
M  V30 3031 C 286.104 -3.5759 2.56549 0
M  V30 3032 H 283.223 -0.504232 0.537512 0
M  V30 3033 H 285.865 -0.710854 1.76201 0
M  V30 3034 H 284.015 -3.13384 2.29615 0
M  V30 3035 H 285.687 -1.52734 4.35282 0
M  V30 3036 H 283.93 -1.37061 4.11578 0
M  V30 3037 H 284.601 -2.89681 4.69882 0
M  V30 3038 H 287.077 -3.09419 2.78207 0
M  V30 3039 H 285.953 -4.36527 3.32769 0
M  V30 3040 H 286.214 -4.11808 1.60832 0
M  V30 3041 N 285.273 -1.31445 -0.869486 0
M  V30 3042 C 286.221 -1.19067 -1.99814 0
M  V30 3043 C 287.215 -0.0988569 -1.69111 0
M  V30 3044 O 288.421 -0.260781 -1.78101 0
M  V30 3045 H 284.796 -0.368677 -0.655425 0
M  V30 3046 H 286.767 -2.14555 -2.07385 0
M  V30 3047 C 285.516 -0.915323 -3.35436 0
M  V30 3048 H 284.839 -1.74759 -3.59582 0
M  V30 3049 H 286.279 -0.868895 -4.15001 0
M  V30 3050 C 284.738 0.381928 -3.34728 0
M  V30 3051 O 285.268 1.39857 -3.76567 0
M  V30 3052 N 283.474 0.398633 -2.87853 0
M  V30 3053 H 283.021 -0.429186 -2.54 0
M  V30 3054 H 282.979 1.26651 -2.87762 0
M  V30 3055 N 286.751 1.08385 -1.14413 0
M  V30 3056 C 287.997 1.81044 -0.913834 0
M  V30 3057 C 288.33 1.86004 0.558209 0
M  V30 3058 O 287.605 1.33606 1.4135 0
M  V30 3059 C 287.888 3.26648 -1.51569 0
M  V30 3060 C 287.741 3.29895 -3.0576 0
M  V30 3061 C 289.06 4.23629 -1.19273 0
M  V30 3062 H 286.179 0.65727 -0.333414 0
M  V30 3063 H 288.821 1.26896 -1.41412 0
M  V30 3064 H 286.971 3.72889 -1.09023 0
M  V30 3065 H 288.643 2.91977 -3.57137 0
M  V30 3066 H 286.886 2.69163 -3.40197 0
M  V30 3067 H 287.557 4.32516 -3.42977 0
M  V30 3068 H 290.033 3.85727 -1.56057 0
M  V30 3069 H 288.909 5.23822 -1.64017 0
M  V30 3070 H 289.17 4.41968 -0.108068 0
M  V30 3071 N 288.23 0.939286 1.26551 0
M  V30 3072 C 289.455 0.602008 1.98471 0
M  V30 3073 C 289.88 -0.815624 1.69497 0
M  V30 3074 O 289.238 -1.54912 0.941905 0
M  V30 3075 C 289.286 0.848407 3.50477 0
M  V30 3076 O 288.39 -0.0804009 4.12322 0
M  V30 3077 H 287.731 0.23049 0.622712 0
M  V30 3078 H 290.261 1.2617 1.61066 0
M  V30 3079 H 290.271 0.768553 4.00696 0
M  V30 3080 H 288.946 1.88171 3.70897 0
M  V30 3081 H 287.523 0.0503508 3.72866 0
M  V30 3082 N 289.708 -1.40897 0.706093 0
M  V30 3083 C 290.956 -2.00657 0.241054 0
M  V30 3084 C 291.277 -1.56241 -1.16678 0
M  V30 3085 O 290.547 -0.79765 -1.78926 0
M  V30 3086 H 289.127 -0.742018 0.0861308 0
M  V30 3087 H 291.789 -1.72372 0.909604 0
M  V30 3088 H 290.885 -3.10958 0.266705 0
M  V30 3089 N 291.186 -0.45159 -1.50991 0
M  V30 3090 C 292.096 0.358431 -2.31846 0
M  V30 3091 C 293.112 1.01438 -1.41373 0
M  V30 3092 O 294.288 1.00663 -1.74439 0
M  V30 3093 C 291.353 1.43704 -3.15515 0
M  V30 3094 C 290.414 0.799742 -4.21785 0
M  V30 3095 C 289.647 1.82696 -5.01456 0
M  V30 3096 O 289.87 3.05105 -4.81941 0
M  V30 3097 O 288.804 1.40958 -5.85162 0
M  V30 3098 H 292.63 -0.302032 -3.02194 0
M  V30 3099 H 290.215 -0.213825 -1.47862 0
M  V30 3100 H 292.097 2.06227 -3.67489 0
M  V30 3101 H 290.772 2.08133 -2.47916 0
M  V30 3102 H 289.679 0.136084 -3.73852 0
M  V30 3103 H 291.012 0.198718 -4.91799 0
M  V30 3104 N 292.664 1.56529 -0.183458 0
M  V30 3105 C 293.91 1.97537 0.459036 0
M  V30 3106 C 294.243 1.06989 1.62071 0
M  V30 3107 O 293.518 0.11948 1.94133 0
M  V30 3108 C 293.801 3.47874 0.930368 0
M  V30 3109 C 293.654 4.492 -0.232317 0
M  V30 3110 C 294.973 4.01612 1.79989 0
M  V30 3111 H 292.092 0.718204 0.165383 0
M  V30 3112 H 294.734 1.88042 -0.272038 0
M  V30 3113 H 292.884 3.56095 1.55333 0
M  V30 3114 H 294.556 4.53027 -0.86972 0
M  V30 3115 H 292.799 4.24657 -0.885928 0
M  V30 3116 H 293.47 5.51823 0.139796 0
M  V30 3117 H 295.946 3.96097 1.27461 0
M  V30 3118 H 294.822 5.07195 2.09867 0
M  V30 3119 H 295.083 3.46163 2.74998 0
M  V30 3120 N 294.142 -0.090211 1.57342 0
M  V30 3121 C 295.39 -0.791241 1.85967 0
M  V30 3122 C 295.711 -1.7903 0.772859 0
M  V30 3123 O 294.981 -1.94872 -0.200398 0
M  V30 3124 H 293.561 -0.295205 0.686195 0
M  V30 3125 H 296.223 -0.0706782 1.94772 0
M  V30 3126 H 295.319 -1.31882 2.82867 0
M  V30 3127 N 295.62 -1.53406 -0.361157 0
M  V30 3128 C 296.897 -1.60411 -1.11927 0
M  V30 3129 C 297.277 -0.414385 -2.06993 0
M  V30 3130 O 296.625 0.594976 -2.20618 0
M  V30 3131 C 296.835 -2.95652 -1.85448 0
M  V30 3132 C 298.183 -3.50386 -2.39823 0
M  V30 3133 O 299.207 -2.97711 -1.95568 0
M  V30 3134 O 298.066 -4.42482 -3.20737 0
M  V30 3135 H 295.16 -0.64811 -0.513695 0
M  V30 3136 H 297.706 -1.65749 -0.364065 0
M  V30 3137 H 296.478 -3.73682 -1.16091 0
M  V30 3138 H 296.101 -2.93825 -2.67866 0
M  V30 3139 N 297.098 0.621204 -1.44841 0
M  V30 3140 C 298.514 0.94048 -1.28946 0
M  V30 3141 C 298.714 2.00154 -0.23249 0
M  V30 3142 O 297.77 2.49651 0.378237 0
M  V30 3143 C 299.083 1.39433 -2.66419 0
M  V30 3144 C 300.631 1.50927 -2.74208 0
M  V30 3145 C 301.106 1.99692 -4.12174 0
M  V30 3146 N 302.597 2.06947 -4.144 0
M  V30 3147 C 303.332 2.45871 -5.1801 0
M  V30 3148 N 302.828 2.83862 -6.31977 0
M  V30 3149 N 304.621 2.46092 -5.05366 0
M  V30 3150 H 296.772 -0.0803548 -2.12248 0
M  V30 3151 H 299.035 0.0266913 -0.947624 0
M  V30 3152 H 298.741 0.688925 -3.44887 0
M  V30 3153 H 298.615 2.36347 -2.93973 0
M  V30 3154 H 301.002 2.20561 -1.96053 0
M  V30 3155 H 301.083 0.523627 -2.50383 0
M  V30 3156 H 300.727 1.30649 -4.90809 0
M  V30 3157 H 300.657 2.99146 -4.33381 0
M  V30 3158 H 303.148 1.80232 -3.32152 0
M  V30 3159 H 303.461 3.12405 -7.0684 0
M  V30 3160 H 301.806 2.8159 -6.35399 0
M  V30 3161 H 304.997 2.1581 -4.15384 0
M  V30 3162 H 305.17 2.76102 -5.86235 0
M  V30 3163 N 298.576 1.31904 0.862503 0
M  V30 3164 C 299.987 1.19803 1.43193 0
M  V30 3165 C 300.338 -0.192567 1.95253 0
M  V30 3166 O 299.463 -1.09081 1.86896 0
M  V30 3167 C 300.058 2.16883 2.60283 0
M  V30 3168 C 298.617 2.08692 3.13248 0
M  V30 3169 C 297.764 2.05691 1.85975 0
M  V30 3170 H 300.715 1.43846 0.670365 0
M  V30 3171 H 300.736 1.76278 3.37204 0
M  V30 3172 H 300.248 3.18083 2.22363 0
M  V30 3173 H 298.349 1.10713 3.55771 0
M  V30 3174 H 298.462 2.9815 3.75025 0
M  V30 3175 H 296.826 1.50814 2.05249 0
M  V30 3176 H 297.609 3.08659 1.50282 0
M  V30 3177 N 300.054 -1.07777 1.14986 0
M  V30 3178 C 300.984 -2.16865 0.865557 0
M  V30 3179 C 301.965 -1.69123 -0.182083 0
M  V30 3180 O 303.15 -1.94164 -0.0373815 0
M  V30 3181 C 300.28 -3.45539 0.349313 0
M  V30 3182 C 299.234 -4.06708 1.33313 0
M  V30 3183 C 298.56 -5.30411 0.675918 0
M  V30 3184 C 299.86 -4.47241 2.69764 0
M  V30 3185 H 301.554 -2.40905 1.77778 0
M  V30 3186 H 299.1 -1.15781 0.856203 0
M  V30 3187 H 301.053 -4.21174 0.137983 0
M  V30 3188 H 299.777 -3.21072 -0.598362 0
M  V30 3189 H 298.436 -3.33112 1.53075 0
M  V30 3190 H 298.084 -5.02232 -0.277767 0
M  V30 3191 H 297.784 -5.72293 1.33244 0
M  V30 3192 H 299.308 -6.08755 0.474262 0
M  V30 3193 H 300.722 -5.14025 2.53873 0
M  V30 3194 H 299.119 -5.00062 3.3175 0
M  V30 3195 H 300.189 -3.58818 3.26156 0
M  V30 3196 N 301.532 -0.945985 -1.26051 0
M  V30 3197 C 302.482 -0.430164 -2.23905 0
M  V30 3198 C 303.466 0.47579 -1.53704 0
M  V30 3199 O 304.658 0.310252 -1.7426 0
M  V30 3200 C 301.787 0.298957 -3.41996 0
M  V30 3201 C 300.873 -0.624566 -4.19476 0
M  V30 3202 N 301.264 -1.75245 -4.74471 0
M  V30 3203 C 299.562 -0.431082 -4.43912 0
M  V30 3204 C 300.263 -2.32834 -5.3307 0
M  V30 3205 N 299.239 -1.61583 -5.1903 0
M  V30 3206 H 303.041 -1.29107 -2.64024 0
M  V30 3207 H 300.555 -0.802428 -1.41191 0
M  V30 3208 H 302.552 0.685565 -4.11225 0
M  V30 3209 H 301.212 1.15657 -3.03403 0
M  V30 3210 H 302.223 -2.13449 -4.71868 0
M  V30 3211 H 298.9 0.384364 -4.15727 0
M  V30 3212 H 300.29 -3.27893 -5.86461 0
M  V30 3213 N 303.011 1.40521 -0.713556 0
M  V30 3214 C 303.941 2.33381 -0.0743864 0
M  V30 3215 C 304.922 1.52784 0.747735 0
M  V30 3216 O 306.107 1.81258 0.697071 0
M  V30 3217 C 303.237 3.36748 0.849598 0
M  V30 3218 C 302.191 4.27793 0.133247 0
M  V30 3219 C 301.517 5.21679 1.17281 0
M  V30 3220 C 302.817 5.12415 -1.01134 0
M  V30 3221 H 304.511 2.87081 -0.850007 0
M  V30 3222 H 302.057 1.38034 -0.410201 0
M  V30 3223 H 304.01 4.00648 1.30612 0
M  V30 3224 H 302.734 2.81439 1.65709 0
M  V30 3225 H 301.393 3.65342 -0.303426 0
M  V30 3226 H 301.041 4.62677 1.9733 0
M  V30 3227 H 300.741 5.83435 0.698397 0
M  V30 3228 H 302.265 5.88456 1.62947 0
M  V30 3229 H 303.679 5.69781 -0.634274 0
M  V30 3230 H 302.076 5.83203 -1.41399 0
M  V30 3231 H 303.146 4.48514 -1.84292 0
M  V30 3232 N 304.489 0.459591 1.5075 0
M  V30 3233 C 305.452 -0.329093 2.26825 0
M  V30 3234 C 306.452 -0.930481 1.31144 0
M  V30 3235 O 307.642 -0.801453 1.54669 0
M  V30 3236 C 304.774 -1.46768 3.07688 0
M  V30 3237 H 305.967 0.337924 2.9799 0
M  V30 3238 H 303.52 0.213336 1.54837 0
M  V30 3239 H 304.255 -2.17009 2.40993 0
M  V30 3240 H 304.04 -1.04238 3.77991 0
M  V30 3241 H 305.53 -2.02433 3.65254 0
M  V30 3242 N 305.967 -1.56429 0.191757 0
M  V30 3243 C 307.192 -2.02309 -0.456706 0
M  V30 3244 C 307.617 -1.07103 -1.5463 0
M  V30 3245 O 306.975 -0.0539677 -1.8122 0
M  V30 3246 C 307.023 -3.46654 -0.993159 0
M  V30 3247 O 306.127 -3.54559 -2.10622 0
M  V30 3248 H 305.468 -0.655303 -0.107114 0
M  V30 3249 H 307.998 -2.02364 0.301653 0
M  V30 3250 H 308.008 -3.86377 -1.31061 0
M  V30 3251 H 306.683 -4.1544 -0.195504 0
M  V30 3252 H 305.26 -3.26708 -1.79767 0
M  V30 3253 N 307.445 0.0818655 -1.57387 0
M  V30 3254 C 308.408 1.08265 -2.02018 0
M  V30 3255 C 309.408 1.32183 -0.915664 0
M  V30 3256 O 310.598 1.28073 -1.18081 0
M  V30 3257 C 307.73 2.42871 -2.39221 0
M  V30 3258 H 308.923 0.698204 -2.91659 0
M  V30 3259 H 306.476 0.327303 -1.52835 0
M  V30 3260 H 307.211 2.86167 -1.52575 0
M  V30 3261 H 306.996 2.26855 -3.19811 0
M  V30 3262 H 308.486 3.14826 -2.74362 0
M  V30 3263 N 308.923 1.53595 0.353017 0
M  V30 3264 C 309.87 1.80919 1.43308 0
M  V30 3265 C 310.84 0.654288 1.5267 0
M  V30 3266 O 312.025 0.897759 1.6836 0
M  V30 3267 C 309.165 2.01605 2.80089 0
M  V30 3268 C 308.278 3.29321 2.79593 0
M  V30 3269 C 307.413 3.40125 4.0803 0
M  V30 3270 C 306.452 4.61826 4.01725 0
M  V30 3271 N 305.589 4.69716 5.21834 0
M  V30 3272 H 310.429 2.73074 1.19308 0
M  V30 3273 H 307.966 1.35263 0.578131 0
M  V30 3274 H 309.924 2.11586 3.59565 0
M  V30 3275 H 308.554 1.12772 3.0246 0
M  V30 3276 H 307.606 3.28229 1.92276 0
M  V30 3277 H 308.918 4.18884 2.70809 0
M  V30 3278 H 308.072 3.49488 4.95927 0
M  V30 3279 H 306.811 2.48601 4.19582 0
M  V30 3280 H 305.816 4.52552 3.12213 0
M  V30 3281 H 307.041 5.54705 3.91764 0
M  V30 3282 H 304.987 3.81097 5.33948 0
M  V30 3283 H 304.904 5.53202 5.1527 0
M  V30 3284 H 306.172 4.83376 6.11529 0
M  V30 3285 N 310.401 -0.613514 1.45168 0
M  V30 3286 C 311.649 -1.36997 1.48581 0
M  V30 3287 C 311.97 -1.94589 0.126545 0
M  V30 3288 O 311.24 -1.76816 -0.843372 0
M  V30 3289 H 309.82 -0.508558 0.547154 0
M  V30 3290 H 312.482 -0.720853 1.81079 0
M  V30 3291 H 311.578 -2.1924 2.22127 0
M  V30 3292 N 311.879 -1.3236 -0.855495 0
M  V30 3293 C 313.126 -1.22872 -1.60962 0
M  V30 3294 C 313.454 0.209658 -1.93367 0
M  V30 3295 O 312.709 1.16243 -1.57436 0
M  V30 3296 C 313.008 -2.03275 -2.93963 0
M  V30 3297 C 312.674 -3.5264 -2.80991 0
M  V30 3298 C 311.336 -3.93364 -2.7716 0
M  V30 3299 C 313.688 -4.47626 -2.66983 0
M  V30 3300 C 311.016 -5.27319 -2.572 0
M  V30 3301 C 313.368 -5.81723 -2.48558 0
M  V30 3302 C 312.032 -6.2165 -2.4312 0
M  V30 3303 H 311.302 -0.44962 -0.589001 0
M  V30 3304 H 313.949 -1.63777 -0.992442 0
M  V30 3305 H 312.254 -1.55095 -3.59795 0
M  V30 3306 H 313.951 -1.93303 -3.51333 0
M  V30 3307 H 310.541 -3.20295 -2.84797 0
M  V30 3308 H 314.725 -4.17084 -2.68988 0
M  V30 3309 H 309.981 -5.57311 -2.51424 0
M  V30 3310 H 314.155 -6.5494 -2.36699 0
M  V30 3311 H 311.782 -7.25388 -2.27412 0
M  V30 3312 N 313.357 1.07166 -1.15556 0
M  V30 3313 C 314.287 2.16403 -0.877046 0
M  V30 3314 C 315.268 1.69217 0.173111 0
M  V30 3315 O 316.453 1.94181 0.027084 0
M  V30 3316 C 313.583 3.45349 -0.367632 0
M  V30 3317 C 312.537 4.05995 -1.35468 0
M  V30 3318 C 311.863 5.30045 -0.704038 0
M  V30 3319 C 313.163 4.45804 -2.72132 0
M  V30 3320 H 314.857 2.39959 -1.79053 0
M  V30 3321 H 312.403 1.15325 -0.862331 0
M  V30 3322 H 314.356 4.21095 -0.160317 0
M  V30 3323 H 313.08 3.21385 0.581326 0
M  V30 3324 H 311.739 3.32296 -1.54839 0
M  V30 3325 H 311.387 5.02373 0.251128 0
M  V30 3326 H 311.087 5.71579 -1.36277 0
M  V30 3327 H 312.611 6.08495 -0.50654 0
M  V30 3328 H 314.025 5.12671 -2.56595 0
M  V30 3329 H 312.422 4.98296 -3.34397 0
M  V30 3330 H 313.492 3.57083 -3.28054 0
M  V30 3331 N 314.835 0.952656 1.25548 0
M  V30 3332 C 315.783 0.462354 2.27958 0
M  V30 3333 C 316.777 -0.46634 1.62855 0
M  V30 3334 O 317.983 -0.343287 1.76696 0
M  V30 3335 H 314.358 0.13101 0.7405 0
M  V30 3336 H 316.329 1.33839 2.66702 0
M  V30 3337 C 315.078 -0.24628 3.46827 0
M  V30 3338 H 314.401 0.459192 3.97154 0
M  V30 3339 H 315.841 -0.553393 4.20373 0
M  V30 3340 C 314.3 -1.4681 3.0323 0
M  V30 3341 O 314.83 -2.56591 3.09069 0
M  V30 3342 N 313.036 -1.32874 2.58443 0
M  V30 3343 H 312.583 -0.435536 2.53891 0
M  V30 3344 H 312.541 -2.14742 2.29637 0
M  V30 3345 N 316.313 -1.40141 0.720998 0
M  V30 3346 C 317.562 -2.0002 0.259804 0
M  V30 3347 C 317.875 -1.57839 -1.15526 0
M  V30 3348 O 319.081 -2.10455 -1.71525 0
M  V30 3349 C 317.537 -3.57516 0.413566 0
M  V30 3350 C 317.145 -4.08667 1.83562 0
M  V30 3351 C 318.889 -4.24498 0.0134387 0
M  V30 3352 C 316.796 -5.58686 1.93968 0
M  V30 3353 H 315.726 -0.748195 0.0933806 0
M  V30 3354 H 318.377 -1.60313 0.892866 0
M  V30 3355 H 316.759 -3.9495 -0.288169 0
M  V30 3356 H 317.933 -3.82598 2.56817 0
M  V30 3357 H 316.248 -3.543 2.1877 0
M  V30 3358 H 318.845 -5.34654 0.0703954 0
M  V30 3359 H 319.188 -4.03375 -1.02927 0
M  V30 3360 H 319.721 -3.92188 0.665815 0
M  V30 3361 H 316.46 -5.8467 2.96379 0
M  V30 3362 H 315.98 -5.86602 1.25131 0
M  V30 3363 H 317.659 -6.23875 1.71431 0
M  V30 3364 N 317.792 -0.46758 -1.50504 0
M  V30 3365 C 318.755 0.317059 -2.26996 0
M  V30 3366 C 319.755 0.923513 -1.31635 0
M  V30 3367 O 320.945 0.793239 -1.55091 0
M  V30 3368 C 318.077 1.45134 -3.08462 0
M  V30 3369 H 319.27 -0.353723 -2.97807 0
M  V30 3370 H 316.823 -0.221545 -1.54722 0
M  V30 3371 H 317.558 2.15728 -2.4214 0
M  V30 3372 H 317.343 1.02232 -3.78538 0
M  V30 3373 H 318.833 2.00493 -3.66323 0
M  V30 3374 N 319.27 1.56325 -0.20005 0
M  V30 3375 C 320.217 2.1932 0.718833 0
M  V30 3376 C 321.187 1.14198 1.20615 0
M  V30 3377 O 322.372 1.42469 1.26914 0
M  V30 3378 C 319.512 2.86041 1.93066 0
M  V30 3379 C 318.625 4.05702 1.48425 0
M  V30 3380 C 317.76 4.60266 2.65196 0
M  V30 3381 C 316.799 5.72273 2.17185 0
M  V30 3382 N 315.936 6.21221 3.27152 0
M  V30 3383 H 320.776 2.97486 0.17489 0
M  V30 3384 H 318.313 1.46911 0.0745794 0
M  V30 3385 H 320.271 3.22897 2.64184 0
M  V30 3386 H 318.901 2.1043 2.44783 0
M  V30 3387 H 317.953 3.74475 0.668755 0
M  V30 3388 H 319.265 4.86699 1.09204 0
M  V30 3389 H 318.419 4.99453 3.4443 0
M  V30 3390 H 317.158 3.78386 3.07693 0
M  V30 3391 H 316.163 5.3261 1.36407 0
M  V30 3392 H 317.388 6.55974 1.75713 0
M  V30 3393 H 315.334 5.42263 3.69171 0
M  V30 3394 H 315.251 6.97284 2.92116 0
M  V30 3395 H 316.519 6.65063 4.06585 0
M  V30 3396 N 320.748 -0.0735177 1.57428 0
M  V30 3397 C 321.678 -1.0879 2.06608 0
M  V30 3398 C 322.659 -1.40473 0.959237 0
M  V30 3399 O 323.844 -1.5013 1.23185 0
M  V30 3400 C 320.974 -2.40183 2.50857 0
M  V30 3401 C 319.928 -2.22858 3.65402 0
M  V30 3402 C 319.254 -3.59619 3.957 0
M  V30 3403 C 320.554 -1.65123 4.95511 0
M  V30 3404 H 322.248 -0.678673 2.91607 0
M  V30 3405 H 319.794 -0.325013 1.40284 0
M  V30 3406 H 321.747 -3.11437 2.83874 0
M  V30 3407 H 320.471 -2.83083 1.62885 0
M  V30 3408 H 319.13 -1.54045 3.32664 0
M  V30 3409 H 318.778 -4.00086 3.04861 0
M  V30 3410 H 318.478 -3.48866 4.72828 0
M  V30 3411 H 320.002 -4.32306 4.31212 0
M  V30 3412 H 321.416 -2.26241 5.26771 0
M  V30 3413 H 319.813 -1.65071 5.7695 0
M  V30 3414 H 320.883 -0.612559 4.81015 0
M  V30 3415 N 322.226 -1.5378 -0.344866 0
M  V30 3416 C 323.156 -1.84662 -1.42906 0
M  V30 3417 C 324.137 -0.701648 -1.54955 0
M  V30 3418 O 325.322 -0.953438 -1.69184 0
M  V30 3419 C 322.452 -2.05503 -2.79974 0
M  V30 3420 C 321.406 -3.21318 -2.82734 0
M  V30 3421 C 320.732 -3.2749 -4.22675 0
M  V30 3422 C 322.032 -4.59456 -2.48389 0
M  V30 3423 H 323.726 -2.75461 -1.17311 0
M  V30 3424 H 321.272 -1.32542 -0.562896 0
M  V30 3425 H 323.225 -2.25691 -3.55867 0
M  V30 3426 H 321.949 -1.11434 -3.07002 0
M  V30 3427 H 320.608 -3.00984 -2.09294 0
M  V30 3428 H 320.256 -2.31019 -4.4681 0
M  V30 3429 H 319.956 -4.05316 -4.25433 0
M  V30 3430 H 321.48 -3.49887 -5.00412 0
M  V30 3431 H 322.894 -4.79667 -3.13995 0
M  V30 3432 H 321.291 -5.39675 -2.62432 0
M  V30 3433 H 322.361 -4.63155 -1.4358 0
M  V30 3434 N 323.704 0.605807 -1.45491 0
M  V30 3435 C 324.637 1.73022 -1.48791 0
M  V30 3436 C 325.615 1.58917 -0.344112 0
M  V30 3437 O 326.799 1.80453 -0.544876 0
M  V30 3438 C 323.926 3.10865 -1.34463 0
M  V30 3439 C 322.972 3.43554 -2.5273 0
M  V30 3440 S 323.805 3.38196 -4.15191 0
M  V30 3441 C 324.961 4.78616 -4.03333 0
M  V30 3442 H 325.194 1.69961 -2.43928 0
M  V30 3443 H 322.727 0.782611 -1.33096 0
M  V30 3444 H 324.685 3.90398 -1.26884 0
M  V30 3445 H 323.346 3.1144 -0.40794 0
M  V30 3446 H 322.539 4.43924 -2.38637 0
M  V30 3447 H 322.141 2.71541 -2.5718 0
M  V30 3448 H 324.433 5.68463 -3.68587 0
M  V30 3449 H 325.376 4.97767 -5.03621 0
M  V30 3450 H 325.784 4.54381 -3.34959 0
M  V30 3451 N 325.182 1.32811 0.848464 0
M  V30 3452 C 326.092 1.24278 1.98978 0
M  V30 3453 C 327.108 0.155176 1.73307 0
M  V30 3454 O 328.284 0.376999 1.9784 0
M  V30 3455 C 325.349 0.972444 3.32783 0
M  V30 3456 C 324.41 2.14911 3.71634 0
M  V30 3457 C 323.643 1.89157 4.99054 0
M  V30 3458 O 323.866 0.837165 5.64223 0
M  V30 3459 O 322.8 2.75433 5.35183 0
M  V30 3460 H 326.626 2.20238 2.09115 0
M  V30 3461 H 324.211 1.12762 0.980052 0
M  V30 3462 H 326.093 0.838432 4.12975 0
M  V30 3463 H 324.768 0.043051 3.23671 0
M  V30 3464 H 323.675 2.33862 2.91992 0
M  V30 3465 H 325.008 3.06151 3.85399 0
M  V30 3466 N 326.66 -1.06551 1.16123 0
M  V30 3467 C 327.57 -2.17484 0.879662 0
M  V30 3468 C 328.586 -1.73377 -0.147104 0
M  V30 3469 O 329.762 -2.01379 0.0289128 0
M  V30 3470 C 326.827 -3.44591 0.381829 0
M  V30 3471 C 325.888 -4.0322 1.4735 0
M  V30 3472 C 325.121 -5.24261 0.999324 0
M  V30 3473 O 325.344 -5.70198 -0.151957 0
M  V30 3474 O 324.278 -5.74775 1.78653 0
M  V30 3475 H 328.104 -2.44075 1.80724 0
M  V30 3476 H 325.689 -1.16042 0.940992 0
M  V30 3477 H 327.571 -4.21254 0.111053 0
M  V30 3478 H 326.246 -3.19532 -0.51777 0
M  V30 3479 H 325.153 -3.2806 1.79798 0
M  V30 3480 H 326.486 -4.32568 2.34831 0
M  V30 3481 N 328.138 -0.959301 -1.25041 0
M  V30 3482 C 329.386 -0.615393 -1.92503 0
M  V30 3483 C 329.707 0.850969 -1.75452 0
M  V30 3484 O 328.977 1.60658 -1.12098 0
M  V30 3485 H 327.557 -0.224613 -0.712431 0
M  V30 3486 H 330.219 -1.21855 -1.5211 0
M  V30 3487 H 329.315 -0.848738 -3.00338 0
M  V30 3488 N 329.616 1.39756 -0.72842 0
M  V30 3489 C 330.841 2.05472 -0.282159 0
M  V30 3490 C 331.266 1.54549 1.07221 0
M  V30 3491 O 330.624 0.686372 1.67805 0
M  V30 3492 C 330.672 3.59462 -0.286264 0
M  V30 3493 O 329.776 4.05918 0.728298 0
M  V30 3494 H 329.117 0.651226 -0.129618 0
M  V30 3495 H 331.647 1.78915 -0.992499 0
M  V30 3496 H 331.657 4.07798 -0.128373 0
M  V30 3497 H 330.332 3.95889 -1.27456 0
M  V30 3498 H 328.909 3.69012 0.537081 0
M  V30 3499 N 331.094 0.475555 1.50254 0
M  V30 3500 C 332.041 -0.316293 2.28622 0
M  V30 3501 C 333.011 -0.983227 1.33873 0
M  V30 3502 O 334.196 -0.994805 1.62814 0
M  V30 3503 C 331.336 -1.38975 3.1588 0
M  V30 3504 C 330.449 -0.737146 4.25664 0
M  V30 3505 C 329.584 -1.78887 5.00173 0
M  V30 3506 C 328.623 -1.11676 6.01826 0
M  V30 3507 N 327.76 -2.11154 6.69596 0
M  V30 3508 H 332.6 0.358297 2.95838 0
M  V30 3509 H 330.137 0.188541 1.45887 0
M  V30 3510 H 332.095 -2.02383 3.64825 0
M  V30 3511 H 330.725 -2.03344 2.50701 0
M  V30 3512 H 329.777 0.0096065 3.80399 0
M  V30 3513 H 331.089 -0.206816 4.98371 0
M  V30 3514 H 330.243 -2.49865 5.52859 0
M  V30 3515 H 328.982 -2.35302 4.27182 0
M  V30 3516 H 327.987 -0.392633 5.48396 0
M  V30 3517 H 329.212 -0.55945 6.76792 0
M  V30 3518 H 327.158 -2.66577 5.99394 0
M  V30 3519 H 327.075 -1.63118 7.38193 0
M  V30 3520 H 328.343 -2.81497 7.26897 0
M  V30 3521 N 332.573 -1.56217 0.208337 0
M  V30 3522 C 333.536 -2.18455 -0.693557 0
M  V30 3523 C 334.536 -1.14268 -1.13135 0
M  V30 3524 O 335.726 -1.39577 -1.0423 0
M  V30 3525 C 332.858 -2.79727 -1.94848 0
M  V30 3526 H 334.051 -2.99519 -0.15114 0
M  V30 3527 H 331.604 -1.56245 -0.041287 0
M  V30 3528 H 332.339 -2.02497 -2.53309 0
M  V30 3529 H 332.124 -3.56009 -1.64316 0
M  V30 3530 H 333.614 -3.27475 -2.59133 0
M  V30 3531 N 334.051 0.0651679 -1.57465 0
M  V30 3532 C 335.328 0.79644 -1.78651 0
M  V30 3533 C 335.708 1.95454 -0.797566 0
M  V30 3534 O 335.056 2.27882 0.167946 0
M  V30 3535 C 335.266 1.26322 -3.25337 0
M  V30 3536 C 336.614 1.6939 -3.89348 0
M  V30 3537 O 337.638 1.35872 -3.29268 0
M  V30 3538 O 336.497 2.31471 -4.95059 0
M  V30 3539 H 333.591 0.382157 -0.733407 0
M  V30 3540 H 336.137 0.0447311 -1.69641 0
M  V30 3541 H 334.909 0.434859 -3.88876 0
M  V30 3542 H 334.532 2.07604 -3.39096 0
M  V30 3543 N 335.529 1.53961 0.336706 0
M  V30 3544 C 336.775 1.7179 1.07777 0
M  V30 3545 C 337.108 0.483263 1.88091 0
M  V30 3546 O 336.383 -0.519747 1.87427 0
M  V30 3547 C 336.666 2.98558 2.01334 0
M  V30 3548 C 336.519 4.32245 1.24437 0
M  V30 3549 C 337.838 3.21023 3.01052 0
M  V30 3550 H 334.957 0.625089 0.390426 0
M  V30 3551 H 337.599 1.86641 0.35567 0
M  V30 3552 H 335.749 2.86028 2.62908 0
M  V30 3553 H 337.421 4.56637 0.654243 0
M  V30 3554 H 335.664 4.30344 0.546458 0
M  V30 3555 H 336.335 5.17137 1.93063 0
M  V30 3556 H 338.811 3.32929 2.49595 0
M  V30 3557 H 337.687 4.11104 3.6371 0
M  V30 3558 H 337.948 2.37637 3.72802 0
M  V30 3559 N 337.007 -0.598083 1.45811 0
M  V30 3560 C 337.955 -1.72932 1.55555 0
M  V30 3561 C 338.949 -1.63984 0.424921 0
M  V30 3562 O 340.155 -1.69663 0.601205 0
M  V30 3563 H 336.53 -0.571489 0.488779 0
M  V30 3564 H 338.501 -1.61842 2.50699 0
M  V30 3565 C 337.25 -3.11318 1.54843 0
M  V30 3566 H 336.573 -3.18867 2.41172 0
M  V30 3567 H 338.013 -3.90274 1.65717 0
M  V30 3568 C 336.472 -3.3578 0.274427 0
M  V30 3569 O 337.002 -3.9654 -0.641778 0
M  V30 3570 N 335.208 -2.90119 0.167139 0
M  V30 3571 H 334.755 -2.40855 0.913596 0
M  V30 3572 H 334.713 -3.0686 -0.684435 0
M  V30 3573 N 338.485 -1.33259 -0.841409 0
M  V30 3574 C 339.448 -1.23221 -1.9326 0
M  V30 3575 C 340.448 -0.151895 -1.60081 0
M  V30 3576 O 341.638 -0.403246 -1.69468 0
M  V30 3577 C 338.77 -0.898123 -3.28856 0
M  V30 3578 H 339.963 -2.2021 -2.03587 0
M  V30 3579 H 337.516 -1.17281 -1.03319 0
M  V30 3580 H 338.251 0.0693841 -3.24226 0
M  V30 3581 H 338.036 -1.67934 -3.54317 0
M  V30 3582 H 339.526 -0.852563 -4.08805 0
M  V30 3583 N 339.963 1.05934 -1.16686 0
M  V30 3584 C 340.895 2.13468 -0.834503 0
M  V30 3585 C 341.908 1.62013 0.15984 0
M  V30 3586 O 343.097 1.7838 -0.0654228 0
M  V30 3587 C 340.197 3.3817 -0.222361 0
M  V30 3588 C 339.37 4.18928 -1.25771 0
M  V30 3589 C 338.429 5.21985 -0.664703 0
M  V30 3590 O 337.455 5.53334 -1.33453 0
M  V30 3591 N 338.657 5.77919 0.546834 0
M  V30 3592 H 341.422 2.42578 -1.75999 0
M  V30 3593 H 338.983 1.21967 -1.06469 0
M  V30 3594 H 340.975 4.04266 0.187472 0
M  V30 3595 H 339.545 3.06655 0.606758 0
M  V30 3596 H 338.765 3.48433 -1.84358 0
M  V30 3597 H 340.053 4.69687 -1.95631 0
M  V30 3598 H 339.451 5.54721 1.10912 0
M  V30 3599 H 338.008 6.45573 0.898829 0
M  V30 3600 N 341.441 0.965919 1.2453 0
M  V30 3601 C 342.718 0.543777 1.87889 0
M  V30 3602 C 343.098 -0.97909 1.87021 0
M  V30 3603 O 342.446 -1.84969 1.3416 0
M  V30 3604 C 342.656 1.13327 3.30088 0
M  V30 3605 C 344.004 1.21707 4.06783 0
M  V30 3606 O 345.028 1.08566 3.39252 0
M  V30 3607 O 343.887 1.42456 5.27606 0
M  V30 3608 H 340.981 0.181054 0.806938 0
M  V30 3609 H 343.527 1.06007 1.32516 0
M  V30 3610 H 342.299 2.17612 3.25209 0
M  V30 3611 H 341.922 0.600911 3.93033 0
M  V30 3612 N 342.919 -1.39368 0.735821 0
M  V30 3613 C 343.867 -2.32443 0.0855131 0
M  V30 3614 C 344.861 -1.53104 -0.724954 0
M  V30 3615 O 346.067 -1.68762 -0.626047 0
M  V30 3616 H 342.442 -0.751948 0.00885257 0
M  V30 3617 H 344.413 -2.84916 0.886883 0
M  V30 3618 C 343.162 -3.38206 -0.806983 0
M  V30 3619 H 342.485 -3.99335 -0.19274 0
M  V30 3620 H 343.925 -4.05779 -1.2296 0
M  V30 3621 C 342.384 -2.75321 -1.94165 0
M  V30 3622 O 342.914 -2.63231 -3.03435 0
M  V30 3623 N 341.12 -2.33396 -1.73132 0
M  V30 3624 H 340.667 -2.4343 -0.842596 0
M  V30 3625 H 340.625 -1.91661 -2.49225 0
M  V30 3626 N 344.397 -0.483516 -1.5 0
M  V30 3627 C 345.307 0.309172 -2.32554 0
M  V30 3628 C 346.323 0.984159 -1.43493 0
M  V30 3629 O 347.499 0.969399 -1.76535 0
M  V30 3630 C 344.564 1.36979 -3.18493 0
M  V30 3631 C 343.625 0.710095 -4.23387 0
M  V30 3632 C 342.858 1.72018 -5.05218 0
M  V30 3633 O 343.081 2.94813 -4.88305 0
M  V30 3634 O 342.015 1.28515 -5.8802 0
M  V30 3635 H 345.841 -0.366064 -3.01486 0
M  V30 3636 H 343.426 -0.24514 -1.47375 0
M  V30 3637 H 345.308 1.98385 -3.71781 0
M  V30 3638 H 343.983 2.02828 -2.52275 0
M  V30 3639 H 342.89 0.0567539 -3.74057 0
M  V30 3640 H 344.223 0.0943557 -4.9211 0
M  V30 3641 N 345.875 1.56104 -0.216619 0
M  V30 3642 C 347.152 1.89988 0.465165 0
M  V30 3643 C 347.532 1.13326 1.78102 0
M  V30 3644 O 346.88 0.241033 2.27225 0
M  V30 3645 C 347.09 3.42646 0.662939 0
M  V30 3646 C 348.438 4.13311 0.972602 0
M  V30 3647 O 349.462 3.48217 0.749901 0
M  V30 3648 O 348.321 5.28396 1.39499 0
M  V30 3649 H 345.415 0.78979 0.245276 0
M  V30 3650 H 347.961 1.67721 -0.258436 0
M  V30 3651 H 346.733 3.90399 -0.26543 0
M  V30 3652 H 346.356 3.70677 1.43821 0
M  V30 3653 N 347.353 -0.0568162 1.57498 0
M  V30 3654 C 348.303 -1.07315 2.01166 0
M  V30 3655 C 349.287 -1.33632 0.896171 0
M  V30 3656 O 350.479 -1.33682 1.16009 0
M  V30 3657 C 347.608 -2.38257 2.47161 0
M  V30 3658 C 346.694 -2.1515 3.65474 0
M  V30 3659 N 347.085 -1.62014 4.7915 0
M  V30 3660 C 345.383 -2.45559 3.72313 0
M  V30 3661 C 346.084 -1.54069 5.60926 0
M  V30 3662 N 345.06 -2.00652 5.05213 0
M  V30 3663 H 348.862 -0.655878 2.86488 0
M  V30 3664 H 346.376 -0.263635 1.60246 0
M  V30 3665 H 348.373 -3.11845 2.76691 0
M  V30 3666 H 347.033 -2.80687 1.63232 0
M  V30 3667 H 348.044 -1.30667 5.01145 0
M  V30 3668 H 344.721 -2.91253 2.99129 0
M  V30 3669 H 346.111 -1.13712 6.62208 0
M  V30 3670 N 348.832 -1.54138 -0.328536 0
M  V30 3671 C 350.078 -1.7236 -1.06865 0
M  V30 3672 C 350.411 -0.493231 -1.87832 0
M  V30 3673 O 349.686 0.5098 -1.877 0
M  V30 3674 C 349.969 -2.99621 -1.99747 0
M  V30 3675 C 349.822 -4.32899 -1.22143 0
M  V30 3676 C 351.141 -3.22615 -2.99345 0
M  V30 3677 H 348.26 -0.627151 -0.387105 0
M  V30 3678 H 350.902 -1.86827 -0.345767 0
M  V30 3679 H 349.052 -2.87418 -2.61387 0
M  V30 3680 H 350.724 -4.56978 -0.630017 0
M  V30 3681 H 348.967 -4.30628 -0.523628 0
M  V30 3682 H 349.638 -5.18154 -1.90318 0
M  V30 3683 H 352.114 -3.34248 -2.47826 0
M  V30 3684 H 350.99 -4.13027 -3.61524 0
M  V30 3685 H 351.251 -2.3961 -3.71536 0
M  V30 3686 N 350.31 0.590341 -1.46126 0
M  V30 3687 C 351.721 1.17243 -1.45296 0
M  V30 3688 C 352.072 1.95281 -0.189723 0
M  V30 3689 O 351.197 2.04502 0.707674 0
M  V30 3690 C 351.792 2.13284 -2.6324 0
M  V30 3691 C 350.351 2.66832 -2.65476 0
M  V30 3692 C 349.498 1.42557 -2.3785 0
M  V30 3693 H 352.449 0.378692 -1.54116 0
M  V30 3694 H 352.47 2.96619 -2.38323 0
M  V30 3695 H 351.982 1.56459 -3.55165 0
M  V30 3696 H 350.083 3.27548 -1.77603 0
M  V30 3697 H 350.196 3.10088 -3.65215 0
M  V30 3698 H 348.56 1.72107 -1.87753 0
M  V30 3699 H 349.343 0.875741 -3.31942 0
M  V30 3700 N 351.788 1.33704 0.83433 0
M  V30 3701 C 352.718 1.26967 1.95963 0
M  V30 3702 C 353.699 0.149337 1.69443 0
M  V30 3703 O 354.884 0.339852 1.91203 0
M  V30 3704 C 352.014 1.01275 3.32206 0
M  V30 3705 C 350.968 2.09652 3.73136 0
M  V30 3706 C 350.294 1.69166 5.07235 0
M  V30 3707 C 351.594 3.51372 3.86439 0
M  V30 3708 H 353.288 2.2112 2.01857 0
M  V30 3709 H 350.834 1.06447 0.969793 0
M  V30 3710 H 352.787 0.952106 4.10503 0
M  V30 3711 H 351.511 0.0356203 3.26581 0
M  V30 3712 H 350.17 2.14766 2.97104 0
M  V30 3713 H 349.818 0.701437 4.98085 0
M  V30 3714 H 349.518 2.41694 5.35591 0
M  V30 3715 H 351.042 1.64576 5.88003 0
M  V30 3716 H 352.456 3.48734 4.55036 0
M  V30 3717 H 350.853 4.22425 4.26236 0
M  V30 3718 H 351.923 3.89546 2.88759 0
M  V30 3719 N 353.266 -1.05314 1.17247 0
M  V30 3720 C 354.216 -2.11313 0.856196 0
M  V30 3721 C 355.2 -1.60013 -0.168694 0
M  V30 3722 O 356.392 -1.76968 0.0335624 0
M  V30 3723 C 353.521 -3.41301 0.369917 0
M  V30 3724 C 352.607 -3.99401 1.42616 0
M  V30 3725 N 352.998 -4.31481 2.63928 0
M  V30 3726 C 351.296 -4.27126 1.28373 0
M  V30 3727 C 351.997 -4.77799 3.31787 0
M  V30 3728 N 350.973 -4.77843 2.59166 0
M  V30 3729 H 354.775 -2.33976 1.77856 0
M  V30 3730 H 352.289 -1.2295 1.06099 0
M  V30 3731 H 354.286 -4.16713 0.124897 0
M  V30 3732 H 352.946 -3.20072 -0.546253 0
M  V30 3733 H 353.957 -4.21519 3.00902 0
M  V30 3734 H 350.634 -4.15289 0.429111 0
M  V30 3735 H 352.024 -5.11743 4.35395 0
M  V30 3736 N 354.744 -0.972509 -1.24016 0
M  V30 3737 C 355.991 -0.637034 -1.92219 0
M  V30 3738 C 356.319 0.828418 -1.75976 0
M  V30 3739 O 355.574 1.61206 -1.10955 0
M  V30 3740 C 355.873 -0.963694 -3.44162 0
M  V30 3741 C 355.539 -2.41807 -3.80579 0
M  V30 3742 C 354.201 -2.81556 -3.9023 0
M  V30 3743 C 356.553 -3.36172 -3.98293 0
M  V30 3744 C 353.881 -4.14702 -4.15017 0
M  V30 3745 C 356.233 -4.68952 -4.24578 0
M  V30 3746 C 354.897 -5.08472 -4.32449 0
M  V30 3747 H 354.167 -0.233107 -0.703379 0
M  V30 3748 H 356.814 -1.2249 -1.47202 0
M  V30 3749 H 355.119 -0.29365 -3.90698 0
M  V30 3750 H 356.816 -0.682449 -3.9515 0
M  V30 3751 H 353.406 -2.09988 -3.73635 0
M  V30 3752 H 357.59 -3.06644 -3.90234 0
M  V30 3753 H 352.846 -4.4494 -4.19331 0
M  V30 3754 H 357.02 -5.42037 -4.37229 0
M  V30 3755 H 354.647 -6.11665 -4.51409 0
M  V30 3756 N 356.222 1.38976 -0.743202 0
M  V30 3757 C 357.462 2.02193 -0.29954 0
M  V30 3758 C 357.826 1.5771 1.09506 0
M  V30 3759 O 359.027 2.13184 1.63726 0
M  V30 3760 C 357.298 3.55077 -0.406822 0
M  V30 3761 S 358.857 4.38778 -0.0442109 0
M  V30 3762 H 355.675 0.701335 -0.116836 0
M  V30 3763 H 358.277 1.69651 -0.971529 0
M  V30 3764 H 356.981 3.84942 -1.42295 0
M  V30 3765 H 356.512 3.92383 0.282707 0
M  V30 3766 H 358.527 4.82222 1.16947 0
M  V30 3767 N 357.7 0.491464 1.49741 0
M  V30 3768 C 358.925 -0.0557177 2.07325 0
M  V30 3769 C 359.35 -1.30925 1.35056 0
M  V30 3770 O 358.708 -1.76733 0.404365 0
M  V30 3771 C 358.756 -0.302074 3.59333 0
M  V30 3772 O 357.86 -1.37868 3.88672 0
M  V30 3773 H 357.201 0.0219956 0.663636 0
M  V30 3774 H 359.731 0.688352 1.92673 0
M  V30 3775 H 359.741 -0.536464 4.04458 0
M  V30 3776 H 358.416 0.61383 4.11345 0
M  V30 3777 H 356.993 -1.12999 3.55367 0
M  V30 3778 N 359.178 -1.55987 0.224894 0
M  V30 3779 C 360.594 -1.59066 -0.130426 0
M  V30 3780 C 360.794 -1.24176 -1.5869 0
M  V30 3781 O 359.85 -0.978592 -2.32766 0
M  V30 3782 C 361.163 -3.00042 0.198883 0
M  V30 3783 C 362.711 -3.1268 0.141391 0
M  V30 3784 C 363.186 -4.55839 0.444422 0
M  V30 3785 N 364.677 -4.6152 0.394115 0
M  V30 3786 C 365.412 -5.70231 0.602038 0
M  V30 3787 N 364.908 -6.87291 0.871914 0
M  V30 3788 N 366.701 -5.59555 0.534245 0
M  V30 3789 H 358.852 -1.76941 1.17497 0
M  V30 3790 H 361.115 -0.822604 0.471197 0
M  V30 3791 H 360.821 -3.30234 1.2099 0
M  V30 3792 H 360.695 -3.74075 -0.484535 0
M  V30 3793 H 363.082 -2.82283 -0.860265 0
M  V30 3794 H 363.163 -2.40969 0.858335 0
M  V30 3795 H 362.807 -4.86954 1.44353 0
M  V30 3796 H 362.737 -5.2578 -0.293752 0
M  V30 3797 H 365.228 -3.77405 0.193356 0
M  V30 3798 H 365.541 -7.66058 1.01858 0
M  V30 3799 H 363.886 -6.89028 0.909145 0
M  V30 3800 H 367.077 -4.6698 0.323612 0
M  V30 3801 H 367.25 -6.44211 0.699693 0
M  V30 3802 N 360.656 0.0484629 -1.57525 0
M  V30 3803 C 361.903 0.743125 -1.88372 0
M  V30 3804 C 362.231 1.76383 -0.819715 0
M  V30 3805 O 361.486 1.94855 0.181659 0
M  V30 3806 C 361.785 1.46632 -3.25935 0
M  V30 3807 C 361.451 0.583427 -4.4711 0
M  V30 3808 C 360.113 0.340191 -4.79996 0
M  V30 3809 C 362.465 -0.0273345 -5.21193 0
M  V30 3810 C 359.793 -0.522903 -5.84365 0
M  V30 3811 C 362.145 -0.878017 -6.26477 0
M  V30 3812 C 360.809 -1.1309 -6.5785 0
M  V30 3813 H 360.079 0.271929 -0.689301 0
M  V30 3814 H 362.726 0.00336166 -1.915 0
M  V30 3815 H 361.031 2.2789 -3.18706 0
M  V30 3816 H 362.728 2.00902 -3.47044 0
M  V30 3817 H 359.318 0.783151 -4.21384 0
M  V30 3818 H 363.502 0.147654 -4.9608 0
M  V30 3819 H 358.758 -0.727335 -6.07058 0
M  V30 3820 H 362.932 -1.35789 -6.83033 0
M  V30 3821 H 360.559 -1.80144 -7.38547 0
M  V30 3822 N 362.134 1.5431 0.320358 0
M  V30 3823 C 363.382 1.72327 1.05583 0
M  V30 3824 C 363.703 0.50149 1.88441 0
M  V30 3825 O 362.973 -0.48448 1.89815 0
M  V30 3826 H 361.553 0.635387 0.3928 0
M  V30 3827 H 364.215 1.91621 0.356019 0
M  V30 3828 H 363.311 2.60426 1.72003 0
M  V30 3829 N 363.613 -0.582584 1.46437 0
M  V30 3830 C 364.563 -1.68654 1.53426 0
M  V30 3831 C 365.547 -1.55971 0.395194 0
M  V30 3832 O 366.739 -1.64884 0.643612 0
M  V30 3833 C 363.868 -3.07439 1.52762 0
M  V30 3834 C 362.954 -3.25418 2.71963 0
M  V30 3835 N 363.345 -3.13556 3.96883 0
M  V30 3836 C 361.643 -3.56357 2.68189 0
M  V30 3837 C 362.344 -3.33543 4.76575 0
M  V30 3838 N 361.32 -3.58704 4.08451 0
M  V30 3839 H 365.122 -1.58014 2.47808 0
M  V30 3840 H 362.636 -0.786617 1.42078 0
M  V30 3841 H 364.633 -3.86671 1.55857 0
M  V30 3842 H 363.293 -3.1921 0.594573 0
M  V30 3843 H 364.304 -2.9142 4.28129 0
M  V30 3844 H 360.981 -3.74812 1.83908 0
M  V30 3845 H 362.371 -3.29555 5.85528 0
M  V30 3846 N 365.091 -1.34144 -0.827227 0
M  V30 3847 C 366.041 -1.21923 -1.92663 0
M  V30 3848 C 367.025 -0.119294 -1.60457 0
M  V30 3849 O 368.217 -0.348539 -1.73534 0
M  V30 3850 C 365.346 -0.972492 -3.29238 0
M  V30 3851 C 364.432 -2.1154 -3.67576 0
M  V30 3852 N 364.823 -3.36627 -3.77512 0
M  V30 3853 C 363.121 -2.02468 -3.97395 0
M  V30 3854 C 363.822 -4.11658 -4.1099 0
M  V30 3855 N 362.798 -3.40207 -4.23981 0
M  V30 3856 H 366.6 -2.16721 -1.98517 0
M  V30 3857 H 364.114 -1.2632 -1.02064 0
M  V30 3858 H 366.111 -0.865847 -4.0781 0
M  V30 3859 H 364.771 -0.0331509 -3.24683 0
M  V30 3860 H 365.782 -3.71234 -3.61118 0
M  V30 3861 H 362.459 -1.16265 -4.00985 0
M  V30 3862 H 363.849 -5.19657 -4.25918 0
M  V30 3863 N 366.569 1.04691 -1.17803 0
M  V30 3864 C 367.846 1.7472 -0.879328 0
M  V30 3865 C 368.226 2.01812 0.619271 0
M  V30 3866 O 367.574 1.65824 1.57209 0
M  V30 3867 C 367.784 3.03686 -1.71976 0
M  V30 3868 C 369.132 3.77542 -1.94286 0
M  V30 3869 O 370.156 3.13569 -1.68976 0
M  V30 3870 O 369.015 4.92506 -2.36855 0
M  V30 3871 H 366.109 0.760011 -0.326056 0
M  V30 3872 H 368.655 1.10813 -1.28525 0
M  V30 3873 H 367.427 2.79754 -2.73594 0
M  V30 3874 H 367.05 3.75332 -1.31194 0
M  V30 3875 N 368.047 0.979072 1.23499 0
M  V30 3876 C 369.296 0.642751 1.91185 0
M  V30 3877 C 369.609 -0.827253 1.77245 0
M  V30 3878 O 370.815 -1.27458 2.39722 0
M  V30 3879 C 369.271 1.09901 3.42709 0
M  V30 3880 C 368.879 2.59327 3.65313 0
M  V30 3881 C 370.623 0.836371 4.16179 0
M  V30 3882 C 368.53 2.98627 5.10467 0
M  V30 3883 H 367.46 0.236698 0.715884 0
M  V30 3884 H 370.111 1.1868 1.39955 0
M  V30 3885 H 368.493 0.48319 3.93041 0
M  V30 3886 H 369.667 3.26136 3.25533 0
M  V30 3887 H 367.982 2.83323 3.05151 0
M  V30 3888 H 370.579 1.10586 5.23139 0
M  V30 3889 H 370.922 -0.227509 4.15678 0
M  V30 3890 H 371.455 1.41371 3.71832 0
M  V30 3891 H 368.194 4.04133 5.16098 0
M  V30 3892 H 367.714 2.3651 5.51201 0
M  V30 3893 H 369.393 2.89159 5.78788 0
M  V30 3894 N 369.525 -1.3858 0.750561 0
M  V30 3895 C 370.771 -2.00481 0.305825 0
M  V30 3896 C 371.104 -1.5944 -1.10872 0
M  V30 3897 O 370.379 -0.83052 -1.75877 0
M  V30 3898 C 370.662 -3.5758 0.425287 0
M  V30 3899 C 370.515 -4.08594 1.88072 0
M  V30 3900 C 371.834 -4.39719 -0.183122 0
M  V30 3901 H 368.953 -0.728348 0.112598 0
M  V30 3902 H 371.595 -1.64566 0.949638 0
M  V30 3903 H 369.745 -3.88306 -0.122828 0
M  V30 3904 H 371.417 -3.88523 2.48691 0
M  V30 3905 H 369.66 -3.61574 2.39681 0
M  V30 3906 H 370.331 -5.177 1.91548 0
M  V30 3907 H 372.807 -4.15128 0.284303 0
M  V30 3908 H 371.683 -5.48856 -0.0692757 0
M  V30 3909 H 371.944 -4.23434 -1.27106 0
M  V30 3910 N 371.003 -0.499398 -1.49478 0
M  V30 3911 C 371.95 0.279881 -2.29097 0
M  V30 3912 C 372.92 0.961805 -1.3542 0
M  V30 3913 O 374.105 0.968777 -1.64376 0
M  V30 3914 C 371.245 1.33932 -3.18051 0
M  V30 3915 C 370.358 0.669333 -4.26783 0
M  V30 3916 C 369.493 1.70907 -5.02955 0
M  V30 3917 C 368.532 1.02087 -6.03527 0
M  V30 3918 N 367.669 2.00474 -6.7287 0
M  V30 3919 H 372.509 -0.405317 -2.95231 0
M  V30 3920 H 370.046 -0.211726 -1.45568 0
M  V30 3921 H 372.004 1.96553 -3.67998 0
M  V30 3922 H 370.634 1.9933 -2.53904 0
M  V30 3923 H 369.686 -0.0701234 -3.80335 0
M  V30 3924 H 370.998 0.127503 -4.98637 0
M  V30 3925 H 370.152 2.41037 -5.56764 0
M  V30 3926 H 368.891 2.28476 -4.30871 0
M  V30 3927 H 367.896 0.305338 -5.48951 0
M  V30 3928 H 369.121 0.451708 -6.77596 0
M  V30 3929 H 367.067 2.57007 -6.03559 0
M  V30 3930 H 366.984 1.51353 -7.40694 0
M  V30 3931 H 368.252 2.69897 -7.31284 0
M  V30 3932 N 372.481 1.55866 -0.233164 0
M  V30 3933 C 373.711 2.02704 0.399325 0
M  V30 3934 C 374.119 1.11204 1.53069 0
M  V30 3935 O 373.462 0.116182 1.83332 0
M  V30 3936 C 373.524 3.45844 0.981429 0
M  V30 3937 C 373.188 4.56997 -0.0159561 0
M  V30 3938 C 374.185 5.13384 -0.820552 0
M  V30 3939 C 371.87 5.0211 -0.138072 0
M  V30 3940 C 373.864 6.13365 -1.73386 0
M  V30 3941 C 371.551 6.01926 -1.0549 0
M  V30 3942 C 372.549 6.57431 -1.85132 0
M  V30 3943 O 372.237 7.55302 -2.75272 0
M  V30 3944 H 371.969 0.668459 0.100692 0
M  V30 3945 H 374.523 2.02387 -0.35052 0
M  V30 3946 H 372.753 3.43267 1.78058 0
M  V30 3947 H 374.442 3.76262 1.52255 0
M  V30 3948 H 375.208 4.79372 -0.736721 0
M  V30 3949 H 371.087 4.5858 0.471737 0
M  V30 3950 H 374.631 6.56614 -2.35592 0
M  V30 3951 H 370.528 6.35359 -1.1397 0
M  V30 3952 H 371.296 7.72867 -2.69477 0
M  V30 3953 N 373.959 -0.0401083 1.57549 0
M  V30 3954 C 374.889 -1.04384 2.08869 0
M  V30 3955 C 375.87 -1.38407 0.988817 0
M  V30 3956 O 377.055 -1.47483 1.26342 0
M  V30 3957 C 374.185 -2.34808 2.55895 0
M  V30 3958 C 373.139 -2.15057 3.70047 0
M  V30 3959 C 372.465 -3.51145 4.03239 0
M  V30 3960 C 373.765 -1.54576 4.98902 0
M  V30 3961 H 375.459 -0.616666 2.92981 0
M  V30 3962 H 373.005 -0.295184 1.40942 0
M  V30 3963 H 374.958 -3.05346 2.90417 0
M  V30 3964 H 373.682 -2.79565 1.68853 0
M  V30 3965 H 372.341 -1.46954 3.35857 0
M  V30 3966 H 371.989 -3.93529 3.13279 0
M  V30 3967 H 371.689 -3.38758 4.80122 0
M  V30 3968 H 373.213 -4.23062 4.40285 0
M  V30 3969 H 374.627 -2.15017 5.31451 0
M  V30 3970 H 373.024 -1.52796 5.80322 0
M  V30 3971 H 374.094 -0.51039 4.82206 0
M  V30 3972 N 375.437 -1.54477 -0.31217 0
M  V30 3973 C 376.367 -1.87652 -1.38957 0
M  V30 3974 C 377.348 -0.734358 -1.53431 0
M  V30 3975 O 378.533 -0.98911 -1.67123 0
M  V30 3976 C 375.663 -2.11396 -2.75552 0
M  V30 3977 C 374.617 -3.27243 -2.75855 0
M  V30 3978 C 373.943 -3.36382 -4.15633 0
M  V30 3979 C 375.243 -4.64622 -2.38587 0
M  V30 3980 H 376.937 -2.77887 -1.11442 0
M  V30 3981 H 374.483 -1.33707 -0.534655 0
M  V30 3982 H 376.436 -2.33189 -3.51 0
M  V30 3983 H 375.16 -1.17921 -3.04569 0
M  V30 3984 H 373.819 -3.05356 -2.02863 0
M  V30 3985 H 373.467 -2.40445 -4.41809 0
M  V30 3986 H 373.167 -4.14249 -4.1674 0
M  V30 3987 H 374.691 -3.60422 -4.92877 0
M  V30 3988 H 376.105 -4.86219 -3.03749 0
M  V30 3989 H 374.502 -5.45121 -2.50925 0
M  V30 3990 H 375.572 -4.66097 -1.33723 0
M  V30 3991 N 376.915 0.57481 -1.46744 0
M  V30 3992 C 377.847 1.69804 -1.53946 0
M  V30 3993 C 378.86 1.57098 -0.427106 0
M  V30 3994 O 380.049 1.64378 -0.695863 0
M  V30 3995 C 377.149 3.08125 -1.4111 0
M  V30 3996 C 376.322 3.46757 -2.66605 0
M  V30 3997 C 375.381 4.6417 -2.47855 0
M  V30 3998 O 374.407 4.69634 -3.21609 0
M  V30 3999 N 375.609 5.59553 -1.54534 0
M  V30 4000 H 378.374 1.64077 -2.50796 0
M  V30 4001 H 375.935 0.761 -1.429 0
M  V30 4002 H 377.927 3.84478 -1.26328 0
M  V30 4003 H 376.497 3.08175 -0.524109 0
M  V30 4004 H 375.717 2.6003 -2.96274 0
M  V30 4005 H 377.005 3.69337 -3.49954 0
M  V30 4006 H 376.403 5.57881 -0.937304 0
M  V30 4007 H 374.96 6.35304 -1.45711 0
M  V30 4008 N 378.394 1.34581 0.820102 0
M  V30 4009 C 379.619 1.30333 1.61332 0
M  V30 4010 C 380.044 -0.119339 1.87721 0
M  V30 4011 O 379.402 -1.08197 1.45475 0
M  V30 4012 C 379.45 2.10258 2.92957 0
M  V30 4013 O 378.554 1.47404 3.85157 0
M  V30 4014 H 377.895 0.447488 0.490561 0
M  V30 4015 H 380.425 1.77425 1.01889 0
M  V30 4016 H 380.435 2.21718 3.42498 0
M  V30 4017 H 379.11 3.13693 2.73074 0
M  V30 4018 H 377.687 1.44703 3.43679 0
M  V30 4019 N 379.872 -1.04064 1.18357 0
M  V30 4020 C 381.149 -1.74252 0.888581 0
M  V30 4021 C 381.529 -2.02138 -0.60856 0
M  V30 4022 O 380.877 -1.66656 -1.56327 0
M  V30 4023 C 381.087 -3.0277 1.73584 0
M  V30 4024 C 382.435 -3.76506 1.96286 0
M  V30 4025 O 383.459 -3.12668 1.70637 0
M  V30 4026 O 382.318 -4.91243 2.39464 0
M  V30 4027 H 379.412 -0.758271 0.330082 0
M  V30 4028 H 381.958 -1.1013 1.2911 0
M  V30 4029 H 380.73 -2.78299 2.75073 0
M  V30 4030 H 380.353 -3.74631 1.33183 0
M  V30 4031 N 381.35 -0.985608 -1.22978 0
M  V30 4032 C 382.28 -0.549649 -2.26939 0
M  V30 4033 C 383.261 0.419803 -1.64838 0
M  V30 4034 O 384.446 0.31203 -1.91677 0
M  V30 4035 C 381.576 0.143652 -3.47003 0
M  V30 4036 C 380.53 -0.743606 -4.21491 0
M  V30 4037 C 379.856 0.0822027 -5.34637 0
M  V30 4038 C 381.156 -2.03694 -4.80943 0
M  V30 4039 H 382.85 -1.41862 -2.63658 0
M  V30 4040 H 380.396 -0.683571 -1.26741 0
M  V30 4041 H 382.349 0.459985 -4.18882 0
M  V30 4042 H 381.073 1.04711 -3.09359 0
M  V30 4043 H 379.732 -1.04347 -3.51436 0
M  V30 4044 H 379.38 0.986359 -4.93234 0
M  V30 4045 H 379.08 -0.508377 -5.85397 0
M  V30 4046 H 380.604 0.392797 -6.09335 0
M  V30 4047 H 382.018 -1.78504 -5.44802 0
M  V30 4048 H 380.415 -2.57573 -5.42011 0
M  V30 4049 H 381.485 -2.72042 -4.01399 0
M  V30 4050 N 382.828 1.3818 -0.7579 0
M  V30 4051 C 383.738 2.3421 -0.135247 0
M  V30 4052 C 384.754 1.59487 0.695683 0
M  V30 4053 O 385.93 1.91657 0.618832 0
M  V30 4054 C 382.995 3.3862 0.744139 0
M  V30 4055 C 382.056 4.2918 -0.101658 0
M  V30 4056 C 381.289 5.28603 0.735851 0
M  V30 4057 O 381.512 5.35166 1.97366 0
M  V30 4058 O 380.446 6.01707 0.152372 0
M  V30 4059 H 384.272 2.8916 -0.928436 0
M  V30 4060 H 381.857 1.40101 -0.518855 0
M  V30 4061 H 383.739 4.02539 1.2466 0
M  V30 4062 H 382.414 2.86019 1.51575 0
M  V30 4063 H 381.321 3.68407 -0.650167 0
M  V30 4064 H 382.654 4.85048 -0.836024 0
M  V30 4065 N 384.306 0.507319 1.49211 0
M  V30 4066 C 385.552 -0.0350047 2.0277 0
M  V30 4067 C 385.885 -1.3606 1.38569 0
M  V30 4068 O 385.16 -1.87321 0.523542 0
M  V30 4069 C 385.443 -0.180916 3.59645 0
M  V30 4070 C 385.296 1.16825 4.34364 0
M  V30 4071 C 386.615 -0.918558 4.30407 0
M  V30 4072 H 383.734 -0.0112473 0.736914 0
M  V30 4073 H 386.376 0.659956 1.7817 0
M  V30 4074 H 384.526 -0.772826 3.80736 0
M  V30 4075 H 386.198 1.79952 4.24753 0
M  V30 4076 H 384.441 1.75594 3.96673 0
M  V30 4077 H 385.112 1.01939 5.42506 0
M  V30 4078 H 387.588 -0.41649 4.1401 0
M  V30 4079 H 386.464 -0.989505 5.39907 0
M  V30 4080 H 386.725 -1.96373 3.96093 0
M  V30 4081 N 385.784 -1.5574 0.241426 0
M  V30 4082 C 386.716 -2.18469 -0.693091 0
M  V30 4083 C 387.729 -1.15942 -1.14286 0
M  V30 4084 O 388.918 -1.42832 -1.07058 0
M  V30 4085 C 386.018 -2.7696 -1.95311 0
M  V30 4086 C 385.191 -4.04853 -1.65568 0
M  V30 4087 C 384.25 -4.47715 -2.76474 0
M  V30 4088 O 383.276 -5.14205 -2.44094 0
M  V30 4089 N 384.478 -4.15044 -4.05855 0
M  V30 4090 H 387.243 -2.99292 -0.156388 0
M  V30 4091 H 384.804 -1.61784 0.0611752 0
M  V30 4092 H 386.796 -3.02594 -2.68736 0
M  V30 4093 H 385.366 -2.00326 -2.39975 0
M  V30 4094 H 384.586 -3.86865 -0.756886 0
M  V30 4095 H 385.874 -4.88246 -1.43153 0
M  V30 4096 H 385.272 -3.61654 -4.34998 0
M  V30 4097 H 383.829 -4.45526 -4.75762 0
M  V30 4098 N 387.262 0.0317525 -1.57568 0
M  V30 4099 C 388.673 0.578692 -1.77505 0
M  V30 4100 C 389.024 1.75749 -0.872164 0
M  V30 4101 O 388.149 2.16298 -0.0663106 0
M  V30 4102 C 388.744 1.05658 -3.21904 0
M  V30 4103 C 387.303 1.54906 -3.43047 0
M  V30 4104 C 386.45 0.485939 -2.73009 0
M  V30 4105 H 389.401 -0.194475 -1.57504 0
M  V30 4106 H 389.422 1.92404 -3.28269 0
M  V30 4107 H 388.934 0.198422 -3.87592 0
M  V30 4108 H 387.035 2.42915 -2.82529 0
M  V30 4109 H 387.148 1.59841 -4.5165 0
M  V30 4110 H 385.512 0.940354 -2.36705 0
M  V30 4111 H 386.295 -0.362709 -3.41379 0
M  V30 4112 N 388.74 1.54641 0.303973 0
M  V30 4113 C 389.69 1.8177 1.37636 0
M  V30 4114 C 390.674 0.674697 1.46071 0
M  V30 4115 O 391.866 0.935251 1.50273 0
M  V30 4116 C 388.995 2.06584 2.74186 0
M  V30 4117 C 388.081 3.2706 2.69986 0
M  V30 4118 N 388.472 4.47682 2.35402 0
M  V30 4119 C 386.77 3.29028 3.01092 0
M  V30 4120 C 387.471 5.29689 2.40426 0
M  V30 4121 N 386.447 4.67339 2.7766 0
M  V30 4122 H 390.249 2.72596 1.09857 0
M  V30 4123 H 387.763 1.541 0.51254 0
M  V30 4124 H 389.76 2.24166 3.51504 0
M  V30 4125 H 388.42 1.17024 3.02879 0
M  V30 4126 H 389.431 4.74336 2.07908 0
M  V30 4127 H 386.108 2.49565 3.34699 0
M  V30 4128 H 387.498 6.3606 2.16512 0
M  V30 4129 N 390.218 -0.567019 1.47046 0
M  V30 4130 C 391.464 -1.32658 1.53394 0
M  V30 4131 C 391.797 -1.93254 0.19148 0
M  V30 4132 O 391.072 -1.77338 -0.798844 0
M  V30 4133 C 391.355 -2.44412 2.64452 0
M  V30 4134 C 391.208 -1.88749 4.08282 0
M  V30 4135 C 392.527 -3.46387 2.71485 0
M  V30 4136 H 389.646 -0.48098 0.558415 0
M  V30 4137 H 392.288 -0.635481 1.79058 0
M  V30 4138 H 390.438 -3.03363 2.427 0
M  V30 4139 H 392.11 -1.34134 4.41368 0
M  V30 4140 H 390.353 -1.19481 4.17021 0
M  V30 4141 H 391.024 -2.69491 4.81745 0
M  V30 4142 H 393.5 -2.9734 2.91081 0
M  V30 4143 H 392.376 -4.2202 3.50985 0
M  V30 4144 H 392.637 -4.04616 1.78153 0
M  V30 4145 N 391.696 -1.35014 -0.812953 0
M  V30 4146 C 392.942 -1.2812 -1.57204 0
M  V30 4147 C 393.275 0.145869 -1.93651 0
M  V30 4148 O 392.55 1.0937 -1.60836 0
M  V30 4149 C 392.833 -2.18162 -2.86492 0
M  V30 4150 C 392.686 -3.69454 -2.56561 0
M  V30 4151 C 394.005 -2.07439 -3.88145 0
M  V30 4152 H 391.124 -0.466746 -0.570366 0
M  V30 4153 H 393.766 -1.65357 -0.935783 0
M  V30 4154 H 391.916 -1.86535 -3.40789 0
M  V30 4155 H 393.588 -4.11493 -2.08497 0
M  V30 4156 H 391.831 -3.9005 -1.89851 0
M  V30 4157 H 392.502 -4.27835 -3.48799 0
M  V30 4158 H 394.978 -2.35228 -3.4323 0
M  V30 4159 H 393.854 -2.7265 -4.76396 0
M  V30 4160 H 394.115 -1.05439 -4.29343 0
M  V30 4161 N 393.175 1.03435 -1.18907 0
M  V30 4162 C 394.123 2.13703 -0.918353 0
M  V30 4163 C 395.117 1.68947 0.123767 0
M  V30 4164 O 396.323 1.79983 -0.0249701 0
M  V30 4165 H 392.698 0.698112 -0.279542 0
M  V30 4166 H 394.669 2.33731 -1.85506 0
M  V30 4167 C 393.418 3.44542 -0.467532 0
M  V30 4168 H 392.741 3.79394 -1.26095 0
M  V30 4169 H 394.181 4.22812 -0.317164 0
M  V30 4170 C 392.64 3.26829 0.817588 0
M  V30 4171 O 393.17 3.54975 1.88031 0
M  V30 4172 N 391.376 2.80139 0.772677 0
M  V30 4173 H 390.923 2.57434 -0.0923883 0
M  V30 4174 H 390.881 2.68668 1.63294 0
M  V30 4175 N 394.653 0.992116 1.22453 0
M  V30 4176 C 395.902 0.662992 1.90492 0
M  V30 4177 C 396.215 -0.808407 1.78113 0
M  V30 4178 O 397.421 -1.24908 2.41061 0
M  V30 4179 C 395.877 1.1353 3.41524 0
M  V30 4180 C 395.485 2.63187 3.62542 0
M  V30 4181 C 397.229 0.880465 4.15269 0
M  V30 4182 C 395.136 3.04024 5.0727 0
M  V30 4183 H 394.066 0.244278 0.713333 0
M  V30 4184 H 396.717 1.20157 1.38688 0
M  V30 4185 H 395.099 0.52485 3.92506 0
M  V30 4186 H 396.273 3.2957 3.22056 0
M  V30 4187 H 394.588 2.86543 3.02129 0
M  V30 4188 H 397.185 1.16128 5.21937 0
M  V30 4189 H 397.528 -0.183408 4.15896 0
M  V30 4190 H 398.061 1.45307 3.70312 0
M  V30 4191 H 394.8 4.09584 5.11782 0
M  V30 4192 H 394.32 2.42343 5.48662 0
M  V30 4193 H 395.999 2.95282 5.75689 0
M  V30 4194 N 396.131 -1.37776 0.765217 0
M  V30 4195 C 397.361 -2.03828 0.337277 0
M  V30 4196 C 397.769 -1.57841 -1.04321 0
M  V30 4197 O 397.112 -0.752043 -1.67601 0
M  V30 4198 C 397.174 -3.58292 0.294407 0
M  V30 4199 C 396.838 -4.27384 1.61838 0
M  V30 4200 C 397.835 -4.51956 2.56967 0
M  V30 4201 C 395.52 -4.65345 1.89102 0
M  V30 4202 C 397.514 -5.13536 3.77571 0
M  V30 4203 C 395.201 -5.26647 3.09978 0
M  V30 4204 C 396.199 -5.50679 4.04032 0
M  V30 4205 O 395.887 -6.10702 5.2278 0
M  V30 4206 H 395.619 -0.661292 0.140248 0
M  V30 4207 H 398.173 -1.77222 1.03834 0
M  V30 4208 H 396.403 -3.83918 -0.462983 0
M  V30 4209 H 398.092 -4.05763 -0.105581 0
M  V30 4210 H 398.858 -4.23048 2.37183 0
M  V30 4211 H 394.737 -4.45978 1.16725 0
M  V30 4212 H 398.281 -5.3221 4.50997 0
M  V30 4213 H 394.178 -5.54979 3.29649 0
M  V30 4214 H 394.946 -6.29183 5.23517 0
M  V30 4215 N 397.609 -0.515225 -1.4894 0
M  V30 4216 C 398.857 0.0241671 -2.02086 0
M  V30 4217 C 399.178 1.3616 -1.3959 0
M  V30 4218 O 398.448 1.87841 -0.556121 0
M  V30 4219 H 397.028 0.0119203 -0.746905 0
M  V30 4220 H 399.69 -0.675702 -1.82812 0
M  V30 4221 H 398.786 0.143385 -3.1177 0
M  V30 4222 N 399.087 1.5561 -0.249682 0
M  V30 4223 C 400.364 1.90932 0.424761 0
M  V30 4224 C 400.744 1.17078 1.75658 0
M  V30 4225 O 400.092 0.289176 2.26663 0
M  V30 4226 C 400.302 3.43975 0.590109 0
M  V30 4227 C 401.65 4.15281 0.884714 0
M  V30 4228 O 402.674 3.49729 0.67587 0
M  V30 4229 O 401.533 5.31236 1.28259 0
M  V30 4230 H 398.627 0.794815 0.228468 0
M  V30 4231 H 401.173 1.67135 -0.293954 0
M  V30 4232 H 399.945 3.89748 -0.34818 0
M  V30 4233 H 399.568 3.73644 1.35926 0
M  V30 4234 N 400.565 -0.0233959 1.57583 0
M  V30 4235 C 401.793 -0.724682 1.93794 0
M  V30 4236 C 402.208 -1.68588 0.849912 0
M  V30 4237 O 401.565 -1.81676 -0.173204 0
M  V30 4238 C 401.616 -1.47684 3.29957 0
M  V30 4239 O 401.337 -0.554222 4.3458 0
M  V30 4240 C 402.838 -2.27477 3.80485 0
M  V30 4241 H 400.058 -0.203317 0.639455 0
M  V30 4242 H 402.602 0.0207653 2.04489 0
M  V30 4243 H 400.757 -2.17412 3.20641 0
M  V30 4244 H 401.171 -1.08232 5.13212 0
M  V30 4245 H 402.645 -2.7564 4.78254 0
M  V30 4246 H 403.122 -3.09144 3.11972 0
M  V30 4247 H 403.728 -1.62813 3.92902 0
M  V30 4248 N 402.043 -1.548 -0.295768 0
M  V30 4249 C 403.454 -1.65274 -0.868411 0
M  V30 4250 C 403.805 -0.56481 -1.87894 0
M  V30 4251 O 402.93 0.29767 -2.14343 0
M  V30 4252 C 403.525 -2.99603 -1.58188 0
M  V30 4253 C 402.084 -3.12181 -2.10286 0
M  V30 4254 C 401.231 -2.6098 -0.93727 0
M  V30 4255 H 404.182 -1.58534 -0.0726422 0
M  V30 4256 H 404.203 -2.91319 -2.44772 0
M  V30 4257 H 403.715 -3.78764 -0.846151 0
M  V30 4258 H 401.816 -2.3775 -2.8689 0
M  V30 4259 H 401.929 -4.18415 -2.33379 0
M  V30 4260 H 400.293 -2.17564 -1.32431 0
M  V30 4261 H 401.076 -3.42623 -0.215414 0
M  V30 4262 N 403.521 0.559213 -1.47345 0
M  V30 4263 C 404.451 1.67622 -1.62558 0
M  V30 4264 C 405.432 1.63331 -0.475087 0
M  V30 4265 O 406.617 1.80983 -0.704182 0
M  V30 4266 C 403.747 3.0626 -1.63774 0
M  V30 4267 C 402.701 3.25397 -2.7803 0
M  V30 4268 C 402.027 4.64801 -2.64318 0
M  V30 4269 C 403.327 3.10965 -4.19641 0
M  V30 4270 H 405.021 1.55146 -2.56067 0
M  V30 4271 H 402.567 0.744961 -1.23233 0
M  V30 4272 H 404.52 3.84247 -1.73008 0
M  V30 4273 H 403.244 3.1969 -0.66825 0
M  V30 4274 H 401.903 2.49817 -2.68304 0
M  V30 4275 H 401.551 4.75028 -1.65401 0
M  V30 4276 H 401.251 4.78555 -3.40968 0
M  V30 4277 H 402.775 5.44926 -2.75478 0
M  V30 4278 H 404.189 3.78772 -4.30354 0
M  V30 4279 H 402.586 3.36229 -4.97062 0
M  V30 4280 H 403.656 2.07736 -4.38148 0
M  V30 4281 N 404.999 1.35443 0.805782 0
M  V30 4282 C 405.949 1.24972 1.90699 0
M  V30 4283 C 406.933 0.144806 1.60247 0
M  V30 4284 O 408.125 0.376102 1.72958 0
M  V30 4285 C 405.254 1.02475 3.27649 0
M  V30 4286 C 404.34 2.17361 3.64164 0
M  V30 4287 N 404.731 3.42591 3.72109 0
M  V30 4288 C 403.029 2.08765 3.94123 0
M  V30 4289 C 403.73 4.18144 4.04389 0
M  V30 4290 N 402.706 3.4691 4.18515 0
M  V30 4291 H 406.508 2.19852 1.95044 0
M  V30 4292 H 404.022 1.27928 1.00041 0
M  V30 4293 H 406.019 0.930617 4.06381 0
M  V30 4294 H 404.679 0.0848009 3.24589 0
M  V30 4295 H 405.69 3.76932 3.55166 0
M  V30 4296 H 402.367 1.22629 3.99084 0
M  V30 4297 H 403.757 5.26367 4.17597 0
M  V30 4298 N 406.477 -1.02803 1.19454 0
M  V30 4299 C 407.407 -2.12999 0.956758 0
M  V30 4300 C 408.388 -1.69743 -0.110188 0
M  V30 4301 O 409.573 -1.94148 0.0450038 0
M  V30 4302 C 406.703 -3.43746 0.495553 0
M  V30 4303 C 405.657 -4.00688 1.50443 0
M  V30 4304 C 404.983 -5.27067 0.900275 0
M  V30 4305 C 406.283 -4.35397 2.8849 0
M  V30 4306 H 407.977 -2.33148 1.87836 0
M  V30 4307 H 405.523 -1.12045 0.904539 0
M  V30 4308 H 407.476 -4.2021 0.316493 0
M  V30 4309 H 406.2 -3.23321 -0.461646 0
M  V30 4310 H 404.859 -3.2632 1.67065 0
M  V30 4311 H 404.507 -5.02959 -0.064503 0
M  V30 4312 H 404.207 -5.66127 1.57397 0
M  V30 4313 H 405.731 -6.06196 0.73203 0
M  V30 4314 H 407.145 -5.02795 2.75446 0
M  V30 4315 H 405.542 -4.85541 3.52661 0
M  V30 4316 H 406.612 -3.44662 3.41081 0
M  V30 4317 N 407.956 -0.998596 -1.21925 0
M  V30 4318 C 408.919 -0.558679 -2.22287 0
M  V30 4319 C 409.919 0.361525 -1.56683 0
M  V30 4320 O 411.109 0.152695 -1.73529 0
M  V30 4321 C 408.241 0.18661 -3.40389 0
M  V30 4322 H 409.434 -1.4463 -2.62721 0
M  V30 4323 H 406.987 -0.786413 -1.35075 0
M  V30 4324 H 407.722 1.08996 -3.05435 0
M  V30 4325 H 407.507 -0.474188 -3.89222 0
M  V30 4326 H 408.997 0.482367 -4.14805 0
M  V30 4327 N 409.434 1.37368 -0.772513 0
M  V30 4328 C 410.674 2.01512 -0.342361 0
M  V30 4329 C 411.038 1.59997 1.06136 0
M  V30 4330 O 412.239 2.16609 1.59167 0
M  V30 4331 C 410.51 3.54134 -0.482048 0
M  V30 4332 S 412.069 4.38585 -0.137272 0
M  V30 4333 H 408.887 0.698699 -0.131686 0
M  V30 4334 H 411.489 1.67552 -1.0073 0
M  V30 4335 H 410.193 3.81837 -1.50428 0
M  V30 4336 H 409.724 3.92894 0.199413 0
M  V30 4337 H 411.739 4.84594 1.06692 0
M  V30 4338 N 410.912 0.523116 1.48665 0
M  V30 4339 C 412.142 -0.00961724 2.06598 0
M  V30 4340 C 412.55 -1.29333 1.38093 0
M  V30 4341 O 411.893 -1.77846 0.46007 0
M  V30 4342 C 411.955 -0.311135 3.58151 0
M  V30 4343 C 411.619 0.878092 4.48485 0
M  V30 4344 C 412.616 1.77464 4.88674 0
M  V30 4345 C 410.301 1.08315 4.90483 0
M  V30 4346 C 412.295 2.86021 5.69623 0
M  V30 4347 C 409.982 2.17187 5.71203 0
M  V30 4348 C 410.98 3.05873 6.10681 0
M  V30 4349 O 410.668 4.12862 6.89783 0
M  V30 4350 H 410.4 0.0272658 0.67545 0
M  V30 4351 H 412.954 0.726156 1.92136 0
M  V30 4352 H 411.184 -1.10079 3.70701 0
M  V30 4353 H 412.873 -0.785125 3.98234 0
M  V30 4354 H 413.639 1.62813 4.56855 0
M  V30 4355 H 409.518 0.402149 4.59243 0
M  V30 4356 H 413.062 3.55272 6.00356 0
M  V30 4357 H 408.959 2.31824 6.02435 0
M  V30 4358 H 409.727 4.10487 7.08126 0
M  V30 4359 N 412.39 -1.55475 0.257931 0
M  V30 4360 C 413.338 -2.23244 -0.653076 0
M  V30 4361 C 414.332 -1.22366 -1.17144 0
M  V30 4362 O 415.538 -1.40347 -1.12706 0
M  V30 4363 H 411.913 -0.716247 -0.229117 0
M  V30 4364 H 413.884 -2.98343 -0.0584788 0
M  V30 4365 C 412.633 -2.95401 -1.83395 0
M  V30 4366 H 411.956 -3.72802 -1.44424 0
M  V30 4367 H 413.396 -3.46165 -2.44838 0
M  V30 4368 C 411.855 -1.99895 -2.71189 0
M  V30 4369 O 412.385 -1.53909 -3.71046 0
M  V30 4370 N 410.591 -1.6676 -2.3799 0
M  V30 4371 H 410.138 -2.04352 -1.56837 0
M  V30 4372 H 410.096 -1.03127 -2.97005 0
M  V30 4373 N 413.868 0.0150385 -1.57593 0
M  V30 4374 C 415.116 0.701613 -1.8953 0
M  V30 4375 C 415.437 1.75139 -0.857396 0
M  V30 4376 O 414.707 1.95607 0.107194 0
M  V30 4377 H 413.287 0.26213 -0.699498 0
M  V30 4378 H 415.949 -0.0223304 -1.94887 0
M  V30 4379 H 415.045 1.18236 -2.88837 0
M  V30 4380 N 415.346 1.54954 0.287554 0
M  V30 4381 C 416.293 1.86834 1.35505 0
M  V30 4382 C 417.263 0.718452 1.49758 0
M  V30 4383 O 418.448 0.968358 1.644 0
M  V30 4384 C 415.588 2.13303 2.71286 0
M  V30 4385 C 414.701 3.40883 2.65373 0
M  V30 4386 C 413.836 3.57125 3.93236 0
M  V30 4387 C 412.875 4.78449 3.81776 0
M  V30 4388 N 412.012 4.91426 5.01443 0
M  V30 4389 H 416.852 2.77889 1.07619 0
M  V30 4390 H 414.389 1.37593 0.520241 0
M  V30 4391 H 416.347 2.26646 3.50267 0
M  V30 4392 H 414.977 1.25499 2.97405 0
M  V30 4393 H 414.029 3.36088 1.78182 0
M  V30 4394 H 415.341 4.29993 2.52799 0
M  V30 4395 H 414.495 3.70207 4.80658 0
M  V30 4396 H 413.234 2.66173 4.0866 0
M  V30 4397 H 412.239 4.65386 2.92738 0
M  V30 4398 H 413.464 5.70822 3.67884 0
M  V30 4399 H 411.41 4.03401 5.17304 0
M  V30 4400 H 411.327 5.74559 4.91343 0
M  V30 4401 H 412.595 5.08879 5.90477 0
M  V30 4402 N 416.824 -0.551391 1.4764 0
M  V30 4403 C 418.071 -1.3083 1.54563 0
M  V30 4404 C 418.399 -1.93359 0.210361 0
M  V30 4405 O 417.654 -1.78721 -0.797332 0
M  V30 4406 C 417.953 -2.43469 2.61644 0
M  V30 4407 C 417.619 -1.98732 4.04742 0
M  V30 4408 C 416.281 -1.86248 4.43695 0
M  V30 4409 C 418.633 -1.64659 4.94507 0
M  V30 4410 C 415.961 -1.37995 5.70241 0
M  V30 4411 C 418.313 -1.17875 6.21521 0
M  V30 4412 C 416.977 -1.03992 6.5935 0
M  V30 4413 H 416.247 -0.478741 0.565587 0
M  V30 4414 H 418.894 -0.617697 1.81264 0
M  V30 4415 H 417.199 -3.18109 2.28722 0
M  V30 4416 H 418.896 -3.01642 2.64222 0
M  V30 4417 H 415.486 -2.09393 3.73968 0
M  V30 4418 H 419.67 -1.73174 4.65107 0
M  V30 4419 H 414.926 -1.25915 5.98294 0
M  V30 4420 H 419.1 -0.905739 6.90485 0
M  V30 4421 H 416.727 -0.663794 7.57296 0
M  V30 4422 N 418.302 -1.35869 -0.798587 0
M  V30 4423 C 419.212 -1.31578 -1.94228 0
M  V30 4424 C 420.228 -0.21939 -1.72611 0
M  V30 4425 O 421.404 -0.450167 -1.96305 0
M  V30 4426 C 418.469 -1.09528 -3.28944 0
M  V30 4427 C 417.53 -2.28556 -3.63402 0
M  V30 4428 C 416.763 -2.07549 -4.9169 0
M  V30 4429 O 416.986 -1.046 -5.60727 0
M  V30 4430 O 415.92 -2.95106 -5.24591 0
M  V30 4431 H 419.746 -2.27847 -2.00796 0
M  V30 4432 H 417.331 -1.16322 -0.937526 0
M  V30 4433 H 419.213 -0.991127 -4.09579 0
M  V30 4434 H 417.888 -0.16315 -3.23289 0
M  V30 4435 H 416.795 -2.44538 -2.83112 0
M  V30 4436 H 418.128 -3.20244 -3.73771 0
M  V30 4437 N 419.78 1.02168 -1.19998 0
M  V30 4438 C 421.026 1.75945 -1.00852 0
M  V30 4439 C 421.359 1.88702 0.458828 0
M  V30 4440 O 420.634 1.40911 1.34069 0
M  V30 4441 C 420.917 3.18154 -1.68671 0
M  V30 4442 C 420.77 3.13224 -3.22817 0
M  V30 4443 C 422.089 4.16711 -1.41561 0
M  V30 4444 H 419.208 0.638673 -0.367785 0
M  V30 4445 H 421.85 1.19222 -1.4794 0
M  V30 4446 H 420 3.66586 -1.28636 0
M  V30 4447 H 421.672 2.72635 -3.72112 0
M  V30 4448 H 419.915 2.50751 -3.53986 0
M  V30 4449 H 420.586 4.13728 -3.65422 0
M  V30 4450 H 423.062 3.76913 -1.76284 0
M  V30 4451 H 421.938 5.14391 -1.91553 0
M  V30 4452 H 422.199 4.40774 -0.342193 0
M  V30 4453 N 421.258 1.00505 1.21394 0
M  V30 4454 C 422.221 0.570459 2.21987 0
M  V30 4455 C 423.221 -0.353211 1.56873 0
M  V30 4456 O 424.411 -0.14349 1.73608 0
M  V30 4457 C 421.543 -0.168555 3.40483 0
M  V30 4458 H 422.736 1.46021 2.6195 0
M  V30 4459 H 420.289 0.793565 1.34656 0
M  V30 4460 H 421.024 -1.07374 3.06009 0
M  V30 4461 H 420.809 0.494823 3.88965 0
M  V30 4462 H 422.299 -0.460362 4.15055 0
M  V30 4463 N 422.737 -1.36956 0.779787 0
M  V30 4464 C 423.684 -2.30175 0.169697 0
M  V30 4465 C 424.654 -1.51501 -0.68094 0
M  V30 4466 O 425.839 -1.80042 -0.631629 0
M  V30 4467 C 422.979 -3.37985 -0.697131 0
M  V30 4468 C 422.092 -4.31661 0.170992 0
M  V30 4469 C 421.227 -5.2655 -0.701298 0
M  V30 4470 C 420.266 -6.11867 0.168869 0
M  V30 4471 N 419.403 -6.98973 -0.661855 0
M  V30 4472 H 424.243 -2.81767 0.970135 0
M  V30 4473 H 421.78 -1.38699 0.489994 0
M  V30 4474 H 423.738 -3.99128 -1.2146 0
M  V30 4475 H 422.368 -2.87739 -1.46309 0
M  V30 4476 H 421.42 -3.71756 0.80634 0
M  V30 4477 H 422.732 -4.91644 0.841875 0
M  V30 4478 H 421.886 -5.92937 -1.28494 0
M  V30 4479 H 420.625 -4.66998 -1.40584 0
M  V30 4480 H 419.63 -5.44452 0.764986 0
M  V30 4481 H 420.855 -6.73493 0.870863 0
M  V30 4482 H 418.801 -6.41941 -1.35086 0
M  V30 4483 H 418.718 -7.55984 -0.0484447 0
M  V30 4484 H 419.986 -7.6974 -1.22963 0
M  V30 4485 N 424.215 -0.530993 -1.48385 0
M  V30 4486 C 425.125 0.23503 -2.3342 0
M  V30 4487 C 426.141 0.93801 -1.46552 0
M  V30 4488 O 427.317 0.912745 -1.7953 0
M  V30 4489 C 424.382 1.26778 -3.22689 0
M  V30 4490 C 423.443 0.575038 -4.25431 0
M  V30 4491 C 422.676 1.55858 -5.10435 0
M  V30 4492 O 422.899 2.79129 -4.97437 0
M  V30 4493 O 421.833 1.09742 -5.91811 0
M  V30 4494 H 425.659 -0.461794 -3.00169 0
M  V30 4495 H 423.244 -0.291903 -1.46521 0
M  V30 4496 H 425.126 1.86457 -3.77904 0
M  V30 4497 H 423.801 1.94699 -2.586 0
M  V30 4498 H 422.708 -0.0622782 -3.74048 0
M  V30 4499 H 424.041 -0.062253 -4.92161 0
M  V30 4500 N 425.693 1.55336 -0.266172 0
M  V30 4501 C 426.942 1.98574 0.353749 0
M  V30 4502 C 427.255 1.15789 1.57646 0
M  V30 4503 O 428.461 1.49129 2.26876 0
M  V30 4504 C 426.917 3.53403 0.680747 0
M  V30 4505 C 426.525 4.44953 -0.52165 0
M  V30 4506 C 428.269 4.05251 1.26379 0
M  V30 4507 C 426.176 5.91156 -0.169736 0
M  V30 4508 H 425.106 0.741643 0.135949 0
M  V30 4509 H 427.757 1.79743 -0.369421 0
M  V30 4510 H 426.139 3.68001 1.46257 0
M  V30 4511 H 427.313 4.42121 -1.29869 0
M  V30 4512 H 425.628 4.03691 -1.02093 0
M  V30 4513 H 428.225 5.12021 1.54074 0
M  V30 4514 H 428.568 3.53749 2.19471 0
M  V30 4515 H 429.101 3.94057 0.544447 0
M  V30 4516 H 425.84 6.46736 -1.0683 0
M  V30 4517 H 425.36 5.97079 0.570717 0
M  V30 4518 H 427.039 6.4655 0.241245 0
M  V30 4519 N 427.171 -0.0066808 1.57599 0
M  V30 4520 C 428.42 -0.692078 1.89455 0
M  V30 4521 C 428.733 -1.75306 0.867586 0
M  V30 4522 O 429.939 -2.49262 1.07614 0
M  V30 4523 C 428.395 -1.2821 3.36289 0
M  V30 4524 C 428.003 -0.256291 4.47266 0
M  V30 4525 C 429.747 -1.94608 3.77264 0
M  V30 4526 C 427.654 -0.855927 5.85173 0
M  V30 4527 H 426.584 -0.262252 0.706923 0
M  V30 4528 H 429.235 0.052769 1.83424 0
M  V30 4529 H 427.617 -2.0774 3.37135 0
M  V30 4530 H 428.791 0.513923 4.57925 0
M  V30 4531 H 427.106 0.306862 4.15268 0
M  V30 4532 H 429.703 -2.40364 4.77629 0
M  V30 4533 H 430.046 -2.77382 3.10427 0
M  V30 4534 H 430.579 -1.21822 3.78688 0
M  V30 4535 H 427.318 -0.0671161 6.55466 0
M  V30 4536 H 426.838 -1.59546 5.78191 0
M  V30 4537 H 428.517 -1.35658 6.32618 0
M  V30 4538 N 428.649 -1.55105 -0.279332 0
M  V30 4539 C 429.581 -1.83952 -1.36727 0
M  V30 4540 C 430.594 -0.723642 -1.45833 0
M  V30 4541 O 431.783 -1.00141 -1.47763 0
M  V30 4542 C 428.883 -1.98183 -2.74912 0
M  V30 4543 C 428.056 -3.28787 -2.88475 0
M  V30 4544 C 427.115 -3.33162 -4.07295 0
M  V30 4545 O 426.141 -4.06576 -3.98353 0
M  V30 4546 N 427.343 -2.60109 -5.18964 0
M  V30 4547 H 430.108 -2.77853 -1.12328 0
M  V30 4548 H 427.669 -1.54945 -0.469442 0
M  V30 4549 H 429.661 -1.98488 -3.52682 0
M  V30 4550 H 428.231 -1.11177 -2.92162 0
M  V30 4551 H 427.451 -3.41075 -1.97641 0
M  V30 4552 H 428.739 -4.14933 -2.94463 0
M  V30 4553 H 428.137 -2.00136 -5.29115 0
M  V30 4554 H 426.694 -2.66143 -5.94988 0
M  V30 4555 N 430.127 0.543554 -1.4793 0
M  V30 4556 C 431.376 1.29649 -1.54512 0
M  V30 4557 C 431.689 1.94382 -0.217973 0
M  V30 4558 O 432.895 2.71017 -0.161908 0
M  V30 4559 C 431.351 2.35175 -2.72435 0
M  V30 4560 C 430.959 1.76572 -4.11736 0
M  V30 4561 C 432.703 3.11564 -2.8832 0
M  V30 4562 C 430.61 2.79958 -5.20939 0
M  V30 4563 H 429.54 0.487541 -0.57517 0
M  V30 4564 H 432.191 0.575708 -1.74235 0
M  V30 4565 H 430.573 3.10229 -2.46118 0
M  V30 4566 H 431.747 1.07799 -4.48013 0
M  V30 4567 H 430.062 1.12722 -4.00852 0
M  V30 4568 H 432.659 3.88794 -3.67074 0
M  V30 4569 H 433.002 3.66594 -1.97268 0
M  V30 4570 H 433.535 2.43623 -3.14472 0
M  V30 4571 H 430.274 2.29766 -6.13912 0
M  V30 4572 H 429.794 3.47101 -4.89164 0
M  V30 4573 H 431.473 3.43198 -5.48474 0
M  V30 4574 N 431.605 1.3629 0.791371 0
M  V30 4575 C 432.83 1.33726 1.58531 0
M  V30 4576 C 433.255 -0.0794933 1.87932 0
M  V30 4577 O 432.613 -1.05087 1.47738 0
M  V30 4578 C 432.661 2.16425 2.88431 0
M  V30 4579 O 431.765 1.5554 3.81944 0
M  V30 4580 H 431.106 0.457793 0.480959 0
M  V30 4581 H 433.636 1.79547 0.981031 0
M  V30 4582 H 433.646 2.28933 3.37718 0
M  V30 4583 H 432.321 3.19415 2.66359 0
M  V30 4584 H 430.898 1.51961 3.40532 0
M  V30 4585 N 433.083 -1.0153 1.20538 0
M  V30 4586 C 434.331 -1.74803 1.01432 0
M  V30 4587 C 434.652 -1.8963 -0.454456 0
M  V30 4588 O 433.922 -1.43975 -1.32846 0
M  V30 4589 H 432.502 -0.647598 0.372324 0
M  V30 4590 H 435.164 -1.22402 1.5167 0
M  V30 4591 H 434.26 -2.75114 1.47373 0
M  V30 4592 N 434.561 -1.01147 -1.20859 0
M  V30 4593 C 435.789 -0.716911 -1.94082 0
M  V30 4594 C 436.204 0.721568 -1.74467 0
M  V30 4595 O 435.561 1.48889 -1.05539 0
M  V30 4596 C 435.612 -1.03662 -3.46318 0
M  V30 4597 O 435.333 -2.4186 -3.65288 0
M  V30 4598 C 436.834 -0.762386 -4.36695 0
M  V30 4599 H 434.054 -0.26367 -0.617024 0
M  V30 4600 H 436.598 -1.35127 -1.53496 0
M  V30 4601 H 434.753 -0.447757 -3.84804 0
M  V30 4602 H 435.167 -2.53224 -4.59323 0
M  V30 4603 H 436.641 -1.03621 -5.42187 0
M  V30 4604 H 437.118 0.303514 -4.3815 0
M  V30 4605 H 437.724 -1.33316 -4.03865 0
M  V30 4606 N 436.039 1.36541 -0.78704 0
M  V30 4607 C 436.949 2.3387 -0.184896 0
M  V30 4608 C 437.965 1.60927 0.661697 0
M  V30 4609 O 439.141 1.92927 0.57804 0
M  V30 4610 C 436.206 3.40122 0.672145 0
M  V30 4611 C 435.267 4.28867 -0.19267 0
M  V30 4612 C 434.5 5.30045 0.623561 0
M  V30 4613 O 434.723 5.39232 1.8597 0
M  V30 4614 O 433.657 6.01895 0.0247068 0
M  V30 4615 H 437.483 2.87126 -0.989562 0
M  V30 4616 H 435.068 1.38969 -0.548455 0
M  V30 4617 H 436.95 4.05093 1.16094 0
M  V30 4618 H 435.625 2.89169 1.45474 0
M  V30 4619 H 434.532 3.66945 -0.728166 0
M  V30 4620 H 435.865 4.83165 -0.938722 0
M  V30 4621 N 437.518 0.538854 1.48102 0
M  V30 4622 C 438.743 0.0102694 2.07397 0
M  V30 4623 C 439.168 -1.26562 1.39153 0
M  V30 4624 O 438.526 -1.75357 0.460387 0
M  V30 4625 C 438.574 -0.187602 3.60112 0
M  V30 4626 O 437.678 -1.25432 3.92862 0
M  V30 4627 H 437.019 0.0430975 0.6626 0
M  V30 4628 H 439.549 0.749301 1.90385 0
M  V30 4629 H 439.559 -0.407517 4.0596 0
M  V30 4630 H 438.234 0.744386 4.09184 0
M  V30 4631 H 436.811 -1.01636 3.58782 0
M  V30 4632 N 438.996 -1.55193 0.274407 0
M  V30 4633 C 439.926 -2.25471 -0.607032 0
M  V30 4634 C 440.907 -1.24461 -1.15946 0
M  V30 4635 O 442.092 -1.53179 -1.19373 0
M  V30 4636 C 439.222 -2.97526 -1.79153 0
M  V30 4637 C 438.176 -4.05459 -1.37067 0
M  V30 4638 C 437.502 -4.65084 -2.6382 0
M  V30 4639 C 438.802 -5.19691 -0.521389 0
M  V30 4640 H 440.496 -2.99393 -0.0209343 0
M  V30 4641 H 438.042 -1.43997 -0.00862866 0
M  V30 4642 H 439.995 -3.45402 -2.41404 0
M  V30 4643 H 438.719 -2.21138 -2.40344 0
M  V30 4644 H 437.378 -3.58393 -0.771355 0
M  V30 4645 H 437.026 -3.85365 -3.23268 0
M  V30 4646 H 436.726 -5.37961 -2.36372 0
M  V30 4647 H 438.25 -5.15708 -3.26921 0
M  V30 4648 H 439.664 -5.63623 -1.04889 0
M  V30 4649 H 438.061 -5.99126 -0.341825 0
M  V30 4650 H 439.131 -4.82713 0.46 0
M  V30 4651 N 440.474 -0.00167713 -1.576 0
M  V30 4652 C 441.702 0.693759 -1.94922 0
M  V30 4653 C 442.117 1.67215 -0.876626 0
M  V30 4654 O 441.474 1.81929 0.144279 0
M  V30 4655 C 441.525 1.42416 -3.32265 0
M  V30 4656 O 441.246 0.485014 -4.35407 0
M  V30 4657 C 442.747 2.21395 -3.84056 0
M  V30 4658 H 439.967 0.193118 -0.642609 0
M  V30 4659 H 442.511 -0.0532952 -2.04431 0
M  V30 4660 H 440.666 2.12284 -3.24059 0
M  V30 4661 H 441.08 1.00053 -5.14868 0
M  V30 4662 H 442.554 2.67996 -4.82578 0
M  V30 4663 H 443.031 3.04142 -3.16851 0
M  V30 4664 H 443.637 1.56542 -3.95443 0
M  V30 4665 N 441.952 1.55251 0.271103 0
M  V30 4666 C 442.899 1.88261 1.33516 0
M  V30 4667 C 443.869 0.734296 1.48988 0
M  V30 4668 O 445.054 0.985741 1.63364 0
M  V30 4669 C 442.194 2.16168 2.69008 0
M  V30 4670 C 441.307 3.43678 2.61743 0
M  V30 4671 C 440.442 3.61276 3.89427 0
M  V30 4672 C 439.481 4.82472 3.7668 0
M  V30 4673 N 438.618 4.96717 4.96202 0
M  V30 4674 H 443.458 2.79015 1.04665 0
M  V30 4675 H 440.995 1.38137 0.505618 0
M  V30 4676 H 442.953 2.30349 3.47844 0
M  V30 4677 H 441.583 1.28646 2.96057 0
M  V30 4678 H 440.635 3.37959 1.74607 0
M  V30 4679 H 441.947 4.3265 2.48224 0
M  V30 4680 H 441.101 3.75284 4.76704 0
M  V30 4681 H 439.84 2.70492 4.05814 0
M  V30 4682 H 438.845 4.68465 2.87786 0
M  V30 4683 H 440.07 5.74692 3.61809 0
M  V30 4684 H 438.016 4.08865 5.12997 0
M  V30 4685 H 437.933 5.79738 4.85222 0
M  V30 4686 H 439.201 5.15113 5.85046 0
M  V30 4687 N 443.43 -0.535701 1.48216 0
M  V30 4688 C 444.34 -1.66785 1.64985 0
M  V30 4689 C 445.356 -1.65654 0.532414 0
M  V30 4690 O 446.532 -1.8471 0.80275 0
M  V30 4691 C 443.597 -3.0326 1.68031 0
M  V30 4692 C 442.658 -3.1529 2.9136 0
M  V30 4693 C 441.891 -4.45255 2.94252 0
M  V30 4694 O 442.114 -5.32011 2.05719 0
M  V30 4695 O 441.048 -4.6153 3.86359 0
M  V30 4696 H 444.874 -1.55576 2.60825 0
M  V30 4697 H 442.459 -0.70815 1.31551 0
M  V30 4698 H 444.341 -3.84436 1.72589 0
M  V30 4699 H 443.016 -3.14805 0.753628 0
M  V30 4700 H 441.923 -2.3343 2.92337 0
M  V30 4701 H 443.256 -3.08658 3.83394 0
M  V30 4702 N 444.908 -1.36708 -0.784132 0
M  V30 4703 C 445.856 -1.31533 -1.91838 0
M  V30 4704 C 446.85 -0.206205 -1.6814 0
M  V30 4705 O 448.056 -0.373519 -1.76082 0
M  V30 4706 H 444.431 -0.409613 -0.630651 0
M  V30 4707 H 446.402 -2.2731 -1.9332 0
M  V30 4708 C 445.151 -1.12679 -3.28936 0
M  V30 4709 H 444.474 -1.97274 -3.4774 0
M  V30 4710 H 445.914 -1.13106 -4.08636 0
M  V30 4711 C 444.373 0.168281 -3.36479 0
M  V30 4712 O 444.903 1.15625 -3.84699 0
M  V30 4713 N 443.109 0.214762 -2.89805 0
M  V30 4714 H 442.656 -0.589852 -2.50756 0
M  V30 4715 H 442.614 1.08094 -2.95234 0
M  V30 4716 N 446.386 1.0089 -1.21074 0
M  V30 4717 C 447.635 1.74019 -1.01981 0
M  V30 4718 C 447.948 1.90408 0.447665 0
M  V30 4719 O 449.154 2.60707 0.757906 0
M  V30 4720 C 447.61 3.13026 -1.77603 0
M  V30 4721 C 447.218 3.04623 -3.28495 0
M  V30 4722 C 448.962 3.90312 -1.66904 0
M  V30 4723 C 446.869 4.38685 -3.96623 0
M  V30 4724 H 445.799 0.652422 -0.377971 0
M  V30 4725 H 448.45 1.12755 -1.44771 0
M  V30 4726 H 446.832 3.74878 -1.27604 0
M  V30 4727 H 448.006 2.52032 -3.85767 0
M  V30 4728 H 446.321 2.40827 -3.39693 0
M  V30 4729 H 448.918 4.8951 -2.15138 0
M  V30 4730 H 449.261 4.11558 -0.62658 0
M  V30 4731 H 449.794 3.35104 -2.14359 0
M  V30 4732 H 446.533 4.22641 -5.01054 0
M  V30 4733 H 446.053 4.91252 -3.4414 0
M  V30 4734 H 447.732 5.075 -4.01314 0
M  V30 4735 N 447.864 1.01787 1.20321 0
M  V30 4736 C 449.111 0.707936 1.89722 0
M  V30 4737 C 449.439 -0.762535 1.78929 0
M  V30 4738 O 448.694 -1.56977 1.16861 0
M  V30 4739 C 448.993 1.09076 3.40349 0
M  V30 4740 C 448.659 2.55765 3.71342 0
M  V30 4741 C 447.321 2.95845 3.79511 0
M  V30 4742 C 449.673 3.50723 3.85542 0
M  V30 4743 C 447.001 4.2982 3.99339 0
M  V30 4744 C 449.353 4.84387 4.06881 0
M  V30 4745 C 448.017 5.24172 4.1328 0
M  V30 4746 H 447.287 0.259052 0.694243 0
M  V30 4747 H 449.934 1.27868 1.42555 0
M  V30 4748 H 448.239 0.438453 3.89339 0
M  V30 4749 H 449.936 0.828636 3.92345 0
M  V30 4750 H 446.526 2.2371 3.65584 0
M  V30 4751 H 450.71 3.20916 3.78585 0
M  V30 4752 H 445.966 4.60196 4.02529 0
M  V30 4753 H 450.14 5.57891 4.1681 0
M  V30 4754 H 447.767 6.27997 4.28396 0
M  V30 4755 N 449.342 -1.36122 0.79427 0
M  V30 4756 C 450.567 -2.03891 0.379871 0
M  V30 4757 C 450.992 -1.59488 -0.997251 0
M  V30 4758 O 450.35 -0.765652 -1.64339 0
M  V30 4759 C 450.398 -3.57687 0.457442 0
M  V30 4760 O 449.502 -4.08931 -0.5338 0
M  V30 4761 H 448.843 -0.6443 0.160541 0
M  V30 4762 H 451.373 -1.73976 1.07673 0
M  V30 4763 H 451.383 -4.06721 0.322792 0
M  V30 4764 H 450.058 -3.89357 1.46199 0
M  V30 4765 H 448.635 -3.71154 -0.360409 0
M  V30 4766 N 450.82 -0.546701 -1.47814 0
M  V30 4767 C 451.73 0.21026 -2.33656 0
M  V30 4768 C 452.746 0.922413 -1.47538 0
M  V30 4769 O 453.922 0.893652 -1.80488 0
M  V30 4770 C 450.987 1.23348 -3.24016 0
M  V30 4771 C 450.048 0.529883 -4.26017 0
M  V30 4772 C 449.281 1.50435 -5.12059 0
M  V30 4773 O 449.504 2.73837 -5.00369 0
M  V30 4774 O 448.438 1.03459 -5.92942 0
M  V30 4775 H 452.264 -0.493605 -2.99662 0
M  V30 4776 H 449.849 -0.307427 -1.46203 0
M  V30 4777 H 451.731 1.82438 -3.79861 0
M  V30 4778 H 450.406 1.91945 -2.60651 0
M  V30 4779 H 449.313 -0.101948 -3.73961 0
M  V30 4780 H 450.646 -0.11445 -4.92067 0
M  V30 4781 N 452.299 1.55045 -0.282633 0
M  V30 4782 C 453.527 2.04168 0.33512 0
M  V30 4783 C 453.942 1.16071 1.48906 0
M  V30 4784 O 453.299 0.182391 1.81586 0
M  V30 4785 C 453.35 3.52332 0.808957 0
M  V30 4786 O 453.071 4.37078 -0.299038 0
M  V30 4787 C 454.572 4.17375 1.49375 0
M  V30 4788 H 451.792 0.666744 0.0754543 0
M  V30 4789 H 454.336 2.00205 -0.416918 0
M  V30 4790 H 452.491 3.56715 1.51106 0
M  V30 4791 H 452.905 5.24458 0.0665514 0
M  V30 4792 H 454.379 5.22627 1.77664 0
M  V30 4793 H 454.856 3.65999 2.42778 0
M  V30 4794 H 455.462 4.17016 0.835305 0
M  V30 4795 N 453.777 0.010035 1.57597 0
M  V30 4796 C 454.74 -0.963029 2.07986 0
M  V30 4797 C 455.74 -1.26619 0.991173 0
M  V30 4798 O 456.93 -1.2097 1.25347 0
M  V30 4799 C 454.062 -2.2851 2.52974 0
M  V30 4800 H 455.255 -0.526971 2.95234 0
M  V30 4801 H 452.808 -0.237639 1.54483 0
M  V30 4802 H 453.543 -2.76784 1.69 0
M  V30 4803 H 453.328 -2.07824 3.32493 0
M  V30 4804 H 454.818 -2.98294 2.9225 0
M  V30 4805 N 455.255 -1.55392 -0.262866 0
M  V30 4806 C 456.502 -1.76476 -0.993109 0
M  V30 4807 C 456.83 -0.571479 -1.85915 0
M  V30 4808 O 456.085 0.445733 -1.90556 0
M  V30 4809 C 456.384 -3.02889 -1.89718 0
M  V30 4810 C 456.05 -4.34974 -1.18781 0
M  V30 4811 C 454.712 -4.7087 -0.991699 0
M  V30 4812 C 457.064 -5.16695 -0.683798 0
M  V30 4813 C 454.392 -5.86036 -0.279024 0
M  V30 4814 C 456.744 -6.32598 0.0153327 0
M  V30 4815 C 455.408 -6.67127 0.223062 0
M  V30 4816 H 454.678 -0.64577 -0.363404 0
M  V30 4817 H 457.325 -1.89664 -0.264525 0
M  V30 4818 H 455.63 -2.84644 -2.6923 0
M  V30 4819 H 457.327 -3.16399 -2.46359 0
M  V30 4820 H 453.917 -4.06765 -1.35058 0
M  V30 4821 H 458.101 -4.8943 -0.8229 0
M  V30 4822 H 453.357 -6.11306 -0.107456 0
M  V30 4823 H 457.531 -6.95171 0.413584 0
M  V30 4824 H 455.158 -7.56216 0.777265 0
M  V30 4825 N 456.733 0.527833 -1.48498 0
M  V30 4826 C 457.683 1.62844 -1.5958 0
M  V30 4827 C 458.667 1.54397 -0.452809 0
M  V30 4828 O 459.859 1.62381 -0.704364 0
M  V30 4829 C 456.988 3.01557 -1.64067 0
M  V30 4830 C 456.074 3.151 -2.83853 0
M  V30 4831 N 456.465 2.9861 -4.08247 0
M  V30 4832 C 454.763 3.46158 -2.8123 0
M  V30 4833 C 455.464 3.15626 -4.88626 0
M  V30 4834 N 454.44 3.43298 -4.21483 0
M  V30 4835 H 458.242 1.48708 -2.53502 0
M  V30 4836 H 455.756 0.733343 -1.44899 0
M  V30 4837 H 457.753 3.8062 -1.70101 0
M  V30 4838 H 456.413 3.16783 -0.712636 0
M  V30 4839 H 457.424 2.75329 -4.3865 0
M  V30 4840 H 454.101 3.67728 -1.97692 0
M  V30 4841 H 455.491 3.07596 -5.97356 0
M  V30 4842 N 458.211 1.37122 0.776871 0
M  V30 4843 C 459.436 1.354 1.57104 0
M  V30 4844 C 459.861 -0.0595562 1.88006 0
M  V30 4845 O 459.219 -1.03514 1.48844 0
M  V30 4846 C 459.267 2.19472 2.8612 0
M  V30 4847 O 458.371 1.59582 3.80273 0
M  V30 4848 H 457.712 0.462869 0.476076 0
M  V30 4849 H 460.242 1.80577 0.961932 0
M  V30 4850 H 460.252 2.32502 3.35271 0
M  V30 4851 H 458.927 3.22222 2.62956 0
M  V30 4852 H 457.504 1.55564 3.38902 0
M  V30 4853 N 459.689 -1.00246 1.21608 0
M  V30 4854 C 460.652 -2.07233 0.979133 0
M  V30 4855 C 461.652 -1.6072 -0.0508219 0
M  V30 4856 O 462.842 -1.73196 0.186712 0
M  V30 4857 C 459.974 -3.37546 0.477016 0
M  V30 4858 H 461.167 -2.29687 1.92831 0
M  V30 4859 H 458.72 -1.17261 1.03342 0
M  V30 4860 H 459.455 -3.20773 -0.476966 0
M  V30 4861 H 459.24 -3.72638 1.21997 0
M  V30 4862 H 460.73 -4.16285 0.331181 0
M  V30 4863 N 461.167 -1.02423 -1.1978 0
M  V30 4864 C 462.407 -0.726635 -1.91048 0
M  V30 4865 C 462.771 0.730947 -1.77542 0
M  V30 4866 O 463.972 1.14141 -2.43362 0
M  V30 4867 C 462.243 -1.15964 -3.38064 0
M  V30 4868 S 463.802 -0.985172 -4.27598 0
M  V30 4869 H 460.62 -0.264679 -0.659899 0
M  V30 4870 H 463.222 -1.31309 -1.44838 0
M  V30 4871 H 461.926 -2.21619 -3.45417 0
M  V30 4872 H 461.457 -0.566274 -3.89303 0
M  V30 4873 H 463.472 0.106946 -4.96085 0
M  V30 4874 N 462.645 1.35699 -0.801477 0
M  V30 4875 C 463.873 2.03157 -0.391768 0
M  V30 4876 C 464.288 1.60412 0.995668 0
M  V30 4877 O 463.645 0.799228 1.64069 0
M  V30 4878 C 463.696 3.58566 -0.459671 0
M  V30 4879 O 463.417 3.99756 -1.7924 0
M  V30 4880 C 464.918 4.4328 -0.0421205 0
M  V30 4881 H 462.138 0.651688 -0.159825 0
M  V30 4882 H 464.682 1.73426 -1.08368 0
M  V30 4883 H 462.837 3.86963 0.183939 0
M  V30 4884 H 463.251 4.94387 -1.75162 0
M  V30 4885 H 464.725 5.51821 -0.140754 0
M  V30 4886 H 465.202 4.27383 1.01196 0
M  V30 4887 H 465.808 4.20168 -0.658687 0
M  V30 4888 N 464.123 0.554532 1.47522 0
M  V30 4889 C 465.353 0.0342074 2.06572 0
M  V30 4890 C 465.761 -1.26375 1.40805 0
M  V30 4891 O 465.104 -1.7683 0.49769 0
M  V30 4892 C 465.166 -0.235096 3.5873 0
M  V30 4893 C 464.83 0.973024 4.46521 0
M  V30 4894 C 465.827 1.8779 4.848 0
M  V30 4895 C 463.512 1.18694 4.88075 0
M  V30 4896 C 465.506 2.98039 5.63428 0
M  V30 4897 C 463.193 2.29254 5.66468 0
M  V30 4898 C 464.191 3.18757 6.04055 0
M  V30 4899 O 463.879 4.27401 6.8087 0
M  V30 4900 H 463.611 0.041587 0.67472 0
M  V30 4901 H 466.165 0.766748 1.90552 0
M  V30 4902 H 464.395 -1.02191 3.72953 0
M  V30 4903 H 466.084 -0.700477 3.9981 0
M  V30 4904 H 466.85 1.72467 4.53299 0
M  V30 4905 H 462.729 0.49947 4.58286 0
M  V30 4906 H 466.273 3.67926 5.92685 0
M  V30 4907 H 462.17 2.4455 5.97382 0
M  V30 4908 H 462.938 4.25415 6.9926 0
M  V30 4909 N 465.601 -1.54893 0.290851 0
M  V30 4910 C 466.849 -1.99538 -0.320756 0
M  V30 4911 C 467.17 -1.18075 -1.55188 0
M  V30 4912 O 466.44 -0.274162 -1.93972 0
M  V30 4913 H 465.02 -0.737052 -0.121507 0
M  V30 4914 H 467.682 -1.90755 0.399832 0
M  V30 4915 H 466.778 -3.06282 -0.599802 0
M  V30 4916 N 467.08 -0.0183926 -1.57589 0
M  V30 4917 C 468.027 0.967022 -2.09565 0
M  V30 4918 C 468.997 1.32983 -0.995225 0
M  V30 4919 O 470.182 1.42501 -1.26878 0
M  V30 4920 C 467.322 2.24772 -2.61861 0
M  V30 4921 C 466.435 1.94232 -3.85873 0
M  V30 4922 C 465.57 3.16518 -4.26603 0
M  V30 4923 C 464.609 2.81748 -5.43401 0
M  V30 4924 N 463.746 3.96626 -5.79338 0
M  V30 4925 H 468.586 0.516874 -2.93483 0
M  V30 4926 H 466.123 0.243544 -1.4507 0
M  V30 4927 H 468.081 2.99667 -2.90268 0
M  V30 4928 H 466.711 2.67423 -1.8079 0
M  V30 4929 H 465.763 1.09625 -3.64262 0
M  V30 4930 H 467.075 1.64616 -4.70853 0
M  V30 4931 H 466.229 3.99743 -4.56389 0
M  V30 4932 H 464.968 3.49286 -3.40368 0
M  V30 4933 H 463.973 1.96933 -5.1332 0
M  V30 4934 H 465.198 2.50207 -6.31327 0
M  V30 4935 H 463.144 4.29257 -4.96059 0
M  V30 4936 H 463.061 3.70598 -6.58933 0
M  V30 4937 H 464.329 4.80586 -6.13724 0
M  V30 4938 N 468.558 1.5553 0.254621 0
M  V30 4939 C 469.783 1.81383 1.00573 0
M  V30 4940 C 470.208 0.594419 1.78461 0
M  V30 4941 O 469.566 -0.456403 1.75461 0
M  V30 4942 C 469.614 3.04892 1.92545 0
M  V30 4943 O 468.718 2.81266 3.01601 0
M  V30 4944 H 468.059 0.598969 0.286587 0
M  V30 4945 H 470.589 2.02703 0.277952 0
M  V30 4946 H 470.599 3.34119 2.34155 0
M  V30 4947 H 469.274 3.93287 1.3527 0
M  V30 4948 H 467.851 2.63185 2.64174 0
M  V30 4949 N 470.036 -0.519951 1.48776 0
M  V30 4950 C 471.285 -1.27175 1.56555 0
M  V30 4951 C 471.598 -1.9401 0.248869 0
M  V30 4952 O 472.804 -2.70725 0.205004 0
M  V30 4953 C 471.26 -2.30811 2.76142 0
M  V30 4954 C 470.868 -1.7 4.14493 0
M  V30 4955 C 472.612 -3.06937 2.9324 0
M  V30 4956 C 470.519 -2.71635 5.25327 0
M  V30 4957 H 469.449 -0.478329 0.582853 0
M  V30 4958 H 472.1 -0.547916 1.75129 0
M  V30 4959 H 470.482 -3.06274 2.51023 0
M  V30 4960 H 471.656 -1.00658 4.49672 0
M  V30 4961 H 469.971 -1.06331 4.02595 0
M  V30 4962 H 472.568 -3.82905 3.73213 0
M  V30 4963 H 472.911 -3.63409 2.03075 0
M  V30 4964 H 473.444 -2.38589 3.18308 0
M  V30 4965 H 470.183 -2.1997 6.1749 0
M  V30 4966 H 469.703 -3.39275 4.94624 0
M  V30 4967 H 471.382 -3.34429 5.53865 0
M  V30 4968 N 471.514 -1.37532 -0.769588 0
M  V30 4969 C 472.791 -1.23392 -1.51768 0
M  V30 4970 C 473.171 0.17157 -2.10402 0
M  V30 4971 O 472.519 1.17943 -1.95708 0
M  V30 4972 C 472.729 -2.33163 -2.59685 0
M  V30 4973 C 474.077 -2.70809 -3.27028 0
M  V30 4974 O 475.101 -2.32355 -2.69981 0
M  V30 4975 O 473.96 -3.37066 -4.30173 0
M  V30 4976 H 471.054 -0.481617 -0.67229 0
M  V30 4977 H 473.6 -1.49318 -0.806368 0
M  V30 4978 H 472.372 -3.27273 -2.14494 0
M  V30 4979 H 471.995 -2.08713 -3.38415 0
M  V30 4980 N 472.992 0.995999 -1.22138 0
M  V30 4981 C 473.922 2.10387 -1.01289 0
M  V30 4982 C 474.903 1.69975 0.0651454 0
M  V30 4983 O 476.088 1.9396 -0.0964628 0
M  V30 4984 C 473.218 3.42312 -0.586517 0
M  V30 4985 C 472.172 3.96558 -1.61014 0
M  V30 4986 C 471.498 5.24494 -1.0397 0
M  V30 4987 C 472.798 4.27595 -2.99933 0
M  V30 4988 H 474.492 2.28086 -1.93951 0
M  V30 4989 H 472.038 1.09607 -0.933928 0
M  V30 4990 H 473.991 4.19223 -0.427793 0
M  V30 4991 H 472.715 3.24431 0.375761 0
M  V30 4992 H 471.374 3.21776 -1.75658 0
M  V30 4993 H 471.022 5.02953 -0.0688703 0
M  V30 4994 H 470.722 5.61755 -1.72352 0
M  V30 4995 H 472.246 6.04042 -0.892494 0
M  V30 4996 H 473.66 4.95315 -2.8868 0
M  V30 4997 H 472.057 4.76021 -3.6541 0
M  V30 4998 H 473.127 3.35498 -3.50099 0
M  V30 4999 N 474.47 1.03057 1.19235 0
M  V30 5000 C 475.716 0.729098 1.89241 0
M  V30 5001 C 476.049 -0.740573 1.79525 0
M  V30 5002 O 475.324 -1.53946 1.18874 0
M  V30 5003 C 475.607 1.18304 3.40112 0
M  V30 5004 C 475.46 2.71406 3.5869 0
M  V30 5005 C 476.779 0.765161 4.33397 0
M  V30 5006 H 473.898 0.266338 0.687192 0
M  V30 5007 H 476.54 1.28079 1.40341 0
M  V30 5008 H 474.69 0.713672 3.81889 0
M  V30 5009 H 476.362 3.26303 3.26074 0
M  V30 5010 H 474.605 3.11717 3.01687 0
M  V30 5011 H 475.276 2.98225 4.64506 0
M  V30 5012 H 477.752 1.16889 3.99345 0
M  V30 5013 H 476.628 1.11065 5.37546 0
M  V30 5014 H 476.889 -0.332372 4.40849 0
M  V30 5015 N 475.948 -1.35272 0.808662 0
M  V30 5016 C 476.895 -2.29764 0.218482 0
M  V30 5017 C 477.865 -1.52911 -0.648652 0
M  V30 5018 O 479.05 -1.81341 -0.593297 0
M  V30 5019 C 476.19 -3.39388 -0.625282 0
M  V30 5020 C 475.303 -4.31202 0.262516 0
M  V30 5021 C 474.438 -5.27919 -0.589451 0
M  V30 5022 C 473.477 -6.11371 0.298617 0
M  V30 5023 N 472.614 -7.0022 -0.513443 0
M  V30 5024 H 477.454 -2.79645 1.02968 0
M  V30 5025 H 474.991 -1.37629 0.519303 0
M  V30 5026 H 476.949 -4.01615 -1.12966 0
M  V30 5027 H 475.579 -2.90777 -1.40173 0
M  V30 5028 H 474.631 -3.69962 0.885013 0
M  V30 5029 H 475.943 -4.89748 0.945971 0
M  V30 5030 H 475.097 -5.95529 -1.15888 0
M  V30 5031 H 473.836 -4.69875 -1.30647 0
M  V30 5032 H 472.841 -5.42707 0.880301 0
M  V30 5033 H 474.066 -6.71494 1.01352 0
M  V30 5034 H 472.012 -6.44662 -1.21439 0
M  V30 5035 H 471.929 -7.55917 0.111922 0
M  V30 5036 H 473.197 -7.72175 -1.06608 0
M  V30 5037 N 477.426 -0.562348 -1.47226 0
M  V30 5038 C 478.673 -0.0402165 -2.0246 0
M  V30 5039 C 479.001 1.31169 -1.43614 0
M  V30 5040 O 478.256 1.86805 -0.5833 0
M  V30 5041 C 478.555 0.0969817 -3.57268 0
M  V30 5042 C 478.221 -1.1847 -4.35058 0
M  V30 5043 C 476.883 -1.53588 -4.56031 0
M  V30 5044 C 479.235 -2.03378 -4.79882 0
M  V30 5045 C 476.563 -2.73452 -5.19077 0
M  V30 5046 C 478.915 -3.2245 -5.44251 0
M  V30 5047 C 477.579 -3.57876 -5.63455 0
M  V30 5048 H 476.849 -0.0147163 -0.740854 0
M  V30 5049 H 479.496 -0.734895 -1.76838 0
M  V30 5050 H 477.801 0.87466 -3.81912 0
M  V30 5051 H 479.498 0.516408 -3.97661 0
M  V30 5052 H 476.088 -0.90126 -4.19017 0
M  V30 5053 H 480.272 -1.77553 -4.63453 0
M  V30 5054 H 475.528 -3.01062 -5.32139 0
M  V30 5055 H 479.702 -3.88526 -5.77945 0
M  V30 5056 H 477.329 -4.50849 -6.12078 0
M  V30 5057 N 478.904 1.54736 -0.299062 0
M  V30 5058 C 479.834 2.26409 0.571085 0
M  V30 5059 C 480.815 1.2629 1.13951 0
M  V30 5060 O 482 1.55059 1.16921 0
M  V30 5061 C 479.13 3.00338 1.74396 0
M  V30 5062 C 478.084 4.07588 1.30599 0
M  V30 5063 C 477.41 4.69222 2.56387 0
M  V30 5064 C 478.71 5.20455 0.438645 0
M  V30 5065 H 480.404 2.99388 -0.0266991 0
M  V30 5066 H 477.95 1.43993 -0.0142812 0
M  V30 5067 H 479.903 3.49198 2.35878 0
M  V30 5068 H 478.627 2.24934 2.36796 0
M  V30 5069 H 477.286 3.59575 0.71424 0
M  V30 5070 H 476.934 3.9046 3.17097 0
M  V30 5071 H 476.634 5.41653 2.27784 0
M  V30 5072 H 478.158 5.20844 3.18675 0
M  V30 5073 H 479.572 5.65221 0.959085 0
M  V30 5074 H 477.969 5.99594 0.246466 0
M  V30 5075 H 479.039 4.8192 -0.536738 0
M  V30 5076 N 480.382 0.0267497 1.57577 0
M  V30 5077 C 481.312 -0.954308 2.13108 0
M  V30 5078 C 482.293 -1.34088 1.04663 0
M  V30 5079 O 483.478 -1.41992 1.32484 0
M  V30 5080 C 480.608 -2.23744 2.65624 0
M  V30 5081 C 479.562 -1.99168 3.78835 0
M  V30 5082 C 478.888 -3.33726 4.17769 0
M  V30 5083 C 480.188 -1.33277 5.0501 0
M  V30 5084 H 481.882 -0.491848 2.95332 0
M  V30 5085 H 479.428 -0.23514 1.42067 0
M  V30 5086 H 481.381 -2.92754 3.03106 0
M  V30 5087 H 480.105 -2.72151 1.80558 0
M  V30 5088 H 478.764 -1.32577 3.41788 0
M  V30 5089 H 478.412 -3.79888 3.29688 0
M  V30 5090 H 478.112 -3.18089 4.94058 0
M  V30 5091 H 479.636 -4.04008 4.57832 0
M  V30 5092 H 481.05 -1.92283 5.40093 0
M  V30 5093 H 479.447 -1.28045 5.8628 0
M  V30 5094 H 480.517 -0.305411 4.83937 0
M  V30 5095 N 481.861 -1.55662 -0.24637 0
M  V30 5096 C 483.138 -1.68272 -0.997198 0
M  V30 5097 C 483.518 -0.566785 -2.03349 0
M  V30 5098 O 482.866 0.429688 -2.24424 0
M  V30 5099 C 483.076 -3.08594 -1.63006 0
M  V30 5100 C 484.424 -3.6721 -2.13171 0
M  V30 5101 O 485.448 -3.11397 -1.72946 0
M  V30 5102 O 484.307 -4.65054 -2.87031 0
M  V30 5103 H 481.401 -0.684429 -0.464205 0
M  V30 5104 H 483.947 -1.67993 -0.240114 0
M  V30 5105 H 482.719 -3.81264 -0.880527 0
M  V30 5106 H 482.342 -3.12886 -2.45333 0
M  V30 5107 N 483.339 0.512053 -1.4905 0
M  V30 5108 C 484.271 1.63121 -1.6101 0
M  V30 5109 C 485.284 1.55145 -0.493352 0
M  V30 5110 O 486.473 1.61278 -0.764955 0
M  V30 5111 C 483.573 3.01863 -1.54052 0
M  V30 5112 C 482.746 3.35138 -2.81072 0
M  V30 5113 C 481.805 4.5324 -2.67319 0
M  V30 5114 O 480.831 4.55571 -3.41238 0
M  V30 5115 N 482.033 5.52495 -1.78127 0
M  V30 5116 H 484.798 1.53292 -2.5753 0
M  V30 5117 H 482.359 0.699706 -1.45999 0
M  V30 5118 H 484.351 3.78774 -1.42521 0
M  V30 5119 H 482.921 3.05675 -0.654345 0
M  V30 5120 H 482.141 2.4723 -3.07036 0
M  V30 5121 H 483.429 3.54162 -3.65304 0
M  V30 5122 H 482.827 5.53403 -1.17308 0
M  V30 5123 H 481.384 6.28553 -1.72525 0
M  V30 5124 N 484.817 1.37938 0.762283 0
M  V30 5125 C 485.765 1.34569 1.89721 0
M  V30 5126 C 486.759 0.232929 1.67791 0
M  V30 5127 O 487.965 0.401485 1.75465 0
M  V30 5128 H 484.34 0.419594 0.624055 0
M  V30 5129 H 486.311 2.30357 1.8968 0
M  V30 5130 C 485.06 1.17898 3.27101 0
M  V30 5131 H 484.383 2.02781 3.44558 0
M  V30 5132 H 485.823 1.19593 4.06784 0
M  V30 5133 C 484.282 -0.114728 3.36705 0
M  V30 5134 O 484.812 -1.0949 3.8649 0
M  V30 5135 N 483.018 -0.16863 2.9011 0
M  V30 5136 H 482.565 0.62967 2.49786 0
M  V30 5137 H 482.523 -1.03383 2.96916 0
M  V30 5138 N 486.295 -0.989507 1.22664 0
M  V30 5139 C 487.541 -1.7321 1.05481 0
M  V30 5140 C 487.874 -1.89852 -0.408635 0
M  V30 5141 O 487.149 -1.44416 -1.30285 0
M  V30 5142 C 487.432 -3.1357 1.77047 0
M  V30 5143 C 487.285 -3.04555 3.31008 0
M  V30 5144 C 488.604 -4.12812 1.5256 0
M  V30 5145 H 485.723 -0.628697 0.384589 0
M  V30 5146 H 488.365 -1.15258 1.51049 0
M  V30 5147 H 486.515 -3.63046 1.3831 0
M  V30 5148 H 488.187 -2.62674 3.7921 0
M  V30 5149 H 486.43 -2.41278 3.6051 0
M  V30 5150 H 487.101 -4.03894 3.76263 0
M  V30 5151 H 489.577 -3.72106 1.86215 0
M  V30 5152 H 488.453 -5.09132 2.05124 0
M  V30 5153 H 488.714 -4.39711 0.458936 0
M  V30 5154 N 487.773 -1.03688 -1.18687 0
M  V30 5155 C 489.022 -0.733235 -1.879 0
M  V30 5156 C 489.335 0.741745 -1.8099 0
M  V30 5157 O 490.541 1.15875 -2.4553 0
M  V30 5158 C 488.997 -1.26127 -3.37076 0
M  V30 5159 C 488.605 -2.76461 -3.52524 0
M  V30 5160 C 490.349 -1.03398 -4.11715 0
M  V30 5161 C 488.256 -3.22642 -4.95637 0
M  V30 5162 H 487.186 -0.270584 -0.703776 0
M  V30 5163 H 489.837 -1.25222 -1.34133 0
M  V30 5164 H 488.219 -0.670165 -3.90288 0
M  V30 5165 H 489.393 -3.41296 -3.09602 0
M  V30 5166 H 487.708 -2.97559 -2.91286 0
M  V30 5167 H 490.305 -1.3542 -5.17267 0
M  V30 5168 H 490.648 0.0289246 -4.1629 0
M  V30 5169 H 491.181 -1.5895 -3.64664 0
M  V30 5170 H 487.92 -4.28296 -4.96228 0
M  V30 5171 H 487.44 -2.62539 -5.39289 0
M  V30 5172 H 489.119 -3.16444 -5.64333 0
M  V30 5173 N 489.251 1.34841 -0.815825 0
M  V30 5174 C 490.199 2.31549 -0.220888 0
M  V30 5175 C 491.193 1.5707 0.634457 0
M  V30 5176 O 492.399 1.72125 0.526589 0
M  V30 5177 H 488.774 0.750153 -0.0526782 0
M  V30 5178 H 490.745 2.7926 -1.05149 0
M  V30 5179 C 489.494 3.42335 0.608427 0
M  V30 5180 H 488.817 3.9978 -0.0404121 0
M  V30 5181 H 490.257 4.12258 0.990931 0
M  V30 5182 C 488.716 2.86173 1.77782 0
M  V30 5183 O 489.246 2.80474 2.87571 0
M  V30 5184 N 487.452 2.43093 1.59229 0
M  V30 5185 H 486.999 2.47928 0.699237 0
M  V30 5186 H 486.957 2.05866 2.37627 0
M  V30 5187 N 490.729 0.570148 1.46925 0
M  V30 5188 C 491.978 0.0487352 2.01641 0
M  V30 5189 C 492.291 -1.31433 1.44861 0
M  V30 5190 O 493.497 -1.92638 1.91318 0
M  V30 5191 C 491.953 0.0365817 3.59881 0
M  V30 5192 C 491.561 1.39719 4.25655 0
M  V30 5193 C 493.305 -0.431545 4.22301 0
M  V30 5194 C 491.212 1.34345 5.75939 0
M  V30 5195 H 490.142 0.0144492 0.753862 0
M  V30 5196 H 492.793 0.719928 1.68788 0
M  V30 5197 H 491.175 -0.700522 3.89755 0
M  V30 5198 H 492.349 2.15303 4.07408 0
M  V30 5199 H 490.664 1.80431 3.75278 0
M  V30 5200 H 493.261 -0.490354 5.32447 0
M  V30 5201 H 493.604 -1.44638 3.90366 0
M  V30 5202 H 494.137 0.251102 3.97007 0
M  V30 5203 H 490.876 2.33469 6.12513 0
M  V30 5204 H 490.396 0.629615 5.96486 0
M  V30 5205 H 492.075 1.051 6.38407 0
M  V30 5206 N 492.207 -1.54576 0.307264 0
M  V30 5207 C 493.155 -2.25208 -0.581723 0
M  V30 5208 C 494.149 -1.26031 -1.13192 0
M  V30 5209 O 495.355 -1.43862 -1.08184 0
M  V30 5210 H 491.73 -0.723173 -0.206214 0
M  V30 5211 H 493.701 -2.98378 0.0364663 0
M  V30 5212 C 492.45 -3.01086 -1.73904 0
M  V30 5213 H 491.773 -3.77208 -1.32491 0
M  V30 5214 H 493.213 -3.5378 -2.33701 0
M  V30 5215 C 491.672 -2.08422 -2.64692 0
M  V30 5216 O 492.202 -1.65636 -3.65961 0
M  V30 5217 N 490.408 -1.74247 -2.32564 0
M  V30 5218 H 489.955 -2.09238 -1.50257 0
M  V30 5219 H 489.913 -1.12524 -2.93574 0
M  V30 5220 N 493.685 -0.035106 -1.57561 0
M  V30 5221 C 494.635 0.954034 -2.0708 0
M  V30 5222 C 495.619 1.2818 -0.972558 0
M  V30 5223 O 496.811 1.26691 -1.23606 0
M  V30 5224 C 493.94 2.23442 -2.60631 0
M  V30 5225 C 493.026 1.93475 -3.77396 0
M  V30 5226 N 493.417 1.33802 -4.87781 0
M  V30 5227 C 491.715 2.23434 -3.85996 0
M  V30 5228 C 492.416 1.21103 -5.68954 0
M  V30 5229 N 491.392 1.70855 -5.16052 0
M  V30 5230 H 495.194 0.487731 -2.89825 0
M  V30 5231 H 492.708 0.169759 -1.6151 0
M  V30 5232 H 494.705 2.95183 -2.94402 0
M  V30 5233 H 493.365 2.70693 -1.79319 0
M  V30 5234 H 494.376 1.01227 -5.07911 0
M  V30 5235 H 491.053 2.73317 -3.15601 0
M  V30 5236 H 492.443 0.749105 -6.67711 0
M  V30 5237 N 495.163 1.55791 0.238111 0
M  V30 5238 C 496.095 1.87513 1.31802 0
M  V30 5239 C 497.108 0.762053 1.43863 0
M  V30 5240 O 498.297 1.04024 1.45056 0
M  V30 5241 C 495.397 2.05402 2.69561 0
M  V30 5242 C 494.57 3.3632 2.79656 0
M  V30 5243 C 493.629 3.43844 3.98319 0
M  V30 5244 O 492.655 4.16994 3.87433 0
M  V30 5245 N 493.857 2.73777 5.11885 0
M  V30 5246 H 496.622 2.80734 1.04922 0
M  V30 5247 H 494.183 1.56135 0.428196 0
M  V30 5248 H 496.175 2.07769 3.47296 0
M  V30 5249 H 494.745 1.18884 2.89111 0
M  V30 5250 H 493.965 3.46195 1.88528 0
M  V30 5251 H 495.253 4.22594 2.83358 0
M  V30 5252 H 494.651 2.14094 5.23622 0
M  V30 5253 H 493.208 2.81825 5.87723 0
M  V30 5254 N 496.642 -0.504142 1.49319 0
M  V30 5255 C 497.89 -1.25598 1.58334 0
M  V30 5256 C 498.211 -1.93114 0.270538 0
M  V30 5257 O 497.481 -1.82585 -0.709891 0
M  V30 5258 H 496.061 -0.466571 0.58337 0
M  V30 5259 H 498.723 -0.584547 1.85928 0
M  V30 5260 H 497.819 -2.02159 2.37778 0
M  V30 5261 N 498.12 -1.38341 -0.754957 0
M  V30 5262 C 499.536 -1.19508 -1.05783 0
M  V30 5263 C 499.736 -0.0428005 -2.01455 0
M  V30 5264 O 498.792 0.611861 -2.44975 0
M  V30 5265 C 500.105 -2.52091 -1.63923 0
M  V30 5266 C 501.653 -2.58762 -1.76101 0
M  V30 5267 C 502.128 -3.91517 -2.37652 0
M  V30 5268 N 503.619 -3.93049 -2.45085 0
M  V30 5269 C 504.354 -4.9253 -2.93602 0
M  V30 5270 N 503.85 -6.02408 -3.42165 0
M  V30 5271 N 505.643 -4.79921 -2.92629 0
M  V30 5272 H 497.794 -2.1206 -0.120056 0
M  V30 5273 H 500.057 -0.94089 -0.11589 0
M  V30 5274 H 499.763 -3.36858 -1.01093 0
M  V30 5275 H 499.637 -2.70388 -2.63003 0
M  V30 5276 H 502.024 -1.74391 -2.38058 0
M  V30 5277 H 502.105 -2.44333 -0.757294 0
M  V30 5278 H 501.749 -4.76309 -1.76329 0
M  V30 5279 H 501.679 -4.03256 -3.38662 0
M  V30 5280 H 504.17 -3.13685 -2.10736 0
M  V30 5281 H 504.483 -6.74248 -3.77637 0
M  V30 5282 H 502.828 -6.0603 -3.40225 0
M  V30 5283 H 506.019 -3.93194 -2.54001 0
M  V30 5284 H 506.192 -5.57601 -3.30128 0
M  V30 5285 N 499.598 0.982988 -1.23187 0
M  V30 5286 C 500.875 1.69814 -0.970707 0
M  V30 5287 C 501.255 2.04811 0.511424 0
M  V30 5288 O 500.603 1.73924 1.48198 0
M  V30 5289 C 500.813 2.94143 -1.87831 0
M  V30 5290 C 502.161 3.66712 -2.14026 0
M  V30 5291 O 503.185 3.04171 -1.8536 0
M  V30 5292 O 502.044 4.79258 -2.62629 0
M  V30 5293 H 499.138 0.741659 -0.365884 0
M  V30 5294 H 501.684 1.03844 -1.34218 0
M  V30 5295 H 500.456 2.64858 -2.88038 0
M  V30 5296 H 500.079 3.6785 -1.50905 0
M  V30 5297 N 501.076 1.04316 1.18135 0
M  V30 5298 C 502.324 0.746542 1.87806 0
M  V30 5299 C 502.645 -0.728082 1.80898 0
M  V30 5300 O 501.915 -1.52554 1.22899 0
M  V30 5301 H 500.495 0.273157 0.695265 0
M  V30 5302 H 503.157 1.32044 1.43354 0
M  V30 5303 H 502.253 1.05362 2.93778 0
M  V30 5304 N 502.554 -1.34406 0.822964 0
M  V30 5305 C 503.504 -2.26963 0.217208 0
M  V30 5306 C 504.488 -1.48536 -0.618545 0
M  V30 5307 O 505.68 -1.7056 -0.473118 0
M  V30 5308 C 502.809 -3.37655 -0.619973 0
M  V30 5309 C 501.895 -4.23495 0.226411 0
M  V30 5310 N 502.286 -4.88876 1.29744 0
M  V30 5311 C 500.584 -4.45999 0.0107554 0
M  V30 5312 C 501.285 -5.52642 1.81553 0
M  V30 5313 N 500.261 -5.31949 1.11942 0
M  V30 5314 H 504.063 -2.75017 1.03647 0
M  V30 5315 H 501.577 -1.48126 0.665777 0
M  V30 5316 H 503.574 -4.02932 -1.07011 0
M  V30 5317 H 502.234 -2.91151 -1.43739 0
M  V30 5318 H 503.245 -4.89886 1.68024 0
M  V30 5319 H 499.922 -4.10253 -0.774495 0
M  V30 5320 H 501.312 -6.14755 2.71156 0
M  V30 5321 N 504.032 -0.577932 -1.46621 0
M  V30 5322 C 505.26 -0.0671642 -2.06791 0
M  V30 5323 C 505.675 1.23571 -1.42743 0
M  V30 5324 O 505.032 1.74602 -0.531062 0
M  V30 5325 C 505.083 0.110357 -3.61332 0
M  V30 5326 O 504.804 -1.14095 -4.22982 0
M  V30 5327 C 506.305 0.656025 -4.38419 0
M  V30 5328 H 503.525 -0.0552732 -0.66872 0
M  V30 5329 H 506.069 -0.797242 -1.8832 0
M  V30 5330 H 504.224 0.790637 -3.79246 0
M  V30 5331 H 504.638 -0.951742 -5.15793 0
M  V30 5332 H 506.112 0.729438 -5.47159 0
M  V30 5333 H 506.589 1.67195 -4.06131 0
M  V30 5334 H 507.195 0.0107692 -4.25299 0
M  V30 5335 N 505.51 1.54411 -0.315457 0
M  V30 5336 C 506.758 2.00023 0.288971 0
M  V30 5337 C 507.079 1.20529 1.5329 0
M  V30 5338 O 506.349 0.304986 1.93511 0
M  V30 5339 H 504.929 0.738891 0.109766 0
M  V30 5340 H 507.591 1.90094 -0.430129 0
M  V30 5341 H 506.687 3.07198 0.550999 0
M  V30 5342 N 506.988 0.0434614 1.5754 0
M  V30 5343 C 507.918 -0.931651 2.14109 0
M  V30 5344 C 508.899 -1.32971 1.06079 0
M  V30 5345 O 510.084 -1.40579 1.33982 0
M  V30 5346 C 507.214 -2.20914 2.67982 0
M  V30 5347 C 506.168 -1.95139 3.80926 0
M  V30 5348 C 505.494 -3.29276 4.21285 0
M  V30 5349 C 506.794 -1.27913 5.06395 0
M  V30 5350 H 508.488 -0.460497 2.95837 0
M  V30 5351 H 506.034 -0.220058 1.42309 0
M  V30 5352 H 507.987 -2.89522 3.06194 0
M  V30 5353 H 506.711 -2.70221 1.83434 0
M  V30 5354 H 505.37 -1.28945 3.43175 0
M  V30 5355 H 505.018 -3.76369 3.33699 0
M  V30 5356 H 504.718 -3.12831 4.97404 0
M  V30 5357 H 506.242 -3.99129 4.62091 0
M  V30 5358 H 507.656 -1.86544 5.42102 0
M  V30 5359 H 506.053 -1.2182 5.87605 0
M  V30 5360 H 507.123 -0.254066 4.84234 0
M  V30 5361 N 508.466 -1.55915 -0.229846 0
M  V30 5362 C 509.416 -1.8813 -1.28807 0
M  V30 5363 C 510.4 -0.743621 -1.42685 0
M  V30 5364 O 511.592 -1.00588 -1.4564 0
M  V30 5365 C 508.721 -2.19431 -2.64017 0
M  V30 5366 C 507.807 -3.39569 -2.54074 0
M  V30 5367 N 508.198 -4.58404 -2.13774 0
M  V30 5368 C 506.496 -3.43019 -2.85051 0
M  V30 5369 C 507.197 -5.40557 -2.1488 0
M  V30 5370 N 506.173 -4.80054 -2.55047 0
M  V30 5371 H 509.975 -2.77527 -0.967261 0
M  V30 5372 H 507.489 -1.5637 -0.438433 0
M  V30 5373 H 509.486 -2.40681 -3.40409 0
M  V30 5374 H 508.146 -1.31341 -2.9695 0
M  V30 5375 H 509.157 -4.83716 -1.8504 0
M  V30 5376 H 505.834 -2.65249 -3.22411 0
M  V30 5377 H 507.224 -6.45666 -1.85918 0
M  V30 5378 N 509.944 0.496216 -1.49584 0
M  V30 5379 C 511.169 1.27865 -1.63295 0
M  V30 5380 C 511.594 1.85592 -0.306156 0
M  V30 5381 O 510.952 1.66092 0.726851 0
M  V30 5382 C 511 2.38128 -2.7079 0
M  V30 5383 O 510.104 3.42108 -2.30296 0
M  V30 5384 H 509.445 0.377279 -0.546403 0
M  V30 5385 H 511.975 0.593497 -1.95803 0
M  V30 5386 H 511.985 2.8382 -2.93104 0
M  V30 5387 H 510.66 1.95479 -3.67098 0
M  V30 5388 H 509.237 3.02301 -2.18331 0
M  V30 5389 N 511.423 1.38739 0.74761 0
M  V30 5390 C 512.386 1.36241 1.84312 0
M  V30 5391 C 513.386 0.261811 1.58654 0
M  V30 5392 O 514.576 0.519031 1.66288 0
M  V30 5393 C 511.708 1.12253 3.21888 0
M  V30 5394 H 512.901 2.33712 1.87933 0
M  V30 5395 H 510.454 1.2412 0.949946 0
M  V30 5396 H 511.189 0.154133 3.23934 0
M  V30 5397 H 510.974 1.91943 3.41907 0
M  V30 5398 H 512.464 1.13215 4.0196 0
M  V30 5399 N 512.901 -0.976442 1.23707 0
M  V30 5400 C 514.141 -1.73331 1.08332 0
M  V30 5401 C 514.505 -1.88346 -0.372781 0
M  V30 5402 O 515.706 -2.60877 -0.647813 0
M  V30 5403 C 513.977 -3.09159 1.7932 0
M  V30 5404 S 515.536 -4.00376 1.79567 0
M  V30 5405 H 512.354 -0.596045 0.387622 0
M  V30 5406 H 514.956 -1.16625 1.56904 0
M  V30 5407 H 513.66 -2.95884 2.84395 0
M  V30 5408 H 513.191 -3.70932 1.31046 0
M  V30 5409 H 515.206 -4.88742 0.857094 0
M  V30 5410 N 514.379 -1.04941 -1.1758 0
M  V30 5411 C 515.609 -0.777166 -1.91425 0
M  V30 5412 C 516.017 0.670647 -1.76915 0
M  V30 5413 O 515.36 1.46965 -1.10213 0
M  V30 5414 C 515.422 -1.07495 -3.43052 0
M  V30 5415 C 515.086 -2.51844 -3.81345 0
M  V30 5416 C 516.083 -3.50047 -3.844 0
M  V30 5417 C 513.768 -2.86787 -4.12382 0
M  V30 5418 C 515.762 -4.81239 -4.17957 0
M  V30 5419 C 513.449 -4.18182 -4.45608 0
M  V30 5420 C 514.447 -5.15219 -4.48373 0
M  V30 5421 O 514.135 -6.44258 -4.80819 0
M  V30 5422 H 513.867 -0.282209 -0.614275 0
M  V30 5423 H 516.421 -1.40258 -1.50056 0
M  V30 5424 H 514.651 -0.392437 -3.84704 0
M  V30 5425 H 516.34 -0.78912 -3.98155 0
M  V30 5426 H 517.106 -3.24391 -3.60548 0
M  V30 5427 H 512.985 -2.11922 -4.09402 0
M  V30 5428 H 516.529 -5.56974 -4.2003 0
M  V30 5429 H 512.426 -4.43602 -4.68922 0
M  V30 5430 H 513.194 -6.49041 -4.98686 0
M  V30 5431 N 515.857 1.33968 -0.830081 0
M  V30 5432 C 516.807 2.26845 -0.229242 0
M  V30 5433 C 517.791 1.48862 0.610659 0
M  V30 5434 O 518.983 1.70808 0.464067 0
M  V30 5435 C 516.112 3.3798 0.602057 0
M  V30 5436 C 515.198 4.23369 -0.248866 0
M  V30 5437 N 515.589 4.88182 -1.32334 0
M  V30 5438 C 513.887 4.45987 -0.0344077 0
M  V30 5439 C 514.588 5.51671 -1.84482 0
M  V30 5440 N 513.564 5.31348 -1.14762 0
M  V30 5441 H 517.366 2.74464 -1.05104 0
M  V30 5442 H 514.88 1.4777 -0.673623 0
M  V30 5443 H 516.877 4.03494 1.04873 0
M  V30 5444 H 515.537 2.9191 1.42193 0
M  V30 5445 H 516.548 4.88988 -1.70619 0
M  V30 5446 H 513.225 4.10658 0.752727 0
M  V30 5447 H 514.615 6.13308 -2.74413 0
M  V30 5448 N 517.335 0.585699 1.46312 0
M  V30 5449 C 518.583 0.072278 2.01971 0
M  V30 5450 C 518.904 -1.29345 1.45928 0
M  V30 5451 O 518.174 -1.84973 0.645109 0
M  V30 5452 H 516.754 0.023729 0.746623 0
M  V30 5453 H 519.416 0.762155 1.7938 0
M  V30 5454 H 518.512 0.00552767 3.121 0
M  V30 5455 N 518.813 -1.54241 0.323641 0
M  V30 5456 C 519.763 -2.21071 -0.557833 0
M  V30 5457 C 520.747 -1.19126 -1.08157 0
M  V30 5458 O 521.939 -1.44755 -1.01857 0
M  V30 5459 C 519.068 -2.97208 -1.71821 0
M  V30 5460 C 518.154 -4.06491 -1.20936 0
M  V30 5461 N 518.545 -5.04052 -0.420202 0
M  V30 5462 C 516.843 -4.20443 -1.48808 0
M  V30 5463 C 517.544 -5.81516 -0.146413 0
M  V30 5464 N 516.52 -5.38641 -0.732562 0
M  V30 5465 H 520.322 -2.93853 0.0523921 0
M  V30 5466 H 517.836 -1.61883 0.129502 0
M  V30 5467 H 519.833 -3.4357 -2.36146 0
M  V30 5468 H 518.493 -2.25947 -2.33191 0
M  V30 5469 H 519.504 -5.17862 -0.0630401 0
M  V30 5470 H 516.181 -3.60396 -2.10762 0
M  V30 5471 H 517.571 -6.70119 0.488895 0
M  V30 5472 N 520.291 -0.0518155 -1.57515 0
M  V30 5473 C 521.54 0.621286 -1.91893 0
M  V30 5474 C 521.853 1.71966 -0.932052 0
M  V30 5475 O 523.059 2.45096 -1.16791 0
M  V30 5476 C 521.515 1.15641 -3.40816 0
M  V30 5477 C 521.123 0.0901146 -4.47909 0
M  V30 5478 C 522.867 1.80472 -3.84227 0
M  V30 5479 C 520.774 0.638154 -5.87947 0
M  V30 5480 H 519.704 0.235835 -0.716169 0
M  V30 5481 H 522.355 -0.120809 -1.83102 0
M  V30 5482 H 520.737 1.95084 -3.44613 0
M  V30 5483 H 521.911 -0.683525 -4.55702 0
M  V30 5484 H 520.226 -0.460774 -4.13843 0
M  V30 5485 H 522.823 2.22471 -4.86221 0
M  V30 5486 H 523.166 2.65669 -3.20508 0
M  V30 5487 H 523.699 1.07683 -3.82948 0
M  V30 5488 H 520.438 -0.176202 -6.55263 0
M  V30 5489 H 519.958 1.37976 -5.83714 0
M  V30 5490 H 521.637 1.12085 -6.37217 0
M  V30 5491 N 521.769 1.56035 0.221574 0
M  V30 5492 C 523.185 1.49026 0.571271 0
M  V30 5493 C 523.385 0.746912 1.87146 0
M  V30 5494 O 522.441 0.286566 2.50869 0
M  V30 5495 C 523.754 2.93579 0.650522 0
M  V30 5496 C 525.302 3.04099 0.741151 0
M  V30 5497 C 525.777 4.5001 0.851747 0
M  V30 5498 N 527.268 4.54053 0.915968 0
M  V30 5499 C 528.003 5.64232 1.02125 0
M  V30 5500 N 527.499 6.84164 1.09049 0
M  V30 5501 N 529.292 5.52084 1.05639 0
M  V30 5502 H 521.443 2.02791 -0.63162 0
M  V30 5503 H 523.706 0.921736 -0.221602 0
M  V30 5504 H 523.412 3.50912 -0.235253 0
M  V30 5505 H 523.286 3.45476 1.51413 0
M  V30 5506 H 525.673 2.4683 1.61737 0
M  V30 5507 H 525.754 2.55371 -0.148128 0
M  V30 5508 H 525.398 5.07896 -0.0200117 0
M  V30 5509 H 525.328 4.96444 1.75644 0
M  V30 5510 H 527.819 3.67683 0.872782 0
M  V30 5511 H 528.132 7.63883 1.1706 0
M  V30 5512 H 526.477 6.86875 1.05962 0
M  V30 5513 H 529.668 4.57317 0.998953 0
M  V30 5514 H 529.841 6.37983 1.13498 0
M  V30 5515 N 523.247 -0.488276 1.49845 0
M  V30 5516 C 524.177 -1.59675 1.70371 0
M  V30 5517 C 525.158 -1.60878 0.552473 0
M  V30 5518 O 526.343 -1.77417 0.78973 0
M  V30 5519 C 523.473 -2.98098 1.782 0
M  V30 5520 C 522.427 -3.11761 2.93239 0
M  V30 5521 C 521.753 -4.51661 2.86193 0
M  V30 5522 C 523.053 -2.90589 4.33999 0
M  V30 5523 H 524.747 -1.42752 2.63177 0
M  V30 5524 H 522.293 -0.685317 1.26647 0
M  V30 5525 H 524.246 -3.75555 1.91144 0
M  V30 5526 H 522.97 -3.16138 0.820018 0
M  V30 5527 H 521.629 -2.36732 2.79917 0
M  V30 5528 H 521.277 -4.66595 1.87877 0
M  V30 5529 H 520.977 -4.61742 3.63412 0
M  V30 5530 H 522.501 -5.31162 3.01163 0
M  V30 5531 H 523.915 -3.57807 4.47936 0
M  V30 5532 H 522.312 -3.1213 5.12538 0
M  V30 5533 H 523.382 -1.86595 4.4756 0
M  V30 5534 N 524.725 -1.39134 -0.740242 0
M  V30 5535 C 525.971 -1.36273 -1.50192 0
M  V30 5536 C 526.304 0.0430136 -1.94152 0
M  V30 5537 O 525.579 1.00691 -1.66408 0
M  V30 5538 C 525.862 -2.33041 -2.74525 0
M  V30 5539 C 525.715 -3.82535 -2.36617 0
M  V30 5540 C 527.034 -2.27723 -3.76604 0
M  V30 5541 H 524.153 -0.496323 -0.544823 0
M  V30 5542 H 526.795 -1.70085 -0.846815 0
M  V30 5543 H 524.945 -2.04337 -3.30422 0
M  V30 5544 H 526.617 -4.21967 -1.86391 0
M  V30 5545 H 524.86 -3.99565 -1.68909 0
M  V30 5546 H 525.531 -4.45723 -3.2563 0
M  V30 5547 H 528.007 -2.53091 -3.30279 0
M  V30 5548 H 526.883 -2.97519 -4.61274 0
M  V30 5549 H 527.144 -1.28049 -4.2315 0
M  V30 5550 N 526.204 0.969867 -1.24223 0
M  V30 5551 C 527.136 2.0669 -0.99055 0
M  V30 5552 C 528.149 1.62753 0.0392222 0
M  V30 5553 O 529.338 1.77403 -0.197561 0
M  V30 5554 C 526.438 3.35589 -0.472594 0
M  V30 5555 C 525.611 4.08444 -1.56499 0
M  V30 5556 C 524.67 5.15616 -1.05007 0
M  V30 5557 O 523.696 5.41911 -1.7413 0
M  V30 5558 N 524.898 5.80383 0.116641 0
M  V30 5559 H 527.663 2.28855 -1.93508 0
M  V30 5560 H 525.224 1.13733 -1.15223 0
M  V30 5561 H 527.216 4.04542 -0.112919 0
M  V30 5562 H 525.786 3.10311 0.377617 0
M  V30 5563 H 525.006 3.33798 -2.09696 0
M  V30 5564 H 526.294 4.53882 -2.29932 0
M  V30 5565 H 525.692 5.6142 0.694589 0
M  V30 5566 H 524.249 6.50462 0.417483 0
M  V30 5567 N 527.682 1.05563 1.17022 0
M  V30 5568 C 528.929 0.767937 1.87374 0
M  V30 5569 C 529.257 -0.705224 1.81265 0
M  V30 5570 O 528.512 -1.5318 1.21796 0
M  V30 5571 C 528.811 1.19849 3.36706 0
M  V30 5572 C 528.477 2.6745 3.63017 0
M  V30 5573 C 527.139 3.0777 3.69907 0
M  V30 5574 C 529.491 3.62811 3.74189 0
M  V30 5575 C 526.819 4.42307 3.85463 0
M  V30 5576 C 529.171 4.97087 3.91264 0
M  V30 5577 C 527.835 5.37055 3.96394 0
M  V30 5578 H 527.105 0.281008 0.68565 0
M  V30 5579 H 529.752 1.32339 1.38415 0
M  V30 5580 H 528.057 0.562096 3.87747 0
M  V30 5581 H 529.754 0.953038 3.8951 0
M  V30 5582 H 526.344 2.35228 3.58282 0
M  V30 5583 H 530.528 3.32798 3.68183 0
M  V30 5584 H 525.784 4.72769 3.87684 0
M  V30 5585 H 529.958 5.70869 3.9885 0
M  V30 5586 H 527.585 6.41308 4.082 0
M  V30 5587 N 529.16 -1.33526 0.837174 0
M  V30 5588 C 530.09 -2.31764 0.284206 0
M  V30 5589 C 531.071 -1.58896 -0.607142 0
M  V30 5590 O 532.256 -1.86798 -0.531047 0
M  V30 5591 C 529.386 -3.43029 -0.542962 0
M  V30 5592 C 528.34 -4.27255 0.252451 0
M  V30 5593 C 527.666 -5.3012 -0.69836 0
M  V30 5594 C 528.966 -5.01229 1.46858 0
M  V30 5595 H 530.66 -2.78262 1.10502 0
M  V30 5596 H 528.206 -1.3378 0.532812 0
M  V30 5597 H 530.159 -4.1078 -0.940096 0
M  V30 5598 H 528.883 -2.95216 -1.39697 0
M  V30 5599 H 527.542 -3.61127 0.631124 0
M  V30 5600 H 527.19 -4.78564 -1.54872 0
M  V30 5601 H 526.89 -5.87353 -0.170274 0
M  V30 5602 H 528.414 -6.00737 -1.09305 0
M  V30 5603 H 529.828 -5.61756 1.14469 0
M  V30 5604 H 528.225 -5.68104 1.93333 0
M  V30 5605 H 529.295 -4.301 2.23924 0
M  V30 5606 N 530.638 -0.59345 -1.46 0
M  V30 5607 C 531.568 0.121192 -2.33185 0
M  V30 5608 C 532.549 0.872977 -1.4599 0
M  V30 5609 O 533.734 0.846321 -1.74789 0
M  V30 5610 C 530.864 1.12844 -3.28456 0
M  V30 5611 C 529.818 0.4908 -4.25177 0
M  V30 5612 C 529.144 1.60529 -5.10034 0
M  V30 5613 C 530.444 -0.578949 -5.19081 0
M  V30 5614 H 532.138 -0.606767 -2.93187 0
M  V30 5615 H 529.684 -0.293242 -1.40983 0
M  V30 5616 H 531.637 1.63684 -3.88311 0
M  V30 5617 H 530.361 1.88681 -2.66584 0
M  V30 5618 H 529.02 0.00339328 -3.666 0
M  V30 5619 H 528.668 2.35359 -4.44539 0
M  V30 5620 H 528.368 1.18422 -5.75543 0
M  V30 5621 H 529.892 2.11623 -5.72755 0
M  V30 5622 H 531.306 -0.155199 -5.7309 0
M  V30 5623 H 529.703 -0.920947 -5.92991 0
M  V30 5624 H 530.773 -1.46109 -4.62364 0
M  V30 5625 N 532.116 1.54067 -0.331816 0
M  V30 5626 C 533.393 1.92915 0.322955 0
M  V30 5627 C 533.773 1.26225 1.69205 0
M  V30 5628 O 533.121 0.408919 2.24811 0
M  V30 5629 C 533.331 3.46619 0.406946 0
M  V30 5630 C 534.679 4.19386 0.663339 0
M  V30 5631 O 535.703 3.5282 0.489536 0
M  V30 5632 O 534.562 5.37288 0.999193 0
M  V30 5633 H 531.656 0.805808 0.186016 0
M  V30 5634 H 534.202 1.65342 -0.382135 0
M  V30 5635 H 532.974 3.87354 -0.554287 0
M  V30 5636 H 532.597 3.80324 1.15929 0
M  V30 5637 N 533.594 0.0601682 1.57485 0
M  V30 5638 C 534.542 -0.928899 2.13247 0
M  V30 5639 C 535.536 -1.31616 1.06647 0
M  V30 5640 O 536.742 -1.29476 1.25043 0
M  V30 5641 H 533.117 -0.317455 0.681708 0
M  V30 5642 H 535.088 -0.433566 2.95233 0
M  V30 5643 C 533.837 -2.19121 2.69965 0
M  V30 5644 H 533.16 -1.90204 3.51657 0
M  V30 5645 H 534.6 -2.86465 3.12592 0
M  V30 5646 C 533.059 -2.94195 1.64168 0
M  V30 5647 O 533.589 -3.87468 1.05978 0
M  V30 5648 N 531.795 -2.57089 1.35476 0
M  V30 5649 H 531.342 -1.81314 1.82984 0
M  V30 5650 H 531.3 -3.07624 0.649196 0
M  V30 5651 N 535.072 -1.5615 -0.213296 0
M  V30 5652 C 536.32 -1.79191 -0.934612 0
M  V30 5653 C 536.641 -0.630112 -1.84539 0
M  V30 5654 O 535.911 0.35257 -1.92701 0
M  V30 5655 H 534.491 -0.660937 -0.348097 0
M  V30 5656 H 537.153 -1.93618 -0.22317 0
M  V30 5657 H 536.249 -2.71656 -1.53654 0
M  V30 5658 N 536.55 0.480323 -1.50102 0
M  V30 5659 C 537.513 1.56181 -1.6775 0
M  V30 5660 C 538.513 1.51156 -0.548503 0
M  V30 5661 O 539.703 1.5394 -0.815363 0
M  V30 5662 C 536.835 2.95823 -1.69415 0
M  V30 5663 H 538.028 1.41855 -2.6423 0
M  V30 5664 H 535.581 0.70605 -1.39444 0
M  V30 5665 H 536.316 3.15604 -0.745948 0
M  V30 5666 H 536.101 3.00878 -2.51425 0
M  V30 5667 H 537.591 3.74359 -1.85054 0
M  V30 5668 N 538.028 1.39524 0.732853 0
M  V30 5669 C 539.305 1.27373 1.48444 0
M  V30 5670 C 539.685 -0.115725 2.10783 0
M  V30 5671 O 539.033 -1.12713 1.98766 0
M  V30 5672 C 539.243 2.39966 2.53412 0
M  V30 5673 C 540.591 2.79384 3.19733 0
M  V30 5674 O 541.615 2.39431 2.63725 0
M  V30 5675 O 540.474 3.48353 4.21085 0
M  V30 5676 H 537.568 0.499272 0.659285 0
M  V30 5677 H 540.114 1.51403 0.766496 0
M  V30 5678 H 538.886 3.32845 2.05742 0
M  V30 5679 H 538.509 2.17612 3.32762 0
M  V30 5680 N 539.506 -0.963266 1.24736 0
M  V30 5681 C 540.439 -2.05758 0.986852 0
M  V30 5682 C 541.417 -1.62398 -0.0809272 0
M  V30 5683 O 542.601 -1.88414 0.0569347 0
M  V30 5684 C 539.728 -3.35135 0.490095 0
M  V30 5685 C 538.774 -3.97451 1.54709 0
M  V30 5686 S 539.607 -4.34519 3.12976 0
M  V30 5687 C 540.763 -5.67026 2.65014 0
M  V30 5688 H 540.996 -2.27539 1.91346 0
M  V30 5689 H 538.529 -1.10176 1.08169 0
M  V30 5690 H 540.487 -4.09962 0.21012 0
M  V30 5691 H 539.148 -3.11335 -0.415873 0
M  V30 5692 H 538.341 -4.90704 1.15003 0
M  V30 5693 H 537.943 -3.29071 1.77731 0
M  V30 5694 H 540.235 -6.44748 2.08102 0
M  V30 5695 H 541.178 -6.11594 3.56873 0
M  V30 5696 H 541.586 -5.25847 2.05294 0
M  V30 5697 N 540.985 -1.06182 -1.16461 0
M  V30 5698 C 541.933 -0.665716 -2.2287 0
M  V30 5699 C 542.927 0.317822 -1.66392 0
M  V30 5700 O 544.133 0.182807 -1.79069 0
M  V30 5701 H 540.508 -0.197148 -0.725697 0
M  V30 5702 H 542.479 -1.57307 -2.53569 0
M  V30 5703 C 541.228 -0.0669803 -3.47635 0
M  V30 5704 H 540.551 -0.814899 -3.91407 0
M  V30 5705 H 541.991 0.172669 -4.23648 0
M  V30 5706 C 540.45 1.18913 -3.15216 0
M  V30 5707 O 540.98 2.27723 -3.30916 0
M  V30 5708 N 539.186 1.09066 -2.69357 0
M  V30 5709 H 538.733 0.20518 -2.56782 0
M  V30 5710 H 538.691 1.93195 -2.48039 0
M  V30 5711 N 542.463 1.3308 -0.844243 0
M  V30 5712 C 543.393 2.3161 -0.296493 0
M  V30 5713 C 544.374 1.59215 0.598707 0
M  V30 5714 O 545.559 1.87077 0.521134 0
M  V30 5715 C 542.689 3.43313 0.524762 0
M  V30 5716 C 541.643 4.27115 -0.275106 0
M  V30 5717 C 540.969 5.30483 0.670236 0
M  V30 5718 C 542.269 5.00443 -1.49514 0
M  V30 5719 H 543.963 2.77672 -1.11976 0
M  V30 5720 H 541.509 1.33496 -0.539899 0
M  V30 5721 H 543.462 4.11273 0.918298 0
M  V30 5722 H 542.186 2.95952 1.3813 0
M  V30 5723 H 540.845 3.60787 -0.650267 0
M  V30 5724 H 540.493 4.79379 1.52332 0
M  V30 5725 H 540.193 5.87435 0.139123 0
M  V30 5726 H 541.717 6.01308 1.06117 0
M  V30 5727 H 543.131 5.61141 -1.17447 0
M  V30 5728 H 541.528 5.67071 -1.96343 0
M  V30 5729 H 542.598 4.28906 -2.26202 0
M  V30 5730 N 543.941 0.601185 1.45683 0
M  V30 5731 C 545.187 0.0940202 2.02582 0
M  V30 5732 C 545.52 -1.26972 1.46941 0
M  V30 5733 O 544.795 -1.83613 0.641612 0
M  V30 5734 C 545.078 0.0481715 3.60068 0
M  V30 5735 C 544.931 1.44212 4.26055 0
M  V30 5736 C 546.25 -0.642975 4.35378 0
M  V30 5737 H 543.369 0.0356404 0.736138 0
M  V30 5738 H 546.011 0.771929 1.73612 0
M  V30 5739 H 544.161 -0.529128 3.8488 0
M  V30 5740 H 545.833 2.06601 4.12449 0
M  V30 5741 H 544.076 2.00465 3.84703 0
M  V30 5742 H 544.747 1.36234 5.34925 0
M  V30 5743 H 547.223 -0.152351 4.15821 0
M  V30 5744 H 546.099 -0.644141 5.45107 0
M  V30 5745 H 546.36 -1.70785 4.0778 0
M  V30 5746 N 545.419 -1.53889 0.339982 0
M  V30 5747 C 546.382 -2.23547 -0.50592 0
M  V30 5748 C 547.382 -1.23445 -1.03044 0
M  V30 5749 O 548.572 -1.47909 -0.920253 0
M  V30 5750 C 545.704 -2.95234 -1.7044 0
M  V30 5751 H 546.897 -2.99722 0.103247 0
M  V30 5752 H 544.45 -1.56033 0.0912804 0
M  V30 5753 H 545.185 -2.23236 -2.35236 0
M  V30 5754 H 544.97 -3.68654 -1.33553 0
M  V30 5755 H 546.46 -3.48258 -2.30447 0
M  V30 5756 N 546.897 -0.0685191 -1.57451 0
M  V30 5757 C 548.137 0.605038 -1.9524 0
M  V30 5758 C 548.501 1.66974 -0.947816 0
M  V30 5759 O 549.702 2.39862 -1.21325 0
M  V30 5760 C 547.973 1.16999 -3.37707 0
M  V30 5761 S 549.532 1.85913 -3.97469 0
M  V30 5762 H 546.35 0.198203 -0.682815 0
M  V30 5763 H 548.952 -0.141594 -1.94987 0
M  V30 5764 H 547.656 0.383205 -4.08607 0
M  V30 5765 H 547.187 1.95305 -3.41496 0
M  V30 5766 H 549.202 3.14128 -3.84107 0
M  V30 5767 N 548.375 1.56261 0.205012 0
M  V30 5768 C 549.652 1.70856 0.952233 0
M  V30 5769 C 550.032 0.620501 2.01775 0
M  V30 5770 O 549.38 -0.370035 2.25484 0
M  V30 5771 C 549.59 3.12807 1.54767 0
M  V30 5772 C 550.938 3.72733 2.0336 0
M  V30 5773 O 551.962 3.15873 1.64629 0
M  V30 5774 O 550.821 4.72501 2.746 0
M  V30 5775 H 547.915 0.696496 0.445895 0
M  V30 5776 H 550.461 1.6857 0.195489 0
M  V30 5777 H 549.233 3.83465 0.779132 0
M  V30 5778 H 548.856 3.1928 2.36951 0
M  V30 5779 N 549.853 -0.472356 1.50355 0
M  V30 5780 C 551.264 -1.05326 1.54154 0
M  V30 5781 C 551.615 -1.93155 0.344303 0
M  V30 5782 O 550.74 -2.09479 -0.542928 0
M  V30 5783 C 551.335 -1.91691 2.79356 0
M  V30 5784 C 549.894 -2.44892 2.8584 0
M  V30 5785 C 549.041 -1.23205 2.48426 0
M  V30 5786 H 551.992 -0.255027 1.56637 0
M  V30 5787 H 552.013 -2.76742 2.6114 0
M  V30 5788 H 551.525 -1.27741 3.66475 0
M  V30 5789 H 549.626 -3.12399 2.0307 0
M  V30 5790 H 549.739 -2.80086 3.88701 0
M  V30 5791 H 548.103 -1.56643 2.00836 0
M  V30 5792 H 548.886 -0.609194 3.37852 0
M  V30 5793 N 551.331 -1.39911 -0.725443 0
M  V30 5794 C 552.556 -1.41137 -1.5197 0
M  V30 5795 C 552.981 -0.010262 -1.88097 0
M  V30 5796 O 552.339 0.979184 -1.52583 0
M  V30 5797 C 552.387 -2.2994 -2.77777 0
M  V30 5798 O 551.491 -1.73586 -3.74088 0
M  V30 5799 H 550.832 -0.480219 -0.458569 0
M  V30 5800 H 553.362 -1.84023 -0.894249 0
M  V30 5801 H 553.372 -2.44785 -3.26411 0
M  V30 5802 H 552.047 -3.31759 -2.50816 0
M  V30 5803 H 550.624 -1.68035 -3.32894 0
M  V30 5804 N 552.809 0.956637 -1.25245 0
M  V30 5805 C 554.225 1.22733 -1.02023 0
M  V30 5806 C 554.425 1.99761 0.264186 0
M  V30 5807 O 553.481 2.32814 0.977436 0
M  V30 5808 C 554.794 2.00367 -2.24217 0
M  V30 5809 C 556.342 2.13418 -2.28958 0
M  V30 5810 C 556.817 2.9445 -3.50803 0
M  V30 5811 N 558.308 3.02029 -3.51187 0
M  V30 5812 C 559.043 3.65116 -4.42129 0
M  V30 5813 N 558.539 4.2983 -5.43339 0
M  V30 5814 N 560.332 3.62237 -4.29815 0
M  V30 5815 H 552.483 0.441282 -2.07765 0
M  V30 5816 H 554.746 0.257686 -0.912306 0
M  V30 5817 H 554.452 1.51165 -3.17556 0
M  V30 5818 H 554.326 3.01077 -2.27228 0
M  V30 5819 H 556.713 2.61819 -1.36143 0
M  V30 5820 H 556.794 1.1202 -2.29968 0
M  V30 5821 H 556.438 2.46741 -4.43939 0
M  V30 5822 H 556.368 3.9607 -3.47039 0
M  V30 5823 H 558.859 2.56007 -2.77973 0
M  V30 5824 H 559.172 4.75819 -6.08947 0
M  V30 5825 H 557.517 4.28465 -5.47214 0
M  V30 5826 H 560.708 3.10863 -3.49974 0
M  V30 5827 H 560.881 4.11117 -5.00886 0
M  V30 5828 N 554.287 1.06798 1.15896 0
M  V30 5829 C 555.512 0.808739 1.90982 0
M  V30 5830 C 555.937 -0.6316 1.77179 0
M  V30 5831 O 555.295 -1.4407 1.10061 0
M  V30 5832 C 555.343 1.21468 3.39526 0
M  V30 5833 O 554.447 0.356562 4.10856 0
M  V30 5834 H 553.788 0.29512 0.594811 0
M  V30 5835 H 556.318 1.42513 1.46804 0
M  V30 5836 H 556.328 1.18844 3.90308 0
M  V30 5837 H 555.003 2.26379 3.48891 0
M  V30 5838 H 553.58 0.444808 3.70238 0
M  V30 5839 N 555.766 -1.3263 0.851289 0
M  V30 5840 C 556.991 -2.02097 0.466006 0
M  V30 5841 C 557.416 -1.63574 -0.928709 0
M  V30 5842 O 556.774 -0.834665 -1.60944 0
M  V30 5843 C 556.822 -3.55425 0.608737 0
M  V30 5844 O 555.926 -4.10827 -0.359878 0
M  V30 5845 H 555.267 -0.636911 0.187724 0
M  V30 5846 H 557.797 -1.69253 1.14955 0
M  V30 5847 H 557.807 -4.04986 0.495006 0
M  V30 5848 H 556.482 -3.82806 1.62581 0
M  V30 5849 H 555.059 -3.72349 -0.202666 0
M  V30 5850 N 557.244 -0.608902 -1.45362 0
M  V30 5851 C 558.492 -0.104401 -2.0183 0
M  V30 5852 C 558.813 1.27007 -1.47967 0
M  V30 5853 O 558.083 1.83924 -0.674455 0
M  V30 5854 H 556.663 -0.0356042 -0.746151 0
M  V30 5855 H 559.325 -0.790596 -1.78145 0
M  V30 5856 H 558.421 -0.0551793 -3.12051 0
M  V30 5857 N 558.722 1.53707 -0.348139 0
M  V30 5858 C 559.632 2.28881 0.514857 0
M  V30 5859 C 560.648 1.34168 1.10793 0
M  V30 5860 O 561.824 1.6721 1.12262 0
M  V30 5861 C 558.889 3.05042 1.64774 0
M  V30 5862 C 557.95 4.15389 1.08398 0
M  V30 5863 C 557.183 4.87909 2.16287 0
M  V30 5864 O 557.406 4.60137 3.3709 0
M  V30 5865 O 556.34 5.74254 1.80323 0
M  V30 5866 H 560.166 3.03547 -0.0963699 0
M  V30 5867 H 557.751 1.48972 -0.113043 0
M  V30 5868 H 559.633 3.52656 2.30677 0
M  V30 5869 H 558.308 2.33228 2.24469 0
M  V30 5870 H 557.215 3.72068 0.389341 0
M  V30 5871 H 558.548 4.89318 0.531829 0
M  V30 5872 N 560.2 0.0768682 1.57412 0
M  V30 5873 C 561.147 -0.888577 2.13009 0
M  V30 5874 C 562.117 -1.29198 1.0439 0
M  V30 5875 O 563.302 -1.37694 1.3208 0
M  V30 5876 C 560.442 -2.14899 2.70023 0
M  V30 5877 C 559.555 -1.79777 3.92816 0
M  V30 5878 C 558.69 -3.00467 4.38056 0
M  V30 5879 C 557.729 -2.61385 5.53484 0
M  V30 5880 N 556.866 -3.74851 5.93659 0
M  V30 5881 H 561.706 -0.407593 2.95199 0
M  V30 5882 H 559.243 -0.189534 1.45874 0
M  V30 5883 H 561.201 -2.88688 3.0119 0
M  V30 5884 H 559.831 -2.60529 1.9059 0
M  V30 5885 H 558.883 -0.960301 3.68079 0
M  V30 5886 H 560.195 -1.47027 4.76639 0
M  V30 5887 H 559.349 -3.82529 4.7091 0
M  V30 5888 H 558.088 -3.36413 3.53097 0
M  V30 5889 H 557.093 -1.77746 5.20275 0
M  V30 5890 H 558.318 -2.26603 6.40178 0
M  V30 5891 H 556.264 -4.1055 5.11649 0
M  V30 5892 H 556.181 -3.45887 6.72234 0
M  V30 5893 H 557.449 -4.57477 6.31138 0
M  V30 5894 N 561.678 -1.56367 -0.196722 0
M  V30 5895 C 562.955 -1.71359 -0.943159 0
M  V30 5896 C 563.335 -0.631192 -2.01443 0
M  V30 5897 O 562.683 0.358071 -2.25677 0
M  V30 5898 C 562.893 -3.13623 -1.53106 0
M  V30 5899 C 564.241 -3.73806 -2.01381 0
M  V30 5900 O 565.265 -3.16742 -1.62951 0
M  V30 5901 O 564.124 -4.73951 -2.7209 0
M  V30 5902 H 561.218 -0.698851 -0.442195 0
M  V30 5903 H 563.764 -1.68672 -0.186547 0
M  V30 5904 H 562.536 -3.83873 -0.758785 0
M  V30 5905 H 562.159 -3.20532 -2.35255 0
M  V30 5906 N 563.156 0.464375 -1.50603 0
M  V30 5907 C 564.066 1.58723 -1.72754 0
M  V30 5908 C 565.082 1.62925 -0.610844 0
M  V30 5909 O 566.258 1.8067 -0.889963 0
M  V30 5910 C 563.323 2.94897 -1.82309 0
M  V30 5911 C 562.384 3.0103 -3.06071 0
M  V30 5912 C 561.617 4.30708 -3.1516 0
M  V30 5913 O 561.84 5.2159 -2.30868 0
M  V30 5914 O 560.774 4.42571 -4.0794 0
M  V30 5915 H 564.6 1.42954 -2.67951 0
M  V30 5916 H 562.185 0.644579 -1.3478 0
M  V30 5917 H 564.067 3.75764 -1.90735 0
M  V30 5918 H 562.742 3.10851 -0.902967 0
M  V30 5919 H 561.649 2.19217 -3.03142 0
M  V30 5920 H 562.982 2.90014 -3.97684 0
M  V30 5921 N 564.634 1.40294 0.718013 0
M  V30 5922 C 565.566 1.36281 1.84283 0
M  V30 5923 C 566.579 0.268621 1.60569 0
M  V30 5924 O 567.768 0.528798 1.70487 0
M  V30 5925 C 564.868 1.09741 3.2064 0
M  V30 5926 C 564.041 2.30767 3.71571 0
M  V30 5927 C 563.1 2.00424 4.86535 0
M  V30 5928 O 562.126 2.73268 4.99313 0
M  V30 5929 N 563.328 0.980724 5.72156 0
M  V30 5930 H 566.093 2.3322 1.88225 0
M  V30 5931 H 563.654 1.34616 0.899453 0
M  V30 5932 H 565.646 0.874322 3.95143 0
M  V30 5933 H 564.216 0.214771 3.11861 0
M  V30 5934 H 563.436 2.68921 2.88228 0
M  V30 5935 H 564.724 3.11455 4.02335 0
M  V30 5936 H 564.122 0.377375 5.6444 0
M  V30 5937 H 562.679 0.817538 6.46653 0
M  V30 5938 N 566.112 -0.949982 1.2575 0
M  V30 5939 C 567.34 -1.72972 1.13527 0
M  V30 5940 C 567.755 -1.8623 -0.310453 0
M  V30 5941 O 567.112 -1.36336 -1.2132 0
M  V30 5942 C 567.163 -3.14108 1.78936 0
M  V30 5943 O 566.884 -3.01493 3.17858 0
M  V30 5944 C 568.385 -4.08338 1.72554 0
M  V30 5945 H 565.605 -0.541864 0.395758 0
M  V30 5946 H 568.149 -1.19151 1.66202 0
M  V30 5947 H 566.304 -3.64858 1.30221 0
M  V30 5948 H 566.718 -3.90559 3.50092 0
M  V30 5949 H 568.192 -5.04963 2.22973 0
M  V30 5950 H 568.669 -4.33742 0.690251 0
M  V30 5951 H 569.275 -3.63506 2.2078 0
M  V30 5952 N 567.59 -1.07411 -1.15328 0
M  V30 5953 C 568.83 -0.807011 -1.87794 0
M  V30 5954 C 569.194 0.654987 -1.80482 0
M  V30 5955 O 570.395 1.03716 -2.47985 0
M  V30 5956 C 568.666 -1.30198 -3.32841 0
M  V30 5957 S 570.225 -1.16564 -4.23034 0
M  V30 5958 H 567.043 -0.292429 -0.648079 0
M  V30 5959 H 569.645 -1.37334 -1.39139 0
M  V30 5960 H 568.349 -2.3607 -3.35707 0
M  V30 5961 H 567.88 -0.730881 -3.86551 0
M  V30 5962 H 569.895 -0.103557 -4.96092 0
M  V30 5963 N 569.068 1.32177 -0.85831 0
M  V30 5964 C 569.998 2.31282 -0.321041 0
M  V30 5965 C 570.979 1.59841 0.581786 0
M  V30 5966 O 572.164 1.87619 0.501262 0
M  V30 5967 C 569.294 3.4385 0.48832 0
M  V30 5968 C 568.248 4.26799 -0.320391 0
M  V30 5969 C 567.574 5.31164 0.613934 0
M  V30 5970 C 568.874 4.98829 -1.54813 0
M  V30 5971 H 570.568 2.76469 -1.14915 0
M  V30 5972 H 568.114 1.32916 -0.554028 0
M  V30 5973 H 570.067 4.12224 0.874626 0
M  V30 5974 H 568.791 2.97401 1.34983 0
M  V30 5975 H 567.45 3.60077 -0.688497 0
M  V30 5976 H 567.098 4.80967 1.47239 0
M  V30 5977 H 566.798 5.8755 0.0768097 0
M  V30 5978 H 568.322 6.024 0.997336 0
M  V30 5979 H 569.736 5.59864 -1.23392 0
M  V30 5980 H 568.133 5.64957 -2.02346 0
M  V30 5981 H 569.203 4.26483 -2.30739 0
M  V30 5982 N 570.547 0.616602 1.45037 0
M  V30 5983 C 571.48 -0.145984 2.27733 0
M  V30 5984 C 572.458 -0.865108 1.37676 0
M  V30 5985 O 573.642 -0.872152 1.6711 0
M  V30 5986 C 570.769 -1.2122 3.16265 0
M  V30 5987 C 569.815 -0.595218 4.22326 0
M  V30 5988 S 570.648 0.603744 5.32086 0
M  V30 5989 C 571.804 -0.462842 6.24186 0
M  V30 5990 H 572.037 0.555591 2.92062 0
M  V30 5991 H 569.57 0.404364 1.49011 0
M  V30 5992 H 571.528 -1.82247 3.67827 0
M  V30 5993 H 570.189 -1.88589 2.51183 0
M  V30 5994 H 569.382 -1.39775 4.8423 0
M  V30 5995 H 568.984 -0.0598965 3.73952 0
M  V30 5996 H 571.276 -1.33945 6.64127 0
M  V30 5997 H 572.219 0.120259 7.07998 0
M  V30 5998 H 572.627 -0.782219 5.59054 0
M  V30 5999 N 572.025 -1.5352 0.356285 0
M  V30 6000 C 573.271 -2.02104 -0.229271 0
M  V30 6001 C 573.626 -1.23923 -1.47176 0
M  V30 6002 O 572.919 -0.321957 -1.88876 0
M  V30 6003 C 573.113 -3.52607 -0.583369 0
M  V30 6004 C 572.942 -4.4536 0.623253 0
M  V30 6005 C 571.712 -4.92446 1.13248 0
M  V30 6006 C 573.91 -4.92375 1.48563 0
M  V30 6007 N 571.892 -5.69183 2.3001 0
M  V30 6008 C 573.263 -5.67362 2.50001 0
M  V30 6009 C 575.318 -4.74464 1.50959 0
M  V30 6010 C 574.021 -6.26341 3.5368 0
M  V30 6011 C 576.047 -5.34302 2.53526 0
M  V30 6012 C 575.409 -6.09166 3.53688 0
M  V30 6013 H 571.508 -0.780595 -0.0468602 0
M  V30 6014 H 574.092 -1.88204 0.49873 0
M  V30 6015 H 572.263 -3.66686 -1.28046 0
M  V30 6016 H 573.995 -3.87922 -1.15321 0
M  V30 6017 H 570.75 -4.6842 0.698562 0
M  V30 6018 H 571.174 -6.12216 2.88998 0
M  V30 6019 H 575.816 -4.16117 0.748785 0
M  V30 6020 H 573.534 -6.8379 4.30648 0
M  V30 6021 H 577.12 -5.22342 2.56223 0
M  V30 6022 H 576 -6.54644 4.31753 0
M  V30 6023 N 573.503 -0.0852151 -1.57369 0
M  V30 6024 C 574.466 0.8627 -2.12344 0
M  V30 6025 C 575.466 1.21746 -1.05046 0
M  V30 6026 O 576.656 1.14852 -1.30976 0
M  V30 6027 C 573.788 2.1618 -2.63589 0
M  V30 6028 H 574.981 0.385511 -2.97412 0
M  V30 6029 H 572.534 0.163663 -1.55441 0
M  V30 6030 H 573.269 2.68406 -1.82013 0
M  V30 6031 H 573.054 1.91723 -3.4203 0
M  V30 6032 H 574.544 2.84011 -3.06149 0
M  V30 6033 N 574.981 1.5647 0.188427 0
M  V30 6034 C 576.211 1.84863 0.922463 0
M  V30 6035 C 576.619 0.666413 1.77075 0
M  V30 6036 O 575.962 -0.374044 1.79852 0
M  V30 6037 C 576.024 3.07447 1.86324 0
M  V30 6038 C 575.688 4.41066 1.19625 0
M  V30 6039 C 576.685 5.16767 0.569946 0
M  V30 6040 C 574.37 4.87802 1.19811 0
M  V30 6041 C 576.364 6.37384 -0.045594 0
M  V30 6042 C 574.051 6.08353 0.57874 0
M  V30 6043 C 575.049 6.82987 -0.0420259 0
M  V30 6044 O 574.737 8.01254 -0.651675 0
M  V30 6045 H 574.469 0.61784 0.274316 0
M  V30 6046 H 577.023 2.04437 0.198613 0
M  V30 6047 H 575.253 2.83774 2.62696 0
M  V30 6048 H 576.942 3.2243 2.46564 0
M  V30 6049 H 577.708 4.81749 0.560601 0
M  V30 6050 H 573.587 4.29662 1.67069 0
M  V30 6051 H 577.131 6.95578 -0.530731 0
M  V30 6052 H 573.028 6.42838 0.58561 0
M  V30 6053 H 573.796 8.16655 -0.549236 0
M  V30 6054 N 576.459 -0.456382 1.50847 0
M  V30 6055 C 577.369 -1.57805 1.73594 0
M  V30 6056 C 578.385 -1.62599 0.619476 0
M  V30 6057 O 579.561 -1.80195 0.899532 0
M  V30 6058 C 576.626 -2.93926 1.8387 0
M  V30 6059 C 575.687 -2.99402 3.07663 0
M  V30 6060 C 574.92 -4.29031 3.1744 0
M  V30 6061 O 575.143 -5.20358 2.33631 0
M  V30 6062 O 574.077 -4.40401 4.10281 0
M  V30 6063 H 577.903 -1.41531 2.68705 0
M  V30 6064 H 575.488 -0.637422 1.3512 0
M  V30 6065 H 577.37 -3.74747 1.92725 0
M  V30 6066 H 576.045 -3.10368 0.91944 0
M  V30 6067 H 574.952 -2.17606 3.043 0
M  V30 6068 H 576.285 -2.87901 3.99216 0
M  V30 6069 N 577.937 -1.40673 -0.710563 0
M  V30 6070 C 578.884 -1.41336 -1.82463 0
M  V30 6071 C 579.854 -0.269648 -1.63897 0
M  V30 6072 O 581.039 -0.468463 -1.8496 0
M  V30 6073 C 578.179 -1.28665 -3.20218 0
M  V30 6074 C 577.292 -2.52784 -3.5032 0
M  V30 6075 C 576.427 -2.32517 -4.77608 0
M  V30 6076 C 575.466 -3.52187 -5.0063 0
M  V30 6077 N 574.603 -3.31084 -6.19135 0
M  V30 6078 H 579.443 -2.36558 -1.8123 0
M  V30 6079 H 576.98 -1.17483 -0.885226 0
M  V30 6080 H 578.938 -1.19324 -3.99772 0
M  V30 6081 H 577.568 -0.370602 -3.20666 0
M  V30 6082 H 576.62 -2.72634 -2.65283 0
M  V30 6083 H 577.932 -3.41845 -3.63241 0
M  V30 6084 H 577.086 -2.20558 -5.65189 0
M  V30 6085 H 575.825 -1.40889 -4.66906 0
M  V30 6086 H 574.83 -3.64617 -4.11502 0
M  V30 6087 H 576.055 -4.44749 -5.13201 0
M  V30 6088 H 574.001 -2.42143 -6.09674 0
M  V30 6089 H 573.918 -4.13713 -6.32754 0
M  V30 6090 H 575.186 -3.22868 -7.0949 0
M  V30 6091 N 579.415 0.9433 -1.26252 0
M  V30 6092 C 580.663 1.68592 -1.11451 0
M  V30 6093 C 580.984 1.91957 0.343123 0
M  V30 6094 O 580.254 1.51475 1.24226 0
M  V30 6095 H 578.834 0.624789 -0.409448 0
M  V30 6096 H 581.496 1.13351 -1.58548 0
M  V30 6097 H 580.592 2.66054 -1.63162 0
M  V30 6098 N 580.893 1.08022 1.14757 0
M  V30 6099 C 581.843 0.676345 2.17737 0
M  V30 6100 C 582.827 -0.302018 1.5804 0
M  V30 6101 O 584.019 -0.11466 1.76628 0
M  V30 6102 C 581.148 0.082984 3.432 0
M  V30 6103 C 580.234 1.0869 4.09936 0
M  V30 6104 N 580.625 2.26891 4.52055 0
M  V30 6105 C 578.923 0.921768 4.36371 0
M  V30 6106 C 579.624 2.90636 5.0389 0
M  V30 6107 N 578.6 2.18266 4.97856 0
M  V30 6108 H 582.402 1.5765 2.4804 0
M  V30 6109 H 579.916 0.954374 1.31398 0
M  V30 6110 H 581.913 -0.224289 4.16296 0
M  V30 6111 H 580.573 -0.812206 3.14378 0
M  V30 6112 H 581.584 2.6457 4.45223 0
M  V30 6113 H 578.261 0.0800499 4.17423 0
M  V30 6114 H 579.651 3.9104 5.46386 0
M  V30 6115 N 582.371 -1.3172 0.865308 0
M  V30 6116 C 583.648 -1.91574 0.394789 0
M  V30 6117 C 584.028 -1.78769 -1.12271 0
M  V30 6118 O 583.376 -1.19245 -1.94918 0
M  V30 6119 C 583.586 -3.37957 0.870982 0
M  V30 6120 C 584.934 -4.15073 0.894384 0
M  V30 6121 O 585.958 -3.4672 0.816325 0
M  V30 6122 O 584.817 -5.37151 1.00651 0
M  V30 6123 H 581.911 -0.818649 0.117229 0
M  V30 6124 H 584.457 -1.4042 0.952913 0
M  V30 6125 H 583.229 -3.41269 1.91444 0
M  V30 6126 H 582.852 -3.96534 0.290907 0
M  V30 6127 N 583.85 -0.624285 -1.44708 0
M  V30 6128 C 584.812 0.0749638 -2.29077 0
M  V30 6129 C 585.812 0.778965 -1.40673 0
M  V30 6130 O 587.003 0.624591 -1.62618 0
M  V30 6131 C 584.135 1.11663 -3.22094 0
M  V30 6132 H 585.327 -0.667013 -2.92388 0
M  V30 6133 H 582.88 -0.384098 -1.51507 0
M  V30 6134 H 583.615 1.88881 -2.63618 0
M  V30 6135 H 583.401 0.61583 -3.87234 0
M  V30 6136 H 584.891 1.60585 -3.8549 0
M  V30 6137 N 585.328 1.53329 -0.364422 0
M  V30 6138 C 586.577 2.00421 0.226747 0
M  V30 6139 C 586.89 1.25581 1.49963 0
M  V30 6140 O 588.096 1.63256 2.16933 0
M  V30 6141 C 586.552 3.57017 0.454618 0
M  V30 6142 C 586.16 4.40734 -0.803568 0
M  V30 6143 C 587.904 4.12468 1.00351 0
M  V30 6144 C 585.811 5.8888 -0.545345 0
M  V30 6145 H 584.741 0.748787 0.0885082 0
M  V30 6146 H 587.392 1.7703 -0.482983 0
M  V30 6147 H 585.774 3.76558 1.22558 0
M  V30 6148 H 586.948 4.32967 -1.57723 0
M  V30 6149 H 585.263 3.96381 -1.27559 0
M  V30 6150 H 587.86 5.20783 1.212 0
M  V30 6151 H 588.203 3.6699 1.9653 0
M  V30 6152 H 588.736 3.96721 0.29274 0
M  V30 6153 H 585.475 6.38633 -1.47743 0
M  V30 6154 H 584.995 5.99499 0.189842 0
M  V30 6155 H 586.674 6.46776 -0.170425 0
M  V30 6156 N 586.806 0.0935595 1.57322 0
M  V30 6157 C 588.052 -0.571355 1.94585 0
M  V30 6158 C 588.385 -1.67929 0.975366 0
M  V30 6159 O 587.66 -1.94498 0.00816206 0
M  V30 6160 C 587.943 -1.12797 3.41978 0
M  V30 6161 C 587.796 -0.0251881 4.49793 0
M  V30 6162 C 589.115 -2.02682 3.90651 0
M  V30 6163 H 586.234 -0.206223 0.70756 0
M  V30 6164 H 588.876 0.163956 1.89291 0
M  V30 6165 H 587.026 -1.75461 3.4662 0
M  V30 6166 H 588.698 0.608979 4.57263 0
M  V30 6167 H 586.941 0.641399 4.29032 0
M  V30 6168 H 587.612 -0.455433 5.50118 0
M  V30 6169 H 590.088 -1.49925 3.88152 0
M  V30 6170 H 588.964 -2.38555 4.94351 0
M  V30 6171 H 589.225 -2.94362 3.29854 0
M  V30 6172 N 588.284 -1.56567 -0.180126 0
M  V30 6173 C 589.512 -1.85618 -0.913972 0
M  V30 6174 C 589.927 -0.677892 -1.7621 0
M  V30 6175 O 589.284 0.353171 -1.7905 0
M  V30 6176 C 589.335 -3.13619 -1.79793 0
M  V30 6177 O 589.056 -4.26906 -0.98402 0
M  V30 6178 C 590.557 -3.55954 -2.64219 0
M  V30 6179 H 587.777 -0.616043 -0.265954 0
M  V30 6180 H 590.321 -2.03681 -0.182872 0
M  V30 6181 H 588.476 -2.97409 -2.48247 0
M  V30 6182 H 588.89 -4.9989 -1.58776 0
M  V30 6183 H 590.364 -4.48444 -3.21873 0
M  V30 6184 H 590.841 -2.79653 -3.38661 0
M  V30 6185 H 591.447 -3.74746 -2.01111 0
M  V30 6186 N 589.762 0.448376 -1.51087 0
M  V30 6187 C 590.692 1.55102 -1.74544 0
M  V30 6188 C 591.673 1.59357 -0.594932 0
M  V30 6189 O 592.858 1.75261 -0.836491 0
M  V30 6190 C 589.988 2.93268 -1.86041 0
M  V30 6191 C 588.942 3.03877 -3.01402 0
M  V30 6192 C 588.268 4.43914 -2.98068 0
M  V30 6193 C 589.568 2.7898 -4.41551 0
M  V30 6194 H 591.262 1.35724 -2.66869 0
M  V30 6195 H 588.808 0.651498 -1.28419 0
M  V30 6196 H 590.761 3.70356 -2.01034 0
M  V30 6197 H 589.485 3.13853 -0.903548 0
M  V30 6198 H 588.144 2.29227 -2.86096 0
M  V30 6199 H 587.792 4.6145 -2.00182 0
M  V30 6200 H 587.492 4.51944 -3.75527 0
M  V30 6201 H 589.016 5.22991 -3.1514 0
M  V30 6202 H 590.43 3.45805 -4.57265 0
M  V30 6203 H 588.827 2.98431 -5.20633 0
M  V30 6204 H 589.897 1.74663 -4.5235 0
M  V30 6205 N 591.24 1.41047 0.703093 0
M  V30 6206 C 592.17 1.45067 1.82969 0
M  V30 6207 C 593.151 0.31016 1.67248 0
M  V30 6208 O 594.336 0.520548 1.87093 0
M  V30 6209 C 591.466 1.32478 3.2104 0
M  V30 6210 C 590.42 2.44262 3.51454 0
M  V30 6211 C 589.746 2.16742 4.88801 0
M  V30 6212 C 591.046 3.86606 3.51189 0
M  V30 6213 H 592.74 2.39353 1.79863 0
M  V30 6214 H 590.286 1.15206 0.863919 0
M  V30 6215 H 592.239 1.33904 3.99559 0
M  V30 6216 H 590.963 0.346735 3.24754 0
M  V30 6217 H 589.622 2.42107 2.75282 0
M  V30 6218 H 589.27 1.17299 4.89132 0
M  V30 6219 H 588.97 2.91643 5.10116 0
M  V30 6220 H 590.494 2.19872 5.69639 0
M  V30 6221 H 591.908 3.90517 4.19725 0
M  V30 6222 H 590.305 4.61128 3.84033 0
M  V30 6223 H 591.375 4.15296 2.50315 0
M  V30 6224 N 592.718 -0.936591 1.26751 0
M  V30 6225 C 593.665 -2.03597 1.08706 0
M  V30 6226 C 594.635 -1.66097 -0.00926542 0
M  V30 6227 O 595.82 -1.90199 0.151377 0
M  V30 6228 C 592.96 -3.3727 0.73094 0
M  V30 6229 C 592.073 -3.87778 1.90399 0
M  V30 6230 C 591.208 -5.09859 1.49056 0
M  V30 6231 C 590.247 -5.5264 2.63164 0
M  V30 6232 N 589.384 -6.65921 2.22471 0
M  V30 6233 H 594.224 -2.18364 2.02784 0
M  V30 6234 H 591.761 -1.06985 1.00958 0
M  V30 6235 H 593.719 -4.14128 0.505328 0
M  V30 6236 H 592.349 -3.22337 -0.172868 0
M  V30 6237 H 591.401 -3.07279 2.2424 0
M  V30 6238 H 592.713 -4.15464 2.76028 0
M  V30 6239 H 591.867 -5.9419 1.22567 0
M  V30 6240 H 590.606 -4.8393 0.60524 0
M  V30 6241 H 589.611 -4.66863 2.90377 0
M  V30 6242 H 590.836 -5.80568 3.52303 0
M  V30 6243 H 588.782 -6.41667 1.36379 0
M  V30 6244 H 588.699 -6.93216 3.01641 0
M  V30 6245 H 589.967 -7.53616 1.99205 0
M  V30 6246 N 594.196 -1.08629 -1.14182 0
M  V30 6247 C 595.146 -0.687882 -2.17376 0
M  V30 6248 C 596.13 0.293632 -1.58198 0
M  V30 6249 O 597.322 0.105292 -1.76687 0
M  V30 6250 C 594.451 -0.101184 -3.43151 0
M  V30 6251 C 593.537 -1.10862 -4.09354 0
M  V30 6252 N 593.928 -2.29285 -4.50846 0
M  V30 6253 C 592.226 -0.944897 -4.35876 0
M  V30 6254 C 592.927 -2.93305 -5.02342 0
M  V30 6255 N 591.903 -2.20903 -4.96692 0
M  V30 6256 H 595.705 -1.58963 -2.472 0
M  V30 6257 H 593.219 -0.961329 -1.3089 0
M  V30 6258 H 595.216 0.202209 -4.16409 0
M  V30 6259 H 593.876 0.795522 -3.14804 0
M  V30 6260 H 594.887 -2.66927 -4.43813 0
M  V30 6261 H 591.564 -0.102186 -4.17375 0
M  V30 6262 H 592.954 -3.93932 -5.44304 0
M  V30 6263 N 595.674 1.31259 -0.872281 0
M  V30 6264 C 596.904 2.00504 -0.498183 0
M  V30 6265 C 597.312 1.65632 0.914479 0
M  V30 6266 O 596.655 0.882849 1.61095 0
M  V30 6267 C 596.717 3.5482 -0.578194 0
M  V30 6268 C 596.381 4.13172 -1.95289 0
M  V30 6269 C 597.378 4.30107 -2.92069 0
M  V30 6270 C 595.063 4.48846 -2.25483 0
M  V30 6271 C 597.057 4.81908 -4.17185 0
M  V30 6272 C 594.744 5.00349 -3.50847 0
M  V30 6273 C 595.742 5.16831 -4.46514 0
M  V30 6274 O 595.43 5.67228 -5.69656 0
M  V30 6275 H 595.162 0.648055 -0.192354 0
M  V30 6276 H 597.716 1.6841 -1.17589 0
M  V30 6277 H 595.946 3.86383 0.156438 0
M  V30 6278 H 597.635 4.05318 -0.217192 0
M  V30 6279 H 598.401 4.02862 -2.7005 0
M  V30 6280 H 594.28 4.35292 -1.51795 0
M  V30 6281 H 597.824 4.94688 -4.91863 0
M  V30 6282 H 593.721 5.27028 -3.72708 0
M  V30 6283 H 594.489 5.85592 -5.7186 0
M  V30 6284 N 597.152 0.631951 1.44375 0
M  V30 6285 C 598.099 -0.0724807 2.30686 0
M  V30 6286 C 599.069 -0.835975 1.43529 0
M  V30 6287 O 600.254 -0.816849 1.7243 0
M  V30 6288 C 597.394 -1.04753 3.28817 0
M  V30 6289 C 596.507 -0.282367 4.31076 0
M  V30 6290 C 595.642 -1.2493 5.163 0
M  V30 6291 C 594.681 -0.473349 6.10267 0
M  V30 6292 N 593.818 -1.39079 6.88187 0
M  V30 6293 H 598.658 0.669477 2.90383 0
M  V30 6294 H 596.195 0.341927 1.43071 0
M  V30 6295 H 598.153 -1.62623 3.842 0
M  V30 6296 H 596.783 -1.75661 2.70819 0
M  V30 6297 H 595.835 0.412268 3.78159 0
M  V30 6298 H 597.147 0.321955 4.9776 0
M  V30 6299 H 596.301 -1.89931 5.76204 0
M  V30 6300 H 595.04 -1.88755 4.49692 0
M  V30 6301 H 594.045 0.190142 5.49471 0
M  V30 6302 H 595.27 0.16019 6.78911 0
M  V30 6303 H 593.216 -2.01623 6.24247 0
M  V30 6304 H 593.133 -0.840513 7.51313 0
M  V30 6305 H 594.401 -2.02961 7.52613 0
M  V30 6306 N 598.631 -1.53133 0.372548 0
M  V30 6307 C 600.047 -1.59585 0.02178 0
M  V30 6308 C 600.247 -1.38736 -1.46132 0
M  V30 6309 O 599.303 -1.19599 -2.22379 0
M  V30 6310 C 600.616 -2.9678 0.483959 0
M  V30 6311 C 602.164 -3.09909 0.438775 0
M  V30 6312 C 602.639 -4.49527 0.876876 0
M  V30 6313 N 604.13 -4.55663 0.832214 0
M  V30 6314 C 604.865 -5.61896 1.14281 0
M  V30 6315 N 604.361 -6.75852 1.52303 0
M  V30 6316 N 606.154 -5.51916 1.06515 0
M  V30 6317 H 598.305 -1.64936 1.33827 0
M  V30 6318 H 600.568 -0.773947 0.547458 0
M  V30 6319 H 600.274 -3.17198 1.51915 0
M  V30 6320 H 600.148 -3.7699 -0.125784 0
M  V30 6321 H 602.535 -2.89197 -0.587294 0
M  V30 6322 H 602.616 -2.31691 1.0841 0
M  V30 6323 H 602.26 -4.70979 1.90109 0
M  V30 6324 H 602.19 -5.26186 0.208727 0
M  V30 6325 H 604.681 -3.73844 0.552195 0
M  V30 6326 H 604.994 -7.52862 1.7441 0
M  V30 6327 H 603.339 -6.77226 1.56175 0
M  V30 6328 H 606.53 -4.6177 0.767235 0
M  V30 6329 H 606.703 -6.34609 1.31053 0
M  V30 6330 N 600.109 -0.101901 -1.5727 0
M  V30 6331 C 601.52 0.426173 -1.81771 0
M  V30 6332 C 601.871 1.67725 -1.01797 0
M  V30 6333 O 600.996 2.14958 -0.249386 0
M  V30 6334 C 601.591 0.779962 -3.297 0
M  V30 6335 C 600.15 1.25275 -3.54941 0
M  V30 6336 C 599.297 0.252814 -2.76145 0
M  V30 6337 H 602.248 -0.32726 -1.55289 0
M  V30 6338 H 602.269 1.63891 -3.43395 0
M  V30 6339 H 601.781 -0.130778 -3.8788 0
M  V30 6340 H 599.882 2.18097 -3.021 0
M  V30 6341 H 599.995 1.20988 -4.63572 0
M  V30 6342 H 598.359 0.736362 -2.43823 0
M  V30 6343 H 599.142 -0.650724 -3.37076 0
M  V30 6344 N 601.587 1.56661 0.17182 0
M  V30 6345 C 602.519 1.92934 1.2373 0
M  V30 6346 C 603.532 0.822385 1.40502 0
M  V30 6347 O 604.721 1.10083 1.40514 0
M  V30 6348 C 601.821 2.16651 2.60607 0
M  V30 6349 C 600.994 3.47878 2.6514 0
M  V30 6350 C 600.053 3.60429 3.83377 0
M  V30 6351 O 599.079 4.33051 3.69398 0
M  V30 6352 N 600.281 2.95241 4.99813 0
M  V30 6353 H 603.046 2.84931 0.929205 0
M  V30 6354 H 600.607 1.5781 0.361588 0
M  V30 6355 H 602.599 2.22312 3.38171 0
M  V30 6356 H 601.169 1.3104 2.83809 0
M  V30 6357 H 600.389 3.53879 1.73675 0
M  V30 6358 H 601.677 4.34232 2.6518 0
M  V30 6359 H 601.075 2.3611 5.14071 0
M  V30 6360 H 599.632 3.06499 5.75241 0
M  V30 6361 N 603.065 -0.440357 1.51323 0
M  V30 6362 C 604.342 -1.20109 1.5438 0
M  V30 6363 C 604.722 -2.08866 0.306303 0
M  V30 6364 O 604.07 -2.1723 -0.708773 0
M  V30 6365 C 604.28 -2.00555 2.8562 0
M  V30 6366 C 605.628 -2.577 3.37455 0
M  V30 6367 O 606.652 -2.10769 2.8715 0
M  V30 6368 O 605.511 -3.43289 4.25224 0
M  V30 6369 H 602.605 -0.546668 0.620551 0
M  V30 6370 H 605.151 -0.449672 1.63634 0
M  V30 6371 H 603.923 -1.35346 3.67147 0
M  V30 6372 H 603.546 -2.82768 2.79514 0
M  V30 6373 N 604.543 -1.41418 -0.695603 0
M  V30 6374 C 605.453 -1.45622 -1.83933 0
M  V30 6375 C 606.469 -0.346825 -1.70508 0
M  V30 6376 O 607.645 -0.59454 -1.92424 0
M  V30 6377 C 604.71 -1.33627 -3.19914 0
M  V30 6378 C 603.771 -2.54882 -3.45447 0
M  V30 6379 C 603.004 -2.43449 -4.7494 0
M  V30 6380 O 603.227 -1.45905 -5.51424 0
M  V30 6381 O 602.161 -3.33206 -5.01256 0
M  V30 6382 H 605.987 -2.42114 -1.83342 0
M  V30 6383 H 603.572 -1.22956 -0.848658 0
M  V30 6384 H 605.454 -1.29221 -4.01098 0
M  V30 6385 H 604.129 -0.402508 -3.21188 0
M  V30 6386 H 603.036 -2.64865 -2.64192 0
M  V30 6387 H 604.369 -3.47087 -3.48987 0
M  V30 6388 N 606.021 0.929856 -1.27246 0
M  V30 6389 C 606.951 2.04722 -1.12299 0
M  V30 6390 C 607.932 1.70082 -0.0250464 0
M  V30 6391 O 609.117 1.93176 -0.199141 0
M  V30 6392 C 606.247 3.38721 -0.767145 0
M  V30 6393 C 605.201 3.87466 -1.81808 0
M  V30 6394 C 604.527 5.18246 -1.31626 0
M  V30 6395 C 605.827 4.11095 -3.22177 0
M  V30 6396 H 607.521 2.17485 -2.05769 0
M  V30 6397 H 605.067 1.04503 -0.990715 0
M  V30 6398 H 607.02 4.16366 -0.649413 0
M  V30 6399 H 605.744 3.25967 0.203259 0
M  V30 6400 H 604.403 3.12012 -1.92468 0
M  V30 6401 H 604.051 5.01881 -0.335378 0
M  V30 6402 H 603.751 5.51829 -2.01887 0
M  V30 6403 H 605.275 5.98462 -1.21143 0
M  V30 6404 H 606.689 4.79316 -3.1453 0
M  V30 6405 H 605.086 4.55982 -3.90129 0
M  V30 6406 H 606.156 3.16468 -3.67391 0
M  V30 6407 N 607.499 1.09233 1.13605 0
M  V30 6408 C 608.91 0.846839 1.6639 0
M  V30 6409 C 609.261 -0.625031 1.85978 0
M  V30 6410 O 608.386 -1.48173 1.57714 0
M  V30 6411 C 608.981 1.5307 3.0225 0
M  V30 6412 C 607.54 1.33223 3.52035 0
M  V30 6413 C 606.687 1.58806 2.27323 0
M  V30 6414 H 609.638 1.25175 0.975541 0
M  V30 6415 H 609.659 0.96267 3.68121 0
M  V30 6416 H 609.171 2.60192 2.87961 0
M  V30 6417 H 607.272 0.282091 3.71531 0
M  V30 6418 H 607.385 2.0657 4.32279 0
M  V30 6419 H 605.749 1.01007 2.33815 0
M  V30 6420 H 606.532 2.67153 2.15602 0
M  V30 6421 N 608.977 -1.30795 0.87923 0
M  V30 6422 C 610.217 -1.98155 0.50141 0
M  V30 6423 C 610.581 -1.67925 -0.930863 0
M  V30 6424 O 611.782 -2.28572 -1.41451 0
M  V30 6425 C 610.053 -3.49184 0.761937 0
M  V30 6426 S 611.612 -4.36107 0.485361 0
M  V30 6427 H 608.43 -0.686025 0.186792 0
M  V30 6428 H 611.032 -1.59018 1.13726 0
M  V30 6429 H 609.736 -3.68676 1.80295 0
M  V30 6430 H 609.267 -3.93236 0.113432 0
M  V30 6431 H 611.282 -4.9154 -0.678467 0
M  V30 6432 N 610.455 -0.639598 -1.44038 0
M  V30 6433 C 611.403 0.0723409 -2.32487 0
M  V30 6434 C 612.397 0.827129 -1.47834 0
M  V30 6435 O 613.603 0.73907 -1.64127 0
M  V30 6436 H 609.978 0.0421696 -0.750817 0
M  V30 6437 H 611.949 -0.691593 -2.90275 0
M  V30 6438 C 610.698 1.03452 -3.31953 0
M  V30 6439 H 610.021 0.46315 -3.97108 0
M  V30 6440 H 611.461 1.502 -3.96505 0
M  V30 6441 C 609.92 2.12392 -2.61518 0
M  V30 6442 O 610.45 3.2059 -2.42044 0
M  V30 6443 N 608.656 1.88563 -2.21116 0
M  V30 6444 H 608.203 1.00577 -2.37154 0
M  V30 6445 H 608.161 2.61651 -1.74316 0
M  V30 6446 N 611.933 1.52934 -0.380664 0
M  V30 6447 C 612.843 2.29921 0.466192 0
M  V30 6448 C 613.859 1.36488 1.07922 0
M  V30 6449 O 615.035 1.69553 1.0869 0
M  V30 6450 C 612.1 3.08468 1.58266 0
M  V30 6451 C 611.161 4.17595 0.995627 0
M  V30 6452 C 610.394 4.92387 2.05889 0
M  V30 6453 O 610.617 4.67184 3.27254 0
M  V30 6454 O 609.551 5.77949 1.68102 0
M  V30 6455 H 613.377 3.03274 -0.160735 0
M  V30 6456 H 610.962 1.48698 -0.144617 0
M  V30 6457 H 612.844 3.57469 2.23145 0
M  V30 6458 H 611.519 2.37937 2.19471 0
M  V30 6459 H 610.426 3.72811 0.310332 0
M  V30 6460 H 611.759 4.90336 0.427918 0
M  V30 6461 N 613.412 0.11024 1.57214 0
M  V30 6462 C 614.642 -0.557025 1.98949 0
M  V30 6463 C 615.05 -1.61317 0.988606 0
M  V30 6464 O 614.393 -1.83679 -0.0279159 0
M  V30 6465 C 614.455 -1.24956 3.37085 0
M  V30 6466 C 614.119 -0.342398 4.55716 0
M  V30 6467 C 615.116 0.415511 5.18237 0
M  V30 6468 C 612.801 -0.256029 5.01647 0
M  V30 6469 C 614.795 1.24761 6.25071 0
M  V30 6470 C 612.482 0.579713 6.08344 0
M  V30 6471 C 613.48 1.33017 6.69922 0
M  V30 6472 O 613.168 2.15205 7.74559 0
M  V30 6473 H 612.9 -0.152792 0.658506 0
M  V30 6474 H 615.454 0.19076 2.04512 0
M  V30 6475 H 613.684 -2.04424 3.2825 0
M  V30 6476 H 615.373 -1.81286 3.63167 0
M  V30 6477 H 616.139 0.358605 4.83672 0
M  V30 6478 H 612.018 -0.829831 4.5347 0
M  V30 6479 H 615.562 1.83386 6.73064 0
M  V30 6480 H 611.459 0.638044 6.42339 0
M  V30 6481 H 612.227 2.08052 7.91617 0
M  V30 6482 N 614.89 -1.56749 -0.16351 0
M  V30 6483 C 616.115 -1.86938 -0.898264 0
M  V30 6484 C 616.54 -0.697456 -1.74692 0
M  V30 6485 O 615.898 0.353327 -1.77824 0
M  V30 6486 C 615.946 -3.15599 -1.74441 0
M  V30 6487 O 615.05 -2.98371 -2.8469 0
M  V30 6488 H 614.391 -0.614659 -0.251178 0
M  V30 6489 H 616.921 -2.03979 -0.159298 0
M  V30 6490 H 616.931 -3.47202 -2.14277 0
M  V30 6491 H 615.606 -4.00505 -1.1211 0
M  V30 6492 H 614.183 -2.7814 -2.4838 0
M  V30 6493 N 616.368 0.432326 -1.51554 0
M  V30 6494 C 617.3 1.54357 -1.6943 0
M  V30 6495 C 618.313 1.52311 -0.574897 0
M  V30 6496 O 619.502 1.56997 -0.849369 0
M  V30 6497 C 616.602 2.93273 -1.69836 0
M  V30 6498 C 615.775 3.19768 -2.98442 0
M  V30 6499 C 614.834 4.38433 -2.90969 0
M  V30 6500 O 613.86 4.36842 -3.64908 0
M  V30 6501 N 615.062 5.42276 -2.07163 0
M  V30 6502 H 617.827 1.39426 -2.65293 0
M  V30 6503 H 615.388 0.621331 -1.49503 0
M  V30 6504 H 617.38 3.70687 -1.62399 0
M  V30 6505 H 615.95 3.01777 -0.815456 0
M  V30 6506 H 615.17 2.30607 -3.19709 0
M  V30 6507 H 616.458 3.343 -3.83563 0
M  V30 6508 H 615.856 5.46407 -1.46477 0
M  V30 6509 H 614.413 6.18524 -2.05601 0
M  V30 6510 N 617.846 1.41785 0.688094 0
M  V30 6511 C 619.257 1.3701 1.26828 0
M  V30 6512 C 619.608 0.056835 1.96118 0
M  V30 6513 O 618.733 -0.84475 1.99231 0
M  V30 6514 C 619.328 2.48168 2.30648 0
M  V30 6515 C 617.887 2.46766 2.84224 0
M  V30 6516 C 617.034 2.27633 1.58361 0
M  V30 6517 H 619.985 1.51192 0.482351 0
M  V30 6518 H 620.006 2.17655 3.121 0
M  V30 6519 H 619.518 3.43735 1.80188 0
M  V30 6520 H 617.619 1.54978 3.3884 0
M  V30 6521 H 617.732 3.43342 3.34145 0
M  V30 6522 H 616.096 1.75648 1.84445 0
M  V30 6523 H 616.879 3.25238 1.09887 0
M  V30 6524 N 619.324 -0.923095 1.27737 0
M  V30 6525 C 620.572 -1.66797 1.14119 0
M  V30 6526 C 620.893 -1.92479 -0.312541 0
M  V30 6527 O 620.163 -1.53432 -1.218 0
M  V30 6528 H 618.743 -0.618196 0.419336 0
M  V30 6529 H 621.405 -1.10815 1.60331 0
M  V30 6530 H 620.501 -2.63424 1.67374 0
M  V30 6531 N 620.802 -1.09834 -1.13024 0
M  V30 6532 C 622.05 -0.835297 -1.8403 0
M  V30 6533 C 622.371 0.640944 -1.84165 0
M  V30 6534 O 621.641 1.46517 -1.30037 0
M  V30 6535 H 620.221 -0.306018 -0.681441 0
M  V30 6536 H 622.883 -1.38734 -1.36891 0
M  V30 6537 H 621.979 -1.19258 -2.88416 0
M  V30 6538 N 622.28 1.30327 -0.886154 0
M  V30 6539 C 623.557 1.90922 -0.425217 0
M  V30 6540 C 623.937 1.80533 1.09413 0
M  V30 6541 O 623.285 1.2233 1.92996 0
M  V30 6542 C 623.495 3.36529 -0.924638 0
M  V30 6543 C 624.843 4.13598 -0.960305 0
M  V30 6544 O 625.867 3.45377 -0.871382 0
M  V30 6545 O 624.726 5.35482 -1.09184 0
M  V30 6546 H 621.82 0.81668 -0.130238 0
M  V30 6547 H 624.366 1.38886 -0.975132 0
M  V30 6548 H 623.138 3.38181 -1.96849 0
M  V30 6549 H 622.761 3.96021 -0.353955 0
M  V30 6550 N 623.758 0.647228 1.43697 0
M  V30 6551 C 625.006 0.157876 2.01482 0
M  V30 6552 C 625.327 -1.23039 1.51282 0
M  V30 6553 O 624.597 -1.82071 0.722982 0
M  V30 6554 H 623.177 0.0553745 0.744945 0
M  V30 6555 H 625.839 0.83755 1.75986 0
M  V30 6556 H 624.935 0.137895 3.11795 0
M  V30 6557 N 625.236 -1.5273 0.388769 0
M  V30 6558 C 626.461 -2.0647 -0.19621 0
M  V30 6559 C 626.886 -1.25865 -1.39784 0
M  V30 6560 O 626.244 -0.283562 -1.79069 0
M  V30 6561 C 626.292 -3.56456 -0.5451 0
M  V30 6562 O 625.396 -3.78426 -1.63912 0
M  V30 6563 H 624.737 -0.663599 -0.023067 0
M  V30 6564 H 627.267 -1.96898 0.556084 0
M  V30 6565 H 627.277 -3.99888 -0.809557 0
M  V30 6566 H 625.952 -4.14561 0.333417 0
M  V30 6567 H 624.529 -3.46884 -1.36842 0
M  V30 6568 N 626.714 -0.118576 -1.57153 0
M  V30 6569 C 627.944 0.546466 -1.99242 0
M  V30 6570 C 628.352 1.60791 -0.997148 0
M  V30 6571 O 627.695 1.83691 0.0181745 0
M  V30 6572 C 627.757 1.23167 -3.37743 0
M  V30 6573 C 627.421 0.318226 -4.55891 0
M  V30 6574 C 628.418 -0.442988 -5.18009 0
M  V30 6575 C 626.103 0.229421 -5.01776 0
M  V30 6576 C 628.097 -1.28074 -6.244 0
M  V30 6577 C 625.784 -0.611966 -6.08028 0
M  V30 6578 C 626.782 -1.36568 -6.69207 0
M  V30 6579 O 626.47 -2.1931 -7.73407 0
M  V30 6580 H 626.202 0.149297 -0.659307 0
M  V30 6581 H 628.756 -0.201603 -2.04408 0
M  V30 6582 H 626.986 2.0268 -3.29329 0
M  V30 6583 H 628.675 1.79358 -3.64123 0
M  V30 6584 H 629.441 -0.38425 -4.83475 0
M  V30 6585 H 625.32 0.805771 -4.53903 0
M  V30 6586 H 628.864 -1.86952 -6.72082 0
M  V30 6587 H 624.761 -0.6721 -6.41991 0
M  V30 6588 H 625.529 -2.12247 -7.90502 0
M  V30 6589 N 628.193 1.56834 0.155195 0
M  V30 6590 C 629.439 1.83169 0.870467 0
M  V30 6591 C 629.772 0.698929 1.81187 0
M  V30 6592 O 629.047 -0.298035 1.92203 0
M  V30 6593 C 629.33 3.19965 1.65211 0
M  V30 6594 C 629.183 4.43792 0.732744 0
M  V30 6595 C 630.502 3.53885 2.61636 0
M  V30 6596 H 627.621 0.666288 0.315006 0
M  V30 6597 H 630.263 1.89513 0.135988 0
M  V30 6598 H 628.413 3.14687 2.27825 0
M  V30 6599 H 630.085 4.61148 0.118236 0
M  V30 6600 H 628.328 4.3378 0.0417906 0
M  V30 6601 H 628.999 5.36095 1.31552 0
M  V30 6602 H 631.475 3.5972 2.09143 0
M  V30 6603 H 630.351 4.50648 3.13381 0
M  V30 6604 H 630.612 2.79418 3.42605 0
M  V30 6605 N 629.671 -0.424282 1.51781 0
M  V30 6606 C 630.896 -1.19928 1.6921 0
M  V30 6607 C 631.321 -1.8392 0.394355 0
M  V30 6608 O 630.679 -1.69371 -0.646778 0
M  V30 6609 C 630.727 -2.24937 2.81843 0
M  V30 6610 O 629.831 -3.3073 2.46356 0
M  V30 6611 H 629.172 -0.35078 0.563781 0
M  V30 6612 H 631.702 -0.499401 1.98412 0
M  V30 6613 H 631.712 -2.69512 3.06312 0
M  V30 6614 H 630.387 -1.77742 3.76006 0
M  V30 6615 H 628.964 -2.9154 2.32505 0
M  V30 6616 N 631.149 -1.42148 -0.680565 0
M  V30 6617 C 632.395 -1.42521 -1.44277 0
M  V30 6618 C 632.728 -0.0393718 -1.9416 0
M  V30 6619 O 632.003 0.935425 -1.70529 0
M  V30 6620 C 632.286 -2.44475 -2.64394 0
M  V30 6621 C 632.139 -3.92226 -2.20179 0
M  V30 6622 C 633.458 -2.43491 -3.66606 0
M  V30 6623 H 630.577 -0.518985 -0.523282 0
M  V30 6624 H 633.219 -1.73524 -0.773914 0
M  V30 6625 H 631.369 -2.18168 -3.21458 0
M  V30 6626 H 633.041 -4.29493 -1.68327 0
M  V30 6627 H 631.284 -4.0637 -1.5181 0
M  V30 6628 H 631.955 -4.59133 -3.06433 0
M  V30 6629 H 634.431 -2.66872 -3.19247 0
M  V30 6630 H 633.307 -3.16816 -4.4824 0
M  V30 6631 H 633.568 -1.45881 -4.17338 0
M  V30 6632 N 632.627 0.916307 -1.28225 0
M  V30 6633 C 634.038 1.48024 -1.13779 0
M  V30 6634 C 634.389 1.94289 0.273139 0
M  V30 6635 O 633.514 1.82226 1.16716 0
M  V30 6636 C 634.109 2.69029 -2.05935 0
M  V30 6637 C 632.668 3.2161 -1.95561 0
M  V30 6638 C 631.815 1.94321 -1.97825 0
M  V30 6639 H 634.766 0.729272 -1.40951 0
M  V30 6640 H 634.787 3.44204 -1.62184 0
M  V30 6641 H 634.299 2.35325 -3.08616 0
M  V30 6642 H 632.4 3.60045 -0.959076 0
M  V30 6643 H 632.513 3.87032 -2.82388 0
M  V30 6644 H 630.877 2.1131 -1.42198 0
M  V30 6645 H 631.66 1.62917 -3.0218 0
M  V30 6646 N 634.105 1.10431 1.1244 0
M  V30 6647 C 635.33 0.869089 1.88313 0
M  V30 6648 C 635.755 -0.574912 1.79099 0
M  V30 6649 O 635.113 -1.40496 1.14589 0
M  V30 6650 C 635.161 1.32208 3.3549 0
M  V30 6651 O 634.265 0.487092 4.09513 0
M  V30 6652 H 633.606 0.313894 0.585121 0
M  V30 6653 H 636.136 1.47111 1.42195 0
M  V30 6654 H 636.146 1.31201 3.86329 0
M  V30 6655 H 634.821 2.37364 3.41513 0
M  V30 6656 H 633.398 0.562372 3.68635 0
M  V30 6657 N 635.583 -1.29855 0.893053 0
M  V30 6658 C 636.994 -1.77946 0.564998 0
M  V30 6659 C 637.345 -1.73339 -0.919134 0
M  V30 6660 O 636.47 -1.3152 -1.71847 0
M  V30 6661 C 637.065 -3.23118 1.01883 0
M  V30 6662 C 635.624 -3.69013 0.742051 0
M  V30 6663 C 634.771 -2.50121 1.19727 0
M  V30 6664 H 637.722 -1.16611 1.07646 0
M  V30 6665 H 637.743 -3.78875 0.351249 0
M  V30 6666 H 637.255 -3.26439 2.09903 0
M  V30 6667 H 635.356 -3.71173 -0.325816 0
M  V30 6668 H 635.469 -4.60117 1.33527 0
M  V30 6669 H 633.833 -2.47128 0.616418 0
M  V30 6670 H 634.616 -2.56174 2.28538 0
M  V30 6671 N 637.061 -0.65484 -1.43351 0
M  V30 6672 C 637.991 0.0221809 -2.33489 0
M  V30 6673 C 638.972 0.810272 -1.49561 0
M  V30 6674 O 640.157 0.771426 -1.78221 0
M  V30 6675 C 637.287 0.988117 -3.32947 0
M  V30 6676 C 636.241 0.310026 -4.26876 0
M  V30 6677 C 635.567 1.38752 -5.16384 0
M  V30 6678 C 636.867 -0.798589 -5.16159 0
M  V30 6679 H 638.561 -0.730571 -2.9035 0
M  V30 6680 H 636.107 -0.352773 -1.39612 0
M  V30 6681 H 638.06 1.47067 -3.94904 0
M  V30 6682 H 636.784 1.77205 -2.74346 0
M  V30 6683 H 635.443 -0.152097 -3.66284 0
M  V30 6684 H 635.091 2.16293 -4.54121 0
M  V30 6685 H 634.791 0.939051 -5.80048 0
M  V30 6686 H 636.315 1.87141 -5.81215 0
M  V30 6687 H 637.729 -0.398126 -5.71916 0
M  V30 6688 H 636.126 -1.17163 -5.88552 0
M  V30 6689 H 637.196 -1.65588 -4.55751 0
M  V30 6690 N 638.539 1.52521 -0.396863 0
M  V30 6691 C 639.787 2.01274 0.182536 0
M  V30 6692 C 640.108 1.28485 1.46685 0
M  V30 6693 O 639.378 0.407134 1.91623 0
M  V30 6694 H 637.958 0.743671 0.0704442 0
M  V30 6695 H 640.62 1.87547 -0.530289 0
M  V30 6696 H 639.716 3.09687 0.387385 0
M  V30 6697 N 640.017 0.126909 1.57088 0
M  V30 6698 C 640.964 -0.82036 2.15728 0
M  V30 6699 C 641.934 -1.25811 1.08447 0
M  V30 6700 O 643.119 -1.33422 1.36393 0
M  V30 6701 C 640.259 -2.06199 2.76724 0
M  V30 6702 C 639.372 -1.67188 3.98337 0
M  V30 6703 C 638.507 -2.86378 4.47393 0
M  V30 6704 C 637.546 -2.43644 5.61519 0
M  V30 6705 N 636.683 -3.55775 6.05284 0
M  V30 6706 H 641.523 -0.313472 2.96347 0
M  V30 6707 H 639.06 -0.14303 1.46403 0
M  V30 6708 H 641.018 -2.78959 3.10222 0
M  V30 6709 H 639.648 -2.54333 1.98782 0
M  V30 6710 H 638.7 -0.842714 3.70948 0
M  V30 6711 H 640.012 -1.31789 4.81075 0
M  V30 6712 H 639.166 -3.67353 4.82842 0
M  V30 6713 H 637.905 -3.25009 3.63621 0
M  V30 6714 H 636.91 -1.61104 5.25667 0
M  V30 6715 H 638.135 -2.06122 6.47063 0
M  V30 6716 H 636.081 -3.94065 5.24451 0
M  V30 6717 H 635.998 -3.24325 6.82898 0
M  V30 6718 H 637.266 -4.37166 6.45373 0
M  V30 6719 N 641.495 -1.56914 -0.146875 0
M  V30 6720 C 642.744 -1.82546 -0.857898 0
M  V30 6721 C 643.057 -0.708169 -1.8233 0
M  V30 6722 O 644.263 -0.850093 -2.57848 0
M  V30 6723 C 642.719 -3.23548 -1.57623 0
M  V30 6724 C 642.327 -4.43212 -0.653224 0
M  V30 6725 C 644.071 -3.58453 -2.27402 0
M  V30 6726 C 641.978 -5.75237 -1.37318 0
M  V30 6727 H 640.908 -0.680786 -0.32411 0
M  V30 6728 H 643.559 -1.83166 -0.110639 0
M  V30 6729 H 641.941 -3.17315 -2.36912 0
M  V30 6730 H 643.115 -4.60682 0.104452 0
M  V30 6731 H 641.43 -4.16351 -0.0638336 0
M  V30 6732 H 644.027 -4.54349 -2.81907 0
M  V30 6733 H 644.37 -2.84516 -3.03901 0
M  V30 6734 H 644.903 -3.66347 -1.55032 0
M  V30 6735 H 641.642 -6.52269 -0.650041 0
M  V30 6736 H 641.162 -5.61703 -2.10357 0
M  V30 6737 H 642.841 -6.18039 -1.91406 0
M  V30 6738 N 642.974 0.416227 -1.52004 0
M  V30 6739 C 643.921 1.50666 -1.74838 0
M  V30 6740 C 644.891 1.55245 -0.590599 0
M  V30 6741 O 646.076 1.71928 -0.827374 0
M  V30 6742 C 643.216 2.88185 -1.89851 0
M  V30 6743 C 642.329 2.92971 -3.17478 0
M  V30 6744 C 641.464 4.21745 -3.22962 0
M  V30 6745 C 640.503 4.20478 -4.4482 0
M  V30 6746 N 639.64 5.40811 -4.47736 0
M  V30 6747 H 644.48 1.30498 -2.67907 0
M  V30 6748 H 642.017 0.633568 -1.32757 0
M  V30 6749 H 643.975 3.68007 -1.96537 0
M  V30 6750 H 642.605 3.06865 -1.00169 0
M  V30 6751 H 641.657 2.05684 -3.19997 0
M  V30 6752 H 642.969 2.87899 -4.07328 0
M  V30 6753 H 642.123 5.09954 -3.28682 0
M  V30 6754 H 640.862 4.29503 -2.31038 0
M  V30 6755 H 639.867 3.30659 -4.39254 0
M  V30 6756 H 641.092 4.14366 -5.38031 0
M  V30 6757 H 639.038 5.4925 -3.58692 0
M  V30 6758 H 638.955 5.37705 -5.31422 0
M  V30 6759 H 640.223 6.30993 -4.57676 0
M  V30 6760 N 644.452 1.42507 0.673017 0
M  V30 6761 C 645.677 1.4668 1.46627 0
M  V30 6762 C 646.102 0.080066 1.8793 0
M  V30 6763 O 645.46 -0.921879 1.56112 0
M  V30 6764 C 645.508 2.40091 2.69051 0
M  V30 6765 O 644.612 1.8735 3.67387 0
M  V30 6766 H 643.953 0.496908 0.44043 0
M  V30 6767 H 646.483 1.87215 0.825334 0
M  V30 6768 H 646.493 2.56731 3.17101 0
M  V30 6769 H 645.168 3.4084 2.3833 0
M  V30 6770 H 643.745 1.80274 3.26429 0
M  V30 6771 N 645.93 -0.909495 1.28709 0
M  V30 6772 C 646.863 -2.01388 1.07323 0
M  V30 6773 C 647.841 -1.62596 -0.0119757 0
M  V30 6774 O 649.025 -1.88003 0.136796 0
M  V30 6775 C 646.152 -3.32755 0.631797 0
M  V30 6776 C 645.198 -3.90532 1.71428 0
M  V30 6777 S 646.031 -4.20853 3.31124 0
M  V30 6778 C 647.187 -5.55276 2.88825 0
M  V30 6779 H 647.42 -2.19219 2.00824 0
M  V30 6780 H 644.953 -1.05489 1.12745 0
M  V30 6781 H 646.911 -4.08702 0.38381 0
M  V30 6782 H 645.572 -3.12818 -0.283451 0
M  V30 6783 H 644.765 -4.85385 1.35712 0
M  V30 6784 H 644.367 -3.21237 1.91528 0
M  V30 6785 H 646.659 -6.35341 2.3526 0
M  V30 6786 H 647.602 -5.95907 3.82492 0
M  V30 6787 H 648.01 -5.16666 2.27412 0
M  V30 6788 N 647.408 -1.11026 -1.11852 0
M  V30 6789 C 648.636 -0.878818 -1.87308 0
M  V30 6790 C 649.051 0.57111 -1.79955 0
M  V30 6791 O 648.408 1.39409 -1.17777 0
M  V30 6792 C 648.459 -1.3264 -3.36287 0
M  V30 6793 O 648.18 -2.71948 -3.43476 0
M  V30 6794 C 649.681 -1.12974 -4.28663 0
M  V30 6795 H 646.901 -0.315015 -0.592458 0
M  V30 6796 H 649.445 -1.47649 -1.41492 0
M  V30 6797 H 647.6 -0.772269 -3.79625 0
M  V30 6798 H 648.014 -2.91241 -4.3621 0
M  V30 6799 H 649.488 -1.49198 -5.31454 0
M  V30 6800 H 649.965 -0.0689127 -4.39146 0
M  V30 6801 H 650.571 -1.67064 -3.91113 0
M  V30 6802 N 648.886 1.2938 -0.899927 0
M  V30 6803 C 649.833 2.27713 -0.376243 0
M  V30 6804 C 650.803 1.57016 0.541774 0
M  V30 6805 O 651.988 1.84997 0.466966 0
M  V30 6806 C 649.128 3.42889 0.39 0
M  V30 6807 C 648.241 4.28369 -0.558938 0
M  V30 6808 C 647.376 5.30726 0.224379 0
M  V30 6809 C 646.415 6.07862 -0.719068 0
M  V30 6810 N 645.552 7.02094 0.0298569 0
M  V30 6811 H 650.392 2.71888 -1.21988 0
M  V30 6812 H 647.929 1.33724 -0.612879 0
M  V30 6813 H 649.887 4.08443 0.850314 0
M  V30 6814 H 648.517 2.99743 1.19809 0
M  V30 6815 H 647.569 3.62986 -1.13777 0
M  V30 6816 H 648.881 4.82068 -1.2811 0
M  V30 6817 H 648.035 6.02098 0.745881 0
M  V30 6818 H 646.774 4.77759 0.979674 0
M  V30 6819 H 645.779 5.35353 -1.25207 0
M  V30 6820 H 647.004 6.62917 -1.4737 0
M  V30 6821 H 644.95 6.51496 0.767415 0
M  V30 6822 H 644.867 7.5335 -0.632391 0
M  V30 6823 H 646.135 7.77685 0.531615 0
M  V30 6824 N 650.364 0.662433 1.43002 0
M  V30 6825 C 651.274 -0.0239199 2.34588 0
M  V30 6826 C 652.29 -0.802255 1.54402 0
M  V30 6827 O 653.466 -0.747401 1.87018 0
M  V30 6828 C 650.531 -0.972098 3.32793 0
M  V30 6829 C 649.592 -0.189673 4.28881 0
M  V30 6830 C 648.825 -1.09269 5.22395 0
M  V30 6831 O 649.048 -2.33209 5.20547 0
M  V30 6832 O 647.982 -0.560136 5.99288 0
M  V30 6833 H 651.808 0.730171 2.94792 0
M  V30 6834 H 649.393 0.422635 1.43297 0
M  V30 6835 H 651.275 -1.51676 3.93157 0
M  V30 6836 H 649.95 -1.70626 2.75079 0
M  V30 6837 H 648.857 0.398794 3.71968 0
M  V30 6838 H 650.19 0.50511 4.89601 0
M  V30 6839 N 651.842 -1.52309 0.404946 0
M  V30 6840 C 652.789 -2.26898 -0.422597 0
M  V30 6841 C 653.759 -1.2914 -1.04461 0
M  V30 6842 O 654.944 -1.57996 -1.06967 0
M  V30 6843 C 652.084 -3.09053 -1.53559 0
M  V30 6844 C 651.197 -4.21762 -0.934908 0
M  V30 6845 C 650.332 -4.91283 -2.02025 0
M  V30 6846 C 649.371 -5.95962 -1.39628 0
M  V30 6847 N 648.508 -6.59017 -2.42159 0
M  V30 6848 H 653.348 -2.97188 0.219903 0
M  V30 6849 H 650.885 -1.46607 0.120282 0
M  V30 6850 H 652.843 -3.54987 -2.19181 0
M  V30 6851 H 651.473 -2.40942 -2.14818 0
M  V30 6852 H 650.525 -3.80029 -0.167854 0
M  V30 6853 H 651.837 -4.96864 -0.439073 0
M  V30 6854 H 650.991 -5.40601 -2.75383 0
M  V30 6855 H 649.73 -4.15741 -2.54973 0
M  V30 6856 H 648.735 -5.45968 -0.648023 0
M  V30 6857 H 649.96 -6.73445 -0.874553 0
M  V30 6858 H 647.906 -5.86306 -2.94247 0
M  V30 6859 H 647.823 -7.2978 -1.97376 0
M  V30 6860 H 649.091 -7.12974 -3.15099 0
M  V30 6861 N 653.32 -0.135238 -1.57019 0
M  V30 6862 C 654.283 0.794707 -2.14981 0
M  V30 6863 C 655.283 1.18342 -1.08866 0
M  V30 6864 O 656.473 1.10627 -1.34563 0
M  V30 6865 C 653.605 2.07685 -2.70333 0
M  V30 6866 H 654.798 0.290696 -2.98488 0
M  V30 6867 H 652.351 0.114128 -1.55883 0
M  V30 6868 H 653.086 2.6248 -1.9046 0
M  V30 6869 H 652.871 1.80745 -3.47957 0
M  V30 6870 H 654.361 2.74127 -3.1503 0
M  V30 6871 N 654.798 1.5699 0.138552 0
M  V30 6872 C 656.075 1.74741 0.87891 0
M  V30 6873 C 656.455 0.705522 1.98961 0
M  V30 6874 O 655.803 -0.274066 2.2685 0
M  V30 6875 C 656.013 3.1909 1.4136 0
M  V30 6876 C 657.361 3.81023 1.87368 0
M  V30 6877 O 658.385 3.22571 1.51084 0
M  V30 6878 O 657.244 4.83722 2.54312 0
M  V30 6879 H 654.338 0.714781 0.415953 0
M  V30 6880 H 656.884 1.69248 0.123817 0
M  V30 6881 H 655.656 3.86424 0.61579 0
M  V30 6882 H 655.279 3.29043 2.23196 0
M  V30 6883 N 656.276 -0.40816 1.52223 0
M  V30 6884 C 657.525 -1.15212 1.65557 0
M  V30 6885 C 657.838 -1.9163 0.392096 0
M  V30 6886 O 659.044 -2.68458 0.405256 0
M  V30 6887 C 657.5 -2.09691 2.92502 0
M  V30 6888 C 657.108 -1.38785 4.25961 0
M  V30 6889 C 658.852 -2.8434 3.152 0
M  V30 6890 C 656.759 -2.31919 5.44029 0
M  V30 6891 H 655.689 -0.433776 0.616729 0
M  V30 6892 H 658.34 -0.4165 1.78711 0
M  V30 6893 H 656.722 -2.8681 2.7305 0
M  V30 6894 H 657.896 -0.670248 4.55899 0
M  V30 6895 H 656.211 -0.761741 4.09373 0
M  V30 6896 H 658.808 -3.54166 4.00587 0
M  V30 6897 H 659.151 -3.47344 2.29473 0
M  V30 6898 H 659.684 -2.14321 3.35129 0
M  V30 6899 H 656.423 -1.7356 6.32105 0
M  V30 6900 H 655.943 -3.0165 5.18428 0
M  V30 6901 H 657.622 -2.92424 5.77146 0
M  V30 6902 N 657.755 -1.42862 -0.66545 0
M  V30 6903 C 658.685 -1.49867 -1.79059 0
M  V30 6904 C 659.666 -0.354394 -1.66367 0
M  V30 6905 O 660.851 -0.569969 -1.85647 0
M  V30 6906 C 657.981 -1.40943 -3.17415 0
M  V30 6907 C 656.935 -2.53495 -3.44854 0
M  V30 6908 C 656.261 -2.29626 -4.82883 0
M  V30 6909 C 657.561 -3.95781 -3.40815 0
M  V30 6910 H 659.255 -2.44037 -1.73453 0
M  V30 6911 H 656.801 -1.17456 -0.833071 0
M  V30 6912 H 658.754 -1.4445 -3.95869 0
M  V30 6913 H 657.478 -0.432716 -3.23721 0
M  V30 6914 H 656.137 -2.4932 -2.68766 0
M  V30 6915 H 655.785 -1.30226 -4.8585 0
M  V30 6916 H 655.485 -3.05065 -5.02204 0
M  V30 6917 H 657.009 -2.34897 -5.63609 0
M  V30 6918 H 658.423 -4.01508 -4.09224 0
M  V30 6919 H 656.82 -4.71148 -3.71672 0
M  V30 6920 H 657.89 -4.21786 -2.39216 0
M  V30 6921 N 659.233 0.902656 -1.29189 0
M  V30 6922 C 660.163 2.02294 -1.16616 0
M  V30 6923 C 661.144 1.6999 -0.0611175 0
M  V30 6924 O 662.329 1.9271 -0.240072 0
M  V30 6925 C 659.459 3.37018 -0.83882 0
M  V30 6926 C 658.413 3.83522 -1.89986 0
M  V30 6927 C 657.739 5.15337 -1.42589 0
M  V30 6928 C 659.039 4.04169 -3.30824 0
M  V30 6929 H 660.733 2.13071 -2.10336 0
M  V30 6930 H 658.279 1.02378 -1.01266 0
M  V30 6931 H 660.232 4.14895 -0.737584 0
M  V30 6932 H 658.956 3.26325 0.134071 0
M  V30 6933 H 657.615 3.07859 -1.99043 0
M  V30 6934 H 657.263 5.01056 -0.441759 0
M  V30 6935 H 656.963 5.47423 -2.13547 0
M  V30 6936 H 658.487 5.95758 -1.3381 0
M  V30 6937 H 659.901 4.72537 -3.24626 0
M  V30 6938 H 658.298 4.47604 -3.99713 0
M  V30 6939 H 659.368 3.08604 -3.74021 0
M  V30 6940 N 660.711 1.11618 1.11262 0
M  V30 6941 C 661.641 0.79846 2.19424 0
M  V30 6942 C 662.622 -0.234003 1.68483 0
M  V30 6943 O 663.807 -0.0970704 1.93957 0
M  V30 6944 C 660.937 0.242892 3.4645 0
M  V30 6945 C 659.891 1.20744 4.10615 0
M  V30 6946 C 659.217 0.512494 5.32238 0
M  V30 6947 C 660.517 2.55884 4.55325 0
M  V30 6948 H 662.211 1.70286 2.46258 0
M  V30 6949 H 659.757 0.820195 1.18359 0
M  V30 6950 H 661.71 0.00840447 4.21399 0
M  V30 6951 H 660.434 -0.696811 3.1908 0
M  V30 6952 H 659.093 1.42759 3.37662 0
M  V30 6953 H 658.741 -0.432075 5.01141 0
M  V30 6954 H 658.441 1.15583 5.7612 0
M  V30 6955 H 659.965 0.286842 6.09926 0
M  V30 6956 H 661.379 2.37946 5.21588 0
M  V30 6957 H 659.776 3.16216 5.10027 0
M  V30 6958 H 660.846 3.14968 3.68678 0
M  V30 6959 N 662.189 -1.289 0.906776 0
M  V30 6960 C 663.605 -1.47733 0.603902 0
M  V30 6961 C 663.805 -1.82568 -0.852702 0
M  V30 6962 O 662.861 -1.92642 -1.63234 0
M  V30 6963 C 664.174 -2.58522 1.53581 0
M  V30 6964 C 665.722 -2.72394 1.54177 0
M  V30 6965 C 666.197 -3.86318 2.46013 0
M  V30 6966 N 667.688 -3.93661 2.441 0
M  V30 6967 C 668.423 -4.81177 3.11859 0
M  V30 6968 N 667.919 -5.73333 3.88923 0
M  V30 6969 N 669.712 -4.74728 3.00981 0
M  V30 6970 H 661.863 -1.04567 1.84877 0
M  V30 6971 H 664.126 -0.520118 0.792579 0
M  V30 6972 H 663.832 -2.39667 2.57396 0
M  V30 6973 H 663.706 -3.55475 1.26165 0
M  V30 6974 H 666.093 -2.90641 0.511034 0
M  V30 6975 H 666.174 -1.75993 1.85634 0
M  V30 6976 H 665.818 -3.68826 3.49185 0
M  V30 6977 H 665.748 -4.82102 2.11862 0
M  V30 6978 H 668.239 -3.27751 1.88115 0
M  V30 6979 H 668.552 -6.36923 4.37663 0
M  V30 6980 H 666.897 -5.73196 3.93029 0
M  V30 6981 H 670.088 -4.01722 2.40286 0
M  V30 6982 H 670.261 -5.42719 3.54062 0
M  V30 6983 N 663.667 -0.670007 -1.42649 0
M  V30 6984 C 664.63 0.00204659 -2.292 0
M  V30 6985 C 665.63 0.733817 -1.4308 0
M  V30 6986 O 666.82 0.57254 -1.64522 0
M  V30 6987 C 663.952 1.01359 -3.25483 0
M  V30 6988 H 665.145 -0.759696 -2.90118 0
M  V30 6989 H 662.698 -0.432105 -1.50208 0
M  V30 6990 H 663.433 1.80399 -2.69493 0
M  V30 6991 H 663.218 0.492323 -3.88997 0
M  V30 6992 H 664.708 1.4824 -3.90403 0
M  V30 6993 N 665.145 1.52092 -0.413018 0
M  V30 6994 C 666.393 2.01456 0.161178 0
M  V30 6995 C 666.714 1.30034 1.45314 0
M  V30 6996 O 665.984 0.427435 1.9118 0
M  V30 6997 H 664.564 0.744376 0.0625526 0
M  V30 6998 H 667.226 1.86974 -0.550151 0
M  V30 6999 H 666.322 3.1008 0.354517 0
M  V30 7000 N 666.623 0.143563 1.56945 0
M  V30 7001 C 667.553 -0.7936 2.196 0
M  V30 7002 C 668.534 -1.25955 1.14321 0
M  V30 7003 O 669.719 -1.31773 1.42651 0
M  V30 7004 C 666.849 -2.03424 2.81489 0
M  V30 7005 C 665.803 -1.70519 3.92565 0
M  V30 7006 C 665.129 -3.01817 4.41373 0
M  V30 7007 C 666.429 -0.95449 5.13504 0
M  V30 7008 H 668.123 -0.271423 2.98167 0
M  V30 7009 H 665.669 -0.12911 1.4342 0
M  V30 7010 H 667.622 -2.69463 3.23987 0
M  V30 7011 H 666.346 -2.58008 2.00248 0
M  V30 7012 H 665.005 -1.06859 3.5068 0
M  V30 7013 H 664.653 -3.54386 3.56959 0
M  V30 7014 H 664.353 -2.80565 5.16292 0
M  V30 7015 H 665.877 -3.68934 4.86539 0
M  V30 7016 H 667.291 -1.5169 5.52868 0
M  V30 7017 H 665.688 -0.842035 5.94163 0
M  V30 7018 H 666.758 0.0544033 4.84869 0
M  V30 7019 N 668.101 -1.57061 -0.130224 0
M  V30 7020 C 669.512 -1.73539 -0.68856 0
M  V30 7021 C 669.863 -0.760554 -1.80859 0
M  V30 7022 O 668.988 0.0690796 -2.1629 0
M  V30 7023 C 669.583 -3.14666 -1.25581 0
M  V30 7024 C 668.142 -3.32689 -1.76055 0
M  V30 7025 C 667.289 -2.69436 -0.655712 0
M  V30 7026 H 670.24 -1.58412 0.0956002 0
M  V30 7027 H 670.261 -3.15595 -2.12556 0
M  V30 7028 H 669.773 -3.85593 -0.440412 0
M  V30 7029 H 667.874 -2.66786 -2.60108 0
M  V30 7030 H 667.987 -4.4077 -1.87772 0
M  V30 7031 H 666.351 -2.30362 -1.08654 0
M  V30 7032 H 667.134 -3.42979 0.14852 0
M  V30 7033 N 669.579 0.400081 -1.52437 0
M  V30 7034 C 670.804 1.17221 -1.71096 0
M  V30 7035 C 671.229 1.83269 -0.423565 0
M  V30 7036 O 670.587 1.70378 0.619751 0
M  V30 7037 C 670.635 2.20425 -2.85386 0
M  V30 7038 O 669.739 3.26769 -2.51586 0
M  V30 7039 H 669.08 0.341766 -0.569291 0
M  V30 7040 H 671.61 0.467772 -1.99181 0
M  V30 7041 H 671.62 2.64605 -3.10561 0
M  V30 7042 H 670.295 1.71737 -3.78786 0
M  V30 7043 H 668.872 2.87804 -2.37114 0
M  V30 7044 N 671.057 1.43213 0.657864 0
M  V30 7045 C 672.007 1.44459 1.76396 0
M  V30 7046 C 672.991 0.313641 1.57814 0
M  V30 7047 O 674.183 0.557094 1.68004 0
M  V30 7048 C 671.312 1.36586 3.14959 0
M  V30 7049 C 670.398 2.54692 3.39106 0
M  V30 7050 N 670.789 3.80059 3.33749 0
M  V30 7051 C 669.087 2.49316 3.69807 0
M  V30 7052 C 669.788 4.58606 3.57849 0
M  V30 7053 N 668.764 3.89267 3.79437 0
M  V30 7054 H 672.566 2.39265 1.70673 0
M  V30 7055 H 670.08 1.378 0.859357 0
M  V30 7056 H 672.077 1.35561 3.94245 0
M  V30 7057 H 670.737 0.427956 3.21867 0
M  V30 7058 H 671.748 4.12414 3.13266 0
M  V30 7059 H 668.425 1.6419 3.83859 0
M  V30 7060 H 669.815 5.67619 3.59525 0
M  V30 7061 N 672.536 -0.895792 1.29666 0
M  V30 7062 C 673.783 -1.64664 1.17864 0
M  V30 7063 C 674.111 -1.92631 -0.26902 0
M  V30 7064 O 673.366 -1.53787 -1.21029 0
M  V30 7065 C 673.665 -3.00075 1.94139 0
M  V30 7066 C 673.331 -2.91702 3.43833 0
M  V30 7067 C 671.993 -2.89126 3.84656 0
M  V30 7068 C 674.345 -2.80622 4.39205 0
M  V30 7069 C 671.673 -2.73293 5.1916 0
M  V30 7070 C 674.025 -2.66329 5.73805 0
M  V30 7071 C 672.689 -2.62121 6.1388 0
M  V30 7072 H 671.959 -0.602549 0.431295 0
M  V30 7073 H 674.606 -1.04234 1.60648 0
M  V30 7074 H 672.911 -3.64394 1.43958 0
M  V30 7075 H 674.608 -3.57111 1.82408 0
M  V30 7076 H 671.198 -2.94511 3.11386 0
M  V30 7077 H 675.382 -2.81686 4.08615 0
M  V30 7078 H 670.638 -2.68443 5.49316 0
M  V30 7079 H 674.812 -2.56727 6.47352 0
M  V30 7080 H 672.439 -2.49611 7.18052 0
M  V30 7081 N 674.014 -1.12206 -1.10668 0
M  V30 7082 C 674.964 -0.75669 -2.15077 0
M  V30 7083 C 675.948 0.243154 -1.59052 0
M  V30 7084 O 677.14 0.0490268 -1.76932 0
M  V30 7085 C 674.269 -0.210303 -3.42655 0
M  V30 7086 C 673.355 -1.23829 -4.05619 0
M  V30 7087 N 673.746 -2.43513 -4.43323 0
M  V30 7088 C 672.044 -1.08309 -4.32649 0
M  V30 7089 C 672.745 -3.09138 -4.92756 0
M  V30 7090 N 671.721 -2.36593 -4.89413 0
M  V30 7091 H 675.523 -1.66747 -2.42018 0
M  V30 7092 H 673.037 -1.00248 -1.27765 0
M  V30 7093 H 675.034 0.0696287 -4.16842 0
M  V30 7094 H 673.694 0.694967 -3.17176 0
M  V30 7095 H 674.705 -2.80912 -4.35097 0
M  V30 7096 H 671.382 -0.234919 -4.16839 0
M  V30 7097 H 672.772 -4.11049 -5.31496 0
M  V30 7098 N 675.492 1.28418 -0.913599 0
M  V30 7099 C 676.422 2.29713 -0.418847 0
M  V30 7100 C 677.403 1.62165 0.513469 0
M  V30 7101 O 678.588 1.89576 0.421235 0
M  V30 7102 C 675.718 3.45612 0.342042 0
M  V30 7103 C 674.672 4.25056 -0.501123 0
M  V30 7104 C 673.998 5.3329 0.388097 0
M  V30 7105 C 675.298 4.91814 -1.75831 0
M  V30 7106 H 676.992 2.71346 -1.26538 0
M  V30 7107 H 674.538 1.30446 -0.609903 0
M  V30 7108 H 676.491 4.15562 0.699 0
M  V30 7109 H 675.215 3.02858 1.22248 0
M  V30 7110 H 673.874 3.56833 -0.840598 0
M  V30 7111 H 673.522 4.8678 1.26707 0
M  V30 7112 H 673.222 5.87347 -0.172459 0
M  V30 7113 H 674.746 6.06088 0.74094 0
M  V30 7114 H 676.16 5.54126 -1.47026 0
M  V30 7115 H 674.557 5.55866 -2.26126 0
M  V30 7116 H 675.627 4.16313 -2.4862 0
M  V30 7117 N 676.97 0.677563 1.42291 0
M  V30 7118 C 677.902 -0.0380218 2.29168 0
M  V30 7119 C 678.915 -0.762714 1.43828 0
M  V30 7120 O 680.104 -0.616413 1.67519 0
M  V30 7121 C 677.204 -1.07761 3.21311 0
M  V30 7122 C 676.377 -0.42618 4.35319 0
M  V30 7123 C 675.436 -1.36592 5.08162 0
M  V30 7124 O 674.462 -0.865174 5.62586 0
M  V30 7125 N 675.664 -2.69909 5.13935 0
M  V30 7126 H 678.429 0.707766 2.91223 0
M  V30 7127 H 675.99 0.52219 1.53247 0
M  V30 7128 H 677.982 -1.70761 3.6691 0
M  V30 7129 H 676.552 -1.72511 2.60689 0
M  V30 7130 H 675.772 0.383385 3.92331 0
M  V30 7131 H 677.06 0.0275277 5.08793 0
M  V30 7132 H 676.458 -3.13129 4.71134 0
M  V30 7133 H 675.015 -3.2815 5.6317 0
M  V30 7134 N 678.448 -1.51871 0.421078 0
M  V30 7135 C 679.378 -2.30231 -0.389363 0
M  V30 7136 C 680.359 -1.34946 -1.03555 0
M  V30 7137 O 681.544 -1.63859 -1.04229 0
M  V30 7138 C 678.674 -3.13247 -1.49979 0
M  V30 7139 C 677.628 -4.16677 -0.977966 0
M  V30 7140 C 676.954 -4.88112 -2.1829 0
M  V30 7141 C 678.254 -5.22295 -0.0236775 0
M  V30 7142 H 679.948 -2.98229 0.264524 0
M  V30 7143 H 677.494 -1.43424 0.12866 0
M  V30 7144 H 679.447 -3.66838 -2.07383 0
M  V30 7145 H 678.171 -2.4304 -2.18173 0
M  V30 7146 H 676.83 -3.64114 -0.426245 0
M  V30 7147 H 676.478 -4.14423 -2.85066 0
M  V30 7148 H 676.178 -5.58041 -1.84021 0
M  V30 7149 H 677.702 -5.44521 -2.76278 0
M  V30 7150 H 679.116 -5.71055 -0.506899 0
M  V30 7151 H 677.513 -5.99656 0.230782 0
M  V30 7152 H 678.583 -4.76131 0.917999 0
M  V30 7153 N 679.926 -0.151884 -1.56866 0
M  V30 7154 C 681.151 0.508044 -2.01081 0
M  V30 7155 C 681.576 1.57306 -1.03134 0
M  V30 7156 O 680.934 1.81298 -0.0078309 0
M  V30 7157 C 680.982 1.08106 -3.44014 0
M  V30 7158 O 680.086 2.19577 -3.49084 0
M  V30 7159 H 679.427 0.123757 -0.652365 0
M  V30 7160 H 681.957 -0.250055 -2.03066 0
M  V30 7161 H 681.967 1.40851 -3.82916 0
M  V30 7162 H 680.642 0.301168 -4.14808 0
M  V30 7163 H 679.219 1.88023 -3.22027 0
M  V30 7164 N 681.404 1.57128 0.121893 0
M  V30 7165 C 682.314 2.03425 1.16857 0
M  V30 7166 C 683.33 0.954108 1.45509 0
M  V30 7167 O 684.506 1.26541 1.56682 0
M  V30 7168 C 681.571 2.42685 2.47599 0
M  V30 7169 C 680.632 3.64767 2.2637 0
M  V30 7170 C 679.865 4.02145 3.50878 0
M  V30 7171 O 680.088 3.39897 4.58068 0
M  V30 7172 O 679.022 4.95262 3.42051 0
M  V30 7173 H 682.848 2.92825 0.80544 0
M  V30 7174 H 680.433 1.45654 0.332477 0
M  V30 7175 H 682.315 2.68684 3.24634 0
M  V30 7176 H 680.99 1.56432 2.83392 0
M  V30 7177 H 679.897 3.43922 1.47203 0
M  V30 7178 H 681.23 4.51716 1.95482 0
M  V30 7179 N 682.882 -0.391992 1.52647 0
M  V30 7180 C 684.131 -1.13449 1.6677 0
M  V30 7181 C 684.444 -1.91203 0.412399 0
M  V30 7182 O 685.65 -2.68013 0.433707 0
M  V30 7183 C 684.106 -2.06577 2.9471 0
M  V30 7184 C 683.714 -1.3426 4.27409 0
M  V30 7185 C 685.458 -2.80981 3.18198 0
M  V30 7186 C 683.365 -2.26136 5.46458 0
M  V30 7187 H 682.295 -0.427211 0.621295 0
M  V30 7188 H 684.946 -0.397522 1.79142 0
M  V30 7189 H 683.328 -2.83898 2.76076 0
M  V30 7190 H 684.502 -0.621856 4.56585 0
M  V30 7191 H 682.817 -0.718279 4.10158 0
M  V30 7192 H 685.414 -3.49898 4.04321 0
M  V30 7193 H 685.757 -3.44891 2.33144 0
M  V30 7194 H 686.29 -2.10754 3.37383 0
M  V30 7195 H 683.029 -1.66846 6.33911 0
M  V30 7196 H 682.549 -2.96134 5.21598 0
M  V30 7197 H 684.228 -2.86286 5.80215 0
M  V30 7198 N 684.36 -1.4356 -0.65026 0
M  V30 7199 C 685.27 -1.514 -1.79207 0
M  V30 7200 C 686.286 -0.400895 -1.69319 0
M  V30 7201 O 687.462 -0.655458 -1.90436 0
M  V30 7202 C 684.527 -1.43737 -3.155 0
M  V30 7203 C 683.588 -2.65743 -3.37163 0
M  V30 7204 C 682.821 -2.58436 -4.66954 0
M  V30 7205 O 683.044 -1.63374 -5.46503 0
M  V30 7206 O 681.978 -3.48984 -4.90402 0
M  V30 7207 H 685.804 -2.47825 -1.75547 0
M  V30 7208 H 683.389 -1.25594 -0.809111 0
M  V30 7209 H 685.271 -1.41916 -3.96784 0
M  V30 7210 H 683.946 -0.504488 -3.19745 0
M  V30 7211 H 682.853 -2.73136 -2.55632 0
M  V30 7212 H 684.186 -3.58014 -3.37768 0
M  V30 7213 N 685.838 0.888903 -1.30139 0
M  V30 7214 C 687.085 1.64037 -1.18736 0
M  V30 7215 C 687.413 1.92771 0.258801 0
M  V30 7216 O 686.668 1.54427 1.20212 0
M  V30 7217 C 686.967 2.99041 -1.95728 0
M  V30 7218 C 686.633 2.89874 -3.45375 0
M  V30 7219 C 685.295 2.87082 -3.86183 0
M  V30 7220 C 687.647 2.78289 -4.40687 0
M  V30 7221 C 684.975 2.70536 -5.20603 0
M  V30 7222 C 687.327 2.63282 -5.75209 0
M  V30 7223 C 685.991 2.58861 -6.15262 0
M  V30 7224 H 685.261 0.600253 -0.434485 0
M  V30 7225 H 687.908 1.0338 -1.61198 0
M  V30 7226 H 686.213 3.63626 -1.45888 0
M  V30 7227 H 687.91 3.56139 -1.843 0
M  V30 7228 H 684.5 2.92856 -3.12943 0
M  V30 7229 H 688.684 2.79516 -4.10103 0
M  V30 7230 H 683.94 2.65526 -5.50732 0
M  V30 7231 H 688.114 2.5329 -6.48704 0
M  V30 7232 H 685.741 2.45799 -7.19366 0
M  V30 7233 N 687.317 1.12792 1.10072 0
M  V30 7234 C 688.267 0.768086 2.14673 0
M  V30 7235 C 689.251 -0.234716 1.59179 0
M  V30 7236 O 690.443 -0.039643 1.76956 0
M  V30 7237 C 687.572 0.228472 3.42539 0
M  V30 7238 C 686.658 1.25979 4.04957 0
M  V30 7239 N 687.049 2.4586 4.42025 0
M  V30 7240 C 685.347 1.10602 4.32069 0
M  V30 7241 C 686.048 3.11747 4.9111 0
M  V30 7242 N 685.024 2.39185 4.88151 0
M  V30 7243 H 688.826 1.68029 2.4113 0
M  V30 7244 H 686.34 1.00925 1.27232 0
M  V30 7245 H 688.337 -0.0475216 4.16873 0
M  V30 7246 H 686.997 -0.678136 3.1754 0
M  V30 7247 H 688.008 2.83215 4.33601 0
M  V30 7248 H 684.685 0.257021 4.16708 0
M  V30 7249 H 686.075 4.13862 5.29309 0
M  V30 7250 N 688.795 -1.27931 0.920396 0
M  V30 7251 C 689.705 -2.30824 0.419212 0
M  V30 7252 C 690.721 -1.66767 -0.496461 0
M  V30 7253 O 691.897 -1.97763 -0.38104 0
M  V30 7254 C 688.962 -3.45158 -0.326601 0
M  V30 7255 C 688.023 -4.24754 0.623098 0
M  V30 7256 C 687.256 -5.33629 -0.0872172 0
M  V30 7257 O 687.479 -5.55204 -1.30784 0
M  V30 7258 O 686.413 -5.99091 0.580875 0
M  V30 7259 H 690.239 -2.75716 1.27337 0
M  V30 7260 H 687.824 -1.32747 0.685465 0
M  V30 7261 H 689.706 -4.14716 -0.747559 0
M  V30 7262 H 688.381 -3.02336 -1.15648 0
M  V30 7263 H 687.288 -3.57759 1.09359 0
M  V30 7264 H 688.621 -4.71272 1.41998 0
M  V30 7265 N 690.273 -0.685099 -1.4193 0
M  V30 7266 C 691.522 -0.208816 -2.00616 0
M  V30 7267 C 691.835 1.19506 -1.54847 0
M  V30 7268 O 693.041 1.76826 -2.06021 0
M  V30 7269 C 691.497 -0.322446 -3.58453 0
M  V30 7270 C 691.105 -1.73102 -4.13206 0
M  V30 7271 C 692.849 0.0945979 -4.24395 0
M  V30 7272 C 690.756 -1.79687 -5.63442 0
M  V30 7273 H 689.686 -0.0743092 -0.750329 0
M  V30 7274 H 692.337 -0.851778 -1.62533 0
M  V30 7275 H 690.719 0.388588 -3.94089 0
M  V30 7276 H 691.893 -2.46997 -3.8901 0
M  V30 7277 H 690.208 -2.09682 -3.59753 0
M  V30 7278 H 692.805 0.0656937 -5.3466 0
M  V30 7279 H 693.148 1.1316 -4.00625 0
M  V30 7280 H 693.681 -0.56579 -3.93756 0
M  V30 7281 H 690.42 -2.81404 -5.92024 0
M  V30 7282 H 689.94 -1.10162 -5.89597 0
M  V30 7283 H 691.619 -1.55498 -6.28036 0
M  V30 7284 N 691.751 1.51645 -0.429126 0
M  V30 7285 C 693 2.01203 0.141538 0
M  V30 7286 C 693.313 1.31828 1.44502 0
M  V30 7287 O 694.519 1.7231 2.09813 0
M  V30 7288 C 692.975 3.58624 0.302786 0
M  V30 7289 C 692.583 4.3693 -0.989775 0
M  V30 7290 C 694.327 4.16353 0.827661 0
M  V30 7291 C 692.234 5.86037 -0.794619 0
M  V30 7292 H 691.164 0.751867 0.05667 0
M  V30 7293 H 693.815 1.74822 -0.557633 0
M  V30 7294 H 692.197 3.81417 1.06476 0
M  V30 7295 H 693.371 4.25887 -1.75945 0
M  V30 7296 H 691.686 3.90614 -1.44256 0
M  V30 7297 H 694.283 5.25455 0.990026 0
M  V30 7298 H 694.626 3.74995 1.80787 0
M  V30 7299 H 695.159 3.97606 0.124213 0
M  V30 7300 H 691.898 6.31792 -1.74697 0
M  V30 7301 H 691.418 5.99765 -0.0645968 0
M  V30 7302 H 693.097 6.45471 -0.444591 0
M  V30 7303 N 693.229 0.160201 1.56784 0
M  V30 7304 C 694.477 -0.486625 1.96154 0
M  V30 7305 C 694.798 -1.64525 1.04673 0
M  V30 7306 O 694.068 -1.95586 0.110864 0
M  V30 7307 H 692.648 -0.182764 0.724297 0
M  V30 7308 H 695.31 0.238787 1.93432 0
M  V30 7309 H 694.406 -0.854025 3.00188 0
M  V30 7310 N 694.707 -1.5719 -0.113559 0
M  V30 7311 C 695.932 -1.89702 -0.838336 0
M  V30 7312 C 696.357 -0.752679 -1.72384 0
M  V30 7313 O 695.715 0.296575 -1.78858 0
M  V30 7314 C 695.763 -3.20989 -1.64312 0
M  V30 7315 O 694.867 -3.07278 -2.75053 0
M  V30 7316 H 694.208 -0.622339 -0.231496 0
M  V30 7317 H 696.738 -2.04382 -0.0943228 0
M  V30 7318 H 696.748 -3.53843 -2.03123 0
M  V30 7319 H 695.423 -4.03869 -0.993119 0
M  V30 7320 H 694 -2.85901 -2.39406 0
M  V30 7321 N 696.185 0.383891 -1.52853 0
M  V30 7322 C 697.433 1.12619 -1.67814 0
M  V30 7323 C 697.754 1.90354 -0.423141 0
M  V30 7324 O 697.024 1.87649 0.562554 0
M  V30 7325 H 695.604 0.418738 -0.618601 0
M  V30 7326 H 698.266 0.43495 -1.89985 0
M  V30 7327 H 697.362 1.82624 -2.5309 0
M  V30 7328 N 697.663 1.43903 0.642637 0
M  V30 7329 C 698.888 1.49758 1.43483 0
M  V30 7330 C 699.313 0.119911 1.87717 0
M  V30 7331 O 698.671 -0.888558 1.58033 0
M  V30 7332 C 698.719 2.45744 2.63898 0
M  V30 7333 O 697.823 1.95101 3.63331 0
M  V30 7334 H 697.164 0.506138 0.429791 0
M  V30 7335 H 699.694 1.88923 0.785438 0
M  V30 7336 H 699.704 2.63399 3.11584 0
M  V30 7337 H 698.379 3.45818 2.31046 0
M  V30 7338 H 696.956 1.87158 3.22531 0
M  V30 7339 N 699.141 -0.881989 1.30609 0
M  V30 7340 C 700.388 -1.63405 1.19604 0
M  V30 7341 C 700.716 -1.92905 -0.248574 0
M  V30 7342 O 699.971 -1.55062 -1.19391 0
M  V30 7343 C 700.27 -2.97999 1.97311 0
M  V30 7344 C 699.936 -2.88039 3.46907 0
M  V30 7345 C 698.598 -2.85029 3.877 0
M  V30 7346 C 700.95 -2.75948 4.42156 0
M  V30 7347 C 698.278 -2.67772 5.2203 0
M  V30 7348 C 700.63 -2.60228 5.76597 0
M  V30 7349 C 699.294 -2.55595 6.16626 0
M  V30 7350 H 698.564 -0.597941 0.437662 0
M  V30 7351 H 701.211 -1.02524 1.61744 0
M  V30 7352 H 699.516 -3.62847 1.47815 0
M  V30 7353 H 701.213 -3.55156 1.86186 0
M  V30 7354 H 697.803 -2.91192 3.14492 0
M  V30 7355 H 701.987 -2.77337 4.1158 0
M  V30 7356 H 697.243 -2.62601 5.52133 0
M  V30 7357 H 701.417 -2.49847 6.50038 0
M  V30 7358 H 699.044 -2.41981 7.20659 0
M  V30 7359 N 700.619 -1.13374 -1.09472 0
M  V30 7360 C 701.867 -0.893422 -1.8128 0
M  V30 7361 C 702.188 0.582029 -1.86111 0
M  V30 7362 O 701.458 1.42305 -1.34633 0
M  V30 7363 H 700.038 -0.327543 -0.67136 0
M  V30 7364 H 702.7 -1.43018 -1.32408 0
M  V30 7365 H 701.796 -1.28374 -2.84476 0
M  V30 7366 N 702.098 1.27442 -0.927168 0
M  V30 7367 C 703.045 2.26863 -0.424459 0
M  V30 7368 C 704.015 1.5813 0.508346 0
M  V30 7369 O 705.2 1.85946 0.42762 0
M  V30 7370 C 702.34 3.43639 0.31718 0
M  V30 7371 C 701.453 4.27087 -0.649675 0
M  V30 7372 C 700.588 5.31082 0.111753 0
M  V30 7373 C 699.627 6.062 -0.847843 0
M  V30 7374 N 698.764 7.01999 -0.119074 0
M  V30 7375 H 703.604 2.69239 -1.27728 0
M  V30 7376 H 701.141 1.32394 -0.641106 0
M  V30 7377 H 703.099 4.10155 0.763486 0
M  V30 7378 H 701.729 3.02217 1.13424 0
M  V30 7379 H 700.781 3.60491 -1.21451 0
M  V30 7380 H 702.093 4.79242 -1.38307 0
M  V30 7381 H 701.247 6.03544 0.618 0
M  V30 7382 H 699.986 4.7973 0.878114 0
M  V30 7383 H 698.991 5.32577 -1.36534 0
M  V30 7384 H 700.216 6.59642 -1.61398 0
M  V30 7385 H 698.162 6.52977 0.629051 0
M  V30 7386 H 698.079 7.5184 -0.792046 0
M  V30 7387 H 699.347 7.78638 0.366537 0
M  V30 7388 N 703.576 0.692616 1.41565 0
M  V30 7389 C 704.822 0.222664 2.01574 0
M  V30 7390 C 705.155 -1.1737 1.54719 0
M  V30 7391 O 704.43 -1.79161 0.757084 0
M  V30 7392 C 704.713 0.277064 3.59033 0
M  V30 7393 C 704.566 1.71016 4.16021 0
M  V30 7394 C 705.885 -0.36479 4.38586 0
M  V30 7395 H 703.004 0.0823839 0.732381 0
M  V30 7396 H 705.646 0.880778 1.68352 0
M  V30 7397 H 703.796 -0.283288 3.87466 0
M  V30 7398 H 705.468 2.32413 3.98475 0
M  V30 7399 H 703.711 2.24525 3.71175 0
M  V30 7400 H 704.382 1.69978 5.25178 0
M  V30 7401 H 706.858 0.112404 4.15948 0
M  V30 7402 H 705.734 -0.296169 5.481 0
M  V30 7403 H 705.995 -1.44506 4.17816 0
M  V30 7404 N 705.054 -1.51416 0.437162 0
M  V30 7405 C 706.284 -2.06204 -0.127859 0
M  V30 7406 C 706.692 -1.30463 -1.37026 0
M  V30 7407 O 706.035 -0.357516 -1.80187 0
M  V30 7408 C 706.097 -3.55783 -0.515632 0
M  V30 7409 C 705.761 -4.52776 0.619937 0
M  V30 7410 C 706.758 -4.98031 1.49201 0
M  V30 7411 C 704.443 -4.95878 0.800618 0
M  V30 7412 C 706.437 -5.85061 2.52947 0
M  V30 7413 C 704.124 -5.82699 1.84135 0
M  V30 7414 C 705.122 -6.27188 2.70416 0
M  V30 7415 O 704.81 -7.12284 3.72702 0
M  V30 7416 H 704.542 -0.675903 -0.011442 0
M  V30 7417 H 707.096 -1.95977 0.614986 0
M  V30 7418 H 705.326 -3.63793 -1.31118 0
M  V30 7419 H 707.015 -3.93087 -1.01179 0
M  V30 7420 H 707.781 -4.65426 1.36395 0
M  V30 7421 H 703.66 -4.60792 0.138617 0
M  V30 7422 H 707.204 -6.19708 3.20325 0
M  V30 7423 H 703.101 -6.14717 1.9696 0
M  V30 7424 H 703.869 -7.30462 3.69281 0
M  V30 7425 N 706.532 -0.168513 -1.56696 0
M  V30 7426 C 707.479 0.762875 -2.17828 0
M  V30 7427 C 708.449 1.22892 -1.11745 0
M  V30 7428 O 709.634 1.29759 -1.39883 0
M  V30 7429 C 706.774 1.9879 -2.82093 0
M  V30 7430 C 705.887 1.56568 -4.02629 0
M  V30 7431 C 705.022 2.74416 -4.54829 0
M  V30 7432 C 704.061 2.28671 -5.67782 0
M  V30 7433 N 703.198 3.39602 -6.14504 0
M  V30 7434 H 708.038 0.23479 -2.97074 0
M  V30 7435 H 705.575 0.104163 -1.46731 0
M  V30 7436 H 707.533 2.70636 -3.17509 0
M  V30 7437 H 706.163 2.48973 -2.05456 0
M  V30 7438 H 705.215 0.744067 -3.73052 0
M  V30 7439 H 706.527 1.18988 -4.844 0
M  V30 7440 H 705.681 3.54423 -4.92412 0
M  V30 7441 H 704.42 3.15254 -3.7211 0
M  V30 7442 H 703.425 1.4711 -5.29753 0
M  V30 7443 H 704.65 1.88894 -6.52301 0
M  V30 7444 H 702.596 3.80021 -5.34715 0
M  V30 7445 H 702.513 3.06105 -6.91257 0
M  V30 7446 H 703.781 4.19902 -6.56737 0
M  V30 7447 N 708.01 1.57248 0.105221 0
M  V30 7448 C 709.258 1.85204 0.808951 0
M  V30 7449 C 709.579 0.75574 1.7976 0
M  V30 7450 O 708.849 -0.218984 1.94672 0
M  V30 7451 H 707.429 0.683346 0.301739 0
M  V30 7452 H 710.091 1.94695 0.0892605 0
M  V30 7453 H 709.187 2.81595 1.34575 0
M  V30 7454 N 709.488 -0.375779 1.53054 0
M  V30 7455 C 710.904 -0.716764 1.426 0
M  V30 7456 C 711.104 -1.93651 0.556931 0
M  V30 7457 O 710.16 -2.52475 0.0354461 0
M  V30 7458 C 711.473 -0.939499 2.85646 0
M  V30 7459 C 713.021 -1.04015 2.95212 0
M  V30 7460 C 713.496 -1.29543 4.39298 0
M  V30 7461 N 714.987 -1.36335 4.42682 0
M  V30 7462 C 715.722 -1.57778 5.51266 0
M  V30 7463 N 715.218 -1.76604 6.69913 0
M  V30 7464 N 717.011 -1.60065 5.38828 0
M  V30 7465 H 709.162 0.42664 2.08071 0
M  V30 7466 H 711.425 0.128758 0.939215 0
M  V30 7467 H 711.131 -0.115189 3.51511 0
M  V30 7468 H 711.005 -1.85048 3.2869 0
M  V30 7469 H 713.392 -1.85501 2.29507 0
M  V30 7470 H 713.473 -0.106785 2.55577 0
M  V30 7471 H 713.117 -0.485611 5.05573 0
M  V30 7472 H 713.047 -2.24184 4.76497 0
M  V30 7473 H 715.538 -1.23441 3.5717 0
M  V30 7474 H 715.851 -1.9251 7.48438 0
M  V30 7475 H 714.196 -1.73802 6.72917 0
M  V30 7476 H 717.387 -1.44917 4.45103 0
M  V30 7477 H 717.56 -1.76435 6.23518 0
M  V30 7478 N 710.966 -1.44241 -0.634997 0
M  V30 7479 C 712.206 -1.48339 -1.40623 0
M  V30 7480 C 712.57 -0.111479 -1.91676 0
M  V30 7481 O 713.771 -0.0271345 -2.68786 0
M  V30 7482 C 712.042 -2.51122 -2.54308 0
M  V30 7483 S 713.601 -2.74237 -3.42548 0
M  V30 7484 H 710.419 -0.524715 -0.479787 0
M  V30 7485 H 713.021 -1.81138 -0.735489 0
M  V30 7486 H 711.725 -3.49511 -2.15106 0
M  V30 7487 H 711.256 -2.19883 -3.26213 0
M  V30 7488 H 713.271 -2.0554 -4.51628 0
M  V30 7489 N 712.444 0.87505 -1.31075 0
M  V30 7490 C 713.86 1.15997 -1.09622 0
M  V30 7491 C 714.06 2.01036 0.136611 0
M  V30 7492 O 713.116 2.38559 0.827397 0
M  V30 7493 C 714.429 1.85702 -2.36506 0
M  V30 7494 C 715.977 1.98425 -2.42067 0
M  V30 7495 C 716.452 2.71544 -3.68819 0
M  V30 7496 N 717.943 2.79084 -3.69684 0
M  V30 7497 C 718.678 3.36259 -4.64454 0
M  V30 7498 N 718.174 3.94406 -5.69575 0
M  V30 7499 N 719.967 3.34169 -4.51982 0
M  V30 7500 H 712.118 0.308258 -2.10151 0
M  V30 7501 H 714.381 0.199145 -0.926847 0
M  V30 7502 H 714.087 1.30663 -3.26527 0
M  V30 7503 H 713.961 2.86017 -2.45915 0
M  V30 7504 H 716.348 2.5263 -1.52518 0
M  V30 7505 H 716.429 0.971682 -2.36626 0
M  V30 7506 H 716.073 2.18008 -4.58732 0
M  V30 7507 H 716.003 3.73198 -3.71525 0
M  V30 7508 H 718.494 2.3781 -2.93691 0
M  V30 7509 H 718.807 4.36129 -6.37974 0
M  V30 7510 H 717.152 3.92797 -5.73355 0
M  V30 7511 H 720.343 2.87977 -3.69035 0
M  V30 7512 H 720.516 3.78431 -5.26017 0
M  V30 7513 N 713.922 1.13953 1.08869 0
M  V30 7514 C 714.87 0.817664 2.17754 0
M  V30 7515 C 715.864 -0.202444 1.68186 0
M  V30 7516 O 717.07 -0.0590159 1.79903 0
M  V30 7517 H 713.445 0.246671 0.710392 0
M  V30 7518 H 715.416 1.74401 2.4213 0
M  V30 7519 C 714.165 0.3063 3.46348 0
M  V30 7520 H 713.488 1.08259 3.84864 0
M  V30 7521 H 714.928 0.119584 4.23831 0
M  V30 7522 C 713.387 -0.969158 3.22659 0
M  V30 7523 O 713.917 -2.04386 3.45817 0
M  V30 7524 N 712.123 -0.902516 2.7623 0
M  V30 7525 H 711.67 -0.027801 2.57585 0
M  V30 7526 H 711.628 -1.75649 2.60758 0
M  V30 7527 N 715.4 -1.26948 0.933913 0
M  V30 7528 C 716.347 -2.26635 0.436484 0
M  V30 7529 C 717.317 -1.58397 -0.499953 0
M  V30 7530 O 718.502 -1.86171 -0.417753 0
M  V30 7531 C 715.642 -3.43803 -0.298951 0
M  V30 7532 C 714.755 -4.26736 0.672316 0
M  V30 7533 C 713.89 -5.31134 -0.0835872 0
M  V30 7534 C 712.929 -6.05742 0.879979 0
M  V30 7535 N 712.066 -7.01926 0.156301 0
M  V30 7536 H 716.906 -2.68558 1.29154 0
M  V30 7537 H 714.443 -1.32052 0.648118 0
M  V30 7538 H 716.401 -4.10554 -0.741723 0
M  V30 7539 H 715.031 -3.02814 -1.1182 0
M  V30 7540 H 714.083 -3.59842 1.23361 0
M  V30 7541 H 715.395 -4.78502 1.40846 0
M  V30 7542 H 714.549 -6.03863 -0.585984 0
M  V30 7543 H 713.288 -4.80188 -0.852661 0
M  V30 7544 H 712.293 -5.31846 1.39357 0
M  V30 7545 H 713.518 -6.58777 1.64894 0
M  V30 7546 H 711.464 -6.53301 -0.594413 0
M  V30 7547 H 711.381 -7.51409 0.831906 0
M  V30 7548 H 712.649 -7.78821 -0.325239 0
M  V30 7549 N 716.879 -0.700114 -1.41195 0
M  V30 7550 C 718.128 -0.230082 -2.00383 0
M  V30 7551 C 718.441 1.17857 -1.56106 0
M  V30 7552 O 719.647 1.74631 -2.07885 0
M  V30 7553 C 718.103 -0.360447 -3.5809 0
M  V30 7554 C 717.711 -1.77475 -4.11347 0
M  V30 7555 C 719.455 0.0495799 -4.24471 0
M  V30 7556 C 717.362 -1.85653 -5.61504 0
M  V30 7557 H 716.292 -0.0822633 -0.749499 0
M  V30 7558 H 718.943 -0.868969 -1.6162 0
M  V30 7559 H 717.325 0.346768 -3.94479 0
M  V30 7560 H 718.499 -2.51109 -3.86369 0
M  V30 7561 H 716.814 -2.13486 -3.57509 0
M  V30 7562 H 719.411 0.00898219 -5.34699 0
M  V30 7563 H 719.754 1.08904 -4.01803 0
M  V30 7564 H 720.287 -0.607521 -3.93134 0
M  V30 7565 H 717.026 -2.87667 -5.89006 0
M  V30 7566 H 716.546 -1.1641 -5.88395 0
M  V30 7567 H 718.225 -1.62151 -6.26351 0
M  V30 7568 N 718.357 1.51182 -0.445186 0
M  V30 7569 C 719.603 2.02452 0.11882 0
M  V30 7570 C 719.936 1.32824 1.41673 0
M  V30 7571 O 719.211 0.445637 1.89326 0
M  V30 7572 C 719.494 3.5859 0.329475 0
M  V30 7573 C 719.347 4.38823 -0.987638 0
M  V30 7574 C 720.666 4.26241 1.09575 0
M  V30 7575 H 717.785 0.735819 0.0417092 0
M  V30 7576 H 720.427 1.80747 -0.585718 0
M  V30 7577 H 718.577 3.77214 0.9296 0
M  V30 7578 H 720.249 4.3183 -1.62235 0
M  V30 7579 H 718.492 4.03594 -1.59041 0
M  V30 7580 H 719.163 5.46257 -0.794192 0
M  V30 7581 H 721.639 4.11934 0.587328 0
M  V30 7582 H 720.515 5.35354 1.21191 0
M  V30 7583 H 720.776 3.87635 2.12584 0
M  V30 7584 N 719.835 0.176821 1.56605 0
M  V30 7585 C 720.798 -0.737429 2.17013 0
M  V30 7586 C 721.798 -1.15414 1.11965 0
M  V30 7587 O 722.988 -1.0702 1.37449 0
M  V30 7588 C 720.12 -2.00445 2.75744 0
M  V30 7589 H 721.313 -0.211455 2.99154 0
M  V30 7590 H 718.866 -0.0727582 1.56131 0
M  V30 7591 H 719.601 -2.57338 1.97352 0
M  V30 7592 H 719.386 -1.71456 3.52626 0
M  V30 7593 H 720.876 -2.65679 3.22187 0
M  V30 7594 N 721.313 -1.57302 -0.09688 0
M  V30 7595 C 722.562 -1.85183 -0.799388 0
M  V30 7596 C 722.875 -0.765818 -1.79985 0
M  V30 7597 O 724.081 -0.931696 -2.55013 0
M  V30 7598 C 722.537 -3.28399 -1.47249 0
M  V30 7599 C 722.145 -4.45066 -0.511888 0
M  V30 7600 C 723.889 -3.65506 -2.15883 0
M  V30 7601 C 721.796 -5.79315 -1.18948 0
M  V30 7602 H 720.726 -0.690752 -0.302287 0
M  V30 7603 H 723.377 -1.83425 -0.0523104 0
M  V30 7604 H 721.759 -3.24692 -2.26697 0
M  V30 7605 H 722.933 -4.60116 0.250962 0
M  V30 7606 H 721.248 -4.16343 0.0686576 0
M  V30 7607 H 723.845 -4.63087 -2.67309 0
M  V30 7608 H 724.188 -2.94041 -2.94696 0
M  V30 7609 H 724.721 -3.71094 -1.43298 0
M  V30 7610 H 721.46 -6.54007 -0.442198 0
M  V30 7611 H 720.98 -5.68111 -1.9238 0
M  V30 7612 H 722.659 -6.23816 -1.71646 0
M  V30 7613 N 722.791 0.367657 -1.53252 0
M  V30 7614 C 723.738 1.45028 -1.79543 0
M  V30 7615 C 724.708 1.53288 -0.63969 0
M  V30 7616 O 725.893 1.69209 -0.881653 0
M  V30 7617 C 723.033 2.82 -1.98923 0
M  V30 7618 C 722.146 2.82722 -3.26638 0
M  V30 7619 C 721.281 4.11257 -3.36216 0
M  V30 7620 C 720.32 4.06113 -4.57972 0
M  V30 7621 N 719.457 5.26293 -4.64715 0
M  V30 7622 H 724.297 1.21908 -2.71923 0
M  V30 7623 H 721.834 0.591011 -1.34705 0
M  V30 7624 H 723.792 3.61568 -2.08146 0
M  V30 7625 H 722.422 3.03523 -1.09881 0
M  V30 7626 H 721.474 1.95399 -3.26379 0
M  V30 7627 H 722.786 2.74794 -4.16281 0
M  V30 7628 H 721.94 4.99239 -3.44739 0
M  V30 7629 H 720.679 4.21935 -2.44586 0
M  V30 7630 H 719.684 3.16517 -4.49552 0
M  V30 7631 H 720.909 3.97039 -5.50942 0
M  V30 7632 H 718.855 5.37561 -3.75985 0
M  V30 7633 H 718.772 5.20526 -5.4826 0
M  V30 7634 H 720.04 6.16113 -4.77519 0
M  V30 7635 N 724.269 1.44576 0.627338 0
M  V30 7636 C 725.685 1.28546 0.945938 0
M  V30 7637 C 725.885 0.224003 2.00251 0
M  V30 7638 O 724.941 -0.388817 2.49488 0
M  V30 7639 C 726.254 2.65825 1.40561 0
M  V30 7640 C 727.802 2.73566 1.52088 0
M  V30 7641 C 728.277 4.11323 2.01438 0
M  V30 7642 N 729.768 4.13519 2.08702 0
M  V30 7643 C 730.503 5.16964 2.48065 0
M  V30 7644 N 729.999 6.30768 2.86538 0
M  V30 7645 N 731.792 5.04319 2.48232 0
M  V30 7646 H 723.943 2.1228 -0.0713567 0
M  V30 7647 H 726.206 0.947503 0.0307081 0
M  V30 7648 H 725.912 3.44591 0.703539 0
M  V30 7649 H 725.786 2.92969 2.37591 0
M  V30 7650 H 728.173 1.95116 2.21391 0
M  V30 7651 H 728.254 2.50159 0.534237 0
M  V30 7652 H 727.898 4.9025 1.32729 0
M  V30 7653 H 727.828 4.32109 3.0098 0
M  V30 7654 H 730.319 3.31385 1.81638 0
M  V30 7655 H 730.632 7.0551 3.15398 0
M  V30 7656 H 728.977 6.342 2.84281 0
M  V30 7657 H 732.168 4.14465 2.17569 0
M  V30 7658 H 732.341 5.85059 2.78585 0
M  V30 7659 N 725.747 -0.868086 1.31537 0
M  V30 7660 C 726.977 -1.65162 1.24118 0
M  V30 7661 C 727.385 -1.88187 -0.195558 0
M  V30 7662 O 726.728 -1.44154 -1.13866 0
M  V30 7663 C 726.79 -3.04119 1.91708 0
M  V30 7664 C 726.454 -3.04194 3.4105 0
M  V30 7665 C 727.451 -2.82016 4.36764 0
M  V30 7666 C 725.136 -3.25256 3.82772 0
M  V30 7667 C 727.13 -2.80881 5.72175 0
M  V30 7668 C 724.817 -3.23749 5.18295 0
M  V30 7669 C 725.815 -3.01589 6.12808 0
M  V30 7670 O 725.503 -2.9993 7.45853 0
M  V30 7671 H 725.235 -0.521597 0.430015 0
M  V30 7672 H 727.789 -1.09165 1.73989 0
M  V30 7673 H 726.019 -3.61849 1.36389 0
M  V30 7674 H 727.708 -3.64701 1.78179 0
M  V30 7675 H 728.474 -2.65525 4.05859 0
M  V30 7676 H 724.353 -3.41534 3.09638 0
M  V30 7677 H 727.897 -2.63503 6.45919 0
M  V30 7678 H 723.794 -3.39781 5.48834 0
M  V30 7679 H 724.562 -3.15979 7.55049 0
M  V30 7680 N 727.225 -1.14528 -1.08264 0
M  V30 7681 C 728.641 -0.885976 -1.3275 0
M  V30 7682 C 728.841 0.472096 -1.95892 0
M  V30 7683 O 727.897 1.21606 -2.21288 0
M  V30 7684 C 729.21 -2.01982 -2.22764 0
M  V30 7685 C 730.758 -2.05329 -2.36239 0
M  V30 7686 C 731.233 -3.1801 -3.29596 0
M  V30 7687 N 732.724 -3.17598 -3.37173 0
M  V30 7688 C 733.459 -4.01426 -4.09444 0
M  V30 7689 N 732.955 -4.95297 -4.8441 0
M  V30 7690 N 734.748 -3.89482 -4.0529 0
M  V30 7691 H 726.899 -2.01996 -0.656607 0
M  V30 7692 H 729.162 -0.880274 -0.351884 0
M  V30 7693 H 728.868 -2.99964 -1.83615 0
M  V30 7694 H 728.742 -1.94421 -3.23234 0
M  V30 7695 H 731.129 -1.07953 -2.74646 0
M  V30 7696 H 731.21 -2.1696 -1.35506 0
M  V30 7697 H 730.854 -4.15633 -2.9191 0
M  V30 7698 H 730.784 -3.03616 -4.30261 0
M  V30 7699 H 733.275 -2.4961 -2.83731 0
M  V30 7700 H 733.588 -5.55723 -5.37021 0
M  V30 7701 H 731.933 -4.99293 -4.83457 0
M  V30 7702 H 735.124 -3.15465 -3.45832 0
M  V30 7703 H 735.297 -4.55039 -4.6135 0
M  V30 7704 N 728.703 1.26451 -0.940633 0
M  V30 7705 C 729.666 2.24651 -0.454378 0
M  V30 7706 C 730.666 1.54826 0.434222 0
M  V30 7707 O 731.856 1.72628 0.233477 0
M  V30 7708 C 728.988 3.39148 0.345192 0
M  V30 7709 H 730.181 2.69182 -1.32217 0
M  V30 7710 H 727.734 1.38596 -0.722547 0
M  V30 7711 H 728.469 3.00018 1.23125 0
M  V30 7712 H 728.254 3.9101 -0.292107 0
M  V30 7713 H 729.744 4.12103 0.675341 0
M  V30 7714 N 730.181 0.707592 1.40822 0
M  V30 7715 C 731.129 0.0386643 2.32568 0
M  V30 7716 C 732.123 -0.755653 1.51612 0
M  V30 7717 O 733.329 -0.659921 1.67467 0
M  V30 7718 H 729.704 -0.00629912 0.751974 0
M  V30 7719 H 731.675 0.8293 2.86645 0
M  V30 7720 C 730.424 -0.87496 3.36511 0
M  V30 7721 H 729.747 -0.273157 3.98866 0
M  V30 7722 H 731.187 -1.31111 4.03219 0
M  V30 7723 C 729.646 -1.99672 2.71353 0
M  V30 7724 O 730.176 -3.08676 2.57064 0
M  V30 7725 N 728.382 -1.77799 2.29861 0
M  V30 7726 H 727.929 -0.89147 2.41683 0
M  V30 7727 H 727.887 -2.53036 1.86601 0
M  V30 7728 N 731.66 -1.50943 0.453197 0
M  V30 7729 C 732.888 -2.06628 -0.106135 0
M  V30 7730 C 733.303 -1.31901 -1.35084 0
M  V30 7731 O 732.66 -0.383074 -1.78434 0
M  V30 7732 C 732.711 -3.5914 -0.412368 0
M  V30 7733 O 732.432 -4.31047 0.782948 0
M  V30 7734 C 733.933 -4.31391 -1.02064 0
M  V30 7735 H 731.153 -0.670999 -0.000885896 0
M  V30 7736 H 733.697 -1.94331 0.63684 0
M  V30 7737 H 731.852 -3.71299 -1.10526 0
M  V30 7738 H 732.266 -5.21948 0.516736 0
M  V30 7739 H 733.74 -5.39135 -1.1848 0
M  V30 7740 H 734.217 -3.90714 -2.00598 0
M  V30 7741 H 734.823 -4.23716 -0.366664 0
M  V30 7742 N 733.138 -0.185124 -1.56509 0
M  V30 7743 C 734.368 0.461469 -2.0138 0
M  V30 7744 C 734.776 1.56417 -1.06445 0
M  V30 7745 O 734.119 1.83603 -0.0597515 0
M  V30 7746 C 734.181 1.08731 -3.42663 0
M  V30 7747 C 733.845 0.124581 -4.5683 0
M  V30 7748 C 734.842 -0.662295 -5.15664 0
M  V30 7749 C 732.527 0.0163947 -5.02297 0
M  V30 7750 C 734.521 -1.54442 -6.18406 0
M  V30 7751 C 732.208 -0.869301 -6.04885 0
M  V30 7752 C 733.206 -1.64828 -6.62813 0
M  V30 7753 O 732.894 -2.51915 -7.63409 0
M  V30 7754 H 732.626 0.1212 -0.665046 0
M  V30 7755 H 735.18 -0.288119 -2.03369 0
M  V30 7756 H 733.41 1.8853 -3.37629 0
M  V30 7757 H 735.099 1.63753 -3.71403 0
M  V30 7758 H 735.865 -0.588963 -4.81411 0
M  V30 7759 H 731.744 0.61253 -4.56913 0
M  V30 7760 H 735.288 -2.15289 -6.63548 0
M  V30 7761 H 731.185 -0.943786 -6.38563 0
M  V30 7762 H 731.953 -2.45584 -7.80789 0
M  V30 7763 N 734.616 1.57351 0.0885366 0
M  V30 7764 C 735.856 1.88248 0.796362 0
M  V30 7765 C 736.22 0.776915 1.75579 0
M  V30 7766 O 737.421 0.968485 2.50747 0
M  V30 7767 C 735.692 3.24385 1.50031 0
M  V30 7768 S 737.251 3.76991 2.24551 0
M  V30 7769 H 734.069 0.659697 0.265181 0
M  V30 7770 H 736.671 1.95428 0.0531843 0
M  V30 7771 H 735.375 4.02764 0.788 0
M  V30 7772 H 734.906 3.20361 2.28325 0
M  V30 7773 H 736.921 3.50933 3.508 0
M  V30 7774 N 736.094 -0.359525 1.53444 0
M  V30 7775 C 737.319 -1.12644 1.74144 0
M  V30 7776 C 737.744 -1.82082 0.472007 0
M  V30 7777 O 737.102 -1.71962 -0.57436 0
M  V30 7778 C 737.15 -2.12781 2.9113 0
M  V30 7779 O 736.254 -3.19984 2.60162 0
M  V30 7780 H 735.595 -0.326553 0.578152 0
M  V30 7781 H 738.125 -0.414798 2.00351 0
M  V30 7782 H 738.135 -2.56278 3.17467 0
M  V30 7783 H 736.81 -1.61634 3.83207 0
M  V30 7784 H 735.387 -2.81417 2.44661 0
M  V30 7785 N 737.572 -1.44907 -0.619662 0
M  V30 7786 C 738.519 -1.52654 -1.73105 0
M  V30 7787 C 739.489 -0.373334 -1.6185 0
M  V30 7788 O 740.674 -0.585143 -1.81606 0
M  V30 7789 C 737.814 -1.48769 -3.11387 0
M  V30 7790 C 736.927 -2.74551 -3.33535 0
M  V30 7791 C 736.062 -2.62421 -4.61854 0
M  V30 7792 C 735.101 -3.83312 -4.77219 0
M  V30 7793 N 734.238 -3.69789 -5.96826 0
M  V30 7794 H 739.078 -2.47605 -1.65819 0
M  V30 7795 H 736.615 -1.22875 -0.808719 0
M  V30 7796 H 738.573 -1.44507 -3.91374 0
M  V30 7797 H 737.203 -0.573783 -3.1766 0
M  V30 7798 H 736.255 -2.88953 -2.47408 0
M  V30 7799 H 737.567 -3.64253 -3.40765 0
M  V30 7800 H 736.721 -2.56056 -5.50019 0
M  V30 7801 H 735.46 -1.70298 -4.57001 0
M  V30 7802 H 734.465 -3.90049 -3.87481 0
M  V30 7803 H 735.69 -4.76486 -4.83878 0
M  V30 7804 H 733.636 -2.80426 -5.93041 0
M  V30 7805 H 733.553 -4.53116 -6.05163 0
M  V30 7806 H 734.821 -3.67335 -6.87521 0
M  V30 7807 N 739.05 0.861098 -1.31996 0
M  V30 7808 C 740.275 1.65264 -1.2531 0
M  V30 7809 C 740.7 1.87265 0.177007 0
M  V30 7810 O 740.058 1.4208 1.12619 0
M  V30 7811 C 740.106 2.99284 -2.0115 0
M  V30 7812 O 739.21 3.89508 -1.3549 0
M  V30 7813 H 738.551 0.50409 -0.432192 0
M  V30 7814 H 741.081 1.07297 -1.74208 0
M  V30 7815 H 741.091 3.49154 -2.11081 0
M  V30 7816 H 739.766 2.82591 -3.05148 0
M  V30 7817 H 738.343 3.47966 -1.34066 0
M  V30 7818 N 740.528 1.15101 1.07655 0
M  V30 7819 C 741.805 0.834578 1.76902 0
M  V30 7820 C 742.185 -0.670431 2.00171 0
M  V30 7821 O 741.533 -1.61378 1.6177 0
M  V30 7822 C 741.743 1.64191 3.07965 0
M  V30 7823 C 743.091 1.84615 3.82364 0
M  V30 7824 O 744.115 1.60941 3.17768 0
M  V30 7825 O 742.974 2.24244 4.98374 0
M  V30 7826 H 740.068 0.306608 0.768063 0
M  V30 7827 H 742.614 1.25663 1.14048 0
M  V30 7828 H 741.386 2.66386 2.86626 0
M  V30 7829 H 741.009 1.216 3.78549 0
M  V30 7830 N 742.006 -1.2595 0.947325 0
M  V30 7831 C 743.252 -1.9375 0.599064 0
M  V30 7832 C 743.585 -1.74088 -0.860632 0
M  V30 7833 O 742.86 -1.08158 -1.61654 0
M  V30 7834 C 743.143 -3.47353 0.949634 0
M  V30 7835 C 742.996 -3.76273 2.46452 0
M  V30 7836 C 744.315 -4.37589 0.469442 0
M  V30 7837 H 741.434 -0.703674 0.219115 0
M  V30 7838 H 744.076 -1.48705 1.18266 0
M  V30 7839 H 742.226 -3.8585 0.453008 0
M  V30 7840 H 743.898 -3.47455 3.03435 0
M  V30 7841 H 742.141 -3.22135 2.90537 0
M  V30 7842 H 742.812 -4.83664 2.66032 0
M  V30 7843 H 745.288 -4.06353 0.89534 0
M  V30 7844 H 744.164 -5.43841 0.7435 0
M  V30 7845 H 744.425 -4.37579 -0.630618 0
M  V30 7846 N 743.484 -0.715051 -1.40445 0
M  V30 7847 C 744.761 -0.181503 -1.94756 0
M  V30 7848 C 745.141 1.31268 -1.65324 0
M  V30 7849 O 744.489 2.0686 -0.970631 0
M  V30 7850 C 744.699 -0.493663 -3.45491 0
M  V30 7851 C 746.047 -0.432032 -4.22396 0
M  V30 7852 O 747.071 -0.429692 -3.53599 0
M  V30 7853 O 745.93 -0.409091 -5.44967 0
M  V30 7854 H 743.024 -0.0263989 -0.826579 0
M  V30 7855 H 745.57 -0.792546 -1.50056 0
M  V30 7856 H 744.342 -1.52713 -3.6027 0
M  V30 7857 H 743.965 0.14737 -3.97327 0
M  V30 7858 N 744.962 1.50701 -0.461195 0
M  V30 7859 C 745.895 2.24948 0.383863 0
M  V30 7860 C 746.873 1.27851 1.00464 0
M  V30 7861 O 748.057 1.57049 1.04249 0
M  V30 7862 C 745.184 3.01818 1.537 0
M  V30 7863 C 744.23 4.13762 1.03457 0
M  V30 7864 S 745.063 5.35483 -0.0427485 0
M  V30 7865 C 746.219 6.15898 1.11449 0
M  V30 7866 H 746.452 2.96277 -0.246425 0
M  V30 7867 H 743.985 1.52428 -0.245961 0
M  V30 7868 H 745.943 3.467 2.19794 0
M  V30 7869 H 744.604 2.30034 2.13877 0
M  V30 7870 H 743.797 4.66914 1.89757 0
M  V30 7871 H 743.399 3.71265 0.4515 0
M  V30 7872 H 745.691 6.46431 2.02813 0
M  V30 7873 H 746.634 7.05359 0.622444 0
M  V30 7874 H 747.042 5.47777 1.36385 0
M  V30 7875 N 746.441 0.193421 1.56409 0
M  V30 7876 C 747.688 -0.445789 1.97532 0
M  V30 7877 C 748.016 -1.61744 1.08024 0
M  V30 7878 O 747.271 -1.95338 0.118982 0
M  V30 7879 C 747.57 -0.949718 3.44551 0
M  V30 7880 C 747.236 0.108383 4.5077 0
M  V30 7881 C 745.898 0.399126 4.79542 0
M  V30 7882 C 748.25 0.825423 5.14622 0
M  V30 7883 C 745.578 1.41192 5.69457 0
M  V30 7884 C 747.93 1.82735 6.05632 0
M  V30 7885 C 746.594 2.12531 6.32761 0
M  V30 7886 H 745.864 -0.163126 0.722822 0
M  V30 7887 H 748.511 0.290035 1.89291 0
M  V30 7888 H 746.816 -1.76378 3.49854 0
M  V30 7889 H 748.513 -1.45367 3.73724 0
M  V30 7890 H 745.103 -0.128392 4.28408 0
M  V30 7891 H 749.287 0.61403 4.92487 0
M  V30 7892 H 744.543 1.6487 5.88751 0
M  V30 7893 H 748.717 2.3882 6.5417 0
M  V30 7894 H 746.344 2.91155 7.02234 0
M  V30 7895 N 747.919 -1.57396 -0.0801906 0
M  V30 7896 C 749.159 -1.88668 -0.786367 0
M  V30 7897 C 749.523 -0.786216 -1.75165 0
M  V30 7898 O 750.724 -0.981769 -2.50229 0
M  V30 7899 C 748.995 -3.25176 -1.48308 0
M  V30 7900 S 750.554 -3.78177 -2.22549 0
M  V30 7901 H 747.372 -0.661094 -0.261679 0
M  V30 7902 H 749.974 -1.95453 -0.0428196 0
M  V30 7903 H 748.678 -4.03176 -0.766629 0
M  V30 7904 H 748.209 -3.21567 -2.26623 0
M  V30 7905 H 750.224 -3.52789 -3.48934 0
M  V30 7906 N 749.397 0.351382 -1.53633 0
M  V30 7907 C 750.813 0.693987 -1.43722 0
M  V30 7908 C 751.013 1.9274 -0.587669 0
M  V30 7909 O 750.069 2.52387 -0.0756082 0
M  V30 7910 C 751.382 0.893937 -2.87105 0
M  V30 7911 C 752.93 0.993051 -2.96829 0
M  V30 7912 C 753.405 1.22537 -4.41303 0
M  V30 7913 N 754.896 1.29275 -4.44795 0
M  V30 7914 C 755.631 1.48988 -5.53706 0
M  V30 7915 N 755.127 1.65924 -6.72637 0
M  V30 7916 N 756.92 1.51472 -5.41306 0
M  V30 7917 H 749.071 -0.459688 -2.07366 0
M  V30 7918 H 751.334 -0.143684 -0.937048 0
M  V30 7919 H 751.04 0.0592517 -3.5165 0
M  V30 7920 H 750.914 1.79795 -3.31592 0
M  V30 7921 H 753.301 1.81827 -2.32429 0
M  V30 7922 H 753.382 0.0661119 -2.55715 0
M  V30 7923 H 753.026 0.405117 -5.06282 0
M  V30 7924 H 752.956 2.16575 -4.80003 0
M  V30 7925 H 755.447 1.17743 -3.59089 0
M  V30 7926 H 755.76 1.80578 -7.51406 0
M  V30 7927 H 754.105 1.63075 -6.75597 0
M  V30 7928 H 757.296 1.37818 -4.47352 0
M  V30 7929 H 757.469 1.66493 -6.26246 0
M  V30 7930 N 750.875 1.45233 0.611969 0
M  V30 7931 C 751.785 1.56098 1.7513 0
M  V30 7932 C 752.801 0.445646 1.68196 0
M  V30 7933 O 753.977 0.705718 1.88631 0
M  V30 7934 C 751.042 1.52052 3.11579 0
M  V30 7935 C 750.103 2.74589 3.29999 0
M  V30 7936 C 749.336 2.70726 4.59938 0
M  V30 7937 O 749.559 1.77806 5.41979 0
M  V30 7938 O 748.493 3.61864 4.80976 0
M  V30 7939 H 752.319 2.52392 1.68914 0
M  V30 7940 H 749.904 1.27695 0.775528 0
M  V30 7941 H 751.786 1.52387 3.92882 0
M  V30 7942 H 750.461 0.589085 3.18295 0
M  V30 7943 H 749.368 2.79817 2.48301 0
M  V30 7944 H 750.701 3.66843 3.28157 0
M  V30 7945 N 752.353 -0.854086 1.3245 0
M  V30 7946 C 753.599 -1.61069 1.23225 0
M  V30 7947 C 753.932 -1.93111 -0.205349 0
M  V30 7948 O 753.207 -1.57397 -1.14265 0
M  V30 7949 C 753.49 -2.93065 2.09249 0
M  V30 7950 C 753.343 -2.67801 3.6139 0
M  V30 7951 C 754.662 -3.94341 1.95406 0
M  V30 7952 H 751.781 -0.584449 0.448986 0
M  V30 7953 H 754.423 -0.986189 1.62402 0
M  V30 7954 H 752.573 -3.46364 1.75967 0
M  V30 7955 H 754.245 -2.21052 4.04887 0
M  V30 7956 H 752.488 -2.01756 3.84027 0
M  V30 7957 H 753.159 -3.6179 4.16907 0
M  V30 7958 H 755.635 -3.50301 2.24562 0
M  V30 7959 H 754.511 -4.84555 2.57872 0
M  V30 7960 H 754.772 -4.32382 0.921865 0
M  V30 7961 N 753.831 -1.1567 -1.07043 0
M  V30 7962 C 755.056 -0.957946 -1.83952 0
M  V30 7963 C 755.481 0.488807 -1.81638 0
M  V30 7964 O 754.839 1.34869 -1.21162 0
M  V30 7965 C 754.887 -1.48064 -3.288 0
M  V30 7966 O 753.991 -0.681921 -4.06723 0
M  V30 7967 H 753.332 -0.341453 -0.569479 0
M  V30 7968 H 755.862 -1.53728 -1.35015 0
M  V30 7969 H 755.872 -1.49484 -3.7963 0
M  V30 7970 H 754.547 -2.53388 -3.29799 0
M  V30 7971 H 753.124 -0.737612 -3.65532 0
M  V30 7972 N 755.309 1.25446 -0.953992 0
M  V30 7973 C 756.558 1.92441 -0.604101 0
M  V30 7974 C 756.871 1.75543 0.862796 0
M  V30 7975 O 758.077 2.37106 1.32262 0
M  V30 7976 C 756.533 3.44854 -1.02974 0
M  V30 7977 C 756.141 3.70464 -2.51914 0
M  V30 7978 C 757.885 4.1778 -0.752352 0
M  V30 7979 C 755.792 5.1638 -2.88281 0
M  V30 7980 H 754.722 0.720508 -0.222227 0
M  V30 7981 H 757.373 1.42318 -1.15836 0
M  V30 7982 H 755.755 3.93935 -0.403904 0
M  V30 7983 H 756.929 3.32038 -3.19511 0
M  V30 7984 H 755.244 3.10797 -2.77117 0
M  V30 7985 H 757.841 5.25261 -1.00024 0
M  V30 7986 H 758.184 4.15135 0.311212 0
M  V30 7987 H 758.717 3.74605 -1.33851 0
M  V30 7988 H 755.456 5.24135 -3.93653 0
M  V30 7989 H 754.976 5.55855 -2.25357 0
M  V30 7990 H 756.655 5.84497 -2.77439 0
M  V30 7991 N 756.787 0.722489 1.40064 0
M  V30 7992 C 757.717 0.0892452 2.33329 0
M  V30 7993 C 758.698 -0.737992 1.53257 0
M  V30 7994 O 759.883 -0.685516 1.81698 0
M  V30 7995 C 757.013 -0.828139 3.37282 0
M  V30 7996 C 755.967 -0.106005 4.27869 0
M  V30 7997 C 755.293 -1.13957 5.22415 0
M  V30 7998 C 756.593 1.04395 5.11761 0
M  V30 7999 H 758.287 0.868269 2.86534 0
M  V30 8000 H 755.833 0.418982 1.3777 0
M  V30 8001 H 757.786 -1.28058 4.01471 0
M  V30 8002 H 756.51 -1.63914 2.82489 0
M  V30 8003 H 755.169 0.326683 3.65142 0
M  V30 8004 H 754.817 -1.9438 4.63924 0
M  V30 8005 H 754.517 -0.661233 5.83868 0
M  V30 8006 H 756.041 -1.59197 5.89482 0
M  V30 8007 H 757.455 0.670541 5.69365 0
M  V30 8008 H 755.852 1.4511 5.82291 0
M  V30 8009 H 756.922 1.87144 4.47331 0
M  V30 8010 N 758.265 -1.50454 0.469181 0
M  V30 8011 C 759.505 -2.04222 -0.0852381 0
M  V30 8012 C 759.869 -1.34357 -1.37158 0
M  V30 8013 O 761.07 -1.78669 -2.00825 0
M  V30 8014 C 759.341 -3.56403 -0.266778 0
M  V30 8015 S 760.9 -4.31811 -0.780028 0
M  V30 8016 H 757.718 -0.7108 -0.0168589 0
M  V30 8017 H 760.32 -1.8487 0.635883 0
M  V30 8018 H 759.024 -4.04807 0.67525 0
M  V30 8019 H 758.555 -3.80106 -1.01407 0
M  V30 8020 H 760.57 -4.51706 -2.05368 0
M  V30 8021 N 759.743 -0.201713 -1.56304 0
M  V30 8022 C 760.675 0.748466 -2.16635 0
M  V30 8023 C 761.688 1.172 -1.12996 0
M  V30 8024 O 762.877 1.10658 -1.40061 0
M  V30 8025 C 759.977 2.02296 -2.719 0
M  V30 8026 C 759.15 1.75818 -4.00508 0
M  V30 8027 C 758.209 2.87779 -4.40533 0
M  V30 8028 O 757.235 2.57101 -5.07826 0
M  V30 8029 N 758.437 4.16287 -4.04581 0
M  V30 8030 H 761.202 0.232505 -2.98797 0
M  V30 8031 H 758.763 -0.0199822 -1.61888 0
M  V30 8032 H 760.755 2.7635 -2.95657 0
M  V30 8033 H 759.325 2.44996 -1.94154 0
M  V30 8034 H 758.545 0.855095 -3.84814 0
M  V30 8035 H 759.833 1.55532 -4.84445 0
M  V30 8036 H 759.231 4.44061 -3.50466 0
M  V30 8037 H 757.788 4.86946 -4.33274 0
M  V30 8038 N 761.222 1.57436 0.0718424 0
M  V30 8039 C 762.152 2.06724 1.08571 0
M  V30 8040 C 763.133 0.960731 1.40371 0
M  V30 8041 O 764.318 1.23345 1.49999 0
M  V30 8042 C 761.448 2.51112 2.39916 0
M  V30 8043 C 760.402 3.65639 2.22469 0
M  V30 8044 C 759.728 3.96082 3.59198 0
M  V30 8045 C 761.028 4.95687 1.64596 0
M  V30 8046 H 762.722 2.91679 0.675569 0
M  V30 8047 H 760.268 1.40319 0.32352 0
M  V30 8048 H 762.221 2.84206 3.11135 0
M  V30 8049 H 760.945 1.63186 2.8291 0
M  V30 8050 H 759.604 3.32828 1.53691 0
M  V30 8051 H 759.252 3.05287 3.99761 0
M  V30 8052 H 758.952 4.73199 3.48362 0
M  V30 8053 H 760.476 4.31672 4.31847 0
M  V30 8054 H 761.89 5.27011 2.25681 0
M  V30 8055 H 760.287 5.77126 1.64457 0
M  V30 8056 H 761.357 4.8108 0.60744 0
M  V30 8057 N 762.7 -0.34323 1.53817 0
M  V30 8058 C 763.648 -1.44176 1.82527 0
M  V30 8059 C 764.642 -1.54452 0.695772 0
M  V30 8060 O 765.848 -1.57072 0.879114 0
M  V30 8061 H 762.223 -0.480729 0.578277 0
M  V30 8062 H 764.194 -1.17176 2.74431 0
M  V30 8063 C 762.943 -2.80695 2.05197 0
M  V30 8064 H 762.266 -2.73554 2.91561 0
M  V30 8065 H 763.706 -3.56679 2.29251 0
M  V30 8066 C 762.165 -3.26322 0.837589 0
M  V30 8067 O 762.695 -4.01683 0.0371631 0
M  V30 8068 N 760.901 -2.83128 0.654724 0
M  V30 8069 H 760.448 -2.21965 1.30725 0
M  V30 8070 H 760.406 -3.14011 -0.156345 0
M  V30 8071 N 764.178 -1.45556 -0.604258 0
M  V30 8072 C 765.128 -1.50906 -1.70913 0
M  V30 8073 C 766.112 -0.371996 -1.56541 0
M  V30 8074 O 767.304 -0.619064 -1.65821 0
M  V30 8075 C 764.433 -1.48181 -3.09673 0
M  V30 8076 C 763.519 -2.67102 -3.2942 0
M  V30 8077 N 763.91 -3.92184 -3.19414 0
M  V30 8078 C 762.208 -2.6287 -3.60299 0
M  V30 8079 C 762.909 -4.71571 -3.40581 0
M  V30 8080 N 761.885 -4.03081 -3.64728 0
M  V30 8081 H 765.687 -2.45435 -1.61675 0
M  V30 8082 H 763.201 -1.40894 -0.807622 0
M  V30 8083 H 765.198 -1.501 -3.88942 0
M  V30 8084 H 763.858 -0.54712 -3.20057 0
M  V30 8085 H 764.869 -4.23756 -2.97743 0
M  V30 8086 H 761.546 -1.78324 -3.77501 0
M  V30 8087 H 762.936 -5.80571 -3.38211 0
M  V30 8088 N 765.656 0.84705 -1.32902 0
M  V30 8089 C 767.067 1.41785 -1.21466 0
M  V30 8090 C 767.418 1.95464 0.169767 0
M  V30 8091 O 766.543 1.88157 1.06892 0
M  V30 8092 C 767.138 2.57734 -2.19906 0
M  V30 8093 C 765.697 3.10791 -2.12334 0
M  V30 8094 C 764.844 1.83562 -2.07847 0
M  V30 8095 H 767.795 0.653532 -1.44619 0
M  V30 8096 H 767.816 3.35123 -1.80202 0
M  V30 8097 H 767.328 2.18635 -3.20656 0
M  V30 8098 H 765.429 3.54455 -1.14858 0
M  V30 8099 H 765.542 3.71519 -3.02506 0
M  V30 8100 H 763.906 2.03475 -1.53199 0
M  V30 8101 H 764.689 1.4667 -3.10392 0
M  V30 8102 N 767.134 1.16236 1.06428 0
M  V30 8103 C 768.374 0.95369 1.80787 0
M  V30 8104 C 768.738 -0.509495 1.85117 0
M  V30 8105 O 769.939 -0.836822 2.55442 0
M  V30 8106 C 768.21 1.56235 3.21443 0
M  V30 8107 S 769.769 1.49812 4.12434 0
M  V30 8108 H 766.587 0.343004 0.622792 0
M  V30 8109 H 769.189 1.47957 1.27785 0
M  V30 8110 H 767.893 2.62 3.15886 0
M  V30 8111 H 767.424 1.03574 3.79521 0
M  V30 8112 H 769.439 0.49745 4.937 0
M  V30 8113 N 768.612 -1.24939 0.960631 0
M  V30 8114 C 769.858 -1.93104 0.61958 0
M  V30 8115 C 770.191 -1.74991 -0.84212 0
M  V30 8116 O 769.466 -1.09867 -1.60498 0
M  V30 8117 C 769.749 -3.46326 0.986422 0
M  V30 8118 C 769.602 -3.73638 2.50429 0
M  V30 8119 C 770.921 -4.37067 0.515827 0
M  V30 8120 H 768.04 -0.701311 0.226566 0
M  V30 8121 H 770.682 -1.47442 1.19836 0
M  V30 8122 H 768.832 -3.85348 0.493907 0
M  V30 8123 H 770.504 -3.44217 3.07103 0
M  V30 8124 H 768.747 -3.19035 2.93937 0
M  V30 8125 H 769.418 -4.80815 2.71147 0
M  V30 8126 H 771.894 -4.05381 0.938389 0
M  V30 8127 H 770.77 -5.43022 0.80114 0
M  V30 8128 H 771.031 -4.38224 -0.584171 0
M  V30 8129 N 770.09 -0.729906 -1.39679 0
M  V30 8130 C 771.339 -0.272534 -1.9985 0
M  V30 8131 C 771.652 1.14519 -1.58571 0
M  V30 8132 O 772.858 1.70182 -2.11543 0
M  V30 8133 C 771.314 -0.436322 -3.57245 0
M  V30 8134 C 770.922 -1.86161 -4.0749 0
M  V30 8135 C 772.666 -0.0404679 -4.24481 0
M  V30 8136 C 770.573 -1.97522 -5.5744 0
M  V30 8137 H 769.503 -0.0981428 -0.747585 0
M  V30 8138 H 772.154 -0.903056 -1.59741 0
M  V30 8139 H 770.536 0.263015 -3.95126 0
M  V30 8140 H 771.71 -2.59248 -3.80955 0
M  V30 8141 H 770.025 -2.21021 -3.529 0
M  V30 8142 H 772.622 -0.104437 -5.34598 0
M  V30 8143 H 772.965 1.00357 -4.04023 0
M  V30 8144 H 773.498 -0.690774 -3.91757 0
M  V30 8145 H 770.237 -3.00096 -5.82771 0
M  V30 8146 H 769.757 -1.28864 -5.85794 0
M  V30 8147 H 771.436 -1.754 -6.22771 0
M  V30 8148 N 771.568 1.50203 -0.477153 0
M  V30 8149 C 772.5 2.26508 0.350239 0
M  V30 8150 C 773.513 1.32081 0.95176 0
M  V30 8151 O 774.702 1.57546 0.839139 0
M  V30 8152 C 771.802 3.0361 1.50579 0
M  V30 8153 C 770.975 4.25438 1.01595 0
M  V30 8154 C 770.034 4.84783 2.04626 0
M  V30 8155 O 769.06 5.45528 1.62442 0
M  V30 8156 N 770.262 4.72318 3.37485 0
M  V30 8157 H 773.027 2.98155 -0.30394 0
M  V30 8158 H 770.588 1.58938 -0.308289 0
M  V30 8159 H 772.58 3.4019 2.1921 0
M  V30 8160 H 771.15 2.34724 2.06455 0
M  V30 8161 H 770.37 3.93894 0.155316 0
M  V30 8162 H 771.658 5.04413 0.666694 0
M  V30 8163 H 771.056 4.24022 3.74462 0
M  V30 8164 H 769.613 5.13149 4.01897 0
M  V30 8165 N 773.046 0.209999 1.56195 0
M  V30 8166 C 774.293 -0.424813 1.97994 0
M  V30 8167 C 774.621 -1.60589 1.09733 0
M  V30 8168 O 773.876 -1.95201 0.139693 0
M  V30 8169 C 774.175 -0.91312 3.45539 0
M  V30 8170 C 773.841 0.156187 4.50629 0
M  V30 8171 C 772.503 0.449966 4.79092 0
M  V30 8172 C 774.855 0.879959 5.13718 0
M  V30 8173 C 772.183 1.47223 5.67928 0
M  V30 8174 C 774.535 1.89148 6.0366 0
M  V30 8175 C 773.199 2.1923 6.30472 0
M  V30 8176 H 772.469 -0.15545 0.724511 0
M  V30 8177 H 775.116 0.310095 1.88973 0
M  V30 8178 H 773.421 -1.72658 3.51705 0
M  V30 8179 H 775.118 -1.41395 3.75245 0
M  V30 8180 H 771.708 -0.0829466 4.2852 0
M  V30 8181 H 775.892 0.66623 4.91808 0
M  V30 8182 H 771.148 1.71105 5.86969 0
M  V30 8183 H 775.322 2.45745 6.516 0
M  V30 8184 H 772.949 2.98587 6.99107 0
M  V30 8185 N 774.524 -1.57472 -0.0634922 0
M  V30 8186 C 775.77 -1.87932 -0.762194 0
M  V30 8187 C 776.103 -0.803377 -1.76804 0
M  V30 8188 O 775.378 0.185468 -1.93614 0
M  V30 8189 C 775.661 -3.29053 -1.46275 0
M  V30 8190 C 775.514 -4.47309 -0.472755 0
M  V30 8191 C 776.833 -3.68537 -2.40558 0
M  V30 8192 H 773.952 -0.683521 -0.275624 0
M  V30 8193 H 776.594 -1.89983 -0.0252651 0
M  V30 8194 H 774.744 -3.27435 -2.0909 0
M  V30 8195 H 776.416 -4.61053 0.150828 0
M  V30 8196 H 774.659 -4.33286 0.211187 0
M  V30 8197 H 775.33 -5.42853 -1.00072 0
M  V30 8198 H 777.806 -3.71302 -1.87814 0
M  V30 8199 H 776.682 -4.68152 -2.86574 0
M  V30 8200 H 776.943 -2.98917 -3.25731 0
M  V30 8201 N 776.003 0.335068 -1.53997 0
M  V30 8202 C 777.251 1.07223 -1.71312 0
M  V30 8203 C 777.572 1.88911 -0.483486 0
M  V30 8204 O 776.842 1.89344 0.50257 0
M  V30 8205 H 775.422 0.398846 -0.63161 0
M  V30 8206 H 778.084 0.374288 -1.91272 0
M  V30 8207 H 777.18 1.7448 -2.58772 0
M  V30 8208 N 777.481 1.45874 0.596531 0
M  V30 8209 C 778.444 1.54988 1.68853 0
M  V30 8210 C 779.444 0.428302 1.54991 0
M  V30 8211 O 780.634 0.692158 1.59859 0
M  V30 8212 C 777.766 1.457 3.08195 0
M  V30 8213 H 778.959 2.52294 1.62135 0
M  V30 8214 H 776.512 1.33479 0.813206 0
M  V30 8215 H 777.247 0.496204 3.20481 0
M  V30 8216 H 777.032 2.27061 3.19665 0
M  V30 8217 H 778.522 1.55133 3.87716 0
M  V30 8218 N 778.959 -0.83999 1.33349 0
M  V30 8219 C 780.199 -1.60888 1.26073 0
M  V30 8220 C 780.563 -1.91234 -0.17129 0
M  V30 8221 O 781.764 -2.66269 -0.36799 0
M  V30 8222 C 780.035 -2.88438 2.11042 0
M  V30 8223 S 781.594 -3.79116 2.20944 0
M  V30 8224 H 778.412 -0.55166 0.448545 0
M  V30 8225 H 781.014 -0.99359 1.68369 0
M  V30 8226 H 779.718 -2.64113 3.14121 0
M  V30 8227 H 779.249 -3.54974 1.69579 0
M  V30 8228 H 781.264 -4.76921 1.36969 0
M  V30 8229 N 780.437 -1.16799 -1.0581 0
M  V30 8230 C 781.367 -0.902241 -2.15364 0
M  V30 8231 C 782.348 0.153351 -1.69407 0
M  V30 8232 O 783.533 0.00442032 -1.94199 0
M  V30 8233 C 780.663 -0.407911 -3.44896 0
M  V30 8234 C 779.617 -1.40197 -4.04387 0
M  V30 8235 C 778.943 -0.765848 -5.29187 0
M  V30 8236 C 780.243 -2.77316 -4.42598 0
M  V30 8237 H 781.937 -1.81841 -2.37853 0
M  V30 8238 H 779.483 -0.875731 -1.14311 0
M  V30 8239 H 781.436 -0.20945 -4.20879 0
M  V30 8240 H 780.16 0.54378 -3.22041 0
M  V30 8241 H 778.819 -1.58707 -3.30466 0
M  V30 8242 H 778.467 0.192482 -5.02632 0
M  V30 8243 H 778.167 -1.42939 -5.69949 0
M  V30 8244 H 779.691 -0.577519 -6.07863 0
M  V30 8245 H 781.105 -2.62561 -5.09642 0
M  V30 8246 H 779.502 -3.4019 -4.94359 0
M  V30 8247 H 780.572 -3.32199 -3.53231 0
M  V30 8248 N 781.915 1.24427 -0.967243 0
M  V30 8249 C 782.863 2.27403 -0.488927 0
M  V30 8250 C 783.857 1.63388 0.447302 0
M  V30 8251 O 785.063 1.77085 0.322643 0
M  V30 8252 H 781.438 0.738921 -0.139643 0
M  V30 8253 H 783.409 2.65122 -1.36942 0
M  V30 8254 C 782.158 3.4709 0.205787 0
M  V30 8255 H 781.481 3.96591 -0.50551 0
M  V30 8256 H 782.921 4.2099 0.504296 0
M  V30 8257 C 781.38 3.04923 1.43261 0
M  V30 8258 O 781.91 3.12043 2.52967 0
M  V30 8259 N 780.116 2.59976 1.29849 0
M  V30 8260 H 779.663 2.54382 0.405876 0
M  V30 8261 H 779.621 2.32128 2.12047 0
M  V30 8262 N 783.393 0.737304 1.3929 0
M  V30 8263 C 784.67 0.212464 1.94443 0
M  V30 8264 C 785.05 -1.28621 1.67391 0
M  V30 8265 O 784.398 -2.0529 1.00342 0
M  V30 8266 C 784.608 0.548565 3.44662 0
M  V30 8267 C 785.956 0.499177 4.21656 0
M  V30 8268 O 786.98 0.485892 3.5287 0
M  V30 8269 O 785.839 0.495739 5.44247 0
M  V30 8270 H 782.933 0.0395457 0.826054 0
M  V30 8271 H 785.479 0.816319 1.48776 0
M  V30 8272 H 784.251 1.58426 3.57795 0
M  V30 8273 H 783.874 -0.0841399 3.97511 0
M  V30 8274 N 784.871 -1.49948 0.485112 0
M  V30 8275 C 786.282 -1.8667 0.0334041 0
M  V30 8276 C 786.633 -1.3988 -1.37579 0
M  V30 8277 O 785.758 -0.769788 -2.02245 0
M  V30 8278 C 786.353 -3.38757 0.0538426 0
M  V30 8279 C 784.912 -3.74839 -0.342453 0
M  V30 8280 C 784.059 -2.73894 0.433281 0
M  V30 8281 H 787.01 -1.42492 0.698699 0
M  V30 8282 H 787.031 -3.73132 -0.745146 0
M  V30 8283 H 786.543 -3.72782 1.07959 0
M  V30 8284 H 784.644 -3.46419 -1.37203 0
M  V30 8285 H 784.757 -4.79088 -0.0340503 0
M  V30 8286 H 783.121 -2.54441 -0.114849 0
M  V30 8287 H 783.904 -3.10763 1.45881 0
M  V30 8288 N 786.349 -0.21828 -1.56081 0
M  V30 8289 C 787.574 0.422302 -2.03055 0
M  V30 8290 C 787.999 1.5279 -1.09713 0
M  V30 8291 O 787.357 1.81102 -0.0847187 0
M  V30 8292 C 787.405 0.934177 -3.48289 0
M  V30 8293 O 786.509 2.04574 -3.58083 0
M  V30 8294 H 785.85 0.0959764 -0.657027 0
M  V30 8295 H 788.38 -0.335958 -2.01823 0
M  V30 8296 H 788.39 1.24484 -3.88546 0
M  V30 8297 H 787.065 0.124963 -4.15712 0
M  V30 8298 H 785.642 1.74196 -3.29712 0
M  V30 8299 N 787.827 1.57504 0.0551401 0
M  V30 8300 C 788.759 2.0158 1.09078 0
M  V30 8301 C 789.772 0.92434 1.34014 0
M  V30 8302 O 790.961 1.20202 1.31961 0
M  V30 8303 C 788.061 2.35385 2.43818 0
M  V30 8304 C 787.234 3.66588 2.38605 0
M  V30 8305 C 786.293 3.87874 3.55585 0
M  V30 8306 O 785.319 4.59259 3.36258 0
M  V30 8307 N 786.521 3.31503 4.76536 0
M  V30 8308 H 789.286 2.91039 0.71529 0
M  V30 8309 H 786.847 1.60058 0.243532 0
M  V30 8310 H 788.839 2.46784 3.20749 0
M  V30 8311 H 787.409 1.51731 2.73307 0
M  V30 8312 H 786.629 3.65787 1.46947 0
M  V30 8313 H 787.917 4.52706 2.32239 0
M  V30 8314 H 787.315 2.73592 4.9514 0
M  V30 8315 H 785.872 3.48324 5.50921 0
M  V30 8316 N 789.305 -0.326896 1.54172 0
M  V30 8317 C 790.552 -1.06523 1.72218 0
M  V30 8318 C 790.88 -1.88119 0.494114 0
M  V30 8319 O 790.135 -1.8855 -0.524147 0
M  V30 8320 C 790.434 -2.0208 2.94785 0
M  V30 8321 C 790.1 -1.36665 4.2969 0
M  V30 8322 C 788.762 -1.18556 4.66367 0
M  V30 8323 C 791.114 -0.896868 5.13425 0
M  V30 8324 C 788.442 -0.521113 5.84381 0
M  V30 8325 C 790.794 -0.246261 6.3212 0
M  V30 8326 C 789.458 -0.052987 6.67479 0
M  V30 8327 H 788.728 -0.389796 0.63019 0
M  V30 8328 H 791.375 -0.342725 1.88408 0
M  V30 8329 H 789.68 -2.8077 2.73268 0
M  V30 8330 H 791.377 -2.59231 3.05941 0
M  V30 8331 H 787.967 -1.51762 4.00832 0
M  V30 8332 H 792.151 -1.02458 4.85609 0
M  V30 8333 H 787.407 -0.36014 6.10338 0
M  V30 8334 H 791.581 0.125775 6.96286 0
M  V30 8335 H 789.208 0.463903 7.58783 0
M  V30 8336 N 790.784 -1.46188 -0.588786 0
M  V30 8337 C 791.747 -1.55882 -1.68029 0
M  V30 8338 C 792.747 -0.436515 -1.54762 0
M  V30 8339 O 793.937 -0.700626 -1.59489 0
M  V30 8340 C 791.069 -1.47332 -3.07418 0
M  V30 8341 H 792.262 -2.5315 -1.60795 0
M  V30 8342 H 789.815 -1.33908 -0.806116 0
M  V30 8343 H 790.55 -0.513193 -3.20214 0
M  V30 8344 H 790.335 -2.28753 -3.18456 0
M  V30 8345 H 791.825 -1.57187 -3.86887 0
M  V30 8346 N 792.262 0.832906 -1.33792 0
M  V30 8347 C 793.511 1.58351 -1.24932 0
M  V30 8348 C 793.824 1.94754 0.181703 0
M  V30 8349 O 795.03 2.6865 0.392375 0
M  V30 8350 C 793.486 2.85643 -2.18943 0
M  V30 8351 C 793.094 2.56581 -3.67247 0
M  V30 8352 C 794.838 3.63667 -2.18968 0
M  V30 8353 C 792.745 3.80006 -4.53155 0
M  V30 8354 H 791.675 0.594278 -0.464058 0
M  V30 8355 H 794.326 0.91786 -1.58895 0
M  V30 8356 H 792.708 3.53781 -1.77919 0
M  V30 8357 H 793.882 1.96617 -4.16747 0
M  V30 8358 H 792.197 1.91851 -3.6957 0
M  V30 8359 H 794.794 4.55293 -2.80379 0
M  V30 8360 H 795.137 3.99039 -1.18631 0
M  V30 8361 H 795.67 3.0246 -2.58384 0
M  V30 8362 H 792.409 3.4976 -5.5439 0
M  V30 8363 H 791.929 4.39288 -4.08395 0
M  V30 8364 H 793.608 4.47523 -4.6726 0
M  V30 8365 N 793.74 1.17359 1.05189 0
M  V30 8366 C 794.986 0.963413 1.78455 0
M  V30 8367 C 795.319 -0.506703 1.87473 0
M  V30 8368 O 794.594 -1.37611 1.37453 0
M  V30 8369 C 794.877 1.60519 3.22344 0
M  V30 8370 C 794.73 3.14741 3.21338 0
M  V30 8371 C 796.049 1.3091 4.20179 0
M  V30 8372 H 793.168 0.351412 0.647826 0
M  V30 8373 H 795.81 1.44858 1.22948 0
M  V30 8374 H 793.96 1.19265 3.69741 0
M  V30 8375 H 795.632 3.65053 2.82017 0
M  V30 8376 H 793.875 3.4749 2.59679 0
M  V30 8377 H 794.546 3.54775 4.22894 0
M  V30 8378 H 797.022 1.66635 3.81277 0
M  V30 8379 H 795.898 1.784 5.191 0
M  V30 8380 H 796.159 0.229908 4.41502 0
M  V30 8381 N 795.218 -1.23913 0.973828 0
M  V30 8382 C 796.446 -1.96195 0.656891 0
M  V30 8383 C 796.861 -1.72166 -0.774876 0
M  V30 8384 O 796.218 -1.0091 -1.52064 0
M  V30 8385 C 796.269 -3.49342 0.929638 0
M  V30 8386 O 795.99 -3.72553 2.30512 0
M  V30 8387 C 797.491 -4.38833 0.627739 0
M  V30 8388 H 794.711 -0.624841 0.244572 0
M  V30 8389 H 797.255 -1.57579 1.30343 0
M  V30 8390 H 795.41 -3.85999 0.329216 0
M  V30 8391 H 795.824 -4.66893 2.3898 0
M  V30 8392 H 797.298 -5.45117 0.868991 0
M  V30 8393 H 797.775 -4.37009 -0.438104 0
M  V30 8394 H 798.381 -4.07773 1.20834 0
M  V30 8395 N 796.696 -0.74468 -1.38897 0
M  V30 8396 C 797.628 -0.0713608 -2.29089 0
M  V30 8397 C 798.641 0.693224 -1.47303 0
M  V30 8398 O 799.83 0.535785 -1.70269 0
M  V30 8399 C 796.93 0.923078 -3.26087 0
M  V30 8400 C 796.103 0.217998 -4.36856 0
M  V30 8401 C 795.162 1.12192 -5.14101 0
M  V30 8402 O 794.188 0.595771 -5.66073 0
M  V30 8403 N 795.39 2.45082 -5.26227 0
M  V30 8404 H 798.155 -0.845906 -2.87514 0
M  V30 8405 H 795.716 -0.594712 -1.50581 0
M  V30 8406 H 797.708 1.53061 -3.74639 0
M  V30 8407 H 796.278 1.59876 -2.68623 0
M  V30 8408 H 795.498 -0.570134 -3.90055 0
M  V30 8409 H 796.786 -0.270248 -5.08082 0
M  V30 8410 H 796.184 2.90294 -4.85537 0
M  V30 8411 H 794.741 3.00907 -5.78185 0
M  V30 8412 N 798.174 1.49689 -0.493057 0
M  V30 8413 C 799.404 2.06536 0.0512397 0
M  V30 8414 C 799.812 1.35459 1.32089 0
M  V30 8415 O 799.155 0.424145 1.78736 0
M  V30 8416 C 799.217 3.57452 0.383231 0
M  V30 8417 C 798.881 4.50163 -0.787555 0
M  V30 8418 C 799.878 4.92151 -1.67582 0
M  V30 8419 C 797.563 4.92565 -0.984109 0
M  V30 8420 C 799.557 5.7527 -2.74487 0
M  V30 8421 C 797.244 5.75463 -2.05634 0
M  V30 8422 C 798.242 6.16719 -2.93507 0
M  V30 8423 O 797.93 6.97961 -3.98881 0
M  V30 8424 H 797.662 0.675862 -0.0136516 0
M  V30 8425 H 800.216 1.9356 -0.687298 0
M  V30 8426 H 798.446 3.68408 1.17526 0
M  V30 8427 H 800.135 3.96572 0.8652 0
M  V30 8428 H 800.901 4.60043 -1.53575 0
M  V30 8429 H 796.78 4.5996 -0.309541 0
M  V30 8430 H 800.324 6.07392 -3.43104 0
M  V30 8431 H 796.221 6.06983 -2.19639 0
M  V30 8432 H 796.989 7.16253 -3.96137 0
M  V30 8433 N 799.652 0.226554 1.55963 0
M  V30 8434 C 800.901 -0.40417 1.97609 0
M  V30 8435 C 801.214 -1.60541 1.1174 0
M  V30 8436 O 802.42 -2.30598 1.43307 0
M  V30 8437 C 800.876 -0.770466 3.51556 0
M  V30 8438 C 800.484 0.408244 4.46136 0
M  V30 8439 C 802.228 -1.36651 4.01904 0
M  V30 8440 C 800.135 0.0192347 5.91397 0
M  V30 8441 H 799.065 -0.15478 0.737943 0
M  V30 8442 H 801.716 0.323558 1.80625 0
M  V30 8443 H 800.098 -1.55575 3.6416 0
M  V30 8444 H 801.272 1.18575 4.45283 0
M  V30 8445 H 799.587 0.917859 4.06158 0
M  V30 8446 H 802.184 -1.67055 5.07934 0
M  V30 8447 H 802.527 -2.28403 3.48049 0
M  V30 8448 H 803.06 -0.644556 3.92543 0
M  V30 8449 H 799.799 0.90336 6.49245 0
M  V30 8450 H 799.319 -0.722485 5.95433 0
M  V30 8451 H 800.998 -0.405711 6.45727 0
M  V30 8452 N 801.13 -1.57531 -0.0467866 0
M  V30 8453 C 802.355 -1.93087 -0.757123 0
M  V30 8454 C 802.78 -0.825116 -1.69037 0
M  V30 8455 O 802.138 0.220449 -1.79955 0
M  V30 8456 C 802.186 -3.27669 -1.5055 0
M  V30 8457 O 801.29 -3.18667 -2.61773 0
M  V30 8458 H 800.631 -0.631597 -0.204892 0
M  V30 8459 H 803.161 -2.04599 -0.00755232 0
M  V30 8460 H 803.171 -3.6214 -1.87932 0
M  V30 8461 H 801.846 -4.07717 -0.820931 0
M  V30 8462 H 800.423 -2.95798 -2.27064 0
M  V30 8463 N 802.608 0.318715 -1.54344 0
M  V30 8464 C 803.856 1.054 -1.72439 0
M  V30 8465 C 804.177 1.88388 -0.503495 0
M  V30 8466 O 803.447 1.89866 0.48246 0
M  V30 8467 H 802.027 0.392124 -0.635805 0
M  V30 8468 H 804.689 0.35398 -1.91659 0
M  V30 8469 H 803.785 1.71726 -2.60608 0
M  V30 8470 N 804.086 1.46499 0.581025 0
M  V30 8471 C 805.334 1.51596 1.33653 0
M  V30 8472 C 805.655 0.169859 1.94259 0
M  V30 8473 O 804.925 -0.803776 1.78651 0
M  V30 8474 H 803.505 0.558346 0.496244 0
M  V30 8475 H 806.167 1.8264 0.680338 0
M  V30 8476 H 805.263 2.26956 2.14237 0
M  V30 8477 N 805.565 -0.825799 1.34232 0
M  V30 8478 C 806.79 -1.61883 1.29648 0
M  V30 8479 C 807.215 -1.87669 -0.127295 0
M  V30 8480 O 806.573 -1.45016 -1.08813 0
M  V30 8481 C 806.621 -2.93846 2.09014 0
M  V30 8482 O 805.725 -3.85778 1.4577 0
M  V30 8483 H 805.066 -0.492454 0.445405 0
M  V30 8484 H 807.596 -1.02641 1.76992 0
M  V30 8485 H 807.606 -3.43435 2.20264 0
M  V30 8486 H 806.281 -2.74401 3.12533 0
M  V30 8487 H 804.858 -3.4429 1.43245 0
M  V30 8488 N 807.043 -1.17915 -1.04565 0
M  V30 8489 C 807.973 -0.925033 -2.14395 0
M  V30 8490 C 808.954 0.135375 -1.6956 0
M  V30 8491 O 810.139 -0.0161774 -1.94193 0
M  V30 8492 C 807.269 -0.444469 -3.44444 0
M  V30 8493 C 806.223 -1.44478 -4.02877 0
M  V30 8494 C 805.549 -0.821933 -5.28345 0
M  V30 8495 C 806.849 -2.81995 -4.39632 0
M  V30 8496 H 808.543 -1.84354 -2.35911 0
M  V30 8497 H 806.089 -0.887806 -1.13375 0
M  V30 8498 H 808.042 -0.254078 -4.20633 0
M  V30 8499 H 806.766 0.509592 -3.226 0
M  V30 8500 H 805.425 -1.62203 -3.28764 0
M  V30 8501 H 805.073 0.139161 -5.02807 0
M  V30 8502 H 804.773 -1.48976 -5.68401 0
M  V30 8503 H 806.297 -0.641959 -6.07216 0
M  V30 8504 H 807.711 -2.67952 -5.06828 0
M  V30 8505 H 806.108 -3.45414 -4.90723 0
M  V30 8506 H 807.178 -3.35927 -3.49687 0
M  V30 8507 N 808.521 1.23394 -0.980386 0
M  V30 8508 C 809.768 1.91809 -0.649261 0
M  V30 8509 C 810.096 1.765 0.817197 0
M  V30 8510 O 809.351 1.11979 1.60497 0
M  V30 8511 C 809.65 3.43542 -0.985588 0
M  V30 8512 C 809.316 3.79031 -2.44225 0
M  V30 8513 C 807.978 3.88429 -2.84035 0
M  V30 8514 C 810.33 3.96145 -3.38702 0
M  V30 8515 C 807.658 4.12368 -4.17336 0
M  V30 8516 C 810.01 4.21583 -4.71646 0
M  V30 8517 C 808.674 4.29203 -5.11215 0
M  V30 8518 H 807.944 0.70188 -0.237581 0
M  V30 8519 H 810.591 1.4642 -1.23424 0
M  V30 8520 H 808.896 3.90503 -0.318521 0
M  V30 8521 H 810.593 3.94708 -0.707596 0
M  V30 8522 H 807.183 3.7229 -2.12362 0
M  V30 8523 H 811.367 3.88274 -3.09123 0
M  V30 8524 H 806.623 4.1649 -4.47601 0
M  V30 8525 H 810.797 4.33769 -5.4481 0
M  V30 8526 H 808.424 4.47505 -6.14527 0
M  V30 8527 N 809.999 0.752036 1.385 0
M  V30 8528 C 811.224 0.316993 2.04963 0
M  V30 8529 C 811.649 -1.04582 1.56346 0
M  V30 8530 O 811.007 -1.66616 0.714755 0
M  V30 8531 C 811.055 0.347235 3.58924 0
M  V30 8532 O 810.159 -0.659296 4.07096 0
M  V30 8533 H 809.5 0.140652 0.648932 0
M  V30 8534 H 812.03 1.02272 1.77205 0
M  V30 8535 H 812.04 0.19757 4.07521 0
M  V30 8536 H 810.715 1.34157 3.93668 0
M  V30 8537 H 809.292 -0.474371 3.6987 0
M  V30 8538 N 811.477 -1.49425 0.500989 0
M  V30 8539 C 812.407 -2.31971 -0.266775 0
M  V30 8540 C 813.388 -1.40245 -0.962563 0
M  V30 8541 O 814.573 -1.69154 -0.953968 0
M  V30 8542 C 811.703 -3.20757 -1.33163 0
M  V30 8543 C 810.657 -4.21275 -0.75572 0
M  V30 8544 C 809.983 -4.98997 -1.92109 0
M  V30 8545 C 811.283 -5.21686 0.253213 0
M  V30 8546 H 812.977 -2.96408 0.422237 0
M  V30 8547 H 810.523 -1.4254 0.204505 0
M  V30 8548 H 812.476 -3.77315 -1.87646 0
M  V30 8549 H 811.2 -2.54263 -2.04983 0
M  V30 8550 H 809.859 -3.65861 -0.232637 0
M  V30 8551 H 809.507 -4.28951 -2.62698 0
M  V30 8552 H 809.207 -5.67011 -1.54182 0
M  V30 8553 H 810.731 -5.584 -2.47026 0
M  V30 8554 H 812.145 -5.72939 -0.203483 0
M  V30 8555 H 810.542 -5.9759 0.548322 0
M  V30 8556 H 811.612 -4.70596 1.16909 0
M  V30 8557 N 812.955 -0.234822 -1.55841 0
M  V30 8558 C 813.885 0.664217 -2.23854 0
M  V30 8559 C 814.866 1.19076 -1.2147 0
M  V30 8560 O 816.051 1.23232 -1.50091 0
M  V30 8561 C 813.181 1.86666 -2.9287 0
M  V30 8562 C 812.135 1.47341 -4.01839 0
M  V30 8563 C 811.461 2.75571 -4.58219 0
M  V30 8564 C 812.761 0.653479 -5.18196 0
M  V30 8565 H 814.455 0.0971213 -2.99242 0
M  V30 8566 H 812.001 0.0452724 -1.43929 0
M  V30 8567 H 813.954 2.50116 -3.39146 0
M  V30 8568 H 812.678 2.45894 -2.1495 0
M  V30 8569 H 811.337 0.862314 -3.56314 0
M  V30 8570 H 810.985 3.32971 -3.77014 0
M  V30 8571 H 810.685 2.49987 -5.31771 0
M  V30 8572 H 812.209 3.39939 -5.07221 0
M  V30 8573 H 813.623 1.19198 -5.60771 0
M  V30 8574 H 812.02 0.494188 -5.98062 0
M  V30 8575 H 813.09 -0.337004 -4.83728 0
M  V30 8576 N 814.433 1.57553 0.0384317 0
M  V30 8577 C 815.383 2.02404 1.0496 0
M  V30 8578 C 816.367 0.911705 1.32577 0
M  V30 8579 O 817.559 1.17561 1.32319 0
M  V30 8580 C 814.688 2.49924 2.35357 0
M  V30 8581 C 813.774 3.6796 2.1087 0
M  V30 8582 N 814.165 4.81009 1.56411 0
M  V30 8583 C 812.463 3.75153 2.41197 0
M  V30 8584 C 813.164 5.62686 1.47512 0
M  V30 8585 N 812.14 5.0752 1.94742 0
M  V30 8586 H 815.942 2.87234 0.622399 0
M  V30 8587 H 813.456 1.60543 0.244916 0
M  V30 8588 H 815.453 2.80312 3.08595 0
M  V30 8589 H 814.113 1.66496 2.78763 0
M  V30 8590 H 815.124 5.02636 1.2481 0
M  V30 8591 H 811.801 3.02507 2.87742 0
M  V30 8592 H 813.191 6.6349 1.05976 0
M  V30 8593 N 815.911 -0.310526 1.54511 0
M  V30 8594 C 816.821 -1.4054 1.87844 0
M  V30 8595 C 817.837 -1.55954 0.771635 0
M  V30 8596 O 819.013 -1.70801 1.06719 0
M  V30 8597 C 816.078 -2.75063 2.11048 0
M  V30 8598 C 815.139 -2.68715 3.348 0
M  V30 8599 C 814.372 -3.96821 3.56887 0
M  V30 8600 O 814.595 -4.95721 2.82165 0
M  V30 8601 O 813.529 -3.99291 4.50389 0
M  V30 8602 H 817.355 -1.15275 2.80972 0
M  V30 8603 H 814.94 -0.505732 1.4058 0
M  V30 8604 H 816.822 -3.54671 2.27566 0
M  V30 8605 H 815.497 -3.00191 1.21108 0
M  V30 8606 H 814.404 -1.87611 3.23655 0
M  V30 8607 H 815.737 -2.4854 4.2484 0
M  V30 8608 N 817.389 -1.46805 -0.573248 0
M  V30 8609 C 818.321 -1.54127 -1.6964 0
M  V30 8610 C 819.334 -0.428778 -1.57052 0
M  V30 8611 O 820.523 -0.697612 -1.64303 0
M  V30 8612 C 817.623 -1.41438 -3.07975 0
M  V30 8613 C 816.796 -2.66974 -3.46474 0
M  V30 8614 C 815.855 -2.48349 -4.63906 0
M  V30 8615 O 814.881 -3.22109 -4.69292 0
M  V30 8616 N 816.083 -1.55129 -5.59388 0
M  V30 8617 H 818.848 -2.50971 -1.6381 0
M  V30 8618 H 816.409 -1.42981 -0.759479 0
M  V30 8619 H 818.401 -1.26737 -3.84343 0
M  V30 8620 H 816.971 -0.527388 -3.08119 0
M  V30 8621 H 816.191 -2.9655 -2.59715 0
M  V30 8622 H 817.479 -3.50347 -3.68964 0
M  V30 8623 H 816.877 -0.94324 -5.57781 0
M  V30 8624 H 815.434 -1.46387 -6.35149 0
M  V30 8625 N 818.867 0.818669 -1.34668 0
M  V30 8626 C 819.814 1.92983 -1.26595 0
M  V30 8627 C 820.784 1.65506 -0.140315 0
M  V30 8628 O 821.969 1.88063 -0.322005 0
M  V30 8629 C 819.109 3.2932 -1.03163 0
M  V30 8630 C 818.222 3.69061 -2.24539 0
M  V30 8631 C 817.357 4.94368 -1.94355 0
M  V30 8632 C 816.396 5.26702 -3.11851 0
M  V30 8633 N 815.533 6.43187 -2.81522 0
M  V30 8634 H 820.373 1.99219 -2.2162 0
M  V30 8635 H 817.91 0.974612 -1.1018 0
M  V30 8636 H 819.868 4.07897 -0.87613 0
M  V30 8637 H 818.498 3.22584 -0.118045 0
M  V30 8638 H 817.55 2.85842 -2.50995 0
M  V30 8639 H 818.862 3.88924 -3.12313 0
M  V30 8640 H 818.016 5.80742 -1.75566 0
M  V30 8641 H 816.755 4.76515 -1.03848 0
M  V30 8642 H 815.76 4.38823 -3.31231 0
M  V30 8643 H 816.985 5.46492 -4.03142 0
M  V30 8644 H 814.931 6.26783 -1.93596 0
M  V30 8645 H 814.848 6.63243 -3.62829 0
M  V30 8646 H 816.116 7.32621 -2.66247 0
M  V30 8647 N 820.346 1.18468 1.03938 0
M  V30 8648 C 821.762 0.934635 1.29371 0
M  V30 8649 C 821.962 -0.399067 1.97509 0
M  V30 8650 O 821.018 -1.13309 2.25648 0
M  V30 8651 C 822.331 2.10111 2.15114 0
M  V30 8652 C 823.879 2.13955 2.28456 0
M  V30 8653 C 824.354 3.30024 3.17566 0
M  V30 8654 N 825.845 3.29893 3.25153 0
M  V30 8655 C 826.58 4.16346 3.94263 0
M  V30 8656 N 826.076 5.12934 4.65693 0
M  V30 8657 N 827.869 4.04256 3.90556 0
M  V30 8658 H 820.02 2.04294 0.581185 0
M  V30 8659 H 822.283 0.892727 0.318971 0
M  V30 8660 H 821.989 3.06572 1.72355 0
M  V30 8661 H 821.863 2.06283 3.15796 0
M  V30 8662 H 824.25 1.18072 2.7045 0
M  V30 8663 H 824.331 2.2184 1.2736 0
M  V30 8664 H 823.975 4.26181 2.76283 0
M  V30 8665 H 823.905 3.19376 4.18697 0
M  V30 8666 H 826.396 2.59969 2.74271 0
M  V30 8667 H 826.709 5.75271 5.16026 0
M  V30 8668 H 825.054 5.16893 4.64593 0
M  V30 8669 H 828.245 3.28083 3.33885 0
M  V30 8670 H 828.418 4.71848 4.44144 0
M  V30 8671 N 821.824 -1.22873 0.986916 0
M  V30 8672 C 823.073 -1.90772 0.654911 0
M  V30 8673 C 823.386 -1.77768 -0.81595 0
M  V30 8674 O 824.592 -2.40529 -1.25929 0
M  V30 8675 C 823.048 -3.42003 1.12081 0
M  V30 8676 C 822.656 -3.63655 2.61647 0
M  V30 8677 C 824.4 -4.15638 0.862854 0
M  V30 8678 C 822.307 -5.08555 3.01871 0
M  V30 8679 H 821.237 -0.714362 0.241252 0
M  V30 8680 H 823.888 -1.39196 1.19568 0
M  V30 8681 H 822.27 -3.92725 0.508207 0
M  V30 8682 H 823.444 -3.2345 3.28202 0
M  V30 8683 H 821.759 -3.03341 2.8526 0
M  V30 8684 H 824.356 -5.22425 1.13915 0
M  V30 8685 H 824.699 -4.15814 -0.201036 0
M  V30 8686 H 825.232 -3.70924 1.43736 0
M  V30 8687 H 821.971 -5.13514 4.07411 0
M  V30 8688 H 821.491 -5.49684 2.40015 0
M  V30 8689 H 823.17 -5.76936 2.92839 0
M  V30 8690 N 823.302 -0.75937 -1.38099 0
M  V30 8691 C 824.232 -0.151077 -2.33011 0
M  V30 8692 C 825.213 0.697099 -1.5516 0
M  V30 8693 O 826.398 0.637101 -1.83452 0
M  V30 8694 C 823.528 0.738423 -3.39359 0
M  V30 8695 C 822.482 -0.0074741 -4.27999 0
M  V30 8696 C 821.808 1.00066 -5.25253 0
M  V30 8697 C 823.108 -1.17926 -5.08813 0
M  V30 8698 H 824.802 -0.943933 -2.84131 0
M  V30 8699 H 822.348 -0.455362 -1.36611 0
M  V30 8700 H 824.301 1.17369 -4.04725 0
M  V30 8701 H 823.025 1.56366 -2.86735 0
M  V30 8702 H 821.684 -0.423379 -3.64147 0
M  V30 8703 H 821.332 1.82012 -4.68914 0
M  V30 8704 H 821.032 0.506199 -5.85416 0
M  V30 8705 H 822.556 1.43512 -5.93495 0
M  V30 8706 H 823.97 -0.821262 -5.67387 0
M  V30 8707 H 822.367 -1.60497 -5.78239 0
M  V30 8708 H 823.437 -1.98938 -4.42212 0
M  V30 8709 N 824.78 1.49157 -0.508906 0
M  V30 8710 C 826.057 1.95363 0.0961913 0
M  V30 8711 C 826.437 1.45064 1.53362 0
M  V30 8712 O 825.785 0.667835 2.18523 0
M  V30 8713 C 825.995 3.49 0.000688881 0
M  V30 8714 C 827.343 4.24257 0.170632 0
M  V30 8715 O 828.367 3.5612 0.0754994 0
M  V30 8716 O 827.226 5.45267 0.366957 0
M  V30 8717 H 824.32 0.821984 0.0909489 0
M  V30 8718 H 826.866 1.59769 -0.572007 0
M  V30 8719 H 825.638 3.78269 -1.00143 0
M  V30 8720 H 825.261 3.91233 0.708682 0
M  V30 8721 N 826.258 0.243083 1.55714 0
M  V30 8722 C 827.188 -0.652336 2.24203 0
M  V30 8723 C 828.169 -1.1843 1.221 0
M  V30 8724 O 829.354 -1.22435 1.50743 0
M  V30 8725 C 826.484 -1.85111 2.93856 0
M  V30 8726 C 825.438 -1.45208 4.02615 0
M  V30 8727 C 824.764 -2.73137 4.59674 0
M  V30 8728 C 826.064 -0.625988 5.18535 0
M  V30 8729 H 827.758 -0.0812504 2.9929 0
M  V30 8730 H 825.304 -0.0376388 1.43951 0
M  V30 8731 H 827.257 -2.48314 3.40468 0
M  V30 8732 H 825.981 -2.44751 2.16251 0
M  V30 8733 H 824.64 -0.843406 3.56766 0
M  V30 8734 H 824.288 -3.30967 3.78774 0
M  V30 8735 H 823.988 -2.47163 5.33089 0
M  V30 8736 H 825.512 -3.37245 5.09017 0
M  V30 8737 H 826.926 -1.16223 5.61396 0
M  V30 8738 H 825.323 -0.462465 5.98315 0
M  V30 8739 H 826.393 0.362652 4.83542 0
M  V30 8740 N 827.736 -1.57571 -0.0300757 0
M  V30 8741 C 828.668 -2.0329 -1.05857 0
M  V30 8742 C 829.681 -0.945543 -1.32527 0
M  V30 8743 O 830.87 -1.22287 -1.30032 0
M  V30 8744 C 827.97 -2.39234 -2.40042 0
M  V30 8745 C 827.143 -3.70337 -2.32743 0
M  V30 8746 C 826.202 -3.93482 -3.49369 0
M  V30 8747 O 825.228 -4.64551 -3.28909 0
M  V30 8748 N 826.43 -3.39042 -4.71201 0
M  V30 8749 H 829.195 -2.9214 -0.668897 0
M  V30 8750 H 826.756 -1.60425 -0.218038 0
M  V30 8751 H 828.748 -2.51856 -3.16782 0
M  V30 8752 H 827.318 -1.5606 -2.70858 0
M  V30 8753 H 826.538 -3.68079 -1.41109 0
M  V30 8754 H 827.826 -4.56343 -2.25007 0
M  V30 8755 H 827.224 -2.81434 -4.90725 0
M  V30 8756 H 825.781 -3.57045 -5.45309 0
M  V30 8757 N 829.214 0.302327 -1.54673 0
M  V30 8758 C 830.439 1.06103 -1.78205 0
M  V30 8759 C 830.864 1.80204 -0.53926 0
M  V30 8760 O 830.222 1.73975 0.510142 0
M  V30 8761 C 830.27 2.01829 -2.98827 0
M  V30 8762 O 829.374 3.10108 -2.71858 0
M  V30 8763 H 828.715 0.30487 -0.589873 0
M  V30 8764 H 831.245 0.340153 -2.01753 0
M  V30 8765 H 831.255 2.44319 -3.2676 0
M  V30 8766 H 829.93 1.473 -3.88942 0
M  V30 8767 H 828.507 2.72142 -2.54937 0
M  V30 8768 N 830.692 1.47107 0.565454 0
M  V30 8769 C 831.639 1.58974 1.6732 0
M  V30 8770 C 832.609 0.433146 1.60353 0
M  V30 8771 O 833.794 0.652141 1.79309 0
M  V30 8772 C 830.934 1.60224 3.05651 0
M  V30 8773 C 830.047 2.86741 3.23116 0
M  V30 8774 C 829.182 2.79381 4.51796 0
M  V30 8775 C 828.221 4.0076 4.62664 0
M  V30 8776 N 827.358 3.91685 5.8269 0
M  V30 8777 H 832.198 2.53588 1.56515 0
M  V30 8778 H 829.735 1.25791 0.762558 0
M  V30 8779 H 831.693 1.58933 3.85741 0
M  V30 8780 H 830.323 0.691285 3.15311 0
M  V30 8781 H 829.375 2.97936 2.36513 0
M  V30 8782 H 830.687 3.7665 3.27011 0
M  V30 8783 H 829.841 2.76293 5.40136 0
M  V30 8784 H 828.58 1.87142 4.50366 0
M  V30 8785 H 827.585 4.04162 3.72738 0
M  V30 8786 H 828.81 4.94117 4.6586 0
M  V30 8787 H 826.756 3.02243 5.82224 0
M  V30 8788 H 826.673 4.75264 5.87929 0
M  V30 8789 H 827.941 3.92599 6.73414 0
M  V30 8790 N 832.17 -0.811516 1.35101 0
M  V30 8791 C 833.1 -1.9378 1.30275 0
M  V30 8792 C 834.081 -1.69165 0.178075 0
M  V30 8793 O 835.266 -1.90599 0.372256 0
M  V30 8794 C 832.396 -3.30439 1.06899 0
M  V30 8795 C 831.35 -3.69523 2.15955 0
M  V30 8796 C 830.676 -5.0429 1.77751 0
M  V30 8797 C 831.976 -3.80419 3.57881 0
M  V30 8798 H 833.67 -1.98075 2.24514 0
M  V30 8799 H 831.216 -0.951586 1.08078 0
M  V30 8800 H 833.169 -4.08828 1.02164 0
M  V30 8801 H 831.893 -3.26473 0.0910462 0
M  V30 8802 H 830.552 -2.93416 2.19778 0
M  V30 8803 H 830.2 -4.96823 0.785876 0
M  V30 8804 H 829.9 -5.31411 2.5075 0
M  V30 8805 H 831.424 -5.85125 1.74533 0
M  V30 8806 H 832.838 -4.49051 3.56407 0
M  V30 8807 H 831.235 -4.19005 4.29598 0
M  V30 8808 H 832.305 -2.82105 3.94391 0
M  V30 8809 N 833.648 -1.19017 -1.03309 0
M  V30 8810 C 834.897 -0.984542 -1.76039 0
M  V30 8811 C 835.21 0.485937 -1.89468 0
M  V30 8812 O 836.416 0.810278 -2.59127 0
M  V30 8813 C 834.872 -1.71261 -3.1654 0
M  V30 8814 C 834.48 -3.22291 -3.11179 0
M  V30 8815 C 836.224 -1.59007 -3.93595 0
M  V30 8816 C 834.131 -3.87704 -4.46587 0
M  V30 8817 H 833.061 -0.364749 -0.659905 0
M  V30 8818 H 835.712 -1.4247 -1.15649 0
M  V30 8819 H 834.094 -1.20025 -3.77373 0
M  V30 8820 H 835.268 -3.80611 -2.59753 0
M  V30 8821 H 833.583 -3.34772 -2.47622 0
M  V30 8822 H 836.18 -2.05232 -4.93745 0
M  V30 8823 H 836.523 -0.543534 -4.12736 0
M  V30 8824 H 837.056 -2.07564 -3.39355 0
M  V30 8825 H 833.795 -4.92437 -4.3265 0
M  V30 8826 H 833.315 -3.34172 -4.98085 0
M  V30 8827 H 834.994 -3.91008 -5.15482 0
M  V30 8828 N 835.127 1.22348 -0.993418 0
M  V30 8829 C 836.376 1.90422 -0.665019 0
M  V30 8830 C 836.689 1.78199 0.806512 0
M  V30 8831 O 837.895 2.41193 1.24652 0
M  V30 8832 C 836.351 3.41403 -1.13893 0
M  V30 8833 C 835.959 3.62262 -2.63572 0
M  V30 8834 C 837.703 4.15175 -0.884884 0
M  V30 8835 C 835.61 5.06947 -3.04564 0
M  V30 8836 H 834.54 0.713073 -0.245037 0
M  V30 8837 H 837.191 1.3856 -1.20305 0
M  V30 8838 H 835.573 3.9245 -0.529027 0
M  V30 8839 H 836.747 3.21705 -3.29913 0
M  V30 8840 H 835.062 3.01824 -2.86865 0
M  V30 8841 H 837.659 5.21813 -1.16684 0
M  V30 8842 H 838.002 4.15915 0.178982 0
M  V30 8843 H 838.535 3.70157 -1.45701 0
M  V30 8844 H 835.274 5.11346 -4.10128 0
M  V30 8845 H 834.794 5.48404 -2.42927 0
M  V30 8846 H 836.473 5.75374 -2.95894 0
M  V30 8847 N 836.605 0.766683 1.37694 0
M  V30 8848 C 837.568 0.155849 2.2867 0
M  V30 8849 C 838.568 -0.633509 1.47795 0
M  V30 8850 O 839.758 -0.457844 1.68076 0
M  V30 8851 C 836.89 -0.786965 3.31692 0
M  V30 8852 H 838.083 0.957748 2.84196 0
M  V30 8853 H 835.636 0.534554 1.46875 0
M  V30 8854 H 836.371 -1.61406 2.8128 0
M  V30 8855 H 836.156 -0.223182 3.91464 0
M  V30 8856 H 837.646 -1.20994 3.99688 0
M  V30 8857 N 838.083 -1.48885 0.516809 0
M  V30 8858 C 839.329 -2.02788 -0.0220928 0
M  V30 8859 C 839.662 -1.39433 -1.35175 0
M  V30 8860 O 838.937 -0.535459 -1.86984 0
M  V30 8861 C 839.22 -3.59753 -0.158012 0
M  V30 8862 C 839.073 -4.33611 1.19588 0
M  V30 8863 C 840.392 -4.30984 -0.891133 0
M  V30 8864 H 837.511 -0.736971 -0.00655488 0
M  V30 8865 H 840.153 -1.77746 0.671287 0
M  V30 8866 H 838.303 -3.8122 -0.748568 0
M  V30 8867 H 839.975 -4.23598 1.82653 0
M  V30 8868 H 838.218 -3.95547 1.78116 0
M  V30 8869 H 838.889 -5.41846 1.05391 0
M  V30 8870 H 841.365 -4.14267 -0.39012 0
M  V30 8871 H 840.241 -5.40527 -0.955107 0
M  V30 8872 H 840.502 -3.97336 -1.93847 0
M  V30 8873 N 839.561 -0.251338 -1.55583 0
M  V30 8874 C 840.838 0.422729 -1.90977 0
M  V30 8875 C 841.218 1.75534 -1.17265 0
M  V30 8876 O 840.566 2.26632 -0.291588 0
M  V30 8877 C 840.776 0.586448 -3.44037 0
M  V30 8878 C 842.124 0.880294 -4.15375 0
M  V30 8879 O 843.148 0.672148 -3.49801 0
M  V30 8880 O 842.007 1.27694 -5.31372 0
M  V30 8881 H 839.101 0.227622 -0.795058 0
M  V30 8882 H 841.647 -0.295733 -1.67103 0
M  V30 8883 H 840.419 -0.352327 -3.89711 0
M  V30 8884 H 840.042 1.35528 -3.73789 0
M  V30 8885 N 841.039 1.57585 0.0217189 0
M  V30 8886 C 842.285 1.89887 0.712099 0
M  V30 8887 C 842.618 0.849971 1.74611 0
M  V30 8888 O 841.893 -0.13407 1.94037 0
M  V30 8889 C 842.176 3.32815 1.37499 0
M  V30 8890 C 842.029 4.48405 0.353993 0
M  V30 8891 C 843.348 3.74786 2.30703 0
M  V30 8892 H 840.467 0.690588 0.257405 0
M  V30 8893 H 843.109 1.89983 -0.0251145 0
M  V30 8894 H 841.259 3.32863 2.00335 0
M  V30 8895 H 842.931 4.60491 -0.273015 0
M  V30 8896 H 841.174 4.32573 -0.32599 0
M  V30 8897 H 841.845 5.45316 0.85644 0
M  V30 8898 H 844.321 3.76151 1.77904 0
M  V30 8899 H 843.197 4.75585 2.74061 0
M  V30 8900 H 843.458 3.07449 3.17691 0
M  V30 8901 N 842.517 -0.29412 1.54831 0
M  V30 8902 C 843.48 -1.3461 1.85507 0
M  V30 8903 C 844.48 -1.43359 0.728343 0
M  V30 8904 O 845.67 -1.42875 0.996609 0
M  V30 8905 C 842.802 -2.73012 2.0415 0
M  V30 8906 H 843.995 -1.08651 2.79526 0
M  V30 8907 H 841.548 -0.531138 1.46999 0
M  V30 8908 H 842.283 -3.04183 1.12441 0
M  V30 8909 H 842.068 -2.68051 2.86166 0
M  V30 8910 H 843.558 -3.49061 2.29229 0
M  V30 8911 N 843.995 -1.47404 -0.557645 0
M  V30 8912 C 844.942 -1.59859 -1.66475 0
M  V30 8913 C 845.912 -0.441644 -1.60121 0
M  V30 8914 O 847.097 -0.661641 -1.78961 0
M  V30 8915 C 844.237 -1.61843 -3.04797 0
M  V30 8916 C 843.35 -2.8845 -3.2159 0
M  V30 8917 C 842.485 -2.81773 -4.50308 0
M  V30 8918 C 841.524 -4.03208 -4.60532 0
M  V30 8919 N 840.661 -3.94769 -5.80604 0
M  V30 8920 H 845.501 -2.54415 -1.55168 0
M  V30 8921 H 843.038 -1.26194 -0.755876 0
M  V30 8922 H 844.996 -1.60976 -3.84893 0
M  V30 8923 H 843.626 -0.707997 -3.1494 0
M  V30 8924 H 842.678 -2.99186 -2.34929 0
M  V30 8925 H 843.99 -3.78379 -3.25009 0
M  V30 8926 H 843.144 -2.79153 -5.38663 0
M  V30 8927 H 841.883 -1.89527 -4.49367 0
M  V30 8928 H 840.888 -4.06133 -3.70589 0
M  V30 8929 H 842.113 -4.9658 -4.63233 0
M  V30 8930 H 840.059 -3.05326 -5.80613 0
M  V30 8931 H 839.976 -4.78375 -5.854 0
M  V30 8932 H 841.244 -3.96165 -6.71322 0
M  V30 8933 N 845.473 0.80434 -1.35529 0
M  V30 8934 C 846.721 1.55845 -1.28673 0
M  V30 8935 C 847.042 1.94511 0.137976 0
M  V30 8936 O 846.312 1.63775 1.07492 0
M  V30 8937 H 844.892 0.577931 -0.473291 0
M  V30 8938 H 847.554 0.959293 -1.69657 0
M  V30 8939 H 846.65 2.47285 -1.90411 0
M  V30 8940 N 846.951 1.19563 1.02676 0
M  V30 8941 C 847.884 0.878638 2.10607 0
M  V30 8942 C 848.862 -0.165176 1.61759 0
M  V30 8943 O 850.046 -0.041014 1.88455 0
M  V30 8944 C 847.173 0.315347 3.37229 0
M  V30 8945 C 846.219 1.33855 4.04951 0
M  V30 8946 S 847.052 2.89982 4.50189 0
M  V30 8947 C 848.208 2.35202 5.80027 0
M  V30 8948 H 848.441 1.79268 2.37171 0
M  V30 8949 H 845.974 1.023 1.15646 0
M  V30 8950 H 847.932 -0.00311911 4.105 0
M  V30 8951 H 846.593 -0.577035 3.08754 0
M  V30 8952 H 845.786 0.893581 4.96015 0
M  V30 8953 H 845.388 1.60397 3.37859 0
M  V30 8954 H 847.68 1.74329 6.54687 0
M  V30 8955 H 848.623 3.24622 6.29306 0
M  V30 8956 H 849.031 1.77702 5.35801 0
M  V30 8957 N 848.429 -1.21819 0.999893 0
M  V30 8958 C 849.339 -2.27691 0.565159 0
M  V30 8959 C 850.355 -1.69587 -0.389398 0
M  V30 8960 O 851.531 -1.99786 -0.254499 0
M  V30 8961 C 848.596 -3.46537 -0.106432 0
M  V30 8962 C 847.657 -4.19932 0.891964 0
M  V30 8963 C 846.89 -5.33103 0.252327 0
M  V30 8964 O 847.113 -5.62398 -0.952103 0
M  V30 8965 O 846.047 -5.94184 0.960698 0
M  V30 8966 H 849.873 -2.67059 1.44613 0
M  V30 8967 H 847.458 -1.28119 0.768499 0
M  V30 8968 H 849.34 -4.18631 -0.482301 0
M  V30 8969 H 848.015 -3.09079 -0.961865 0
M  V30 8970 H 846.922 -3.5008 1.3189 0
M  V30 8971 H 848.255 -4.61287 1.71682 0
M  V30 8972 N 849.908 -0.773975 -1.37286 0
M  V30 8973 C 851.138 -0.350249 -2.03609 0
M  V30 8974 C 851.546 1.03313 -1.58502 0
M  V30 8975 O 850.889 1.67118 -0.7627 0
M  V30 8976 C 850.951 -0.317215 -3.58098 0
M  V30 8977 C 850.615 -1.64556 -4.26345 0
M  V30 8978 C 851.612 -2.59839 -4.50311 0
M  V30 8979 C 849.297 -1.92061 -4.64131 0
M  V30 8980 C 851.291 -3.80833 -5.11122 0
M  V30 8981 C 848.978 -3.13325 -5.24663 0
M  V30 8982 C 849.976 -4.0753 -5.48095 0
M  V30 8983 O 849.664 -5.26658 -6.0736 0
M  V30 8984 H 849.396 -0.144456 -0.660385 0
M  V30 8985 H 851.95 -1.0496 -1.76557 0
M  V30 8986 H 850.18 0.438528 -3.84205 0
M  V30 8987 H 851.869 0.0797428 -4.05822 0
M  V30 8988 H 852.635 -2.39872 -4.21529 0
M  V30 8989 H 848.514 -1.19562 -4.45226 0
M  V30 8990 H 852.058 -4.54377 -5.29327 0
M  V30 8991 H 847.955 -3.33177 -5.52869 0
M  V30 8992 H 848.723 -5.27513 -6.25837 0
M  V30 8993 N 851.386 1.48609 -0.524698 0
M  V30 8994 C 852.316 2.32366 0.229837 0
M  V30 8995 C 853.297 1.41759 0.940129 0
M  V30 8996 O 854.482 1.7065 0.926936 0
M  V30 8997 C 851.612 3.22835 1.28043 0
M  V30 8998 C 850.566 4.22424 0.688603 0
M  V30 8999 C 849.892 5.0199 1.84146 0
M  V30 9000 C 851.192 5.21217 -0.336176 0
M  V30 9001 H 852.886 2.95698 -0.469339 0
M  V30 9002 H 850.432 1.42197 -0.227156 0
M  V30 9003 H 852.385 3.80253 1.8162 0
M  V30 9004 H 851.109 2.57492 2.00912 0
M  V30 9005 H 849.768 3.66185 0.174402 0
M  V30 9006 H 849.416 4.33076 2.5584 0
M  V30 9007 H 849.116 5.69392 1.45142 0
M  V30 9008 H 850.64 5.62259 2.38111 0
M  V30 9009 H 852.054 5.7319 0.112307 0
M  V30 9010 H 850.451 5.96642 -0.643324 0
M  V30 9011 H 851.521 4.68676 -1.24381 0
M  V30 9012 N 852.864 0.259585 1.55447 0
M  V30 9013 C 853.814 -0.648769 2.18575 0
M  V30 9014 C 854.798 -1.1299 1.14552 0
M  V30 9015 O 855.99 -1.07756 1.4042 0
M  V30 9016 C 853.119 -1.83963 2.89849 0
M  V30 9017 C 852.205 -1.37641 4.01143 0
M  V30 9018 N 852.596 -0.628269 5.01883 0
M  V30 9019 C 850.894 -1.66066 4.1393 0
M  V30 9020 C 851.595 -0.386746 5.80413 0
M  V30 9021 N 850.571 -0.954665 5.35151 0
M  V30 9022 H 854.373 -0.0691616 2.93819 0
M  V30 9023 H 851.887 0.0624525 1.6228 0
M  V30 9024 H 853.884 -2.50151 3.33512 0
M  V30 9025 H 852.544 -2.42334 2.16112 0
M  V30 9026 H 853.555 -0.277123 5.17158 0
M  V30 9027 H 850.232 -2.25484 3.51373 0
M  V30 9028 H 851.622 0.211382 6.71567 0
M  V30 9029 N 854.342 -1.57594 -0.0133615 0
M  V30 9030 C 855.29 -2.08682 -1.02736 0
M  V30 9031 C 856.284 -1.00391 -1.36448 0
M  V30 9032 O 857.49 -1.18868 -1.35168 0
M  V30 9033 H 853.865 -0.666158 -0.34891 0
M  V30 9034 H 855.836 -2.9289 -0.570815 0
M  V30 9035 C 854.585 -2.5945 -2.31476 0
M  V30 9036 H 853.908 -3.42401 -2.06401 0
M  V30 9037 H 855.348 -2.98888 -3.00735 0
M  V30 9038 C 853.807 -1.50266 -3.01533 0
M  V30 9039 O 854.337 -0.877875 -3.9199 0
M  V30 9040 N 852.543 -1.23336 -2.63129 0
M  V30 9041 H 852.09 -1.74327 -1.89652 0
M  V30 9042 H 852.048 -0.504987 -3.10318 0
M  V30 9043 N 855.82 0.285905 -1.54985 0
M  V30 9044 C 856.75 1.35752 -1.89983 0
M  V30 9045 C 857.731 1.52163 -0.760295 0
M  V30 9046 O 858.916 1.65421 -1.01733 0
M  V30 9047 C 856.046 2.71925 -2.16042 0
M  V30 9048 C 855 2.70261 -3.31878 0
M  V30 9049 C 854.326 4.09864 -3.43388 0
M  V30 9050 C 855.626 2.30667 -4.68604 0
M  V30 9051 H 857.32 1.06709 -2.79738 0
M  V30 9052 H 854.866 0.511884 -1.34595 0
M  V30 9053 H 856.819 3.46992 -2.39113 0
M  V30 9054 H 855.543 3.02523 -1.23074 0
M  V30 9055 H 854.202 1.97651 -3.08755 0
M  V30 9056 H 853.85 4.37664 -2.47909 0
M  V30 9057 H 853.55 4.09648 -4.21262 0
M  V30 9058 H 855.074 4.86689 -3.68736 0
M  V30 9059 H 856.488 2.95453 -4.91305 0
M  V30 9060 H 854.885 2.41637 -5.49301 0
M  V30 9061 H 855.955 1.25793 -4.68299 0
M  V30 9062 N 857.298 1.47698 0.54982 0
M  V30 9063 C 858.526 1.5833 1.33188 0
M  V30 9064 C 858.941 0.236193 1.87317 0
M  V30 9065 O 858.298 -0.77167 1.65383 0
M  V30 9066 C 858.349 2.61438 2.49664 0
M  V30 9067 O 858.07 3.9092 1.97771 0
M  V30 9068 C 859.571 2.82324 3.41772 0
M  V30 9069 H 856.791 0.53443 0.405741 0
M  V30 9070 H 859.335 1.93375 0.665309 0
M  V30 9071 H 857.49 2.29307 3.12245 0
M  V30 9072 H 857.904 4.47323 2.73866 0
M  V30 9073 H 859.378 3.58316 4.19897 0
M  V30 9074 H 859.855 1.90416 3.95776 0
M  V30 9075 H 860.461 3.15682 2.85 0
M  V30 9076 N 858.776 -0.797141 1.35954 0
M  V30 9077 C 859.708 -1.91782 1.25509 0
M  V30 9078 C 860.721 -1.61843 0.176271 0
M  V30 9079 O 861.91 -1.73235 0.430343 0
M  V30 9080 C 859.01 -3.26396 0.912073 0
M  V30 9081 C 858.183 -3.84171 2.0912 0
M  V30 9082 C 857.242 -4.9721 1.72246 0
M  V30 9083 O 856.268 -5.14136 2.44239 0
M  V30 9084 N 857.47 -5.76831 0.651611 0
M  V30 9085 H 860.235 -2.01266 2.22063 0
M  V30 9086 H 857.796 -0.975033 1.29247 0
M  V30 9087 H 859.788 -3.99499 0.646707 0
M  V30 9088 H 858.358 -3.12579 0.0359079 0
M  V30 9089 H 857.578 -3.03148 2.51982 0
M  V30 9090 H 858.866 -4.19503 2.87914 0
M  V30 9091 H 858.264 -5.65675 0.0536678 0
M  V30 9092 H 856.821 -6.50272 0.44605 0
M  V30 9093 N 860.254 -1.20106 -1.0204 0
M  V30 9094 C 861.665 -1.00992 -1.57027 0
M  V30 9095 C 862.016 0.434782 -1.91322 0
M  V30 9096 O 861.141 1.31557 -1.71819 0
M  V30 9097 C 861.736 -1.82697 -2.85319 0
M  V30 9098 C 860.295 -1.67959 -3.36848 0
M  V30 9099 C 859.442 -1.80868 -2.10195 0
M  V30 9100 H 862.393 -1.34354 -0.844676 0
M  V30 9101 H 862.414 -1.32809 -3.5657 0
M  V30 9102 H 861.926 -2.87839 -2.60328 0
M  V30 9103 H 860.027 -0.654389 -3.66809 0
M  V30 9104 H 860.14 -2.49006 -4.09308 0
M  V30 9105 H 858.504 -1.24015 -2.22469 0
M  V30 9106 H 859.287 -2.87486 -1.87635 0
M  V30 9107 N 861.732 1.21287 -1.00634 0
M  V30 9108 C 862.981 1.89706 -0.685178 0
M  V30 9109 C 863.294 1.79044 0.787566 0
M  V30 9110 O 864.5 2.42502 1.22086 0
M  V30 9111 C 862.956 3.40176 -1.17508 0
M  V30 9112 C 862.564 3.59446 -2.674 0
M  V30 9113 C 864.308 4.14213 -0.928869 0
M  V30 9114 C 862.215 5.03688 -3.09923 0
M  V30 9115 H 861.145 0.710434 -0.252586 0
M  V30 9116 H 863.796 1.37277 -1.21768 0
M  V30 9117 H 862.178 3.91867 -0.570622 0
M  V30 9118 H 863.352 3.18188 -3.33306 0
M  V30 9119 H 861.667 2.98764 -2.9005 0
M  V30 9120 H 864.264 5.20546 -1.22212 0
M  V30 9121 H 864.607 4.16082 0.134859 0
M  V30 9122 H 865.14 3.68591 -1.49619 0
M  V30 9123 H 861.879 5.06968 -4.15529 0
M  V30 9124 H 861.399 5.45796 -2.4873 0
M  V30 9125 H 863.078 5.72204 -3.0198 0
M  V30 9126 N 863.21 0.781244 1.36873 0
M  V30 9127 C 864.459 0.34652 1.98701 0
M  V30 9128 C 864.772 -1.08555 1.62712 0
M  V30 9129 O 865.978 -1.62213 2.17713 0
M  V30 9130 C 864.434 0.568611 3.5538 0
M  V30 9131 C 864.042 2.01156 4.003 0
M  V30 9132 C 865.786 0.197983 4.24038 0
M  V30 9133 C 863.693 2.18074 5.49725 0
M  V30 9134 H 862.623 0.125821 0.743428 0
M  V30 9135 H 865.274 0.961721 1.56279 0
M  V30 9136 H 863.656 -0.116185 3.9583 0
M  V30 9137 H 864.83 2.73209 3.71071 0
M  V30 9138 H 863.145 2.33967 3.44454 0
M  V30 9139 H 865.742 0.302778 5.33842 0
M  V30 9140 H 866.085 -0.852927 4.07469 0
M  V30 9141 H 866.618 0.835696 3.88923 0
M  V30 9142 H 863.357 3.21519 5.71232 0
M  V30 9143 H 862.877 1.50517 5.80607 0
M  V30 9144 H 864.556 1.98393 6.15832 0
M  V30 9145 N 864.689 -1.48329 0.532571 0
M  V30 9146 C 865.639 -2.2664 -0.24868 0
M  V30 9147 C 866.623 -1.32861 -0.907563 0
M  V30 9148 O 867.815 -1.57382 -0.809942 0
M  V30 9149 C 864.944 -3.18004 -1.29339 0
M  V30 9150 C 864.03 -4.19256 -0.639166 0
M  V30 9151 N 864.421 -5.05043 0.276597 0
M  V30 9152 C 862.719 -4.36906 -0.896062 0
M  V30 9153 C 863.42 -5.78009 0.654261 0
M  V30 9154 N 862.396 -5.43598 0.0147447 0
M  V30 9155 H 866.198 -2.90344 0.455792 0
M  V30 9156 H 863.712 -1.58566 0.350778 0
M  V30 9157 H 865.709 -3.72767 -1.86682 0
M  V30 9158 H 864.369 -2.55855 -1.99921 0
M  V30 9159 H 865.38 -5.13813 0.649351 0
M  V30 9160 H 862.057 -3.85945 -1.59226 0
M  V30 9161 H 863.447 -6.57039 1.40532 0
M  V30 9162 N 866.167 -0.267825 -1.55308 0
M  V30 9163 C 867.583 0.0865107 -1.59365 0
M  V30 9164 C 867.783 1.55205 -1.28505 0
M  V30 9165 O 866.839 2.29978 -1.04241 0
M  V30 9166 C 868.152 -0.28155 -2.99379 0
M  V30 9167 C 869.7 -0.227565 -3.12172 0
M  V30 9168 C 870.175 -0.569959 -4.5444 0
M  V30 9169 N 871.666 -0.521238 -4.60258 0
M  V30 9170 C 872.401 -0.759061 -5.68354 0
M  V30 9171 N 871.897 -1.06112 -6.84626 0
M  V30 9172 N 873.69 -0.688351 -5.57869 0
M  V30 9173 H 865.841 -1.22332 -1.73633 0
M  V30 9174 H 868.104 -0.493703 -0.809297 0
M  V30 9175 H 867.81 -1.3005 -3.26772 0
M  V30 9176 H 867.684 0.381192 -3.75269 0
M  V30 9177 H 870.071 0.782093 -2.84548 0
M  V30 9178 H 870.152 -0.924461 -2.38511 0
M  V30 9179 H 869.796 -1.57727 -4.82788 0
M  V30 9180 H 869.726 0.148646 -5.2639 0
M  V30 9181 H 872.217 -0.297359 -3.76728 0
M  V30 9182 H 872.53 -1.22945 -7.62958 0
M  V30 9183 H 870.875 -1.09881 -6.86259 0
M  V30 9184 H 874.066 -0.452268 -4.6591 0
M  V30 9185 H 874.239 -0.877081 -6.42037 0
M  V30 9186 N 867.645 1.57599 0.00500368 0
M  V30 9187 C 868.922 1.81561 0.727654 0
M  V30 9188 C 869.302 0.871604 1.92266 0
M  V30 9189 O 868.65 -0.0808232 2.28357 0
M  V30 9190 C 868.86 3.29922 1.13809 0
M  V30 9191 C 870.208 3.95531 1.54403 0
M  V30 9192 O 871.232 3.34215 1.23202 0
M  V30 9193 O 870.091 5.03535 2.12402 0
M  V30 9194 H 867.185 0.747462 0.353878 0
M  V30 9195 H 869.731 1.69688 -0.0200667 0
M  V30 9196 H 868.503 3.90253 0.286078 0
M  V30 9197 H 868.126 3.46775 1.94507 0
M  V30 9198 N 869.123 -0.277682 1.55134 0
M  V30 9199 C 870.053 -1.34742 1.90701 0
M  V30 9200 C 871.034 -1.51757 0.768354 0
M  V30 9201 O 872.219 -1.64879 1.02609 0
M  V30 9202 C 869.349 -2.70775 2.17481 0
M  V30 9203 C 868.303 -2.68497 3.33307 0
M  V30 9204 C 867.629 -4.08037 3.45557 0
M  V30 9205 C 868.929 -2.28178 4.69821 0
M  V30 9206 H 870.623 -1.05224 2.803 0
M  V30 9207 H 868.169 -0.504738 1.34864 0
M  V30 9208 H 870.122 -3.45719 2.40949 0
M  V30 9209 H 868.846 -3.01867 1.24676 0
M  V30 9210 H 867.505 -1.9601 3.09799 0
M  V30 9211 H 867.153 -4.36344 2.50226 0
M  V30 9212 H 866.853 -4.07409 4.23429 0
M  V30 9213 H 868.377 -4.84726 3.71312 0
M  V30 9214 H 869.791 -2.92843 4.92865 0
M  V30 9215 H 868.188 -2.3872 5.50575 0
M  V30 9216 H 869.258 -1.23308 4.6896 0
M  V30 9217 N 870.601 -1.47988 -0.541979 0
M  V30 9218 C 871.549 -1.62044 -1.66867 0
M  V30 9219 C 872.543 -0.487217 -1.62242 0
M  V30 9220 O 873.749 -0.66554 -1.67244 0
M  V30 9221 H 870.124 -0.51024 -0.552412 0
M  V30 9222 H 872.095 -2.56695 -1.52153 0
M  V30 9223 C 870.844 -1.66615 -3.0518 0
M  V30 9224 H 870.167 -2.5317 -3.09427 0
M  V30 9225 H 871.607 -1.80496 -3.83663 0
M  V30 9226 C 870.066 -0.402421 -3.34488 0
M  V30 9227 O 870.596 0.48992 -3.98701 0
M  V30 9228 N 868.802 -0.277778 -2.89269 0
M  V30 9229 H 868.349 -1.00488 -2.37192 0
M  V30 9230 H 868.307 0.566784 -3.09249 0
M  V30 9231 N 872.079 0.78992 -1.36375 0
M  V30 9232 C 873.304 1.58389 -1.33895 0
M  V30 9233 C 873.729 1.8794 0.0774934 0
M  V30 9234 O 873.087 1.4785 1.0493 0
M  V30 9235 C 873.135 2.88201 -2.16732 0
M  V30 9236 O 872.239 3.81778 -1.55946 0
M  V30 9237 H 871.58 0.480471 -0.458305 0
M  V30 9238 H 874.11 0.979119 -1.79651 0
M  V30 9239 H 874.12 3.37475 -2.29292 0
M  V30 9240 H 872.795 2.66019 -3.19698 0
M  V30 9241 H 871.372 3.40371 -1.52323 0
M  V30 9242 N 873.557 1.20646 1.01402 0
M  V30 9243 C 874.507 0.925209 2.08384 0
M  V30 9244 C 875.491 -0.115994 1.60481 0
M  V30 9245 O 876.683 0.0917276 1.76762 0
M  V30 9246 C 873.812 0.48193 3.399 0
M  V30 9247 C 872.898 1.5567 3.94497 0
M  V30 9248 N 873.289 2.77971 4.2257 0
M  V30 9249 C 871.587 1.42347 4.22674 0
M  V30 9250 C 872.288 3.47317 4.66632 0
M  V30 9251 N 871.264 2.74736 4.69064 0
M  V30 9252 H 875.066 1.85452 2.28002 0
M  V30 9253 H 872.58 1.10084 1.19395 0
M  V30 9254 H 874.577 0.261835 4.16077 0
M  V30 9255 H 873.237 -0.440725 3.21695 0
M  V30 9256 H 874.248 3.14598 4.11398 0
M  V30 9257 H 870.925 0.565417 4.13654 0
M  V30 9258 H 872.315 4.51985 4.97151 0
M  V30 9259 N 875.035 -1.20752 1.01276 0
M  V30 9260 C 875.983 -2.25432 0.572989 0
M  V30 9261 C 876.977 -1.64935 -0.386354 0
M  V30 9262 O 878.183 -1.7816 -0.256696 0
M  V30 9263 H 874.558 -0.733229 0.166972 0
M  V30 9264 H 876.529 -2.59856 1.46687 0
M  V30 9265 C 875.278 -3.47615 -0.0768249 0
M  V30 9266 H 874.601 -3.94442 0.652354 0
M  V30 9267 H 876.041 -4.22572 -0.3477 0
M  V30 9268 C 874.5 -3.1003 -1.31845 0
M  V30 9269 O 875.03 -3.21216 -2.41211 0
M  V30 9270 N 873.236 -2.64616 -1.20111 0
M  V30 9271 H 872.783 -2.55714 -0.311184 0
M  V30 9272 H 872.741 -2.39838 -2.03286 0
M  V30 9273 N 876.513 -0.788492 -1.36457 0
M  V30 9274 C 877.762 -0.357052 -1.98515 0
M  V30 9275 C 878.075 1.0769 -1.63285 0
M  V30 9276 O 879.281 1.61057 -2.1857 0
M  V30 9277 C 877.737 -0.587449 -3.55073 0
M  V30 9278 C 877.345 -2.03276 -3.99228 0
M  V30 9279 C 879.089 -0.220468 -4.23927 0
M  V30 9280 C 876.996 -2.20987 -5.48561 0
M  V30 9281 H 875.926 -0.129762 -0.74275 0
M  V30 9282 H 878.577 -0.969995 -1.55767 0
M  V30 9283 H 876.959 0.0951918 -3.95886 0
M  V30 9284 H 878.133 -2.75173 -3.69617 0
M  V30 9285 H 876.448 -2.3579 -3.43208 0
M  V30 9286 H 879.045 -0.331085 -5.33674 0
M  V30 9287 H 879.388 0.831306 -4.07915 0
M  V30 9288 H 879.921 -0.856309 -3.88474 0
M  V30 9289 H 876.66 -3.24543 -5.69519 0
M  V30 9290 H 876.18 -1.53594 -5.79801 0
M  V30 9291 H 877.859 -2.01656 -6.14771 0
M  V30 9292 N 877.991 1.48044 -0.54043 0
M  V30 9293 C 878.921 2.32597 0.205178 0
M  V30 9294 C 879.902 1.42748 0.925041 0
M  V30 9295 O 881.087 1.71624 0.908784 0
M  V30 9296 C 878.217 3.24175 1.24612 0
M  V30 9297 C 877.171 4.23131 0.64376 0
M  V30 9298 C 876.497 5.03915 1.78812 0
M  V30 9299 C 877.797 5.20831 -0.39144 0
M  V30 9300 H 879.491 2.95184 -0.500676 0
M  V30 9301 H 877.037 1.41948 -0.242225 0
M  V30 9302 H 878.99 3.82158 1.77576 0
M  V30 9303 H 877.714 2.59608 1.98169 0
M  V30 9304 H 876.373 3.66349 0.135554 0
M  V30 9305 H 876.021 4.35765 2.51232 0
M  V30 9306 H 875.721 5.709 1.39094 0
M  V30 9307 H 877.245 5.64753 2.32134 0
M  V30 9308 H 878.659 5.73277 0.0515064 0
M  V30 9309 H 877.056 5.95926 -0.706569 0
M  V30 9310 H 878.126 4.6733 -1.29345 0
M  V30 9311 N 879.47 0.276058 1.55163 0
M  V30 9312 C 880.4 -0.604633 2.25536 0
M  V30 9313 C 881.381 -1.15813 1.24585 0
M  V30 9314 O 882.566 -1.1921 1.53306 0
M  V30 9315 C 879.696 -1.78836 2.97716 0
M  V30 9316 C 878.65 -1.36635 4.05604 0
M  V30 9317 C 877.976 -2.63325 4.65364 0
M  V30 9318 C 879.276 -0.515858 5.19746 0
M  V30 9319 H 880.97 -0.0177483 2.99395 0
M  V30 9320 H 878.516 -0.00709627 1.43998 0
M  V30 9321 H 880.469 -2.41036 3.45658 0
M  V30 9322 H 879.193 -2.40109 2.21394 0
M  V30 9323 H 877.852 -0.767541 3.58475 0
M  V30 9324 H 877.5 -3.22858 3.85709 0
M  V30 9325 H 877.2 -2.358 5.38212 0
M  V30 9326 H 878.724 -3.26372 5.16056 0
M  V30 9327 H 880.138 -1.04289 5.63735 0
M  V30 9328 H 878.535 -0.335449 5.99162 0
M  V30 9329 H 879.605 0.465137 4.82664 0
M  V30 9330 N 880.948 -1.576 0.00335426 0
M  V30 9331 C 882.178 -1.94713 -0.690682 0
M  V30 9332 C 882.586 -0.876915 -1.67651 0
M  V30 9333 O 881.929 0.152434 -1.83066 0
M  V30 9334 C 881.991 -3.27833 -1.47532 0
M  V30 9335 C 881.655 -4.52344 -0.650704 0
M  V30 9336 C 882.652 -5.19862 0.0630537 0
M  V30 9337 C 880.337 -4.98755 -0.595687 0
M  V30 9338 C 882.331 -6.32093 0.820779 0
M  V30 9339 C 880.018 -6.10875 0.165761 0
M  V30 9340 C 881.016 -6.77401 0.872724 0
M  V30 9341 O 880.704 -7.87372 1.62174 0
M  V30 9342 H 880.436 -0.646627 -0.197104 0
M  V30 9343 H 882.99 -2.05335 0.0516082 0
M  V30 9344 H 881.22 -3.13628 -2.26217 0
M  V30 9345 H 882.909 -3.50034 -2.05501 0
M  V30 9346 H 883.675 -4.84991 0.0297223 0
M  V30 9347 H 879.554 -4.46797 -1.13549 0
M  V30 9348 H 883.098 -6.83953 1.37312 0
M  V30 9349 H 878.995 -6.45187 0.200901 0
M  V30 9350 H 879.763 -8.03905 1.5388 0
M  V30 9351 N 882.426 0.269451 -1.5528 0
M  V30 9352 C 883.336 1.35511 -1.91505 0
M  V30 9353 C 884.352 1.53854 -0.812712 0
M  V30 9354 O 885.528 1.67912 -1.1121 0
M  V30 9355 C 882.593 2.6937 -2.18267 0
M  V30 9356 C 881.654 2.59743 -3.41807 0
M  V30 9357 C 880.887 3.87219 -3.67283 0
M  V30 9358 O 881.11 4.88066 -2.95208 0
M  V30 9359 O 880.044 3.87209 -4.60818 0
M  V30 9360 H 883.87 1.07785 -2.8393 0
M  V30 9361 H 881.455 0.468282 -1.41871 0
M  V30 9362 H 883.337 3.48513 -2.36889 0
M  V30 9363 H 882.012 2.96874 -1.29024 0
M  V30 9364 H 880.919 1.78964 -3.28516 0
M  V30 9365 H 882.252 2.37188 -4.3128 0
M  V30 9366 N 883.904 1.48273 0.534124 0
M  V30 9367 C 885.181 1.46567 1.29528 0
M  V30 9368 C 885.561 0.17509 2.10373 0
M  V30 9369 O 884.909 -0.843228 2.12372 0
M  V30 9370 C 885.119 2.72519 2.18023 0
M  V30 9371 C 886.467 3.2068 2.78298 0
M  V30 9372 O 887.491 2.73408 2.28313 0
M  V30 9373 O 886.35 4.02924 3.69208 0
M  V30 9374 H 883.444 0.585151 0.584403 0
M  V30 9375 H 885.99 1.60502 0.551119 0
M  V30 9376 H 884.762 3.57965 1.5804 0
M  V30 9377 H 884.385 2.61285 2.99693 0
M  V30 9378 N 885.382 -0.782676 1.36792 0
M  V30 9379 C 886.63 -1.53778 1.31136 0
M  V30 9380 C 886.951 -1.94706 -0.107014 0
M  V30 9381 O 886.221 -1.65465 -1.04872 0
M  V30 9382 H 884.801 -0.570328 0.482426 0
M  V30 9383 H 887.463 -0.932181 1.71162 0
M  V30 9384 H 886.559 -2.44224 1.94321 0
M  V30 9385 N 886.86 -1.21182 -1.00761 0
M  V30 9386 C 887.81 -0.936247 -2.0789 0
M  V30 9387 C 888.794 0.107482 -1.60541 0
M  V30 9388 O 889.986 -0.1011 -1.76711 0
M  V30 9389 C 887.115 -0.499949 -3.3964 0
M  V30 9390 C 886.201 -1.5776 -3.93666 0
M  V30 9391 N 886.592 -2.80208 -4.2109 0
M  V30 9392 C 884.89 -1.44586 -4.21913 0
M  V30 9393 C 885.591 -3.49787 -4.64784 0
M  V30 9394 N 884.567 -2.7722 -4.676 0
M  V30 9395 H 888.369 -1.86659 -2.27015 0
M  V30 9396 H 885.883 -1.10716 -1.1881 0
M  V30 9397 H 887.88 -0.283897 -4.15932 0
M  V30 9398 H 886.54 0.423659 -3.21924 0
M  V30 9399 H 887.551 -3.16776 -4.09724 0
M  V30 9400 H 884.228 -0.587346 -4.13348 0
M  V30 9401 H 885.618 -4.54615 -4.94747 0
M  V30 9402 N 888.338 1.20213 -1.01915 0
M  V30 9403 C 889.301 2.21307 -0.596327 0
M  V30 9404 C 890.301 1.57274 0.334879 0
M  V30 9405 O 891.491 1.73764 0.12322 0
M  V30 9406 C 888.623 3.40657 0.128808 0
M  V30 9407 H 889.816 2.60228 -1.49068 0
M  V30 9408 H 887.369 1.33721 -0.809226 0
M  V30 9409 H 888.104 3.07241 1.03796 0
M  V30 9410 H 887.889 3.88361 -0.540183 0
M  V30 9411 H 889.379 4.15564 0.411892 0
M  V30 9412 N 889.816 0.795718 1.36037 0
M  V30 9413 C 891.062 0.371574 1.99367 0
M  V30 9414 C 891.395 -1.0557 1.62999 0
M  V30 9415 O 890.67 -1.73051 0.887895 0
M  V30 9416 C 890.953 0.542622 3.55988 0
M  V30 9417 C 890.806 2.01404 4.0219 0
M  V30 9418 C 892.125 -0.0384527 4.40083 0
M  V30 9419 H 889.244 0.136483 0.724252 0
M  V30 9420 H 891.886 1.00323 1.61355 0
M  V30 9421 H 890.036 0.0049053 3.885 0
M  V30 9422 H 891.708 2.6133 3.80137 0
M  V30 9423 H 889.951 2.51439 3.53498 0
M  V30 9424 H 890.622 2.08466 5.11122 0
M  V30 9425 H 893.098 0.420634 4.13968 0
M  V30 9426 H 891.974 0.111214 5.48787 0
M  V30 9427 H 892.235 -1.13116 4.27384 0
M  V30 9428 N 891.294 -1.47756 0.548274 0
M  V30 9429 C 892.54 -2.02789 0.0209265 0
M  V30 9430 C 892.873 -1.42268 -1.32187 0
M  V30 9431 O 892.148 -0.575001 -1.85806 0
M  V30 9432 C 892.431 -3.60007 -0.0816674 0
M  V30 9433 C 892.284 -4.30977 1.28759 0
M  V30 9434 C 893.603 -4.32777 -0.799515 0
M  V30 9435 H 890.722 -0.736944 0.00907884 0
M  V30 9436 H 893.364 -1.76282 0.708839 0
M  V30 9437 H 891.514 -3.82722 -0.667537 0
M  V30 9438 H 893.186 -4.19629 1.91597 0
M  V30 9439 H 891.429 -3.9168 1.86466 0
M  V30 9440 H 892.1 -5.39488 1.16861 0
M  V30 9441 H 894.576 -4.15001 -0.30216 0
M  V30 9442 H 893.452 -5.42431 -0.840239 0
M  V30 9443 H 893.713 -4.01358 -1.85375 0
M  V30 9444 N 892.772 -0.284283 -1.55015 0
M  V30 9445 C 893.735 0.586182 -2.21577 0
M  V30 9446 C 894.735 1.07427 -1.1965 0
M  V30 9447 O 895.925 0.972977 -1.44495 0
M  V30 9448 C 893.057 1.80973 -2.88897 0
M  V30 9449 H 894.25 0.00487253 -2.999 0
M  V30 9450 H 891.803 -0.0349696 -1.56261 0
M  V30 9451 H 892.538 2.43131 -2.14611 0
M  V30 9452 H 892.323 1.46757 -3.636 0
M  V30 9453 H 893.813 2.42853 -3.39724 0
M  V30 9454 N 894.251 1.57596 -0.0117121 0
M  V30 9455 C 895.528 1.82323 0.708356 0
M  V30 9456 C 895.908 0.891947 1.91331 0
M  V30 9457 O 895.256 -0.0565984 2.2843 0
M  V30 9458 C 895.466 3.31111 1.10303 0
M  V30 9459 C 896.814 3.97147 1.50199 0
M  V30 9460 O 897.838 3.35503 1.1965 0
M  V30 9461 O 896.697 5.0576 2.07049 0
M  V30 9462 H 893.791 0.751173 0.345931 0
M  V30 9463 H 896.337 1.69657 -0.0380632 0
M  V30 9464 H 895.109 3.90534 0.24467 0
M  V30 9465 H 894.732 3.48818 1.90818 0
M  V30 9466 N 895.729 -0.261212 1.5542 0
M  V30 9467 C 896.976 -0.99123 1.76581 0
M  V30 9468 C 897.304 -1.85854 0.573457 0
M  V30 9469 O 896.559 -1.90604 -0.443705 0
M  V30 9470 C 896.858 -1.89395 3.03091 0
M  V30 9471 C 896.524 -1.18318 4.351 0
M  V30 9472 C 895.186 -0.986688 4.70975 0
M  V30 9473 C 897.538 -0.678299 5.16767 0
M  V30 9474 C 894.866 -0.272788 5.86065 0
M  V30 9475 C 897.218 0.0220646 6.32596 0
M  V30 9476 C 895.882 0.230161 6.67103 0
M  V30 9477 H 895.152 -0.362717 0.646156 0
M  V30 9478 H 897.799 -0.262506 1.89692 0
M  V30 9479 H 896.104 -2.68927 2.8493 0
M  V30 9480 H 897.801 -2.46022 3.16661 0
M  V30 9481 H 894.391 -1.34625 4.06908 0
M  V30 9482 H 898.575 -0.817691 4.89518 0
M  V30 9483 H 893.831 -0.10095 6.11317 0
M  V30 9484 H 898.005 0.420981 6.95126 0
M  V30 9485 H 895.632 0.785312 7.56133 0
M  V30 9486 N 897.207 -1.48554 -0.526253 0
M  V30 9487 C 898.455 -1.56452 -1.27935 0
M  V30 9488 C 898.776 -0.24184 -1.93495 0
M  V30 9489 O 898.046 0.736917 -1.81511 0
M  V30 9490 H 896.626 -0.576379 -0.47518 0
M  V30 9491 H 899.288 -1.85039 -0.612083 0
M  V30 9492 H 898.384 -2.34751 -2.05666 0
M  V30 9493 N 898.685 0.775411 -1.37205 0
M  V30 9494 C 899.595 1.91967 -1.34855 0
M  V30 9495 C 900.611 1.72214 -0.248656 0
M  V30 9496 O 901.787 1.95512 -0.483421 0
M  V30 9497 C 898.852 3.27038 -1.15096 0
M  V30 9498 C 897.913 3.5947 -2.34691 0
M  V30 9499 C 897.146 4.88097 -2.15865 0
M  V30 9500 O 897.369 5.58871 -1.14102 0
M  V30 9501 O 896.303 5.19507 -3.03967 0
M  V30 9502 H 900.129 1.969 -2.31223 0
M  V30 9503 H 897.714 0.917647 -1.17897 0
M  V30 9504 H 899.596 4.07837 -1.0605 0
M  V30 9505 H 898.271 3.22965 -0.217999 0
M  V30 9506 H 897.178 2.7892 -2.49308 0
M  V30 9507 H 898.511 3.68282 -3.26541 0
M  V30 9508 N 900.163 1.21714 1.00117 0
M  V30 9509 C 901.388 1.06357 1.78054 0
M  V30 9510 C 901.813 -0.382075 1.84179 0
M  V30 9511 O 901.171 -1.27575 1.28819 0
M  V30 9512 C 901.219 1.66982 3.19608 0
M  V30 9513 O 900.323 0.917892 4.02055 0
M  V30 9514 H 899.664 0.374074 0.548602 0
M  V30 9515 H 902.194 1.61338 1.25822 0
M  V30 9516 H 902.204 1.71363 3.70268 0
M  V30 9517 H 900.879 2.72185 3.14465 0
M  V30 9518 H 899.456 0.949473 3.6061 0
M  V30 9519 N 901.641 -1.19671 1.02551 0
M  V30 9520 C 903.057 -1.41305 0.741963 0
M  V30 9521 C 903.257 -1.89865 -0.674807 0
M  V30 9522 O 902.313 -2.07323 -1.44129 0
M  V30 9523 C 903.626 -2.42706 1.77522 0
M  V30 9524 C 905.174 -2.56458 1.79438 0
M  V30 9525 C 905.649 -3.61111 2.81715 0
M  V30 9526 N 907.14 -3.68603 2.8051 0
M  V30 9527 C 907.875 -4.49262 3.56302 0
M  V30 9528 N 907.371 -5.33653 4.41799 0
M  V30 9529 N 909.164 -4.43879 3.44859 0
M  V30 9530 H 901.315 -0.8647 1.94002 0
M  V30 9531 H 903.578 -0.442206 0.838545 0
M  V30 9532 H 903.284 -2.14042 2.79068 0
M  V30 9533 H 903.158 -3.41831 1.59472 0
M  V30 9534 H 905.545 -2.84447 0.78573 0
M  V30 9535 H 905.626 -1.57499 2.01563 0
M  V30 9536 H 905.27 -3.33864 3.82749 0
M  V30 9537 H 905.2 -4.59713 2.56849 0
M  V30 9538 H 907.691 -3.08329 2.18498 0
M  V30 9539 H 908.004 -5.92308 4.96378 0
M  V30 9540 H 906.349 -5.33125 4.45873 0
M  V30 9541 H 909.54 -3.7699 2.77482 0
M  V30 9542 H 909.713 -5.06501 4.04179 0
M  V30 9543 N 903.119 -0.802921 -1.35613 0
M  V30 9544 C 904.366 -0.381576 -1.98872 0
M  V30 9545 C 904.694 1.0503 -1.63704 0
M  V30 9546 O 903.949 1.7427 -0.890418 0
M  V30 9547 C 904.248 -0.507806 -3.53774 0
M  V30 9548 C 903.914 -1.90245 -4.088 0
M  V30 9549 C 902.576 -2.28401 -4.2354 0
M  V30 9550 C 904.928 -2.81504 -4.3864 0
M  V30 9551 C 902.256 -3.57192 -4.65436 0
M  V30 9552 C 904.608 -4.09737 -4.81973 0
M  V30 9553 C 903.272 -4.47897 -4.94919 0
M  V30 9554 H 902.542 -0.139629 -0.727726 0
M  V30 9555 H 905.189 -1.023 -1.61886 0
M  V30 9556 H 903.494 0.21708 -3.91198 0
M  V30 9557 H 905.191 -0.162625 -4.0067 0
M  V30 9558 H 901.781 -1.596 -3.97776 0
M  V30 9559 H 905.965 -2.53276 -4.26808 0
M  V30 9560 H 901.221 -3.86611 -4.73648 0
M  V30 9561 H 905.395 -4.80555 -5.04024 0
M  V30 9562 H 903.022 -5.47747 -5.27141 0
M  V30 9563 N 904.597 1.47463 -0.556102 0
M  V30 9564 C 905.527 2.32801 0.180497 0
M  V30 9565 C 906.508 1.43721 0.909848 0
M  V30 9566 O 907.693 1.72578 0.89053 0
M  V30 9567 C 904.823 3.25478 1.21167 0
M  V30 9568 C 903.777 4.2379 0.598846 0
M  V30 9569 C 903.103 5.05783 1.73457 0
M  V30 9570 C 904.403 5.20387 -0.446659 0
M  V30 9571 H 906.097 2.94636 -0.531956 0
M  V30 9572 H 903.643 1.41683 -0.257267 0
M  V30 9573 H 905.596 3.8402 1.73513 0
M  V30 9574 H 904.32 2.61695 1.95405 0
M  V30 9575 H 902.979 3.66472 0.0966897 0
M  V30 9576 H 902.627 4.38405 2.46596 0
M  V30 9577 H 902.327 5.72343 1.33031 0
M  V30 9578 H 903.851 5.67183 2.26131 0
M  V30 9579 H 905.265 5.73299 -0.00930019 0
M  V30 9580 H 903.662 5.95143 -0.769735 0
M  V30 9581 H 904.732 4.65932 -1.34295 0
M  V30 9582 N 906.075 0.2925 1.54862 0
M  V30 9583 C 907.007 -0.620889 2.2063 0
M  V30 9584 C 908.02 -1.10412 1.19637 0
M  V30 9585 O 909.209 -1.02304 1.46274 0
M  V30 9586 C 906.309 -1.861 2.83232 0
M  V30 9587 C 905.482 -1.52168 4.10078 0
M  V30 9588 C 904.541 -2.61605 4.56562 0
M  V30 9589 O 903.567 -2.27056 5.21952 0
M  V30 9590 N 904.769 -3.9199 4.28163 0
M  V30 9591 H 907.534 -0.0579028 2.99644 0
M  V30 9592 H 905.095 0.114333 1.61496 0
M  V30 9593 H 907.087 -2.58642 3.11266 0
M  V30 9594 H 905.657 -2.33259 2.08108 0
M  V30 9595 H 904.877 -0.629283 3.89145 0
M  V30 9596 H 906.165 -1.27023 4.92689 0
M  V30 9597 H 905.563 -4.22872 3.7576 0
M  V30 9598 H 904.12 -4.60857 4.60928 0
M  V30 9599 N 907.553 -1.57587 0.0200696 0
M  V30 9600 C 908.778 -1.96124 -0.674547 0
M  V30 9601 C 909.203 -0.896068 -1.65385 0
M  V30 9602 O 908.561 0.143925 -1.80728 0
M  V30 9603 C 908.609 -3.3376 -1.36517 0
M  V30 9604 O 907.713 -3.29483 -2.48022 0
M  V30 9605 H 907.054 -0.639719 -0.177919 0
M  V30 9606 H 909.584 -2.04447 0.0792317 0
M  V30 9607 H 909.594 -3.69785 -1.72403 0
M  V30 9608 H 908.269 -4.10832 -0.647265 0
M  V30 9609 H 906.846 -3.05162 -2.14314 0
M  V30 9610 N 909.032 0.252966 -1.55557 0
M  V30 9611 C 909.962 1.31691 -1.9282 0
M  V30 9612 C 910.943 1.50516 -0.7924 0
M  V30 9613 O 912.128 1.63225 -1.05219 0
M  V30 9614 C 909.258 2.67281 -2.21762 0
M  V30 9615 C 908.212 2.6316 -3.37536 0
M  V30 9616 C 907.538 4.02488 -3.52005 0
M  V30 9617 C 908.838 2.20675 -4.73392 0
M  V30 9618 H 910.532 1.00751 -2.81939 0
M  V30 9619 H 908.078 0.483219 -1.3565 0
M  V30 9620 H 910.031 3.41842 -2.46419 0
M  V30 9621 H 908.755 2.99845 -1.29463 0
M  V30 9622 H 907.414 1.91057 -3.12878 0
M  V30 9623 H 907.062 4.32307 -2.57137 0
M  V30 9624 H 906.762 4.00621 -4.29857 0
M  V30 9625 H 908.286 4.78758 -3.78977 0
M  V30 9626 H 909.7 2.84965 -4.97461 0
M  V30 9627 H 908.097 2.29931 -5.54303 0
M  V30 9628 H 909.167 1.15831 -4.70862 0
M  V30 9629 N 910.51 1.48831 0.518367 0
M  V30 9630 C 911.787 1.47933 1.27966 0
M  V30 9631 C 912.167 0.197393 2.10175 0
M  V30 9632 O 911.515 -0.820656 2.13255 0
M  V30 9633 C 911.725 2.74816 2.15121 0
M  V30 9634 C 913.073 3.23613 2.74881 0
M  V30 9635 O 914.097 2.75814 2.254 0
M  V30 9636 O 912.956 4.06818 3.64913 0
M  V30 9637 H 910.05 0.591316 0.578164 0
M  V30 9638 H 912.596 1.61077 0.534065 0
M  V30 9639 H 911.368 3.59621 1.54234 0
M  V30 9640 H 910.991 2.64449 2.96905 0
M  V30 9641 N 911.988 -0.768124 1.37614 0
M  V30 9642 C 912.898 -1.91249 1.35871 0
M  V30 9643 C 913.914 -1.7208 0.257786 0
M  V30 9644 O 915.09 -1.95253 0.493782 0
M  V30 9645 C 912.155 -3.26423 1.16829 0
M  V30 9646 C 911.216 -3.5822 2.36594 0
M  V30 9647 C 910.449 -4.86945 2.1845 0
M  V30 9648 O 910.672 -5.58258 1.17064 0
M  V30 9649 O 909.606 -5.17888 3.06718 0
M  V30 9650 H 913.432 -1.95671 2.32264 0
M  V30 9651 H 911.017 -0.911382 1.18382 0
M  V30 9652 H 912.899 -4.07269 1.08212 0
M  V30 9653 H 911.574 -3.22845 0.235123 0
M  V30 9654 H 910.481 -2.77594 2.50783 0
M  V30 9655 H 911.814 -3.66545 3.2849 0
M  V30 9656 N 913.466 -1.22244 -0.994698 0
M  V30 9657 C 914.743 -0.954459 -1.70732 0
M  V30 9658 C 915.123 0.530945 -2.04314 0
M  V30 9659 O 914.471 1.49851 -1.72502 0
M  V30 9660 C 914.681 -1.85016 -2.95922 0
M  V30 9661 C 916.029 -2.10517 -3.68738 0
M  V30 9662 O 917.053 -1.82449 -3.05926 0
M  V30 9663 O 915.912 -2.58044 -4.81742 0
M  V30 9664 H 913.006 -0.35879 -0.745116 0
M  V30 9665 H 915.552 -1.33221 -1.0512 0
M  V30 9666 H 914.324 -2.85498 -2.67594 0
M  V30 9667 H 913.947 -1.47388 -3.69273 0
M  V30 9668 N 914.944 1.19125 -1.03184 0
M  V30 9669 C 915.892 2.24492 -0.608781 0
M  V30 9670 C 916.886 1.65529 0.360065 0
M  V30 9671 O 918.092 1.78546 0.22832 0
M  V30 9672 H 914.467 0.73048 -0.178616 0
M  V30 9673 H 916.438 2.5749 -1.50803 0
M  V30 9674 C 915.187 3.47693 0.0215126 0
M  V30 9675 H 914.51 3.93354 -0.715024 0
M  V30 9676 H 915.95 4.23072 0.280429 0
M  V30 9677 C 914.409 3.12088 1.26896 0
M  V30 9678 O 914.939 3.25013 2.36071 0
M  V30 9679 N 913.145 2.66494 1.15886 0
M  V30 9680 H 912.692 2.56176 0.270463 0
M  V30 9681 H 912.65 2.43042 1.99444 0
M  V30 9682 N 916.422 0.810101 1.35185 0
M  V30 9683 C 917.355 0.168416 2.27578 0
M  V30 9684 C 918.333 -0.667664 1.4826 0
M  V30 9685 O 919.517 -0.634184 1.77512 0
M  V30 9686 C 916.644 -0.765994 3.29925 0
M  V30 9687 C 915.69 -0.00908802 4.26499 0
M  V30 9688 S 916.523 1.32936 5.18737 0
M  V30 9689 C 917.679 0.399485 6.24624 0
M  V30 9690 H 917.912 0.951753 2.81654 0
M  V30 9691 H 915.445 0.60534 1.42039 0
M  V30 9692 H 917.403 -1.2996 3.89385 0
M  V30 9693 H 916.064 -1.52275 2.7472 0
M  V30 9694 H 915.257 -0.718919 4.98846 0
M  V30 9695 H 914.859 0.454663 3.71226 0
M  V30 9696 H 917.151 -0.413904 6.76234 0
M  V30 9697 H 918.094 1.09225 6.99625 0
M  V30 9698 H 918.502 -0.00638358 5.645 0
M  V30 9699 N 917.9 -1.47166 0.563914 0
M  V30 9700 C 919.128 -2.06846 0.0474287 0
M  V30 9701 C 919.543 -1.41557 -1.24928 0
M  V30 9702 O 918.9 -0.514376 -1.75101 0
M  V30 9703 C 918.951 -3.6121 -0.144831 0
M  V30 9704 O 918.672 -4.24052 1.10053 0
M  V30 9705 C 920.173 -4.37773 -0.69783 0
M  V30 9706 H 917.393 -0.669217 0.0488896 0
M  V30 9707 H 919.937 -1.89072 0.779235 0
M  V30 9708 H 918.092 -3.78474 -0.82679 0
M  V30 9709 H 918.506 -5.16677 0.902481 0
M  V30 9710 H 919.98 -5.46438 -0.781616 0
M  V30 9711 H 920.457 -4.04517 -1.71063 0
M  V30 9712 H 921.063 -4.25269 -0.0513516 0
M  V30 9713 N 919.378 -0.300708 -1.54705 0
M  V30 9714 C 920.325 0.57552 -2.23509 0
M  V30 9715 C 921.295 1.12979 -1.21758 0
M  V30 9716 O 922.48 1.17437 -1.50377 0
M  V30 9717 C 919.62 1.74167 -2.97926 0
M  V30 9718 C 918.733 1.21882 -4.1445 0
M  V30 9719 C 917.868 2.34881 -4.7645 0
M  V30 9720 C 916.907 1.79729 -5.85119 0
M  V30 9721 N 916.044 2.863 -6.41075 0
M  V30 9722 H 920.884 -0.0178257 -2.97995 0
M  V30 9723 H 918.421 -0.0205666 -1.47086 0
M  V30 9724 H 920.379 2.42753 -3.39303 0
M  V30 9725 H 919.009 2.30665 -2.25817 0
M  V30 9726 H 918.061 0.425227 -3.78016 0
M  V30 9727 H 919.373 0.775065 -4.92741 0
M  V30 9728 H 918.527 3.11415 -5.20678 0
M  V30 9729 H 917.266 2.82584 -3.97489 0
M  V30 9730 H 916.271 1.01684 -5.40315 0
M  V30 9731 H 917.496 1.32931 -6.65963 0
M  V30 9732 H 915.442 3.33337 -5.64998 0
M  V30 9733 H 915.359 2.46419 -7.14712 0
M  V30 9734 H 916.627 3.62732 -6.89961 0
M  V30 9735 N 920.856 1.57574 -0.0284266 0
M  V30 9736 C 921.788 2.07079 0.982391 0
M  V30 9737 C 922.801 0.994078 1.28926 0
M  V30 9738 O 923.99 1.27028 1.25404 0
M  V30 9739 C 921.09 2.47978 2.30998 0
M  V30 9740 C 920.263 3.7872 2.18838 0
M  V30 9741 C 919.322 4.06177 3.34524 0
M  V30 9742 O 918.348 4.76438 3.11441 0
M  V30 9743 N 919.55 3.56297 4.58293 0
M  V30 9744 H 922.315 2.94421 0.560011 0
M  V30 9745 H 919.876 1.61124 0.158347 0
M  V30 9746 H 921.868 2.63439 3.07216 0
M  V30 9747 H 920.438 1.66005 2.64879 0
M  V30 9748 H 919.658 3.73062 1.27351 0
M  V30 9749 H 920.946 4.6438 2.07915 0
M  V30 9750 H 920.344 2.99453 4.79942 0
M  V30 9751 H 918.901 3.77038 5.31682 0
M  V30 9752 N 922.334 -0.244713 1.55689 0
M  V30 9753 C 923.745 -0.813603 1.6804 0
M  V30 9754 C 924.096 -1.85936 0.626281 0
M  V30 9755 O 923.221 -2.15206 -0.227038 0
M  V30 9756 C 923.816 -1.48252 3.04642 0
M  V30 9757 C 922.375 -1.99908 3.18926 0
M  V30 9758 C 921.522 -0.850958 2.6392 0
M  V30 9759 H 924.473 -0.0204805 1.58687 0
M  V30 9760 H 924.494 -2.35062 2.99209 0
M  V30 9761 H 924.006 -0.721164 3.81341 0
M  V30 9762 H 922.107 -2.78918 2.47054 0
M  V30 9763 H 922.22 -2.19497 4.25862 0
M  V30 9764 H 920.584 -1.25206 2.21801 0
M  V30 9765 H 921.367 -0.10265 3.43146 0
M  V30 9766 N 923.813 -1.49104 -0.510467 0
M  V30 9767 C 925.061 -1.578 -1.26268 0
M  V30 9768 C 925.382 -0.262349 -1.93227 0
M  V30 9769 O 924.652 0.717624 -1.82283 0
M  V30 9770 H 923.232 -0.581387 -0.46904 0
M  V30 9771 H 925.894 -1.85678 -0.592423 0
M  V30 9772 H 924.99 -2.36919 -2.03165 0
M  V30 9773 N 925.291 0.760815 -1.38019 0
M  V30 9774 C 926.239 1.89578 -1.34771 0
M  V30 9775 C 927.233 1.67766 -0.234714 0
M  V30 9776 O 928.439 1.75423 -0.403352 0
M  V30 9777 H 924.814 0.623608 -0.420258 0
M  V30 9778 H 926.785 1.89434 -2.30558 0
M  V30 9779 C 925.534 3.26976 -1.18246 0
M  V30 9780 H 924.857 3.44342 -2.03147 0
M  V30 9781 H 926.297 4.06657 -1.20026 0
M  V30 9782 C 924.756 3.36717 0.111145 0
M  V30 9783 O 925.286 3.86607 1.09079 0
M  V30 9784 N 923.492 2.90128 0.165542 0
M  V30 9785 H 923.039 2.49719 -0.632328 0
M  V30 9786 H 922.997 2.97026 1.03067 0
M  V30 9787 N 926.769 1.22769 0.988202 0
M  V30 9788 C 927.699 1.02627 2.09738 0
M  V30 9789 C 928.68 -0.0543211 1.70013 0
M  V30 9790 O 929.865 0.108811 1.93895 0
M  V30 9791 C 926.995 0.608302 3.41931 0
M  V30 9792 C 925.949 1.63536 3.95525 0
M  V30 9793 C 925.275 1.07308 5.23822 0
M  V30 9794 C 926.575 3.02649 4.25677 0
M  V30 9795 H 928.269 1.954 2.26847 0
M  V30 9796 H 925.815 0.940888 1.09011 0
M  V30 9797 H 927.768 0.454478 4.18942 0
M  V30 9798 H 926.492 -0.355095 3.24664 0
M  V30 9799 H 925.151 1.77704 3.20651 0
M  V30 9800 H 924.799 0.100894 5.02899 0
M  V30 9801 H 924.499 1.75925 5.60646 0
M  V30 9802 H 926.023 0.930938 6.03462 0
M  V30 9803 H 927.437 2.91828 4.93467 0
M  V30 9804 H 925.834 3.68434 4.73684 0
M  V30 9805 H 926.904 3.52228 3.33262 0
M  V30 9806 N 928.247 -1.18576 1.03814 0
M  V30 9807 C 929.663 -1.4051 0.756909 0
M  V30 9808 C 929.863 -1.9057 -0.654631 0
M  V30 9809 O 928.919 -2.0884 -1.41922 0
M  V30 9810 C 930.232 -2.4081 1.80087 0
M  V30 9811 C 931.78 -2.54541 1.82148 0
M  V30 9812 C 932.255 -3.58102 2.85529 0
M  V30 9813 N 933.746 -3.65607 2.84404 0
M  V30 9814 C 934.481 -4.45458 3.61047 0
M  V30 9815 N 933.977 -5.28937 4.47434 0
M  V30 9816 N 935.77 -4.40196 3.49548 0
M  V30 9817 H 927.921 -0.844075 1.94908 0
M  V30 9818 H 930.184 -0.433287 0.843188 0
M  V30 9819 H 929.89 -2.1107 2.81322 0
M  V30 9820 H 929.764 -3.4012 1.63089 0
M  V30 9821 H 932.151 -2.83598 0.815855 0
M  V30 9822 H 932.232 -1.55352 2.03223 0
M  V30 9823 H 931.876 -3.29786 3.86269 0
M  V30 9824 H 931.806 -4.56963 2.6171 0
M  V30 9825 H 934.297 -3.05994 2.21756 0
M  V30 9826 H 934.61 -5.8701 5.02632 0
M  V30 9827 H 932.955 -5.28366 4.51503 0
M  V30 9828 H 936.146 -3.74026 2.81464 0
M  V30 9829 H 936.319 -5.02186 4.09528 0
M  V30 9830 N 929.725 -0.817259 -1.34754 0
M  V30 9831 C 930.971 -0.412407 -1.99175 0
M  V30 9832 C 931.326 1.01192 -1.6364 0
M  V30 9833 O 930.619 1.69417 -0.894897 0
M  V30 9834 C 930.813 -0.5453 -3.53216 0
M  V30 9835 C 930.642 -1.981 -4.03716 0
M  V30 9836 C 929.412 -2.61167 -4.32574 0
M  V30 9837 C 931.61 -2.94698 -4.21494 0
M  V30 9838 N 929.592 -3.96035 -4.69073 0
M  V30 9839 C 930.963 -4.14462 -4.61109 0
M  V30 9840 C 933.018 -2.9139 -4.03728 0
M  V30 9841 C 931.721 -5.31363 -4.84815 0
M  V30 9842 C 933.747 -4.07502 -4.28598 0
M  V30 9843 C 933.109 -5.26016 -4.68494 0
M  V30 9844 H 929.208 -0.198899 -0.756282 0
M  V30 9845 H 931.792 -1.06076 -1.63266 0
M  V30 9846 H 929.963 0.073122 -3.88331 0
M  V30 9847 H 931.695 -0.113999 -4.04539 0
M  V30 9848 H 928.45 -2.12446 -4.23277 0
M  V30 9849 H 928.874 -4.65502 -4.91566 0
M  V30 9850 H 933.516 -2.00908 -3.72016 0
M  V30 9851 H 931.234 -6.22408 -5.15397 0
M  V30 9852 H 934.82 -4.06335 -4.16393 0
M  V30 9853 H 933.7 -6.14369 -4.87361 0
M  V30 9854 N 931.203 1.46865 -0.571711 0
M  V30 9855 C 932.136 2.27176 0.215944 0
M  V30 9856 C 933.114 1.34951 0.907035 0
M  V30 9857 O 934.298 1.64349 0.923127 0
M  V30 9858 C 931.425 3.12388 1.30888 0
M  V30 9859 C 930.471 4.20296 0.724804 0
M  V30 9860 S 931.304 5.33691 -0.439839 0
M  V30 9861 C 932.46 6.22468 0.654564 0
M  V30 9862 H 932.693 2.93633 -0.465518 0
M  V30 9863 H 930.226 1.50184 -0.358351 0
M  V30 9864 H 932.184 3.62049 1.93471 0
M  V30 9865 H 930.845 2.45265 1.96224 0
M  V30 9866 H 930.038 4.79703 1.54599 0
M  V30 9867 H 929.64 3.73591 0.174861 0
M  V30 9868 H 931.932 6.59694 1.54304 0
M  V30 9869 H 932.875 7.08033 0.0975111 0
M  V30 9870 H 933.283 5.56384 0.953762 0
M  V30 9871 N 932.681 0.308908 1.54543 0
M  V30 9872 C 933.644 -0.550857 2.22482 0
M  V30 9873 C 934.644 -1.0551 1.21344 0
M  V30 9874 O 935.834 -0.949866 1.46025 0
M  V30 9875 C 932.966 -1.76354 2.9174 0
M  V30 9876 H 934.159 0.0428395 2.99869 0
M  V30 9877 H 931.712 0.059825 1.56185 0
M  V30 9878 H 932.447 -2.39686 2.18451 0
M  V30 9879 H 932.232 -1.40954 3.65889 0
M  V30 9880 H 933.722 -2.37417 3.43545 0
M  V30 9881 N 934.159 -1.57557 0.0367827 0
M  V30 9882 C 935.57 -1.79853 -0.500971 0
M  V30 9883 C 935.921 -0.947749 -1.71791 0
M  V30 9884 O 935.046 -0.160287 -2.15806 0
M  V30 9885 C 935.641 -3.26193 -0.915626 0
M  V30 9886 C 934.2 -3.49457 -1.39845 0
M  V30 9887 C 933.347 -2.74864 -0.366784 0
M  V30 9888 H 936.298 -1.56509 0.262768 0
M  V30 9889 H 936.319 -3.36324 -1.7795 0
M  V30 9890 H 935.831 -3.88089 -0.0297227 0
M  V30 9891 H 933.932 -2.92823 -2.30402 0
M  V30 9892 H 934.045 -4.58172 -1.40054 0
M  V30 9893 H 932.409 -2.4057 -0.836554 0
M  V30 9894 H 933.192 -3.39479 0.510785 0
M  V30 9895 N 935.637 0.236453 -1.55816 0
M  V30 9896 C 936.547 1.31418 -1.94336 0
M  V30 9897 C 937.563 1.52095 -0.845164 0
M  V30 9898 O 938.739 1.65515 -1.14746 0
M  V30 9899 C 935.804 2.6468 -2.23932 0
M  V30 9900 C 934.865 2.52435 -3.47239 0
M  V30 9901 C 934.098 3.79342 -3.75414 0
M  V30 9902 O 934.321 4.81694 -3.05495 0
M  V30 9903 O 933.255 3.77347 -4.68927 0
M  V30 9904 H 937.081 1.01739 -2.86152 0
M  V30 9905 H 934.666 0.438084 -1.42833 0
M  V30 9906 H 936.548 3.4341 -2.44228 0
M  V30 9907 H 935.223 2.94071 -1.35292 0
M  V30 9908 H 934.13 1.71955 -3.32238 0
M  V30 9909 H 935.463 2.27987 -4.36214 0
M  V30 9910 N 937.115 1.49373 0.502552 0
M  V30 9911 C 938.361 1.59016 1.25864 0
M  V30 9912 C 938.694 0.27532 1.92238 0
M  V30 9913 O 937.969 -0.720988 1.80643 0
M  V30 9914 C 938.252 2.74828 2.32683 0
M  V30 9915 C 938.105 4.16102 1.7082 0
M  V30 9916 C 939.424 2.86288 3.34256 0
M  V30 9917 H 936.543 0.578798 0.456248 0
M  V30 9918 H 939.185 1.81651 0.557032 0
M  V30 9919 H 937.335 2.5566 2.92524 0
M  V30 9920 H 939.007 4.46782 1.14818 0
M  V30 9921 H 937.25 4.21822 1.01238 0
M  V30 9922 H 937.921 4.93006 2.48292 0
M  V30 9923 H 940.397 3.03733 2.84404 0
M  V30 9924 H 939.273 3.69001 4.06362 0
M  V30 9925 H 939.534 1.95576 3.96488 0
M  V30 9926 N 938.594 -0.753485 1.38421 0
M  V30 9927 C 939.841 -1.51261 1.34634 0
M  V30 9928 C 940.169 -1.94396 -0.0635771 0
M  V30 9929 O 939.424 -1.65736 -1.04068 0
M  V30 9930 C 939.723 -2.77836 2.24816 0
M  V30 9931 C 939.389 -2.53662 3.72782 0
M  V30 9932 C 938.051 -2.46779 4.13103 0
M  V30 9933 C 940.403 -2.32548 4.66445 0
M  V30 9934 C 937.731 -2.16796 5.45176 0
M  V30 9935 C 940.083 -2.04085 5.98775 0
M  V30 9936 C 938.747 -1.95658 6.3818 0
M  V30 9937 H 938.017 -0.553503 0.492661 0
M  V30 9938 H 940.664 -0.866406 1.7078 0
M  V30 9939 H 938.969 -3.47106 1.81726 0
M  V30 9940 H 940.666 -3.35793 2.19189 0
M  V30 9941 H 937.256 -2.59891 3.40815 0
M  V30 9942 H 941.44 -2.36845 4.3614 0
M  V30 9943 H 936.696 -2.0878 5.74648 0
M  V30 9944 H 940.87 -1.86751 6.70893 0
M  V30 9945 H 938.497 -1.7219 7.40442 0
M  V30 9946 N 940.072 -1.23292 -0.981677 0
M  V30 9947 C 941.3 -1.09088 -1.75805 0
M  V30 9948 C 941.715 0.357746 -1.8538 0
M  V30 9949 O 941.072 1.24751 -1.33205 0
M  V30 9950 C 941.123 -1.70885 -3.1856 0
M  V30 9951 O 940.844 -3.10082 -3.09484 0
M  V30 9952 C 942.345 -1.62106 -4.12597 0
M  V30 9953 H 939.565 -0.38184 -0.55176 0
M  V30 9954 H 942.109 -1.63116 -1.23342 0
M  V30 9955 H 940.264 -1.20893 -3.68054 0
M  V30 9956 H 940.678 -3.40039 -3.99342 0
M  V30 9957 H 942.152 -2.10049 -5.10474 0
M  V30 9958 H 942.629 -0.579642 -4.35358 0
M  V30 9959 H 943.235 -2.11457 -3.69007 0
M  V30 9960 N 941.55 1.18024 -1.04442 0
M  V30 9961 C 942.482 2.21294 -0.596799 0
M  V30 9962 C 943.495 1.59305 0.33552 0
M  V30 9963 O 944.684 1.7803 0.129443 0
M  V30 9964 C 941.784 3.38578 0.147648 0
M  V30 9965 C 940.957 4.30143 -0.793484 0
M  V30 9966 C 940.016 5.2612 -0.0916561 0
M  V30 9967 O 939.042 5.64586 -0.72331 0
M  V30 9968 N 940.244 5.68512 1.17364 0
M  V30 9969 H 943.009 2.6032 -1.48504 0
M  V30 9970 H 940.57 1.32847 -0.925374 0
M  V30 9971 H 942.562 3.99812 0.627098 0
M  V30 9972 H 941.132 2.98212 0.937466 0
M  V30 9973 H 940.352 3.66456 -1.45272 0
M  V30 9974 H 941.64 4.88216 -1.43258 0
M  V30 9975 H 941.038 5.39322 1.70729 0
M  V30 9976 H 939.595 6.31925 1.5973 0
M  V30 9977 N 943.028 0.824394 1.34319 0
M  V30 9978 C 944.268 0.419044 2.00058 0
M  V30 9979 C 944.632 -0.999504 1.63933 0
M  V30 9980 O 945.833 -1.50781 2.22527 0
M  V30 9981 C 944.104 0.616897 3.52036 0
M  V30 9982 S 945.663 0.304614 4.37741 0
M  V30 9983 H 942.481 0.158265 0.693162 0
M  V30 9984 H 945.083 1.07053 1.63585 0
M  V30 9985 H 943.787 1.64896 3.75816 0
M  V30 9986 H 943.318 -0.0492693 3.93369 0
M  V30 9987 H 945.333 -0.88114 4.88314 0
M  V30 9988 N 944.506 -1.46559 0.579492 0
M  V30 9989 C 945.734 -2.06784 0.0693648 0
M  V30 9990 C 946.149 -1.42875 -1.23419 0
M  V30 9991 O 945.506 -0.532919 -1.74546 0
M  V30 9992 C 945.557 -3.61343 -0.106511 0
M  V30 9993 O 945.278 -4.22861 1.14545 0
M  V30 9994 C 946.779 -4.38489 -0.651359 0
M  V30 9995 H 943.999 -0.66866 0.0559848 0
M  V30 9996 H 946.543 -1.88235 0.799245 0
M  V30 9997 H 944.698 -3.7933 -0.786601 0
M  V30 9998 H 945.112 -5.15691 0.95723 0
M  V30 9999 H 946.586 -5.47237 -0.723615 0
M  V30 10000 H 947.063 -4.06309 -1.66763 0
M  V30 10001 H 947.669 -4.253 -0.0062433 0
M  V30 10002 N 945.984 -0.3171 -1.54377 0
M  V30 10003 C 947.4 0.035766 -1.5956 0
M  V30 10004 C 947.6 1.51038 -1.33378 0
M  V30 10005 O 946.656 2.26546 -1.11505 0
M  V30 10006 C 947.969 -0.376652 -2.98332 0
M  V30 10007 C 949.517 -0.326765 -3.1129 0
M  V30 10008 C 949.992 -0.714247 -4.52396 0
M  V30 10009 N 951.483 -0.667402 -4.58367 0
M  V30 10010 C 952.218 -0.939494 -5.65651 0
M  V30 10011 N 951.714 -1.27839 -6.80903 0
M  V30 10012 N 953.507 -0.865484 -5.55397 0
M  V30 10013 H 945.658 -1.27794 -1.69654 0
M  V30 10014 H 947.921 -0.5192 -0.79318 0
M  V30 10015 H 947.627 -1.40381 -3.22469 0
M  V30 10016 H 947.501 0.261611 -3.76292 0
M  V30 10017 H 949.888 0.69117 -2.86892 0
M  V30 10018 H 949.969 -0.999873 -2.35449 0
M  V30 10019 H 949.613 -1.73007 -4.77526 0
M  V30 10020 H 949.543 -0.0188962 -5.26597 0
M  V30 10021 H 952.034 -0.417062 -3.75592 0
M  V30 10022 H 952.347 -1.47155 -7.5866 0
M  V30 10023 H 950.692 -1.31658 -6.82416 0
M  V30 10024 H 953.883 -0.600265 -4.64235 0
M  V30 10025 H 954.056 -1.0809 -6.38921 0
M  V30 10026 N 947.462 1.57535 -0.0451378 0
M  V30 10027 C 948.692 1.96476 0.638814 0
M  V30 10028 C 949.1 0.921056 1.65267 0
M  V30 10029 O 948.443 -0.103843 1.83406 0
M  V30 10030 C 948.505 3.31629 1.38788 0
M  V30 10031 C 948.169 4.5391 0.530545 0
M  V30 10032 C 949.166 5.19512 -0.200864 0
M  V30 10033 C 946.851 5.00159 0.463242 0
M  V30 10034 C 948.845 6.29695 -0.988078 0
M  V30 10035 C 946.532 6.10221 -0.327665 0
M  V30 10036 C 947.53 6.74849 -1.05202 0
M  V30 10037 O 947.218 7.82795 -1.82993 0
M  V30 10038 H 946.95 0.651625 0.17989 0
M  V30 10039 H 949.504 2.05126 -0.106031 0
M  V30 10040 H 947.734 3.19516 2.17822 0
M  V30 10041 H 949.423 3.5536 1.96148 0
M  V30 10042 H 950.189 4.84742 -0.158299 0
M  V30 10043 H 946.068 4.49651 1.01663 0
M  V30 10044 H 949.612 6.80072 -1.55397 0
M  V30 10045 H 945.509 6.44428 -0.37189 0
M  V30 10046 H 946.277 7.99542 -1.7514 0
M  V30 10047 N 948.94 -0.228186 1.55939 0
M  V30 10048 C 950.168 -0.970618 1.8272 0
M  V30 10049 C 950.583 -1.78212 0.623385 0
M  V30 10050 O 949.94 -1.77879 -0.408063 0
M  V30 10051 C 949.991 -1.89352 3.07942 0
M  V30 10052 O 949.712 -1.11483 4.23678 0
M  V30 10053 C 951.213 -2.75039 3.47661 0
M  V30 10054 H 948.433 -0.284772 0.607574 0
M  V30 10055 H 950.977 -0.245419 2.03022 0
M  V30 10056 H 949.132 -2.57275 2.89635 0
M  V30 10057 H 949.546 -1.74073 4.94772 0
M  V30 10058 H 951.02 -3.35511 4.38334 0
M  V30 10059 H 951.497 -3.471 2.69106 0
M  V30 10060 H 952.103 -2.1254 3.68384 0
M  V30 10061 N 950.418 -1.49637 -0.494624 0
M  V30 10062 C 951.667 -1.58691 -1.24499 0
M  V30 10063 C 951.98 -0.281763 -1.9356 0
M  V30 10064 O 953.186 -0.250925 -2.70338 0
M  V30 10065 C 951.642 -2.8002 -2.26091 0
M  V30 10066 C 951.25 -4.17318 -1.6294 0
M  V30 10067 C 952.994 -2.98407 -3.01916 0
M  V30 10068 C 950.901 -5.29862 -2.62679 0
M  V30 10069 H 949.831 -0.590888 -0.468367 0
M  V30 10070 H 952.482 -1.76034 -0.518112 0
M  V30 10071 H 950.864 -2.56185 -3.01969 0
M  V30 10072 H 952.038 -4.51315 -0.930108 0
M  V30 10073 H 950.353 -4.04342 -0.994819 0
M  V30 10074 H 952.95 -3.79658 -3.76516 0
M  V30 10075 H 953.293 -2.09214 -3.5991 0
M  V30 10076 H 953.826 -3.22312 -2.33152 0
M  V30 10077 H 950.565 -6.21134 -2.09458 0
M  V30 10078 H 950.085 -5.00311 -3.3083 0
M  V30 10079 H 951.764 -5.59461 -3.2498 0
M  V30 10080 N 951.896 0.746133 -1.38819 0
M  V30 10081 C 952.843 1.86001 -1.36647 0
M  V30 10082 C 953.813 1.6453 -0.227849 0
M  V30 10083 O 954.998 1.86092 -0.421241 0
M  V30 10084 C 952.138 3.23388 -1.20474 0
M  V30 10085 C 951.251 3.5664 -2.43786 0
M  V30 10086 C 950.386 4.8337 -2.20287 0
M  V30 10087 C 949.425 5.09431 -3.39332 0
M  V30 10088 N 948.562 6.2736 -3.1522 0
M  V30 10089 H 953.402 1.87192 -2.31869 0
M  V30 10090 H 950.939 0.914838 -1.15192 0
M  V30 10091 H 952.897 4.02679 -1.09112 0
M  V30 10092 H 951.527 3.21505 -0.288874 0
M  V30 10093 H 950.579 2.72135 -2.65794 0
M  V30 10094 H 951.891 3.71823 -3.3249 0
M  V30 10095 H 951.045 5.70619 -2.06103 0
M  V30 10096 H 949.784 4.70341 -1.28961 0
M  V30 10097 H 948.789 4.20648 -3.54027 0
M  V30 10098 H 950.014 5.24354 -4.31544 0
M  V30 10099 H 947.96 6.15639 -2.26549 0
M  V30 10100 H 947.877 6.43078 -3.97476 0
M  V30 10101 H 949.145 7.17477 -3.04707 0
M  V30 10102 N 953.375 1.23811 0.975125 0
M  V30 10103 C 954.338 1.02505 2.05001 0
M  V30 10104 C 955.338 -0.0150084 1.60793 0
M  V30 10105 O 956.528 0.225246 1.72738 0
M  V30 10106 C 953.66 0.552087 3.364 0
M  V30 10107 H 954.853 1.979 2.25335 0
M  V30 10108 H 952.406 1.05929 1.1493 0
M  V30 10109 H 953.141 -0.405394 3.21756 0
M  V30 10110 H 952.926 1.30267 3.69828 0
M  V30 10111 H 954.416 0.423828 4.15444 0
M  V30 10112 N 954.853 -1.17469 1.05066 0
M  V30 10113 C 956.13 -1.83625 0.673872 0
M  V30 10114 C 956.51 -1.93412 -0.845871 0
M  V30 10115 O 955.858 -1.4677 -1.75131 0
M  V30 10116 C 956.068 -3.21352 1.36139 0
M  V30 10117 C 957.416 -3.97274 1.49863 0
M  V30 10118 O 958.44 -3.30827 1.3203 0
M  V30 10119 O 957.299 -5.16349 1.79013 0
M  V30 10120 H 954.393 -0.792297 0.237055 0
M  V30 10121 H 956.939 -1.24776 1.15017 0
M  V30 10122 H 955.711 -3.0919 2.39827 0
M  V30 10123 H 955.334 -3.87867 0.874364 0
M  V30 10124 N 956.331 -0.831506 -1.3388 0
M  V30 10125 C 957.577 -0.424302 -1.98312 0
M  V30 10126 C 957.91 1.01211 -1.65741 0
M  V30 10127 O 957.185 1.70636 -0.933464 0
M  V30 10128 C 957.468 -0.636815 -3.54424 0
M  V30 10129 C 957.321 -2.11997 -3.96708 0
M  V30 10130 C 958.64 -0.0782411 -4.4003 0
M  V30 10131 H 955.759 -0.155637 -0.720379 0
M  V30 10132 H 958.401 -1.04566 -1.58638 0
M  V30 10133 H 956.551 -0.107907 -3.8835 0
M  V30 10134 H 958.223 -2.71317 -3.73075 0
M  V30 10135 H 956.466 -2.60723 -3.46707 0
M  V30 10136 H 957.137 -2.21944 -5.05416 0
M  V30 10137 H 959.613 -0.530243 -4.12708 0
M  V30 10138 H 958.489 -0.256676 -5.483 0
M  V30 10139 H 958.75 1.01745 -4.30233 0
M  V30 10140 N 957.809 1.4625 -0.587256 0
M  V30 10141 C 959.056 2.02363 -0.0745746 0
M  V30 10142 C 959.384 1.4582 1.28712 0
M  V30 10143 O 958.639 0.614922 1.85788 0
M  V30 10144 C 958.938 3.57382 0.036328 0
M  V30 10145 C 958.604 4.32985 -1.25837 0
M  V30 10146 C 957.266 4.53358 -1.61306 0
M  V30 10147 C 959.618 4.76361 -2.11494 0
M  V30 10148 C 956.946 5.14361 -2.82223 0
M  V30 10149 C 959.298 5.38699 -3.31641 0
M  V30 10150 C 957.962 5.57299 -3.67388 0
M  V30 10151 H 957.232 0.740497 -0.0272888 0
M  V30 10152 H 959.879 1.75565 -0.764804 0
M  V30 10153 H 958.184 3.83342 0.809712 0
M  V30 10154 H 959.881 3.9848 0.448838 0
M  V30 10155 H 956.471 4.17427 -0.972251 0
M  V30 10156 H 960.655 4.60372 -1.85394 0
M  V30 10157 H 955.911 5.26952 -3.10051 0
M  V30 10158 H 960.085 5.71267 -3.9828 0
M  V30 10159 H 957.712 6.04338 -4.61173 0
M  V30 10160 N 959.287 0.325282 1.54207 0
M  V30 10161 C 960.512 -0.281418 2.05482 0
M  V30 10162 C 960.937 -1.44869 1.19977 0
M  V30 10163 O 960.295 -1.80088 0.209275 0
M  V30 10164 C 960.343 -0.692029 3.53897 0
M  V30 10165 O 959.447 -1.7942 3.71325 0
M  V30 10166 H 958.788 -0.0504872 0.662078 0
M  V30 10167 H 961.318 0.474191 1.99029 0
M  V30 10168 H 961.328 -0.974219 3.96198 0
M  V30 10169 H 960.003 0.161709 4.15586 0
M  V30 10170 H 958.58 -1.51069 3.40929 0
M  V30 10171 N 960.765 -1.57509 0.0534917 0
M  V30 10172 C 961.995 -1.96812 -0.628386 0
M  V30 10173 C 962.403 -0.929808 -1.64776 0
M  V30 10174 O 961.746 0.0941155 -1.83459 0
M  V30 10175 C 961.808 -3.32361 -1.37027 0
M  V30 10176 C 961.472 -4.54185 -0.506465 0
M  V30 10177 C 962.469 -5.19398 0.228412 0
M  V30 10178 C 960.154 -5.00398 -0.43671 0
M  V30 10179 C 962.148 -6.29162 1.02146 0
M  V30 10180 C 959.835 -6.10039 0.360022 0
M  V30 10181 C 960.833 -6.74282 1.08779 0
M  V30 10182 O 960.521 -7.81814 1.87142 0
M  V30 10183 H 960.253 -0.65257 -0.176432 0
M  V30 10184 H 962.807 -2.05067 0.116908 0
M  V30 10185 H 961.037 -3.20667 -2.16125 0
M  V30 10186 H 962.726 -3.56395 -1.94261 0
M  V30 10187 H 963.492 -4.84651 0.184003 0
M  V30 10188 H 959.371 -4.50183 -0.992772 0
M  V30 10189 H 962.915 -6.79238 1.59002 0
M  V30 10190 H 958.812 -6.44222 0.406061 0
M  V30 10191 H 959.58 -7.98602 1.79378 0
M  V30 10192 N 962.243 0.219913 -1.56058 0
M  V30 10193 C 963.206 1.25606 -1.91718 0
M  V30 10194 C 964.206 1.39721 -0.795912 0
M  V30 10195 O 965.396 1.37958 -1.06364 0
M  V30 10196 C 962.528 2.62961 -2.16943 0
M  V30 10197 H 963.721 0.951909 -2.84392 0
M  V30 10198 H 961.274 0.460398 -1.49365 0
M  V30 10199 H 962.009 2.98472 -1.26826 0
M  V30 10200 H 961.794 2.54093 -2.98629 0
M  V30 10201 H 963.284 3.37727 -2.45622 0
M  V30 10202 N 963.721 1.49897 0.486681 0
M  V30 10203 C 964.651 1.7054 1.59494 0
M  V30 10204 C 965.632 0.554184 1.60819 0
M  V30 10205 O 966.817 0.791617 1.77333 0
M  V30 10206 C 963.947 1.78517 2.97908 0
M  V30 10207 C 962.901 2.93571 3.11449 0
M  V30 10208 C 962.227 2.86674 4.51356 0
M  V30 10209 C 963.527 4.34308 2.90127 0
M  V30 10210 H 965.221 2.63329 1.42472 0
M  V30 10211 H 962.767 1.2672 0.683969 0
M  V30 10212 H 964.72 1.91544 3.75352 0
M  V30 10213 H 963.444 0.823381 3.16051 0
M  V30 10214 H 962.103 2.80169 2.36433 0
M  V30 10215 H 961.751 1.88373 4.66395 0
M  V30 10216 H 961.451 3.63903 4.61355 0
M  V30 10217 H 962.975 3.01728 5.30841 0
M  V30 10218 H 964.389 4.48317 3.57331 0
M  V30 10219 H 962.786 5.12869 3.11585 0
M  V30 10220 H 963.856 4.47759 1.86119 0
M  V30 10221 N 965.199 -0.738761 1.39212 0
M  V30 10222 C 966.439 -1.51093 1.3766 0
M  V30 10223 C 966.803 -1.91978 -0.0289655 0
M  V30 10224 O 968.004 -2.68265 -0.169465 0
M  V30 10225 C 966.275 -2.71988 2.31856 0
M  V30 10226 S 967.834 -3.61683 2.48458 0
M  V30 10227 H 964.652 -0.516868 0.48823 0
M  V30 10228 H 967.254 -0.865961 1.75275 0
M  V30 10229 H 965.958 -2.40085 3.32847 0
M  V30 10230 H 965.489 -3.41417 1.95443 0
M  V30 10231 H 967.504 -4.65447 1.71969 0
M  V30 10232 N 966.677 -1.24326 -0.968545 0
M  V30 10233 C 967.607 -1.05951 -2.08079 0
M  V30 10234 C 968.588 0.0272666 -1.70078 0
M  V30 10235 O 969.773 -0.139644 -1.93697 0
M  V30 10236 C 966.903 -0.662623 -3.4092 0
M  V30 10237 C 965.857 -1.69807 -3.92873 0
M  V30 10238 C 965.183 -1.15628 -5.22048 0
M  V30 10239 C 966.483 -3.09383 -4.20808 0
M  V30 10240 H 968.177 -1.98984 -2.23709 0
M  V30 10241 H 965.723 -0.958112 -1.075 0
M  V30 10242 H 967.676 -0.521071 -4.18166 0
M  V30 10243 H 966.4 0.303399 -3.25188 0
M  V30 10244 H 965.059 -1.82783 -3.17783 0
M  V30 10245 H 964.707 -0.180888 -5.02675 0
M  V30 10246 H 964.407 -1.84822 -5.57776 0
M  V30 10247 H 965.931 -1.02683 -6.01904 0
M  V30 10248 H 967.345 -2.99642 -4.88761 0
M  V30 10249 H 965.742 -3.75923 -4.67763 0
M  V30 10250 H 966.812 -3.57486 -3.27616 0
M  V30 10251 N 968.156 1.1691 -1.05688 0
M  V30 10252 C 969.402 1.87814 -0.780871 0
M  V30 10253 C 969.757 1.79796 0.684926 0
M  V30 10254 O 969.05 1.19853 1.49485 0
M  V30 10255 C 969.244 3.36578 -1.20207 0
M  V30 10256 C 969.073 3.59078 -2.70727 0
M  V30 10257 C 967.843 3.75515 -3.38107 0
M  V30 10258 C 970.041 3.58307 -3.68946 0
M  V30 10259 N 968.023 3.85906 -4.77441 0
M  V30 10260 C 969.394 3.74608 -4.94033 0
M  V30 10261 C 971.449 3.41484 -3.62343 0
M  V30 10262 C 970.152 3.75828 -6.13307 0
M  V30 10263 C 972.178 3.43995 -4.81063 0
M  V30 10264 C 971.54 3.60809 -6.04976 0
M  V30 10265 H 967.639 0.705158 -0.338047 0
M  V30 10266 H 970.223 1.40315 -1.34981 0
M  V30 10267 H 968.394 3.82734 -0.661031 0
M  V30 10268 H 970.126 3.95119 -0.875377 0
M  V30 10269 H 966.881 3.7558 -2.88508 0
M  V30 10270 H 967.305 3.94886 -5.49904 0
M  V30 10271 H 971.947 3.27417 -2.67503 0
M  V30 10272 H 969.665 3.88679 -7.08487 0
M  V30 10273 H 973.251 3.3223 -4.77613 0
M  V30 10274 H 972.131 3.62663 -6.95302 0
M  V30 10275 N 969.634 0.838594 1.33437 0
M  V30 10276 C 970.544 0.274048 2.32994 0
M  V30 10277 C 971.56 -0.599776 1.63336 0
M  V30 10278 O 972.736 -0.503963 1.94993 0
M  V30 10279 C 969.801 -0.541804 3.4244 0
M  V30 10280 C 968.862 0.356262 4.27819 0
M  V30 10281 C 968.095 -0.420747 5.32039 0
M  V30 10282 O 968.318 -1.65247 5.45939 0
M  V30 10283 O 967.252 0.205101 6.0155 0
M  V30 10284 H 971.078 1.09846 2.83139 0
M  V30 10285 H 968.663 0.601111 1.36774 0
M  V30 10286 H 970.545 -1.00544 4.0923 0
M  V30 10287 H 969.22 -1.34328 2.94513 0
M  V30 10288 H 968.127 0.867726 3.63897 0
M  V30 10289 H 969.46 1.1225 4.79229 0
M  V30 10290 N 971.112 -1.45937 0.595003 0
M  V30 10291 C 972.361 -2.01529 0.0829531 0
M  V30 10292 C 972.674 -1.47071 -1.28955 0
M  V30 10293 O 973.88 -1.94561 -1.89363 0
M  V30 10294 C 972.336 -3.59767 0.0976597 0
M  V30 10295 C 971.944 -4.23223 1.46924 0
M  V30 10296 C 973.688 -4.22972 -0.359805 0
M  V30 10297 C 971.595 -5.73576 1.44101 0
M  V30 10298 H 970.525 -0.753508 0.0272425 0
M  V30 10299 H 973.176 -1.67541 0.748473 0
M  V30 10300 H 971.558 -3.90888 -0.634268 0
M  V30 10301 H 972.732 -4.03695 2.22187 0
M  V30 10302 H 971.047 -3.72161 1.86775 0
M  V30 10303 H 973.644 -5.33202 -0.39991 0
M  V30 10304 H 973.987 -3.92765 -1.37991 0
M  V30 10305 H 974.52 -3.96523 0.31845 0
M  V30 10306 H 971.259 -6.08462 2.43831 0
M  V30 10307 H 970.779 -5.95332 0.730767 0
M  V30 10308 H 972.458 -6.36531 1.1592 0
M  V30 10309 N 972.59 -0.333456 -1.54032 0
M  V30 10310 C 973.52 0.52051 -2.27625 0
M  V30 10311 C 974.501 1.1111 -1.28797 0
M  V30 10312 O 975.686 1.13438 -1.57625 0
M  V30 10313 C 972.816 1.67663 -3.04149 0
M  V30 10314 C 971.77 1.21487 -4.10396 0
M  V30 10315 C 971.096 2.45872 -4.74817 0
M  V30 10316 C 972.396 0.322603 -5.21303 0
M  V30 10317 H 974.09 -0.0933823 -2.99254 0
M  V30 10318 H 971.636 -0.0463526 -1.43925 0
M  V30 10319 H 973.589 2.28041 -3.54366 0
M  V30 10320 H 972.313 2.31727 -2.30153 0
M  V30 10321 H 970.972 0.633966 -3.61077 0
M  V30 10322 H 970.62 3.0832 -3.97426 0
M  V30 10323 H 970.32 2.15662 -5.46593 0
M  V30 10324 H 971.844 3.06994 -5.27814 0
M  V30 10325 H 973.258 0.832942 -5.67217 0
M  V30 10326 H 971.655 0.112843 -5.99994 0
M  V30 10327 H 972.725 -0.643954 -4.80605 0
M  V30 10328 N 974.068 1.57479 -0.061844 0
M  V30 10329 C 975.296 1.97429 0.618837 0
M  V30 10330 C 975.711 0.939826 1.63746 0
M  V30 10331 O 975.068 -0.0747173 1.82347 0
M  V30 10332 C 975.119 3.3746 1.29628 0
M  V30 10333 O 974.84 4.36941 0.318431 0
M  V30 10334 C 976.341 3.92228 2.06572 0
M  V30 10335 H 973.561 0.649513 0.168444 0
M  V30 10336 H 976.105 2.04078 -0.131303 0
M  V30 10337 H 974.26 3.31928 1.99757 0
M  V30 10338 H 974.674 5.18313 0.803239 0
M  V30 10339 H 976.148 4.92458 2.49377 0
M  V30 10340 H 976.625 3.28231 2.91824 0
M  V30 10341 H 977.231 4.01131 1.4133 0
M  V30 10342 N 975.546 -0.211634 1.56173 0
M  V30 10343 C 976.794 -0.932704 1.7929 0
M  V30 10344 C 977.115 -1.84472 0.632076 0
M  V30 10345 O 976.385 -1.92739 -0.350519 0
M  V30 10346 H 974.965 -0.347393 0.661307 0
M  V30 10347 H 977.627 -0.22111 1.93642 0
M  V30 10348 H 976.723 -1.53365 2.71819 0
M  V30 10349 N 977.024 -1.50153 -0.478725 0
M  V30 10350 C 977.934 -1.71232 -1.60364 0
M  V30 10351 C 978.95 -0.595269 -1.63501 0
M  V30 10352 O 980.126 -0.872683 -1.81511 0
M  V30 10353 C 977.191 -1.79487 -2.96623 0
M  V30 10354 C 976.252 -3.03185 -3.03937 0
M  V30 10355 C 975.485 -3.11036 -4.33696 0
M  V30 10356 O 975.708 -2.2588 -5.23769 0
M  V30 10357 O 974.642 -4.03698 -4.46443 0
M  V30 10358 H 978.468 -2.66575 -1.45505 0
M  V30 10359 H 976.053 -1.34158 -0.65741 0
M  V30 10360 H 977.935 -1.8714 -3.77567 0
M  V30 10361 H 976.61 -0.873264 -3.11698 0
M  V30 10362 H 975.517 -3.01036 -2.22099 0
M  V30 10363 H 976.85 -3.94898 -2.93796 0
M  V30 10364 N 978.502 0.731368 -1.39602 0
M  V30 10365 C 979.751 1.48647 -1.36334 0
M  V30 10366 C 980.064 1.95565 0.0367383 0
M  V30 10367 O 981.27 2.7082 0.192017 0
M  V30 10368 C 979.726 2.68616 -2.39528 0
M  V30 10369 C 979.334 2.28632 -3.85268 0
M  V30 10370 C 981.078 3.46422 -2.45341 0
M  V30 10371 C 978.985 3.45345 -4.80095 0
M  V30 10372 H 977.915 0.558218 -0.506861 0
M  V30 10373 H 980.566 0.797467 -1.65266 0
M  V30 10374 H 978.948 3.39609 -2.03671 0
M  V30 10375 H 980.122 1.65162 -4.30184 0
M  V30 10376 H 978.437 1.63909 -3.82783 0
M  V30 10377 H 981.034 4.33241 -3.13379 0
M  V30 10378 H 981.377 3.8914 -1.47904 0
M  V30 10379 H 981.91 2.82461 -2.80108 0
M  V30 10380 H 978.649 3.07674 -5.78807 0
M  V30 10381 H 978.169 4.07784 -4.39855 0
M  V30 10382 H 979.848 4.1163 -4.99169 0
M  V30 10383 N 979.98 1.24838 0.961938 0
M  V30 10384 C 981.391 1.08369 1.5203 0
M  V30 10385 C 981.742 -0.343005 1.93178 0
M  V30 10386 O 980.867 -1.2321 1.779 0
M  V30 10387 C 981.462 1.96102 2.76278 0
M  V30 10388 C 980.021 1.8384 3.28451 0
M  V30 10389 C 979.168 1.9069 2.01327 0
M  V30 10390 H 982.119 1.38231 0.779613 0
M  V30 10391 H 982.14 1.4967 3.49827 0
M  V30 10392 H 981.652 2.99931 2.46298 0
M  V30 10393 H 979.753 0.828653 3.63269 0
M  V30 10394 H 979.866 2.68251 3.96961 0
M  V30 10395 H 978.23 1.34488 2.16299 0
M  V30 10396 H 979.013 2.96111 1.73705 0
M  V30 10397 N 981.458 -1.16348 1.06306 0
M  V30 10398 C 982.705 -1.86881 0.779852 0
M  V30 10399 C 983.033 -1.8171 -0.693668 0
M  V30 10400 O 982.288 -1.22769 -1.52401 0
M  V30 10401 C 982.587 -3.35936 1.21991 0
M  V30 10402 C 982.253 -3.61307 2.69756 0
M  V30 10403 C 980.915 -3.6794 3.10119 0
M  V30 10404 C 983.267 -3.71871 3.65187 0
M  V30 10405 C 980.595 -3.82639 4.44752 0
M  V30 10406 C 982.947 -3.88091 4.99568 0
M  V30 10407 C 981.611 -3.92967 5.39568 0
M  V30 10408 H 980.881 -0.683847 0.285368 0
M  V30 10409 H 983.528 -1.37569 1.33218 0
M  V30 10410 H 981.833 -3.87381 0.586774 0
M  V30 10411 H 983.53 -3.88895 0.977821 0
M  V30 10412 H 980.12 -3.56777 2.37504 0
M  V30 10413 H 984.304 -3.66057 3.35136 0
M  V30 10414 H 979.56 -3.84666 4.75228 0
M  V30 10415 H 983.734 -3.95207 5.73397 0
M  V30 10416 H 981.361 -4.04109 6.43895 0
M  V30 10417 N 982.937 -0.845659 -1.3299 0
M  V30 10418 C 983.9 -0.288905 -2.27372 0
M  V30 10419 C 984.9 0.546263 -1.51237 0
M  V30 10420 O 986.09 0.359072 -1.70459 0
M  V30 10421 C 983.222 0.59224 -3.35716 0
M  V30 10422 H 984.415 -1.12181 -2.78128 0
M  V30 10423 H 981.968 -0.619276 -1.43508 0
M  V30 10424 H 982.703 1.44732 -2.90212 0
M  V30 10425 H 982.488 -0.00543255 -3.921 0
M  V30 10426 H 983.978 0.974848 -4.06062 0
M  V30 10427 N 984.415 1.45619 -0.602734 0
M  V30 10428 C 985.365 2.27568 0.140264 0
M  V30 10429 C 986.349 1.3704 0.84314 0
M  V30 10430 O 987.541 1.61067 0.733931 0
M  V30 10431 C 984.67 3.23812 1.14019 0
M  V30 10432 C 983.756 4.21828 0.438406 0
M  V30 10433 N 984.147 5.03148 -0.517245 0
M  V30 10434 C 982.445 4.40684 0.686588 0
M  V30 10435 C 983.146 5.74229 -0.929291 0
M  V30 10436 N 982.122 5.42909 -0.274086 0
M  V30 10437 H 985.924 2.87839 -0.5938 0
M  V30 10438 H 983.438 1.56712 -0.426033 0
M  V30 10439 H 985.435 3.8125 1.68684 0
M  V30 10440 H 984.095 2.65102 1.87486 0
M  V30 10441 H 985.106 5.1013 -0.893758 0
M  V30 10442 H 981.783 3.93102 1.4063 0
M  V30 10443 H 983.173 6.49586 -1.7172 0
M  V30 10444 N 985.893 0.34162 1.53853 0
M  V30 10445 C 986.823 -0.508431 2.27897 0
M  V30 10446 C 987.804 -1.10425 1.29384 0
M  V30 10447 O 988.989 -1.126 1.58224 0
M  V30 10448 C 986.119 -1.66048 3.05034 0
M  V30 10449 C 985.073 -1.19309 4.11035 0
M  V30 10450 C 984.399 -2.4335 4.76114 0
M  V30 10451 C 985.699 -0.294952 5.21467 0
M  V30 10452 H 987.393 0.109251 2.99201 0
M  V30 10453 H 984.939 0.0539847 1.43899 0
M  V30 10454 H 986.892 -2.26158 3.5557 0
M  V30 10455 H 985.616 -2.30503 2.31379 0
M  V30 10456 H 984.275 -0.614809 3.61408 0
M  V30 10457 H 983.923 -3.06208 3.99056 0
M  V30 10458 H 983.623 -2.1276 5.47729 0
M  V30 10459 H 985.147 -3.0419 5.29434 0
M  V30 10460 H 986.561 -0.80285 5.67651 0
M  V30 10461 H 984.958 -0.0810221 6.00045 0
M  V30 10462 H 986.028 0.669433 4.80257 0
M  V30 10463 N 987.371 -1.57444 0.0701946 0
M  V30 10464 C 988.318 -2.12631 -0.897599 0
M  V30 10465 C 989.288 -1.03841 -1.29639 0
M  V30 10466 O 990.473 -1.31495 -1.38253 0
M  V30 10467 C 987.613 -2.6911 -2.16041 0
M  V30 10468 C 986.726 -3.9205 -1.8144 0
M  V30 10469 C 985.861 -4.36778 -3.02321 0
M  V30 10470 C 984.9 -5.52371 -2.63729 0
M  V30 10471 N 984.037 -5.92065 -3.77364 0
M  V30 10472 H 988.877 -2.95024 -0.420104 0
M  V30 10473 H 986.414 -1.45792 -0.195716 0
M  V30 10474 H 988.372 -2.99963 -2.89962 0
M  V30 10475 H 987.002 -1.89484 -2.61334 0
M  V30 10476 H 986.054 -3.67669 -0.975896 0
M  V30 10477 H 987.366 -4.76011 -1.49046 0
M  V30 10478 H 986.52 -4.69285 -3.84521 0
M  V30 10479 H 985.259 -3.51668 -3.37907 0
M  V30 10480 H 984.264 -5.19517 -1.7995 0
M  V30 10481 H 985.489 -6.39212 -2.29315 0
M  V30 10482 H 983.435 -5.09904 -4.12715 0
M  V30 10483 H 983.352 -6.70762 -3.48733 0
M  V30 10484 H 984.62 -6.29193 -4.60148 0
M  V30 10485 N 988.849 0.203349 -1.56283 0
M  V30 10486 C 990.26 0.768764 -1.70138 0
M  V30 10487 C 990.611 1.8421 -0.675358 0
M  V30 10488 O 989.736 2.15732 0.1699 0
M  V30 10489 C 990.331 1.40123 -3.08466 0
M  V30 10490 C 988.89 1.91382 -3.24114 0
M  V30 10491 C 988.037 0.780685 -2.66084 0
M  V30 10492 H 990.988 -0.0215997 -1.58685 0
M  V30 10493 H 991.009 2.27046 -3.05336 0
M  V30 10494 H 990.521 0.619805 -3.83119 0
M  V30 10495 H 988.622 2.7227 -2.54362 0
M  V30 10496 H 988.735 2.08128 -4.31531 0
M  V30 10497 H 987.099 1.19281 -2.25042 0
M  V30 10498 H 987.882 0.0116351 -3.43298 0
M  V30 10499 N 990.327 1.50405 0.470755 0
M  V30 10500 C 991.29 1.68741 1.5511 0
M  V30 10501 C 992.29 0.558116 1.50804 0
M  V30 10502 O 993.48 0.825149 1.53418 0
M  V30 10503 C 990.612 1.71295 2.94739 0
M  V30 10504 H 991.805 2.65127 1.40169 0
M  V30 10505 H 989.358 1.39891 0.697156 0
M  V30 10506 H 990.093 0.766029 3.15123 0
M  V30 10507 H 989.878 2.53336 2.99271 0
M  V30 10508 H 991.368 1.87434 3.73173 0
M  V30 10509 N 991.805 -0.723954 1.39988 0
M  V30 10510 C 992.768 -1.81973 1.3935 0
M  V30 10511 C 993.768 -1.58187 0.288702 0
M  V30 10512 O 994.958 -1.65383 0.547181 0
M  V30 10513 C 992.09 -3.19937 1.177 0
M  V30 10514 H 993.283 -1.83939 2.36868 0
M  V30 10515 H 990.836 -0.928742 1.25714 0
M  V30 10516 H 991.571 -3.23625 0.209093 0
M  V30 10517 H 991.356 -3.386 1.97719 0
M  V30 10518 H 992.846 -3.99981 1.20022 0
M  V30 10519 N 993.283 -1.25346 -0.955304 0
M  V30 10520 C 994.246 -1.05754 -2.03344 0
M  V30 10521 C 995.246 -0.0105743 -1.60797 0
M  V30 10522 O 996.436 -0.252699 -1.72357 0
M  V30 10523 C 993.568 -0.605536 -3.35479 0
M  V30 10524 H 994.761 -2.01459 -2.22158 0
M  V30 10525 H 992.314 -1.07744 -1.1323 0
M  V30 10526 H 993.049 0.354154 -3.2236 0
M  V30 10527 H 992.834 -1.36134 -3.67709 0
M  V30 10528 H 994.324 -0.489867 -4.14717 0
M  V30 10529 N 994.761 1.15782 -1.06922 0
M  V30 10530 C 995.724 2.18578 -0.689654 0
M  V30 10531 C 996.724 1.58553 0.267872 0
M  V30 10532 O 997.914 1.7413 0.0494097 0
M  V30 10533 C 995.046 3.40896 -0.0157919 0
M  V30 10534 H 996.239 2.53672 -1.59971 0
M  V30 10535 H 993.792 1.30168 -0.865214 0
M  V30 10536 H 994.527 3.11367 0.906712 0
M  V30 10537 H 994.312 3.85721 -0.704415 0
M  V30 10538 H 995.802 4.16937 0.235266 0
M  V30 10539 N 996.239 0.8527 1.3254 0
M  V30 10540 C 997.202 0.300959 2.27215 0
M  V30 10541 C 998.202 -0.538235 1.51525 0
M  V30 10542 O 999.392 -0.350027 1.70647 0
M  V30 10543 C 996.524 -0.574428 3.36025 0
M  V30 10544 H 997.717 1.13655 2.77529 0
M  V30 10545 H 995.27 0.626878 1.43178 0
M  V30 10546 H 996.005 -1.43191 2.90976 0
M  V30 10547 H 995.79 0.0262265 3.92091 0
M  V30 10548 H 997.28 -0.9533 4.06573 0
M  V30 10549 N 997.718 -1.45297 0.610449 0
M  V30 10550 C 998.995 -1.95562 0.0386189 0
M  V30 10551 C 999.375 -1.55284 -1.43004 0
M  V30 10552 O 998.723 -0.816785 -2.13403 0
M  V30 10553 C 998.933 -3.48176 0.239731 0
M  V30 10554 C 1000.28 -4.24425 0.122035 0
M  V30 10555 O 1001.3 -3.55794 0.170003 0
M  V30 10556 O 1000.16 -5.46499 0.00953695 0
M  V30 10557 H 997.258 -0.826296 -0.0341081 0
M  V30 10558 H 999.804 -1.55449 0.68071 0
M  V30 10559 H 998.576 -3.70471 1.25963 0
M  V30 10560 H 998.199 -3.95186 -0.437486 0
M  V30 10561 N 999.196 -0.349774 -1.5367 0
M  V30 10562 C 1000.13 0.547309 -2.2154 0
M  V30 10563 C 1001.11 1.09543 -1.20163 0
M  V30 10564 O 1002.29 1.15453 -1.49006 0
M  V30 10565 C 999.418 1.75356 -2.89772 0
M  V30 10566 C 998.464 1.33433 -4.0509 0
M  V30 10567 S 999.297 0.348891 -5.34362 0
M  V30 10568 C 1000.45 1.56183 -6.061 0
M  V30 10569 H 1000.69 -0.0291392 -2.97286 0
M  V30 10570 H 998.219 -0.133853 -1.53819 0
M  V30 10571 H 1000.18 2.44555 -3.29701 0
M  V30 10572 H 998.838 2.30123 -2.1378 0
M  V30 10573 H 998.031 2.23388 -4.5179 0
M  V30 10574 H 997.633 0.721746 -3.6697 0
M  V30 10575 H 999.925 2.49535 -6.29872 0
M  V30 10576 H 1000.87 1.13651 -6.9892 0
M  V30 10577 H 1001.28 1.76071 -5.36339 0
M  V30 10578 N 1000.67 1.57404 -0.0785433 0
M  V30 10579 C 1001.64 2.11977 0.871693 0
M  V30 10580 C 1002.64 1.04529 1.2219 0
M  V30 10581 O 1003.83 1.30488 1.15406 0
M  V30 10582 C 1000.96 2.6267 2.17296 0
M  V30 10583 H 1002.15 2.97246 0.398115 0
M  V30 10584 H 999.705 1.5537 0.170251 0
M  V30 10585 H 1000.44 1.80873 2.69175 0
M  V30 10586 H 1000.22 3.41214 1.93171 0
M  V30 10587 H 1001.71 3.04943 2.85306 0
M  V30 10588 N 1002.15 -0.195058 1.56388 0
M  V30 10589 C 1003.38 -0.930291 1.8447 0
M  V30 10590 C 1003.79 -1.77356 0.658901 0
M  V30 10591 O 1003.13 -1.79691 -0.381664 0
M  V30 10592 C 1003.19 -1.87626 3.06654 0
M  V30 10593 C 1002.86 -1.21494 4.40555 0
M  V30 10594 C 1003.86 -0.591847 5.1652 0
M  V30 10595 C 1001.54 -1.21878 4.8729 0
M  V30 10596 C 1003.53 0.0185743 6.37397 0
M  V30 10597 C 1001.22 -0.604524 6.08103 0
M  V30 10598 C 1002.22 0.0130731 6.82999 0
M  V30 10599 O 1001.91 0.617703 8.01523 0
M  V30 10600 H 1001.64 -0.276933 0.616672 0
M  V30 10601 H 1004.19 -0.207277 2.04351 0
M  V30 10602 H 1002.42 -2.63897 2.82658 0
M  V30 10603 H 1004.11 -2.47929 3.21382 0
M  V30 10604 H 1004.88 -0.581018 4.81507 0
M  V30 10605 H 1000.76 -1.68888 4.2895 0
M  V30 10606 H 1004.3 0.50124 6.95797 0
M  V30 10607 H 1000.2 -0.612855 6.42584 0
M  V30 10608 H 1000.97 0.514612 8.16881 0
M  V30 10609 N 1003.63 -1.50653 -0.462772 0
M  V30 10610 C 1004.58 -1.66509 -1.55752 0
M  V30 10611 C 1005.56 -0.519508 -1.52282 0
M  V30 10612 O 1006.76 -0.774296 -1.59166 0
M  V30 10613 C 1003.88 -1.77023 -2.94139 0
M  V30 10614 C 1002.97 -2.97284 -3.02461 0
M  V30 10615 N 1003.36 -4.20843 -2.80579 0
M  V30 10616 C 1001.66 -2.96014 -3.33604 0
M  V30 10617 C 1002.36 -5.01886 -2.94084 0
M  V30 10618 N 1001.34 -4.3601 -3.24648 0
M  V30 10619 H 1005.14 -2.59727 -1.37546 0
M  V30 10620 H 1002.65 -1.47951 -0.669653 0
M  V30 10621 H 1004.65 -1.86488 -3.72864 0
M  V30 10622 H 1003.31 -0.849688 -3.13385 0
M  V30 10623 H 1004.32 -4.50206 -2.55998 0
M  V30 10624 H 1001 -2.13493 -3.58786 0
M  V30 10625 H 1002.39 -6.10164 -2.81334 0
M  V30 10626 N 1005.11 0.71652 -1.4037 0
M  V30 10627 C 1006.06 1.82219 -1.37041 0
M  V30 10628 C 1007.04 1.58975 -0.248116 0
M  V30 10629 O 1008.23 1.70164 -0.487147 0
M  V30 10630 C 1005.36 3.20337 -1.23446 0
M  V30 10631 C 1004.45 3.49347 -2.40452 0
M  V30 10632 N 1004.84 3.49179 -3.65934 0
M  V30 10633 C 1003.14 3.798 -2.33811 0
M  V30 10634 C 1003.84 3.76506 -4.43416 0
M  V30 10635 N 1002.82 3.95209 -3.73244 0
M  V30 10636 H 1006.62 1.80421 -2.32003 0
M  V30 10637 H 1004.13 0.915603 -1.34129 0
M  V30 10638 H 1006.13 3.99513 -1.19143 0
M  V30 10639 H 1004.79 3.23362 -0.294497 0
M  V30 10640 H 1005.8 3.30051 -3.99107 0
M  V30 10641 H 1002.48 3.9032 -1.48177 0
M  V30 10642 H 1003.87 3.82689 -5.52267 0
M  V30 10643 N 1006.59 1.25851 0.948643 0
M  V30 10644 C 1007.84 1.10347 1.68838 0
M  V30 10645 C 1008.15 -0.354262 1.92365 0
M  V30 10646 O 1009.35 -0.629847 2.64093 0
M  V30 10647 C 1007.81 1.92659 3.03991 0
M  V30 10648 C 1007.42 3.42962 2.88238 0
M  V30 10649 C 1009.16 1.85743 3.81707 0
M  V30 10650 C 1007.07 4.17547 4.18818 0
M  V30 10651 H 1006 0.409342 0.63321 0
M  V30 10652 H 1008.65 1.50098 1.05559 0
M  V30 10653 H 1007.03 1.45736 3.68208 0
M  V30 10654 H 1008.21 3.97601 2.32917 0
M  V30 10655 H 1006.52 3.51035 2.23972 0
M  V30 10656 H 1009.12 2.38758 4.78434 0
M  V30 10657 H 1009.46 0.826568 4.08012 0
M  V30 10658 H 1009.99 2.30449 3.2425 0
M  V30 10659 H 1006.73 5.21072 3.97699 0
M  V30 10660 H 1006.25 3.6769 4.73882 0
M  V30 10661 H 1007.93 4.25589 4.87322 0
M  V30 10662 N 1008.06 -1.15214 1.07534 0
M  V30 10663 C 1009.48 -1.38031 0.801228 0
M  V30 10664 C 1009.68 -1.92556 -0.593672 0
M  V30 10665 O 1008.74 -2.1325 -1.35206 0
M  V30 10666 C 1010.05 -2.34958 1.87657 0
M  V30 10667 C 1011.6 -2.48617 1.90154 0
M  V30 10668 C 1012.07 -3.48837 2.96777 0
M  V30 10669 N 1013.56 -3.56374 2.95892 0
M  V30 10670 C 1014.3 -4.33746 3.75036 0
M  V30 10671 N 1013.79 -5.14435 4.64036 0
M  V30 10672 N 1015.59 -4.28853 3.63375 0
M  V30 10673 H 1007.74 -0.781639 1.97495 0
M  V30 10674 H 1010 -0.406243 0.856546 0
M  V30 10675 H 1009.71 -2.02013 2.87895 0
M  V30 10676 H 1009.58 -3.3476 1.73827 0
M  V30 10677 H 1011.97 -2.80859 0.905666 0
M  V30 10678 H 1012.05 -1.48808 2.08062 0
M  V30 10679 H 1011.69 -3.1733 3.96565 0
M  V30 10680 H 1011.62 -4.48406 2.76116 0
M  V30 10681 H 1014.11 -2.98784 2.31379 0
M  V30 10682 H 1014.43 -5.70722 5.21053 0
M  V30 10683 H 1012.77 -5.13734 4.68084 0
M  V30 10684 H 1015.96 -3.64882 2.93221 0
M  V30 10685 H 1016.14 -4.88903 4.25298 0
M  V30 10686 N 1009.54 -0.859717 -1.32086 0
M  V30 10687 C 1010.95 -0.519529 -1.79326 0
M  V30 10688 C 1011.3 0.96295 -1.70944 0
M  V30 10689 O 1010.43 1.75139 -1.27104 0
M  V30 10690 C 1011.02 -0.936267 -3.25606 0
M  V30 10691 C 1009.58 -0.647899 -3.70782 0
M  V30 10692 C 1008.73 -1.13323 -2.53087 0
M  V30 10693 H 1011.68 -1.04643 -1.19312 0
M  V30 10694 H 1011.7 -0.254714 -3.79646 0
M  V30 10695 H 1011.21 -2.01527 -3.31675 0
M  V30 10696 H 1009.32 0.420172 -3.70223 0
M  V30 10697 H 1009.43 -1.21774 -4.63366 0
M  V30 10698 H 1007.79 -0.553325 -2.48617 0
M  V30 10699 H 1008.58 -2.21945 -2.61907 0
M  V30 10700 N 1011.02 1.44971 -0.618145 0
M  V30 10701 C 1012.43 1.85611 -0.201334 0
M  V30 10702 C 1012.78 1.51698 1.24427 0
M  V30 10703 O 1011.91 0.94875 1.94493 0
M  V30 10704 C 1012.5 3.36897 -0.358619 0
M  V30 10705 C 1011.06 3.764 0.00358196 0
M  V30 10706 C 1010.21 2.68881 -0.678118 0
M  V30 10707 H 1013.16 1.35622 -0.824152 0
M  V30 10708 H 1013.18 3.78326 0.406176 0
M  V30 10709 H 1012.69 3.61548 -1.41084 0
M  V30 10710 H 1010.79 3.57365 1.05457 0
M  V30 10711 H 1010.91 4.77449 -0.397427 0
M  V30 10712 H 1009.27 2.54442 -0.114699 0
M  V30 10713 H 1010.05 2.96367 -1.73268 0
M  V30 10714 N 1012.5 0.357919 1.53482 0
M  V30 10715 C 1013.75 -0.235241 2.00324 0
M  V30 10716 C 1014.06 -1.50494 1.24944 0
M  V30 10717 O 1015.27 -2.17623 1.62335 0
M  V30 10718 C 1013.72 -0.469748 3.56821 0
M  V30 10719 C 1013.33 0.784877 4.41071 0
M  V30 10720 C 1015.07 -1.02098 4.12039 0
M  V30 10721 C 1012.98 0.520377 5.89106 0
M  V30 10722 H 1011.91 -0.0916816 0.748405 0
M  V30 10723 H 1014.56 0.475474 1.77233 0
M  V30 10724 H 1012.94 -1.24153 3.76035 0
M  V30 10725 H 1014.12 1.55886 4.33631 0
M  V30 10726 H 1012.43 1.25878 3.96918 0
M  V30 10727 H 1015.03 -1.23406 5.20264 0
M  V30 10728 H 1015.37 -1.98084 3.66154 0
M  V30 10729 H 1015.91 -0.309554 3.96594 0
M  V30 10730 H 1012.65 1.45035 6.39254 0
M  V30 10731 H 1012.17 -0.215254 5.99414 0
M  V30 10732 H 1013.84 0.143006 6.46842 0
M  V30 10733 N 1013.98 -1.5736 0.0868897 0
M  V30 10734 C 1015.22 -1.9367 -0.577598 0
M  V30 10735 C 1015.55 -0.968844 -1.69229 0
M  V30 10736 O 1014.82 -0.0195061 -1.9589 0
M  V30 10737 H 1013.4 -0.714983 -0.216353 0
M  V30 10738 H 1016.06 -1.94335 0.148294 0
M  V30 10739 H 1015.15 -2.95877 -0.993128 0
M  V30 10740 N 1015.45 0.186762 -1.56489 0
M  V30 10741 C 1016.68 0.920495 -1.84961 0
M  V30 10742 C 1017.09 1.77004 -0.668297 0
M  V30 10743 O 1016.44 1.79891 0.37213 0
M  V30 10744 C 1016.5 1.85997 -3.07645 0
M  V30 10745 C 1016.16 1.19156 -4.41193 0
M  V30 10746 C 1017.16 0.564446 -5.16827 0
M  V30 10747 C 1014.84 1.19292 -4.87929 0
M  V30 10748 C 1016.84 -0.0523768 -6.37378 0
M  V30 10749 C 1014.52 0.572266 -6.08415 0
M  V30 10750 C 1015.52 -0.049294 -6.82982 0
M  V30 10751 O 1015.21 -0.660201 -8.01184 0
M  V30 10752 H 1014.94 0.273659 -0.618132 0
M  V30 10753 H 1017.5 0.196437 -2.04459 0
M  V30 10754 H 1015.73 2.62394 -2.84053 0
M  V30 10755 H 1017.42 2.46221 -3.22692 0
M  V30 10756 H 1018.18 0.555474 -4.81809 0
M  V30 10757 H 1014.06 1.66611 -4.29839 0
M  V30 10758 H 1017.6 -0.538133 -6.95521 0
M  V30 10759 H 1013.5 0.578769 -6.429 0
M  V30 10760 H 1014.27 -0.557926 -8.16596 0
M  V30 10761 N 1016.93 1.50896 0.454776 0
M  V30 10762 C 1018.16 1.66759 1.23313 0
M  V30 10763 C 1018.58 0.35722 1.84677 0
M  V30 10764 O 1017.94 -0.680771 1.68033 0
M  V30 10765 C 1017.99 2.77254 2.3057 0
M  V30 10766 O 1017.09 2.39642 3.35627 0
M  V30 10767 H 1016.43 0.556599 0.362068 0
M  V30 10768 H 1018.96 1.97365 0.539274 0
M  V30 10769 H 1018.97 3.0082 2.75629 0
M  V30 10770 H 1017.65 3.72349 1.85281 0
M  V30 10771 H 1016.23 2.26584 2.96165 0
M  V30 10772 N 1018.41 -0.709066 1.40748 0
M  V30 10773 C 1019.66 -1.4646 1.38681 0
M  V30 10774 C 1019.97 -1.95599 -0.0056209 0
M  V30 10775 O 1021.18 -2.71091 -0.148907 0
M  V30 10776 C 1019.63 -2.64771 2.43771 0
M  V30 10777 C 1019.24 -2.22474 3.88856 0
M  V30 10778 C 1020.99 -3.42475 2.50821 0
M  V30 10779 C 1018.89 -3.37663 4.85528 0
M  V30 10780 H 1017.82 -0.550084 0.515678 0
M  V30 10781 H 1020.47 -0.771074 1.66513 0
M  V30 10782 H 1018.86 -3.36325 2.09048 0
M  V30 10783 H 1020.03 -1.58297 4.32757 0
M  V30 10784 H 1018.35 -1.57798 3.85342 0
M  V30 10785 H 1020.94 -4.28201 3.20232 0
M  V30 10786 H 1021.29 -3.86738 1.54076 0
M  V30 10787 H 1021.82 -2.77969 2.84567 0
M  V30 10788 H 1018.56 -2.98426 5.83628 0
M  V30 10789 H 1018.08 -4.00734 4.46287 0
M  V30 10790 H 1019.76 -4.03636 5.05655 0
M  V30 10791 N 1019.89 -1.26353 -0.941956 0
M  V30 10792 C 1021.3 -1.10774 -1.50287 0
M  V30 10793 C 1021.65 0.312229 -1.937 0
M  V30 10794 O 1020.78 1.20364 -1.79838 0
M  V30 10795 C 1021.37 -2.00473 -2.73123 0
M  V30 10796 C 1019.93 -1.89042 -3.25485 0
M  V30 10797 C 1019.08 -1.93869 -1.98267 0
M  V30 10798 H 1022.03 -1.39454 -0.757523 0
M  V30 10799 H 1022.05 -1.55216 -3.47402 0
M  V30 10800 H 1021.56 -3.03812 -2.41495 0
M  V30 10801 H 1019.66 -0.886341 -3.61904 0
M  V30 10802 H 1019.78 -2.74533 -3.92643 0
M  V30 10803 H 1018.14 -1.37912 -2.14132 0
M  V30 10804 H 1018.92 -2.98837 -1.68972 0
M  V30 10805 N 1021.37 1.14642 -1.08144 0
M  V30 10806 C 1022.31 2.1964 -0.708995 0
M  V30 10807 C 1023.28 1.63303 0.303512 0
M  V30 10808 O 1024.47 1.8987 0.18813 0
M  V30 10809 C 1021.61 3.44886 -0.121585 0
M  V30 10810 C 1020.72 4.15386 -1.18654 0
M  V30 10811 C 1019.86 5.28205 -0.56328 0
M  V30 10812 C 1018.9 5.90534 -1.61046 0
M  V30 10813 N 1018.03 6.94809 -1.00919 0
M  V30 10814 H 1022.87 2.50848 -1.6087 0
M  V30 10815 H 1020.41 1.23185 -0.803975 0
M  V30 10816 H 1022.37 4.16528 0.23668 0
M  V30 10817 H 1021 3.14169 0.741445 0
M  V30 10818 H 1020.05 3.42159 -1.66227 0
M  V30 10819 H 1021.36 4.57809 -1.9802 0
M  V30 10820 H 1020.52 6.06507 -0.153109 0
M  V30 10821 H 1019.26 4.86995 0.262066 0
M  V30 10822 H 1018.26 5.10938 -2.03033 0
M  V30 10823 H 1019.49 6.33819 -2.43824 0
M  V30 10824 H 1017.43 6.5568 -0.204894 0
M  V30 10825 H 1017.35 7.35704 -1.73999 0
M  V30 10826 H 1018.62 7.76992 -0.624792 0
M  V30 10827 N 1022.85 0.866709 1.31628 0
M  V30 10828 C 1024.26 0.529032 1.79048 0
M  V30 10829 C 1024.61 -0.953871 1.71452 0
M  V30 10830 O 1023.73 -1.74462 1.28031 0
M  V30 10831 C 1024.33 0.953522 3.25105 0
M  V30 10832 C 1022.89 0.667554 3.70433 0
M  V30 10833 C 1022.03 1.14664 2.52483 0
M  V30 10834 H 1024.98 1.05275 1.18756 0
M  V30 10835 H 1025.01 0.274844 3.79506 0
M  V30 10836 H 1024.52 2.03283 3.30602 0
M  V30 10837 H 1022.62 -0.400532 3.70441 0
M  V30 10838 H 1022.73 1.2423 4.62714 0
M  V30 10839 H 1021.1 0.566502 2.4832 0
M  V30 10840 H 1021.88 2.2333 2.60727 0
M  V30 10841 N 1024.32 -1.44642 0.625825 0
M  V30 10842 C 1025.57 -2.01308 0.125682 0
M  V30 10843 C 1025.89 -1.49773 -1.25807 0
M  V30 10844 O 1027.09 -1.98533 -1.85194 0
M  V30 10845 C 1025.55 -3.59479 0.17395 0
M  V30 10846 C 1025.16 -4.20011 1.55868 0
M  V30 10847 C 1026.9 -4.2364 -0.270005 0
M  V30 10848 C 1024.81 -5.7039 1.56235 0
M  V30 10849 H 1023.74 -0.75276 0.0432194 0
M  V30 10850 H 1026.39 -1.65916 0.783842 0
M  V30 10851 H 1024.77 -3.92145 -0.551212 0
M  V30 10852 H 1025.94 -3.98891 2.307 0
M  V30 10853 H 1024.26 -3.68116 1.94627 0
M  V30 10854 H 1026.86 -5.33931 -0.28672 0
M  V30 10855 H 1027.2 -3.95603 -1.29629 0
M  V30 10856 H 1027.73 -3.95759 0.402487 0
M  V30 10857 H 1024.47 -6.03154 2.56683 0
M  V30 10858 H 1023.99 -5.93648 0.856881 0
M  V30 10859 H 1025.67 -6.33929 1.29396 0
M  V30 10860 N 1025.8 -0.366053 -1.5329 0
M  V30 10861 C 1027.03 0.226839 -2.06156 0
M  V30 10862 C 1027.45 1.41637 -1.23776 0
M  V30 10863 O 1026.81 1.7947 -0.256948 0
M  V30 10864 C 1026.86 0.597956 -3.55608 0
M  V30 10865 O 1025.96 1.69512 -3.75951 0
M  V30 10866 H 1025.3 0.0329156 -0.663184 0
M  V30 10867 H 1027.83 -0.526793 -1.97702 0
M  V30 10868 H 1027.84 0.868831 -3.98642 0
M  V30 10869 H 1026.52 -0.271838 -4.15011 0
M  V30 10870 H 1025.09 1.41976 -3.44815 0
M  V30 10871 N 1027.28 1.57312 -0.0952337 0
M  V30 10872 C 1028.5 1.99119 0.580206 0
M  V30 10873 C 1028.93 0.973955 1.60922 0
M  V30 10874 O 1028.29 -0.0575338 1.81209 0
M  V30 10875 C 1028.34 3.39893 1.20438 0
M  V30 10876 O 1027.44 3.40941 2.32019 0
M  V30 10877 H 1026.78 0.64748 0.147195 0
M  V30 10878 H 1029.31 2.03836 -0.176686 0
M  V30 10879 H 1029.32 3.7759 1.54564 0
M  V30 10880 H 1028 4.13453 0.450514 0
M  V30 10881 H 1026.57 3.1504 1.9951 0
M  V30 10882 N 1028.76 -0.17846 1.56586 0
M  V30 10883 C 1029.69 -1.22342 1.98884 0
M  V30 10884 C 1030.67 -1.46564 0.86331 0
M  V30 10885 O 1031.85 -1.58019 1.12887 0
M  V30 10886 C 1028.98 -2.56396 2.34261 0
M  V30 10887 C 1027.94 -2.46756 3.49708 0
M  V30 10888 C 1027.26 -3.85235 3.70807 0
M  V30 10889 C 1028.56 -1.97838 4.83381 0
M  V30 10890 H 1030.26 -0.871848 2.86425 0
M  V30 10891 H 1027.8 -0.417948 1.37801 0
M  V30 10892 H 1029.76 -3.29695 2.62448 0
M  V30 10893 H 1028.48 -2.93327 1.43621 0
M  V30 10894 H 1027.14 -1.75912 3.21637 0
M  V30 10895 H 1026.79 -4.19547 2.7747 0
M  V30 10896 H 1026.49 -3.79655 4.48481 0
M  V30 10897 H 1028.01 -4.60131 4.01387 0
M  V30 10898 H 1029.43 -2.60906 5.10491 0
M  V30 10899 H 1027.82 -2.03223 5.64642 0
M  V30 10900 H 1028.89 -0.932339 4.75852 0
M  V30 10901 N 1030.24 -1.51135 -0.446768 0
M  V30 10902 C 1031.17 -1.74709 -1.54916 0
M  V30 10903 C 1032.15 -0.596628 -1.59293 0
M  V30 10904 O 1033.33 -0.838356 -1.75172 0
M  V30 10905 C 1030.46 -1.86353 -2.9307 0
M  V30 10906 C 1029.42 -3.01725 -3.03556 0
M  V30 10907 C 1028.74 -2.9854 -4.43597 0
M  V30 10908 C 1030.04 -4.41848 -2.7851 0
M  V30 10909 H 1031.74 -2.67014 -1.3544 0
M  V30 10910 H 1029.28 -1.28489 -0.650131 0
M  V30 10911 H 1031.23 -2.01428 -3.70141 0
M  V30 10912 H 1029.96 -0.906887 -3.13756 0
M  V30 10913 H 1028.62 -2.86339 -2.28922 0
M  V30 10914 H 1028.27 -2.00673 -4.61237 0
M  V30 10915 H 1027.97 -3.76008 -4.51544 0
M  V30 10916 H 1029.49 -3.15696 -5.22655 0
M  V30 10917 H 1030.9 -4.57633 -3.45319 0
M  V30 10918 H 1029.3 -5.2095 -2.97877 0
M  V30 10919 H 1030.37 -4.52536 -1.74182 0
M  V30 10920 N 1031.71 0.701592 -1.41122 0
M  V30 10921 C 1032.96 1.45722 -1.39456 0
M  V30 10922 C 1033.28 1.95599 -0.00475228 0
M  V30 10923 O 1034.48 2.71166 0.134529 0
M  V30 10924 C 1032.94 2.63475 -2.45172 0
M  V30 10925 C 1032.55 2.20409 -3.90031 0
M  V30 10926 C 1034.29 3.4114 -2.52633 0
M  V30 10927 C 1032.2 3.35084 -4.87312 0
M  V30 10928 H 1031.13 0.547341 -0.518588 0
M  V30 10929 H 1033.78 0.762233 -1.6692 0
M  V30 10930 H 1032.16 3.35212 -2.10829 0
M  V30 10931 H 1033.33 1.56 -4.3359 0
M  V30 10932 H 1031.65 1.55752 -3.86174 0
M  V30 10933 H 1034.25 4.26496 -3.22498 0
M  V30 10934 H 1034.59 3.85915 -1.56125 0
M  V30 10935 H 1035.12 2.76456 -2.86037 0
M  V30 10936 H 1031.86 2.95327 -5.85203 0
M  V30 10937 H 1031.38 3.98362 -4.48406 0
M  V30 10938 H 1033.06 4.00949 -5.07788 0
M  V30 10939 N 1033.19 1.2685 0.935242 0
M  V30 10940 C 1034.61 1.04091 1.20984 0
M  V30 10941 C 1034.81 -0.230242 2.0018 0
M  V30 10942 O 1033.86 -0.93778 2.3444 0
M  V30 10943 C 1035.18 2.27586 1.96533 0
M  V30 10944 C 1036.72 2.32547 2.09501 0
M  V30 10945 C 1037.2 3.55751 2.88454 0
M  V30 10946 N 1038.69 3.56263 2.96025 0
M  V30 10947 C 1039.43 4.48262 3.57559 0
M  V30 10948 N 1038.92 5.50557 4.20546 0
M  V30 10949 N 1040.71 4.35901 3.5489 0
M  V30 10950 H 1032.87 2.08484 0.405954 0
M  V30 10951 H 1035.13 0.916548 0.242164 0
M  V30 10952 H 1034.83 3.20076 1.45753 0
M  V30 10953 H 1034.71 2.32305 2.97177 0
M  V30 10954 H 1037.1 1.40568 2.5947 0
M  V30 10955 H 1037.18 2.31836 1.08101 0
M  V30 10956 H 1036.82 4.48063 2.3917 0
M  V30 10957 H 1036.75 3.53711 3.90123 0
M  V30 10958 H 1039.24 2.82278 2.51252 0
M  V30 10959 H 1039.55 6.16935 4.65415 0
M  V30 10960 H 1037.9 5.54407 4.19115 0
M  V30 10961 H 1041.09 3.552 3.04879 0
M  V30 10962 H 1041.26 5.07792 4.02557 0
M  V30 10963 N 1034.67 -1.14067 1.0875 0
M  V30 10964 C 1035.92 -1.84819 0.817698 0
M  V30 10965 C 1036.24 -1.83545 -0.658488 0
M  V30 10966 O 1035.51 -1.28633 -1.47751 0
M  V30 10967 H 1034.09 -0.68433 0.299502 0
M  V30 10968 H 1036.75 -1.38208 1.37421 0
M  V30 10969 H 1035.85 -2.89541 1.16501 0
M  V30 10970 N 1036.15 -0.873678 -1.31166 0
M  V30 10971 C 1037.39 -0.496513 -1.97247 0
M  V30 10972 C 1037.75 0.941605 -1.67784 0
M  V30 10973 O 1037.04 1.65469 -0.965947 0
M  V30 10974 C 1037.24 -0.69462 -3.50585 0
M  V30 10975 C 1037.07 -2.15044 -3.94951 0
M  V30 10976 C 1035.84 -2.79278 -4.21108 0
M  V30 10977 C 1038.03 -3.1231 -4.08616 0
M  V30 10978 N 1036.02 -4.15574 -4.51853 0
M  V30 10979 C 1037.39 -4.33646 -4.43115 0
M  V30 10980 C 1039.44 -3.08251 -3.91006 0
M  V30 10981 C 1038.14 -5.51447 -4.61842 0
M  V30 10982 C 1040.17 -4.25314 -4.10929 0
M  V30 10983 C 1039.53 -5.45413 -4.45763 0
M  V30 10984 H 1035.63 -0.230797 -0.747166 0
M  V30 10985 H 1038.22 -1.12905 -1.58621 0
M  V30 10986 H 1036.39 -0.0916484 -3.88292 0
M  V30 10987 H 1038.12 -0.285475 -4.03692 0
M  V30 10988 H 1034.87 -2.30207 -4.13886 0
M  V30 10989 H 1035.3 -4.85932 -4.7138 0
M  V30 10990 H 1039.94 -2.16505 -3.6316 0
M  V30 10991 H 1037.66 -6.43707 -4.88535 0
M  V30 10992 H 1041.24 -4.2363 -3.98785 0
M  V30 10993 H 1040.12 -6.34487 -4.60865 0
M  V30 10994 N 1037.63 1.44308 -0.633487 0
M  V30 10995 C 1038.57 2.32455 0.0821956 0
M  V30 10996 C 1039.57 1.47482 0.833388 0
M  V30 10997 O 1040.77 1.63812 0.746021 0
M  V30 10998 H 1037.15 0.750631 0.045352 0
M  V30 10999 H 1039.12 2.90566 -0.679282 0
M  V30 11000 C 1037.87 3.31512 1.04858 0
M  V30 11001 H 1037.19 3.96908 0.479979 0
M  V30 11002 H 1038.63 3.95865 1.51879 0
M  V30 11003 C 1037.09 2.60615 2.13498 0
M  V30 11004 O 1037.62 2.40682 3.21613 0
M  V30 11005 N 1035.83 2.20315 1.89499 0
M  V30 11006 H 1035.37 2.36726 1.01581 0
M  V30 11007 H 1035.33 1.73205 2.62388 0
M  V30 11008 N 1039.1 0.374177 1.53094 0
M  V30 11009 C 1040.07 -0.455999 2.24618 0
M  V30 11010 C 1041.07 -1.00269 1.25709 0
M  V30 11011 O 1042.26 -0.887077 1.49922 0
M  V30 11012 C 1039.39 -1.63822 2.98957 0
M  V30 11013 H 1040.58 0.169986 2.99418 0
M  V30 11014 H 1038.14 0.126015 1.55791 0
M  V30 11015 H 1038.87 -2.30205 2.28421 0
M  V30 11016 H 1038.66 -1.25308 3.71538 0
M  V30 11017 H 1040.15 -2.22633 3.53305 0
M  V30 11018 N 1040.58 -1.57259 0.103575 0
M  V30 11019 C 1041.82 -1.96539 -0.561398 0
M  V30 11020 C 1042.19 -0.984775 -1.64822 0
M  V30 11021 O 1043.39 -1.26638 -2.371 0
M  V30 11022 C 1041.66 -3.40229 -1.09447 0
M  V30 11023 S 1043.22 -4.01512 -1.77013 0
M  V30 11024 H 1040.04 -0.687061 -0.182944 0
M  V30 11025 H 1042.64 -1.94623 0.184993 0
M  V30 11026 H 1041.34 -4.09359 -0.292091 0
M  V30 11027 H 1040.87 -3.45762 -1.8765 0
M  V30 11028 H 1042.89 -3.91009 -3.05494 0
M  V30 11029 N 1042.06 0.170153 -1.56679 0
M  V30 11030 C 1043.47 0.732502 -1.7173 0
M  V30 11031 C 1043.82 1.82736 -0.71428 0
M  V30 11032 O 1042.95 2.16044 0.124102 0
M  V30 11033 C 1043.54 1.33548 -3.11368 0
M  V30 11034 C 1042.1 1.84464 -3.281 0
M  V30 11035 C 1041.25 0.724069 -2.6768 0
M  V30 11036 H 1044.2 -0.0552543 -1.58604 0
M  V30 11037 H 1044.22 2.20519 -3.10083 0
M  V30 11038 H 1043.73 0.5384 -3.84347 0
M  V30 11039 H 1041.83 2.66813 -2.6008 0
M  V30 11040 H 1041.95 1.98928 -4.35849 0
M  V30 11041 H 1040.31 1.14481 -2.27522 0
M  V30 11042 H 1041.09 -0.0611861 -3.43245 0
M  V30 11043 N 1043.54 1.5137 0.438746 0
M  V30 11044 C 1044.45 1.75424 1.55768 0
M  V30 11045 C 1045.46 0.638409 1.61865 0
M  V30 11046 O 1046.64 0.9205 1.79133 0
M  V30 11047 C 1043.71 1.87288 2.9176 0
M  V30 11048 C 1042.77 3.11137 2.95791 0
M  V30 11049 C 1042 3.22425 4.25297 0
M  V30 11050 O 1042.22 2.39688 5.17596 0
M  V30 11051 O 1041.16 4.15393 4.35583 0
M  V30 11052 H 1044.98 2.70339 1.38386 0
M  V30 11053 H 1042.57 1.35854 0.621609 0
M  V30 11054 H 1044.45 1.97085 3.72472 0
M  V30 11055 H 1043.12 0.955599 3.09273 0
M  V30 11056 H 1042.03 3.06819 2.1404 0
M  V30 11057 H 1043.36 4.02549 2.83223 0
M  V30 11058 N 1045.02 -0.694098 1.41492 0
M  V30 11059 C 1046.26 -1.45127 1.4065 0
M  V30 11060 C 1046.59 -1.94993 0.0170289 0
M  V30 11061 O 1045.86 -1.71799 -0.941372 0
M  V30 11062 H 1044.44 -0.538493 0.51772 0
M  V30 11063 H 1047.1 -0.821441 1.76744 0
M  V30 11064 H 1046.19 -2.31372 2.0946 0
M  V30 11065 N 1046.49 -1.27344 -0.928501 0
M  V30 11066 C 1047.91 -1.04732 -1.2043 0
M  V30 11067 C 1048.11 0.219623 -2.003 0
M  V30 11068 O 1047.17 0.925333 -2.34934 0
M  V30 11069 C 1048.48 -2.28625 -1.95323 0
M  V30 11070 C 1050.03 -2.33655 -2.08265 0
M  V30 11071 C 1050.5 -3.57275 -2.86563 0
M  V30 11072 N 1051.99 -3.57828 -2.94132 0
M  V30 11073 C 1052.73 -4.50152 -3.55177 0
M  V30 11074 N 1052.22 -5.52779 -4.17621 0
M  V30 11075 N 1054.02 -4.37777 -3.52573 0
M  V30 11076 H 1046.17 -2.08697 -0.394892 0
M  V30 11077 H 1048.43 -0.91782 -0.2373 0
M  V30 11078 H 1048.14 -3.20845 -1.44054 0
M  V30 11079 H 1048.01 -2.33878 -2.95941 0
M  V30 11080 H 1050.4 -1.41942 -2.58721 0
M  V30 11081 H 1050.48 -2.32406 -1.0687 0
M  V30 11082 H 1050.12 -4.49325 -2.3679 0
M  V30 11083 H 1050.05 -3.55775 -3.88242 0
M  V30 11084 H 1052.54 -2.83607 -2.49751 0
M  V30 11085 H 1052.86 -6.19394 -4.62137 0
M  V30 11086 H 1051.2 -5.56622 -4.16169 0
M  V30 11087 H 1054.39 -3.56811 -3.02991 0
M  V30 11088 H 1054.57 -5.09919 -3.99858 0
M  V30 11089 N 1047.97 1.13488 -1.09353 0
M  V30 11090 C 1049.38 1.66299 -0.848609 0
M  V30 11091 C 1049.73 1.86044 0.623051 0
M  V30 11092 O 1048.86 1.57871 1.48005 0
M  V30 11093 C 1049.45 3.02087 -1.53391 0
M  V30 11094 C 1048.01 3.51893 -1.33598 0
M  V30 11095 C 1047.16 2.27154 -1.59048 0
M  V30 11096 H 1050.11 0.974208 -1.25279 0
M  V30 11097 H 1050.13 3.68018 -0.966587 0
M  V30 11098 H 1049.64 2.87684 -2.60498 0
M  V30 11099 H 1047.75 3.715 -0.286045 0
M  V30 11100 H 1047.86 4.32059 -2.0703 0
M  V30 11101 H 1046.22 2.33708 -1.01256 0
M  V30 11102 H 1047.01 2.15317 -2.67383 0
M  V30 11103 N 1049.45 0.880621 1.30701 0
M  V30 11104 C 1050.36 0.348034 2.32004 0
M  V30 11105 C 1051.38 -0.547508 1.65162 0
M  V30 11106 O 1052.55 -0.441673 1.96497 0
M  V30 11107 C 1049.62 -0.432585 3.43991 0
M  V30 11108 C 1048.68 0.492189 4.26469 0
M  V30 11109 C 1047.91 -0.25127 5.33108 0
M  V30 11110 O 1048.14 -1.47795 5.5092 0
M  V30 11111 O 1047.07 0.396376 6.00593 0
M  V30 11112 H 1050.9 1.18798 2.79501 0
M  V30 11113 H 1048.48 0.64432 1.34792 0
M  V30 11114 H 1050.36 -0.874733 4.12221 0
M  V30 11115 H 1049.04 -1.2489 2.98637 0
M  V30 11116 H 1047.94 0.983058 3.60953 0
M  V30 11117 H 1049.28 1.27439 4.75416 0
M  V30 11118 N 1050.93 -1.4397 0.641131 0
M  V30 11119 C 1052.18 -2.01946 0.149629 0
M  V30 11120 C 1052.5 -1.50496 -1.23212 0
M  V30 11121 O 1051.76 -0.683453 -1.83378 0
M  V30 11122 C 1052.06 -3.5727 0.0963368 0
M  V30 11123 C 1051.72 -4.28016 1.4182 0
M  V30 11124 C 1050.39 -4.47059 1.78021 0
M  V30 11125 C 1052.74 -4.68183 2.29028 0
M  V30 11126 C 1050.07 -5.03532 3.01119 0
M  V30 11127 C 1052.42 -5.26019 3.51406 0
M  V30 11128 C 1051.08 -5.4328 3.87818 0
M  V30 11129 H 1050.35 -0.738974 0.0547531 0
M  V30 11130 H 1053 -1.72605 0.829436 0
M  V30 11131 H 1051.3 -3.86083 -0.666879 0
M  V30 11132 H 1053 -3.99871 -0.300635 0
M  V30 11133 H 1049.59 -4.13531 1.12651 0
M  V30 11134 H 1053.78 -4.53175 2.02353 0
M  V30 11135 H 1049.03 -5.15082 3.29395 0
M  V30 11136 H 1053.21 -5.56092 4.19208 0
M  V30 11137 H 1050.83 -5.86805 4.83284 0
M  V30 11138 N 1052.41 -0.382291 -1.52893 0
M  V30 11139 C 1053.63 0.204961 -2.06385 0
M  V30 11140 C 1054.06 1.40316 -1.25271 0
M  V30 11141 O 1053.42 1.79187 -0.275969 0
M  V30 11142 C 1053.46 0.560205 -3.56222 0
M  V30 11143 O 1052.57 1.65515 -3.77728 0
M  V30 11144 H 1051.91 0.0258798 -0.663495 0
M  V30 11145 H 1054.44 -0.547733 -1.97132 0
M  V30 11146 H 1054.45 0.826501 -3.99541 0
M  V30 11147 H 1053.12 -0.31584 -4.14699 0
M  V30 11148 H 1051.7 1.38311 -3.46301 0
M  V30 11149 N 1053.89 1.57202 -0.111913 0
M  V30 11150 C 1054.8 2.18475 0.854753 0
M  V30 11151 C 1055.81 1.15888 1.29792 0
M  V30 11152 O 1056.99 1.48329 1.36237 0
M  V30 11153 C 1054.05 2.76645 2.0897 0
M  V30 11154 C 1053.11 3.94244 1.69913 0
M  V30 11155 C 1052.35 4.49631 2.8752 0
M  V30 11156 O 1052.57 4.03926 4.02741 0
M  V30 11157 O 1051.5 5.40417 2.65015 0
M  V30 11158 H 1055.33 3.01519 0.363352 0
M  V30 11159 H 1052.91 1.4897 0.113329 0
M  V30 11160 H 1054.8 3.13755 2.81311 0
M  V30 11161 H 1053.47 1.96637 2.5713 0
M  V30 11162 H 1052.38 3.61915 0.947013 0
M  V30 11163 H 1053.71 4.75666 1.26501 0
M  V30 11164 N 1055.36 -0.161842 1.56767 0
M  V30 11165 C 1056.61 -0.878224 1.82798 0
M  V30 11166 C 1056.94 -1.81481 0.691242 0
M  V30 11167 O 1056.22 -1.92075 -0.30618 0
M  V30 11168 C 1056.5 -1.66565 3.19262 0
M  V30 11169 C 1056.35 -0.751551 4.43477 0
M  V30 11170 C 1057.67 -2.63134 3.52773 0
M  V30 11171 H 1054.79 -0.317828 0.664947 0
M  V30 11172 H 1057.43 -0.14402 1.89453 0
M  V30 11173 H 1055.58 -2.29157 3.13719 0
M  V30 11174 H 1057.26 -0.137783 4.61094 0
M  V30 11175 H 1055.5 -0.0601785 4.33758 0
M  V30 11176 H 1056.17 -1.33823 5.35533 0
M  V30 11177 H 1058.65 -2.10666 3.5883 0
M  V30 11178 H 1057.52 -3.15289 4.49315 0
M  V30 11179 H 1057.78 -3.43786 2.77963 0
M  V30 11180 N 1056.84 -1.516 -0.430713 0
M  V30 11181 C 1058.09 -1.6484 -1.18134 0
M  V30 11182 C 1058.42 -0.366725 -1.90706 0
M  V30 11183 O 1057.7 0.63398 -1.83878 0
M  V30 11184 C 1057.98 -2.85617 -2.19306 0
M  V30 11185 C 1057.83 -4.23778 -1.50773 0
M  V30 11186 C 1059.15 -3.01909 -3.20217 0
M  V30 11187 H 1056.27 -0.599907 -0.428113 0
M  V30 11188 H 1058.91 -1.84102 -0.46973 0
M  V30 11189 H 1057.06 -2.69325 -2.79993 0
M  V30 11190 H 1058.73 -4.51752 -0.93371 0
M  V30 11191 H 1056.98 -4.26171 -0.809966 0
M  V30 11192 H 1057.65 -5.04291 -2.24487 0
M  V30 11193 H 1060.12 -3.16956 -2.69589 0
M  V30 11194 H 1059 -3.87968 -3.88293 0
M  V30 11195 H 1059.26 -2.1427 -3.86705 0
M  V30 11196 N 1058.32 0.686584 -1.41858 0
M  V30 11197 C 1059.25 1.81107 -1.38836 0
M  V30 11198 C 1060.23 1.60599 -0.254293 0
M  V30 11199 O 1061.41 1.83229 -0.442641 0
M  V30 11200 C 1058.54 3.17928 -1.16787 0
M  V30 11201 C 1057.59 3.5721 -2.33031 0
M  V30 11202 S 1058.42 3.60986 -3.95536 0
M  V30 11203 C 1059.58 5.00519 -3.75808 0
M  V30 11204 H 1059.81 1.83396 -2.33994 0
M  V30 11205 H 1057.34 0.856146 -1.28489 0
M  V30 11206 H 1059.3 3.9691 -1.04752 0
M  V30 11207 H 1057.96 3.1324 -0.232335 0
M  V30 11208 H 1057.15 4.56629 -2.13321 0
M  V30 11209 H 1056.76 2.8556 -2.41519 0
M  V30 11210 H 1059.05 5.88272 -3.36069 0
M  V30 11211 H 1059.99 5.25273 -4.74862 0
M  V30 11212 H 1060.4 4.72481 -3.08904 0
M  V30 11213 N 1059.8 1.27835 0.921735 0
M  V30 11214 C 1060.74 1.11075 2.02314 0
M  V30 11215 C 1061.71 0.0101195 1.66097 0
M  V30 11216 O 1062.9 0.173564 1.90009 0
M  V30 11217 C 1060.04 0.770251 3.36394 0
M  V30 11218 C 1059.15 1.94912 3.8553 0
M  V30 11219 C 1058.29 1.54996 5.08084 0
M  V30 11220 C 1057.33 2.69595 5.49531 0
M  V30 11221 N 1056.46 2.30227 6.6328 0
M  V30 11222 H 1061.3 2.05319 2.15982 0
M  V30 11223 H 1058.84 1.022 1.058 0
M  V30 11224 H 1060.8 0.553624 4.1351 0
M  V30 11225 H 1059.43 -0.135238 3.22517 0
M  V30 11226 H 1058.48 2.27811 3.04641 0
M  V30 11227 H 1059.79 2.80858 4.12214 0
M  V30 11228 H 1058.95 1.29493 5.9272 0
M  V30 11229 H 1057.69 0.661676 4.83191 0
M  V30 11230 H 1056.69 2.95806 4.63442 0
M  V30 11231 H 1057.92 3.59054 5.76417 0
M  V30 11232 H 1055.86 1.43858 6.40032 0
M  V30 11233 H 1055.78 3.09711 6.89649 0
M  V30 11234 H 1057.05 2.07987 7.5124 0
M  V30 11235 N 1061.28 -1.12907 1.09954 0
M  V30 11236 C 1062.21 -2.20585 0.765799 0
M  V30 11237 C 1063.19 -1.68117 -0.258989 0
M  V30 11238 O 1064.37 -1.93792 -0.125853 0
M  V30 11239 C 1061.5 -3.46772 0.191435 0
M  V30 11240 C 1060.46 -4.12363 1.14635 0
M  V30 11241 C 1059.78 -5.3294 0.433426 0
M  V30 11242 C 1061.08 -4.59073 2.49096 0
M  V30 11243 H 1062.78 -2.48759 1.66612 0
M  V30 11244 H 1060.32 -1.19563 0.802534 0
M  V30 11245 H 1062.27 -4.21365 -0.0541535 0
M  V30 11246 H 1061 -3.18011 -0.744101 0
M  V30 11247 H 1059.66 -3.39744 1.37731 0
M  V30 11248 H 1059.31 -5.00444 -0.506422 0
M  V30 11249 H 1059.01 -5.77772 1.07018 0
M  V30 11250 H 1060.53 -6.10284 0.196267 0
M  V30 11251 H 1061.94 -5.25063 2.30177 0
M  V30 11252 H 1060.34 -5.14665 3.0861 0
M  V30 11253 H 1061.41 -3.73313 3.0946 0
M  V30 11254 N 1062.75 -0.88754 -1.30232 0
M  V30 11255 C 1063.66 -0.360333 -2.31816 0
M  V30 11256 C 1064.68 0.538741 -1.6545 0
M  V30 11257 O 1065.86 0.431246 -1.96729 0
M  V30 11258 C 1062.92 0.414336 -3.44215 0
M  V30 11259 C 1061.98 -0.514799 -4.26202 0
M  V30 11260 C 1061.21 0.222994 -5.33234 0
M  V30 11261 O 1061.44 1.44871 -5.51696 0
M  V30 11262 O 1060.37 -0.428221 -6.00375 0
M  V30 11263 H 1064.2 -1.20279 -2.78867 0
M  V30 11264 H 1061.78 -0.651459 -1.34448 0
M  V30 11265 H 1063.66 0.852859 -4.12679 0
M  V30 11266 H 1062.34 1.23305 -2.99295 0
M  V30 11267 H 1061.25 -1.00219 -3.60426 0
M  V30 11268 H 1062.58 -1.29959 -4.74733 0
M  V30 11269 N 1064.23 1.43628 -0.648757 0
M  V30 11270 C 1065.14 2.34554 0.0463037 0
M  V30 11271 C 1066.16 1.53629 0.816952 0
M  V30 11272 O 1067.33 1.86297 0.765212 0
M  V30 11273 C 1064.4 3.3185 1.00381 0
M  V30 11274 C 1063.46 4.2868 0.230589 0
M  V30 11275 C 1062.69 5.21328 1.14249 0
M  V30 11276 O 1062.92 5.18298 2.38166 0
M  V30 11277 O 1061.85 5.98726 0.617296 0
M  V30 11278 H 1065.68 2.95475 -0.702008 0
M  V30 11279 H 1063.26 1.43694 -0.408942 0
M  V30 11280 H 1065.14 3.91692 1.5542 0
M  V30 11281 H 1063.82 2.73439 1.73243 0
M  V30 11282 H 1062.73 3.72332 -0.363282 0
M  V30 11283 H 1064.06 4.90061 -0.458368 0
M  V30 11284 N 1065.71 0.390394 1.52688 0
M  V30 11285 C 1066.95 -0.191207 2.03504 0
M  V30 11286 C 1067.31 -1.43952 1.27051 0
M  V30 11287 O 1068.52 -2.09835 1.67996 0
M  V30 11288 C 1066.79 -0.451552 3.54536 0
M  V30 11289 S 1068.35 -1.00328 4.27176 0
M  V30 11290 H 1065.16 -0.0537587 0.708965 0
M  V30 11291 H 1067.77 0.538993 1.87923 0
M  V30 11292 H 1066.47 0.464061 4.07768 0
M  V30 11293 H 1066 -1.21015 3.74325 0
M  V30 11294 H 1068.02 -2.28555 4.40428 0
M  V30 11295 N 1067.19 -1.57141 0.120249 0
M  V30 11296 C 1068.12 -2.18398 -0.826112 0
M  V30 11297 C 1069.1 -1.12439 -1.27638 0
M  V30 11298 O 1070.28 -1.40679 -1.33877 0
M  V30 11299 C 1067.41 -2.78438 -2.0758 0
M  V30 11300 C 1066.37 -3.89991 -1.76327 0
M  V30 11301 C 1065.69 -4.36844 -3.08336 0
M  V30 11302 C 1066.99 -5.12031 -1.03062 0
M  V30 11303 H 1068.69 -2.97731 -0.315656 0
M  V30 11304 H 1066.23 -1.43213 -0.150387 0
M  V30 11305 H 1068.19 -3.19951 -2.74243 0
M  V30 11306 H 1066.91 -1.96396 -2.60953 0
M  V30 11307 H 1065.57 -3.49055 -1.12053 0
M  V30 11308 H 1065.22 -3.51659 -3.59646 0
M  V30 11309 H 1064.92 -5.1207 -2.88199 0
M  V30 11310 H 1066.44 -4.81009 -3.76116 0
M  V30 11311 H 1067.86 -5.50555 -1.59881 0
M  V30 11312 H 1066.25 -5.92848 -0.930146 0
M  V30 11313 H 1067.32 -4.84897 -0.017582 0
M  V30 11314 N 1068.67 0.153526 -1.5685 0
M  V30 11315 C 1069.91 0.873522 -1.84794 0
M  V30 11316 C 1070.27 1.78642 -0.703648 0
M  V30 11317 O 1071.47 2.54537 -0.863972 0
M  V30 11318 C 1069.74 1.63316 -3.17904 0
M  V30 11319 S 1071.3 2.39948 -3.67383 0
M  V30 11320 H 1068.12 0.292233 -0.648167 0
M  V30 11321 H 1070.72 0.133949 -1.95041 0
M  V30 11322 H 1069.43 0.95387 -3.99161 0
M  V30 11323 H 1068.96 2.41377 -3.10646 0
M  V30 11324 H 1070.97 3.65011 -3.36127 0
M  V30 11325 N 1070.14 1.51827 0.422667 0
M  V30 11326 C 1071.09 1.74791 1.53463 0
M  V30 11327 C 1072.09 0.614602 1.57858 0
M  V30 11328 O 1073.29 0.796336 1.61426 0
M  V30 11329 H 1069.67 0.552524 0.510118 0
M  V30 11330 H 1071.64 2.67974 1.31273 0
M  V30 11331 C 1070.39 1.90339 2.90975 0
M  V30 11332 H 1069.71 2.76958 2.8833 0
M  V30 11333 H 1071.15 2.10413 3.68106 0
M  V30 11334 C 1069.61 0.66695 3.30232 0
M  V30 11335 O 1070.14 -0.171542 4.01334 0
M  V30 11336 N 1068.35 0.506768 2.86147 0
M  V30 11337 H 1067.89 1.19019 2.28456 0
M  V30 11338 H 1067.85 -0.319247 3.12775 0
M  V30 11339 N 1071.62 -0.679052 1.4222 0
M  V30 11340 C 1072.87 -1.43485 1.41757 0
M  V30 11341 C 1073.18 -1.95567 0.0358698 0
M  V30 11342 O 1074.39 -2.71346 -0.0913713 0
M  V30 11343 C 1072.85 -2.59541 2.49332 0
M  V30 11344 C 1072.45 -2.14176 3.93488 0
M  V30 11345 C 1074.2 -3.37078 2.58029 0
M  V30 11346 C 1072.11 -3.27289 4.92581 0
M  V30 11347 H 1071.04 -0.539022 0.52723 0
M  V30 11348 H 1073.69 -0.735581 1.68111 0
M  V30 11349 H 1072.07 -3.31815 2.16135 0
M  V30 11350 H 1073.24 -1.49082 4.36017 0
M  V30 11351 H 1071.56 -1.49589 3.88603 0
M  V30 11352 H 1074.15 -4.21312 3.29242 0
M  V30 11353 H 1074.5 -3.83383 1.62245 0
M  V30 11354 H 1075.03 -2.7187 2.90399 0
M  V30 11355 H 1071.77 -2.8598 5.89827 0
M  V30 11356 H 1071.29 -3.91178 4.54687 0
M  V30 11357 H 1072.97 -3.9282 5.14103 0
M  V30 11358 N 1073.1 -1.28322 -0.914942 0
M  V30 11359 C 1074.01 -1.13993 -2.05043 0
M  V30 11360 C 1075.03 -0.0667921 -1.73872 0
M  V30 11361 O 1076.2 -0.275845 -1.99502 0
M  V30 11362 C 1073.27 -0.801856 -3.373 0
M  V30 11363 C 1072.33 -1.95723 -3.82088 0
M  V30 11364 C 1071.56 -1.63519 -5.08033 0
M  V30 11365 O 1071.78 -0.54899 -5.67752 0
M  V30 11366 O 1070.72 -2.47844 -5.48504 0
M  V30 11367 H 1074.54 -2.09313 -2.2005 0
M  V30 11368 H 1072.13 -1.0763 -1.03616 0
M  V30 11369 H 1074.01 -0.627214 -4.16706 0
M  V30 11370 H 1072.69 0.121696 -3.23471 0
M  V30 11371 H 1071.59 -2.18702 -3.03514 0
M  V30 11372 H 1072.93 -2.86144 -4.00478 0
M  V30 11373 N 1074.58 1.12322 -1.10551 0
M  V30 11374 C 1075.51 2.20176 -0.777486 0
M  V30 11375 C 1076.49 1.68252 0.250069 0
M  V30 11376 O 1077.67 1.93856 0.115574 0
M  V30 11377 C 1074.8 3.46666 -0.209822 0
M  V30 11378 C 1073.76 4.11749 -1.1682 0
M  V30 11379 C 1073.08 5.32703 -0.461684 0
M  V30 11380 C 1074.38 4.57746 -2.51527 0
M  V30 11381 H 1076.08 2.47872 -1.67928 0
M  V30 11382 H 1073.62 1.19136 -0.808863 0
M  V30 11383 H 1075.58 4.21388 0.0318068 0
M  V30 11384 H 1074.3 3.18401 0.727226 0
M  V30 11385 H 1072.96 3.39009 -1.3953 0
M  V30 11386 H 1072.61 5.00706 0.479875 0
M  V30 11387 H 1072.31 5.77197 -1.1008 0
M  V30 11388 H 1073.83 6.10172 -0.228629 0
M  V30 11389 H 1075.25 5.23835 -2.32958 0
M  V30 11390 H 1073.64 5.13021 -3.11335 0
M  V30 11391 H 1074.71 3.71667 -3.11435 0
M  V30 11392 N 1076.06 0.894434 1.2976 0
M  V30 11393 C 1076.99 0.312806 2.26046 0
M  V30 11394 C 1077.97 -0.572024 1.52206 0
M  V30 11395 O 1079.15 -0.520009 1.81185 0
M  V30 11396 C 1076.28 -0.554624 3.34128 0
M  V30 11397 C 1075.32 0.262168 4.25693 0
M  V30 11398 S 1076.16 1.65656 5.09233 0
M  V30 11399 C 1077.31 0.795914 6.20819 0
M  V30 11400 H 1077.55 1.12895 2.75031 0
M  V30 11401 H 1075.08 0.694446 1.37901 0
M  V30 11402 H 1077.04 -1.04933 3.96862 0
M  V30 11403 H 1075.7 -1.34495 2.83848 0
M  V30 11404 H 1074.89 -0.400216 5.02408 0
M  V30 11405 H 1074.49 0.689829 3.67583 0
M  V30 11406 H 1076.79 0.0169942 6.77498 0
M  V30 11407 H 1077.73 1.53497 6.91263 0
M  V30 11408 H 1078.14 0.35263 5.63398 0
M  V30 11409 N 1077.53 -1.43282 0.656365 0
M  V30 11410 C 1078.76 -2.06641 0.177245 0
M  V30 11411 C 1079.18 -1.48893 -1.14946 0
M  V30 11412 O 1078.54 -0.600099 -1.7108 0
M  V30 11413 C 1078.59 -3.60453 0.10299 0
M  V30 11414 O 1077.69 -4.01687 -0.933895 0
M  V30 11415 H 1077.04 -0.656978 0.096314 0
M  V30 11416 H 1079.57 -1.83733 0.900178 0
M  V30 11417 H 1079.58 -4.07923 -0.079291 0
M  V30 11418 H 1078.25 -4.01861 1.07147 0
M  V30 11419 H 1076.83 -3.65801 -0.724148 0
M  V30 11420 N 1079.01 -0.398486 -1.52479 0
M  V30 11421 C 1080.42 0.0735015 -1.86555 0
M  V30 11422 C 1080.78 1.45361 -1.31775 0
M  V30 11423 O 1079.9 2.0632 -0.652759 0
M  V30 11424 C 1080.5 0.140152 -3.3851 0
M  V30 11425 C 1079.05 0.556451 -3.72264 0
M  V30 11426 C 1078.2 -0.275792 -2.75925 0
M  V30 11427 H 1081.15 -0.615991 -1.46257 0
M  V30 11428 H 1081.17 0.957507 -3.68255 0
M  V30 11429 H 1080.69 -0.864442 -3.7835 0
M  V30 11430 H 1078.79 1.56808 -3.37997 0
M  V30 11431 H 1078.9 0.308227 -4.78107 0
M  V30 11432 H 1077.26 0.260304 -2.53366 0
M  V30 11433 H 1078.05 -1.27854 -3.18604 0
M  V30 11434 N 1080.49 1.57075 -0.12858 0
M  V30 11435 C 1081.45 2.14643 0.803813 0
M  V30 11436 C 1082.45 1.08363 1.18803 0
M  V30 11437 O 1083.64 1.34093 1.11197 0
M  V30 11438 C 1080.78 2.6945 2.08829 0
M  V30 11439 H 1081.97 2.98362 0.303347 0
M  V30 11440 H 1079.52 1.55833 0.120735 0
M  V30 11441 H 1080.26 1.89345 2.63285 0
M  V30 11442 H 1080.04 3.47187 1.82218 0
M  V30 11443 H 1081.53 3.13865 2.7546 0
M  V30 11444 N 1081.97 -0.145205 1.5693 0
M  V30 11445 C 1083.19 -0.876386 1.87974 0
M  V30 11446 C 1083.62 -1.73866 0.717795 0
M  V30 11447 O 1082.98 -1.78224 -0.332551 0
M  V30 11448 C 1083.03 -1.70746 3.17613 0
M  V30 11449 O 1082.13 -2.81188 3.01674 0
M  V30 11450 H 1081.47 -0.243987 0.617549 0
M  V30 11451 H 1084 -0.135482 2.04151 0
M  V30 11452 H 1084.01 -2.1021 3.49679 0
M  V30 11453 H 1082.69 -1.07429 4.01786 0
M  V30 11454 H 1081.26 -2.45117 2.81019 0
M  V30 11455 N 1083.45 -1.52049 -0.414609 0
M  V30 11456 C 1084.67 -1.6997 -1.18848 0
M  V30 11457 C 1085.1 -0.406058 -1.83665 0
M  V30 11458 O 1084.46 0.635981 -1.69779 0
M  V30 11459 C 1084.5 -2.8327 -2.23138 0
M  V30 11460 O 1083.61 -2.48457 -3.29155 0
M  V30 11461 H 1082.95 -0.566003 -0.347183 0
M  V30 11462 H 1085.48 -1.98726 -0.486757 0
M  V30 11463 H 1085.49 -3.08022 -2.67557 0
M  V30 11464 H 1084.16 -3.7713 -1.75344 0
M  V30 11465 H 1082.74 -2.34357 -2.90054 0
M  V30 11466 N 1084.93 0.6715 -1.42579 0
M  V30 11467 C 1085.87 1.80623 -1.46554 0
M  V30 11468 C 1086.87 1.65934 -0.340932 0
M  V30 11469 O 1088.07 1.72502 -0.514098 0
M  V30 11470 H 1084.45 0.595619 -0.459067 0
M  V30 11471 H 1086.42 1.74388 -2.42139 0
M  V30 11472 C 1085.17 3.18794 -1.38801 0
M  V30 11473 H 1084.49 3.30725 -2.24635 0
M  V30 11474 H 1085.93 3.98201 -1.45645 0
M  V30 11475 C 1084.39 3.36742 -0.103219 0
M  V30 11476 O 1084.92 3.92761 0.842715 0
M  V30 11477 N 1083.13 2.90594 -0.0193034 0
M  V30 11478 H 1082.67 2.45192 -0.78986 0
M  V30 11479 H 1082.63 3.0298 0.839686 0
M  V30 11480 N 1086.4 1.28806 0.908124 0
M  V30 11481 C 1087.63 1.19271 1.69674 0
M  V30 11482 C 1088.05 -0.244403 1.86505 0
M  V30 11483 O 1087.41 -1.17668 1.37927 0
M  V30 11484 C 1087.46 1.9023 3.06341 0
M  V30 11485 O 1086.56 1.2136 3.94139 0
M  V30 11486 H 1085.9 0.413738 0.519343 0
M  V30 11487 H 1088.43 1.70227 1.13508 0
M  V30 11488 H 1088.44 1.98356 3.56537 0
M  V30 11489 H 1087.12 2.94762 2.93408 0
M  V30 11490 H 1085.7 1.21435 3.52573 0
M  V30 11491 N 1087.88 -1.11734 1.11145 0
M  V30 11492 C 1089.11 -1.87755 0.881062 0
M  V30 11493 C 1089.53 -1.79461 -0.563496 0
M  V30 11494 O 1088.89 -1.15481 -1.39763 0
M  V30 11495 C 1088.94 -3.34641 1.34342 0
M  V30 11496 O 1088.04 -4.09195 0.513157 0
M  V30 11497 H 1087.38 -0.583111 0.317613 0
M  V30 11498 H 1089.91 -1.41256 1.48013 0
M  V30 11499 H 1089.92 -3.85486 1.33658 0
M  V30 11500 H 1088.6 -3.39994 2.39534 0
M  V30 11501 H 1087.17 -3.68269 0.585833 0
M  V30 11502 N 1089.36 -0.901303 -1.29284 0
M  V30 11503 C 1090.61 -0.527 -1.95108 0
M  V30 11504 C 1090.93 0.930065 -1.71391 0
M  V30 11505 O 1090.2 1.65601 -1.04658 0
M  V30 11506 H 1088.78 -0.191903 -0.721929 0
M  V30 11507 H 1091.44 -1.14795 -1.57506 0
M  V30 11508 H 1090.54 -0.710945 -3.03895 0
M  V30 11509 N 1090.84 1.42931 -0.663954 0
M  V30 11510 C 1092.06 2.06544 -0.188201 0
M  V30 11511 C 1092.49 1.495 1.14155 0
M  V30 11512 O 1091.85 0.609164 1.7076 0
M  V30 11513 C 1091.89 3.60393 -0.122105 0
M  V30 11514 O 1091 4.02176 0.91258 0
M  V30 11515 H 1090.34 0.656458 -0.0997967 0
M  V30 11516 H 1092.87 1.83253 -0.909909 0
M  V30 11517 H 1092.88 4.07959 0.0576568 0
M  V30 11518 H 1091.55 4.01287 -1.09276 0
M  V30 11519 H 1090.13 3.6618 0.704738 0
M  V30 11520 N 1092.32 0.406567 1.52266 0
M  V30 11521 C 1093.25 -0.411314 2.29849 0
M  V30 11522 C 1094.23 -1.04838 1.33952 0
M  V30 11523 O 1095.41 -1.05788 1.62857 0
M  V30 11524 C 1092.54 -1.52961 3.11802 0
M  V30 11525 C 1091.5 -1.01768 4.15725 0
M  V30 11526 C 1090.82 -2.22938 4.86007 0
M  V30 11527 C 1092.12 -0.073515 5.22248 0
M  V30 11528 H 1093.82 0.236054 2.98468 0
M  V30 11529 H 1091.36 0.114968 1.4354 0
M  V30 11530 H 1093.31 -2.10874 3.64843 0
M  V30 11531 H 1092.04 -2.20482 2.40947 0
M  V30 11532 H 1090.7 -0.46097 3.6369 0
M  V30 11533 H 1090.35 -2.89007 4.11684 0
M  V30 11534 H 1090.05 -1.89338 5.5626 0
M  V30 11535 H 1091.57 -2.81462 5.41859 0
M  V30 11536 H 1092.98 -0.561367 5.70545 0
M  V30 11537 H 1091.38 0.173551 5.99849 0
M  V30 11538 H 1092.45 0.872524 4.76985 0
M  V30 11539 N 1093.79 -1.57004 0.136909 0
M  V30 11540 C 1095.02 -2.00587 -0.527209 0
M  V30 11541 C 1095.44 -1.01628 -1.58283 0
M  V30 11542 O 1094.8 0.00946934 -1.81298 0
M  V30 11543 C 1094.85 -3.42967 -1.11384 0
M  V30 11544 O 1093.95 -3.46973 -2.22898 0
M  V30 11545 H 1093.3 -0.651155 -0.129976 0
M  V30 11546 H 1095.83 -2.03296 0.230667 0
M  V30 11547 H 1095.84 -3.81555 -1.44499 0
M  V30 11548 H 1094.51 -4.14502 -0.340736 0
M  V30 11549 H 1093.09 -3.20219 -1.91087 0
M  V30 11550 N 1095.27 0.136881 -1.57004 0
M  V30 11551 C 1096.68 0.695911 -1.73245 0
M  V30 11552 C 1097.03 1.8118 -0.75288 0
M  V30 11553 O 1096.16 2.16258 0.0782477 0
M  V30 11554 C 1096.75 1.26914 -3.14131 0
M  V30 11555 C 1095.31 1.77463 -3.31939 0
M  V30 11556 C 1094.46 0.667128 -2.69156 0
M  V30 11557 H 1097.41 -0.0888841 -1.58451 0
M  V30 11558 H 1097.43 2.13892 -3.14691 0
M  V30 11559 H 1096.94 0.456754 -3.85403 0
M  V30 11560 H 1095.05 2.61236 -2.65681 0
M  V30 11561 H 1095.16 1.89638 -4.39971 0
M  V30 11562 H 1093.52 1.09629 -2.29899 0
M  V30 11563 H 1094.31 -0.13398 -3.43038 0
M  V30 11564 N 1096.75 1.52266 0.40654 0
M  V30 11565 C 1097.98 1.70598 1.17945 0
M  V30 11566 C 1098.4 0.415793 1.83447 0
M  V30 11567 O 1097.76 -0.626968 1.70114 0
M  V30 11568 C 1097.81 2.84449 2.21633 0
M  V30 11569 O 1096.91 2.50199 3.27833 0
M  V30 11570 H 1096.25 0.567837 0.344177 0
M  V30 11571 H 1098.78 1.98981 0.476211 0
M  V30 11572 H 1098.79 3.09436 2.65919 0
M  V30 11573 H 1097.47 3.78055 1.73341 0
M  V30 11574 H 1096.04 2.35892 2.88807 0
M  V30 11575 N 1098.23 -0.663929 1.42933 0
M  V30 11576 C 1099.45 -1.45691 1.47611 0
M  V30 11577 C 1099.88 -1.87875 0.0920305 0
M  V30 11578 O 1099.24 -1.56696 -0.91192 0
M  V30 11579 C 1099.28 -2.67517 2.41799 0
M  V30 11580 O 1098.39 -3.66187 1.89686 0
M  V30 11581 H 1097.73 -0.437257 0.499702 0
M  V30 11582 H 1100.26 -0.813397 1.87737 0
M  V30 11583 H 1100.27 -3.1546 2.58745 0
M  V30 11584 H 1098.94 -2.36155 3.4235 0
M  V30 11585 H 1097.52 -3.25274 1.82349 0
M  V30 11586 N 1099.71 -1.29285 -0.901281 0
M  V30 11587 C 1100.93 -1.20169 -1.69039 0
M  V30 11588 C 1101.36 0.234509 -1.86632 0
M  V30 11589 O 1100.71 1.16935 -1.38549 0
M  V30 11590 C 1100.76 -1.91852 -3.05328 0
M  V30 11591 O 1099.87 -1.23448 -3.9349 0
M  V30 11592 H 1099.21 -0.416486 -0.517141 0
M  V30 11593 H 1101.74 -1.70826 -1.12603 0
M  V30 11594 H 1101.75 -2.00244 -3.5548 0
M  V30 11595 H 1100.42 -2.96313 -2.91841 0
M  V30 11596 H 1099 -1.23303 -3.51924 0
M  V30 11597 N 1101.18 1.11143 -1.11736 0
M  V30 11598 C 1102.41 1.87285 -0.891007 0
M  V30 11599 C 1102.83 1.79758 0.553971 0
M  V30 11600 O 1102.19 1.16221 1.39149 0
M  V30 11601 C 1102.24 3.33924 -1.36114 0
M  V30 11602 O 1101.34 4.08917 -0.534851 0
M  V30 11603 H 1100.69 0.581418 -0.320701 0
M  V30 11604 H 1103.22 1.40469 -1.4876 0
M  V30 11605 H 1103.23 3.84772 -1.35701 0
M  V30 11606 H 1101.9 3.38719 -2.41334 0
M  V30 11607 H 1100.48 3.67954 -0.605355 0
M  V30 11608 N 1102.66 0.908147 1.28804 0
M  V30 11609 C 1103.94 0.457561 1.90173 0
M  V30 11610 C 1104.32 -1.06333 1.82364 0
M  V30 11611 O 1103.67 -1.90892 1.25589 0
M  V30 11612 C 1103.88 0.981624 3.34911 0
M  V30 11613 C 1105.23 1.03037 4.11908 0
M  V30 11614 O 1106.25 0.929878 3.43848 0
M  V30 11615 O 1105.11 1.18257 5.33552 0
M  V30 11616 H 1102.2 0.144081 0.814352 0
M  V30 11617 H 1104.75 0.998565 1.37211 0
M  V30 11618 H 1103.52 2.02561 3.34791 0
M  V30 11619 H 1103.14 0.421122 3.95364 0
M  V30 11620 N 1104.14 -1.42577 0.671525 0
M  V30 11621 C 1105.38 -2.03455 0.196271 0
M  V30 11622 C 1105.74 -1.51934 -1.17389 0
M  V30 11623 O 1106.95 -2.04577 -1.74361 0
M  V30 11624 C 1105.22 -3.56687 0.225624 0
M  V30 11625 S 1106.78 -4.38434 -0.179107 0
M  V30 11626 H 1103.59 -0.706371 0.0809995 0
M  V30 11627 H 1106.2 -1.74375 0.883948 0
M  V30 11628 H 1104.9 -3.91684 1.22524 0
M  V30 11629 H 1104.43 -3.90436 -0.481994 0
M  V30 11630 H 1106.45 -4.75646 -1.41332 0
M  V30 11631 N 1105.62 -0.414636 -1.52048 0
M  V30 11632 C 1106.55 0.399119 -2.30064 0
M  V30 11633 C 1107.53 1.04126 -1.34506 0
M  V30 11634 O 1108.71 1.04923 -1.63416 0
M  V30 11635 C 1105.84 1.51305 -3.12608 0
M  V30 11636 C 1104.8 0.995621 -4.16259 0
M  V30 11637 C 1104.12 2.20357 -4.87183 0
M  V30 11638 C 1105.42 0.0458178 -5.2228 0
M  V30 11639 H 1107.12 -0.251879 -2.98339 0
M  V30 11640 H 1104.66 -0.122579 -1.43477 0
M  V30 11641 H 1106.62 2.08936 -3.65956 0
M  V30 11642 H 1105.34 2.19201 -2.42113 0
M  V30 11643 H 1104 0.441676 -3.6393 0
M  V30 11644 H 1103.65 2.8682 -4.13211 0
M  V30 11645 H 1103.35 1.86385 -5.57256 0
M  V30 11646 H 1104.87 2.78584 -5.43345 0
M  V30 11647 H 1106.29 0.531102 -5.70835 0
M  V30 11648 H 1104.68 -0.20536 -5.99749 0
M  V30 11649 H 1105.75 -0.897807 -4.76516 0
M  V30 11650 N 1107.1 1.56929 -0.145233 0
M  V30 11651 C 1108.34 1.96358 0.50707 0
M  V30 11652 C 1108.68 1.03005 1.64632 0
M  V30 11653 O 1107.95 0.0721045 1.94366 0
M  V30 11654 C 1108.23 3.45502 1.01492 0
M  V30 11655 C 1108.09 4.49633 -0.122708 0
M  V30 11656 C 1109.41 3.97103 1.89729 0
M  V30 11657 H 1106.52 0.713958 0.182848 0
M  V30 11658 H 1109.17 1.8865 -0.226102 0
M  V30 11659 H 1107.32 3.52202 1.6397 0
M  V30 11660 H 1108.99 4.55013 -0.758988 0
M  V30 11661 H 1107.23 4.26691 -0.782109 0
M  V30 11662 H 1107.9 5.51318 0.27432 0
M  V30 11663 H 1110.38 3.92871 1.37082 0
M  V30 11664 H 1109.25 5.01927 2.22173 0
M  V30 11665 H 1109.52 3.39354 2.83357 0
M  V30 11666 N 1108.58 -0.128553 1.57075 0
M  V30 11667 C 1109.52 -1.17719 2.00611 0
M  V30 11668 C 1110.52 -1.43423 0.90146 0
M  V30 11669 O 1111.72 -1.43498 1.08666 0
M  V30 11670 H 1108.1 -0.396683 0.638864 0
M  V30 11671 H 1110.07 -0.783437 2.87932 0
M  V30 11672 C 1108.82 -2.49826 2.41831 0
M  V30 11673 H 1108.14 -2.30883 3.26394 0
M  V30 11674 H 1109.58 -3.21784 2.761 0
M  V30 11675 C 1108.04 -3.11712 1.27816 0
M  V30 11676 O 1108.57 -3.9736 0.588917 0
M  V30 11677 N 1106.78 -2.71442 1.03767 0
M  V30 11678 H 1106.32 -2.01891 1.59994 0
M  V30 11679 H 1106.28 -3.1318 0.276743 0
M  V30 11680 N 1110.05 -1.5248 -0.398459 0
M  V30 11681 C 1111.47 -1.4152 -0.737854 0
M  V30 11682 C 1111.67 -0.528122 -1.94456 0
M  V30 11683 O 1110.73 0.00203799 -2.525 0
M  V30 11684 C 1112.04 -2.8422 -0.9818 0
M  V30 11685 C 1113.59 -2.93635 -1.08386 0
M  V30 11686 C 1114.06 -4.37327 -1.3605 0
M  V30 11687 N 1115.55 -4.40609 -1.42892 0
M  V30 11688 C 1116.29 -5.48863 -1.65944 0
M  V30 11689 N 1115.78 -6.67217 -1.86529 0
M  V30 11690 N 1117.58 -5.36393 -1.68046 0
M  V30 11691 H 1109.73 -2.08681 0.395705 0
M  V30 11692 H 1111.99 -0.941023 0.114801 0
M  V30 11693 H 1111.7 -3.51302 -0.167358 0
M  V30 11694 H 1111.57 -3.25907 -1.89907 0
M  V30 11695 H 1113.96 -2.26728 -1.88888 0
M  V30 11696 H 1114.04 -2.5539 -0.144714 0
M  V30 11697 H 1113.68 -5.04797 -0.56061 0
M  V30 11698 H 1113.61 -4.73116 -2.31233 0
M  V30 11699 H 1116.1 -3.55298 -1.2873 0
M  V30 11700 H 1116.42 -7.45498 -2.03599 0
M  V30 11701 H 1114.76 -6.70263 -1.83773 0
M  V30 11702 H 1117.95 -4.42903 -1.51509 0
M  V30 11703 H 1118.13 -6.2083 -1.85672 0
M  V30 11704 N 1111.53 0.65634 -1.43283 0
M  V30 11705 C 1112.78 1.41347 -1.44449 0
M  V30 11706 C 1113.1 1.94879 -0.0687217 0
M  V30 11707 O 1112.37 1.74235 0.895492 0
M  V30 11708 H 1110.95 0.524578 -0.531815 0
M  V30 11709 H 1113.61 0.774292 -1.7886 0
M  V30 11710 H 1112.71 2.25737 -2.15521 0
M  V30 11711 N 1113.01 1.29761 0.894412 0
M  V30 11712 C 1114.26 1.17806 1.64214 0
M  V30 11713 C 1114.58 -0.269588 1.93127 0
M  V30 11714 O 1113.85 -1.18352 1.56107 0
M  V30 11715 H 1112.43 0.433002 0.608702 0
M  V30 11716 H 1115.09 1.6276 1.07216 0
M  V30 11717 H 1114.19 1.73201 2.5963 0
M  V30 11718 N 1114.49 -1.10549 1.12324 0
M  V30 11719 C 1115.9 -1.63991 0.892402 0
M  V30 11720 C 1116.25 -1.87631 -0.573506 0
M  V30 11721 O 1115.37 -1.6174 -1.43768 0
M  V30 11722 C 1115.97 -2.97914 1.61347 0
M  V30 11723 C 1114.53 -3.48227 1.42881 0
M  V30 11724 C 1113.68 -2.22857 1.65015 0
M  V30 11725 H 1116.63 -0.94065 1.27818 0
M  V30 11726 H 1116.65 -3.65326 1.06382 0
M  V30 11727 H 1116.16 -2.80677 2.68034 0
M  V30 11728 H 1114.26 -3.70611 0.384441 0
M  V30 11729 H 1114.37 -4.26419 2.18413 0
M  V30 11730 H 1112.74 -2.30941 1.07417 0
M  V30 11731 H 1113.52 -2.08152 2.72997 0
M  V30 11732 N 1115.97 -0.914965 -1.28321 0
M  V30 11733 C 1117.21 -0.547665 -1.94538 0
M  V30 11734 C 1117.53 0.911834 -1.72368 0
M  V30 11735 O 1116.8 1.64481 -1.06408 0
M  V30 11736 H 1115.38 -0.199549 -0.719853 0
M  V30 11737 H 1118.05 -1.16459 -1.5628 0
M  V30 11738 H 1117.14 -0.743138 -3.03124 0
M  V30 11739 N 1117.44 1.42219 -0.679077 0
M  V30 11740 C 1118.86 1.55737 -0.349034 0
M  V30 11741 C 1119.06 1.65789 1.14527 0
M  V30 11742 O 1118.12 1.62717 1.93079 0
M  V30 11743 C 1119.43 2.80516 -1.0831 0
M  V30 11744 C 1120.98 2.94294 -1.06584 0
M  V30 11745 C 1121.45 4.2194 -1.78132 0
M  V30 11746 N 1122.94 4.28861 -1.75021 0
M  V30 11747 C 1123.68 5.26453 -2.27234 0
M  V30 11748 N 1123.17 6.30171 -2.87847 0
M  V30 11749 N 1124.97 5.1828 -2.17584 0
M  V30 11750 H 1117.12 1.33939 -1.64846 0
M  V30 11751 H 1119.38 0.645029 -0.694725 0
M  V30 11752 H 1119.09 2.79241 -2.13816 0
M  V30 11753 H 1118.96 3.71539 -0.651069 0
M  V30 11754 H 1121.35 2.95094 -0.0191061 0
M  V30 11755 H 1121.43 2.04491 -1.53679 0
M  V30 11756 H 1121.07 4.21901 -2.82776 0
M  V30 11757 H 1121 5.10685 -1.28483 0
M  V30 11758 H 1123.49 3.54537 -1.30814 0
M  V30 11759 H 1123.81 7.01 -3.25298 0
M  V30 11760 H 1122.15 6.30721 -2.91918 0
M  V30 11761 H 1125.34 4.36172 -1.69916 0
M  V30 11762 H 1125.52 5.94172 -2.58581 0
M  V30 11763 N 1118.92 0.422693 1.51826 0
M  V30 11764 C 1120.15 -0.15017 2.06856 0
M  V30 11765 C 1120.57 -1.36946 1.28948 0
M  V30 11766 O 1119.93 -1.78393 0.32338 0
M  V30 11767 C 1119.98 -0.465563 3.57582 0
M  V30 11768 O 1119.08 -1.55442 3.81984 0
M  V30 11769 H 1118.42 -0.00827931 0.663948 0
M  V30 11770 H 1120.95 0.599806 1.95611 0
M  V30 11771 H 1120.96 -0.720279 4.01592 0
M  V30 11772 H 1119.64 0.425679 4.13716 0
M  V30 11773 H 1118.21 -1.29081 3.49846 0
M  V30 11774 N 1120.4 -1.5685 0.153553 0
M  V30 11775 C 1121.35 -2.13671 -0.795526 0
M  V30 11776 C 1122.33 -1.06624 -1.20499 0
M  V30 11777 O 1123.53 -1.32788 -1.17032 0
M  V30 11778 C 1120.65 -2.76704 -2.03199 0
M  V30 11779 C 1119.74 -3.90884 -1.64532 0
M  V30 11780 N 1120.13 -4.96466 -0.96723 0
M  V30 11781 C 1118.43 -4.01713 -1.93759 0
M  V30 11782 C 1119.13 -5.76453 -0.779527 0
M  V30 11783 N 1118.11 -5.27444 -1.31544 0
M  V30 11784 H 1121.91 -2.92673 -0.268288 0
M  V30 11785 H 1119.42 -1.6233 -0.0477596 0
M  V30 11786 H 1121.42 -3.15777 -2.72196 0
M  V30 11787 H 1120.08 -1.99177 -2.56434 0
M  V30 11788 H 1121.09 -5.14087 -0.627253 0
M  V30 11789 H 1117.77 -3.3527 -2.48797 0
M  V30 11790 H 1119.16 -6.71455 -0.244604 0
M  V30 11791 N 1121.88 0.120221 -1.57141 0
M  V30 11792 C 1123.12 0.829449 -1.85062 0
M  V30 11793 C 1123.46 1.79585 -0.739116 0
M  V30 11794 O 1122.73 1.92819 0.255147 0
M  V30 11795 C 1123.01 1.58042 -3.23566 0
M  V30 11796 C 1122.87 0.633706 -4.45314 0
M  V30 11797 C 1124.19 2.53688 -3.59625 0
M  V30 11798 H 1121.31 0.300086 -0.67314 0
M  V30 11799 H 1123.95 0.0937393 -1.89769 0
M  V30 11800 H 1122.1 2.20758 -3.19684 0
M  V30 11801 H 1123.77 0.0154836 -4.61297 0
M  V30 11802 H 1122.01 -0.054846 -4.33765 0
M  V30 11803 H 1122.68 1.19577 -5.38893 0
M  V30 11804 H 1125.16 2.01078 -3.6429 0
M  V30 11805 H 1124.04 3.03265 -4.57516 0
M  V30 11806 H 1124.3 3.36296 -2.8698 0
M  V30 11807 N 1123.36 1.52689 0.390367 0
M  V30 11808 C 1124.32 1.76726 1.45947 0
M  V30 11809 C 1125.32 0.637269 1.47633 0
M  V30 11810 O 1126.51 0.905312 1.48828 0
M  V30 11811 C 1123.64 1.86678 2.85244 0
M  V30 11812 H 1124.83 2.72185 1.25918 0
M  V30 11813 H 1122.39 1.4339 0.622023 0
M  V30 11814 H 1123.12 0.931991 3.10619 0
M  V30 11815 H 1122.91 2.68843 2.85422 0
M  V30 11816 H 1124.4 2.06952 3.62713 0
M  V30 11817 N 1124.83 -0.648732 1.43629 0
M  V30 11818 C 1125.8 -1.74331 1.488 0
M  V30 11819 C 1126.8 -1.56434 0.372147 0
M  V30 11820 O 1127.99 -1.6225 0.634078 0
M  V30 11821 C 1125.12 -3.13248 1.34494 0
M  V30 11822 H 1126.31 -1.71125 2.46285 0
M  V30 11823 H 1123.87 -0.860798 1.30461 0
M  V30 11824 H 1124.6 -3.22062 0.380345 0
M  V30 11825 H 1124.39 -3.27643 2.15389 0
M  V30 11826 H 1125.88 -3.93056 1.41055 0
M  V30 11827 N 1126.31 -1.30234 -0.887518 0
M  V30 11828 C 1127.24 -1.18969 -2.00919 0
M  V30 11829 C 1128.22 -0.080952 -1.69907 0
M  V30 11830 O 1129.41 -0.262546 -1.92417 0
M  V30 11831 C 1126.54 -0.878094 -3.36016 0
M  V30 11832 C 1125.49 -1.94449 -3.81279 0
M  V30 11833 C 1124.82 -1.48594 -5.13638 0
M  V30 11834 C 1126.12 -3.35519 -4.00281 0
M  V30 11835 H 1127.81 -2.12808 -2.10602 0
M  V30 11836 H 1125.36 -1.02454 -1.01189 0
M  V30 11837 H 1127.31 -0.785954 -4.14006 0
M  V30 11838 H 1126.04 0.0959779 -3.26459 0
M  V30 11839 H 1124.69 -2.02622 -3.05516 0
M  V30 11840 H 1124.34 -0.500204 -5.00507 0
M  V30 11841 H 1124.04 -2.19921 -5.44893 0
M  V30 11842 H 1125.57 -1.40754 -5.94156 0
M  V30 11843 H 1126.98 -3.30119 -4.68716 0
M  V30 11844 H 1125.38 -4.0491 -4.42909 0
M  V30 11845 H 1126.45 -3.77597 -3.04218 0
M  V30 11846 N 1127.79 1.09952 -1.12909 0
M  V30 11847 C 1129.21 1.34051 -0.866172 0
M  V30 11848 C 1129.41 1.95169 0.501125 0
M  V30 11849 O 1128.46 2.19458 1.24878 0
M  V30 11850 C 1129.78 2.25738 -1.98653 0
M  V30 11851 C 1131.32 2.39261 -2.01799 0
M  V30 11852 C 1131.8 3.3428 -3.13083 0
M  V30 11853 N 1133.29 3.41851 -3.12558 0
M  V30 11854 C 1134.02 4.15358 -3.95304 0
M  V30 11855 N 1133.52 4.91709 -4.88051 0
M  V30 11856 N 1135.31 4.11027 -3.83423 0
M  V30 11857 H 1127.46 0.686521 -2.00999 0
M  V30 11858 H 1129.73 0.364913 -0.874953 0
M  V30 11859 H 1129.43 1.88048 -2.97205 0
M  V30 11860 H 1129.31 3.26085 -1.89601 0
M  V30 11861 H 1131.69 2.76218 -1.03864 0
M  V30 11862 H 1131.78 1.38712 -2.14925 0
M  V30 11863 H 1131.42 2.98048 -4.11254 0
M  V30 11864 H 1131.35 4.34721 -2.97195 0
M  V30 11865 H 1133.84 2.87405 -2.45371 0
M  V30 11866 H 1134.15 5.45212 -5.47689 0
M  V30 11867 H 1132.5 4.90816 -4.92061 0
M  V30 11868 H 1135.69 3.50477 -3.10296 0
M  V30 11869 H 1135.86 4.68054 -4.4814 0
M  V30 11870 N 1129.27 0.921757 1.27833 0
M  V30 11871 C 1130.49 0.574599 1.99281 0
M  V30 11872 C 1130.92 -0.838905 1.68357 0
M  V30 11873 O 1130.28 -1.56196 0.920468 0
M  V30 11874 C 1130.32 0.800027 3.51613 0
M  V30 11875 O 1129.43 -0.137215 4.12172 0
M  V30 11876 H 1128.77 0.221887 0.625829 0
M  V30 11877 H 1131.3 1.23939 1.62789 0
M  V30 11878 H 1131.31 0.71326 4.01717 0
M  V30 11879 H 1129.98 1.83042 3.73455 0
M  V30 11880 H 1128.56 -0.00103872 3.729 0
M  V30 11881 N 1130.75 -1.41857 0.686609 0
M  V30 11882 C 1132.16 -1.55549 0.357288 0
M  V30 11883 C 1132.36 -1.66394 -1.13646 0
M  V30 11884 O 1131.42 -1.63739 -1.92213 0
M  V30 11885 C 1132.73 -2.79938 1.09796 0
M  V30 11886 C 1134.28 -2.93724 1.08143 0
M  V30 11887 C 1134.75 -4.20989 1.80367 0
M  V30 11888 N 1136.25 -4.27927 1.77293 0
M  V30 11889 C 1136.98 -5.2524 2.30022 0
M  V30 11890 N 1136.48 -6.28636 2.91185 0
M  V30 11891 N 1138.27 -5.17118 2.20329 0
M  V30 11892 H 1130.42 -1.33063 1.65554 0
M  V30 11893 H 1132.68 -0.641335 0.698135 0
M  V30 11894 H 1132.39 -2.78104 2.15293 0
M  V30 11895 H 1132.26 -3.71188 0.670763 0
M  V30 11896 H 1134.65 -2.9508 0.0347554 0
M  V30 11897 H 1134.73 -2.03673 1.54761 0
M  V30 11898 H 1134.38 -4.20395 2.85009 0
M  V30 11899 H 1134.31 -5.09997 1.3119 0
M  V30 11900 H 1136.8 -3.53838 1.32692 0
M  V30 11901 H 1137.11 -6.99265 3.29011 0
M  V30 11902 H 1135.45 -6.29164 2.95259 0
M  V30 11903 H 1138.65 -4.35265 1.72226 0
M  V30 11904 H 1138.82 -5.92792 2.61728 0
M  V30 11905 N 1132.22 -0.430739 -1.51599 0
M  V30 11906 C 1133.47 0.137929 -2.0203 0
M  V30 11907 C 1133.8 1.43287 -1.31526 0
M  V30 11908 O 1133.05 1.9121 -0.416814 0
M  V30 11909 C 1133.35 0.410694 -3.55032 0
M  V30 11910 C 1133.02 -0.797634 -4.43789 0
M  V30 11911 C 1131.68 -1.12902 -4.67768 0
M  V30 11912 C 1134.03 -1.60403 -4.95904 0
M  V30 11913 C 1131.36 -2.2676 -5.41107 0
M  V30 11914 C 1133.71 -2.73354 -5.70491 0
M  V30 11915 C 1132.38 -3.06955 -5.92735 0
M  V30 11916 H 1131.65 0.0504718 -0.739279 0
M  V30 11917 H 1134.29 -0.576585 -1.82614 0
M  V30 11918 H 1132.6 1.20703 -3.72744 0
M  V30 11919 H 1134.3 0.864006 -3.91581 0
M  V30 11920 H 1130.89 -0.529397 -4.25318 0
M  V30 11921 H 1135.07 -1.36122 -4.77268 0
M  V30 11922 H 1130.33 -2.53114 -5.56546 0
M  V30 11923 H 1134.5 -3.36213 -6.09864 0
M  V30 11924 H 1132.13 -3.95293 -6.49344 0
M  V30 11925 N 1133.7 1.56767 -0.161869 0
M  V30 11926 C 1134.61 2.21083 0.784814 0
M  V30 11927 C 1135.63 1.19959 1.26039 0
M  V30 11928 O 1136.8 1.52588 1.31449 0
M  V30 11929 C 1133.87 2.83153 2.00063 0
M  V30 11930 C 1132.93 3.9945 1.57285 0
M  V30 11931 C 1132.16 4.5855 2.7307 0
M  V30 11932 O 1132.39 4.16534 3.89686 0
M  V30 11933 O 1131.32 5.48575 2.47688 0
M  V30 11934 H 1135.15 3.02522 0.267243 0
M  V30 11935 H 1132.73 1.49255 0.0658783 0
M  V30 11936 H 1134.61 3.22546 2.71186 0
M  V30 11937 H 1133.29 2.04718 2.50744 0
M  V30 11938 H 1132.2 3.64745 0.831393 0
M  V30 11939 H 1133.53 4.7945 1.11304 0
M  V30 11940 N 1135.18 -0.111886 1.57202 0
M  V30 11941 C 1136.11 -1.13796 2.03894 0
M  V30 11942 C 1137.09 -1.4277 0.924696 0
M  V30 11943 O 1138.28 -1.53089 1.19488 0
M  V30 11944 C 1135.41 -2.46229 2.44925 0
M  V30 11945 C 1134.36 -2.31702 3.59859 0
M  V30 11946 C 1133.69 -3.69161 3.86813 0
M  V30 11947 C 1134.99 -1.77158 4.91337 0
M  V30 11948 H 1136.68 -0.749581 2.89865 0
M  V30 11949 H 1134.23 -0.359126 1.3945 0
M  V30 11950 H 1136.18 -3.18267 2.76195 0
M  V30 11951 H 1134.9 -2.86971 1.55933 0
M  V30 11952 H 1133.56 -1.62112 3.28809 0
M  V30 11953 H 1133.21 -4.07401 2.95015 0
M  V30 11954 H 1132.91 -3.60292 4.6418 0
M  V30 11955 H 1134.43 -4.42693 4.20542 0
M  V30 11956 H 1135.85 -2.3902 5.21097 0
M  V30 11957 H 1134.25 -1.79091 5.72753 0
M  V30 11958 H 1135.32 -0.729675 4.79379 0
M  V30 11959 N 1136.66 -1.52894 -0.382264 0
M  V30 11960 C 1137.57 -1.81084 -1.4915 0
M  V30 11961 C 1138.58 -0.698045 -1.59384 0
M  V30 11962 O 1139.76 -0.98635 -1.75594 0
M  V30 11963 C 1136.83 -1.97987 -2.84608 0
M  V30 11964 C 1135.89 -3.219 -2.8404 0
M  V30 11965 C 1135.12 -3.37988 -4.13037 0
M  V30 11966 O 1135.34 -2.58733 -5.08344 0
M  V30 11967 O 1134.28 -4.31273 -4.19866 0
M  V30 11968 H 1138.1 -2.75289 -1.28257 0
M  V30 11969 H 1135.69 -1.38068 -0.57076 0
M  V30 11970 H 1137.57 -2.10773 -3.64901 0
M  V30 11971 H 1136.24 -1.06972 -3.05514 0
M  V30 11972 H 1135.15 -3.14551 -2.02505 0
M  V30 11973 H 1136.48 -4.12783 -2.68087 0
M  V30 11974 N 1138.14 0.641106 -1.43971 0
M  V30 11975 C 1139.37 1.42622 -1.49475 0
M  V30 11976 C 1139.78 1.8885 -0.115068 0
M  V30 11977 O 1139.12 1.60846 0.887378 0
M  V30 11978 C 1139.18 2.68643 -2.38896 0
M  V30 11979 C 1138.84 2.44276 -3.86236 0
M  V30 11980 C 1139.84 2.06732 -4.7703 0
M  V30 11981 C 1137.53 2.58225 -4.30842 0
M  V30 11982 C 1139.52 1.83451 -6.1043 0
M  V30 11983 C 1137.21 2.34559 -5.64292 0
M  V30 11984 C 1138.21 1.97229 -6.53903 0
M  V30 11985 O 1137.89 1.73819 -7.84884 0
M  V30 11986 H 1137.63 0.444187 -0.509582 0
M  V30 11987 H 1140.18 0.792179 -1.89509 0
M  V30 11988 H 1138.41 3.34649 -1.93771 0
M  V30 11989 H 1140.1 3.30623 -2.35464 0
M  V30 11990 H 1140.86 1.95521 -4.43843 0
M  V30 11991 H 1136.74 2.86253 -3.61359 0
M  V30 11992 H 1140.29 1.54238 -6.80335 0
M  V30 11993 H 1136.18 2.45376 -5.97043 0
M  V30 11994 H 1136.95 1.88146 -7.96582 0
M  V30 11995 N 1139.62 1.30703 0.880598 0
M  V30 11996 C 1140.58 1.17429 1.96832 0
M  V30 11997 C 1141.58 0.104305 1.60461 0
M  V30 11998 O 1142.77 0.352758 1.70591 0
M  V30 11999 C 1139.9 0.800099 3.31378 0
M  V30 12000 H 1141.09 2.14069 2.10034 0
M  V30 12001 H 1138.65 1.14162 1.06755 0
M  V30 12002 H 1139.38 -0.165606 3.23877 0
M  V30 12003 H 1139.17 1.57341 3.59146 0
M  V30 12004 H 1140.66 0.730826 4.11155 0
M  V30 12005 N 1141.09 -1.09351 1.1349 0
M  V30 12006 C 1142.02 -2.18037 0.835588 0
M  V30 12007 C 1143 -1.68856 -0.205373 0
M  V30 12008 O 1144.19 -1.94094 -0.0641357 0
M  V30 12009 C 1141.32 -3.45987 0.301661 0
M  V30 12010 C 1140.27 -4.08507 1.27696 0
M  V30 12011 C 1139.6 -5.31292 0.602758 0
M  V30 12012 C 1140.9 -4.50916 2.63575 0
M  V30 12013 H 1142.59 -2.43332 1.74441 0
M  V30 12014 H 1140.14 -1.1695 0.840166 0
M  V30 12015 H 1142.09 -4.21324 0.079928 0
M  V30 12016 H 1140.82 -3.20217 -0.642552 0
M  V30 12017 H 1139.48 -3.3519 1.4847 0
M  V30 12018 H 1139.12 -5.01802 -0.346953 0
M  V30 12019 H 1138.82 -5.74075 1.25345 0
M  V30 12020 H 1140.35 -6.09351 0.390325 0
M  V30 12021 H 1141.76 -5.17474 2.46765 0
M  V30 12022 H 1140.16 -5.04586 3.24827 0
M  V30 12023 H 1141.23 -3.63279 3.2118 0
M  V30 12024 N 1142.57 -0.928524 -1.27343 0
M  V30 12025 C 1143.52 -0.418768 -2.28799 0
M  V30 12026 C 1144.51 0.497334 -1.61935 0
M  V30 12027 O 1145.72 0.376945 -1.76009 0
M  V30 12028 H 1142.09 -0.116855 -0.742865 0
M  V30 12029 H 1144.07 -1.28725 -2.69207 0
M  V30 12030 C 1142.81 0.312422 -3.46294 0
M  V30 12031 H 1142.14 -0.383317 -3.97958 0
M  V30 12032 H 1143.58 0.633514 -4.19241 0
M  V30 12033 C 1142.04 1.5257 -3.00373 0
M  V30 12034 O 1142.57 2.62443 -3.04116 0
M  V30 12035 N 1140.77 1.37782 -2.5586 0
M  V30 12036 H 1140.32 0.483908 -2.53014 0
M  V30 12037 H 1140.28 2.19085 -2.25498 0
M  V30 12038 N 1144.05 1.41491 -0.694123 0
M  V30 12039 C 1145.01 2.2917 -0.0368562 0
M  V30 12040 C 1146.01 1.44305 0.709426 0
M  V30 12041 O 1147.2 1.6547 0.544533 0
M  V30 12042 C 1144.33 3.27156 0.958201 0
M  V30 12043 H 1145.53 2.88787 -0.808829 0
M  V30 12044 H 1143.08 1.49453 -0.457538 0
M  V30 12045 H 1143.82 2.72516 1.75799 0
M  V30 12046 H 1143.6 3.89776 0.426227 0
M  V30 12047 H 1145.09 3.92863 1.41592 0
M  V30 12048 N 1145.53 0.438773 1.51369 0
M  V30 12049 C 1146.94 0.0911416 1.5934 0
M  V30 12050 C 1147.14 -1.39962 1.44958 0
M  V30 12051 O 1146.2 -2.16968 1.29155 0
M  V30 12052 C 1147.51 0.612531 2.94395 0
M  V30 12053 C 1149.06 0.573098 3.07709 0
M  V30 12054 C 1149.54 1.07149 4.4529 0
M  V30 12055 N 1151.03 1.02953 4.51614 0
M  V30 12056 C 1151.76 1.38602 5.56397 0
M  V30 12057 N 1151.26 1.81543 6.68591 0
M  V30 12058 N 1153.05 1.30409 5.46763 0
M  V30 12059 H 1145.2 1.40872 1.58962 0
M  V30 12060 H 1147.46 0.580589 0.749414 0
M  V30 12061 H 1147.17 1.65562 3.10294 0
M  V30 12062 H 1147.04 0.0382375 3.77181 0
M  V30 12063 H 1149.43 -0.461006 2.91477 0
M  V30 12064 H 1149.51 1.18381 2.26759 0
M  V30 12065 H 1149.16 2.10406 4.62268 0
M  V30 12066 H 1149.09 0.437297 5.24781 0
M  V30 12067 H 1151.58 0.714208 3.7109 0
M  V30 12068 H 1151.89 2.06977 7.44567 0
M  V30 12069 H 1150.24 1.8547 6.69795 0
M  V30 12070 H 1153.43 0.967272 4.57997 0
M  V30 12071 H 1153.6 1.5852 6.28312 0
M  V30 12072 N 1147.01 -1.56678 0.170181 0
M  V30 12073 C 1148.23 -2.0166 -0.484543 0
M  V30 12074 C 1148.66 -1.04962 -1.56091 0
M  V30 12075 O 1148.01 -0.0289887 -1.81277 0
M  V30 12076 C 1148.06 -3.45252 -1.04084 0
M  V30 12077 O 1147.17 -3.51623 -2.15488 0
M  V30 12078 H 1146.51 -0.653765 -0.116135 0
M  V30 12079 H 1149.04 -2.02761 0.273737 0
M  V30 12080 H 1149.05 -3.84534 -1.36373 0
M  V30 12081 H 1147.72 -4.15131 -0.252738 0
M  V30 12082 H 1146.3 -3.242 -1.84252 0
M  V30 12083 N 1148.48 0.103547 -1.57259 0
M  V30 12084 C 1149.71 0.821158 -1.8958 0
M  V30 12085 C 1150.12 1.73213 -0.761184 0
M  V30 12086 O 1149.46 1.81611 0.27625 0
M  V30 12087 C 1149.53 1.69428 -3.17072 0
M  V30 12088 C 1149.19 0.956014 -4.46889 0
M  V30 12089 C 1150.19 0.289694 -5.19092 0
M  V30 12090 C 1147.87 0.932602 -4.93566 0
M  V30 12091 C 1149.87 -0.390164 -6.36205 0
M  V30 12092 C 1147.55 0.248954 -6.10593 0
M  V30 12093 C 1148.55 -0.411259 -6.81761 0
M  V30 12094 O 1148.24 -1.08396 -7.96559 0
M  V30 12095 H 1147.97 0.240508 -0.631769 0
M  V30 12096 H 1150.53 0.0877817 -2.05212 0
M  V30 12097 H 1148.76 2.46968 -2.97563 0
M  V30 12098 H 1150.44 2.28769 -3.3529 0
M  V30 12099 H 1151.21 0.299297 -4.84076 0
M  V30 12100 H 1147.09 1.43592 -4.38067 0
M  V30 12101 H 1150.63 -0.906057 -6.91691 0
M  V30 12102 H 1146.53 0.237168 -6.45064 0
M  V30 12103 H 1147.3 -0.990002 -8.12491 0
M  V30 12104 N 1149.96 1.53094 0.37415 0
M  V30 12105 C 1150.92 1.78264 1.44065 0
M  V30 12106 C 1151.92 0.652892 1.46949 0
M  V30 12107 O 1153.11 0.921046 1.47859 0
M  V30 12108 C 1150.25 1.89693 2.83248 0
M  V30 12109 H 1151.44 2.73505 1.23025 0
M  V30 12110 H 1148.99 1.44041 0.60678 0
M  V30 12111 H 1149.73 0.964884 3.09613 0
M  V30 12112 H 1149.51 2.71855 2.82554 0
M  V30 12113 H 1151 2.10787 3.60498 0
M  V30 12114 N 1151.44 -0.633461 1.44309 0
M  V30 12115 C 1152.4 -1.72743 1.50641 0
M  V30 12116 C 1153.4 -1.56031 0.388718 0
M  V30 12117 O 1154.59 -1.61568 0.651251 0
M  V30 12118 C 1151.72 -3.11804 1.37809 0
M  V30 12119 H 1152.92 -1.68503 2.48086 0
M  V30 12120 H 1150.47 -0.846912 1.31366 0
M  V30 12121 H 1151.21 -3.2164 0.414483 0
M  V30 12122 H 1150.99 -3.2534 2.18852 0
M  V30 12123 H 1152.48 -3.91538 1.45216 0
M  V30 12124 N 1152.92 -1.31168 -0.873655 0
M  V30 12125 C 1153.85 -1.21094 -1.99646 0
M  V30 12126 C 1154.83 -0.0989684 -1.69812 0
M  V30 12127 O 1156.01 -0.282939 -1.92128 0
M  V30 12128 C 1153.14 -0.913684 -3.35066 0
M  V30 12129 C 1152.1 -1.98482 -3.79195 0
M  V30 12130 C 1151.42 -1.54033 -5.12033 0
M  V30 12131 C 1152.72 -3.39745 -3.96699 0
M  V30 12132 H 1154.42 -2.1503 -2.08333 0
M  V30 12133 H 1151.96 -1.03521 -1.00097 0
M  V30 12134 H 1153.92 -0.829821 -4.13149 0
M  V30 12135 H 1152.64 0.0613471 -3.26542 0
M  V30 12136 H 1151.3 -2.05851 -3.03349 0
M  V30 12137 H 1150.95 -0.553261 -4.99948 0
M  V30 12138 H 1150.65 -2.25688 -5.4253 0
M  V30 12139 H 1152.17 -1.47047 -5.92629 0
M  V30 12140 H 1153.59 -3.35071 -4.65188 0
M  V30 12141 H 1151.98 -4.09585 -4.38589 0
M  V30 12142 H 1153.05 -3.80802 -3.00196 0
M  V30 12143 N 1154.4 1.08748 -1.14068 0
M  V30 12144 C 1155.62 1.85353 -0.930532 0
M  V30 12145 C 1156.05 1.80892 0.515717 0
M  V30 12146 O 1155.4 1.19146 1.36652 0
M  V30 12147 C 1155.45 3.30962 -1.43167 0
M  V30 12148 O 1154.56 4.0769 -0.621468 0
M  V30 12149 H 1153.9 0.574485 -0.332962 0
M  V30 12150 H 1156.43 1.37282 -1.51707 0
M  V30 12151 H 1156.44 3.81807 -1.43832 0
M  V30 12152 H 1155.11 3.33524 -2.48464 0
M  V30 12153 H 1153.69 3.66587 -0.683267 0
M  V30 12154 N 1155.87 0.935264 1.26849 0
M  V30 12155 C 1156.81 0.397539 2.25726 0
M  V30 12156 C 1157.82 -0.475928 1.55688 0
M  V30 12157 O 1159.01 -0.287329 1.76172 0
M  V30 12158 C 1156.11 -0.448308 3.35922 0
M  V30 12159 C 1155.28 0.407624 4.35496 0
M  V30 12160 C 1154.34 -0.376815 5.24849 0
M  V30 12161 O 1153.37 0.218109 5.68782 0
M  V30 12162 N 1154.57 -1.67481 5.55815 0
M  V30 12163 H 1157.33 1.24753 2.72501 0
M  V30 12164 H 1154.89 0.803505 1.40554 0
M  V30 12165 H 1156.89 -0.980338 3.92647 0
M  V30 12166 H 1155.46 -1.19908 2.88688 0
M  V30 12167 H 1154.68 1.12091 3.77928 0
M  V30 12168 H 1155.96 0.992512 4.99026 0
M  V30 12169 H 1155.36 -2.18037 5.21993 0
M  V30 12170 H 1153.92 -2.15321 6.15207 0
M  V30 12171 N 1157.35 -1.41121 0.701616 0
M  V30 12172 C 1158.58 -2.05973 0.242896 0
M  V30 12173 C 1159 -1.52474 -1.10151 0
M  V30 12174 O 1158.36 -0.654224 -1.69085 0
M  V30 12175 C 1158.41 -3.59943 0.217614 0
M  V30 12176 O 1157.51 -4.04454 -0.805629 0
M  V30 12177 H 1156.85 -0.653581 0.117166 0
M  V30 12178 H 1159.38 -1.80777 0.958175 0
M  V30 12179 H 1159.39 -4.07969 0.0505267 0
M  V30 12180 H 1158.07 -3.98249 1.19877 0
M  V30 12181 H 1156.65 -3.6792 -0.607404 0
M  V30 12182 N 1158.83 -0.446794 -1.51134 0
M  V30 12183 C 1159.79 0.348311 -2.26538 0
M  V30 12184 C 1160.79 0.941566 -1.3035 0
M  V30 12185 O 1161.98 0.814537 -1.53984 0
M  V30 12186 C 1159.12 1.49371 -3.06433 0
M  V30 12187 H 1160.31 -0.312648 -2.98266 0
M  V30 12188 H 1157.86 -0.200201 -1.55013 0
M  V30 12189 H 1158.6 2.19045 -2.39144 0
M  V30 12190 H 1158.38 1.07439 -3.77093 0
M  V30 12191 H 1159.87 2.05522 -3.63525 0
M  V30 12192 N 1160.31 1.56586 -0.178487 0
M  V30 12193 C 1161.56 1.96709 0.4637 0
M  V30 12194 C 1161.88 1.06586 1.63292 0
M  V30 12195 O 1161.15 0.133683 1.95443 0
M  V30 12196 H 1159.73 0.726381 0.174299 0
M  V30 12197 H 1162.39 1.9314 -0.261345 0
M  V30 12198 H 1161.49 3.01164 0.818934 0
M  V30 12199 N 1161.79 -0.095206 1.57312 0
M  V30 12200 C 1162.72 -1.14173 1.98739 0
M  V30 12201 C 1163.73 -1.36323 0.889934 0
M  V30 12202 O 1164.92 -1.34977 1.16805 0
M  V30 12203 C 1162.02 -2.49729 2.29104 0
M  V30 12204 C 1161.19 -2.47857 3.60396 0
M  V30 12205 C 1160.25 -3.65341 3.78699 0
M  V30 12206 O 1159.28 -3.47837 4.50553 0
M  V30 12207 N 1160.48 -4.84818 3.19268 0
M  V30 12208 H 1163.25 -0.789126 2.89124 0
M  V30 12209 H 1160.81 -0.284187 1.59386 0
M  V30 12210 H 1162.8 -3.26925 2.38541 0
M  V30 12211 H 1161.37 -2.7708 1.44726 0
M  V30 12212 H 1160.59 -1.56208 3.61929 0
M  V30 12213 H 1161.88 -2.43685 4.46649 0
M  V30 12214 H 1161.27 -5.01943 2.60902 0
M  V30 12215 H 1159.83 -5.59607 3.34191 0
M  V30 12216 N 1163.26 -1.53291 -0.366026 0
M  V30 12217 C 1164.49 -1.73108 -1.1277 0
M  V30 12218 C 1164.9 -0.459662 -1.83531 0
M  V30 12219 O 1164.25 0.577151 -1.74398 0
M  V30 12220 C 1164.31 -2.84137 -2.20242 0
M  V30 12221 C 1163.97 -4.24503 -1.69252 0
M  V30 12222 C 1164.97 -5.06866 -1.15684 0
M  V30 12223 C 1162.65 -4.70912 -1.74778 0
M  V30 12224 C 1164.65 -6.33728 -0.683191 0
M  V30 12225 C 1162.33 -5.97752 -1.27025 0
M  V30 12226 C 1163.33 -6.78992 -0.738858 0
M  V30 12227 O 1163.02 -8.03452 -0.268375 0
M  V30 12228 H 1162.75 -0.582439 -0.343134 0
M  V30 12229 H 1165.31 -2.00828 -0.430969 0
M  V30 12230 H 1163.54 -2.5189 -2.93408 0
M  V30 12231 H 1165.23 -2.92136 -2.818 0
M  V30 12232 H 1165.99 -4.72185 -1.10753 0
M  V30 12233 H 1161.87 -4.07751 -2.15081 0
M  V30 12234 H 1165.41 -6.97086 -0.267746 0
M  V30 12235 H 1161.31 -6.31933 -1.31649 0
M  V30 12236 H 1162.08 -8.17581 -0.387745 0
M  V30 12237 N 1164.74 0.6258 -1.44643 0
M  V30 12238 C 1165.97 1.41726 -1.51422 0
M  V30 12239 C 1166.39 1.87565 -0.14181 0
M  V30 12240 O 1165.75 1.59059 0.870054 0
M  V30 12241 C 1165.8 2.61012 -2.48807 0
M  V30 12242 O 1164.9 3.61029 -1.99328 0
M  V30 12243 H 1164.24 0.423855 -0.511119 0
M  V30 12244 H 1166.77 0.763336 -1.89827 0
M  V30 12245 H 1166.78 3.08489 -2.67018 0
M  V30 12246 H 1165.46 2.26995 -3.48491 0
M  V30 12247 H 1164.04 3.20325 -1.90909 0
M  V30 12248 N 1166.22 1.31629 0.866686 0
M  V30 12249 C 1167.45 1.24609 1.65793 0
M  V30 12250 C 1167.87 -0.184944 1.87189 0
M  V30 12251 O 1167.23 -1.1322 1.41601 0
M  V30 12252 C 1167.28 1.9988 3.00134 0
M  V30 12253 O 1166.38 1.33838 3.90079 0
M  V30 12254 H 1165.72 0.430051 0.505917 0
M  V30 12255 H 1168.25 1.73752 1.08035 0
M  V30 12256 H 1168.26 2.09599 3.50046 0
M  V30 12257 H 1166.94 3.03947 2.83882 0
M  V30 12258 H 1165.51 1.3259 3.48532 0
M  V30 12259 N 1167.7 -1.08142 1.14644 0
M  V30 12260 C 1168.63 -2.15022 0.793614 0
M  V30 12261 C 1169.64 -1.61679 -0.190729 0
M  V30 12262 O 1170.83 -1.78472 0.0313696 0
M  V30 12263 C 1167.93 -3.38532 0.157785 0
M  V30 12264 C 1167.11 -4.21252 1.17753 0
M  V30 12265 C 1166.17 -5.23158 0.564968 0
M  V30 12266 O 1165.19 -5.5578 1.22869 0
M  V30 12267 N 1166.39 -5.7677 -0.657022 0
M  V30 12268 H 1169.16 -2.45893 1.71338 0
M  V30 12269 H 1166.72 -1.23976 1.04122 0
M  V30 12270 H 1168.71 -4.03834 -0.264586 0
M  V30 12271 H 1167.28 -3.05441 -0.665168 0
M  V30 12272 H 1166.5 -3.51888 1.77675 0
M  V30 12273 H 1167.79 -4.73335 1.86632 0
M  V30 12274 H 1167.19 -5.52503 -1.21478 0
M  V30 12275 H 1165.74 -6.4374 -1.02186 0
M  V30 12276 N 1169.18 -0.941978 -1.26351 0
M  V30 12277 C 1170.43 -0.588806 -1.93333 0
M  V30 12278 C 1170.75 0.875067 -1.74263 0
M  V30 12279 O 1170.02 1.62187 -1.09873 0
M  V30 12280 H 1168.6 -0.214774 -0.715459 0
M  V30 12281 H 1171.26 -1.19747 -1.53774 0
M  V30 12282 H 1170.35 -0.807267 -3.01479 0
M  V30 12283 N 1170.66 1.40747 -0.709091 0
M  V30 12284 C 1171.59 2.33404 -0.0669763 0
M  V30 12285 C 1172.57 1.52546 0.752582 0
M  V30 12286 O 1173.75 1.81036 0.702823 0
M  V30 12287 C 1170.88 3.36476 0.860285 0
M  V30 12288 C 1169.84 4.27748 0.146828 0
M  V30 12289 C 1169.16 5.21304 1.18937 0
M  V30 12290 C 1170.46 5.12734 -0.995064 0
M  V30 12291 H 1172.16 2.87349 -0.840888 0
M  V30 12292 H 1169.7 1.38163 -0.405817 0
M  V30 12293 H 1171.65 4.00231 1.31883 0
M  V30 12294 H 1170.38 2.80912 1.66602 0
M  V30 12295 H 1169.04 3.65437 -0.291826 0
M  V30 12296 H 1168.69 4.62048 1.98798 0
M  V30 12297 H 1168.39 5.8321 0.716917 0
M  V30 12298 H 1169.91 5.87936 1.64815 0
M  V30 12299 H 1171.32 5.69979 -0.61618 0
M  V30 12300 H 1169.72 5.83649 -1.39547 0
M  V30 12301 H 1170.79 4.49097 -1.82867 0
M  V30 12302 N 1172.13 0.454803 1.50895 0
M  V30 12303 C 1173.36 -0.106259 2.07128 0
M  V30 12304 C 1173.78 -1.3418 1.31823 0
M  V30 12305 O 1173.14 -1.77667 0.361147 0
M  V30 12306 C 1173.19 -0.389609 3.58489 0
M  V30 12307 O 1172.29 -1.47305 3.85195 0
M  V30 12308 H 1171.63 0.00580588 0.663975 0
M  V30 12309 H 1174.16 0.641163 1.94294 0
M  V30 12310 H 1174.17 -0.634934 4.03029 0
M  V30 12311 H 1172.85 0.513338 4.1272 0
M  V30 12312 H 1171.43 -1.21631 3.52506 0
M  V30 12313 N 1173.61 -1.56489 0.186789 0
M  V30 12314 C 1174.54 -2.21705 -0.732739 0
M  V30 12315 C 1175.52 -1.17751 -1.22755 0
M  V30 12316 O 1176.71 -1.46231 -1.27789 0
M  V30 12317 C 1173.84 -2.86992 -1.95584 0
M  V30 12318 C 1172.79 -3.97118 -1.59628 0
M  V30 12319 C 1172.12 -4.49529 -2.89531 0
M  V30 12320 C 1173.42 -5.15941 -0.812518 0
M  V30 12321 H 1175.11 -2.98802 -0.189094 0
M  V30 12322 H 1172.66 -1.43722 -0.0895099 0
M  V30 12323 H 1174.61 -3.31295 -2.60426 0
M  V30 12324 H 1173.33 -2.07287 -2.52388 0
M  V30 12325 H 1171.99 -3.53494 -0.971475 0
M  V30 12326 H 1171.64 -3.66596 -3.44407 0
M  V30 12327 H 1171.34 -5.23832 -2.66221 0
M  V30 12328 H 1172.87 -4.96528 -3.55376 0
M  V30 12329 H 1174.28 -5.56841 -1.36386 0
M  V30 12330 H 1172.68 -5.96259 -0.677862 0
M  V30 12331 H 1173.75 -4.84535 0.188095 0
M  V30 12332 N 1175.09 0.086862 -1.5736 0
M  V30 12333 C 1176 1.12297 -2.05977 0
M  V30 12334 C 1177.02 1.43347 -0.986284 0
M  V30 12335 O 1178.19 1.53825 -1.3 0
M  V30 12336 C 1175.26 2.42131 -2.4814 0
M  V30 12337 C 1174.32 2.18189 -3.69719 0
M  V30 12338 C 1173.55 3.41833 -4.09861 0
M  V30 12339 O 1173.77 4.50383 -3.50016 0
M  V30 12340 O 1172.71 3.30934 -5.02759 0
M  V30 12341 H 1176.53 0.740012 -2.94546 0
M  V30 12342 H 1174.12 0.29995 -1.46358 0
M  V30 12343 H 1176 3.18568 -2.75848 0
M  V30 12344 H 1174.68 2.79837 -1.62705 0
M  V30 12345 H 1173.58 1.39506 -3.47115 0
M  V30 12346 H 1174.92 1.85372 -4.55959 0
M  V30 12347 N 1176.57 1.53483 0.357892 0
M  V30 12348 C 1177.48 1.83434 1.4625 0
M  V30 12349 C 1178.49 0.723313 1.58254 0
M  V30 12350 O 1179.67 1.01416 1.74002 0
M  V30 12351 C 1176.73 2.0249 2.81423 0
M  V30 12352 C 1175.8 3.26378 2.78883 0
M  V30 12353 C 1175.03 3.44516 4.07608 0
M  V30 12354 O 1175.25 2.66787 5.04163 0
M  V30 12355 O 1174.19 4.37898 4.12952 0
M  V30 12356 H 1178.01 2.77294 1.23861 0
M  V30 12357 H 1175.6 1.38958 0.548722 0
M  V30 12358 H 1177.48 2.16552 3.61501 0
M  V30 12359 H 1176.15 1.11819 3.03773 0
M  V30 12360 H 1175.06 3.17733 1.97475 0
M  V30 12361 H 1176.39 4.16996 2.61486 0
M  V30 12362 N 1178.05 -0.61812 1.44973 0
M  V30 12363 C 1178.98 -1.74277 1.47318 0
M  V30 12364 C 1179.96 -1.59203 0.330627 0
M  V30 12365 O 1181.14 -1.80909 0.529558 0
M  V30 12366 C 1178.27 -3.11994 1.31823 0
M  V30 12367 C 1177.31 -3.45685 2.49809 0
M  V30 12368 S 1178.15 -3.41704 4.12309 0
M  V30 12369 C 1179.3 -4.82019 3.9926 0
M  V30 12370 H 1179.54 -1.72023 2.42478 0
M  V30 12371 H 1177.07 -0.793867 1.32428 0
M  V30 12372 H 1179.03 -3.9146 1.2357 0
M  V30 12373 H 1177.69 -3.11774 0.381521 0
M  V30 12374 H 1176.88 -4.45931 2.34864 0
M  V30 12375 H 1176.48 -2.73711 2.54869 0
M  V30 12376 H 1178.77 -5.71567 3.63754 0
M  V30 12377 H 1179.72 -5.02019 4.99382 0
M  V30 12378 H 1180.13 -4.57205 3.31095 0
M  V30 12379 N 1179.52 -1.32087 -0.859693 0
M  V30 12380 C 1180.47 -1.20601 -1.96784 0
M  V30 12381 C 1181.44 -0.089355 -1.65859 0
M  V30 12382 O 1182.63 -0.264022 -1.88964 0
M  V30 12383 C 1179.77 -0.929872 -3.32336 0
M  V30 12384 C 1178.88 -2.13084 -3.75791 0
M  V30 12385 C 1178.01 -1.79061 -5.00111 0
M  V30 12386 C 1177.05 -2.95507 -5.36043 0
M  V30 12387 N 1176.19 -2.61611 -6.5154 0
M  V30 12388 H 1181.03 -2.1539 -2.0594 0
M  V30 12389 H 1178.57 -1.07131 -1.00803 0
M  V30 12390 H 1180.52 -0.750285 -4.10398 0
M  V30 12391 H 1179.15 -0.0187929 -3.22795 0
M  V30 12392 H 1178.21 -2.42086 -2.93425 0
M  V30 12393 H 1179.52 -3.00205 -3.98344 0
M  V30 12394 H 1178.67 -1.57625 -5.85866 0
M  V30 12395 H 1177.41 -0.891459 -4.79483 0
M  V30 12396 H 1176.42 -3.17581 -4.48801 0
M  V30 12397 H 1177.64 -3.86147 -5.5863 0
M  V30 12398 H 1175.59 -1.74231 -6.32439 0
M  V30 12399 H 1175.5 -3.42262 -6.74087 0
M  V30 12400 H 1176.77 -2.43592 -7.40461 0
M  V30 12401 N 1181 1.07532 -1.15215 0
M  V30 12402 C 1182.42 1.32183 -0.894411 0
M  V30 12403 C 1182.62 1.96188 0.459614 0
M  V30 12404 O 1181.67 2.22057 1.20195 0
M  V30 12405 C 1182.99 2.21473 -2.03397 0
M  V30 12406 C 1184.53 2.34927 -2.06829 0
M  V30 12407 C 1185.01 3.27564 -3.20103 0
M  V30 12408 N 1186.5 3.35144 -3.19738 0
M  V30 12409 C 1187.24 4.0688 -4.04025 0
M  V30 12410 N 1186.73 4.81246 -4.98371 0
M  V30 12411 N 1188.52 4.02802 -3.92055 0
M  V30 12412 H 1180.68 0.643732 -2.0241 0
M  V30 12413 H 1182.94 0.346272 -0.882496 0
M  V30 12414 H 1182.64 1.81701 -3.01127 0
M  V30 12415 H 1182.52 3.2199 -1.96475 0
M  V30 12416 H 1184.91 2.73953 -1.09699 0
M  V30 12417 H 1184.99 1.34121 -2.17819 0
M  V30 12418 H 1184.63 2.89258 -4.17483 0
M  V30 12419 H 1184.56 4.2832 -3.06349 0
M  V30 12420 H 1187.05 2.82135 -2.51412 0
M  V30 12421 H 1187.36 5.33472 -5.59131 0
M  V30 12422 H 1185.71 4.80268 -5.02362 0
M  V30 12423 H 1188.9 3.43816 -3.17661 0
M  V30 12424 H 1189.07 4.58443 -4.57967 0
M  V30 12425 N 1182.48 0.948665 1.2585 0
M  V30 12426 C 1183.71 0.616741 1.98018 0
M  V30 12427 C 1184.13 -0.803005 1.70098 0
M  V30 12428 O 1183.49 -1.54208 0.953392 0
M  V30 12429 C 1183.54 0.874429 3.49837 0
M  V30 12430 O 1182.64 -0.0497568 4.1237 0
M  V30 12431 H 1181.98 0.235112 0.620982 0
M  V30 12432 H 1184.51 1.27364 1.60124 0
M  V30 12433 H 1184.52 0.798309 4.00114 0
M  V30 12434 H 1183.2 1.90922 3.69488 0
M  V30 12435 H 1181.77 0.0780591 3.72818 0
M  V30 12436 N 1183.96 -1.40369 0.716545 0
M  V30 12437 C 1184.89 -2.33365 0.0793533 0
M  V30 12438 C 1185.87 -1.52943 -0.744482 0
M  V30 12439 O 1187.05 -1.81406 -0.693212 0
M  V30 12440 C 1184.18 -3.36928 -0.842429 0
M  V30 12441 C 1183.14 -4.2782 -0.124142 0
M  V30 12442 C 1182.46 -5.21928 -1.1617 0
M  V30 12443 C 1183.76 -5.12199 1.02224 0
M  V30 12444 H 1185.46 -2.86899 0.856115 0
M  V30 12445 H 1183 -1.37946 0.413138 0
M  V30 12446 H 1184.96 -4.00925 -1.29759 0
M  V30 12447 H 1183.68 -2.81791 -1.6511 0
M  V30 12448 H 1182.34 -3.65277 0.311201 0
M  V30 12449 H 1181.99 -4.63096 -1.96345 0
M  V30 12450 H 1181.69 -5.83582 -0.685978 0
M  V30 12451 H 1183.21 -5.88802 -1.61694 0
M  V30 12452 H 1184.63 -5.69644 0.646399 0
M  V30 12453 H 1183.02 -5.82901 1.4264 0
M  V30 12454 H 1184.09 -4.4812 1.85246 0
M  V30 12455 N 1185.44 -0.462799 -1.50652 0
M  V30 12456 C 1186.37 0.371837 -2.26164 0
M  V30 12457 C 1187.38 0.96432 -1.31167 0
M  V30 12458 O 1188.57 0.854134 -1.56738 0
M  V30 12459 C 1185.67 1.53469 -3.0216 0
M  V30 12460 C 1184.84 1.0565 -4.24449 0
M  V30 12461 C 1183.9 2.09243 -4.82808 0
M  V30 12462 O 1182.93 1.67641 -5.43953 0
M  V30 12463 N 1184.13 3.41976 -4.69076 0
M  V30 12464 H 1186.9 -0.275476 -2.98431 0
M  V30 12465 H 1184.46 -0.293109 -1.59225 0
M  V30 12466 H 1186.45 2.22446 -3.38083 0
M  V30 12467 H 1185.02 2.08685 -2.32743 0
M  V30 12468 H 1184.24 0.192895 -3.93728 0
M  V30 12469 H 1185.53 0.714796 -5.03754 0
M  V30 12470 H 1184.92 3.78491 -4.20429 0
M  V30 12471 H 1183.48 4.06775 -5.09291 0
M  V30 12472 N 1186.91 1.56388 -0.195085 0
M  V30 12473 C 1188.14 2.0167 0.448637 0
M  V30 12474 C 1188.55 1.07439 1.55736 0
M  V30 12475 O 1187.9 0.071441 1.83561 0
M  V30 12476 C 1187.96 3.43348 1.06547 0
M  V30 12477 C 1187.62 4.569 0.0954901 0
M  V30 12478 C 1188.62 5.15232 -0.695116 0
M  V30 12479 C 1186.3 5.02298 -0.0155889 0
M  V30 12480 C 1188.3 6.1741 -1.58377 0
M  V30 12481 C 1185.98 6.0432 -0.907799 0
M  V30 12482 C 1186.98 6.6175 -1.69045 0
M  V30 12483 O 1186.67 7.6179 -2.56771 0
M  V30 12484 H 1186.4 0.665805 0.116962 0
M  V30 12485 H 1188.96 2.03182 -0.301062 0
M  V30 12486 H 1187.19 3.38823 1.86376 0
M  V30 12487 H 1188.88 3.72438 1.61385 0
M  V30 12488 H 1189.64 4.81026 -0.619604 0
M  V30 12489 H 1185.52 4.57293 0.583424 0
M  V30 12490 H 1189.06 6.62164 -2.1951 0
M  V30 12491 H 1184.96 6.37949 -0.984427 0
M  V30 12492 H 1185.73 7.79209 -2.50551 0
M  V30 12493 N 1188.39 -0.0785156 1.57404 0
M  V30 12494 C 1189.62 -0.792042 1.9114 0
M  V30 12495 C 1190.04 -1.71458 0.790408 0
M  V30 12496 O 1189.39 -1.80959 -0.236662 0
M  V30 12497 C 1189.44 -1.59138 3.24588 0
M  V30 12498 O 1189.16 -0.705931 4.32375 0
M  V30 12499 C 1190.67 -2.4065 3.72293 0
M  V30 12500 H 1187.89 -0.225566 0.63195 0
M  V30 12501 H 1190.43 -0.0507929 2.04437 0
M  V30 12502 H 1188.58 -2.28498 3.12838 0
M  V30 12503 H 1189 -1.26121 5.09111 0
M  V30 12504 H 1190.47 -2.92204 4.68317 0
M  V30 12505 H 1190.95 -3.1987 3.00965 0
M  V30 12506 H 1191.56 -1.7646 3.86965 0
M  V30 12507 N 1189.87 -1.5367 -0.349747 0
M  V30 12508 C 1191.28 -1.62135 -0.925704 0
M  V30 12509 C 1191.63 -0.498725 -1.89756 0
M  V30 12510 O 1190.76 0.372481 -2.1317 0
M  V30 12511 C 1191.35 -2.93885 -1.68573 0
M  V30 12512 C 1189.91 -3.04632 -2.2108 0
M  V30 12513 C 1189.06 -2.57541 -1.02801 0
M  V30 12514 H 1192.01 -1.58182 -0.128065 0
M  V30 12515 H 1192.03 -2.82577 -2.54815 0
M  V30 12516 H 1191.54 -3.75571 -0.978153 0
M  V30 12517 H 1189.64 -2.27567 -2.95032 0
M  V30 12518 H 1189.76 -4.09993 -2.47876 0
M  V30 12519 H 1188.12 -2.12798 -1.39962 0
M  V30 12520 H 1188.9 -3.4166 -0.335157 0
M  V30 12521 N 1191.35 0.610423 -1.45298 0
M  V30 12522 C 1192.6 1.36558 -1.48441 0
M  V30 12523 C 1192.91 1.95173 -0.129137 0
M  V30 12524 O 1194.12 2.71473 -0.0381956 0
M  V30 12525 C 1192.57 2.47349 -2.61431 0
M  V30 12526 C 1192.18 1.95158 -4.03258 0
M  V30 12527 C 1193.92 3.24383 -2.73817 0
M  V30 12528 C 1191.83 3.03414 -5.07635 0
M  V30 12529 H 1190.76 0.513253 -0.552347 0
M  V30 12530 H 1193.41 0.654535 -1.7143 0
M  V30 12531 H 1191.79 3.21125 -2.31721 0
M  V30 12532 H 1192.97 1.2811 -4.42634 0
M  V30 12533 H 1191.28 1.30878 -3.95297 0
M  V30 12534 H 1193.88 4.05123 -3.48969 0
M  V30 12535 H 1194.22 3.75205 -1.80352 0
M  V30 12536 H 1194.76 2.57705 -3.03039 0
M  V30 12537 H 1191.5 2.57512 -6.028 0
M  V30 12538 H 1191.02 3.69039 -4.72833 0
M  V30 12539 H 1192.69 3.67844 -5.32259 0
M  V30 12540 N 1192.83 1.32541 0.852676 0
M  V30 12541 C 1194.1 1.1383 1.59067 0
M  V30 12542 C 1194.48 -0.300584 2.08949 0
M  V30 12543 O 1193.83 -1.29751 1.88088 0
M  V30 12544 C 1194.04 2.16758 2.73527 0
M  V30 12545 C 1195.39 2.50194 3.43057 0
M  V30 12546 O 1196.41 2.15319 2.83754 0
M  V30 12547 O 1195.27 3.09985 4.50079 0
M  V30 12548 H 1192.37 0.439379 0.700625 0
M  V30 12549 H 1194.91 1.44078 0.896632 0
M  V30 12550 H 1193.68 3.13469 2.34207 0
M  V30 12551 H 1193.31 1.87515 3.50605 0
M  V30 12552 N 1194.3 -1.0692 1.15784 0
M  V30 12553 C 1195.25 -2.14235 0.858616 0
M  V30 12554 C 1196.22 -1.65006 -0.190295 0
M  V30 12555 O 1197.41 -1.90715 -0.0568853 0
M  V30 12556 C 1194.55 -3.43229 0.35888 0
M  V30 12557 C 1193.66 -4.06225 1.46987 0
M  V30 12558 C 1192.79 -5.2307 0.925812 0
M  V30 12559 C 1191.83 -5.78037 2.01345 0
M  V30 12560 N 1190.97 -6.86206 1.48544 0
M  V30 12561 H 1195.81 -2.3917 1.77769 0
M  V30 12562 H 1193.35 -1.17354 0.886925 0
M  V30 12563 H 1195.31 -4.17169 0.0508198 0
M  V30 12564 H 1193.94 -3.18531 -0.523259 0
M  V30 12565 H 1192.99 -3.29895 1.89403 0
M  V30 12566 H 1194.3 -4.43081 2.29088 0
M  V30 12567 H 1193.45 -6.04011 0.570555 0
M  V30 12568 H 1192.19 -4.87644 0.0740371 0
M  V30 12569 H 1191.2 -4.95738 2.37748 0
M  V30 12570 H 1192.42 -6.15517 2.86907 0
M  V30 12571 H 1190.37 -6.52711 0.656092 0
M  V30 12572 H 1190.29 -7.2197 2.24266 0
M  V30 12573 H 1191.55 -7.70842 1.15856 0
M  V30 12574 N 1195.78 -0.955326 -1.25345 0
M  V30 12575 C 1197.01 -0.626783 -1.96863 0
M  V30 12576 C 1197.42 0.80547 -1.71198 0
M  V30 12577 O 1196.76 1.55049 -0.985163 0
M  V30 12578 C 1196.83 -0.806404 -3.50339 0
M  V30 12579 C 1196.49 -2.21595 -3.99681 0
M  V30 12580 C 1197.49 -3.19268 -4.10322 0
M  V30 12581 C 1195.17 -2.54032 -4.33328 0
M  V30 12582 C 1197.17 -4.47471 -4.53926 0
M  V30 12583 C 1194.85 -3.82465 -4.76617 0
M  V30 12584 C 1195.85 -4.78997 -4.86879 0
M  V30 12585 O 1195.54 -6.0514 -5.29208 0
M  V30 12586 H 1195.27 -0.233854 -0.634262 0
M  V30 12587 H 1197.82 -1.28232 -1.60455 0
M  V30 12588 H 1196.05 -0.0937184 -3.86586 0
M  V30 12589 H 1197.74 -0.47881 -4.03066 0
M  V30 12590 H 1198.51 -2.95534 -3.84558 0
M  V30 12591 H 1194.39 -1.79623 -4.24566 0
M  V30 12592 H 1197.93 -5.22819 -4.6185 0
M  V30 12593 H 1193.83 -4.06005 -5.01827 0
M  V30 12594 H 1194.6 -6.08527 -5.47392 0
M  V30 12595 N 1197.26 1.39987 -0.723979 0
M  V30 12596 C 1198.51 2.00334 -0.266587 0
M  V30 12597 C 1198.83 1.57714 1.14679 0
M  V30 12598 O 1198.1 0.82037 1.77895 0
M  V30 12599 H 1196.68 0.740861 -0.095573 0
M  V30 12600 H 1199.34 1.712 -0.931481 0
M  V30 12601 H 1198.44 3.10594 -0.306282 0
M  V30 12602 N 1198.74 0.470782 1.50404 0
M  V30 12603 C 1199.97 -0.0818945 2.06438 0
M  V30 12604 C 1200.38 -1.34085 1.33483 0
M  V30 12605 O 1199.72 -1.79346 0.397565 0
M  V30 12606 C 1199.78 -0.436252 3.56843 0
M  V30 12607 C 1199.45 0.720641 4.51282 0
M  V30 12608 C 1200.44 1.60258 4.94584 0
M  V30 12609 C 1198.13 0.910879 4.93972 0
M  V30 12610 C 1200.12 2.65916 5.79282 0
M  V30 12611 C 1197.81 1.97069 5.78452 0
M  V30 12612 C 1198.81 2.84319 6.21008 0
M  V30 12613 O 1198.5 3.88476 7.03805 0
M  V30 12614 H 1198.23 0.00361688 0.67599 0
M  V30 12615 H 1200.78 0.658488 1.94559 0
M  V30 12616 H 1199.01 -1.22982 3.66623 0
M  V30 12617 H 1200.7 -0.923976 3.95244 0
M  V30 12618 H 1201.47 1.46729 4.62272 0
M  V30 12619 H 1197.35 0.241225 4.60368 0
M  V30 12620 H 1200.89 3.3405 6.12419 0
M  V30 12621 H 1196.79 2.10605 6.10177 0
M  V30 12622 H 1197.55 3.8546 7.22054 0
M  V30 12623 N 1200.22 -1.56282 0.203376 0
M  V30 12624 C 1201.46 -1.98105 -0.433844 0
M  V30 12625 C 1201.8 -1.09044 -1.60695 0
M  V30 12626 O 1201.07 -0.144193 -1.93965 0
M  V30 12627 C 1201.35 -3.4903 -0.885992 0
M  V30 12628 C 1201.21 -4.48867 0.289501 0
M  V30 12629 C 1202.53 -4.03871 -1.7486 0
M  V30 12630 H 1199.65 -0.720252 -0.156224 0
M  V30 12631 H 1202.29 -1.87681 0.295963 0
M  V30 12632 H 1200.44 -3.58045 -1.50785 0
M  V30 12633 H 1202.11 -4.51883 0.92734 0
M  V30 12634 H 1200.35 -4.23495 0.939934 0
M  V30 12635 H 1201.02 -5.51956 -0.0695128 0
M  V30 12636 H 1203.5 -3.97688 -1.22407 0
M  V30 12637 H 1202.38 -5.09827 -2.03391 0
M  V30 12638 H 1202.64 -3.49637 -2.70567 0
M  V30 12639 N 1201.7 0.070167 -1.57444 0
M  V30 12640 C 1202.92 0.785703 -1.91941 0
M  V30 12641 C 1203.35 1.70243 -0.799932 0
M  V30 12642 O 1202.7 1.79608 0.247139 0
M  V30 12643 C 1202.75 1.55398 -3.25398 0
M  V30 12644 O 1201.86 2.66475 -3.14746 0
M  V30 12645 H 1201.2 0.214245 -0.628486 0
M  V30 12646 H 1203.73 0.0379243 -2.04565 0
M  V30 12647 H 1203.74 1.93287 -3.5931 0
M  V30 12648 H 1202.41 0.881366 -4.06454 0
M  V30 12649 H 1200.99 2.3143 -2.92394 0
M  V30 12650 N 1203.17 1.53854 0.341593 0
M  V30 12651 C 1204.45 1.61823 1.09875 0
M  V30 12652 C 1204.83 0.440711 2.06448 0
M  V30 12653 O 1204.18 -0.566833 2.21358 0
M  V30 12654 C 1204.39 2.9799 1.81668 0
M  V30 12655 C 1205.74 3.53411 2.35341 0
M  V30 12656 O 1206.76 3.00177 1.91761 0
M  V30 12657 O 1205.62 4.4653 3.15076 0
M  V30 12658 H 1202.71 0.654599 0.5054 0
M  V30 12659 H 1205.26 1.66199 0.342929 0
M  V30 12660 H 1204.03 3.7513 1.11323 0
M  V30 12661 H 1203.65 2.97213 2.64103 0
M  V30 12662 N 1204.65 -0.602709 1.4562 0
M  V30 12663 C 1206.06 -1.1847 1.44297 0
M  V30 12664 C 1206.41 -1.95434 0.17316 0
M  V30 12665 O 1205.54 -2.03894 -0.724986 0
M  V30 12666 C 1206.13 -2.15508 2.61422 0
M  V30 12667 C 1204.69 -2.69073 2.63204 0
M  V30 12668 C 1203.84 -1.44568 2.36633 0
M  V30 12669 H 1206.79 -0.391745 1.53789 0
M  V30 12670 H 1206.81 -2.98628 2.35799 0
M  V30 12671 H 1206.32 -1.59464 3.53826 0
M  V30 12672 H 1204.42 -3.29042 1.7482 0
M  V30 12673 H 1204.54 -3.13173 3.62573 0
M  V30 12674 H 1202.9 -1.73692 1.86287 0
M  V30 12675 H 1203.68 -0.903852 3.31188 0
M  V30 12676 N 1206.13 -1.32992 -0.845635 0
M  V30 12677 C 1207.06 -1.17018 -1.95913 0
M  V30 12678 C 1208.04 -0.0673433 -1.6246 0
M  V30 12679 O 1209.22 -0.22833 -1.87112 0
M  V30 12680 C 1206.35 -0.793343 -3.29278 0
M  V30 12681 C 1205.4 -1.90271 -3.81705 0
M  V30 12682 S 1206.23 -3.51256 -4.04202 0
M  V30 12683 C 1207.39 -3.15564 -5.40528 0
M  V30 12684 H 1207.62 -2.11278 -2.09163 0
M  V30 12685 H 1205.15 -1.17756 -0.998644 0
M  V30 12686 H 1207.11 -0.582694 -4.06343 0
M  V30 12687 H 1205.77 0.130539 -3.13829 0
M  V30 12688 H 1204.96 -1.59225 -4.78188 0
M  V30 12689 H 1204.57 -2.06968 -3.11513 0
M  V30 12690 H 1206.86 -2.65969 -6.23111 0
M  V30 12691 H 1207.8 -4.11102 -5.76542 0
M  V30 12692 H 1208.21 -2.52341 -5.04959 0
M  V30 12693 N 1207.61 1.06304 -1.1635 0
M  V30 12694 C 1208.83 1.83338 -0.969639 0
M  V30 12695 C 1209.26 1.81945 0.477231 0
M  V30 12696 O 1208.62 1.22018 1.34094 0
M  V30 12697 C 1208.66 3.2785 -1.50155 0
M  V30 12698 O 1207.77 4.06281 -0.707805 0
M  V30 12699 H 1207.11 0.567293 -0.345072 0
M  V30 12700 H 1209.64 1.34033 -1.54584 0
M  V30 12701 H 1209.65 3.7867 -1.51898 0
M  V30 12702 H 1208.32 3.28179 -2.55483 0
M  V30 12703 H 1206.9 3.65055 -0.760872 0
M  V30 12704 N 1209.09 0.96196 1.24836 0
M  V30 12705 C 1210.31 0.637709 1.97353 0
M  V30 12706 C 1210.74 -0.784919 1.7094 0
M  V30 12707 O 1210.09 -1.53188 0.969694 0
M  V30 12708 C 1210.14 0.911485 3.4889 0
M  V30 12709 O 1209.25 -0.00601668 4.124 0
M  V30 12710 H 1208.59 0.241685 0.618453 0
M  V30 12711 H 1211.12 1.29055 1.58764 0
M  V30 12712 H 1211.13 0.840702 3.99245 0
M  V30 12713 H 1209.8 1.9483 3.67442 0
M  V30 12714 H 1208.38 0.117597 3.72715 0
M  V30 12715 N 1210.56 -1.39601 0.731392 0
M  V30 12716 C 1211.5 -2.28169 0.0378735 0
M  V30 12717 C 1212.47 -1.44195 -0.751434 0
M  V30 12718 O 1213.66 -1.7359 -0.734753 0
M  V30 12719 C 1210.79 -3.24999 -0.953589 0
M  V30 12720 C 1209.83 -4.25748 -0.253203 0
M  V30 12721 S 1210.66 -5.25496 1.03025 0
M  V30 12722 C 1211.82 -6.25886 0.0412927 0
M  V30 12723 H 1212.05 -2.8664 0.788973 0
M  V30 12724 H 1209.59 -1.45271 0.523044 0
M  V30 12725 H 1211.54 -3.81308 -1.52035 0
M  V30 12726 H 1210.21 -2.65554 -1.6775 0
M  V30 12727 H 1209.4 -4.93913 -1.00328 0
M  V30 12728 H 1209 -3.7322 0.241426 0
M  V30 12729 H 1211.29 -6.72757 -0.800305 0
M  V30 12730 H 1212.24 -7.0473 0.68999 0
M  V30 12731 H 1212.64 -5.63538 -0.329495 0
M  V30 12732 N 1212.04 -0.478751 -1.50152 0
M  V30 12733 C 1212.99 0.330224 -2.25596 0
M  V30 12734 C 1213.98 0.954871 -1.29503 0
M  V30 12735 O 1215.17 0.866153 -1.54359 0
M  V30 12736 C 1212.3 1.40719 -3.13134 0
M  V30 12737 C 1211.38 0.789896 -4.16679 0
M  V30 12738 N 1211.77 -0.094345 -5.05712 0
M  V30 12739 C 1210.07 1.05299 -4.33391 0
M  V30 12740 C 1210.77 -0.445458 -5.79992 0
M  V30 12741 N 1209.75 0.181237 -5.43298 0
M  V30 12742 H 1213.55 -0.350824 -2.91799 0
M  V30 12743 H 1211.07 -0.293386 -1.59728 0
M  V30 12744 H 1213.06 1.99999 -3.65795 0
M  V30 12745 H 1211.72 2.09015 -2.48481 0
M  V30 12746 H 1212.73 -0.463695 -5.1582 0
M  V30 12747 H 1209.41 1.73036 -3.79954 0
M  V30 12748 H 1210.8 -1.16754 -6.61678 0
M  V30 12749 N 1213.52 1.56172 -0.211661 0
M  V30 12750 C 1214.77 1.98039 0.422706 0
M  V30 12751 C 1215.1 1.09904 1.60472 0
M  V30 12752 O 1214.35 0.141771 1.95186 0
M  V30 12753 C 1214.65 3.45636 0.909442 0
M  V30 12754 C 1214.32 4.50613 -0.160982 0
M  V30 12755 C 1212.98 4.79043 -0.455064 0
M  V30 12756 C 1215.33 5.13624 -0.885426 0
M  V30 12757 C 1212.66 5.67771 -1.47828 0
M  V30 12758 C 1215.01 6.03459 -1.8979 0
M  V30 12759 C 1213.67 6.30238 -2.19901 0
M  V30 12760 H 1212.94 0.724676 0.154679 0
M  V30 12761 H 1215.59 1.8894 -0.312106 0
M  V30 12762 H 1213.9 3.51889 1.72283 0
M  V30 12763 H 1215.59 3.75395 1.40995 0
M  V30 12764 H 1212.18 4.28528 0.0783864 0
M  V30 12765 H 1216.37 4.91737 -0.671463 0
M  V30 12766 H 1211.62 5.86787 -1.7173 0
M  V30 12767 H 1215.8 6.51338 -2.46438 0
M  V30 12768 H 1213.42 6.98788 -2.9933 0
M  V30 12769 N 1215 -0.0618163 1.57479 0
M  V30 12770 C 1215.95 -1.07953 2.00824 0
M  V30 12771 C 1216.93 -1.33916 0.891924 0
M  V30 12772 O 1218.12 -1.3405 1.15584 0
M  V30 12773 C 1215.25 -2.39041 2.46403 0
M  V30 12774 C 1214.34 -2.16309 3.64789 0
M  V30 12775 N 1214.73 -1.63534 4.78634 0
M  V30 12776 C 1213.03 -2.46739 3.71531 0
M  V30 12777 C 1213.73 -1.55849 5.60434 0
M  V30 12778 N 1212.71 -2.02255 5.04573 0
M  V30 12779 H 1216.51 -0.66497 2.86278 0
M  V30 12780 H 1214.02 -0.268722 1.60161 0
M  V30 12781 H 1216.02 -3.12722 2.757 0
M  V30 12782 H 1214.68 -2.81204 1.6234 0
M  V30 12783 H 1215.69 -1.32258 5.00728 0
M  V30 12784 H 1212.37 -2.92201 2.98203 0
M  V30 12785 H 1213.76 -1.15814 6.61843 0
M  V30 12786 N 1216.48 -1.54033 -0.333429 0
M  V30 12787 C 1217.7 -1.76031 -1.09672 0
M  V30 12788 C 1218.13 -0.502844 -1.81254 0
M  V30 12789 O 1217.48 0.54509 -1.72912 0
M  V30 12790 C 1217.53 -2.947 -2.07809 0
M  V30 12791 O 1216.64 -2.65555 -3.15522 0
M  V30 12792 H 1215.98 -0.583611 -0.316692 0
M  V30 12793 H 1218.51 -2.01026 -0.380732 0
M  V30 12794 H 1218.52 -3.21771 -2.50853 0
M  V30 12795 H 1217.19 -3.85895 -1.55106 0
M  V30 12796 H 1215.77 -2.49403 -2.77223 0
M  V30 12797 N 1217.95 0.594978 -1.45938 0
M  V30 12798 C 1219.19 1.36479 -1.52161 0
M  V30 12799 C 1219.56 1.91296 -0.164295 0
M  V30 12800 O 1220.76 2.68609 -0.101247 0
M  V30 12801 C 1219.03 2.47286 -2.5804 0
M  V30 12802 S 1220.59 3.34855 -2.8358 0
M  V30 12803 H 1217.41 0.465134 -0.537746 0
M  V30 12804 H 1220.01 0.685257 -1.83097 0
M  V30 12805 H 1218.71 2.05386 -3.5531 0
M  V30 12806 H 1218.24 3.20025 -2.28795 0
M  V30 12807 H 1220.26 4.45788 -2.17916 0
M  V30 12808 N 1219.43 1.33438 0.838571 0
M  V30 12809 C 1220.85 1.12779 1.12929 0
M  V30 12810 C 1221.05 -0.0811188 2.01337 0
M  V30 12811 O 1220.1 -0.761294 2.4075 0
M  V30 12812 C 1221.42 2.41537 1.7911 0
M  V30 12813 C 1222.97 2.47447 1.91674 0
M  V30 12814 C 1223.44 3.76167 2.6127 0
M  V30 12815 N 1224.93 3.7724 2.68783 0
M  V30 12816 C 1225.67 4.7355 3.23323 0
M  V30 12817 N 1225.16 5.80235 3.78549 0
M  V30 12818 N 1226.96 4.61025 3.21578 0
M  V30 12819 H 1219.11 2.10921 0.250187 0
M  V30 12820 H 1221.37 0.931986 0.17351 0
M  V30 12821 H 1221.08 3.30006 1.21609 0
M  V30 12822 H 1220.95 2.53709 2.79127 0
M  V30 12823 H 1223.34 1.59427 2.48328 0
M  V30 12824 H 1223.42 2.39216 0.906058 0
M  V30 12825 H 1223.06 4.64569 2.05275 0
M  V30 12826 H 1222.99 3.81675 3.62811 0
M  V30 12827 H 1225.48 3.00138 2.29621 0
M  V30 12828 H 1225.8 6.49759 4.1837 0
M  V30 12829 H 1224.14 5.83969 3.76836 0
M  V30 12830 H 1227.33 3.76836 2.77691 0
M  V30 12831 H 1227.5 5.36253 3.63781 0
M  V30 12832 N 1220.91 -1.05686 1.16912 0
M  V30 12833 C 1221.86 -2.15417 0.877404 0
M  V30 12834 C 1222.85 -1.6868 -0.155986 0
M  V30 12835 O 1224.06 -1.79998 -0.00938156 0
M  V30 12836 H 1220.43 -0.70332 0.266168 0
M  V30 12837 H 1222.4 -2.37228 1.81012 0
M  V30 12838 C 1221.15 -3.45372 0.401696 0
M  V30 12839 H 1220.48 -3.81732 1.18832 0
M  V30 12840 H 1221.92 -4.2334 0.236418 0
M  V30 12841 C 1220.38 -3.25209 -0.87981 0
M  V30 12842 O 1220.91 -3.51322 -1.94771 0
M  V30 12843 N 1219.11 -2.78614 -0.825997 0
M  V30 12844 H 1218.66 -2.57564 0.0432439 0
M  V30 12845 H 1218.62 -2.65503 -1.68391 0
M  V30 12846 N 1222.39 -0.968567 -1.24324 0
M  V30 12847 C 1223.61 -0.648166 -1.97012 0
M  V30 12848 C 1224.04 0.775842 -1.71354 0
M  V30 12849 O 1223.4 1.52672 -0.977804 0
M  V30 12850 C 1223.44 -0.929974 -3.48402 0
M  V30 12851 O 1222.55 -0.015854 -4.12397 0
M  V30 12852 H 1221.89 -0.244961 -0.617163 0
M  V30 12853 H 1224.42 -1.29895 -1.58077 0
M  V30 12854 H 1224.43 -0.861863 -3.98793 0
M  V30 12855 H 1223.1 -1.96776 -3.66404 0
M  V30 12856 H 1221.68 -0.137361 -3.72647 0
M  V30 12857 N 1223.87 1.39211 -0.738786 0
M  V30 12858 C 1225.09 2.05256 -0.297421 0
M  V30 12859 C 1225.52 1.55341 1.06069 0
M  V30 12860 O 1224.87 0.698823 1.67291 0
M  V30 12861 C 1224.92 3.59239 -0.312969 0
M  V30 12862 O 1224.03 4.06448 0.698112 0
M  V30 12863 H 1223.37 0.650245 -0.134454 0
M  V30 12864 H 1225.9 1.78173 -1.00577 0
M  V30 12865 H 1225.91 4.07691 -0.158675 0
M  V30 12866 H 1224.58 3.94931 -1.30394 0
M  V30 12867 H 1223.16 3.69401 0.509643 0
M  V30 12868 N 1225.34 0.486708 1.49896 0
M  V30 12869 C 1226.57 -0.0622999 2.07306 0
M  V30 12870 C 1226.99 -1.31353 1.3464 0
M  V30 12871 O 1226.35 -1.76861 0.398752 0
M  V30 12872 C 1226.4 -0.313481 3.59235 0
M  V30 12873 O 1225.5 -1.39101 3.88233 0
M  V30 12874 H 1224.85 0.0198885 0.663702 0
M  V30 12875 H 1227.38 0.682232 1.92891 0
M  V30 12876 H 1227.39 -0.549302 4.04285 0
M  V30 12877 H 1226.06 0.600767 4.11538 0
M  V30 12878 H 1224.64 -1.14127 3.55006 0
M  V30 12879 N 1226.82 -1.56058 0.219941 0
M  V30 12880 C 1228.07 -1.9826 -0.412197 0
M  V30 12881 C 1228.4 -1.10754 -1.59887 0
M  V30 12882 O 1227.65 -0.15212 -1.95108 0
M  V30 12883 C 1227.95 -3.46113 -0.8911 0
M  V30 12884 C 1227.62 -4.50521 0.184877 0
M  V30 12885 C 1226.28 -4.78795 0.480462 0
M  V30 12886 C 1228.63 -5.13147 0.912652 0
M  V30 12887 C 1225.96 -5.66979 1.50837 0
M  V30 12888 C 1228.31 -6.02444 1.92988 0
M  V30 12889 C 1226.98 -6.29063 2.2324 0
M  V30 12890 H 1226.25 -0.725486 -0.150834 0
M  V30 12891 H 1228.89 -1.88771 0.322122 0
M  V30 12892 H 1227.2 -3.52797 -1.70415 0
M  V30 12893 H 1228.9 -3.76137 -1.39003 0
M  V30 12894 H 1225.49 -4.28564 -0.0556594 0
M  V30 12895 H 1229.67 -4.91374 0.697532 0
M  V30 12896 H 1224.93 -5.85868 1.74839 0
M  V30 12897 H 1229.1 -6.50022 2.49889 0
M  V30 12898 H 1226.73 -6.97191 3.03032 0
M  V30 12899 N 1228.3 0.053464 -1.57509 0
M  V30 12900 C 1229.21 1.07902 -2.08313 0
M  V30 12901 C 1230.23 1.41223 -1.01647 0
M  V30 12902 O 1231.4 1.51032 -1.33233 0
M  V30 12903 C 1228.47 2.36813 -2.5322 0
M  V30 12904 C 1227.53 2.10297 -3.74264 0
M  V30 12905 C 1226.76 3.33062 -4.1702 0
M  V30 12906 O 1226.99 4.42857 -3.59491 0
M  V30 12907 O 1225.92 3.20195 -5.09665 0
M  V30 12908 H 1229.75 0.677368 -2.9605 0
M  V30 12909 H 1227.33 0.268838 -1.46961 0
M  V30 12910 H 1229.21 3.12645 -2.82544 0
M  V30 12911 H 1227.89 2.76323 -1.68605 0
M  V30 12912 H 1226.79 1.32111 -3.49996 0
M  V30 12913 H 1228.13 1.75658 -4.59788 0
M  V30 12914 N 1229.78 1.54207 0.325255 0
M  V30 12915 C 1231.06 1.6298 1.08153 0
M  V30 12916 C 1231.44 0.462583 2.05969 0
M  V30 12917 O 1230.78 -0.543323 2.21947 0
M  V30 12918 C 1230.99 2.999 1.78497 0
M  V30 12919 C 1232.34 3.55888 2.3158 0
M  V30 12920 O 1233.37 3.02194 1.88566 0
M  V30 12921 O 1232.23 4.49847 3.10322 0
M  V30 12922 H 1229.32 0.659923 0.498429 0
M  V30 12923 H 1231.87 1.66553 0.325282 0
M  V30 12924 H 1230.64 3.7629 1.07338 0
M  V30 12925 H 1230.26 2.99997 2.60936 0
M  V30 12926 N 1231.26 -0.58723 1.46251 0
M  V30 12927 C 1232.48 -1.37661 1.55126 0
M  V30 12928 C 1232.91 -1.87123 0.191489 0
M  V30 12929 O 1232.27 -1.6131 -0.827576 0
M  V30 12930 C 1232.31 -2.54324 2.5564 0
M  V30 12931 O 1231.42 -3.55617 2.0883 0
M  V30 12932 H 1230.76 -0.410154 0.522178 0
M  V30 12933 H 1233.29 -0.712738 1.91784 0
M  V30 12934 H 1233.3 -3.01301 2.75103 0
M  V30 12935 H 1231.97 -2.17675 3.54387 0
M  V30 12936 H 1230.55 -3.15151 1.99335 0
M  V30 12937 N 1232.74 -1.33881 -0.831482 0
M  V30 12938 C 1233.96 -1.28961 -1.62431 0
M  V30 12939 C 1234.39 0.135249 -1.87613 0
M  V30 12940 O 1233.74 1.09426 -1.44553 0
M  V30 12941 C 1233.79 -2.07767 -2.94729 0
M  V30 12942 O 1232.9 -1.44133 -3.86393 0
M  V30 12943 H 1232.24 -0.443313 -0.494337 0
M  V30 12944 H 1234.77 -1.76555 -1.0339 0
M  V30 12945 H 1234.78 -2.18806 -3.44366 0
M  V30 12946 H 1233.45 -3.11367 -2.75724 0
M  V30 12947 H 1232.03 -1.41784 -3.44894 0
M  V30 12948 O 1234.25 0.969599 -1.29155 0
M  V30 12949 H 1234.94 1.59557 -1.09823 0
M  V30 END ATOM
M  V30 BEGIN BOND
M  V30 END BOND
M  V30 END CTAB
M  END
$$$$
