drugbank_target|P11797 Chitinase B (DB02414; DB02813; DB03109; DB04157; DB04404; DB04433; DB04520; DB04541; DB04628)
 OpenBabel12092119563D

  0  0  0     0  0            999 V3000
M  V30 BEGIN CTAB
M  V30 COUNTS 7683 7794 0 0 0
M  V30 BEGIN ATOM
M  V30 1 H -0.908 1.98254 -0.117106 0
M  V30 2 N 0 1.576 0 0
M  V30 3 C 0.933 2.03868 1.02534 0
M  V30 4 C 1.911 0.928543 1.3348 0
M  V30 5 O 3.095 1.19667 1.45644 0
M  V30 6 C 0.222 2.43627 2.35294 0
M  V30 7 C -0.732 3.65373 2.2001 0
M  V30 8 S 0.101 5.13292 1.52614 0
M  V30 9 C 1.257 5.56322 2.86805 0
M  V30 10 H 1.49 2.90518 0.631377 0
M  V30 11 H -0.977 1.52953 0.210867 0
M  V30 12 H 0.981 2.67203 3.11629 0
M  V30 13 H -0.358 1.57376 2.7183 0
M  V30 14 H -1.165 3.90944 3.18086 0
M  V30 15 H -1.563 3.418 1.51819 0
M  V30 16 H 0.729 5.58782 3.83104 0
M  V30 17 H 1.672 6.56266 2.65933 0
M  V30 18 H 2.08 4.83886 2.90714 0
M  V30 19 N 1.4781 -0.272755 1.55222 0
M  V30 20 C 2.7031 -1.02683 1.80197 0
M  V30 21 C 3.1281 -1.79142 0.573551 0
M  V30 22 O 2.4861 -1.74917 -0.476849 0
M  V30 23 C 2.5341 -1.9609 3.02624 0
M  V30 24 O 1.6381 -3.04863 2.77727 0
M  V30 25 H 0.9791 -0.293557 0.595584 0
M  V30 26 H 3.5091 -0.30159 2.02365 0
M  V30 27 H 3.5191 -2.38039 3.31363 0
M  V30 28 H 2.1941 -1.39851 3.91682 0
M  V30 29 H 0.7711 -2.67228 2.60084 0
M  V30 30 N 2.9562 -1.48159 -0.537278 0
M  V30 31 C 4.1842 -1.59454 -1.31841 0
M  V30 32 C 4.5992 -0.252065 -1.8711 0
M  V30 33 O 3.9562 0.757621 -1.66031 0
M  V30 34 C 4.0072 -2.63546 -2.47439 0
M  V30 35 O 3.7282 -3.92583 -1.94449 0
M  V30 36 C 5.2292 -2.85212 -3.39366 0
M  V30 37 H 2.4492 -0.53785 -0.401196 0
M  V30 38 H 4.9932 -1.93932 -0.648891 0
M  V30 39 H 3.1482 -2.31946 -3.1029 0
M  V30 40 H 3.5622 -4.49629 -2.70063 0
M  V30 41 H 5.0362 -3.61863 -4.16844 0
M  V30 42 H 5.5132 -1.93765 -3.94147 0
M  V30 43 H 6.1192 -3.18086 -2.82314 0
M  V30 44 N 4.4343 0.785586 -1.36625 0
M  V30 45 C 5.8503 1.08419 -1.17122 0
M  V30 46 C 6.0503 2.015 0.00208491 0
M  V30 47 O 5.1063 2.43551 0.666278 0
M  V30 48 C 6.4193 1.69498 -2.48377 0
M  V30 49 C 7.9673 1.81821 -2.54775 0
M  V30 50 C 8.4423 2.46315 -3.86126 0
M  V30 51 N 9.9333 2.53779 -3.87492 0
M  V30 52 C 10.6683 3.045 -4.85868 0
M  V30 53 N 10.1643 3.55499 -5.94637 0
M  V30 54 N 11.9573 3.03247 -4.73284 0
M  V30 55 H 4.1083 0.167264 -2.1174 0
M  V30 56 H 6.3713 0.13682 -0.938075 0
M  V30 57 H 6.0773 1.08571 -3.34522 0
M  V30 58 H 5.9513 2.6896 -2.64462 0
M  V30 59 H 8.3383 2.41884 -1.69045 0
M  V30 60 H 8.4193 0.811532 -2.42586 0
M  V30 61 H 8.0633 1.86895 -4.72263 0
M  V30 62 H 7.9933 3.47561 -3.95612 0
M  V30 63 H 10.4843 2.17672 -3.08913 0
M  V30 64 H 10.7973 3.92562 -6.65669 0
M  V30 65 H 9.1423 3.5364 -5.98301 0
M  V30 66 H 12.3333 2.62696 -3.87438 0
M  V30 67 H 12.5063 3.42467 -5.50109 0
M  V30 68 N 5.9124 1.20967 1.01018 0
M  V30 69 C 6.8594 0.964281 2.09691 0
M  V30 70 C 7.8294 -0.107853 1.65749 0
M  V30 71 O 9.0144 0.0381987 1.90762 0
M  V30 72 C 6.1544 0.52943 3.41015 0
M  V30 73 C 5.2674 1.67043 3.98398 0
M  V30 74 C 4.4024 1.18525 5.17808 0
M  V30 75 C 3.4414 2.29892 5.67288 0
M  V30 76 N 2.5784 1.82546 6.77954 0
M  V30 77 H 7.4184 1.89463 2.30017 0
M  V30 78 H 4.9554 0.944289 1.1279 0
M  V30 79 H 6.9134 0.258588 4.16398 0
M  V30 80 H 5.5434 -0.363919 3.20742 0
M  V30 81 H 4.5954 2.05603 3.20049 0
M  V30 82 H 5.9074 2.50877 4.31117 0
M  V30 83 H 5.0614 0.870762 6.00419 0
M  V30 84 H 3.8004 0.316887 4.86669 0
M  V30 85 H 2.8054 2.6215 4.83278 0
M  V30 86 H 4.0304 3.17216 6.00459 0
M  V30 87 H 1.9764 0.980454 6.48632 0
M  V30 88 H 1.8934 2.59956 7.09901 0
M  V30 89 H 3.1614 1.54115 7.64113 0
M  V30 90 N 7.3905 -1.2043 1.01659 0
M  V30 91 C 8.3535 -2.21433 0.591616 0
M  V30 92 C 9.3535 -1.57203 -0.338226 0
M  V30 93 O 10.5435 -1.73737 -0.126918 0
M  V30 94 C 7.6755 -3.40628 -0.136058 0
M  V30 95 H 8.8685 -2.60545 1.48514 0
M  V30 96 H 6.4215 -1.33893 0.806379 0
M  V30 97 H 7.1565 -3.07019 -1.04449 0
M  V30 98 H 6.9415 -3.88475 0.531917 0
M  V30 99 H 8.4315 -4.15475 -0.420735 0
M  V30 100 N 8.8686 -0.792821 -1.36206 0
M  V30 101 C 10.1146 -0.36733 -1.99446 0
M  V30 102 C 10.4476 1.05917 -1.62774 0
M  V30 103 O 9.7226 1.7324 -0.88421 0
M  V30 104 C 10.0056 -0.535044 -3.56103 0
M  V30 105 C 9.8586 -2.00548 -4.02617 0
M  V30 106 C 11.1776 0.0478191 -4.40074 0
M  V30 107 H 8.2966 -0.134941 -0.724541 0
M  V30 108 H 10.9386 -0.999794 -1.61568 0
M  V30 109 H 9.0886 0.00336329 -3.885 0
M  V30 110 H 10.7606 -2.60521 -3.80692 0
M  V30 111 H 9.0036 -2.50686 -3.54032 0
M  V30 112 H 9.6746 -2.07377 -5.11565 0
M  V30 113 H 12.1506 -0.411822 -4.14057 0
M  V30 114 H 11.0266 -0.0995336 -5.4881 0
M  V30 115 H 11.2876 1.14025 -4.27142 0
M  V30 116 N 10.3467 1.47872 -0.545128 0
M  V30 117 C 11.5957 2.01695 -0.0145033 0
M  V30 118 C 11.9087 1.42609 1.33873 0
M  V30 119 O 13.1147 1.88021 1.95858 0
M  V30 120 C 11.5707 3.59892 0.0245068 0
M  V30 121 C 11.1787 4.27966 -1.32475 0
M  V30 122 C 12.9227 4.21507 0.50316 0
M  V30 123 C 10.8297 5.78136 -1.2455 0
M  V30 124 H 9.7597 0.753998 -0.00165172 0
M  V30 125 H 12.4107 1.69985 -0.691175 0
M  V30 126 H 10.7927 3.88509 0.766575 0
M  V30 127 H 11.9667 4.11003 -2.08357 0
M  V30 128 H 10.2817 3.78286 -1.74036 0
M  V30 129 H 12.8787 5.31538 0.580656 0
M  V30 130 H 13.2217 3.87855 1.51243 0
M  V30 131 H 13.7547 3.97376 -0.183681 0
M  V30 132 H 10.4937 6.16388 -2.23039 0
M  V30 133 H 10.0137 5.97469 -0.528282 0
M  V30 134 H 11.6927 6.40099 -0.942488 0
M  V30 135 N 11.8248 0.280983 1.55075 0
M  V30 136 C 13.0728 -0.333455 1.9933 0
M  V30 137 C 13.3938 -1.55937 1.17085 0
M  V30 138 O 12.6638 -1.94143 0.261805 0
M  V30 139 H 11.2438 -0.126197 0.736263 0
M  V30 140 H 13.9058 0.387678 1.91005 0
M  V30 141 H 13.0018 -0.619292 3.05894 0
M  V30 142 N 13.3029 -1.57598 0.00835791 0
M  V30 143 C 14.5329 -1.94931 -0.684496 0
M  V30 144 C 14.9409 -0.882233 -1.67372 0
M  V30 145 O 14.2839 0.146621 -1.83114 0
M  V30 146 C 14.3459 -3.283 -1.4649 0
M  V30 147 C 14.0099 -4.52548 -0.63634 0
M  V30 148 C 15.0069 -5.19839 0.0795586 0
M  V30 149 C 12.6919 -4.98942 -0.579849 0
M  V30 150 C 14.6859 -6.3183 0.840843 0
M  V30 151 C 12.3729 -6.10819 0.185155 0
M  V30 152 C 13.3709 -6.77121 0.894227 0
M  V30 153 O 13.0589 -7.86853 1.64673 0
M  V30 154 H 12.7909 -0.647249 -0.19505 0
M  V30 155 H 15.3449 -2.05318 0.0581272 0
M  V30 156 H 13.5749 -3.14345 -2.2522 0
M  V30 157 H 15.2639 -3.50685 -2.04389 0
M  V30 158 H 16.0299 -4.84979 0.0451202 0
M  V30 159 H 11.9089 -4.47155 -1.1213 0
M  V30 160 H 15.4529 -6.83513 1.39483 0
M  V30 161 H 11.3499 -6.4512 0.221384 0
M  V30 162 H 12.1179 -8.03412 1.56432 0
M  V30 163 N 14.781 0.264519 -1.55364 0
M  V30 164 C 16.011 1.01153 -1.80143 0
M  V30 165 C 16.419 1.80115 -0.579253 0
M  V30 166 O 15.762 1.77813 0.46132 0
M  V30 167 C 15.824 2.01098 -2.97993 0
M  V30 168 C 15.488 1.40995 -4.34706 0
M  V30 169 C 16.485 0.821316 -5.13372 0
M  V30 170 C 14.17 1.43461 -4.81378 0
M  V30 171 C 16.164 0.265339 -6.36847 0
M  V30 172 C 13.851 0.874771 -6.04807 0
M  V30 173 C 14.849 0.291146 -6.82379 0
M  V30 174 O 14.537 -0.260093 -8.03479 0
M  V30 175 H 14.269 0.304125 -0.603725 0
M  V30 176 H 16.823 0.298089 -2.03225 0
M  V30 177 H 15.053 2.76224 -2.70623 0
M  V30 178 H 16.742 2.61997 -3.1002 0
M  V30 179 H 17.508 0.794903 -4.78442 0
M  V30 180 H 13.387 1.87826 -4.21002 0
M  V30 181 H 16.931 -0.190837 -6.97339 0
M  V30 182 H 12.828 0.898452 -6.39217 0
M  V30 183 H 13.596 -0.150265 -8.18362 0
M  V30 184 N 16.2591 1.48442 0.529413 0
M  V30 185 C 17.5061 1.56488 1.28521 0
M  V30 186 C 17.8341 0.239042 1.93025 0
M  V30 187 O 17.0891 -0.770713 1.79885 0
M  V30 188 C 17.3881 2.6523 2.39558 0
M  V30 189 C 17.0541 4.07648 1.92702 0
M  V30 190 C 15.7161 4.46411 1.79641 0
M  V30 191 C 18.0681 4.96896 1.573 0
M  V30 192 C 15.3961 5.72226 1.29514 0
M  V30 193 C 17.7481 6.23202 1.08636 0
M  V30 194 C 16.4121 6.60821 0.941919 0
M  V30 195 H 15.6821 0.572631 0.470292 0
M  V30 196 H 18.3291 1.82161 0.59072 0
M  V30 197 H 16.6341 2.33419 3.14679 0
M  V30 198 H 18.3311 2.68671 2.97686 0
M  V30 199 H 14.9211 3.77036 2.03819 0
M  V30 200 H 19.1051 4.67626 1.66251 0
M  V30 201 H 14.3611 6.00097 1.17019 0
M  V30 202 H 18.5351 6.91753 0.803136 0
M  V30 203 H 16.1621 7.58198 0.5513 0
M  V30 204 N 17.7372 -0.778329 1.37039 0
M  V30 205 C 18.9862 -1.53189 1.3121 0
M  V30 206 C 19.2992 -1.95328 -0.103095 0
M  V30 207 O 20.5052 -2.70012 -0.283826 0
M  V30 208 C 18.9612 -2.76591 2.30272 0
M  V30 209 C 18.5692 -2.41577 3.77286 0
M  V30 210 C 20.3132 -3.5455 2.33441 0
M  V30 211 C 18.2202 -3.61441 4.68096 0
M  V30 212 H 17.1502 -0.5751 0.487622 0
M  V30 213 H 19.8012 -0.853101 1.62464 0
M  V30 214 H 18.1832 -3.46326 1.92027 0
M  V30 215 H 19.3572 -1.79668 4.2433 0
M  V30 216 H 17.6722 -1.76806 3.76999 0
M  V30 217 H 20.2692 -4.43628 2.98493 0
M  V30 218 H 20.6122 -3.93936 1.34611 0
M  V30 219 H 21.1452 -2.91805 2.7036 0
M  V30 220 H 17.8842 -3.27142 5.6803 0
M  V30 221 H 17.4042 -4.22478 4.25761 0
M  V30 222 H 19.0832 -4.28335 4.8491 0
M  V30 223 N 19.2153 -1.21501 -1.00376 0
M  V30 224 C 20.6263 -1.03146 -1.55621 0
M  V30 225 C 20.9773 0.408375 -1.91903 0
M  V30 226 O 20.1023 1.29177 -1.73616 0
M  V30 227 C 20.6973 -1.86612 -2.82775 0
M  V30 228 C 19.2563 -1.72586 -3.34501 0
M  V30 229 C 18.4033 -1.83747 -2.07683 0
M  V30 230 H 21.3543 -1.35505 -0.826081 0
M  V30 231 H 21.3753 -1.3771 -3.54706 0
M  V30 232 H 20.8873 -2.91399 -2.56336 0
M  V30 233 H 18.9883 -0.704877 -3.65872 0
M  V30 234 H 19.1013 -2.54623 -4.05837 0
M  V30 235 H 17.4653 -1.27069 -2.20739 0
M  V30 236 H 18.2483 -2.90044 -1.83655 0
M  V30 237 N 20.6934 1.19889 -1.02296 0
M  V30 238 C 21.9214 1.9339 -0.735399 0
M  V30 239 C 22.3364 1.75148 0.704887 0
M  V30 240 O 21.6934 1.06954 1.47875 0
M  V30 241 C 21.7444 3.45313 -1.06962 0
M  V30 242 O 21.4654 3.62964 -2.45334 0
M  V30 243 C 22.9664 4.35948 -0.804021 0
M  V30 244 H 20.1864 0.61448 -0.269546 0
M  V30 245 H 22.7304 1.522 -1.36585 0
M  V30 246 H 20.8854 3.84359 -0.484455 0
M  V30 247 H 21.2994 4.56886 -2.57595 0
M  V30 248 H 22.7734 5.41174 -1.0879 0
M  V30 249 H 23.2504 4.3842 0.261691 0
M  V30 250 H 23.8564 4.02574 -1.37164 0
M  V30 251 N 22.1715 0.800033 1.35784 0
M  V30 252 C 23.1195 0.193851 2.31791 0
M  V30 253 C 24.1135 -0.652744 1.56319 0
M  V30 254 O 25.3195 -0.546641 1.71499 0
M  V30 255 H 21.6945 0.04392 0.750716 0
M  V30 256 H 23.6655 1.01883 2.80468 0
M  V30 257 C 22.4145 -0.648338 3.41602 0
M  V30 258 H 21.7375 -0.00624665 3.998 0
M  V30 259 H 23.1775 -1.03898 4.11073 0
M  V30 260 C 21.6365 -1.8111 2.84079 0
M  V30 261 O 22.1665 -2.90825 2.77099 0
M  V30 262 N 20.3725 -1.62056 2.41218 0
M  V30 263 H 19.9195 -0.728123 2.47095 0
M  V30 264 H 19.8775 -2.40013 2.03079 0
M  V30 265 N 23.6496 -1.47581 0.552962 0
M  V30 266 C 24.5816 -2.27997 -0.234533 0
M  V30 267 C 25.5946 -1.36753 -0.883321 0
M  V30 268 O 26.7836 -1.61612 -0.757889 0
M  V30 269 C 23.8836 -3.10879 -1.34935 0
M  V30 270 C 23.0566 -4.30056 -0.798158 0
M  V30 271 C 22.1156 -4.94567 -1.79694 0
M  V30 272 O 21.1416 -5.53087 -1.34474 0
M  V30 273 N 22.3436 -4.88878 -3.13015 0
M  V30 274 H 25.1086 -2.96222 0.455255 0
M  V30 275 H 22.6696 -1.57163 0.388761 0
M  V30 276 H 24.6616 -3.50903 -2.01616 0
M  V30 277 H 23.2316 -2.44924 -1.94244 0
M  V30 278 H 22.4516 -3.94174 0.0453079 0
M  V30 279 H 23.7396 -5.07152 -0.409173 0
M  V30 280 H 23.1376 -4.42526 -3.52402 0
M  V30 281 H 21.6946 -5.32934 -3.75266 0
M  V30 282 N 25.1277 -0.289203 -1.54924 0
M  V30 283 C 26.3767 0.324231 -1.99077 0
M  V30 284 C 26.6897 1.5591 -1.18117 0
M  V30 285 O 27.8957 2.24637 -1.52481 0
M  V30 286 C 26.3517 0.628209 -3.54375 0
M  V30 287 C 25.9597 -0.587647 -4.44129 0
M  V30 288 C 27.7037 1.20349 -4.07083 0
M  V30 289 C 25.6107 -0.257475 -5.90839 0
M  V30 290 H 24.5407 0.124924 -0.743579 0
M  V30 291 H 27.1917 -0.396063 -1.79175 0
M  V30 292 H 25.5737 1.40778 -3.70132 0
M  V30 293 H 26.7477 -1.36418 -4.40144 0
M  V30 294 H 25.0627 -1.08074 -4.0213 0
M  V30 295 H 27.6597 1.46456 -5.14252 0
M  V30 296 H 28.0027 2.14195 -3.56968 0
M  V30 297 H 28.5357 0.485889 -3.94821 0
M  V30 298 H 25.2747 -1.16419 -6.45079 0
M  V30 299 H 24.7947 0.482018 -5.9786 0
M  V30 300 H 26.4737 0.145238 -6.46837 0
M  V30 301 N 26.6058 1.57591 -0.0167156 0
M  V30 302 C 27.5538 2.10604 0.987353 0
M  V30 303 C 28.5478 1.02977 1.34507 0
M  V30 304 O 29.7538 1.21425 1.32875 0
M  V30 305 H 26.1288 0.672695 0.336134 0
M  V30 306 H 28.0998 2.93925 0.514817 0
M  V30 307 C 26.8488 2.6382 2.26483 0
M  V30 308 H 26.1718 3.46278 1.99829 0
M  V30 309 H 27.6118 3.04573 2.94977 0
M  V30 310 C 26.0708 1.55992 2.9861 0
M  V30 311 O 26.6008 0.952521 3.90243 0
M  V30 312 N 24.8068 1.28335 2.60727 0
M  V30 313 H 24.3538 1.77914 1.86291 0
M  V30 314 H 24.3118 0.564115 3.09298 0
M  V30 315 N 28.0839 -0.256276 1.55502 0
M  V30 316 C 29.0319 -1.33694 1.90338 0
M  V30 317 C 30.0259 -1.50299 0.781441 0
M  V30 318 O 31.2319 -1.51885 0.965966 0
M  V30 319 H 27.6069 -0.447483 0.60437 0
M  V30 320 H 29.5779 -1.01574 2.8058 0
M  V30 321 C 28.3269 -2.68724 2.20642 0
M  V30 322 H 27.6499 -2.56743 3.06469 0
M  V30 323 H 29.0899 -3.43237 2.48926 0
M  V30 324 C 27.5489 -3.21101 1.01959 0
M  V30 325 O 28.0789 -4.0084 0.262762 0
M  V30 326 N 26.2849 -2.79003 0.812746 0
M  V30 327 H 25.8319 -2.14271 1.42989 0
M  V30 328 H 25.7899 -3.14393 0.0203076 0
M  V30 329 N 29.562 -1.4872 -0.521534 0
M  V30 330 C 30.792 -1.6061 -1.29954 0
M  V30 331 C 31.2 -0.268728 -1.87282 0
M  V30 332 O 30.543 0.753221 -1.67548 0
M  V30 333 C 30.605 -2.60013 -2.48261 0
M  V30 334 C 30.269 -4.04874 -2.11957 0
M  V30 335 C 31.266 -4.92304 -1.67132 0
M  V30 336 C 28.951 -4.5047 -2.22221 0
M  V30 337 C 30.945 -6.2336 -1.33047 0
M  V30 338 C 28.632 -5.81544 -1.87748 0
M  V30 339 C 29.63 -6.67812 -1.43234 0
M  V30 340 O 29.318 -7.96446 -1.09217 0
M  V30 341 H 29.05 -0.544116 -0.401141 0
M  V30 342 H 31.604 -1.95339 -0.634958 0
M  V30 343 H 29.834 -2.20422 -3.17728 0
M  V30 344 H 31.523 -2.61648 -3.10315 0
M  V30 345 H 32.289 -4.58312 -1.58665 0
M  V30 346 H 28.168 -3.83504 -2.55823 0
M  V30 347 H 31.712 -6.90649 -0.982299 0
M  V30 348 H 27.609 -6.15069 -1.95858 0
M  V30 349 H 28.377 -8.09275 -1.22542 0
M  V30 350 N 31.0401 0.771051 -1.3745 0
M  V30 351 C 32.2681 1.56015 -1.35893 0
M  V30 352 C 32.6831 1.88718 0.0555523 0
M  V30 353 O 32.0401 1.51502 1.01752 0
M  V30 354 C 32.0911 2.87001 -2.19801 0
M  V30 355 O 31.8121 2.557 -3.55738 0
M  V30 356 C 33.3131 3.81228 -2.26231 0
M  V30 357 H 30.5331 0.483317 -0.465453 0
M  V30 358 H 33.0771 0.955611 -1.80799 0
M  V30 359 H 31.2321 3.43877 -1.78402 0
M  V30 360 H 31.6461 3.39584 -3.99729 0
M  V30 361 H 33.1201 4.70139 -2.89263 0
M  V30 362 H 33.5971 4.20409 -1.27093 0
M  V30 363 H 34.2031 3.30281 -2.67945 0
M  V30 364 N 32.5182 1.22032 0.997298 0
M  V30 365 C 33.4282 1.00271 2.12092 0
M  V30 366 C 34.4442 -0.047621 1.73935 0
M  V30 367 O 35.6202 0.144136 2.00884 0
M  V30 368 C 32.6852 0.578449 3.4184 0
M  V30 369 C 31.7462 1.70189 3.94125 0
M  V30 370 C 30.9792 1.29778 5.17681 0
M  V30 371 O 31.2022 0.174676 5.70132 0
M  V30 372 O 30.1362 2.11261 5.63607 0
M  V30 373 H 33.9622 1.94398 2.3333 0
M  V30 374 H 31.5472 1.00587 1.10465 0
M  V30 375 H 33.4292 0.351998 4.19927 0
M  V30 376 H 32.1042 -0.334019 3.21972 0
M  V30 377 H 31.0112 1.98282 3.1723 0
M  V30 378 H 32.3442 2.59206 4.18417 0
M  V30 379 N 33.9963 -1.19345 1.0293 0
M  V30 380 C 35.2243 -1.92997 0.745644 0
M  V30 381 C 35.6393 -1.75519 -0.695589 0
M  V30 382 O 34.9963 -1.07737 -1.47306 0
M  V30 383 C 35.0473 -3.44741 1.08792 0
M  V30 384 O 34.7683 -3.61658 2.47256 0
M  V30 385 C 36.2693 -4.35515 0.827129 0
M  V30 386 H 33.4893 -0.613042 0.272801 0
M  V30 387 H 36.0333 -1.51473 1.3739 0
M  V30 388 H 34.1883 -3.84097 0.504832 0
M  V30 389 H 34.6023 -4.55514 2.60015 0
M  V30 390 H 36.0763 -5.40589 1.11658 0
M  V30 391 H 36.5533 -4.38552 -0.238436 0
M  V30 392 H 37.1593 -4.01841 1.39297 0
M  V30 393 N 35.4744 -0.807222 -1.35358 0
M  V30 394 C 36.7514 -0.311126 -1.9311 0
M  V30 395 C 37.1314 1.19937 -1.73719 0
M  V30 396 O 36.4794 1.99918 -1.10657 0
M  V30 397 C 36.6894 -0.723226 -3.41424 0
M  V30 398 C 38.0374 -0.713078 -4.18569 0
M  V30 399 O 39.0614 -0.664811 -3.49941 0
M  V30 400 O 37.9204 -0.772022 -5.41019 0
M  V30 401 H 35.0144 -0.081526 -0.822972 0
M  V30 402 H 37.5604 -0.890962 -1.4443 0
M  V30 403 H 36.3324 -1.76426 -3.4927 0
M  V30 404 H 35.9554 -0.118232 -3.97424 0
M  V30 405 N 36.9525 1.47285 -0.560781 0
M  V30 406 C 38.1805 2.06855 -0.0430262 0
M  V30 407 C 38.5955 1.41291 1.25229 0
M  V30 408 O 37.9525 0.510648 1.7521 0
M  V30 409 C 38.0035 3.61178 0.152518 0
M  V30 410 O 37.7245 4.24285 -1.0915 0
M  V30 411 C 39.2255 4.37624 0.707145 0
M  V30 412 H 36.4455 0.669319 -0.0474652 0
M  V30 413 H 38.9895 1.89237 -0.77521 0
M  V30 414 H 37.1445 3.78298 0.834843 0
M  V30 415 H 37.5585 5.16868 -0.891482 0
M  V30 416 H 39.0325 5.46271 0.793244 0
M  V30 417 H 39.5095 4.04152 1.71923 0
M  V30 418 H 40.1155 4.25257 0.0604027 0
M  V30 419 N 38.4306 0.297415 1.54768 0
M  V30 420 C 39.6556 -0.318435 2.04941 0
M  V30 421 C 40.0806 -1.4701 1.17345 0
M  V30 422 O 39.4386 -1.80436 0.176758 0
M  V30 423 C 39.4866 -0.755749 3.52592 0
M  V30 424 O 38.5906 -1.86088 3.68028 0
M  V30 425 H 37.9316 -0.062421 0.661059 0
M  V30 426 H 40.4616 0.438215 1.99852 0
M  V30 427 H 40.4716 -1.04552 3.94376 0
M  V30 428 H 39.1466 0.0867233 4.1581 0
M  V30 429 H 37.7236 -1.57193 3.38149 0
M  V30 430 N 39.9087 -1.5758 0.0250728 0
M  V30 431 C 41.1547 -1.91917 -0.655413 0
M  V30 432 C 41.4877 -0.901433 -1.72011 0
M  V30 433 O 40.7627 0.0764069 -1.9435 0
M  V30 434 C 41.0457 -3.36751 -1.27558 0
M  V30 435 C 40.8987 -4.49258 -0.220719 0
M  V30 436 C 42.2177 -3.81469 -2.19475 0
M  V30 437 H 39.3367 -0.697925 -0.23679 0
M  V30 438 H 41.9787 -1.89825 0.0815036 0
M  V30 439 H 40.1287 -3.38664 -1.90365 0
M  V30 440 H 41.8007 -4.59478 0.409601 0
M  V30 441 H 40.0437 -4.31415 0.454264 0
M  V30 442 H 40.7147 -5.47618 -0.694175 0
M  V30 443 H 43.1907 -3.81266 -1.66659 0
M  V30 444 H 42.0667 -4.83512 -2.59822 0
M  V30 445 H 42.3277 -3.16744 -3.08424 0
M  V30 446 N 41.3868 0.248026 -1.55636 0
M  V30 447 C 42.6328 0.97767 -1.77678 0
M  V30 448 C 42.9658 1.85016 -0.590135 0
M  V30 449 O 42.2408 1.90095 0.411611 0
M  V30 450 C 42.5238 1.83914 -3.09593 0
M  V30 451 C 42.3768 0.99491 -4.38659 0
M  V30 452 C 43.6958 2.82183 -3.37729 0
M  V30 453 H 40.8148 0.354005 -0.646413 0
M  V30 454 H 43.4568 0.248253 -1.88371 0
M  V30 455 H 41.6068 2.46104 -3.00608 0
M  V30 456 H 43.2788 0.391789 -4.59633 0
M  V30 457 H 41.5218 0.299231 -4.32767 0
M  V30 458 H 42.1928 1.63145 -5.2734 0
M  V30 459 H 44.6688 2.30129 -3.4667 0
M  V30 460 H 43.5448 3.39582 -4.31249 0
M  V30 461 H 43.8058 3.58588 -2.58586 0
M  V30 462 N 42.8649 1.48995 0.513639 0
M  V30 463 C 44.2759 1.5119 1.09537 0
M  V30 464 C 44.6269 0.290906 1.94031 0
M  V30 465 O 43.7519 -0.60049 2.07902 0
M  V30 466 C 44.3469 2.73964 1.99322 0
M  V30 467 C 42.9059 2.78978 2.52682 0
M  V30 468 C 42.0529 2.44934 1.30009 0
M  V30 469 H 45.0039 1.55875 0.298125 0
M  V30 470 H 45.0249 2.53409 2.83838 0
M  V30 471 H 44.5369 3.62813 1.37799 0
M  V30 472 H 42.6379 1.94378 3.1788 0
M  V30 473 H 42.7509 3.8083 2.90698 0
M  V30 474 H 41.1149 1.9644 1.62122 0
M  V30 475 H 41.8979 3.36043 0.702131 0
M  V30 476 N 44.343 -0.763751 1.37857 0
M  V30 477 C 45.59 -1.52257 1.33506 0
M  V30 478 C 45.918 -1.94343 -0.078022 0
M  V30 479 O 45.173 -1.64958 -1.05297 0
M  V30 480 C 45.472 -2.79499 2.22745 0
M  V30 481 C 45.138 -2.56426 3.70886 0
M  V30 482 C 43.8 -2.49842 4.11257 0
M  V30 483 C 46.152 -2.36008 4.64704 0
M  V30 484 C 43.48 -2.20841 5.43549 0
M  V30 485 C 45.832 -2.0853 5.97242 0
M  V30 486 C 44.496 -2.00396 6.36709 0
M  V30 487 H 43.766 -0.557149 0.488534 0
M  V30 488 H 46.413 -0.879073 1.70131 0
M  V30 489 H 44.718 -3.48447 1.79142 0
M  V30 490 H 46.415 -3.37413 2.16688 0
M  V30 491 H 43.005 -2.62416 3.38874 0
M  V30 492 H 47.189 -2.40079 4.34368 0
M  V30 493 H 42.445 -2.13045 5.73081 0
M  V30 494 H 46.619 -1.91732 6.69486 0
M  V30 495 H 44.246 -1.77688 7.39142 0
M  V30 496 N 45.8211 -1.22559 -0.990812 0
M  V30 497 C 47.2321 -1.04791 -1.54518 0
M  V30 498 C 47.5831 0.387998 -1.92325 0
M  V30 499 O 46.7081 1.27328 -1.74976 0
M  V30 500 C 47.3031 -1.896 -2.80779 0
M  V30 501 C 45.8621 -1.76124 -3.32652 0
M  V30 502 C 45.0091 -1.8594 -2.05722 0
M  V30 503 H 47.9601 -1.36374 -0.811662 0
M  V30 504 H 47.9811 -1.41464 -3.53225 0
M  V30 505 H 47.4931 -2.94101 -2.53231 0
M  V30 506 H 45.5941 -0.743643 -3.65104 0
M  V30 507 H 45.7071 -2.58913 -4.03114 0
M  V30 508 H 44.0711 -1.29403 -2.19379 0
M  V30 509 H 44.8541 -2.91976 -1.80568 0
M  V30 510 N 47.2992 1.18797 -1.03562 0
M  V30 511 C 48.5452 1.8893 -0.737113 0
M  V30 512 C 48.8782 1.79837 0.732956 0
M  V30 513 O 48.1532 1.19525 1.5344 0
M  V30 514 C 48.4362 3.39607 -1.19745 0
M  V30 515 C 48.2892 3.57537 -2.72924 0
M  V30 516 C 49.6082 4.33069 -0.783526 0
M  V30 517 H 46.7272 0.686057 -0.269249 0
M  V30 518 H 49.3692 1.39797 -1.28673 0
M  V30 519 H 47.5192 3.81583 -0.729855 0
M  V30 520 H 49.1912 3.24688 -3.27682 0
M  V30 521 H 47.4342 3.00363 -3.12993 0
M  V30 522 H 48.1052 4.63238 -3.00191 0
M  V30 523 H 50.5812 3.98846 -1.18581 0
M  V30 524 H 49.4572 5.3707 -1.13343 0
M  V30 525 H 49.7182 4.40986 0.313681 0
M  V30 526 N 48.7773 0.814389 1.34928 0
M  V30 527 C 50.0023 0.410097 2.03305 0
M  V30 528 C 50.4273 -0.973464 1.60951 0
M  V30 529 O 49.7853 -1.63185 0.789964 0
M  V30 530 C 49.8333 0.51049 3.56968 0
M  V30 531 O 48.9373 -0.473035 4.09678 0
M  V30 532 H 48.2783 0.170088 0.641846 0
M  V30 533 H 50.8083 1.10244 1.72358 0
M  V30 534 H 50.8183 0.383135 4.06197 0
M  V30 535 H 49.4933 1.51963 3.87144 0
M  V30 536 H 48.0703 -0.305272 3.71648 0
M  V30 537 N 50.2554 -1.46986 0.568584 0
M  V30 538 C 51.2034 -2.31858 -0.185649 0
M  V30 539 C 52.1974 -1.43624 -0.898249 0
M  V30 540 O 53.4034 -1.60327 -0.818242 0
M  V30 541 H 49.7784 -0.747866 -0.0787399 0
M  V30 542 H 51.7494 -2.93303 0.549191 0
M  V30 543 C 50.4984 -3.26513 -1.19519 0
M  V30 544 H 49.8214 -3.94377 -0.656285 0
M  V30 545 H 51.2614 -3.88707 -1.6936 0
M  V30 546 C 49.7204 -2.50847 -2.24894 0
M  V30 547 O 50.2504 -2.26119 -3.32014 0
M  V30 548 N 48.4564 -2.11656 -1.99124 0
M  V30 549 H 48.0034 -2.31966 -1.12024 0
M  V30 550 H 47.9614 -1.61347 -2.69842 0
M  V30 551 N 51.7335 -0.305618 -1.54608 0
M  V30 552 C 52.9825 0.303098 -1.9941 0
M  V30 553 C 53.2955 1.54648 -1.19764 0
M  V30 554 O 54.5015 2.23007 -1.54855 0
M  V30 555 C 52.9575 0.590588 -3.55021 0
M  V30 556 C 52.5655 -0.634719 -4.43481 0
M  V30 557 C 54.3095 1.16025 -4.08336 0
M  V30 558 C 52.2165 -0.320126 -5.90533 0
M  V30 559 H 51.1465 0.117031 -0.744862 0
M  V30 560 H 53.7975 -0.415045 -1.78745 0
M  V30 561 H 52.1795 1.36845 -3.71604 0
M  V30 562 H 53.3535 -1.41079 -4.38672 0
M  V30 563 H 51.6685 -1.12333 -4.00962 0
M  V30 564 H 54.2655 1.40994 -5.15776 0
M  V30 565 H 54.6085 2.10397 -3.5922 0
M  V30 566 H 55.1415 0.443985 -3.95315 0
M  V30 567 H 51.8805 -1.23254 -6.43808 0
M  V30 568 H 51.4005 0.418579 -5.98338 0
M  V30 569 H 53.0795 0.0766241 -6.46955 0
M  V30 570 N 53.2116 1.57565 -0.0334293 0
M  V30 571 C 54.4396 1.9628 0.654347 0
M  V30 572 C 54.8546 0.910138 1.65414 0
M  V30 573 O 54.2116 -0.107595 1.82183 0
M  V30 574 C 54.2626 3.35067 1.35693 0
M  V30 575 O 53.9836 4.36296 0.397191 0
M  V30 576 C 55.4846 3.88439 2.13613 0
M  V30 577 H 52.7046 0.646369 0.180132 0
M  V30 578 H 55.2486 2.04282 -0.0944721 0
M  V30 579 H 53.4036 3.2827 2.05712 0
M  V30 580 H 53.8176 5.1678 0.896597 0
M  V30 581 H 55.2916 4.8788 2.58219 0
M  V30 582 H 55.7686 3.22914 2.97696 0
M  V30 583 H 56.3746 3.98516 1.48543 0
M  V30 584 N 54.6897 -0.239769 1.55765 0
M  V30 585 C 56.1007 -0.808263 1.68297 0
M  V30 586 C 56.4517 -1.85736 0.632181 0
M  V30 587 O 55.5767 -2.15277 -0.220204 0
M  V30 588 C 56.1717 -1.47284 3.05111 0
M  V30 589 C 54.7307 -1.98895 3.19559 0
M  V30 590 C 53.8777 -0.842575 2.64189 0
M  V30 591 H 56.8287 -0.0154422 1.58692 0
M  V30 592 H 56.8497 -2.34111 2.99954 0
M  V30 593 H 56.3617 -0.709053 3.81568 0
M  V30 594 H 54.4627 -2.78132 2.47938 0
M  V30 595 H 54.5757 -2.18143 4.26556 0
M  V30 596 H 52.9397 -1.24501 2.22197 0
M  V30 597 H 53.7227 -0.0917552 3.43177 0
M  V30 598 N 56.1678 -1.49265 -0.50573 0
M  V30 599 C 57.1308 -1.65075 -1.59006 0
M  V30 600 C 58.1308 -0.522768 -1.52065 0
M  V30 601 O 59.3208 -0.789117 -1.55302 0
M  V30 602 C 56.4528 -1.64369 -2.98656 0
M  V30 603 H 57.6458 -2.61784 -1.46319 0
M  V30 604 H 55.1988 -1.38226 -0.729616 0
M  V30 605 H 55.9338 -0.692272 -3.16825 0
M  V30 606 H 55.7188 -2.46282 -3.05103 0
M  V30 607 H 57.2088 -1.78674 -3.77446 0
M  V30 608 N 57.6459 0.756429 -1.3826 0
M  V30 609 C 58.5929 1.87011 -1.35261 0
M  V30 610 C 59.5629 1.64695 -0.215616 0
M  V30 611 O 60.7479 1.864 -0.407399 0
M  V30 612 C 57.8879 3.24275 -1.18068 0
M  V30 613 C 57.0009 3.58442 -2.41129 0
M  V30 614 C 56.1359 4.84994 -2.16689 0
M  V30 615 C 55.1749 5.11939 -3.35537 0
M  V30 616 N 54.3119 6.29685 -3.10549 0
M  V30 617 H 59.1519 1.8891 -2.30472 0
M  V30 618 H 56.6889 0.923373 -1.14509 0
M  V30 619 H 58.6469 4.03479 -1.06116 0
M  V30 620 H 57.2769 3.21711 -0.264973 0
M  V30 621 H 56.3289 2.74103 -2.63764 0
M  V30 622 H 57.6409 3.74283 -3.29717 0
M  V30 623 H 56.7949 5.72135 -2.01857 0
M  V30 624 H 55.5339 4.71286 -1.25462 0
M  V30 625 H 54.5389 4.23268 -3.50891 0
M  V30 626 H 55.7639 5.27546 -4.27635 0
M  V30 627 H 53.7099 6.17306 -2.21967 0
M  V30 628 H 53.6269 6.46014 -3.92686 0
M  V30 629 H 54.8949 7.19722 -2.99367 0
M  V30 630 N 59.124 1.23083 0.984299 0
M  V30 631 C 60.087 1.00979 2.05757 0
M  V30 632 C 61.087 -0.0269573 1.60777 0
M  V30 633 O 62.277 0.212403 1.729 0
M  V30 634 C 59.409 0.527072 3.36801 0
M  V30 635 H 60.602 1.9622 2.26799 0
M  V30 636 H 58.155 1.05072 1.15714 0
M  V30 637 H 58.89 -0.429294 3.21446 0
M  V30 638 H 58.675 1.27515 3.70786 0
M  V30 639 H 60.165 0.392942 4.15747 0
M  V30 640 N 60.6021 -1.18246 1.0419 0
M  V30 641 C 61.5491 -2.2192 0.634037 0
M  V30 642 C 62.5191 -1.62179 -0.358765 0
M  V30 643 O 63.7041 -1.89122 -0.252466 0
M  V30 644 C 60.8441 -3.451 0.00445535 0
M  V30 645 C 59.9571 -4.19174 1.04487 0
M  V30 646 C 59.0921 -5.29813 0.383676 0
M  V30 647 C 58.1311 -5.9566 1.4091 0
M  V30 648 N 57.2681 -6.97834 0.772784 0
M  V30 649 H 62.1081 -2.56164 1.52263 0
M  V30 650 H 59.6451 -1.25843 0.761701 0
M  V30 651 H 61.6031 -4.15485 -0.377919 0
M  V30 652 H 60.2331 -3.11472 -0.847652 0
M  V30 653 H 59.2851 -3.47604 1.54518 0
M  V30 654 H 60.5971 -4.64267 1.82368 0
M  V30 655 H 59.7511 -6.06677 -0.0528366 0
M  V30 656 H 58.4901 -4.85825 -0.427208 0
M  V30 657 H 57.4951 -5.17535 1.85574 0
M  V30 658 H 58.7201 -6.4173 2.22171 0
M  V30 659 H 56.6661 -6.55998 -0.0177708 0
M  V30 660 H 56.5831 -7.41186 1.48928 0
M  V30 661 H 57.8511 -7.78665 0.36071 0
M  V30 662 N 62.0802 -0.821533 -1.34494 0
M  V30 663 C 63.0122 -0.199946 -2.28326 0
M  V30 664 C 64.0252 0.609377 -1.50965 0
M  V30 665 O 65.2142 0.439285 -1.7301 0
M  V30 666 C 62.3142 0.738431 -3.30757 0
M  V30 667 C 61.4872 -0.0277632 -4.37391 0
M  V30 668 C 60.5462 0.831332 -5.19591 0
M  V30 669 O 59.5722 0.276822 -5.68526 0
M  V30 670 N 60.7742 2.15132 -5.39165 0
M  V30 671 H 63.5392 -1.00609 -2.82308 0
M  V30 672 H 61.1002 -0.678366 -1.47003 0
M  V30 673 H 63.0922 1.31773 -3.82646 0
M  V30 674 H 61.6622 1.44533 -2.7718 0
M  V30 675 H 60.8822 -0.788359 -3.86236 0
M  V30 676 H 62.1702 -0.555251 -5.05761 0
M  V30 677 H 61.5682 2.62559 -5.01078 0
M  V30 678 H 60.1252 2.6795 -5.94177 0
M  V30 679 N 63.5583 1.46682 -0.576371 0
M  V30 680 C 64.4883 2.33028 0.148397 0
M  V30 681 C 65.4693 1.44961 0.889956 0
M  V30 682 O 66.6543 1.73789 0.866662 0
M  V30 683 C 63.7843 3.27117 1.1667 0
M  V30 684 C 62.7383 4.24575 0.540386 0
M  V30 685 C 62.0643 5.08126 1.6647 0
M  V30 686 C 63.3643 5.19722 -0.518331 0
M  V30 687 H 65.0583 2.93875 -0.572509 0
M  V30 688 H 62.6043 1.41315 -0.276768 0
M  V30 689 H 64.5573 3.86374 1.68204 0
M  V30 690 H 63.2813 2.64364 1.9178 0
M  V30 691 H 61.9403 3.66571 0.0461769 0
M  V30 692 H 61.5883 4.41762 2.40531 0
M  V30 693 H 61.2883 5.74122 1.25131 0
M  V30 694 H 62.8123 5.70246 2.18293 0
M  V30 695 H 64.2263 5.73232 -0.0883058 0
M  V30 696 H 62.6233 5.94026 -0.851679 0
M  V30 697 H 63.6933 4.64037 -1.40703 0
M  V30 698 N 65.0364 0.313813 1.54444 0
M  V30 699 C 66.2644 -0.293918 2.04802 0
M  V30 700 C 66.6794 -1.46537 1.19047 0
M  V30 701 O 66.0364 -1.81182 0.218939 0
M  V30 702 C 66.0874 -0.737806 3.53891 0
M  V30 703 O 65.8084 0.387038 4.36387 0
M  V30 704 C 67.3094 -1.40936 4.203 0
M  V30 705 H 64.5294 -0.0620057 0.668129 0
M  V30 706 H 67.0734 0.457169 1.99324 0
M  V30 707 H 65.2284 -1.43889 3.59687 0
M  V30 708 H 65.6424 0.0391274 5.24485 0
M  V30 709 H 67.1164 -1.67099 5.26101 0
M  V30 710 H 67.5934 -2.35355 3.70816 0
M  V30 711 H 68.1994 -0.751117 4.18615 0
M  V30 712 N 66.5145 -1.57545 0.0417849 0
M  V30 713 C 67.4645 -2.07483 -0.945247 0
M  V30 714 C 68.4485 -0.977983 -1.27767 0
M  V30 715 O 69.6405 -1.24142 -1.26166 0
M  V30 716 C 66.7695 -2.61576 -2.22335 0
M  V30 717 C 65.8555 -3.78213 -1.91874 0
M  V30 718 N 66.2465 -4.88344 -1.31733 0
M  V30 719 C 64.5445 -3.8694 -2.21796 0
M  V30 720 C 65.2455 -5.69462 -1.1869 0
M  V30 721 N 64.2215 -5.16771 -1.68666 0
M  V30 722 H 68.0235 -2.90029 -0.475441 0
M  V30 723 H 65.5375 -1.61581 -0.162911 0
M  V30 724 H 67.5345 -2.95651 -2.93932 0
M  V30 725 H 66.1945 -1.80465 -2.69931 0
M  V30 726 H 67.2055 -5.08335 -0.990729 0
M  V30 727 H 63.8825 -3.16757 -2.71977 0
M  V30 728 H 65.2725 -6.68023 -0.720793 0
M  V30 729 N 67.9926 0.231505 -1.5589 0
M  V30 730 C 69.2416 0.955346 -1.7764 0
M  V30 731 C 69.5546 1.85893 -0.608546 0
M  V30 732 O 70.7606 2.62067 -0.70943 0
M  V30 733 C 69.2166 1.74886 -3.14552 0
M  V30 734 C 68.8246 0.891915 -4.39032 0
M  V30 735 C 70.5686 2.46452 -3.45633 0
M  V30 736 C 68.4756 1.68221 -5.66971 0
M  V30 737 H 67.4056 0.360446 -0.662265 0
M  V30 738 H 70.0566 0.209516 -1.823 0
M  V30 739 H 68.4386 2.53723 -3.04041 0
M  V30 740 H 69.6126 0.144793 -4.60572 0
M  V30 741 H 67.9276 0.288863 -4.15397 0
M  V30 742 H 70.5246 3.06061 -4.38441 0
M  V30 743 H 70.8676 3.18841 -2.67668 0
M  V30 744 H 71.4006 1.74613 -3.57428 0
M  V30 745 H 68.1396 1.00178 -6.478 0
M  V30 746 H 67.6596 2.4042 -5.49507 0
M  V30 747 H 69.3386 2.24544 -6.06786 0
M  V30 748 N 69.4707 1.49531 0.497807 0
M  V30 749 C 70.4187 1.66926 1.61983 0
M  V30 750 C 71.4127 0.535167 1.60724 0
M  V30 751 O 72.6187 0.714896 1.65195 0
M  V30 752 H 68.9937 0.526415 0.537021 0
M  V30 753 H 70.9647 2.61098 1.44465 0
M  V30 754 C 69.7137 1.75602 3.00099 0
M  V30 755 H 69.0367 2.62244 3.01775 0
M  V30 756 H 70.4767 1.91807 3.78135 0
M  V30 757 C 68.9357 0.501543 3.33146 0
M  V30 758 O 69.4657 -0.371342 3.9998 0
M  V30 759 N 67.6717 0.363531 2.88317 0
M  V30 760 H 67.2187 1.07485 2.34104 0
M  V30 761 H 67.1767 -0.474728 3.10795 0
M  V30 762 N 70.9488 -0.749086 1.3866 0
M  V30 763 C 72.1958 -1.50833 1.35114 0
M  V30 764 C 72.5238 -1.94415 -0.0574049 0
M  V30 765 O 71.7788 -1.66065 -1.03541 0
M  V30 766 C 72.0778 -2.7712 2.25697 0
M  V30 767 C 71.7438 -2.52477 3.73585 0
M  V30 768 C 70.4058 -2.45466 4.13884 0
M  V30 769 C 72.7578 -2.31066 4.67181 0
M  V30 770 C 70.0858 -2.15064 5.45861 0
M  V30 771 C 72.4378 -2.02183 5.9942 0
M  V30 772 C 71.1018 -1.93631 6.38798 0
M  V30 773 H 70.3718 -0.551936 0.494416 0
M  V30 774 H 73.0188 -0.860979 1.71054 0
M  V30 775 H 71.3238 -3.46528 1.82827 0
M  V30 776 H 73.0208 -3.35096 2.20254 0
M  V30 777 H 69.6108 -2.58807 3.41638 0
M  V30 778 H 73.7948 -2.35459 4.3689 0
M  V30 779 H 69.0508 -2.06954 5.75308 0
M  V30 780 H 73.2248 -1.8462 6.71482 0
M  V30 781 H 70.8518 -1.69839 7.40985 0
M  V30 782 N 72.4269 -1.23603 -0.977757 0
M  V30 783 C 73.6519 -1.09735 -1.75991 0
M  V30 784 C 74.0769 0.346858 -1.84874 0
M  V30 785 O 73.4349 1.25093 -1.3123 0
M  V30 786 C 73.4829 -1.73051 -3.16363 0
M  V30 787 O 72.5869 -0.994452 -4.0023 0
M  V30 788 H 71.9279 -0.384476 -0.541364 0
M  V30 789 H 74.4579 -1.6371 -1.2272 0
M  V30 790 H 74.4679 -1.78398 -3.66931 0
M  V30 791 H 73.1429 -2.78137 -3.09213 0
M  V30 792 H 71.7199 -1.01812 -3.58732 0
M  V30 793 N 73.905 1.17692 -1.04816 0
M  V30 794 C 75.152 1.87859 -0.75599 0
M  V30 795 C 75.48 1.80812 0.716752 0
M  V30 796 O 74.735 1.20819 1.53952 0
M  V30 797 C 75.034 3.37462 -1.17703 0
M  V30 798 C 74.7 3.64713 -2.65133 0
M  V30 799 C 73.362 3.71859 -3.05408 0
M  V30 800 C 75.714 3.76492 -3.60421 0
M  V30 801 C 73.042 3.88271 -4.39843 0
M  V30 802 C 75.394 3.94421 -4.94585 0
M  V30 803 C 74.058 3.99806 -5.3452 0
M  V30 804 H 73.328 0.687425 -0.276636 0
M  V30 805 H 75.975 1.39255 -1.31455 0
M  V30 806 H 74.28 3.88097 -0.537395 0
M  V30 807 H 75.977 3.90109 -0.928218 0
M  V30 808 H 72.567 3.59772 -2.32942 0
M  V30 809 H 76.751 3.70295 -3.30447 0
M  V30 810 H 72.007 3.90687 -4.70291 0
M  V30 811 H 76.181 4.02477 -5.68318 0
M  V30 812 H 73.808 4.12276 -6.38696 0
M  V30 813 N 75.3831 0.828654 1.34056 0
M  V30 814 C 76.3131 0.269443 2.3194 0
M  V30 815 C 77.2941 -0.617247 1.58506 0
M  V30 816 O 78.4791 -0.542931 1.86456 0
M  V30 817 C 75.6091 -0.564793 3.42677 0
M  V30 818 C 74.5631 0.225241 4.27407 0
M  V30 819 C 73.8891 -0.7321 5.29664 0
M  V30 820 C 75.1891 1.43663 5.02154 0
M  V30 821 H 76.8831 1.08728 2.7896 0
M  V30 822 H 74.4291 0.524283 1.34117 0
M  V30 823 H 76.3821 -0.966233 4.10173 0
M  V30 824 H 75.1061 -1.41574 2.9432 0
M  V30 825 H 73.7651 0.608117 3.61521 0
M  V30 826 H 73.4131 -1.57916 4.77568 0
M  V30 827 H 73.1131 -0.20767 5.87233 0
M  V30 828 H 74.6371 -1.13128 6.00029 0
M  V30 829 H 76.0511 1.1089 5.62473 0
M  V30 830 H 74.4481 1.89711 5.69324 0
M  V30 831 H 75.5181 2.21181 4.31517 0
M  V30 832 N 76.8612 -1.46375 0.584142 0
M  V30 833 C 78.1382 -1.956 0.0033388 0
M  V30 834 C 78.5182 -1.52679 -1.45782 0
M  V30 835 O 77.8662 -0.77816 -2.14842 0
M  V30 836 C 78.0762 -3.48551 0.176891 0
M  V30 837 C 79.4242 -4.24576 0.0454609 0
M  V30 838 O 80.4482 -3.56043 0.105801 0
M  V30 839 O 79.3072 -5.46427 -0.0890376 0
M  V30 840 H 76.4012 -0.825547 -0.0490066 0
M  V30 841 H 78.9472 -1.56652 0.65256 0
M  V30 842 H 77.7192 -3.72683 1.1926 0
M  V30 843 H 77.3422 -3.94332 -0.508695 0
M  V30 844 N 78.3393 -0.321999 -1.54275 0
M  V30 845 C 79.5883 0.281931 -1.9972 0
M  V30 846 C 79.9013 1.53369 -1.21397 0
M  V30 847 O 81.1073 2.21352 -1.57211 0
M  V30 848 C 79.5633 0.5529 -3.55628 0
M  V30 849 C 79.1713 -0.681721 -4.42783 0
M  V30 850 C 80.9153 1.11687 -4.09544 0
M  V30 851 C 78.8223 -0.382742 -5.9016 0
M  V30 852 H 77.7523 0.109124 -0.746062 0
M  V30 853 H 80.4033 -0.43398 -1.78294 0
M  V30 854 H 78.7853 1.32896 -3.73035 0
M  V30 855 H 79.9593 -1.45723 -4.37151 0
M  V30 856 H 78.2743 -1.1658 -3.99748 0
M  V30 857 H 80.8713 1.35515 -5.17242 0
M  V30 858 H 81.2143 2.06575 -3.61431 0
M  V30 859 H 81.7473 0.402032 -3.95763 0
M  V30 860 H 78.4863 -1.30076 -6.42464 0
M  V30 861 H 78.0063 0.355094 -5.98748 0
M  V30 862 H 79.6853 0.00800157 -6.47 0
M  V30 863 N 79.8174 1.5752 -0.0501392 0
M  V30 864 C 80.7654 2.12651 0.942459 0
M  V30 865 C 81.7594 1.05807 1.32292 0
M  V30 866 O 82.9654 1.24217 1.3027 0
M  V30 867 H 79.3404 0.679673 0.321789 0
M  V30 868 H 81.3114 2.94951 0.452356 0
M  V30 869 C 80.0604 2.68565 2.20836 0
M  V30 870 H 79.3834 3.50439 1.92439 0
M  V30 871 H 80.8234 3.10761 2.8845 0
M  V30 872 C 79.2824 1.62291 2.95234 0
M  V30 873 O 79.8124 1.03508 3.88135 0
M  V30 874 N 78.0184 1.33836 2.57946 0
M  V30 875 H 77.5654 1.81826 1.82475 0
M  V30 876 H 77.5234 0.629595 3.08032 0
M  V30 877 N 81.2955 -0.223234 1.56011 0
M  V30 878 C 82.5205 -0.968978 1.83373 0
M  V30 879 C 82.9455 -1.77227 0.630254 0
M  V30 880 O 82.3035 -1.76345 -0.420959 0
M  V30 881 C 82.3515 -1.86363 3.08709 0
M  V30 882 O 81.4555 -2.95873 2.87285 0
M  V30 883 H 80.7965 -0.274461 0.604622 0
M  V30 884 H 83.3265 -0.237056 2.03222 0
M  V30 885 H 83.3365 -2.27376 3.38768 0
M  V30 886 H 82.0115 -1.27319 3.95933 0
M  V30 887 H 80.5885 -2.58818 2.68454 0
M  V30 888 N 82.7736 -1.49793 -0.48987 0
M  V30 889 C 83.7216 -1.67783 -1.61095 0
M  V30 890 C 84.7156 -0.543683 -1.60438 0
M  V30 891 O 85.9216 -0.723647 -1.64813 0
M  V30 892 H 82.2966 -0.529255 -0.534222 0
M  V30 893 H 84.2676 -2.61861 -1.43078 0
M  V30 894 C 83.0166 -1.77191 -2.99164 0
M  V30 895 H 82.3396 -2.63841 -3.0038 0
M  V30 896 H 83.7796 -1.93809 -3.77113 0
M  V30 897 C 82.2386 -0.519203 -3.32875 0
M  V30 898 O 82.7686 0.350124 -4.00171 0
M  V30 899 N 80.9746 -0.378816 -2.8812 0
M  V30 900 H 80.5216 -1.08725 -2.33531 0
M  V30 901 H 80.4796 0.458239 -3.11043 0
M  V30 902 N 84.2517 0.741722 -1.39055 0
M  V30 903 C 85.1817 1.869 -1.39966 0
M  V30 904 C 86.1627 1.6804 -0.26392 0
M  V30 905 O 87.3477 1.88458 -0.468755 0
M  V30 906 C 84.4777 3.24572 -1.23574 0
M  V30 907 C 83.4317 3.58056 -2.34477 0
M  V30 908 C 82.7577 4.94593 -2.0318 0
M  V30 909 C 84.0577 3.61716 -3.76774 0
M  V30 910 H 85.7517 1.86395 -2.34302 0
M  V30 911 H 83.2977 0.895361 -1.1278 0
M  V30 912 H 85.2507 4.031 -1.22834 0
M  V30 913 H 83.9747 3.25587 -0.257045 0
M  V30 914 H 82.6337 2.81854 -2.34423 0
M  V30 915 H 82.2817 4.92181 -1.03765 0
M  V30 916 H 81.9817 5.17964 -2.77465 0
M  V30 917 H 83.5057 5.75486 -2.04079 0
M  V30 918 H 84.9197 4.30335 -3.78794 0
M  V30 919 H 83.3167 3.96603 -4.50362 0
M  V30 920 H 84.3867 2.61672 -4.08235 0
M  V30 921 N 85.7298 1.2412 0.971189 0
M  V30 922 C 86.6398 1.04747 2.09917 0
M  V30 923 C 87.6558 -0.0107162 1.73997 0
M  V30 924 O 88.8318 0.186714 2.00533 0
M  V30 925 C 85.8968 0.650828 3.40537 0
M  V30 926 C 84.9578 1.7851 3.90426 0
M  V30 927 C 84.1908 1.40729 5.14812 0
M  V30 928 O 84.4138 0.29557 5.69634 0
M  V30 929 O 83.3478 2.23168 5.58999 0
M  V30 930 H 87.1738 1.99304 2.29154 0
M  V30 931 H 84.7588 1.02908 1.08307 0
M  V30 932 H 86.6408 0.440992 4.19086 0
M  V30 933 H 85.3158 -0.265649 3.22608 0
M  V30 934 H 84.2228 2.04966 3.12953 0
M  V30 935 H 85.5558 2.68023 4.12825 0
M  V30 936 N 87.2079 -1.17134 1.05439 0
M  V30 937 C 88.4479 -1.89137 0.77502 0
M  V30 938 C 88.8119 -1.79345 -0.685526 0
M  V30 939 O 90.0129 -2.46188 -1.0791 0
M  V30 940 C 88.2839 -3.35003 1.2453 0
M  V30 941 S 89.8429 -4.24952 1.09367 0
M  V30 942 H 86.6609 -0.652949 0.281387 0
M  V30 943 H 89.2629 -1.4145 1.34953 0
M  V30 944 H 87.9669 -3.39666 2.30338 0
M  V30 945 H 87.4979 -3.87736 0.665166 0
M  V30 946 H 89.5129 -4.96196 0.0193397 0
M  V30 947 N 88.686 -0.835752 -1.33615 0
M  V30 948 C 89.649 -0.272 -2.2758 0
M  V30 949 C 90.649 0.557487 -1.50827 0
M  V30 950 O 91.839 0.37173 -1.70188 0
M  V30 951 C 88.971 0.617173 -3.35267 0
M  V30 952 H 90.164 -1.10111 -2.78954 0
M  V30 953 H 87.717 -0.608594 -1.43965 0
M  V30 954 H 88.452 1.46884 -2.89129 0
M  V30 955 H 88.237 0.0237066 -3.92093 0
M  V30 956 H 89.727 1.005 -4.05326 0
M  V30 957 N 90.1641 1.46063 -0.591896 0
M  V30 958 C 91.4101 2.03203 -0.0894879 0
M  V30 959 C 91.7651 1.45407 1.25994 0
M  V30 960 O 91.0581 0.61326 1.8152 0
M  V30 961 C 91.2521 3.57391 0.0249813 0
M  V30 962 C 91.0811 4.30142 -1.3118 0
M  V30 963 C 89.8511 4.68688 -1.88838 0
M  V30 964 C 92.0491 4.63098 -2.23708 0
M  V30 965 N 90.0311 5.26228 -3.1616 0
M  V30 966 C 91.4021 5.21305 -3.3562 0
M  V30 967 C 93.4571 4.45031 -2.23274 0
M  V30 968 C 92.1601 5.63351 -4.47245 0
M  V30 969 C 94.1861 4.881 -3.33935 0
M  V30 970 C 93.5481 5.46386 -4.44569 0
M  V30 971 H 89.6471 0.778323 -0.0757431 0
M  V30 972 H 92.2311 1.78094 -0.78681 0
M  V30 973 H 90.4021 3.82195 0.69149 0
M  V30 974 H 92.1341 4.0118 0.532613 0
M  V30 975 H 88.8891 4.5174 -1.42223 0
M  V30 976 H 89.3131 5.59512 -3.8115 0
M  V30 977 H 93.9551 3.99295 -1.39008 0
M  V30 978 H 91.6731 6.08061 -5.32247 0
M  V30 979 H 95.2591 4.75866 -3.34728 0
M  V30 980 H 94.1391 5.79102 -5.28782 0
M  V30 981 N 91.6422 0.330177 1.54103 0
M  V30 982 C 92.9192 -0.325007 1.92881 0
M  V30 983 C 93.2992 -1.6934 1.26045 0
M  V30 984 O 92.6472 -2.24855 0.406526 0
M  V30 985 C 92.8572 -0.410634 3.46576 0
M  V30 986 C 94.2052 -0.667801 4.19316 0
M  V30 987 O 95.2292 -0.49329 3.52768 0
M  V30 988 O 94.0882 -1.00491 5.37181 0
M  V30 989 H 91.1822 -0.186873 0.80561 0
M  V30 990 H 93.7282 0.380376 1.65382 0
M  V30 991 H 92.5002 0.550164 3.87413 0
M  V30 992 H 92.1232 -1.16333 3.802 0
M  V30 993 N 93.1203 -1.57491 0.0584922 0
M  V30 994 C 94.5313 -1.80526 -0.476138 0
M  V30 995 C 94.8823 -0.971334 -1.70469 0
M  V30 996 O 94.0073 -0.190012 -2.15564 0
M  V30 997 C 94.6023 -3.27424 -0.870587 0
M  V30 998 C 93.1613 -3.51351 -1.35015 0
M  V30 999 C 92.3083 -2.75343 -0.32887 0
M  V30 1000 H 95.2593 -1.56133 0.284312 0
M  V30 1001 H 95.2803 -3.38745 -1.73299 0
M  V30 1002 H 94.7923 -3.88093 0.0237627 0
M  V30 1003 H 92.8933 -2.95971 -2.26345 0
M  V30 1004 H 93.0063 -4.60059 -1.33726 0
M  V30 1005 H 91.3703 -2.417 -0.803321 0
M  V30 1006 H 92.1533 -3.38743 0.557521 0
M  V30 1007 N 94.5984 0.214957 -1.56127 0
M  V30 1008 C 95.5614 1.24997 -1.92116 0
M  V30 1009 C 96.5614 1.39467 -0.800344 0
M  V30 1010 O 97.7514 1.37619 -1.06802 0
M  V30 1011 C 94.8834 2.62271 -2.17777 0
M  V30 1012 H 96.0764 0.942875 -2.84693 0
M  V30 1013 H 93.6294 0.455654 -1.49511 0
M  V30 1014 H 94.3644 2.98068 -1.27773 0
M  V30 1015 H 94.1494 2.53143 -2.99434 0
M  V30 1016 H 95.6394 3.36946 -2.46693 0
M  V30 1017 N 96.0765 1.50051 0.48192 0
M  V30 1018 C 97.3045 1.64237 1.25832 0
M  V30 1019 C 97.7195 0.321336 1.86045 0
M  V30 1020 O 97.0765 -0.695478 1.68729 0
M  V30 1021 C 97.1275 2.72548 2.37487 0
M  V30 1022 O 96.8485 3.99529 1.79745 0
M  V30 1023 C 98.3495 2.9761 3.28547 0
M  V30 1024 H 95.5695 0.55237 0.380957 0
M  V30 1025 H 98.1135 1.96207 0.576467 0
M  V30 1026 H 96.2685 2.43303 3.01467 0
M  V30 1027 H 96.6825 4.59342 2.5319 0
M  V30 1028 H 98.1565 3.77084 4.03127 0
M  V30 1029 H 98.6335 2.0826 3.86684 0
M  V30 1030 H 99.2395 3.28345 2.70314 0
M  V30 1031 N 97.5546 -0.734337 1.39446 0
M  V30 1032 C 98.5026 -1.86971 1.38364 0
M  V30 1033 C 99.4966 -1.67288 0.266687 0
M  V30 1034 O 100.703 -1.74621 0.436755 0
M  V30 1035 H 97.0776 -0.615474 0.432082 0
M  V30 1036 H 99.0486 -1.85 2.34132 0
M  V30 1037 C 97.7976 -3.2466 1.24465 0
M  V30 1038 H 97.1206 -3.40402 2.09682 0
M  V30 1039 H 98.5606 -4.04292 1.27764 0
M  V30 1040 C 97.0196 -3.36867 -0.0468674 0
M  V30 1041 O 97.5496 -3.88618 -1.01681 0
M  V30 1042 N 95.7556 -2.90391 -0.110145 0
M  V30 1043 H 95.3026 -2.48466 0.679868 0
M  V30 1044 H 95.2606 -2.98939 -0.973799 0
M  V30 1045 N 99.0327 -1.24633 -0.964593 0
M  V30 1046 C 100.31 -0.995809 -1.68354 0
M  V30 1047 C 100.69 0.480964 -2.05548 0
M  V30 1048 O 100.038 1.45599 -1.76105 0
M  V30 1049 C 100.248 -1.92177 -2.91323 0
M  V30 1050 C 101.596 -2.19446 -3.63495 0
M  V30 1051 O 102.62 -1.89855 -3.01386 0
M  V30 1052 O 101.479 -2.69714 -4.75307 0
M  V30 1053 H 98.5727 -0.376854 -0.736146 0
M  V30 1054 H 101.119 -1.35745 -1.0184 0
M  V30 1055 H 99.8907 -2.91938 -2.60553 0
M  V30 1056 H 99.5137 -1.56349 -3.65569 0
M  V30 1057 N 100.511 1.16574 -1.06058 0
M  V30 1058 C 101.474 2.19085 -0.673392 0
M  V30 1059 C 102.474 1.5835 0.279648 0
M  V30 1060 O 103.664 1.74088 0.0623488 0
M  V30 1061 C 100.796 3.40899 0.00954234 0
M  V30 1062 H 101.989 2.54853 -1.58081 0
M  V30 1063 H 99.5418 1.30808 -0.855516 0
M  V30 1064 H 100.277 3.10684 0.929826 0
M  V30 1065 H 100.062 3.86233 -0.67573 0
M  V30 1066 H 101.552 4.1675 0.266245 0
M  V30 1067 N 101.989 0.842826 1.3317 0
M  V30 1068 C 102.936 0.276885 2.29133 0
M  V30 1069 C 103.906 -0.609527 1.54512 0
M  V30 1070 O 105.091 -0.546955 1.82792 0
M  V30 1071 C 102.231 -0.538707 3.40869 0
M  V30 1072 C 101.344 0.372169 4.30394 0
M  V30 1073 C 100.479 -0.454908 5.29249 0
M  V30 1074 C 99.5179 0.45411 6.10413 0
M  V30 1075 N 98.6549 -0.335075 7.013 0
M  V30 1076 H 103.495 1.10052 2.76934 0
M  V30 1077 H 101.032 0.554161 1.36262 0
M  V30 1078 H 102.99 -1.02709 4.0436 0
M  V30 1079 H 101.62 -1.32727 2.9425 0
M  V30 1080 H 100.672 0.97888 3.6759 0
M  V30 1081 H 101.984 1.0703 4.87182 0
M  V30 1082 H 101.138 -1.00695 5.98285 0
M  V30 1083 H 99.8769 -1.18646 4.73048 0
M  V30 1084 H 98.8819 1.01813 5.40291 0
M  V30 1085 H 100.107 1.18409 6.68697 0
M  V30 1086 H 98.0529 -1.04994 6.47543 0
M  V30 1087 H 97.9699 0.304262 7.55387 0
M  V30 1088 H 99.2379 -0.869224 7.74638 0
M  V30 1089 N 103.467 -1.45747 0.599634 0
M  V30 1090 C 104.43 -2.28917 -0.113835 0
M  V30 1091 C 105.43 -1.3933 -0.802729 0
M  V30 1092 O 106.62 -1.61534 -0.652103 0
M  V30 1093 C 103.752 -3.20152 -1.17114 0
M  V30 1094 H 104.945 -2.93478 0.617289 0
M  V30 1095 H 102.498 -1.52137 0.358327 0
M  V30 1096 H 103.233 -2.60374 -1.93329 0
M  V30 1097 H 103.018 -3.86133 -0.681468 0
M  V30 1098 H 104.508 -3.82708 -1.67105 0
M  V30 1099 N 104.945 -0.338344 -1.53925 0
M  V30 1100 C 106.361 0.0137736 -1.59594 0
M  V30 1101 C 106.561 1.49186 -1.35447 0
M  V30 1102 O 105.617 2.24987 -1.14616 0
M  V30 1103 C 106.93 -0.41773 -2.97784 0
M  V30 1104 C 108.478 -0.369633 -3.1081 0
M  V30 1105 C 108.953 -0.776524 -4.51369 0
M  V30 1106 N 110.444 -0.730506 -4.57403 0
M  V30 1107 C 111.179 -1.01736 -5.64303 0
M  V30 1108 N 110.675 -1.3721 -6.79077 0
M  V30 1109 N 112.468 -0.941942 -5.54151 0
M  V30 1110 H 104.619 -1.3012 -1.67876 0
M  V30 1111 H 106.882 -0.530082 -0.78595 0
M  V30 1112 H 106.588 -1.44811 -3.20504 0
M  V30 1113 H 106.462 0.209729 -3.76616 0
M  V30 1114 H 108.849 0.651568 -2.87817 0
M  V30 1115 H 108.93 -1.03223 -2.34049 0
M  V30 1116 H 108.574 -1.79571 -4.75096 0
M  V30 1117 H 108.504 -0.0914649 -5.26521 0
M  V30 1118 H 110.995 -0.468783 -3.74981 0
M  V30 1119 H 111.308 -1.57597 -7.5656 0
M  V30 1120 H 109.653 -1.4105 -6.80536 0
M  V30 1121 H 112.844 -0.664184 -4.63364 0
M  V30 1122 H 113.017 -1.16884 -6.37371 0
M  V30 1123 N 106.423 1.57458 -0.0668435 0
M  V30 1124 C 107.7 1.8469 0.644132 0
M  V30 1125 C 108.08 0.958343 1.88093 0
M  V30 1126 O 107.428 0.0233579 2.28488 0
M  V30 1127 C 107.638 3.34767 0.986509 0
M  V30 1128 C 108.986 4.02159 1.36212 0
M  V30 1129 O 110.01 3.39484 1.07839 0
M  V30 1130 O 108.869 5.12694 1.89227 0
M  V30 1131 H 105.963 0.762816 0.319437 0
M  V30 1132 H 108.509 1.6942 -0.0973986 0
M  V30 1133 H 107.281 3.91151 0.107883 0
M  V30 1134 H 106.904 3.55281 1.78497 0
M  V30 1135 N 107.901 -0.206675 1.56239 0
M  V30 1136 C 109.147 -0.930218 1.80208 0
M  V30 1137 C 109.48 -1.83387 0.638981 0
M  V30 1138 O 108.755 -1.91119 -0.361066 0
M  V30 1139 C 109.038 -1.75641 3.1436 0
M  V30 1140 C 108.891 -0.878257 4.41142 0
M  V30 1141 C 110.21 -2.73129 3.45092 0
M  V30 1142 H 107.329 -0.336742 0.655571 0
M  V30 1143 H 109.971 -0.198222 1.88963 0
M  V30 1144 H 108.121 -2.38048 3.07027 0
M  V30 1145 H 109.793 -0.269787 4.6051 0
M  V30 1146 H 108.036 -0.184385 4.33408 0
M  V30 1147 H 108.707 -1.49106 5.3148 0
M  V30 1148 H 111.183 -2.20856 3.52649 0
M  V30 1149 H 110.059 -3.28028 4.40101 0
M  V30 1150 H 110.32 -3.51606 2.68003 0
M  V30 1151 N 109.379 -1.50304 -0.473955 0
M  V30 1152 C 110.625 -1.61389 -1.22806 0
M  V30 1153 C 110.958 -0.311955 -1.91678 0
M  V30 1154 O 110.233 0.686384 -1.81986 0
M  V30 1155 C 110.516 -2.79219 -2.27396 0
M  V30 1156 C 110.369 -4.19286 -1.62848 0
M  V30 1157 C 111.688 -2.92614 -3.28732 0
M  V30 1158 H 108.807 -0.587399 -0.445119 0
M  V30 1159 H 111.449 -1.82681 -0.522265 0
M  V30 1160 H 109.599 -2.61195 -2.87592 0
M  V30 1161 H 111.271 -4.48892 -1.06271 0
M  V30 1162 H 109.514 -4.23677 -0.931693 0
M  V30 1163 H 110.185 -4.97655 -2.38838 0
M  V30 1164 H 112.661 -3.09105 -2.78556 0
M  V30 1165 H 111.537 -3.76688 -3.99246 0
M  V30 1166 H 111.798 -2.03107 -3.92683 0
M  V30 1167 N 110.857 0.726932 -1.39834 0
M  V30 1168 C 111.805 1.86235 -1.39353 0
M  V30 1169 C 112.799 1.67144 -0.275555 0
M  V30 1170 O 114.005 1.74387 -0.44601 0
M  V30 1171 H 110.38 0.613174 -0.43534 0
M  V30 1172 H 112.351 1.83756 -2.35109 0
M  V30 1173 C 111.1 3.23995 -1.26185 0
M  V30 1174 H 110.423 3.39285 -2.11484 0
M  V30 1175 H 111.863 4.03609 -1.29907 0
M  V30 1176 C 110.322 3.36888 0.0290018 0
M  V30 1177 O 110.852 3.89152 0.99619 0
M  V30 1178 N 109.058 2.90446 0.0947437 0
M  V30 1179 H 108.605 2.48102 -0.693035 0
M  V30 1180 H 108.563 2.99451 0.957932 0
M  V30 1181 N 112.336 1.25143 0.95797 0
M  V30 1182 C 113.752 1.01892 1.22842 0
M  V30 1183 C 113.952 -0.266311 1.99732 0
M  V30 1184 O 113.008 -0.979913 2.3271 0
M  V30 1185 C 114.321 2.24004 2.00606 0
M  V30 1186 C 115.869 2.28731 2.13662 0
M  V30 1187 C 116.344 3.5049 2.94823 0
M  V30 1188 N 117.835 3.50866 3.02403 0
M  V30 1189 C 118.57 4.4174 3.65586 0
M  V30 1190 N 118.066 5.42882 4.30408 0
M  V30 1191 N 119.859 4.29429 3.62694 0
M  V30 1192 H 112.01 2.07718 0.443493 0
M  V30 1193 H 114.273 0.912031 0.258657 0
M  V30 1194 H 113.979 3.17395 1.51503 0
M  V30 1195 H 113.853 2.26907 3.01319 0
M  V30 1196 H 116.24 1.35865 2.61963 0
M  V30 1197 H 116.321 2.29848 1.12265 0
M  V30 1198 H 115.965 4.43676 2.47213 0
M  V30 1199 H 115.895 3.46617 3.96439 0
M  V30 1200 H 118.386 2.777 2.56302 0
M  V30 1201 H 118.699 6.0844 4.76467 0
M  V30 1202 H 117.044 5.46758 4.29047 0
M  V30 1203 H 120.235 3.49643 3.11236 0
M  V30 1204 H 120.408 5.00448 4.1165 0
M  V30 1205 N 113.814 -1.1601 1.06675 0
M  V30 1206 C 114.744 -2.22688 0.702307 0
M  V30 1207 C 115.725 -1.67306 -0.307032 0
M  V30 1208 O 116.91 -1.93352 -0.181305 0
M  V30 1209 C 114.04 -3.47178 0.092038 0
M  V30 1210 C 112.994 -4.15477 1.02777 0
M  V30 1211 C 112.32 -5.33963 0.28061 0
M  V30 1212 C 113.62 -4.66019 2.35846 0
M  V30 1213 H 115.314 -2.53429 1.59419 0
M  V30 1214 H 112.86 -1.21813 0.767961 0
M  V30 1215 H 114.813 -4.21037 -0.174814 0
M  V30 1216 H 113.537 -3.15749 -0.834877 0
M  V30 1217 H 112.196 -3.43549 1.27944 0
M  V30 1218 H 111.844 -4.98788 -0.649545 0
M  V30 1219 H 111.544 -5.806 0.904258 0
M  V30 1220 H 113.068 -6.10596 0.021396 0
M  V30 1221 H 114.482 -5.3144 2.15045 0
M  V30 1222 H 112.879 -5.23293 2.93743 0
M  V30 1223 H 113.949 -3.82023 2.98641 0
M  V30 1224 N 115.292 -0.849877 -1.32721 0
M  V30 1225 C 116.52 -0.464754 -2.01613 0
M  V30 1226 C 116.935 0.937191 -1.63897 0
M  V30 1227 O 116.292 1.61081 -0.857856 0
M  V30 1228 C 116.343 -0.588638 -3.56675 0
M  V30 1229 O 116.064 -1.93535 -3.93034 0
M  V30 1230 C 117.565 -0.2019 -4.4284 0
M  V30 1231 H 114.785 -0.183215 -0.645502 0
M  V30 1232 H 117.329 -1.1455 -1.69407 0
M  V30 1233 H 115.484 0.0443159 -3.87375 0
M  V30 1234 H 115.898 -1.92871 -4.87751 0
M  V30 1235 H 117.372 -0.339599 -5.50954 0
M  V30 1236 H 117.849 0.857224 -4.30753 0
M  V30 1237 H 118.455 -0.809733 -4.17521 0
M  V30 1238 N 116.77 1.45427 -0.607355 0
M  V30 1239 C 117.733 2.28974 0.101693 0
M  V30 1240 C 118.733 1.39754 0.795329 0
M  V30 1241 O 119.923 1.61878 0.643527 0
M  V30 1242 C 117.055 3.20768 1.15414 0
M  V30 1243 H 118.248 2.93147 -0.632844 0
M  V30 1244 H 115.801 1.51945 -0.366391 0
M  V30 1245 H 116.536 2.61395 1.91945 0
M  V30 1246 H 116.321 3.86489 0.66098 0
M  V30 1247 H 117.811 3.83589 1.65073 0
M  V30 1248 N 118.248 0.346503 1.53744 0
M  V30 1249 C 119.178 -0.501193 2.28058 0
M  V30 1250 C 120.159 -1.10014 1.29734 0
M  V30 1251 O 121.344 -1.12097 1.58581 0
M  V30 1252 C 118.474 -1.65078 3.05559 0
M  V30 1253 C 117.428 -1.18003 4.11411 0
M  V30 1254 C 116.754 -2.41837 4.76884 0
M  V30 1255 C 118.054 -0.278394 5.21558 0
M  V30 1256 H 119.748 0.11875 2.99164 0
M  V30 1257 H 117.294 0.0585531 1.43881 0
M  V30 1258 H 119.247 -2.25028 3.56287 0
M  V30 1259 H 117.971 -2.29767 2.32109 0
M  V30 1260 H 116.63 -0.603331 3.61601 0
M  V30 1261 H 116.278 -3.0494 4.00026 0
M  V30 1262 H 115.978 -2.1102 5.48402 0
M  V30 1263 H 117.502 -3.02508 5.30397 0
M  V30 1264 H 118.916 -0.784823 5.67903 0
M  V30 1265 H 117.313 -0.0619707 6.00068 0
M  V30 1266 H 118.383 0.684677 4.80042 0
M  V30 1267 N 119.726 -1.57421 0.075193 0
M  V30 1268 C 120.673 -2.12915 -0.890843 0
M  V30 1269 C 121.643 -1.04252 -1.29309 0
M  V30 1270 O 122.828 -1.31933 -1.37834 0
M  V30 1271 C 119.968 -2.69795 -2.15186 0
M  V30 1272 C 119.081 -3.92624 -1.80194 0
M  V30 1273 C 118.216 -4.37736 -3.00933 0
M  V30 1274 C 117.255 -5.53205 -2.61974 0
M  V30 1275 N 116.392 -5.9326 -3.75483 0
M  V30 1276 H 121.232 -2.95156 -0.410735 0
M  V30 1277 H 118.769 -1.45854 -0.191086 0
M  V30 1278 H 120.727 -3.00883 -2.89008 0
M  V30 1279 H 119.357 -1.90313 -2.60731 0
M  V30 1280 H 118.409 -3.67977 -0.964218 0
M  V30 1281 H 119.721 -4.76482 -1.47534 0
M  V30 1282 H 118.875 -4.70503 -3.8303 0
M  V30 1283 H 117.614 -3.52739 -3.36789 0
M  V30 1284 H 116.619 -5.20086 -1.783 0
M  V30 1285 H 117.844 -6.39936 -2.27284 0
M  V30 1286 H 115.79 -5.11212 -4.11094 0
M  V30 1287 H 115.707 -6.71865 -3.46602 0
M  V30 1288 H 116.975 -6.30651 -4.58148 0
M  V30 1289 N 121.204 0.198386 -1.56346 0
M  V30 1290 C 122.167 1.22952 -1.93431 0
M  V30 1291 C 123.167 1.38611 -0.815092 0
M  V30 1292 O 124.357 1.36479 -1.08255 0
M  V30 1293 C 121.489 2.59946 -2.20546 0
M  V30 1294 H 122.682 0.912626 -2.85677 0
M  V30 1295 H 120.235 0.43977 -1.49986 0
M  V30 1296 H 120.97 2.96696 -1.30927 0
M  V30 1297 H 120.755 2.49953 -3.02102 0
M  V30 1298 H 122.245 3.3431 -2.50253 0
M  V30 1299 N 122.682 1.50554 0.465978 0
M  V30 1300 C 123.632 1.66177 1.56106 0
M  V30 1301 C 124.616 0.516265 1.52393 0
M  V30 1302 O 125.808 0.770906 1.5933 0
M  V30 1303 C 122.937 1.76396 2.94515 0
M  V30 1304 C 122.023 2.9664 3.03093 0
M  V30 1305 N 122.414 4.20245 2.81474 0
M  V30 1306 C 120.712 2.95304 3.34233 0
M  V30 1307 C 121.413 5.01259 2.95151 0
M  V30 1308 N 120.389 4.35318 3.25576 0
M  V30 1309 H 124.191 2.59434 1.38099 0
M  V30 1310 H 121.705 1.47808 0.6728 0
M  V30 1311 H 123.702 1.85694 3.73261 0
M  V30 1312 H 122.362 0.843017 3.13565 0
M  V30 1313 H 123.373 4.4966 2.56956 0
M  V30 1314 H 120.05 2.12729 3.59239 0
M  V30 1315 H 121.44 6.09564 2.82632 0
M  V30 1316 N 124.16 -0.719506 1.40217 0
M  V30 1317 C 125.108 -1.85493 1.40339 0
M  V30 1318 C 126.102 -1.66995 0.284415 0
M  V30 1319 O 127.308 -1.74148 0.455252 0
M  V30 1320 H 123.683 -0.610857 0.438586 0
M  V30 1321 H 125.654 -1.82506 2.36081 0
M  V30 1322 C 124.403 -3.23321 1.27901 0
M  V30 1323 H 123.726 -3.38159 2.1328 0
M  V30 1324 H 125.166 -4.02914 1.32045 0
M  V30 1325 C 123.625 -3.36898 -0.0111355 0
M  V30 1326 O 124.155 -3.89674 -0.975538 0
M  V30 1327 N 122.361 -2.90492 -0.0793393 0
M  V30 1328 H 121.908 -2.47731 0.706183 0
M  V30 1329 H 121.866 -2.99955 -0.942038 0
M  V30 1330 N 125.638 -1.25649 -0.95132 0
M  V30 1331 C 127.049 -1.09654 -1.51106 0
M  V30 1332 C 127.4 0.326615 -1.93462 0
M  V30 1333 O 126.525 1.21697 -1.78938 0
M  V30 1334 C 127.12 -1.98437 -2.74605 0
M  V30 1335 C 125.679 -1.86618 -3.2688 0
M  V30 1336 C 124.826 -1.9239 -1.99703 0
M  V30 1337 H 127.777 -1.38887 -0.767865 0
M  V30 1338 H 127.798 -1.5263 -3.48546 0
M  V30 1339 H 127.31 -3.02009 -2.43746 0
M  V30 1340 H 125.411 -0.859421 -3.62553 0
M  V30 1341 H 125.524 -2.71607 -3.94673 0
M  V30 1342 H 123.888 -1.36317 -2.15151 0
M  V30 1343 H 124.671 -2.97573 -1.71188 0
M  V30 1344 N 127.117 1.15442 -1.07289 0
M  V30 1345 C 128.342 1.90638 -0.816828 0
M  V30 1346 C 128.767 1.77445 0.624083 0
M  V30 1347 O 128.125 1.10671 1.43602 0
M  V30 1348 C 128.173 3.39008 -1.22906 0
M  V30 1349 O 127.277 4.10701 -0.373975 0
M  V30 1350 H 126.618 0.593555 -0.297638 0
M  V30 1351 H 129.148 1.46198 -1.43134 0
M  V30 1352 H 129.158 3.89801 -1.20497 0
M  V30 1353 H 127.833 3.47929 -2.27856 0
M  V30 1354 H 126.41 3.70046 -0.460499 0
M  V30 1355 N 128.595 0.856903 1.32268 0
M  V30 1356 C 129.525 0.31858 2.31316 0
M  V30 1357 C 130.506 -0.583487 1.59779 0
M  V30 1358 O 131.691 -0.503259 1.87566 0
M  V30 1359 C 128.821 -0.491979 3.43798 0
M  V30 1360 C 127.775 0.315849 4.26833 0
M  V30 1361 C 127.101 -0.619586 5.31098 0
M  V30 1362 C 128.401 1.54282 4.98993 0
M  V30 1363 H 130.095 1.14621 2.76591 0
M  V30 1364 H 127.641 0.552613 1.32974 0
M  V30 1365 H 129.594 -0.879012 4.1213 0
M  V30 1366 H 128.318 -1.35299 2.97257 0
M  V30 1367 H 126.977 0.684664 3.6015 0
M  V30 1368 H 126.625 -1.47751 4.8081 0
M  V30 1369 H 126.325 -0.0830621 5.87541 0
M  V30 1370 H 127.849 -1.00375 6.02293 0
M  V30 1371 H 129.263 1.22796 5.59995 0
M  V30 1372 H 127.66 2.01745 5.65172 0
M  V30 1373 H 128.73 2.30285 4.26728 0
M  V30 1374 N 130.073 -1.45103 0.615059 0
M  V30 1375 C 131.489 -1.57137 0.279322 0
M  V30 1376 C 131.689 -1.60523 -1.21797 0
M  V30 1377 O 130.745 -1.53956 -2.00134 0
M  V30 1378 C 132.058 -2.85062 0.957083 0
M  V30 1379 C 133.606 -2.98749 0.933706 0
M  V30 1380 C 134.081 -4.29455 1.59162 0
M  V30 1381 N 135.572 -4.36231 1.55746 0
M  V30 1382 C 136.307 -5.36051 2.0356 0
M  V30 1383 N 135.803 -6.42367 2.59494 0
M  V30 1384 N 137.596 -5.27456 1.94284 0
M  V30 1385 H 129.747 -1.41148 1.58717 0
M  V30 1386 H 132.01 -0.675331 0.665306 0
M  V30 1387 H 131.716 -2.88488 2.01166 0
M  V30 1388 H 131.59 -3.7407 0.48494 0
M  V30 1389 H 133.977 -2.94886 -0.112347 0
M  V30 1390 H 134.058 -2.11132 1.44419 0
M  V30 1391 H 133.702 -4.34077 2.63704 0
M  V30 1392 H 133.632 -5.15901 1.0561 0
M  V30 1393 H 136.123 -3.60011 1.14893 0
M  V30 1394 H 136.436 -7.14793 2.93752 0
M  V30 1395 H 134.781 -6.43097 2.63537 0
M  V30 1396 H 137.972 -4.43308 1.5032 0
M  V30 1397 H 138.145 -6.05099 2.3186 0
M  V30 1398 N 131.551 -0.354651 -1.53558 0
M  V30 1399 C 132.8 0.239504 -2.00273 0
M  V30 1400 C 133.113 1.50759 -1.24623 0
M  V30 1401 O 134.319 2.17968 -1.61871 0
M  V30 1402 C 132.775 0.477341 -3.5672 0
M  V30 1403 C 132.383 -0.775488 -4.41237 0
M  V30 1404 C 134.127 1.02975 -4.11821 0
M  V30 1405 C 132.034 -0.507838 -5.89216 0
M  V30 1406 H 130.964 0.0932743 -0.748208 0
M  V30 1407 H 133.615 -0.471701 -1.77334 0
M  V30 1408 H 131.997 1.24953 -3.7577 0
M  V30 1409 H 133.171 -1.54963 -4.33962 0
M  V30 1410 H 131.486 -1.25033 -3.97185 0
M  V30 1411 H 134.083 1.24513 -5.2 0
M  V30 1412 H 134.426 1.98862 -3.65731 0
M  V30 1413 H 134.959 0.317994 -3.96527 0
M  V30 1414 H 131.698 -1.43674 -6.39561 0
M  V30 1415 H 131.218 0.228011 -5.99366 0
M  V30 1416 H 132.897 -0.129238 -6.46871 0
M  V30 1417 N 133.029 1.57378 -0.0835403 0
M  V30 1418 C 133.962 2.09016 0.915833 0
M  V30 1419 C 134.94 0.997993 1.2837 0
M  V30 1420 O 136.124 1.27219 1.39096 0
M  V30 1421 C 133.251 2.55757 2.22049 0
M  V30 1422 C 132.297 3.76522 2.00333 0
M  V30 1423 S 133.13 5.20661 1.25191 0
M  V30 1424 C 134.286 5.70743 2.56912 0
M  V30 1425 H 134.519 2.93457 0.476492 0
M  V30 1426 H 132.052 1.53856 0.129493 0
M  V30 1427 H 134.01 2.83346 2.97027 0
M  V30 1428 H 132.671 1.71564 2.63106 0
M  V30 1429 H 131.864 4.07256 2.96916 0
M  V30 1430 H 131.466 3.49367 1.33488 0
M  V30 1431 H 133.758 5.78304 3.52946 0
M  V30 1432 H 134.701 6.6944 2.30772 0
M  V30 1433 H 135.109 4.98616 2.64655 0
M  V30 1434 N 134.507 -0.190092 1.56449 0
M  V30 1435 C 135.754 -0.909705 1.80916 0
M  V30 1436 C 136.082 -1.83047 0.657583 0
M  V30 1437 O 135.337 -1.92428 -0.356356 0
M  V30 1438 C 135.636 -1.75382 3.1141 0
M  V30 1439 C 135.302 -0.983606 4.40041 0
M  V30 1440 C 133.964 -0.770967 4.74984 0
M  V30 1441 C 136.316 -0.442024 5.19322 0
M  V30 1442 C 133.644 -0.0053448 5.867 0
M  V30 1443 C 135.996 0.310412 6.31838 0
M  V30 1444 C 134.66 0.534023 6.6536 0
M  V30 1445 H 133.93 -0.332885 0.662019 0
M  V30 1446 H 136.577 -0.175762 1.90692 0
M  V30 1447 H 134.882 -2.55659 2.96893 0
M  V30 1448 H 136.579 -2.31331 3.27547 0
M  V30 1449 H 133.169 -1.15936 4.12622 0
M  V30 1450 H 137.353 -0.593693 4.92736 0
M  V30 1451 H 132.609 0.177825 6.11141 0
M  V30 1452 H 136.783 0.737419 6.92485 0
M  V30 1453 H 134.41 1.12918 7.51767 0
M  V30 1454 N 135.985 -1.50799 -0.457987 0
M  V30 1455 C 137.21 -1.66496 -1.23668 0
M  V30 1456 C 137.635 -0.353288 -1.84752 0
M  V30 1457 O 136.993 0.684346 -1.67888 0
M  V30 1458 C 137.041 -2.76763 -2.3116 0
M  V30 1459 O 136.145 -2.38928 -3.36136 0
M  V30 1460 H 135.486 -0.555828 -0.363252 0
M  V30 1461 H 138.016 -1.9725 -0.543474 0
M  V30 1462 H 138.026 -3.00232 -2.76269 0
M  V30 1463 H 136.701 -3.71954 -1.86073 0
M  V30 1464 H 135.278 -2.25953 -2.96647 0
M  V30 1465 N 137.463 0.71206 -1.40597 0
M  V30 1466 C 138.712 1.46754 -1.38369 0
M  V30 1467 C 139.025 1.95598 0.0097839 0
M  V30 1468 O 140.231 2.71059 0.154677 0
M  V30 1469 C 138.687 2.65289 -2.43207 0
M  V30 1470 C 138.295 2.23301 -3.88382 0
M  V30 1471 C 140.039 3.43008 -2.50091 0
M  V30 1472 C 137.946 3.38696 -4.84808 0
M  V30 1473 H 136.876 0.55118 -0.514506 0
M  V30 1474 H 139.527 0.774616 -1.66349 0
M  V30 1475 H 137.909 3.36769 -2.08332 0
M  V30 1476 H 139.083 1.59218 -4.32419 0
M  V30 1477 H 137.398 1.58618 -3.85006 0
M  V30 1478 H 139.995 4.28881 -3.1932 0
M  V30 1479 H 140.338 3.87065 -1.53253 0
M  V30 1480 H 140.871 2.78574 -2.83974 0
M  V30 1481 H 137.61 2.99668 -5.82992 0
M  V30 1482 H 137.13 4.01683 -4.45433 0
M  V30 1483 H 138.809 4.04712 -5.04794 0
M  V30 1484 N 138.941 1.26152 0.944643 0
M  V30 1485 C 140.189 1.11271 1.6871 0
M  V30 1486 C 140.51 -0.345166 1.91921 0
M  V30 1487 O 139.78 -1.24387 1.51343 0
M  V30 1488 H 138.36 0.408783 0.625224 0
M  V30 1489 H 141.022 1.58427 1.1352 0
M  V30 1490 H 140.118 1.62879 2.66227 0
M  V30 1491 N 140.419 -1.14872 1.07899 0
M  V30 1492 C 141.667 -1.85422 0.803941 0
M  V30 1493 C 141.988 -1.83051 -0.67211 0
M  V30 1494 O 141.258 -1.27532 -1.48703 0
M  V30 1495 H 139.838 -0.686537 0.294408 0
M  V30 1496 H 142.5 -1.39226 1.3639 0
M  V30 1497 H 141.596 -2.90399 1.14346 0
M  V30 1498 N 141.898 -0.863906 -1.31812 0
M  V30 1499 C 143.144 -0.481841 -1.9761 0
M  V30 1500 C 143.499 0.954048 -1.6708 0
M  V30 1501 O 142.792 1.66182 -0.953624 0
M  V30 1502 C 142.986 -0.668547 -3.51091 0
M  V30 1503 C 142.815 -2.12103 -3.96538 0
M  V30 1504 C 141.585 -2.76141 -4.23171 0
M  V30 1505 C 143.783 -3.09265 -4.10925 0
M  V30 1506 N 141.765 -4.12205 -4.54929 0
M  V30 1507 C 143.136 -4.30341 -4.46326 0
M  V30 1508 C 145.191 -3.05337 -3.93286 0
M  V30 1509 C 143.894 -5.48 -4.65928 0
M  V30 1510 C 145.92 -4.22248 -4.14078 0
M  V30 1511 C 145.282 -5.42085 -4.49804 0
M  V30 1512 H 141.381 -0.225238 -0.74886 0
M  V30 1513 H 143.965 -1.11723 -1.59455 0
M  V30 1514 H 142.136 -0.0627898 -3.88349 0
M  V30 1515 H 143.868 -0.255467 -4.03893 0
M  V30 1516 H 140.623 -2.27125 -4.15585 0
M  V30 1517 H 141.047 -4.82416 -4.74978 0
M  V30 1518 H 145.689 -2.138 -3.64759 0
M  V30 1519 H 143.407 -6.40059 -4.93305 0
M  V30 1520 H 146.993 -4.20654 -4.01922 0
M  V30 1521 H 145.873 -6.31044 -4.65567 0
M  V30 1522 N 143.376 1.44774 -0.622745 0
M  V30 1523 C 144.606 2.06187 -0.130532 0
M  V30 1524 C 145.014 1.46547 1.19669 0
M  V30 1525 O 144.357 0.579636 1.74316 0
M  V30 1526 C 144.419 3.59437 0.0674983 0
M  V30 1527 C 144.083 4.41496 -1.18026 0
M  V30 1528 C 145.08 4.75512 -2.102 0
M  V30 1529 C 142.765 4.82007 -1.41333 0
M  V30 1530 C 144.759 5.48912 -3.23998 0
M  V30 1531 C 142.446 5.55157 -2.55429 0
M  V30 1532 C 143.444 5.88528 -3.46589 0
M  V30 1533 O 143.132 6.60191 -4.58697 0
M  V30 1534 H 142.864 0.672045 -0.0730162 0
M  V30 1535 H 145.418 1.86768 -0.854802 0
M  V30 1536 H 143.648 3.77314 0.846825 0
M  V30 1537 H 145.337 4.02642 0.513209 0
M  V30 1538 H 146.103 4.4476 -1.93425 0
M  V30 1539 H 141.982 4.55457 -0.712709 0
M  V30 1540 H 145.526 5.74877 -3.95174 0
M  V30 1541 H 141.423 5.85324 -2.72151 0
M  V30 1542 H 142.191 6.78654 -4.57571 0
M  V30 1543 N 144.854 0.36279 1.53368 0
M  V30 1544 C 146.084 -0.228281 2.05335 0
M  V30 1545 C 146.492 -1.43226 1.23625 0
M  V30 1546 O 145.835 -1.81717 0.269206 0
M  V30 1547 C 145.897 -0.688549 3.52845 0
M  V30 1548 C 145.561 0.398362 4.5526 0
M  V30 1549 C 146.558 1.24732 5.04716 0
M  V30 1550 C 144.243 0.557805 4.99193 0
M  V30 1551 C 146.237 2.2411 5.96702 0
M  V30 1552 C 143.924 1.55495 5.90986 0
M  V30 1553 C 144.922 2.39503 6.39631 0
M  V30 1554 O 144.61 3.37517 7.29615 0
M  V30 1555 H 144.342 -0.044395 0.674541 0
M  V30 1556 H 146.896 0.518668 1.98744 0
M  V30 1557 H 145.126 -1.48706 3.56964 0
M  V30 1558 H 146.815 -1.20231 3.87685 0
M  V30 1559 H 147.581 1.13532 4.71525 0
M  V30 1560 H 143.46 -0.0862959 4.60919 0
M  V30 1561 H 147.004 2.89718 6.34594 0
M  V30 1562 H 142.901 1.66744 6.23592 0
M  V30 1563 H 143.669 3.33213 7.47604 0
M  V30 1564 N 146.332 -1.57332 0.0918853 0
M  V30 1565 C 147.557 -1.98995 -0.584442 0
M  V30 1566 C 147.982 -0.970528 -1.61128 0
M  V30 1567 O 147.34 0.0613904 -1.81196 0
M  V30 1568 C 147.388 -3.39636 -1.21161 0
M  V30 1569 O 146.492 -3.40447 -2.32744 0
M  V30 1570 H 145.833 -0.647165 -0.148572 0
M  V30 1571 H 148.363 -2.03873 0.172347 0
M  V30 1572 H 148.373 -3.7726 -1.55367 0
M  V30 1573 H 147.048 -4.13356 -0.459313 0
M  V30 1574 H 145.625 -3.14614 -2.0018 0
M  V30 1575 N 147.81 0.181792 -1.56548 0
M  V30 1576 C 148.758 1.24461 -1.965 0
M  V30 1577 C 149.752 1.464 -0.852261 0
M  V30 1578 O 150.958 1.47103 -1.03733 0
M  V30 1579 H 147.333 0.418138 -0.625031 0
M  V30 1580 H 149.304 0.880714 -2.85107 0
M  V30 1581 C 148.053 2.57891 -2.33212 0
M  V30 1582 H 147.376 2.41829 -3.18369 0
M  V30 1583 H 148.816 3.3097 -2.65019 0
M  V30 1584 C 147.275 3.15871 -1.17163 0
M  V30 1585 O 147.805 3.9913 -0.453708 0
M  V30 1586 N 146.011 2.74808 -0.944936 0
M  V30 1587 H 145.558 2.07205 -1.53049 0
M  V30 1588 H 145.516 3.13939 -0.170286 0
M  V30 1589 N 149.288 1.51039 0.449983 0
M  V30 1590 C 150.565 1.53612 1.21089 0
M  V30 1591 C 150.945 0.292997 2.09057 0
M  V30 1592 O 150.293 -0.72259 2.16774 0
M  V30 1593 C 150.503 2.84337 2.0237 0
M  V30 1594 C 151.851 3.35807 2.59843 0
M  V30 1595 O 152.875 2.85802 2.12593 0
M  V30 1596 O 151.734 4.23029 3.45989 0
M  V30 1597 H 148.828 0.617057 0.550608 0
M  V30 1598 H 151.374 1.63344 0.460082 0
M  V30 1599 H 150.146 3.66278 1.37681 0
M  V30 1600 H 149.769 2.77708 2.84542 0
M  V30 1601 N 150.766 -0.704594 1.40972 0
M  V30 1602 C 151.696 -1.83124 1.44872 0
M  V30 1603 C 152.677 -1.67281 0.30838 0
M  V30 1604 O 153.862 -1.87149 0.518556 0
M  V30 1605 C 150.992 -3.21181 1.32136 0
M  V30 1606 C 149.946 -3.51714 2.43888 0
M  V30 1607 C 149.272 -4.89032 2.16222 0
M  V30 1608 C 150.572 -3.516 3.86232 0
M  V30 1609 H 152.266 -1.80117 2.39161 0
M  V30 1610 H 149.812 -0.865145 1.15114 0
M  V30 1611 H 151.765 -3.99702 1.33479 0
M  V30 1612 H 150.489 -3.24791 0.343279 0
M  V30 1613 H 149.148 -2.75539 2.41813 0
M  V30 1614 H 148.796 -4.89256 1.16778 0
M  V30 1615 H 148.496 -5.10426 2.911 0
M  V30 1616 H 150.02 -5.69873 2.19265 0
M  V30 1617 H 151.434 -4.2014 3.9007 0
M  V30 1618 H 149.831 -3.84523 4.60719 0
M  V30 1619 H 150.901 -2.50757 4.15029 0
M  V30 1620 N 152.244 -1.26651 -0.937939 0
M  V30 1621 C 153.492 -1.12165 -1.68118 0
M  V30 1622 C 153.813 0.334983 -1.92101 0
M  V30 1623 O 153.083 1.23583 -1.52 0
M  V30 1624 H 151.663 -0.412093 -0.623048 0
M  V30 1625 H 154.325 -1.59027 -1.12678 0
M  V30 1626 H 153.421 -1.64289 -2.6536 0
M  V30 1627 N 153.722 1.14298 -1.08507 0
M  V30 1628 C 154.968 1.85633 -0.816581 0
M  V30 1629 C 155.301 1.82784 0.656021 0
M  V30 1630 O 154.576 1.25926 1.48233 0
M  V30 1631 C 154.859 3.34223 -1.34041 0
M  V30 1632 C 154.712 3.45639 -2.87843 0
M  V30 1633 C 156.031 4.29356 -0.9665 0
M  V30 1634 H 153.15 0.67402 -0.298104 0
M  V30 1635 H 155.792 1.34214 -1.34487 0
M  V30 1636 H 153.942 3.78144 -0.89104 0
M  V30 1637 H 155.614 3.10498 -3.41158 0
M  V30 1638 H 153.857 2.86817 -3.25451 0
M  V30 1639 H 154.528 4.50089 -3.19569 0
M  V30 1640 H 157.004 3.93457 -1.35391 0
M  V30 1641 H 155.88 5.3178 -1.3602 0
M  V30 1642 H 156.141 4.41919 0.126362 0
M  V30 1643 N 155.201 0.870884 1.31352 0
M  V30 1644 C 156.426 0.495957 2.01383 0
M  V30 1645 C 156.851 -0.904324 1.64935 0
M  V30 1646 O 156.209 -1.59687 0.858466 0
M  V30 1647 C 156.257 0.661433 3.54482 0
M  V30 1648 O 155.361 -0.298851 4.11316 0
M  V30 1649 H 154.702 0.197158 0.634054 0
M  V30 1650 H 157.232 1.17455 1.67527 0
M  V30 1651 H 157.242 0.555072 4.04207 0
M  V30 1652 H 155.917 1.68246 3.8035 0
M  V30 1653 H 154.494 -0.147368 3.72609 0
M  V30 1654 N 156.679 -1.44442 0.630414 0
M  V30 1655 C 157.629 -2.27794 -0.0968103 0
M  V30 1656 C 158.613 -1.38624 -0.816834 0
M  V30 1657 O 159.805 -1.62438 -0.70306 0
M  V30 1658 C 156.934 -3.25929 -1.07819 0
M  V30 1659 C 156.02 -4.22588 -0.357826 0
M  V30 1660 N 156.411 -5.0207 0.613169 0
M  V30 1661 C 154.709 -4.41914 -0.602365 0
M  V30 1662 C 155.41 -5.72351 1.03871 0
M  V30 1663 N 154.386 -5.42287 0.377642 0
M  V30 1664 H 158.188 -2.86653 0.648621 0
M  V30 1665 H 155.702 -1.55871 0.455862 0
M  V30 1666 H 157.699 -3.84399 -1.61378 0
M  V30 1667 H 156.359 -2.68631 -1.82393 0
M  V30 1668 H 157.37 -5.08331 0.990947 0
M  V30 1669 H 154.047 -3.95714 -1.33103 0
M  V30 1670 H 155.437 -6.4619 1.84086 0
M  V30 1671 N 158.157 -0.370918 -1.53173 0
M  V30 1672 C 159.12 0.460778 -2.24521 0
M  V30 1673 C 160.12 1.00536 -1.25496 0
M  V30 1674 O 161.31 0.890266 -1.49733 0
M  V30 1675 C 158.442 1.64457 -2.98608 0
M  V30 1676 H 159.635 -0.163613 -2.99453 0
M  V30 1677 H 157.188 -0.122699 -1.55818 0
M  V30 1678 H 157.923 2.30691 -2.2793 0
M  V30 1679 H 157.708 1.26099 -3.7127 0
M  V30 1680 H 159.198 2.23384 -3.5283 0
M  V30 1681 N 159.635 1.57281 -0.100228 0
M  V30 1682 C 160.583 2.15542 0.874328 0
M  V30 1683 C 161.577 1.09962 1.28859 0
M  V30 1684 O 162.783 1.28298 1.26252 0
M  V30 1685 H 159.158 0.689567 0.300003 0
M  V30 1686 H 161.129 2.96241 0.35829 0
M  V30 1687 C 159.878 2.75454 2.1218 0
M  V30 1688 H 159.201 3.56384 1.81193 0
M  V30 1689 H 160.641 3.19781 2.78417 0
M  V30 1690 C 159.1 1.71602 2.89921 0
M  V30 1691 O 159.63 1.15804 3.84646 0
M  V30 1692 N 157.836 1.41975 2.53558 0
M  V30 1693 H 157.383 1.87539 1.76598 0
M  V30 1694 H 157.341 0.727274 3.05873 0
M  V30 1695 N 161.113 -0.173488 1.56642 0
M  V30 1696 C 162.343 -0.904781 1.85734 0
M  V30 1697 C 162.751 -1.76431 0.68328 0
M  V30 1698 O 162.094 -1.802 -0.356865 0
M  V30 1699 C 162.156 -1.83382 3.09211 0
M  V30 1700 C 161.82 -1.15411 4.42187 0
M  V30 1701 C 162.817 -0.520609 5.17287 0
M  V30 1702 C 160.502 -1.15151 4.88923 0
M  V30 1703 C 162.496 0.106412 6.37311 0
M  V30 1704 C 160.183 -0.520664 6.08878 0
M  V30 1705 C 161.181 0.107196 6.82916 0
M  V30 1706 O 160.869 0.728102 8.00596 0
M  V30 1707 H 160.601 -0.268408 0.62043 0
M  V30 1708 H 163.155 -0.179096 2.04618 0
M  V30 1709 H 161.385 -2.59976 2.86268 0
M  V30 1710 H 163.074 -2.43476 3.24768 0
M  V30 1711 H 163.84 -0.514606 4.82262 0
M  V30 1712 H 159.719 -1.62961 4.31236 0
M  V30 1713 H 163.263 0.597081 6.9504 0
M  V30 1714 H 159.16 -0.524242 6.43368 0
M  V30 1715 H 159.928 0.627138 8.16094 0
M  V30 1716 N 162.591 -1.51276 -0.441967 0
M  V30 1717 C 163.837 -1.63958 -1.19355 0
M  V30 1718 C 164.17 -0.352543 -1.90973 0
M  V30 1719 O 163.445 0.647627 -1.83401 0
M  V30 1720 C 163.728 -2.83979 -2.21422 0
M  V30 1721 C 163.581 -4.22646 -1.53918 0
M  V30 1722 C 164.9 -2.99521 -3.22451 0
M  V30 1723 H 162.019 -0.596709 -0.432559 0
M  V30 1724 H 164.661 -1.83748 -0.483398 0
M  V30 1725 H 162.811 -2.67237 -2.81987 0
M  V30 1726 H 164.483 -4.51045 -0.967256 0
M  V30 1727 H 162.726 -4.25558 -0.841615 0
M  V30 1728 H 163.397 -5.02609 -2.28229 0
M  V30 1729 H 165.873 -3.14944 -2.71937 0
M  V30 1730 H 164.749 -3.85072 -3.91166 0
M  V30 1731 H 165.01 -2.11391 -3.88287 0
M  V30 1732 N 164.069 0.697108 -1.41344 0
M  V30 1733 C 165.017 1.83237 -1.43272 0
M  V30 1734 C 166.011 1.66522 -0.310947 0
M  V30 1735 O 167.217 1.73402 -0.482899 0
M  V30 1736 H 163.592 0.603802 -0.448249 0
M  V30 1737 H 165.563 1.78727 -2.38954 0
M  V30 1738 C 164.312 3.21245 -1.33029 0
M  V30 1739 H 163.635 3.34723 -2.18633 0
M  V30 1740 H 165.075 4.00763 -1.38439 0
M  V30 1741 C 163.534 3.36873 -0.0424635 0
M  V30 1742 O 164.064 3.91177 0.913421 0
M  V30 1743 N 162.27 2.90581 0.0331145 0
M  V30 1744 H 161.817 2.46577 -0.745506 0
M  V30 1745 H 161.775 3.01416 0.894199 0
M  V30 1746 N 165.547 1.27147 0.931209 0
M  V30 1747 C 166.51 1.09615 2.01289 0
M  V30 1748 C 167.51 0.0412581 1.60747 0
M  V30 1749 O 168.7 0.285545 1.71844 0
M  V30 1750 C 165.832 0.669447 3.34262 0
M  V30 1751 H 167.025 2.05662 2.18273 0
M  V30 1752 H 164.578 1.09885 1.11153 0
M  V30 1753 H 165.313 -0.292572 3.22978 0
M  V30 1754 H 165.098 1.43127 3.65044 0
M  V30 1755 H 166.588 0.568921 4.13706 0
M  V30 1756 N 167.025 -1.13721 1.09112 0
M  V30 1757 C 168.271 -1.85198 0.826414 0
M  V30 1758 C 168.604 -1.83129 -0.646319 0
M  V30 1759 O 167.879 -1.2671 -1.47563 0
M  V30 1760 C 168.162 -3.33507 1.35812 0
M  V30 1761 C 168.015 -3.44108 2.89672 0
M  V30 1762 C 169.334 -4.28838 0.989256 0
M  V30 1763 H 166.453 -0.67243 0.301675 0
M  V30 1764 H 169.095 -1.33499 1.35197 0
M  V30 1765 H 167.245 -3.77666 0.911082 0
M  V30 1766 H 168.917 -3.08684 3.428 0
M  V30 1767 H 167.16 -2.85087 3.26967 0
M  V30 1768 H 167.831 -4.48388 3.21951 0
M  V30 1769 H 170.307 -3.92734 1.37475 0
M  V30 1770 H 169.183 -5.31051 1.38838 0
M  V30 1771 H 169.444 -4.4198 -0.102924 0
M  V30 1772 N 168.503 -0.877838 -1.30888 0
M  V30 1773 C 169.45 -0.337538 -2.28318 0
M  V30 1774 C 170.42 0.568346 -1.56074 0
M  V30 1775 O 171.605 0.498298 -1.84178 0
M  V30 1776 C 168.745 0.448142 -3.42178 0
M  V30 1777 C 167.858 -0.48615 -4.29256 0
M  V30 1778 C 166.993 0.314427 -5.30269 0
M  V30 1779 C 166.032 -0.615791 -6.08995 0
M  V30 1780 N 165.169 0.14902 -7.01942 0
M  V30 1781 H 170.009 -1.17356 -2.73919 0
M  V30 1782 H 167.546 -0.590094 -1.34745 0
M  V30 1783 H 169.504 0.919517 -4.06941 0
M  V30 1784 H 168.134 1.24879 -2.97666 0
M  V30 1785 H 167.186 -1.076 -3.64865 0
M  V30 1786 H 168.498 -1.19909 -4.84173 0
M  V30 1787 H 167.652 0.847969 -6.00745 0
M  V30 1788 H 166.391 1.06062 -4.76027 0
M  V30 1789 H 165.396 -1.16102 -5.37401 0
M  V30 1790 H 166.621 -1.36097 -6.65323 0
M  V30 1791 H 164.567 0.877884 -6.50099 0
M  V30 1792 H 164.484 -0.504433 -7.54315 0
M  V30 1793 H 165.752 0.663537 -7.76671 0
M  V30 1794 N 169.982 1.44106 -0.638065 0
M  V30 1795 C 171.21 2.06336 -0.152615 0
M  V30 1796 C 171.625 1.47731 1.17563 0
M  V30 1797 O 170.982 0.602806 1.72257 0
M  V30 1798 C 171.033 3.61479 -0.0391491 0
M  V30 1799 O 170.754 4.17903 -1.31487 0
M  V30 1800 C 172.255 4.40757 0.474176 0
M  V30 1801 H 169.475 0.665862 -0.0828776 0
M  V30 1802 H 172.019 1.84862 -0.87443 0
M  V30 1803 H 170.174 3.82191 0.633142 0
M  V30 1804 H 170.588 5.11416 -1.16421 0
M  V30 1805 H 172.062 5.49707 0.502562 0
M  V30 1806 H 172.539 4.12697 1.50258 0
M  V30 1807 H 173.145 4.24979 -0.165102 0
M  V30 1808 N 171.46 0.379036 1.52974 0
M  V30 1809 C 172.871 -0.0972525 1.86447 0
M  V30 1810 C 173.222 -1.47027 1.29914 0
M  V30 1811 O 172.347 -2.07135 0.626433 0
M  V30 1812 C 172.942 -0.183248 3.38304 0
M  V30 1813 C 171.501 -0.603812 3.71525 0
M  V30 1814 C 170.648 0.240632 2.76254 0
M  V30 1815 H 173.599 0.597316 1.4703 0
M  V30 1816 H 173.62 -1.00432 3.67006 0
M  V30 1817 H 173.132 0.816191 3.79421 0
M  V30 1818 H 171.233 -1.61099 3.35973 0
M  V30 1819 H 171.346 -0.369086 4.77676 0
M  V30 1820 H 169.71 -0.292548 2.53014 0
M  V30 1821 H 170.493 1.23786 3.20206 0
M  V30 1822 N 172.938 -1.57226 0.108567 0
M  V30 1823 C 173.901 -2.13602 -0.831082 0
M  V30 1824 C 174.901 -1.06841 -1.20173 0
M  V30 1825 O 176.091 -1.32666 -1.12895 0
M  V30 1826 C 173.223 -2.66769 -2.12243 0
M  V30 1827 H 174.416 -2.97951 -0.341317 0
M  V30 1828 H 171.969 -1.55667 -0.14057 0
M  V30 1829 H 172.704 -1.85977 -2.65675 0
M  V30 1830 H 172.489 -3.44839 -1.86625 0
M  V30 1831 H 173.979 -3.10332 -2.79435 0
M  V30 1832 N 174.416 0.165178 -1.56732 0
M  V30 1833 C 175.379 1.18822 -1.95995 0
M  V30 1834 C 176.379 1.3685 -0.84431 0
M  V30 1835 O 177.569 1.34152 -1.11126 0
M  V30 1836 C 174.701 2.5521 -2.26011 0
M  V30 1837 H 175.894 0.851825 -2.87548 0
M  V30 1838 H 173.447 0.407857 -1.50885 0
M  V30 1839 H 174.182 2.93852 -1.37191 0
M  V30 1840 H 173.967 2.43489 -3.07336 0
M  V30 1841 H 175.457 3.28927 -2.57288 0
M  V30 1842 N 175.894 1.51508 0.433938 0
M  V30 1843 C 177.31 1.39759 0.770682 0
M  V30 1844 C 177.51 0.482594 1.95636 0
M  V30 1845 O 176.566 -0.0609691 2.52426 0
M  V30 1846 C 177.879 2.81851 1.04787 0
M  V30 1847 C 179.427 2.91025 1.1521 0
M  V30 1848 C 179.902 4.34032 1.46219 0
M  V30 1849 N 181.393 4.37154 1.53136 0
M  V30 1850 C 182.128 5.4484 1.78709 0
M  V30 1851 N 181.624 6.62682 2.02051 0
M  V30 1852 N 183.417 5.32324 1.80519 0
M  V30 1853 H 175.568 2.09548 -0.346892 0
M  V30 1854 H 177.831 0.943446 -0.0928074 0
M  V30 1855 H 177.537 3.50815 0.249304 0
M  V30 1856 H 177.411 3.21386 1.97461 0
M  V30 1857 H 179.798 2.22257 1.94128 0
M  V30 1858 H 179.879 2.54983 0.204281 0
M  V30 1859 H 179.523 5.03351 0.678274 0
M  V30 1860 H 179.453 4.6759 2.42212 0
M  V30 1861 H 181.944 3.52197 1.36987 0
M  V30 1862 H 182.257 7.40543 2.20943 0
M  V30 1863 H 180.602 6.65791 1.99366 0
M  V30 1864 H 183.793 4.39246 1.61805 0
M  V30 1865 H 183.966 6.16328 2.00111 0
M  V30 1866 N 177.372 -0.689602 1.41712 0
M  V30 1867 C 178.6 -1.47827 1.44758 0
M  V30 1868 C 179.015 -1.88721 0.0545703 0
M  V30 1869 O 178.372 -1.57176 -0.927463 0
M  V30 1870 C 178.423 -2.73698 2.3616 0
M  V30 1871 O 178.144 -2.34524 3.7004 0
M  V30 1872 C 179.645 -3.67389 2.48072 0
M  V30 1873 H 176.865 -0.455357 0.49284 0
M  V30 1874 H 179.409 -0.848574 1.86063 0
M  V30 1875 H 177.564 -3.32891 1.98148 0
M  V30 1876 H 177.978 -3.15701 4.18847 0
M  V30 1877 H 179.452 -4.52475 3.16181 0
M  V30 1878 H 179.929 -4.12284 1.51388 0
M  V30 1879 H 180.535 -3.14097 2.86746 0
M  V30 1880 N 178.85 -1.27639 -0.924453 0
M  V30 1881 C 179.797 -1.10644 -2.0255 0
M  V30 1882 C 180.767 -0.00658438 -1.66099 0
M  V30 1883 O 181.952 -0.16952 -1.90045 0
M  V30 1884 C 179.092 -0.76309 -3.36557 0
M  V30 1885 C 178.205 -1.94091 -3.85944 0
M  V30 1886 C 177.34 -1.53914 -5.08413 0
M  V30 1887 C 176.379 -2.68425 -5.50104 0
M  V30 1888 N 175.516 -2.28815 -6.63768 0
M  V30 1889 H 180.356 -2.04858 -2.16419 0
M  V30 1890 H 177.893 -1.01974 -1.06017 0
M  V30 1891 H 179.851 -0.544822 -4.13627 0
M  V30 1892 H 178.481 0.142102 -3.22487 0
M  V30 1893 H 177.533 -2.27162 -3.05125 0
M  V30 1894 H 178.845 -2.7998 -4.12811 0
M  V30 1895 H 177.999 -1.28231 -5.92994 0
M  V30 1896 H 176.738 -0.651391 -4.8333 0
M  V30 1897 H 175.743 -2.94819 -4.64071 0
M  V30 1898 H 176.968 -3.57826 -5.7718 0
M  V30 1899 H 174.914 -1.42495 -6.40337 0
M  V30 1900 H 174.831 -3.08242 -6.90306 0
M  V30 1901 H 176.099 -2.06387 -7.51681 0
M  V30 1902 N 180.328 1.1314 -1.09713 0
M  V30 1903 C 181.575 1.84484 -0.834987 0
M  V30 1904 C 181.903 1.83689 0.639418 0
M  V30 1905 O 181.158 1.2724 1.4869 0
M  V30 1906 C 181.457 3.32167 -1.3191 0
M  V30 1907 C 181.123 3.53139 -2.80363 0
M  V30 1908 C 179.785 3.58571 -3.20905 0
M  V30 1909 C 182.137 3.60866 -3.76065 0
M  V30 1910 C 179.465 3.69267 -4.55916 0
M  V30 1911 C 181.817 3.73089 -5.10869 0
M  V30 1912 C 180.481 3.76775 -5.50996 0
M  V30 1913 H 179.751 0.675073 -0.305544 0
M  V30 1914 H 182.398 1.33554 -1.37243 0
M  V30 1915 H 180.703 3.85469 -0.701517 0
M  V30 1916 H 182.4 3.85821 -1.09284 0
M  V30 1917 H 178.99 3.49569 -2.47991 0
M  V30 1918 H 183.174 3.55946 -3.45855 0
M  V30 1919 H 178.43 3.70388 -4.86438 0
M  V30 1920 H 182.604 3.78011 -5.84877 0
M  V30 1921 H 180.231 3.84815 -6.55608 0
M  V30 1922 N 181.806 0.884767 1.30421 0
M  V30 1923 C 182.769 0.356277 2.26414 0
M  V30 1924 C 183.769 -0.501124 1.52792 0
M  V30 1925 O 184.959 -0.30831 1.7145 0
M  V30 1926 C 182.091 -0.492316 3.37326 0
M  V30 1927 H 183.284 1.20389 2.74675 0
M  V30 1928 H 180.837 0.661607 1.41607 0
M  V30 1929 H 181.572 -1.36052 2.94381 0
M  V30 1930 H 181.357 0.121832 3.91911 0
M  V30 1931 H 182.847 -0.853871 4.08777 0
M  V30 1932 N 183.284 -1.43765 0.645699 0
M  V30 1933 C 184.216 -2.29027 -0.0890605 0
M  V30 1934 C 185.229 -1.42093 -0.794563 0
M  V30 1935 O 186.418 -1.66104 -0.653575 0
M  V30 1936 C 183.518 -3.18831 -1.14891 0
M  V30 1937 C 182.691 -4.34261 -0.523043 0
M  V30 1938 C 181.75 -5.04994 -1.47878 0
M  V30 1939 O 180.776 -5.6052 -0.990277 0
M  V30 1940 N 181.978 -5.07795 -2.81291 0
M  V30 1941 H 184.743 -2.92727 0.64272 0
M  V30 1942 H 182.304 -1.54373 0.487924 0
M  V30 1943 H 184.296 -3.63015 -1.78892 0
M  V30 1944 H 182.866 -2.56782 -1.78275 0
M  V30 1945 H 182.086 -3.93088 0.295896 0
M  V30 1946 H 183.374 -5.08728 -0.0858147 0
M  V30 1947 H 182.772 -4.64042 -3.23546 0
M  V30 1948 H 181.329 -5.55721 -3.40614 0
M  V30 1949 N 184.763 -0.387143 -1.52771 0
M  V30 1950 C 185.988 0.198407 -2.06449 0
M  V30 1951 C 186.413 1.39918 -1.25716 0
M  V30 1952 O 185.771 1.79099 -0.281657 0
M  V30 1953 C 185.819 0.548893 -3.56398 0
M  V30 1954 O 184.923 1.64315 -3.78252 0
M  V30 1955 H 184.264 0.0237731 -0.663574 0
M  V30 1956 H 186.794 -0.553989 -1.96957 0
M  V30 1957 H 186.804 0.813812 -3.99801 0
M  V30 1958 H 185.479 -0.329005 -4.14597 0
M  V30 1959 H 184.056 1.37211 -3.46738 0
M  V30 1960 N 186.241 1.57166 -0.116904 0
M  V30 1961 C 187.481 1.97008 0.544715 0
M  V30 1962 C 187.845 0.998713 1.63981 0
M  V30 1963 O 189.046 1.28644 2.36018 0
M  V30 1964 C 187.317 3.41145 1.06559 0
M  V30 1965 S 188.876 4.02998 1.73603 0
M  V30 1966 H 185.694 0.688587 0.177112 0
M  V30 1967 H 188.296 1.94459 -0.201487 0
M  V30 1968 H 187 4.09592 0.257374 0
M  V30 1969 H 186.531 3.4734 1.84712 0
M  V30 1970 H 188.546 3.93585 3.02168 0
M  V30 1971 N 187.719 -0.156864 1.56817 0
M  V30 1972 C 188.965 -0.872416 1.83076 0
M  V30 1973 C 189.298 -1.81261 0.697001 0
M  V30 1974 O 188.573 -1.92171 -0.30008 0
M  V30 1975 C 188.856 -1.65551 3.19789 0
M  V30 1976 C 188.709 -0.737467 4.43713 0
M  V30 1977 C 190.028 -2.62012 3.53606 0
M  V30 1978 H 187.147 -0.315715 0.665953 0
M  V30 1979 H 189.789 -0.138004 1.89498 0
M  V30 1980 H 187.939 -2.28159 3.14445 0
M  V30 1981 H 189.611 -0.123143 4.61136 0
M  V30 1982 H 187.854 -0.0464067 4.33775 0
M  V30 1983 H 188.525 -1.32122 5.35955 0
M  V30 1984 H 191.001 -2.09525 3.59497 0
M  V30 1985 H 189.877 -3.13861 4.50314 0
M  V30 1986 H 190.138 -3.42902 2.79053 0
M  V30 1987 N 189.197 -1.51736 -0.425897 0
M  V30 1988 C 190.613 -1.40166 -0.76326 0
M  V30 1989 C 190.813 -0.492962 -1.95377 0
M  V30 1990 O 189.869 0.0475815 -2.52455 0
M  V30 1991 C 191.182 -2.82403 -1.03291 0
M  V30 1992 C 192.73 -2.91632 -1.13665 0
M  V30 1993 C 193.205 -4.34801 -1.43916 0
M  V30 1994 N 194.696 -4.3796 -1.50816 0
M  V30 1995 C 195.431 -5.4578 -1.75817 0
M  V30 1996 N 194.927 -6.63744 -1.98534 0
M  V30 1997 N 196.72 -5.33274 -1.77694 0
M  V30 1998 H 188.871 -2.09361 0.358 0
M  V30 1999 H 191.134 -0.942941 0.0978094 0
M  V30 2000 H 190.84 -3.50943 -0.230696 0
M  V30 2001 H 190.714 -3.22428 -1.95754 0
M  V30 2002 H 193.101 -2.23284 -1.92947 0
M  V30 2003 H 193.182 -2.55088 -0.190756 0
M  V30 2004 H 192.826 -5.03703 -0.65157 0
M  V30 2005 H 192.756 -4.68868 -2.39729 0
M  V30 2006 H 195.247 -3.52919 -1.35118 0
M  V30 2007 H 195.56 -7.41704 -2.17013 0
M  V30 2008 H 193.905 -6.66839 -1.95832 0
M  V30 2009 H 197.096 -4.40098 -1.59473 0
M  V30 2010 H 197.269 -6.1738 -1.9684 0
M  V30 2011 N 190.675 0.682077 -1.42076 0
M  V30 2012 C 191.924 1.43786 -1.41451 0
M  V30 2013 C 192.237 1.95574 -0.0317074 0
M  V30 2014 O 193.443 2.71326 0.0971462 0
M  V30 2015 C 191.899 2.60071 -2.48779 0
M  V30 2016 C 191.507 2.15013 -3.93031 0
M  V30 2017 C 193.251 3.37626 -2.57311 0
M  V30 2018 C 191.158 3.28336 -4.91883 0
M  V30 2019 H 190.088 0.540143 -0.526082 0
M  V30 2020 H 192.739 0.739157 -1.67955 0
M  V30 2021 H 191.121 3.32275 -2.15429 0
M  V30 2022 H 192.295 1.5001 -4.35699 0
M  V30 2023 H 190.61 1.50416 -3.88284 0
M  V30 2024 H 193.207 4.22012 -3.28345 0
M  V30 2025 H 193.55 3.83727 -1.61429 0
M  V30 2026 H 194.083 2.72488 -2.89819 0
M  V30 2027 H 190.822 2.87234 -5.89217 0
M  V30 2028 H 190.342 3.92145 -4.53853 0
M  V30 2029 H 192.021 3.93913 -5.13265 0
M  V30 2030 N 192.153 1.28127 0.917671 0
M  V30 2031 C 193.086 1.06039 2.02067 0
M  V30 2032 C 194.064 -0.0223285 1.62585 0
M  V30 2033 O 195.248 0.124823 1.88086 0
M  V30 2034 C 192.375 0.610596 3.33151 0
M  V30 2035 C 191.421 1.68937 3.91615 0
M  V30 2036 S 192.254 3.28437 4.22953 0
M  V30 2037 C 193.41 2.85283 5.57103 0
M  V30 2038 H 193.643 1.99425 2.20493 0
M  V30 2039 H 191.176 1.12071 1.06205 0
M  V30 2040 H 193.134 0.357778 4.08938 0
M  V30 2041 H 191.795 -0.303364 3.12632 0
M  V30 2042 H 190.988 1.32619 4.86239 0
M  V30 2043 H 190.59 1.89478 3.2245 0
M  V30 2044 H 192.882 2.3121 6.36827 0
M  V30 2045 H 193.825 3.7869 5.98331 0
M  V30 2046 H 194.233 2.24118 5.18104 0
M  V30 2047 N 193.631 -1.12557 1.10312 0
M  V30 2048 C 194.578 -2.18247 0.750781 0
M  V30 2049 C 195.548 -1.63853 -0.272293 0
M  V30 2050 O 196.733 -1.90195 -0.151862 0
M  V30 2051 C 193.873 -3.44591 0.187379 0
M  V30 2052 C 192.986 -4.13046 1.2656 0
M  V30 2053 C 192.121 -5.27034 0.663978 0
M  V30 2054 C 191.16 -5.87353 1.72287 0
M  V30 2055 N 190.297 -6.92757 1.1416 0
M  V30 2056 H 195.137 -2.47732 1.65628 0
M  V30 2057 H 192.674 -1.21629 0.827337 0
M  V30 2058 H 194.632 -4.16904 -0.157148 0
M  V30 2059 H 193.262 -3.15527 -0.681355 0
M  V30 2060 H 192.314 -3.38924 1.72727 0
M  V30 2061 H 193.626 -4.53947 2.06721 0
M  V30 2062 H 192.78 -6.06104 0.268824 0
M  V30 2063 H 191.519 -4.87407 -0.169082 0
M  V30 2064 H 190.524 -5.06971 2.12746 0
M  V30 2065 H 191.749 -6.29051 2.55875 0
M  V30 2066 H 189.695 -6.5517 0.329984 0
M  V30 2067 H 189.612 -7.3225 1.88007 0
M  V30 2068 H 190.88 -7.75658 0.772956 0
M  V30 2069 N 195.109 -0.891671 -1.2995 0
M  V30 2070 C 196.386 -0.433307 -1.9074 0
M  V30 2071 C 196.766 1.08646 -1.80995 0
M  V30 2072 O 196.114 1.92476 -1.23147 0
M  V30 2073 C 196.324 -0.938895 -3.36134 0
M  V30 2074 C 197.672 -0.977829 -4.13187 0
M  V30 2075 O 198.696 -0.886015 -3.45005 0
M  V30 2076 O 197.555 -1.11453 -5.35015 0
M  V30 2077 H 194.649 -0.133699 -0.816121 0
M  V30 2078 H 197.195 -0.981011 -1.38471 0
M  V30 2079 H 195.967 -1.98281 -3.37343 0
M  V30 2080 H 195.59 -0.37074 -3.95868 0
M  V30 2081 N 196.587 1.43421 -0.653314 0
M  V30 2082 C 197.817 2.05864 -0.174238 0
M  V30 2083 C 198.225 1.49052 1.16534 0
M  V30 2084 O 197.568 0.616481 1.73047 0
M  V30 2085 C 197.63 3.59499 -0.00875873 0
M  V30 2086 C 197.294 4.38893 -1.27364 0
M  V30 2087 C 198.291 4.70947 -2.20239 0
M  V30 2088 C 195.976 4.789 -1.51525 0
M  V30 2089 C 197.97 5.41916 -3.35568 0
M  V30 2090 C 195.657 5.49614 -2.67147 0
M  V30 2091 C 196.655 5.81044 -3.58994 0
M  V30 2092 O 196.343 6.50313 -4.72597 0
M  V30 2093 H 196.075 0.670345 -0.0872549 0
M  V30 2094 H 198.629 1.84913 -0.894226 0
M  V30 2095 H 196.859 3.79025 0.7666 0
M  V30 2096 H 198.548 4.0364 0.427687 0
M  V30 2097 H 199.314 4.40558 -2.02815 0
M  V30 2098 H 195.193 4.53843 -0.809158 0
M  V30 2099 H 198.737 5.66365 -4.07279 0
M  V30 2100 H 194.634 5.79419 -2.84505 0
M  V30 2101 H 195.402 6.68795 -4.71864 0
M  V30 2102 N 198.065 0.39524 1.52563 0
M  V30 2103 C 199.313 -0.184678 2.01254 0
M  V30 2104 C 199.634 -1.46822 1.28329 0
M  V30 2105 O 198.904 -1.91666 0.405094 0
M  V30 2106 H 197.484 -0.0712355 0.743596 0
M  V30 2107 H 200.146 0.528293 1.87603 0
M  V30 2108 H 199.242 -0.390681 3.09645 0
M  V30 2109 N 199.544 -1.57102 0.125237 0
M  V30 2110 C 200.791 -1.95407 -0.531248 0
M  V30 2111 C 201.119 -1.0089 -1.66287 0
M  V30 2112 O 200.374 -0.0339431 -1.95671 0
M  V30 2113 C 200.673 -3.40096 -1.09862 0
M  V30 2114 C 200.339 -4.50815 -0.0876989 0
M  V30 2115 C 199.001 -4.80824 0.19026 0
M  V30 2116 C 201.353 -5.17724 0.600902 0
M  V30 2117 C 198.681 -5.75058 1.163 0
M  V30 2118 C 201.033 -6.13005 1.56231 0
M  V30 2119 C 199.697 -6.41403 1.8482 0
M  V30 2120 H 198.967 -0.715046 -0.194397 0
M  V30 2121 H 201.614 -1.90373 0.207463 0
M  V30 2122 H 199.919 -3.41855 -1.91422 0
M  V30 2123 H 201.616 -3.6705 -1.61478 0
M  V30 2124 H 198.206 -4.27444 -0.314528 0
M  V30 2125 H 202.39 -4.94691 0.399333 0
M  V30 2126 H 197.646 -5.95362 1.39117 0
M  V30 2127 H 201.82 -6.63934 2.10153 0
M  V30 2128 H 199.447 -7.14229 2.60349 0
M  V30 2129 N 201.022 0.148545 -1.56898 0
M  V30 2130 C 202.299 0.890019 -1.74178 0
M  V30 2131 C 202.679 1.99407 -0.692839 0
M  V30 2132 O 202.027 2.26671 0.288505 0
M  V30 2133 C 202.237 1.43389 -3.18183 0
M  V30 2134 C 203.585 1.89791 -3.79822 0
M  V30 2135 O 204.609 1.53134 -3.21603 0
M  V30 2136 O 203.468 2.57387 -4.82093 0
M  V30 2137 H 200.562 0.420496 -0.712118 0
M  V30 2138 H 203.108 0.134591 -1.69165 0
M  V30 2139 H 201.88 0.640383 -3.86024 0
M  V30 2140 H 201.503 2.25287 -3.27615 0
M  V30 2141 N 202.5 1.5196 0.417844 0
M  V30 2142 C 203.748 1.65263 1.16329 0
M  V30 2143 C 204.069 0.380634 1.91249 0
M  V30 2144 O 203.339 -0.604214 1.86349 0
M  V30 2145 H 201.919 0.60912 0.432414 0
M  V30 2146 H 204.581 1.88969 0.477162 0
M  V30 2147 H 203.677 2.4896 1.88217 0
M  V30 2148 N 203.978 -0.674533 1.42435 0
M  V30 2149 C 205.224 -1.43671 1.43131 0
M  V30 2150 C 205.557 -1.94142 0.0476021 0
M  V30 2151 O 204.832 -1.70924 -0.928188 0
M  V30 2152 C 205.115 -2.63355 2.45594 0
M  V30 2153 C 204.968 -2.18514 3.93156 0
M  V30 2154 C 206.287 -3.65571 2.45043 0
M  V30 2155 H 203.406 -0.521077 0.521198 0
M  V30 2156 H 206.048 -0.766551 1.7385 0
M  V30 2157 H 204.198 -3.2053 2.19528 0
M  V30 2158 H 205.87 -1.66504 4.30202 0
M  V30 2159 H 204.113 -1.50086 4.07009 0
M  V30 2160 H 204.784 -3.04484 4.60428 0
M  V30 2161 H 207.26 -3.18113 2.68223 0
M  V30 2162 H 206.136 -4.46893 3.18713 0
M  V30 2163 H 206.397 -4.16716 1.47649 0
M  V30 2164 N 205.456 -1.28612 -0.910864 0
M  V30 2165 C 206.733 -1.06632 -1.63979 0
M  V30 2166 C 207.113 0.393351 -2.07403 0
M  V30 2167 O 206.461 1.37999 -1.82122 0
M  V30 2168 C 206.671 -2.0436 -2.8291 0
M  V30 2169 C 208.019 -2.34666 -3.5386 0
M  V30 2170 O 209.043 -2.02467 -2.93062 0
M  V30 2171 O 207.902 -2.89631 -4.63439 0
M  V30 2172 H 204.996 -0.407737 -0.7195 0
M  V30 2173 H 207.542 -1.39942 -0.959914 0
M  V30 2174 H 206.314 -3.02727 -2.47936 0
M  V30 2175 H 205.937 -1.71714 -3.58609 0
M  V30 2176 N 206.934 1.1197 -1.10907 0
M  V30 2177 C 208.183 1.82947 -0.849302 0
M  V30 2178 C 208.496 1.85275 0.627112 0
M  V30 2179 O 209.702 2.52296 1.00295 0
M  V30 2180 C 208.158 3.28529 -1.46959 0
M  V30 2181 C 207.766 3.34546 -2.97965 0
M  V30 2182 C 209.51 4.04443 -1.28942 0
M  V30 2183 C 207.417 4.74491 -3.53004 0
M  V30 2184 H 206.347 0.685477 -0.314065 0
M  V30 2185 H 208.998 1.2604 -1.33365 0
M  V30 2186 H 207.38 3.85333 -0.912917 0
M  V30 2187 H 208.554 2.87654 -3.59989 0
M  V30 2188 H 206.869 2.72108 -3.15192 0
M  V30 2189 H 209.466 5.07787 -1.67502 0
M  V30 2190 H 209.809 4.15656 -0.231456 0
M  V30 2191 H 210.342 3.5401 -1.81443 0
M  V30 2192 H 207.081 4.68474 -4.58489 0
M  V30 2193 H 206.601 5.21816 -2.9575 0
M  V30 2194 H 208.28 5.4344 -3.51115 0
M  V30 2195 N 208.412 0.89855 1.29475 0
M  V30 2196 C 209.689 0.443416 1.90508 0
M  V30 2197 C 210.069 -1.07685 1.81569 0
M  V30 2198 O 209.417 -1.9182 1.24166 0
M  V30 2199 C 209.627 0.956708 3.35631 0
M  V30 2200 C 210.975 0.999728 4.12663 0
M  V30 2201 O 211.999 0.904299 3.4453 0
M  V30 2202 O 210.858 1.14289 5.34416 0
M  V30 2203 H 207.952 0.138025 0.815401 0
M  V30 2204 H 210.498 0.98834 1.37949 0
M  V30 2205 H 209.27 2.00067 3.36287 0
M  V30 2206 H 208.893 0.391728 3.95666 0
M  V30 2207 N 209.89 -1.43072 0.660911 0
M  V30 2208 C 211.136 -2.02545 0.186337 0
M  V30 2209 C 211.491 -1.51253 -1.18913 0
M  V30 2210 O 210.784 -0.699167 -1.78388 0
M  V30 2211 C 210.978 -3.57103 0.145563 0
M  V30 2212 C 210.807 -4.23393 1.51554 0
M  V30 2213 C 209.577 -4.59144 2.10984 0
M  V30 2214 C 211.775 -4.51897 2.45548 0
M  V30 2215 N 209.757 -5.10545 3.40907 0
M  V30 2216 C 211.128 -5.04698 3.6011 0
M  V30 2217 C 213.183 -4.33872 2.44253 0
M  V30 2218 C 211.886 -5.41371 4.73613 0
M  V30 2219 C 213.912 -4.71612 3.56842 0
M  V30 2220 C 213.274 -5.24553 4.70131 0
M  V30 2221 H 209.373 -0.773823 0.112792 0
M  V30 2222 H 211.957 -1.74137 0.870885 0
M  V30 2223 H 210.128 -3.85059 -0.508353 0
M  V30 2224 H 211.86 -4.03264 -0.340598 0
M  V30 2225 H 208.615 -4.4444 1.63615 0
M  V30 2226 H 209.039 -5.40689 4.07411 0
M  V30 2227 H 213.681 -3.92208 1.579 0
M  V30 2228 H 211.399 -5.81975 5.60652 0
M  V30 2229 H 214.985 -4.59354 3.57051 0
M  V30 2230 H 213.865 -5.53213 5.5581 0
M  V30 2231 N 211.368 -0.403325 -1.52352 0
M  V30 2232 C 212.278 0.432009 -2.30588 0
M  V30 2233 C 213.294 1.05884 -1.38075 0
M  V30 2234 O 214.47 1.06161 -1.71148 0
M  V30 2235 C 211.535 1.53669 -3.10784 0
M  V30 2236 C 210.596 0.933525 -4.19027 0
M  V30 2237 C 209.829 1.98557 -4.9539 0
M  V30 2238 O 210.052 3.20283 -4.71991 0
M  V30 2239 O 208.986 1.59504 -5.80381 0
M  V30 2240 H 212.812 -0.205739 -3.03002 0
M  V30 2241 H 210.397 -0.166675 -1.48467 0
M  V30 2242 H 212.279 2.17814 -3.60742 0
M  V30 2243 H 210.954 2.15915 -2.41169 0
M  V30 2244 H 209.861 0.254954 -3.7323 0
M  V30 2245 H 211.194 0.35508 -4.90918 0
M  V30 2246 N 212.846 1.57033 -0.133567 0
M  V30 2247 C 214.076 1.99754 0.527429 0
M  V30 2248 C 214.484 1.01245 1.59832 0
M  V30 2249 O 213.827 -0.000645496 1.837 0
M  V30 2250 C 213.889 3.38903 1.19939 0
M  V30 2251 C 213.553 4.56174 0.274709 0
M  V30 2252 C 214.55 5.17563 -0.492398 0
M  V30 2253 C 212.235 5.01972 0.18153 0
M  V30 2254 C 214.229 6.2315 -1.34027 0
M  V30 2255 C 211.916 6.07416 -0.669958 0
M  V30 2256 C 212.914 6.67874 -1.42947 0
M  V30 2257 O 212.602 7.71279 -2.2668 0
M  V30 2258 H 212.334 0.660702 0.142999 0
M  V30 2259 H 214.888 2.04207 -0.221099 0
M  V30 2260 H 213.118 3.31248 1.99528 0
M  V30 2261 H 214.807 3.65818 1.75875 0
M  V30 2262 H 215.573 4.83087 -0.430367 0
M  V30 2263 H 211.452 4.54652 0.762422 0
M  V30 2264 H 214.996 6.70268 -1.93357 0
M  V30 2265 H 210.893 6.41321 -0.73333 0
M  V30 2266 H 211.661 7.88441 -2.1978 0
M  V30 2267 N 214.325 -0.140222 1.56975 0
M  V30 2268 C 215.736 -0.699596 1.73097 0
M  V30 2269 C 216.087 -1.8134 0.749022 0
M  V30 2270 O 215.212 -2.16241 -0.0828503 0
M  V30 2271 C 215.807 -1.27582 3.1386 0
M  V30 2272 C 214.366 -1.78169 3.31561 0
M  V30 2273 C 213.513 -0.672855 2.69013 0
M  V30 2274 H 216.464 0.0855115 1.58469 0
M  V30 2275 H 216.485 -2.14561 3.14235 0
M  V30 2276 H 215.997 -0.464955 3.85305 0
M  V30 2277 H 214.098 -2.61801 2.65124 0
M  V30 2278 H 214.211 -1.90574 4.39566 0
M  V30 2279 H 212.575 -1.10118 2.29665 0
M  V30 2280 H 213.358 0.126679 3.43066 0
M  V30 2281 N 215.803 -1.52179 -0.40978 0
M  V30 2282 C 216.735 -1.71703 -1.51825 0
M  V30 2283 C 217.748 -0.597445 -1.51441 0
M  V30 2284 O 218.937 -0.872582 -1.55719 0
M  V30 2285 C 216.037 -1.74171 -2.90719 0
M  V30 2286 C 215.21 -3.03156 -3.15302 0
M  V30 2287 C 214.269 -2.97445 -4.34065 0
M  V30 2288 O 213.295 -3.71352 -4.31377 0
M  V30 2289 N 214.497 -2.15191 -5.39141 0
M  V30 2290 H 217.262 -2.67334 -1.35472 0
M  V30 2291 H 214.823 -1.50409 -0.599069 0
M  V30 2292 H 216.815 -1.67884 -3.68235 0
M  V30 2293 H 215.385 -0.860166 -3.00533 0
M  V30 2294 H 214.605 -3.23097 -2.25836 0
M  V30 2295 H 215.893 -3.88484 -3.28569 0
M  V30 2296 H 215.291 -1.54573 -5.44173 0
M  V30 2297 H 213.848 -2.1476 -6.15403 0
M  V30 2298 N 217.281 0.66697 -1.42791 0
M  V30 2299 C 218.244 1.76211 -1.46568 0
M  V30 2300 C 219.244 1.56896 -0.352196 0
M  V30 2301 O 220.434 1.63044 -0.613364 0
M  V30 2302 C 217.566 3.14935 -1.30494 0
M  V30 2303 H 218.759 1.74247 -2.44086 0
M  V30 2304 H 216.312 0.877342 -1.29354 0
M  V30 2305 H 217.047 3.2252 -0.339301 0
M  V30 2306 H 216.832 3.30359 -2.11199 0
M  V30 2307 H 218.322 3.94821 -1.36038 0
M  V30 2308 N 218.759 1.29093 0.90403 0
M  V30 2309 C 219.722 1.1386 1.98919 0
M  V30 2310 C 220.722 0.0753457 1.60623 0
M  V30 2311 O 221.912 0.321931 1.71199 0
M  V30 2312 C 219.044 0.740198 3.32767 0
M  V30 2313 H 220.237 2.10246 2.13861 0
M  V30 2314 H 217.79 1.12218 1.08797 0
M  V30 2315 H 218.525 -0.223997 3.23525 0
M  V30 2316 H 218.31 1.50838 3.61926 0
M  V30 2317 H 219.8 0.656546 4.12407 0
M  V30 2318 N 220.237 -1.11381 1.11499 0
M  V30 2319 C 221.147 -2.21019 0.786628 0
M  V30 2320 C 222.163 -1.72597 -0.220507 0
M  V30 2321 O 223.339 -2.01321 -0.0565251 0
M  V30 2322 C 220.404 -3.459 0.235333 0
M  V30 2323 C 219.465 -4.09107 1.30115 0
M  V30 2324 C 218.698 -5.28027 0.776068 0
M  V30 2325 O 218.921 -5.6904 -0.393661 0
M  V30 2326 O 217.855 -5.81835 1.54114 0
M  V30 2327 H 221.681 -2.51521 1.70209 0
M  V30 2328 H 219.266 -1.19928 0.890928 0
M  V30 2329 H 221.148 -4.21346 -0.067715 0
M  V30 2330 H 219.823 -3.17049 -0.652828 0
M  V30 2331 H 218.73 -3.35391 1.65722 0
M  V30 2332 H 220.063 -4.42139 2.16273 0
M  V30 2333 N 221.715 -0.905404 -1.28997 0
M  V30 2334 C 222.961 -0.535039 -1.95615 0
M  V30 2335 C 223.294 0.917404 -1.71165 0
M  V30 2336 O 222.569 1.65123 -1.02785 0
M  V30 2337 C 222.852 -0.834918 -3.50287 0
M  V30 2338 C 222.705 -2.33948 -3.84172 0
M  V30 2339 C 224.024 -0.325318 -4.38896 0
M  V30 2340 H 221.143 -0.195861 -0.710498 0
M  V30 2341 H 223.785 -1.13313 -1.52513 0
M  V30 2342 H 221.935 -0.325904 -3.87131 0
M  V30 2343 H 223.607 -2.91847 -3.57243 0
M  V30 2344 H 221.85 -2.79789 -3.31513 0
M  V30 2345 H 222.521 -2.49987 -4.92149 0
M  V30 2346 H 224.997 -0.761256 -4.09077 0
M  V30 2347 H 223.873 -0.564295 -5.45992 0
M  V30 2348 H 224.134 0.774144 -4.35269 0
M  V30 2349 N 223.193 1.4272 -0.668489 0
M  V30 2350 C 224.47 1.95248 -0.117373 0
M  V30 2351 C 224.85 1.60919 1.36632 0
M  V30 2352 O 224.198 0.902095 2.09939 0
M  V30 2353 C 224.408 3.46927 -0.379806 0
M  V30 2354 C 225.756 4.23588 -0.292923 0
M  V30 2355 O 226.78 3.5482 -0.313204 0
M  V30 2356 O 225.639 5.46017 -0.229697 0
M  V30 2357 H 222.733 0.827 0.00079152 0
M  V30 2358 H 225.279 1.52581 -0.742783 0
M  V30 2359 H 224.051 3.65096 -1.40786 0
M  V30 2360 H 223.674 3.96627 0.277923 0
M  V30 2361 N 224.671 0.411399 1.52136 0
M  V30 2362 C 225.919 -0.163322 2.01439 0
M  V30 2363 C 226.24 -1.45453 1.29879 0
M  V30 2364 O 225.51 -1.91225 0.4254 0
M  V30 2365 H 224.09 -0.0633447 0.744309 0
M  V30 2366 H 226.752 0.548161 1.87033 0
M  V30 2367 H 225.848 -0.357817 3.10042 0
M  V30 2368 N 226.149 -1.5696 0.141893 0
M  V30 2369 C 227.396 -1.9596 -0.510492 0
M  V30 2370 C 227.724 -1.02648 -1.65208 0
M  V30 2371 O 226.979 -0.0546947 -1.95624 0
M  V30 2372 C 227.278 -3.41242 -1.06249 0
M  V30 2373 C 226.944 -4.50882 -0.0398791 0
M  V30 2374 C 225.606 -4.80595 0.241247 0
M  V30 2375 C 227.958 -5.17058 0.65578 0
M  V30 2376 C 225.286 -5.73792 1.22393 0
M  V30 2377 C 227.638 -6.11313 1.62724 0
M  V30 2378 C 226.302 -6.39407 1.91612 0
M  V30 2379 H 225.572 -0.717068 -0.186802 0
M  V30 2380 H 228.219 -1.90142 0.227643 0
M  V30 2381 H 226.524 -3.43866 -1.87785 0
M  V30 2382 H 228.221 -3.68742 -1.57576 0
M  V30 2383 H 224.811 -4.27754 -0.269174 0
M  V30 2384 H 228.995 -4.94239 0.451779 0
M  V30 2385 H 224.251 -5.93853 1.45424 0
M  V30 2386 H 228.425 -6.61668 2.17183 0
M  V30 2387 H 226.052 -7.11427 2.6791 0
M  V30 2388 N 227.627 0.131896 -1.57047 0
M  V30 2389 C 228.876 0.84044 -1.83356 0
M  V30 2390 C 229.189 1.81646 -0.725535 0
M  V30 2391 O 230.395 2.57025 -0.874659 0
M  V30 2392 C 228.851 1.54528 -3.25037 0
M  V30 2393 C 228.459 0.610902 -4.43815 0
M  V30 2394 C 230.203 2.23972 -3.60606 0
M  V30 2395 C 228.11 1.31823 -5.76521 0
M  V30 2396 H 227.04 0.317599 -0.683847 0
M  V30 2397 H 229.691 0.0931561 -1.83263 0
M  V30 2398 H 228.073 2.33873 -3.19561 0
M  V30 2399 H 229.247 -0.148407 -4.60561 0
M  V30 2400 H 227.562 0.0241016 -4.16393 0
M  V30 2401 H 230.159 2.77558 -4.57018 0
M  V30 2402 H 230.502 3.01173 -2.87403 0
M  V30 2403 H 231.035 1.51529 -3.6781 0
M  V30 2404 H 227.774 0.587771 -6.52859 0
M  V30 2405 H 227.294 2.04987 -5.63685 0
M  V30 2406 H 228.973 1.855 -6.19838 0
M  V30 2407 N 229.106 1.52395 0.401703 0
M  V30 2408 C 230.069 1.75636 1.47257 0
M  V30 2409 C 231.069 0.62628 1.48103 0
M  V30 2410 O 232.259 0.894227 1.49497 0
M  V30 2411 C 229.391 1.84553 2.86624 0
M  V30 2412 H 230.584 2.71241 1.27938 0
M  V30 2413 H 228.137 1.42923 0.632662 0
M  V30 2414 H 228.872 0.908882 3.11303 0
M  V30 2415 H 228.657 2.66715 2.87412 0
M  V30 2416 H 230.147 2.04251 3.64241 0
M  V30 2417 N 230.584 -0.659388 1.43143 0
M  V30 2418 C 231.547 -1.75432 1.47501 0
M  V30 2419 C 232.547 -1.56707 0.360512 0
M  V30 2420 O 233.737 -1.62717 0.622002 0
M  V30 2421 C 230.869 -3.14239 1.32162 0
M  V30 2422 H 232.062 -1.7295 2.45006 0
M  V30 2423 H 229.615 -0.870469 1.29817 0
M  V30 2424 H 230.35 -3.22336 0.356401 0
M  V30 2425 H 230.135 -3.29235 2.12948 0
M  V30 2426 H 231.625 -3.94094 1.3813 0
M  V30 2427 N 232.062 -1.29571 -0.897171 0
M  V30 2428 C 232.992 -1.17473 -2.01798 0
M  V30 2429 C 233.973 -0.068323 -1.69963 0
M  V30 2430 O 235.158 -0.248239 -1.92607 0
M  V30 2431 C 232.288 -0.853099 -3.36659 0
M  V30 2432 C 231.242 -1.9161 -3.82713 0
M  V30 2433 C 230.568 -1.44773 -5.14728 0
M  V30 2434 C 231.868 -3.32535 -4.02763 0
M  V30 2435 H 233.562 -2.11237 -2.12177 0
M  V30 2436 H 231.108 -1.01699 -1.01948 0
M  V30 2437 H 233.061 -0.755165 -4.14578 0
M  V30 2438 H 231.785 0.120236 -3.26379 0
M  V30 2439 H 230.444 -2.00346 -3.07013 0
M  V30 2440 H 230.092 -0.462995 -5.00865 0
M  V30 2441 H 229.792 -2.15865 -5.46513 0
M  V30 2442 H 231.316 -1.36334 -5.95185 0
M  V30 2443 H 232.73 -3.26626 -4.71156 0
M  V30 2444 H 231.127 -4.01607 -4.45905 0
M  V30 2445 H 232.197 -3.75326 -3.07016 0
M  V30 2446 N 233.54 1.10788 -1.12088 0
M  V30 2447 C 234.472 2.16816 -0.743213 0
M  V30 2448 C 235.485 1.6119 0.228412 0
M  V30 2449 O 236.674 1.78497 0.0102931 0
M  V30 2450 C 233.774 3.38809 -0.0787313 0
M  V30 2451 C 232.947 4.23885 -1.0789 0
M  V30 2452 C 232.006 5.24334 -0.442713 0
M  V30 2453 O 231.032 5.58497 -1.09864 0
M  V30 2454 N 232.234 5.75079 0.791457 0
M  V30 2455 H 234.999 2.49825 -1.65552 0
M  V30 2456 H 232.56 1.26373 -1.012 0
M  V30 2457 H 234.552 4.03107 0.358766 0
M  V30 2458 H 233.122 3.03805 0.736275 0
M  V30 2459 H 232.342 3.55939 -1.69414 0
M  V30 2460 H 233.63 4.77562 -1.75533 0
M  V30 2461 H 233.028 5.49517 1.3434 0
M  V30 2462 H 231.585 6.4118 1.17183 0
M  V30 2463 N 235.018 0.912232 1.28515 0
M  V30 2464 C 235.928 0.404506 2.31086 0
M  V30 2465 C 236.944 -0.50707 1.66448 0
M  V30 2466 O 238.12 -0.393624 1.97516 0
M  V30 2467 C 235.185 -0.348572 3.44943 0
M  V30 2468 C 234.246 0.59604 4.25142 0
M  V30 2469 C 233.479 -0.121194 5.33562 0
M  V30 2470 O 233.702 -1.34317 5.5436 0
M  V30 2471 O 232.636 0.542716 5.99448 0
M  V30 2472 H 236.462 1.25579 2.76521 0
M  V30 2473 H 234.047 0.676998 1.33181 0
M  V30 2474 H 235.929 -0.77395 4.14232 0
M  V30 2475 H 234.604 -1.17571 3.01594 0
M  V30 2476 H 233.511 1.07079 3.58448 0
M  V30 2477 H 234.844 1.38995 4.72167 0
M  V30 2478 N 236.496 -1.42363 0.676048 0
M  V30 2479 C 237.745 -2.00745 0.196037 0
M  V30 2480 C 238.058 -1.54083 -1.20489 0
M  V30 2481 O 239.264 -2.04891 -1.78134 0
M  V30 2482 C 237.72 -3.58651 0.299616 0
M  V30 2483 C 237.328 -4.143 1.70468 0
M  V30 2484 C 239.072 -4.24326 -0.121619 0
M  V30 2485 C 236.979 -5.64574 1.76096 0
M  V30 2486 H 235.909 -0.750787 0.0695301 0
M  V30 2487 H 238.56 -1.63072 0.841412 0
M  V30 2488 H 236.942 -3.93833 -0.413673 0
M  V30 2489 H 238.116 -3.90575 2.44515 0
M  V30 2490 H 236.431 -3.61081 2.07387 0
M  V30 2491 H 239.028 -5.34607 -0.0997362 0
M  V30 2492 H 239.371 -3.99897 -1.15708 0
M  V30 2493 H 239.904 -3.94108 0.540706 0
M  V30 2494 H 236.643 -5.93804 2.77628 0
M  V30 2495 H 236.163 -5.90286 1.06406 0
M  V30 2496 H 237.842 -6.29013 1.51496 0
M  V30 2497 N 237.974 -0.419461 -1.51915 0
M  V30 2498 C 239.39 -0.0708431 -1.59443 0
M  V30 2499 C 239.59 1.41796 -1.43164 0
M  V30 2500 O 238.646 2.18596 -1.26381 0
M  V30 2501 C 239.959 -0.574991 -2.95151 0
M  V30 2502 C 241.507 -0.533867 -3.08413 0
M  V30 2503 C 241.982 -1.01469 -4.46618 0
M  V30 2504 N 243.473 -0.971939 -4.52888 0
M  V30 2505 C 244.208 -1.31505 -5.58116 0
M  V30 2506 N 243.704 -1.73014 -6.70849 0
M  V30 2507 N 245.497 -1.23436 -5.48379 0
M  V30 2508 H 237.648 -1.38836 -1.60743 0
M  V30 2509 H 239.911 -0.570998 -0.756747 0
M  V30 2510 H 239.617 -1.61597 -3.12377 0
M  V30 2511 H 239.491 0.00979777 -3.77199 0
M  V30 2512 H 241.878 0.498086 -2.90866 0
M  V30 2513 H 241.959 -1.15484 -2.28248 0
M  V30 2514 H 241.603 -2.04502 -4.6491 0
M  V30 2515 H 241.533 -0.370433 -5.25295 0
M  V30 2516 H 244.024 -0.666893 -3.71969 0
M  V30 2517 H 244.337 -1.97479 -7.47143 0
M  V30 2518 H 242.682 -1.76926 -6.72103 0
M  V30 2519 H 245.873 -0.908869 -4.59192 0
M  V30 2520 H 246.046 -1.50506 -6.30279 0
M  V30 2521 N 239.452 1.56882 -0.150215 0
M  V30 2522 C 240.68 2.00593 0.506948 0
M  V30 2523 C 241.095 1.03033 1.58208 0
M  V30 2524 O 240.452 0.0278396 1.82479 0
M  V30 2525 C 240.503 3.44209 1.10465 0
M  V30 2526 O 240.224 4.3804 0.0724636 0
M  V30 2527 C 241.725 4.03214 1.84211 0
M  V30 2528 H 238.945 0.65795 0.13169 0
M  V30 2529 H 241.489 2.03018 -0.245743 0
M  V30 2530 H 239.644 3.42625 1.80795 0
M  V30 2531 H 240.058 5.22007 0.510793 0
M  V30 2532 H 241.532 5.0569 2.21318 0
M  V30 2533 H 242.009 3.44107 2.72923 0
M  V30 2534 H 242.615 4.08437 1.18572 0
M  V30 2535 N 240.93 -0.123565 1.57115 0
M  V30 2536 C 241.86 -1.15309 2.03042 0
M  V30 2537 C 242.841 -1.43454 0.914061 0
M  V30 2538 O 244.026 -1.53973 1.18347 0
M  V30 2539 C 241.156 -2.48043 2.43089 0
M  V30 2540 C 240.11 -2.3437 3.58127 0
M  V30 2541 C 239.436 -3.72026 3.84059 0
M  V30 2542 C 240.736 -1.80804 4.90007 0
M  V30 2543 H 242.43 -0.771102 2.893 0
M  V30 2544 H 239.976 -0.369479 1.39179 0
M  V30 2545 H 241.929 -3.20311 2.73823 0
M  V30 2546 H 240.653 -2.88122 1.53796 0
M  V30 2547 H 239.312 -1.64551 3.27595 0
M  V30 2548 H 238.96 -4.09582 2.91979 0
M  V30 2549 H 238.66 -3.63732 4.6149 0
M  V30 2550 H 240.184 -4.45806 4.1724 0
M  V30 2551 H 241.598 -2.42886 5.19307 0
M  V30 2552 H 239.995 -1.83343 5.71407 0
M  V30 2553 H 241.065 -0.76528 4.78823 0
M  V30 2554 N 242.408 -1.52605 -0.393616 0
M  V30 2555 C 243.338 -1.80022 -1.48709 0
M  V30 2556 C 244.319 -0.651995 -1.57108 0
M  V30 2557 O 245.504 -0.89913 -1.72132 0
M  V30 2558 C 242.634 -1.96492 -2.86371 0
M  V30 2559 C 241.588 -3.12161 -2.92813 0
M  V30 2560 C 240.914 -3.13877 -4.3288 0
M  V30 2561 C 242.214 -4.51322 -2.6288 0
M  V30 2562 H 243.908 -2.71589 -1.26015 0
M  V30 2563 H 241.454 -1.30684 -0.604778 0
M  V30 2564 H 243.407 -2.14255 -3.62867 0
M  V30 2565 H 242.131 -1.01611 -3.10391 0
M  V30 2566 H 240.79 -2.94173 -2.18764 0
M  V30 2567 H 240.438 -2.16687 -4.53933 0
M  V30 2568 H 240.138 -3.91576 -4.38112 0
M  V30 2569 H 241.662 -3.33789 -5.1129 0
M  V30 2570 H 243.076 -4.69435 -3.29096 0
M  V30 2571 H 241.473 -5.31053 -2.79468 0
M  V30 2572 H 242.543 -4.58353 -1.58242 0
M  V30 2573 N 243.887 0.651787 -1.4349 0
M  V30 2574 C 244.835 1.78586 -1.49029 0
M  V30 2575 C 245.829 1.65448 -0.363767 0
M  V30 2576 O 247.035 1.71777 -0.537821 0
M  V30 2577 H 243.41 0.589236 -0.467231 0
M  V30 2578 H 245.381 1.71035 -2.44519 0
M  V30 2579 C 244.13 3.16851 -1.43181 0
M  V30 2580 H 243.453 3.27598 -2.29171 0
M  V30 2581 H 244.893 3.96156 -1.51118 0
M  V30 2582 C 243.352 3.36568 -0.149616 0
M  V30 2583 O 243.882 3.93885 0.788509 0
M  V30 2584 N 242.088 2.90539 -0.0593484 0
M  V30 2585 H 241.635 2.4408 -0.823575 0
M  V30 2586 H 241.593 3.04108 0.797853 0
M  V30 2587 N 245.365 1.30045 0.890287 0
M  V30 2588 C 246.297 1.11786 2.00091 0
M  V30 2589 C 247.31 0.0626307 1.62679 0
M  V30 2590 O 248.499 0.308112 1.75821 0
M  V30 2591 C 245.599 0.681527 3.31977 0
M  V30 2592 C 244.772 1.81735 3.97858 0
M  V30 2593 C 243.831 1.37045 5.08041 0
M  V30 2594 O 242.857 2.07677 5.29961 0
M  V30 2595 N 244.059 0.246525 5.79976 0
M  V30 2596 H 246.824 2.07441 2.16306 0
M  V30 2597 H 244.385 1.2211 1.06305 0
M  V30 2598 H 246.377 0.365675 4.03045 0
M  V30 2599 H 244.947 -0.182828 3.12065 0
M  V30 2600 H 244.167 2.30159 3.20032 0
M  V30 2601 H 245.455 2.57865 4.38615 0
M  V30 2602 H 244.853 -0.34215 5.64664 0
M  V30 2603 H 243.41 -0.00990438 6.51799 0
M  V30 2604 N 246.843 -1.10192 1.12674 0
M  V30 2605 C 247.775 -2.16418 0.754701 0
M  V30 2606 C 248.788 -1.61309 -0.21986 0
M  V30 2607 O 249.977 -1.785 -0.000826841 0
M  V30 2608 C 247.077 -3.38762 0.096698 0
M  V30 2609 C 246.25 -4.23307 1.10136 0
M  V30 2610 C 245.309 -5.24092 0.470513 0
M  V30 2611 O 244.335 -5.57906 1.12824 0
M  V30 2612 N 245.537 -5.75491 -0.760948 0
M  V30 2613 H 248.302 -2.48943 1.66875 0
M  V30 2614 H 245.863 -1.25834 1.01869 0
M  V30 2615 H 247.855 -4.03291 -0.337384 0
M  V30 2616 H 246.425 -3.04192 -0.720153 0
M  V30 2617 H 245.645 -3.55036 1.71299 0
M  V30 2618 H 246.933 -4.76624 1.78064 0
M  V30 2619 H 246.331 -5.50222 -1.31424 0
M  V30 2620 H 244.888 -6.41792 -1.13781 0
M  V30 2621 N 248.321 -0.919034 -1.28029 0
M  V30 2622 C 249.549 -0.570971 -1.98866 0
M  V30 2623 C 249.964 0.848996 -1.68634 0
M  V30 2624 O 249.321 1.56307 -0.942036 0
M  V30 2625 C 249.372 -0.776876 -3.53054 0
M  V30 2626 O 249.093 -2.14097 -3.82222 0
M  V30 2627 C 250.594 -0.436356 -4.41147 0
M  V30 2628 H 247.814 -0.217175 -0.634883 0
M  V30 2629 H 250.358 -1.23368 -1.63097 0
M  V30 2630 H 248.513 -0.161085 -3.87065 0
M  V30 2631 H 248.927 -2.18455 -4.76841 0
M  V30 2632 H 250.401 -0.63117 -5.4838 0
M  V30 2633 H 250.878 0.627686 -4.34692 0
M  V30 2634 H 251.484 -1.02991 -4.12641 0
M  V30 2635 N 249.799 1.42003 -0.683588 0
M  V30 2636 C 251.048 2.00638 -0.206681 0
M  V30 2637 C 251.361 1.5472 1.19671 0
M  V30 2638 O 252.567 2.05833 1.77045 0
M  V30 2639 C 251.023 3.58487 -0.318632 0
M  V30 2640 C 250.631 4.1339 -1.72663 0
M  V30 2641 C 252.375 4.24384 0.0991141 0
M  V30 2642 C 250.282 5.63633 -1.79087 0
M  V30 2643 H 249.212 0.750408 -0.0735107 0
M  V30 2644 H 251.863 1.62624 -0.850048 0
M  V30 2645 H 250.245 3.94047 0.392781 0
M  V30 2646 H 251.419 3.89273 -2.46583 0
M  V30 2647 H 249.734 3.59976 -2.09299 0
M  V30 2648 H 252.331 5.34652 0.0713833 0
M  V30 2649 H 252.674 4.00505 1.13586 0
M  V30 2650 H 253.207 3.93816 -0.561599 0
M  V30 2651 H 249.946 5.92323 -2.80774 0
M  V30 2652 H 249.466 5.89714 -1.09535 0
M  V30 2653 H 251.145 6.28201 -1.5483 0
M  V30 2654 N 251.277 0.427512 1.51691 0
M  V30 2655 C 252.24 -0.377132 2.26076 0
M  V30 2656 C 253.24 -0.958089 1.29141 0
M  V30 2657 O 254.43 -0.83408 1.52934 0
M  V30 2658 C 251.562 -1.53262 3.04506 0
M  V30 2659 H 252.755 0.27464 2.9864 0
M  V30 2660 H 250.308 0.180445 1.55255 0
M  V30 2661 H 251.043 -2.22072 2.36335 0
M  V30 2662 H 250.828 -1.12232 3.75694 0
M  V30 2663 H 252.318 -2.10135 3.60878 0
M  V30 2664 N 252.755 -1.56801 0.158532 0
M  V30 2665 C 254.032 -1.88131 -0.535357 0
M  V30 2666 C 254.412 -1.06638 -1.82186 0
M  V30 2667 O 253.76 -0.156533 -2.27963 0
M  V30 2668 C 253.97 -3.39949 -0.789653 0
M  V30 2669 C 255.318 -4.09416 -1.12533 0
M  V30 2670 O 256.342 -3.45194 -0.878622 0
M  V30 2671 O 255.201 -5.22855 -1.59014 0
M  V30 2672 H 252.295 -0.780143 -0.27442 0
M  V30 2673 H 254.841 -1.68564 0.19601 0
M  V30 2674 H 253.613 -3.91115 0.120353 0
M  V30 2675 H 253.236 -3.65084 -1.57479 0
M  V30 2676 N 254.233 0.115231 -1.57178 0
M  V30 2677 C 255.481 0.820727 -1.84685 0
M  V30 2678 C 255.802 1.80237 -0.744279 0
M  V30 2679 O 255.072 1.94529 0.231375 0
M  V30 2680 H 253.652 0.306084 -0.681411 0
M  V30 2681 H 256.314 0.101656 -1.94635 0
M  V30 2682 H 255.41 1.36366 -2.80733 0
M  V30 2683 N 255.711 1.52812 0.385517 0
M  V30 2684 C 257.127 1.4214 0.725829 0
M  V30 2685 C 257.327 0.544589 1.94001 0
M  V30 2686 O 256.383 0.0193693 2.52493 0
M  V30 2687 C 257.696 2.85042 0.957668 0
M  V30 2688 C 259.244 2.94543 1.05892 0
M  V30 2689 C 259.719 4.38464 1.32337 0
M  V30 2690 N 261.21 4.41804 1.39151 0
M  V30 2691 C 261.945 5.5025 1.61285 0
M  V30 2692 N 261.441 6.68775 1.80866 0
M  V30 2693 N 263.234 5.37798 1.63492 0
M  V30 2694 H 255.385 2.08338 -0.413383 0
M  V30 2695 H 257.648 0.940016 -0.122775 0
M  V30 2696 H 257.354 3.51431 0.137568 0
M  V30 2697 H 257.228 3.27505 1.87137 0
M  V30 2698 H 259.615 2.28321 1.86959 0
M  V30 2699 H 259.696 2.55504 0.123057 0
M  V30 2700 H 259.34 5.05254 0.517793 0
M  V30 2701 H 259.27 4.75059 2.27214 0
M  V30 2702 H 261.761 3.56377 1.25713 0
M  V30 2703 H 262.074 7.47197 1.97271 0
M  V30 2704 H 260.419 6.71797 1.78083 0
M  V30 2705 H 263.61 4.44171 1.47749 0
M  V30 2706 H 263.783 6.22382 1.80402 0
M  V30 2707 N 257.189 -0.644168 1.43834 0
M  V30 2708 C 258.121 -1.76955 1.45669 0
M  V30 2709 C 259.134 -1.58956 0.351666 0
M  V30 2710 O 260.323 -1.6751 0.616644 0
M  V30 2711 C 257.423 -3.14507 1.26248 0
M  V30 2712 C 256.596 -3.59083 2.49757 0
M  V30 2713 C 255.655 -4.75467 2.25427 0
M  V30 2714 O 254.681 -4.84444 2.98836 0
M  V30 2715 N 255.883 -5.66289 1.27661 0
M  V30 2716 H 258.648 -1.75856 2.42682 0
M  V30 2717 H 256.209 -0.828312 1.39106 0
M  V30 2718 H 258.201 -3.90067 1.0784 0
M  V30 2719 H 256.771 -3.10325 0.376478 0
M  V30 2720 H 255.991 -2.7387 2.8353 0
M  V30 2721 H 257.279 -3.85613 3.31934 0
M  V30 2722 H 256.677 -5.61718 0.670064 0
M  V30 2723 H 255.234 -6.41533 1.15234 0
M  V30 2724 N 258.668 -1.30515 -0.883378 0
M  V30 2725 C 259.631 -1.1701 -1.97082 0
M  V30 2726 C 260.631 -0.10089 -1.60483 0
M  V30 2727 O 261.821 -0.349127 -1.70666 0
M  V30 2728 C 258.953 -0.793045 -3.31547 0
M  V30 2729 H 260.146 -2.13622 -2.10489 0
M  V30 2730 H 257.699 -1.13935 -1.06998 0
M  V30 2731 H 258.434 0.172499 -3.23841 0
M  V30 2732 H 258.219 -1.56576 -3.5948 0
M  V30 2733 H 259.709 -0.722073 -4.1131 0
M  V30 2734 N 260.146 1.09593 -1.13257 0
M  V30 2735 C 261.076 2.18214 -0.830946 0
M  V30 2736 C 262.057 1.68812 0.208966 0
M  V30 2737 O 263.242 1.9408 0.0682666 0
M  V30 2738 C 260.372 3.46051 -0.294296 0
M  V30 2739 C 259.326 4.08778 -1.26826 0
M  V30 2740 C 258.652 5.31419 -0.591449 0
M  V30 2741 C 259.952 4.51476 -2.62615 0
M  V30 2742 H 261.646 2.43703 -1.73923 0
M  V30 2743 H 259.192 1.17128 -0.837675 0
M  V30 2744 H 261.145 4.2134 -0.0709606 0
M  V30 2745 H 259.869 3.20079 0.649366 0
M  V30 2746 H 258.528 3.35505 -1.47756 0
M  V30 2747 H 258.176 5.01727 0.357633 0
M  V30 2748 H 257.876 5.74341 -1.24123 0
M  V30 2749 H 259.4 6.09433 -0.377355 0
M  V30 2750 H 260.814 5.17999 -2.45663 0
M  V30 2751 H 259.211 5.05277 -3.23752 0
M  V30 2752 H 260.281 3.63962 -3.20406 0
M  V30 2753 N 261.624 0.925811 1.2754 0
M  V30 2754 C 263.035 0.610102 1.7645 0
M  V30 2755 C 263.386 -0.874723 1.75622 0
M  V30 2756 O 262.511 -1.68444 1.35851 0
M  V30 2757 C 263.106 1.10073 3.20421 0
M  V30 2758 C 261.665 0.835723 3.67005 0
M  V30 2759 C 260.812 1.26054 2.46993 0
M  V30 2760 H 263.763 1.10579 1.13833 0
M  V30 2761 H 263.784 0.447557 3.77859 0
M  V30 2762 H 263.296 2.18143 3.20991 0
M  V30 2763 H 261.397 -0.231249 3.71882 0
M  V30 2764 H 261.51 1.45193 4.56569 0
M  V30 2765 H 259.874 0.679111 2.45479 0
M  V30 2766 H 260.657 2.34984 2.50275 0
M  V30 2767 N 263.102 -1.41638 0.69111 0
M  V30 2768 C 264.332 -2.0533 0.228758 0
M  V30 2769 C 264.74 -1.52089 -1.12541 0
M  V30 2770 O 264.083 -0.662145 -1.71351 0
M  V30 2771 C 264.145 -3.59349 0.10407 0
M  V30 2772 C 263.809 -4.35362 1.38956 0
M  V30 2773 C 264.806 -4.64942 2.32648 0
M  V30 2774 C 262.491 -4.74714 1.64169 0
M  V30 2775 C 264.485 -5.32828 3.49818 0
M  V30 2776 C 262.172 -5.42338 2.81625 0
M  V30 2777 C 263.17 -5.71322 3.74273 0
M  V30 2778 O 262.858 -6.37554 4.89673 0
M  V30 2779 H 262.59 -0.667796 0.104997 0
M  V30 2780 H 265.144 -1.82477 0.942938 0
M  V30 2781 H 263.374 -3.80924 -0.665839 0
M  V30 2782 H 265.063 -4.04633 -0.320519 0
M  V30 2783 H 265.829 -4.35025 2.14425 0
M  V30 2784 H 261.708 -4.51538 0.929202 0
M  V30 2785 H 265.252 -5.55368 4.22152 0
M  V30 2786 H 261.149 -5.71673 2.99768 0
M  V30 2787 H 261.917 -6.56049 4.8943 0
M  V30 2788 N 264.58 -0.43555 -1.51462 0
M  V30 2789 C 265.512 0.41257 -2.25456 0
M  V30 2790 C 266.525 0.987822 -1.29406 0
M  V30 2791 O 267.714 0.882266 -1.55172 0
M  V30 2792 C 264.814 1.58894 -2.99342 0
M  V30 2793 C 263.987 1.13288 -4.22474 0
M  V30 2794 C 263.046 2.17917 -4.78956 0
M  V30 2795 O 262.072 1.77425 -5.40841 0
M  V30 2796 N 263.274 3.50382 -4.62832 0
M  V30 2797 H 266.039 -0.221603 -2.9888 0
M  V30 2798 H 263.6 -0.264342 -1.59727 0
M  V30 2799 H 265.592 2.28508 -3.34015 0
M  V30 2800 H 264.162 2.12849 -2.28941 0
M  V30 2801 H 263.382 0.263881 -3.93316 0
M  V30 2802 H 264.67 0.805542 -5.02383 0
M  V30 2803 H 264.068 3.86013 -4.13534 0
M  V30 2804 H 262.625 4.15895 -5.01871 0
M  V30 2805 N 266.058 1.56714 -0.166846 0
M  V30 2806 C 266.988 2.20754 0.760913 0
M  V30 2807 C 267.969 1.16178 1.24244 0
M  V30 2808 O 269.154 1.44592 1.29641 0
M  V30 2809 C 266.284 2.84478 1.99223 0
M  V30 2810 C 265.238 3.95053 1.64672 0
M  V30 2811 C 264.564 4.45805 2.95232 0
M  V30 2812 C 265.864 5.14865 0.878155 0
M  V30 2813 H 267.558 2.98537 0.22713 0
M  V30 2814 H 265.104 1.43596 0.107805 0
M  V30 2815 H 267.057 3.27951 2.64624 0
M  V30 2816 H 265.781 2.04056 2.55007 0
M  V30 2817 H 264.44 3.52228 1.01641 0
M  V30 2818 H 264.088 3.62181 3.49047 0
M  V30 2819 H 263.788 5.204 2.7287 0
M  V30 2820 H 265.312 4.91962 3.6167 0
M  V30 2821 H 266.726 5.55059 1.43466 0
M  V30 2822 H 265.123 5.95348 0.753738 0
M  V30 2823 H 266.193 4.84735 -0.126377 0
M  V30 2824 N 267.536 -0.106894 1.57237 0
M  V30 2825 C 268.764 -0.826389 1.8968 0
M  V30 2826 C 269.179 -1.72856 0.759353 0
M  V30 2827 O 268.536 -1.80503 -0.269263 0
M  V30 2828 C 268.587 -1.64967 3.21665 0
M  V30 2829 O 268.308 -0.783804 4.31031 0
M  V30 2830 C 269.809 -2.47326 3.67892 0
M  V30 2831 H 267.029 -0.236927 0.627779 0
M  V30 2832 H 269.573 -0.0876593 2.04312 0
M  V30 2833 H 267.728 -2.34103 3.08666 0
M  V30 2834 H 268.142 -1.35284 5.06753 0
M  V30 2835 H 269.616 -3.00604 4.6297 0
M  V30 2836 H 270.093 -3.25247 2.95146 0
M  V30 2837 H 270.699 -1.83411 3.83719 0
M  V30 2838 N 269.014 -1.53014 -0.377408 0
M  V30 2839 C 270.263 -1.67845 -1.11853 0
M  V30 2840 C 270.576 -0.430625 -1.90801 0
M  V30 2841 O 271.782 -0.459261 -2.67587 0
M  V30 2842 C 270.238 -2.96668 -2.03756 0
M  V30 2843 C 269.846 -4.28671 -1.30175 0
M  V30 2844 C 271.59 -3.20865 -2.77932 0
M  V30 2845 C 269.497 -5.48591 -2.20911 0
M  V30 2846 H 268.427 -0.625343 -0.421263 0
M  V30 2847 H 271.078 -1.79514 -0.380409 0
M  V30 2848 H 269.46 -2.78773 -2.8125 0
M  V30 2849 H 270.634 -4.57157 -0.578259 0
M  V30 2850 H 268.949 -4.10825 -0.679108 0
M  V30 2851 H 271.546 -4.07642 -3.46024 0
M  V30 2852 H 271.889 -2.36424 -3.4265 0
M  V30 2853 H 272.422 -3.39379 -2.07525 0
M  V30 2854 H 269.161 -6.35474 -1.6079 0
M  V30 2855 H 268.681 -5.244 -2.91144 0
M  V30 2856 H 270.36 -5.8292 -2.80736 0
M  V30 2857 N 270.492 0.636531 -1.44174 0
M  V30 2858 C 271.455 1.73063 -1.50273 0
M  V30 2859 C 272.455 1.56113 -0.385397 0
M  V30 2860 O 273.645 1.61707 -0.64781 0
M  V30 2861 C 270.777 3.12096 -1.37145 0
M  V30 2862 H 271.97 1.69031 -2.47727 0
M  V30 2863 H 269.523 0.849706 -1.31186 0
M  V30 2864 H 270.258 3.21728 -0.407636 0
M  V30 2865 H 270.043 3.25805 -2.18159 0
M  V30 2866 H 271.533 3.91846 -1.44382 0
M  V30 2867 N 271.97 1.30982 0.876444 0
M  V30 2868 C 273.218 1.20058 1.62575 0
M  V30 2869 C 273.539 -0.242947 1.93481 0
M  V30 2870 O 272.809 -1.1619 1.57724 0
M  V30 2871 H 271.389 0.44135 0.602677 0
M  V30 2872 H 274.051 1.64222 1.04962 0
M  V30 2873 H 273.147 1.76762 2.57219 0
M  V30 2874 N 273.449 -1.08991 1.13837 0
M  V30 2875 C 274.412 -2.13925 0.822715 0
M  V30 2876 C 275.412 -1.599 -0.1699 0
M  V30 2877 O 276.602 -1.74104 0.0577251 0
M  V30 2878 C 273.734 -3.40155 0.225318 0
M  V30 2879 H 274.927 -2.43358 1.75262 0
M  V30 2880 H 272.48 -1.24603 0.943594 0
M  V30 2881 H 273.215 -3.16352 -0.713594 0
M  V30 2882 H 273 -3.80661 0.940193 0
M  V30 2883 H 274.49 -4.17594 0.0214784 0
M  V30 2884 N 274.927 -0.932562 -1.27047 0
M  V30 2885 C 276.175 -0.574422 -1.93765 0
M  V30 2886 C 276.496 0.887993 -1.73608 0
M  V30 2887 O 275.766 1.62999 -1.08665 0
M  V30 2888 H 274.346 -0.209451 -0.717035 0
M  V30 2889 H 277.008 -1.18601 -1.5466 0
M  V30 2890 H 276.104 -0.784841 -3.02071 0
M  V30 2891 N 276.405 1.4127 -0.698611 0
M  V30 2892 C 277.653 2.00782 -0.230409 0
M  V30 2893 C 277.974 1.5562 1.17505 0
M  V30 2894 O 277.244 0.78815 1.79346 0
M  V30 2895 H 275.824 0.742464 -0.0821944 0
M  V30 2896 H 278.486 1.72852 -0.90045 0
M  V30 2897 H 277.582 3.11095 -0.25021 0
M  V30 2898 N 277.883 0.443576 1.51229 0
M  V30 2899 C 278.846 -0.353132 2.26463 0
M  V30 2900 C 279.846 -0.944338 1.3015 0
M  V30 2901 O 281.036 -0.817813 1.5381 0
M  V30 2902 C 278.168 -1.50023 3.06114 0
M  V30 2903 H 279.361 0.3063 2.98332 0
M  V30 2904 H 276.914 0.196902 1.55055 0
M  V30 2905 H 277.649 -2.19553 2.38677 0
M  V30 2906 H 277.434 -1.08241 3.76864 0
M  V30 2907 H 278.924 -2.06296 3.63087 0
M  V30 2908 N 279.361 -1.56624 0.175154 0
M  V30 2909 C 280.608 -1.96999 -0.468811 0
M  V30 2910 C 280.936 -1.06129 -1.62994 0
M  V30 2911 O 280.191 -0.0961771 -1.95464 0
M  V30 2912 C 280.49 -3.43419 -0.989864 0
M  V30 2913 C 280.156 -4.50866 0.0557687 0
M  V30 2914 C 278.818 -4.79975 0.343134 0
M  V30 2915 C 281.17 -5.15551 0.765308 0
M  V30 2916 C 278.498 -5.71066 1.34536 0
M  V30 2917 C 280.85 -6.07724 1.75654 0
M  V30 2918 C 279.514 -6.35199 2.05132 0
M  V30 2919 H 278.784 -0.720869 -0.17155 0
M  V30 2920 H 281.431 -1.89616 0.267924 0
M  V30 2921 H 279.736 -3.47772 -1.80449 0
M  V30 2922 H 281.433 -3.72002 -1.49719 0
M  V30 2923 H 278.023 -4.28229 -0.178381 0
M  V30 2924 H 282.207 -4.9317 0.556513 0
M  V30 2925 H 277.463 -5.90635 1.57988 0
M  V30 2926 H 281.637 -6.56912 2.31169 0
M  V30 2927 H 279.264 -7.05584 2.8294 0
M  V30 2928 N 280.839 0.0985539 -1.57292 0
M  V30 2929 C 282.086 0.802678 -1.85912 0
M  V30 2930 C 282.414 1.78901 -0.763186 0
M  V30 2931 O 281.669 1.94178 0.243559 0
M  V30 2932 C 281.968 1.56927 -3.21105 0
M  V30 2933 C 281.634 0.725376 -4.45027 0
M  V30 2934 C 280.296 0.492726 -4.78671 0
M  V30 2935 C 282.648 0.138493 -5.21016 0
M  V30 2936 C 279.976 -0.336727 -5.85733 0
M  V30 2937 C 282.328 -0.678264 -6.28953 0
M  V30 2938 C 280.992 -0.921039 -6.61115 0
M  V30 2939 H 280.262 0.293721 -0.680301 0
M  V30 2940 H 282.909 0.0642841 -1.91392 0
M  V30 2941 H 281.214 2.37914 -3.11294 0
M  V30 2942 H 282.911 2.11841 -3.40477 0
M  V30 2943 H 279.501 0.916815 -4.18679 0
M  V30 2944 H 283.685 0.305404 -4.95359 0
M  V30 2945 H 278.941 -0.533836 -6.09065 0
M  V30 2946 H 283.115 -1.1399 -6.87007 0
M  V30 2947 H 280.742 -1.56556 -7.43905 0
M  V30 2948 N 282.317 1.53212 0.369288 0
M  V30 2949 C 283.247 1.82365 1.45826 0
M  V30 2950 C 284.228 0.676907 1.56051 0
M  V30 2951 O 285.413 0.926401 1.70679 0
M  V30 2952 C 282.543 2.01023 2.83208 0
M  V30 2953 C 281.497 3.1678 2.8781 0
M  V30 2954 C 280.823 3.20724 4.27832 0
M  V30 2955 C 282.123 4.55447 2.55667 0
M  V30 2956 H 283.817 2.73559 1.21678 0
M  V30 2957 H 281.363 1.3163 0.583911 0
M  V30 2958 H 283.316 2.20001 3.59413 0
M  V30 2959 H 282.04 1.06536 3.08736 0
M  V30 2960 H 280.699 2.97616 2.14056 0
M  V30 2961 H 280.347 2.23882 4.50429 0
M  V30 2962 H 280.047 3.98496 4.31827 0
M  V30 2963 H 281.571 3.41881 5.05915 0
M  V30 2964 H 282.985 4.74611 3.21586 0
M  V30 2965 H 281.382 5.35432 2.70984 0
M  V30 2966 H 282.452 4.60812 1.5093 0
M  V30 2967 N 283.795 -0.628877 1.44509 0
M  V30 2968 C 285.02 -1.42048 1.5112 0
M  V30 2969 C 285.445 -1.87594 0.137818 0
M  V30 2970 O 284.803 -1.58873 -0.873437 0
M  V30 2971 C 284.851 -2.61541 2.48251 0
M  V30 2972 O 283.955 -3.61453 1.98559 0
M  V30 2973 H 283.296 -0.424942 0.510216 0
M  V30 2974 H 285.826 -0.767374 1.89664 0
M  V30 2975 H 285.836 -3.09057 2.66361 0
M  V30 2976 H 284.511 -2.27736 3.48007 0
M  V30 2977 H 283.088 -3.20731 1.90227 0
M  V30 2978 N 285.273 -1.31445 -0.869486 0
M  V30 2979 C 286.689 -1.10113 -1.15531 0
M  V30 2980 C 286.889 0.128087 -2.01092 0
M  V30 2981 O 285.945 0.817276 -2.38908 0
M  V30 2982 C 287.258 -2.37291 -1.84698 0
M  V30 2983 C 288.806 -2.42906 -1.97397 0
M  V30 2984 C 289.281 -3.69967 -2.69979 0
M  V30 2985 N 290.772 -3.70864 -2.77514 0
M  V30 2986 C 291.507 -4.65875 -3.34287 0
M  V30 2987 N 291.003 -5.71242 -3.91988 0
M  V30 2988 N 292.796 -4.53394 -3.3225 0
M  V30 2989 H 284.947 -2.1028 -0.299347 0
M  V30 2990 H 287.21 -0.927683 -0.195214 0
M  V30 2991 H 286.916 -3.27078 -1.29278 0
M  V30 2992 H 286.79 -2.47125 -2.84972 0
M  V30 2993 H 289.177 -1.53588 -2.51982 0
M  V30 2994 H 289.258 -2.37036 -0.961643 0
M  V30 2995 H 288.902 -4.59652 -2.16062 0
M  V30 2996 H 288.832 -3.73103 -3.7162 0
M  V30 2997 H 291.323 -2.94697 -2.36563 0
M  V30 2998 H 291.636 -6.39817 -4.33421 0
M  V30 2999 H 289.981 -5.75015 -3.90362 0
M  V30 3000 H 293.172 -3.70252 -2.8641 0
M  V30 3001 H 293.345 -5.27617 -3.76197 0
M  V30 3002 N 286.751 1.08385 -1.14413 0
M  V30 3003 C 287.981 1.8425 -0.934644 0
M  V30 3004 C 288.389 1.81907 0.520234 0
M  V30 3005 O 287.732 1.22126 1.37226 0
M  V30 3006 C 287.794 3.32853 -1.35828 0
M  V30 3007 C 287.458 3.5893 -2.82875 0
M  V30 3008 C 288.455 3.53756 -3.80989 0
M  V30 3009 C 286.14 3.86934 -3.20293 0
M  V30 3010 C 288.134 3.76216 -5.14529 0
M  V30 3011 C 285.821 4.09047 -4.54008 0
M  V30 3012 C 286.819 4.03682 -5.50936 0
M  V30 3013 O 286.507 4.25214 -6.82238 0
M  V30 3014 H 286.239 0.588502 -0.332628 0
M  V30 3015 H 288.793 1.37792 -1.52324 0
M  V30 3016 H 287.023 3.8007 -0.713019 0
M  V30 3017 H 288.712 3.90154 -1.11957 0
M  V30 3018 H 289.478 3.32135 -3.53428 0
M  V30 3019 H 285.357 3.9023 -2.45442 0
M  V30 3020 H 288.901 3.71943 -5.90173 0
M  V30 3021 H 284.798 4.30151 -4.8129 0
M  V30 3022 H 285.566 4.42619 -6.88499 0
M  V30 3023 N 288.23 0.939286 1.26551 0
M  V30 3024 C 289.46 0.601663 1.97645 0
M  V30 3025 C 289.868 -0.827206 1.70159 0
M  V30 3026 O 289.211 -1.56291 0.965338 0
M  V30 3027 C 289.273 0.761725 3.51337 0
M  V30 3028 C 288.937 2.16487 4.0247 0
M  V30 3029 C 289.934 3.14016 4.14355 0
M  V30 3030 C 287.619 2.48494 4.36527 0
M  V30 3031 C 289.613 4.41654 4.59587 0
M  V30 3032 C 287.3 3.76364 4.81449 0
M  V30 3033 C 288.298 4.72758 4.92939 0
M  V30 3034 O 287.986 5.98352 5.36871 0
M  V30 3035 H 287.718 0.225758 0.637189 0
M  V30 3036 H 290.272 1.26178 1.62075 0
M  V30 3037 H 288.502 0.0444808 3.86674 0
M  V30 3038 H 290.191 0.427442 4.03643 0
M  V30 3039 H 290.957 2.90613 3.8829 0
M  V30 3040 H 286.836 1.74202 4.26819 0
M  V30 3041 H 290.38 5.16896 4.68471 0
M  V30 3042 H 286.277 3.99582 5.06956 0
M  V30 3043 H 287.045 6.01507 5.55096 0
M  V30 3044 N 289.708 -1.40897 0.706093 0
M  V30 3045 C 290.933 -2.05895 0.249435 0
M  V30 3046 C 291.358 -1.52823 -1.09666 0
M  V30 3047 O 290.716 -0.659589 -1.68876 0
M  V30 3048 C 290.764 -3.59872 0.22904 0
M  V30 3049 O 289.868 -4.04708 -0.792784 0
M  V30 3050 H 289.209 -0.653206 0.119241 0
M  V30 3051 H 291.739 -1.80471 0.96391 0
M  V30 3052 H 291.749 -4.07951 0.0634791 0
M  V30 3053 H 290.424 -3.97866 1.21141 0
M  V30 3054 H 289.001 -3.68111 -0.59572 0
M  V30 3055 N 291.186 -0.45159 -1.50991 0
M  V30 3056 C 292.133 0.352625 -2.2809 0
M  V30 3057 C 293.103 1.0044 -1.32291 0
M  V30 3058 O 294.288 1.02058 -1.6121 0
M  V30 3059 C 291.428 1.43983 -3.13629 0
M  V30 3060 C 290.541 0.804772 -4.24438 0
M  V30 3061 C 289.676 1.86822 -4.97263 0
M  V30 3062 C 288.715 1.21236 -5.99973 0
M  V30 3063 N 287.852 2.2178 -6.66152 0
M  V30 3064 H 292.692 -0.311186 -2.96371 0
M  V30 3065 H 290.229 -0.165308 -1.46168 0
M  V30 3066 H 292.187 2.08161 -3.61559 0
M  V30 3067 H 290.817 2.07307 -2.47434 0
M  V30 3068 H 289.869 0.0509129 -3.80366 0
M  V30 3069 H 291.181 0.286076 -4.97979 0
M  V30 3070 H 290.335 2.58628 -5.48813 0
M  V30 3071 H 289.074 2.42068 -4.23385 0
M  V30 3072 H 288.079 0.479828 -5.47702 0
M  V30 3073 H 289.304 0.667051 -6.75816 0
M  V30 3074 H 287.25 2.76079 -5.95077 0
M  V30 3075 H 287.167 1.74841 -7.35504 0
M  V30 3076 H 288.435 2.93026 -7.22327 0
M  V30 3077 N 292.664 1.56529 -0.183458 0
M  V30 3078 C 293.594 2.21549 0.737456 0
M  V30 3079 C 294.575 1.17489 1.23005 0
M  V30 3080 O 295.76 1.45959 1.281 0
M  V30 3081 C 292.89 2.86575 1.96194 0
M  V30 3082 C 291.844 3.96778 1.60473 0
M  V30 3083 C 291.17 4.48911 2.90487 0
M  V30 3084 C 292.47 5.15767 0.823497 0
M  V30 3085 H 294.164 2.98761 0.195453 0
M  V30 3086 H 291.71 1.43702 0.0925686 0
M  V30 3087 H 293.663 3.30739 2.61131 0
M  V30 3088 H 292.387 2.06749 2.52828 0
M  V30 3089 H 291.046 3.53286 0.978997 0
M  V30 3090 H 290.694 3.65862 3.45186 0
M  V30 3091 H 290.394 5.23265 2.67335 0
M  V30 3092 H 291.918 4.95771 3.56432 0
M  V30 3093 H 293.332 5.56549 1.37571 0
M  V30 3094 H 291.729 5.96114 0.690551 0
M  V30 3095 H 292.799 4.84574 -0.177782 0
M  V30 3096 N 294.142 -0.090211 1.57342 0
M  V30 3097 C 295.105 -1.09335 2.01441 0
M  V30 3098 C 296.105 -1.32666 0.908641 0
M  V30 3099 O 297.295 -1.28697 1.174 0
M  V30 3100 C 294.427 -2.44136 2.3793 0
M  V30 3101 H 295.62 -0.713662 2.91285 0
M  V30 3102 H 293.173 -0.335404 1.52659 0
M  V30 3103 H 293.908 -2.86972 1.51055 0
M  V30 3104 H 293.693 -2.28548 3.18603 0
M  V30 3105 H 295.183 -3.16277 2.72688 0
M  V30 3106 N 295.62 -1.53406 -0.361157 0
M  V30 3107 C 296.552 -1.76446 -1.46286 0
M  V30 3108 C 297.565 -0.645322 -1.49464 0
M  V30 3109 O 298.754 -0.921681 -1.52864 0
M  V30 3110 C 295.854 -1.83332 -2.85031 0
M  V30 3111 C 295.027 -3.13033 -3.05498 0
M  V30 3112 C 294.086 -3.11104 -4.24383 0
M  V30 3113 O 293.112 -3.84888 -4.19344 0
M  V30 3114 N 294.314 -2.32234 -5.32022 0
M  V30 3115 H 297.079 -2.71508 -1.26899 0
M  V30 3116 H 294.64 -1.52238 -0.550915 0
M  V30 3117 H 296.632 -1.79514 -3.62708 0
M  V30 3118 H 295.202 -0.955342 -2.97644 0
M  V30 3119 H 294.422 -3.30119 -2.15442 0
M  V30 3120 H 295.71 -3.9874 -3.16044 0
M  V30 3121 H 295.108 -1.71807 -5.38979 0
M  V30 3122 H 293.665 -2.3423 -6.08259 0
M  V30 3123 N 297.098 0.621204 -1.44841 0
M  V30 3124 C 298.347 1.37658 -1.47422 0
M  V30 3125 C 298.66 1.95264 -0.114629 0
M  V30 3126 O 299.866 2.71494 -0.0180199 0
M  V30 3127 C 298.322 2.49285 -2.59586 0
M  V30 3128 C 297.93 1.98149 -4.01797 0
M  V30 3129 C 299.674 3.26409 -2.71399 0
M  V30 3130 C 297.581 3.07178 -5.05367 0
M  V30 3131 H 296.511 0.517344 -0.548517 0
M  V30 3132 H 299.162 0.667257 -1.70938 0
M  V30 3133 H 297.544 3.22839 -2.29328 0
M  V30 3134 H 298.718 1.31395 -4.41669 0
M  V30 3135 H 297.033 1.33812 -3.94314 0
M  V30 3136 H 299.63 4.07706 -3.45948 0
M  V30 3137 H 299.973 3.76535 -1.77559 0
M  V30 3138 H 300.506 2.5995 -3.01116 0
M  V30 3139 H 297.245 2.61985 -6.00869 0
M  V30 3140 H 296.765 3.72542 -4.70077 0
M  V30 3141 H 298.444 3.71789 -5.29511 0
M  V30 3142 N 298.576 1.31904 0.862503 0
M  V30 3143 C 299.822 1.22197 1.61851 0
M  V30 3144 C 300.155 -0.217641 1.92977 0
M  V30 3145 O 299.43 -1.15264 1.56666 0
M  V30 3146 C 299.713 2.07378 2.94391 0
M  V30 3147 C 299.566 3.59678 2.70096 0
M  V30 3148 C 300.885 1.92891 3.95577 0
M  V30 3149 H 298.004 0.445255 0.587296 0
M  V30 3150 H 300.646 1.6177 0.99651 0
M  V30 3151 H 298.796 1.73758 3.47477 0
M  V30 3152 H 300.468 4.03472 2.23625 0
M  V30 3153 H 298.711 3.82735 2.04197 0
M  V30 3154 H 299.382 4.14595 3.64438 0
M  V30 3155 H 301.858 2.22327 3.51724 0
M  V30 3156 H 300.734 2.54781 4.86187 0
M  V30 3157 H 300.995 0.894315 4.3296 0
M  V30 3158 N 300.054 -1.07777 1.14986 0
M  V30 3159 C 301.017 -2.13041 0.845358 0
M  V30 3160 C 302.017 -1.60071 -0.152931 0
M  V30 3161 O 303.207 -1.74033 0.0761879 0
M  V30 3162 C 300.339 -3.39896 0.261383 0
M  V30 3163 H 301.532 -2.41485 1.77834 0
M  V30 3164 H 299.085 -1.23595 0.956757 0
M  V30 3165 H 299.82 -3.17091 -0.68 0
M  V30 3166 H 299.605 -3.79642 0.980514 0
M  V30 3167 H 301.095 -4.17548 0.0657687 0
M  V30 3168 N 301.532 -0.945985 -1.26051 0
M  V30 3169 C 302.943 -0.638096 -1.75457 0
M  V30 3170 C 303.294 0.846672 -1.76991 0
M  V30 3171 O 302.419 1.66262 -1.38513 0
M  V30 3172 C 303.014 -1.15157 -3.18629 0
M  V30 3173 C 301.573 -0.894004 -3.65629 0
M  V30 3174 C 300.72 -1.29967 -2.44957 0
M  V30 3175 H 303.671 -1.12376 -1.1206 0
M  V30 3176 H 303.692 -0.507615 -3.77099 0
M  V30 3177 H 303.204 -2.23222 -3.1748 0
M  V30 3178 H 301.305 0.172057 -3.72203 0
M  V30 3179 H 301.418 -1.52439 -4.54202 0
M  V30 3180 H 299.782 -0.718078 -2.44368 0
M  V30 3181 H 300.565 -2.38935 -2.46505 0
M  V30 3182 N 303.011 1.40521 -0.713556 0
M  V30 3183 C 303.941 2.33381 -0.0743864 0
M  V30 3184 C 304.922 1.52784 0.747735 0
M  V30 3185 O 306.107 1.81258 0.697071 0
M  V30 3186 C 303.237 3.36748 0.849598 0
M  V30 3187 C 302.191 4.27793 0.133247 0
M  V30 3188 C 301.517 5.21679 1.17281 0
M  V30 3189 C 302.817 5.12415 -1.01134 0
M  V30 3190 H 304.511 2.87081 -0.850007 0
M  V30 3191 H 302.057 1.38034 -0.410201 0
M  V30 3192 H 304.01 4.00648 1.30612 0
M  V30 3193 H 302.734 2.81439 1.65709 0
M  V30 3194 H 301.393 3.65342 -0.303426 0
M  V30 3195 H 301.041 4.62677 1.9733 0
M  V30 3196 H 300.741 5.83435 0.698397 0
M  V30 3197 H 302.265 5.88456 1.62947 0
M  V30 3198 H 303.679 5.69781 -0.634274 0
M  V30 3199 H 302.076 5.83203 -1.41399 0
M  V30 3200 H 303.146 4.48514 -1.84292 0
M  V30 3201 N 304.489 0.459591 1.5075 0
M  V30 3202 C 305.766 -0.160371 1.94941 0
M  V30 3203 C 306.146 -1.58048 1.39943 0
M  V30 3204 O 305.494 -2.206 0.595629 0
M  V30 3205 C 305.704 -0.115432 3.48809 0
M  V30 3206 C 307.052 -0.310026 4.23467 0
M  V30 3207 O 308.076 -0.192543 3.55679 0
M  V30 3208 O 306.935 -0.546031 5.43765 0
M  V30 3209 H 304.029 -0.117925 0.818549 0
M  V30 3210 H 306.575 0.519169 1.61563 0
M  V30 3211 H 305.347 0.87652 3.81357 0
M  V30 3212 H 304.97 -0.836928 3.88692 0
M  V30 3213 N 305.967 -1.56429 0.191757 0
M  V30 3214 C 307.197 -2.01574 -0.452928 0
M  V30 3215 C 307.605 -1.07107 -1.55964 0
M  V30 3216 O 306.948 -0.067534 -1.83576 0
M  V30 3217 C 307.01 -3.43121 -1.07278 0
M  V30 3218 C 306.674 -4.56879 -0.105214 0
M  V30 3219 C 307.671 -5.15379 0.684149 0
M  V30 3220 C 305.356 -5.023 0.00489824 0
M  V30 3221 C 307.35 -6.17746 1.57062 0
M  V30 3222 C 305.037 -6.04511 0.894935 0
M  V30 3223 C 306.035 -6.62108 1.67637 0
M  V30 3224 O 305.723 -7.62335 2.55149 0
M  V30 3225 H 305.455 -0.665554 -0.118379 0
M  V30 3226 H 308.009 -2.03245 0.296737 0
M  V30 3227 H 306.239 -3.38425 -1.87097 0
M  V30 3228 H 307.928 -3.72093 -1.62177 0
M  V30 3229 H 308.694 -4.81157 0.609365 0
M  V30 3230 H 304.573 -4.57168 -0.593156 0
M  V30 3231 H 308.117 -6.6263 2.181 0
M  V30 3232 H 304.014 -6.38157 0.970847 0
M  V30 3233 H 304.782 -7.79741 2.48892 0
M  V30 3234 N 307.445 0.0818655 -1.57387 0
M  V30 3235 C 308.694 0.781681 -1.85937 0
M  V30 3236 C 309.007 1.79246 -0.782957 0
M  V30 3237 O 310.213 2.54112 -0.955987 0
M  V30 3238 C 308.669 1.44109 -3.29789 0
M  V30 3239 C 308.277 0.469396 -4.45534 0
M  V30 3240 C 310.021 2.12386 -3.67549 0
M  V30 3241 C 307.928 1.13415 -5.80423 0
M  V30 3242 H 306.858 0.295682 -0.693605 0
M  V30 3243 H 309.509 0.0348051 -1.83467 0
M  V30 3244 H 307.891 2.23588 -3.2684 0
M  V30 3245 H 309.065 -0.294856 -4.59856 0
M  V30 3246 H 307.38 -0.108383 -4.16259 0
M  V30 3247 H 309.977 2.62878 -4.65617 0
M  V30 3248 H 310.32 2.91877 -2.96839 0
M  V30 3249 H 310.853 1.39751 -3.72444 0
M  V30 3250 H 307.592 0.379771 -6.54399 0
M  V30 3251 H 307.112 1.8695 -5.69921 0
M  V30 3252 H 308.791 1.65686 -6.25426 0
M  V30 3253 N 308.923 1.53595 0.353017 0
M  V30 3254 C 309.871 1.81605 1.45335 0
M  V30 3255 C 310.865 0.685923 1.54892 0
M  V30 3256 O 312.071 0.869095 1.57628 0
M  V30 3257 H 308.446 0.575204 0.484401 0
M  V30 3258 H 310.417 2.73679 1.18921 0
M  V30 3259 C 309.166 2.03406 2.81995 0
M  V30 3260 H 308.489 2.89814 2.75405 0
M  V30 3261 H 309.929 2.26975 3.58132 0
M  V30 3262 C 308.388 0.816794 3.26849 0
M  V30 3263 O 308.918 0.0115856 4.01698 0
M  V30 3264 N 307.124 0.636682 2.8354 0
M  V30 3265 H 306.671 1.2931 2.22793 0
M  V30 3266 H 306.629 -0.176336 3.13905 0
M  V30 3267 N 310.401 -0.613514 1.45168 0
M  V30 3268 C 311.331 -1.7354 1.56225 0
M  V30 3269 C 312.312 -1.64981 0.41414 0
M  V30 3270 O 313.497 -1.83472 0.636526 0
M  V30 3271 C 310.627 -3.12128 1.52295 0
M  V30 3272 C 309.581 -3.35491 2.65762 0
M  V30 3273 C 308.907 -4.74291 2.46885 0
M  V30 3274 C 310.207 -3.26325 4.0781 0
M  V30 3275 H 311.901 -1.64543 2.50132 0
M  V30 3276 H 309.447 -0.790185 1.20383 0
M  V30 3277 H 311.4 -3.90404 1.58628 0
M  V30 3278 H 310.124 -3.2195 0.549139 0
M  V30 3279 H 308.783 -2.59603 2.58847 0
M  V30 3280 H 308.431 -4.80839 1.47657 0
M  V30 3281 H 308.131 -4.9088 3.22972 0
M  V30 3282 H 309.655 -5.54775 2.55063 0
M  V30 3283 H 311.069 -3.94483 4.16 0
M  V30 3284 H 309.466 -3.54445 4.8424 0
M  V30 3285 H 310.536 -2.23855 4.30136 0
M  V30 3286 N 311.879 -1.3236 -0.855495 0
M  V30 3287 C 312.812 -1.15559 -1.96777 0
M  V30 3288 C 313.79 -0.0552681 -1.62506 0
M  V30 3289 O 314.974 -0.214419 -1.87277 0
M  V30 3290 C 312.101 -0.768851 -3.29858 0
M  V30 3291 C 311.147 -1.87429 -3.83109 0
M  V30 3292 S 311.98 -3.48243 -4.06801 0
M  V30 3293 C 313.136 -3.11539 -5.42858 0
M  V30 3294 H 313.369 -2.09717 -2.10727 0
M  V30 3295 H 310.902 -1.17011 -1.00737 0
M  V30 3296 H 312.86 -0.55248 -4.06765 0
M  V30 3297 H 311.521 0.153857 -3.13723 0
M  V30 3298 H 310.714 -1.55667 -4.79358 0
M  V30 3299 H 310.316 -2.04647 -3.13042 0
M  V30 3300 H 312.608 -2.61331 -6.2507 0
M  V30 3301 H 313.551 -4.06806 -5.79582 0
M  V30 3302 H 313.959 -2.48582 -5.06821 0
M  V30 3303 N 313.357 1.07166 -1.15556 0
M  V30 3304 C 314.585 1.83514 -0.955519 0
M  V30 3305 C 315 1.82163 0.49621 0
M  V30 3306 O 314.357 1.23441 1.34419 0
M  V30 3307 C 314.408 3.30515 -1.46432 0
M  V30 3308 O 314.129 3.31937 -2.85918 0
M  V30 3309 C 315.63 4.23625 -1.30603 0
M  V30 3310 H 312.85 0.578926 -0.339244 0
M  V30 3311 H 315.394 1.35265 -1.53374 0
M  V30 3312 H 313.549 3.76106 -0.928584 0
M  V30 3313 H 313.963 4.23794 -3.09029 0
M  V30 3314 H 315.437 5.24831 -1.71047 0
M  V30 3315 H 315.914 4.38485 -0.250441 0
M  V30 3316 H 316.52 3.83871 -1.83094 0
M  V30 3317 N 314.835 0.952656 1.25548 0
M  V30 3318 C 316.065 0.622592 1.96996 0
M  V30 3319 C 316.473 -0.809112 1.71026 0
M  V30 3320 O 315.816 -1.55258 0.981861 0
M  V30 3321 C 315.878 0.798946 3.5051 0
M  V30 3322 C 315.542 2.20744 4.00151 0
M  V30 3323 C 316.539 3.18394 4.11001 0
M  V30 3324 C 314.224 2.5311 4.33867 0
M  V30 3325 C 316.218 4.46504 4.54877 0
M  V30 3326 C 313.905 3.8145 4.7743 0
M  V30 3327 C 314.903 4.77959 4.87897 0
M  V30 3328 O 314.591 6.04012 5.30494 0
M  V30 3329 H 314.323 0.232503 0.634758 0
M  V30 3330 H 316.877 1.2789 1.60728 0
M  V30 3331 H 315.107 0.0854903 3.86605 0
M  V30 3332 H 316.796 0.47023 4.03167 0
M  V30 3333 H 317.562 2.94715 3.85186 0
M  V30 3334 H 313.441 1.78719 4.24948 0
M  V30 3335 H 316.985 5.21835 4.62962 0
M  V30 3336 H 312.882 4.04936 5.0269 0
M  V30 3337 H 313.65 6.0736 5.48685 0
M  V30 3338 N 316.313 -1.40141 0.720998 0
M  V30 3339 C 317.59 -1.94677 0.189757 0
M  V30 3340 C 317.97 -1.65879 -1.30566 0
M  V30 3341 O 317.318 -0.979391 -2.06447 0
M  V30 3342 C 317.528 -3.45279 0.508304 0
M  V30 3343 C 318.876 -4.22209 0.449934 0
M  V30 3344 O 319.9 -3.53413 0.444677 0
M  V30 3345 O 318.759 -5.44788 0.432189 0
M  V30 3346 H 315.853 -0.826459 0.0299026 0
M  V30 3347 H 318.399 -1.49719 0.7989 0
M  V30 3348 H 317.171 -3.59619 1.54239 0
M  V30 3349 H 316.794 -3.97386 -0.130525 0
M  V30 3350 N 317.792 -0.46758 -1.50504 0
M  V30 3351 C 318.722 0.318381 -2.31319 0
M  V30 3352 C 319.703 0.993564 -1.38066 0
M  V30 3353 O 320.888 0.991411 -1.66987 0
M  V30 3354 C 318.018 1.40275 -3.17711 0
M  V30 3355 C 316.972 0.849373 -4.19487 0
M  V30 3356 C 316.298 2.03177 -4.94594 0
M  V30 3357 C 317.598 -0.136942 -5.2212 0
M  V30 3358 H 319.292 -0.356106 -2.97275 0
M  V30 3359 H 316.838 -0.172703 -1.42961 0
M  V30 3360 H 318.791 1.96004 -3.73042 0
M  V30 3361 H 317.515 2.10596 -2.49634 0
M  V30 3362 H 316.174 0.314076 -3.65252 0
M  V30 3363 H 315.822 2.72187 -4.22993 0
M  V30 3364 H 315.522 1.66774 -5.63436 0
M  V30 3365 H 317.046 2.59403 -5.52759 0
M  V30 3366 H 318.46 0.331056 -5.72343 0
M  V30 3367 H 316.857 -0.41507 -5.98663 0
M  V30 3368 H 317.927 -1.06398 -4.73083 0
M  V30 3369 N 319.27 1.56325 -0.20005 0
M  V30 3370 C 320.233 2.18084 0.705132 0
M  V30 3371 C 321.233 1.13666 1.1374 0
M  V30 3372 O 322.423 1.39023 1.04968 0
M  V30 3373 C 319.555 2.78689 1.96329 0
M  V30 3374 H 320.748 2.99435 0.167023 0
M  V30 3375 H 318.301 1.56221 0.0495725 0
M  V30 3376 H 319.036 2.0115 2.5438 0
M  V30 3377 H 318.821 3.55133 1.66202 0
M  V30 3378 H 320.311 3.26096 2.60866 0
M  V30 3379 N 320.748 -0.0735177 1.57428 0
M  V30 3380 C 321.996 -0.771472 1.86796 0
M  V30 3381 C 322.317 -1.78201 0.791804 0
M  V30 3382 O 321.587 -1.95074 -0.179718 0
M  V30 3383 H 320.167 -0.28791 0.689287 0
M  V30 3384 H 322.829 -0.0500161 1.94836 0
M  V30 3385 H 321.925 -1.28874 2.8425 0
M  V30 3386 N 322.226 -1.5378 -0.344866 0
M  V30 3387 C 323.637 -1.62428 -0.920552 0
M  V30 3388 C 323.988 -0.504747 -1.89596 0
M  V30 3389 O 323.113 0.365711 -2.13287 0
M  V30 3390 C 323.708 -2.94419 -1.67639 0
M  V30 3391 C 322.267 -3.05333 -2.20111 0
M  V30 3392 C 321.414 -2.57866 -1.01982 0
M  V30 3393 H 324.365 -1.58222 -0.123042 0
M  V30 3394 H 324.386 -2.83384 -2.53917 0
M  V30 3395 H 323.898 -3.7588 -0.966224 0
M  V30 3396 H 321.999 -2.28502 -2.94308 0
M  V30 3397 H 322.112 -4.10778 -2.46573 0
M  V30 3398 H 320.476 -2.13241 -1.39285 0
M  V30 3399 H 321.259 -3.41765 -0.324308 0
M  V30 3400 N 323.704 0.605807 -1.45491 0
M  V30 3401 C 324.95 1.36481 -1.50813 0
M  V30 3402 C 325.305 1.91826 -0.148469 0
M  V30 3403 O 324.598 1.72211 0.839869 0
M  V30 3404 C 324.792 2.53012 -2.52428 0
M  V30 3405 C 324.621 2.09078 -3.98141 0
M  V30 3406 C 323.391 1.95167 -4.66088 0
M  V30 3407 C 325.589 1.66438 -4.86624 0
M  V30 3408 N 323.571 1.45062 -5.96515 0
M  V30 3409 C 324.942 1.27761 -6.06694 0
M  V30 3410 C 326.997 1.54046 -4.7347 0
M  V30 3411 C 325.7 0.779286 -7.15066 0
M  V30 3412 C 327.726 1.05618 -5.81892 0
M  V30 3413 C 327.088 0.67906 -7.01119 0
M  V30 3414 H 323.187 0.493267 -0.606805 0
M  V30 3415 H 325.771 0.692347 -1.81974 0
M  V30 3416 H 323.942 3.17851 -2.23215 0
M  V30 3417 H 325.674 3.19897 -2.47887 0
M  V30 3418 H 322.429 2.16407 -4.21266 0
M  V30 3419 H 322.853 1.22237 -6.65873 0
M  V30 3420 H 327.495 1.81827 -3.81705 0
M  V30 3421 H 325.213 0.489026 -8.06619 0
M  V30 3422 H 328.799 0.964529 -5.73749 0
M  V30 3423 H 327.679 0.310091 -7.83587 0
M  V30 3424 N 325.182 1.32811 0.848464 0
M  V30 3425 C 326.092 1.24278 1.98978 0
M  V30 3426 C 327.108 0.155176 1.73307 0
M  V30 3427 O 328.284 0.376999 1.9784 0
M  V30 3428 C 325.349 0.972444 3.32783 0
M  V30 3429 C 324.41 2.14911 3.71634 0
M  V30 3430 C 323.643 1.89157 4.99054 0
M  V30 3431 O 323.866 0.837165 5.64223 0
M  V30 3432 O 322.8 2.75433 5.35183 0
M  V30 3433 H 326.626 2.20238 2.09115 0
M  V30 3434 H 324.211 1.12762 0.980052 0
M  V30 3435 H 326.093 0.838432 4.12975 0
M  V30 3436 H 324.768 0.043051 3.23671 0
M  V30 3437 H 323.675 2.33862 2.91992 0
M  V30 3438 H 325.008 3.06151 3.85399 0
M  V30 3439 N 326.66 -1.06551 1.16123 0
M  V30 3440 C 327.607 -2.13961 0.865414 0
M  V30 3441 C 328.577 -1.65066 -0.185055 0
M  V30 3442 O 329.762 -1.90732 -0.05083 0
M  V30 3443 C 326.902 -3.43113 0.369776 0
M  V30 3444 C 326.015 -4.05756 1.48276 0
M  V30 3445 C 325.15 -5.22773 0.942414 0
M  V30 3446 C 324.189 -5.77395 2.03179 0
M  V30 3447 N 323.326 -6.85731 1.50721 0
M  V30 3448 H 328.166 -2.38605 1.78527 0
M  V30 3449 H 325.703 -1.17072 0.890646 0
M  V30 3450 H 327.661 -4.17151 0.0640643 0
M  V30 3451 H 326.291 -3.18695 -0.513143 0
M  V30 3452 H 325.343 -3.29292 1.9045 0
M  V30 3453 H 326.655 -4.42351 2.30493 0
M  V30 3454 H 325.809 -6.03827 0.589729 0
M  V30 3455 H 324.548 -4.87618 0.0895191 0
M  V30 3456 H 323.553 -4.94981 2.3932 0
M  V30 3457 H 324.778 -6.14603 2.8886 0
M  V30 3458 H 322.724 -6.52499 0.676811 0
M  V30 3459 H 322.641 -7.21254 2.26557 0
M  V30 3460 H 323.909 -7.7047 1.18303 0
M  V30 3461 N 328.138 -0.959301 -1.25041 0
M  V30 3462 C 329.387 -0.612254 -1.92183 0
M  V30 3463 C 329.7 0.855347 -1.75907 0
M  V30 3464 O 330.906 1.31256 -2.37664 0
M  V30 3465 C 329.362 -1.04435 -3.44414 0
M  V30 3466 C 328.97 -2.53482 -3.69393 0
M  V30 3467 C 330.714 -0.770055 -4.17457 0
M  V30 3468 C 328.621 -2.90468 -5.15153 0
M  V30 3469 H 327.551 -0.225279 -0.719559 0
M  V30 3470 H 330.202 -1.16438 -1.41825 0
M  V30 3471 H 328.584 -0.4206 -3.9376 0
M  V30 3472 H 329.758 -3.20916 -3.30681 0
M  V30 3473 H 328.073 -2.78432 -3.0962 0
M  V30 3474 H 330.67 -1.02249 -5.24832 0
M  V30 3475 H 331.013 0.293611 -4.15263 0
M  V30 3476 H 331.546 -1.35437 -3.74034 0
M  V30 3477 H 328.285 -3.95871 -5.22462 0
M  V30 3478 H 327.805 -2.27711 -5.54894 0
M  V30 3479 H 329.484 -2.79914 -5.83315 0
M  V30 3480 N 329.616 1.39756 -0.72842 0
M  V30 3481 C 330.844 2.04948 -0.283528 0
M  V30 3482 C 331.259 1.54908 1.0793 0
M  V30 3483 O 330.616 0.711135 1.68075 0
M  V30 3484 C 330.667 3.60498 -0.268957 0
M  V30 3485 O 330.388 4.08695 -1.57798 0
M  V30 3486 C 331.889 4.4288 0.192912 0
M  V30 3487 H 329.109 0.659243 -0.125056 0
M  V30 3488 H 331.653 1.78927 -0.990226 0
M  V30 3489 H 329.808 3.85444 0.388801 0
M  V30 3490 H 330.222 5.02977 -1.48709 0
M  V30 3491 H 331.696 5.51791 0.151952 0
M  V30 3492 H 332.173 4.21418 1.23708 0
M  V30 3493 H 332.779 4.23069 -0.435039 0
M  V30 3494 N 331.094 0.475555 1.50254 0
M  V30 3495 C 332.042 -0.330276 2.30243 0
M  V30 3496 C 333.036 -0.986306 1.37726 0
M  V30 3497 O 334.242 -0.9169 1.54897 0
M  V30 3498 H 330.617 -0.125353 0.741479 0
M  V30 3499 H 332.588 0.364702 2.96163 0
M  V30 3500 C 331.337 -1.39704 3.18399 0
M  V30 3501 H 330.66 -0.901621 3.89501 0
M  V30 3502 H 332.1 -1.93336 3.77355 0
M  V30 3503 C 330.559 -2.4014 2.36293 0
M  V30 3504 O 331.089 -3.45504 2.04914 0
M  V30 3505 N 329.295 -2.1197 1.98789 0
M  V30 3506 H 328.842 -1.2631 2.24507 0
M  V30 3507 H 328.8 -2.79403 1.44157 0
M  V30 3508 N 332.573 -1.56217 0.208337 0
M  V30 3509 C 333.523 -2.16324 -0.720281 0
M  V30 3510 C 334.507 -1.10775 -1.16695 0
M  V30 3511 O 335.699 -1.36801 -1.12314 0
M  V30 3512 C 332.828 -2.83644 -1.93393 0
M  V30 3513 C 331.914 -3.96401 -1.50755 0
M  V30 3514 N 332.305 -4.99546 -0.792937 0
M  V30 3515 C 330.603 -4.08246 -1.79585 0
M  V30 3516 C 331.304 -5.78828 -0.577364 0
M  V30 3517 N 330.28 -5.31723 -1.1301 0
M  V30 3518 H 334.082 -2.93432 -0.165725 0
M  V30 3519 H 331.596 -1.62397 0.00906463 0
M  V30 3520 H 333.593 -3.25107 -2.60981 0
M  V30 3521 H 332.253 -2.08027 -2.49308 0
M  V30 3522 H 333.264 -5.15967 -0.447004 0
M  V30 3523 H 329.941 -3.4377 -2.36915 0
M  V30 3524 H 331.331 -6.71899 -0.00952956 0
M  V30 3525 N 334.051 0.0651679 -1.57465 0
M  V30 3526 C 334.983 1.10359 -2.00882 0
M  V30 3527 C 335.996 1.346 -0.915788 0
M  V30 3528 O 337.185 1.32723 -1.1936 0
M  V30 3529 C 334.285 2.45312 -2.33828 0
M  V30 3530 C 333.458 2.40934 -3.65061 0
M  V30 3531 C 332.517 3.58047 -3.85602 0
M  V30 3532 O 331.543 3.39175 -4.57109 0
M  V30 3533 N 332.745 4.78637 -3.28462 0
M  V30 3534 H 335.51 0.733807 -2.90578 0
M  V30 3535 H 333.071 0.253719 -1.599 0
M  V30 3536 H 335.063 3.22314 -2.44737 0
M  V30 3537 H 333.633 2.74267 -1.49988 0
M  V30 3538 H 332.853 1.49273 -3.64844 0
M  V30 3539 H 334.141 2.35117 -4.51218 0
M  V30 3540 H 333.539 4.96872 -2.70433 0
M  V30 3541 H 332.096 5.53127 -3.44809 0
M  V30 3542 N 335.529 1.53961 0.336706 0
M  V30 3543 C 336.492 1.81724 1.39675 0
M  V30 3544 C 337.492 0.688532 1.45313 0
M  V30 3545 O 338.682 0.956829 1.45569 0
M  V30 3546 C 335.814 1.96543 2.78538 0
M  V30 3547 H 337.007 2.76424 1.16318 0
M  V30 3548 H 334.56 1.45478 0.571474 0
M  V30 3549 H 335.295 1.0401 3.07168 0
M  V30 3550 H 335.08 2.78665 2.75841 0
M  V30 3551 H 336.57 2.19516 3.5525 0
M  V30 3552 N 337.007 -0.598083 1.45811 0
M  V30 3553 C 337.97 -1.69018 1.54808 0
M  V30 3554 C 338.97 -1.55037 0.426652 0
M  V30 3555 O 340.16 -1.59932 0.690456 0
M  V30 3556 C 337.292 -3.0835 1.45371 0
M  V30 3557 H 338.485 -1.62403 2.52121 0
M  V30 3558 H 336.038 -0.814626 1.33392 0
M  V30 3559 H 336.773 -3.20534 0.492793 0
M  V30 3560 H 336.558 -3.19907 2.26721 0
M  V30 3561 H 338.048 -3.8788 1.54721 0
M  V30 3562 N 338.485 -1.33259 -0.841409 0
M  V30 3563 C 339.415 -1.25926 -1.96634 0
M  V30 3564 C 340.396 -0.140349 -1.6952 0
M  V30 3565 O 341.581 -0.329707 -1.91381 0
M  V30 3566 C 338.711 -0.99512 -3.32738 0
M  V30 3567 C 337.665 -2.0767 -3.74242 0
M  V30 3568 C 336.991 -1.66474 -5.08125 0
M  V30 3569 C 338.291 -3.49318 -3.88297 0
M  V30 3570 H 339.985 -2.20046 -2.03027 0
M  V30 3571 H 337.531 -1.05931 -0.975425 0
M  V30 3572 H 339.484 -0.930323 -4.11002 0
M  V30 3573 H 338.208 -0.0183004 -3.26595 0
M  V30 3574 H 336.867 -2.13187 -2.98239 0
M  V30 3575 H 336.515 -0.675012 -4.9845 0
M  V30 3576 H 336.215 -2.3885 -5.36865 0
M  V30 3577 H 337.739 -1.61455 -5.88867 0
M  V30 3578 H 339.153 -3.46316 -4.56879 0
M  V30 3579 H 337.55 -4.20158 -4.28471 0
M  V30 3580 H 338.62 -3.8801 -2.9082 0
M  V30 3581 N 339.963 1.05934 -1.16686 0
M  V30 3582 C 341.21 1.788 -0.950622 0
M  V30 3583 C 341.538 1.87384 0.521305 0
M  V30 3584 O 340.793 1.36438 1.40297 0
M  V30 3585 C 341.092 3.23105 -1.52767 0
M  V30 3586 C 340.758 3.34594 -3.02254 0
M  V30 3587 C 339.42 3.37437 -3.43059 0
M  V30 3588 C 341.772 3.36219 -3.98254 0
M  V30 3589 C 339.1 3.39525 -4.78477 0
M  V30 3590 C 341.452 3.39845 -5.33562 0
M  V30 3591 C 340.116 3.40971 -5.73842 0
M  V30 3592 H 339.386 0.654275 -0.347857 0
M  V30 3593 H 342.033 1.24555 -1.45459 0
M  V30 3594 H 340.338 3.80227 -0.94524 0
M  V30 3595 H 342.035 3.7809 -1.336 0
M  V30 3596 H 338.625 3.3309 -2.6972 0
M  V30 3597 H 342.809 3.33231 -3.67792 0
M  V30 3598 H 338.065 3.38703 -5.09009 0
M  V30 3599 H 342.239 3.4005 -6.07733 0
M  V30 3600 H 339.866 3.42342 -6.78753 0
M  V30 3601 N 341.441 0.965919 1.2453 0
M  V30 3602 C 342.689 0.625593 1.92174 0
M  V30 3603 C 343.01 -0.841652 1.75901 0
M  V30 3604 O 342.28 -1.60061 1.12948 0
M  V30 3605 H 340.86 0.228388 0.71123 0
M  V30 3606 H 343.522 1.2266 1.51461 0
M  V30 3607 H 342.618 0.864653 2.99884 0
M  V30 3608 N 342.919 -1.39368 0.735821 0
M  V30 3609 C 344.196 -1.94465 0.210395 0
M  V30 3610 C 344.576 -1.67254 -1.28799 0
M  V30 3611 O 343.924 -1.00123 -2.05396 0
M  V30 3612 C 344.134 -3.4472 0.544897 0
M  V30 3613 C 345.482 -4.21708 0.494689 0
M  V30 3614 O 346.506 -3.52922 0.482136 0
M  V30 3615 O 345.365 -5.44299 0.489947 0
M  V30 3616 H 342.459 -0.826096 0.0386666 0
M  V30 3617 H 345.005 -1.48863 0.814735 0
M  V30 3618 H 343.777 -3.57963 1.58045 0
M  V30 3619 H 343.4 -3.97502 -0.08837 0
M  V30 3620 N 344.397 -0.483516 -1.5 0
M  V30 3621 C 345.36 0.292965 -2.2732 0
M  V30 3622 C 346.36 0.909499 -1.32608 0
M  V30 3623 O 347.55 0.776745 -1.55924 0
M  V30 3624 C 344.682 1.41854 -3.09984 0
M  V30 3625 H 345.875 -0.385289 -2.97415 0
M  V30 3626 H 343.428 -0.237942 -1.54478 0
M  V30 3627 H 344.163 2.13148 -2.44414 0
M  V30 3628 H 343.948 0.982114 -3.79601 0
M  V30 3629 H 345.438 1.96597 -3.68429 0
M  V30 3630 N 345.875 1.56104 -0.216619 0
M  V30 3631 C 346.838 2.18819 0.681962 0
M  V30 3632 C 347.838 1.14866 1.12528 0
M  V30 3633 O 349.028 1.40128 1.03488 0
M  V30 3634 C 346.16 2.80756 1.93362 0
M  V30 3635 H 347.353 2.99595 0.135254 0
M  V30 3636 H 344.906 1.56265 0.0330003 0
M  V30 3637 H 345.641 2.03837 2.52232 0
M  V30 3638 H 345.426 3.56876 1.62426 0
M  V30 3639 H 346.916 3.28844 2.57393 0
M  V30 3640 N 347.353 -0.0568162 1.57498 0
M  V30 3641 C 348.601 -0.751617 1.87604 0
M  V30 3642 C 348.922 -1.77351 0.81066 0
M  V30 3643 O 348.192 -1.95254 -0.159018 0
M  V30 3644 H 346.772 -0.280583 0.692302 0
M  V30 3645 H 349.434 -0.0293483 1.94878 0
M  V30 3646 H 348.53 -1.25852 2.856 0
M  V30 3647 N 348.832 -1.54138 -0.328536 0
M  V30 3648 C 350.243 -1.63395 -0.903272 0
M  V30 3649 C 350.594 -0.524828 -1.8905 0
M  V30 3650 O 349.719 0.343068 -2.13663 0
M  V30 3651 C 350.314 -2.9618 -1.64507 0
M  V30 3652 C 348.873 -3.0765 -2.1686 0
M  V30 3653 C 348.02 -2.58933 -0.992416 0
M  V30 3654 H 350.971 -1.58344 -0.106253 0
M  V30 3655 H 350.992 -2.86061 -2.50897 0
M  V30 3656 H 350.504 -3.76884 -0.926302 0
M  V30 3657 H 348.605 -2.31611 -2.91868 0
M  V30 3658 H 348.718 -4.1337 -2.42202 0
M  V30 3659 H 347.082 -2.14706 -1.37016 0
M  V30 3660 H 347.865 -3.42089 -0.288041 0
M  V30 3661 N 350.31 0.590341 -1.46126 0
M  V30 3662 C 351.538 1.37504 -1.54597 0
M  V30 3663 C 351.953 1.87897 -0.184447 0
M  V30 3664 O 351.31 1.63192 0.816984 0
M  V30 3665 C 351.361 2.56779 -2.54454 0
M  V30 3666 O 351.082 2.08476 -3.85317 0
M  V30 3667 C 352.583 3.49427 -2.72792 0
M  V30 3668 H 349.803 0.420325 -0.523037 0
M  V30 3669 H 352.347 0.718383 -1.91467 0
M  V30 3670 H 350.502 3.1845 -2.20609 0
M  V30 3671 H 350.916 2.86097 -4.396 0
M  V30 3672 H 352.39 4.29619 -3.466 0
M  V30 3673 H 352.867 4.00876 -1.79429 0
M  V30 3674 H 353.473 2.93598 -3.07702 0
M  V30 3675 N 351.788 1.33704 0.83433 0
M  V30 3676 C 353.035 1.25417 1.58987 0
M  V30 3677 C 353.363 -0.178869 1.93676 0
M  V30 3678 O 352.618 -1.13723 1.59265 0
M  V30 3679 C 352.917 2.07926 2.90692 0
M  V30 3680 C 352.583 3.57066 2.75345 0
M  V30 3681 C 351.245 3.97724 2.70867 0
M  V30 3682 C 353.597 4.51817 2.59828 0
M  V30 3683 C 350.925 5.31344 2.48778 0
M  V30 3684 C 353.277 5.85604 2.39272 0
M  V30 3685 C 351.941 6.25439 2.33199 0
M  V30 3686 H 351.211 0.458934 0.581774 0
M  V30 3687 H 353.858 1.65335 0.966261 0
M  V30 3688 H 352.163 1.608 3.57282 0
M  V30 3689 H 353.86 1.98868 3.48213 0
M  V30 3690 H 350.45 3.24785 2.79665 0
M  V30 3691 H 354.634 4.21311 2.62319 0
M  V30 3692 H 349.89 5.61241 2.42526 0
M  V30 3693 H 354.064 6.58623 2.2625 0
M  V30 3694 H 351.691 7.28914 2.15843 0
M  V30 3695 N 353.266 -1.05314 1.17247 0
M  V30 3696 C 354.496 -1.81707 0.983166 0
M  V30 3697 C 354.904 -1.83222 -0.471822 0
M  V30 3698 O 354.247 -1.25721 -1.3394 0
M  V30 3699 C 354.309 -3.29134 1.44606 0
M  V30 3700 C 353.973 -3.51304 2.92292 0
M  V30 3701 C 354.97 -3.4353 3.90235 0
M  V30 3702 C 352.655 -3.78306 3.30439 0
M  V30 3703 C 354.649 -3.62442 5.24323 0
M  V30 3704 C 352.336 -3.96866 4.64694 0
M  V30 3705 C 353.334 -3.88933 5.61445 0
M  V30 3706 O 353.022 -4.06976 6.93272 0
M  V30 3707 H 352.754 -0.579476 0.348114 0
M  V30 3708 H 355.308 -1.33705 1.55924 0
M  V30 3709 H 353.538 -3.78046 0.813537 0
M  V30 3710 H 355.227 -3.87049 1.22262 0
M  V30 3711 H 355.993 -3.22648 3.62109 0
M  V30 3712 H 351.872 -3.83585 2.55702 0
M  V30 3713 H 355.416 -3.56165 5.99827 0
M  V30 3714 H 351.313 -4.1724 4.92525 0
M  V30 3715 H 352.081 -4.24209 6.99992 0
M  V30 3716 N 354.744 -0.972509 -1.24016 0
M  V30 3717 C 355.692 -0.498562 -2.27194 0
M  V30 3718 C 356.686 0.440372 -1.63576 0
M  V30 3719 O 357.892 0.315133 -1.7722 0
M  V30 3720 H 354.267 -0.142775 -0.738322 0
M  V30 3721 H 356.238 -1.38065 -2.64539 0
M  V30 3722 C 354.987 0.191072 -3.47175 0
M  V30 3723 H 354.31 -0.522318 -3.96373 0
M  V30 3724 H 355.75 0.486445 -4.212 0
M  V30 3725 C 354.209 1.41967 -3.05527 0
M  V30 3726 O 354.739 2.51642 -3.13112 0
M  V30 3727 N 352.945 1.28746 -2.60524 0
M  V30 3728 H 352.492 0.395089 -2.54552 0
M  V30 3729 H 352.45 2.11061 -2.33025 0
M  V30 3730 N 356.222 1.38976 -0.743202 0
M  V30 3731 C 357.185 2.28901 -0.117014 0
M  V30 3732 C 358.185 1.46698 0.658503 0
M  V30 3733 O 359.375 1.67274 0.486305 0
M  V30 3734 C 356.507 3.30309 0.84315 0
M  V30 3735 H 357.7 2.8578 -0.909373 0
M  V30 3736 H 355.253 1.47761 -0.509547 0
M  V30 3737 H 355.988 2.785 1.66157 0
M  V30 3738 H 355.773 3.91029 0.289594 0
M  V30 3739 H 357.263 3.97577 1.2776 0
M  V30 3740 N 357.7 0.491464 1.49741 0
M  V30 3741 C 358.63 -0.28154 2.31796 0
M  V30 3742 C 359.611 -0.971473 1.3963 0
M  V30 3743 O 360.796 -0.964719 1.68543 0
M  V30 3744 C 357.926 -1.35203 3.19902 0
M  V30 3745 C 356.88 -0.782529 4.20786 0
M  V30 3746 C 356.206 -1.95283 4.97764 0
M  V30 3747 C 357.506 0.21999 5.21837 0
M  V30 3748 H 359.2 0.403355 2.96671 0
M  V30 3749 H 356.746 0.195425 1.42668 0
M  V30 3750 H 358.699 -1.90045 3.76113 0
M  V30 3751 H 357.423 -2.06598 2.52953 0
M  V30 3752 H 356.082 -0.255928 3.65706 0
M  V30 3753 H 355.73 -2.65423 4.2727 0
M  V30 3754 H 355.43 -1.57789 5.66018 0
M  V30 3755 H 356.954 -2.50577 5.56816 0
M  V30 3756 H 358.368 -0.23996 5.72798 0
M  V30 3757 H 356.765 0.51026 5.97927 0
M  V30 3758 H 357.835 1.13911 4.7133 0
M  V30 3759 N 359.178 -1.55987 0.224894 0
M  V30 3760 C 360.594 -1.59066 -0.130426 0
M  V30 3761 C 360.794 -1.24176 -1.5869 0
M  V30 3762 O 359.85 -0.978592 -2.32766 0
M  V30 3763 C 361.163 -3.00042 0.198883 0
M  V30 3764 C 362.711 -3.1268 0.141391 0
M  V30 3765 C 363.186 -4.55839 0.444422 0
M  V30 3766 N 364.677 -4.6152 0.394115 0
M  V30 3767 C 365.412 -5.70231 0.602038 0
M  V30 3768 N 364.908 -6.87291 0.871914 0
M  V30 3769 N 366.701 -5.59555 0.534245 0
M  V30 3770 H 358.852 -1.76941 1.17497 0
M  V30 3771 H 361.115 -0.822604 0.471197 0
M  V30 3772 H 360.821 -3.30234 1.2099 0
M  V30 3773 H 360.695 -3.74075 -0.484535 0
M  V30 3774 H 363.082 -2.82283 -0.860265 0
M  V30 3775 H 363.163 -2.40969 0.858335 0
M  V30 3776 H 362.807 -4.86954 1.44353 0
M  V30 3777 H 362.737 -5.2578 -0.293752 0
M  V30 3778 H 365.228 -3.77405 0.193356 0
M  V30 3779 H 365.541 -7.66058 1.01858 0
M  V30 3780 H 363.886 -6.89028 0.909145 0
M  V30 3781 H 367.077 -4.6698 0.323612 0
M  V30 3782 H 367.25 -6.44211 0.699693 0
M  V30 3783 N 360.656 0.0484629 -1.57525 0
M  V30 3784 C 361.566 1.07241 -2.08654 0
M  V30 3785 C 362.582 1.409 -1.02095 0
M  V30 3786 O 363.758 1.50609 -1.33712 0
M  V30 3787 C 360.823 2.36008 -2.5397 0
M  V30 3788 C 359.884 2.09108 -3.7493 0
M  V30 3789 C 359.117 3.31736 -4.18075 0
M  V30 3790 O 359.34 4.41714 -3.60895 0
M  V30 3791 O 358.274 3.18576 -5.10679 0
M  V30 3792 H 362.1 0.667965 -2.96263 0
M  V30 3793 H 359.685 0.26417 -1.47046 0
M  V30 3794 H 361.567 3.11747 -2.83535 0
M  V30 3795 H 360.242 2.75786 -1.69481 0
M  V30 3796 H 359.149 1.31 -3.50414 0
M  V30 3797 H 360.482 1.74198 -4.60343 0
M  V30 3798 N 362.134 1.5431 0.320358 0
M  V30 3799 C 363.097 1.83195 1.3774 0
M  V30 3800 C 364.097 0.703906 1.44575 0
M  V30 3801 O 365.287 0.972214 1.44546 0
M  V30 3802 C 362.419 1.99487 2.76438 0
M  V30 3803 H 363.612 2.77642 1.1338 0
M  V30 3804 H 361.165 1.46076 0.556012 0
M  V30 3805 H 361.9 1.07262 3.06048 0
M  V30 3806 H 361.685 2.81575 2.7287 0
M  V30 3807 H 363.175 2.23271 3.52902 0
M  V30 3808 N 363.613 -0.582584 1.46437 0
M  V30 3809 C 364.561 -1.71272 1.5738 0
M  V30 3810 C 365.555 -1.63524 0.44229 0
M  V30 3811 O 366.761 -1.69016 0.619166 0
M  V30 3812 H 363.136 -0.566273 0.494813 0
M  V30 3813 H 365.107 -1.59174 2.52401 0
M  V30 3814 C 363.856 -3.09658 1.58136 0
M  V30 3815 H 363.179 -3.16291 2.44541 0
M  V30 3816 H 364.619 -3.88494 1.69847 0
M  V30 3817 C 363.078 -3.3547 0.310026 0
M  V30 3818 O 363.608 -3.97199 -0.599683 0
M  V30 3819 N 361.814 -2.89925 0.197901 0
M  V30 3820 H 361.361 -2.39873 0.93909 0
M  V30 3821 H 361.319 -3.07568 -0.65185 0
M  V30 3822 N 365.091 -1.34144 -0.827227 0
M  V30 3823 C 366.021 -1.28005 -1.95287 0
M  V30 3824 C 367.002 -0.158321 -1.69362 0
M  V30 3825 O 368.187 -0.349987 -1.9102 0
M  V30 3826 C 365.317 -1.03036 -3.31664 0
M  V30 3827 C 364.271 -2.11628 -3.72019 0
M  V30 3828 C 363.597 -1.71854 -5.0633 0
M  V30 3829 C 364.897 -3.53417 -3.8457 0
M  V30 3830 H 366.591 -2.22187 -2.00682 0
M  V30 3831 H 364.137 -1.0696 -0.964135 0
M  V30 3832 H 366.09 -0.973863 -4.09993 0
M  V30 3833 H 364.814 -0.0529391 -3.26557 0
M  V30 3834 H 363.473 -2.16339 -2.95961 0
M  V30 3835 H 363.121 -0.727841 -4.97706 0
M  V30 3836 H 362.821 -2.44531 -5.34302 0
M  V30 3837 H 364.345 -1.67692 -5.87122 0
M  V30 3838 H 365.759 -3.51142 -4.5318 0
M  V30 3839 H 364.156 -4.24679 -4.2399 0
M  V30 3840 H 365.226 -3.91072 -2.86689 0
M  V30 3841 N 366.569 1.04691 -1.17803 0
M  V30 3842 C 367.817 1.7743 -0.967617 0
M  V30 3843 C 368.138 1.88359 0.504574 0
M  V30 3844 O 367.408 1.40402 1.36617 0
M  V30 3845 H 365.988 0.657242 -0.355024 0
M  V30 3846 H 368.65 1.2638 -1.48371 0
M  V30 3847 H 367.746 2.78924 -1.40027 0
M  V30 3848 N 368.047 0.979072 1.23499 0
M  V30 3849 C 369.293 0.6578 1.9247 0
M  V30 3850 C 369.648 -0.799746 1.74991 0
M  V30 3851 O 368.941 -1.56922 1.09937 0
M  V30 3852 C 369.135 0.981932 3.43646 0
M  V30 3853 C 368.964 2.46944 3.75831 0
M  V30 3854 C 367.734 3.13119 3.96591 0
M  V30 3855 C 369.932 3.45006 3.81412 0
M  V30 3856 N 367.914 4.51489 4.15969 0
M  V30 3857 C 369.285 4.68778 4.05768 0
M  V30 3858 C 371.34 3.39505 3.64198 0
M  V30 3859 C 370.043 5.87723 4.14697 0
M  V30 3860 C 372.069 4.57814 3.7438 0
M  V30 3861 C 371.431 5.80381 3.99171 0
M  V30 3862 H 367.53 0.291746 0.72554 0
M  V30 3863 H 370.114 1.25626 1.48749 0
M  V30 3864 H 368.285 0.412179 3.86207 0
M  V30 3865 H 370.017 0.618068 3.99953 0
M  V30 3866 H 366.772 2.63619 3.93449 0
M  V30 3867 H 367.196 5.23221 4.29615 0
M  V30 3868 H 371.838 2.45773 3.44029 0
M  V30 3869 H 369.556 6.81874 4.33675 0
M  V30 3870 H 373.142 4.55132 3.62417 0
M  V30 3871 H 372.022 6.70398 4.06861 0
M  V30 3872 N 369.525 -1.3858 0.750561 0
M  V30 3873 C 370.75 -2.04997 0.314812 0
M  V30 3874 C 371.175 -1.56235 -1.04749 0
M  V30 3875 O 370.533 -0.712981 -1.66692 0
M  V30 3876 C 370.581 -3.58961 0.343415 0
M  V30 3877 O 369.685 -4.07025 -0.663628 0
M  V30 3878 H 369.026 -0.649081 0.139962 0
M  V30 3879 H 371.556 -1.77313 1.02084 0
M  V30 3880 H 371.566 -4.07542 0.193233 0
M  V30 3881 H 370.241 -3.93811 1.33738 0
M  V30 3882 H 368.818 -3.6982 -0.478307 0
M  V30 3883 N 371.003 -0.499398 -1.49478 0
M  V30 3884 C 372.249 0.0377587 -2.03365 0
M  V30 3885 C 372.604 1.3484 -1.37244 0
M  V30 3886 O 371.897 1.85 -0.498547 0
M  V30 3887 C 372.091 0.248424 -3.56536 0
M  V30 3888 C 371.92 -1.04025 -4.37503 0
M  V30 3889 C 370.69 -1.59159 -4.79579 0
M  V30 3890 C 372.888 -1.9431 -4.76181 0
M  V30 3891 N 370.87 -2.82634 -5.44969 0
M  V30 3892 C 372.241 -3.02364 -5.41272 0
M  V30 3893 C 374.296 -1.95008 -4.58123 0
M  V30 3894 C 372.999 -4.1114 -5.90217 0
M  V30 3895 C 375.025 -3.02758 -5.08027 0
M  V30 3896 C 374.387 -4.09531 -5.73118 0
M  V30 3897 H 370.486 -0.026923 -0.781536 0
M  V30 3898 H 373.07 -0.673901 -1.82665 0
M  V30 3899 H 371.241 0.929139 -3.77123 0
M  V30 3900 H 372.973 0.782445 -3.97064 0
M  V30 3901 H 369.728 -1.13696 -4.5975 0
M  V30 3902 H 370.152 -3.45416 -5.82252 0
M  V30 3903 H 374.794 -1.13766 -4.07207 0
M  V30 3904 H 372.512 -4.93181 -6.40155 0
M  V30 3905 H 376.098 -3.04315 -4.95866 0
M  V30 3906 H 374.978 -4.91534 -6.11035 0
M  V30 3907 N 372.481 1.55866 -0.233164 0
M  V30 3908 C 373.391 2.24431 0.683217 0
M  V30 3909 C 374.407 1.2558 1.2044 0
M  V30 3910 O 375.583 1.58422 1.24356 0
M  V30 3911 C 372.648 2.91979 1.86947 0
M  V30 3912 C 371.709 4.06204 1.38912 0
M  V30 3913 C 370.942 4.70522 2.51883 0
M  V30 3914 O 371.165 4.33865 3.70293 0
M  V30 3915 O 370.099 5.59296 2.22423 0
M  V30 3916 H 373.925 3.03426 0.129059 0
M  V30 3917 H 371.51 1.494 -0.0022283 0
M  V30 3918 H 373.392 3.34573 2.56201 0
M  V30 3919 H 372.067 2.15935 2.41151 0
M  V30 3920 H 370.974 3.68155 0.664259 0
M  V30 3921 H 372.307 4.84025 0.893328 0
M  V30 3922 N 373.959 -0.0401083 1.57549 0
M  V30 3923 C 374.869 -1.06133 2.0922 0
M  V30 3924 C 375.885 -1.40356 1.0284 0
M  V30 3925 O 377.061 -1.49897 1.34509 0
M  V30 3926 C 374.126 -2.34658 2.55218 0
M  V30 3927 C 373.187 -2.07117 3.76033 0
M  V30 3928 C 372.42 -3.29514 4.19829 0
M  V30 3929 O 372.643 -4.39794 3.63232 0
M  V30 3930 O 371.577 -3.15863 5.12362 0
M  V30 3931 H 375.403 -0.652244 2.96613 0
M  V30 3932 H 372.988 -0.256368 1.47184 0
M  V30 3933 H 374.87 -3.10239 2.85184 0
M  V30 3934 H 373.545 -2.74883 1.70941 0
M  V30 3935 H 372.452 -1.29139 3.51104 0
M  V30 3936 H 373.785 -1.71754 4.61261 0
M  V30 3937 N 375.437 -1.54477 -0.31217 0
M  V30 3938 C 376.367 -1.87652 -1.38957 0
M  V30 3939 C 377.348 -0.734358 -1.53431 0
M  V30 3940 O 378.533 -0.98911 -1.67123 0
M  V30 3941 C 375.663 -2.11396 -2.75552 0
M  V30 3942 C 374.617 -3.27243 -2.75855 0
M  V30 3943 C 373.943 -3.36382 -4.15633 0
M  V30 3944 C 375.243 -4.64622 -2.38587 0
M  V30 3945 H 376.937 -2.77887 -1.11442 0
M  V30 3946 H 374.483 -1.33707 -0.534655 0
M  V30 3947 H 376.436 -2.33189 -3.51 0
M  V30 3948 H 375.16 -1.17921 -3.04569 0
M  V30 3949 H 373.819 -3.05356 -2.02863 0
M  V30 3950 H 373.467 -2.40445 -4.41809 0
M  V30 3951 H 373.167 -4.14249 -4.1674 0
M  V30 3952 H 374.691 -3.60422 -4.92877 0
M  V30 3953 H 376.105 -4.86219 -3.03749 0
M  V30 3954 H 374.502 -5.45121 -2.50925 0
M  V30 3955 H 375.572 -4.66097 -1.33723 0
M  V30 3956 N 376.915 0.57481 -1.46744 0
M  V30 3957 C 378.143 1.35856 -1.56047 0
M  V30 3958 C 378.558 1.87691 -0.204365 0
M  V30 3959 O 377.915 1.64049 0.79963 0
M  V30 3960 C 377.966 2.54066 -2.57163 0
M  V30 3961 O 377.687 2.04377 -3.87507 0
M  V30 3962 C 379.188 3.46514 -2.76483 0
M  V30 3963 H 376.408 0.414754 -0.527466 0
M  V30 3964 H 378.952 0.698035 -1.92218 0
M  V30 3965 H 377.107 3.16092 -2.23974 0
M  V30 3966 H 377.521 2.81419 -4.4261 0
M  V30 3967 H 378.995 4.25919 -3.51137 0
M  V30 3968 H 379.472 3.98951 -1.83671 0
M  V30 3969 H 380.078 2.90318 -3.10799 0
M  V30 3970 N 378.394 1.34581 0.820102 0
M  V30 3971 C 379.81 1.14325 1.11364 0
M  V30 3972 C 380.01 -0.0533648 2.01429 0
M  V30 3973 O 379.066 -0.728044 2.41776 0
M  V30 3974 C 380.379 2.43983 1.75764 0
M  V30 3975 C 381.927 2.50065 1.88246 0
M  V30 3976 C 382.402 3.79732 2.56061 0
M  V30 3977 N 383.893 3.80908 2.63558 0
M  V30 3978 C 384.628 4.77961 3.16766 0
M  V30 3979 N 384.124 5.85397 3.70517 0
M  V30 3980 N 385.917 4.65413 3.15194 0
M  V30 3981 H 378.068 2.11246 0.221096 0
M  V30 3982 H 380.331 0.934289 0.160649 0
M  V30 3983 H 380.037 3.31651 1.1705 0
M  V30 3984 H 379.911 2.57531 2.75604 0
M  V30 3985 H 382.298 1.62834 2.46108 0
M  V30 3986 H 382.379 2.40442 0.873006 0
M  V30 3987 H 382.023 4.67354 1.98853 0
M  V30 3988 H 381.953 3.86639 3.57516 0
M  V30 3989 H 384.444 3.03274 2.25463 0
M  V30 3990 H 384.757 6.55463 4.09376 0
M  V30 3991 H 383.102 5.89107 3.68752 0
M  V30 3992 H 386.293 3.80627 2.72471 0
M  V30 3993 H 386.466 5.41216 3.56356 0
M  V30 3994 N 379.872 -1.04064 1.18357 0
M  V30 3995 C 380.835 -2.10243 0.912707 0
M  V30 3996 C 381.835 -1.60477 -0.101928 0
M  V30 3997 O 383.025 -1.73703 0.131517 0
M  V30 3998 C 380.157 -3.38893 0.369387 0
M  V30 3999 H 381.35 -2.35706 1.85426 0
M  V30 4000 H 378.903 -1.20489 0.995594 0
M  V30 4001 H 379.638 -3.19094 -0.578776 0
M  V30 4002 H 379.423 -3.76331 1.1008 0
M  V30 4003 H 380.913 -4.17128 0.198575 0
M  V30 4004 N 381.35 -0.985608 -1.22978 0
M  V30 4005 C 382.597 -0.657386 -1.91532 0
M  V30 4006 C 382.925 0.809707 -1.76845 0
M  V30 4007 O 382.18 1.60021 -1.12658 0
M  V30 4008 C 382.479 -1.00014 -3.43121 0
M  V30 4009 C 382.145 -2.4583 -3.77993 0
M  V30 4010 C 380.807 -2.85679 -3.87222 0
M  V30 4011 C 383.159 -3.40378 -3.94705 0
M  V30 4012 C 380.487 -4.19081 -4.10595 0
M  V30 4013 C 382.839 -4.73429 -4.1958 0
M  V30 4014 C 381.503 -5.1303 -4.27032 0
M  V30 4015 H 380.773 -0.240555 -0.700867 0
M  V30 4016 H 383.42 -1.24044 -1.45895 0
M  V30 4017 H 381.725 -0.335072 -3.90365 0
M  V30 4018 H 383.422 -0.724322 -3.94404 0
M  V30 4019 H 380.012 -2.13939 -3.71387 0
M  V30 4020 H 384.196 -3.10766 -3.8696 0
M  V30 4021 H 379.452 -4.49362 -4.14589 0
M  V30 4022 H 383.626 -5.46644 -4.31455 0
M  V30 4023 H 381.253 -6.16418 -4.44896 0
M  V30 4024 N 382.828 1.3818 -0.7579 0
M  V30 4025 C 384.239 1.82726 -0.383134 0
M  V30 4026 C 384.59 1.63214 1.08884 0
M  V30 4027 O 383.715 1.13566 1.84205 0
M  V30 4028 C 384.31 3.31728 -0.688631 0
M  V30 4029 C 382.869 3.74606 -0.367091 0
M  V30 4030 C 382.016 2.60896 -0.939599 0
M  V30 4031 H 384.967 1.26847 -0.953699 0
M  V30 4032 H 384.988 3.80487 0.0316492 0
M  V30 4033 H 384.5 3.45898 -1.76001 0
M  V30 4034 H 382.601 3.66013 0.697532 0
M  V30 4035 H 382.714 4.71215 -0.865658 0
M  V30 4036 H 381.078 2.52075 -0.3647 0
M  V30 4037 H 381.861 2.77864 -2.0161 0
M  V30 4038 N 384.306 0.507319 1.49211 0
M  V30 4039 C 385.531 -0.033725 2.07373 0
M  V30 4040 C 385.956 -1.29485 1.36437 0
M  V30 4041 O 385.314 -1.76294 0.423087 0
M  V30 4042 C 385.362 -0.263945 3.59633 0
M  V30 4043 O 384.466 -1.33737 3.90113 0
M  V30 4044 H 383.807 0.0290331 0.663365 0
M  V30 4045 H 386.337 0.708749 1.91932 0
M  V30 4046 H 386.347 -0.493536 4.05004 0
M  V30 4047 H 385.022 0.657424 4.10671 0
M  V30 4048 H 383.599 -1.09224 3.56545 0
M  V30 4049 N 385.784 -1.5574 0.241426 0
M  V30 4050 C 387.195 -1.84842 -0.262755 0
M  V30 4051 C 387.546 -1.16317 -1.58003 0
M  V30 4052 O 386.671 -0.439653 -2.11887 0
M  V30 4053 C 387.266 -3.35332 -0.483523 0
M  V30 4054 C 385.825 -3.6468 -0.931977 0
M  V30 4055 C 384.972 -2.77299 -0.0061151 0
M  V30 4056 H 387.923 -1.51761 0.464129 0
M  V30 4057 H 387.944 -3.56615 -1.32688 0
M  V30 4058 H 387.456 -3.85178 0.47537 0
M  V30 4059 H 385.557 -3.20307 -1.90353 0
M  V30 4060 H 385.67 -4.72498 -0.792628 0
M  V30 4061 H 384.034 -2.49408 -0.516503 0
M  V30 4062 H 384.817 -3.2995 0.948052 0
M  V30 4063 N 387.262 0.0317525 -1.57568 0
M  V30 4064 C 388.509 0.723104 -1.89149 0
M  V30 4065 C 388.837 1.75504 -0.838377 0
M  V30 4066 O 388.092 1.95037 0.160982 0
M  V30 4067 C 388.391 1.43167 -3.27472 0
M  V30 4068 C 388.057 0.535972 -4.47703 0
M  V30 4069 C 386.719 0.289262 -4.8033 0
M  V30 4070 C 389.071 -0.0826125 -5.21135 0
M  V30 4071 C 386.399 -0.584853 -5.83778 0
M  V30 4072 C 388.751 -0.944414 -6.25511 0
M  V30 4073 C 387.415 -1.20061 -6.56614 0
M  V30 4074 H 386.685 0.264602 -0.692146 0
M  V30 4075 H 389.332 -0.0169496 -1.91492 0
M  V30 4076 H 387.637 2.24497 -3.21105 0
M  V30 4077 H 389.334 1.97209 -3.49155 0
M  V30 4078 H 385.924 0.738414 -4.22191 0
M  V30 4079 H 390.108 0.0950302 -4.96209 0
M  V30 4080 H 385.364 -0.79168 -6.06253 0
M  V30 4081 H 389.538 -1.43026 -6.81554 0
M  V30 4082 H 387.165 -1.87967 -7.36595 0
M  V30 4083 N 388.74 1.54641 0.303973 0
M  V30 4084 C 389.965 1.78092 1.06292 0
M  V30 4085 C 390.39 0.537342 1.80262 0
M  V30 4086 O 389.748 -0.511993 1.7392 0
M  V30 4087 C 389.796 2.98612 2.02147 0
M  V30 4088 O 388.9 2.71528 3.10397 0
M  V30 4089 H 388.241 0.589548 0.305497 0
M  V30 4090 H 390.771 2.01716 0.3423 0
M  V30 4091 H 390.781 3.265 2.44667 0
M  V30 4092 H 389.456 3.88785 1.47714 0
M  V30 4093 H 388.033 2.54648 2.72413 0
M  V30 4094 N 390.218 -0.567019 1.47046 0
M  V30 4095 C 391.148 -1.68482 1.61667 0
M  V30 4096 C 392.129 -1.6358 0.466418 0
M  V30 4097 O 393.314 -1.81354 0.694574 0
M  V30 4098 C 390.444 -3.07124 1.62148 0
M  V30 4099 C 389.398 -3.26867 2.76301 0
M  V30 4100 C 388.724 -4.66196 2.61849 0
M  V30 4101 C 390.024 -3.13186 4.17986 0
M  V30 4102 H 391.718 -1.56502 2.5524 0
M  V30 4103 H 389.264 -0.751486 1.22836 0
M  V30 4104 H 391.217 -3.8516 1.70968 0
M  V30 4105 H 389.941 -3.2004 0.651287 0
M  V30 4106 H 388.6 -2.51237 2.66975 0
M  V30 4107 H 388.248 -4.75898 1.62879 0
M  V30 4108 H 387.948 -4.80356 3.38425 0
M  V30 4109 H 389.472 -5.46379 2.72584 0
M  V30 4110 H 390.886 -3.81049 4.2834 0
M  V30 4111 H 389.283 -3.3886 4.95272 0
M  V30 4112 H 390.353 -2.10057 4.3704 0
M  V30 4113 N 391.696 -1.35014 -0.812953 0
M  V30 4114 C 392.924 -1.31031 -1.6012 0
M  V30 4115 C 393.339 0.113558 -1.88458 0
M  V30 4116 O 392.696 1.06363 -1.48301 0
M  V30 4117 C 392.747 -2.10872 -2.93624 0
M  V30 4118 O 392.468 -3.47706 -2.66518 0
M  V30 4119 C 393.969 -2.14401 -3.88004 0
M  V30 4120 H 391.189 -0.45037 -0.497401 0
M  V30 4121 H 393.733 -1.77775 -1.01076 0
M  V30 4122 H 391.888 -1.67744 -3.492 0
M  V30 4123 H 392.302 -3.89097 -3.51715 0
M  V30 4124 H 393.776 -2.74669 -4.78812 0
M  V30 4125 H 394.253 -1.14105 -4.24119 0
M  V30 4126 H 394.859 -2.57662 -3.38364 0
M  V30 4127 N 393.175 1.03435 -1.18907 0
M  V30 4128 C 394.421 1.77005 -0.989798 0
M  V30 4129 C 394.754 1.88205 0.478816 0
M  V30 4130 O 394.029 1.39481 1.35556 0
M  V30 4131 C 394.312 3.19925 -1.65287 0
M  V30 4132 C 394.165 3.1663 -3.19477 0
M  V30 4133 C 395.484 4.18189 -1.37134 0
M  V30 4134 H 392.603 0.642538 -0.360991 0
M  V30 4135 H 395.245 1.20784 -1.46667 0
M  V30 4136 H 393.395 3.67929 -1.24741 0
M  V30 4137 H 395.067 2.76567 -3.692 0
M  V30 4138 H 393.31 2.54491 -3.51307 0
M  V30 4139 H 393.981 4.1758 -3.61013 0
M  V30 4140 H 396.457 3.78761 -1.72276 0
M  V30 4141 H 395.333 5.16394 -1.86087 0
M  V30 4142 H 395.594 4.41112 -0.295424 0
M  V30 4143 N 394.653 0.992116 1.22453 0
M  V30 4144 C 395.93 0.583508 1.86694 0
M  V30 4145 C 396.31 -0.9392 1.89056 0
M  V30 4146 O 395.658 -1.82081 1.38053 0
M  V30 4147 C 395.868 1.20304 3.2761 0
M  V30 4148 C 397.216 1.30308 4.0411 0
M  V30 4149 O 398.24 1.15737 3.36873 0
M  V30 4150 O 397.099 1.53615 5.24466 0
M  V30 4151 H 394.193 0.198129 0.802916 0
M  V30 4152 H 396.739 1.08794 1.30238 0
M  V30 4153 H 395.511 2.24461 3.2052 0
M  V30 4154 H 395.134 0.684144 3.9167 0
M  V30 4155 N 396.131 -1.37776 0.765217 0
M  V30 4156 C 397.094 -2.28686 0.153416 0
M  V30 4157 C 398.094 -1.47727 -0.635081 0
M  V30 4158 O 399.284 -1.68027 -0.459632 0
M  V30 4159 C 396.416 -3.31608 -0.790495 0
M  V30 4160 H 397.609 -2.84297 0.954723 0
M  V30 4161 H 395.162 -1.46932 0.53299 0
M  V30 4162 H 395.897 -2.81109 -1.61705 0
M  V30 4163 H 395.682 -3.9144 -0.227348 0
M  V30 4164 H 397.172 -3.99559 -1.21419 0
M  V30 4165 N 397.609 -0.515225 -1.4894 0
M  V30 4166 C 398.572 0.244681 -2.2789 0
M  V30 4167 C 399.572 0.881166 -1.34507 0
M  V30 4168 O 400.762 0.743497 -1.57537 0
M  V30 4169 C 397.894 1.35247 -3.12923 0
M  V30 4170 H 399.087 -0.448289 -2.96531 0
M  V30 4171 H 396.64 -0.270656 -1.53939 0
M  V30 4172 H 397.375 2.07916 -2.48881 0
M  V30 4173 H 397.16 0.901374 -3.81599 0
M  V30 4174 H 398.65 1.88737 -3.72516 0
M  V30 4175 N 399.087 1.5561 -0.249682 0
M  V30 4176 C 400.333 1.99306 0.374841 0
M  V30 4177 C 400.666 1.13767 1.57387 0
M  V30 4178 O 399.941 0.201711 1.93451 0
M  V30 4179 C 400.224 3.51507 0.781986 0
M  V30 4180 C 400.077 4.4781 -0.422629 0
M  V30 4181 C 401.396 4.08884 1.62793 0
M  V30 4182 H 398.515 0.724572 0.134773 0
M  V30 4183 H 401.157 1.86719 -0.351549 0
M  V30 4184 H 399.307 3.62363 1.4009 0
M  V30 4185 H 400.979 4.48931 -1.06108 0
M  V30 4186 H 399.222 4.20518 -1.06524 0
M  V30 4187 H 399.893 5.51919 -0.0943766 0
M  V30 4188 H 402.369 4.01147 1.10547 0
M  V30 4189 H 401.245 5.1564 1.88166 0
M  V30 4190 H 401.506 3.57515 2.60068 0
M  V30 4191 N 400.565 -0.0233959 1.57583 0
M  V30 4192 C 401.497 -1.04994 2.03737 0
M  V30 4193 C 402.51 -1.32125 0.951152 0
M  V30 4194 O 403.699 -1.29512 1.22837 0
M  V30 4195 C 400.799 -2.39026 2.40249 0
M  V30 4196 C 399.972 -2.31171 3.7132 0
M  V30 4197 C 399.031 -3.47698 3.94959 0
M  V30 4198 O 398.057 -3.26937 4.65941 0
M  V30 4199 N 399.259 -4.6976 3.41037 0
M  V30 4200 H 402.024 -0.656507 2.92421 0
M  V30 4201 H 399.585 -0.211235 1.60516 0
M  V30 4202 H 401.577 -3.15712 2.53196 0
M  V30 4203 H 400.147 -2.70194 1.57207 0
M  V30 4204 H 399.367 -1.39547 3.68674 0
M  V30 4205 H 400.655 -2.23071 4.57293 0
M  V30 4206 H 400.053 -4.89528 2.83512 0
M  V30 4207 H 398.61 -5.43791 3.59353 0
M  V30 4208 N 402.043 -1.548 -0.295768 0
M  V30 4209 C 402.975 -1.82492 -1.3867 0
M  V30 4210 C 403.988 -0.708134 -1.46592 0
M  V30 4211 O 405.177 -0.985686 -1.48817 0
M  V30 4212 C 402.277 -1.95256 -2.76999 0
M  V30 4213 C 401.45 -3.25709 -2.91946 0
M  V30 4214 C 400.509 -3.28824 -4.10806 0
M  V30 4215 O 399.535 -4.02328 -4.02643 0
M  V30 4216 N 400.737 -2.5459 -5.21694 0
M  V30 4217 H 403.502 -2.76646 -1.15269 0
M  V30 4218 H 401.063 -1.54438 -0.485849 0
M  V30 4219 H 403.055 -1.94736 -3.54768 0
M  V30 4220 H 401.625 -1.08072 -2.93324 0
M  V30 4221 H 400.845 -3.38959 -2.01247 0
M  V30 4222 H 402.133 -4.11786 -2.98847 0
M  V30 4223 H 401.531 -1.94512 -5.31208 0
M  V30 4224 H 400.088 -2.59818 -5.97778 0
M  V30 4225 N 403.521 0.559213 -1.47345 0
M  V30 4226 C 404.471 1.66192 -1.5609 0
M  V30 4227 C 405.455 1.55323 -0.419957 0
M  V30 4228 O 406.647 1.63839 -0.669762 0
M  V30 4229 C 403.776 3.0497 -1.57634 0
M  V30 4230 C 402.862 3.2105 -2.77106 0
M  V30 4231 N 403.253 3.07203 -4.01821 0
M  V30 4232 C 401.551 3.52046 -2.73825 0
M  V30 4233 C 402.252 3.25919 -4.81821 0
M  V30 4234 N 401.228 3.52161 -4.14106 0
M  V30 4235 H 405.03 1.54052 -2.5029 0
M  V30 4236 H 402.544 0.763914 -1.43311 0
M  V30 4237 H 404.541 3.84142 -1.61989 0
M  V30 4238 H 403.201 3.18224 -0.645281 0
M  V30 4239 H 404.212 2.84572 -4.32711 0
M  V30 4240 H 400.889 3.71839 -1.89848 0
M  V30 4241 H 402.279 3.20198 -5.90697 0
M  V30 4242 N 404.999 1.35443 0.805782 0
M  V30 4243 C 405.929 1.31095 1.93226 0
M  V30 4244 C 406.91 0.185244 1.69088 0
M  V30 4245 O 408.095 0.380332 1.90439 0
M  V30 4246 C 405.225 1.08299 3.29983 0
M  V30 4247 C 404.179 2.17519 3.68605 0
M  V30 4248 C 403.505 1.79887 5.03532 0
M  V30 4249 C 404.805 3.5949 3.78898 0
M  V30 4250 H 406.499 2.25352 1.97122 0
M  V30 4251 H 404.045 1.0848 0.946996 0
M  V30 4252 H 405.998 1.03897 4.08391 0
M  V30 4253 H 404.722 0.104885 3.26432 0
M  V30 4254 H 403.381 2.2102 2.92482 0
M  V30 4255 H 403.029 0.80693 4.96485 0
M  V30 4256 H 402.729 2.53001 5.30344 0
M  V30 4257 H 404.253 1.77011 5.84379 0
M  V30 4258 H 405.667 3.58307 4.47536 0
M  V30 4259 H 404.064 4.31371 4.1718 0
M  V30 4260 H 405.134 3.95584 2.80431 0
M  V30 4261 N 406.477 -1.02803 1.19454 0
M  V30 4262 C 407.41 -2.107 0.876396 0
M  V30 4263 C 408.388 -1.61741 -0.166897 0
M  V30 4264 O 409.572 -1.88451 -0.0430195 0
M  V30 4265 C 406.699 -3.37262 0.311758 0
M  V30 4266 C 405.745 -4.05093 1.33424 0
M  V30 4267 S 406.578 -4.50498 2.89503 0
M  V30 4268 C 407.734 -5.80277 2.34584 0
M  V30 4269 H 407.967 -2.37362 1.79016 0
M  V30 4270 H 405.5 -1.15755 1.02177 0
M  V30 4271 H 407.458 -4.10499 -0.00748752 0
M  V30 4272 H 406.119 -3.08693 -0.58032 0
M  V30 4273 H 405.312 -4.9611 0.888302 0
M  V30 4274 H 404.914 -3.3803 1.60037 0
M  V30 4275 H 407.206 -6.54873 1.73633 0
M  V30 4276 H 408.149 -6.29651 3.23952 0
M  V30 4277 H 408.557 -5.3599 1.77131 0
M  V30 4278 N 407.956 -0.998596 -1.21925 0
M  V30 4279 C 408.889 -0.498517 -2.22688 0
M  V30 4280 C 409.867 0.444301 -1.56412 0
M  V30 4281 O 411.051 0.368518 -1.84863 0
M  V30 4282 C 408.178 0.276639 -3.37568 0
M  V30 4283 C 407.224 -0.61302 -4.22071 0
M  V30 4284 S 408.057 -2.07168 -4.93803 0
M  V30 4285 C 409.213 -1.30617 -6.12119 0
M  V30 4286 H 409.446 -1.35234 -2.64762 0
M  V30 4287 H 406.979 -0.806018 -1.31692 0
M  V30 4288 H 408.937 0.717817 -4.04175 0
M  V30 4289 H 407.598 1.10581 -2.93991 0
M  V30 4290 H 406.791 -0.0162909 -5.03997 0
M  V30 4291 H 406.393 -0.991202 -3.60626 0
M  V30 4292 H 408.685 -0.57675 -6.75041 0
M  V30 4293 H 409.628 -2.10091 -6.76215 0
M  V30 4294 H 410.036 -0.816957 -5.58557 0
M  V30 4295 N 409.434 1.37368 -0.772513 0
M  V30 4296 C 410.344 2.34053 -0.160081 0
M  V30 4297 C 411.36 1.60216 0.678728 0
M  V30 4298 O 412.536 1.92303 0.59847 0
M  V30 4299 C 409.601 3.3939 0.708182 0
M  V30 4300 C 408.662 4.29048 -0.147172 0
M  V30 4301 C 407.895 5.29354 0.679744 0
M  V30 4302 O 408.118 5.3723 1.91678 0
M  V30 4303 O 407.052 6.01835 0.0885444 0
M  V30 4304 H 410.878 2.88159 -0.959053 0
M  V30 4305 H 408.463 1.39543 -0.533685 0
M  V30 4306 H 410.345 4.03839 1.20384 0
M  V30 4307 H 409.02 2.8761 1.48533 0
M  V30 4308 H 407.927 3.67697 -0.689205 0
M  V30 4309 H 409.26 4.84134 -0.887423 0
M  V30 4310 N 410.912 0.523116 1.48665 0
M  V30 4311 C 412.16 -0.0134497 2.02096 0
M  V30 4312 C 412.481 -1.35418 1.40311 0
M  V30 4313 O 411.751 -1.87543 0.566074 0
M  V30 4314 H 410.331 -0.00795915 0.746958 0
M  V30 4315 H 412.993 0.685388 1.82451 0
M  V30 4316 H 412.089 -0.126849 3.11842 0
M  V30 4317 N 412.39 -1.55475 0.257931 0
M  V30 4318 C 413.636 -1.99502 -0.364266 0
M  V30 4319 C 413.969 -1.146 -1.56782 0
M  V30 4320 O 413.244 -0.211968 -1.93342 0
M  V30 4321 C 413.527 -3.51917 -0.763333 0
M  V30 4322 C 413.38 -4.4758 0.446371 0
M  V30 4323 C 414.699 -4.09742 -1.60623 0
M  V30 4324 H 411.818 -0.725277 -0.130929 0
M  V30 4325 H 414.46 -1.8653 0.361446 0
M  V30 4326 H 412.61 -3.63101 -1.38166 0
M  V30 4327 H 414.282 -4.48362 1.08487 0
M  V30 4328 H 412.525 -4.19947 1.08753 0
M  V30 4329 H 413.196 -5.51862 0.123645 0
M  V30 4330 H 415.672 -4.01727 -1.08418 0
M  V30 4331 H 414.548 -5.16631 -1.85429 0
M  V30 4332 H 414.809 -3.58889 -2.58169 0
M  V30 4333 N 413.868 0.0150385 -1.57593 0
M  V30 4334 C 415.279 0.559832 -1.78109 0
M  V30 4335 C 415.63 1.74814 -0.890756 0
M  V30 4336 O 414.755 2.16216 -0.0892482 0
M  V30 4337 C 415.35 1.02238 -3.23006 0
M  V30 4338 C 413.909 1.51258 -3.44671 0
M  V30 4339 C 413.056 0.456955 -2.73509 0
M  V30 4340 H 416.007 -0.211169 -1.57289 0
M  V30 4341 H 416.028 1.88912 -3.30292 0
M  V30 4342 H 415.54 0.157302 -3.87781 0
M  V30 4343 H 413.641 2.39905 -2.8509 0
M  V30 4344 H 413.754 1.55042 -4.5332 0
M  V30 4345 H 412.118 0.915196 -2.37689 0
M  V30 4346 H 412.901 -0.398896 -3.40975 0
M  V30 4347 N 415.346 1.54954 0.287554 0
M  V30 4348 C 416.571 1.79209 1.04397 0
M  V30 4349 C 416.996 0.556431 1.79682 0
M  V30 4350 O 416.354 -0.493518 1.74454 0
M  V30 4351 C 416.402 3.00739 1.98969 0
M  V30 4352 O 415.506 2.74805 3.075 0
M  V30 4353 H 414.847 0.592755 0.299227 0
M  V30 4354 H 417.377 2.02068 0.320886 0
M  V30 4355 H 417.387 3.29077 2.4119 0
M  V30 4356 H 416.062 3.90329 1.43582 0
M  V30 4357 H 414.639 2.57523 2.69697 0
M  V30 4358 N 416.824 -0.551391 1.4764 0
M  V30 4359 C 417.787 -1.64007 1.60107 0
M  V30 4360 C 418.787 -1.53601 0.47576 0
M  V30 4361 O 419.977 -1.57655 0.740988 0
M  V30 4362 C 417.109 -3.03569 1.55108 0
M  V30 4363 H 418.302 -1.543 2.57161 0
M  V30 4364 H 415.855 -0.771776 1.35917 0
M  V30 4365 H 416.59 -3.18804 0.594519 0
M  V30 4366 H 416.375 -3.12532 2.36783 0
M  V30 4367 H 417.865 -3.82762 1.66982 0
M  V30 4368 N 418.302 -1.35869 -0.798587 0
M  V30 4369 C 419.249 -1.29446 -1.91082 0
M  V30 4370 C 420.219 -0.16487 -1.6528 0
M  V30 4371 O 421.404 -0.349888 -1.87564 0
M  V30 4372 C 418.544 -1.0804 -3.27752 0
M  V30 4373 C 417.657 -2.29993 -3.65687 0
M  V30 4374 C 416.792 -2.01673 -4.91428 0
M  V30 4375 C 415.831 -3.19636 -5.22015 0
M  V30 4376 N 414.968 -2.91039 -6.38937 0
M  V30 4377 H 419.808 -2.24553 -1.95907 0
M  V30 4378 H 417.345 -1.11615 -0.958148 0
M  V30 4379 H 419.303 -0.936586 -4.06551 0
M  V30 4380 H 417.933 -0.16592 -3.22373 0
M  V30 4381 H 416.985 -2.55211 -2.82085 0
M  V30 4382 H 418.297 -3.18052 -3.84245 0
M  V30 4383 H 417.451 -1.84168 -5.78072 0
M  V30 4384 H 416.19 -1.10911 -4.74921 0
M  V30 4385 H 415.195 -3.37709 -4.33858 0
M  V30 4386 H 416.42 -4.11211 -5.40447 0
M  V30 4387 H 414.366 -2.0288 -6.2384 0
M  V30 4388 H 414.283 -3.72635 -6.57784 0
M  V30 4389 H 415.551 -2.77093 -7.28587 0
M  V30 4390 N 419.78 1.02168 -1.19998 0
M  V30 4391 C 421.029 1.75091 -1.0013 0
M  V30 4392 C 421.342 1.89923 0.467835 0
M  V30 4393 O 422.548 2.59888 0.785515 0
M  V30 4394 C 421.004 3.14892 -1.74273 0
M  V30 4395 C 420.612 3.0809 -3.25245 0
M  V30 4396 C 422.356 3.9206 -1.62755 0
M  V30 4397 C 420.263 4.42867 -3.91948 0
M  V30 4398 H 419.193 0.656394 -0.37103 0
M  V30 4399 H 421.844 1.14284 -1.43567 0
M  V30 4400 H 420.226 3.7621 -1.2362 0
M  V30 4401 H 421.4 2.5611 -3.83072 0
M  V30 4402 H 419.715 2.44416 -3.3712 0
M  V30 4403 H 422.312 4.91764 -2.09934 0
M  V30 4404 H 422.655 4.12199 -0.582894 0
M  V30 4405 H 423.188 3.37359 -2.10793 0
M  V30 4406 H 419.927 4.27931 -4.96543 0
M  V30 4407 H 419.447 4.94874 -3.3891 0
M  V30 4408 H 421.126 5.11728 -3.95909 0
M  V30 4409 N 421.258 1.00505 1.21394 0
M  V30 4410 C 422.504 0.688793 1.90745 0
M  V30 4411 C 422.837 -0.778486 1.77914 0
M  V30 4412 O 422.112 -1.56433 1.15581 0
M  V30 4413 C 422.395 1.11063 3.42545 0
M  V30 4414 C 422.248 2.63737 3.64367 0
M  V30 4415 C 423.567 0.673059 4.34923 0
M  V30 4416 H 420.686 0.251702 0.692687 0
M  V30 4417 H 423.328 1.25074 1.43026 0
M  V30 4418 H 421.478 0.632508 3.83317 0
M  V30 4419 H 423.15 3.19313 3.32922 0
M  V30 4420 H 421.393 3.05248 3.08231 0
M  V30 4421 H 422.064 2.88305 4.70727 0
M  V30 4422 H 424.54 1.08392 4.01734 0
M  V30 4423 H 423.416 0.996383 5.39781 0
M  V30 4424 H 423.677 -0.425808 4.40045 0
M  V30 4425 N 422.737 -1.36956 0.779787 0
M  V30 4426 C 423.67 -2.27896 0.117681 0
M  V30 4427 C 424.648 -1.46736 -0.700523 0
M  V30 4428 O 425.832 -1.76055 -0.673568 0
M  V30 4429 C 422.959 -3.28136 -0.839296 0
M  V30 4430 C 422.005 -4.26373 -0.10409 0
M  V30 4431 S 422.838 -5.2157 1.21348 0
M  V30 4432 C 423.994 -6.25359 0.260249 0
M  V30 4433 H 424.227 -2.83704 0.888778 0
M  V30 4434 H 421.76 -1.43352 0.57355 0
M  V30 4435 H 423.718 -3.86394 -1.38601 0
M  V30 4436 H 422.379 -2.7126 -1.58356 0
M  V30 4437 H 421.572 -4.97121 -0.82986 0
M  V30 4438 H 421.174 -3.72147 0.371858 0
M  V30 4439 H 423.466 -6.75145 -0.564435 0
M  V30 4440 H 424.409 -7.01885 0.936135 0
M  V30 4441 H 424.817 -5.64345 -0.132127 0
M  V30 4442 N 424.215 -0.530993 -1.48385 0
M  V30 4443 C 425.463 0.00273189 -2.021 0
M  V30 4444 C 425.784 1.34672 -1.41027 0
M  V30 4445 O 425.054 1.8724 -0.576012 0
M  V30 4446 H 423.634 0.00399774 -0.746989 0
M  V30 4447 H 426.296 -0.695054 -1.82085 0
M  V30 4448 H 425.392 0.11031 -3.11905 0
M  V30 4449 N 425.693 1.55336 -0.266172 0
M  V30 4450 C 426.939 1.99692 0.353681 0
M  V30 4451 C 427.272 1.1543 1.56172 0
M  V30 4452 O 426.547 0.222218 1.93226 0
M  V30 4453 C 426.83 3.52316 0.74466 0
M  V30 4454 C 426.683 4.47337 -0.470101 0
M  V30 4455 C 428.002 4.10588 1.58447 0
M  V30 4456 H 425.121 0.725961 0.12708 0
M  V30 4457 H 427.763 1.86336 -0.371333 0
M  V30 4458 H 425.913 3.63829 1.36239 0
M  V30 4459 H 427.585 4.4778 -1.10864 0
M  V30 4460 H 425.828 4.19364 -1.10978 0
M  V30 4461 H 426.499 5.51788 -0.15291 0
M  V30 4462 H 428.975 4.02297 1.06286 0
M  V30 4463 H 427.851 5.17607 1.82686 0
M  V30 4464 H 428.112 3.60253 2.56262 0
M  V30 4465 N 427.171 -0.0066808 1.57599 0
M  V30 4466 C 428.582 -0.550379 1.78403 0
M  V30 4467 C 428.933 -1.74339 0.900014 0
M  V30 4468 O 428.058 -2.16166 0.100713 0
M  V30 4469 C 428.653 -1.00523 3.23544 0
M  V30 4470 C 427.212 -1.49428 3.45468 0
M  V30 4471 C 426.359 -0.442444 2.73748 0
M  V30 4472 H 429.31 0.219508 1.57175 0
M  V30 4473 H 429.331 -1.87157 3.31289 0
M  V30 4474 H 428.843 -0.136735 3.87859 0
M  V30 4475 H 426.944 -2.3839 2.86358 0
M  V30 4476 H 427.057 -1.52635 4.54136 0
M  V30 4477 H 425.421 -0.902578 2.38171 0
M  V30 4478 H 426.204 0.416973 3.40758 0
M  V30 4479 N 428.649 -1.55105 -0.279332 0
M  V30 4480 C 429.896 -1.75412 -1.01177 0
M  V30 4481 C 430.224 -0.551728 -1.86511 0
M  V30 4482 O 429.479 0.465919 -1.90073 0
M  V30 4483 C 429.778 -3.0086 -1.92919 0
M  V30 4484 C 429.444 -4.33689 -1.23387 0
M  V30 4485 C 428.106 -4.69792 -1.04159 0
M  V30 4486 C 430.458 -5.15941 -0.738562 0
M  V30 4487 C 427.786 -5.85707 -0.341166 0
M  V30 4488 C 430.138 -6.32579 -0.0517636 0
M  V30 4489 C 428.802 -6.67326 0.152292 0
M  V30 4490 H 428.072 -0.641879 -0.370233 0
M  V30 4491 H 430.719 -1.89373 -0.284627 0
M  V30 4492 H 429.024 -2.81773 -2.72234 0
M  V30 4493 H 430.721 -3.13768 -2.49701 0
M  V30 4494 H 427.311 -4.05309 -1.39364 0
M  V30 4495 H 431.495 -4.8853 -0.874764 0
M  V30 4496 H 426.751 -6.11157 -0.172287 0
M  V30 4497 H 430.925 -6.9557 0.339828 0
M  V30 4498 H 428.552 -7.56998 0.697014 0
M  V30 4499 N 430.127 0.543554 -1.4793 0
M  V30 4500 C 431.357 1.32324 -1.58663 0
M  V30 4501 C 431.765 1.8766 -0.240896 0
M  V30 4502 O 431.108 1.66411 0.778011 0
M  V30 4503 C 431.17 2.52094 -2.56299 0
M  V30 4504 C 430.834 2.17944 -4.01683 0
M  V30 4505 C 431.831 1.74422 -4.89768 0
M  V30 4506 C 429.516 2.28884 -4.47121 0
M  V30 4507 C 431.51 1.42287 -6.21316 0
M  V30 4508 C 429.197 1.96361 -5.78693 0
M  V30 4509 C 430.195 1.53132 -6.65612 0
M  V30 4510 O 429.883 1.21029 -7.94737 0
M  V30 4511 H 429.615 0.409174 -0.538101 0
M  V30 4512 H 432.169 0.663887 -1.94375 0
M  V30 4513 H 430.399 3.20965 -2.15681 0
M  V30 4514 H 432.088 3.14165 -2.57012 0
M  V30 4515 H 432.854 1.65452 -4.55907 0
M  V30 4516 H 428.733 2.61488 -3.79664 0
M  V30 4517 H 432.277 1.08472 -6.89115 0
M  V30 4518 H 428.174 2.04967 -6.12094 0
M  V30 4519 H 428.942 1.34543 -8.07366 0
M  V30 4520 N 431.605 1.3629 0.791371 0
M  V30 4521 C 432.853 1.30154 1.5461 0
M  V30 4522 C 433.174 -0.119409 1.94634 0
M  V30 4523 O 432.444 -1.05924 1.64794 0
M  V30 4524 H 431.024 0.478784 0.573389 0
M  V30 4525 H 433.686 1.70565 0.94306 0
M  V30 4526 H 432.782 1.92762 2.45457 0
M  V30 4527 N 433.083 -1.0153 1.20538 0
M  V30 4528 C 434.499 -1.27461 0.96051 0
M  V30 4529 C 434.699 -1.98273 -0.359193 0
M  V30 4530 O 433.755 -2.27886 -1.0874 0
M  V30 4531 C 435.068 -2.10837 2.14402 0
M  V30 4532 C 436.616 -2.24099 2.18515 0
M  V30 4533 C 437.091 -3.10852 3.36355 0
M  V30 4534 N 438.582 -3.18441 3.36377 0
M  V30 4535 C 439.317 -3.85795 4.24205 0
M  V30 4536 N 438.813 -4.55264 5.22213 0
M  V30 4537 N 440.606 -3.82331 4.12043 0
M  V30 4538 H 432.757 -0.539907 2.05423 0
M  V30 4539 H 435.02 -0.30092 0.898972 0
M  V30 4540 H 434.726 -1.66144 3.09983 0
M  V30 4541 H 434.6 -3.11576 2.12604 0
M  V30 4542 H 436.987 -2.68016 1.23497 0
M  V30 4543 H 437.068 -1.22865 2.24361 0
M  V30 4544 H 436.712 -2.6764 4.31661 0
M  V30 4545 H 436.642 -4.12177 3.27746 0
M  V30 4546 H 439.133 -2.68978 2.65442 0
M  V30 4547 H 439.446 -5.04331 5.85551 0
M  V30 4548 H 437.791 -4.54085 5.26148 0
M  V30 4549 H 440.982 -3.27207 3.34743 0
M  V30 4550 H 441.155 -4.34547 4.807 0
M  V30 4551 N 434.561 -1.01147 -1.20859 0
M  V30 4552 C 435.524 -0.582224 -2.21682 0
M  V30 4553 C 436.524 0.344887 -1.57058 0
M  V30 4554 O 437.714 0.134281 -1.73682 0
M  V30 4555 C 434.846 0.150496 -3.40568 0
M  V30 4556 H 436.039 -1.47408 -2.61172 0
M  V30 4557 H 433.592 -0.800695 -1.34233 0
M  V30 4558 H 434.327 1.0575 -3.06574 0
M  V30 4559 H 434.112 -0.515444 -3.88697 0
M  V30 4560 H 435.602 0.438344 -4.15293 0
M  V30 4561 N 436.039 1.36541 -0.78704 0
M  V30 4562 C 437.286 1.99304 -0.358341 0
M  V30 4563 C 437.614 1.62467 1.06933 0
M  V30 4564 O 436.869 0.870019 1.75297 0
M  V30 4565 C 437.168 3.54343 -0.466485 0
M  V30 4566 C 436.834 4.10993 -1.85461 0
M  V30 4567 C 435.496 4.26177 -2.23443 0
M  V30 4568 C 437.848 4.41895 -2.76366 0
M  V30 4569 C 435.176 4.69573 -3.51736 0
M  V30 4570 C 437.528 4.86722 -4.04084 0
M  V30 4571 C 436.192 5.00112 -4.42091 0
M  V30 4572 H 435.462 0.729306 -0.131126 0
M  V30 4573 H 438.109 1.63068 -1.00404 0
M  V30 4574 H 436.414 3.90918 0.262719 0
M  V30 4575 H 438.111 4.00833 -0.115854 0
M  V30 4576 H 434.701 3.99612 -1.54946 0
M  V30 4577 H 438.885 4.29735 -2.48277 0
M  V30 4578 H 434.141 4.78127 -3.81057 0
M  V30 4579 H 438.315 5.09598 -4.7464 0
M  V30 4580 H 435.942 5.33498 -5.41557 0
M  V30 4581 N 437.518 0.538854 1.48102 0
M  V30 4582 C 438.465 -0.219042 2.29758 0
M  V30 4583 C 439.435 -0.925562 1.37922 0
M  V30 4584 O 440.62 -0.924855 1.66886 0
M  V30 4585 C 437.76 -1.25452 3.2149 0
M  V30 4586 C 436.873 -0.555943 4.28408 0
M  V30 4587 C 436.008 -1.57512 5.0731 0
M  V30 4588 C 435.047 -0.860498 6.06021 0
M  V30 4589 N 434.184 -1.82564 6.77949 0
M  V30 4590 H 439.024 0.483449 2.94052 0
M  V30 4591 H 436.561 0.250247 1.44956 0
M  V30 4592 H 438.519 -1.86727 3.7308 0
M  V30 4593 H 437.149 -1.92528 2.591 0
M  V30 4594 H 436.201 0.170938 3.80016 0
M  V30 4595 H 437.513 0.00474616 4.988 0
M  V30 4596 H 436.667 -2.26191 5.62959 0
M  V30 4597 H 435.406 -2.16972 4.36778 0
M  V30 4598 H 434.411 -0.159686 5.49568 0
M  V30 4599 H 435.636 -0.271897 6.78555 0
M  V30 4600 H 433.582 -2.40915 6.10161 0
M  V30 4601 H 433.499 -1.31662 7.44447 0
M  V30 4602 H 434.767 -2.50414 7.38182 0
M  V30 4603 N 438.996 -1.55193 0.274407 0
M  V30 4604 C 440.244 -1.99187 -0.341902 0
M  V30 4605 C 440.565 -1.16422 -1.56431 0
M  V30 4606 O 439.835 -0.253573 -1.94252 0
M  V30 4607 H 438.415 -0.735721 -0.129317 0
M  V30 4608 H 441.077 -1.91168 0.379578 0
M  V30 4609 H 440.173 -3.05629 -0.632253 0
M  V30 4610 N 440.474 -0.00167713 -1.576 0
M  V30 4611 C 441.72 0.683832 -1.90923 0
M  V30 4612 C 442.053 1.7333 -0.875799 0
M  V30 4613 O 441.328 1.94215 0.10525 0
M  V30 4614 C 441.611 1.32543 -3.3482 0
M  V30 4615 C 441.464 0.287387 -4.48881 0
M  V30 4616 C 442.783 2.25114 -3.78169 0
M  V30 4617 H 439.902 0.247125 -0.694333 0
M  V30 4618 H 442.544 -0.0533149 -1.89925 0
M  V30 4619 H 440.694 1.95372 -3.35801 0
M  V30 4620 H 442.366 -0.341346 -4.60035 0
M  V30 4621 H 440.609 -0.39017 -4.32042 0
M  V30 4622 H 441.28 0.775393 -5.46527 0
M  V30 4623 H 443.756 1.723 -3.7875 0
M  V30 4624 H 442.632 2.66971 -4.79602 0
M  V30 4625 H 442.893 3.13092 -3.12131 0
M  V30 4626 N 441.952 1.55251 0.271103 0
M  V30 4627 C 443.177 1.80306 1.02491 0
M  V30 4628 C 443.602 0.575457 1.79081 0
M  V30 4629 O 442.96 -0.474987 1.74967 0
M  V30 4630 C 443.008 3.02832 1.95768 0
M  V30 4631 O 442.112 2.78051 3.04568 0
M  V30 4632 H 441.453 0.595896 0.292923 0
M  V30 4633 H 443.983 2.02397 0.299436 0
M  V30 4634 H 443.993 3.31616 2.37686 0
M  V30 4635 H 442.668 3.9183 1.39434 0
M  V30 4636 H 441.245 2.60369 2.66951 0
M  V30 4637 N 443.43 -0.535701 1.48216 0
M  V30 4638 C 444.678 -1.28928 1.55634 0
M  V30 4639 C 444.999 -1.93645 0.229514 0
M  V30 4640 O 444.269 -1.81038 -0.74846 0
M  V30 4641 H 442.849 -0.47884 0.573342 0
M  V30 4642 H 445.511 -0.623853 1.84646 0
M  V30 4643 H 444.607 -2.07157 2.33436 0
M  V30 4644 N 444.908 -1.36708 -0.784132 0
M  V30 4645 C 446.156 -1.30972 -1.53918 0
M  V30 4646 C 446.477 0.109086 -1.94695 0
M  V30 4647 O 445.747 1.05048 -1.65353 0
M  V30 4648 H 444.327 -0.481819 -0.570841 0
M  V30 4649 H 446.989 -1.71063 -0.934002 0
M  V30 4650 H 446.085 -1.94061 -2.44431 0
M  V30 4651 N 446.386 1.0089 -1.21074 0
M  V30 4652 C 447.334 2.11707 -0.963476 0
M  V30 4653 C 448.328 1.69172 0.0879032 0
M  V30 4654 O 449.534 1.79889 -0.0631415 0
M  V30 4655 H 445.909 0.692026 -0.294287 0
M  V30 4656 H 447.88 2.29743 -1.90422 0
M  V30 4657 C 446.629 3.43473 -0.540509 0
M  V30 4658 H 445.952 3.76634 -1.34114 0
M  V30 4659 H 447.392 4.22044 -0.406777 0
M  V30 4660 C 445.851 3.2849 0.748079 0
M  V30 4661 O 446.381 3.58883 1.8046 0
M  V30 4662 N 444.587 2.81715 0.713081 0
M  V30 4663 H 444.134 2.5718 -0.146973 0
M  V30 4664 H 444.092 2.72071 1.57558 0
M  V30 4665 N 447.864 1.01787 1.20321 0
M  V30 4666 C 449.112 0.706538 1.89347 0
M  V30 4667 C 449.433 -0.766289 1.79313 0
M  V30 4668 O 448.703 -1.55126 1.19635 0
M  V30 4669 H 447.283 0.258348 0.700903 0
M  V30 4670 H 449.945 1.28974 1.46122 0
M  V30 4671 H 449.041 0.991066 2.95946 0
M  V30 4672 N 449.342 -1.36122 0.79427 0
M  V30 4673 C 450.59 -1.98718 0.368177 0
M  V30 4674 C 450.911 -1.63345 -1.06506 0
M  V30 4675 O 450.181 -0.909825 -1.73491 0
M  V30 4676 H 448.761 -0.735038 0.133146 0
M  V30 4677 H 451.423 -1.66239 1.01739 0
M  V30 4678 H 450.519 -3.08633 0.463923 0
M  V30 4679 N 450.82 -0.546701 -1.47814 0
M  V30 4680 C 451.752 0.244196 -2.27895 0
M  V30 4681 C 452.765 0.88911 -1.36377 0
M  V30 4682 O 453.954 0.764733 -1.61289 0
M  V30 4683 C 451.054 1.36252 -3.10304 0
M  V30 4684 C 450.227 0.816382 -4.29714 0
M  V30 4685 C 449.286 1.81789 -4.93801 0
M  V30 4686 O 448.312 1.36818 -5.52512 0
M  V30 4687 N 449.514 3.15085 -4.87547 0
M  V30 4688 H 452.279 -0.442694 -2.96412 0
M  V30 4689 H 449.84 -0.382095 -1.57327 0
M  V30 4690 H 451.832 2.03102 -3.50045 0
M  V30 4691 H 450.402 1.95281 -2.44099 0
M  V30 4692 H 449.622 -0.0285981 -3.9419 0
M  V30 4693 H 450.91 0.430668 -5.06974 0
M  V30 4694 H 450.308 3.54275 -4.41028 0
M  V30 4695 H 448.865 3.77522 -5.31339 0
M  V30 4696 N 452.299 1.55045 -0.282633 0
M  V30 4697 C 453.529 2.03872 0.334635 0
M  V30 4698 C 453.937 1.16018 1.49454 0
M  V30 4699 O 453.28 0.174449 1.8287 0
M  V30 4700 C 453.342 3.48791 0.870905 0
M  V30 4701 C 453.006 4.56715 -0.161338 0
M  V30 4702 C 454.003 5.10513 -0.983466 0
M  V30 4703 C 451.688 5.01417 -0.297745 0
M  V30 4704 C 453.682 6.07538 -1.92811 0
M  V30 4705 C 451.369 5.98265 -1.24586 0
M  V30 4706 C 452.367 6.51208 -2.05954 0
M  V30 4707 O 452.055 7.46162 -2.99162 0
M  V30 4708 H 451.787 0.671324 0.0793742 0
M  V30 4709 H 454.341 2.01169 -0.41473 0
M  V30 4710 H 452.571 3.48758 1.67047 0
M  V30 4711 H 454.26 3.80916 1.40207 0
M  V30 4712 H 455.026 4.76785 -0.888856 0
M  V30 4713 H 450.905 4.59849 0.325604 0
M  V30 4714 H 454.449 6.48787 -2.56363 0
M  V30 4715 H 450.346 6.31412 -1.34126 0
M  V30 4716 H 451.114 7.63903 -2.93929 0
M  V30 4717 N 453.777 0.010035 1.57597 0
M  V30 4718 C 455.002 -0.687021 1.95691 0
M  V30 4719 C 455.427 -1.65952 0.885519 0
M  V30 4720 O 454.785 -1.80633 -0.15543 0
M  V30 4721 C 454.833 -1.3864 3.32884 0
M  V30 4722 O 453.937 -2.50115 3.27897 0
M  V30 4723 H 453.278 -0.181989 0.638573 0
M  V30 4724 H 455.808 0.0662122 2.04493 0
M  V30 4725 H 455.818 -1.74754 3.6868 0
M  V30 4726 H 454.493 -0.673411 4.10412 0
M  V30 4727 H 453.07 -2.16253 3.03791 0
M  V30 4728 N 455.255 -1.55392 -0.262866 0
M  V30 4729 C 456.48 -1.80847 -1.01533 0
M  V30 4730 C 456.905 -0.584946 -1.78774 0
M  V30 4731 O 456.263 0.465701 -1.75217 0
M  V30 4732 C 456.311 -3.03866 -1.94159 0
M  V30 4733 O 455.415 -2.79662 -3.03089 0
M  V30 4734 H 454.756 -0.597441 -0.289759 0
M  V30 4735 H 457.286 -2.02553 -0.288698 0
M  V30 4736 H 457.296 -3.32872 -2.35924 0
M  V30 4737 H 455.971 -3.92564 -1.37354 0
M  V30 4738 H 454.548 -2.61781 -2.65566 0
M  V30 4739 N 456.733 0.527833 -1.48498 0
M  V30 4740 C 457.683 1.62844 -1.5958 0
M  V30 4741 C 458.667 1.54397 -0.452809 0
M  V30 4742 O 459.859 1.62381 -0.704364 0
M  V30 4743 C 456.988 3.01557 -1.64067 0
M  V30 4744 C 456.074 3.151 -2.83853 0
M  V30 4745 N 456.465 2.9861 -4.08247 0
M  V30 4746 C 454.763 3.46158 -2.8123 0
M  V30 4747 C 455.464 3.15626 -4.88626 0
M  V30 4748 N 454.44 3.43298 -4.21483 0
M  V30 4749 H 458.242 1.48708 -2.53502 0
M  V30 4750 H 455.756 0.733343 -1.44899 0
M  V30 4751 H 457.753 3.8062 -1.70101 0
M  V30 4752 H 456.413 3.16783 -0.712636 0
M  V30 4753 H 457.424 2.75329 -4.3865 0
M  V30 4754 H 454.101 3.67728 -1.97692 0
M  V30 4755 H 455.491 3.07596 -5.97356 0
M  V30 4756 N 458.211 1.37122 0.776871 0
M  V30 4757 C 459.436 1.354 1.57104 0
M  V30 4758 C 459.861 -0.0595562 1.88006 0
M  V30 4759 O 459.219 -1.03514 1.48844 0
M  V30 4760 C 459.267 2.19472 2.8612 0
M  V30 4761 O 458.371 1.59582 3.80273 0
M  V30 4762 H 457.712 0.462869 0.476076 0
M  V30 4763 H 460.242 1.80577 0.961932 0
M  V30 4764 H 460.252 2.32502 3.35271 0
M  V30 4765 H 458.927 3.22222 2.62956 0
M  V30 4766 H 457.504 1.55564 3.38902 0
M  V30 4767 N 459.689 -1.00246 1.21608 0
M  V30 4768 C 460.917 -1.77631 1.06089 0
M  V30 4769 C 461.332 -1.84746 -0.38916 0
M  V30 4770 O 460.689 -1.31068 -1.26994 0
M  V30 4771 C 460.74 -3.21415 1.65453 0
M  V30 4772 O 460.461 -3.14703 3.04785 0
M  V30 4773 C 461.962 -4.15289 1.55079 0
M  V30 4774 H 459.182 -0.558162 0.37242 0
M  V30 4775 H 461.726 -1.26093 1.60999 0
M  V30 4776 H 459.881 -3.70053 1.14629 0
M  V30 4777 H 460.295 -4.05056 3.33212 0
M  V30 4778 H 461.769 -5.13965 2.01355 0
M  V30 4779 H 462.246 -4.36279 0.505665 0
M  V30 4780 H 462.852 -3.72543 2.05163 0
M  V30 4781 N 461.167 -1.02423 -1.1978 0
M  V30 4782 C 462.578 -0.748389 -1.71044 0
M  V30 4783 C 462.929 0.732398 -1.82017 0
M  V30 4784 O 462.054 1.57116 -1.48807 0
M  V30 4785 C 462.649 -1.35187 -3.1066 0
M  V30 4786 C 461.208 -1.12472 -3.59203 0
M  V30 4787 C 460.355 -1.45283 -2.36195 0
M  V30 4788 H 463.306 -1.19275 -1.04686 0
M  V30 4789 H 463.327 -0.746408 -3.73107 0
M  V30 4790 H 462.839 -2.4296 -3.02642 0
M  V30 4791 H 460.94 -0.0649983 -3.72543 0
M  V30 4792 H 461.053 -1.81016 -4.43588 0
M  V30 4793 H 459.417 -0.872034 -2.39307 0
M  V30 4794 H 460.2 -2.54129 -2.30811 0
M  V30 4795 N 462.645 1.35699 -0.801477 0
M  V30 4796 C 463.893 1.9852 -0.37871 0
M  V30 4797 C 464.214 1.63907 1.05638 0
M  V30 4798 O 463.484 0.919013 1.73006 0
M  V30 4799 H 462.064 0.734322 -0.137042 0
M  V30 4800 H 464.726 1.65697 -1.02619 0
M  V30 4801 H 463.822 3.08382 -0.480284 0
M  V30 4802 N 464.123 0.554532 1.47522 0
M  V30 4803 C 465.033 -0.197865 2.33764 0
M  V30 4804 C 466.049 -0.914576 1.48025 0
M  V30 4805 O 467.225 -0.884067 1.80959 0
M  V30 4806 C 464.29 -1.21628 3.24665 0
M  V30 4807 C 463.351 -0.507283 4.26292 0
M  V30 4808 C 462.584 -1.47718 5.1285 0
M  V30 4809 O 462.807 -2.7118 5.01814 0
M  V30 4810 O 461.741 -1.00313 5.93482 0
M  V30 4811 H 465.567 0.50949 2.99396 0
M  V30 4812 H 463.152 0.315176 1.46038 0
M  V30 4813 H 465.034 -1.80421 3.80823 0
M  V30 4814 H 463.709 -1.9056 2.61665 0
M  V30 4815 H 462.616 0.121778 3.73902 0
M  V30 4816 H 463.949 0.140544 4.91999 0
M  V30 4817 N 465.601 -1.54893 0.290851 0
M  V30 4818 C 466.878 -1.91991 -0.373989 0
M  V30 4819 C 467.258 -1.21694 -1.72493 0
M  V30 4820 O 466.606 -0.34917 -2.25816 0
M  V30 4821 C 466.816 -3.45419 -0.498703 0
M  V30 4822 C 468.164 -4.1748 -0.774298 0
M  V30 4823 O 469.188 -3.51398 -0.582908 0
M  V30 4824 O 468.047 -5.3445 -1.14129 0
M  V30 4825 H 465.141 -0.800593 -0.207315 0
M  V30 4826 H 467.687 -1.66297 0.338164 0
M  V30 4827 H 466.459 -3.88688 0.451392 0
M  V30 4828 H 466.082 -3.77117 -1.25972 0
M  V30 4829 N 467.08 -0.0183926 -1.57589 0
M  V30 4830 C 468.491 0.521927 -1.79256 0
M  V30 4831 C 468.842 1.72885 -0.927636 0
M  V30 4832 O 467.967 2.15978 -0.135091 0
M  V30 4833 C 468.562 0.953632 -3.25102 0
M  V30 4834 C 467.121 1.43913 -3.47801 0
M  V30 4835 C 466.268 0.398837 -2.74417 0
M  V30 4836 H 469.219 -0.244485 -1.56805 0
M  V30 4837 H 469.24 1.81863 -3.34224 0
M  V30 4838 H 468.752 0.0750123 -3.88028 0
M  V30 4839 H 466.853 2.33804 -2.90115 0
M  V30 4840 H 466.966 1.45391 -4.56507 0
M  V30 4841 H 465.33 0.864572 -2.39577 0
M  V30 4842 H 466.113 -0.471132 -3.40052 0
M  V30 4843 N 468.558 1.5553 0.254621 0
M  V30 4844 C 469.788 1.80784 1.00004 0
M  V30 4845 C 470.196 0.59071 1.79742 0
M  V30 4846 O 469.539 -0.449988 1.78103 0
M  V30 4847 C 469.601 2.99268 1.99196 0
M  V30 4848 C 469.265 4.35595 1.38224 0
M  V30 4849 C 470.262 5.13884 0.788611 0
M  V30 4850 C 467.947 4.82281 1.40393 0
M  V30 4851 C 469.941 6.37004 0.224783 0
M  V30 4852 C 467.628 6.05351 0.836243 0
M  V30 4853 C 468.626 6.82551 0.24769 0
M  V30 4854 O 468.314 8.03297 -0.311249 0
M  V30 4855 H 468.046 0.60565 0.300274 0
M  V30 4856 H 470.6 2.03411 0.285143 0
M  V30 4857 H 468.83 2.72377 2.74496 0
M  V30 4858 H 470.519 3.11682 2.60018 0
M  V30 4859 H 471.285 4.78938 0.764423 0
M  V30 4860 H 467.164 4.22189 1.85142 0
M  V30 4861 H 470.708 6.97203 -0.235235 0
M  V30 4862 H 466.605 6.39776 0.857733 0
M  V30 4863 H 467.373 8.1825 -0.20237 0
M  V30 4864 N 470.036 -0.519951 1.48776 0
M  V30 4865 C 471.447 -1.10177 1.50725 0
M  V30 4866 C 471.798 -1.94153 0.282678 0
M  V30 4867 O 470.923 -2.07645 -0.609298 0
M  V30 4868 C 471.518 -2.00482 2.73116 0
M  V30 4869 C 470.077 -2.53862 2.77905 0
M  V30 4870 C 469.224 -1.31047 2.44381 0
M  V30 4871 H 472.175 -0.30473 1.55747 0
M  V30 4872 H 472.196 -2.8491 2.52203 0
M  V30 4873 H 471.708 -1.39335 3.62225 0
M  V30 4874 H 469.809 -3.18702 1.93029 0
M  V30 4875 H 469.922 -2.9231 3.79594 0
M  V30 4876 H 468.286 -1.62953 1.95751 0
M  V30 4877 H 469.069 -0.71637 3.35743 0
M  V30 4878 N 471.514 -1.37532 -0.769588 0
M  V30 4879 C 472.462 -1.33561 -1.90432 0
M  V30 4880 C 473.456 -0.224027 -1.67912 0
M  V30 4881 O 474.662 -0.392174 -1.75676 0
M  V30 4882 H 471.037 -0.416279 -0.626271 0
M  V30 4883 H 473.008 -2.29348 -1.90899 0
M  V30 4884 C 471.757 -1.16162 -3.27722 0
M  V30 4885 H 471.08 -2.00951 -3.45628 0
M  V30 4886 H 472.52 -1.17434 -4.07413 0
M  V30 4887 C 470.979 0.132583 -3.36639 0
M  V30 4888 O 471.509 1.11539 -3.85904 0
M  V30 4889 N 469.715 0.184013 -2.90017 0
M  V30 4890 H 469.262 -0.616415 -2.50116 0
M  V30 4891 H 469.22 1.04956 -2.96364 0
M  V30 4892 N 472.992 0.995999 -1.22138 0
M  V30 4893 C 473.955 2.06711 -0.990109 0
M  V30 4894 C 474.955 1.60744 0.0422978 0
M  V30 4895 O 476.145 1.73095 -0.195895 0
M  V30 4896 C 473.277 3.37288 -0.49491 0
M  V30 4897 H 474.47 2.28661 -1.94047 0
M  V30 4898 H 472.023 1.16711 -1.03963 0
M  V30 4899 H 472.758 3.21022 0.459948 0
M  V30 4900 H 472.543 3.71986 -1.23971 0
M  V30 4901 H 474.033 4.16103 -0.353253 0
M  V30 4902 N 474.47 1.03057 1.19235 0
M  V30 4903 C 475.747 0.642608 1.84743 0
M  V30 4904 C 476.127 -0.878577 1.91948 0
M  V30 4905 O 475.475 -1.77597 1.43776 0
M  V30 4906 C 475.685 1.30665 3.23616 0
M  V30 4907 C 477.033 1.43098 3.9976 0
M  V30 4908 O 478.057 1.26396 3.3302 0
M  V30 4909 O 476.916 1.70223 5.19313 0
M  V30 4910 H 474.01 0.223573 0.796206 0
M  V30 4911 H 476.556 1.12883 1.26711 0
M  V30 4912 H 475.328 2.34544 3.13217 0
M  V30 4913 H 474.951 0.808405 3.89295 0
M  V30 4914 N 475.948 -1.35272 0.808662 0
M  V30 4915 C 477.178 -2.02652 0.401953 0
M  V30 4916 C 477.586 -1.6108 -0.992462 0
M  V30 4917 O 476.929 -0.804984 -1.65123 0
M  V30 4918 C 476.991 -3.57174 0.408246 0
M  V30 4919 C 476.655 -4.22019 1.75353 0
M  V30 4920 C 477.652 -4.43552 2.71215 0
M  V30 4921 C 475.337 -4.59093 2.03811 0
M  V30 4922 C 477.331 -5.01264 3.93717 0
M  V30 4923 C 475.018 -5.16519 3.26576 0
M  V30 4924 C 476.016 -5.37546 4.21347 0
M  V30 4925 O 475.704 -5.93761 5.41944 0
M  V30 4926 H 475.436 -0.656495 0.161216 0
M  V30 4927 H 477.99 -1.73829 1.0942 0
M  V30 4928 H 476.22 -3.85197 -0.340608 0
M  V30 4929 H 477.909 -4.05893 0.0235623 0
M  V30 4930 H 478.675 -4.15288 2.50522 0
M  V30 4931 H 474.554 -4.42039 1.30854 0
M  V30 4932 H 478.098 -5.17592 4.67701 0
M  V30 4933 H 473.995 -5.4421 3.47139 0
M  V30 4934 H 474.763 -6.1221 5.43269 0
M  V30 4935 N 477.426 -0.562348 -1.47226 0
M  V30 4936 C 478.672 -0.0485293 -2.03342 0
M  V30 4937 C 479.027 1.28898 -1.42839 0
M  V30 4938 O 478.32 1.82719 -0.576563 0
M  V30 4939 C 478.514 0.0969817 -3.57268 0
M  V30 4940 C 478.343 -1.22487 -4.32697 0
M  V30 4941 C 477.113 -1.79357 -4.72397 0
M  V30 4942 C 479.311 -2.14332 -4.67511 0
M  V30 4943 N 477.293 -3.05493 -5.32491 0
M  V30 4944 C 478.664 -3.25049 -5.27961 0
M  V30 4945 C 480.719 -2.14263 -4.4944 0
M  V30 4946 C 479.422 -4.35804 -5.72248 0
M  V30 4947 C 481.448 -3.24033 -4.94729 0
M  V30 4948 C 480.81 -4.3347 -5.55233 0
M  V30 4949 H 476.909 -0.0600464 -0.779691 0
M  V30 4950 H 479.493 -0.750769 -1.79643 0
M  V30 4951 H 477.664 0.768353 -3.80724 0
M  V30 4952 H 479.396 0.613333 -4.00025 0
M  V30 4953 H 476.151 -1.33093 -4.54514 0
M  V30 4954 H 476.575 -3.698 -5.67077 0
M  V30 4955 H 481.217 -1.30935 -4.02015 0
M  V30 4956 H 478.935 -5.19888 -6.18661 0
M  V30 4957 H 482.521 -3.25073 -4.82513 0
M  V30 4958 H 481.401 -5.17008 -5.89638 0
M  V30 4959 N 478.904 1.54736 -0.299062 0
M  V30 4960 C 479.834 2.26409 0.571085 0
M  V30 4961 C 480.815 1.2629 1.13951 0
M  V30 4962 O 482 1.55059 1.16921 0
M  V30 4963 C 479.13 3.00338 1.74396 0
M  V30 4964 C 478.084 4.07588 1.30599 0
M  V30 4965 C 477.41 4.69222 2.56387 0
M  V30 4966 C 478.71 5.20455 0.438645 0
M  V30 4967 H 480.404 2.99388 -0.0266991 0
M  V30 4968 H 477.95 1.43993 -0.0142812 0
M  V30 4969 H 479.903 3.49198 2.35878 0
M  V30 4970 H 478.627 2.24934 2.36796 0
M  V30 4971 H 477.286 3.59575 0.71424 0
M  V30 4972 H 476.934 3.9046 3.17097 0
M  V30 4973 H 476.634 5.41653 2.27784 0
M  V30 4974 H 478.158 5.20844 3.18675 0
M  V30 4975 H 479.572 5.65221 0.959085 0
M  V30 4976 H 477.969 5.99594 0.246466 0
M  V30 4977 H 479.039 4.8192 -0.536738 0
M  V30 4978 N 480.382 0.0267497 1.57577 0
M  V30 4979 C 481.628 -0.653371 1.91987 0
M  V30 4980 C 481.961 -1.71915 0.903263 0
M  V30 4981 O 481.236 -1.94358 -0.0743387 0
M  V30 4982 C 481.519 -1.272 3.36886 0
M  V30 4983 C 481.372 -0.215938 4.49281 0
M  V30 4984 C 482.691 -2.19069 3.81703 0
M  V30 4985 H 479.81 -0.236047 0.698177 0
M  V30 4986 H 482.452 0.0835236 1.89816 0
M  V30 4987 H 480.602 -1.90005 3.38866 0
M  V30 4988 H 482.274 0.41449 4.59434 0
M  V30 4989 H 480.517 0.458855 4.31366 0
M  V30 4990 H 481.188 -0.688347 5.47691 0
M  V30 4991 H 483.664 -1.66253 3.81444 0
M  V30 4992 H 482.54 -2.59307 4.83788 0
M  V30 4993 H 482.801 -3.08087 3.17072 0
M  V30 4994 N 481.861 -1.55662 -0.24637 0
M  V30 4995 C 483.109 -1.77168 -0.972411 0
M  V30 4996 C 483.43 -0.590827 -1.85834 0
M  V30 4997 O 482.7 0.393365 -1.9191 0
M  V30 4998 H 481.28 -0.653405 -0.362038 0
M  V30 4999 H 483.942 -1.93101 -0.264189 0
M  V30 5000 H 483.038 -2.68335 -1.59382 0
M  V30 5001 N 483.339 0.512053 -1.4905 0
M  V30 5002 C 484.579 1.27715 -1.59588 0
M  V30 5003 C 484.943 1.90071 -0.271502 0
M  V30 5004 O 486.144 2.67616 -0.251987 0
M  V30 5005 C 484.415 2.32399 -2.71524 0
M  V30 5006 S 485.974 3.18396 -3.01943 0
M  V30 5007 H 482.792 0.43419 -0.563027 0
M  V30 5008 H 485.394 0.581315 -1.86657 0
M  V30 5009 H 484.098 1.85101 -3.66287 0
M  V30 5010 H 483.629 3.06667 -2.46412 0
M  V30 5011 H 485.644 4.32842 -2.42616 0
M  V30 5012 N 484.817 1.37938 0.762283 0
M  V30 5013 C 486.094 1.24196 1.51112 0
M  V30 5014 C 486.474 -0.160409 2.1049 0
M  V30 5015 O 485.822 -1.16904 1.96331 0
M  V30 5016 C 486.032 2.34537 2.58445 0
M  V30 5017 C 487.38 2.7254 3.25588 0
M  V30 5018 O 488.404 2.33783 2.68745 0
M  V30 5019 O 487.263 3.39343 4.28379 0
M  V30 5020 H 484.357 0.485175 0.669727 0
M  V30 5021 H 486.903 1.49743 0.798438 0
M  V30 5022 H 485.675 3.28406 2.12756 0
M  V30 5023 H 485.298 2.10505 3.37303 0
M  V30 5024 N 486.295 -0.989507 1.22664 0
M  V30 5025 C 487.205 -2.11449 1.01619 0
M  V30 5026 C 488.221 -1.73962 -0.036545 0
M  V30 5027 O 489.397 -2.00788 0.156924 0
M  V30 5028 C 486.462 -3.41465 0.600204 0
M  V30 5029 C 485.523 -3.93033 1.72695 0
M  V30 5030 C 484.756 -5.16844 1.33071 0
M  V30 5031 O 484.979 -5.7001 0.210975 0
M  V30 5032 O 483.913 -5.6225 2.14845 0
M  V30 5033 H 487.739 -2.32088 1.9588 0
M  V30 5034 H 485.324 -1.09823 1.01289 0
M  V30 5035 H 487.206 -4.19695 0.37873 0
M  V30 5036 H 485.881 -3.22178 -0.313511 0
M  V30 5037 H 484.788 -3.15961 2.00298 0
M  V30 5038 H 486.121 -4.16758 2.61865 0
M  V30 5039 N 487.773 -1.03688 -1.18687 0
M  V30 5040 C 489.013 -0.746858 -1.90267 0
M  V30 5041 C 489.377 0.712075 -1.78307 0
M  V30 5042 O 490.578 1.11553 -2.44559 0
M  V30 5043 C 488.849 -1.19543 -3.36815 0
M  V30 5044 S 490.408 -1.03047 -4.26529 0
M  V30 5045 H 487.226 -0.271663 -0.657054 0
M  V30 5046 H 489.828 -1.32838 -1.43437 0
M  V30 5047 H 488.532 -2.2527 -3.43047 0
M  V30 5048 H 488.063 -0.607533 -3.88681 0
M  V30 5049 H 490.078 0.0543232 -4.9617 0
M  V30 5050 N 489.251 1.34841 -0.815825 0
M  V30 5051 C 490.497 1.98793 -0.401129 0
M  V30 5052 C 490.83 1.64548 1.03139 0
M  V30 5053 O 490.105 0.913487 1.71714 0
M  V30 5054 C 490.388 3.55143 -0.595409 0
M  V30 5055 C 490.241 3.99155 -2.07352 0
M  V30 5056 C 491.56 4.40092 -0.0268823 0
M  V30 5057 H 488.679 0.722146 -0.14722 0
M  V30 5058 H 491.321 1.59847 -1.02707 0
M  V30 5059 H 489.471 3.8845 -0.0625779 0
M  V30 5060 H 491.143 3.76216 -2.66945 0
M  V30 5061 H 489.386 3.49726 -2.56659 0
M  V30 5062 H 490.057 5.07971 -2.1603 0
M  V30 5063 H 492.533 4.13298 -0.482042 0
M  V30 5064 H 491.409 5.48562 -0.19267 0
M  V30 5065 H 491.67 4.29016 1.06759 0
M  V30 5066 N 490.729 0.570148 1.46925 0
M  V30 5067 C 492.145 0.23087 1.57921 0
M  V30 5068 C 492.345 -1.26676 1.56702 0
M  V30 5069 O 491.401 -2.04774 1.47729 0
M  V30 5070 C 492.714 0.868973 2.8787 0
M  V30 5071 C 494.262 0.841397 3.01479 0
M  V30 5072 C 494.737 1.45881 4.34146 0
M  V30 5073 N 496.228 1.42258 4.40814 0
M  V30 5074 C 496.963 1.8698 5.42057 0
M  V30 5075 N 496.459 2.39618 6.50042 0
M  V30 5076 N 498.252 1.77972 5.33181 0
M  V30 5077 H 490.403 1.54301 1.45962 0
M  V30 5078 H 492.666 0.644224 0.69547 0
M  V30 5079 H 492.372 1.922 2.94537 0
M  V30 5080 H 492.246 0.369682 3.75384 0
M  V30 5081 H 494.633 -0.202973 2.94401 0
M  V30 5082 H 494.714 1.37858 2.15474 0
M  V30 5083 H 494.358 2.50231 4.4198 0
M  V30 5084 H 494.288 0.896958 5.18905 0
M  V30 5085 H 496.779 1.03768 3.63374 0
M  V30 5086 H 497.092 2.71633 7.23488 0
M  V30 5087 H 495.437 2.43636 6.50897 0
M  V30 5088 H 498.628 1.36617 4.4772 0
M  V30 5089 H 498.801 2.13143 6.11943 0
M  V30 5090 N 492.207 -1.54576 0.307264 0
M  V30 5091 C 493.484 -1.92377 -0.353605 0
M  V30 5092 C 493.864 -1.23517 -1.71192 0
M  V30 5093 O 493.212 -0.373101 -2.25433 0
M  V30 5094 C 493.422 -3.45928 -0.462039 0
M  V30 5095 C 494.77 -4.18278 -0.729975 0
M  V30 5096 O 495.794 -3.51997 -0.545605 0
M  V30 5097 O 494.653 -5.3563 -1.08454 0
M  V30 5098 H 491.747 -0.802747 -0.198812 0
M  V30 5099 H 494.293 -1.65929 0.355783 0
M  V30 5100 H 493.065 -3.88187 0.492592 0
M  V30 5101 H 492.688 -3.78431 -1.21965 0
M  V30 5102 N 493.685 -0.035106 -1.57561 0
M  V30 5103 C 494.632 0.94474 -2.10578 0
M  V30 5104 C 495.602 1.3192 -1.00927 0
M  V30 5105 O 496.787 1.41147 -1.28382 0
M  V30 5106 C 493.927 2.21982 -2.64231 0
M  V30 5107 C 493.04 1.90128 -3.87911 0
M  V30 5108 C 492.175 3.11975 -4.29936 0
M  V30 5109 C 491.214 2.75968 -5.46359 0
M  V30 5110 N 490.351 3.90459 -5.83512 0
M  V30 5111 H 495.191 0.485717 -2.94015 0
M  V30 5112 H 492.728 0.228143 -1.4532 0
M  V30 5113 H 494.686 2.96572 -2.9343 0
M  V30 5114 H 493.316 2.6549 -1.83616 0
M  V30 5115 H 492.368 1.05755 -3.65404 0
M  V30 5116 H 493.68 1.59613 -4.72573 0
M  V30 5117 H 492.834 3.9488 -4.60603 0
M  V30 5118 H 491.573 3.45657 -3.44053 0
M  V30 5119 H 490.578 1.91478 -5.1538 0
M  V30 5120 H 491.803 2.43497 -6.33945 0
M  V30 5121 H 489.749 4.23971 -5.00584 0
M  V30 5122 H 489.666 3.63588 -6.62827 0
M  V30 5123 H 490.934 4.7405 -6.18787 0
M  V30 5124 N 495.163 1.55791 0.238111 0
M  V30 5125 C 496.44 1.68798 0.98826 0
M  V30 5126 C 496.82 0.577562 2.03045 0
M  V30 5127 O 496.168 -0.41778 2.24648 0
M  V30 5128 C 496.378 3.09454 1.61367 0
M  V30 5129 C 497.726 3.68335 2.11221 0
M  V30 5130 O 498.75 3.1231 1.71292 0
M  V30 5131 O 497.609 4.6657 2.84561 0
M  V30 5132 H 494.703 0.686881 0.460568 0
M  V30 5133 H 497.249 1.68118 0.231202 0
M  V30 5134 H 496.021 3.81726 0.860295 0
M  V30 5135 H 495.644 3.14182 2.4367 0
M  V30 5136 N 496.642 -0.504142 1.49319 0
M  V30 5137 C 498.053 -1.08572 1.51885 0
M  V30 5138 C 498.404 -1.93842 0.303255 0
M  V30 5139 O 497.529 -2.0828 -0.58724 0
M  V30 5140 C 498.124 -1.97574 2.75227 0
M  V30 5141 C 496.683 -2.509 2.80581 0
M  V30 5142 C 495.83 -1.28447 2.45757 0
M  V30 5143 H 498.781 -0.288194 1.56061 0
M  V30 5144 H 498.802 -2.82219 2.55211 0
M  V30 5145 H 498.314 -1.35486 3.63683 0
M  V30 5146 H 496.415 -3.16636 1.96398 0
M  V30 5147 H 496.528 -2.88268 3.82673 0
M  V30 5148 H 494.892 -1.60868 1.97468 0
M  V30 5149 H 495.675 -0.68072 3.36483 0
M  V30 5150 N 498.12 -1.38341 -0.754957 0
M  V30 5151 C 499.536 -1.19508 -1.05783 0
M  V30 5152 C 499.736 -0.0428005 -2.01455 0
M  V30 5153 O 498.792 0.611861 -2.44975 0
M  V30 5154 C 500.105 -2.52091 -1.63923 0
M  V30 5155 C 501.653 -2.58762 -1.76101 0
M  V30 5156 C 502.128 -3.91517 -2.37652 0
M  V30 5157 N 503.619 -3.93049 -2.45085 0
M  V30 5158 C 504.354 -4.9253 -2.93602 0
M  V30 5159 N 503.85 -6.02408 -3.42165 0
M  V30 5160 N 505.643 -4.79921 -2.92629 0
M  V30 5161 H 497.794 -2.1206 -0.120056 0
M  V30 5162 H 500.057 -0.94089 -0.11589 0
M  V30 5163 H 499.763 -3.36858 -1.01093 0
M  V30 5164 H 499.637 -2.70388 -2.63003 0
M  V30 5165 H 502.024 -1.74391 -2.38058 0
M  V30 5166 H 502.105 -2.44333 -0.757294 0
M  V30 5167 H 501.749 -4.76309 -1.76329 0
M  V30 5168 H 501.679 -4.03256 -3.38662 0
M  V30 5169 H 504.17 -3.13685 -2.10736 0
M  V30 5170 H 504.483 -6.74248 -3.77637 0
M  V30 5171 H 502.828 -6.0603 -3.40225 0
M  V30 5172 H 506.019 -3.93194 -2.54001 0
M  V30 5173 H 506.192 -5.57601 -3.30128 0
M  V30 5174 N 499.598 0.982988 -1.23187 0
M  V30 5175 C 500.847 1.71817 -1.05649 0
M  V30 5176 C 501.16 1.91315 0.407176 0
M  V30 5177 O 502.366 2.62256 0.702436 0
M  V30 5178 C 500.822 3.09188 -1.84203 0
M  V30 5179 C 500.43 2.97586 -3.34882 0
M  V30 5180 C 502.174 3.86684 -1.75146 0
M  V30 5181 C 500.081 4.30173 -4.05839 0
M  V30 5182 H 499.011 0.644258 -0.391724 0
M  V30 5183 H 501.662 1.09659 -1.4713 0
M  V30 5184 H 500.044 3.72087 -1.35527 0
M  V30 5185 H 501.218 2.43793 -3.91026 0
M  V30 5186 H 499.533 2.33567 -3.44725 0
M  V30 5187 H 502.13 4.84836 -2.25473 0
M  V30 5188 H 502.473 4.10136 -0.713737 0
M  V30 5189 H 503.006 3.30482 -2.21419 0
M  V30 5190 H 499.745 4.11918 -5.09906 0
M  V30 5191 H 499.265 4.83841 -3.54482 0
M  V30 5192 H 500.944 4.98873 -4.11989 0
M  V30 5193 N 501.076 1.04316 1.18135 0
M  V30 5194 C 502.039 0.640794 2.2006 0
M  V30 5195 C 503.039 -0.303124 1.57917 0
M  V30 5196 O 504.229 -0.0881855 1.73977 0
M  V30 5197 C 501.361 -0.060148 3.40847 0
M  V30 5198 H 502.554 1.54281 2.57172 0
M  V30 5199 H 500.107 0.836004 1.32063 0
M  V30 5200 H 500.842 -0.975845 3.0927 0
M  V30 5201 H 500.627 0.618319 3.87194 0
M  V30 5202 H 502.117 -0.328082 4.16309 0
M  V30 5203 N 502.554 -1.34406 0.822964 0
M  V30 5204 C 503.779 -2.0304 0.423034 0
M  V30 5205 C 504.204 -1.61568 -0.963196 0
M  V30 5206 O 503.562 -0.800339 -1.62678 0
M  V30 5207 C 503.61 -3.56636 0.53321 0
M  V30 5208 O 502.714 -4.09971 -0.446939 0
M  V30 5209 H 502.055 -0.64075 0.174171 0
M  V30 5210 H 504.585 -1.71653 1.11339 0
M  V30 5211 H 504.595 -4.05945 0.408991 0
M  V30 5212 H 503.27 -3.86168 1.54425 0
M  V30 5213 H 501.847 -3.71835 -0.281601 0
M  V30 5214 N 504.032 -0.577932 -1.46621 0
M  V30 5215 C 505.262 -0.0670668 -2.06491 0
M  V30 5216 C 505.67 1.24119 -1.42798 0
M  V30 5217 O 505.013 1.76016 -0.525759 0
M  V30 5218 C 505.075 0.177995 -3.59059 0
M  V30 5219 C 504.739 -1.04394 -4.44917 0
M  V30 5220 C 505.736 -1.95479 -4.81751 0
M  V30 5221 C 503.421 -1.26444 -4.86125 0
M  V30 5222 C 505.415 -3.06965 -5.58615 0
M  V30 5223 C 503.102 -2.38237 -5.62749 0
M  V30 5224 C 504.1 -3.28327 -5.98908 0
M  V30 5225 O 503.788 -4.38179 -6.73984 0
M  V30 5226 H 503.52 -0.0523159 -0.673973 0
M  V30 5227 H 506.074 -0.796966 -1.89308 0
M  V30 5228 H 504.304 0.962451 -3.74531 0
M  V30 5229 H 505.993 0.636782 -4.00874 0
M  V30 5230 H 506.759 -1.79657 -4.50498 0
M  V30 5231 H 502.638 -0.572316 -4.57434 0
M  V30 5232 H 506.182 -3.77309 -5.86757 0
M  V30 5233 H 502.079 -2.54023 -5.93416 0
M  V30 5234 H 502.847 -4.36486 -6.92403 0
M  V30 5235 N 505.51 1.54411 -0.315457 0
M  V30 5236 C 506.926 1.59556 0.037464 0
M  V30 5237 C 507.126 1.33217 1.5118 0
M  V30 5238 O 506.182 1.11264 2.26664 0
M  V30 5239 C 507.495 2.98372 -0.373477 0
M  V30 5240 C 509.043 3.11324 -0.323452 0
M  V30 5241 C 509.518 4.52472 -0.709433 0
M  V30 5242 N 511.009 4.58437 -0.662524 0
M  V30 5243 C 511.744 5.65751 -0.933474 0
M  V30 5244 N 511.24 6.81039 -1.27114 0
M  V30 5245 N 513.033 5.55489 -0.859573 0
M  V30 5246 H 505.184 1.6979 -1.27614 0
M  V30 5247 H 507.447 0.793732 -0.518356 0
M  V30 5248 H 507.153 3.22618 -1.40037 0
M  V30 5249 H 507.027 3.76264 0.265615 0
M  V30 5250 H 509.414 2.86818 0.694223 0
M  V30 5251 H 509.495 2.35555 -0.997367 0
M  V30 5252 H 509.139 4.7771 -1.72498 0
M  V30 5253 H 509.069 5.26598 -0.0132923 0
M  V30 5254 H 511.56 3.75636 -0.413065 0
M  V30 5255 H 511.873 7.58816 -1.46348 0
M  V30 5256 H 510.218 6.82555 -1.30932 0
M  V30 5257 H 513.409 4.64299 -0.595324 0
M  V30 5258 H 513.582 6.39036 -1.0741 0
M  V30 5259 N 506.988 0.0434614 1.5754 0
M  V30 5260 C 507.92 -0.962586 2.08007 0
M  V30 5261 C 508.933 -1.27972 1.00634 0
M  V30 5262 O 510.122 -1.24186 1.28219 0
M  V30 5263 C 507.222 -2.28621 2.50171 0
M  V30 5264 C 506.395 -2.15214 3.80791 0
M  V30 5265 C 505.454 -3.30633 4.09351 0
M  V30 5266 O 504.48 -3.0688 4.79388 0
M  V30 5267 N 505.682 -4.54873 3.60654 0
M  V30 5268 H 508.447 -0.531891 2.94942 0
M  V30 5269 H 506.008 -0.142965 1.61268 0
M  V30 5270 H 508 -3.04689 2.66359 0
M  V30 5271 H 506.57 -2.63283 1.68525 0
M  V30 5272 H 505.79 -1.23785 3.74261 0
M  V30 5273 H 507.078 -2.03475 4.66343 0
M  V30 5274 H 506.476 -4.77063 3.04019 0
M  V30 5275 H 505.033 -5.2806 3.82094 0
M  V30 5276 N 508.466 -1.55915 -0.229846 0
M  V30 5277 C 509.396 -1.94754 -1.28815 0
M  V30 5278 C 510.377 -0.814657 -1.49323 0
M  V30 5279 O 511.562 -1.07631 -1.61645 0
M  V30 5280 C 508.692 -2.25705 -2.63959 0
M  V30 5281 C 507.646 -3.41406 -2.5812 0
M  V30 5282 C 506.972 -3.57941 -3.97218 0
M  V30 5283 C 508.272 -4.76616 -2.13623 0
M  V30 5284 H 509.966 -2.83404 -0.965547 0
M  V30 5285 H 507.512 -1.36353 -0.463028 0
M  V30 5286 H 509.465 -2.51467 -3.38146 0
M  V30 5287 H 508.189 -1.339 -2.9789 0
M  V30 5288 H 506.848 -3.1568 -1.86391 0
M  V30 5289 H 506.496 -2.63526 -4.28443 0
M  V30 5290 H 506.196 -4.35757 -3.94195 0
M  V30 5291 H 507.72 -3.86042 -4.73079 0
M  V30 5292 H 509.134 -5.01637 -2.77549 0
M  V30 5293 H 507.531 -5.57655 -2.21677 0
M  V30 5294 H 508.601 -4.7253 -1.08829 0
M  V30 5295 N 509.944 0.496216 -1.49584 0
M  V30 5296 C 510.854 1.62352 -1.69349 0
M  V30 5297 C 511.87 1.64184 -0.576147 0
M  V30 5298 O 513.046 1.82517 -0.85144 0
M  V30 5299 C 510.111 2.98698 -1.76013 0
M  V30 5300 C 509.172 3.07454 -2.99617 0
M  V30 5301 C 508.405 4.37296 -3.05953 0
M  V30 5302 O 508.628 5.2637 -2.19752 0
M  V30 5303 O 507.562 4.51124 -3.9846 0
M  V30 5304 H 511.388 1.48606 -2.64859 0
M  V30 5305 H 508.973 0.673022 -1.33382 0
M  V30 5306 H 510.855 3.79725 -1.82721 0
M  V30 5307 H 509.53 3.12696 -0.836828 0
M  V30 5308 H 508.437 2.25597 -2.98424 0
M  V30 5309 H 509.77 2.98385 -3.91443 0
M  V30 5310 N 511.423 1.38739 0.74761 0
M  V30 5311 C 512.355 1.32341 1.87132 0
M  V30 5312 C 513.368 0.234502 1.61102 0
M  V30 5313 O 514.557 0.492516 1.71571 0
M  V30 5314 C 511.657 1.02915 3.22896 0
M  V30 5315 C 510.83 2.22834 3.76383 0
M  V30 5316 C 509.889 1.90059 4.90677 0
M  V30 5317 O 508.915 2.62615 5.04997 0
M  V30 5318 N 510.117 0.859141 5.74107 0
M  V30 5319 H 512.882 2.29175 1.93129 0
M  V30 5320 H 510.443 1.32678 0.927805 0
M  V30 5321 H 512.435 0.79031 3.96908 0
M  V30 5322 H 511.005 0.148572 3.12247 0
M  V30 5323 H 510.225 2.62747 2.93867 0
M  V30 5324 H 511.513 3.02851 4.08851 0
M  V30 5325 H 510.911 0.257564 5.65113 0
M  V30 5326 H 509.468 0.680189 6.48241 0
M  V30 5327 N 512.901 -0.976442 1.23707 0
M  V30 5328 C 513.834 -2.06793 0.964973 0
M  V30 5329 C 514.812 -1.62304 -0.0981472 0
M  V30 5330 O 515.996 -1.88464 0.0369477 0
M  V30 5331 C 513.123 -3.35636 0.454522 0
M  V30 5332 C 512.169 -3.99069 1.50485 0
M  V30 5333 S 513.002 -4.37814 3.0835 0
M  V30 5334 C 514.158 -5.69805 2.58985 0
M  V30 5335 H 514.391 -2.29556 1.88922 0
M  V30 5336 H 511.924 -1.11317 1.06995 0
M  V30 5337 H 513.882 -4.10162 0.166626 0
M  V30 5338 H 512.543 -3.10876 -0.448871 0
M  V30 5339 H 511.736 -4.91896 1.09792 0
M  V30 5340 H 511.338 -3.30938 1.7423 0
M  V30 5341 H 513.63 -6.46919 2.01252 0
M  V30 5342 H 514.573 -6.15345 3.50366 0
M  V30 5343 H 514.981 -5.27994 1.99705 0
M  V30 5344 N 514.379 -1.04941 -1.1758 0
M  V30 5345 C 515.309 -0.669172 -2.23706 0
M  V30 5346 C 516.29 0.331835 -1.66832 0
M  V30 5347 O 517.475 0.209988 -1.93061 0
M  V30 5348 C 514.605 -0.0404889 -3.47276 0
M  V30 5349 C 513.559 -0.965983 -4.16957 0
M  V30 5350 C 512.885 -0.201312 -5.34321 0
M  V30 5351 C 514.185 -2.28902 -4.69469 0
M  V30 5352 H 515.879 -1.55639 -2.55767 0
M  V30 5353 H 513.425 -0.749793 -1.22939 0
M  V30 5354 H 515.378 0.237298 -4.20731 0
M  V30 5355 H 514.102 0.881658 -3.14475 0
M  V30 5356 H 512.761 -1.22829 -3.45411 0
M  V30 5357 H 512.409 0.723519 -4.97769 0
M  V30 5358 H 512.109 -0.817968 -5.81879 0
M  V30 5359 H 513.633 0.0692499 -6.10561 0
M  V30 5360 H 515.047 -2.07132 -5.34574 0
M  V30 5361 H 513.444 -2.85942 -5.27596 0
M  V30 5362 H 514.514 -2.92937 -3.86414 0
M  V30 5363 N 515.857 1.33968 -0.830081 0
M  V30 5364 C 516.789 2.28194 -0.21448 0
M  V30 5365 C 517.802 1.5135 0.599752 0
M  V30 5366 O 518.991 1.73286 0.42826 0
M  V30 5367 C 516.091 3.31221 0.717356 0
M  V30 5368 C 515.264 4.37365 -0.055613 0
M  V30 5369 C 514.323 5.2011 0.798231 0
M  V30 5370 O 513.349 5.68691 0.240616 0
M  V30 5371 N 514.551 5.40523 2.11695 0
M  V30 5372 H 517.316 2.81662 -1.02405 0
M  V30 5373 H 514.877 1.46568 -0.687713 0
M  V30 5374 H 516.869 3.83477 1.29334 0
M  V30 5375 H 515.439 2.78095 1.42765 0
M  V30 5376 H 514.659 3.85727 -0.812936 0
M  V30 5377 H 515.947 5.05397 -0.587444 0
M  V30 5378 H 515.345 5.0274 2.59363 0
M  V30 5379 H 513.902 5.95871 2.64162 0
M  V30 5380 N 517.335 0.585699 1.46312 0
M  V30 5381 C 518.583 0.072278 2.01971 0
M  V30 5382 C 518.904 -1.29345 1.45928 0
M  V30 5383 O 518.174 -1.84973 0.645109 0
M  V30 5384 H 516.754 0.023729 0.746623 0
M  V30 5385 H 519.416 0.762155 1.7938 0
M  V30 5386 H 518.512 0.00552767 3.121 0
M  V30 5387 N 518.813 -1.54241 0.323641 0
M  V30 5388 C 519.761 -2.25813 -0.557804 0
M  V30 5389 C 520.755 -1.27225 -1.11849 0
M  V30 5390 O 521.961 -1.45001 -1.06652 0
M  V30 5391 H 518.336 -0.72532 -0.198532 0
M  V30 5392 H 520.307 -2.98322 0.0681112 0
M  V30 5393 C 519.056 -3.02913 -1.70701 0
M  V30 5394 H 518.379 -3.78593 -1.28482 0
M  V30 5395 H 519.819 -3.56238 -2.29935 0
M  V30 5396 C 518.278 -2.11217 -2.62467 0
M  V30 5397 O 518.808 -1.69508 -3.64184 0
M  V30 5398 N 517.014 -1.76704 -2.30703 0
M  V30 5399 H 516.561 -2.1082 -1.48029 0
M  V30 5400 H 516.519 -1.15631 -2.92364 0
M  V30 5401 N 520.291 -0.0518155 -1.57515 0
M  V30 5402 C 521.521 0.63048 -1.96745 0
M  V30 5403 C 521.929 1.64875 -0.928054 0
M  V30 5404 O 521.272 1.83449 0.0960678 0
M  V30 5405 C 521.334 1.37381 -3.32215 0
M  V30 5406 C 520.998 0.511298 -4.54131 0
M  V30 5407 C 521.995 -0.222884 -5.19422 0
M  V30 5408 C 519.68 0.442035 -5.00351 0
M  V30 5409 C 521.674 -1.01476 -6.2927 0
M  V30 5410 C 519.361 -0.35353 -6.10077 0
M  V30 5411 C 520.359 -1.08062 -6.74397 0
M  V30 5412 O 520.047 -1.8631 -7.82013 0
M  V30 5413 H 519.779 0.177126 -0.652382 0
M  V30 5414 H 522.333 -0.114726 -2.05079 0
M  V30 5415 H 520.563 2.16466 -3.20436 0
M  V30 5416 H 522.252 1.9464 -3.56188 0
M  V30 5417 H 523.018 -0.178846 -4.8467 0
M  V30 5418 H 518.897 0.997562 -4.50077 0
M  V30 5419 H 522.441 -1.58279 -6.79407 0
M  V30 5420 H 518.338 -0.399205 -6.44264 0
M  V30 5421 H 519.106 -1.78528 -7.98793 0
M  V30 5422 N 521.769 1.56035 0.221574 0
M  V30 5423 C 523.017 1.78693 0.944102 0
M  V30 5424 C 523.338 0.620317 1.8487 0
M  V30 5425 O 522.608 -0.362784 1.92512 0
M  V30 5426 H 521.188 0.659082 0.351597 0
M  V30 5427 H 523.85 1.93497 0.233435 0
M  V30 5428 H 522.946 2.70837 1.55093 0
M  V30 5429 N 523.247 -0.488276 1.49845 0
M  V30 5430 C 524.477 -1.26344 1.63465 0
M  V30 5431 C 524.885 -1.86637 0.310379 0
M  V30 5432 O 524.228 -1.69184 -0.715712 0
M  V30 5433 C 524.29 -2.42407 2.65479 0
M  V30 5434 C 523.954 -2.02886 4.09495 0
M  V30 5435 C 524.951 -1.56124 4.95904 0
M  V30 5436 C 522.636 -2.12131 4.55308 0
M  V30 5437 C 524.63 -1.19129 6.26169 0
M  V30 5438 C 522.317 -1.74747 5.85582 0
M  V30 5439 C 523.315 -1.28322 6.70837 0
M  V30 5440 O 523.003 -0.914491 7.98682 0
M  V30 5441 H 522.735 -0.388921 0.552916 0
M  V30 5442 H 525.289 -0.591288 1.96705 0
M  V30 5443 H 523.519 -3.12739 2.27445 0
M  V30 5444 H 525.208 -3.04409 2.68495 0
M  V30 5445 H 525.974 -1.48417 4.61733 0
M  V30 5446 H 521.853 -2.47217 3.89107 0
M  V30 5447 H 525.397 -0.828211 6.92666 0
M  V30 5448 H 521.294 -1.82109 6.19279 0
M  V30 5449 H 522.062 -1.04485 8.11804 0
M  V30 5450 N 524.725 -1.39134 -0.740242 0
M  V30 5451 C 525.657 -1.33332 -1.86428 0
M  V30 5452 C 526.67 -0.243042 -1.60976 0
M  V30 5453 O 527.859 -0.501608 -1.71307 0
M  V30 5454 C 524.959 -1.04626 -3.22346 0
M  V30 5455 C 524.132 -2.24826 -3.75196 0
M  V30 5456 C 523.191 -1.92659 -4.89662 0
M  V30 5457 O 522.217 -2.6529 -5.03597 0
M  V30 5458 N 523.419 -0.889575 -5.73643 0
M  V30 5459 H 526.184 -2.30196 -1.91911 0
M  V30 5460 H 523.745 -1.33168 -0.920756 0
M  V30 5461 H 525.737 -0.811347 -3.96484 0
M  V30 5462 H 524.307 -0.165129 -3.12164 0
M  V30 5463 H 523.527 -2.64301 -2.9247 0
M  V30 5464 H 524.815 -3.05015 -4.07239 0
M  V30 5465 H 524.213 -0.287529 -5.64969 0
M  V30 5466 H 522.77 -0.714557 -6.47871 0
M  V30 5467 N 526.204 0.969867 -1.24223 0
M  V30 5468 C 527.62 1.23809 -1.00716 0
M  V30 5469 C 527.82 1.99469 0.285358 0
M  V30 5470 O 526.876 2.31764 1.00207 0
M  V30 5471 C 528.189 2.02734 -2.2208 0
M  V30 5472 C 529.737 2.15834 -2.26681 0
M  V30 5473 C 530.212 2.98154 -3.47661 0
M  V30 5474 N 531.703 3.05737 -3.47964 0
M  V30 5475 C 532.438 3.69785 -4.38231 0
M  V30 5476 N 531.934 4.35569 -5.3875 0
M  V30 5477 N 533.727 3.66775 -4.25949 0
M  V30 5478 H 525.878 0.463294 -2.07286 0
M  V30 5479 H 528.141 0.267348 -0.909521 0
M  V30 5480 H 527.847 1.54524 -3.15935 0
M  V30 5481 H 527.721 3.0347 -2.24021 0
M  V30 5482 H 530.108 2.63248 -1.33359 0
M  V30 5483 H 530.189 1.14453 -2.28767 0
M  V30 5484 H 529.833 2.51435 -4.41297 0
M  V30 5485 H 529.763 3.99729 -3.42818 0
M  V30 5486 H 532.254 2.58941 -2.75242 0
M  V30 5487 H 532.567 4.82251 -6.03866 0
M  V30 5488 H 530.912 4.34244 -5.42639 0
M  V30 5489 H 534.103 3.14558 -3.46657 0
M  V30 5490 H 534.276 4.16407 -4.96497 0
M  V30 5491 N 527.682 1.05563 1.17022 0
M  V30 5492 C 528.612 0.681026 2.23348 0
M  V30 5493 C 529.593 -0.322983 1.67005 0
M  V30 5494 O 530.778 -0.199746 1.9317 0
M  V30 5495 C 527.908 0.0589053 3.4725 0
M  V30 5496 C 526.862 0.988082 4.16438 0
M  V30 5497 C 526.188 0.229646 5.34207 0
M  V30 5498 C 527.488 2.31388 4.68249 0
M  V30 5499 H 529.182 1.56993 2.54938 0
M  V30 5500 H 526.728 0.756302 1.2254 0
M  V30 5501 H 528.681 -0.214982 4.20851 0
M  V30 5502 H 527.405 -0.864968 3.14938 0
M  V30 5503 H 526.064 1.24659 3.44754 0
M  V30 5504 H 525.712 -0.697111 4.98146 0
M  V30 5505 H 525.412 0.848815 5.81437 0
M  V30 5506 H 526.936 -0.0368694 6.10589 0
M  V30 5507 H 528.35 2.09964 5.33468 0
M  V30 5508 H 526.747 2.88736 5.26072 0
M  V30 5509 H 527.817 2.94982 3.84855 0
M  V30 5510 N 529.16 -1.33526 0.837174 0
M  V30 5511 C 530.406 -1.98541 0.44193 0
M  V30 5512 C 530.761 -1.65124 -0.987517 0
M  V30 5513 O 530.054 -0.919948 -1.6807 0
M  V30 5514 C 530.248 -3.52367 0.597675 0
M  V30 5515 C 530.077 -4.00731 2.04071 0
M  V30 5516 C 528.847 -4.28649 2.67559 0
M  V30 5517 C 531.045 -4.17073 3.00923 0
M  V30 5518 N 529.027 -4.63142 4.02955 0
M  V30 5519 C 530.398 -4.54905 4.21261 0
M  V30 5520 C 532.453 -3.99358 2.97351 0
M  V30 5521 C 531.156 -4.76874 5.38501 0
M  V30 5522 C 533.182 -4.22501 4.1382 0
M  V30 5523 C 532.544 -4.60634 5.32912 0
M  V30 5524 H 528.643 -0.753246 0.210105 0
M  V30 5525 H 531.227 -1.61674 1.08488 0
M  V30 5526 H 529.398 -3.88397 -0.0154658 0
M  V30 5527 H 531.13 -4.04326 0.17404 0
M  V30 5528 H 527.885 -4.20077 2.18706 0
M  V30 5529 H 528.309 -4.84601 4.72748 0
M  V30 5530 H 532.951 -3.68993 2.06408 0
M  V30 5531 H 530.669 -5.06101 6.2999 0
M  V30 5532 H 534.255 -4.10316 4.12471 0
M  V30 5533 H 533.135 -4.78187 6.21536 0
M  V30 5534 N 530.638 -0.59345 -1.46 0
M  V30 5535 C 531.586 0.146268 -2.3214 0
M  V30 5536 C 532.58 0.873743 -1.45128 0
M  V30 5537 O 533.786 0.790912 -1.61693 0
M  V30 5538 H 530.161 0.0660349 -0.749095 0
M  V30 5539 H 532.132 -0.598895 -2.92328 0
M  V30 5540 C 530.881 1.1396 -3.28494 0
M  V30 5541 H 530.204 0.589252 -3.95434 0
M  V30 5542 H 531.644 1.62738 -3.91526 0
M  V30 5543 C 530.103 2.20604 -2.54628 0
M  V30 5544 O 530.633 3.28128 -2.31722 0
M  V30 5545 N 528.839 1.95502 -2.15005 0
M  V30 5546 H 528.386 1.0807 -2.33834 0
M  V30 5547 H 528.344 2.67064 -1.65904 0
M  V30 5548 N 532.116 1.54067 -0.331816 0
M  V30 5549 C 533.393 1.92915 0.322955 0
M  V30 5550 C 533.773 1.26225 1.69205 0
M  V30 5551 O 533.121 0.408919 2.24811 0
M  V30 5552 C 533.331 3.46619 0.406946 0
M  V30 5553 C 534.679 4.19386 0.663339 0
M  V30 5554 O 535.703 3.5282 0.489536 0
M  V30 5555 O 534.562 5.37288 0.999193 0
M  V30 5556 H 531.656 0.805808 0.186016 0
M  V30 5557 H 534.202 1.65342 -0.382135 0
M  V30 5558 H 532.974 3.87354 -0.554287 0
M  V30 5559 H 532.597 3.80324 1.15929 0
M  V30 5560 N 533.594 0.0601682 1.57485 0
M  V30 5561 C 534.541 -0.91112 2.12055 0
M  V30 5562 C 535.511 -1.30298 1.03013 0
M  V30 5563 O 536.696 -1.39087 1.30612 0
M  V30 5564 C 533.836 -2.1775 2.67729 0
M  V30 5565 C 532.949 -1.83933 3.90887 0
M  V30 5566 C 532.084 -3.05096 4.34845 0
M  V30 5567 C 531.123 -2.67241 5.5068 0
M  V30 5568 N 530.26 -3.81127 5.8965 0
M  V30 5569 H 535.1 -0.43888 2.9475 0
M  V30 5570 H 532.637 -0.204995 1.45665 0
M  V30 5571 H 534.595 -2.91866 2.98111 0
M  V30 5572 H 533.225 -2.62535 1.87816 0
M  V30 5573 H 532.277 -0.999287 3.6704 0
M  V30 5574 H 533.589 -1.52074 4.75052 0
M  V30 5575 H 532.743 -3.87502 4.66827 0
M  V30 5576 H 531.482 -3.40139 3.49509 0
M  V30 5577 H 530.487 -1.83254 5.18361 0
M  V30 5578 H 531.712 -2.3338 6.37738 0
M  V30 5579 H 529.658 -4.15954 5.07266 0
M  V30 5580 H 529.575 -3.52997 6.68528 0
M  V30 5581 H 530.843 -4.64145 6.2625 0
M  V30 5582 N 535.072 -1.5615 -0.213296 0
M  V30 5583 C 536.3 -1.83638 -0.953139 0
M  V30 5584 C 536.715 -0.640362 -1.77609 0
M  V30 5585 O 536.072 0.391071 -1.78261 0
M  V30 5586 C 536.123 -3.09735 -1.86405 0
M  V30 5587 O 535.844 -4.24723 -1.07435 0
M  V30 5588 C 537.345 -3.5027 -2.71709 0
M  V30 5589 H 534.565 -0.610263 -0.278962 0
M  V30 5590 H 537.109 -2.03247 -0.226035 0
M  V30 5591 H 535.264 -2.92077 -2.545 0
M  V30 5592 H 535.678 -4.9641 -1.69343 0
M  V30 5593 H 537.152 -4.41515 -3.31313 0
M  V30 5594 H 537.629 -2.72406 -3.44516 0
M  V30 5595 H 538.235 -3.70396 -2.09015 0
M  V30 5596 N 536.55 0.480323 -1.50102 0
M  V30 5597 C 537.497 1.57946 -1.6829 0
M  V30 5598 C 538.467 1.57611 -0.524223 0
M  V30 5599 O 539.652 1.75282 -0.753709 0
M  V30 5600 C 536.792 2.95978 -1.77457 0
M  V30 5601 C 535.905 3.06173 -3.04766 0
M  V30 5602 C 535.04 4.35063 -3.04784 0
M  V30 5603 C 534.079 4.38966 -4.26586 0
M  V30 5604 N 533.216 5.59314 -4.24396 0
M  V30 5605 H 538.056 1.41743 -2.62131 0
M  V30 5606 H 535.593 0.689304 -1.2995 0
M  V30 5607 H 537.551 3.76011 -1.80752 0
M  V30 5608 H 536.181 3.10837 -0.870637 0
M  V30 5609 H 535.233 2.19071 -3.10986 0
M  V30 5610 H 536.545 3.04916 -3.9475 0
M  V30 5611 H 535.699 5.23436 -3.06757 0
M  V30 5612 H 534.438 4.38915 -2.12614 0
M  V30 5613 H 533.443 3.48992 -4.24835 0
M  V30 5614 H 534.668 4.36813 -5.19972 0
M  V30 5615 H 532.614 5.63969 -3.35074 0
M  V30 5616 H 532.531 5.5976 -5.08138 0
M  V30 5617 H 533.799 6.49837 -4.30502 0
M  V30 5618 N 538.028 1.39524 0.732853 0
M  V30 5619 C 539.256 1.40143 1.52209 0
M  V30 5620 C 539.671 -0.00348836 1.888 0
M  V30 5621 O 539.028 -0.975357 1.5425 0
M  V30 5622 C 539.079 2.27632 2.8083 0
M  V30 5623 O 538.8 3.62654 2.45792 0
M  V30 5624 C 540.301 2.36658 3.74844 0
M  V30 5625 H 537.521 0.478604 0.470297 0
M  V30 5626 H 540.065 1.83366 0.905388 0
M  V30 5627 H 538.22 1.87818 3.38826 0
M  V30 5628 H 538.634 4.08941 3.28431 0
M  V30 5629 H 540.108 3.02118 4.61984 0
M  V30 5630 H 540.585 1.38638 4.16745 0
M  V30 5631 H 541.191 2.76951 3.22766 0
M  V30 5632 N 539.506 -0.963266 1.24736 0
M  V30 5633 C 540.917 -1.52145 1.08207 0
M  V30 5634 C 541.268 -1.93142 -0.345061 0
M  V30 5635 O 540.393 -1.77769 -1.23399 0
M  V30 5636 C 540.988 -2.76486 1.95808 0
M  V30 5637 C 539.547 -3.28646 1.8349 0
M  V30 5638 C 538.694 -2.01529 1.90476 0
M  V30 5639 H 541.645 -0.781083 1.38148 0
M  V30 5640 H 541.666 -3.49986 1.49297 0
M  V30 5641 H 541.178 -2.46617 2.99669 0
M  V30 5642 H 539.279 -3.63357 0.824787 0
M  V30 5643 H 539.392 -3.97246 2.67829 0
M  V30 5644 H 537.756 -2.16442 1.34258 0
M  V30 5645 H 538.539 -1.7402 2.95926 0
M  V30 5646 N 540.985 -1.06182 -1.16461 0
M  V30 5647 C 542.215 -0.797425 -1.9059 0
M  V30 5648 C 542.623 0.651845 -1.77616 0
M  V30 5649 O 541.966 1.45788 -1.11766 0
M  V30 5650 C 542.028 -1.11128 -3.41893 0
M  V30 5651 C 541.692 -2.55874 -3.78652 0
M  V30 5652 C 542.689 -3.54104 -3.80665 0
M  V30 5653 C 540.374 -2.91144 -4.09317 0
M  V30 5654 C 542.368 -4.85645 -4.12829 0
M  V30 5655 C 540.055 -4.22885 -4.41148 0
M  V30 5656 C 541.053 -5.19945 -4.42883 0
M  V30 5657 O 540.741 -6.49322 -4.73959 0
M  V30 5658 H 540.473 -0.288709 -0.611247 0
M  V30 5659 H 543.027 -1.41841 -1.4856 0
M  V30 5660 H 541.257 -0.433217 -3.84266 0
M  V30 5661 H 542.946 -0.831306 -3.97296 0
M  V30 5662 H 543.712 -3.28197 -3.57088 0
M  V30 5663 H 539.591 -2.16252 -4.07131 0
M  V30 5664 H 543.135 -5.61398 -4.14099 0
M  V30 5665 H 539.032 -4.48551 -4.6419 0
M  V30 5666 H 539.8 -6.54294 -4.91774 0
M  V30 5667 N 542.463 1.3308 -0.844243 0
M  V30 5668 C 543.393 2.3161 -0.296493 0
M  V30 5669 C 544.374 1.59215 0.598707 0
M  V30 5670 O 545.559 1.87077 0.521134 0
M  V30 5671 C 542.689 3.43313 0.524762 0
M  V30 5672 C 541.643 4.27115 -0.275106 0
M  V30 5673 C 540.969 5.30483 0.670236 0
M  V30 5674 C 542.269 5.00443 -1.49514 0
M  V30 5675 H 543.963 2.77672 -1.11976 0
M  V30 5676 H 541.509 1.33496 -0.539899 0
M  V30 5677 H 543.462 4.11273 0.918298 0
M  V30 5678 H 542.186 2.95952 1.3813 0
M  V30 5679 H 540.845 3.60787 -0.650267 0
M  V30 5680 H 540.493 4.79379 1.52332 0
M  V30 5681 H 540.193 5.87435 0.139123 0
M  V30 5682 H 541.717 6.01308 1.06117 0
M  V30 5683 H 543.131 5.61141 -1.17447 0
M  V30 5684 H 541.528 5.67071 -1.96343 0
M  V30 5685 H 542.598 4.28906 -2.26202 0
M  V30 5686 N 543.941 0.601185 1.45683 0
M  V30 5687 C 545.171 0.0999093 2.06358 0
M  V30 5688 C 545.579 -1.21831 1.44754 0
M  V30 5689 O 544.922 -1.75157 0.553695 0
M  V30 5690 C 544.984 -0.12085 3.59297 0
M  V30 5691 C 544.648 1.11459 4.432 0
M  V30 5692 C 545.645 2.03118 4.7858 0
M  V30 5693 C 543.33 1.34162 4.84051 0
M  V30 5694 C 545.324 3.15814 5.53661 0
M  V30 5695 C 543.011 2.4716 5.58888 0
M  V30 5696 C 544.009 3.37814 5.93608 0
M  V30 5697 O 543.697 4.48846 6.66928 0
M  V30 5698 H 543.429 0.0630316 0.673055 0
M  V30 5699 H 545.983 0.826982 1.88016 0
M  V30 5700 H 544.213 -0.902744 3.76015 0
M  V30 5701 H 545.902 -0.572925 4.01836 0
M  V30 5702 H 546.668 1.86801 4.47583 0
M  V30 5703 H 542.547 0.645018 4.56465 0
M  V30 5704 H 546.091 3.86596 5.8068 0
M  V30 5705 H 541.988 2.63432 5.89299 0
M  V30 5706 H 542.756 4.47446 6.85371 0
M  V30 5707 N 545.419 -1.53889 0.339982 0
M  V30 5708 C 546.369 -2.2165 -0.534354 0
M  V30 5709 C 547.353 -1.20266 -1.06887 0
M  V30 5710 O 548.545 -1.45827 -1.00316 0
M  V30 5711 C 545.674 -2.99014 -1.68659 0
M  V30 5712 C 544.76 -4.07751 -1.16618 0
M  V30 5713 N 545.151 -5.04469 -0.366717 0
M  V30 5714 C 543.449 -4.21998 -1.4434 0
M  V30 5715 C 544.15 -5.81638 -0.0847275 0
M  V30 5716 N 543.126 -5.39388 -0.675391 0
M  V30 5717 H 546.928 -2.93781 0.0835562 0
M  V30 5718 H 544.442 -1.61736 0.146665 0
M  V30 5719 H 546.439 -3.46056 -2.32489 0
M  V30 5720 H 545.099 -2.28408 -2.30781 0
M  V30 5721 H 546.11 -5.17899 -0.00811038 0
M  V30 5722 H 542.787 -3.62612 -2.06928 0
M  V30 5723 H 544.177 -6.69563 0.559943 0
M  V30 5724 N 546.897 -0.0685191 -1.57451 0
M  V30 5725 C 547.86 0.885173 -2.11417 0
M  V30 5726 C 548.86 1.22853 -1.03748 0
M  V30 5727 O 550.05 1.16235 -1.2975 0
M  V30 5728 C 547.182 2.18964 -2.61281 0
M  V30 5729 H 548.375 0.417034 -2.96986 0
M  V30 5730 H 545.928 0.18014 -1.55258 0
M  V30 5731 H 546.663 2.70321 -1.79156 0
M  V30 5732 H 546.448 1.9534 -3.39977 0
M  V30 5733 H 547.938 2.87242 -3.0312 0
M  V30 5734 N 548.375 1.56261 0.205012 0
M  V30 5735 C 549.307 1.90266 1.27795 0
M  V30 5736 C 550.32 0.792397 1.42214 0
M  V30 5737 O 551.509 1.07077 1.42817 0
M  V30 5738 C 548.609 2.11074 2.65143 0
M  V30 5739 C 547.782 3.42176 2.7246 0
M  V30 5740 C 546.841 3.52216 3.90936 0
M  V30 5741 O 545.867 4.25119 3.78501 0
M  V30 5742 N 547.069 2.84573 5.05963 0
M  V30 5743 H 549.834 2.82896 0.989434 0
M  V30 5744 H 547.395 1.57008 0.394981 0
M  V30 5745 H 549.387 2.15089 3.4281 0
M  V30 5746 H 547.957 1.2499 2.86524 0
M  V30 5747 H 547.177 3.50116 1.81142 0
M  V30 5748 H 548.465 4.28509 2.74331 0
M  V30 5749 H 547.863 2.25152 5.18963 0
M  V30 5750 H 546.42 2.94228 5.81613 0
M  V30 5751 N 549.853 -0.472356 1.50355 0
M  V30 5752 C 550.801 -1.59126 1.69651 0
M  V30 5753 C 551.795 -1.59793 0.56237 0
M  V30 5754 O 553.001 -1.63957 0.742832 0
M  V30 5755 H 549.376 -0.528008 0.535454 0
M  V30 5756 H 551.347 -1.40013 2.63513 0
M  V30 5757 C 550.096 -2.97075 1.8067 0
M  V30 5758 H 549.419 -2.9728 2.67329 0
M  V30 5759 H 550.859 -3.74825 1.98197 0
M  V30 5760 C 549.318 -3.32247 0.558016 0
M  V30 5761 O 549.848 -4.00553 -0.303399 0
M  V30 5762 N 548.054 -2.87659 0.412415 0
M  V30 5763 H 547.601 -2.32246 1.11443 0
M  V30 5764 H 547.559 -3.11556 -0.421908 0
M  V30 5765 N 551.331 -1.39911 -0.725443 0
M  V30 5766 C 552.579 -1.37382 -1.48224 0
M  V30 5767 C 552.9 0.0264107 -1.94982 0
M  V30 5768 O 552.17 0.979408 -1.6966 0
M  V30 5769 H 550.75 -0.505596 -0.549892 0
M  V30 5770 H 553.412 -1.7487 -0.860608 0
M  V30 5771 H 552.508 -2.04254 -2.3598 0
M  V30 5772 N 552.809 0.956637 -1.25245 0
M  V30 5773 C 553.739 2.07058 -1.07931 0
M  V30 5774 C 554.72 1.70096 0.0110361 0
M  V30 5775 O 555.905 1.93555 -0.158121 0
M  V30 5776 C 553.035 3.40272 -0.695124 0
M  V30 5777 C 551.989 3.91235 -1.73549 0
M  V30 5778 C 551.315 5.20921 -1.20604 0
M  V30 5779 C 552.615 4.17837 -3.13385 0
M  V30 5780 H 554.309 2.218 -2.01109 0
M  V30 5781 H 551.855 1.06581 -0.968326 0
M  V30 5782 H 553.808 4.1765 -0.560949 0
M  V30 5783 H 552.532 3.25462 0.272355 0
M  V30 5784 H 551.191 3.16025 -1.85807 0
M  V30 5785 H 550.839 5.02479 -0.228846 0
M  V30 5786 H 550.539 5.55987 -1.90136 0
M  V30 5787 H 552.063 6.00897 -1.08421 0
M  V30 5788 H 553.477 4.8588 -3.04292 0
M  V30 5789 H 551.874 4.64154 -3.80369 0
M  V30 5790 H 552.944 3.2419 -3.60595 0
M  V30 5791 N 554.287 1.06798 1.15896 0
M  V30 5792 C 555.534 0.787767 1.86549 0
M  V30 5793 C 555.862 -0.685959 1.82002 0
M  V30 5794 O 555.117 -1.5188 1.23414 0
M  V30 5795 C 555.416 1.23414 3.35416 0
M  V30 5796 C 555.082 2.71285 3.6016 0
M  V30 5797 C 553.744 3.11676 3.66622 0
M  V30 5798 C 556.096 3.6676 3.7032 0
M  V30 5799 C 553.424 4.4637 3.8075 0
M  V30 5800 C 555.776 5.01209 3.8597 0
M  V30 5801 C 554.44 5.41229 3.90676 0
M  V30 5802 H 553.71 0.288264 0.682631 0
M  V30 5803 H 556.357 1.338 1.37003 0
M  V30 5804 H 554.662 0.60319 3.87129 0
M  V30 5805 H 556.359 0.994298 3.88477 0
M  V30 5806 H 552.949 2.39015 3.55767 0
M  V30 5807 H 557.133 3.36685 3.64633 0
M  V30 5808 H 552.389 4.76855 3.82648 0
M  V30 5809 H 556.563 5.75067 3.92773 0
M  V30 5810 H 554.19 6.45602 4.01375 0
M  V30 5811 N 555.766 -1.3263 0.851289 0
M  V30 5812 C 557.012 -1.9766 0.453694 0
M  V30 5813 C 557.345 -1.67225 -0.987396 0
M  V30 5814 O 556.62 -0.958693 -1.69232 0
M  V30 5815 C 556.903 -3.5344 0.68936 0
M  V30 5816 C 556.756 -3.93517 2.17862 0
M  V30 5817 C 558.075 -4.39866 0.143555 0
M  V30 5818 H 555.194 -0.717989 0.166314 0
M  V30 5819 H 557.836 -1.57068 1.06909 0
M  V30 5820 H 555.986 -3.88147 0.165546 0
M  V30 5821 H 557.658 -3.69006 2.76826 0
M  V30 5822 H 555.901 -3.42798 2.65841 0
M  V30 5823 H 556.572 -5.02065 2.29422 0
M  V30 5824 H 559.048 -4.11875 0.591451 0
M  V30 5825 H 557.924 -5.47858 0.338043 0
M  V30 5826 H 558.185 -4.31696 -0.953466 0
M  V30 5827 N 557.244 -0.608902 -1.45362 0
M  V30 5828 C 558.472 -0.111013 -2.06602 0
M  V30 5829 C 558.887 1.20516 -1.45332 0
M  V30 5830 O 558.244 1.73437 -0.567978 0
M  V30 5831 C 558.295 0.033688 -3.61484 0
M  V30 5832 O 558.016 -1.23041 -4.20467 0
M  V30 5833 C 559.517 0.562882 -4.39712 0
M  V30 5834 H 556.737 -0.0694453 -0.667397 0
M  V30 5835 H 559.281 -0.837008 -1.86586 0
M  V30 5836 H 557.436 0.710016 -3.80838 0
M  V30 5837 H 557.85 -1.06094 -5.13658 0
M  V30 5838 H 559.324 0.613213 -5.48583 0
M  V30 5839 H 559.801 1.58543 -4.09586 0
M  V30 5840 H 560.407 -0.0794454 -4.25226 0
M  V30 5841 N 558.722 1.53707 -0.348139 0
M  V30 5842 C 559.952 2.05108 0.247864 0
M  V30 5843 C 560.36 1.22252 1.44399 0
M  V30 5844 O 559.703 0.251853 1.81965 0
M  V30 5845 C 559.765 3.52171 0.722187 0
M  V30 5846 C 559.429 4.5562 -0.354902 0
M  V30 5847 C 560.426 5.05883 -1.19911 0
M  V30 5848 C 558.111 4.99703 -0.510145 0
M  V30 5849 C 560.105 5.98814 -2.18406 0
M  V30 5850 C 557.792 5.92443 -1.49848 0
M  V30 5851 C 558.79 6.41887 -2.33389 0
M  V30 5852 O 558.478 7.32802 -3.3054 0
M  V30 5853 H 558.21 0.674086 0.0508296 0
M  V30 5854 H 560.764 1.99229 -0.49968 0
M  V30 5855 H 558.994 3.55529 1.52105 0
M  V30 5856 H 560.683 3.8652 1.23925 0
M  V30 5857 H 561.449 4.72586 -1.09028 0
M  V30 5858 H 557.328 4.60816 0.130274 0
M  V30 5859 H 560.872 6.3733 -2.83649 0
M  V30 5860 H 556.769 6.25155 -1.60786 0
M  V30 5861 H 557.537 7.50749 -3.26064 0
M  V30 5862 N 560.2 0.0768682 1.57412 0
M  V30 5863 C 561.477 -0.632359 1.85096 0
M  V30 5864 C 561.857 -1.87479 0.9703 0
M  V30 5865 O 561.205 -2.28469 0.0379062 0
M  V30 5866 C 561.415 -0.965174 3.35388 0
M  V30 5867 C 562.763 -1.33648 4.03018 0
M  V30 5868 O 563.787 -1.05675 3.40164 0
M  V30 5869 O 562.646 -1.85959 5.13889 0
M  V30 5870 H 559.74 -0.314574 0.764835 0
M  V30 5871 H 562.286 0.108184 1.69355 0
M  V30 5872 H 561.058 -0.0829745 3.91212 0
M  V30 5873 H 560.681 -1.76231 3.5641 0
M  V30 5874 N 561.678 -1.56367 -0.196722 0
M  V30 5875 C 562.955 -1.71359 -0.943159 0
M  V30 5876 C 563.335 -0.631192 -2.01443 0
M  V30 5877 O 562.683 0.358071 -2.25677 0
M  V30 5878 C 562.893 -3.13623 -1.53106 0
M  V30 5879 C 564.241 -3.73806 -2.01381 0
M  V30 5880 O 565.265 -3.16742 -1.62951 0
M  V30 5881 O 564.124 -4.73951 -2.7209 0
M  V30 5882 H 561.218 -0.698851 -0.442195 0
M  V30 5883 H 563.764 -1.68672 -0.186547 0
M  V30 5884 H 562.536 -3.83873 -0.758785 0
M  V30 5885 H 562.159 -3.20532 -2.35255 0
M  V30 5886 N 563.156 0.464375 -1.50603 0
M  V30 5887 C 564.119 1.54393 -1.69397 0
M  V30 5888 C 565.119 1.50566 -0.564504 0
M  V30 5889 O 566.309 1.53066 -0.831645 0
M  V30 5890 C 563.441 2.9401 -1.72543 0
M  V30 5891 H 564.634 1.39044 -2.65719 0
M  V30 5892 H 562.187 0.69122 -1.40185 0
M  V30 5893 H 562.922 3.14795 -0.77938 0
M  V30 5894 H 562.707 2.98195 -2.54602 0
M  V30 5895 H 564.197 3.72375 -1.89015 0
M  V30 5896 N 564.634 1.40294 0.718013 0
M  V30 5897 C 565.544 1.42678 1.86226 0
M  V30 5898 C 566.56 0.319655 1.71039 0
M  V30 5899 O 567.736 0.563852 1.93346 0
M  V30 5900 C 564.801 1.2852 3.21999 0
M  V30 5901 C 563.862 2.49354 3.49458 0
M  V30 5902 C 563.095 2.35863 4.78753 0
M  V30 5903 O 563.318 1.37114 5.53675 0
M  V30 5904 O 562.252 3.25189 5.06494 0
M  V30 5905 H 566.078 2.39167 1.87171 0
M  V30 5906 H 563.663 1.2159 0.868112 0
M  V30 5907 H 565.545 1.22824 4.03103 0
M  V30 5908 H 564.22 0.351359 3.21787 0
M  V30 5909 H 563.127 2.60628 2.68373 0
M  V30 5910 H 564.46 3.41491 3.54464 0
M  V30 5911 N 566.112 -0.949982 1.2575 0
M  V30 5912 C 567.337 -1.73503 1.13628 0
M  V30 5913 C 567.762 -1.85601 -0.30559 0
M  V30 5914 O 567.12 -1.33984 -1.22139 0
M  V30 5915 C 567.168 -3.1243 1.80055 0
M  V30 5916 O 566.272 -3.97916 1.08336 0
M  V30 5917 H 565.613 -0.532665 0.396439 0
M  V30 5918 H 568.143 -1.19043 1.66403 0
M  V30 5919 H 568.153 -3.62866 1.86527 0
M  V30 5920 H 566.828 -3.02941 2.84956 0
M  V30 5921 H 565.405 -3.56375 1.09777 0
M  V30 5922 N 567.59 -1.07411 -1.15328 0
M  V30 5923 C 568.837 -0.797649 -1.86128 0
M  V30 5924 C 569.165 0.676298 -1.82364 0
M  V30 5925 O 568.42 1.51223 -1.24218 0
M  V30 5926 C 568.719 -1.25191 -3.34757 0
M  V30 5927 C 568.385 -2.73191 -3.58716 0
M  V30 5928 C 567.047 -3.13616 -3.64964 0
M  V30 5929 C 569.399 -3.68718 -3.6837 0
M  V30 5930 C 566.727 -4.48383 -3.78377 0
M  V30 5931 C 569.079 -5.03248 -3.83306 0
M  V30 5932 C 567.743 -5.43293 -3.878 0
M  V30 5933 H 567.013 -0.29188 -0.681092 0
M  V30 5934 H 569.66 -1.34524 -1.36292 0
M  V30 5935 H 567.965 -0.623712 -3.86804 0
M  V30 5936 H 569.662 -1.01489 -3.87945 0
M  V30 5937 H 566.252 -2.40898 -3.54494 0
M  V30 5938 H 570.436 -3.38614 -3.62842 0
M  V30 5939 H 565.692 -4.78877 -3.80114 0
M  V30 5940 H 569.866 -5.77142 -3.89718 0
M  V30 5941 H 567.493 -6.47721 -3.97946 0
M  V30 5942 N 569.068 1.32177 -0.85831 0
M  V30 5943 C 570.015 2.28794 -0.303607 0
M  V30 5944 C 570.985 1.55213 0.591453 0
M  V30 5945 O 572.17 1.83418 0.525585 0
M  V30 5946 C 569.31 3.41475 0.49889 0
M  V30 5947 C 568.423 4.2993 -0.422373 0
M  V30 5948 C 567.558 5.29743 0.393111 0
M  V30 5949 C 566.597 6.09842 -0.525317 0
M  V30 5950 N 565.734 7.01643 0.253208 0
M  V30 5951 H 570.574 2.75631 -1.13276 0
M  V30 5952 H 568.111 1.35606 -0.570026 0
M  V30 5953 H 570.069 4.05531 0.979826 0
M  V30 5954 H 568.699 2.95779 1.29284 0
M  V30 5955 H 567.751 3.66422 -1.02171 0
M  V30 5956 H 569.063 4.85899 -1.12709 0
M  V30 5957 H 568.217 5.9942 0.937056 0
M  V30 5958 H 566.956 4.744 1.13117 0
M  V30 5959 H 565.961 5.39066 -1.08112 0
M  V30 5960 H 567.186 6.6727 -1.26205 0
M  V30 5961 H 565.132 6.48725 0.974295 0
M  V30 5962 H 565.049 7.54981 -0.392398 0
M  V30 5963 H 566.317 7.756 0.778761 0
M  V30 5964 N 570.547 0.616602 1.45037 0
M  V30 5965 C 571.777 0.121791 2.06241 0
M  V30 5966 C 572.185 -1.20289 1.46038 0
M  V30 5967 O 571.528 -1.7456 0.572242 0
M  V30 5968 C 571.59 -0.0827345 3.59405 0
M  V30 5969 C 571.254 1.16153 4.41993 0
M  V30 5970 C 572.251 2.08183 4.76399 0
M  V30 5971 C 569.936 1.39288 4.82601 0
M  V30 5972 C 571.93 3.21668 5.5028 0
M  V30 5973 C 569.617 2.53073 5.56235 0
M  V30 5974 C 570.615 3.44091 5.89992 0
M  V30 5975 O 570.303 4.55894 6.6213 0
M  V30 5976 H 570.035 0.0701667 0.672349 0
M  V30 5977 H 572.589 0.846877 1.87129 0
M  V30 5978 H 570.819 -0.862812 3.76952 0
M  V30 5979 H 572.508 -0.530273 4.02421 0
M  V30 5980 H 573.274 1.91538 4.45576 0
M  V30 5981 H 569.153 0.693396 4.55755 0
M  V30 5982 H 572.697 3.92733 5.76547 0
M  V30 5983 H 568.594 2.69667 5.86472 0
M  V30 5984 H 569.362 4.5469 6.80587 0
M  V30 5985 N 572.025 -1.5352 0.356285 0
M  V30 5986 C 572.972 -2.25439 -0.494569 0
M  V30 5987 C 573.942 -1.25752 -1.08516 0
M  V30 5988 O 575.127 -1.54513 -1.1194 0
M  V30 5989 C 572.267 -3.04011 -1.63313 0
M  V30 5990 C 571.38 -4.18574 -1.06862 0
M  V30 5991 C 570.515 -4.84607 -2.17552 0
M  V30 5992 C 569.554 -5.91218 -1.58518 0
M  V30 5993 N 568.691 -6.50979 -2.63003 0
M  V30 5994 H 573.531 -2.97737 0.125244 0
M  V30 5995 H 571.068 -1.46916 0.0735789 0
M  V30 5996 H 573.026 -3.47834 -2.30363 0
M  V30 5997 H 571.656 -2.33986 -2.22374 0
M  V30 5998 H 570.708 -3.79303 -0.288672 0
M  V30 5999 H 572.02 -4.95215 -0.596924 0
M  V30 6000 H 571.174 -5.31566 -2.92442 0
M  V30 6001 H 569.913 -4.07418 -2.6807 0
M  V30 6002 H 568.918 -5.4363 -0.821391 0
M  V30 6003 H 570.143 -6.70322 -1.08836 0
M  V30 6004 H 568.089 -5.76648 -3.12751 0
M  V30 6005 H 568.006 -7.23131 -2.20493 0
M  V30 6006 H 569.274 -7.02589 -3.37623 0
M  V30 6007 N 573.503 -0.0852151 -1.57369 0
M  V30 6008 C 574.466 0.8627 -2.12344 0
M  V30 6009 C 575.466 1.21746 -1.05046 0
M  V30 6010 O 576.656 1.14852 -1.30976 0
M  V30 6011 C 573.788 2.1618 -2.63589 0
M  V30 6012 H 574.981 0.385511 -2.97412 0
M  V30 6013 H 572.534 0.163663 -1.55441 0
M  V30 6014 H 573.269 2.68406 -1.82013 0
M  V30 6015 H 573.054 1.91723 -3.4203 0
M  V30 6016 H 574.544 2.84011 -3.06149 0
M  V30 6017 N 574.981 1.5647 0.188427 0
M  V30 6018 C 575.928 1.95073 1.23349 0
M  V30 6019 C 576.898 0.812238 1.44886 0
M  V30 6020 O 578.083 1.07095 1.57909 0
M  V30 6021 C 575.223 2.30124 2.57171 0
M  V30 6022 C 574.336 3.57069 2.43157 0
M  V30 6023 C 573.471 3.81411 3.69729 0
M  V30 6024 C 572.51 5.0176 3.50575 0
M  V30 6025 N 571.647 5.22321 4.69175 0
M  V30 6026 H 576.487 2.84171 0.89728 0
M  V30 6027 H 574.024 1.40623 0.431683 0
M  V30 6028 H 575.982 2.48463 3.35145 0
M  V30 6029 H 574.612 1.44159 2.88822 0
M  V30 6030 H 573.664 3.4674 1.56447 0
M  V30 6031 H 574.976 4.452 2.24942 0
M  V30 6032 H 574.13 4.00026 4.56141 0
M  V30 6033 H 572.869 2.91624 3.90905 0
M  V30 6034 H 571.874 4.83061 2.62549 0
M  V30 6035 H 573.099 5.93063 3.30837 0
M  V30 6036 H 571.045 4.35483 4.90602 0
M  V30 6037 H 570.962 6.04643 4.53809 0
M  V30 6038 H 572.23 5.45401 5.56919 0
M  V30 6039 N 576.459 -0.456382 1.50847 0
M  V30 6040 C 577.689 -1.22848 1.66108 0
M  V30 6041 C 578.097 -1.85936 0.349897 0
M  V30 6042 O 577.44 -1.70664 -0.679665 0
M  V30 6043 C 577.502 -2.36722 2.70561 0
M  V30 6044 C 577.166 -1.94154 4.13707 0
M  V30 6045 C 578.163 -1.4557 4.99105 0
M  V30 6046 C 575.848 -2.02426 4.59705 0
M  V30 6047 C 577.842 -1.0582 6.28555 0
M  V30 6048 C 575.529 -1.62287 5.89157 0
M  V30 6049 C 576.527 -1.14064 6.73408 0
M  V30 6050 O 576.215 -0.744873 8.00442 0
M  V30 6051 H 575.947 -0.377105 0.561042 0
M  V30 6052 H 578.501 -0.549431 1.97915 0
M  V30 6053 H 576.731 -3.07844 2.34027 0
M  V30 6054 H 578.42 -2.98646 2.74892 0
M  V30 6055 H 579.186 -1.38589 4.64777 0
M  V30 6056 H 575.065 -2.38908 3.94264 0
M  V30 6057 H 578.609 -0.6811 6.94267 0
M  V30 6058 H 574.506 -1.68932 6.23003 0
M  V30 6059 H 575.274 -0.87242 8.13837 0
M  V30 6060 N 577.937 -1.40673 -0.710563 0
M  V30 6061 C 579.186 -1.38525 -1.46607 0
M  V30 6062 C 579.499 0.0077024 -1.95598 0
M  V30 6063 O 580.705 0.151792 -2.71075 0
M  V30 6064 C 579.161 -2.43489 -2.6503 0
M  V30 6065 C 578.769 -3.88619 -2.22888 0
M  V30 6066 C 580.513 -2.50456 -3.42742 0
M  V30 6067 C 578.42 -4.85168 -3.3818 0
M  V30 6068 H 577.35 -0.515092 -0.550632 0
M  V30 6069 H 580.001 -1.66431 -0.772846 0
M  V30 6070 H 578.383 -2.0869 -3.36548 0
M  V30 6071 H 579.557 -4.32588 -1.58758 0
M  V30 6072 H 577.872 -3.85174 -1.58208 0
M  V30 6073 H 580.469 -3.19776 -4.28541 0
M  V30 6074 H 580.812 -1.53665 -3.86902 0
M  V30 6075 H 581.345 -2.84271 -2.78271 0
M  V30 6076 H 578.084 -5.8331 -2.99047 0
M  V30 6077 H 577.604 -4.4586 -4.01209 0
M  V30 6078 H 579.283 -5.05225 -4.04174 0
M  V30 6079 N 579.415 0.9433 -1.26252 0
M  V30 6080 C 580.362 2.0417 -1.07625 0
M  V30 6081 C 581.332 1.6609 0.0180738 0
M  V30 6082 O 582.517 1.90276 -0.141289 0
M  V30 6083 C 579.657 3.37653 -0.713043 0
M  V30 6084 C 578.77 3.88783 -1.8834 0
M  V30 6085 C 577.905 5.10642 -1.4635 0
M  V30 6086 C 576.944 5.54028 -2.60229 0
M  V30 6087 N 576.081 6.67092 -2.18936 0
M  V30 6088 H 580.921 2.19436 -2.01623 0
M  V30 6089 H 578.458 1.07519 -1.00389 0
M  V30 6090 H 580.416 4.14391 -0.483358 0
M  V30 6091 H 579.046 3.22241 0.18996 0
M  V30 6092 H 578.098 3.08464 -2.22608 0
M  V30 6093 H 579.41 4.16922 -2.73821 0
M  V30 6094 H 578.564 5.94832 -1.19414 0
M  V30 6095 H 577.303 4.84244 -0.579568 0
M  V30 6096 H 576.308 4.68396 -2.87898 0
M  V30 6097 H 577.533 5.82429 -3.49219 0
M  V30 6098 H 575.479 6.42381 -1.32974 0
M  V30 6099 H 575.396 6.94806 -2.97961 0
M  V30 6100 H 576.664 7.54662 -1.95206 0
M  V30 6101 N 580.893 1.08022 1.14757 0
M  V30 6102 C 581.825 0.664566 2.19354 0
M  V30 6103 C 582.838 -0.286374 1.60261 0
M  V30 6104 O 584.027 -0.0746362 1.78344 0
M  V30 6105 C 581.127 -0.0434634 3.38872 0
M  V30 6106 C 580.3 0.925381 4.27499 0
M  V30 6107 C 579.359 0.253398 5.2559 0
M  V30 6108 O 578.385 0.896581 5.62094 0
M  V30 6109 N 579.587 -0.998263 5.71852 0
M  V30 6110 H 582.352 1.56438 2.55631 0
M  V30 6111 H 579.913 0.965788 1.29939 0
M  V30 6112 H 581.905 -0.503857 4.01551 0
M  V30 6113 H 580.475 -0.845321 3.00954 0
M  V30 6114 H 579.695 1.56472 3.61815 0
M  V30 6115 H 580.983 1.58203 4.8358 0
M  V30 6116 H 580.381 -1.54063 5.44317 0
M  V30 6117 H 578.938 -1.40222 6.36538 0
M  V30 6118 N 582.371 -1.3172 0.865308 0
M  V30 6119 C 583.303 -2.27545 0.274906 0
M  V30 6120 C 584.316 -1.52887 -0.559413 0
M  V30 6121 O 585.505 -1.74361 -0.382166 0
M  V30 6122 C 582.605 -3.33006 -0.629286 0
M  V30 6123 C 581.778 -4.37063 0.171553 0
M  V30 6124 C 580.837 -5.22044 -0.660052 0
M  V30 6125 O 579.863 -5.69129 -0.0897527 0
M  V30 6126 N 581.065 -5.45946 -1.97289 0
M  V30 6127 H 583.83 -2.78848 1.09836 0
M  V30 6128 H 581.391 -1.44693 0.726331 0
M  V30 6129 H 583.383 -3.86772 -1.19121 0
M  V30 6130 H 581.953 -2.81782 -1.35342 0
M  V30 6131 H 581.173 -3.83436 0.914919 0
M  V30 6132 H 582.461 -5.03662 0.721235 0
M  V30 6133 H 581.859 -5.0944 -2.45942 0
M  V30 6134 H 580.416 -6.02665 -2.4827 0
M  V30 6135 N 583.85 -0.624285 -1.44708 0
M  V30 6136 C 584.782 0.12305 -2.28869 0
M  V30 6137 C 585.795 0.81557 -1.40898 0
M  V30 6138 O 586.984 0.678162 -1.65116 0
M  V30 6139 C 584.084 1.19612 -3.1709 0
M  V30 6140 C 583.257 0.587452 -4.33437 0
M  V30 6141 C 582.316 1.55358 -5.02743 0
M  V30 6142 O 581.341 1.07338 -5.58988 0
M  V30 6143 N 582.543 2.88798 -5.03563 0
M  V30 6144 H 585.308 -0.599193 -2.93649 0
M  V30 6145 H 582.87 -0.464954 -1.5508 0
M  V30 6146 H 584.861 1.84261 -3.60319 0
M  V30 6147 H 583.432 1.82067 -2.54107 0
M  V30 6148 H 582.652 -0.237509 -3.93484 0
M  V30 6149 H 583.94 0.161326 -5.08544 0
M  V30 6150 H 583.338 3.30399 -4.59188 0
M  V30 6151 H 581.894 3.48826 -5.50603 0
M  V30 6152 N 585.328 1.53329 -0.364422 0
M  V30 6153 C 586.258 2.28627 0.474543 0
M  V30 6154 C 587.239 1.31009 1.08492 0
M  V30 6155 O 588.424 1.59878 1.10239 0
M  V30 6156 C 585.554 3.07465 1.61501 0
M  V30 6157 C 584.508 4.1276 1.13194 0
M  V30 6158 C 583.834 4.79674 2.36255 0
M  V30 6159 C 585.134 5.21847 0.217507 0
M  V30 6160 H 586.828 2.99005 -0.153656 0
M  V30 6161 H 584.374 1.43803 -0.0753406 0
M  V30 6162 H 586.327 3.58889 2.20855 0
M  V30 6163 H 585.051 2.34775 2.27042 0
M  V30 6164 H 583.71 3.62281 0.56109 0
M  V30 6165 H 583.358 4.03557 3.00251 0
M  V30 6166 H 583.058 5.50827 2.04606 0
M  V30 6167 H 584.582 5.33892 2.96297 0
M  V30 6168 H 585.996 5.6878 0.718493 0
M  V30 6169 H 584.393 6.00099 -0.00806408 0
M  V30 6170 H 585.463 4.7921 -0.740653 0
M  V30 6171 N 586.806 0.0935595 1.57322 0
M  V30 6172 C 588.054 -0.569383 1.93913 0
M  V30 6173 C 588.375 -1.68817 0.976009 0
M  V30 6174 O 587.645 -1.9588 0.0278099 0
M  V30 6175 H 586.225 -0.21332 0.715894 0
M  V30 6176 H 588.887 0.156531 1.9427 0
M  V30 6177 H 587.983 -0.980577 2.96296 0
M  V30 6178 N 588.284 -1.56567 -0.180126 0
M  V30 6179 C 589.532 -1.81133 -0.896392 0
M  V30 6180 C 589.853 -0.669114 -1.83161 0
M  V30 6181 O 589.123 0.311616 -1.93406 0
M  V30 6182 H 587.703 -0.668172 -0.333999 0
M  V30 6183 H 590.365 -1.94048 -0.182051 0
M  V30 6184 H 589.461 -2.74854 -1.47857 0
M  V30 6185 N 589.762 0.448376 -1.51087 0
M  V30 6186 C 591.008 1.20049 -1.6345 0
M  V30 6187 C 591.341 1.91121 -0.344444 0
M  V30 6188 O 590.616 1.83125 0.655396 0
M  V30 6189 C 590.899 2.22624 -2.83038 0
M  V30 6190 C 590.752 1.55708 -4.21989 0
M  V30 6191 C 592.071 3.23718 -2.98152 0
M  V30 6192 H 589.19 0.435085 -0.59487 0
M  V30 6193 H 591.832 0.491183 -1.83541 0
M  V30 6194 H 589.982 2.83117 -2.66039 0
M  V30 6195 H 591.654 0.986367 -4.50631 0
M  V30 6196 H 589.897 0.859647 -4.25197 0
M  V30 6197 H 590.568 2.30357 -5.01637 0
M  V30 6198 H 593.044 2.73269 -3.13788 0
M  V30 6199 H 591.92 3.92795 -3.83411 0
M  V30 6200 H 592.181 3.89179 -2.09743 0
M  V30 6201 N 591.24 1.41047 0.703093 0
M  V30 6202 C 592.173 1.36713 1.82715 0
M  V30 6203 C 593.151 0.235533 1.60885 0
M  V30 6204 O 594.335 0.421227 1.83733 0
M  V30 6205 C 591.462 1.13069 3.1927 0
M  V30 6206 C 590.508 2.28846 3.59905 0
M  V30 6207 S 591.341 3.91297 3.65578 0
M  V30 6208 C 592.497 3.69941 5.04871 0
M  V30 6209 H 592.73 2.31838 1.86114 0
M  V30 6210 H 590.263 1.27481 0.871083 0
M  V30 6211 H 592.221 1.00113 3.98105 0
M  V30 6212 H 590.882 0.195763 3.13489 0
M  V30 6213 H 590.075 2.07977 4.59088 0
M  V30 6214 H 589.677 2.3817 2.88359 0
M  V30 6215 H 591.969 3.29181 5.92154 0
M  V30 6216 H 592.912 4.68699 5.30779 0
M  V30 6217 H 593.32 3.03369 4.76054 0
M  V30 6218 N 592.718 -0.936591 1.26751 0
M  V30 6219 C 593.965 -1.68331 1.12566 0
M  V30 6220 C 594.293 -1.91677 -0.330168 0
M  V30 6221 O 593.548 -1.49859 -1.2586 0
M  V30 6222 C 593.847 -3.06099 1.84494 0
M  V30 6223 C 593.513 -3.02493 3.34378 0
M  V30 6224 C 592.175 -3.01217 3.75262 0
M  V30 6225 C 594.527 -2.94453 4.30055 0
M  V30 6226 C 591.855 -2.89672 5.10203 0
M  V30 6227 C 594.207 -2.84449 5.65041 0
M  V30 6228 C 592.871 -2.81518 6.0523 0
M  V30 6229 H 592.141 -0.615965 0.411907 0
M  V30 6230 H 594.788 -1.09292 1.5725 0
M  V30 6231 H 593.093 -3.6879 1.32292 0
M  V30 6232 H 594.79 -3.62733 1.70955 0
M  V30 6233 H 591.38 -3.04269 3.01858 0
M  V30 6234 H 595.564 -2.94544 3.99447 0
M  V30 6235 H 590.82 -2.85783 5.40498 0
M  V30 6236 H 594.994 -2.77192 6.38856 0
M  V30 6237 H 592.621 -2.72329 7.09747 0
M  V30 6238 N 594.196 -1.08629 -1.14182 0
M  V30 6239 C 595.442 -0.828415 -1.85766 0
M  V30 6240 C 595.797 0.638947 -1.81481 0
M  V30 6241 O 595.09 1.46386 -1.23619 0
M  V30 6242 C 595.284 -1.28734 -3.3341 0
M  V30 6243 C 595.113 -2.79778 -3.52071 0
M  V30 6244 C 593.883 -3.47554 -3.66789 0
M  V30 6245 C 596.081 -3.77945 -3.48801 0
M  V30 6246 N 594.063 -4.87107 -3.73631 0
M  V30 6247 C 595.434 -5.03406 -3.61914 0
M  V30 6248 C 597.489 -3.70917 -3.32152 0
M  V30 6249 C 596.192 -6.22673 -3.60098 0
M  V30 6250 C 598.218 -4.89662 -3.31641 0
M  V30 6251 C 597.58 -6.13962 -3.45296 0
M  V30 6252 H 593.679 -0.355884 -0.696327 0
M  V30 6253 H 596.263 -1.38508 -1.36834 0
M  V30 6254 H 594.434 -0.75822 -3.80927 0
M  V30 6255 H 596.166 -0.975649 -3.92764 0
M  V30 6256 H 592.921 -2.97972 -3.68116 0
M  V30 6257 H 593.345 -5.59775 -3.80763 0
M  V30 6258 H 597.987 -2.75749 -3.20504 0
M  V30 6259 H 595.705 -7.1815 -3.70522 0
M  V30 6260 H 599.291 -4.85914 -3.19968 0
M  V30 6261 H 598.171 -7.04307 -3.44851 0
M  V30 6262 N 595.674 1.31259 -0.872281 0
M  V30 6263 C 596.624 2.26 -0.301295 0
M  V30 6264 C 597.608 1.50729 0.562991 0
M  V30 6265 O 598.8 1.72198 0.40949 0
M  V30 6266 C 595.929 3.39724 0.494227 0
M  V30 6267 C 595.015 4.22363 -0.383432 0
M  V30 6268 N 595.406 4.83724 -1.47799 0
M  V30 6269 C 593.704 4.45652 -0.176278 0
M  V30 6270 C 594.405 5.45523 -2.01939 0
M  V30 6271 N 593.381 5.27428 -1.31608 0
M  V30 6272 H 597.183 2.70981 -1.13782 0
M  V30 6273 H 594.697 1.45552 -0.720294 0
M  V30 6274 H 596.694 4.06626 0.919828 0
M  V30 6275 H 595.354 2.96286 1.32834 0
M  V30 6276 H 596.365 4.83313 -1.8609 0
M  V30 6277 H 593.042 4.12845 0.621698 0
M  V30 6278 H 594.432 6.04268 -2.93786 0
M  V30 6279 N 597.152 0.631951 1.44375 0
M  V30 6280 C 598.082 -0.0593243 2.33425 0
M  V30 6281 C 599.063 -0.833964 1.48253 0
M  V30 6282 O 600.248 -0.799682 1.76971 0
M  V30 6283 C 597.378 -1.04096 3.31333 0
M  V30 6284 C 596.332 -0.377899 4.26328 0
M  V30 6285 C 595.658 -1.4695 5.14111 0
M  V30 6286 C 596.958 0.716371 5.17364 0
M  V30 6287 H 598.652 0.684287 2.91475 0
M  V30 6288 H 596.198 0.330518 1.40156 0
M  V30 6289 H 598.151 -1.53331 3.92514 0
M  V30 6290 H 596.875 -1.81547 2.71493 0
M  V30 6291 H 595.534 0.0938054 3.6648 0
M  V30 6292 H 595.182 -2.2349 4.50623 0
M  V30 6293 H 594.882 -1.03121 5.78481 0
M  V30 6294 H 596.406 -1.96363 5.78164 0
M  V30 6295 H 597.82 0.307089 5.72477 0
M  V30 6296 H 596.217 1.07784 5.90341 0
M  V30 6297 H 597.287 1.58316 4.58327 0
M  V30 6298 N 598.631 -1.53133 0.372548 0
M  V30 6299 C 599.879 -2.00958 -0.214534 0
M  V30 6300 C 600.2 -1.26135 -1.48711 0
M  V30 6301 O 599.47 -0.376597 -1.92246 0
M  V30 6302 H 598.05 -0.742456 -0.0822664 0
M  V30 6303 H 600.712 -1.88367 0.500385 0
M  V30 6304 H 599.808 -3.09031 -0.436605 0
M  V30 6305 N 600.109 -0.101901 -1.5727 0
M  V30 6306 C 601.041 0.884723 -2.11436 0
M  V30 6307 C 602.054 1.24149 -1.05314 0
M  V30 6308 O 603.243 1.19341 -1.3274 0
M  V30 6309 C 600.343 2.19179 -2.58484 0
M  V30 6310 C 599.516 2.00933 -3.88516 0
M  V30 6311 C 598.575 3.15213 -4.2134 0
M  V30 6312 O 597.601 2.88877 -4.90448 0
M  V30 6313 N 598.803 4.41174 -3.77288 0
M  V30 6314 H 601.568 0.422058 -2.96713 0
M  V30 6315 H 599.129 0.0830128 -1.61687 0
M  V30 6316 H 601.121 2.94593 -2.77484 0
M  V30 6317 H 599.691 2.56847 -1.7818 0
M  V30 6318 H 598.911 1.09809 -3.78597 0
M  V30 6319 H 600.199 1.86026 -4.73573 0
M  V30 6320 H 599.597 4.6545 -3.21516 0
M  V30 6321 H 598.154 5.13515 -4.01429 0
M  V30 6322 N 601.587 1.56661 0.17182 0
M  V30 6323 C 602.864 1.72838 0.915778 0
M  V30 6324 C 603.244 0.66316 2.00413 0
M  V30 6325 O 602.592 -0.322123 2.26218 0
M  V30 6326 C 602.802 3.16019 1.48097 0
M  V30 6327 C 604.15 3.76962 1.95408 0
M  V30 6328 O 605.174 3.19294 1.57892 0
M  V30 6329 O 604.033 4.78219 2.64516 0
M  V30 6330 H 601.127 0.705797 0.431021 0
M  V30 6331 H 603.673 1.68947 0.159689 0
M  V30 6332 H 602.445 3.85031 0.697618 0
M  V30 6333 H 602.068 3.24234 2.30126 0
M  V30 6334 N 603.065 -0.440357 1.51323 0
M  V30 6335 C 604.013 -1.55492 1.72988 0
M  V30 6336 C 605.007 -1.58564 0.596138 0
M  V30 6337 O 606.213 -1.62345 0.777443 0
M  V30 6338 H 602.588 -0.516532 0.546533 0
M  V30 6339 H 604.559 -1.34392 2.66423 0
M  V30 6340 C 603.308 -2.93176 1.86931 0
M  V30 6341 H 602.631 -2.91543 2.73574 0
M  V30 6342 H 604.071 -3.70537 2.06103 0
M  V30 6343 C 602.53 -3.30988 0.628365 0
M  V30 6344 O 603.06 -4.01106 -0.218367 0
M  V30 6345 N 601.266 -2.86719 0.473339 0
M  V30 6346 H 600.813 -2.2983 1.16345 0
M  V30 6347 H 600.771 -3.12381 -0.355727 0
M  V30 6348 N 604.543 -1.41418 -0.695603 0
M  V30 6349 C 605.959 -1.23887 -1.00619 0
M  V30 6350 C 606.159 -0.128206 -2.01092 0
M  V30 6351 O 605.215 0.507408 -2.47349 0
M  V30 6352 C 606.528 -2.58816 -1.53083 0
M  V30 6353 C 608.076 -2.65998 -1.64967 0
M  V30 6354 C 608.551 -4.01244 -2.20833 0
M  V30 6355 N 610.042 -4.0309 -2.28194 0
M  V30 6356 C 610.777 -5.04539 -2.72448 0
M  V30 6357 N 610.273 -6.16378 -3.16306 0
M  V30 6358 N 612.066 -4.91901 -2.72011 0
M  V30 6359 H 604.217 -2.12379 -0.0300061 0
M  V30 6360 H 606.48 -0.944958 -0.0758797 0
M  V30 6361 H 606.186 -3.40842 -0.867147 0
M  V30 6362 H 606.06 -2.81299 -2.51298 0
M  V30 6363 H 608.447 -1.84331 -2.30448 0
M  V30 6364 H 608.528 -2.47325 -0.652982 0
M  V30 6365 H 608.172 -4.83359 -1.55968 0
M  V30 6366 H 608.102 -4.17257 -3.21254 0
M  V30 6367 H 610.593 -3.22341 -1.97242 0
M  V30 6368 H 610.906 -6.89658 -3.487 0
M  V30 6369 H 609.251 -6.19914 -3.14215 0
M  V30 6370 H 612.442 -4.03613 -2.37095 0
M  V30 6371 H 612.615 -5.71102 -3.06181 0
M  V30 6372 N 606.021 0.929856 -1.27246 0
M  V30 6373 C 606.969 2.05151 -1.09616 0
M  V30 6374 C 607.963 1.69388 -0.0198617 0
M  V30 6375 O 609.169 1.79124 -0.177417 0
M  V30 6376 H 605.544 0.671909 -0.337701 0
M  V30 6377 H 607.515 2.17168 -2.04648 0
M  V30 6378 C 606.264 3.3934 -0.757851 0
M  V30 6379 H 605.587 3.67343 -1.57795 0
M  V30 6380 H 607.027 4.18603 -0.674358 0
M  V30 6381 C 605.486 3.32582 0.537658 0
M  V30 6382 O 606.016 3.69633 1.57271 0
M  V30 6383 N 604.222 2.8568 0.532478 0
M  V30 6384 H 603.769 2.55725 -0.310233 0
M  V30 6385 H 603.727 2.81541 1.39936 0
M  V30 6386 N 607.499 1.09233 1.13605 0
M  V30 6387 C 608.747 0.825525 1.84471 0
M  V30 6388 C 609.068 -0.650702 1.83823 0
M  V30 6389 O 608.338 -1.47204 1.29259 0
M  V30 6390 H 606.918 0.3024 0.683054 0
M  V30 6391 H 609.58 1.38006 1.37624 0
M  V30 6392 H 608.676 1.17727 2.89045 0
M  V30 6393 N 608.977 -1.30795 0.87923 0
M  V30 6394 C 610.254 -1.91145 0.415086 0
M  V30 6395 C 610.634 -1.7995 -1.10368 0
M  V30 6396 O 609.982 -1.21305 -1.93642 0
M  V30 6397 C 610.192 -3.37014 0.906778 0
M  V30 6398 C 611.54 -4.14101 0.938358 0
M  V30 6399 O 612.564 -3.45834 0.853053 0
M  V30 6400 O 611.423 -5.36054 1.06342 0
M  V30 6401 H 608.517 -0.81736 0.125905 0
M  V30 6402 H 611.063 -1.39401 0.967753 0
M  V30 6403 H 609.835 -3.3922 1.95053 0
M  V30 6404 H 609.458 -3.96204 0.332948 0
M  V30 6405 N 610.455 -0.639598 -1.44038 0
M  V30 6406 C 611.385 0.0469443 -2.33453 0
M  V30 6407 C 612.366 0.82609 -1.48694 0
M  V30 6408 O 613.551 0.790285 -1.77393 0
M  V30 6409 C 610.681 1.02338 -3.3188 0
M  V30 6410 C 609.635 0.355284 -4.26523 0
M  V30 6411 C 608.961 1.44221 -5.14883 0
M  V30 6412 C 610.261 -0.743798 -5.16977 0
M  V30 6413 H 611.955 -0.699735 -2.91108 0
M  V30 6414 H 609.501 -0.337946 -1.39978 0
M  V30 6415 H 611.454 1.51247 -3.93322 0
M  V30 6416 H 610.178 1.80105 -2.72451 0
M  V30 6417 H 608.837 -0.113239 -3.66425 0
M  V30 6418 H 608.485 2.21097 -4.51802 0
M  V30 6419 H 608.185 1.00052 -5.79019 0
M  V30 6420 H 609.709 1.93295 -5.79197 0
M  V30 6421 H 611.123 -0.337444 -5.72306 0
M  V30 6422 H 609.52 -1.10914 -5.89761 0
M  V30 6423 H 610.59 -1.60745 -4.57481 0
M  V30 6424 N 611.933 1.52934 -0.380664 0
M  V30 6425 C 612.863 2.29118 0.450268 0
M  V30 6426 C 613.844 1.32153 1.07096 0
M  V30 6427 O 615.029 1.61038 1.08537 0
M  V30 6428 C 612.159 3.09161 1.58231 0
M  V30 6429 C 611.113 4.13938 1.0881 0
M  V30 6430 C 610.439 4.82153 2.31155 0
M  V30 6431 C 611.739 5.22048 0.162146 0
M  V30 6432 H 613.433 2.98826 -0.185361 0
M  V30 6433 H 610.979 1.43715 -0.0905886 0
M  V30 6434 H 612.932 3.61211 2.17036 0
M  V30 6435 H 611.656 2.3717 2.2454 0
M  V30 6436 H 610.315 3.62855 0.522633 0
M  V30 6437 H 609.963 4.06719 2.95953 0
M  V30 6438 H 609.663 5.52966 1.98752 0
M  V30 6439 H 611.187 5.37004 2.90618 0
M  V30 6440 H 612.601 5.6951 0.658126 0
M  V30 6441 H 610.998 6.00057 -0.0717122 0
M  V30 6442 H 612.068 4.78398 -0.791438 0
M  V30 6443 N 613.412 0.11024 1.57214 0
M  V30 6444 C 614.375 -0.828808 2.1369 0
M  V30 6445 C 615.375 -1.20059 1.06969 0
M  V30 6446 O 616.565 -1.12754 1.32786 0
M  V30 6447 C 613.697 -2.11959 2.66994 0
M  V30 6448 H 614.89 -0.338146 2.97988 0
M  V30 6449 H 612.443 -0.138913 1.55681 0
M  V30 6450 H 613.178 -2.65476 1.8626 0
M  V30 6451 H 612.963 -1.86258 3.45037 0
M  V30 6452 H 614.453 -2.79105 3.10629 0
M  V30 6453 N 614.89 -1.56749 -0.16351 0
M  V30 6454 C 615.853 -1.96121 -1.18613 0
M  V30 6455 C 616.853 -0.845765 -1.36761 0
M  V30 6456 O 618.043 -1.11268 -1.34033 0
M  V30 6457 C 615.175 -2.26282 -2.54969 0
M  V30 6458 H 616.368 -2.87639 -0.848764 0
M  V30 6459 H 613.921 -1.50928 -0.406251 0
M  V30 6460 H 614.656 -1.37504 -2.93706 0
M  V30 6461 H 614.441 -3.07595 -2.43162 0
M  V30 6462 H 615.931 -2.57638 -3.28653 0
M  V30 6463 N 616.368 0.432326 -1.51554 0
M  V30 6464 C 617.298 1.53242 -1.76179 0
M  V30 6465 C 618.279 1.58717 -0.611801 0
M  V30 6466 O 619.464 1.74364 -0.855033 0
M  V30 6467 C 616.594 2.91278 -1.89141 0
M  V30 6468 C 615.548 3.00663 -3.04608 0
M  V30 6469 C 614.874 4.40728 -3.02759 0
M  V30 6470 C 616.174 2.74281 -4.44485 0
M  V30 6471 H 617.868 1.32886 -2.68294 0
M  V30 6472 H 615.414 0.637841 -1.29103 0
M  V30 6473 H 617.367 3.68203 -2.04951 0
M  V30 6474 H 616.091 3.12877 -0.936785 0
M  V30 6475 H 614.75 2.26179 -2.88511 0
M  V30 6476 H 614.398 4.59301 -2.05065 0
M  V30 6477 H 614.098 4.47936 -3.80299 0
M  V30 6478 H 615.622 5.19619 -3.20669 0
M  V30 6479 H 617.036 3.40936 -4.60907 0
M  V30 6480 H 615.433 2.92893 -5.23769 0
M  V30 6481 H 616.503 1.69856 -4.54177 0
M  V30 6482 N 617.846 1.41785 0.688094 0
M  V30 6483 C 619.123 1.32031 1.44316 0
M  V30 6484 C 619.503 -0.0486079 2.11044 0
M  V30 6485 O 618.851 -1.06332 2.02252 0
M  V30 6486 C 619.061 2.47906 2.45649 0
M  V30 6487 C 620.409 2.89415 3.10683 0
M  V30 6488 O 621.433 2.477 2.55975 0
M  V30 6489 O 620.292 3.61573 4.09789 0
M  V30 6490 H 617.386 0.519994 0.643067 0
M  V30 6491 H 619.932 1.53765 0.71794 0
M  V30 6492 H 618.704 3.39222 1.95048 0
M  V30 6493 H 618.327 2.28089 3.25671 0
M  V30 6494 N 619.324 -0.923095 1.27737 0
M  V30 6495 C 620.74 -1.19985 1.05241 0
M  V30 6496 C 620.94 -2.00391 -0.21113 0
M  V30 6497 O 619.996 -2.35324 -0.915366 0
M  V30 6498 C 621.309 -1.94352 2.29451 0
M  V30 6499 C 622.857 -2.07273 2.34536 0
M  V30 6500 C 623.332 -2.85046 3.58487 0
M  V30 6501 N 624.823 -2.92612 3.59072 0
M  V30 6502 C 625.558 -3.53266 4.51654 0
M  V30 6503 N 625.054 -4.15274 5.54545 0
M  V30 6504 N 626.847 -3.50714 4.39268 0
M  V30 6505 H 618.998 -0.386042 2.08862 0
M  V30 6506 H 621.261 -0.233407 0.918817 0
M  V30 6507 H 620.967 -1.42692 3.21453 0
M  V30 6508 H 620.841 -2.94947 2.3513 0
M  V30 6509 H 623.228 -2.58117 1.43037 0
M  V30 6510 H 623.309 -1.05884 2.32857 0
M  V30 6511 H 622.953 -2.34884 4.50324 0
M  V30 6512 H 622.883 -3.8673 3.57418 0
M  V30 6513 H 625.374 -2.48547 2.84663 0
M  V30 6514 H 625.687 -4.59507 6.21348 0
M  V30 6515 H 624.032 -4.13806 5.58382 0
M  V30 6516 H 627.223 -3.01475 3.58093 0
M  V30 6517 H 627.396 -3.97693 5.1161 0
M  V30 6518 N 620.802 -1.09834 -1.13024 0
M  V30 6519 C 622.032 -0.857657 -1.87957 0
M  V30 6520 C 622.44 0.595008 -1.796 0
M  V30 6521 O 621.783 1.42158 -1.16347 0
M  V30 6522 C 621.845 -1.21949 -3.38185 0
M  V30 6523 C 621.509 -2.67791 -3.7032 0
M  V30 6524 C 622.506 -3.66036 -3.69207 0
M  V30 6525 C 620.191 -3.04019 -3.99847 0
M  V30 6526 C 622.185 -4.98533 -3.9717 0
M  V30 6527 C 619.872 -4.36706 -4.27471 0
M  V30 6528 C 620.87 -5.33772 -4.26118 0
M  V30 6529 O 620.558 -6.64072 -4.53061 0
M  V30 6530 H 620.29 -0.308009 -0.601753 0
M  V30 6531 H 622.844 -1.46496 -1.43973 0
M  V30 6532 H 621.074 -0.555249 -3.82693 0
M  V30 6533 H 622.763 -0.957281 -3.9445 0
M  V30 6534 H 623.529 -3.39392 -3.46465 0
M  V30 6535 H 619.408 -2.29096 -4.00045 0
M  V30 6536 H 622.952 -5.74288 -3.96029 0
M  V30 6537 H 618.849 -4.63091 -4.49685 0
M  V30 6538 H 619.617 -6.69608 -4.7071 0
M  V30 6539 N 622.28 1.30327 -0.886154 0
M  V30 6540 C 623.527 1.96097 -0.505192 0
M  V30 6541 C 623.855 1.69952 0.945868 0
M  V30 6542 O 623.11 0.997653 1.68361 0
M  V30 6543 C 623.409 3.49906 -0.728042 0
M  V30 6544 C 623.075 3.96103 -2.15437 0
M  V30 6545 C 621.737 4.08428 -2.5444 0
M  V30 6546 C 624.089 4.20177 -3.08384 0
M  V30 6547 C 621.417 4.42189 -3.85598 0
M  V30 6548 C 623.769 4.55407 -4.39075 0
M  V30 6549 C 622.433 4.65941 -4.7797 0
M  V30 6550 H 621.703 0.71757 -0.184863 0
M  V30 6551 H 624.35 1.55171 -1.12223 0
M  V30 6552 H 622.655 3.9179 -0.027978 0
M  V30 6553 H 624.352 3.98869 -0.412862 0
M  V30 6554 H 620.942 3.87017 -1.84162 0
M  V30 6555 H 625.126 4.10134 -2.7947 0
M  V30 6556 H 620.382 4.48544 -4.15473 0
M  V30 6557 H 624.556 4.72986 -5.11133 0
M  V30 6558 H 622.183 4.91856 -5.79639 0
M  V30 6559 N 623.758 0.647228 1.43697 0
M  V30 6560 C 624.706 -0.0600105 2.32523 0
M  V30 6561 C 625.7 -0.819277 1.48271 0
M  V30 6562 O 626.906 -0.730356 1.64517 0
M  V30 6563 H 623.281 -0.0381872 0.75103 0
M  V30 6564 H 625.252 0.706978 2.89904 0
M  V30 6565 C 624.001 -1.0169 3.32497 0
M  V30 6566 H 623.324 -0.442083 3.97348 0
M  V30 6567 H 624.764 -1.48095 3.97296 0
M  V30 6568 C 623.223 -2.11002 2.6264 0
M  V30 6569 O 623.753 -3.19302 2.4374 0
M  V30 6570 N 621.959 -1.87388 2.22113 0
M  V30 6571 H 621.506 -0.993174 2.37684 0
M  V30 6572 H 621.464 -2.60723 1.75701 0
M  V30 6573 N 625.236 -1.5273 0.388769 0
M  V30 6574 C 626.199 -2.25043 -0.434544 0
M  V30 6575 C 627.199 -1.26661 -0.990644 0
M  V30 6576 O 628.389 -1.50762 -0.872731 0
M  V30 6577 C 625.521 -3.00507 -1.60961 0
M  V30 6578 H 626.714 -2.99242 0.198549 0
M  V30 6579 H 624.267 -1.55664 0.140875 0
M  V30 6580 H 625.002 -2.30607 -2.28015 0
M  V30 6581 H 624.787 -3.72716 -1.21757 0
M  V30 6582 H 626.277 -3.55413 -2.19251 0
M  V30 6583 N 626.714 -0.118576 -1.57153 0
M  V30 6584 C 627.677 0.817464 -2.14127 0
M  V30 6585 C 628.677 1.1949 -1.07604 0
M  V30 6586 O 629.867 1.12048 -1.33382 0
M  V30 6587 C 626.999 2.10541 -2.68115 0
M  V30 6588 H 628.192 0.322339 -2.98163 0
M  V30 6589 H 625.745 0.130655 -1.55753 0
M  V30 6590 H 626.48 2.64485 -1.87665 0
M  V30 6591 H 626.265 1.84425 -3.4602 0
M  V30 6592 H 627.755 2.77453 -3.12105 0
M  V30 6593 N 628.193 1.56834 0.155195 0
M  V30 6594 C 629.47 1.73799 0.897395 0
M  V30 6595 C 629.85 0.684379 1.99698 0
M  V30 6596 O 629.198 -0.298111 2.26547 0
M  V30 6597 C 629.408 3.17572 1.44737 0
M  V30 6598 C 630.756 3.79014 1.91399 0
M  V30 6599 O 631.78 3.20951 1.54496 0
M  V30 6600 O 630.639 4.80998 2.59429 0
M  V30 6601 H 627.733 0.710329 0.423511 0
M  V30 6602 H 630.279 1.69107 0.141761 0
M  V30 6603 H 629.051 3.85749 0.656741 0
M  V30 6604 H 628.674 3.26657 2.26674 0
M  V30 6605 N 629.671 -0.424282 1.51781 0
M  V30 6606 C 630.901 -1.19297 1.68677 0
M  V30 6607 C 631.309 -1.85152 0.389258 0
M  V30 6608 O 630.652 -1.72067 -0.643311 0
M  V30 6609 C 630.714 -2.30929 2.75521 0
M  V30 6610 C 630.378 -1.85335 4.17732 0
M  V30 6611 C 631.375 -1.34951 5.0208 0
M  V30 6612 C 629.06 -1.92629 4.63896 0
M  V30 6613 C 631.054 -0.924636 6.30658 0
M  V30 6614 C 628.741 -1.49754 5.92467 0
M  V30 6615 C 629.739 -0.997543 6.75676 0
M  V30 6616 O 629.427 -0.57492 8.01842 0
M  V30 6617 H 629.159 -0.36512 0.568914 0
M  V30 6618 H 631.713 -0.507327 1.99036 0
M  V30 6619 H 629.943 -3.02811 2.40505 0
M  V30 6620 H 631.632 -2.92748 2.81165 0
M  V30 6621 H 632.398 -1.287 4.67612 0
M  V30 6622 H 628.277 -2.30491 3.99243 0
M  V30 6623 H 631.821 -0.533682 6.95556 0
M  V30 6624 H 627.718 -1.55679 6.26446 0
M  V30 6625 H 628.486 -0.699597 8.15505 0
M  V30 6626 N 631.149 -1.42148 -0.680565 0
M  V30 6627 C 632.426 -1.32795 -1.43614 0
M  V30 6628 C 632.806 0.037415 -2.11067 0
M  V30 6629 O 632.154 1.05258 -2.02813 0
M  V30 6630 C 632.364 -2.49206 -2.44331 0
M  V30 6631 C 633.712 -2.91059 -3.09144 0
M  V30 6632 O 634.736 -2.49054 -2.54657 0
M  V30 6633 O 633.595 -3.63741 -4.07866 0
M  V30 6634 H 630.689 -0.523397 -0.640301 0
M  V30 6635 H 633.235 -1.54144 -0.709775 0
M  V30 6636 H 632.007 -3.40252 -1.93247 0
M  V30 6637 H 631.63 -2.29813 -3.24456 0
M  V30 6638 N 632.627 0.916307 -1.28225 0
M  V30 6639 C 633.904 1.64429 -1.05936 0
M  V30 6640 C 634.284 2.07234 0.402139 0
M  V30 6641 O 633.632 1.81535 1.3877 0
M  V30 6642 C 633.842 2.83773 -2.03159 0
M  V30 6643 C 635.19 3.54852 -2.33164 0
M  V30 6644 O 636.214 2.93918 -2.01223 0
M  V30 6645 O 635.073 4.64663 -2.87664 0
M  V30 6646 H 632.167 0.721221 -0.404683 0
M  V30 6647 H 634.713 0.965838 -1.39534 0
M  V30 6648 H 633.485 2.49217 -3.01673 0
M  V30 6649 H 633.108 3.59333 -1.70192 0
M  V30 6650 N 634.105 1.10431 1.1244 0
M  V30 6651 C 635.33 0.869089 1.88313 0
M  V30 6652 C 635.755 -0.574912 1.79099 0
M  V30 6653 O 635.113 -1.40496 1.14589 0
M  V30 6654 C 635.161 1.32208 3.3549 0
M  V30 6655 O 634.265 0.487092 4.09513 0
M  V30 6656 H 633.606 0.313894 0.585121 0
M  V30 6657 H 636.136 1.47111 1.42195 0
M  V30 6658 H 636.146 1.31201 3.86329 0
M  V30 6659 H 634.821 2.37364 3.41513 0
M  V30 6660 H 633.398 0.562372 3.68635 0
M  V30 6661 N 635.583 -1.29855 0.893053 0
M  V30 6662 C 636.515 -2.26911 0.32311 0
M  V30 6663 C 637.528 -1.54039 -0.526858 0
M  V30 6664 O 638.717 -1.75132 -0.345095 0
M  V30 6665 C 635.817 -3.34266 -0.558509 0
M  V30 6666 C 634.99 -4.36601 0.264222 0
M  V30 6667 C 634.049 -5.23326 -0.549171 0
M  V30 6668 O 633.075 -5.69192 0.0309883 0
M  V30 6669 N 634.277 -5.50008 -1.85664 0
M  V30 6670 H 637.042 -2.76455 1.15726 0
M  V30 6671 H 634.603 -1.4312 0.756859 0
M  V30 6672 H 636.595 -3.89211 -1.1089 0
M  V30 6673 H 635.165 -2.8459 -1.29334 0
M  V30 6674 H 634.385 -3.81409 0.996046 0
M  V30 6675 H 635.673 -5.02019 0.827906 0
M  V30 6676 H 635.071 -5.14542 -2.35081 0
M  V30 6677 H 633.628 -6.07796 -2.35431 0
M  V30 6678 N 637.061 -0.65484 -1.43351 0
M  V30 6679 C 637.991 0.0221809 -2.33489 0
M  V30 6680 C 638.972 0.810272 -1.49561 0
M  V30 6681 O 640.157 0.771426 -1.78221 0
M  V30 6682 C 637.287 0.988117 -3.32947 0
M  V30 6683 C 636.241 0.310026 -4.26876 0
M  V30 6684 C 635.567 1.38752 -5.16384 0
M  V30 6685 C 636.867 -0.798589 -5.16159 0
M  V30 6686 H 638.561 -0.730571 -2.9035 0
M  V30 6687 H 636.107 -0.352773 -1.39612 0
M  V30 6688 H 638.06 1.47067 -3.94904 0
M  V30 6689 H 636.784 1.77205 -2.74346 0
M  V30 6690 H 635.443 -0.152097 -3.66284 0
M  V30 6691 H 635.091 2.16293 -4.54121 0
M  V30 6692 H 634.791 0.939051 -5.80048 0
M  V30 6693 H 636.315 1.87141 -5.81215 0
M  V30 6694 H 637.729 -0.398126 -5.71916 0
M  V30 6695 H 636.126 -1.17163 -5.88552 0
M  V30 6696 H 637.196 -1.65588 -4.55751 0
M  V30 6697 N 638.539 1.52521 -0.396863 0
M  V30 6698 C 639.816 1.94112 0.240842 0
M  V30 6699 C 640.196 1.33288 1.637 0
M  V30 6700 O 639.544 0.503901 2.22875 0
M  V30 6701 C 639.754 3.48033 0.259567 0
M  V30 6702 C 641.102 4.21822 0.484866 0
M  V30 6703 O 642.126 3.54579 0.339453 0
M  V30 6704 O 640.985 5.41042 0.770412 0
M  V30 6705 H 638.079 0.812973 0.151671 0
M  V30 6706 H 640.625 1.63572 -0.451918 0
M  V30 6707 H 639.397 3.84655 -0.718078 0
M  V30 6708 H 639.02 3.84899 0.996937 0
M  V30 6709 N 640.017 0.126909 1.57088 0
M  V30 6710 C 640.95 -0.857844 2.11462 0
M  V30 6711 C 641.928 -1.25569 1.03301 0
M  V30 6712 O 643.112 -1.35535 1.31006 0
M  V30 6713 C 640.239 -2.14912 2.61784 0
M  V30 6714 C 639.285 -1.89874 3.81903 0
M  V30 6715 S 640.118 -1.10785 5.23915 0
M  V30 6716 C 641.274 -2.41075 5.7761 0
M  V30 6717 H 641.507 -0.395384 2.94659 0
M  V30 6718 H 639.04 -0.0870151 1.54155 0
M  V30 6719 H 640.998 -2.89101 2.91429 0
M  V30 6720 H 639.659 -2.58275 1.78754 0
M  V30 6721 H 638.852 -2.85572 4.15289 0
M  V30 6722 H 638.454 -1.23802 3.52915 0
M  V30 6723 H 640.746 -3.36864 5.87817 0
M  V30 6724 H 641.689 -2.12223 6.75549 0
M  V30 6725 H 642.097 -2.50804 5.05725 0
M  V30 6726 N 641.495 -1.56914 -0.146875 0
M  V30 6727 C 642.743 -1.82994 -0.85777 0
M  V30 6728 C 643.064 -0.707814 -1.817 0
M  V30 6729 O 642.334 0.270521 -1.94023 0
M  V30 6730 H 640.914 -0.675106 -0.319751 0
M  V30 6731 H 643.576 -1.9439 -0.140849 0
M  V30 6732 H 642.672 -2.77928 -1.41994 0
M  V30 6733 N 642.974 0.416227 -1.52004 0
M  V30 6734 C 644.202 1.18573 -1.69553 0
M  V30 6735 C 644.617 1.84472 -0.401919 0
M  V30 6736 O 643.974 1.71593 0.621463 0
M  V30 6737 C 644.025 2.25413 -2.82615 0
M  V30 6738 O 643.746 1.62205 -4.06966 0
M  V30 6739 C 645.247 3.15297 -3.11613 0
M  V30 6740 H 642.467 0.356582 -0.56841 0
M  V30 6741 H 645.011 0.490618 -1.98528 0
M  V30 6742 H 643.166 2.90604 -2.56179 0
M  V30 6743 H 643.58 2.3298 -4.69916 0
M  V30 6744 H 645.054 3.86351 -3.94255 0
M  V30 6745 H 645.531 3.77264 -2.24874 0
M  V30 6746 H 646.137 2.55783 -3.39787 0
M  V30 6747 N 644.452 1.42507 0.673017 0
M  V30 6748 C 645.7 1.42789 1.43023 0
M  V30 6749 C 646.021 0.0459738 1.94946 0
M  V30 6750 O 645.291 -0.915765 1.73178 0
M  V30 6751 H 643.871 0.525657 0.530748 0
M  V30 6752 H 646.533 1.77944 0.795113 0
M  V30 6753 H 645.629 2.12872 2.28237 0
M  V30 6754 N 645.93 -0.909495 1.28709 0
M  V30 6755 C 646.86 -2.0291 1.15542 0
M  V30 6756 C 647.841 -1.7002 0.0521017 0
M  V30 6757 O 649.026 -1.92835 0.229849 0
M  V30 6758 C 646.156 -3.37458 0.820935 0
M  V30 6759 C 645.11 -3.84524 1.87949 0
M  V30 6760 C 644.436 -5.16086 1.39854 0
M  V30 6761 C 645.736 -4.05918 3.28676 0
M  V30 6762 H 647.43 -2.14183 2.09203 0
M  V30 6763 H 644.976 -1.02913 1.00722 0
M  V30 6764 H 646.929 -4.1528 0.715571 0
M  V30 6765 H 645.653 -3.26249 -0.151374 0
M  V30 6766 H 644.312 -3.08911 1.97408 0
M  V30 6767 H 643.96 -5.01284 0.41518 0
M  V30 6768 H 643.66 -5.48547 2.1064 0
M  V30 6769 H 645.184 -5.96459 1.30649 0
M  V30 6770 H 646.598 -4.74252 3.22115 0
M  V30 6771 H 644.995 -4.49717 3.97334 0
M  V30 6772 H 646.065 -3.10583 3.72379 0
M  V30 6773 N 647.408 -1.11026 -1.11852 0
M  V30 6774 C 648.824 -0.843294 -1.35502 0
M  V30 6775 C 649.024 0.534179 -1.9429 0
M  V30 6776 O 648.08 1.28585 -2.17307 0
M  V30 6777 C 649.393 -1.94793 -2.29077 0
M  V30 6778 C 650.941 -1.97709 -2.42652 0
M  V30 6779 C 651.416 -3.07364 -3.39546 0
M  V30 6780 N 652.907 -3.0671 -3.47107 0
M  V30 6781 C 653.642 -3.88197 -4.22008 0
M  V30 6782 N 653.138 -4.79635 -4.99922 0
M  V30 6783 N 654.931 -3.76391 -4.17476 0
M  V30 6784 H 647.082 -1.99805 -0.720538 0
M  V30 6785 H 649.345 -0.868633 -0.379711 0
M  V30 6786 H 649.051 -2.93971 -1.93065 0
M  V30 6787 H 648.925 -1.84039 -3.29256 0
M  V30 6788 H 651.312 -0.991604 -2.77941 0
M  V30 6789 H 651.393 -2.1254 -1.4234 0
M  V30 6790 H 651.037 -4.06136 -3.04985 0
M  V30 6791 H 650.967 -2.89774 -4.39703 0
M  V30 6792 H 653.458 -2.40457 -2.91528 0
M  V30 6793 H 653.771 -5.38357 -5.54429 0
M  V30 6794 H 652.116 -4.8366 -4.99097 0
M  V30 6795 H 655.307 -3.04303 -3.55693 0
M  V30 6796 H 655.48 -4.40131 -4.75593 0
M  V30 6797 N 648.886 1.2938 -0.899927 0
M  V30 6798 C 650.116 1.99402 -0.540601 0
M  V30 6799 C 650.524 1.67534 0.87914 0
M  V30 6800 O 649.867 0.916821 1.59186 0
M  V30 6801 C 649.929 3.53514 -0.653326 0
M  V30 6802 C 649.593 4.08937 -2.04009 0
M  V30 6803 C 650.59 4.23815 -3.01126 0
M  V30 6804 C 648.275 4.43962 -2.34953 0
M  V30 6805 C 650.269 4.72951 -4.27313 0
M  V30 6806 C 647.956 4.92795 -3.61382 0
M  V30 6807 C 648.954 5.07244 -4.57376 0
M  V30 6808 O 648.642 5.55017 -5.8156 0
M  V30 6809 H 648.374 0.64383 -0.206057 0
M  V30 6810 H 650.928 1.65878 -1.21134 0
M  V30 6811 H 649.158 3.86628 0.0744449 0
M  V30 6812 H 650.847 4.04767 -0.303118 0
M  V30 6813 H 651.613 3.97043 -2.78535 0
M  V30 6814 H 647.492 4.31974 -1.60994 0
M  V30 6815 H 651.036 4.84144 -5.02245 0
M  V30 6816 H 646.933 5.19004 -3.83804 0
M  V30 6817 H 647.701 5.73331 -5.84153 0
M  V30 6818 N 650.364 0.662433 1.43002 0
M  V30 6819 C 651.592 0.187615 2.06048 0
M  V30 6820 C 652.007 -1.15039 1.49705 0
M  V30 6821 O 651.364 -1.71209 0.631956 0
M  V30 6822 C 651.415 0.100498 3.6136 0
M  V30 6823 O 651.136 1.38562 4.15611 0
M  V30 6824 C 652.637 -0.399298 4.41498 0
M  V30 6825 H 649.857 0.0941675 0.664359 0
M  V30 6826 H 652.401 0.905681 1.83351 0
M  V30 6827 H 650.556 -0.568181 3.83211 0
M  V30 6828 H 650.97 1.25084 5.09366 0
M  V30 6829 H 652.444 -0.409187 5.50481 0
M  V30 6830 H 652.921 -1.43232 4.15188 0
M  V30 6831 H 653.527 0.23721 4.24638 0
M  V30 6832 N 651.842 -1.52309 0.404946 0
M  V30 6833 C 653.09 -2.01368 -0.17186 0
M  V30 6834 C 653.411 -1.29261 -1.46002 0
M  V30 6835 O 652.681 -0.41729 -1.91404 0
M  V30 6836 H 651.261 -0.744034 -0.0664993 0
M  V30 6837 H 653.923 -1.87263 0.540228 0
M  V30 6838 H 653.019 -3.09888 -0.370957 0
M  V30 6839 N 653.32 -0.135238 -1.57019 0
M  V30 6840 C 654.566 0.519563 -1.96032 0
M  V30 6841 C 654.899 1.65284 -1.01955 0
M  V30 6842 O 654.174 1.94408 -0.059727 0
M  V30 6843 C 654.457 1.0369 -3.44848 0
M  V30 6844 C 654.31 -0.0940754 -4.49702 0
M  V30 6845 C 655.629 1.92254 -3.95887 0
M  V30 6846 H 652.748 0.18739 -0.712779 0
M  V30 6847 H 655.39 -0.214086 -1.8879 0
M  V30 6848 H 653.54 1.66209 -3.5115 0
M  V30 6849 H 655.212 -0.73 -4.55487 0
M  V30 6850 H 653.455 -0.754924 -4.27181 0
M  V30 6851 H 654.126 0.309419 -5.51132 0
M  V30 6852 H 656.602 1.39581 -3.9199 0
M  V30 6853 H 655.478 2.25364 -5.00502 0
M  V30 6854 H 655.739 2.85513 -3.37543 0
M  V30 6855 N 654.798 1.5699 0.138552 0
M  V30 6856 C 656.046 1.83446 0.848053 0
M  V30 6857 C 656.367 0.71744 1.81322 0
M  V30 6858 O 655.637 -0.260228 1.94164 0
M  V30 6859 H 654.217 0.676792 0.316166 0
M  V30 6860 H 656.879 1.94462 0.130538 0
M  V30 6861 H 655.975 2.78677 1.40518 0
M  V30 6862 N 656.276 -0.40816 1.52223 0
M  V30 6863 C 657.687 -0.986929 1.58482 0
M  V30 6864 C 658.038 -1.91521 0.425917 0
M  V30 6865 O 657.163 -2.11593 -0.453593 0
M  V30 6866 C 657.758 -1.7967 2.87235 0
M  V30 6867 C 656.317 -2.32549 2.9597 0
M  V30 6868 C 655.464 -1.12558 2.53428 0
M  V30 6869 H 658.415 -0.188362 1.57578 0
M  V30 6870 H 658.436 -2.65417 2.72642 0
M  V30 6871 H 657.948 -1.12082 3.71563 0
M  V30 6872 H 656.049 -3.03505 2.16137 0
M  V30 6873 H 656.162 -2.63348 4.00231 0
M  V30 6874 H 654.526 -1.47984 2.07299 0
M  V30 6875 H 655.309 -0.465351 3.40131 0
M  V30 6876 N 657.755 -1.42862 -0.66545 0
M  V30 6877 C 659.003 -1.43546 -1.42264 0
M  V30 6878 C 659.324 -0.0563116 -1.94919 0
M  V30 6879 O 658.594 0.906568 -1.73661 0
M  V30 6880 H 657.174 -0.528464 -0.527953 0
M  V30 6881 H 659.836 -1.78363 -0.785665 0
M  V30 6882 H 658.932 -2.14079 -2.27105 0
M  V30 6883 N 659.233 0.902656 -1.29189 0
M  V30 6884 C 660.181 2.0278 -1.13943 0
M  V30 6885 C 661.175 1.69308 -0.055787 0
M  V30 6886 O 662.381 1.78707 -0.215371 0
M  V30 6887 H 658.756 0.664595 -0.351877 0
M  V30 6888 H 660.727 2.12778 -2.09208 0
M  V30 6889 C 659.476 3.37657 -0.82966 0
M  V30 6890 H 658.799 3.63913 -1.65551 0
M  V30 6891 H 660.239 4.17078 -0.762998 0
M  V30 6892 C 658.698 3.33648 0.466991 0
M  V30 6893 O 659.228 3.72886 1.49395 0
M  V30 6894 N 657.434 2.86745 0.471761 0
M  V30 6895 H 656.981 2.55009 -0.364406 0
M  V30 6896 H 656.939 2.84446 1.33933 0
M  V30 6897 N 660.711 1.11618 1.11262 0
M  V30 6898 C 661.641 0.79846 2.19424 0
M  V30 6899 C 662.622 -0.234003 1.68483 0
M  V30 6900 O 663.807 -0.0970704 1.93957 0
M  V30 6901 C 660.937 0.242892 3.4645 0
M  V30 6902 C 659.891 1.20744 4.10615 0
M  V30 6903 C 659.217 0.512494 5.32238 0
M  V30 6904 C 660.517 2.55884 4.55325 0
M  V30 6905 H 662.211 1.70286 2.46258 0
M  V30 6906 H 659.757 0.820195 1.18359 0
M  V30 6907 H 661.71 0.00840447 4.21399 0
M  V30 6908 H 660.434 -0.696811 3.1908 0
M  V30 6909 H 659.093 1.42759 3.37662 0
M  V30 6910 H 658.741 -0.432075 5.01141 0
M  V30 6911 H 658.441 1.15583 5.7612 0
M  V30 6912 H 659.965 0.286842 6.09926 0
M  V30 6913 H 661.379 2.37946 5.21588 0
M  V30 6914 H 659.776 3.16216 5.10027 0
M  V30 6915 H 660.846 3.14968 3.68678 0
M  V30 6916 N 662.189 -1.289 0.906776 0
M  V30 6917 C 663.6 -1.77336 0.58384 0
M  V30 6918 C 663.951 -1.74304 -0.900697 0
M  V30 6919 O 663.076 -1.33335 -1.70443 0
M  V30 6920 C 663.671 -3.22019 1.05304 0
M  V30 6921 C 662.23 -3.68205 0.781148 0
M  V30 6922 C 661.377 -2.48837 1.22373 0
M  V30 6923 H 664.328 -1.15462 1.08877 0
M  V30 6924 H 664.349 -3.78481 0.391414 0
M  V30 6925 H 663.861 -3.24194 2.13353 0
M  V30 6926 H 661.962 -3.71497 -0.28643 0
M  V30 6927 H 662.075 -4.58675 1.384 0
M  V30 6928 H 660.439 -2.46461 0.642594 0
M  V30 6929 H 661.222 -2.53736 2.31242 0
M  V30 6930 N 663.667 -0.670007 -1.42649 0
M  V30 6931 C 664.916 -0.187526 -2.00826 0
M  V30 6932 C 665.229 1.21142 -1.53571 0
M  V30 6933 O 666.435 1.79001 -2.04134 0
M  V30 6934 C 664.891 -0.284409 -3.58774 0
M  V30 6935 C 664.499 -1.6871 -4.15019 0
M  V30 6936 C 666.243 0.139605 -4.2427 0
M  V30 6937 C 664.15 -1.73701 -5.65316 0
M  V30 6938 H 663.08 -0.0663468 -0.751075 0
M  V30 6939 H 665.731 -0.834492 -1.63427 0
M  V30 6940 H 664.113 0.430364 -3.93655 0
M  V30 6941 H 665.287 -2.42857 -3.91608 0
M  V30 6942 H 663.602 -2.05855 -3.61957 0
M  V30 6943 H 666.199 0.122398 -5.3456 0
M  V30 6944 H 666.542 1.17403 -3.99402 0
M  V30 6945 H 667.075 -0.523995 -3.94334 0
M  V30 6946 H 663.814 -2.75109 -5.94975 0
M  V30 6947 H 663.334 -1.03903 -5.90732 0
M  V30 6948 H 665.013 -1.48829 -6.2965 0
M  V30 6949 N 665.145 1.52092 -0.413018 0
M  V30 6950 C 666.078 2.23613 0.455234 0
M  V30 6951 C 667.056 1.2459 1.04481 0
M  V30 6952 O 668.24 1.53653 1.09193 0
M  V30 6953 C 665.367 2.96775 1.63224 0
M  V30 6954 C 664.413 4.10261 1.16568 0
M  V30 6955 S 665.246 5.35348 0.127633 0
M  V30 6956 C 666.402 6.1204 1.30987 0
M  V30 6957 H 666.635 2.96911 -0.152042 0
M  V30 6958 H 664.168 1.53134 -0.197343 0
M  V30 6959 H 666.126 3.39532 2.30713 0
M  V30 6960 H 664.787 2.23113 2.21087 0
M  V30 6961 H 663.98 4.6064 2.04515 0
M  V30 6962 H 663.582 3.6964 0.569386 0
M  V30 6963 H 665.874 6.39651 2.23276 0
M  V30 6964 H 666.817 7.03022 0.846533 0
M  V30 6965 H 667.225 5.43161 1.53743 0
M  V30 6966 N 666.623 0.143563 1.56945 0
M  V30 6967 C 667.851 -0.515447 2.00377 0
M  V30 6968 C 668.266 -1.58643 1.02361 0
M  V30 6969 O 667.623 -1.82489 0.0201039 0
M  V30 6970 C 667.674 -1.11923 3.43737 0
M  V30 6971 O 667.395 -0.0910318 4.38005 0
M  V30 6972 C 668.896 -1.85918 4.02429 0
M  V30 6973 H 666.116 -0.134478 0.657386 0
M  V30 6974 H 668.66 0.237135 2.0312 0
M  V30 6975 H 666.815 -1.82245 3.41856 0
M  V30 6976 H 667.229 -0.532916 5.21786 0
M  V30 6977 H 668.703 -2.2346 5.04747 0
M  V30 6978 H 669.18 -2.7438 3.42947 0
M  V30 6979 H 669.786 -1.20303 4.07931 0
M  V30 6980 N 668.101 -1.57061 -0.130224 0
M  V30 6981 C 669.064 -1.98593 -1.14426 0
M  V30 6982 C 670.064 -0.874584 -1.34936 0
M  V30 6983 O 671.254 -1.14086 -1.31643 0
M  V30 6984 C 668.386 -2.31639 -2.50112 0
M  V30 6985 H 669.579 -2.89374 -0.787561 0
M  V30 6986 H 667.132 -1.51756 -0.374146 0
M  V30 6987 H 667.867 -1.43703 -2.90723 0
M  V30 6988 H 667.652 -3.12684 -2.36583 0
M  V30 6989 H 669.142 -2.64551 -3.23114 0
M  V30 6990 N 669.579 0.400081 -1.52437 0
M  V30 6991 C 670.99 0.97851 -1.59003 0
M  V30 6992 C 671.341 1.91293 -0.436068 0
M  V30 6993 O 670.466 2.1183 0.442365 0
M  V30 6994 C 671.061 1.78145 -2.88184 0
M  V30 6995 C 669.62 2.30976 -2.97199 0
M  V30 6996 C 668.767 1.11212 -2.54022 0
M  V30 6997 H 671.718 0.180002 -1.57676 0
M  V30 6998 H 671.739 2.63968 -2.74046 0
M  V30 6999 H 671.251 1.1011 -3.72152 0
M  V30 7000 H 669.352 3.02355 -2.17744 0
M  V30 7001 H 669.465 2.61221 -4.01622 0
M  V30 7002 H 667.829 1.46882 -2.08081 0
M  V30 7003 H 668.612 0.447307 -3.40373 0
M  V30 7004 N 671.057 1.43213 0.657864 0
M  V30 7005 C 672.02 1.47687 1.75275 0
M  V30 7006 C 673.02 0.362179 1.56668 0
M  V30 7007 O 674.21 0.623734 1.62651 0
M  V30 7008 C 671.342 1.32497 3.14098 0
M  V30 7009 H 672.535 2.4519 1.7269 0
M  V30 7010 H 670.088 1.2991 0.869087 0
M  V30 7011 H 670.823 0.359831 3.22298 0
M  V30 7012 H 670.608 2.13299 3.29008 0
M  V30 7013 H 672.098 1.38549 3.93946 0
M  V30 7014 N 672.536 -0.895792 1.29666 0
M  V30 7015 C 673.766 -1.67757 1.20586 0
M  V30 7016 C 674.174 -1.87729 -0.235432 0
M  V30 7017 O 673.517 -1.41706 -1.16898 0
M  V30 7018 C 673.579 -3.08117 1.85215 0
M  V30 7019 C 673.243 -3.1136 3.3452 0
M  V30 7020 C 674.24 -2.91217 4.30684 0
M  V30 7021 C 671.925 -3.33302 3.75786 0
M  V30 7022 C 673.919 -2.92955 5.66089 0
M  V30 7023 C 671.606 -3.3467 5.11311 0
M  V30 7024 C 672.604 -3.14519 6.06273 0
M  V30 7025 O 672.292 -3.15684 7.39323 0
M  V30 7026 H 672.024 -0.530601 0.418854 0
M  V30 7027 H 674.578 -1.12831 1.71634 0
M  V30 7028 H 672.808 -3.64661 1.28683 0
M  V30 7029 H 674.497 -3.68399 1.70403 0
M  V30 7030 H 675.263 -2.74074 4.00136 0
M  V30 7031 H 671.142 -3.48025 3.02324 0
M  V30 7032 H 674.686 -2.77145 6.40185 0
M  V30 7033 H 670.583 -3.51346 5.41504 0
M  V30 7034 H 671.351 -3.31924 7.48177 0
M  V30 7035 N 674.014 -1.12206 -1.10668 0
M  V30 7036 C 675.26 -0.877172 -1.82848 0
M  V30 7037 C 675.593 0.595571 -1.84842 0
M  V30 7038 O 674.868 1.44013 -1.30731 0
M  V30 7039 C 675.151 -1.44957 -3.29635 0
M  V30 7040 C 675.004 -2.99051 -3.35989 0
M  V30 7041 C 676.323 -1.10714 -4.25946 0
M  V30 7042 H 673.442 -0.320103 -0.663854 0
M  V30 7043 H 676.084 -1.38827 -1.2972 0
M  V30 7044 H 674.234 -1.01488 -3.7501 0
M  V30 7045 H 675.906 -3.51182 -2.99113 0
M  V30 7046 H 674.149 -3.34705 -2.75962 0
M  V30 7047 H 674.82 -3.34194 -4.39339 0
M  V30 7048 H 677.296 -1.48254 -3.88793 0
M  V30 7049 H 676.172 -1.5343 -5.2702 0
M  V30 7050 H 676.433 -0.019 -4.42096 0
M  V30 7051 N 675.492 1.28418 -0.913599 0
M  V30 7052 C 676.903 1.77024 -0.593237 0
M  V30 7053 C 677.254 1.74779 0.891441 0
M  V30 7054 O 676.379 1.34237 1.69733 0
M  V30 7055 C 676.974 3.21456 -1.07011 0
M  V30 7056 C 675.533 3.67786 -0.800664 0
M  V30 7057 C 674.68 2.48185 -1.23691 0
M  V30 7058 H 677.631 1.14883 -1.09487 0
M  V30 7059 H 677.652 3.78269 -0.411481 0
M  V30 7060 H 677.164 3.23058 -2.1507 0
M  V30 7061 H 675.265 3.71644 0.266725 0
M  V30 7062 H 675.378 4.57934 -1.4083 0
M  V30 7063 H 673.742 2.46116 -0.655655 0
M  V30 7064 H 674.525 2.52506 -2.32585 0
M  V30 7065 N 676.97 0.677563 1.42291 0
M  V30 7066 C 678.218 0.200578 2.01102 0
M  V30 7067 C 678.539 -1.19803 1.53858 0
M  V30 7068 O 677.809 -1.80496 0.761439 0
M  V30 7069 H 676.389 0.0711634 0.743603 0
M  V30 7070 H 679.051 0.874691 1.7417 0
M  V30 7071 H 678.147 0.204 3.11433 0
M  V30 7072 N 678.448 -1.51871 0.421078 0
M  V30 7073 C 679.676 -2.06356 -0.14994 0
M  V30 7074 C 680.091 -1.29006 -1.37851 0
M  V30 7075 O 679.448 -0.345139 -1.79207 0
M  V30 7076 C 679.499 -3.58185 -0.488454 0
M  V30 7077 O 679.22 -4.32611 0.691341 0
M  V30 7078 C 680.721 -4.29129 -1.11191 0
M  V30 7079 H 677.941 -0.67083 -0.0151186 0
M  V30 7080 H 680.485 -1.95638 0.595476 0
M  V30 7081 H 678.64 -3.68871 -1.18376 0
M  V30 7082 H 679.054 -5.22927 0.405906 0
M  V30 7083 H 680.528 -5.36501 -1.29889 0
M  V30 7084 H 681.005 -3.86371 -2.0884 0
M  V30 7085 H 681.611 -4.22843 -0.456458 0
M  V30 7086 N 679.926 -0.151884 -1.56866 0
M  V30 7087 C 681.154 0.504813 -2.00647 0
M  V30 7088 C 681.569 1.58098 -1.03201 0
M  V30 7089 O 680.926 1.82476 -0.0297814 0
M  V30 7090 C 680.977 1.10099 -3.44326 0
M  V30 7091 O 680.698 0.0678021 -4.38048 0
M  V30 7092 C 682.199 1.83782 -4.03409 0
M  V30 7093 H 679.419 0.130989 -0.65809 0
M  V30 7094 H 681.963 -0.247903 -2.02992 0
M  V30 7095 H 680.118 1.8043 -3.42817 0
M  V30 7096 H 680.532 0.505237 -5.22061 0
M  V30 7097 H 682.006 2.2078 -5.05925 0
M  V30 7098 H 682.483 2.72557 -3.44397 0
M  V30 7099 H 683.089 1.18138 -4.08563 0
M  V30 7100 N 681.404 1.57128 0.121893 0
M  V30 7101 C 682.634 1.88609 0.843227 0
M  V30 7102 C 683.042 0.740917 1.74089 0
M  V30 7103 O 682.385 -0.297426 1.81276 0
M  V30 7104 C 682.447 3.15073 1.73117 0
M  V30 7105 C 682.111 4.45742 1.0081 0
M  V30 7106 C 683.108 5.18719 0.350255 0
M  V30 7107 C 680.793 4.92444 0.99014 0
M  V30 7108 C 682.787 6.36617 -0.315889 0
M  V30 7109 C 680.474 6.10261 0.320196 0
M  V30 7110 C 681.472 6.82194 -0.331666 0
M  V30 7111 O 681.16 7.97769 -0.990927 0
M  V30 7112 H 680.892 0.628919 0.247865 0
M  V30 7113 H 683.446 2.05096 0.111725 0
M  V30 7114 H 681.676 2.9466 2.50424 0
M  V30 7115 H 683.365 3.32597 2.32667 0
M  V30 7116 H 684.131 4.83693 0.35577 0
M  V30 7117 H 680.01 4.36361 1.48695 0
M  V30 7118 H 683.554 6.92701 -0.825272 0
M  V30 7119 H 679.451 6.44743 0.312433 0
M  V30 7120 H 680.219 8.13591 -0.895113 0
M  V30 7121 N 682.882 -0.391992 1.52647 0
M  V30 7122 C 683.845 -1.46135 1.7657 0
M  V30 7123 C 684.845 -1.47701 0.635698 0
M  V30 7124 O 686.035 -1.48924 0.903728 0
M  V30 7125 C 683.167 -2.85443 1.86374 0
M  V30 7126 H 684.36 -1.26208 2.72051 0
M  V30 7127 H 681.913 -0.623549 1.43323 0
M  V30 7128 H 682.648 -3.10718 0.928685 0
M  V30 7129 H 682.433 -2.85708 2.68539 0
M  V30 7130 H 683.923 -3.62933 2.06566 0
M  V30 7131 N 684.36 -1.4356 -0.65026 0
M  V30 7132 C 685.292 -1.44918 -1.77571 0
M  V30 7133 C 686.305 -0.344925 -1.59104 0
M  V30 7134 O 687.494 -0.609537 -1.6777 0
M  V30 7135 C 684.594 -1.24914 -3.15039 0
M  V30 7136 C 683.767 -2.48232 -3.60138 0
M  V30 7137 C 682.826 -2.23409 -4.76419 0
M  V30 7138 O 681.852 -2.9678 -4.85706 0
M  V30 7139 N 683.054 -1.25259 -5.66825 0
M  V30 7140 H 685.819 -2.41935 -1.76883 0
M  V30 7141 H 683.38 -1.38754 -0.834202 0
M  V30 7142 H 685.372 -1.06185 -3.90521 0
M  V30 7143 H 683.942 -0.363319 -3.10481 0
M  V30 7144 H 683.162 -2.82366 -2.75069 0
M  V30 7145 H 684.45 -3.30296 -3.87017 0
M  V30 7146 H 683.848 -0.646246 -5.61997 0
M  V30 7147 H 682.405 -1.12513 -6.42016 0
M  V30 7148 N 685.838 0.888903 -1.30139 0
M  V30 7149 C 687.086 1.63713 -1.18501 0
M  V30 7150 C 687.407 1.9324 0.261399 0
M  V30 7151 O 686.677 1.56608 1.17689 0
M  V30 7152 H 685.257 0.606861 -0.435579 0
M  V30 7153 H 687.919 1.06525 -1.63213 0
M  V30 7154 H 687.015 2.58894 -1.743 0
M  V30 7155 N 687.317 1.12792 1.10072 0
M  V30 7156 C 688.28 0.802264 2.14701 0
M  V30 7157 C 689.28 -0.18515 1.59731 0
M  V30 7158 O 690.47 0.041109 1.74151 0
M  V30 7159 C 687.602 0.19285 3.40354 0
M  V30 7160 H 688.795 1.72932 2.45019 0
M  V30 7161 H 686.348 0.931662 1.25498 0
M  V30 7162 H 687.083 -0.743748 3.15656 0
M  V30 7163 H 686.868 0.903827 3.81541 0
M  V30 7164 H 688.358 -0.0183704 4.17596 0
M  V30 7165 N 688.795 -1.27931 0.920396 0
M  V30 7166 C 689.725 -2.29487 0.431024 0
M  V30 7167 C 690.706 -1.62435 -0.504861 0
M  V30 7168 O 691.891 -1.89797 -0.411176 0
M  V30 7169 C 689.021 -3.45788 -0.323709 0
M  V30 7170 C 687.975 -4.24784 0.523658 0
M  V30 7171 C 687.301 -5.33488 -0.359809 0
M  V30 7172 C 688.601 -4.90874 1.78437 0
M  V30 7173 H 690.295 -2.70671 1.27975 0
M  V30 7174 H 687.841 -1.30121 0.616813 0
M  V30 7175 H 689.794 -4.15927 -0.676952 0
M  V30 7176 H 688.518 -3.03502 -1.2064 0
M  V30 7177 H 687.177 -3.56382 0.85951 0
M  V30 7178 H 686.825 -4.87445 -1.24124 0
M  V30 7179 H 686.525 -5.87247 0.203605 0
M  V30 7180 H 688.049 -6.06472 -0.708787 0
M  V30 7181 H 689.463 -5.53339 1.49963 0
M  V30 7182 H 687.86 -5.54659 2.29071 0
M  V30 7183 H 688.93 -4.14988 2.50824 0
M  V30 7184 N 690.273 -0.685099 -1.4193 0
M  V30 7185 C 691.519 -0.211971 -2.01689 0
M  V30 7186 C 691.852 1.18189 -1.54094 0
M  V30 7187 O 691.127 1.79559 -0.747572 0
M  V30 7188 C 691.41 -0.258019 -3.59174 0
M  V30 7189 C 691.263 -1.68807 -4.16922 0
M  V30 7190 C 692.582 0.388044 -4.38386 0
M  V30 7191 H 689.701 -0.0784987 -0.732808 0
M  V30 7192 H 692.343 -0.871837 -1.68816 0
M  V30 7193 H 690.493 0.303832 -3.8731 0
M  V30 7194 H 692.165 -2.30296 -3.99702 0
M  V30 7195 H 690.408 -2.22553 -3.72361 0
M  V30 7196 H 691.079 -1.6719 -5.26072 0
M  V30 7197 H 693.555 -0.0903432 -4.16002 0
M  V30 7198 H 692.431 0.325232 -5.47936 0
M  V30 7199 H 692.692 1.4672 -4.17044 0
M  V30 7200 N 691.751 1.51645 -0.429126 0
M  V30 7201 C 692.976 2.06917 0.141399 0
M  V30 7202 C 693.401 1.29527 1.36398 0
M  V30 7203 O 692.759 0.33094 1.78254 0
M  V30 7204 C 692.807 3.57776 0.4504 0
M  V30 7205 O 691.911 3.82639 1.53821 0
M  V30 7206 H 691.252 0.663978 0.0054647 0
M  V30 7207 H 693.782 1.95355 -0.608093 0
M  V30 7208 H 693.792 4.01894 0.703249 0
M  V30 7209 H 692.467 4.13532 -0.443213 0
M  V30 7210 H 691.044 3.5039 1.27597 0
M  V30 7211 N 693.229 0.160201 1.56784 0
M  V30 7212 C 694.459 -0.493449 2.00621 0
M  V30 7213 C 694.867 -1.5809 1.03943 0
M  V30 7214 O 694.21 -1.83675 0.0305343 0
M  V30 7215 C 694.272 -1.14169 3.4089 0
M  V30 7216 C 693.936 -0.197243 4.56574 0
M  V30 7217 C 694.933 0.580174 5.16653 0
M  V30 7218 C 692.618 -0.0963038 5.02208 0
M  V30 7219 C 694.612 1.44584 6.20785 0
M  V30 7220 C 692.299 0.772959 6.06192 0
M  V30 7221 C 693.297 1.54263 6.65351 0
M  V30 7222 O 692.985 2.39738 7.67321 0
M  V30 7223 H 692.717 -0.131764 0.663034 0
M  V30 7224 H 695.271 0.255728 2.03802 0
M  V30 7225 H 693.501 -1.93877 3.34587 0
M  V30 7226 H 695.19 -1.69641 3.6875 0
M  V30 7227 H 695.956 0.5123 4.82287 0
M  V30 7228 H 691.835 -0.685143 4.5588 0
M  V30 7229 H 695.379 2.04706 6.66889 0
M  V30 7230 H 691.276 0.842077 6.39984 0
M  V30 7231 H 692.044 2.33131 7.84597 0
M  V30 7232 N 694.707 -1.5719 -0.113559 0
M  V30 7233 C 695.639 -1.97393 -1.16484 0
M  V30 7234 C 696.652 -0.873964 -1.37352 0
M  V30 7235 O 697.841 -1.15222 -1.36331 0
M  V30 7236 C 694.941 -2.26174 -2.52386 0
M  V30 7237 C 694.114 -3.57479 -2.52046 0
M  V30 7238 C 693.173 -3.74409 -3.69735 0
M  V30 7239 O 692.199 -4.46463 -3.53071 0
M  V30 7240 N 693.401 -3.13588 -4.88511 0
M  V30 7241 H 696.166 -2.88184 -0.822814 0
M  V30 7242 H 693.727 -1.59044 -0.302769 0
M  V30 7243 H 695.719 -2.3471 -3.29687 0
M  V30 7244 H 694.289 -1.41483 -2.7875 0
M  V30 7245 H 693.509 -3.60081 -1.60421 0
M  V30 7246 H 694.797 -4.43775 -2.48881 0
M  V30 7247 H 694.195 -2.55026 -5.04953 0
M  V30 7248 H 692.752 -3.27637 -5.63469 0
M  V30 7249 N 696.185 0.383891 -1.52853 0
M  V30 7250 C 697.433 1.12619 -1.67814 0
M  V30 7251 C 697.754 1.90354 -0.423141 0
M  V30 7252 O 697.024 1.87649 0.562554 0
M  V30 7253 H 695.604 0.418738 -0.618601 0
M  V30 7254 H 698.266 0.43495 -1.89985 0
M  V30 7255 H 697.362 1.82624 -2.5309 0
M  V30 7256 N 697.663 1.43903 0.642637 0
M  V30 7257 C 698.893 1.49323 1.4278 0
M  V30 7258 C 699.301 0.113058 1.88862 0
M  V30 7259 O 698.644 -0.889089 1.60751 0
M  V30 7260 C 698.706 2.3861 2.68897 0
M  V30 7261 C 698.37 3.85976 2.44687 0
M  V30 7262 C 699.367 4.7681 2.07239 0
M  V30 7263 C 697.052 4.30567 2.58683 0
M  V30 7264 C 699.046 6.10234 1.841 0
M  V30 7265 C 696.733 5.64042 2.35159 0
M  V30 7266 C 697.731 6.53693 1.97925 0
M  V30 7267 O 697.419 7.84698 1.74654 0
M  V30 7268 H 697.151 0.509109 0.444729 0
M  V30 7269 H 699.705 1.89425 0.794195 0
M  V30 7270 H 697.935 1.93415 3.34855 0
M  V30 7271 H 699.624 2.35112 3.30873 0
M  V30 7272 H 700.39 4.43635 1.95993 0
M  V30 7273 H 696.269 3.61054 2.86637 0
M  V30 7274 H 699.813 6.80171 1.54962 0
M  V30 7275 H 695.71 5.96782 2.46011 0
M  V30 7276 H 696.478 7.96382 1.88993 0
M  V30 7277 N 699.141 -0.881989 1.30609 0
M  V30 7278 C 700.387 -1.63647 1.19781 0
M  V30 7279 C 700.72 -1.92632 -0.246265 0
M  V30 7280 O 699.995 -1.54938 -1.17577 0
M  V30 7281 C 700.278 -2.97437 2.02985 0
M  V30 7282 C 700.131 -2.75406 3.55628 0
M  V30 7283 C 701.45 -3.98397 1.86997 0
M  V30 7284 H 698.569 -0.593841 0.436488 0
M  V30 7285 H 701.211 -1.02041 1.60273 0
M  V30 7286 H 699.361 -3.50018 1.68581 0
M  V30 7287 H 701.033 -2.2959 4.00107 0
M  V30 7288 H 699.276 -2.09856 3.79662 0
M  V30 7289 H 699.947 -3.70552 4.09139 0
M  V30 7290 H 702.423 -3.54986 2.17081 0
M  V30 7291 H 701.299 -4.89916 2.47536 0
M  V30 7292 H 701.56 -4.3424 0.829943 0
M  V30 7293 N 700.619 -1.13374 -1.09472 0
M  V30 7294 C 701.865 -0.906459 -1.82085 0
M  V30 7295 C 702.22 0.5614 -1.84027 0
M  V30 7296 O 701.513 1.41012 -1.29716 0
M  V30 7297 C 701.707 -1.42759 -3.2765 0
M  V30 7298 C 701.536 -2.94459 -3.39888 0
M  V30 7299 C 700.306 -3.62798 -3.51718 0
M  V30 7300 C 702.504 -3.92398 -3.32457 0
M  V30 7301 N 700.486 -5.02516 -3.52635 0
M  V30 7302 C 701.857 -5.18304 -3.40237 0
M  V30 7303 C 703.912 -3.84671 -3.16122 0
M  V30 7304 C 702.615 -6.37386 -3.33364 0
M  V30 7305 C 704.641 -5.03287 -3.10574 0
M  V30 7306 C 704.003 -6.28055 -3.18945 0
M  V30 7307 H 700.102 -0.385097 -0.680606 0
M  V30 7308 H 702.686 -1.44187 -1.30836 0
M  V30 7309 H 700.857 -0.919102 -3.77369 0
M  V30 7310 H 702.589 -1.14136 -3.88272 0
M  V30 7311 H 699.344 -3.13317 -3.55147 0
M  V30 7312 H 699.768 -5.75421 -3.56679 0
M  V30 7313 H 704.41 -2.89094 -3.0852 0
M  V30 7314 H 702.128 -7.33219 -3.3973 0
M  V30 7315 H 705.714 -4.99047 -2.9907 0
M  V30 7316 H 704.594 -7.18299 -3.14668 0
M  V30 7317 N 702.098 1.27442 -0.927168 0
M  V30 7318 C 703.03 2.25975 -0.383158 0
M  V30 7319 C 704.043 1.55382 0.485832 0
M  V30 7320 O 705.232 1.75986 0.298541 0
M  V30 7321 C 702.332 3.35629 0.469688 0
M  V30 7322 C 701.505 4.35747 -0.379886 0
M  V30 7323 C 700.564 5.24598 0.410227 0
M  V30 7324 O 699.59 5.68909 -0.181888 0
M  V30 7325 N 700.792 5.54737 1.71017 0
M  V30 7326 H 703.557 2.7329 -1.23015 0
M  V30 7327 H 701.118 1.41063 -0.794539 0
M  V30 7328 H 703.11 3.92015 1.00532 0
M  V30 7329 H 701.68 2.87919 1.21744 0
M  V30 7330 H 700.9 3.78634 -1.09682 0
M  V30 7331 H 702.188 4.99648 -0.960717 0
M  V30 7332 H 701.586 5.20594 2.21356 0
M  V30 7333 H 700.143 6.13824 2.19234 0
M  V30 7334 N 703.576 0.692616 1.41565 0
M  V30 7335 C 704.804 0.231279 2.05603 0
M  V30 7336 C 705.219 -1.11837 1.52111 0
M  V30 7337 O 704.576 -1.6983 0.66813 0
M  V30 7338 C 704.627 0.177125 3.61066 0
M  V30 7339 O 704.348 1.47346 4.12578 0
M  V30 7340 C 705.849 -0.30556 4.42246 0
M  V30 7341 H 703.069 0.108238 0.662213 0
M  V30 7342 H 705.613 0.944369 1.81389 0
M  V30 7343 H 703.768 -0.486769 3.8433 0
M  V30 7344 H 704.182 1.35861 5.06599 0
M  V30 7345 H 705.656 -0.29233 5.51225 0
M  V30 7346 H 706.133 -1.34393 4.18133 0
M  V30 7347 H 706.739 0.327229 4.24039 0
M  V30 7348 N 705.054 -1.51416 0.437162 0
M  V30 7349 C 706.001 -2.27743 -0.374374 0
M  V30 7350 C 706.971 -1.31327 -1.01698 0
M  V30 7351 O 708.156 -1.60229 -1.03592 0
M  V30 7352 C 705.296 -3.12241 -1.46969 0
M  V30 7353 C 704.409 -4.23651 -0.845236 0
M  V30 7354 C 703.544 -4.95458 -1.91559 0
M  V30 7355 C 702.583 -5.98789 -1.26956 0
M  V30 7356 N 701.72 -6.64005 -2.28126 0
M  V30 7357 H 706.56 -2.96654 0.282892 0
M  V30 7358 H 704.097 -1.46319 0.151352 0
M  V30 7359 H 706.055 -3.59556 -2.11602 0
M  V30 7360 H 704.685 -2.45445 -2.09659 0
M  V30 7361 H 703.737 -3.803 -0.0872059 0
M  V30 7362 H 705.049 -4.97683 -0.333582 0
M  V30 7363 H 704.203 -5.46321 -2.63854 0
M  V30 7364 H 702.942 -4.21055 -2.46097 0
M  V30 7365 H 701.947 -5.47219 -0.53207 0
M  V30 7366 H 703.172 -6.75149 -0.731509 0
M  V30 7367 H 701.118 -5.92415 -2.81745 0
M  V30 7368 H 701.035 -7.33802 -1.81852 0
M  V30 7369 H 702.303 -7.19498 -2.99905 0
M  V30 7370 N 706.532 -0.168513 -1.56696 0
M  V30 7371 C 707.778 0.471368 -1.97863 0
M  V30 7372 C 708.133 1.61049 -1.05267 0
M  V30 7373 O 707.426 1.9138 -0.0917908 0
M  V30 7374 C 707.62 1.00441 -3.42996 0
M  V30 7375 C 707.449 -0.081524 -4.49626 0
M  V30 7376 C 706.219 -0.530242 -5.0251 0
M  V30 7377 C 708.417 -0.880897 -5.067 0
M  V30 7378 N 706.399 -1.59678 -5.9277 0
M  V30 7379 C 707.77 -1.79742 -5.93374 0
M  V30 7380 C 709.825 -0.92629 -4.89208 0
M  V30 7381 C 708.528 -2.7555 -6.64428 0
M  V30 7382 C 710.554 -1.8723 -5.6098 0
M  V30 7383 C 709.916 -2.77631 -6.4738 0
M  V30 7384 H 706.015 0.140671 -0.769244 0
M  V30 7385 H 708.599 -0.268084 -1.92846 0
M  V30 7386 H 706.77 1.71339 -3.48565 0
M  V30 7387 H 708.502 1.61269 -3.7118 0
M  V30 7388 H 705.257 -0.12847 -4.73426 0
M  V30 7389 H 705.681 -2.13045 -6.42605 0
M  V30 7390 H 710.323 -0.241412 -4.2211 0
M  V30 7391 H 708.041 -3.45027 -7.30741 0
M  V30 7392 H 711.627 -1.91349 -5.49433 0
M  V30 7393 H 710.507 -3.4964 -7.01941 0
M  V30 7394 N 708.01 1.57248 0.105221 0
M  V30 7395 C 709.258 1.85204 0.808951 0
M  V30 7396 C 709.579 0.75574 1.7976 0
M  V30 7397 O 708.849 -0.218984 1.94672 0
M  V30 7398 H 707.429 0.683346 0.301739 0
M  V30 7399 H 710.091 1.94695 0.0892605 0
M  V30 7400 H 709.187 2.81595 1.34575 0
M  V30 7401 N 709.488 -0.375779 1.53054 0
M  V30 7402 C 710.718 -1.1387 1.72386 0
M  V30 7403 C 711.126 -1.8382 0.447966 0
M  V30 7404 O 710.469 -1.74027 -0.588244 0
M  V30 7405 C 710.531 -2.22047 2.82728 0
M  V30 7406 C 710.195 -1.71951 4.23417 0
M  V30 7407 C 711.192 -1.18909 5.06119 0
M  V30 7408 C 708.877 -1.77773 4.69789 0
M  V30 7409 C 710.871 -0.723529 6.3328 0
M  V30 7410 C 708.558 -1.30829 5.96931 0
M  V30 7411 C 709.556 -0.782077 6.78508 0
M  V30 7412 O 709.244 -0.319529 8.03265 0
M  V30 7413 H 708.976 -0.346835 0.580242 0
M  V30 7414 H 711.53 -0.443748 2.00549 0
M  V30 7415 H 709.76 -2.95006 2.50017 0
M  V30 7416 H 711.449 -2.83654 2.90336 0
M  V30 7417 H 712.215 -1.13758 4.7147 0
M  V30 7418 H 708.094 -2.17673 4.06373 0
M  V30 7419 H 711.638 -0.312126 6.96901 0
M  V30 7420 H 707.535 -1.3567 6.31081 0
M  V30 7421 H 708.303 -0.439796 8.17318 0
M  V30 7422 N 710.966 -1.44241 -0.634997 0
M  V30 7423 C 712.215 -1.46102 -1.39058 0
M  V30 7424 C 712.528 -0.0959909 -1.95364 0
M  V30 7425 O 713.734 0.00788751 -2.71499 0
M  V30 7426 C 712.19 -2.57195 -2.51751 0
M  V30 7427 C 711.798 -3.99888 -2.01974 0
M  V30 7428 C 713.542 -2.68272 -3.28984 0
M  V30 7429 C 711.449 -5.02412 -3.11987 0
M  V30 7430 H 710.379 -0.543556 -0.522554 0
M  V30 7431 H 713.03 -1.70294 -0.683538 0
M  V30 7432 H 711.412 -2.26237 -3.25012 0
M  V30 7433 H 712.586 -4.40396 -1.35604 0
M  V30 7434 H 710.901 -3.93019 -1.37568 0
M  V30 7435 H 713.498 -3.42042 -4.10988 0
M  V30 7436 H 713.841 -1.73957 -3.78212 0
M  V30 7437 H 714.374 -2.98622 -2.62812 0
M  V30 7438 H 711.113 -5.98342 -2.67707 0
M  V30 7439 H 710.633 -4.66501 -3.77011 0
M  V30 7440 H 712.312 -5.25939 -3.76825 0
M  V30 7441 N 712.444 0.87505 -1.31075 0
M  V30 7442 C 713.672 1.66058 -1.23419 0
M  V30 7443 C 714.087 1.87723 0.201347 0
M  V30 7444 O 713.444 1.43178 1.13165 0
M  V30 7445 C 713.495 3.03142 -1.96945 0
M  V30 7446 O 713.216 2.82448 -3.34895 0
M  V30 7447 C 714.717 3.97583 -1.96067 0
M  V30 7448 H 711.937 0.517868 -0.426677 0
M  V30 7449 H 714.481 1.09258 -1.72867 0
M  V30 7450 H 712.636 3.56645 -1.51271 0
M  V30 7451 H 713.05 3.69483 -3.72267 0
M  V30 7452 H 714.524 4.91104 -2.52034 0
M  V30 7453 H 715.001 4.2898 -0.941961 0
M  V30 7454 H 715.607 3.50015 -2.41597 0
M  V30 7455 N 713.922 1.13953 1.08869 0
M  V30 7456 C 715.147 0.928559 1.85452 0
M  V30 7457 C 715.572 -0.517642 1.80837 0
M  V30 7458 O 714.93 -1.36779 1.19001 0
M  V30 7459 C 714.978 1.42814 3.31114 0
M  V30 7460 O 714.082 0.617129 4.07756 0
M  V30 7461 H 713.423 0.33235 0.574839 0
M  V30 7462 H 715.953 1.5156 1.37443 0
M  V30 7463 H 715.963 1.43425 3.8196 0
M  V30 7464 H 714.638 2.48109 3.33788 0
M  V30 7465 H 713.215 0.679365 3.66659 0
M  V30 7466 N 715.4 -1.26948 0.933913 0
M  V30 7467 C 716.363 -2.24889 0.442457 0
M  V30 7468 C 717.363 -1.54594 -0.442426 0
M  V30 7469 O 718.553 -1.72502 -0.242629 0
M  V30 7470 C 715.685 -3.3896 -0.363173 0
M  V30 7471 H 716.878 -2.69879 1.30787 0
M  V30 7472 H 714.431 -1.38978 0.715187 0
M  V30 7473 H 715.166 -2.99361 -1.24714 0
M  V30 7474 H 714.951 -3.9116 0.271366 0
M  V30 7475 H 716.441 -4.11739 -0.697186 0
M  V30 7476 N 716.879 -0.700114 -1.41195 0
M  V30 7477 C 718.29 -0.307249 -1.84154 0
M  V30 7478 C 718.641 1.15539 -1.58572 0
M  V30 7479 O 717.766 1.88744 -1.05852 0
M  V30 7480 C 718.361 -0.550872 -3.34292 0
M  V30 7481 C 716.92 -0.211877 -3.75803 0
M  V30 7482 C 716.067 -0.830915 -2.64558 0
M  V30 7483 H 719.018 -0.900431 -1.30683 0
M  V30 7484 H 719.039 0.188954 -3.80031 0
M  V30 7485 H 718.551 -1.61548 -3.5288 0
M  V30 7486 H 716.652 0.848283 -3.62815 0
M  V30 7487 H 716.765 -0.67007 -4.74391 0
M  V30 7488 H 715.129 -0.260155 -2.53368 0
M  V30 7489 H 715.912 -1.89948 -2.85963 0
M  V30 7490 N 718.357 1.51182 -0.445186 0
M  V30 7491 C 719.605 2.01753 0.11841 0
M  V30 7492 C 719.926 1.33087 1.42523 0
M  V30 7493 O 719.196 0.467891 1.9023 0
M  V30 7494 H 717.776 0.745536 0.0467492 0
M  V30 7495 H 720.438 1.85765 -0.589688 0
M  V30 7496 H 719.534 3.10762 0.288665 0
M  V30 7497 N 719.835 0.176821 1.56605 0
M  V30 7498 C 721.06 -0.47599 2.01864 0
M  V30 7499 C 721.485 -1.55645 1.05623 0
M  V30 7500 O 720.843 -1.81263 0.0366729 0
M  V30 7501 C 720.891 -1.02619 3.4569 0
M  V30 7502 O 719.995 -2.13996 3.52533 0
M  V30 7503 H 719.336 -0.113363 0.654251 0
M  V30 7504 H 721.866 0.28233 2.02643 0
M  V30 7505 H 721.876 -1.34742 3.85109 0
M  V30 7506 H 720.551 -0.235138 4.15235 0
M  V30 7507 H 719.128 -1.82876 3.24978 0
M  V30 7508 N 721.313 -1.57302 -0.09688 0
M  V30 7509 C 722.59 -1.7701 -0.832272 0
M  V30 7510 C 722.97 -0.758025 -1.97021 0
M  V30 7511 O 722.318 0.213824 -2.27497 0
M  V30 7512 C 722.528 -3.22725 -1.32851 0
M  V30 7513 C 723.876 -3.85856 -1.772 0
M  V30 7514 O 724.9 -3.26464 -1.42478 0
M  V30 7515 O 723.759 -4.90295 -2.41398 0
M  V30 7516 H 720.853 -0.725558 -0.396856 0
M  V30 7517 H 723.399 -1.69516 -0.0789005 0
M  V30 7518 H 722.171 -3.87921 -0.51312 0
M  V30 7519 H 721.794 -3.34845 -2.14394 0
M  V30 7520 N 722.791 0.367657 -1.53252 0
M  V30 7521 C 724.016 1.13566 -1.73544 0
M  V30 7522 C 724.441 1.82329 -0.462344 0
M  V30 7523 O 723.799 1.71655 0.583472 0
M  V30 7524 C 723.847 2.14322 -2.89997 0
M  V30 7525 O 722.951 3.21359 -2.58461 0
M  V30 7526 H 722.292 0.329614 -0.576412 0
M  V30 7527 H 724.822 0.425417 -2.00128 0
M  V30 7528 H 724.832 2.57958 -3.16104 0
M  V30 7529 H 723.507 1.63664 -3.82344 0
M  V30 7530 H 722.084 2.8271 -2.43165 0
M  V30 7531 N 724.269 1.44576 0.627338 0
M  V30 7532 C 725.232 1.51372 1.72102 0
M  V30 7533 C 726.232 0.395329 1.55865 0
M  V30 7534 O 727.422 0.658094 1.61291 0
M  V30 7535 C 724.554 1.39129 3.11217 0
M  V30 7536 H 725.747 2.48798 1.6745 0
M  V30 7537 H 723.3 1.31724 0.841336 0
M  V30 7538 H 724.035 0.428114 3.21462 0
M  V30 7539 H 723.82 2.20229 3.24409 0
M  V30 7540 H 725.31 1.46874 3.90919 0
M  V30 7541 N 725.747 -0.868086 1.31537 0
M  V30 7542 C 726.993 -1.62359 1.2252 0
M  V30 7543 C 727.348 -1.91204 -0.214169 0
M  V30 7544 O 726.641 -1.5339 -1.14813 0
M  V30 7545 C 726.835 -2.95889 2.0046 0
M  V30 7546 C 726.664 -2.80082 3.5183 0
M  V30 7547 C 725.434 -2.7917 4.21179 0
M  V30 7548 C 727.632 -2.54805 4.46743 0
M  V30 7549 N 725.614 -2.54433 5.58692 0
M  V30 7550 C 726.985 -2.39349 5.71937 0
M  V30 7551 C 729.04 -2.40165 4.36148 0
M  V30 7552 C 727.743 -2.1074 6.87736 0
M  V30 7553 C 729.769 -2.12945 5.51732 0
M  V30 7554 C 729.131 -1.98278 6.75918 0
M  V30 7555 H 725.23 -0.598381 0.503452 0
M  V30 7556 H 727.814 -1.02156 1.65748 0
M  V30 7557 H 725.985 -3.54095 1.59598 0
M  V30 7558 H 727.717 -3.60734 1.83447 0
M  V30 7559 H 724.472 -2.91621 3.73168 0
M  V30 7560 H 724.896 -2.45029 6.31102 0
M  V30 7561 H 729.538 -2.50231 3.408 0
M  V30 7562 H 727.256 -1.99412 7.8311 0
M  V30 7563 H 730.842 -2.02415 5.45454 0
M  V30 7564 H 729.722 -1.77514 7.63845 0
M  V30 7565 N 727.225 -1.14528 -1.08264 0
M  V30 7566 C 728.155 -0.856356 -2.1723 0
M  V30 7567 C 729.136 0.189251 -1.69044 0
M  V30 7568 O 730.321 0.0456119 -1.94146 0
M  V30 7569 C 727.451 -0.334662 -3.45684 0
M  V30 7570 C 726.405 -1.31588 -4.0727 0
M  V30 7571 C 725.731 -0.653428 -5.30692 0
M  V30 7572 C 727.031 -2.67866 -4.48381 0
M  V30 7573 H 728.725 -1.76755 -2.41657 0
M  V30 7574 H 726.271 -0.851287 -1.16143 0
M  V30 7575 H 728.224 -0.120128 -4.21229 0
M  V30 7576 H 726.948 0.611967 -3.20815 0
M  V30 7577 H 725.607 -1.51661 -3.33758 0
M  V30 7578 H 725.255 0.299054 -5.0211 0
M  V30 7579 H 724.955 -1.30817 -5.72853 0
M  V30 7580 H 726.479 -0.448453 -6.08951 0
M  V30 7581 H 727.893 -2.51692 -5.15096 0
M  V30 7582 H 726.29 -3.29627 -5.01464 0
M  V30 7583 H 727.36 -3.24632 -3.60198 0
M  V30 7584 N 728.703 1.26451 -0.940633 0
M  V30 7585 C 729.65 2.264 -0.448497 0
M  V30 7586 C 730.62 1.5866 0.491546 0
M  V30 7587 O 731.805 1.86389 0.407874 0
M  V30 7588 C 728.945 3.43956 0.280715 0
M  V30 7589 C 728.058 4.26374 -0.694937 0
M  V30 7590 C 727.193 5.31171 0.0554186 0
M  V30 7591 C 726.232 6.05266 -0.912091 0
M  V30 7592 N 725.369 7.01833 -0.193524 0
M  V30 7593 H 730.209 2.67869 -1.30576 0
M  V30 7594 H 727.746 1.31707 -0.655112 0
M  V30 7595 H 729.704 4.10941 0.71994 0
M  V30 7596 H 728.334 3.03403 1.10212 0
M  V30 7597 H 727.386 3.59183 -1.25267 0
M  V30 7598 H 728.698 4.77748 -1.43382 0
M  V30 7599 H 727.852 6.04166 0.553951 0
M  V30 7600 H 726.591 4.80634 0.827183 0
M  V30 7601 H 725.596 5.31099 -1.42175 0
M  V30 7602 H 726.821 6.57893 -1.68385 0
M  V30 7603 H 724.767 6.53607 0.559758 0
M  V30 7604 H 724.684 7.50957 -0.871744 0
M  V30 7605 H 725.952 7.78983 0.283932 0
M  V30 7606 N 730.181 0.707592 1.40822 0
M  V30 7607 C 731.427 0.244031 2.01326 0
M  V30 7608 C 731.76 -1.15722 1.55955 0
M  V30 7609 O 731.035 -1.78347 0.776044 0
M  V30 7610 C 731.318 0.315128 3.58718 0
M  V30 7611 C 731.171 1.75419 4.14184 0
M  V30 7612 C 732.49 -0.318251 4.38948 0
M  V30 7613 H 729.609 0.0901471 0.731466 0
M  V30 7614 H 732.251 0.898584 1.67408 0
M  V30 7615 H 730.401 -0.242176 3.87744 0
M  V30 7616 H 732.073 2.36626 3.95987 0
M  V30 7617 H 730.316 2.28449 3.68773 0
M  V30 7618 H 730.987 1.75538 5.23345 0
M  V30 7619 H 733.463 0.156514 4.15806 0
M  V30 7620 H 732.339 -0.238019 5.48384 0
M  V30 7621 H 732.6 -1.40067 4.19325 0
M  V30 7622 N 731.66 -1.50943 0.453197 0
M  V30 7623 C 732.908 -2.01813 -0.107709 0
M  V30 7624 C 733.229 -1.33841 -1.41816 0
M  V30 7625 O 732.499 -0.477973 -1.8998 0
M  V30 7626 H 731.079 -0.745773 -0.0427948 0
M  V30 7627 H 733.741 -1.8545 0.599531 0
M  V30 7628 H 732.837 -3.10911 -0.27218 0
M  V30 7629 N 733.138 -0.185124 -1.56509 0
M  V30 7630 C 734.554 0.170865 -1.58683 0
M  V30 7631 C 734.754 1.61799 -1.20098 0
M  V30 7632 O 733.81 2.35181 -0.919038 0
M  V30 7633 C 735.123 -0.122459 -3.00451 0
M  V30 7634 C 736.671 -0.0617699 -3.12939 0
M  V30 7635 C 737.146 -0.328269 -4.56822 0
M  V30 7636 N 738.637 -0.276533 -4.62374 0
M  V30 7637 C 739.372 -0.456722 -5.71578 0
M  V30 7638 N 738.868 -0.69672 -6.89288 0
M  V30 7639 N 740.661 -0.391669 -5.60734 0
M  V30 7640 H 732.812 -1.12956 -1.79874 0
M  V30 7641 H 735.075 -0.45011 -0.834329 0
M  V30 7642 H 734.781 -1.12546 -3.33206 0
M  V30 7643 H 734.655 0.579578 -3.72721 0
M  V30 7644 H 737.042 0.931826 -2.80002 0
M  V30 7645 H 737.123 -0.796732 -2.43076 0
M  V30 7646 H 736.767 -1.31914 -4.9047 0
M  V30 7647 H 736.697 0.427465 -5.24862 0
M  V30 7648 H 739.188 -0.0972458 -3.77775 0
M  V30 7649 H 739.501 -0.823291 -7.68402 0
M  V30 7650 H 737.846 -0.733497 -6.91119 0
M  V30 7651 H 741.037 -0.204663 -4.67652 0
M  V30 7652 H 741.21 -0.535518 -6.45783 0
M  V30 7653 N 734.616 1.57351 0.0885366 0
M  V30 7654 C 735.546 2.05561 1.10757 0
M  V30 7655 C 736.527 0.945789 1.41382 0
M  V30 7656 O 737.712 1.21747 1.51299 0
M  V30 7657 C 734.842 2.48554 2.42566 0
M  V30 7658 C 733.796 3.63259 2.26334 0
M  V30 7659 C 733.122 3.9225 3.63378 0
M  V30 7660 C 734.422 4.93913 1.69844 0
M  V30 7661 H 736.116 2.90946 0.706468 0
M  V30 7662 H 733.662 1.39968 0.338385 0
M  V30 7663 H 735.615 2.8089 3.14132 0
M  V30 7664 H 734.339 1.60176 2.84625 0
M  V30 7665 H 732.998 3.31179 1.57213 0
M  V30 7666 H 732.646 3.0103 4.02976 0
M  V30 7667 H 732.346 4.69478 3.53362 0
M  V30 7668 H 733.87 4.27067 4.36401 0
M  V30 7669 H 735.284 5.24588 2.31258 0
M  V30 7670 H 733.681 5.75349 1.70569 0
M  V30 7671 H 734.751 4.80409 0.65843 0
M  V30 7672 N 736.094 -0.359525 1.53444 0
M  V30 7673 C 737.057 -1.42357 1.7963 0
M  V30 7674 C 738.057 -1.46319 0.666884 0
M  V30 7675 O 739.247 -1.46974 0.935113 0
M  V30 7676 C 736.379 -2.81425 1.92387 0
M  V30 7677 H 737.572 -1.20409 2.74666 0
M  V30 7678 H 735.125 -0.593007 1.44614 0
M  V30 7679 H 735.86 -3.08679 0.994384 0
M  V30 7680 H 735.645 -2.79947 2.74539 0
M  V30 7681 H 737.135 -3.5847 2.14218 0
M  V30 7682 O 737.611 -1.53385 -0.505502 0
M  V30 7683 H 738.302 -1.55093 -1.16042 0
M  V30 END ATOM
M  V30 BEGIN BOND
M  V30 END BOND
M  V30 END CTAB
M  END
$$$$
