drugbank_target|Q9H228 Sphingosine 1-phosphate receptor 5 (DB08868; DB12371; DB12612)
 OpenBabel12092120153D

  0  0  0     0  0            999 V3000
M  V30 BEGIN CTAB
M  V30 COUNTS 6005 6063 0 0 0
M  V30 BEGIN ATOM
M  V30 1 H -0.908 1.98254 -0.117106 0
M  V30 2 N 0 1.576 0 0
M  V30 3 C 0.933 2.03868 1.02534 0
M  V30 4 C 1.911 0.928543 1.3348 0
M  V30 5 O 3.095 1.19667 1.45644 0
M  V30 6 C 0.222 2.43627 2.35294 0
M  V30 7 C -0.732 3.65373 2.2001 0
M  V30 8 S 0.101 5.13292 1.52614 0
M  V30 9 C 1.257 5.56322 2.86805 0
M  V30 10 H 1.49 2.90518 0.631377 0
M  V30 11 H -0.977 1.52953 0.210867 0
M  V30 12 H 0.981 2.67203 3.11629 0
M  V30 13 H -0.358 1.57376 2.7183 0
M  V30 14 H -1.165 3.90944 3.18086 0
M  V30 15 H -1.563 3.418 1.51819 0
M  V30 16 H 0.729 5.58782 3.83104 0
M  V30 17 H 1.672 6.56266 2.65933 0
M  V30 18 H 2.08 4.83886 2.90714 0
M  V30 19 N 1.4781 -0.272755 1.55222 0
M  V30 20 C 2.3881 -1.35918 1.91216 0
M  V30 21 C 3.4041 -1.54026 0.809436 0
M  V30 22 O 4.5801 -1.68148 1.10852 0
M  V30 23 C 1.6451 -2.69834 2.17693 0
M  V30 24 C 0.7061 -2.6047 3.41253 0
M  V30 25 C -0.0609 -3.88 3.66458 0
M  V30 26 O 0.1621 -4.88693 2.94169 0
M  V30 27 O -0.9039 -3.88189 4.59992 0
M  V30 28 H 2.9221 -1.0839 2.83699 0
M  V30 29 H 0.5071 -0.471301 1.41771 0
M  V30 30 H 2.3891 -3.49017 2.36147 0
M  V30 31 H 1.0641 -2.97148 1.28392 0
M  V30 32 H -0.0289 -1.79663 3.28134 0
M  V30 33 H 1.3041 -2.38106 4.30774 0
M  V30 34 N 2.9562 -1.48159 -0.537278 0
M  V30 35 C 4.1812 -1.59707 -1.32319 0
M  V30 36 C 4.6062 -0.254859 -1.86365 0
M  V30 37 O 3.9642 0.772378 -1.64024 0
M  V30 38 C 4.0122 -2.6412 -2.45505 0
M  V30 39 O 3.1162 -2.20774 -3.48328 0
M  V30 40 H 2.4572 -0.535791 -0.392204 0
M  V30 41 H 4.9872 -1.94092 -0.647268 0
M  V30 42 H 4.9972 -2.85166 -2.91795 0
M  V30 43 H 3.6722 -3.61567 -2.05528 0
M  V30 44 H 2.2492 -2.09911 -3.08207 0
M  V30 45 N 4.4343 0.785586 -1.36625 0
M  V30 46 C 5.6823 1.54057 -1.30808 0
M  V30 47 C 6.0033 1.94683 0.111157 0
M  V30 48 O 5.2733 1.65241 1.05224 0
M  V30 49 H 3.8533 0.571354 -0.481211 0
M  V30 50 H 6.5153 0.935821 -1.70963 0
M  V30 51 H 5.6113 2.44637 -1.93801 0
M  V30 52 N 5.9124 1.20967 1.01018 0
M  V30 53 C 6.8424 0.988272 2.11555 0
M  V30 54 C 7.8234 -0.0849778 1.69888 0
M  V30 55 O 9.0084 0.0738202 1.9406 0
M  V30 56 C 6.1384 0.546528 3.42973 0
M  V30 57 C 5.0924 1.56375 3.9841 0
M  V30 58 C 4.4184 0.97842 5.25672 0
M  V30 59 C 5.7184 2.94922 4.31066 0
M  V30 60 H 7.4124 1.91276 2.30334 0
M  V30 61 H 4.9584 0.921073 1.1069 0
M  V30 62 H 6.9114 0.378839 4.19694 0
M  V30 63 H 5.6354 -0.413598 3.23971 0
M  V30 64 H 4.2944 1.71891 3.23804 0
M  V30 65 H 3.9424 0.0101688 5.02999 0
M  V30 66 H 3.6424 1.65784 5.63728 0
M  V30 67 H 5.1664 0.821939 6.05043 0
M  V30 68 H 6.5804 2.8288 4.9865 0
M  V30 69 H 4.9774 3.5983 4.80253 0
M  V30 70 H 6.0474 3.4616 3.39561 0
M  V30 71 N 7.3905 -1.2043 1.01659 0
M  V30 72 C 8.3205 -2.25466 0.607226 0
M  V30 73 C 9.3015 -1.65853 -0.377716 0
M  V30 74 O 10.4865 -1.92409 -0.263149 0
M  V30 75 C 7.6165 -3.47256 -0.0552949 0
M  V30 76 C 6.5705 -4.19462 0.850632 0
M  V30 77 C 5.8965 -5.34673 0.0538859 0
M  V30 78 C 7.1965 -4.75603 2.15868 0
M  V30 79 H 8.8905 -2.59962 1.48526 0
M  V30 80 H 6.4365 -1.2496 0.715605 0
M  V30 81 H 8.3895 -4.19917 -0.353233 0
M  V30 82 H 7.1135 -3.11924 -0.968045 0
M  V30 83 H 5.7725 -3.48667 1.13257 0
M  V30 84 H 5.4205 -4.95585 -0.860514 0
M  V30 85 H 5.1205 -5.83913 0.657192 0
M  V30 86 H 6.6445 -6.10138 -0.237598 0
M  V30 87 H 8.0585 -5.40083 1.92311 0
M  V30 88 H 6.4555 -5.3528 2.71284 0
M  V30 89 H 7.5255 -3.94346 2.82169 0
M  V30 90 N 8.8686 -0.792821 -1.36206 0
M  V30 91 C 10.2846 -0.474903 -1.52371 0
M  V30 92 C 10.4846 1.00622 -1.74578 0
M  V30 93 O 9.5406 1.79162 -1.77924 0
M  V30 94 C 10.8536 -1.3083 -2.70747 0
M  V30 95 C 12.4016 -1.30234 -2.84619 0
M  V30 96 C 12.8766 -2.11956 -4.06004 0
M  V30 97 N 14.3676 -2.09419 -4.13156 0
M  V30 98 C 15.1026 -2.69419 -5.06163 0
M  V30 99 N 14.5986 -3.3829 -6.04592 0
M  V30 100 N 16.3916 -2.59134 -4.98804 0
M  V30 101 H 8.5426 -1.75222 -1.20046 0
M  V30 102 H 10.8056 -0.745024 -0.586211 0
M  V30 103 H 10.5116 -2.35881 -2.6087 0
M  V30 104 H 10.3856 -0.95196 -3.6499 0
M  V30 105 H 12.7726 -0.259748 -2.93955 0
M  V30 106 H 12.8536 -1.69847 -1.91274 0
M  V30 107 H 12.4976 -3.16248 -3.97429 0
M  V30 108 H 12.4276 -1.69711 -4.98503 0
M  V30 109 H 14.9186 -1.59297 -3.42685 0
M  V30 110 H 15.2316 -3.81394 -6.7213 0
M  V30 111 H 13.5766 -3.42393 -6.04807 0
M  V30 112 H 16.7676 -2.04927 -4.20859 0
M  V30 113 H 16.9406 -3.06185 -5.711 0
M  V30 114 N 10.3467 1.47872 -0.545128 0
M  V30 115 C 11.7577 1.86384 -0.108581 0
M  V30 116 C 12.1087 1.45309 1.31832 0
M  V30 117 O 11.2337 0.850641 1.9898 0
M  V30 118 C 11.8287 3.38265 -0.190274 0
M  V30 119 C 10.3877 3.75914 0.191164 0
M  V30 120 C 9.5347 2.71926 -0.543273 0
M  V30 121 H 12.4857 1.39561 -0.755537 0
M  V30 122 H 12.5067 3.75831 0.594217 0
M  V30 123 H 12.0187 3.6813 -1.2289 0
M  V30 124 H 10.1197 3.51665 1.23136 0
M  V30 125 H 10.2327 4.78836 -0.158987 0
M  V30 126 H 8.5967 2.54697 0.0122495 0
M  V30 127 H 9.3797 3.04634 -1.58282 0
M  V30 128 N 11.8248 0.280983 1.55075 0
M  V30 129 C 12.7878 -0.590896 2.21452 0
M  V30 130 C 13.7878 -1.07682 1.19421 0
M  V30 131 O 14.9778 -0.97605 1.44288 0
M  V30 132 C 12.1098 -1.81587 2.88511 0
M  V30 133 H 13.3028 -0.0112554 2.99898 0
M  V30 134 H 10.8558 0.0316438 1.56268 0
M  V30 135 H 11.5908 -2.43587 2.14093 0
M  V30 136 H 11.3758 -1.4753 3.63287 0
M  V30 137 H 12.8658 -2.43575 3.39206 0
M  V30 138 N 13.3029 -1.57598 0.00835791 0
M  V30 139 C 14.7139 -1.7892 -0.53333 0
M  V30 140 C 15.0649 -0.916609 -1.73473 0
M  V30 141 O 14.1899 -0.121336 -2.1606 0
M  V30 142 C 14.7849 -3.24488 -0.974313 0
M  V30 143 C 13.3439 -3.46878 -1.46125 0
M  V30 144 C 12.4909 -2.74157 -0.416302 0
M  V30 145 H 15.4419 -1.56958 0.234495 0
M  V30 146 H 15.4629 -3.3306 -1.83988 0
M  V30 147 H 14.9749 -3.87972 -0.099718 0
M  V30 148 H 13.0759 -2.8862 -2.35646 0
M  V30 149 H 13.1889 -4.55572 -1.48295 0
M  V30 150 H 11.5529 -2.39022 -0.87981 0
M  V30 151 H 12.3359 -3.40345 0.44947 0
M  V30 152 N 14.781 0.264519 -1.55364 0
M  V30 153 C 16.027 0.99646 -1.76631 0
M  V30 154 C 16.36 1.85632 -0.570478 0
M  V30 155 O 15.635 1.89647 0.43175 0
M  V30 156 C 15.918 1.87187 -3.07625 0
M  V30 157 C 15.771 1.04138 -4.37579 0
M  V30 158 C 17.09 2.85749 -3.34717 0
M  V30 159 H 14.209 0.360841 -0.642622 0
M  V30 160 H 16.851 0.268218 -1.88097 0
M  V30 161 H 15.001 2.49279 -2.9798 0
M  V30 162 H 16.673 0.440517 -4.59192 0
M  V30 163 H 14.916 0.345115 -4.32425 0
M  V30 164 H 15.587 1.68729 -5.2558 0
M  V30 165 H 18.063 2.33793 -3.4421 0
M  V30 166 H 16.939 3.44136 -4.27623 0
M  V30 167 H 17.2 3.61311 -2.54768 0
M  V30 168 N 16.2591 1.48442 0.529413 0
M  V30 169 C 17.4841 1.60406 1.31471 0
M  V30 170 C 17.9091 0.264738 1.86228 0
M  V30 171 O 17.2671 -0.763668 1.64432 0
M  V30 172 C 17.3151 2.65419 2.44101 0
M  V30 173 O 16.4191 2.22618 3.47153 0
M  V30 174 H 15.7601 0.537863 0.389357 0
M  V30 175 H 18.2901 1.94432 0.636965 0
M  V30 176 H 18.3001 2.86709 2.90279 0
M  V30 177 H 16.9751 3.62652 2.03608 0
M  V30 178 H 15.5521 2.11543 3.0709 0
M  V30 179 N 17.7372 -0.778329 1.37039 0
M  V30 180 C 18.6472 -1.92253 1.34446 0
M  V30 181 C 19.6632 -1.72267 0.244991 0
M  V30 182 O 20.8392 -1.95615 0.479258 0
M  V30 183 C 17.9042 -3.27282 1.144 0
M  V30 184 C 16.9652 -3.59969 2.33925 0
M  V30 185 C 16.1982 -4.88555 2.14825 0
M  V30 186 O 16.4212 -5.59113 1.12912 0
M  V30 187 O 15.3552 -5.20153 3.02861 0
M  V30 188 H 19.1812 -1.97392 2.30803 0
M  V30 189 H 16.7662 -0.920154 1.17701 0
M  V30 190 H 18.6482 -4.08062 1.05182 0
M  V30 191 H 17.3232 -3.23011 0.211124 0
M  V30 192 H 16.2302 -2.7945 2.48714 0
M  V30 193 H 17.5632 -3.68976 3.25757 0
M  V30 194 N 19.2153 -1.21501 -1.00376 0
M  V30 195 C 20.4613 -1.03452 -1.74429 0
M  V30 196 C 20.7943 0.430764 -1.89362 0
M  V30 197 O 20.0693 1.31962 -1.42886 0
M  V30 198 C 20.3523 -1.73375 -3.15615 0
M  V30 199 C 20.2053 -3.27431 -3.08397 0
M  V30 200 C 21.5243 -1.47732 -4.14564 0
M  V30 201 H 18.6433 -0.377226 -0.633143 0
M  V30 202 H 21.2853 -1.49693 -1.17013 0
M  V30 203 H 19.4353 -1.34064 -3.64636 0
M  V30 204 H 21.1073 -3.76119 -2.67081 0
M  V30 205 H 19.3503 -3.5767 -2.45468 0
M  V30 206 H 20.0213 -3.71524 -4.08258 0
M  V30 207 H 22.4973 -1.8186 -3.74254 0
M  V30 208 H 21.3733 -1.99169 -5.11491 0
M  V30 209 H 21.6343 -0.407589 -4.40217 0
M  V30 210 N 20.6934 1.19889 -1.02296 0
M  V30 211 C 21.9424 1.88743 -0.711257 0
M  V30 212 C 22.2554 1.80112 0.762817 0
M  V30 213 O 23.4614 2.44161 1.18733 0
M  V30 214 C 21.9174 3.38525 -1.22185 0
M  V30 215 C 21.5254 3.55727 -2.72328 0
M  V30 216 C 23.2694 4.12893 -0.985864 0
M  V30 217 C 21.1764 4.99369 -3.16835 0
M  V30 218 H 20.1064 0.706885 -0.262353 0
M  V30 219 H 22.7574 1.35586 -1.23648 0
M  V30 220 H 21.1394 3.91044 -0.624571 0
M  V30 221 H 22.3134 3.13564 -3.3766 0
M  V30 222 H 20.6284 2.94739 -2.9414 0
M  V30 223 H 23.2254 5.18813 -1.29374 0
M  V30 224 H 23.5684 4.16228 0.0775055 0
M  V30 225 H 24.1014 3.66494 -1.54684 0
M  V30 226 H 20.8404 5.01193 -4.22476 0
M  V30 227 H 20.3604 5.42317 -2.56228 0
M  V30 228 H 22.0394 5.67988 -3.09837 0
M  V30 229 N 22.1715 0.800033 1.35784 0
M  V30 230 C 23.4175 0.377901 1.99248 0
M  V30 231 C 23.7505 -1.05052 1.63333 0
M  V30 232 O 23.0255 -1.72768 0.893385 0
M  V30 233 C 23.3085 0.553922 3.55814 0
M  V30 234 C 23.1615 2.0268 4.01548 0
M  V30 235 C 24.4805 -0.0244802 4.40093 0
M  V30 236 H 21.5995 0.138782 0.723815 0
M  V30 237 H 24.2415 1.00835 1.61035 0
M  V30 238 H 22.3915 0.0172398 3.88496 0
M  V30 239 H 24.0635 2.62536 3.79305 0
M  V30 240 H 22.3065 2.5256 3.52698 0
M  V30 241 H 22.9775 2.10087 5.10458 0
M  V30 242 H 25.4535 0.433775 4.13833 0
M  V30 243 H 24.3295 0.128637 5.48749 0
M  V30 244 H 24.5905 -1.11758 4.27741 0
M  V30 245 N 23.6496 -1.47581 0.552962 0
M  V30 246 C 24.5796 -2.32762 -0.185451 0
M  V30 247 C 25.5606 -1.43527 -0.912905 0
M  V30 248 O 26.7456 -1.72388 -0.894201 0
M  V30 249 C 23.8756 -3.25219 -1.21859 0
M  V30 250 C 22.8296 -4.23661 -0.607864 0
M  V30 251 C 22.1556 -5.05413 -1.74533 0
M  V30 252 C 23.4556 -5.20481 0.435582 0
M  V30 253 H 25.1496 -2.94749 0.525684 0
M  V30 254 H 22.6956 -1.41738 0.254251 0
M  V30 255 H 24.6486 -3.8365 -1.7433 0
M  V30 256 H 23.3726 -2.61279 -1.95961 0
M  V30 257 H 22.0316 -3.66451 -0.104489 0
M  V30 258 H 21.6796 -4.3788 -2.47529 0
M  V30 259 H 21.3796 -5.72059 -1.34249 0
M  V30 260 H 22.9036 -5.66701 -2.27338 0
M  V30 261 H 24.3176 -5.733 -0.00290157 0
M  V30 262 H 22.7146 -5.95305 0.757067 0
M  V30 263 H 23.7846 -4.66217 1.33303 0
M  V30 264 N 25.1277 -0.289203 -1.54924 0
M  V30 265 C 26.0777 0.606939 -2.19773 0
M  V30 266 C 27.0617 1.10783 -1.16687 0
M  V30 267 O 28.2537 1.05057 -1.4245 0
M  V30 268 C 25.3827 1.78398 -2.93307 0
M  V30 269 C 24.4687 1.29961 -4.03697 0
M  V30 270 N 24.8597 0.532377 -5.0299 0
M  V30 271 C 23.1577 1.58136 -4.17024 0
M  V30 272 C 23.8587 0.275912 -5.81045 0
M  V30 273 N 22.8347 0.852365 -5.36876 0
M  V30 274 H 26.6367 0.0130779 -2.93897 0
M  V30 275 H 24.1507 -0.09341 -1.62131 0
M  V30 276 H 26.1477 2.43741 -3.38225 0
M  V30 277 H 24.8077 2.38166 -2.20697 0
M  V30 278 H 25.8187 0.17838 -5.17593 0
M  V30 279 H 22.4957 2.18738 -3.55612 0
M  V30 280 H 23.8857 -0.339502 -6.71042 0
M  V30 281 N 26.6058 1.57591 -0.0167156 0
M  V30 282 C 27.8358 1.95292 0.674149 0
M  V30 283 C 28.2438 0.891097 1.66901 0
M  V30 284 O 27.5868 -0.136908 1.83189 0
M  V30 285 C 27.6488 3.29072 1.44747 0
M  V30 286 C 27.3128 4.52879 0.612331 0
M  V30 287 C 28.3098 5.1979 -0.107126 0
M  V30 288 C 25.9948 4.99242 0.553381 0
M  V30 289 C 27.9888 6.31375 -0.874339 0
M  V30 290 C 25.6758 6.10713 -0.217546 0
M  V30 291 C 26.6738 6.76637 -0.930123 0
M  V30 292 O 26.3618 7.85969 -1.68844 0
M  V30 293 H 26.0938 0.648275 0.191615 0
M  V30 294 H 28.6478 2.05284 -0.0690148 0
M  V30 295 H 26.8778 3.15535 2.2355 0
M  V30 296 H 28.5668 3.51764 2.02526 0
M  V30 297 H 29.3328 4.84948 -0.0708392 0
M  V30 298 H 25.2118 4.47744 1.09757 0
M  V30 299 H 28.7558 6.82764 -1.43106 0
M  V30 300 H 24.6528 6.44994 -0.255593 0
M  V30 301 H 25.4208 8.02571 -1.6069 0
M  V30 302 N 28.0839 -0.256276 1.55502 0
M  V30 303 C 29.0319 -1.33694 1.90338 0
M  V30 304 C 30.0259 -1.50299 0.781441 0
M  V30 305 O 31.2319 -1.51885 0.965966 0
M  V30 306 H 27.6069 -0.447483 0.60437 0
M  V30 307 H 29.5779 -1.01574 2.8058 0
M  V30 308 C 28.3269 -2.68724 2.20642 0
M  V30 309 H 27.6499 -2.56743 3.06469 0
M  V30 310 H 29.0899 -3.43237 2.48926 0
M  V30 311 C 27.5489 -3.21101 1.01959 0
M  V30 312 O 28.0789 -4.0084 0.262762 0
M  V30 313 N 26.2849 -2.79003 0.812746 0
M  V30 314 H 25.8319 -2.14271 1.42989 0
M  V30 315 H 25.7899 -3.14393 0.0203076 0
M  V30 316 N 29.562 -1.4872 -0.521534 0
M  V30 317 C 30.792 -1.6061 -1.29954 0
M  V30 318 C 31.2 -0.268728 -1.87282 0
M  V30 319 O 30.543 0.753221 -1.67548 0
M  V30 320 C 30.605 -2.60013 -2.48261 0
M  V30 321 C 30.269 -4.04874 -2.11957 0
M  V30 322 C 31.266 -4.92304 -1.67132 0
M  V30 323 C 28.951 -4.5047 -2.22221 0
M  V30 324 C 30.945 -6.2336 -1.33047 0
M  V30 325 C 28.632 -5.81544 -1.87748 0
M  V30 326 C 29.63 -6.67812 -1.43234 0
M  V30 327 O 29.318 -7.96446 -1.09217 0
M  V30 328 H 29.05 -0.544116 -0.401141 0
M  V30 329 H 31.604 -1.95339 -0.634958 0
M  V30 330 H 29.834 -2.20422 -3.17728 0
M  V30 331 H 31.523 -2.61648 -3.10315 0
M  V30 332 H 32.289 -4.58312 -1.58665 0
M  V30 333 H 28.168 -3.83504 -2.55823 0
M  V30 334 H 31.712 -6.90649 -0.982299 0
M  V30 335 H 27.609 -6.15069 -1.95858 0
M  V30 336 H 28.377 -8.09275 -1.22542 0
M  V30 337 N 31.0401 0.771051 -1.3745 0
M  V30 338 C 32.2681 1.56015 -1.35893 0
M  V30 339 C 32.6831 1.88718 0.0555523 0
M  V30 340 O 32.0401 1.51502 1.01752 0
M  V30 341 C 32.0911 2.87001 -2.19801 0
M  V30 342 O 31.8121 2.557 -3.55738 0
M  V30 343 C 33.3131 3.81228 -2.26231 0
M  V30 344 H 30.5331 0.483317 -0.465453 0
M  V30 345 H 33.0771 0.955611 -1.80799 0
M  V30 346 H 31.2321 3.43877 -1.78402 0
M  V30 347 H 31.6461 3.39584 -3.99729 0
M  V30 348 H 33.1201 4.70139 -2.89263 0
M  V30 349 H 33.5971 4.20409 -1.27093 0
M  V30 350 H 34.2031 3.30281 -2.67945 0
M  V30 351 N 32.5182 1.22032 0.997298 0
M  V30 352 C 33.7662 1.04016 1.73278 0
M  V30 353 C 34.0872 -0.426255 1.90284 0
M  V30 354 O 33.3572 -1.30694 1.45931 0
M  V30 355 H 31.9372 0.381897 0.642 0
M  V30 356 H 34.5992 1.5347 1.20137 0
M  V30 357 H 33.6952 1.51441 2.72896 0
M  V30 358 N 33.9963 -1.19345 1.0293 0
M  V30 359 C 34.9433 -2.2258 0.610464 0
M  V30 360 C 35.9133 -1.6179 -0.375946 0
M  V30 361 O 37.0983 -1.88844 -0.272511 0
M  V30 362 C 34.2383 -3.45085 -0.0321473 0
M  V30 363 C 33.3513 -4.20258 1.00035 0
M  V30 364 C 32.4863 -5.3019 0.32746 0
M  V30 365 C 31.5253 -5.97121 1.34584 0
M  V30 366 N 30.6623 -6.98615 0.698726 0
M  V30 367 H 35.5023 -2.57764 1.49538 0
M  V30 368 H 33.0393 -1.26644 0.748311 0
M  V30 369 H 34.9973 -4.15061 -0.421966 0
M  V30 370 H 33.6273 -3.10555 -0.88064 0
M  V30 371 H 32.6793 -3.49223 1.50823 0
M  V30 372 H 33.9913 -4.66175 1.77433 0
M  V30 373 H 33.1453 -6.06587 -0.11718 0
M  V30 374 H 31.8843 -4.85345 -0.478713 0
M  V30 375 H 30.8893 -5.19474 1.80074 0
M  V30 376 H 32.1143 -6.4405 2.15352 0
M  V30 377 H 30.0603 -6.55942 -0.0873471 0
M  V30 378 H 29.9773 -7.42724 1.41058 0
M  V30 379 H 31.2453 -7.79004 0.278102 0
M  V30 380 N 35.4744 -0.807222 -1.35358 0
M  V30 381 C 36.4044 -0.232509 -2.3234 0
M  V30 382 C 37.3854 0.642386 -1.57504 0
M  V30 383 O 38.5704 0.572526 -1.85569 0
M  V30 384 C 35.7004 0.619238 -3.41735 0
M  V30 385 C 34.6544 -0.157215 -4.27711 0
M  V30 386 C 33.9804 0.816273 -5.28433 0
M  V30 387 C 35.2804 -1.35656 -5.04376 0
M  V30 388 H 36.9744 -1.04276 -2.80654 0
M  V30 389 H 34.5204 -0.50288 -1.34934 0
M  V30 390 H 36.4734 1.03137 -4.08584 0
M  V30 391 H 35.1974 1.46239 -2.92031 0
M  V30 392 H 33.8564 -0.550525 -3.62443 0
M  V30 393 H 33.5044 1.65494 -4.74996 0
M  V30 394 H 33.2044 0.301067 -5.86828 0
M  V30 395 H 34.7284 1.22659 -5.98153 0
M  V30 396 H 36.1424 -1.01927 -5.64166 0
M  V30 397 H 34.5394 -1.8063 -5.7227 0
M  V30 398 H 35.6094 -2.14288 -4.34981 0
M  V30 399 N 36.9525 1.47285 -0.560781 0
M  V30 400 C 38.3685 1.58065 -0.22081 0
M  V30 401 C 38.5685 1.55892 1.27671 0
M  V30 402 O 37.6245 1.46422 2.0571 0
M  V30 403 C 38.9375 2.88418 -0.850625 0
M  V30 404 C 40.4855 3.02009 -0.822184 0
M  V30 405 C 40.9605 4.35066 -1.43113 0
M  V30 406 N 42.4515 4.41711 -1.39448 0
M  V30 407 C 43.1865 5.43237 -1.83525 0
M  V30 408 N 42.6825 6.51555 -2.35474 0
M  V30 409 N 44.4755 5.34304 -1.74574 0
M  V30 410 H 36.6265 1.46941 -1.53369 0
M  V30 411 H 38.8895 0.699558 -0.639783 0
M  V30 412 H 38.5955 2.95755 -1.9032 0
M  V30 413 H 38.4695 3.75612 -0.345773 0
M  V30 414 H 40.8565 2.94266 0.221714 0
M  V30 415 H 40.9375 2.16347 -1.36483 0
M  V30 416 H 40.5815 4.43565 -2.47412 0
M  V30 417 H 40.5115 5.19465 -0.863899 0
M  V30 418 H 43.0025 3.64027 -1.01452 0
M  V30 419 H 43.3155 7.25203 -2.67021 0
M  V30 420 H 41.6605 6.52435 -2.39487 0
M  V30 421 H 44.8515 4.48581 -1.33763 0
M  V30 422 H 45.0245 6.13288 -2.09242 0
M  V30 423 N 38.4306 0.297415 1.54768 0
M  V30 424 C 39.6786 -0.312295 1.99673 0
M  V30 425 C 39.9996 -1.54686 1.18732 0
M  V30 426 O 39.2696 -1.93854 0.282382 0
M  V30 427 H 37.8496 -0.118381 0.73756 0
M  V30 428 H 40.5116 0.407915 1.90583 0
M  V30 429 H 39.6076 -0.586813 3.06534 0
M  V30 430 N 39.9087 -1.5758 0.0250728 0
M  V30 431 C 40.8717 -2.08896 -0.943139 0
M  V30 432 C 41.8717 -1.00321 -1.25668 0
M  V30 433 O 43.0617 -1.26495 -1.19769 0
M  V30 434 C 40.1937 -2.55143 -2.26086 0
M  V30 435 H 41.3867 -2.95723 -0.498775 0
M  V30 436 H 38.9397 -1.54703 -0.222888 0
M  V30 437 H 39.6747 -1.71633 -2.75159 0
M  V30 438 H 39.4597 -3.34461 -2.04641 0
M  V30 439 H 40.9497 -2.95083 -2.95492 0
M  V30 440 N 41.3868 0.248026 -1.55636 0
M  V30 441 C 42.8028 0.596483 -1.48035 0
M  V30 442 C 43.0028 1.88386 -0.715039 0
M  V30 443 O 42.0588 2.51319 -0.243944 0
M  V30 444 C 43.3718 0.700258 -2.92433 0
M  V30 445 C 44.9198 0.792659 -3.02797 0
M  V30 446 C 45.3948 0.928005 -4.485 0
M  V30 447 N 46.8858 0.992903 -4.52433 0
M  V30 448 C 47.6208 1.11687 -5.62418 0
M  V30 449 N 47.1168 1.20645 -6.82214 0
M  V30 450 N 48.9098 1.14994 -5.50212 0
M  V30 451 H 41.0608 -0.597109 -2.03834 0
M  V30 452 H 43.3238 -0.205925 -0.925364 0
M  V30 453 H 43.0298 -0.175658 -3.51261 0
M  V30 454 H 42.9038 1.57255 -3.42857 0
M  V30 455 H 45.2908 1.65903 -2.4405 0
M  V30 456 H 45.3718 -0.104762 -2.55585 0
M  V30 457 H 45.0158 0.0661971 -5.07857 0
M  V30 458 H 44.9458 1.84045 -4.93391 0
M  V30 459 H 47.4368 0.935064 -3.66149 0
M  V30 460 H 47.7498 1.30008 -7.61786 0
M  V30 461 H 46.0948 1.17605 -6.84977 0
M  V30 462 H 49.2858 1.07643 -4.55555 0
M  V30 463 H 49.4588 1.24311 -6.35965 0
M  V30 464 N 42.8649 1.48995 0.513639 0
M  V30 465 C 44.0949 1.61297 1.291 0
M  V30 466 C 44.5029 0.278656 1.87137 0
M  V30 467 O 43.8459 -0.744325 1.67945 0
M  V30 468 C 43.9079 2.61326 2.46879 0
M  V30 469 C 43.5719 4.05993 2.09807 0
M  V30 470 C 44.5689 4.93183 1.64519 0
M  V30 471 C 42.2539 4.51642 2.19829 0
M  V30 472 C 44.2479 6.24056 1.2974 0
M  V30 473 C 41.9349 5.82532 1.84662 0
M  V30 474 C 42.9329 6.68562 1.3969 0
M  V30 475 O 42.6209 7.97014 1.04992 0
M  V30 476 H 42.3529 0.546236 0.39825 0
M  V30 477 H 44.9069 1.95673 0.62459 0
M  V30 478 H 43.1369 2.22104 3.16554 0
M  V30 479 H 44.8259 2.6329 3.08923 0
M  V30 480 H 45.5919 4.59147 1.56233 0
M  V30 481 H 41.4709 3.84855 2.53786 0
M  V30 482 H 45.0149 6.91161 0.945659 0
M  V30 483 H 40.9119 6.16099 1.92594 0
M  V30 484 H 41.6799 8.09913 1.18249 0
M  V30 485 N 44.343 -0.763751 1.37857 0
M  V30 486 C 45.275 -1.88664 1.30148 0
M  V30 487 C 46.288 -1.61365 0.215685 0
M  V30 488 O 47.477 -1.72134 0.472459 0
M  V30 489 C 44.577 -3.24075 0.991396 0
M  V30 490 C 43.75 -3.78958 2.18426 0
M  V30 491 C 42.809 -4.92862 1.8432 0
M  V30 492 O 41.835 -5.08027 2.56704 0
M  V30 493 N 43.037 -5.75071 0.792081 0
M  V30 494 H 45.802 -1.95791 2.26905 0
M  V30 495 H 43.363 -0.943226 1.31586 0
M  V30 496 H 45.355 -3.97804 0.743935 0
M  V30 497 H 43.925 -3.12399 0.112122 0
M  V30 498 H 43.145 -2.96913 2.59299 0
M  V30 499 H 44.433 -4.12357 2.98058 0
M  V30 500 H 43.831 -5.65375 0.191595 0
M  V30 501 H 42.388 -6.48991 0.60449 0
M  V30 502 N 45.8211 -1.22559 -0.990812 0
M  V30 503 C 47.2321 -1.04791 -1.54518 0
M  V30 504 C 47.5831 0.387998 -1.92325 0
M  V30 505 O 46.7081 1.27328 -1.74976 0
M  V30 506 C 47.3031 -1.896 -2.80779 0
M  V30 507 C 45.8621 -1.76124 -3.32652 0
M  V30 508 C 45.0091 -1.8594 -2.05722 0
M  V30 509 H 47.9601 -1.36374 -0.811662 0
M  V30 510 H 47.9811 -1.41464 -3.53225 0
M  V30 511 H 47.4931 -2.94101 -2.53231 0
M  V30 512 H 45.5941 -0.743643 -3.65104 0
M  V30 513 H 45.7071 -2.58913 -4.03114 0
M  V30 514 H 44.0711 -1.29403 -2.19379 0
M  V30 515 H 44.8541 -2.91976 -1.80568 0
M  V30 516 N 47.2992 1.18797 -1.03562 0
M  V30 517 C 48.5472 1.88278 -0.734569 0
M  V30 518 C 48.8682 1.8043 0.739586 0
M  V30 519 O 48.1382 1.21925 1.53333 0
M  V30 520 H 46.7182 0.696991 -0.268725 0
M  V30 521 H 49.3802 1.44192 -1.31129 0
M  V30 522 H 48.4762 2.94443 -1.03489 0
M  V30 523 N 48.7773 0.814389 1.34928 0
M  V30 524 C 49.7403 0.235759 2.27984 0
M  V30 525 C 50.7403 -0.581412 1.49921 0
M  V30 526 O 51.9303 -0.398758 1.69575 0
M  V30 527 C 49.0623 -0.670433 3.34242 0
M  V30 528 H 50.2553 1.05659 2.80671 0
M  V30 529 H 47.8083 0.585614 1.44915 0
M  V30 530 H 48.5433 -1.51466 2.86755 0
M  V30 531 H 48.3283 -0.0860822 3.92005 0
M  V30 532 H 49.8183 -1.06935 4.03676 0
M  V30 533 N 50.2554 -1.46986 0.568584 0
M  V30 534 C 51.5034 -2.02041 0.0487022 0
M  V30 535 C 51.8244 -1.44408 -1.31039 0
M  V30 536 O 51.0944 -0.623477 -1.85714 0
M  V30 537 H 49.6744 -0.746849 0.015014 0
M  V30 538 H 52.3364 -1.80257 0.741168 0
M  V30 539 H 51.4324 -3.12085 -0.0308961 0
M  V30 540 N 51.7335 -0.305618 -1.54608 0
M  V30 541 C 52.6635 0.561482 -2.26649 0
M  V30 542 C 53.6445 1.13415 -1.26772 0
M  V30 543 O 54.8295 1.16262 -1.55553 0
M  V30 544 C 51.9595 1.73122 -3.01075 0
M  V30 545 C 50.9135 1.2887 -4.08138 0
M  V30 546 C 50.2395 2.54396 -4.70305 0
M  V30 547 C 51.5395 0.416578 -5.20636 0
M  V30 548 H 53.2335 -0.0393902 -2.99374 0
M  V30 549 H 50.7795 -0.020385 -1.43986 0
M  V30 550 H 52.7325 2.34396 -3.50195 0
M  V30 551 H 51.4565 2.3584 -2.25936 0
M  V30 552 H 50.1155 0.698991 -3.59875 0
M  V30 553 H 49.7635 3.15439 -3.918 0
M  V30 554 H 49.4635 2.25486 -5.42614 0
M  V30 555 H 50.9875 3.16464 -5.2219 0
M  V30 556 H 52.4015 0.935116 -5.65622 0
M  V30 557 H 50.7985 0.221046 -5.99693 0
M  V30 558 H 51.8685 -0.557162 -4.81688 0
M  V30 559 N 53.2116 1.57565 -0.0334293 0
M  V30 560 C 54.6276 1.56297 0.322997 0
M  V30 561 C 54.8276 1.03945 1.7262 0
M  V30 562 O 53.8836 0.688109 2.42943 0
M  V30 563 C 55.1966 3.00232 0.167664 0
M  V30 564 C 56.7446 3.12078 0.240107 0
M  V30 565 C 57.2196 4.57859 0.113513 0
M  V30 566 N 58.7106 4.62887 0.170359 0
M  V30 567 C 59.4456 5.73319 0.0962517 0
M  V30 568 N 58.9416 6.92794 -0.0291881 0
M  V30 569 N 60.7346 5.61898 0.150551 0
M  V30 570 H 52.8856 1.89923 -0.950956 0
M  V30 571 H 55.1486 0.873824 -0.367608 0
M  V30 572 H 54.8546 3.42501 -0.799102 0
M  V30 573 H 54.7286 3.654 0.936083 0
M  V30 574 H 57.1156 2.69718 1.19733 0
M  V30 575 H 57.1966 2.49623 -0.558763 0
M  V30 576 H 56.8406 5.009 -0.840314 0
M  V30 577 H 56.7706 5.18299 0.931302 0
M  V30 578 H 59.2616 3.76954 0.26728 0
M  V30 579 H 59.5746 7.7276 -0.0789252 0
M  V30 580 H 57.9196 6.94971 -0.0640299 0
M  V30 581 H 61.1106 4.67448 0.246981 0
M  V30 582 H 61.2836 6.47938 0.0893365 0
M  V30 583 N 54.6897 -0.239769 1.55765 0
M  V30 584 C 55.6527 -1.28038 1.90103 0
M  V30 585 C 56.6527 -1.40723 0.778055 0
M  V30 586 O 57.8427 -1.39301 1.04599 0
M  V30 587 C 54.9747 -2.65702 2.13577 0
M  V30 588 H 56.1677 -0.988048 2.83157 0
M  V30 589 H 53.7207 -0.479382 1.48767 0
M  V30 590 H 54.4557 -3.00063 1.23015 0
M  V30 591 H 54.2407 -2.57875 2.95369 0
M  V30 592 H 55.7307 -3.40828 2.41301 0
M  V30 593 N 56.1678 -1.49265 -0.50573 0
M  V30 594 C 57.4448 -1.49012 -1.26707 0
M  V30 595 C 57.8248 -0.215205 -2.1 0
M  V30 596 O 57.1728 0.802547 -2.13943 0
M  V30 597 C 57.3828 -2.7663 -2.12783 0
M  V30 598 C 58.7308 -3.25932 -2.72127 0
M  V30 599 O 59.7548 -2.77715 -2.23054 0
M  V30 600 O 58.6138 -4.09897 -3.61451 0
M  V30 601 H 55.7078 -0.596197 -0.57313 0
M  V30 602 H 58.2538 -1.61524 -0.52039 0
M  V30 603 H 57.0258 -3.60916 -1.5118 0
M  V30 604 H 56.6488 -2.66956 -2.94653 0
M  V30 605 N 57.6459 0.756429 -1.3826 0
M  V30 606 C 58.6089 1.85176 -1.35065 0
M  V30 607 C 59.6089 1.58818 -0.251703 0
M  V30 608 O 60.7989 1.66615 -0.508433 0
M  V30 609 C 57.9309 3.22596 -1.10201 0
M  V30 610 H 59.1239 1.89417 -2.3251 0
M  V30 611 H 56.6769 0.95783 -1.23512 0
M  V30 612 H 57.4119 3.24025 -0.133504 0
M  V30 613 H 57.1969 3.43122 -1.89762 0
M  V30 614 H 58.6869 4.02673 -1.10654 0
M  V30 615 N 59.124 1.23083 0.984299 0
M  V30 616 C 60.37 1.06214 1.72761 0
M  V30 617 C 60.703 -0.400584 1.90024 0
M  V30 618 O 59.978 -1.29672 1.44967 0
M  V30 619 C 60.261 1.78375 3.12817 0
M  V30 620 C 60.114 3.32296 3.03149 0
M  V30 621 C 61.433 1.54309 4.12161 0
M  V30 622 H 58.552 0.387251 0.627061 0
M  V30 623 H 61.194 1.51536 1.14616 0
M  V30 624 H 59.344 1.39848 3.62457 0
M  V30 625 H 61.016 3.8032 2.61064 0
M  V30 626 H 59.259 3.6153 2.39747 0
M  V30 627 H 59.93 3.77972 4.02295 0
M  V30 628 H 62.406 1.87791 3.71314 0
M  V30 629 H 61.282 2.07281 5.08258 0
M  V30 630 H 61.543 0.477572 4.39513 0
M  V30 631 N 60.6021 -1.18246 1.0419 0
M  V30 632 C 61.8481 -1.88536 0.747122 0
M  V30 633 C 62.1811 -1.80223 -0.723409 0
M  V30 634 O 61.4561 -1.20337 -1.52804 0
M  V30 635 C 61.7391 -3.38968 1.21544 0
M  V30 636 C 61.5921 -3.56084 2.74816 0
M  V30 637 C 62.9111 -4.32648 0.806482 0
M  V30 638 H 60.0301 -0.684619 0.272883 0
M  V30 639 H 62.6721 -1.39113 1.29413 0
M  V30 640 H 60.8221 -3.8119 0.750081 0
M  V30 641 H 62.4941 -3.22946 3.29399 0
M  V30 642 H 60.7371 -2.98699 3.14582 0
M  V30 643 H 61.4081 -4.61639 3.02644 0
M  V30 644 H 63.8841 -3.98211 1.20695 0
M  V30 645 H 62.7601 -5.36462 1.1619 0
M  V30 646 H 63.0211 -4.41146 -0.29029 0
M  V30 647 N 62.0802 -0.821533 -1.34494 0
M  V30 648 C 63.3202 -0.414785 -2.00147 0
M  V30 649 C 63.6842 1.00299 -1.6372 0
M  V30 650 O 64.8852 1.51255 -2.22206 0
M  V30 651 C 63.1562 -0.609403 -3.52166 0
M  V30 652 S 64.7152 -0.295297 -4.37805 0
M  V30 653 H 61.5332 -0.15679 -0.693497 0
M  V30 654 H 64.1352 -1.06705 -1.63812 0
M  V30 655 H 62.8392 -1.64096 -3.76166 0
M  V30 656 H 62.3702 0.0576414 -3.93358 0
M  V30 657 H 64.3852 0.891531 -4.88125 0
M  V30 658 N 63.5583 1.46682 -0.576371 0
M  V30 659 C 64.4883 2.33028 0.148397 0
M  V30 660 C 65.4693 1.44961 0.889956 0
M  V30 661 O 66.6543 1.73789 0.866662 0
M  V30 662 C 63.7843 3.27117 1.1667 0
M  V30 663 C 62.7383 4.24575 0.540386 0
M  V30 664 C 62.0643 5.08126 1.6647 0
M  V30 665 C 63.3643 5.19722 -0.518331 0
M  V30 666 H 65.0583 2.93875 -0.572509 0
M  V30 667 H 62.6043 1.41315 -0.276768 0
M  V30 668 H 64.5573 3.86374 1.68204 0
M  V30 669 H 63.2813 2.64364 1.9178 0
M  V30 670 H 61.9403 3.66571 0.0461769 0
M  V30 671 H 61.5883 4.41762 2.40531 0
M  V30 672 H 61.2883 5.74122 1.25131 0
M  V30 673 H 62.8123 5.70246 2.18293 0
M  V30 674 H 64.2263 5.73232 -0.0883058 0
M  V30 675 H 62.6233 5.94026 -0.851679 0
M  V30 676 H 63.6933 4.64037 -1.40703 0
M  V30 677 N 65.0364 0.313813 1.54444 0
M  V30 678 C 65.9994 -0.54379 2.22656 0
M  V30 679 C 66.9994 -1.05124 1.21678 0
M  V30 680 O 68.1894 -0.945225 1.46325 0
M  V30 681 C 65.3214 -1.75427 2.92298 0
M  V30 682 H 66.5144 0.0523599 2.99854 0
M  V30 683 H 64.0674 0.0647834 1.56166 0
M  V30 684 H 64.8024 -2.38991 2.19211 0
M  V30 685 H 64.5874 -1.39791 3.66334 0
M  V30 686 H 66.0774 -2.36325 3.44297 0
M  V30 687 N 66.5145 -1.57545 0.0417849 0
M  V30 688 C 67.7605 -1.92601 -0.635021 0
M  V30 689 C 68.0935 -0.919627 -1.71045 0
M  V30 690 O 67.3685 0.0557892 -1.9442 0
M  V30 691 C 67.6515 -3.38085 -1.23979 0
M  V30 692 C 67.5045 -4.49467 -0.173057 0
M  V30 693 C 68.8235 -3.83776 -2.15416 0
M  V30 694 H 65.9425 -0.700397 -0.229374 0
M  V30 695 H 68.5845 -1.89728 0.101633 0
M  V30 696 H 66.7345 -3.40664 -1.86762 0
M  V30 697 H 68.4065 -4.59018 0.458312 0
M  V30 698 H 66.6495 -4.30909 0.499996 0
M  V30 699 H 67.3205 -5.48323 -0.636054 0
M  V30 700 H 69.7965 -3.83013 -1.62605 0
M  V30 701 H 68.6725 -4.8624 -2.54679 0
M  V30 702 H 68.9335 -3.19998 -3.05047 0
M  V30 703 N 67.9926 0.231505 -1.5589 0
M  V30 704 C 69.2326 0.964533 -1.80211 0
M  V30 705 C 69.5966 1.81926 -0.613744 0
M  V30 706 O 70.7976 2.58526 -0.736045 0
M  V30 707 C 69.0686 1.78956 -3.09369 0
M  V30 708 S 70.6276 2.57959 -3.54969 0
M  V30 709 H 67.4456 0.324173 -0.632798 0
M  V30 710 H 70.0476 0.230985 -1.94131 0
M  V30 711 H 68.7516 1.15161 -3.93911 0
M  V30 712 H 68.2826 2.56559 -2.9823 0
M  V30 713 H 70.2976 3.81309 -3.17519 0
M  V30 714 N 69.4707 1.49531 0.497807 0
M  V30 715 C 70.4337 1.65916 1.58128 0
M  V30 716 C 71.4337 0.530825 1.51786 0
M  V30 717 O 72.6237 0.797342 1.54881 0
M  V30 718 C 69.7557 1.65951 2.9778 0
M  V30 719 H 70.9487 2.62556 1.44929 0
M  V30 720 H 68.5017 1.38611 0.722275 0
M  V30 721 H 69.2367 0.709065 3.16453 0
M  V30 722 H 69.0217 2.47897 3.03792 0
M  V30 723 H 70.5117 1.80673 3.76493 0
M  V30 724 N 70.9488 -0.749086 1.3866 0
M  V30 725 C 72.1958 -1.50833 1.35114 0
M  V30 726 C 72.5238 -1.94415 -0.0574049 0
M  V30 727 O 71.7788 -1.66065 -1.03541 0
M  V30 728 C 72.0778 -2.7712 2.25697 0
M  V30 729 C 71.7438 -2.52477 3.73585 0
M  V30 730 C 70.4058 -2.45466 4.13884 0
M  V30 731 C 72.7578 -2.31066 4.67181 0
M  V30 732 C 70.0858 -2.15064 5.45861 0
M  V30 733 C 72.4378 -2.02183 5.9942 0
M  V30 734 C 71.1018 -1.93631 6.38798 0
M  V30 735 H 70.3718 -0.551936 0.494416 0
M  V30 736 H 73.0188 -0.860979 1.71054 0
M  V30 737 H 71.3238 -3.46528 1.82827 0
M  V30 738 H 73.0208 -3.35096 2.20254 0
M  V30 739 H 69.6108 -2.58807 3.41638 0
M  V30 740 H 73.7948 -2.35459 4.3689 0
M  V30 741 H 69.0508 -2.06954 5.75308 0
M  V30 742 H 73.2248 -1.8462 6.71482 0
M  V30 743 H 70.8518 -1.69839 7.40985 0
M  V30 744 N 72.4269 -1.23603 -0.977757 0
M  V30 745 C 73.6759 -1.06377 -1.71368 0
M  V30 746 C 73.9889 0.399062 -1.91486 0
M  V30 747 O 75.1949 0.691312 -2.62551 0
M  V30 748 C 73.6509 -1.85512 -3.08404 0
M  V30 749 C 73.2589 -3.36141 -2.96164 0
M  V30 750 C 75.0029 -1.76783 -3.85938 0
M  V30 751 C 72.9099 -4.07659 -4.28449 0
M  V30 752 H 71.8399 -0.394452 -0.642591 0
M  V30 753 H 74.4909 -1.47594 -1.09034 0
M  V30 754 H 72.8729 -1.37103 -3.71509 0
M  V30 755 H 74.0469 -3.92056 -2.42133 0
M  V30 756 H 72.3619 -3.45712 -2.32104 0
M  V30 757 H 74.9589 -2.27526 -4.83876 0
M  V30 758 H 75.3019 -0.731116 -4.0983 0
M  V30 759 H 75.8349 -2.22818 -3.2954 0
M  V30 760 H 72.5739 -5.11648 -4.09752 0
M  V30 761 H 72.0939 -3.5653 -4.82334 0
M  V30 762 H 73.7729 -4.141 -4.97122 0
M  V30 763 N 73.905 1.17692 -1.04816 0
M  V30 764 C 75.151 1.88137 -0.75711 0
M  V30 765 C 75.484 1.80604 0.713841 0
M  V30 766 O 74.759 1.21146 1.52164 0
M  V30 767 C 75.042 3.38318 -1.2334 0
M  V30 768 C 74.895 3.54622 -2.76701 0
M  V30 769 C 76.214 4.32214 -0.829415 0
M  V30 770 H 73.333 0.683163 -0.27651 0
M  V30 771 H 75.975 1.38424 -1.30149 0
M  V30 772 H 74.125 3.80787 -0.770286 0
M  V30 773 H 75.797 3.21194 -3.31107 0
M  V30 774 H 74.04 2.97026 -3.16161 0
M  V30 775 H 74.711 4.60028 -3.05088 0
M  V30 776 H 77.187 3.97565 -1.22805 0
M  V30 777 H 76.063 5.35838 -1.19033 0
M  V30 778 H 76.324 4.41294 0.266891 0
M  V30 779 N 75.3831 0.828654 1.34056 0
M  V30 780 C 76.3131 0.269443 2.3194 0
M  V30 781 C 77.2941 -0.617247 1.58506 0
M  V30 782 O 78.4791 -0.542931 1.86456 0
M  V30 783 C 75.6091 -0.564793 3.42677 0
M  V30 784 C 74.5631 0.225241 4.27407 0
M  V30 785 C 73.8891 -0.7321 5.29664 0
M  V30 786 C 75.1891 1.43663 5.02154 0
M  V30 787 H 76.8831 1.08728 2.7896 0
M  V30 788 H 74.4291 0.524283 1.34117 0
M  V30 789 H 76.3821 -0.966233 4.10173 0
M  V30 790 H 75.1061 -1.41574 2.9432 0
M  V30 791 H 73.7651 0.608117 3.61521 0
M  V30 792 H 73.4131 -1.57916 4.77568 0
M  V30 793 H 73.1131 -0.20767 5.87233 0
M  V30 794 H 74.6371 -1.13128 6.00029 0
M  V30 795 H 76.0511 1.1089 5.62473 0
M  V30 796 H 74.4481 1.89711 5.69324 0
M  V30 797 H 75.5181 2.21181 4.31517 0
M  V30 798 N 76.8612 -1.46375 0.584142 0
M  V30 799 C 77.7712 -2.34115 -0.150728 0
M  V30 800 C 78.7872 -1.49838 -0.884567 0
M  V30 801 O 79.9632 -1.82704 -0.847429 0
M  V30 802 C 77.0282 -3.2705 -1.15062 0
M  V30 803 C 76.0892 -4.27228 -0.421293 0
M  V30 804 C 75.3222 -5.15722 -1.37355 0
M  V30 805 O 75.5452 -5.07176 -2.61014 0
M  V30 806 O 74.4792 -5.95383 -0.883355 0
M  V30 807 H 78.3052 -2.98309 0.569708 0
M  V30 808 H 75.8902 -1.45373 0.344535 0
M  V30 809 H 77.7722 -3.84381 -1.72712 0
M  V30 810 H 76.4472 -2.65451 -1.8525 0
M  V30 811 H 75.3542 -3.7358 0.197085 0
M  V30 812 H 76.6872 -4.91616 0.239641 0
M  V30 813 N 78.3393 -0.321999 -1.54275 0
M  V30 814 C 79.2873 0.560206 -2.25753 0
M  V30 815 C 80.2813 1.11984 -1.27106 0
M  V30 816 O 81.4873 1.06806 -1.44888 0
M  V30 817 H 77.8623 0.199304 -0.725108 0
M  V30 818 H 79.8333 -0.0649365 -2.98329 0
M  V30 819 C 78.5823 1.71023 -3.02731 0
M  V30 820 H 77.9053 1.28885 -3.78456 0
M  V30 821 H 79.3453 2.30314 -3.55993 0
M  V30 822 C 77.8043 2.62692 -2.10938 0
M  V30 823 O 78.3343 3.64364 -1.6912 0
M  V30 824 N 76.5403 2.30891 -1.76459 0
M  V30 825 H 76.0873 1.48253 -2.10663 0
M  V30 826 H 76.0453 2.92487 -1.1532 0
M  V30 827 N 79.8174 1.5752 -0.0501392 0
M  V30 828 C 80.7474 2.14502 0.922566 0
M  V30 829 C 81.7284 1.06642 1.3252 0
M  V30 830 O 82.9134 1.34577 1.4001 0
M  V30 831 C 80.0434 2.68916 2.19776 0
M  V30 832 C 78.9974 3.8175 1.93523 0
M  V30 833 C 78.3234 4.22677 3.27487 0
M  V30 834 C 79.6234 5.06932 1.25765 0
M  V30 835 H 81.3174 2.9603 0.447952 0
M  V30 836 H 78.8634 1.42401 0.214024 0
M  V30 837 H 80.8164 3.07419 2.88222 0
M  V30 838 H 79.5404 1.84578 2.69441 0
M  V30 839 H 78.1994 3.43718 1.27489 0
M  V30 840 H 77.8474 3.35291 3.74952 0
M  V30 841 H 77.5474 4.98725 3.1072 0
M  V30 842 H 79.0714 4.63779 3.97166 0
M  V30 843 H 80.4854 5.42888 1.84244 0
M  V30 844 H 78.8824 5.88116 1.19328 0
M  V30 845 H 79.9524 4.84337 0.233536 0
M  V30 846 N 81.2955 -0.223234 1.56011 0
M  V30 847 C 82.2585 -1.26014 1.9145 0
M  V30 848 C 83.2585 -1.3989 0.792937 0
M  V30 849 O 84.4485 -1.38184 1.0607 0
M  V30 850 C 81.5805 -2.63422 2.16383 0
M  V30 851 H 82.7735 -0.95796 2.84189 0
M  V30 852 H 80.3265 -0.463576 1.49267 0
M  V30 853 H 81.0615 -2.98741 1.2619 0
M  V30 854 H 80.8465 -2.54728 2.98088 0
M  V30 855 H 82.3365 -3.38249 2.44903 0
M  V30 856 N 82.7736 -1.49793 -0.48987 0
M  V30 857 C 84.0196 -1.60078 -1.24511 0
M  V30 858 C 84.3526 -0.291608 -1.91998 0
M  V30 859 O 83.6276 0.705647 -1.81248 0
M  V30 860 C 83.9106 -2.76791 -2.30345 0
M  V30 861 C 83.7636 -4.17535 -1.67286 0
M  V30 862 C 85.0826 -2.89111 -3.31817 0
M  V30 863 H 82.2016 -0.582645 -0.451324 0
M  V30 864 H 84.8436 -1.82117 -0.541612 0
M  V30 865 H 82.9936 -2.5813 -2.90346 0
M  V30 866 H 84.6656 -4.4774 -1.11026 0
M  V30 867 H 82.9086 -4.22665 -0.976577 0
M  V30 868 H 83.5796 -4.95094 -2.44103 0
M  V30 869 H 86.0556 -3.06133 -2.81819 0
M  V30 870 H 84.9316 -3.72433 -4.03219 0
M  V30 871 H 85.1926 -1.9893 -3.94815 0
M  V30 872 N 84.2517 0.741722 -1.39055 0
M  V30 873 C 85.1817 1.869 -1.39966 0
M  V30 874 C 86.1627 1.6804 -0.26392 0
M  V30 875 O 87.3477 1.88458 -0.468755 0
M  V30 876 C 84.4777 3.24572 -1.23574 0
M  V30 877 C 83.4317 3.58056 -2.34477 0
M  V30 878 C 82.7577 4.94593 -2.0318 0
M  V30 879 C 84.0577 3.61716 -3.76774 0
M  V30 880 H 85.7517 1.86395 -2.34302 0
M  V30 881 H 83.2977 0.895361 -1.1278 0
M  V30 882 H 85.2507 4.031 -1.22834 0
M  V30 883 H 83.9747 3.25587 -0.257045 0
M  V30 884 H 82.6337 2.81854 -2.34423 0
M  V30 885 H 82.2817 4.92181 -1.03765 0
M  V30 886 H 81.9817 5.17964 -2.77465 0
M  V30 887 H 83.5057 5.75486 -2.04079 0
M  V30 888 H 84.9197 4.30335 -3.78794 0
M  V30 889 H 83.3167 3.96603 -4.50362 0
M  V30 890 H 84.3867 2.61672 -4.08235 0
M  V30 891 N 85.7298 1.2412 0.971189 0
M  V30 892 C 86.6598 1.05508 2.08304 0
M  V30 893 C 87.6408 -0.0308864 1.70072 0
M  V30 894 O 88.8258 0.135521 1.93727 0
M  V30 895 C 85.9558 0.655365 3.4106 0
M  V30 896 C 84.9098 1.68971 3.93234 0
M  V30 897 C 84.2358 1.14516 5.22293 0
M  V30 898 C 85.5358 3.08487 4.21465 0
M  V30 899 H 87.2298 1.98507 2.24132 0
M  V30 900 H 84.7758 0.955821 1.07704 0
M  V30 901 H 86.7288 0.51217 4.18276 0
M  V30 902 H 85.4528 -0.31032 3.25122 0
M  V30 903 H 84.1118 1.82106 3.18171 0
M  V30 904 H 83.7598 0.170189 5.02712 0
M  V30 905 H 83.4598 1.83635 5.58168 0
M  V30 906 H 84.9838 1.01401 6.02121 0
M  V30 907 H 86.3978 2.98601 4.89398 0
M  V30 908 H 84.7948 3.74926 4.68562 0
M  V30 909 H 85.8648 3.56787 3.28376 0
M  V30 910 N 87.2079 -1.17134 1.05439 0
M  V30 911 C 88.4539 -1.87733 0.767077 0
M  V30 912 C 88.7869 -1.8098 -0.704253 0
M  V30 913 O 88.0619 -1.21951 -1.5152 0
M  V30 914 C 88.3449 -3.37659 1.25133 0
M  V30 915 C 88.1979 -3.53149 2.78578 0
M  V30 916 C 89.5169 -4.31768 0.852324 0
M  V30 917 H 86.6359 -0.681687 0.280129 0
M  V30 918 H 89.2779 -1.37732 1.30881 0
M  V30 919 H 87.4279 -3.80373 0.790469 0
M  V30 920 H 89.0999 -3.19434 3.32806 0
M  V30 921 H 87.3429 -2.95345 3.17732 0
M  V30 922 H 88.0139 -4.58403 3.07523 0
M  V30 923 H 90.4899 -3.96909 1.24911 0
M  V30 924 H 89.3659 -5.35199 1.21873 0
M  V30 925 H 89.6269 -4.41429 -0.243485 0
M  V30 926 N 88.686 -0.835752 -1.33615 0
M  V30 927 C 89.616 -0.281739 -2.31794 0
M  V30 928 C 90.597 0.608833 -1.58831 0
M  V30 929 O 91.782 0.533035 -1.86741 0
M  V30 930 C 88.912 0.546612 -3.42971 0
M  V30 931 C 87.866 -0.247904 -4.27281 0
M  V30 932 C 87.192 0.704001 -5.30045 0
M  V30 933 C 88.492 -1.46324 -5.01385 0
M  V30 934 H 90.186 -1.10206 -2.78379 0
M  V30 935 H 87.732 -0.531388 -1.33837 0
M  V30 936 H 89.685 0.944467 -4.1068 0
M  V30 937 H 88.409 1.40011 -2.95067 0
M  V30 938 H 87.068 -0.627281 -3.61194 0
M  V30 939 H 86.716 1.55381 -4.78399 0
M  V30 940 H 86.416 0.176524 -5.87335 0
M  V30 941 H 87.94 1.09944 -6.0062 0
M  V30 942 H 89.354 -1.13871 -5.61877 0
M  V30 943 H 87.751 -1.92728 -5.6831 0
M  V30 944 H 88.821 -2.23467 -4.30338 0
M  V30 945 N 90.1641 1.46063 -0.591896 0
M  V30 946 C 91.4121 2.01938 -0.0808391 0
M  V30 947 C 91.7331 1.46475 1.28725 0
M  V30 948 O 91.0031 0.652944 1.84698 0
M  V30 949 H 89.5831 0.746516 -0.0268938 0
M  V30 950 H 92.2451 1.79055 -0.769752 0
M  V30 951 H 91.3411 3.12094 -0.0187578 0
M  V30 952 N 91.6422 0.330177 1.54103 0
M  V30 953 C 93.0582 -0.0222371 1.59585 0
M  V30 954 C 93.2582 -1.49902 1.34654 0
M  V30 955 O 92.3142 -2.25592 1.13421 0
M  V30 956 C 93.6272 0.401932 2.98002 0
M  V30 957 C 95.1752 0.353145 3.11001 0
M  V30 958 C 95.6502 0.752576 4.51775 0
M  V30 959 N 97.1412 0.706239 4.57784 0
M  V30 960 C 97.8762 0.987417 5.64834 0
M  V30 961 N 97.3722 1.33607 6.79795 0
M  V30 962 N 99.1652 0.91254 5.54643 0
M  V30 963 H 91.3162 1.29228 1.68564 0
M  V30 964 H 93.5792 0.525906 0.78875 0
M  V30 965 H 93.2852 1.4311 3.21267 0
M  V30 966 H 93.1592 -0.229699 3.765 0
M  V30 967 H 95.5462 -0.666822 2.87467 0
M  V30 968 H 95.6272 1.0198 2.34593 0
M  V30 969 H 95.2712 1.77049 4.76042 0
M  V30 970 H 95.2012 0.0635409 5.26562 0
M  V30 971 H 97.6922 0.44889 3.75224 0
M  V30 972 H 98.0052 1.53582 7.57385 0
M  V30 973 H 96.3502 1.37439 6.81275 0
M  V30 974 H 99.5412 0.639601 4.6371 0
M  V30 975 H 99.7142 1.13503 6.37982 0
M  V30 976 N 93.1203 -1.57491 0.0584922 0
M  V30 977 C 94.0703 -2.08474 -0.923188 0
M  V30 978 C 95.0543 -0.991479 -1.26722 0
M  V30 979 O 96.2463 -1.25473 -1.24842 0
M  V30 980 C 93.3753 -2.6392 -2.19548 0
M  V30 981 C 92.4613 -3.80227 -1.87852 0
M  V30 982 N 92.8523 -4.89714 -1.26546 0
M  V30 983 C 91.1503 -3.89271 -2.17679 0
M  V30 984 C 91.8513 -5.70689 -1.12644 0
M  V30 985 N 90.8273 -5.18531 -1.63176 0
M  V30 986 H 94.6293 -2.90517 -0.444653 0
M  V30 987 H 92.1433 -1.61745 -0.145764 0
M  V30 988 H 94.1403 -2.98752 -2.9078 0
M  V30 989 H 92.8003 -1.83318 -2.68001 0
M  V30 990 H 93.8113 -5.09358 -0.936757 0
M  V30 991 H 90.4883 -3.19623 -2.68602 0
M  V30 992 H 91.8783 -6.6875 -0.6499 0
M  V30 993 N 94.5984 0.214957 -1.56127 0
M  V30 994 C 96.0094 0.781386 -1.69562 0
M  V30 995 C 96.3604 1.84707 -0.66165 0
M  V30 996 O 95.4854 2.156 0.185927 0
M  V30 997 C 96.0804 1.42411 -3.07416 0
M  V30 998 C 94.6394 1.93786 -3.22683 0
M  V30 999 C 93.7864 0.800438 -2.65496 0
M  V30 1000 H 96.7374 -0.00980633 -1.58697 0
M  V30 1001 H 96.7584 2.29309 -3.0364 0
M  V30 1002 H 96.2704 0.64826 -3.82648 0
M  V30 1003 H 94.3714 2.74152 -2.52332 0
M  V30 1004 H 94.4844 2.1133 -4.29973 0
M  V30 1005 H 92.8484 1.2095 -2.2415 0
M  V30 1006 H 93.6314 0.0371471 -3.4328 0
M  V30 1007 N 96.0765 1.50051 0.48192 0
M  V30 1008 C 97.4925 1.37237 0.814756 0
M  V30 1009 C 97.6925 0.420109 1.97072 0
M  V30 1010 O 96.7485 -0.141246 2.52105 0
M  V30 1011 C 98.0615 2.78375 1.13701 0
M  V30 1012 C 99.6095 2.87213 1.2441 0
M  V30 1013 C 100.084 4.29161 1.59954 0
M  V30 1014 N 101.575 4.32061 1.66967 0
M  V30 1015 C 102.31 5.38879 1.95952 0
M  V30 1016 N 101.806 6.55918 2.23031 0
M  V30 1017 N 103.599 5.26312 1.97363 0
M  V30 1018 H 95.7505 2.10546 -0.28005 0
M  V30 1019 H 98.0135 0.945921 -0.0627454 0
M  V30 1020 H 97.7195 3.49845 0.360787 0
M  V30 1021 H 97.5935 3.14941 2.07586 0
M  V30 1022 H 99.9805 2.15969 2.01101 0
M  V30 1023 H 100.061 2.54204 0.285299 0
M  V30 1024 H 99.7055 5.00938 0.838067 0
M  V30 1025 H 99.6355 4.59648 2.56966 0
M  V30 1026 H 102.126 3.47661 1.48123 0
M  V30 1027 H 102.439 7.33139 2.44391 0
M  V30 1028 H 100.784 6.59112 2.20447 0
M  V30 1029 H 103.975 4.33876 1.75697 0
M  V30 1030 H 104.148 6.09649 2.19618 0
M  V30 1031 N 97.5546 -0.734337 1.39446 0
M  V30 1032 C 98.8016 -1.49391 1.36706 0
M  V30 1033 C 99.1296 -1.94465 -0.0367813 0
M  V30 1034 O 98.3846 -1.67154 -1.01774 0
M  V30 1035 C 98.6836 -2.74711 2.28623 0
M  V30 1036 C 98.3496 -2.48501 3.76242 0
M  V30 1037 C 97.0116 -2.41062 4.16464 0
M  V30 1038 C 99.3636 -2.26098 4.69606 0
M  V30 1039 C 96.6916 -2.09262 5.48112 0
M  V30 1040 C 99.0436 -1.95814 6.01531 0
M  V30 1041 C 97.7076 -1.86845 6.40816 0
M  V30 1042 H 96.9776 -0.546661 0.500243 0
M  V30 1043 H 99.6246 -0.842788 1.71957 0
M  V30 1044 H 97.9296 -3.44569 1.86492 0
M  V30 1045 H 99.6266 -3.32741 2.23796 0
M  V30 1046 H 96.2166 -2.55169 3.44364 0
M  V30 1047 H 100.401 -2.30812 4.39363 0
M  V30 1048 H 95.6566 -2.00841 5.77471 0
M  V30 1049 H 99.8306 -1.77488 6.73403 0
M  V30 1050 H 97.4576 -1.6197 7.42745 0
M  V30 1051 N 99.0327 -1.24633 -0.964593 0
M  V30 1052 C 99.9827 -1.00841 -2.04487 0
M  V30 1053 C 100.967 0.0512468 -1.60818 0
M  V30 1054 O 102.159 -0.162865 -1.76249 0
M  V30 1055 C 99.2877 -0.618474 -3.37683 0
M  V30 1056 C 98.3737 -1.71437 -3.87905 0
M  V30 1057 N 98.7647 -2.9477 -4.11029 0
M  V30 1058 C 97.0627 -1.5926 -4.16596 0
M  V30 1059 C 97.7637 -3.65834 -4.52261 0
M  V30 1060 N 96.7397 -2.9341 -4.57615 0
M  V30 1061 H 100.542 -1.94487 -2.20345 0
M  V30 1062 H 98.0557 -1.14805 -1.14863 0
M  V30 1063 H 100.053 -0.429247 -4.14684 0
M  V30 1064 H 98.7127 0.310766 -3.23209 0
M  V30 1065 H 99.7237 -3.30917 -3.9839 0
M  V30 1066 H 96.4007 -0.731606 -4.1104 0
M  V30 1067 H 97.7907 -4.71646 -4.78539 0
M  V30 1068 N 100.511 1.16574 -1.06058 0
M  V30 1069 C 101.474 2.19085 -0.673392 0
M  V30 1070 C 102.474 1.5835 0.279648 0
M  V30 1071 O 103.664 1.74088 0.0623488 0
M  V30 1072 C 100.796 3.40899 0.00954234 0
M  V30 1073 H 101.989 2.54853 -1.58081 0
M  V30 1074 H 99.5418 1.30808 -0.855516 0
M  V30 1075 H 100.277 3.10684 0.929826 0
M  V30 1076 H 100.062 3.86233 -0.67573 0
M  V30 1077 H 101.552 4.1675 0.266245 0
M  V30 1078 N 101.989 0.842826 1.3317 0
M  V30 1079 C 103.4 0.496651 1.79973 0
M  V30 1080 C 103.751 -0.984641 1.69703 0
M  V30 1081 O 102.876 -1.76743 1.24863 0
M  V30 1082 C 103.471 0.894727 3.26772 0
M  V30 1083 C 102.03 0.600629 3.71577 0
M  V30 1084 C 101.177 1.10091 2.5451 0
M  V30 1085 H 104.128 1.03116 1.20635 0
M  V30 1086 H 104.149 0.206347 3.7994 0
M  V30 1087 H 103.661 1.97287 3.34215 0
M  V30 1088 H 101.762 -0.467284 3.69658 0
M  V30 1089 H 101.875 1.15863 4.64879 0
M  V30 1090 H 100.239 0.52162 2.49301 0
M  V30 1091 H 101.022 2.18591 2.64713 0
M  V30 1092 N 103.467 -1.45747 0.599634 0
M  V30 1093 C 104.4 -2.27547 -0.172552 0
M  V30 1094 C 105.378 -1.36657 -0.881116 0
M  V30 1095 O 106.562 -1.66081 -0.891595 0
M  V30 1096 C 103.689 -3.14829 -1.24903 0
M  V30 1097 C 102.735 -4.21603 -0.644465 0
M  V30 1098 S 103.568 -5.32754 0.541606 0
M  V30 1099 C 104.724 -6.23604 -0.535656 0
M  V30 1100 H 104.957 -2.92691 0.521468 0
M  V30 1101 H 102.49 -1.49473 0.386947 0
M  V30 1102 H 104.448 -3.65675 -1.86527 0
M  V30 1103 H 103.109 -2.48965 -1.91508 0
M  V30 1104 H 102.302 -4.82566 -1.45417 0
M  V30 1105 H 101.904 -3.73857 -0.103534 0
M  V30 1106 H 104.196 -6.62519 -1.41686 0
M  V30 1107 H 105.139 -7.0809 0.0376246 0
M  V30 1108 H 105.547 -5.58103 -0.84741 0
M  V30 1109 N 104.945 -0.338344 -1.53925 0
M  V30 1110 C 106.192 0.259758 -2.00827 0
M  V30 1111 C 106.52 1.50973 -1.22628 0
M  V30 1112 O 105.775 1.93379 -0.300509 0
M  V30 1113 C 106.074 0.62448 -3.51902 0
M  V30 1114 C 105.74 -0.528006 -4.47798 0
M  V30 1115 C 104.402 -0.844298 -4.73735 0
M  V30 1116 C 106.754 -1.30143 -5.0469 0
M  V30 1117 C 104.082 -1.93648 -5.53821 0
M  V30 1118 C 106.434 -2.38382 -5.85967 0
M  V30 1119 C 105.098 -2.70576 -6.10201 0
M  V30 1120 H 104.368 0.0950523 -0.734878 0
M  V30 1121 H 107.015 -0.465182 -1.85764 0
M  V30 1122 H 105.32 1.43006 -3.64769 0
M  V30 1123 H 107.017 1.09905 -3.85645 0
M  V30 1124 H 103.607 -0.271421 -4.2774 0
M  V30 1125 H 107.791 -1.07033 -4.84621 0
M  V30 1126 H 103.047 -2.19021 -5.70824 0
M  V30 1127 H 107.221 -2.98746 -6.29066 0
M  V30 1128 H 104.848 -3.55333 -6.72044 0
M  V30 1129 N 106.423 1.57458 -0.0668435 0
M  V30 1130 C 107.353 2.15468 0.899764 0
M  V30 1131 C 108.334 1.08042 1.31381 0
M  V30 1132 O 109.519 1.36054 1.38574 0
M  V30 1133 C 106.649 2.71232 2.16911 0
M  V30 1134 C 105.603 3.83781 1.89463 0
M  V30 1135 C 104.929 4.26127 3.22986 0
M  V30 1136 C 106.229 5.08238 1.20381 0
M  V30 1137 H 107.923 2.96488 0.416529 0
M  V30 1138 H 105.469 1.4262 0.198908 0
M  V30 1139 H 107.422 3.10458 2.84945 0
M  V30 1140 H 106.146 1.87426 2.67468 0
M  V30 1141 H 104.805 3.45051 1.23836 0
M  V30 1142 H 104.453 3.39249 3.71374 0
M  V30 1143 H 104.153 5.01993 3.05413 0
M  V30 1144 H 105.677 4.67966 3.92225 0
M  V30 1145 H 107.091 5.44811 1.78475 0
M  V30 1146 H 105.488 5.89349 1.13083 0
M  V30 1147 H 106.558 4.84558 0.182153 0
M  V30 1148 N 107.901 -0.206675 1.56239 0
M  V30 1149 C 108.831 -1.25909 1.96645 0
M  V30 1150 C 109.812 -1.48097 0.836734 0
M  V30 1151 O 110.997 -1.6003 1.10019 0
M  V30 1152 C 108.127 -2.6058 2.29599 0
M  V30 1153 C 107.081 -2.53024 3.452 0
M  V30 1154 C 106.407 -3.91861 3.63798 0
M  V30 1155 C 107.707 -2.06524 4.79734 0
M  V30 1156 H 109.401 -0.923369 2.84806 0
M  V30 1157 H 106.947 -0.442735 1.37025 0
M  V30 1158 H 108.9 -3.34375 2.56459 0
M  V30 1159 H 107.624 -2.95869 1.38307 0
M  V30 1160 H 106.283 -1.81684 3.18412 0
M  V30 1161 H 105.931 -4.24483 2.69857 0
M  V30 1162 H 105.631 -3.87683 4.4156 0
M  V30 1163 H 107.155 -4.67296 3.93022 0
M  V30 1164 H 108.569 -2.70072 5.05702 0
M  V30 1165 H 106.966 -2.13374 5.60885 0
M  V30 1166 H 108.036 -1.01802 4.74093 0
M  V30 1167 N 109.379 -1.50304 -0.473955 0
M  V30 1168 C 110.309 -1.71886 -1.58042 0
M  V30 1169 C 111.29 -0.567799 -1.60344 0
M  V30 1170 O 112.475 -0.806623 -1.76656 0
M  V30 1171 C 109.605 -1.81036 -2.96384 0
M  V30 1172 C 108.559 -2.962 -3.08949 0
M  V30 1173 C 107.885 -2.9049 -4.48909 0
M  V30 1174 C 109.185 -4.36752 -2.86434 0
M  V30 1175 H 110.879 -2.64527 -1.40234 0
M  V30 1176 H 108.425 -1.27295 -0.673201 0
M  V30 1177 H 110.378 -1.94719 -3.73714 0
M  V30 1178 H 109.102 -0.850147 -3.15341 0
M  V30 1179 H 107.761 -2.82164 -2.3405 0
M  V30 1180 H 107.409 -1.92321 -4.64781 0
M  V30 1181 H 107.109 -3.67802 -4.58253 0
M  V30 1182 H 108.633 -3.06218 -5.28264 0
M  V30 1183 H 110.047 -4.5133 -3.53517 0
M  V30 1184 H 108.444 -5.15493 -3.07225 0
M  V30 1185 H 109.514 -4.49321 -1.82316 0
M  V30 1186 N 110.857 0.726932 -1.39834 0
M  V30 1187 C 112.105 1.4837 -1.37225 0
M  V30 1188 C 112.426 1.94979 0.0284857 0
M  V30 1189 O 111.696 1.69555 0.981213 0
M  V30 1190 H 110.276 0.55043 -0.505011 0
M  V30 1191 H 112.938 0.862468 -1.74778 0
M  V30 1192 H 112.034 2.36198 -2.04003 0
M  V30 1193 N 112.336 1.25143 0.95797 0
M  V30 1194 C 113.561 1.12521 1.74223 0
M  V30 1195 C 113.986 -0.317402 1.85403 0
M  V30 1196 O 113.344 -1.2299 1.33204 0
M  V30 1197 C 113.392 1.78062 3.1357 0
M  V30 1198 O 112.496 1.058 3.98598 0
M  V30 1199 H 111.837 0.39304 0.535178 0
M  V30 1200 H 114.367 1.65641 1.201 0
M  V30 1201 H 114.377 1.84213 3.64046 0
M  V30 1202 H 113.052 2.83021 3.04749 0
M  V30 1203 H 111.629 1.07506 3.57067 0
M  V30 1204 N 113.814 -1.1601 1.06675 0
M  V30 1205 C 114.744 -2.22688 0.702307 0
M  V30 1206 C 115.725 -1.67306 -0.307032 0
M  V30 1207 O 116.91 -1.93352 -0.181305 0
M  V30 1208 C 114.04 -3.47178 0.092038 0
M  V30 1209 C 112.994 -4.15477 1.02777 0
M  V30 1210 C 112.32 -5.33963 0.28061 0
M  V30 1211 C 113.62 -4.66019 2.35846 0
M  V30 1212 H 115.314 -2.53429 1.59419 0
M  V30 1213 H 112.86 -1.21813 0.767961 0
M  V30 1214 H 114.813 -4.21037 -0.174814 0
M  V30 1215 H 113.537 -3.15749 -0.834877 0
M  V30 1216 H 112.196 -3.43549 1.27944 0
M  V30 1217 H 111.844 -4.98788 -0.649545 0
M  V30 1218 H 111.544 -5.806 0.904258 0
M  V30 1219 H 113.068 -6.10596 0.021396 0
M  V30 1220 H 114.482 -5.3144 2.15045 0
M  V30 1221 H 112.879 -5.23293 2.93743 0
M  V30 1222 H 113.949 -3.82023 2.98641 0
M  V30 1223 N 115.292 -0.849877 -1.32721 0
M  V30 1224 C 116.52 -0.464754 -2.01613 0
M  V30 1225 C 116.935 0.937191 -1.63897 0
M  V30 1226 O 116.292 1.61081 -0.857856 0
M  V30 1227 C 116.343 -0.588638 -3.56675 0
M  V30 1228 O 116.064 -1.93535 -3.93034 0
M  V30 1229 C 117.565 -0.2019 -4.4284 0
M  V30 1230 H 114.785 -0.183215 -0.645502 0
M  V30 1231 H 117.329 -1.1455 -1.69407 0
M  V30 1232 H 115.484 0.0443159 -3.87375 0
M  V30 1233 H 115.898 -1.92871 -4.87751 0
M  V30 1234 H 117.372 -0.339599 -5.50954 0
M  V30 1235 H 117.849 0.857224 -4.30753 0
M  V30 1236 H 118.455 -0.809733 -4.17521 0
M  V30 1237 N 116.77 1.45427 -0.607355 0
M  V30 1238 C 117.7 2.3329 0.0989352 0
M  V30 1239 C 118.681 1.46816 0.859007 0
M  V30 1240 O 119.866 1.75588 0.829604 0
M  V30 1241 C 116.996 3.29518 1.09705 0
M  V30 1242 C 115.95 4.25626 0.450206 0
M  V30 1243 C 115.276 5.11542 1.55655 0
M  V30 1244 C 116.576 5.18505 -0.628455 0
M  V30 1245 H 118.27 2.92595 -0.634716 0
M  V30 1246 H 115.816 1.40696 -0.306681 0
M  V30 1247 H 117.769 3.89855 1.59971 0
M  V30 1248 H 116.493 2.68372 1.86129 0
M  V30 1249 H 115.152 3.66586 -0.0315886 0
M  V30 1250 H 114.8 4.46765 2.31107 0
M  V30 1251 H 114.5 5.76647 1.12925 0
M  V30 1252 H 116.024 5.74748 2.06148 0
M  V30 1253 H 117.438 5.72916 -0.209877 0
M  V30 1254 H 115.835 5.92085 -0.977489 0
M  V30 1255 H 116.905 4.60948 -1.50514 0
M  V30 1256 N 118.248 0.346503 1.53744 0
M  V30 1257 C 119.473 -0.253074 2.0585 0
M  V30 1258 C 119.898 -1.43202 1.21962 0
M  V30 1259 O 119.256 -1.79783 0.234073 0
M  V30 1260 C 119.304 -0.643193 3.54817 0
M  V30 1261 O 118.408 -1.74286 3.73762 0
M  V30 1262 H 117.749 -0.0413583 0.662711 0
M  V30 1263 H 120.279 0.501574 1.98357 0
M  V30 1264 H 120.289 -0.919526 3.97503 0
M  V30 1265 H 118.964 0.218966 4.15323 0
M  V30 1266 H 117.541 -1.46356 3.42979 0
M  V30 1267 N 119.726 -1.57421 0.075193 0
M  V30 1268 C 121.003 -1.85029 -0.634329 0
M  V30 1269 C 121.383 -0.968305 -1.87582 0
M  V30 1270 O 120.731 -0.0354749 -2.28472 0
M  V30 1271 C 120.941 -3.35286 -0.968742 0
M  V30 1272 C 122.289 -4.02875 -1.34077 0
M  V30 1273 O 123.313 -3.40051 -1.06037 0
M  V30 1274 O 122.172 -5.13691 -1.86506 0
M  V30 1275 H 119.266 -0.7645 -0.315387 0
M  V30 1276 H 121.812 -1.69366 0.106382 0
M  V30 1277 H 120.584 -3.91203 -0.0871376 0
M  V30 1278 H 120.207 -3.56223 -1.7661 0
M  V30 1279 N 121.204 0.198386 -1.56346 0
M  V30 1280 C 122.134 1.24865 -1.9731 0
M  V30 1281 C 123.115 1.47651 -0.844576 0
M  V30 1282 O 124.3 1.59444 -1.10866 0
M  V30 1283 C 121.43 2.59358 -2.30977 0
M  V30 1284 C 120.384 2.5119 -3.46537 0
M  V30 1285 C 119.71 3.89926 -3.65871 0
M  V30 1286 C 121.01 2.03977 -4.80823 0
M  V30 1287 H 122.704 0.908252 -2.85291 0
M  V30 1288 H 120.25 0.435462 -1.37258 0
M  V30 1289 H 122.203 3.33011 -2.58228 0
M  V30 1290 H 120.927 2.95132 -1.39874 0
M  V30 1291 H 119.586 1.79993 -3.19371 0
M  V30 1292 H 119.234 4.23046 -2.72105 0
M  V30 1293 H 118.934 3.85336 -4.4361 0
M  V30 1294 H 120.458 4.65205 -3.95495 0
M  V30 1295 H 121.872 2.67386 -5.07127 0
M  V30 1296 H 120.269 2.10397 -5.62008 0
M  V30 1297 H 121.339 0.992861 -4.74626 0
M  V30 1298 N 122.682 1.50554 0.465978 0
M  V30 1299 C 123.612 1.72722 1.57128 0
M  V30 1300 C 124.593 0.576294 1.6004 0
M  V30 1301 O 125.778 0.81598 1.76225 0
M  V30 1302 C 122.908 1.82605 2.95419 0
M  V30 1303 C 121.862 2.97835 3.07373 0
M  V30 1304 C 121.188 2.92867 4.47363 0
M  V30 1305 C 122.488 4.38265 2.84114 0
M  V30 1306 H 124.182 2.65267 1.38829 0
M  V30 1307 H 121.728 1.2765 0.666441 0
M  V30 1308 H 123.681 1.96698 3.72677 0
M  V30 1309 H 122.405 0.866858 3.14886 0
M  V30 1310 H 121.064 2.83401 2.3255 0
M  V30 1311 H 120.712 1.94783 4.63755 0
M  V30 1312 H 120.412 3.70227 4.56296 0
M  V30 1313 H 121.936 3.09015 5.26633 0
M  V30 1314 H 123.35 4.53198 3.51118 0
M  V30 1315 H 121.747 5.17115 3.04487 0
M  V30 1316 H 122.817 4.50281 1.7993 0
M  V30 1317 N 124.16 -0.719506 1.40217 0
M  V30 1318 C 125.123 -1.8153 1.39927 0
M  V30 1319 C 126.123 -1.58095 0.293723 0
M  V30 1320 O 127.313 -1.65209 0.552429 0
M  V30 1321 C 124.445 -3.19561 1.18716 0
M  V30 1322 H 125.638 -1.83186 2.37451 0
M  V30 1323 H 123.191 -0.924746 1.26008 0
M  V30 1324 H 123.926 -3.23557 0.219366 0
M  V30 1325 H 123.711 -3.3797 1.98793 0
M  V30 1326 H 125.201 -3.99598 1.21291 0
M  V30 1327 N 125.638 -1.25649 -0.95132 0
M  V30 1328 C 126.886 -1.10375 -1.69298 0
M  V30 1329 C 127.207 0.355339 -1.91735 0
M  V30 1330 O 126.477 1.25188 -1.50681 0
M  V30 1331 H 125.057 -0.405461 -0.627384 0
M  V30 1332 H 127.719 -1.57823 -1.14358 0
M  V30 1333 H 126.815 -1.61465 -2.67087 0
M  V30 1334 N 127.117 1.15442 -1.07289 0
M  V30 1335 C 128.08 2.18358 -0.696591 0
M  V30 1336 C 129.08 1.58637 0.262837 0
M  V30 1337 O 130.27 1.74145 0.0438809 0
M  V30 1338 C 127.402 3.4089 -0.0266151 0
M  V30 1339 H 128.595 2.53162 -1.60776 0
M  V30 1340 H 126.148 1.29893 -0.869342 0
M  V30 1341 H 126.883 3.11653 0.896822 0
M  V30 1342 H 126.668 3.85495 -0.716657 0
M  V30 1343 H 128.158 4.17009 0.222028 0
M  V30 1344 N 128.595 0.856903 1.32268 0
M  V30 1345 C 129.558 0.308171 2.27119 0
M  V30 1346 C 130.558 -0.533421 1.51695 0
M  V30 1347 O 131.748 -0.344607 1.70757 0
M  V30 1348 C 128.88 -0.563757 3.36206 0
M  V30 1349 H 130.073 1.14535 2.77167 0
M  V30 1350 H 127.626 0.631421 1.42978 0
M  V30 1351 H 128.361 -1.42266 2.91429 0
M  V30 1352 H 128.146 0.0386749 3.92081 0
M  V30 1353 H 129.636 -0.940386 4.06874 0
M  V30 1354 N 130.073 -1.45103 0.615059 0
M  V30 1355 C 131.303 -2.06254 0.119596 0
M  V30 1356 C 131.711 -1.4591 -1.20445 0
M  V30 1357 O 131.054 -0.570384 -1.7462 0
M  V30 1358 C 131.116 -3.59396 -0.0865591 0
M  V30 1359 C 130.78 -4.42116 1.15683 0
M  V30 1360 C 131.777 -4.7662 2.07676 0
M  V30 1361 C 129.462 -4.82749 1.38775 0
M  V30 1362 C 131.456 -5.50622 3.21082 0
M  V30 1363 C 129.143 -5.56504 2.52481 0
M  V30 1364 C 130.141 -5.90358 3.43463 0
M  V30 1365 O 129.829 -6.62615 4.55189 0
M  V30 1366 H 129.561 -0.672423 0.0694512 0
M  V30 1367 H 132.115 -1.87219 0.844885 0
M  V30 1368 H 130.345 -3.76859 -0.866823 0
M  V30 1369 H 132.034 -4.02365 -0.534555 0
M  V30 1370 H 132.8 -4.4578 1.91063 0
M  V30 1371 H 128.679 -4.55829 0.688545 0
M  V30 1372 H 132.223 -5.76965 3.92119 0
M  V30 1373 H 128.12 -5.86759 2.69043 0
M  V30 1374 H 128.888 -6.81071 4.53966 0
M  V30 1375 N 131.551 -0.354651 -1.53558 0
M  V30 1376 C 132.514 0.484566 -2.24019 0
M  V30 1377 C 133.514 1.01861 -1.24422 0
M  V30 1378 O 134.704 0.906097 -1.4878 0
M  V30 1379 C 131.836 1.67615 -2.96847 0
M  V30 1380 H 133.029 -0.131843 -2.9961 0
M  V30 1381 H 130.582 -0.106165 -1.55939 0
M  V30 1382 H 131.317 2.33095 -2.25471 0
M  V30 1383 H 131.102 1.30029 -3.69912 0
M  V30 1384 H 132.592 2.27114 -3.50441 0
M  V30 1385 N 133.029 1.57378 -0.0835403 0
M  V30 1386 C 133.992 2.12252 0.864959 0
M  V30 1387 C 134.992 1.04916 1.21858 0
M  V30 1388 O 136.182 1.30853 1.14991 0
M  V30 1389 C 133.314 2.63358 2.16461 0
M  V30 1390 H 134.507 2.97371 0.388676 0
M  V30 1391 H 132.06 1.55423 0.165317 0
M  V30 1392 H 132.795 1.81727 2.686 0
M  V30 1393 H 132.58 3.41826 1.92087 0
M  V30 1394 H 134.07 3.05847 2.84337 0
M  V30 1395 N 134.507 -0.190092 1.56449 0
M  V30 1396 C 135.455 -1.25501 1.95837 0
M  V30 1397 C 136.449 -1.4685 0.844485 0
M  V30 1398 O 137.655 -1.47651 1.02952 0
M  V30 1399 H 134.03 -0.421447 0.622805 0
M  V30 1400 H 136.001 -0.895821 2.84636 0
M  V30 1401 C 134.75 -2.59124 2.31841 0
M  V30 1402 H 134.073 -2.43514 3.17082 0
M  V30 1403 H 135.513 -3.32371 2.6326 0
M  V30 1404 C 133.972 -3.16488 1.15486 0
M  V30 1405 O 134.502 -3.99365 0.432535 0
M  V30 1406 N 132.708 -2.75305 0.930349 0
M  V30 1407 H 132.255 -2.08013 1.51948 0
M  V30 1408 H 132.213 -3.14024 0.153634 0
M  V30 1409 N 135.985 -1.50799 -0.457987 0
M  V30 1410 C 137.234 -1.6168 -1.20593 0
M  V30 1411 C 137.547 -0.32888 -1.92815 0
M  V30 1412 O 138.753 -0.316773 -2.69646 0
M  V30 1413 C 137.209 -2.8545 -2.19195 0
M  V30 1414 C 136.817 -4.21168 -1.52715 0
M  V30 1415 C 138.561 -3.05681 -2.94549 0
M  V30 1416 C 136.468 -5.3611 -2.4968 0
M  V30 1417 H 135.398 -0.602134 -0.453818 0
M  V30 1418 H 138.049 -1.77245 -0.475031 0
M  V30 1419 H 136.431 -2.63472 -2.95632 0
M  V30 1420 H 137.605 -4.53449 -0.819775 0
M  V30 1421 H 135.92 -4.06648 -0.895922 0
M  V30 1422 H 138.517 -3.88727 -3.67145 0
M  V30 1423 H 138.86 -2.17929 -3.54701 0
M  V30 1424 H 139.393 -3.27901 -2.25223 0
M  V30 1425 H 136.132 -6.26057 -1.94249 0
M  V30 1426 H 135.652 -5.0823 -3.18532 0
M  V30 1427 H 137.331 -5.6722 -3.11241 0
M  V30 1428 N 137.463 0.71206 -1.40597 0
M  V30 1429 C 138.393 1.83889 -1.43899 0
M  V30 1430 C 139.374 1.67442 -0.299504 0
M  V30 1431 O 140.559 1.87421 -0.508624 0
M  V30 1432 C 137.689 3.21877 -1.30431 0
M  V30 1433 C 136.643 3.53002 -2.42019 0
M  V30 1434 C 135.969 4.90172 -2.13626 0
M  V30 1435 C 137.269 3.53643 -3.84362 0
M  V30 1436 H 138.963 1.81383 -2.38203 0
M  V30 1437 H 136.509 0.871237 -1.14654 0
M  V30 1438 H 138.462 4.00404 -1.31357 0
M  V30 1439 H 137.186 3.24968 -0.326049 0
M  V30 1440 H 135.845 2.76818 -2.40349 0
M  V30 1441 H 135.493 4.89869 -1.14182 0
M  V30 1442 H 135.193 5.11962 -2.88389 0
M  V30 1443 H 136.717 5.71028 -2.1624 0
M  V30 1444 H 138.131 4.22203 -3.87837 0
M  V30 1445 H 136.528 3.86961 -4.58673 0
M  V30 1446 H 137.598 2.52954 -4.13693 0
M  V30 1447 N 138.941 1.26152 0.944643 0
M  V30 1448 C 139.871 1.09902 2.06019 0
M  V30 1449 C 140.852 0.00519538 1.70099 0
M  V30 1450 O 142.037 0.176583 1.93396 0
M  V30 1451 C 139.167 0.727562 3.39594 0
M  V30 1452 C 138.121 1.77274 3.89561 0
M  V30 1453 C 137.447 1.25569 5.19747 0
M  V30 1454 C 138.747 3.17357 4.14827 0
M  V30 1455 H 140.441 2.03217 2.19871 0
M  V30 1456 H 137.987 0.978452 1.05652 0
M  V30 1457 H 139.94 0.600777 4.17095 0
M  V30 1458 H 138.664 -0.241287 3.25707 0
M  V30 1459 H 137.323 1.88814 3.14237 0
M  V30 1460 H 136.971 0.276783 5.02238 0
M  V30 1461 H 136.671 1.95433 5.54148 0
M  V30 1462 H 138.195 1.1415 5.99835 0
M  V30 1463 H 139.609 3.08914 4.82954 0
M  V30 1464 H 138.006 3.84781 4.60504 0
M  V30 1465 H 139.076 3.63673 3.20734 0
M  V30 1466 N 140.419 -1.14872 1.07899 0
M  V30 1467 C 141.644 -1.90202 0.826926 0
M  V30 1468 C 142.069 -1.77774 -0.614664 0
M  V30 1469 O 141.427 -1.11431 -1.43013 0
M  V30 1470 C 141.475 -3.38352 1.24702 0
M  V30 1471 O 140.579 -4.10497 0.39575 0
M  V30 1472 H 139.92 -0.591968 0.300782 0
M  V30 1473 H 142.45 -1.45437 1.43907 0
M  V30 1474 H 142.46 -3.89156 1.22563 0
M  V30 1475 H 141.135 -3.46715 2.29698 0
M  V30 1476 H 139.712 -3.69796 0.480117 0
M  V30 1477 N 141.898 -0.863906 -1.31812 0
M  V30 1478 C 143.146 -0.470904 -1.96537 0
M  V30 1479 C 143.467 0.978771 -1.68657 0
M  V30 1480 O 142.737 1.6853 -0.998717 0
M  V30 1481 H 141.317 -0.171148 -0.72713 0
M  V30 1482 H 143.979 -1.10236 -1.60729 0
M  V30 1483 H 143.075 -0.623616 -3.05806 0
M  V30 1484 N 143.376 1.44774 -0.622745 0
M  V30 1485 C 144.787 1.85546 -0.207226 0
M  V30 1486 C 145.138 1.52093 1.23944 0
M  V30 1487 O 144.263 0.95492 1.94191 0
M  V30 1488 C 144.858 3.36781 -0.369313 0
M  V30 1489 C 143.417 3.76399 -0.00836847 0
M  V30 1490 C 142.564 2.68664 -0.686651 0
M  V30 1491 H 145.515 1.3536 -0.828454 0
M  V30 1492 H 145.536 3.78453 0.394162 0
M  V30 1493 H 145.048 3.61098 -1.42231 0
M  V30 1494 H 143.149 3.57698 1.04322 0
M  V30 1495 H 143.262 4.7732 -0.412584 0
M  V30 1496 H 141.626 2.54404 -0.122777 0
M  V30 1497 H 142.409 2.95815 -1.74208 0
M  V30 1498 N 144.854 0.36279 1.53368 0
M  V30 1499 C 145.784 -0.476976 2.28576 0
M  V30 1500 C 146.765 -1.08631 1.30894 0
M  V30 1501 O 147.95 -1.10409 1.59761 0
M  V30 1502 C 145.08 -1.61828 3.07293 0
M  V30 1503 C 144.034 -1.13633 4.1264 0
M  V30 1504 C 143.36 -2.36766 4.79423 0
M  V30 1505 C 144.66 -0.223061 5.21823 0
M  V30 1506 H 146.354 0.150474 2.99022 0
M  V30 1507 H 143.9 0.0738103 1.43811 0
M  V30 1508 H 145.853 -2.21237 3.58653 0
M  V30 1509 H 144.577 -2.27292 2.34533 0
M  V30 1510 H 143.236 -0.564945 3.62221 0
M  V30 1511 H 142.884 -3.0068 4.03238 0
M  V30 1512 H 142.584 -2.05192 5.50609 0
M  V30 1513 H 144.108 -2.96865 5.33576 0
M  V30 1514 H 145.522 -0.724545 5.68703 0
M  V30 1515 H 143.919 0.001678 6.001 0
M  V30 1516 H 144.989 0.735553 4.79289 0
M  V30 1517 N 146.332 -1.57332 0.0918853 0
M  V30 1518 C 147.56 -1.98574 -0.581048 0
M  V30 1519 C 147.975 -0.970903 -1.61923 0
M  V30 1520 O 147.332 0.0399054 -1.82456 0
M  V30 1521 C 147.383 -3.39872 -1.23164 0
M  V30 1522 O 147.104 -4.37469 -0.234989 0
M  V30 1523 C 148.605 -3.96099 -1.99049 0
M  V30 1524 H 145.825 -0.65261 -0.156018 0
M  V30 1525 H 148.369 -2.0379 0.170225 0
M  V30 1526 H 146.524 -3.35679 -1.93386 0
M  V30 1527 H 146.938 -5.19751 -0.70418 0
M  V30 1528 H 148.412 -4.97127 -2.39934 0
M  V30 1529 H 148.889 -3.3374 -2.85507 0
M  V30 1530 H 149.495 -4.03755 -1.3365 0
M  V30 1531 N 147.81 0.181792 -1.56548 0
M  V30 1532 C 148.74 1.22765 -1.98623 0
M  V30 1533 C 149.721 1.46747 -0.860189 0
M  V30 1534 O 150.906 1.58259 -1.12551 0
M  V30 1535 C 148.036 2.56894 -2.33715 0
M  V30 1536 C 146.99 2.475 -3.49182 0
M  V30 1537 C 146.316 3.86023 -3.69986 0
M  V30 1538 C 147.616 1.98866 -4.82959 0
M  V30 1539 H 149.31 0.877942 -2.86239 0
M  V30 1540 H 146.856 0.42088 -1.37712 0
M  V30 1541 H 148.809 3.30253 -2.61746 0
M  V30 1542 H 147.533 2.93632 -1.42997 0
M  V30 1543 H 146.192 1.76596 -3.21262 0
M  V30 1544 H 145.84 4.20136 -2.76576 0
M  V30 1545 H 145.54 3.80609 -4.47672 0
M  V30 1546 H 147.064 4.60984 -4.00407 0
M  V30 1547 H 148.478 2.61992 -5.09934 0
M  V30 1548 H 146.875 2.04424 -5.64208 0
M  V30 1549 H 147.945 0.942465 -4.75653 0
M  V30 1550 N 149.288 1.51039 0.449983 0
M  V30 1551 C 150.235 1.71439 1.54523 0
M  V30 1552 C 151.205 0.555871 1.56522 0
M  V30 1553 O 152.39 0.788871 1.73728 0
M  V30 1554 C 149.53 1.83384 2.92343 0
M  V30 1555 C 148.643 3.10873 2.9997 0
M  V30 1556 C 147.778 3.13488 4.28834 0
M  V30 1557 C 146.817 4.35343 4.30282 0
M  V30 1558 N 145.954 4.35579 5.5065 0
M  V30 1559 H 150.794 2.64934 1.36433 0
M  V30 1560 H 148.331 1.31312 0.662982 0
M  V30 1561 H 150.289 1.88291 3.72293 0
M  V30 1562 H 148.919 0.933086 3.0902 0
M  V30 1563 H 147.971 3.15336 2.12761 0
M  V30 1564 H 149.283 4.00814 2.96901 0
M  V30 1565 H 148.437 3.17241 5.17149 0
M  V30 1566 H 147.176 2.21414 4.34543 0
M  V30 1567 H 146.181 4.3178 3.40362 0
M  V30 1568 H 147.406 5.28668 4.26248 0
M  V30 1569 H 145.352 3.46369 5.57104 0
M  V30 1570 H 145.269 5.19313 5.49409 0
M  V30 1571 H 146.537 4.43507 6.41032 0
M  V30 1572 N 150.766 -0.704594 1.40972 0
M  V30 1573 C 151.696 -1.83124 1.44872 0
M  V30 1574 C 152.677 -1.67281 0.30838 0
M  V30 1575 O 153.862 -1.87149 0.518556 0
M  V30 1576 C 150.992 -3.21181 1.32136 0
M  V30 1577 C 149.946 -3.51714 2.43888 0
M  V30 1578 C 149.272 -4.89032 2.16222 0
M  V30 1579 C 150.572 -3.516 3.86232 0
M  V30 1580 H 152.266 -1.80117 2.39161 0
M  V30 1581 H 149.812 -0.865145 1.15114 0
M  V30 1582 H 151.765 -3.99702 1.33479 0
M  V30 1583 H 150.489 -3.24791 0.343279 0
M  V30 1584 H 149.148 -2.75539 2.41813 0
M  V30 1585 H 148.796 -4.89256 1.16778 0
M  V30 1586 H 148.496 -5.10426 2.911 0
M  V30 1587 H 150.02 -5.69873 2.19265 0
M  V30 1588 H 151.434 -4.2014 3.9007 0
M  V30 1589 H 149.831 -3.84523 4.60719 0
M  V30 1590 H 150.901 -2.50757 4.15029 0
M  V30 1591 N 152.244 -1.26651 -0.937939 0
M  V30 1592 C 153.469 -1.15279 -1.72411 0
M  V30 1593 C 153.894 0.287866 -1.85884 0
M  V30 1594 O 153.252 1.20855 -1.35143 0
M  V30 1595 C 153.3 -1.83028 -3.10698 0
M  V30 1596 O 152.404 -1.12128 -3.96864 0
M  V30 1597 H 151.745 -0.401504 -0.528858 0
M  V30 1598 H 154.275 -1.67531 -1.1745 0
M  V30 1599 H 154.285 -1.89981 -3.6107 0
M  V30 1600 H 152.96 -2.87833 -3.00208 0
M  V30 1601 H 151.537 -1.13173 -3.55312 0
M  V30 1602 N 153.722 1.14298 -1.08507 0
M  V30 1603 C 155.133 1.66926 -0.836227 0
M  V30 1604 C 155.484 1.85576 0.63686 0
M  V30 1605 O 154.609 1.56767 1.49175 0
M  V30 1606 C 155.204 3.03219 -1.51142 0
M  V30 1607 C 153.763 3.52876 -1.30979 0
M  V30 1608 C 152.91 2.2833 -1.57356 0
M  V30 1609 H 155.861 0.983491 -1.24552 0
M  V30 1610 H 155.882 3.68726 -0.939211 0
M  V30 1611 H 155.394 2.89612 -2.58353 0
M  V30 1612 H 153.495 3.71703 -0.258429 0
M  V30 1613 H 153.608 4.33586 -2.03814 0
M  V30 1614 H 151.972 2.34454 -0.995164 0
M  V30 1615 H 152.755 2.17298 -2.65775 0
M  V30 1616 N 155.201 0.870884 1.31352 0
M  V30 1617 C 156.164 0.332243 2.26779 0
M  V30 1618 C 157.164 -0.517302 1.52252 0
M  V30 1619 O 158.354 -0.326477 1.71113 0
M  V30 1620 C 155.486 -0.528066 3.36785 0
M  V30 1621 H 156.679 1.17469 2.75937 0
M  V30 1622 H 154.232 0.64655 1.423 0
M  V30 1623 H 154.967 -1.39167 2.92922 0
M  V30 1624 H 154.752 0.0802582 3.92018 0
M  V30 1625 H 156.242 -0.897179 4.07849 0
M  V30 1626 N 156.679 -1.44442 0.630414 0
M  V30 1627 C 157.609 -2.33418 -0.0618083 0
M  V30 1628 C 158.59 -1.48165 -0.835541 0
M  V30 1629 O 159.775 -1.76886 -0.801564 0
M  V30 1630 C 156.905 -3.31222 -1.04449 0
M  V30 1631 C 155.859 -4.26288 -0.382436 0
M  V30 1632 C 155.185 -5.13954 -1.47497 0
M  V30 1633 C 156.485 -5.1744 0.710865 0
M  V30 1634 H 158.179 -2.91548 0.681184 0
M  V30 1635 H 155.725 -1.40191 0.329026 0
M  V30 1636 H 157.678 -3.92351 -1.53748 0
M  V30 1637 H 156.402 -2.71299 -1.81836 0
M  V30 1638 H 155.061 -3.6649 0.0899054 0
M  V30 1639 H 154.709 -4.50385 -2.2397 0
M  V30 1640 H 154.409 -5.7837 -1.03737 0
M  V30 1641 H 155.933 -5.77955 -1.96979 0
M  V30 1642 H 157.347 -5.72509 0.300996 0
M  V30 1643 H 155.744 -5.90455 1.07156 0
M  V30 1644 H 156.814 -4.58496 1.57829 0
M  V30 1645 N 158.157 -0.370918 -1.53173 0
M  V30 1646 C 159.403 0.209976 -2.02313 0
M  V30 1647 C 159.758 1.45987 -1.25322 0
M  V30 1648 O 159.051 1.8856 -0.339965 0
M  V30 1649 C 159.245 0.549696 -3.53147 0
M  V30 1650 C 159.074 -0.665721 -4.44745 0
M  V30 1651 C 157.844 -1.17942 -4.91343 0
M  V30 1652 C 160.042 -1.53255 -4.90935 0
M  V30 1653 N 158.024 -2.35431 -5.66962 0
M  V30 1654 C 159.395 -2.55403 -5.64951 0
M  V30 1655 C 161.45 -1.5548 -4.73002 0
M  V30 1656 C 160.153 -3.5964 -6.22938 0
M  V30 1657 C 162.179 -2.58613 -5.31858 0
M  V30 1658 C 161.541 -3.59485 -6.05764 0
M  V30 1659 H 157.64 0.0394095 -0.781006 0
M  V30 1660 H 160.224 -0.516666 -1.8772 0
M  V30 1661 H 158.395 1.24541 -3.67891 0
M  V30 1662 H 160.127 1.11614 -3.89004 0
M  V30 1663 H 156.882 -0.743228 -4.67732 0
M  V30 1664 H 157.306 -2.94827 -6.09431 0
M  V30 1665 H 161.948 -0.788457 -4.15383 0
M  V30 1666 H 159.666 -4.37153 -6.79649 0
M  V30 1667 H 163.252 -2.61195 -5.19873 0
M  V30 1668 H 162.132 -4.3798 -6.50495 0
M  V30 1669 N 159.635 1.57281 -0.100228 0
M  V30 1670 C 160.882 1.94537 0.562268 0
M  V30 1671 C 161.21 0.982315 1.67871 0
M  V30 1672 O 160.465 0.00280936 1.957 0
M  V30 1673 C 160.764 3.38305 1.15259 0
M  V30 1674 C 160.43 4.50618 0.159409 0
M  V30 1675 C 159.092 4.81066 -0.113741 0
M  V30 1676 C 161.444 5.18615 -0.518461 0
M  V30 1677 C 158.772 5.76835 -1.07137 0
M  V30 1678 C 161.124 6.15412 -1.46459 0
M  V30 1679 C 159.788 6.44262 -1.74592 0
M  V30 1680 H 159.058 0.711863 0.205748 0
M  V30 1681 H 161.705 1.90679 -0.17715 0
M  V30 1682 H 160.01 3.38766 1.96836 0
M  V30 1683 H 161.707 3.64435 1.67297 0
M  V30 1684 H 158.297 4.2689 0.382491 0
M  V30 1685 H 162.481 4.95264 -0.320581 0
M  V30 1686 H 157.737 5.975 -1.29628 0
M  V30 1687 H 161.911 6.67194 -1.99564 0
M  V30 1688 H 159.538 7.1828 -2.48953 0
M  V30 1689 N 161.113 -0.173488 1.56642 0
M  V30 1690 C 162.076 -1.19859 1.95362 0
M  V30 1691 C 163.076 -1.37296 0.83704 0
M  V30 1692 O 164.266 -1.34739 1.10413 0
M  V30 1693 C 161.398 -2.56405 2.24654 0
M  V30 1694 H 162.591 -0.867062 2.87092 0
M  V30 1695 H 160.144 -0.415853 1.50666 0
M  V30 1696 H 160.879 -2.94576 1.35631 0
M  V30 1697 H 160.664 -2.45115 3.06041 0
M  V30 1698 H 162.154 -3.30287 2.5554 0
M  V30 1699 N 162.591 -1.51276 -0.441967 0
M  V30 1700 C 164.007 -1.39349 -0.778083 0
M  V30 1701 C 164.207 -0.472212 -1.95889 0
M  V30 1702 O 163.263 0.0743551 -2.5239 0
M  V30 1703 C 164.576 -2.81292 -1.0628 0
M  V30 1704 C 166.124 -2.9041 -1.16751 0
M  V30 1705 C 166.599 -4.33251 -1.48519 0
M  V30 1706 N 168.09 -4.36336 -1.55453 0
M  V30 1707 C 168.825 -5.43885 -1.81596 0
M  V30 1708 N 168.321 -6.61601 -2.05562 0
M  V30 1709 N 170.114 -5.3136 -1.8334 0
M  V30 1710 H 162.265 -2.09729 0.335774 0
M  V30 1711 H 164.528 -0.943925 0.0878028 0
M  V30 1712 H 164.234 -3.50678 -0.267905 0
M  V30 1713 H 164.108 -3.20334 -1.99163 0
M  V30 1714 H 166.495 -2.21225 -1.95304 0
M  V30 1715 H 166.576 -2.54871 -0.217801 0
M  V30 1716 H 166.22 -5.02984 -0.704958 0
M  V30 1717 H 166.15 -4.66299 -2.44689 0
M  V30 1718 H 168.641 -3.51466 -1.38853 0
M  V30 1719 H 168.954 -7.39361 -2.24867 0
M  V30 1720 H 167.299 -6.64725 -2.02894 0
M  V30 1721 H 170.49 -4.38382 -1.64132 0
M  V30 1722 H 170.663 -6.15258 -2.03377 0
M  V30 1723 N 164.069 0.697108 -1.41344 0
M  V30 1724 C 164.979 1.84088 -1.45427 0
M  V30 1725 C 165.995 1.70545 -0.34501 0
M  V30 1726 O 167.171 1.92488 -0.592492 0
M  V30 1727 C 164.236 3.20056 -1.33286 0
M  V30 1728 C 163.297 3.45718 -2.54514 0
M  V30 1729 C 162.53 4.75199 -2.42944 0
M  V30 1730 O 162.753 5.51579 -1.45318 0
M  V30 1731 O 161.687 5.0161 -3.32672 0
M  V30 1732 H 165.513 1.836 -2.41919 0
M  V30 1733 H 163.098 0.849966 -1.22866 0
M  V30 1734 H 164.98 4.01236 -1.28794 0
M  V30 1735 H 163.655 3.2123 -0.39909 0
M  V30 1736 H 162.562 2.64474 -2.64583 0
M  V30 1737 H 163.895 3.49356 -3.46715 0
M  V30 1738 N 165.547 1.27147 0.931209 0
M  V30 1739 C 166.795 1.13055 1.6752 0
M  V30 1740 C 167.116 -0.324791 1.92276 0
M  V30 1741 O 166.386 -1.22775 1.52654 0
M  V30 1742 H 164.966 0.415391 0.620854 0
M  V30 1743 H 167.628 1.59623 1.11833 0
M  V30 1744 H 166.724 1.65694 2.64485 0
M  V30 1745 N 167.025 -1.13721 1.09112 0
M  V30 1746 C 168.273 -1.84559 0.823562 0
M  V30 1747 C 168.594 -1.83754 -0.652658 0
M  V30 1748 O 167.864 -1.29102 -1.47342 0
M  V30 1749 H 166.444 -0.683376 0.301673 0
M  V30 1750 H 169.106 -1.37771 1.37859 0
M  V30 1751 H 168.202 -2.8917 1.17419 0
M  V30 1752 N 168.503 -0.877838 -1.30888 0
M  V30 1753 C 169.749 -0.493426 -1.96706 0
M  V30 1754 C 170.082 0.953504 -1.6918 0
M  V30 1755 O 169.357 1.67266 -0.992594 0
M  V30 1756 C 169.64 -0.760429 -3.51979 0
M  V30 1757 C 169.493 -2.25747 -3.89048 0
M  V30 1758 C 170.812 -0.232148 -4.39487 0
M  V30 1759 H 167.931 -0.180746 -0.714493 0
M  V30 1760 H 170.573 -1.10052 -1.54882 0
M  V30 1761 H 168.723 -0.243715 -3.87735 0
M  V30 1762 H 170.395 -2.84204 -3.63354 0
M  V30 1763 H 168.638 -2.72694 -3.37373 0
M  V30 1764 H 169.309 -2.39491 -4.97341 0
M  V30 1765 H 171.785 -0.674314 -4.106 0
M  V30 1766 H 170.661 -0.448355 -5.47066 0
M  V30 1767 H 170.922 0.866297 -4.33529 0
M  V30 1768 N 169.982 1.44106 -0.638065 0
M  V30 1769 C 171.229 2.01978 -0.14533 0
M  V30 1770 C 171.557 1.50234 1.23532 0
M  V30 1771 O 170.812 0.679548 1.83523 0
M  V30 1772 C 171.111 3.5729 -0.0887327 0
M  V30 1773 C 170.777 4.28317 -1.40909 0
M  V30 1774 C 169.439 4.47437 -1.77069 0
M  V30 1775 C 171.791 4.6867 -2.28031 0
M  V30 1776 C 169.119 5.04171 -3.00047 0
M  V30 1777 C 171.471 5.26766 -3.50286 0
M  V30 1778 C 170.135 5.44104 -3.86661 0
M  V30 1779 H 169.405 0.739089 -0.0531801 0
M  V30 1780 H 172.052 1.72781 -0.825761 0
M  V30 1781 H 170.357 3.8594 0.675095 0
M  V30 1782 H 172.054 3.99807 0.309145 0
M  V30 1783 H 168.644 4.1377 -1.1177 0
M  V30 1784 H 172.828 4.53604 -2.01388 0
M  V30 1785 H 168.084 5.15782 -3.28298 0
M  V30 1786 H 172.258 5.56983 -4.18023 0
M  V30 1787 H 169.885 5.87832 -4.82034 0
M  V30 1788 N 171.46 0.379036 1.52974 0
M  V30 1789 C 172.706 -0.206727 2.01744 0
M  V30 1790 C 173.039 -1.47314 1.26539 0
M  V30 1791 O 172.314 -1.91084 0.362903 0
M  V30 1792 C 172.597 -0.485066 3.56818 0
M  V30 1793 C 172.45 0.795919 4.42702 0
M  V30 1794 C 173.769 -1.28003 4.21074 0
M  V30 1795 H 170.888 -0.0736607 0.73331 0
M  V30 1796 H 173.53 0.506581 1.83122 0
M  V30 1797 H 171.68 -1.09272 3.72816 0
M  V30 1798 H 173.352 1.43307 4.38476 0
M  V30 1799 H 171.595 1.41344 4.10127 0
M  V30 1800 H 172.266 0.555947 5.49193 0
M  V30 1801 H 174.742 -0.765867 4.08991 0
M  V30 1802 H 173.618 -1.44352 5.29579 0
M  V30 1803 H 173.879 -2.29236 3.78026 0
M  V30 1804 N 172.938 -1.57226 0.108567 0
M  V30 1805 C 173.901 -2.13602 -0.831082 0
M  V30 1806 C 174.901 -1.06841 -1.20173 0
M  V30 1807 O 176.091 -1.32666 -1.12895 0
M  V30 1808 C 173.223 -2.66769 -2.12243 0
M  V30 1809 H 174.416 -2.97951 -0.341317 0
M  V30 1810 H 171.969 -1.55667 -0.14057 0
M  V30 1811 H 172.704 -1.85977 -2.65675 0
M  V30 1812 H 172.489 -3.44839 -1.86625 0
M  V30 1813 H 173.979 -3.10332 -2.79435 0
M  V30 1814 N 174.416 0.165178 -1.56732 0
M  V30 1815 C 175.346 1.20651 -1.99914 0
M  V30 1816 C 176.327 1.45827 -0.875705 0
M  V30 1817 O 177.512 1.57057 -1.14223 0
M  V30 1818 C 174.642 2.54401 -2.36427 0
M  V30 1819 C 173.596 2.43782 -3.51787 0
M  V30 1820 C 172.922 3.82078 -3.7406 0
M  V30 1821 C 174.222 1.93732 -4.85041 0
M  V30 1822 H 175.916 0.847534 -2.87154 0
M  V30 1823 H 173.462 0.40625 -1.38151 0
M  V30 1824 H 175.415 3.27458 -2.65234 0
M  V30 1825 H 174.139 2.92098 -1.46103 0
M  V30 1826 H 172.798 1.73178 -3.23117 0
M  V30 1827 H 172.446 4.17179 -2.81017 0
M  V30 1828 H 172.146 3.7584 -4.51684 0
M  V30 1829 H 173.67 4.56712 -4.05274 0
M  V30 1830 H 175.084 2.56569 -5.12684 0
M  V30 1831 H 173.481 1.98428 -5.66345 0
M  V30 1832 H 174.551 0.891962 -4.76626 0
M  V30 1833 N 175.894 1.51508 0.433938 0
M  V30 1834 C 177.122 1.68157 1.20543 0
M  V30 1835 C 177.537 0.380362 1.84929 0
M  V30 1836 O 176.894 -0.641446 1.70856 0
M  V30 1837 C 176.945 2.79965 2.28696 0
M  V30 1838 O 176.666 4.05045 1.66943 0
M  V30 1839 C 178.167 3.07912 3.18912 0
M  V30 1840 H 175.387 0.56421 0.363191 0
M  V30 1841 H 177.931 1.97941 0.513754 0
M  V30 1842 H 176.086 2.5277 2.93574 0
M  V30 1843 H 176.5 4.67165 2.38448 0
M  V30 1844 H 177.974 3.89719 3.90926 0
M  V30 1845 H 178.451 2.20456 3.79863 0
M  V30 1846 H 179.057 3.36779 2.59731 0
M  V30 1847 N 177.372 -0.689602 1.41712 0
M  V30 1848 C 178.335 -1.78521 1.43746 0
M  V30 1849 C 179.335 -1.57436 0.327191 0
M  V30 1850 O 180.525 -1.64 0.587348 0
M  V30 1851 C 177.657 -3.16971 1.25467 0
M  V30 1852 H 178.85 -1.78108 2.41283 0
M  V30 1853 H 176.403 -0.89781 1.27942 0
M  V30 1854 H 177.138 -3.23019 0.287948 0
M  V30 1855 H 176.923 -3.33678 2.05917 0
M  V30 1856 H 178.413 -3.96935 1.2974 0
M  V30 1857 N 178.85 -1.27639 -0.924453 0
M  V30 1858 C 180.075 -1.17101 -1.71179 0
M  V30 1859 C 180.5 0.268134 -1.86179 0
M  V30 1860 O 179.858 1.19415 -1.36418 0
M  V30 1861 C 179.906 -1.86313 -3.08739 0
M  V30 1862 O 179.01 -1.16331 -3.95652 0
M  V30 1863 H 178.351 -0.407091 -0.524569 0
M  V30 1864 H 180.881 -1.68767 -1.15666 0
M  V30 1865 H 180.891 -1.938 -3.59034 0
M  V30 1866 H 179.566 -2.91001 -2.97138 0
M  V30 1867 H 178.143 -1.16935 -3.54091 0
M  V30 1868 N 180.328 1.1314 -1.09713 0
M  V30 1869 C 181.574 1.84757 -0.836224 0
M  V30 1870 C 181.907 1.8347 0.636598 0
M  V30 1871 O 181.182 1.27491 1.46889 0
M  V30 1872 C 181.465 3.32782 -1.37578 0
M  V30 1873 C 181.318 3.42567 -2.91493 0
M  V30 1874 C 182.637 4.28307 -1.01198 0
M  V30 1875 H 179.756 0.67082 -0.305236 0
M  V30 1876 H 182.398 1.3278 -1.35903 0
M  V30 1877 H 180.548 3.77177 -0.931097 0
M  V30 1878 H 182.22 3.06862 -3.44432 0
M  V30 1879 H 180.463 2.83349 -3.28475 0
M  V30 1880 H 181.134 4.46674 -3.24324 0
M  V30 1881 H 183.61 3.91999 -1.39556 0
M  V30 1882 H 182.486 5.30307 -1.41653 0
M  V30 1883 H 182.747 4.42029 0.0794833 0
M  V30 1884 N 181.806 0.884767 1.30421 0
M  V30 1885 C 182.736 0.367574 2.30589 0
M  V30 1886 C 183.717 -0.549464 1.60981 0
M  V30 1887 O 184.902 -0.46336 1.88591 0
M  V30 1888 C 182.032 -0.418944 3.44764 0
M  V30 1889 C 180.986 0.406316 4.26067 0
M  V30 1890 C 180.312 -0.506793 5.32293 0
M  V30 1891 C 181.612 1.64832 4.95608 0
M  V30 1892 H 183.306 1.20462 2.74097 0
M  V30 1893 H 180.852 0.580695 1.31772 0
M  V30 1894 H 182.805 -0.791395 4.13902 0
M  V30 1895 H 181.529 -1.28964 3.0006 0
M  V30 1896 H 180.188 0.760903 3.58617 0
M  V30 1897 H 179.836 -1.37519 4.83836 0
M  V30 1898 H 179.536 0.0415828 5.87585 0
M  V30 1899 H 181.06 -0.875764 6.04287 0
M  V30 1900 H 182.474 1.34646 5.57264 0
M  V30 1901 H 180.871 2.13688 5.60765 0
M  V30 1902 H 181.941 2.39284 4.21748 0
M  V30 1903 N 183.284 -1.43765 0.645699 0
M  V30 1904 C 184.509 -2.06767 0.161883 0
M  V30 1905 C 184.934 -1.48034 -1.16049 0
M  V30 1906 O 184.292 -0.587369 -1.71522 0
M  V30 1907 C 184.34 -3.60519 0.0762003 0
M  V30 1908 O 183.444 -4.00982 -0.963721 0
M  V30 1909 H 182.785 -0.657675 0.091429 0
M  V30 1910 H 185.315 -1.84397 0.886499 0
M  V30 1911 H 185.325 -4.07853 -0.109604 0
M  V30 1912 H 184 -4.02646 1.04157 0
M  V30 1913 H 182.577 -3.65253 -0.751312 0
M  V30 1914 N 184.763 -0.387143 -1.52771 0
M  V30 1915 C 185.693 0.440551 -2.29306 0
M  V30 1916 C 186.674 1.06535 -1.32606 0
M  V30 1917 O 187.859 1.07853 -1.61497 0
M  V30 1918 C 184.989 1.56919 -3.09829 0
M  V30 1919 C 183.943 1.07054 -4.14395 0
M  V30 1920 C 183.269 2.29109 -4.83129 0
M  V30 1921 C 184.569 0.140015 -5.22112 0
M  V30 1922 H 186.263 -0.198026 -2.98744 0
M  V30 1923 H 183.809 -0.09668 -1.43675 0
M  V30 1924 H 185.762 2.15503 -3.62128 0
M  V30 1925 H 184.486 2.23532 -2.3812 0
M  V30 1926 H 183.145 0.507247 -3.63074 0
M  V30 1927 H 182.793 2.94227 -4.0797 0
M  V30 1928 H 182.493 1.96406 -5.53804 0
M  V30 1929 H 184.017 2.88339 -5.38231 0
M  V30 1930 H 185.431 0.633978 -5.69784 0
M  V30 1931 H 183.828 -0.0971485 -6.00021 0
M  V30 1932 H 184.898 -0.811711 -4.78058 0
M  V30 1933 N 186.241 1.57166 -0.116904 0
M  V30 1934 C 187.171 2.18222 0.830759 0
M  V30 1935 C 188.152 1.12167 1.27877 0
M  V30 1936 O 189.337 1.40394 1.34176 0
M  V30 1937 C 186.467 2.77996 2.08172 0
M  V30 1938 C 185.421 3.89614 1.77157 0
M  V30 1939 C 184.747 4.36187 3.09265 0
M  V30 1940 C 186.047 5.1181 1.04151 0
M  V30 1941 H 187.741 2.97664 0.321992 0
M  V30 1942 H 185.287 1.4318 0.153434 0
M  V30 1943 H 187.24 3.19366 2.74924 0
M  V30 1944 H 185.964 1.9584 2.6137 0
M  V30 1945 H 184.623 3.48816 1.12796 0
M  V30 1946 H 184.271 3.50893 3.60393 0
M  V30 1947 H 183.971 5.11455 2.89288 0
M  V30 1948 H 185.495 4.80207 3.77139 0
M  V30 1949 H 186.909 5.50214 1.61052 0
M  V30 1950 H 185.306 5.92648 0.942762 0
M  V30 1951 H 186.376 4.84892 0.0279022 0
M  V30 1952 N 187.719 -0.156864 1.56817 0
M  V30 1953 C 188.682 -1.17781 1.96622 0
M  V30 1954 C 189.682 -1.36401 0.851555 0
M  V30 1955 O 190.872 -1.33561 1.11836 0
M  V30 1956 C 188.004 -2.54008 2.27361 0
M  V30 1957 H 189.197 -0.836564 2.87996 0
M  V30 1958 H 186.75 -0.39985 1.51099 0
M  V30 1959 H 187.485 -2.9312 1.38748 0
M  V30 1960 H 187.27 -2.41856 3.08623 0
M  V30 1961 H 188.76 -3.27558 2.59029 0
M  V30 1962 N 189.197 -1.51736 -0.425897 0
M  V30 1963 C 190.446 -1.64201 -1.17136 0
M  V30 1964 C 190.759 -0.369705 -1.92074 0
M  V30 1965 O 191.965 -0.373898 -2.68913 0
M  V30 1966 C 190.421 -2.90035 -2.13091 0
M  V30 1967 C 190.029 -4.24312 -1.43747 0
M  V30 1968 C 191.773 -3.1186 -2.87999 0
M  V30 1969 C 189.68 -5.41285 -2.38253 0
M  V30 1970 H 188.61 -0.611624 -0.440944 0
M  V30 1971 H 191.261 -1.78212 -0.437328 0
M  V30 1972 H 189.643 -2.69684 -2.89977 0
M  V30 1973 H 190.817 -4.55086 -0.723408 0
M  V30 1974 H 189.132 -4.08456 -0.809465 0
M  V30 1975 H 191.729 -3.96427 -3.58817 0
M  V30 1976 H 192.072 -2.25403 -3.49999 0
M  V30 1977 H 192.605 -3.32605 -2.18217 0
M  V30 1978 H 189.344 -6.30037 -1.80925 0
M  V30 1979 H 188.864 -5.14872 -3.0768 0
M  V30 1980 H 190.543 -5.73694 -2.99139 0
M  V30 1981 N 190.675 0.682077 -1.42076 0
M  V30 1982 C 191.638 1.77756 -1.44691 0
M  V30 1983 C 192.638 1.5726 -0.335535 0
M  V30 1984 O 193.828 1.63686 -0.596037 0
M  V30 1985 C 190.96 3.16301 -1.27146 0
M  V30 1986 H 192.153 1.76826 -2.42224 0
M  V30 1987 H 189.706 0.891012 -1.28416 0
M  V30 1988 H 190.441 3.22862 -0.305075 0
M  V30 1989 H 190.226 3.32581 -2.07683 0
M  V30 1990 H 191.716 3.96241 -1.31843 0
M  V30 1991 N 192.153 1.28127 0.917671 0
M  V30 1992 C 193.083 1.14248 2.03641 0
M  V30 1993 C 194.064 0.0412748 1.7005 0
M  V30 1994 O 195.249 0.217566 1.92977 0
M  V30 1995 C 192.379 0.799431 3.37974 0
M  V30 1996 C 191.333 1.85497 3.85713 0
M  V30 1997 C 190.659 1.36565 5.16966 0
M  V30 1998 C 191.959 3.26085 4.08002 0
M  V30 1999 H 193.653 2.07835 2.15511 0
M  V30 2000 H 191.199 1.00064 1.03553 0
M  V30 2001 H 193.152 0.689114 4.15727 0
M  V30 2002 H 191.876 -0.172145 3.26146 0
M  V30 2003 H 190.535 1.95437 3.10161 0
M  V30 2004 H 190.183 0.383253 5.01538 0
M  V30 2005 H 189.883 2.07143 5.49878 0
M  V30 2006 H 191.407 1.26848 5.97279 0
M  V30 2007 H 192.821 3.19089 4.76293 0
M  V30 2008 H 191.218 3.94462 4.52238 0
M  V30 2009 H 192.288 3.70394 3.12948 0
M  V30 2010 N 193.631 -1.12557 1.10312 0
M  V30 2011 C 194.541 -2.21841 0.763142 0
M  V30 2012 C 195.557 -1.72354 -0.238801 0
M  V30 2013 O 196.733 -2.01249 -0.0778746 0
M  V30 2014 C 193.798 -3.46131 0.198632 0
M  V30 2015 C 192.859 -4.10464 1.25769 0
M  V30 2016 C 192.092 -5.28821 0.72002 0
M  V30 2017 O 192.315 -5.6859 -0.453993 0
M  V30 2018 O 191.249 -5.83437 1.47935 0
M  V30 2019 H 195.075 -2.53312 1.67532 0
M  V30 2020 H 192.66 -1.20867 0.878157 0
M  V30 2021 H 194.542 -4.2125 -0.112401 0
M  V30 2022 H 193.217 -3.16338 -0.686419 0
M  V30 2023 H 192.124 -3.3713 1.62156 0
M  V30 2024 H 193.457 -4.44408 2.11571 0
M  V30 2025 N 195.109 -0.891671 -1.2995 0
M  V30 2026 C 196.525 -0.58662 -1.48428 0
M  V30 2027 C 196.725 0.873951 -1.81561 0
M  V30 2028 O 195.781 1.65471 -1.90724 0
M  V30 2029 C 197.094 -1.50553 -2.60296 0
M  V30 2030 C 198.642 -1.50988 -2.74175 0
M  V30 2031 C 199.117 -2.41488 -3.89163 0
M  V30 2032 N 200.608 -2.39489 -3.96483 0
M  V30 2033 C 201.343 -3.06223 -4.84784 0
M  V30 2034 N 200.839 -3.82206 -5.77833 0
M  V30 2035 N 202.632 -2.95421 -4.78208 0
M  V30 2036 H 194.783 -1.83644 -1.06718 0
M  V30 2037 H 197.046 -0.786455 -0.529332 0
M  V30 2038 H 196.752 -2.54581 -2.42654 0
M  V30 2039 H 196.626 -1.22008 -3.56923 0
M  V30 2040 H 199.013 -0.47708 -2.91218 0
M  V30 2041 H 199.094 -1.83567 -1.78148 0
M  V30 2042 H 198.738 -3.44857 -3.72876 0
M  V30 2043 H 198.668 -2.06222 -4.84541 0
M  V30 2044 H 201.159 -1.84278 -3.29924 0
M  V30 2045 H 201.472 -4.302 -6.41988 0
M  V30 2046 H 199.817 -3.86313 -5.77743 0
M  V30 2047 H 203.008 -2.35581 -4.04499 0
M  V30 2048 H 203.181 -3.47704 -5.46814 0
M  V30 2049 N 196.587 1.43421 -0.653314 0
M  V30 2050 C 197.812 2.06678 -0.172846 0
M  V30 2051 C 198.237 1.48648 1.15262 0
M  V30 2052 O 197.595 0.596457 1.71208 0
M  V30 2053 C 197.643 3.60474 -0.0953184 0
M  V30 2054 O 196.747 4.01487 0.942442 0
M  V30 2055 H 196.088 0.657181 -0.0949155 0
M  V30 2056 H 198.618 1.83925 -0.896265 0
M  V30 2057 H 198.628 4.07905 0.0879728 0
M  V30 2058 H 197.303 4.02088 -1.06291 0
M  V30 2059 H 195.88 3.65646 0.731932 0
M  V30 2060 N 198.065 0.39524 1.52563 0
M  V30 2061 C 198.995 -0.428384 2.29537 0
M  V30 2062 C 199.976 -1.05831 1.33169 0
M  V30 2063 O 201.161 -1.06995 1.62067 0
M  V30 2064 C 198.291 -1.55274 3.10656 0
M  V30 2065 C 197.245 -1.04855 4.14957 0
M  V30 2066 C 196.571 -2.26543 4.84337 0
M  V30 2067 C 197.871 -0.112324 5.22179 0
M  V30 2068 H 199.565 0.213867 2.98635 0
M  V30 2069 H 197.111 0.104298 1.43622 0
M  V30 2070 H 199.064 -2.1358 3.63265 0
M  V30 2071 H 197.788 -2.22266 2.39302 0
M  V30 2072 H 196.447 -0.487985 3.63338 0
M  V30 2073 H 196.095 -2.92059 4.09525 0
M  V30 2074 H 195.795 -1.93466 5.54837 0
M  V30 2075 H 197.319 -2.85481 5.39753 0
M  V30 2076 H 198.733 -0.603752 5.70112 0
M  V30 2077 H 197.13 0.128968 5.99961 0
M  V30 2078 H 198.2 0.837052 4.77621 0
M  V30 2079 N 199.544 -1.57102 0.125237 0
M  V30 2080 C 200.772 -1.99761 -0.538797 0
M  V30 2081 C 201.187 -1.00503 -1.59827 0
M  V30 2082 O 200.544 0.00119474 -1.825 0
M  V30 2083 C 200.595 -3.42408 -1.15927 0
M  V30 2084 O 200.316 -4.37869 -0.142143 0
M  V30 2085 C 201.817 -4.00232 -1.90602 0
M  V30 2086 H 199.037 -0.655772 -0.14214 0
M  V30 2087 H 201.581 -2.03383 0.213413 0
M  V30 2088 H 199.736 -3.39706 -1.86223 0
M  V30 2089 H 200.15 -5.21128 -0.593775 0
M  V30 2090 H 201.624 -5.02105 -2.29335 0
M  V30 2091 H 202.101 -3.39721 -2.78363 0
M  V30 2092 H 202.707 -4.06499 -1.25055 0
M  V30 2093 N 201.022 0.148545 -1.56898 0
M  V30 2094 C 201.955 1.21293 -1.93296 0
M  V30 2095 C 202.933 1.41637 -0.798599 0
M  V30 2096 O 204.117 1.56275 -1.05406 0
M  V30 2097 C 201.244 2.5721 -2.20365 0
M  V30 2098 C 200.29 2.53469 -3.4301 0
M  V30 2099 S 201.123 2.00315 -4.96623 0
M  V30 2100 C 202.279 3.37964 -5.26812 0
M  V30 2101 H 202.512 0.902393 -2.83274 0
M  V30 2102 H 200.045 0.354094 -1.50285 0
M  V30 2103 H 202.003 3.35427 -2.36641 0
M  V30 2104 H 200.664 2.85454 -1.31054 0
M  V30 2105 H 199.857 3.53518 -3.59223 0
M  V30 2106 H 199.459 1.83359 -3.25968 0
M  V30 2107 H 201.751 4.34066 -5.20185 0
M  V30 2108 H 202.694 3.26606 -6.28279 0
M  V30 2109 H 203.102 3.35028 -4.54331 0
M  V30 2110 N 202.5 1.5196 0.417844 0
M  V30 2111 C 203.463 1.74065 1.49111 0
M  V30 2112 C 204.463 0.610537 1.48758 0
M  V30 2113 O 205.653 0.87832 1.50437 0
M  V30 2114 C 202.785 1.81502 2.88565 0
M  V30 2115 H 203.978 2.69869 1.30807 0
M  V30 2116 H 201.531 1.42244 0.647785 0
M  V30 2117 H 202.266 0.875813 3.1225 0
M  V30 2118 H 202.051 2.63651 2.90225 0
M  V30 2119 H 203.541 2.00376 3.66387 0
M  V30 2120 N 203.978 -0.674533 1.42435 0
M  V30 2121 C 205.394 -0.98769 1.25367 0
M  V30 2122 C 205.594 -2.00879 0.158044 0
M  V30 2123 O 204.65 -2.48075 -0.470633 0
M  V30 2124 C 205.963 -1.49224 2.6106 0
M  V30 2125 C 207.511 -1.61 2.68417 0
M  V30 2126 C 207.986 -2.14852 4.04478 0
M  V30 2127 N 209.477 -2.22185 4.06434 0
M  V30 2128 C 210.212 -2.64928 5.08528 0
M  V30 2129 N 209.708 -3.07121 6.21006 0
M  V30 2130 N 211.501 -2.64679 4.95885 0
M  V30 2131 H 203.652 0.00152503 2.124 0
M  V30 2132 H 205.915 -0.0618434 0.945981 0
M  V30 2133 H 205.621 -0.816453 3.42092 0
M  V30 2134 H 205.495 -2.47094 2.84999 0
M  V30 2135 H 207.882 -2.27686 1.87732 0
M  V30 2136 H 207.963 -0.616195 2.48267 0
M  V30 2137 H 207.607 -1.48775 4.85622 0
M  V30 2138 H 207.537 -3.15024 4.2198 0
M  V30 2139 H 210.028 -1.92435 3.25234 0
M  V30 2140 H 210.341 -3.38423 6.94759 0
M  V30 2141 H 208.686 -3.04978 6.24511 0
M  V30 2142 H 211.877 -2.31078 4.07088 0
M  V30 2143 H 212.05 -2.9767 5.75584 0
M  V30 2144 N 205.456 -1.28612 -0.910864 0
M  V30 2145 C 206.872 -1.06381 -1.18976 0
M  V30 2146 C 207.072 0.191998 -2.00583 0
M  V30 2147 O 206.128 0.892869 -2.36187 0
M  V30 2148 C 207.441 -2.31295 -1.92154 0
M  V30 2149 C 208.989 -2.36503 -2.05025 0
M  V30 2150 C 209.464 -3.61191 -2.81612 0
M  V30 2151 N 210.955 -3.61847 -2.89172 0
M  V30 2152 C 211.69 -4.55004 -3.4894 0
M  V30 2153 N 211.186 -5.58482 -4.09963 0
M  V30 2154 N 212.979 -4.42594 -3.46506 0
M  V30 2155 H 205.13 -2.09221 -0.366094 0
M  V30 2156 H 207.393 -0.921003 -0.224629 0
M  V30 2157 H 207.099 -3.228 -1.39618 0
M  V30 2158 H 206.973 -2.37934 -2.9269 0
M  V30 2159 H 209.36 -1.45494 -2.5674 0
M  V30 2160 H 209.441 -2.33857 -1.03657 0
M  V30 2161 H 209.085 -4.52545 -2.30576 0
M  V30 2162 H 209.015 -3.61092 -3.83302 0
M  V30 2163 H 211.506 -2.87022 -2.45819 0
M  V30 2164 H 211.819 -6.25704 -4.53557 0
M  V30 2165 H 210.164 -5.62305 -4.08459 0
M  V30 2166 H 213.355 -3.60953 -2.98045 0
M  V30 2167 H 213.528 -5.15381 -3.92793 0
M  V30 2168 N 206.934 1.1197 -1.10907 0
M  V30 2169 C 208.182 1.83225 -0.852819 0
M  V30 2170 C 208.503 1.84769 0.623341 0
M  V30 2171 O 207.773 1.3143 1.45269 0
M  V30 2172 H 206.353 0.67849 -0.312507 0
M  V30 2173 H 209.015 1.3556 -1.40033 0
M  V30 2174 H 208.111 2.87265 -1.22005 0
M  V30 2175 N 208.412 0.89855 1.29475 0
M  V30 2176 C 209.823 0.572537 1.77705 0
M  V30 2177 C 210.174 -0.911778 1.73727 0
M  V30 2178 O 209.299 -1.71288 1.32247 0
M  V30 2179 C 209.894 1.03252 3.22683 0
M  V30 2180 C 208.453 0.757687 3.68695 0
M  V30 2181 C 207.6 1.20787 2.49612 0
M  V30 2182 H 210.551 1.08139 1.16153 0
M  V30 2183 H 210.572 0.367307 3.78723 0
M  V30 2184 H 210.084 2.11285 3.25546 0
M  V30 2185 H 208.185 -0.310079 3.71308 0
M  V30 2186 H 208.298 1.35476 4.59547 0
M  V30 2187 H 206.662 0.626888 2.46865 0
M  V30 2188 H 207.445 2.29622 2.55203 0
M  V30 2189 N 209.89 -1.43072 0.660911 0
M  V30 2190 C 210.853 -2.29194 -0.0166406 0
M  V30 2191 C 211.853 -1.42609 -0.742912 0
M  V30 2192 O 213.043 -1.64155 -0.583004 0
M  V30 2193 C 210.175 -3.24831 -1.0343 0
M  V30 2194 H 211.368 -2.90596 0.741208 0
M  V30 2195 H 208.921 -1.5048 0.422532 0
M  V30 2196 H 209.656 -2.68339 -1.82111 0
M  V30 2197 H 209.441 -3.88676 -0.517082 0
M  V30 2198 H 210.931 -3.89451 -1.50723 0
M  V30 2199 N 211.368 -0.403325 -1.52352 0
M  V30 2200 C 212.779 0.0675782 -1.86578 0
M  V30 2201 C 213.13 1.44941 -1.32236 0
M  V30 2202 O 212.255 2.06112 -0.659307 0
M  V30 2203 C 212.85 0.129404 -3.38553 0
M  V30 2204 C 211.409 0.544629 -3.72439 0
M  V30 2205 C 210.556 -0.284551 -2.75836 0
M  V30 2206 H 213.507 -0.620631 -1.46061 0
M  V30 2207 H 213.528 0.94581 -3.68558 0
M  V30 2208 H 213.04 -0.87645 -3.78074 0
M  V30 2209 H 211.141 1.55734 -3.38493 0
M  V30 2210 H 211.254 0.293046 -4.78203 0
M  V30 2211 H 209.618 0.252258 -2.53448 0
M  V30 2212 H 210.401 -1.28865 -3.18196 0
M  V30 2213 N 212.846 1.57033 -0.133567 0
M  V30 2214 C 214.092 1.95976 0.521649 0
M  V30 2215 C 214.425 1.01779 1.65393 0
M  V30 2216 O 213.7 0.0576581 1.94415 0
M  V30 2217 C 213.983 3.44738 1.04057 0
M  V30 2218 C 213.836 4.49711 -0.0892897 0
M  V30 2219 C 215.155 3.95682 1.92675 0
M  V30 2220 H 212.274 0.712579 0.188149 0
M  V30 2221 H 214.916 1.88813 -0.212076 0
M  V30 2222 H 213.066 3.50973 1.66583 0
M  V30 2223 H 214.738 4.55565 -0.725152 0
M  V30 2224 H 212.981 4.27261 -0.750378 0
M  V30 2225 H 213.652 5.51099 0.315284 0
M  V30 2226 H 216.128 3.91841 1.39998 0
M  V30 2227 H 215.004 5.00262 2.25897 0
M  V30 2228 H 215.265 3.37239 2.85872 0
M  V30 2229 N 214.325 -0.140222 1.56975 0
M  V30 2230 C 215.55 -0.870414 1.88251 0
M  V30 2231 C 215.975 -1.73637 0.723312 0
M  V30 2232 O 215.333 -1.78329 -0.32689 0
M  V30 2233 C 215.381 -1.69737 3.18154 0
M  V30 2234 O 214.485 -2.80229 3.02565 0
M  V30 2235 H 213.826 -0.242025 0.61832 0
M  V30 2236 H 216.356 -0.128999 2.04193 0
M  V30 2237 H 216.366 -2.09099 3.50345 0
M  V30 2238 H 215.041 -1.06152 4.02125 0
M  V30 2239 H 213.618 -2.44224 2.81796 0
M  V30 2240 N 215.803 -1.52179 -0.40978 0
M  V30 2241 C 217.028 -1.70347 -1.18308 0
M  V30 2242 C 217.453 -0.411887 -1.83535 0
M  V30 2243 O 216.811 0.630587 -1.6998 0
M  V30 2244 C 216.859 -2.83977 -2.22238 0
M  V30 2245 O 215.963 -2.495 -3.28365 0
M  V30 2246 H 215.304 -0.567103 -0.345384 0
M  V30 2247 H 217.834 -1.98879 -0.480445 0
M  V30 2248 H 217.844 -3.0887 -2.66577 0
M  V30 2249 H 216.519 -3.77685 -1.74146 0
M  V30 2250 H 215.096 -2.35277 -2.89308 0
M  V30 2251 N 217.281 0.66697 -1.42791 0
M  V30 2252 C 218.697 0.981027 -1.25889 0
M  V30 2253 C 218.897 2.00793 -0.168695 0
M  V30 2254 O 217.953 2.48321 0.45747 0
M  V30 2255 C 219.266 1.47838 -2.61848 0
M  V30 2256 C 220.814 1.59575 -2.69267 0
M  V30 2257 C 221.289 2.12704 -4.05612 0
M  V30 2258 N 222.78 2.20026 -4.07606 0
M  V30 2259 C 223.515 2.62227 -5.09926 0
M  V30 2260 N 223.011 3.03824 -6.22626 0
M  V30 2261 N 224.804 2.62045 -4.97281 0
M  V30 2262 H 216.955 -0.0127891 -2.12396 0
M  V30 2263 H 219.218 0.0568258 -0.946295 0
M  V30 2264 H 218.924 0.798299 -3.4252 0
M  V30 2265 H 218.798 2.45579 -2.86305 0
M  V30 2266 H 221.185 2.26687 -1.88936 0
M  V30 2267 H 221.266 0.60302 -2.48591 0
M  V30 2268 H 220.91 1.46198 -4.86404 0
M  V30 2269 H 220.84 3.12782 -4.23645 0
M  V30 2270 H 223.331 1.90708 -3.2625 0
M  V30 2271 H 223.644 3.34734 -6.96544 0
M  V30 2272 H 221.989 3.01662 -6.26119 0
M  V30 2273 H 225.18 2.28916 -4.08308 0
M  V30 2274 H 225.353 2.94613 -5.77154 0
M  V30 2275 N 218.759 1.29093 0.90403 0
M  V30 2276 C 220.007 1.16583 1.65085 0
M  V30 2277 C 220.328 -0.283933 1.92922 0
M  V30 2278 O 219.598 -1.19509 1.55224 0
M  V30 2279 H 218.178 0.428467 0.611903 0
M  V30 2280 H 220.84 1.61959 1.08422 0
M  V30 2281 H 219.936 1.71266 2.6091 0
M  V30 2282 N 220.237 -1.11381 1.11499 0
M  V30 2283 C 221.653 -1.35143 0.849031 0
M  V30 2284 C 221.853 -1.94515 -0.525938 0
M  V30 2285 O 220.909 -2.1785 -1.27662 0
M  V30 2286 C 222.222 -2.28249 1.95762 0
M  V30 2287 C 223.77 -2.41812 1.98736 0
M  V30 2288 C 224.245 -3.3824 3.088 0
M  V30 2289 N 225.736 -3.45803 3.08179 0
M  V30 2290 C 226.471 -4.20358 3.89982 0
M  V30 2291 N 225.967 -4.97884 4.8175 0
M  V30 2292 N 227.76 -4.15877 3.78157 0
M  V30 2293 H 219.911 -0.712062 2.00109 0
M  V30 2294 H 222.174 -0.376025 0.870235 0
M  V30 2295 H 221.88 -1.91817 2.94787 0
M  V30 2296 H 221.754 -3.28473 1.85433 0
M  V30 2297 H 224.141 -2.77518 1.00338 0
M  V30 2298 H 224.222 -1.41437 2.13141 0
M  V30 2299 H 223.866 -3.03261 4.07425 0
M  V30 2300 H 223.796 -4.38471 2.91635 0
M  V30 2301 H 226.287 -2.90506 2.41691 0
M  V30 2302 H 226.6 -5.52142 5.40702 0
M  V30 2303 H 224.945 -4.97043 4.85771 0
M  V30 2304 H 228.136 -3.544 3.05808 0
M  V30 2305 H 228.309 -4.73723 4.42143 0
M  V30 2306 N 221.715 -0.905404 -1.28997 0
M  V30 2307 C 222.943 -0.549846 -1.9946 0
M  V30 2308 C 223.358 0.866834 -1.67724 0
M  V30 2309 O 222.715 1.57298 -0.925404 0
M  V30 2310 C 222.766 -0.739387 -3.53858 0
M  V30 2311 O 222.487 -2.10031 -3.84472 0
M  V30 2312 C 223.988 -0.389541 -4.41585 0
M  V30 2313 H 221.208 -0.210429 -0.637151 0
M  V30 2314 H 223.752 -1.21632 -1.64396 0
M  V30 2315 H 221.907 -0.120023 -3.87214 0
M  V30 2316 H 222.321 -2.13385 -4.79132 0
M  V30 2317 H 223.795 -0.572972 -5.49018 0
M  V30 2318 H 224.272 0.673756 -4.34001 0
M  V30 2319 H 224.878 -0.986089 -4.1371 0
M  V30 2320 N 223.193 1.4272 -0.668489 0
M  V30 2321 C 224.123 2.335 -0.000100175 0
M  V30 2322 C 225.104 1.50328 0.795964 0
M  V30 2323 O 226.289 1.78949 0.754385 0
M  V30 2324 C 223.419 3.33874 0.956302 0
M  V30 2325 C 222.373 4.27152 0.269278 0
M  V30 2326 C 221.699 5.17684 1.33818 0
M  V30 2327 C 222.999 5.15373 -0.847805 0
M  V30 2328 H 224.693 2.89639 -0.758244 0
M  V30 2329 H 222.239 1.39269 -0.366079 0
M  V30 2330 H 224.192 3.9629 1.43292 0
M  V30 2331 H 222.916 2.76025 1.74579 0
M  V30 2332 H 221.575 3.66123 -0.187042 0
M  V30 2333 H 221.223 4.56165 2.1195 0
M  V30 2334 H 220.923 5.80918 0.883659 0
M  V30 2335 H 222.447 5.82974 1.81586 0
M  V30 2336 H 223.861 5.7151 -0.452681 0
M  V30 2337 H 222.258 5.87407 -1.22773 0
M  V30 2338 H 223.328 4.5415 -1.69929 0
M  V30 2339 N 224.671 0.411399 1.52136 0
M  V30 2340 C 225.634 -0.401089 2.25663 0
M  V30 2341 C 226.634 -0.971732 1.28117 0
M  V30 2342 O 227.824 -0.850254 1.52041 0
M  V30 2343 C 224.956 -1.56483 3.02863 0
M  V30 2344 H 226.149 0.24295 2.98914 0
M  V30 2345 H 223.702 0.163968 1.55438 0
M  V30 2346 H 224.437 -2.24567 2.33967 0
M  V30 2347 H 224.222 -1.16211 3.74483 0
M  V30 2348 H 225.712 -2.13951 3.58629 0
M  V30 2349 N 226.149 -1.5696 0.141893 0
M  V30 2350 C 227.082 -2.12271 -0.837627 0
M  V30 2351 C 228.06 -1.04495 -1.24578 0
M  V30 2352 O 229.244 -1.32293 -1.34278 0
M  V30 2353 C 226.371 -2.63822 -2.12404 0
M  V30 2354 C 225.417 -3.83698 -1.86221 0
M  V30 2355 S 226.25 -5.24948 -1.05781 0
M  V30 2356 C 227.406 -5.79884 -2.35552 0
M  V30 2357 H 227.639 -2.95023 -0.367249 0
M  V30 2358 H 225.172 -1.54231 -0.0723014 0
M  V30 2359 H 227.13 -2.94175 -2.86307 0
M  V30 2360 H 225.791 -1.8121 -2.56557 0
M  V30 2361 H 224.984 -4.17995 -2.81596 0
M  V30 2362 H 224.586 -3.5408 -1.20429 0
M  V30 2363 H 226.878 -5.91005 -3.31239 0
M  V30 2364 H 227.821 -6.77544 -2.05767 0
M  V30 2365 H 228.229 -5.08095 -2.45967 0
M  V30 2366 N 227.627 0.131896 -1.57047 0
M  V30 2367 C 228.59 1.14638 -1.98471 0
M  V30 2368 C 229.59 1.35029 -0.873148 0
M  V30 2369 O 230.78 1.31764 -1.13946 0
M  V30 2370 C 227.912 2.50358 -2.31373 0
M  V30 2371 H 229.105 0.79064 -2.8929 0
M  V30 2372 H 226.658 0.375761 -1.51716 0
M  V30 2373 H 227.393 2.90876 -1.43393 0
M  V30 2374 H 227.178 2.36915 -3.12432 0
M  V30 2375 H 228.668 3.23395 -2.64207 0
M  V30 2376 N 229.106 1.52395 0.401703 0
M  V30 2377 C 230.069 1.75636 1.47257 0
M  V30 2378 C 231.069 0.62628 1.48103 0
M  V30 2379 O 232.259 0.894227 1.49497 0
M  V30 2380 C 229.391 1.84553 2.86624 0
M  V30 2381 H 230.584 2.71241 1.27938 0
M  V30 2382 H 228.137 1.42923 0.632662 0
M  V30 2383 H 228.872 0.908882 3.11303 0
M  V30 2384 H 228.657 2.66715 2.87412 0
M  V30 2385 H 230.147 2.04251 3.64241 0
M  V30 2386 N 230.584 -0.659388 1.43143 0
M  V30 2387 C 231.547 -1.75432 1.47501 0
M  V30 2388 C 232.547 -1.56707 0.360512 0
M  V30 2389 O 233.737 -1.62717 0.622002 0
M  V30 2390 C 230.869 -3.14239 1.32162 0
M  V30 2391 H 232.062 -1.7295 2.45006 0
M  V30 2392 H 229.615 -0.870469 1.29817 0
M  V30 2393 H 230.35 -3.22336 0.356401 0
M  V30 2394 H 230.135 -3.29235 2.12948 0
M  V30 2395 H 231.625 -3.94094 1.3813 0
M  V30 2396 N 232.062 -1.29571 -0.897171 0
M  V30 2397 C 233.025 -1.14913 -1.98312 0
M  V30 2398 C 234.025 -0.0838629 -1.60581 0
M  V30 2399 O 235.215 -0.331006 -1.71026 0
M  V30 2400 C 232.347 -0.757835 -3.3237 0
M  V30 2401 H 233.54 -2.11377 -2.12743 0
M  V30 2402 H 231.093 -1.12793 -1.08201 0
M  V30 2403 H 231.828 0.206837 -3.2364 0
M  V30 2404 H 231.613 -1.52755 -3.61121 0
M  V30 2405 H 233.103 -0.678408 -4.12053 0
M  V30 2406 N 233.54 1.10788 -1.12088 0
M  V30 2407 C 234.786 1.8313 -0.885148 0
M  V30 2408 C 235.141 1.8336 0.582839 0
M  V30 2409 O 234.434 1.28062 1.42516 0
M  V30 2410 C 234.628 3.29294 -1.38926 0
M  V30 2411 C 234.457 3.43302 -2.90472 0
M  V30 2412 C 233.227 3.55928 -3.58669 0
M  V30 2413 C 235.425 3.37014 -3.88492 0
M  V30 2414 N 233.407 3.58475 -4.98366 0
M  V30 2415 C 234.778 3.46263 -5.14298 0
M  V30 2416 C 236.833 3.20589 -3.80955 0
M  V30 2417 C 235.536 3.4078 -6.33452 0
M  V30 2418 C 237.562 3.16427 -4.99628 0
M  V30 2419 C 236.924 3.26253 -6.2429 0
M  V30 2420 H 233.023 0.685054 -0.377128 0
M  V30 2421 H 235.607 1.3251 -1.4265 0
M  V30 2422 H 233.778 3.78416 -0.874999 0
M  V30 2423 H 235.51 3.89578 -1.09596 0
M  V30 2424 H 232.265 3.58779 -3.09151 0
M  V30 2425 H 232.689 3.6337 -5.71219 0
M  V30 2426 H 237.331 3.11873 -2.85474 0
M  V30 2427 H 235.049 3.48263 -7.29204 0
M  V30 2428 H 238.635 3.04874 -4.95523 0
M  V30 2429 H 237.515 3.2303 -7.14578 0
M  V30 2430 N 235.018 0.912232 1.28515 0
M  V30 2431 C 236.266 0.543523 1.94654 0
M  V30 2432 C 236.587 -0.9155 1.72173 0
M  V30 2433 O 235.857 -1.64708 1.06058 0
M  V30 2434 H 234.437 0.198017 0.720277 0
M  V30 2435 H 237.099 1.16126 1.56527 0
M  V30 2436 H 236.195 0.736684 3.03281 0
M  V30 2437 N 236.496 -1.42363 0.676048 0
M  V30 2438 C 237.742 -2.0182 0.199125 0
M  V30 2439 C 238.075 -1.53339 -1.19168 0
M  V30 2440 O 237.35 -0.736124 -1.80032 0
M  V30 2441 C 237.633 -3.59331 0.235144 0
M  V30 2442 C 237.486 -4.17989 1.66149 0
M  V30 2443 C 238.805 -4.3813 -0.41595 0
M  V30 2444 H 235.924 -0.733293 0.0738311 0
M  V30 2445 H 238.566 -1.69368 0.86107 0
M  V30 2446 H 236.716 -3.87109 -0.328487 0
M  V30 2447 H 238.388 -4.0116 2.27747 0
M  V30 2448 H 236.631 -3.7377 2.20178 0
M  V30 2449 H 237.302 -5.27126 1.63837 0
M  V30 2450 H 239.778 -4.16051 0.0638529 0
M  V30 2451 H 238.654 -5.47717 -0.360115 0
M  V30 2452 H 238.915 -4.16101 -1.49373 0
M  V30 2453 N 237.974 -0.419461 -1.51915 0
M  V30 2454 C 239.199 0.154572 -2.06823 0
M  V30 2455 C 239.624 1.3722 -1.28656 0
M  V30 2456 O 238.982 1.78461 -0.319583 0
M  V30 2457 C 239.03 0.473172 -3.57482 0
M  V30 2458 O 238.134 1.56255 -3.81652 0
M  V30 2459 H 237.475 0.0096924 -0.663929 0
M  V30 2460 H 240.005 -0.595642 -1.95738 0
M  V30 2461 H 240.015 0.728825 -4.01438 0
M  V30 2462 H 238.69 -0.416873 -4.13805 0
M  V30 2463 H 237.267 1.29825 -3.49571 0
M  V30 2464 N 239.452 1.56882 -0.150215 0
M  V30 2465 C 240.382 2.19935 0.784284 0
M  V30 2466 C 241.363 1.14854 1.25469 0
M  V30 2467 O 242.548 1.43209 1.31168 0
M  V30 2468 C 239.678 2.82349 2.02229 0
M  V30 2469 C 238.632 3.93285 1.68853 0
M  V30 2470 C 237.958 4.42649 2.99944 0
M  V30 2471 C 239.258 5.13904 0.932714 0
M  V30 2472 H 240.952 2.9828 0.258781 0
M  V30 2473 H 238.498 1.43473 0.123029 0
M  V30 2474 H 240.451 3.25126 2.68088 0
M  V30 2475 H 239.175 2.0134 2.57157 0
M  V30 2476 H 237.834 3.5113 1.05371 0
M  V30 2477 H 237.482 3.58458 3.52869 0
M  V30 2478 H 237.182 5.17476 2.78374 0
M  V30 2479 H 238.706 4.88099 3.66868 0
M  V30 2480 H 240.12 5.53506 1.49345 0
M  V30 2481 H 238.517 5.94515 0.81684 0
M  V30 2482 H 239.587 4.84842 -0.0749568 0
M  V30 2483 N 240.93 -0.123565 1.57115 0
M  V30 2484 C 241.86 -1.15309 2.03042 0
M  V30 2485 C 242.841 -1.43454 0.914061 0
M  V30 2486 O 244.026 -1.53973 1.18347 0
M  V30 2487 C 241.156 -2.48043 2.43089 0
M  V30 2488 C 240.11 -2.3437 3.58127 0
M  V30 2489 C 239.436 -3.72026 3.84059 0
M  V30 2490 C 240.736 -1.80804 4.90007 0
M  V30 2491 H 242.43 -0.771102 2.893 0
M  V30 2492 H 239.976 -0.369479 1.39179 0
M  V30 2493 H 241.929 -3.20311 2.73823 0
M  V30 2494 H 240.653 -2.88122 1.53796 0
M  V30 2495 H 239.312 -1.64551 3.27595 0
M  V30 2496 H 238.96 -4.09582 2.91979 0
M  V30 2497 H 238.66 -3.63732 4.6149 0
M  V30 2498 H 240.184 -4.45806 4.1724 0
M  V30 2499 H 241.598 -2.42886 5.19307 0
M  V30 2500 H 239.995 -1.83343 5.71407 0
M  V30 2501 H 241.065 -0.76528 4.78823 0
M  V30 2502 N 242.408 -1.52605 -0.393616 0
M  V30 2503 C 243.338 -1.80022 -1.48709 0
M  V30 2504 C 244.319 -0.651995 -1.57108 0
M  V30 2505 O 245.504 -0.89913 -1.72132 0
M  V30 2506 C 242.634 -1.96492 -2.86371 0
M  V30 2507 C 241.588 -3.12161 -2.92813 0
M  V30 2508 C 240.914 -3.13877 -4.3288 0
M  V30 2509 C 242.214 -4.51322 -2.6288 0
M  V30 2510 H 243.908 -2.71589 -1.26015 0
M  V30 2511 H 241.454 -1.30684 -0.604778 0
M  V30 2512 H 243.407 -2.14255 -3.62867 0
M  V30 2513 H 242.131 -1.01611 -3.10391 0
M  V30 2514 H 240.79 -2.94173 -2.18764 0
M  V30 2515 H 240.438 -2.16687 -4.53933 0
M  V30 2516 H 240.138 -3.91576 -4.38112 0
M  V30 2517 H 241.662 -3.33789 -5.1129 0
M  V30 2518 H 243.076 -4.69435 -3.29096 0
M  V30 2519 H 241.473 -5.31053 -2.79468 0
M  V30 2520 H 242.543 -4.58353 -1.58242 0
M  V30 2521 N 243.887 0.651787 -1.4349 0
M  V30 2522 C 245.135 1.40888 -1.44897 0
M  V30 2523 C 245.456 1.94856 -0.0749086 0
M  V30 2524 O 244.726 1.74518 0.889956 0
M  V30 2525 H 243.306 0.522887 -0.533478 0
M  V30 2526 H 245.968 0.768609 -1.79104 0
M  V30 2527 H 245.064 2.25052 -2.16236 0
M  V30 2528 N 245.365 1.30045 0.890287 0
M  V30 2529 C 246.295 1.18541 2.01172 0
M  V30 2530 C 247.276 0.0773356 1.69924 0
M  V30 2531 O 248.461 0.25845 1.92473 0
M  V30 2532 C 245.591 0.870941 3.36202 0
M  V30 2533 C 244.545 1.93637 3.81692 0
M  V30 2534 C 243.871 1.475 5.13953 0
M  V30 2535 C 245.171 3.34666 4.00994 0
M  V30 2536 H 246.865 2.12359 2.11054 0
M  V30 2537 H 244.411 1.02238 1.01407 0
M  V30 2538 H 246.364 0.777141 4.14172 0
M  V30 2539 H 245.088 -0.102926 3.26438 0
M  V30 2540 H 243.747 2.01972 3.05946 0
M  V30 2541 H 243.395 0.489551 5.00612 0
M  V30 2542 H 243.095 2.1876 5.4536 0
M  V30 2543 H 244.619 1.39489 5.94454 0
M  V30 2544 H 246.033 3.2912 4.69417 0
M  V30 2545 H 244.43 4.03966 4.43769 0
M  V30 2546 H 245.5 3.76949 3.05021 0
M  V30 2547 N 246.843 -1.10192 1.12674 0
M  V30 2548 C 247.773 -2.18652 0.819362 0
M  V30 2549 C 248.754 -1.68698 -0.217915 0
M  V30 2550 O 249.939 -1.94041 -0.0785581 0
M  V30 2551 C 247.069 -3.46202 0.27594 0
M  V30 2552 C 246.023 -4.09444 1.24656 0
M  V30 2553 C 245.349 -5.31725 0.563258 0
M  V30 2554 C 246.649 -4.52863 2.60217 0
M  V30 2555 H 248.343 -2.44622 1.72628 0
M  V30 2556 H 245.889 -1.17571 0.831451 0
M  V30 2557 H 247.842 -4.21372 0.0486149 0
M  V30 2558 H 246.566 -3.1973 -0.666331 0
M  V30 2559 H 245.225 -3.36284 1.45974 0
M  V30 2560 H 244.873 -5.0153 -0.384235 0
M  V30 2561 H 244.573 -5.74991 1.21075 0
M  V30 2562 H 246.097 -6.09624 0.34503 0
M  V30 2563 H 247.511 -5.19294 2.42913 0
M  V30 2564 H 245.908 -5.06986 3.21068 0
M  V30 2565 H 246.978 -3.65656 3.18471 0
M  V30 2566 N 248.321 -0.919034 -1.28029 0
M  V30 2567 C 249.732 -0.600735 -1.76771 0
M  V30 2568 C 250.083 0.884024 -1.75156 0
M  V30 2569 O 249.208 1.69163 -1.34956 0
M  V30 2570 C 249.803 -1.08372 -3.21 0
M  V30 2571 C 248.362 -0.816248 -3.67443 0
M  V30 2572 C 247.509 -1.24742 -2.47658 0
M  V30 2573 H 250.46 -1.09974 -1.14418 0
M  V30 2574 H 250.481 -0.427512 -3.78091 0
M  V30 2575 H 249.993 -2.16437 -3.22144 0
M  V30 2576 H 248.094 0.250968 -3.71754 0
M  V30 2577 H 248.207 -1.4277 -4.57333 0
M  V30 2578 H 246.571 -0.666083 -2.45836 0
M  V30 2579 H 247.354 -2.33653 -2.51518 0
M  V30 2580 N 249.799 1.42003 -0.683588 0
M  V30 2581 C 250.762 2.29191 -0.0198243 0
M  V30 2582 C 251.762 1.43773 0.72013 0
M  V30 2583 O 252.952 1.65061 0.556815 0
M  V30 2584 C 250.084 3.26435 0.982487 0
M  V30 2585 H 251.277 2.8938 -0.787345 0
M  V30 2586 H 248.83 1.49789 -0.446418 0
M  V30 2587 H 249.565 2.71203 1.77819 0
M  V30 2588 H 249.35 3.89449 0.455182 0
M  V30 2589 H 250.84 3.918 1.44508 0
M  V30 2590 N 251.277 0.427512 1.51691 0
M  V30 2591 C 252.207 -0.3796 2.30394 0
M  V30 2592 C 253.188 -1.02982 1.35384 0
M  V30 2593 O 254.373 -1.03534 1.643 0
M  V30 2594 C 251.503 -1.48649 3.1388 0
M  V30 2595 C 250.457 -0.960294 4.17088 0
M  V30 2596 C 249.783 -2.16219 4.89033 0
M  V30 2597 C 251.083 -0.00153679 5.223 0
M  V30 2598 H 252.777 0.277164 2.98114 0
M  V30 2599 H 250.323 0.134739 1.43368 0
M  V30 2600 H 252.276 -2.05826 3.67714 0
M  V30 2601 H 251 -2.1714 2.43962 0
M  V30 2602 H 249.659 -0.410806 3.64291 0
M  V30 2603 H 249.307 -2.83307 4.15628 0
M  V30 2604 H 249.007 -1.81654 5.58816 0
M  V30 2605 H 250.531 -2.73968 5.45687 0
M  V30 2606 H 251.945 -0.482687 5.71264 0
M  V30 2607 H 250.342 0.256199 5.99553 0
M  V30 2608 H 251.412 0.938174 4.75738 0
M  V30 2609 N 252.755 -1.56801 0.158532 0
M  V30 2610 C 254.003 -1.96102 -0.488712 0
M  V30 2611 C 254.324 -1.04498 -1.64636 0
M  V30 2612 O 253.594 -0.108783 -1.95598 0
M  V30 2613 H 252.174 -0.724102 -0.183535 0
M  V30 2614 H 254.836 -1.93457 0.236728 0
M  V30 2615 H 253.932 -3.00097 -0.857219 0
M  V30 2616 N 254.233 0.115231 -1.57178 0
M  V30 2617 C 255.479 0.818565 -1.86202 0
M  V30 2618 C 255.834 1.77316 -0.746785 0
M  V30 2619 O 255.127 1.89923 0.25291 0
M  V30 2620 C 255.321 1.60324 -3.19423 0
M  V30 2621 C 255.15 0.726138 -4.43799 0
M  V30 2622 C 253.92 0.379535 -5.03873 0
M  V30 2623 C 256.118 0.0420774 -5.14283 0
M  V30 2624 N 254.1 -0.507841 -6.11796 0
M  V30 2625 C 255.471 -0.704152 -6.15988 0
M  V30 2626 C 257.526 -0.0339486 -4.97888 0
M  V30 2627 C 256.229 -1.51927 -7.03072 0
M  V30 2628 C 258.255 -0.835906 -5.85463 0
M  V30 2629 C 257.617 -1.57031 -6.86673 0
M  V30 2630 H 253.716 0.276343 -0.731545 0
M  V30 2631 H 256.3 0.0821032 -1.94527 0
M  V30 2632 H 254.471 2.31072 -3.12186 0
M  V30 2633 H 256.203 2.2522 -3.36241 0
M  V30 2634 H 252.958 0.722634 -4.68054 0
M  V30 2635 H 253.382 -0.94349 -6.70393 0
M  V30 2636 H 258.024 0.519496 -4.19596 0
M  V30 2637 H 255.742 -2.08386 -7.80769 0
M  V30 2638 H 259.328 -0.89714 -5.74841 0
M  V30 2639 H 258.208 -2.18088 -7.53264 0
M  V30 2640 N 255.711 1.52812 0.385517 0
M  V30 2641 C 256.659 1.78482 1.49155 0
M  V30 2642 C 257.653 0.652914 1.56312 0
M  V30 2643 O 258.859 0.835464 1.59436 0
M  V30 2644 H 255.234 0.5648 0.496493 0
M  V30 2645 H 257.205 2.71095 1.24699 0
M  V30 2646 C 255.954 1.97378 2.86247 0
M  V30 2647 H 255.277 2.83907 2.81491 0
M  V30 2648 H 256.717 2.19327 3.62866 0
M  V30 2649 C 255.176 0.74728 3.28508 0
M  V30 2650 O 255.706 -0.0736232 4.01633 0
M  V30 2651 N 253.912 0.576396 2.84826 0
M  V30 2652 H 253.459 1.24555 2.25486 0
M  V30 2653 H 253.417 -0.24288 3.1346 0
M  V30 2654 N 257.189 -0.644168 1.43834 0
M  V30 2655 C 258.429 -1.41565 1.47441 0
M  V30 2656 C 258.793 -1.91743 0.0992723 0
M  V30 2657 O 259.994 -2.68798 0.0100192 0
M  V30 2658 C 258.265 -2.55902 2.49498 0
M  V30 2659 S 259.824 -3.44287 2.72051 0
M  V30 2660 H 256.642 -0.483118 0.521649 0
M  V30 2661 H 259.244 -0.747008 1.80666 0
M  V30 2662 H 257.948 -2.17327 3.48134 0
M  V30 2663 H 257.479 -3.27607 2.17801 0
M  V30 2664 H 259.494 -4.52927 2.0266 0
M  V30 2665 N 258.668 -1.30515 -0.883378 0
M  V30 2666 C 259.598 -1.19607 -2.00541 0
M  V30 2667 C 260.579 -0.086346 -1.69881 0
M  V30 2668 O 261.764 -0.268654 -1.92333 0
M  V30 2669 C 258.894 -0.888758 -3.35736 0
M  V30 2670 C 257.848 -1.95659 -3.8066 0
M  V30 2671 C 257.174 -1.50224 -5.13164 0
M  V30 2672 C 258.474 -3.36788 -3.99213 0
M  V30 2673 H 260.168 -2.13476 -2.09925 0
M  V30 2674 H 257.714 -1.02775 -1.00863 0
M  V30 2675 H 259.667 -0.799094 -4.13754 0
M  V30 2676 H 258.391 0.0856125 -3.26488 0
M  V30 2677 H 257.05 -2.03591 -3.04871 0
M  V30 2678 H 256.698 -0.516092 -5.00345 0
M  V30 2679 H 256.398 -2.2165 -5.44192 0
M  V30 2680 H 257.922 -1.42639 -5.93706 0
M  V30 2681 H 259.336 -3.31605 -4.67665 0
M  V30 2682 H 257.733 -4.06314 -4.41621 0
M  V30 2683 H 258.803 -3.78561 -3.03017 0
M  V30 2684 N 260.146 1.09593 -1.13257 0
M  V30 2685 C 261.394 1.81375 -0.891492 0
M  V30 2686 C 261.715 1.86049 0.584009 0
M  V30 2687 O 260.985 1.34481 1.42449 0
M  V30 2688 H 259.565 0.671708 -0.326828 0
M  V30 2689 H 262.227 1.3256 -1.42877 0
M  V30 2690 H 261.323 2.84612 -1.28071 0
M  V30 2691 N 261.624 0.925811 1.2754 0
M  V30 2692 C 263.04 0.625767 1.46821 0
M  V30 2693 C 263.24 -0.825506 1.83814 0
M  V30 2694 O 262.296 -1.60356 1.95044 0
M  V30 2695 C 263.609 1.57402 2.56213 0
M  V30 2696 C 265.157 1.58204 2.70075 0
M  V30 2697 C 265.632 2.51721 3.82623 0
M  V30 2698 N 267.123 2.49917 3.89994 0
M  V30 2699 C 267.858 3.18968 4.76494 0
M  V30 2700 N 267.354 3.97391 5.67496 0
M  V30 2701 N 269.147 3.07996 4.70208 0
M  V30 2702 H 261.298 1.86409 1.01811 0
M  V30 2703 H 263.561 0.800213 0.508295 0
M  V30 2704 H 263.267 2.60925 2.35819 0
M  V30 2705 H 263.141 1.31428 3.53563 0
M  V30 2706 H 265.528 0.554124 2.89851 0
M  V30 2707 H 265.609 1.88226 1.73218 0
M  V30 2708 H 265.253 3.54622 3.63601 0
M  V30 2709 H 265.183 2.18996 4.78903 0
M  V30 2710 H 267.674 1.9296 3.24923 0
M  V30 2711 H 267.987 4.4707 6.30356 0
M  V30 2712 H 266.332 4.01495 5.67298 0
M  V30 2713 H 269.523 2.46223 3.9811 0
M  V30 2714 H 269.696 3.6208 5.37403 0
M  V30 2715 N 263.102 -1.41638 0.69111 0
M  V30 2716 C 264.032 -2.3347 0.037248 0
M  V30 2717 C 265.013 -1.51575 -0.771947 0
M  V30 2718 O 266.198 -1.80126 -0.72582 0
M  V30 2719 C 263.328 -3.35354 -0.903064 0
M  V30 2720 C 262.282 -4.27526 -0.201288 0
M  V30 2721 C 261.608 -5.19747 -1.25565 0
M  V30 2722 C 262.908 -5.13959 0.929689 0
M  V30 2723 H 264.602 -2.88397 0.804227 0
M  V30 2724 H 262.148 -1.38669 0.388189 0
M  V30 2725 H 264.101 -3.98519 -1.36969 0
M  V30 2726 H 262.825 -2.78767 -1.70166 0
M  V30 2727 H 261.484 -3.65779 0.245265 0
M  V30 2728 H 261.132 -4.59479 -2.04666 0
M  V30 2729 H 260.832 -5.8225 -0.791128 0
M  V30 2730 H 262.356 -5.85789 -1.72288 0
M  V30 2731 H 263.77 -5.70718 0.543546 0
M  V30 2732 H 262.167 -5.85379 1.32103 0
M  V30 2733 H 263.237 -4.51389 1.77133 0
M  V30 2734 N 264.58 -0.43555 -1.51462 0
M  V30 2735 C 265.857 0.191364 -1.94662 0
M  V30 2736 C 266.237 1.60254 -1.37411 0
M  V30 2737 O 265.585 2.2152 -0.560458 0
M  V30 2738 C 265.795 0.17091 -3.48581 0
M  V30 2739 C 267.143 0.377357 -4.2292 0
M  V30 2740 O 268.167 0.249104 -3.55328 0
M  V30 2741 O 267.026 0.63247 -5.42828 0
M  V30 2742 H 264.12 0.130932 -0.816569 0
M  V30 2743 H 266.666 -0.4934 -1.62369 0
M  V30 2744 H 265.438 -0.815738 -3.82703 0
M  V30 2745 H 265.061 0.898659 -3.87311 0
M  V30 2746 N 266.058 1.56714 -0.166846 0
M  V30 2747 C 267.021 2.16539 0.751232 0
M  V30 2748 C 268.021 1.11228 1.16125 0
M  V30 2749 O 269.211 1.36765 1.07894 0
M  V30 2750 C 266.343 2.74462 2.02196 0
M  V30 2751 H 267.536 2.99013 0.230499 0
M  V30 2752 H 265.089 1.56081 0.0826982 0
M  V30 2753 H 265.824 1.95709 2.58589 0
M  V30 2754 H 265.609 3.51527 1.73698 0
M  V30 2755 H 267.099 3.20489 2.67725 0
M  V30 2756 N 267.536 -0.106894 1.57237 0
M  V30 2757 C 268.776 -0.818277 1.87306 0
M  V30 2758 C 269.14 -1.76474 0.756371 0
M  V30 2759 O 270.341 -2.5186 0.939155 0
M  V30 2760 C 268.612 -1.53806 3.22612 0
M  V30 2761 S 270.171 -2.28935 3.74345 0
M  V30 2762 H 266.989 -0.272862 0.656557 0
M  V30 2763 H 269.591 -0.075988 1.95352 0
M  V30 2764 H 268.295 -0.834951 4.01817 0
M  V30 2765 H 267.826 -2.32049 3.17674 0
M  V30 2766 H 269.841 -3.54871 3.46815 0
M  V30 2767 N 269.014 -1.53014 -0.377408 0
M  V30 2768 C 270.239 -1.72818 -1.14668 0
M  V30 2769 C 270.664 -0.450725 -1.8262 0
M  V30 2770 O 270.022 0.59439 -1.7128 0
M  V30 2771 C 270.07 -2.88627 -2.16164 0
M  V30 2772 O 269.174 -2.56409 -3.22998 0
M  V30 2773 H 268.515 -0.574301 -0.333278 0
M  V30 2774 H 271.045 -1.99853 -0.438152 0
M  V30 2775 H 271.055 -3.14455 -2.59966 0
M  V30 2776 H 269.73 -3.81294 -1.66095 0
M  V30 2777 H 268.307 -2.4136 -2.84253 0
M  V30 2778 N 270.492 0.636531 -1.44174 0
M  V30 2779 C 271.72 1.42353 -1.50144 0
M  V30 2780 C 272.135 1.88389 -0.124575 0
M  V30 2781 O 271.492 1.6051 0.868489 0
M  V30 2782 C 271.543 2.64744 -2.46156 0
M  V30 2783 O 271.264 2.20629 -3.7849 0
M  V30 2784 C 272.765 3.57929 -2.61537 0
M  V30 2785 H 269.985 0.436752 -0.5094 0
M  V30 2786 H 272.529 0.778933 -1.89084 0
M  V30 2787 H 270.684 3.25307 -2.10366 0
M  V30 2788 H 271.098 2.99938 -4.30276 0
M  V30 2789 H 272.572 4.40428 -3.32757 0
M  V30 2790 H 273.049 4.06382 -1.66585 0
M  V30 2791 H 273.655 3.03238 -2.98206 0
M  V30 2792 N 271.97 1.30982 0.876444 0
M  V30 2793 C 273.216 1.20474 1.63138 0
M  V30 2794 C 273.549 -0.238096 1.92735 0
M  V30 2795 O 272.824 -1.1692 1.55435 0
M  V30 2796 C 273.107 2.04244 2.96574 0
M  V30 2797 C 272.96 3.56793 2.73896 0
M  V30 2798 C 274.279 1.88684 3.97601 0
M  V30 2799 H 271.398 0.439001 0.591985 0
M  V30 2800 H 274.04 1.60704 1.01361 0
M  V30 2801 H 272.19 1.70063 3.493 0
M  V30 2802 H 273.862 4.01077 2.27892 0
M  V30 2803 H 272.105 3.80548 2.08245 0
M  V30 2804 H 272.776 4.10706 3.68815 0
M  V30 2805 H 275.252 2.18584 3.54062 0
M  V30 2806 H 274.128 2.4961 4.88862 0
M  V30 2807 H 274.389 0.848343 4.33884 0
M  V30 2808 N 273.449 -1.08991 1.13837 0
M  V30 2809 C 274.379 -2.17771 0.842507 0
M  V30 2810 C 275.36 -1.6892 -0.20001 0
M  V30 2811 O 276.545 -1.94113 -0.0579731 0
M  V30 2812 C 273.675 -3.4589 0.312644 0
M  V30 2813 C 272.629 -4.08099 1.28992 0
M  V30 2814 C 271.955 -5.31098 0.619623 0
M  V30 2815 C 273.255 -4.50077 2.65005 0
M  V30 2816 H 274.949 -2.42777 1.75213 0
M  V30 2817 H 272.495 -1.16682 0.843875 0
M  V30 2818 H 274.448 -4.21297 0.0933043 0
M  V30 2819 H 273.172 -3.20419 -0.632382 0
M  V30 2820 H 271.831 -3.34717 1.49533 0
M  V30 2821 H 271.479 -5.0191 -0.33102 0
M  V30 2822 H 271.179 -5.73674 1.27167 0
M  V30 2823 H 272.703 -6.09224 0.409669 0
M  V30 2824 H 274.117 -5.16688 2.48407 0
M  V30 2825 H 272.514 -5.03553 3.26427 0
M  V30 2826 H 273.584 -3.62257 3.22332 0
M  V30 2827 N 274.927 -0.932562 -1.27047 0
M  V30 2828 C 276.338 -0.619451 -1.76124 0
M  V30 2829 C 276.689 0.865397 -1.76083 0
M  V30 2830 O 275.814 1.67722 -1.36742 0
M  V30 2831 C 276.409 -1.11771 -3.19832 0
M  V30 2832 C 274.968 -0.855174 -3.66557 0
M  V30 2833 C 274.115 -1.27362 -2.46321 0
M  V30 2834 H 277.066 -1.11181 -1.13245 0
M  V30 2835 H 277.087 -0.46759 -3.77616 0
M  V30 2836 H 276.599 -2.19842 -3.1983 0
M  V30 2837 H 274.7 0.211524 -3.71999 0
M  V30 2838 H 274.813 -1.47613 -4.55793 0
M  V30 2839 H 273.177 -0.692119 -2.45116 0
M  V30 2840 H 273.96 -2.36307 -2.49025 0
M  V30 2841 N 276.405 1.4127 -0.698611 0
M  V30 2842 C 277.335 2.33447 -0.049629 0
M  V30 2843 C 278.316 1.51982 0.763898 0
M  V30 2844 O 279.501 1.80509 0.716257 0
M  V30 2845 C 276.631 3.35828 0.885267 0
M  V30 2846 C 275.585 4.27627 0.178613 0
M  V30 2847 C 274.911 5.20406 1.22807 0
M  V30 2848 C 276.211 5.13459 -0.956933 0
M  V30 2849 H 277.905 2.87966 -0.81951 0
M  V30 2850 H 275.451 1.38461 -0.395538 0
M  V30 2851 H 277.404 3.9924 1.34854 0
M  V30 2852 H 276.128 2.79666 1.68685 0
M  V30 2853 H 274.787 3.65643 -0.26466 0
M  V30 2854 H 274.435 4.60558 2.02226 0
M  V30 2855 H 274.135 5.82661 0.760239 0
M  V30 2856 H 275.659 5.86695 1.69179 0
M  V30 2857 H 277.073 5.70421 -0.573805 0
M  V30 2858 H 275.47 5.8467 -1.35205 0
M  V30 2859 H 276.54 4.50443 -1.79524 0
M  V30 2860 N 277.883 0.443576 1.51229 0
M  V30 2861 C 279.113 -0.119117 2.06256 0
M  V30 2862 C 279.521 -1.36471 1.31043 0
M  V30 2863 O 278.864 -1.80034 0.365151 0
M  V30 2864 C 278.926 -0.500546 3.55998 0
M  V30 2865 C 278.59 0.639125 4.52509 0
M  V30 2866 C 279.587 1.51311 4.97394 0
M  V30 2867 C 277.272 0.821632 4.95535 0
M  V30 2868 C 279.266 2.55425 5.83984 0
M  V30 2869 C 276.953 1.86603 5.81913 0
M  V30 2870 C 277.951 2.73072 6.26036 0
M  V30 2871 O 277.639 3.75718 7.10698 0
M  V30 2872 H 277.371 -0.00857665 0.675946 0
M  V30 2873 H 279.925 0.623288 1.95715 0
M  V30 2874 H 278.155 -1.29575 3.64345 0
M  V30 2875 H 279.844 -0.995116 3.93513 0
M  V30 2876 H 280.61 1.38367 4.64844 0
M  V30 2877 H 276.489 0.158149 4.60729 0
M  V30 2878 H 280.033 3.22949 6.18344 0
M  V30 2879 H 275.93 1.99564 6.13876 0
M  V30 2880 H 276.698 3.72374 7.2889 0
M  V30 2881 N 279.361 -1.56624 0.175154 0
M  V30 2882 C 280.324 -2.16934 -0.739738 0
M  V30 2883 C 281.324 -1.11842 -1.15533 0
M  V30 2884 O 282.514 -1.37335 -1.07167 0
M  V30 2885 C 279.646 -2.75531 -2.00738 0
M  V30 2886 H 280.839 -2.99131 -0.214639 0
M  V30 2887 H 278.392 -1.56123 -0.0744197 0
M  V30 2888 H 279.127 -1.97078 -2.57548 0
M  V30 2889 H 278.912 -3.52444 -1.71831 0
M  V30 2890 H 280.402 -3.21904 -2.66021 0
M  V30 2891 N 280.839 0.0985539 -1.57292 0
M  V30 2892 C 281.786 1.11981 -2.01814 0
M  V30 2893 C 282.756 1.39999 -0.89384 0
M  V30 2894 O 283.941 1.5152 -1.15958 0
M  V30 2895 C 281.081 2.43577 -2.44467 0
M  V30 2896 C 280.194 2.2232 -3.70402 0
M  V30 2897 C 279.329 3.4729 -4.01949 0
M  V30 2898 C 278.368 3.2128 -5.21005 0
M  V30 2899 N 277.505 4.38507 -5.48321 0
M  V30 2900 H 282.345 0.733149 -2.88841 0
M  V30 2901 H 279.882 0.350482 -1.42864 0
M  V30 2902 H 281.84 3.20373 -2.6724 0
M  V30 2903 H 280.47 2.80097 -1.60455 0
M  V30 2904 H 279.522 1.36343 -3.55126 0
M  V30 2905 H 280.834 1.99089 -4.57345 0
M  V30 2906 H 279.988 4.32495 -4.25479 0
M  V30 2907 H 278.727 3.73572 -3.13521 0
M  V30 2908 H 277.732 2.34468 -4.97298 0
M  V30 2909 H 278.957 2.96348 -6.11028 0
M  V30 2910 H 276.903 4.64871 -4.62851 0
M  V30 2911 H 276.82 4.18455 -6.29628 0
M  V30 2912 H 278.088 5.24787 -5.76385 0
M  V30 2913 N 282.317 1.53212 0.369288 0
M  V30 2914 C 283.28 1.7872 1.43498 0
M  V30 2915 C 284.28 0.657554 1.46741 0
M  V30 2916 O 285.47 0.925736 1.47566 0
M  V30 2917 C 282.602 1.90591 2.82645 0
M  V30 2918 H 283.795 2.73894 1.22156 0
M  V30 2919 H 281.348 1.44233 0.602203 0
M  V30 2920 H 282.083 0.974709 3.09306 0
M  V30 2921 H 281.868 2.72751 2.8169 0
M  V30 2922 H 283.358 2.11931 3.59826 0
M  V30 2923 N 283.795 -0.628877 1.44509 0
M  V30 2924 C 285.025 -1.41349 1.50678 0
M  V30 2925 C 285.433 -1.88745 0.131075 0
M  V30 2926 O 284.776 -1.61592 -0.87371 0
M  V30 2927 C 284.838 -2.66608 2.41165 0
M  V30 2928 C 284.502 -2.40993 3.88293 0
M  V30 2929 C 285.499 -2.0268 4.78766 0
M  V30 2930 C 283.184 -2.54563 4.33016 0
M  V30 2931 C 285.178 -1.78269 6.11963 0
M  V30 2932 C 282.865 -2.29766 5.6626 0
M  V30 2933 C 283.863 -1.91678 6.55552 0
M  V30 2934 O 283.551 -1.67158 7.86329 0
M  V30 2935 H 283.283 -0.439851 0.51333 0
M  V30 2936 H 285.837 -0.776084 1.90174 0
M  V30 2937 H 284.067 -3.32994 1.96601 0
M  V30 2938 H 285.756 -3.28615 2.38259 0
M  V30 2939 H 286.522 -1.91751 4.45485 0
M  V30 2940 H 282.401 -2.83179 3.63773 0
M  V30 2941 H 285.945 -1.48465 6.81619 0
M  V30 2942 H 281.842 -2.40306 5.99102 0
M  V30 2943 H 282.61 -1.81386 7.98149 0
M  V30 2944 N 285.273 -1.31445 -0.869486 0
M  V30 2945 C 286.519 -1.21337 -1.62496 0
M  V30 2946 C 286.852 0.227872 -1.92858 0
M  V30 2947 O 286.127 1.16094 -1.56053 0
M  V30 2948 C 286.41 -2.05814 -2.95487 0
M  V30 2949 C 286.263 -3.5824 -2.72 0
M  V30 2950 C 287.582 -1.9079 -3.96594 0
M  V30 2951 H 284.701 -0.442135 -0.589649 0
M  V30 2952 H 287.343 -1.6124 -1.00507 0
M  V30 2953 H 285.493 -1.71913 -3.48394 0
M  V30 2954 H 287.165 -4.0228 -2.25762 0
M  V30 2955 H 285.408 -3.81647 -2.06224 0
M  V30 2956 H 286.079 -4.12657 -3.66631 0
M  V30 2957 H 288.555 -2.20459 -3.52898 0
M  V30 2958 H 287.431 -2.52199 -4.87531 0
M  V30 2959 H 287.692 -0.871341 -4.33428 0
M  V30 2960 N 286.751 1.08385 -1.14413 0
M  V30 2961 C 287.681 2.17321 -0.854044 0
M  V30 2962 C 288.662 1.69024 0.191049 0
M  V30 2963 O 289.847 1.94141 0.0476779 0
M  V30 2964 C 286.977 3.45719 -0.330983 0
M  V30 2965 C 285.931 4.07409 -1.31155 0
M  V30 2966 C 285.257 5.30762 -0.64778 0
M  V30 2967 C 286.557 4.48665 -2.67388 0
M  V30 2968 H 288.251 2.41845 -1.76498 0
M  V30 2969 H 285.797 1.16233 -0.850051 0
M  V30 2970 H 287.75 4.21241 -0.115645 0
M  V30 2971 H 286.474 3.2075 0.615381 0
M  V30 2972 H 285.133 3.33919 -1.51306 0
M  V30 2973 H 284.781 5.02078 0.304398 0
M  V30 2974 H 284.481 5.72992 -1.30207 0
M  V30 2975 H 286.005 6.08998 -0.441972 0
M  V30 2976 H 287.419 5.15364 -2.51143 0
M  V30 2977 H 285.816 5.01814 -3.29093 0
M  V30 2978 H 286.886 3.60543 -3.24248 0
M  V30 2979 N 288.23 0.939286 1.26551 0
M  V30 2980 C 289.477 0.585847 1.9384 0
M  V30 2981 C 289.805 -0.874784 1.73718 0
M  V30 2982 O 289.06 -1.64092 1.06642 0
M  V30 2983 C 289.359 0.872106 3.46596 0
M  V30 2984 C 289.025 2.31632 3.86856 0
M  V30 2985 C 287.687 2.71111 3.97558 0
M  V30 2986 C 290.039 3.25494 4.07066 0
M  V30 2987 C 287.367 4.03553 4.25866 0
M  V30 2988 C 289.719 4.57531 4.36862 0
M  V30 2989 C 288.383 4.96828 4.45778 0
M  V30 2990 H 287.653 0.214377 0.709312 0
M  V30 2991 H 290.3 1.18544 1.50398 0
M  V30 2992 H 288.605 0.18996 3.91339 0
M  V30 2993 H 290.302 0.577442 3.96821 0
M  V30 2994 H 286.892 2.00008 3.79071 0
M  V30 2995 H 291.076 2.9619 3.98227 0
M  V30 2996 H 286.332 4.33665 4.30981 0
M  V30 2997 H 290.506 5.30254 4.51446 0
M  V30 2998 H 288.133 5.99482 4.67468 0
M  V30 2999 N 289.708 -1.40897 0.706093 0
M  V30 3000 C 290.948 -2.02916 0.245827 0
M  V30 3001 C 291.312 -1.54751 -1.13649 0
M  V30 3002 O 292.513 -2.08768 -1.69321 0
M  V30 3003 C 290.784 -3.56031 0.312537 0
M  V30 3004 S 292.343 -4.38741 -0.0721388 0
M  V30 3005 H 289.161 -0.704186 0.0982007 0
M  V30 3006 H 291.763 -1.72168 0.926207 0
M  V30 3007 H 290.467 -3.88579 1.32039 0
M  V30 3008 H 289.998 -3.91495 -0.386641 0
M  V30 3009 H 292.013 -4.78952 -1.29692 0
M  V30 3010 N 291.186 -0.45159 -1.50991 0
M  V30 3011 C 292.432 0.110237 -2.025 0
M  V30 3012 C 292.765 1.41109 -1.33424 0
M  V30 3013 O 292.04 1.89135 -0.453659 0
M  V30 3014 C 292.323 0.314271 -3.58726 0
M  V30 3015 C 292.176 -1.00623 -4.38401 0
M  V30 3016 C 293.495 1.07767 -4.26702 0
M  V30 3017 H 290.614 0.0385897 -0.735989 0
M  V30 3018 H 293.256 -0.593374 -1.80497 0
M  V30 3019 H 291.406 0.913601 -3.77605 0
M  V30 3020 H 293.078 -1.64064 -4.31139 0
M  V30 3021 H 291.321 -1.6075 -4.02917 0
M  V30 3022 H 291.992 -0.817341 -5.45915 0
M  V30 3023 H 294.468 0.56986 -4.12179 0
M  V30 3024 H 293.344 1.18921 -5.35863 0
M  V30 3025 H 293.605 2.10939 -3.88532 0
M  V30 3026 N 292.664 1.56529 -0.183458 0
M  V30 3027 C 293.594 2.21549 0.737456 0
M  V30 3028 C 294.575 1.17489 1.23005 0
M  V30 3029 O 295.76 1.45959 1.281 0
M  V30 3030 C 292.89 2.86575 1.96194 0
M  V30 3031 C 291.844 3.96778 1.60473 0
M  V30 3032 C 291.17 4.48911 2.90487 0
M  V30 3033 C 292.47 5.15767 0.823497 0
M  V30 3034 H 294.164 2.98761 0.195453 0
M  V30 3035 H 291.71 1.43702 0.0925686 0
M  V30 3036 H 293.663 3.30739 2.61131 0
M  V30 3037 H 292.387 2.06749 2.52828 0
M  V30 3038 H 291.046 3.53286 0.978997 0
M  V30 3039 H 290.694 3.65862 3.45186 0
M  V30 3040 H 290.394 5.23265 2.67335 0
M  V30 3041 H 291.918 4.95771 3.56432 0
M  V30 3042 H 293.332 5.56549 1.37571 0
M  V30 3043 H 291.729 5.96114 0.690551 0
M  V30 3044 H 292.799 4.84574 -0.177782 0
M  V30 3045 N 294.142 -0.090211 1.57342 0
M  V30 3046 C 295.105 -1.09335 2.01441 0
M  V30 3047 C 296.105 -1.32666 0.908641 0
M  V30 3048 O 297.295 -1.28697 1.174 0
M  V30 3049 C 294.427 -2.44136 2.3793 0
M  V30 3050 H 295.62 -0.713662 2.91285 0
M  V30 3051 H 293.173 -0.335404 1.52659 0
M  V30 3052 H 293.908 -2.86972 1.51055 0
M  V30 3053 H 293.693 -2.28548 3.18603 0
M  V30 3054 H 295.183 -3.16277 2.72688 0
M  V30 3055 N 295.62 -1.53406 -0.361157 0
M  V30 3056 C 296.867 -1.69802 -1.10333 0
M  V30 3057 C 297.195 -0.452087 -1.89173 0
M  V30 3058 O 296.45 0.566017 -1.87336 0
M  V30 3059 C 296.749 -2.90211 -2.08596 0
M  V30 3060 C 296.415 -4.26539 -1.46203 0
M  V30 3061 C 295.077 -4.6361 -1.28915 0
M  V30 3062 C 297.429 -5.113 -1.01101 0
M  V30 3063 C 294.757 -5.83075 -0.651157 0
M  V30 3064 C 297.109 -6.31415 -0.387007 0
M  V30 3065 C 295.773 -6.67195 -0.201657 0
M  V30 3066 H 295.043 -0.621351 -0.403737 0
M  V30 3067 H 297.69 -1.87598 -0.384609 0
M  V30 3068 H 295.995 -2.66946 -2.86788 0
M  V30 3069 H 297.692 -3.00091 -2.65982 0
M  V30 3070 H 294.282 -3.97352 -1.60653 0
M  V30 3071 H 298.466 -4.83206 -1.13249 0
M  V30 3072 H 293.722 -6.09385 -0.496006 0
M  V30 3073 H 297.896 -6.96394 -0.0293563 0
M  V30 3074 H 295.523 -7.59628 0.294766 0
M  V30 3075 N 297.098 0.621204 -1.44841 0
M  V30 3076 C 298.344 1.3826 -1.48365 0
M  V30 3077 C 298.677 1.93831 -0.119624 0
M  V30 3078 O 297.952 1.74251 0.864111 0
M  V30 3079 C 298.235 2.54058 -2.55199 0
M  V30 3080 C 298.088 2.03772 -4.00995 0
M  V30 3081 C 299.407 3.56225 -2.58442 0
M  V30 3082 H 296.526 0.501374 -0.540179 0
M  V30 3083 H 299.168 0.7015 -1.76576 0
M  V30 3084 H 297.318 3.12162 -2.31274 0
M  V30 3085 H 298.99 1.50423 -4.36086 0
M  V30 3086 H 297.233 1.34876 -4.12299 0
M  V30 3087 H 297.904 2.87185 -4.71411 0
M  V30 3088 H 300.38 3.07939 -2.79844 0
M  V30 3089 H 299.256 4.34756 -3.3508 0
M  V30 3090 H 299.517 4.10949 -1.63013 0
M  V30 3091 N 298.576 1.31904 0.862503 0
M  V30 3092 C 299.824 1.21776 1.61292 0
M  V30 3093 C 300.145 -0.222413 1.93727 0
M  V30 3094 O 299.415 -1.1451 1.58947 0
M  V30 3095 H 297.995 0.447717 0.597962 0
M  V30 3096 H 300.657 1.65326 1.03215 0
M  V30 3097 H 299.753 1.7948 2.5533 0
M  V30 3098 N 300.054 -1.07777 1.14986 0
M  V30 3099 C 301.303 -1.79669 0.916617 0
M  V30 3100 C 301.616 -1.87474 -0.557917 0
M  V30 3101 O 302.822 -2.55845 -0.908617 0
M  V30 3102 C 301.278 -3.22848 1.59051 0
M  V30 3103 C 300.886 -3.23257 3.10176 0
M  V30 3104 C 302.63 -3.99379 1.43864 0
M  V30 3105 C 300.537 -4.61063 3.70372 0
M  V30 3106 H 299.467 -0.673349 0.33929 0
M  V30 3107 H 302.118 -1.21003 1.37951 0
M  V30 3108 H 300.5 -3.8168 1.0553 0
M  V30 3109 H 301.674 -2.74095 3.70417 0
M  V30 3110 H 299.989 -2.60222 3.25074 0
M  V30 3111 H 302.586 -5.0122 1.86232 0
M  V30 3112 H 302.929 -4.14511 0.385564 0
M  V30 3113 H 303.462 -3.47032 1.94457 0
M  V30 3114 H 300.201 -4.51135 4.7556 0
M  V30 3115 H 299.721 -5.1048 3.14913 0
M  V30 3116 H 301.4 -5.30034 3.71043 0
M  V30 3117 N 301.532 -0.945985 -1.26051 0
M  V30 3118 C 302.462 -0.477172 -2.28572 0
M  V30 3119 C 303.443 0.472032 -1.63419 0
M  V30 3120 O 304.628 0.372853 -1.90587 0
M  V30 3121 C 301.758 0.253975 -3.4637 0
M  V30 3122 C 300.712 -0.609135 -4.23643 0
M  V30 3123 C 300.038 0.252252 -5.34105 0
M  V30 3124 C 301.338 -1.8829 -4.8718 0
M  V30 3125 H 303.032 -1.33402 -2.68038 0
M  V30 3126 H 300.578 -0.642904 -1.28852 0
M  V30 3127 H 302.531 0.593016 -4.17207 0
M  V30 3128 H 301.255 1.145 -3.05871 0
M  V30 3129 H 299.914 -0.931138 -3.54578 0
M  V30 3130 H 299.562 1.14278 -4.89846 0
M  V30 3131 H 299.262 -0.32188 -5.86718 0
M  V30 3132 H 300.786 0.586454 -6.07777 0
M  V30 3133 H 302.2 -1.61081 -5.50205 0
M  V30 3134 H 300.597 -2.40199 -5.49931 0
M  V30 3135 H 301.667 -2.59134 -4.09851 0
M  V30 3136 N 303.011 1.40521 -0.713556 0
M  V30 3137 C 303.974 2.29098 -0.0684347 0
M  V30 3138 C 304.974 1.45268 0.689472 0
M  V30 3139 O 306.164 1.66205 0.521677 0
M  V30 3140 C 303.296 3.28446 0.913024 0
M  V30 3141 H 304.489 2.87645 -0.84855 0
M  V30 3142 H 302.042 1.48809 -0.47809 0
M  V30 3143 H 302.777 2.74913 1.72027 0
M  V30 3144 H 302.562 3.90327 0.372472 0
M  V30 3145 H 304.052 3.94777 1.36165 0
M  V30 3146 N 304.489 0.459591 1.5075 0
M  V30 3147 C 305.452 -0.329093 2.26825 0
M  V30 3148 C 306.452 -0.930481 1.31144 0
M  V30 3149 O 307.642 -0.801453 1.54669 0
M  V30 3150 C 304.774 -1.46768 3.07688 0
M  V30 3151 H 305.967 0.337924 2.9799 0
M  V30 3152 H 303.52 0.213336 1.54837 0
M  V30 3153 H 304.255 -2.17009 2.40993 0
M  V30 3154 H 304.04 -1.04238 3.77991 0
M  V30 3155 H 305.53 -2.02433 3.65254 0
M  V30 3156 N 305.967 -1.56429 0.191757 0
M  V30 3157 C 307.216 -1.9666 -0.448088 0
M  V30 3158 C 307.529 -1.08136 -1.62991 0
M  V30 3159 O 308.735 -1.38135 -2.33733 0
M  V30 3160 C 307.191 -3.49753 -0.848585 0
M  V30 3161 C 306.799 -4.46935 0.308764 0
M  V30 3162 C 308.543 -3.9876 -1.4557 0
M  V30 3163 C 306.45 -5.91293 -0.112506 0
M  V30 3164 H 305.38 -0.734312 -0.171179 0
M  V30 3165 H 308.031 -1.81301 0.283242 0
M  V30 3166 H 306.413 -3.60604 -1.63649 0
M  V30 3167 H 307.587 -4.47813 1.08627 0
M  V30 3168 H 305.902 -4.08102 0.827158 0
M  V30 3169 H 308.499 -5.04086 -1.78328 0
M  V30 3170 H 308.842 -3.42875 -2.36099 0
M  V30 3171 H 309.375 -3.9101 -0.731836 0
M  V30 3172 H 306.114 -6.51097 0.758514 0
M  V30 3173 H 305.634 -5.93676 -0.854941 0
M  V30 3174 H 307.313 -6.44663 -0.549448 0
M  V30 3175 N 307.445 0.0818655 -1.57387 0
M  V30 3176 C 308.685 0.788375 -1.88584 0
M  V30 3177 C 309.049 1.75248 -0.784351 0
M  V30 3178 O 310.25 2.50334 -0.979105 0
M  V30 3179 C 308.521 1.48654 -3.25018 0
M  V30 3180 S 310.08 2.22951 -3.7794 0
M  V30 3181 H 306.898 0.262383 -0.660815 0
M  V30 3182 H 309.5 0.0448995 -1.95448 0
M  V30 3183 H 308.204 0.770919 -4.03094 0
M  V30 3184 H 307.735 2.26965 -3.21326 0
M  V30 3185 H 309.75 3.49309 -3.52417 0
M  V30 3186 N 308.923 1.53595 0.353017 0
M  V30 3187 C 309.886 1.80232 1.41594 0
M  V30 3188 C 310.886 0.673081 1.46035 0
M  V30 3189 O 312.076 0.941335 1.46576 0
M  V30 3190 C 309.208 1.93578 2.80607 0
M  V30 3191 H 310.401 2.75174 1.19244 0
M  V30 3192 H 307.954 1.44864 0.586872 0
M  V30 3193 H 308.689 1.00746 3.08254 0
M  V30 3194 H 308.474 2.75724 2.78781 0
M  V30 3195 H 309.964 2.15735 3.57558 0
M  V30 3196 N 310.401 -0.613514 1.45168 0
M  V30 3197 C 311.331 -1.7354 1.56225 0
M  V30 3198 C 312.312 -1.64981 0.41414 0
M  V30 3199 O 313.497 -1.83472 0.636526 0
M  V30 3200 C 310.627 -3.12128 1.52295 0
M  V30 3201 C 309.581 -3.35491 2.65762 0
M  V30 3202 C 308.907 -4.74291 2.46885 0
M  V30 3203 C 310.207 -3.26325 4.0781 0
M  V30 3204 H 311.901 -1.64543 2.50132 0
M  V30 3205 H 309.447 -0.790185 1.20383 0
M  V30 3206 H 311.4 -3.90404 1.58628 0
M  V30 3207 H 310.124 -3.2195 0.549139 0
M  V30 3208 H 308.783 -2.59603 2.58847 0
M  V30 3209 H 308.431 -4.80839 1.47657 0
M  V30 3210 H 308.131 -4.9088 3.22972 0
M  V30 3211 H 309.655 -5.54775 2.55063 0
M  V30 3212 H 311.069 -3.94483 4.16 0
M  V30 3213 H 309.466 -3.54445 4.8424 0
M  V30 3214 H 310.536 -2.23855 4.30136 0
M  V30 3215 N 311.879 -1.3236 -0.855495 0
M  V30 3216 C 313.109 -1.25688 -1.6397 0
M  V30 3217 C 313.517 0.177592 -1.88365 0
M  V30 3218 O 312.86 1.12485 -1.45234 0
M  V30 3219 C 312.922 -1.94602 -3.02275 0
M  V30 3220 C 312.586 -3.43937 -3.00926 0
M  V30 3221 C 313.583 -4.39435 -2.77835 0
M  V30 3222 C 311.268 -3.85858 -3.21588 0
M  V30 3223 C 313.262 -5.74829 -2.75409 0
M  V30 3224 C 310.949 -5.21361 -3.18789 0
M  V30 3225 C 311.947 -6.15658 -2.95727 0
M  V30 3226 O 311.635 -7.48681 -2.928 0
M  V30 3227 H 311.367 -0.434972 -0.51747 0
M  V30 3228 H 313.921 -1.75023 -1.075 0
M  V30 3229 H 312.151 -1.39836 -3.60531 0
M  V30 3230 H 313.84 -1.81651 -3.62985 0
M  V30 3231 H 314.606 -4.08374 -2.6164 0
M  V30 3232 H 310.485 -3.12883 -3.38564 0
M  V30 3233 H 314.029 -6.48404 -2.57328 0
M  V30 3234 H 309.926 -5.52052 -3.34528 0
M  V30 3235 H 310.694 -7.5803 -3.0876 0
M  V30 3236 N 313.357 1.07166 -1.15556 0
M  V30 3237 C 314.32 2.12589 -0.856644 0
M  V30 3238 C 315.32 1.6015 0.14444 0
M  V30 3239 O 316.51 1.7399 -0.0854163 0
M  V30 3240 C 313.642 3.39753 -0.279405 0
M  V30 3241 H 314.835 2.40539 -1.79112 0
M  V30 3242 H 312.388 1.23086 -0.963298 0
M  V30 3243 H 313.123 3.17447 0.663174 0
M  V30 3244 H 312.908 3.79117 -1.00063 0
M  V30 3245 H 314.398 4.17507 -0.0879113 0
M  V30 3246 N 314.835 0.952656 1.25548 0
M  V30 3247 C 316.251 0.656769 1.4546 0
M  V30 3248 C 316.451 -0.78633 1.85524 0
M  V30 3249 O 315.507 -1.56183 1.98402 0
M  V30 3250 C 316.82 1.62801 2.52817 0
M  V30 3251 C 318.368 1.63897 2.66659 0
M  V30 3252 C 318.843 2.5978 3.77198 0
M  V30 3253 N 320.334 2.58133 3.84606 0
M  V30 3254 C 321.069 3.29003 4.69621 0
M  V30 3255 N 320.565 4.09339 5.58939 0
M  V30 3256 N 322.358 3.179 4.63569 0
M  V30 3257 H 314.509 1.88526 0.978344 0
M  V30 3258 H 316.772 0.810815 0.491206 0
M  V30 3259 H 316.478 2.65869 2.30232 0
M  V30 3260 H 316.352 1.38898 3.50695 0
M  V30 3261 H 318.739 0.615481 2.8861 0
M  V30 3262 H 318.82 1.91858 1.69187 0
M  V30 3263 H 318.464 3.62254 3.55997 0
M  V30 3264 H 318.394 2.29105 4.7415 0
M  V30 3265 H 320.885 1.99809 3.20757 0
M  V30 3266 H 321.198 4.6034 6.20731 0
M  V30 3267 H 319.543 4.13438 5.58654 0
M  V30 3268 H 322.734 2.54612 3.92798 0
M  V30 3269 H 322.907 3.73398 5.29602 0
M  V30 3270 N 316.313 -1.40141 0.720998 0
M  V30 3271 C 317.562 -2.0002 0.259804 0
M  V30 3272 C 317.875 -1.57839 -1.15526 0
M  V30 3273 O 319.081 -2.10455 -1.71525 0
M  V30 3274 C 317.537 -3.57516 0.413566 0
M  V30 3275 C 317.145 -4.08667 1.83562 0
M  V30 3276 C 318.889 -4.24498 0.0134387 0
M  V30 3277 C 316.796 -5.58686 1.93968 0
M  V30 3278 H 315.726 -0.748195 0.0933806 0
M  V30 3279 H 318.377 -1.60313 0.892866 0
M  V30 3280 H 316.759 -3.9495 -0.288169 0
M  V30 3281 H 317.933 -3.82598 2.56817 0
M  V30 3282 H 316.248 -3.543 2.1877 0
M  V30 3283 H 318.845 -5.34654 0.0703954 0
M  V30 3284 H 319.188 -4.03375 -1.02927 0
M  V30 3285 H 319.721 -3.92188 0.665815 0
M  V30 3286 H 316.46 -5.8467 2.96379 0
M  V30 3287 H 315.98 -5.86602 1.25131 0
M  V30 3288 H 317.659 -6.23875 1.71431 0
M  V30 3289 N 317.792 -0.46758 -1.50504 0
M  V30 3290 C 319.022 0.086288 -2.0642 0
M  V30 3291 C 319.43 1.34369 -1.33197 0
M  V30 3292 O 318.773 1.79431 -0.393747 0
M  V30 3293 C 318.835 0.443846 -3.5675 0
M  V30 3294 C 318.499 -0.711035 -4.51435 0
M  V30 3295 C 319.496 -1.59205 -4.94924 0
M  V30 3296 C 317.181 -0.900363 -4.94165 0
M  V30 3297 C 319.175 -2.64683 -5.79846 0
M  V30 3298 C 316.862 -1.95837 -5.7887 0
M  V30 3299 C 317.86 -2.82997 -6.21612 0
M  V30 3300 O 317.548 -3.86977 -7.0463 0
M  V30 3301 H 317.28 -0.00217814 -0.675996 0
M  V30 3302 H 319.834 -0.654346 -1.94698 0
M  V30 3303 H 318.064 1.23762 -3.6636 0
M  V30 3304 H 319.753 0.932386 -3.95046 0
M  V30 3305 H 320.519 -1.45745 -4.62583 0
M  V30 3306 H 316.398 -0.231427 -4.60419 0
M  V30 3307 H 319.942 -3.32745 -6.13128 0
M  V30 3308 H 315.839 -2.09305 -6.10624 0
M  V30 3309 H 316.607 -3.83923 -7.22873 0
M  V30 3310 N 319.27 1.56325 -0.20005 0
M  V30 3311 C 320.51 1.99619 0.439519 0
M  V30 3312 C 320.874 1.08423 1.58456 0
M  V30 3313 O 322.075 1.40973 2.28867 0
M  V30 3314 C 320.346 3.46314 0.883258 0
M  V30 3315 S 321.905 4.11634 1.51997 0
M  V30 3316 H 318.723 0.697007 0.140363 0
M  V30 3317 H 321.325 1.93118 -0.304282 0
M  V30 3318 H 320.029 4.10381 0.0398967 0
M  V30 3319 H 319.56 3.56643 1.6604 0
M  V30 3320 H 321.575 4.09049 2.8088 0
M  V30 3321 N 320.748 -0.0735177 1.57428 0
M  V30 3322 C 321.68 -1.11423 2.00294 0
M  V30 3323 C 322.693 -1.35084 0.908637 0
M  V30 3324 O 323.882 -1.33355 1.18654 0
M  V30 3325 C 320.982 -2.46548 2.32523 0
M  V30 3326 C 320.155 -2.42867 3.63778 0
M  V30 3327 C 319.214 -3.60087 3.83697 0
M  V30 3328 O 318.24 -3.41595 4.55304 0
M  V30 3329 N 319.442 -4.80372 3.25919 0
M  V30 3330 H 322.207 -0.749206 2.90184 0
M  V30 3331 H 319.768 -0.262195 1.59763 0
M  V30 3332 H 321.76 -3.23607 2.43024 0
M  V30 3333 H 320.33 -2.75059 1.48531 0
M  V30 3334 H 319.55 -1.51206 3.64047 0
M  V30 3335 H 320.838 -2.37506 4.49965 0
M  V30 3336 H 320.236 -4.983 2.67795 0
M  V30 3337 H 318.793 -5.54948 3.41871 0
M  V30 3338 N 322.226 -1.5378 -0.344866 0
M  V30 3339 C 323.472 -1.71216 -1.08687 0
M  V30 3340 C 323.805 -0.473281 -1.88345 0
M  V30 3341 O 323.08 0.52968 -1.87149 0
M  V30 3342 C 323.363 -2.97486 -2.02914 0
M  V30 3343 C 323.216 -4.31579 -1.26727 0
M  V30 3344 C 324.535 -3.19422 -3.0275 0
M  V30 3345 H 321.654 -0.62301 -0.393735 0
M  V30 3346 H 324.296 -1.8645 -0.365563 0
M  V30 3347 H 322.446 -2.84629 -2.64421 0
M  V30 3348 H 324.118 -4.56284 -0.67845 0
M  V30 3349 H 322.361 -4.30049 -0.569273 0
M  V30 3350 H 323.032 -5.16106 -1.95803 0
M  V30 3351 H 325.508 -3.316 -2.51357 0
M  V30 3352 H 324.384 -4.09169 -3.65885 0
M  V30 3353 H 324.645 -2.35656 -3.74057 0
M  V30 3354 N 323.704 0.605807 -1.45491 0
M  V30 3355 C 325.12 0.926751 -1.29936 0
M  V30 3356 C 325.32 1.99896 -0.253706 0
M  V30 3357 O 324.376 2.50038 0.351737 0
M  V30 3358 C 325.689 1.36599 -2.67883 0
M  V30 3359 C 327.237 1.4801 -2.75793 0
M  V30 3360 C 327.712 1.95309 -4.14268 0
M  V30 3361 N 329.203 2.0254 -4.16571 0
M  V30 3362 C 329.938 2.40363 -5.20589 0
M  V30 3363 N 329.434 2.77143 -6.34952 0
M  V30 3364 N 331.227 2.40718 -5.07948 0
M  V30 3365 H 323.378 -0.102862 -2.12151 0
M  V30 3366 H 325.641 0.016639 -0.947854 0
M  V30 3367 H 325.347 0.652306 -3.45598 0
M  V30 3368 H 325.221 2.33215 -2.96463 0
M  V30 3369 H 327.608 2.1847 -1.98381 0
M  V30 3370 H 327.689 0.497041 -2.50925 0
M  V30 3371 H 327.333 1.25436 -4.92167 0
M  V30 3372 H 327.263 2.94532 -4.3653 0
M  V30 3373 H 329.754 1.76699 -3.34045 0
M  V30 3374 H 330.067 3.0489 -7.10114 0
M  V30 3375 H 328.412 2.74834 -6.3835 0
M  V30 3376 H 331.603 2.11392 -4.1765 0
M  V30 3377 H 331.776 2.69869 -5.89131 0
M  V30 3378 N 325.182 1.32811 0.848464 0
M  V30 3379 C 326.145 1.22194 1.9391 0
M  V30 3380 C 327.145 0.143404 1.60159 0
M  V30 3381 O 328.335 0.394253 1.6968 0
M  V30 3382 C 325.467 0.88067 3.29328 0
M  V30 3383 H 326.66 2.19127 2.04752 0
M  V30 3384 H 324.213 1.16731 1.0394 0
M  V30 3385 H 324.948 -0.0865776 3.24184 0
M  V30 3386 H 324.733 1.66052 3.55203 0
M  V30 3387 H 326.223 0.830871 4.09251 0
M  V30 3388 N 326.66 -1.06551 1.16123 0
M  V30 3389 C 327.608 -2.16063 0.861371 0
M  V30 3390 C 328.602 -1.6856 -0.168517 0
M  V30 3391 O 329.808 -1.79986 -0.0227579 0
M  V30 3392 H 326.183 -0.705278 0.260934 0
M  V30 3393 H 328.154 -2.38567 1.79244 0
M  V30 3394 C 326.903 -3.45661 0.376018 0
M  V30 3395 H 326.226 -3.82604 1.15992 0
M  V30 3396 H 327.666 -4.23504 0.204951 0
M  V30 3397 C 326.125 -3.24546 -0.903954 0
M  V30 3398 O 326.655 -3.49865 -1.97377 0
M  V30 3399 N 324.861 -2.77992 -0.846679 0
M  V30 3400 H 324.408 -2.57589 0.0241017 0
M  V30 3401 H 324.366 -2.64244 -1.70359 0
M  V30 3402 N 328.138 -0.959301 -1.25041 0
M  V30 3403 C 329.101 -0.487677 -2.23952 0
M  V30 3404 C 330.101 0.41119 -1.55454 0
M  V30 3405 O 331.291 0.207825 -1.72956 0
M  V30 3406 C 328.423 0.294807 -3.39623 0
M  V30 3407 H 329.616 -1.36198 -2.67189 0
M  V30 3408 H 327.169 -0.743042 -1.37508 0
M  V30 3409 H 327.904 1.18658 -3.01813 0
M  V30 3410 H 327.689 -0.35012 -3.90534 0
M  V30 3411 H 329.179 0.614089 -4.1306 0
M  V30 3412 N 329.616 1.39756 -0.72842 0
M  V30 3413 C 331.032 1.5442 -0.403308 0
M  V30 3414 C 331.232 1.69694 1.08656 0
M  V30 3415 O 330.288 1.69373 1.87267 0
M  V30 3416 C 331.601 2.76555 -1.18058 0
M  V30 3417 C 333.149 2.90384 -1.16815 0
M  V30 3418 C 333.624 4.15449 -1.92785 0
M  V30 3419 N 335.115 4.22475 -1.89918 0
M  V30 3420 C 335.85 5.1818 -2.45514 0
M  V30 3421 N 335.346 6.19714 -3.09719 0
M  V30 3422 N 337.139 5.1035 -2.35584 0
M  V30 3423 H 329.29 1.28089 -1.69431 0
M  V30 3424 H 331.553 0.620327 -0.716867 0
M  V30 3425 H 331.259 2.7159 -2.23455 0
M  V30 3426 H 331.133 3.69033 -0.780662 0
M  V30 3427 H 333.52 2.94846 -0.12234 0
M  V30 3428 H 333.601 1.98988 -1.6074 0
M  V30 3429 H 333.245 4.11749 -2.97364 0
M  V30 3430 H 333.175 5.05877 -1.46272 0
M  V30 3431 H 335.666 3.49743 -1.43138 0
M  V30 3432 H 335.979 6.8919 -3.49625 0
M  V30 3433 H 334.324 6.20121 -3.13807 0
M  V30 3434 H 337.515 4.2996 -1.85072 0
M  V30 3435 H 337.688 5.84761 -2.79211 0
M  V30 3436 N 331.094 0.475555 1.50254 0
M  V30 3437 C 332.51 0.12997 1.5907 0
M  V30 3438 C 332.71 -1.36385 1.48328 0
M  V30 3439 O 331.766 -2.13754 1.34407 0
M  V30 3440 C 333.079 0.684139 2.92814 0
M  V30 3441 C 334.627 0.647965 3.0622 0
M  V30 3442 C 335.102 1.17975 4.42545 0
M  V30 3443 N 336.593 1.13936 4.48969 0
M  V30 3444 C 337.328 1.52129 5.52851 0
M  V30 3445 N 336.824 1.97793 6.63965 0
M  V30 3446 N 338.617 1.43704 5.4342 0
M  V30 3447 H 330.768 1.44706 1.55479 0
M  V30 3448 H 333.031 0.598691 0.735033 0
M  V30 3449 H 332.737 1.73079 3.06164 0
M  V30 3450 H 332.611 0.130204 3.76975 0
M  V30 3451 H 334.998 -0.38979 2.92514 0
M  V30 3452 H 335.079 1.23876 2.23805 0
M  V30 3453 H 334.723 2.21616 4.57 0
M  V30 3454 H 334.653 0.565138 5.23559 0
M  V30 3455 H 337.144 0.804488 3.69238 0
M  V30 3456 H 337.457 2.25072 7.39299 0
M  V30 3457 H 335.802 2.01749 6.65073 0
M  V30 3458 H 338.993 1.07867 4.55502 0
M  V30 3459 H 339.166 1.73794 6.24259 0
M  V30 3460 N 332.573 -1.56217 0.208337 0
M  V30 3461 C 333.503 -2.22694 -0.702116 0
M  V30 3462 C 334.484 -1.19432 -1.2112 0
M  V30 3463 O 335.669 -1.47978 -1.25762 0
M  V30 3464 C 332.799 -2.8966 -1.9161 0
M  V30 3465 C 331.753 -3.9928 -1.5414 0
M  V30 3466 C 331.079 -4.53476 -2.83308 0
M  V30 3467 C 332.379 -5.17012 -0.741339 0
M  V30 3468 H 334.073 -2.99034 -0.147898 0
M  V30 3469 H 331.619 -1.43831 -0.0696951 0
M  V30 3470 H 333.572 -3.34852 -2.55836 0
M  V30 3471 H 332.296 -2.10746 -2.49507 0
M  V30 3472 H 330.955 -3.54799 -0.922668 0
M  V30 3473 H 330.603 -3.71308 -3.39322 0
M  V30 3474 H 330.303 -5.27451 -2.58976 0
M  V30 3475 H 331.827 -5.01378 -3.485 0
M  V30 3476 H 333.241 -5.58667 -1.28699 0
M  V30 3477 H 331.638 -5.97137 -0.595627 0
M  V30 3478 H 332.708 -4.8423 0.254851 0
M  V30 3479 N 334.051 0.0651679 -1.57465 0
M  V30 3480 C 335.462 0.616213 -1.76238 0
M  V30 3481 C 335.813 1.7756 -0.834689 0
M  V30 3482 O 334.938 2.1639 -0.0204156 0
M  V30 3483 C 335.533 1.12462 -3.1959 0
M  V30 3484 C 334.092 1.62147 -3.39684 0
M  V30 3485 C 333.239 0.543739 -2.71917 0
M  V30 3486 H 336.19 -0.161022 -1.57881 0
M  V30 3487 H 336.211 1.99324 -3.24114 0
M  V30 3488 H 335.723 0.280592 -3.87084 0
M  V30 3489 H 333.824 2.48854 -2.77313 0
M  V30 3490 H 333.937 1.69385 -4.48158 0
M  V30 3491 H 332.301 0.990352 -2.34657 0
M  V30 3492 H 333.084 -0.290216 -3.42071 0
M  V30 3493 N 335.529 1.53961 0.336706 0
M  V30 3494 C 336.492 1.81724 1.39675 0
M  V30 3495 C 337.492 0.688532 1.45313 0
M  V30 3496 O 338.682 0.956829 1.45569 0
M  V30 3497 C 335.814 1.96543 2.78538 0
M  V30 3498 H 337.007 2.76424 1.16318 0
M  V30 3499 H 334.56 1.45478 0.571474 0
M  V30 3500 H 335.295 1.0401 3.07168 0
M  V30 3501 H 335.08 2.78665 2.75841 0
M  V30 3502 H 336.57 2.19516 3.5525 0
M  V30 3503 N 337.007 -0.598083 1.45811 0
M  V30 3504 C 338.423 -0.919847 1.30426 0
M  V30 3505 C 338.623 -1.99759 0.264303 0
M  V30 3506 O 337.679 -2.50221 -0.338472 0
M  V30 3507 C 338.992 -1.35176 2.68603 0
M  V30 3508 C 340.54 -1.46546 2.76574 0
M  V30 3509 C 341.015 -1.9311 4.15298 0
M  V30 3510 N 342.506 -2.00328 4.1764 0
M  V30 3511 C 343.241 -2.37599 5.21856 0
M  V30 3512 N 342.737 -2.73771 6.36413 0
M  V30 3513 N 344.53 -2.38021 5.09218 0
M  V30 3514 H 336.681 0.114111 2.12093 0
M  V30 3515 H 338.944 -0.0116121 0.947929 0
M  V30 3516 H 338.65 -0.633969 3.45939 0
M  V30 3517 H 338.524 -2.3164 2.97696 0
M  V30 3518 H 340.911 -2.17415 1.99537 0
M  V30 3519 H 340.992 -0.483727 2.51185 0
M  V30 3520 H 340.636 -1.22824 4.92825 0
M  V30 3521 H 340.566 -2.92213 4.38086 0
M  V30 3522 H 343.057 -1.74925 3.34977 0
M  V30 3523 H 343.37 -3.0112 7.11721 0
M  V30 3524 H 341.715 -2.71445 6.39799 0
M  V30 3525 H 344.906 -2.09174 4.18765 0
M  V30 3526 H 345.079 -2.66741 5.90554 0
M  V30 3527 N 338.485 -1.33259 -0.841409 0
M  V30 3528 C 339.896 -1.22066 -1.41269 0
M  V30 3529 C 340.247 0.161479 -1.95534 0
M  V30 3530 O 339.372 1.06094 -1.88608 0
M  V30 3531 C 339.967 -2.20996 -2.568 0
M  V30 3532 C 338.526 -2.13649 -3.09888 0
M  V30 3533 C 337.673 -2.08623 -1.82679 0
M  V30 3534 H 340.624 -1.44895 -0.647395 0
M  V30 3535 H 340.645 -1.81621 -3.34356 0
M  V30 3536 H 340.157 -3.2158 -2.17274 0
M  V30 3537 H 338.258 -1.16359 -3.53965 0
M  V30 3538 H 338.371 -3.04079 -3.70234 0
M  V30 3539 H 336.735 -1.54061 -2.02824 0
M  V30 3540 H 337.518 -3.1101 -1.45353 0
M  V30 3541 N 339.963 1.05934 -1.16686 0
M  V30 3542 C 341.211 1.78447 -0.948744 0
M  V30 3543 C 341.532 1.87813 0.524523 0
M  V30 3544 O 340.802 1.38945 1.38098 0
M  V30 3545 H 339.382 0.660971 -0.348033 0
M  V30 3546 H 342.044 1.27947 -1.47022 0
M  V30 3547 H 341.14 2.80394 -1.37061 0
M  V30 3548 N 341.441 0.965919 1.2453 0
M  V30 3549 C 342.669 0.644385 1.96609 0
M  V30 3550 C 343.084 -0.785823 1.71669 0
M  V30 3551 O 342.441 -1.52703 0.999399 0
M  V30 3552 C 342.492 0.907375 3.49927 0
M  V30 3553 O 342.213 2.28136 3.74013 0
M  V30 3554 C 343.714 0.599784 4.39224 0
M  V30 3555 H 340.934 0.240588 0.626385 0
M  V30 3556 H 343.478 1.29337 1.58405 0
M  V30 3557 H 341.633 0.304631 3.862 0
M  V30 3558 H 342.047 2.36002 4.68405 0
M  V30 3559 H 343.521 0.834263 5.45659 0
M  V30 3560 H 343.998 -0.465921 4.36722 0
M  V30 3561 H 344.604 1.18235 4.08535 0
M  V30 3562 N 342.919 -1.39368 0.735821 0
M  V30 3563 C 343.882 -2.2896 0.104874 0
M  V30 3564 C 344.882 -1.46347 -0.666274 0
M  V30 3565 O 346.072 -1.67014 -0.49517 0
M  V30 3566 C 343.204 -3.29857 -0.860656 0
M  V30 3567 H 344.397 -2.86259 0.894205 0
M  V30 3568 H 341.95 -1.48029 0.501704 0
M  V30 3569 H 342.685 -2.77615 -1.67631 0
M  V30 3570 H 342.47 -3.9087 -0.310327 0
M  V30 3571 H 343.96 -3.96893 -1.29867 0
M  V30 3572 N 344.397 -0.483516 -1.5 0
M  V30 3573 C 345.645 0.067027 -2.01989 0
M  V30 3574 C 345.966 1.3909 -1.36671 0
M  V30 3575 O 345.236 1.88978 -0.516152 0
M  V30 3576 H 343.816 0.0277606 -0.746484 0
M  V30 3577 H 346.478 -0.636773 -1.84204 0
M  V30 3578 H 345.574 0.209484 -3.11396 0
M  V30 3579 N 345.875 1.56104 -0.216619 0
M  V30 3580 C 347.103 2.02563 0.421413 0
M  V30 3581 C 347.518 1.0965 1.53695 0
M  V30 3582 O 346.875 0.10521 1.82196 0
M  V30 3583 C 346.926 3.48584 0.957665 0
M  V30 3584 O 346.647 4.37953 -0.113389 0
M  V30 3585 C 348.148 4.10664 1.66943 0
M  V30 3586 H 345.368 0.662944 0.103665 0
M  V30 3587 H 347.912 2.01793 -0.331629 0
M  V30 3588 H 346.067 3.49985 1.661 0
M  V30 3589 H 346.481 5.23704 0.288932 0
M  V30 3590 H 347.955 5.14622 1.99671 0
M  V30 3591 H 348.432 3.55373 2.58083 0
M  V30 3592 H 349.038 4.13098 1.01142 0
M  V30 3593 N 347.353 -0.0568162 1.57498 0
M  V30 3594 C 348.581 -0.765626 1.92213 0
M  V30 3595 C 348.996 -1.70353 0.813961 0
M  V30 3596 O 348.353 -1.81268 -0.211701 0
M  V30 3597 C 348.404 -1.5465 3.2675 0
M  V30 3598 O 348.125 -0.646278 4.33307 0
M  V30 3599 C 349.626 -2.35497 3.75574 0
M  V30 3600 H 346.846 -0.216835 0.634999 0
M  V30 3601 H 349.39 -0.0226146 2.04487 0
M  V30 3602 H 347.545 -2.24165 3.15957 0
M  V30 3603 H 347.959 -1.19093 5.108 0
M  V30 3604 H 349.433 -2.85722 4.72299 0
M  V30 3605 H 349.91 -3.15692 3.05344 0
M  V30 3606 H 350.516 -1.7111 3.8936 0
M  V30 3607 N 348.832 -1.54138 -0.328536 0
M  V30 3608 C 350.057 -1.76378 -1.09112 0
M  V30 3609 C 350.482 -0.508596 -1.81094 0
M  V30 3610 O 349.84 0.539598 -1.73084 0
M  V30 3611 C 349.888 -2.95358 -2.06872 0
M  V30 3612 O 348.992 -2.66556 -3.14677 0
M  V30 3613 H 348.333 -0.584614 -0.314838 0
M  V30 3614 H 350.863 -2.01146 -0.374348 0
M  V30 3615 H 350.873 -3.22566 -2.4983 0
M  V30 3616 H 349.548 -3.86385 -1.5388 0
M  V30 3617 H 348.125 -2.50282 -2.7643 0
M  V30 3618 N 350.31 0.590341 -1.46126 0
M  V30 3619 C 351.538 1.37504 -1.54597 0
M  V30 3620 C 351.953 1.87897 -0.184447 0
M  V30 3621 O 351.31 1.63192 0.816984 0
M  V30 3622 C 351.361 2.56779 -2.54454 0
M  V30 3623 O 351.082 2.08476 -3.85317 0
M  V30 3624 C 352.583 3.49427 -2.72792 0
M  V30 3625 H 349.803 0.420325 -0.523037 0
M  V30 3626 H 352.347 0.718383 -1.91467 0
M  V30 3627 H 350.502 3.1845 -2.20609 0
M  V30 3628 H 350.916 2.86097 -4.396 0
M  V30 3629 H 352.39 4.29619 -3.466 0
M  V30 3630 H 352.867 4.00876 -1.79429 0
M  V30 3631 H 353.473 2.93598 -3.07702 0
M  V30 3632 N 351.788 1.33704 0.83433 0
M  V30 3633 C 353.204 1.13137 1.12571 0
M  V30 3634 C 353.404 -0.0747261 2.01361 0
M  V30 3635 O 352.46 -0.753647 2.4099 0
M  V30 3636 C 353.773 2.42105 1.78342 0
M  V30 3637 C 355.321 2.48054 1.90888 0
M  V30 3638 C 355.796 3.76995 2.60075 0
M  V30 3639 N 357.287 3.78092 2.67584 0
M  V30 3640 C 358.022 4.74574 3.21818 0
M  V30 3641 N 357.518 5.81434 3.76705 0
M  V30 3642 N 359.311 4.62044 3.20112 0
M  V30 3643 H 351.462 2.11 0.243489 0
M  V30 3644 H 353.725 0.932532 0.17055 0
M  V30 3645 H 353.431 3.30391 1.20561 0
M  V30 3646 H 353.305 2.54594 2.7832 0
M  V30 3647 H 355.692 1.60215 2.47821 0
M  V30 3648 H 355.773 2.39502 0.898459 0
M  V30 3649 H 355.417 4.65219 2.03799 0
M  V30 3650 H 355.347 3.82825 3.61597 0
M  V30 3651 H 357.838 3.00865 2.28667 0
M  V30 3652 H 358.151 6.51084 4.16305 0
M  V30 3653 H 356.496 5.85163 3.7498 0
M  V30 3654 H 359.687 3.77716 2.76493 0
M  V30 3655 H 359.86 5.37406 3.62076 0
M  V30 3656 N 353.266 -1.05314 1.17247 0
M  V30 3657 C 354.229 -2.112 0.890357 0
M  V30 3658 C 355.229 -1.60359 -0.118943 0
M  V30 3659 O 356.419 -1.73833 0.113086 0
M  V30 3660 C 353.551 -3.39266 0.333422 0
M  V30 3661 H 354.744 -2.37659 1.82916 0
M  V30 3662 H 352.297 -1.21538 0.982758 0
M  V30 3663 H 353.032 -3.18462 -0.612587 0
M  V30 3664 H 352.817 -3.77477 1.06082 0
M  V30 3665 H 354.307 -4.17315 0.154322 0
M  V30 3666 N 354.744 -0.972509 -1.24016 0
M  V30 3667 C 356.16 -0.679827 -1.44397 0
M  V30 3668 C 356.36 0.756716 -1.86751 0
M  V30 3669 O 355.416 1.53007 -2.00861 0
M  V30 3670 C 356.729 -1.66803 -2.50195 0
M  V30 3671 C 358.277 -1.68119 -2.64017 0
M  V30 3672 C 358.752 -2.65748 -3.73017 0
M  V30 3673 N 360.243 -2.64219 -3.8045 0
M  V30 3674 C 360.978 -3.36433 -4.64328 0
M  V30 3675 N 360.474 -4.1818 -5.52356 0
M  V30 3676 N 362.267 -3.25235 -4.58453 0
M  V30 3677 H 354.418 -1.90059 -0.948228 0
M  V30 3678 H 356.681 -0.818527 -0.478245 0
M  V30 3679 H 356.387 -2.69498 -2.25973 0
M  V30 3680 H 356.261 -1.4446 -3.48441 0
M  V30 3681 H 358.648 -0.661319 -2.87594 0
M  V30 3682 H 358.729 -1.94525 -1.66113 0
M  V30 3683 H 358.373 -3.67872 -3.50189 0
M  V30 3684 H 358.303 -2.36619 -4.70446 0
M  V30 3685 H 360.794 -2.04887 -3.17537 0
M  V30 3686 H 361.107 -4.70157 -6.13329 0
M  V30 3687 H 359.452 -4.22273 -5.52006 0
M  V30 3688 H 362.643 -2.60829 -3.88698 0
M  V30 3689 H 362.816 -3.81776 -5.23594 0
M  V30 3690 N 356.222 1.38976 -0.743202 0
M  V30 3691 C 357.638 1.53984 -0.419664 0
M  V30 3692 C 357.838 1.70837 1.0685 0
M  V30 3693 O 356.894 1.7135 1.8546 0
M  V30 3694 C 358.207 2.75287 -1.20985 0
M  V30 3695 C 359.755 2.89129 -1.19889 0
M  V30 3696 C 360.23 4.13381 -1.97181 0
M  V30 3697 N 361.721 4.20437 -1.94389 0
M  V30 3698 C 362.456 5.15547 -2.50996 0
M  V30 3699 N 361.952 6.16395 -3.16274 0
M  V30 3700 N 363.745 5.07822 -2.40984 0
M  V30 3701 H 355.896 1.26285 -1.7078 0
M  V30 3702 H 358.159 0.612689 -0.723406 0
M  V30 3703 H 357.865 2.69204 -2.26323 0
M  V30 3704 H 357.739 3.68184 -0.819759 0
M  V30 3705 H 360.126 2.947 -0.153606 0
M  V30 3706 H 360.207 1.97272 -1.62841 0
M  V30 3707 H 359.851 4.08572 -3.01714 0
M  V30 3708 H 359.781 5.04298 -1.51629 0
M  V30 3709 H 362.272 3.48205 -1.46839 0
M  V30 3710 H 362.585 6.85443 -3.56915 0
M  V30 3711 H 360.93 6.16758 -3.20367 0
M  V30 3712 H 364.121 4.27973 -1.89622 0
M  V30 3713 H 364.294 5.81767 -2.85397 0
M  V30 3714 N 357.7 0.491464 1.49741 0
M  V30 3715 C 358.647 -0.292027 2.28945 0
M  V30 3716 C 359.617 -0.968973 1.34908 0
M  V30 3717 O 360.802 -0.97748 1.6386 0
M  V30 3718 C 357.942 -1.35617 3.17336 0
M  V30 3719 C 357.055 -0.691957 4.26422 0
M  V30 3720 C 356.19 -1.73572 5.02042 0
M  V30 3721 C 355.229 -1.05286 6.02977 0
M  V30 3722 N 354.366 -2.0404 6.71798 0
M  V30 3723 H 359.206 0.389654 2.95442 0
M  V30 3724 H 356.743 0.204003 1.45679 0
M  V30 3725 H 358.701 -1.98502 3.66951 0
M  V30 3726 H 357.331 -2.00674 2.52844 0
M  V30 3727 H 356.383 0.0499523 3.80367 0
M  V30 3728 H 357.695 -0.153946 4.98562 0
M  V30 3729 H 356.849 -2.43987 5.55478 0
M  V30 3730 H 355.588 -2.30757 4.29654 0
M  V30 3731 H 354.593 -0.334446 5.48782 0
M  V30 3732 H 355.818 -0.487636 6.77347 0
M  V30 3733 H 353.764 -2.60205 6.02187 0
M  V30 3734 H 353.681 -1.55279 7.39881 0
M  V30 3735 H 354.949 -2.73772 7.29842 0
M  V30 3736 N 359.178 -1.55987 0.224894 0
M  V30 3737 C 360.589 -1.84553 -0.282345 0
M  V30 3738 C 360.94 -1.14634 -1.59227 0
M  V30 3739 O 360.065 -0.417155 -2.12341 0
M  V30 3740 C 360.66 -3.348 -0.519062 0
M  V30 3741 C 359.219 -3.63671 -0.970604 0
M  V30 3742 C 358.366 -2.77277 -0.0355261 0
M  V30 3743 H 361.317 -1.52245 0.448006 0
M  V30 3744 H 361.338 -3.55187 -1.36463 0
M  V30 3745 H 360.85 -3.8566 0.43449 0
M  V30 3746 H 358.951 -3.1827 -1.9374 0
M  V30 3747 H 359.064 -4.71631 -0.842698 0
M  V30 3748 H 357.428 -2.48846 -0.542927 0
M  V30 3749 H 358.211 -3.30937 0.913003 0
M  V30 3750 N 360.656 0.0484629 -1.57525 0
M  V30 3751 C 362.072 0.40375 -1.54409 0
M  V30 3752 C 362.272 1.77786 -0.948384 0
M  V30 3753 O 361.328 2.46189 -0.560983 0
M  V30 3754 C 362.641 0.323394 -2.98956 0
M  V30 3755 C 364.189 0.401892 -3.10409 0
M  V30 3756 C 364.664 0.351195 -4.56652 0
M  V30 3757 N 366.155 0.410576 -4.61377 0
M  V30 3758 C 366.89 0.393933 -5.72045 0
M  V30 3759 N 366.386 0.330724 -6.9201 0
M  V30 3760 N 368.179 0.442227 -5.60358 0
M  V30 3761 H 360.33 -0.851016 -1.94606 0
M  V30 3762 H 362.593 -0.321721 -0.89174 0
M  V30 3763 H 362.299 -0.62011 -3.4619 0
M  V30 3764 H 362.173 1.12463 -3.60044 0
M  V30 3765 H 364.56 1.33582 -2.63134 0
M  V30 3766 H 364.641 -0.428342 -2.52188 0
M  V30 3767 H 364.285 -0.578987 -5.04589 0
M  V30 3768 H 364.215 1.19928 -5.12762 0
M  V30 3769 H 366.706 0.462729 -3.75056 0
M  V30 3770 H 367.019 0.322592 -7.72126 0
M  V30 3771 H 365.364 0.29706 -6.94365 0
M  V30 3772 H 368.555 0.489464 -4.65534 0
M  V30 3773 H 368.728 0.425788 -6.466 0
M  V30 3774 N 362.134 1.5431 0.320358 0
M  V30 3775 C 363.359 1.76954 1.08175 0
M  V30 3776 C 363.784 0.518193 1.80821 0
M  V30 3777 O 363.142 -0.530411 1.73368 0
M  V30 3778 C 363.19 2.96451 2.05303 0
M  V30 3779 O 362.294 2.68221 3.13259 0
M  V30 3780 H 361.635 0.586275 0.311733 0
M  V30 3781 H 364.165 2.01342 0.363676 0
M  V30 3782 H 364.175 3.23887 2.48116 0
M  V30 3783 H 362.85 3.87196 1.51829 0
M  V30 3784 H 361.427 2.51744 2.75099 0
M  V30 3785 N 363.613 -0.582584 1.46437 0
M  V30 3786 C 364.543 -1.70187 1.59871 0
M  V30 3787 C 365.524 -1.64066 0.449042 0
M  V30 3788 O 366.709 -1.82081 0.6753 0
M  V30 3789 C 363.839 -3.08827 1.58881 0
M  V30 3790 C 362.793 -3.29779 2.72819 0
M  V30 3791 C 362.119 -4.68947 2.5689 0
M  V30 3792 C 363.419 -3.17601 4.1464 0
M  V30 3793 H 365.113 -1.592 2.53566 0
M  V30 3794 H 362.659 -0.764472 1.22032 0
M  V30 3795 H 364.612 -3.86951 1.66873 0
M  V30 3796 H 363.336 -3.20713 0.617306 0
M  V30 3797 H 361.995 -2.54054 2.64296 0
M  V30 3798 H 361.643 -4.77599 1.57823 0
M  V30 3799 H 361.343 -4.83919 3.33312 0
M  V30 3800 H 362.867 -5.4924 2.66773 0
M  V30 3801 H 364.281 -3.8557 4.24274 0
M  V30 3802 H 362.678 -3.44094 4.9165 0
M  V30 3803 H 363.748 -2.14681 4.34788 0
M  V30 3804 N 365.091 -1.34144 -0.827227 0
M  V30 3805 C 366.054 -1.25264 -1.91942 0
M  V30 3806 C 367.054 -0.168866 -1.59911 0
M  V30 3807 O 368.244 -0.421198 -1.69031 0
M  V30 3808 C 365.376 -0.932952 -3.27885 0
M  V30 3809 H 366.569 -2.22357 -2.0124 0
M  V30 3810 H 364.122 -1.1837 -1.0207 0
M  V30 3811 H 364.857 0.0349917 -3.24281 0
M  V30 3812 H 364.642 -1.71682 -3.52516 0
M  V30 3813 H 366.132 -0.895874 -4.07877 0
M  V30 3814 N 366.569 1.04691 -1.17803 0
M  V30 3815 C 367.499 2.14494 -0.92275 0
M  V30 3816 C 368.48 1.69546 0.137179 0
M  V30 3817 O 369.665 1.94195 -0.0141108 0
M  V30 3818 C 366.795 3.44491 -0.440803 0
M  V30 3819 C 365.749 4.03031 -1.4405 0
M  V30 3820 C 365.075 5.28432 -0.81631 0
M  V30 3821 C 366.375 4.39932 -2.81527 0
M  V30 3822 H 368.069 2.36107 -1.84103 0
M  V30 3823 H 365.615 1.1347 -0.886599 0
M  V30 3824 H 367.568 4.2066 -0.249602 0
M  V30 3825 H 366.292 3.22546 0.513025 0
M  V30 3826 H 364.951 3.28937 -1.61853 0
M  V30 3827 H 364.599 5.02792 0.144511 0
M  V30 3828 H 364.299 5.68559 -1.48371 0
M  V30 3829 H 365.823 6.07284 -0.635496 0
M  V30 3830 H 367.237 5.07113 -2.67412 0
M  V30 3831 H 365.634 4.9109 -3.44892 0
M  V30 3832 H 366.704 3.50045 -3.35554 0
M  V30 3833 N 368.047 0.979072 1.23499 0
M  V30 3834 C 368.977 0.537606 2.27227 0
M  V30 3835 C 369.958 -0.428539 1.64613 0
M  V30 3836 O 371.143 -0.322191 1.91509 0
M  V30 3837 C 368.273 -0.162052 3.46922 0
M  V30 3838 C 367.227 0.721242 4.21879 0
M  V30 3839 C 366.553 -0.110555 5.34586 0
M  V30 3840 C 367.853 2.01141 4.82016 0
M  V30 3841 H 369.547 1.40462 2.64406 0
M  V30 3842 H 367.093 0.67684 1.27102 0
M  V30 3843 H 369.046 -0.482192 4.18632 0
M  V30 3844 H 367.77 -1.06351 3.08799 0
M  V30 3845 H 366.429 1.02482 3.51984 0
M  V30 3846 H 366.077 -1.0125 4.92704 0
M  V30 3847 H 365.777 0.477325 5.85658 0
M  V30 3848 H 367.301 -0.425107 6.09118 0
M  V30 3849 H 368.715 1.75612 5.45741 0
M  V30 3850 H 367.112 2.54695 5.43369 0
M  V30 3851 H 368.182 2.69909 4.02836 0
M  V30 3852 N 369.525 -1.3858 0.750561 0
M  V30 3853 C 370.941 -1.53759 0.427824 0
M  V30 3854 C 371.141 -1.71401 -1.05943 0
M  V30 3855 O 370.197 -1.72331 -1.84549 0
M  V30 3856 C 371.51 -2.74642 1.22443 0
M  V30 3857 C 373.058 -2.88489 1.2142 0
M  V30 3858 C 373.533 -4.12329 1.9937 0
M  V30 3859 N 375.024 -4.194 1.96616 0
M  V30 3860 C 375.759 -5.14209 2.53727 0
M  V30 3861 N 375.255 -6.14709 3.19539 0
M  V30 3862 N 377.048 -5.06537 2.43673 0
M  V30 3863 H 369.199 -1.25377 1.71447 0
M  V30 3864 H 371.462 -0.608844 0.726645 0
M  V30 3865 H 371.168 -2.68 2.27747 0
M  V30 3866 H 371.042 -3.67745 0.839273 0
M  V30 3867 H 373.429 -2.94614 0.169232 0
M  V30 3868 H 373.51 -1.96406 1.63885 0
M  V30 3869 H 373.154 -4.06966 3.03877 0
M  V30 3870 H 373.084 -5.03486 1.54302 0
M  V30 3871 H 375.575 -3.47421 1.48684 0
M  V30 3872 H 375.888 -6.8354 3.60545 0
M  V30 3873 H 374.233 -6.1505 3.23633 0
M  V30 3874 H 377.424 -4.26962 1.91889 0
M  V30 3875 H 377.597 -5.80245 2.88479 0
M  V30 3876 N 371.003 -0.499398 -1.49478 0
M  V30 3877 C 372.231 0.0425456 -2.06856 0
M  V30 3878 C 372.646 1.30964 -1.35992 0
M  V30 3879 O 372.003 1.77172 -0.437762 0
M  V30 3880 C 372.054 0.301735 -3.60239 0
M  V30 3881 O 371.775 -0.915127 -4.28436 0
M  V30 3882 C 373.276 0.887499 -4.34325 0
M  V30 3883 H 370.496 -0.0197482 -0.670709 0
M  V30 3884 H 373.04 -0.696297 -1.92281 0
M  V30 3885 H 371.195 0.990556 -3.74522 0
M  V30 3886 H 371.609 -0.676993 -5.20113 0
M  V30 3887 H 373.083 1.01845 -5.42523 0
M  V30 3888 H 373.56 1.88488 -3.96698 0
M  V30 3889 H 374.166 0.236196 -4.24644 0
M  V30 3890 N 372.481 1.55866 -0.233164 0
M  V30 3891 C 373.411 2.23783 0.666599 0
M  V30 3892 C 374.392 1.21343 1.19205 0
M  V30 3893 O 375.577 1.4996 1.23392 0
M  V30 3894 C 372.707 2.92671 1.86978 0
M  V30 3895 C 371.661 4.01682 1.47768 0
M  V30 3896 C 370.987 4.57926 2.76058 0
M  V30 3897 C 372.287 5.18126 0.658993 0
M  V30 3898 H 373.981 2.99232 0.100306 0
M  V30 3899 H 371.527 1.43924 0.046804 0
M  V30 3900 H 373.48 3.3888 2.50476 0
M  V30 3901 H 372.204 2.14688 2.46123 0
M  V30 3902 H 370.863 3.56222 0.866106 0
M  V30 3903 H 370.511 3.76659 3.33372 0
M  V30 3904 H 370.211 5.31505 2.50552 0
M  V30 3905 H 371.735 5.06859 3.40479 0
M  V30 3906 H 373.149 5.60644 1.19795 0
M  V30 3907 H 371.546 5.98009 0.500552 0
M  V30 3908 H 372.616 4.83763 -0.331856 0
M  V30 3909 N 373.959 -0.0401083 1.57549 0
M  V30 3910 C 375.184 -0.748931 1.93406 0
M  V30 3911 C 375.609 -1.68686 0.832274 0
M  V30 3912 O 374.967 -1.80047 -0.212818 0
M  V30 3913 C 375.015 -1.4916 3.28304 0
M  V30 3914 O 374.119 -2.6042 3.19774 0
M  V30 3915 H 373.46 -0.202212 0.63246 0
M  V30 3916 H 375.99 0.00112086 2.046 0
M  V30 3917 H 376 -1.86395 3.62934 0
M  V30 3918 H 374.675 -0.80364 4.08062 0
M  V30 3919 H 373.252 -2.25808 2.96758 0
M  V30 3920 N 375.437 -1.54477 -0.31217 0
M  V30 3921 C 376.683 -1.73483 -1.0503 0
M  V30 3922 C 377.016 -0.513125 -1.87298 0
M  V30 3923 O 376.291 0.489864 -1.8823 0
M  V30 3924 C 376.574 -3.01723 -1.96558 0
M  V30 3925 C 376.427 -4.3417 -1.17545 0
M  V30 3926 C 377.746 -3.25772 -2.95907 0
M  V30 3927 H 374.865 -0.631222 -0.380432 0
M  V30 3928 H 377.507 -1.87184 -0.325932 0
M  V30 3929 H 375.657 -2.90174 -2.58324 0
M  V30 3930 H 377.329 -4.5762 -0.581513 0
M  V30 3931 H 375.572 -4.31159 -0.477925 0
M  V30 3932 H 376.243 -5.20143 -1.84811 0
M  V30 3933 H 378.719 -3.36857 -2.44267 0
M  V30 3934 H 377.595 -4.16838 -3.57123 0
M  V30 3935 H 377.856 -2.43537 -3.68974 0
M  V30 3936 N 376.915 0.57481 -1.46744 0
M  V30 3937 C 378.161 1.3347 -1.52688 0
M  V30 3938 C 378.494 1.93353 -0.181229 0
M  V30 3939 O 377.769 1.76912 0.808237 0
M  V30 3940 C 378.052 2.45811 -2.63152 0
M  V30 3941 C 377.905 1.90912 -4.07275 0
M  V30 3942 C 379.224 3.47822 -2.69644 0
M  V30 3943 H 376.343 0.483935 -0.555856 0
M  V30 3944 H 378.985 0.644968 -1.78718 0
M  V30 3945 H 377.135 3.04646 -2.41088 0
M  V30 3946 H 378.807 1.36473 -4.4065 0
M  V30 3947 H 377.05 1.21691 -4.16382 0
M  V30 3948 H 377.721 2.72042 -4.80309 0
M  V30 3949 H 380.197 2.9888 -2.895 0
M  V30 3950 H 379.073 4.23876 -3.48742 0
M  V30 3951 H 379.334 4.05555 -1.76005 0
M  V30 3952 N 378.394 1.34581 0.820102 0
M  V30 3953 C 379.324 1.29038 1.94606 0
M  V30 3954 C 380.305 0.1673 1.69275 0
M  V30 3955 O 381.49 0.360112 1.90832 0
M  V30 3956 C 378.62 1.04793 3.31113 0
M  V30 3957 C 377.574 2.13597 3.70891 0
M  V30 3958 C 376.9 1.74537 5.05412 0
M  V30 3959 C 378.2 3.55451 3.8269 0
M  V30 3960 H 379.894 2.23248 1.99501 0
M  V30 3961 H 377.44 1.0747 0.958449 0
M  V30 3962 H 379.393 0.995592 4.0947 0
M  V30 3963 H 378.117 0.0702565 3.26524 0
M  V30 3964 H 376.776 2.17905 2.9481 0
M  V30 3965 H 376.424 0.754226 4.97313 0
M  V30 3966 H 376.124 2.47361 5.32997 0
M  V30 3967 H 377.648 1.70803 5.86224 0
M  V30 3968 H 379.062 3.5354 4.51312 0
M  V30 3969 H 377.459 4.26922 4.21732 0
M  V30 3970 H 378.529 3.92587 2.84611 0
M  V30 3971 N 379.872 -1.04064 1.18357 0
M  V30 3972 C 380.802 -2.14001 0.934113 0
M  V30 3973 C 381.783 -1.69616 -0.128186 0
M  V30 3974 O 382.968 -1.94185 0.0244093 0
M  V30 3975 C 380.098 -3.44253 0.459066 0
M  V30 3976 C 379.052 -4.02261 1.46185 0
M  V30 3977 C 378.378 -5.27992 0.844322 0
M  V30 3978 C 379.678 -4.38432 2.83856 0
M  V30 3979 H 381.372 -2.35127 1.85352 0
M  V30 3980 H 378.918 -1.12998 0.892604 0
M  V30 3981 H 380.871 -4.20522 0.271907 0
M  V30 3982 H 379.595 -3.22813 -0.495912 0
M  V30 3983 H 378.254 -3.28074 1.63595 0
M  V30 3984 H 377.902 -5.02862 -0.117845 0
M  V30 3985 H 377.602 -5.67765 1.51384 0
M  V30 3986 H 379.126 -6.06938 0.667693 0
M  V30 3987 H 380.54 -5.05688 2.70098 0
M  V30 3988 H 378.937 -4.89254 3.47491 0
M  V30 3989 H 380.007 -3.4826 3.37406 0
M  V30 3990 N 381.35 -0.985608 -1.22978 0
M  V30 3991 C 382.313 -0.535071 -2.22867 0
M  V30 3992 C 383.313 0.378123 -1.56291 0
M  V30 3993 O 384.503 0.171092 -1.73358 0
M  V30 3994 C 381.635 0.222702 -3.40172 0
M  V30 3995 H 382.828 -1.41835 -2.6424 0
M  V30 3996 H 380.381 -0.772042 -1.35901 0
M  V30 3997 H 381.116 1.12229 -3.04262 0
M  V30 3998 H 380.901 -0.43288 -3.89703 0
M  V30 3999 H 382.391 0.526335 -4.1427 0
M  V30 4000 N 382.828 1.3818 -0.7579 0
M  V30 4001 C 384.075 2.00019 -0.315985 0
M  V30 4002 C 384.403 1.60163 1.10355 0
M  V30 4003 O 383.658 0.83264 1.77103 0
M  V30 4004 C 383.957 3.55252 -0.391218 0
M  V30 4005 C 383.623 4.14834 -1.76702 0
M  V30 4006 C 382.285 4.30821 -2.14353 0
M  V30 4007 C 384.637 4.47658 -2.66931 0
M  V30 4008 C 381.965 4.76928 -3.41696 0
M  V30 4009 C 384.317 4.95184 -3.93669 0
M  V30 4010 C 382.981 5.09377 -4.31383 0
M  V30 4011 H 382.251 0.731923 -0.115627 0
M  V30 4012 H 384.898 1.65161 -0.969223 0
M  V30 4013 H 383.203 3.90273 0.34558 0
M  V30 4014 H 384.9 4.00988 -0.030805 0
M  V30 4015 H 381.49 4.02808 -1.46435 0
M  V30 4016 H 385.674 4.34904 -2.39106 0
M  V30 4017 H 380.93 4.86103 -3.70829 0
M  V30 4018 H 385.104 5.19551 -4.63724 0
M  V30 4019 H 382.731 5.44865 -5.30119 0
M  V30 4020 N 384.306 0.507319 1.49211 0
M  V30 4021 C 385.552 -0.0350047 2.0277 0
M  V30 4022 C 385.885 -1.3606 1.38569 0
M  V30 4023 O 385.16 -1.87321 0.523542 0
M  V30 4024 C 385.443 -0.180916 3.59645 0
M  V30 4025 C 385.296 1.16825 4.34364 0
M  V30 4026 C 386.615 -0.918558 4.30407 0
M  V30 4027 H 383.734 -0.0112473 0.736914 0
M  V30 4028 H 386.376 0.659956 1.7817 0
M  V30 4029 H 384.526 -0.772826 3.80736 0
M  V30 4030 H 386.198 1.79952 4.24753 0
M  V30 4031 H 384.441 1.75594 3.96673 0
M  V30 4032 H 385.112 1.01939 5.42506 0
M  V30 4033 H 387.588 -0.41649 4.1401 0
M  V30 4034 H 386.464 -0.989505 5.39907 0
M  V30 4035 H 386.725 -1.96373 3.96093 0
M  V30 4036 N 385.784 -1.5574 0.241426 0
M  V30 4037 C 386.747 -2.19877 -0.647063 0
M  V30 4038 C 387.747 -1.16642 -1.10686 0
M  V30 4039 O 388.937 -1.41757 -1.01245 0
M  V30 4040 C 386.069 -2.83797 -1.88871 0
M  V30 4041 H 387.262 -2.99772 -0.087574 0
M  V30 4042 H 384.815 -1.56298 -0.00813574 0
M  V30 4043 H 385.55 -2.07824 -2.48957 0
M  V30 4044 H 385.335 -3.59414 -1.56728 0
M  V30 4045 H 386.825 -3.32898 -2.52129 0
M  V30 4046 N 387.262 0.0317525 -1.57568 0
M  V30 4047 C 388.502 0.727979 -1.90997 0
M  V30 4048 C 388.866 1.72664 -0.839708 0
M  V30 4049 O 390.067 2.47092 -1.05825 0
M  V30 4050 C 388.338 1.38239 -3.29583 0
M  V30 4051 S 389.897 2.10814 -3.84841 0
M  V30 4052 H 386.715 0.241226 -0.668828 0
M  V30 4053 H 389.317 -0.0173037 -1.95492 0
M  V30 4054 H 388.021 0.642288 -4.05343 0
M  V30 4055 H 387.552 2.16628 -3.28384 0
M  V30 4056 H 389.567 3.3792 -3.63352 0
M  V30 4057 N 388.74 1.54641 0.303973 0
M  V30 4058 C 389.986 1.74969 1.03718 0
M  V30 4059 C 390.341 0.527461 1.85029 0
M  V30 4060 O 389.634 -0.480143 1.85486 0
M  V30 4061 C 389.828 2.97753 1.97681 0
M  V30 4062 C 389.657 4.318 1.25613 0
M  V30 4063 C 388.427 4.95616 0.984518 0
M  V30 4064 C 390.625 5.10021 0.662081 0
M  V30 4065 N 388.607 6.13455 0.233794 0
M  V30 4066 C 389.978 6.19984 0.0439736 0
M  V30 4067 C 392.033 4.94663 0.566835 0
M  V30 4068 C 390.736 7.16264 -0.66016 0
M  V30 4069 C 392.762 5.91271 -0.123637 0
M  V30 4070 C 392.124 7.00601 -0.730608 0
M  V30 4071 H 388.223 0.692873 0.362562 0
M  V30 4072 H 390.807 1.92116 0.316135 0
M  V30 4073 H 388.978 2.82036 2.6704 0
M  V30 4074 H 390.71 3.06621 2.64132 0
M  V30 4075 H 387.465 4.55921 1.28191 0
M  V30 4076 H 387.889 6.76879 -0.127996 0
M  V30 4077 H 392.531 4.10267 1.02181 0
M  V30 4078 H 390.249 8.00204 -1.12691 0
M  V30 4079 H 393.835 5.81466 -0.197236 0
M  V30 4080 H 392.715 7.7407 -1.2564 0
M  V30 4081 N 390.218 -0.567019 1.47046 0
M  V30 4082 C 391.466 -1.322 1.52864 0
M  V30 4083 C 391.787 -1.94088 0.188388 0
M  V30 4084 O 391.057 -1.7941 -0.786693 0
M  V30 4085 H 389.637 -0.490894 0.563056 0
M  V30 4086 H 392.299 -0.662879 1.83281 0
M  V30 4087 H 391.395 -2.12062 2.2899 0
M  V30 4088 N 391.696 -1.35014 -0.812953 0
M  V30 4089 C 393.107 -1.25035 -1.38648 0
M  V30 4090 C 393.458 0.119967 -1.95833 0
M  V30 4091 O 392.583 1.02069 -1.90816 0
M  V30 4092 C 393.178 -2.26394 -2.52054 0
M  V30 4093 C 391.737 -2.20175 -3.05287 0
M  V30 4094 C 390.884 -2.12451 -1.78213 0
M  V30 4095 H 393.835 -1.46235 -0.616516 0
M  V30 4096 H 393.856 -1.88672 -3.30429 0
M  V30 4097 H 393.368 -3.26116 -2.10404 0
M  V30 4098 H 391.469 -1.23841 -3.51417 0
M  V30 4099 H 391.582 -3.11863 -3.63701 0
M  V30 4100 H 389.946 -1.58328 -1.9951 0
M  V30 4101 H 390.729 -3.14024 -1.38723 0
M  V30 4102 N 393.175 1.03435 -1.18907 0
M  V30 4103 C 394.105 2.13503 -0.945448 0
M  V30 4104 C 395.086 1.69682 0.119189 0
M  V30 4105 O 396.271 1.94169 -0.034707 0
M  V30 4106 C 393.401 3.44004 -0.477316 0
M  V30 4107 C 392.355 4.0148 -1.48316 0
M  V30 4108 C 391.681 5.27537 -0.872311 0
M  V30 4109 C 392.981 4.36921 -2.86177 0
M  V30 4110 H 394.675 2.34141 -1.86597 0
M  V30 4111 H 392.221 1.12523 -0.898584 0
M  V30 4112 H 394.174 4.20372 -0.294204 0
M  V30 4113 H 392.898 3.23072 0.478786 0
M  V30 4114 H 391.557 3.27201 -1.65332 0
M  V30 4115 H 391.205 5.02917 0.0911752 0
M  V30 4116 H 390.905 5.66954 -1.54393 0
M  V30 4117 H 392.429 6.06576 -0.699871 0
M  V30 4118 H 393.843 5.04248 -2.72776 0
M  V30 4119 H 392.24 4.87405 -3.50081 0
M  V30 4120 H 393.31 3.46466 -3.39248 0
M  V30 4121 N 394.653 0.992116 1.22453 0
M  V30 4122 C 395.9 0.667534 1.91181 0
M  V30 4123 C 396.228 -0.800317 1.77271 0
M  V30 4124 O 395.483 -1.59421 1.13505 0
M  V30 4125 C 395.782 1.01832 3.42586 0
M  V30 4126 C 395.448 2.47831 3.76684 0
M  V30 4127 C 394.11 2.87729 3.85701 0
M  V30 4128 C 396.462 3.42466 3.92895 0
M  V30 4129 C 393.79 4.21252 4.08367 0
M  V30 4130 C 396.142 4.75648 4.17064 0
M  V30 4131 C 394.806 5.15288 4.24305 0
M  V30 4132 H 394.076 0.244268 0.699581 0
M  V30 4133 H 396.723 1.24816 1.45235 0
M  V30 4134 H 395.028 0.355769 3.90181 0
M  V30 4135 H 396.725 0.745228 3.94014 0
M  V30 4136 H 393.315 2.15905 3.70247 0
M  V30 4137 H 397.499 3.12814 3.85307 0
M  V30 4138 H 392.755 4.51554 4.122 0
M  V30 4139 H 396.929 5.48924 4.2855 0
M  V30 4140 H 394.556 6.18769 4.41621 0
M  V30 4141 N 396.131 -1.37776 0.765217 0
M  V30 4142 C 397.061 -2.32945 0.160953 0
M  V30 4143 C 398.042 -1.55454 -0.690516 0
M  V30 4144 O 399.227 -1.83721 -0.629318 0
M  V30 4145 C 396.357 -3.39669 -0.724031 0
M  V30 4146 C 395.311 -4.27992 0.0256173 0
M  V30 4147 C 394.637 -5.25673 -0.978383 0
M  V30 4148 C 395.937 -5.08309 1.20082 0
M  V30 4149 H 397.631 -2.83728 0.955969 0
M  V30 4150 H 395.177 -1.36416 0.461149 0
M  V30 4151 H 397.13 -4.05219 -1.15652 0
M  V30 4152 H 395.854 -2.87396 -1.5515 0
M  V30 4153 H 394.513 -3.63964 0.438812 0
M  V30 4154 H 394.161 -4.69682 -1.80022 0
M  V30 4155 H 393.861 -5.85625 -0.481378 0
M  V30 4156 H 395.385 -5.94098 -1.40995 0
M  V30 4157 H 396.799 -5.67034 0.845307 0
M  V30 4158 H 395.196 -5.77554 1.62947 0
M  V30 4159 H 396.266 -4.41365 2.00811 0
M  V30 4160 N 397.609 -0.515225 -1.4894 0
M  V30 4161 C 398.539 0.244628 -2.32215 0
M  V30 4162 C 399.52 0.949136 -1.41157 0
M  V30 4163 O 400.705 0.937783 -1.70057 0
M  V30 4164 C 397.835 1.30096 -3.22013 0
M  V30 4165 C 396.789 0.715486 -4.21977 0
M  V30 4166 C 396.115 1.87339 -5.00808 0
M  V30 4167 C 397.415 -0.302982 -5.2142 0
M  V30 4168 H 399.109 -0.450501 -2.95991 0
M  V30 4169 H 396.655 -0.218098 -1.42339 0
M  V30 4170 H 398.608 1.84037 -3.79089 0
M  V30 4171 H 397.332 2.02547 -2.56207 0
M  V30 4172 H 395.991 0.197715 -3.66066 0
M  V30 4173 H 395.639 2.58592 -4.31438 0
M  V30 4174 H 395.339 1.48764 -5.68457 0
M  V30 4175 H 396.863 2.41686 -5.60732 0
M  V30 4176 H 398.277 0.148802 -5.73107 0
M  V30 4177 H 396.674 -0.60532 -5.97039 0
M  V30 4178 H 397.744 -1.21395 -4.69459 0
M  V30 4179 N 399.087 1.5561 -0.249682 0
M  V30 4180 C 400.017 2.24477 0.642826 0
M  V30 4181 C 400.998 1.22601 1.17911 0
M  V30 4182 O 402.183 1.5126 1.21795 0
M  V30 4183 C 399.313 2.94638 1.83863 0
M  V30 4184 C 398.267 4.03227 1.435 0
M  V30 4185 C 397.593 4.60828 2.71186 0
M  V30 4186 C 398.893 5.18796 0.604002 0
M  V30 4187 H 400.587 2.99321 0.0685625 0
M  V30 4188 H 398.133 1.43965 0.0315363 0
M  V30 4189 H 400.086 3.41517 2.46868 0
M  V30 4190 H 398.81 2.17287 2.43832 0
M  V30 4191 H 397.469 3.57121 0.828275 0
M  V30 4192 H 397.117 3.80174 3.29358 0
M  V30 4193 H 396.817 5.34132 2.44901 0
M  V30 4194 H 398.341 5.10442 3.35084 0
M  V30 4195 H 399.755 5.61883 1.13842 0
M  V30 4196 H 398.152 5.98506 0.437097 0
M  V30 4197 H 399.222 4.83384 -0.383147 0
M  V30 4198 N 400.565 -0.0233959 1.57583 0
M  V30 4199 C 401.495 -1.02162 2.09965 0
M  V30 4200 C 402.476 -1.3735 1.00344 0
M  V30 4201 O 403.661 -1.46135 1.27899 0
M  V30 4202 C 400.791 -2.32081 2.58371 0
M  V30 4203 C 399.745 -2.1112 3.72307 0
M  V30 4204 C 399.071 -3.46848 4.06941 0
M  V30 4205 C 400.371 -1.49276 5.00514 0
M  V30 4206 H 402.065 -0.585557 2.93618 0
M  V30 4207 H 399.611 -0.280218 1.41247 0
M  V30 4208 H 401.564 -3.02249 2.93639 0
M  V30 4209 H 400.288 -2.77758 1.71808 0
M  V30 4210 H 398.947 -1.43384 3.37397 0
M  V30 4211 H 398.595 -3.90184 3.17436 0
M  V30 4212 H 398.295 -3.33646 4.83688 0
M  V30 4213 H 399.819 -4.18369 4.44747 0
M  V30 4214 H 401.233 -2.09368 5.33702 0
M  V30 4215 H 399.63 -1.46632 5.8191 0
M  V30 4216 H 400.7 -0.459217 4.82721 0
M  V30 4217 N 402.043 -1.548 -0.295768 0
M  V30 4218 C 402.973 -1.89115 -1.36959 0
M  V30 4219 C 403.954 -0.75059 -1.52644 0
M  V30 4220 O 405.139 -1.00678 -1.66065 0
M  V30 4221 C 402.269 -2.14307 -2.73295 0
M  V30 4222 C 401.223 -3.30151 -2.72368 0
M  V30 4223 C 400.549 -3.40772 -4.12042 0
M  V30 4224 C 401.849 -4.67126 -2.33646 0
M  V30 4225 H 403.543 -2.79053 -1.08488 0
M  V30 4226 H 401.089 -1.34266 -0.520443 0
M  V30 4227 H 403.042 -2.36898 -3.48507 0
M  V30 4228 H 401.766 -1.21145 -3.03301 0
M  V30 4229 H 400.425 -3.0749 -1.99613 0
M  V30 4230 H 400.073 -2.45117 -4.39234 0
M  V30 4231 H 399.773 -4.18645 -4.12322 0
M  V30 4232 H 401.297 -3.6563 -4.89027 0
M  V30 4233 H 402.711 -4.89414 -2.98575 0
M  V30 4234 H 401.108 -5.47751 -2.45129 0
M  V30 4235 H 402.178 -4.67489 -1.28772 0
M  V30 4236 N 403.521 0.559213 -1.47345 0
M  V30 4237 C 404.798 1.31997 -1.44348 0
M  V30 4238 C 405.178 2.1064 -0.139358 0
M  V30 4239 O 404.526 2.1091 0.879153 0
M  V30 4240 C 404.736 2.22618 -2.68779 0
M  V30 4241 C 406.084 2.83701 -3.1591 0
M  V30 4242 O 407.108 2.32921 -2.69493 0
M  V30 4243 O 405.967 3.75993 -3.966 0
M  V30 4244 H 403.061 0.594251 -0.575147 0
M  V30 4245 H 405.607 0.578282 -1.59543 0
M  V30 4246 H 404.379 1.64093 -3.55231 0
M  V30 4247 H 404.002 3.04085 -2.5616 0
M  V30 4248 N 404.999 1.35443 0.805782 0
M  V30 4249 C 406.245 1.28952 1.56522 0
M  V30 4250 C 406.578 -0.135597 1.93726 0
M  V30 4251 O 405.853 -1.08516 1.61414 0
M  V30 4252 C 406.136 2.19678 2.85331 0
M  V30 4253 C 405.989 3.7081 2.54598 0
M  V30 4254 C 407.308 2.09495 3.8704 0
M  V30 4255 H 404.427 0.469764 0.567883 0
M  V30 4256 H 407.069 1.65851 0.927001 0
M  V30 4257 H 405.219 1.8834 3.39795 0
M  V30 4258 H 406.891 4.12593 2.06312 0
M  V30 4259 H 405.134 3.91051 1.8778 0
M  V30 4260 H 405.805 4.29679 3.46525 0
M  V30 4261 H 408.281 2.37045 3.41978 0
M  V30 4262 H 407.157 2.75173 4.74943 0
M  V30 4263 H 407.418 1.07714 4.28777 0
M  V30 4264 N 406.477 -1.02803 1.19454 0
M  V30 4265 C 407.44 -2.09264 0.934955 0
M  V30 4266 C 408.44 -1.60576 -0.0849015 0
M  V30 4267 O 409.63 -1.73554 0.149933 0
M  V30 4268 C 406.762 -3.38482 0.40531 0
M  V30 4269 H 407.955 -2.33726 1.87916 0
M  V30 4270 H 405.508 -1.19426 1.00832 0
M  V30 4271 H 406.243 -3.19689 -0.544899 0
M  V30 4272 H 406.028 -3.75142 1.14065 0
M  V30 4273 H 407.518 -4.16894 0.242806 0
M  V30 4274 N 407.956 -0.998596 -1.21925 0
M  V30 4275 C 409.196 -0.685948 -1.92546 0
M  V30 4276 C 409.56 0.768441 -1.75952 0
M  V30 4277 O 410.761 1.19277 -2.40887 0
M  V30 4278 C 409.032 -1.08767 -3.40448 0
M  V30 4279 S 410.591 -0.894251 -4.29591 0
M  V30 4280 H 407.409 -0.250622 -0.665364 0
M  V30 4281 H 410.011 -1.28207 -1.47591 0
M  V30 4282 H 408.715 -2.14242 -3.50041 0
M  V30 4283 H 408.246 -0.48357 -3.90417 0
M  V30 4284 H 410.261 0.212149 -4.95746 0
M  V30 4285 N 409.434 1.37368 -0.772513 0
M  V30 4286 C 410.845 1.8231 -0.402493 0
M  V30 4287 C 411.196 1.6436 1.07146 0
M  V30 4288 O 410.321 1.15514 1.82991 0
M  V30 4289 C 410.916 3.30979 -0.723776 0
M  V30 4290 C 409.475 3.74195 -0.406802 0
M  V30 4291 C 408.622 2.59885 -0.967218 0
M  V30 4292 H 411.573 1.25829 -0.967099 0
M  V30 4293 H 411.594 3.80499 -0.00870832 0
M  V30 4294 H 411.106 3.44011 -1.7966 0
M  V30 4295 H 409.207 3.66732 0.658673 0
M  V30 4296 H 409.32 4.7027 -0.915588 0
M  V30 4297 H 407.684 2.51674 -0.391416 0
M  V30 4298 H 408.467 2.7571 -2.04546 0
M  V30 4299 N 410.912 0.523116 1.48665 0
M  V30 4300 C 411.875 -0.232592 2.28017 0
M  V30 4301 C 412.875 -0.874021 1.34972 0
M  V30 4302 O 414.065 -0.735132 1.57929 0
M  V30 4303 C 411.197 -1.33586 3.13636 0
M  V30 4304 H 412.39 0.464008 2.96289 0
M  V30 4305 H 409.943 0.278816 1.53793 0
M  V30 4306 H 410.678 -2.06593 2.4998 0
M  V30 4307 H 410.463 -0.881125 3.82071 0
M  V30 4308 H 411.953 -1.86759 3.73511 0
M  V30 4309 N 412.39 -1.55475 0.257931 0
M  V30 4310 C 413.806 -1.59307 -0.0966563 0
M  V30 4311 C 414.006 -1.27514 -1.5602 0
M  V30 4312 O 413.062 -1.02774 -2.30637 0
M  V30 4313 C 414.375 -2.99552 0.262481 0
M  V30 4314 C 415.923 -3.1231 0.207683 0
M  V30 4315 C 416.398 -4.54793 0.541012 0
M  V30 4316 N 417.889 -4.6058 0.491921 0
M  V30 4317 C 418.624 -5.68825 0.722857 0
M  V30 4318 N 418.12 -6.85287 1.0175 0
M  V30 4319 N 419.913 -5.58296 0.652815 0
M  V30 4320 H 412.064 -1.74409 1.21224 0
M  V30 4321 H 414.327 -0.812424 0.48854 0
M  V30 4322 H 414.033 -3.27593 1.27967 0
M  V30 4323 H 413.907 -3.75019 -0.40508 0
M  V30 4324 H 416.294 -2.84044 -0.800195 0
M  V30 4325 H 416.375 -2.39095 0.909255 0
M  V30 4326 H 416.019 -4.83783 1.5465 0
M  V30 4327 H 415.949 -5.26285 -0.18216 0
M  V30 4328 H 418.44 -3.7691 0.273366 0
M  V30 4329 H 418.753 -7.63725 1.18084 0
M  V30 4330 H 417.098 -6.86945 1.05509 0
M  V30 4331 H 420.289 -4.66189 0.422592 0
M  V30 4332 H 420.462 -6.42582 0.836182 0
M  V30 4333 N 413.868 0.0150385 -1.57593 0
M  V30 4334 C 415.096 0.714395 -1.94175 0
M  V30 4335 C 415.511 1.68135 -0.858841 0
M  V30 4336 O 414.868 1.81766 0.163567 0
M  V30 4337 C 414.919 1.45933 -3.30735 0
M  V30 4338 O 414.64 0.531167 -4.34868 0
M  V30 4339 C 416.141 2.25456 -3.81686 0
M  V30 4340 H 413.361 0.199923 -0.640525 0
M  V30 4341 H 415.905 -0.0316096 -2.04476 0
M  V30 4342 H 414.06 2.15709 -3.21789 0
M  V30 4343 H 414.474 1.05509 -5.13778 0
M  V30 4344 H 415.948 2.731 -4.79709 0
M  V30 4345 H 416.425 3.07485 -3.13607 0
M  V30 4346 H 417.031 1.60727 -3.9376 0
M  V30 4347 N 415.346 1.54954 0.287554 0
M  V30 4348 C 416.586 1.76617 1.02887 0
M  V30 4349 C 416.95 0.547759 1.84021 0
M  V30 4350 O 418.151 0.642365 2.61012 0
M  V30 4351 C 416.422 3.02717 1.89993 0
M  V30 4352 S 417.981 3.45438 2.70588 0
M  V30 4353 H 414.799 0.6207 0.346775 0
M  V30 4354 H 417.401 1.93172 0.30082 0
M  V30 4355 H 416.105 3.89503 1.29287 0
M  V30 4356 H 415.636 2.88787 2.67144 0
M  V30 4357 H 417.651 3.03566 3.92508 0
M  V30 4358 N 416.824 -0.551391 1.4764 0
M  V30 4359 C 418.235 -1.13349 1.48354 0
M  V30 4360 C 418.586 -1.94709 0.241432 0
M  V30 4361 O 417.711 -2.06306 -0.653205 0
M  V30 4362 C 418.306 -2.0623 2.68802 0
M  V30 4363 C 416.865 -2.597 2.72457 0
M  V30 4364 C 416.012 -1.36201 2.41546 0
M  V30 4365 H 418.963 -0.337698 1.55065 0
M  V30 4366 H 418.984 -2.90196 2.46103 0
M  V30 4367 H 418.496 -1.46987 3.59188 0
M  V30 4368 H 416.597 -3.22724 1.86225 0
M  V30 4369 H 416.71 -3.00296 3.73308 0
M  V30 4370 H 415.074 -1.67068 1.9225 0
M  V30 4371 H 415.857 -0.787425 3.34147 0
M  V30 4372 N 418.302 -1.35869 -0.798587 0
M  V30 4373 C 419.548 -1.2978 -1.55836 0
M  V30 4374 C 419.881 0.125322 -1.93795 0
M  V30 4375 O 419.156 1.07658 -1.61987 0
M  V30 4376 C 419.439 -2.21188 -2.84162 0
M  V30 4377 C 419.292 -3.72155 -2.52628 0
M  V30 4378 C 420.611 -2.11545 -3.85923 0
M  V30 4379 H 417.73 -0.472769 -0.565383 0
M  V30 4380 H 420.372 -1.66341 -0.918192 0
M  V30 4381 H 418.522 -1.90139 -3.38791 0
M  V30 4382 H 420.194 -4.13682 -2.04121 0
M  V30 4383 H 418.437 -3.92042 -1.85704 0
M  V30 4384 H 419.108 -4.31511 -3.44242 0
M  V30 4385 H 421.584 -2.38855 -3.40716 0
M  V30 4386 H 420.46 -2.77688 -4.73477 0
M  V30 4387 H 420.721 -1.09987 -4.282 0
M  V30 4388 N 419.78 1.02168 -1.19998 0
M  V30 4389 C 420.71 2.12488 -0.96804 0
M  V30 4390 C 421.691 1.69799 0.101185 0
M  V30 4391 O 422.876 1.94121 -0.0552993 0
M  V30 4392 C 420.006 3.43479 -0.513776 0
M  V30 4393 C 418.96 3.99884 -1.52566 0
M  V30 4394 C 418.286 5.26582 -0.928214 0
M  V30 4395 C 419.586 4.33861 -2.90795 0
M  V30 4396 H 421.28 2.32149 -1.89069 0
M  V30 4397 H 418.826 1.11564 -0.910468 0
M  V30 4398 H 420.779 4.20036 -0.338774 0
M  V30 4399 H 419.503 3.23561 0.444493 0
M  V30 4400 H 418.162 3.25429 -1.68794 0
M  V30 4401 H 417.81 5.02986 0.0378289 0
M  V30 4402 H 417.51 5.65284 -1.60397 0
M  V30 4403 H 419.034 6.05799 -0.764167 0
M  V30 4404 H 420.448 5.01327 -2.78109 0
M  V30 4405 H 418.845 4.83664 -3.55231 0
M  V30 4406 H 419.915 3.42848 -3.42904 0
M  V30 4407 N 421.258 1.00505 1.21394 0
M  V30 4408 C 422.188 0.585684 2.26035 0
M  V30 4409 C 423.169 -0.393525 1.65485 0
M  V30 4410 O 424.354 -0.281497 1.92149 0
M  V30 4411 C 421.484 -0.0884283 3.47187 0
M  V30 4412 C 420.438 0.810567 4.20254 0
M  V30 4413 C 419.764 0.00286382 5.347 0
M  V30 4414 C 421.064 2.1132 4.77641 0
M  V30 4415 H 422.758 1.46039 2.61368 0
M  V30 4416 H 420.304 0.703648 1.25638 0
M  V30 4417 H 422.257 -0.393286 4.19561 0
M  V30 4418 H 420.981 -0.997766 3.10986 0
M  V30 4419 H 419.64 1.09925 3.49731 0
M  V30 4420 H 419.288 -0.907765 4.94741 0
M  V30 4421 H 418.988 0.601444 5.84514 0
M  V30 4422 H 420.512 -0.295808 6.09883 0
M  V30 4423 H 421.926 1.87148 5.41893 0
M  V30 4424 H 420.323 2.66164 5.37845 0
M  V30 4425 H 421.393 2.78393 3.9702 0
M  V30 4426 N 422.737 -1.36956 0.779787 0
M  V30 4427 C 423.669 -2.28833 0.129639 0
M  V30 4428 C 424.682 -1.4902 -0.655511 0
M  V30 4429 O 425.871 -1.71578 -0.492279 0
M  V30 4430 C 422.971 -3.2833 -0.839792 0
M  V30 4431 C 422.144 -4.3727 -0.10675 0
M  V30 4432 C 421.203 -5.16789 -0.990717 0
M  V30 4433 O 420.229 -5.67406 -0.451516 0
M  V30 4434 N 421.431 -5.32294 -2.3161 0
M  V30 4435 H 424.196 -2.85268 0.918803 0
M  V30 4436 H 421.757 -1.49019 0.632841 0
M  V30 4437 H 423.749 -3.78413 -1.43477 0
M  V30 4438 H 422.319 -2.72605 -1.52988 0
M  V30 4439 H 421.539 -3.88478 0.669216 0
M  V30 4440 H 422.827 -5.07229 0.399464 0
M  V30 4441 H 422.225 -4.92768 -2.77843 0
M  V30 4442 H 420.782 -5.85656 -2.86095 0
M  V30 4443 N 424.215 -0.530993 -1.48385 0
M  V30 4444 C 425.178 0.220497 -2.28137 0
M  V30 4445 C 426.178 0.866851 -1.35434 0
M  V30 4446 O 427.368 0.726746 -1.58316 0
M  V30 4447 C 424.5 1.31921 -3.1434 0
M  V30 4448 H 425.693 -0.479714 -2.96038 0
M  V30 4449 H 423.246 -0.286968 -1.53643 0
M  V30 4450 H 423.981 2.05264 -2.51072 0
M  V30 4451 H 423.766 0.86085 -3.82533 0
M  V30 4452 H 425.256 1.84776 -3.74497 0
M  V30 4453 N 425.693 1.55336 -0.266172 0
M  V30 4454 C 426.97 1.91372 0.404486 0
M  V30 4455 C 427.35 1.18935 1.74407 0
M  V30 4456 O 426.698 0.3132 2.26343 0
M  V30 4457 C 426.908 3.44581 0.553593 0
M  V30 4458 C 428.256 4.16196 0.840618 0
M  V30 4459 O 429.28 3.50426 0.638739 0
M  V30 4460 O 428.139 5.32567 1.22618 0
M  V30 4461 H 425.233 0.797194 0.220025 0
M  V30 4462 H 427.779 1.66813 -0.311664 0
M  V30 4463 H 426.551 3.89357 -0.389498 0
M  V30 4464 H 426.174 3.75065 1.31955 0
M  V30 4465 N 427.171 -0.0066808 1.57599 0
M  V30 4466 C 428.582 -0.550379 1.78403 0
M  V30 4467 C 428.933 -1.74339 0.900014 0
M  V30 4468 O 428.058 -2.16166 0.100713 0
M  V30 4469 C 428.653 -1.00523 3.23544 0
M  V30 4470 C 427.212 -1.49428 3.45468 0
M  V30 4471 C 426.359 -0.442444 2.73748 0
M  V30 4472 H 429.31 0.219508 1.57175 0
M  V30 4473 H 429.331 -1.87157 3.31289 0
M  V30 4474 H 428.843 -0.136735 3.87859 0
M  V30 4475 H 426.944 -2.3839 2.86358 0
M  V30 4476 H 427.057 -1.52635 4.54136 0
M  V30 4477 H 425.421 -0.902578 2.38171 0
M  V30 4478 H 426.204 0.416973 3.40758 0
M  V30 4479 N 428.649 -1.55105 -0.279332 0
M  V30 4480 C 429.896 -1.75412 -1.01177 0
M  V30 4481 C 430.224 -0.551728 -1.86511 0
M  V30 4482 O 429.479 0.465919 -1.90073 0
M  V30 4483 C 429.778 -3.0086 -1.92919 0
M  V30 4484 C 429.444 -4.33689 -1.23387 0
M  V30 4485 C 428.106 -4.69792 -1.04159 0
M  V30 4486 C 430.458 -5.15941 -0.738562 0
M  V30 4487 C 427.786 -5.85707 -0.341166 0
M  V30 4488 C 430.138 -6.32579 -0.0517636 0
M  V30 4489 C 428.802 -6.67326 0.152292 0
M  V30 4490 H 428.072 -0.641879 -0.370233 0
M  V30 4491 H 430.719 -1.89373 -0.284627 0
M  V30 4492 H 429.024 -2.81773 -2.72234 0
M  V30 4493 H 430.721 -3.13768 -2.49701 0
M  V30 4494 H 427.311 -4.05309 -1.39364 0
M  V30 4495 H 431.495 -4.8853 -0.874764 0
M  V30 4496 H 426.751 -6.11157 -0.172287 0
M  V30 4497 H 430.925 -6.9557 0.339828 0
M  V30 4498 H 428.552 -7.56998 0.697014 0
M  V30 4499 N 430.127 0.543554 -1.4793 0
M  V30 4500 C 431.057 1.65888 -1.64327 0
M  V30 4501 C 432.038 1.62818 -0.492383 0
M  V30 4502 O 433.223 1.80226 -0.723338 0
M  V30 4503 C 430.353 3.04506 -1.67013 0
M  V30 4504 C 429.307 3.2243 -2.81466 0
M  V30 4505 C 428.633 4.61972 -2.69233 0
M  V30 4506 C 429.933 3.06496 -4.22915 0
M  V30 4507 H 431.627 1.52421 -2.57698 0
M  V30 4508 H 429.173 0.731849 -1.24016 0
M  V30 4509 H 431.126 3.82391 -1.77074 0
M  V30 4510 H 429.85 3.18964 -0.70212 0
M  V30 4511 H 428.509 2.46957 -2.70938 0
M  V30 4512 H 428.157 4.73247 -1.7043 0
M  V30 4513 H 427.857 4.74911 -3.46025 0
M  V30 4514 H 429.381 5.41974 -2.81242 0
M  V30 4515 H 430.795 3.74186 -4.34348 0
M  V30 4516 H 429.192 3.30938 -5.006 0
M  V30 4517 H 430.262 2.03077 -4.40327 0
M  V30 4518 N 431.605 1.3629 0.791371 0
M  V30 4519 C 432.853 1.30154 1.5461 0
M  V30 4520 C 433.174 -0.119409 1.94634 0
M  V30 4521 O 432.444 -1.05924 1.64794 0
M  V30 4522 H 431.024 0.478784 0.573389 0
M  V30 4523 H 433.686 1.70565 0.94306 0
M  V30 4524 H 432.782 1.92762 2.45457 0
M  V30 4525 N 433.083 -1.0153 1.20538 0
M  V30 4526 C 434.013 -2.11972 0.979295 0
M  V30 4527 C 434.994 -1.6985 -0.0921787 0
M  V30 4528 O 436.179 -1.94089 0.0655932 0
M  V30 4529 C 433.309 -3.43201 0.531984 0
M  V30 4530 C 432.263 -3.9907 1.54685 0
M  V30 4531 C 431.589 -5.26082 0.956127 0
M  V30 4532 C 432.889 -4.32313 2.93092 0
M  V30 4533 H 434.583 -2.31143 1.90298 0
M  V30 4534 H 432.129 -1.11079 0.916372 0
M  V30 4535 H 434.082 -4.1985 0.361044 0
M  V30 4536 H 432.806 -3.23792 -0.427327 0
M  V30 4537 H 431.465 -3.2453 1.70517 0
M  V30 4538 H 431.113 -5.02999 -0.0111538 0
M  V30 4539 H 430.813 -5.64426 1.63393 0
M  V30 4540 H 432.337 -6.05386 0.796284 0
M  V30 4541 H 433.751 -4.99845 2.80763 0
M  V30 4542 H 432.148 -4.81774 3.57791 0
M  V30 4543 H 433.218 -3.41025 3.44717 0
M  V30 4544 N 434.561 -1.01147 -1.20859 0
M  V30 4545 C 435.524 -0.582224 -2.21682 0
M  V30 4546 C 436.524 0.344887 -1.57058 0
M  V30 4547 O 437.714 0.134281 -1.73682 0
M  V30 4548 C 434.846 0.150496 -3.40568 0
M  V30 4549 H 436.039 -1.47408 -2.61172 0
M  V30 4550 H 433.592 -0.800695 -1.34233 0
M  V30 4551 H 434.327 1.0575 -3.06574 0
M  V30 4552 H 434.112 -0.515444 -3.88697 0
M  V30 4553 H 435.602 0.438344 -4.15293 0
M  V30 4554 N 436.039 1.36541 -0.78704 0
M  V30 4555 C 436.972 2.27831 -0.129765 0
M  V30 4556 C 437.95 1.47105 0.692732 0
M  V30 4557 O 439.134 1.7641 0.664222 0
M  V30 4558 C 436.261 3.28577 0.821883 0
M  V30 4559 C 435.307 4.26422 0.0814771 0
M  V30 4560 S 436.14 5.20919 -1.24112 0
M  V30 4561 C 437.296 6.25212 -0.293409 0
M  V30 4562 H 437.529 2.83229 -0.903811 0
M  V30 4563 H 435.062 1.43046 -0.581144 0
M  V30 4564 H 437.02 3.87123 1.3655 0
M  V30 4565 H 435.681 2.72096 1.56916 0
M  V30 4566 H 434.874 4.97554 0.803485 0
M  V30 4567 H 434.476 3.71944 -0.391589 0
M  V30 4568 H 436.768 6.75435 0.528622 0
M  V30 4569 H 437.711 7.01378 -0.973344 0
M  V30 4570 H 438.119 5.64407 0.102196 0
M  V30 4571 N 437.518 0.538854 1.48102 0
M  V30 4572 C 438.481 -0.208395 2.28251 0
M  V30 4573 C 439.481 -0.859656 1.35892 0
M  V30 4574 O 440.671 -0.71834 1.58699 0
M  V30 4575 C 437.803 -1.30252 3.15035 0
M  V30 4576 H 438.996 0.495407 2.9578 0
M  V30 4577 H 436.549 0.295112 1.53489 0
M  V30 4578 H 437.284 -2.0393 2.52157 0
M  V30 4579 H 437.069 -0.840551 3.82985 0
M  V30 4580 H 438.559 -1.82787 3.75471 0
M  V30 4581 N 438.996 -1.55193 0.274407 0
M  V30 4582 C 439.944 -2.23924 -0.629362 0
M  V30 4583 C 440.938 -1.23602 -1.1584 0
M  V30 4584 O 442.144 -1.41535 -1.11211 0
M  V30 4585 H 438.519 -0.718637 -0.221507 0
M  V30 4586 H 440.49 -2.98388 -0.0268322 0
M  V30 4587 C 439.239 -2.97329 -1.80252 0
M  V30 4588 H 438.562 -3.74313 -1.40462 0
M  V30 4589 H 440.002 -3.48743 -2.41152 0
M  V30 4590 C 438.461 -2.0276 -2.69054 0
M  V30 4591 O 438.991 -1.57836 -3.69392 0
M  V30 4592 N 437.197 -1.69275 -2.36208 0
M  V30 4593 H 436.744 -2.06004 -1.54661 0
M  V30 4594 H 436.702 -1.06271 -2.95895 0
M  V30 4595 N 440.474 -0.00167713 -1.576 0
M  V30 4596 C 441.699 0.69739 -1.95323 0
M  V30 4597 C 442.124 1.6642 -0.876706 0
M  V30 4598 O 441.482 1.80548 0.165007 0
M  V30 4599 C 441.53 1.40403 -3.32144 0
M  V30 4600 O 440.634 2.5185 -3.26566 0
M  V30 4601 H 439.975 0.185373 -0.637599 0
M  V30 4602 H 442.505 -0.0553665 -2.04525 0
M  V30 4603 H 442.515 1.76707 -3.67748 0
M  V30 4604 H 441.19 0.695167 -4.10049 0
M  V30 4605 H 439.767 2.17861 -3.0264 0
M  V30 4606 N 441.952 1.55251 0.271103 0
M  V30 4607 C 442.882 1.9127 1.33933 0
M  V30 4608 C 443.863 0.77478 1.5143 0
M  V30 4609 O 445.048 1.03307 1.64442 0
M  V30 4610 C 442.178 2.18627 2.69851 0
M  V30 4611 C 441.132 3.34442 2.67081 0
M  V30 4612 C 440.458 3.47284 4.06569 0
M  V30 4613 C 441.758 4.70784 2.26185 0
M  V30 4614 H 443.452 2.80744 1.04035 0
M  V30 4615 H 440.998 1.35077 0.499017 0
M  V30 4616 H 442.951 2.42413 3.44694 0
M  V30 4617 H 441.675 1.25955 3.01335 0
M  V30 4618 H 440.334 3.10627 1.94695 0
M  V30 4619 H 439.982 2.52074 4.35279 0
M  V30 4620 H 439.682 4.25152 4.0561 0
M  V30 4621 H 441.206 3.73363 4.83148 0
M  V30 4622 H 442.62 4.94102 2.90751 0
M  V30 4623 H 441.017 5.51582 2.36384 0
M  V30 4624 H 442.087 4.69478 1.21319 0
M  V30 4625 N 443.43 -0.535701 1.48216 0
M  V30 4626 C 444.36 -1.65014 1.65204 0
M  V30 4627 C 445.341 -1.62554 0.501011 0
M  V30 4628 O 446.526 -1.7984 0.732886 0
M  V30 4629 C 443.656 -3.03616 1.68626 0
M  V30 4630 C 442.61 -3.20932 2.83172 0
M  V30 4631 C 441.936 -4.60537 2.71679 0
M  V30 4632 C 443.236 -3.04249 4.24535 0
M  V30 4633 H 444.93 -1.51053 2.58502 0
M  V30 4634 H 442.476 -0.725262 1.24402 0
M  V30 4635 H 444.429 -3.81446 1.79099 0
M  V30 4636 H 443.153 -3.18587 0.719026 0
M  V30 4637 H 441.812 -2.45517 2.72244 0
M  V30 4638 H 441.46 -4.72336 1.72937 0
M  V30 4639 H 441.16 -4.73069 3.48538 0
M  V30 4640 H 442.684 -5.40475 2.84112 0
M  V30 4641 H 444.098 -3.71877 4.36326 0
M  V30 4642 H 442.495 -3.28278 5.02348 0
M  V30 4643 H 443.565 -2.00739 4.41397 0
M  V30 4644 N 444.908 -1.36708 -0.784132 0
M  V30 4645 C 445.856 -1.31533 -1.91838 0
M  V30 4646 C 446.85 -0.206205 -1.6814 0
M  V30 4647 O 448.056 -0.373519 -1.76082 0
M  V30 4648 H 444.431 -0.409613 -0.630651 0
M  V30 4649 H 446.402 -2.2731 -1.9332 0
M  V30 4650 C 445.151 -1.12679 -3.28936 0
M  V30 4651 H 444.474 -1.97274 -3.4774 0
M  V30 4652 H 445.914 -1.13106 -4.08636 0
M  V30 4653 C 444.373 0.168281 -3.36479 0
M  V30 4654 O 444.903 1.15625 -3.84699 0
M  V30 4655 N 443.109 0.214762 -2.89805 0
M  V30 4656 H 442.656 -0.589852 -2.50756 0
M  V30 4657 H 442.614 1.08094 -2.95234 0
M  V30 4658 N 446.386 1.0089 -1.21074 0
M  V30 4659 C 447.797 1.56056 -1.02486 0
M  V30 4660 C 448.148 1.91728 0.416506 0
M  V30 4661 O 447.273 1.73066 1.29912 0
M  V30 4662 C 447.868 2.83563 -1.85411 0
M  V30 4663 C 446.427 3.3523 -1.71166 0
M  V30 4664 C 445.574 2.0846 -1.82865 0
M  V30 4665 H 448.525 0.831818 -1.35154 0
M  V30 4666 H 448.546 3.55286 -1.36205 0
M  V30 4667 H 448.058 2.57569 -2.9031 0
M  V30 4668 H 446.159 3.66167 -0.689361 0
M  V30 4669 H 446.272 4.06913 -2.52901 0
M  V30 4670 H 444.636 2.21275 -1.26132 0
M  V30 4671 H 445.419 1.84883 -2.89263 0
M  V30 4672 N 447.864 1.01787 1.20321 0
M  V30 4673 C 449.113 0.703249 1.89043 0
M  V30 4674 C 449.426 -0.770445 1.79787 0
M  V30 4675 O 450.632 -1.19767 2.43656 0
M  V30 4676 C 449.088 1.20749 3.3904 0
M  V30 4677 C 448.696 2.70817 3.56878 0
M  V30 4678 C 450.44 0.968352 4.13308 0
M  V30 4679 C 448.347 3.14716 5.00708 0
M  V30 4680 H 447.277 0.259354 0.707991 0
M  V30 4681 H 449.928 1.23072 1.36108 0
M  V30 4682 H 448.31 0.607989 3.91305 0
M  V30 4683 H 449.484 3.36327 3.14993 0
M  V30 4684 H 447.799 2.92888 2.95983 0
M  V30 4685 H 450.396 1.27173 5.19356 0
M  V30 4686 H 450.739 -0.095149 4.16191 0
M  V30 4687 H 451.272 1.53129 3.67146 0
M  V30 4688 H 448.011 4.20347 5.02979 0
M  V30 4689 H 447.531 2.53927 5.43398 0
M  V30 4690 H 449.21 3.07426 5.69296 0
M  V30 4691 N 449.342 -1.36122 0.79427 0
M  V30 4692 C 450.591 -1.98361 0.365464 0
M  V30 4693 C 450.904 -1.6374 -1.06997 0
M  V30 4694 O 452.11 -2.19251 -1.60129 0
M  V30 4695 C 450.566 -3.54821 0.602496 0
M  V30 4696 C 450.174 -3.98362 2.04967 0
M  V30 4697 C 451.918 -4.2383 0.238437 0
M  V30 4698 C 449.825 -5.47619 2.2331 0
M  V30 4699 H 448.755 -0.742193 0.13291 0
M  V30 4700 H 451.406 -1.55354 0.976589 0
M  V30 4701 H 449.788 -3.95922 -0.078409 0
M  V30 4702 H 450.962 -3.68447 2.76737 0
M  V30 4703 H 449.277 -3.42206 2.37243 0
M  V30 4704 H 451.874 -5.33529 0.353705 0
M  V30 4705 H 452.217 -4.08264 -0.814006 0
M  V30 4706 H 452.75 -3.88108 0.872769 0
M  V30 4707 H 449.489 -5.68138 3.26955 0
M  V30 4708 H 449.009 -5.79145 1.5605 0
M  V30 4709 H 450.688 -6.13911 2.0426 0
M  V30 4710 N 450.82 -0.546701 -1.47814 0
M  V30 4711 C 452.05 -0.0232519 -2.06587 0
M  V30 4712 C 452.458 1.2712 -1.40133 0
M  V30 4713 O 451.801 1.77091 -0.488305 0
M  V30 4714 C 451.863 0.254117 -3.58601 0
M  V30 4715 C 451.527 -0.949331 -4.47031 0
M  V30 4716 C 452.524 -1.85216 -4.85789 0
M  V30 4717 C 450.209 -1.16104 -4.88697 0
M  V30 4718 C 452.203 -2.95047 -5.65001 0
M  V30 4719 C 449.89 -2.26247 -5.67676 0
M  V30 4720 C 450.888 -3.1555 -6.05737 0
M  V30 4721 O 450.576 -4.23784 -6.83127 0
M  V30 4722 H 450.308 -0.0380082 -0.674931 0
M  V30 4723 H 452.862 -0.756631 -1.90956 0
M  V30 4724 H 451.092 1.04168 -3.72406 0
M  V30 4725 H 452.781 0.72167 -3.99433 0
M  V30 4726 H 453.547 -1.70061 -4.54207 0
M  V30 4727 H 449.426 -0.475159 -4.58545 0
M  V30 4728 H 452.97 -3.64778 -5.94628 0
M  V30 4729 H 448.867 -2.41379 -5.98671 0
M  V30 4730 H 449.635 -4.21701 -7.01506 0
M  V30 4731 N 452.299 1.55045 -0.282633 0
M  V30 4732 C 453.527 2.04168 0.33512 0
M  V30 4733 C 453.942 1.16071 1.48906 0
M  V30 4734 O 453.299 0.182391 1.81586 0
M  V30 4735 C 453.35 3.52332 0.808957 0
M  V30 4736 O 453.071 4.37078 -0.299038 0
M  V30 4737 C 454.572 4.17375 1.49375 0
M  V30 4738 H 451.792 0.666744 0.0754543 0
M  V30 4739 H 454.336 2.00205 -0.416918 0
M  V30 4740 H 452.491 3.56715 1.51106 0
M  V30 4741 H 452.905 5.24458 0.0665514 0
M  V30 4742 H 454.379 5.22627 1.77664 0
M  V30 4743 H 454.856 3.65999 2.42778 0
M  V30 4744 H 455.462 4.17016 0.835305 0
M  V30 4745 N 453.777 0.010035 1.57597 0
M  V30 4746 C 454.707 -0.976857 2.12084 0
M  V30 4747 C 455.688 -1.35191 1.03235 0
M  V30 4748 O 456.873 -1.43389 1.3097 0
M  V30 4749 C 454.003 -2.26548 2.63236 0
M  V30 4750 C 452.957 -2.03175 3.76701 0
M  V30 4751 C 452.283 -3.38138 4.14206 0
M  V30 4752 C 453.583 -1.38625 5.03568 0
M  V30 4753 H 455.277 -0.523145 2.94794 0
M  V30 4754 H 452.823 -0.250195 1.4181 0
M  V30 4755 H 454.776 -2.95952 2.99984 0
M  V30 4756 H 453.5 -2.74051 1.77661 0
M  V30 4757 H 452.159 -1.36195 3.40362 0
M  V30 4758 H 451.807 -3.83363 3.25641 0
M  V30 4759 H 451.507 -3.23312 4.90656 0
M  V30 4760 H 453.031 -4.08841 4.53521 0
M  V30 4761 H 454.445 -1.98 5.38023 0
M  V30 4762 H 452.842 -1.34256 5.84889 0
M  V30 4763 H 453.912 -0.356722 4.83586 0
M  V30 4764 N 455.255 -1.55392 -0.262866 0
M  V30 4765 C 456.483 -1.80513 -1.01108 0
M  V30 4766 C 456.898 -0.583533 -1.79556 0
M  V30 4767 O 456.255 0.447585 -1.76926 0
M  V30 4768 C 456.306 -3.03648 -1.96164 0
M  V30 4769 O 456.027 -4.2109 -1.20893 0
M  V30 4770 C 457.528 -3.41448 -2.82715 0
M  V30 4771 H 454.748 -0.601079 -0.298236 0
M  V30 4772 H 457.292 -2.02425 -0.290582 0
M  V30 4773 H 455.447 -2.83832 -2.63663 0
M  V30 4774 H 455.861 -4.90771 -1.85051 0
M  V30 4775 H 457.335 -4.30751 -3.45192 0
M  V30 4776 H 457.812 -2.61308 -3.53008 0
M  V30 4777 H 458.418 -3.63559 -2.20693 0
M  V30 4778 N 456.733 0.527833 -1.48498 0
M  V30 4779 C 457.681 1.65313 -1.63628 0
M  V30 4780 C 458.675 1.6177 -0.502676 0
M  V30 4781 O 459.881 1.66601 -0.681469 0
M  V30 4782 H 456.256 0.547518 -0.515488 0
M  V30 4783 H 458.227 1.49696 -2.58135 0
M  V30 4784 C 456.976 3.03576 -1.6952 0
M  V30 4785 H 456.299 3.06997 -2.56111 0
M  V30 4786 H 457.739 3.81923 -1.84149 0
M  V30 4787 C 456.198 3.34089 -0.43432 0
M  V30 4788 O 456.728 3.99151 0.451852 0
M  V30 4789 N 454.934 2.88991 -0.305368 0
M  V30 4790 H 454.481 2.36222 -1.02747 0
M  V30 4791 H 454.439 3.09776 0.537249 0
M  V30 4792 N 458.211 1.37122 0.776871 0
M  V30 4793 C 459.627 1.1781 1.07671 0
M  V30 4794 C 459.827 0.0107454 2.01497 0
M  V30 4795 O 458.883 -0.650756 2.4397 0
M  V30 4796 C 460.196 2.49451 1.67913 0
M  V30 4797 C 461.744 2.55927 1.80195 0
M  V30 4798 C 462.219 3.87686 2.43851 0
M  V30 4799 N 463.71 3.891 2.51307 0
M  V30 4800 C 464.445 4.87797 3.014 0
M  V30 4801 N 463.941 5.96888 3.51705 0
M  V30 4802 N 465.734 4.75205 3.00227 0
M  V30 4803 H 457.885 2.11843 0.153778 0
M  V30 4804 H 460.148 0.938927 0.130844 0
M  V30 4805 H 459.854 3.35207 1.06439 0
M  V30 4806 H 459.728 2.66169 2.67271 0
M  V30 4807 H 462.115 1.70582 2.40803 0
M  V30 4808 H 462.196 2.43097 0.796069 0
M  V30 4809 H 461.84 4.73444 1.83884 0
M  V30 4810 H 461.77 3.97817 3.45035 0
M  V30 4811 H 464.261 3.10293 2.157 0
M  V30 4812 H 464.574 6.68155 3.88316 0
M  V30 4813 H 462.919 6.0054 3.49824 0
M  V30 4814 H 466.11 3.89103 2.60224 0
M  V30 4815 H 466.283 5.52279 3.38957 0
M  V30 4816 N 459.689 -1.00246 1.21608 0
M  V30 4817 C 460.966 -1.71336 0.943568 0
M  V30 4818 C 461.346 -2.03972 -0.543943 0
M  V30 4819 O 460.694 -1.71545 -1.50946 0
M  V30 4820 C 460.904 -2.97094 1.83128 0
M  V30 4821 C 462.252 -3.70071 2.08165 0
M  V30 4822 O 463.276 -3.07081 1.80498 0
M  V30 4823 O 462.135 -4.83376 2.54971 0
M  V30 4824 H 459.229 -0.747386 0.354039 0
M  V30 4825 H 461.775 -1.05967 1.32549 0
M  V30 4826 H 460.547 -2.69407 2.83788 0
M  V30 4827 H 460.17 -3.70204 1.45034 0
M  V30 4828 N 461.167 -1.02423 -1.1978 0
M  V30 4829 C 462.097 -0.62157 -2.25075 0
M  V30 4830 C 463.078 0.367148 -1.6609 0
M  V30 4831 O 464.263 0.250892 -1.92573 0
M  V30 4832 C 461.393 0.0331826 -3.47284 0
M  V30 4833 C 460.347 -0.877323 -4.18912 0
M  V30 4834 C 459.673 -0.0879296 -5.34628 0
M  V30 4835 C 460.973 -2.18892 -4.74219 0
M  V30 4836 H 462.667 -1.50179 -2.59011 0
M  V30 4837 H 460.213 -0.723547 -1.24502 0
M  V30 4838 H 462.166 0.326488 -4.20133 0
M  V30 4839 H 460.89 0.948164 -3.12534 0
M  V30 4840 H 459.549 -1.15475 -3.47938 0
M  V30 4841 H 459.197 0.828941 -4.96123 0
M  V30 4842 H 458.897 -0.694359 -5.83483 0
M  V30 4843 H 460.421 0.198743 -6.10276 0
M  V30 4844 H 461.835 -1.95746 -5.38847 0
M  V30 4845 H 460.232 -2.74686 -5.33542 0
M  V30 4846 H 461.302 -2.84674 -3.92541 0
M  V30 4847 N 462.645 1.35699 -0.801477 0
M  V30 4848 C 464.061 1.52065 -0.484596 0
M  V30 4849 C 464.261 1.75215 0.995084 0
M  V30 4850 O 463.317 1.79061 1.78026 0
M  V30 4851 C 464.63 2.69908 -1.32552 0
M  V30 4852 C 466.178 2.83784 -1.32044 0
M  V30 4853 C 466.653 4.04646 -2.14536 0
M  V30 4854 N 468.144 4.11814 -2.12046 0
M  V30 4855 C 468.879 5.04437 -2.72636 0
M  V30 4856 N 468.375 6.02426 -3.42133 0
M  V30 4857 N 470.168 4.97144 -2.62305 0
M  V30 4858 H 462.319 1.18928 -1.75983 0
M  V30 4859 H 464.582 0.581455 -0.748741 0
M  V30 4860 H 464.288 2.59363 -2.37537 0
M  V30 4861 H 464.162 3.64376 -0.975181 0
M  V30 4862 H 466.549 2.93783 -0.27846 0
M  V30 4863 H 466.63 1.90188 -1.71062 0
M  V30 4864 H 466.274 3.95407 -3.18772 0
M  V30 4865 H 466.204 4.97413 -1.72882 0
M  V30 4866 H 468.695 3.41664 -1.61476 0
M  V30 4867 H 469.008 6.69688 -3.85666 0
M  V30 4868 H 467.353 6.02615 -3.46237 0
M  V30 4869 H 470.544 4.19546 -2.07603 0
M  V30 4870 H 470.717 5.69138 -3.09815 0
M  V30 4871 N 464.123 0.554532 1.47522 0
M  V30 4872 C 465.073 -0.215008 2.26984 0
M  V30 4873 C 466.057 -0.88774 1.34194 0
M  V30 4874 O 467.249 -0.786489 1.58567 0
M  V30 4875 C 464.378 -1.24604 3.19889 0
M  V30 4876 C 463.464 -0.576857 4.20159 0
M  V30 4877 N 463.855 0.351541 5.04577 0
M  V30 4878 C 462.153 -0.831104 4.38188 0
M  V30 4879 C 462.854 0.739995 5.76974 0
M  V30 4880 N 461.83 0.0954407 5.43516 0
M  V30 4881 H 465.632 0.498843 2.89636 0
M  V30 4882 H 463.146 0.374279 1.58028 0
M  V30 4883 H 465.143 -1.81128 3.75498 0
M  V30 4884 H 463.803 -1.96101 2.58794 0
M  V30 4885 H 464.814 0.725556 5.12792 0
M  V30 4886 H 461.491 -1.53479 3.88266 0
M  V30 4887 H 462.881 1.50271 6.5488 0
M  V30 4888 N 465.601 -1.54893 0.290851 0
M  V30 4889 C 466.564 -2.21824 -0.576784 0
M  V30 4890 C 467.564 -1.20104 -1.06919 0
M  V30 4891 O 468.754 -1.44906 -0.966843 0
M  V30 4892 C 465.886 -2.89662 -1.79747 0
M  V30 4893 H 467.079 -2.99899 0.00784051 0
M  V30 4894 H 464.632 -1.56245 0.0415934 0
M  V30 4895 H 465.367 -2.15639 -2.42219 0
M  V30 4896 H 465.152 -3.64219 -1.45214 0
M  V30 4897 H 466.642 -3.4075 -2.4141 0
M  V30 4898 N 467.08 -0.0183926 -1.57589 0
M  V30 4899 C 468.01 0.965596 -2.12599 0
M  V30 4900 C 468.991 1.34641 -1.0395 0
M  V30 4901 O 470.176 1.42693 -1.31729 0
M  V30 4902 C 467.306 2.25149 -2.64434 0
M  V30 4903 C 466.26 2.01175 -3.77773 0
M  V30 4904 C 465.586 3.35937 -4.15994 0
M  V30 4905 C 466.886 1.35953 -5.04296 0
M  V30 4906 H 468.58 0.507504 -2.95067 0
M  V30 4907 H 466.126 0.242671 -1.41941 0
M  V30 4908 H 468.079 2.94357 -3.01549 0
M  V30 4909 H 466.803 2.73105 -1.79112 0
M  V30 4910 H 465.462 1.34388 -3.4108 0
M  V30 4911 H 465.11 3.81631 -3.27669 0
M  V30 4912 H 464.81 3.20705 -4.92364 0
M  V30 4913 H 466.334 4.0643 -4.55683 0
M  V30 4914 H 467.748 1.95144 -5.39065 0
M  V30 4915 H 466.145 1.31152 -5.85593 0
M  V30 4916 H 467.215 0.331071 -4.83768 0
M  V30 4917 N 468.558 1.5553 0.254621 0
M  V30 4918 C 469.488 1.9268 1.31897 0
M  V30 4919 C 470.469 0.790797 1.506 0
M  V30 4920 O 471.654 1.05045 1.63337 0
M  V30 4921 C 468.784 2.21477 2.67517 0
M  V30 4922 C 467.738 3.37256 2.63519 0
M  V30 4923 C 467.064 3.51576 4.02862 0
M  V30 4924 C 468.364 4.73157 2.21179 0
M  V30 4925 H 470.058 2.81832 1.01051 0
M  V30 4926 H 467.604 1.35599 0.484662 0
M  V30 4927 H 469.557 2.46055 3.42104 0
M  V30 4928 H 468.281 1.29144 2.99982 0
M  V30 4929 H 466.94 3.12675 1.9139 0
M  V30 4930 H 466.588 2.56676 4.32581 0
M  V30 4931 H 466.288 4.2943 4.01078 0
M  V30 4932 H 467.812 3.78467 4.79161 0
M  V30 4933 H 469.226 4.97158 2.85494 0
M  V30 4934 H 467.623 5.54058 2.30521 0
M  V30 4935 H 468.693 4.70739 1.16332 0
M  V30 4936 N 470.036 -0.519951 1.48776 0
M  V30 4937 C 471.452 -0.849418 1.35119 0
M  V30 4938 C 471.652 -1.98077 0.36982 0
M  V30 4939 O 470.708 -2.51664 -0.205359 0
M  V30 4940 C 472.021 -1.20748 2.75391 0
M  V30 4941 C 473.569 -1.31679 2.83954 0
M  V30 4942 C 474.044 -1.70824 4.24951 0
M  V30 4943 N 475.535 -1.77908 4.27672 0
M  V30 4944 C 476.27 -2.09603 5.33717 0
M  V30 4945 N 475.766 -2.39652 6.5003 0
M  V30 4946 N 477.559 -2.10694 5.21119 0
M  V30 4947 H 469.71 0.226377 2.1119 0
M  V30 4948 H 471.973 0.0386519 0.947212 0
M  V30 4949 H 471.679 -0.449703 3.48813 0
M  V30 4950 H 471.553 -2.15534 3.09556 0
M  V30 4951 H 473.94 -2.06532 2.10781 0
M  V30 4952 H 474.021 -0.3499 2.53396 0
M  V30 4953 H 473.665 -0.965282 4.98643 0
M  V30 4954 H 473.595 -2.6858 4.52959 0
M  V30 4955 H 476.086 -1.56923 3.43779 0
M  V30 4956 H 476.399 -2.6297 7.26682 0
M  V30 4957 H 474.744 -2.37149 6.53288 0
M  V30 4958 H 477.935 -1.86682 4.29264 0
M  V30 4959 H 478.108 -2.35062 6.03863 0
M  V30 4960 N 471.514 -1.37532 -0.769588 0
M  V30 4961 C 472.444 -1.36172 -1.89682 0
M  V30 4962 C 473.425 -0.23001 -1.68538 0
M  V30 4963 O 474.61 -0.43069 -1.89364 0
M  V30 4964 C 471.74 -1.1701 -3.26995 0
M  V30 4965 C 470.694 -2.27216 -3.62708 0
M  V30 4966 C 470.02 -1.93174 -4.98586 0
M  V30 4967 C 471.32 -3.6941 -3.69234 0
M  V30 4968 H 473.014 -2.30499 -1.91078 0
M  V30 4969 H 470.56 -1.10953 -0.917902 0
M  V30 4970 H 472.513 -1.14688 -4.05493 0
M  V30 4971 H 471.237 -0.191395 -3.26039 0
M  V30 4972 H 469.896 -2.28697 -2.86519 0
M  V30 4973 H 469.544 -0.938281 -4.94171 0
M  V30 4974 H 469.244 -2.66973 -5.23449 0
M  V30 4975 H 470.768 -1.92443 -5.79481 0
M  V30 4976 H 472.182 -3.70047 -4.37879 0
M  V30 4977 H 470.579 -4.4228 -4.05597 0
M  V30 4978 H 471.649 -4.0288 -2.69844 0
M  V30 4979 N 472.992 0.995999 -1.22138 0
M  V30 4980 C 474.238 1.73767 -1.04561 0
M  V30 4981 C 474.571 1.89633 0.418698 0
M  V30 4982 O 473.846 1.43723 1.3105 0
M  V30 4983 C 474.129 3.14505 -1.75382 0
M  V30 4984 C 473.982 3.06306 -3.29388 0
M  V30 4985 C 475.301 4.13615 -1.50369 0
M  V30 4986 H 472.42 0.630728 -0.38125 0
M  V30 4987 H 475.062 1.16057 -1.50435 0
M  V30 4988 H 473.212 3.63775 -1.36383 0
M  V30 4989 H 474.884 2.64681 -3.77812 0
M  V30 4990 H 473.127 2.43186 -3.59226 0
M  V30 4991 H 473.798 4.05884 -3.74116 0
M  V30 4992 H 476.274 3.73089 -1.84239 0
M  V30 4993 H 475.15 5.10212 -2.02421 0
M  V30 4994 H 475.411 4.39949 -0.435611 0
M  V30 4995 N 474.47 1.03057 1.19235 0
M  V30 4996 C 475.71 0.736757 1.9066 0
M  V30 4997 C 476.074 -0.721521 1.77927 0
M  V30 4998 O 477.275 -1.12849 2.43964 0
M  V30 4999 C 475.546 1.17755 3.37444 0
M  V30 5000 S 477.105 1.00783 4.27069 0
M  V30 5001 H 473.923 0.268174 0.658486 0
M  V30 5002 H 476.525 1.32076 1.4414 0
M  V30 5003 H 475.229 2.23448 3.44237 0
M  V30 5004 H 474.76 0.586912 3.88997 0
M  V30 5005 H 476.775 -0.0806356 4.96134 0
M  V30 5006 N 475.948 -1.35272 0.808662 0
M  V30 5007 C 477.188 -2.00534 0.395668 0
M  V30 5008 C 477.552 -1.62755 -1.01857 0
M  V30 5009 O 478.753 -2.20752 -1.53368 0
M  V30 5010 C 477.024 -3.52732 0.575771 0
M  V30 5011 S 478.583 -4.38067 0.253507 0
M  V30 5012 H 475.401 -0.694962 0.150165 0
M  V30 5013 H 478.003 -1.64823 1.05137 0
M  V30 5014 H 476.707 -3.77714 1.60499 0
M  V30 5015 H 476.238 -3.93285 -0.0951739 0
M  V30 5016 H 478.253 -4.87252 -0.938068 0
M  V30 5017 N 477.426 -0.562348 -1.47226 0
M  V30 5018 C 478.674 -0.0401371 -2.0206 0
M  V30 5019 C 478.995 1.3165 -1.43852 0
M  V30 5020 O 478.265 1.85976 -0.615599 0
M  V30 5021 H 476.845 -0.0118479 -0.746906 0
M  V30 5022 H 479.507 -0.73352 -1.8057 0
M  V30 5023 H 478.603 0.0441254 -3.12069 0
M  V30 5024 N 478.904 1.54736 -0.299062 0
M  V30 5025 C 480.32 1.59507 0.0543849 0
M  V30 5026 C 480.52 1.31606 1.52585 0
M  V30 5027 O 479.576 1.08853 2.27832 0
M  V30 5028 C 480.889 2.98751 -0.34181 0
M  V30 5029 C 482.437 3.1165 -0.290414 0
M  V30 5030 C 482.912 4.53199 -0.661402 0
M  V30 5031 N 484.403 4.59114 -0.613863 0
M  V30 5032 C 485.138 5.66709 -0.873417 0
M  V30 5033 N 484.634 6.82349 -1.19884 0
M  V30 5034 N 486.427 5.56369 -0.800608 0
M  V30 5035 H 478.578 1.71133 -1.25806 0
M  V30 5036 H 480.841 0.799186 -0.509908 0
M  V30 5037 H 480.547 3.24085 -1.36608 0
M  V30 5038 H 480.421 3.75961 0.305508 0
M  V30 5039 H 482.808 2.86066 0.724605 0
M  V30 5040 H 482.889 2.366 -0.972327 0
M  V30 5041 H 482.533 4.79513 -1.67422 0
M  V30 5042 H 482.463 5.26583 0.0425612 0
M  V30 5043 H 484.954 3.76053 -0.3732 0
M  V30 5044 H 485.267 7.60326 -1.38291 0
M  V30 5045 H 483.612 6.83906 -1.23685 0
M  V30 5046 H 486.803 4.64904 -0.546045 0
M  V30 5047 H 486.976 6.40139 -1.00626 0
M  V30 5048 N 480.382 0.0267497 1.57577 0
M  V30 5049 C 481.332 -0.965003 2.06571 0
M  V30 5050 C 482.316 -1.28694 0.965746 0
M  V30 5051 O 483.508 -1.27345 1.22932 0
M  V30 5052 C 480.637 -2.24821 2.59443 0
M  V30 5053 C 479.723 -1.95474 3.76365 0
M  V30 5054 N 480.114 -1.36387 4.87065 0
M  V30 5055 C 478.412 -2.25478 3.84806 0
M  V30 5056 C 479.113 -1.24119 5.68304 0
M  V30 5057 N 478.089 -1.7359 5.15138 0
M  V30 5058 H 481.891 -0.503095 2.89562 0
M  V30 5059 H 479.405 -0.178322 1.61418 0
M  V30 5060 H 481.402 -2.9674 2.92833 0
M  V30 5061 H 480.062 -2.7164 1.77881 0
M  V30 5062 H 481.073 -1.03919 5.07367 0
M  V30 5063 H 477.75 -2.74987 3.14147 0
M  V30 5064 H 479.14 -0.784504 6.67304 0
M  V30 5065 N 481.861 -1.55662 -0.24637 0
M  V30 5066 C 483.086 -1.81914 -0.996093 0
M  V30 5067 C 483.511 -0.603875 -1.78143 0
M  V30 5068 O 482.869 0.447091 -1.75701 0
M  V30 5069 C 482.917 -3.05908 -1.90925 0
M  V30 5070 O 482.021 -2.82861 -3.00105 0
M  V30 5071 H 481.362 -0.600481 -0.283406 0
M  V30 5072 H 483.892 -2.02848 -0.267199 0
M  V30 5073 H 483.902 -3.35356 -2.3238 0
M  V30 5074 H 482.577 -3.93999 -1.33183 0
M  V30 5075 H 481.154 -2.64583 -2.62775 0
M  V30 5076 N 483.339 0.512053 -1.4905 0
M  V30 5077 C 484.579 1.27715 -1.59588 0
M  V30 5078 C 484.943 1.90071 -0.271502 0
M  V30 5079 O 486.144 2.67616 -0.251987 0
M  V30 5080 C 484.415 2.32399 -2.71524 0
M  V30 5081 S 485.974 3.18396 -3.01943 0
M  V30 5082 H 482.792 0.43419 -0.563027 0
M  V30 5083 H 485.394 0.581315 -1.86657 0
M  V30 5084 H 484.098 1.85101 -3.66287 0
M  V30 5085 H 483.629 3.06667 -2.46412 0
M  V30 5086 H 485.644 4.32842 -2.42616 0
M  V30 5087 N 484.817 1.37938 0.762283 0
M  V30 5088 C 486.065 1.33404 1.51815 0
M  V30 5089 C 486.386 -0.0780975 1.94844 0
M  V30 5090 O 485.656 -1.02405 1.67003 0
M  V30 5091 H 484.236 0.490839 0.563104 0
M  V30 5092 H 486.898 1.72527 0.906669 0
M  V30 5093 H 485.994 1.97926 2.41313 0
M  V30 5094 N 486.295 -0.989507 1.22664 0
M  V30 5095 C 487.711 -1.25395 0.987331 0
M  V30 5096 C 487.911 -1.9899 -0.317056 0
M  V30 5097 O 486.967 -2.30141 -1.03882 0
M  V30 5098 C 488.28 -2.06242 2.18826 0
M  V30 5099 C 489.828 -2.19413 2.23219 0
M  V30 5100 C 490.303 -3.03648 3.42873 0
M  V30 5101 N 491.794 -3.11234 3.43056 0
M  V30 5102 C 492.529 -3.7671 4.32293 0
M  V30 5103 N 492.025 -4.44085 5.31752 0
M  V30 5104 N 493.818 -3.73505 4.2006 0
M  V30 5105 H 485.969 -0.496212 2.06522 0
M  V30 5106 H 488.232 -0.281784 0.905153 0
M  V30 5107 H 487.938 -1.59531 3.13437 0
M  V30 5108 H 487.812 -3.06996 2.19165 0
M  V30 5109 H 490.199 -2.65336 1.29154 0
M  V30 5110 H 490.28 -1.18078 2.26917 0
M  V30 5111 H 489.924 -2.58424 4.37241 0
M  V30 5112 H 489.854 -4.05132 3.36416 0
M  V30 5113 H 492.345 -2.63287 2.71088 0
M  V30 5114 H 492.658 -4.91797 5.96117 0
M  V30 5115 H 491.003 -4.42822 5.35662 0
M  V30 5116 H 494.194 -3.20033 3.41609 0
M  V30 5117 H 494.367 -4.24253 4.8981 0
M  V30 5118 N 487.773 -1.03688 -1.18687 0
M  V30 5119 C 489.05 -0.652397 -1.84399 0
M  V30 5120 C 489.43 0.868386 -1.92412 0
M  V30 5121 O 488.778 1.76832 -1.44716 0
M  V30 5122 C 488.988 -1.3238 -3.22919 0
M  V30 5123 C 490.336 -1.45216 -3.98996 0
M  V30 5124 O 491.36 -1.2816 -3.32345 0
M  V30 5125 O 490.219 -1.72975 -5.18403 0
M  V30 5126 H 487.313 -0.227793 -0.795009 0
M  V30 5127 H 489.859 -1.13553 -1.2611 0
M  V30 5128 H 488.631 -2.36202 -3.11968 0
M  V30 5129 H 488.254 -0.829039 -3.88861 0
M  V30 5130 N 489.251 1.34841 -0.815825 0
M  V30 5131 C 490.662 1.80937 -0.46029 0
M  V30 5132 C 491.013 1.67685 1.01863 0
M  V30 5133 O 490.138 1.21277 1.79223 0
M  V30 5134 C 490.733 3.28509 -0.828708 0
M  V30 5135 C 489.292 3.72712 -0.525644 0
M  V30 5136 C 488.439 2.56676 -1.04941 0
M  V30 5137 H 491.39 1.22688 -1.00664 0
M  V30 5138 H 491.411 3.80279 -0.129757 0
M  V30 5139 H 490.923 3.38122 -1.90513 0
M  V30 5140 H 489.024 3.68642 0.541666 0
M  V30 5141 H 489.137 4.67119 -1.06474 0
M  V30 5142 H 487.501 2.50302 -0.471286 0
M  V30 5143 H 488.284 2.69063 -2.13214 0
M  V30 5144 N 490.729 0.570148 1.46925 0
M  V30 5145 C 491.954 0.0542592 2.07329 0
M  V30 5146 C 492.379 -1.23582 1.41806 0
M  V30 5147 O 491.737 -1.74341 0.497479 0
M  V30 5148 C 491.785 -0.111175 3.60429 0
M  V30 5149 O 490.889 -1.17071 3.95434 0
M  V30 5150 H 490.23 0.0571425 0.661537 0
M  V30 5151 H 492.76 0.789516 1.88753 0
M  V30 5152 H 492.77 -0.321315 4.06733 0
M  V30 5153 H 491.445 0.831012 4.07513 0
M  V30 5154 H 490.022 -0.940029 3.60857 0
M  V30 5155 N 492.207 -1.54576 0.307264 0
M  V30 5156 C 493.455 -1.99867 -0.299574 0
M  V30 5157 C 493.776 -1.19714 -1.53927 0
M  V30 5158 O 493.046 -0.29472 -1.9367 0
M  V30 5159 H 491.626 -0.738299 -0.113683 0
M  V30 5160 H 494.288 -1.9032 0.420042 0
M  V30 5161 H 493.384 -3.06901 -0.567283 0
M  V30 5162 N 493.685 -0.035106 -1.57561 0
M  V30 5163 C 494.91 0.655802 -1.96759 0
M  V30 5164 C 495.335 1.64523 -0.911809 0
M  V30 5165 O 494.693 1.80857 0.126673 0
M  V30 5166 C 494.741 1.33326 -3.35047 0
M  V30 5167 O 493.845 2.44866 -3.31835 0
M  V30 5168 H 493.186 0.171807 -0.641388 0
M  V30 5169 H 495.716 -0.0987369 -2.04362 0
M  V30 5170 H 495.726 1.68867 -3.71413 0
M  V30 5171 H 494.401 0.608033 -4.11431 0
M  V30 5172 H 492.978 2.11392 -3.07193 0
M  V30 5173 N 495.163 1.55791 0.238111 0
M  V30 5174 C 496.095 1.87513 1.31802 0
M  V30 5175 C 497.108 0.762053 1.43863 0
M  V30 5176 O 498.297 1.04024 1.45056 0
M  V30 5177 C 495.397 2.05402 2.69561 0
M  V30 5178 C 494.57 3.3632 2.79656 0
M  V30 5179 C 493.629 3.43844 3.98319 0
M  V30 5180 O 492.655 4.16994 3.87433 0
M  V30 5181 N 493.857 2.73777 5.11885 0
M  V30 5182 H 496.622 2.80734 1.04922 0
M  V30 5183 H 494.183 1.56135 0.428196 0
M  V30 5184 H 496.175 2.07769 3.47296 0
M  V30 5185 H 494.745 1.18884 2.89111 0
M  V30 5186 H 493.965 3.46195 1.88528 0
M  V30 5187 H 495.253 4.22594 2.83358 0
M  V30 5188 H 494.651 2.14094 5.23622 0
M  V30 5189 H 493.208 2.81825 5.87723 0
M  V30 5190 N 496.642 -0.504142 1.49319 0
M  V30 5191 C 497.574 -1.62265 1.61872 0
M  V30 5192 C 498.587 -1.54881 0.501573 0
M  V30 5193 O 499.776 -1.6087 0.773497 0
M  V30 5194 C 496.876 -3.01042 1.55651 0
M  V30 5195 C 496.049 -3.33642 2.82845 0
M  V30 5196 C 495.108 -4.51816 2.69719 0
M  V30 5197 O 494.134 -4.53755 3.4365 0
M  V30 5198 N 495.336 -5.51543 1.81055 0
M  V30 5199 H 498.101 -1.51924 2.58339 0
M  V30 5200 H 495.662 -0.691954 1.46368 0
M  V30 5201 H 497.654 -3.78013 1.44528 0
M  V30 5202 H 496.224 -3.05323 0.670546 0
M  V30 5203 H 495.444 -2.45598 3.08343 0
M  V30 5204 H 496.732 -3.5222 3.67177 0
M  V30 5205 H 496.13 -5.52774 1.20241 0
M  V30 5206 H 494.687 -6.27629 1.75856 0
M  V30 5207 N 498.12 -1.38341 -0.754957 0
M  V30 5208 C 499.345 -1.37882 -1.5493 0
M  V30 5209 C 499.77 0.0296385 -1.88077 0
M  V30 5210 O 499.128 1.01133 -1.50472 0
M  V30 5211 C 499.176 -2.23996 -2.82592 0
M  V30 5212 O 498.28 -1.65612 -3.77686 0
M  V30 5213 H 497.621 -0.470384 -0.468652 0
M  V30 5214 H 500.151 -1.82084 -0.933082 0
M  V30 5215 H 500.161 -2.37806 -3.3153 0
M  V30 5216 H 498.836 -3.26365 -2.57796 0
M  V30 5217 H 497.413 -1.60936 -3.36384 0
M  V30 5218 N 499.598 0.982988 -1.23187 0
M  V30 5219 C 500.561 2.05649 -1.01198 0
M  V30 5220 C 501.561 1.6078 0.0252464 0
M  V30 5221 O 502.751 1.72878 -0.214243 0
M  V30 5222 C 499.883 3.36744 -0.530656 0
M  V30 5223 H 501.076 2.2659 -1.96461 0
M  V30 5224 H 498.629 1.15602 -1.05195 0
M  V30 5225 H 499.364 3.21492 0.425873 0
M  V30 5226 H 499.149 3.7065 -1.2791 0
M  V30 5227 H 500.639 4.15705 -0.397366 0
M  V30 5228 N 501.076 1.04316 1.18135 0
M  V30 5229 C 502.301 0.768047 1.92655 0
M  V30 5230 C 502.726 -0.66904 1.758 0
M  V30 5231 O 502.084 -1.46372 1.06981 0
M  V30 5232 C 502.132 1.14239 3.42026 0
M  V30 5233 O 501.236 0.269333 4.1152 0
M  V30 5234 H 500.577 0.282436 0.600937 0
M  V30 5235 H 503.107 1.39367 1.49793 0
M  V30 5236 H 503.117 1.10538 3.92741 0
M  V30 5237 H 501.792 2.18928 3.53615 0
M  V30 5238 H 500.369 0.366175 3.71098 0
M  V30 5239 N 502.554 -1.34406 0.822964 0
M  V30 5240 C 503.517 -2.2783 0.250271 0
M  V30 5241 C 504.517 -1.50288 -0.571854 0
M  V30 5242 O 505.707 -1.69825 -0.387952 0
M  V30 5243 C 502.839 -3.34663 -0.649137 0
M  V30 5244 H 504.032 -2.79992 1.07444 0
M  V30 5245 H 501.585 -1.44539 0.594829 0
M  V30 5246 H 502.32 -2.87714 -1.49637 0
M  V30 5247 H 502.105 -3.92052 -0.0611199 0
M  V30 5248 H 503.595 -4.04349 -1.04363 0
M  V30 5249 N 504.032 -0.577932 -1.46621 0
M  V30 5250 C 504.995 0.147805 -2.28723 0
M  V30 5251 C 505.995 0.823325 -1.38123 0
M  V30 5252 O 507.185 0.676011 -1.60548 0
M  V30 5253 C 504.317 1.21853 -3.18378 0
M  V30 5254 H 505.51 -0.573654 -2.94362 0
M  V30 5255 H 503.063 -0.335703 -1.52652 0
M  V30 5256 H 503.798 1.97173 -2.57475 0
M  V30 5257 H 503.583 0.738714 -3.85078 0
M  V30 5258 H 505.073 1.72768 -3.80186 0
M  V30 5259 N 505.51 1.54411 -0.315457 0
M  V30 5260 C 506.42 2.27737 0.56329 0
M  V30 5261 C 507.436 1.31787 1.13614 0
M  V30 5262 O 508.612 1.64791 1.15784 0
M  V30 5263 C 505.677 3.01478 1.71207 0
M  V30 5264 C 504.738 4.12997 1.17185 0
M  V30 5265 C 503.971 4.83212 2.26588 0
M  V30 5266 O 504.194 4.52884 3.46775 0
M  V30 5267 O 503.128 5.70299 1.92463 0
M  V30 5268 H 506.954 3.03683 -0.0319614 0
M  V30 5269 H 504.539 1.49178 -0.0814188 0
M  V30 5270 H 506.421 3.47683 2.38106 0
M  V30 5271 H 505.096 2.28414 2.29366 0
M  V30 5272 H 504.003 3.71159 0.468174 0
M  V30 5273 H 505.336 4.8808 0.635501 0
M  V30 5274 N 506.988 0.0434614 1.5754 0
M  V30 5275 C 507.951 -0.918696 2.09982 0
M  V30 5276 C 508.951 -1.24488 1.01781 0
M  V30 5277 O 510.141 -1.18284 1.27885 0
M  V30 5278 C 507.273 -2.23093 2.57764 0
M  V30 5279 H 508.466 -0.464229 2.96285 0
M  V30 5280 H 506.019 -0.204818 1.54952 0
M  V30 5281 H 506.754 -2.73137 1.74832 0
M  V30 5282 H 506.539 -2.00724 3.36827 0
M  V30 5283 H 508.029 -2.92028 2.98512 0
M  V30 5284 N 508.466 -1.55915 -0.229846 0
M  V30 5285 C 509.691 -1.8296 -0.976743 0
M  V30 5286 C 510.116 -0.622735 -1.77493 0
M  V30 5287 O 509.474 0.428431 -1.76165 0
M  V30 5288 C 509.522 -3.07916 -1.8767 0
M  V30 5289 O 508.626 -2.86028 -2.97088 0
M  V30 5290 H 507.967 -0.603453 -0.277021 0
M  V30 5291 H 510.497 -2.0312 -0.245669 0
M  V30 5292 H 510.507 -3.37802 -2.2881 0
M  V30 5293 H 509.182 -3.95389 -1.28996 0
M  V30 5294 H 507.759 -2.67355 -2.59954 0
M  V30 5295 N 509.944 0.496216 -1.49584 0
M  V30 5296 C 511.192 1.24756 -1.58998 0
M  V30 5297 C 511.513 1.92968 -0.280775 0
M  V30 5298 O 510.783 1.82959 0.700198 0
M  V30 5299 H 509.363 0.463471 -0.585836 0
M  V30 5300 H 512.025 0.574678 -1.86235 0
M  V30 5301 H 511.121 2.00895 -2.38847 0
M  V30 5302 N 511.423 1.38739 0.74761 0
M  V30 5303 C 512.671 1.35007 1.50391 0
M  V30 5304 C 512.992 -0.0574274 1.94915 0
M  V30 5305 O 512.262 -1.00628 1.6808 0
M  V30 5306 H 510.842 0.496784 0.557866 0
M  V30 5307 H 513.504 1.73479 0.888319 0
M  V30 5308 H 512.6 2.00474 2.392 0
M  V30 5309 N 512.901 -0.976442 1.23707 0
M  V30 5310 C 513.831 -2.08749 1.04624 0
M  V30 5311 C 514.812 -1.70057 -0.0380956 0
M  V30 5312 O 515.997 -1.93782 0.127308 0
M  V30 5313 C 513.127 -3.41335 0.640902 0
M  V30 5314 C 512.081 -3.93947 1.67302 0
M  V30 5315 C 511.407 -5.22774 1.12301 0
M  V30 5316 C 512.707 -4.22769 3.06697 0
M  V30 5317 H 514.401 -2.24972 1.97555 0
M  V30 5318 H 511.947 -1.08108 0.951247 0
M  V30 5319 H 513.9 -4.18489 0.494434 0
M  V30 5320 H 512.624 -3.24988 -0.324099 0
M  V30 5321 H 511.283 -3.18941 1.80755 0
M  V30 5322 H 510.931 -5.0278 0.148877 0
M  V30 5323 H 510.631 -5.58942 1.81267 0
M  V30 5324 H 512.155 -6.02546 0.988479 0
M  V30 5325 H 513.569 -4.90659 2.96524 0
M  V30 5326 H 511.966 -4.70147 3.72937 0
M  V30 5327 H 513.036 -3.29885 3.55392 0
M  V30 5328 N 514.379 -1.04941 -1.1758 0
M  V30 5329 C 515.795 -0.770282 -1.39781 0
M  V30 5330 C 515.995 0.636417 -1.91186 0
M  V30 5331 O 515.051 1.39923 -2.10185 0
M  V30 5332 C 516.364 -1.82376 -2.3908 0
M  V30 5333 C 517.912 -1.84569 -2.52791 0
M  V30 5334 C 518.387 -2.88933 -3.55361 0
M  V30 5335 N 519.878 -2.8788 -3.62877 0
M  V30 5336 C 520.613 -3.65282 -4.41992 0
M  V30 5337 N 520.109 -4.52461 -5.24643 0
M  V30 5338 N 521.902 -3.53732 -4.36841 0
M  V30 5339 H 514.053 -1.95705 -0.825438 0
M  V30 5340 H 516.316 -0.847284 -0.425222 0
M  V30 5341 H 516.022 -2.83323 -2.08376 0
M  V30 5342 H 515.896 -1.66327 -3.38549 0
M  V30 5343 H 518.283 -0.842879 -2.82807 0
M  V30 5344 H 518.364 -2.04696 -1.53406 0
M  V30 5345 H 518.008 -3.89398 -3.26085 0
M  V30 5346 H 517.938 -2.66059 -4.54445 0
M  V30 5347 H 520.429 -2.24666 -3.03864 0
M  V30 5348 H 520.742 -5.08211 -5.82187 0
M  V30 5349 H 519.087 -4.56524 -5.24033 0
M  V30 5350 H 522.278 -2.85021 -3.71323 0
M  V30 5351 H 522.451 -4.14302 -4.98255 0
M  V30 5352 N 515.857 1.33968 -0.830081 0
M  V30 5353 C 517.273 1.51003 -0.516742 0
M  V30 5354 C 517.473 1.77286 0.957694 0
M  V30 5355 O 516.529 1.82797 1.74188 0
M  V30 5356 C 517.842 2.67036 -1.38247 0
M  V30 5357 C 519.39 2.80919 -1.38034 0
M  V30 5358 C 519.865 4.00004 -2.23071 0
M  V30 5359 N 521.356 4.07224 -2.20733 0
M  V30 5360 C 522.091 4.98541 -2.83275 0
M  V30 5361 N 521.587 5.95033 -3.54835 0
M  V30 5362 N 523.38 4.91469 -2.72791 0
M  V30 5363 H 515.531 1.15168 -1.78466 0
M  V30 5364 H 517.794 0.565443 -0.760906 0
M  V30 5365 H 517.5 2.54266 -2.42985 0
M  V30 5366 H 517.374 3.62226 -1.05225 0
M  V30 5367 H 519.761 2.93127 -0.340713 0
M  V30 5368 H 519.842 1.86517 -1.75057 0
M  V30 5369 H 519.486 3.88557 -3.27087 0
M  V30 5370 H 519.416 4.93634 -1.83394 0
M  V30 5371 H 521.907 3.38162 -1.68687 0
M  V30 5372 H 522.22 6.61357 -3.99784 0
M  V30 5373 H 520.565 5.95135 -3.58942 0
M  V30 5374 H 523.756 4.15048 -2.16456 0
M  V30 5375 H 523.929 5.62439 -3.21818 0
M  V30 5376 N 517.335 0.585699 1.46312 0
M  V30 5377 C 518.575 0.0751432 2.04262 0
M  V30 5378 C 518.939 -1.26201 1.44697 0
M  V30 5379 O 520.14 -1.86198 1.93865 0
M  V30 5380 C 518.411 0.013478 3.57397 0
M  V30 5381 S 519.97 -0.439068 4.36598 0
M  V30 5382 H 516.788 0.0389228 0.709934 0
M  V30 5383 H 519.39 0.778871 1.79315 0
M  V30 5384 H 518.094 0.990558 3.98266 0
M  V30 5385 H 517.625 -0.712927 3.86886 0
M  V30 5386 H 519.64 -1.6932 4.66417 0
M  V30 5387 N 518.813 -1.54241 0.323641 0
M  V30 5388 C 519.743 -2.27289 -0.534993 0
M  V30 5389 C 520.724 -1.28087 -1.11927 0
M  V30 5390 O 521.909 -1.56899 -1.14439 0
M  V30 5391 C 519.039 -3.03075 -1.69596 0
M  V30 5392 C 517.993 -4.09614 -1.24098 0
M  V30 5393 C 517.319 -4.73242 -2.4889 0
M  V30 5394 C 518.619 -5.21087 -0.355789 0
M  V30 5395 H 520.313 -2.99308 0.0743257 0
M  V30 5396 H 517.859 -1.43952 0.0371874 0
M  V30 5397 H 519.812 -3.52907 -2.30293 0
M  V30 5398 H 518.536 -2.28673 -2.33187 0
M  V30 5399 H 517.195 -3.60666 -0.656945 0
M  V30 5400 H 516.843 -3.95455 -3.10845 0
M  V30 5401 H 516.543 -5.45209 -2.19138 0
M  V30 5402 H 518.067 -5.25848 -3.10348 0
M  V30 5403 H 519.481 -5.66675 -0.869042 0
M  V30 5404 H 517.878 -5.9991 -0.151045 0
M  V30 5405 H 518.948 -4.81005 0.613339 0
M  V30 5406 N 520.291 -0.0518155 -1.57515 0
M  V30 5407 C 521.702 0.483787 -1.80323 0
M  V30 5408 C 522.053 1.70879 -0.964099 0
M  V30 5409 O 521.178 2.15643 -0.180872 0
M  V30 5410 C 521.773 0.884459 -3.27052 0
M  V30 5411 C 520.332 1.36504 -3.50776 0
M  V30 5412 C 519.479 0.340539 -2.75201 0
M  V30 5413 H 522.43 -0.277691 -1.56252 0
M  V30 5414 H 522.451 1.74733 -3.38007 0
M  V30 5415 H 521.963 -0.00731093 -3.88099 0
M  V30 5416 H 520.064 2.27598 -2.95009 0
M  V30 5417 H 520.177 1.35675 -4.59488 0
M  V30 5418 H 518.541 0.81356 -2.41357 0
M  V30 5419 H 519.324 -0.543156 -3.38976 0
M  V30 5420 N 521.769 1.56035 0.221574 0
M  V30 5421 C 523.18 1.69229 0.788567 0
M  V30 5422 C 523.531 0.653814 1.84986 0
M  V30 5423 O 522.656 -0.195065 2.15519 0
M  V30 5424 C 523.251 3.06809 1.43713 0
M  V30 5425 C 521.81 3.21858 1.95152 0
M  V30 5426 C 520.957 2.65155 0.811685 0
M  V30 5427 H 523.908 1.587 -0.00307894 0
M  V30 5428 H 523.929 3.02666 2.30594 0
M  V30 5429 H 523.441 3.82369 0.664475 0
M  V30 5430 H 521.542 2.51167 2.7522 0
M  V30 5431 H 521.655 4.29073 2.1315 0
M  V30 5432 H 520.019 2.23635 1.21899 0
M  V30 5433 H 520.802 3.43261 0.0516987 0
M  V30 5434 N 523.247 -0.488276 1.49845 0
M  V30 5435 C 524.495 -1.23911 1.59657 0
M  V30 5436 C 524.816 -1.92816 0.291005 0
M  V30 5437 O 524.086 -1.83328 -0.690485 0
M  V30 5438 H 522.666 -0.460357 0.588286 0
M  V30 5439 H 525.328 -0.564794 1.86537 0
M  V30 5440 H 524.424 -1.99625 2.39909 0
M  V30 5441 N 524.725 -1.39134 -0.740242 0
M  V30 5442 C 525.655 -1.40165 -1.86751 0
M  V30 5443 C 526.636 -0.265708 -1.68012 0
M  V30 5444 O 527.821 -0.47076 -1.88408 0
M  V30 5445 C 524.951 -1.2392 -3.2444 0
M  V30 5446 C 523.905 -2.34858 -3.57807 0
M  V30 5447 C 523.231 -2.03707 -4.94376 0
M  V30 5448 C 524.531 -3.77159 -3.61315 0
M  V30 5449 H 526.225 -2.345 -1.86145 0
M  V30 5450 H 523.771 -1.12875 -0.89416 0
M  V30 5451 H 525.724 -1.23263 -4.02969 0
M  V30 5452 H 524.448 -0.26051 -3.25559 0
M  V30 5453 H 523.107 -2.34723 -2.81604 0
M  V30 5454 H 522.755 -1.04289 -4.9207 0
M  V30 5455 H 522.455 -2.78016 -5.17669 0
M  V30 5456 H 523.979 -2.04691 -5.75268 0
M  V30 5457 H 525.393 -3.79252 -4.29931 0
M  V30 5458 H 523.79 -4.50784 -3.96124 0
M  V30 5459 H 524.86 -4.08513 -2.61238 0
M  V30 5460 N 526.204 0.969867 -1.24223 0
M  V30 5461 C 527.481 1.68774 -0.988664 0
M  V30 5462 C 527.861 2.05342 0.489673 0
M  V30 5463 O 527.209 1.75486 1.46345 0
M  V30 5464 C 527.419 2.92135 -1.90941 0
M  V30 5465 C 528.767 3.64422 -2.17903 0
M  V30 5466 O 529.791 3.02188 -1.88576 0
M  V30 5467 O 528.65 4.76446 -2.67697 0
M  V30 5468 H 525.744 0.737736 -0.37373 0
M  V30 5469 H 528.29 1.02415 -1.35312 0
M  V30 5470 H 527.062 2.61788 -2.90831 0
M  V30 5471 H 526.685 3.66228 -1.54798 0
M  V30 5472 N 527.682 1.05563 1.17022 0
M  V30 5473 C 528.93 0.76642 1.87004 0
M  V30 5474 C 529.251 -0.708854 1.8166 0
M  V30 5475 O 528.521 -1.51242 1.2451 0
M  V30 5476 H 527.101 0.280516 0.692329 0
M  V30 5477 H 529.763 1.33557 1.41945 0
M  V30 5478 H 528.859 1.08472 2.92644 0
M  V30 5479 N 529.16 -1.33526 0.837174 0
M  V30 5480 C 530.385 -2.0258 0.444545 0
M  V30 5481 C 530.81 -1.6258 -0.946006 0
M  V30 5482 O 530.168 -0.817548 -1.6182 0
M  V30 5483 C 530.216 -3.5605 0.571006 0
M  V30 5484 O 529.32 -4.10422 -0.403431 0
M  V30 5485 H 528.661 -0.638866 0.180958 0
M  V30 5486 H 531.191 -1.70462 1.13154 0
M  V30 5487 H 531.201 -4.05488 0.452024 0
M  V30 5488 H 529.876 -3.84509 1.58512 0
M  V30 5489 H 528.453 -3.72113 -0.242147 0
M  V30 5490 N 530.638 -0.59345 -1.46 0
M  V30 5491 C 531.885 -0.0831523 -2.02329 0
M  V30 5492 C 532.213 1.28093 -1.46364 0
M  V30 5493 O 531.468 1.85526 -0.622793 0
M  V30 5494 C 531.767 0.021178 -3.57394 0
M  V30 5495 C 531.433 -1.27671 -4.32448 0
M  V30 5496 C 530.095 -1.63227 -4.5267 0
M  V30 5497 C 532.447 -2.13511 -4.7546 0
M  V30 5498 C 529.775 -2.84401 -5.1316 0
M  V30 5499 C 532.127 -3.33922 -5.37289 0
M  V30 5500 C 530.791 -3.69747 -5.55737 0
M  V30 5501 H 530.061 -0.0304276 -0.740375 0
M  V30 5502 H 532.708 -0.772239 -1.75239 0
M  V30 5503 H 531.013 0.793454 -3.83682 0
M  V30 5504 H 532.71 0.431942 -3.98667 0
M  V30 5505 H 529.3 -0.989937 -4.17011 0
M  V30 5506 H 533.484 -1.87344 -4.59582 0
M  V30 5507 H 528.74 -3.12282 -5.25633 0
M  V30 5508 H 532.914 -4.00698 -5.69574 0
M  V30 5509 H 530.541 -4.6373 -6.02377 0
M  V30 5510 N 532.116 1.54067 -0.331816 0
M  V30 5511 C 533.341 2.05599 0.272705 0
M  V30 5512 C 533.766 1.2059 1.44359 0
M  V30 5513 O 533.124 0.216907 1.79998 0
M  V30 5514 C 533.172 3.54188 0.677021 0
M  V30 5515 O 532.276 3.72082 1.77844 0
M  V30 5516 H 531.617 0.662286 0.0476801 0
M  V30 5517 H 534.147 1.98826 -0.482624 0
M  V30 5518 H 534.157 3.96608 0.957415 0
M  V30 5519 H 532.832 4.15513 -0.179325 0
M  V30 5520 H 531.409 3.41566 1.49622 0
M  V30 5521 N 533.594 0.0601682 1.57485 0
M  V30 5522 C 534.842 -0.610386 1.92662 0
M  V30 5523 C 535.163 -1.70849 0.939981 0
M  V30 5524 O 534.433 -1.95895 -0.0137455 0
M  V30 5525 H 533.013 -0.228457 0.711208 0
M  V30 5526 H 535.675 0.115288 1.94559 0
M  V30 5527 H 534.771 -1.0432 2.94149 0
M  V30 5528 N 535.072 -1.5615 -0.213296 0
M  V30 5529 C 536.297 -1.83986 -0.957282 0
M  V30 5530 C 536.722 -0.641526 -1.76822 0
M  V30 5531 O 536.08 0.409722 -1.7661 0
M  V30 5532 C 536.128 -3.09889 -1.84393 0
M  V30 5533 O 535.232 -2.89163 -2.94038 0
M  V30 5534 H 534.573 -0.606357 -0.270605 0
M  V30 5535 H 537.103 -2.03369 -0.224111 0
M  V30 5536 H 537.113 -3.40209 -2.25215 0
M  V30 5537 H 535.788 -3.96735 -1.24795 0
M  V30 5538 H 534.365 -2.70097 -2.57103 0
M  V30 5539 N 536.55 0.480323 -1.50102 0
M  V30 5540 C 537.46 1.60547 -1.71061 0
M  V30 5541 C 538.476 1.63564 -0.593529 0
M  V30 5542 O 539.652 1.81604 -0.870751 0
M  V30 5543 C 536.717 2.96814 -1.79171 0
M  V30 5544 C 535.778 3.04259 -3.02861 0
M  V30 5545 C 535.011 4.34027 -3.10574 0
M  V30 5546 O 535.234 5.24009 -2.25323 0
M  V30 5547 O 534.168 4.46873 -4.03223 0
M  V30 5548 H 537.994 1.45788 -2.6642 0
M  V30 5549 H 535.579 0.658838 -1.34088 0
M  V30 5550 H 537.461 3.77765 -1.86738 0
M  V30 5551 H 536.136 3.11791 -0.869947 0
M  V30 5552 H 535.043 2.22419 -3.008 0
M  V30 5553 H 536.376 2.94216 -3.94586 0
M  V30 5554 N 538.028 1.39524 0.732853 0
M  V30 5555 C 539.444 1.21176 1.03868 0
M  V30 5556 C 539.644 0.0748448 2.01361 0
M  V30 5557 O 538.7 -0.57281 2.45917 0
M  V30 5558 C 540.013 2.54667 1.59892 0
M  V30 5559 C 541.561 2.6153 1.71962 0
M  V30 5560 C 542.036 3.95248 2.31394 0
M  V30 5561 N 543.527 3.96899 2.38801 0
M  V30 5562 C 544.262 4.97138 2.85729 0
M  V30 5563 N 543.758 6.07775 3.32537 0
M  V30 5564 N 545.551 4.84516 2.84957 0
M  V30 5565 H 537.702 2.12225 0.086304 0
M  V30 5566 H 539.965 0.942614 0.100907 0
M  V30 5567 H 539.671 3.38423 0.95721 0
M  V30 5568 H 539.545 2.74538 2.58668 0
M  V30 5569 H 541.932 1.78156 2.35254 0
M  V30 5570 H 542.013 2.45507 0.718327 0
M  V30 5571 H 541.657 4.79054 1.68729 0
M  V30 5572 H 541.587 4.08593 3.32204 0
M  V30 5573 H 544.078 3.16998 2.05719 0
M  V30 5574 H 544.391 6.8017 3.66862 0
M  V30 5575 H 542.736 6.11366 3.30541 0
M  V30 5576 H 545.927 3.97185 2.47713 0
M  V30 5577 H 546.1 5.62783 3.21215 0
M  V30 5578 N 539.506 -0.963266 1.24736 0
M  V30 5579 C 540.731 -1.74699 1.11781 0
M  V30 5580 C 541.156 -1.85267 -0.325258 0
M  V30 5581 O 540.514 -1.32681 -1.23553 0
M  V30 5582 C 540.562 -3.14322 1.76731 0
M  V30 5583 O 539.666 -3.99043 1.04109 0
M  V30 5584 H 539.007 -0.53684 0.390767 0
M  V30 5585 H 541.537 -1.20801 1.65131 0
M  V30 5586 H 541.547 -3.64824 1.82668 0
M  V30 5587 H 540.222 -3.05946 2.81726 0
M  V30 5588 H 538.799 -3.5752 1.05991 0
M  V30 5589 N 540.985 -1.06182 -1.16461 0
M  V30 5590 C 542.21 -0.798599 -1.91408 0
M  V30 5591 C 542.635 0.640987 -1.76842 0
M  V30 5592 O 541.993 1.44652 -1.09296 0
M  V30 5593 C 542.041 -1.19665 -3.40165 0
M  V30 5594 O 541.145 -0.334768 -4.11039 0
M  V30 5595 H 540.486 -0.291961 -0.596368 0
M  V30 5596 H 543.016 -1.41732 -1.47557 0
M  V30 5597 H 543.026 -1.16772 -3.90933 0
M  V30 5598 H 541.701 -2.24526 -3.50087 0
M  V30 5599 H 540.278 -0.425168 -3.70468 0
M  V30 5600 N 542.463 1.3308 -0.844243 0
M  V30 5601 C 543.874 1.7992 -0.498566 0
M  V30 5602 C 544.225 1.69808 0.982834 0
M  V30 5603 O 543.35 1.25051 1.7661 0
M  V30 5604 C 543.945 3.26677 -0.898204 0
M  V30 5605 C 542.504 3.71513 -0.604583 0
M  V30 5606 C 541.651 2.54393 -1.10362 0
M  V30 5607 H 544.602 1.20526 -1.03244 0
M  V30 5608 H 544.623 3.79918 -0.21039 0
M  V30 5609 H 544.135 3.34004 -1.97643 0
M  V30 5610 H 542.236 3.69708 0.46335 0
M  V30 5611 H 542.349 4.64755 -1.16358 0
M  V30 5612 H 540.713 2.49246 -0.524273 0
M  V30 5613 H 541.496 2.6448 -2.18873 0
M  V30 5614 N 543.941 0.601185 1.45683 0
M  V30 5615 C 544.873 -0.159446 2.28645 0
M  V30 5616 C 545.886 -0.837882 1.39583 0
M  V30 5617 O 547.075 -0.704344 1.64016 0
M  V30 5618 C 544.175 -1.24641 3.15147 0
M  V30 5619 C 543.348 -0.656334 4.32448 0
M  V30 5620 C 542.407 -1.63337 5.00208 0
M  V30 5621 O 541.433 -1.16217 5.57209 0
M  V30 5622 N 542.635 -2.96773 4.98905 0
M  V30 5623 H 545.4 0.5524 2.94565 0
M  V30 5624 H 542.961 0.440223 1.558 0
M  V30 5625 H 544.953 -1.8997 3.57342 0
M  V30 5626 H 543.523 -1.86087 2.51178 0
M  V30 5627 H 542.743 0.174879 3.93812 0
M  V30 5628 H 544.031 -0.242211 5.08223 0
M  V30 5629 H 543.429 -3.37662 4.53873 0
M  V30 5630 H 541.986 -3.57541 5.44984 0
M  V30 5631 N 545.419 -1.53889 0.339982 0
M  V30 5632 C 546.835 -1.59595 -0.0120752 0
M  V30 5633 C 547.035 -1.35605 -1.49042 0
M  V30 5634 O 546.091 -1.14856 -2.24865 0
M  V30 5635 C 547.404 -2.9774 0.420898 0
M  V30 5636 C 548.952 -3.1077 0.37294 0
M  V30 5637 C 549.427 -4.51286 0.781327 0
M  V30 5638 N 550.918 -4.57325 0.735374 0
M  V30 5639 C 551.653 -5.64194 1.02336 0
M  V30 5640 N 551.149 -6.7893 1.37933 0
M  V30 5641 N 552.942 -5.54051 0.947838 0
M  V30 5642 H 545.093 -1.67738 1.30299 0
M  V30 5643 H 547.356 -0.785385 0.530918 0
M  V30 5644 H 547.062 -3.20349 1.45152 0
M  V30 5645 H 546.936 -3.76639 -0.205721 0
M  V30 5646 H 549.323 -2.87886 -0.648505 0
M  V30 5647 H 549.404 -2.33939 1.03472 0
M  V30 5648 H 549.048 -4.74905 1.80077 0
M  V30 5649 H 548.978 -5.26511 0.0970679 0
M  V30 5650 H 551.469 -3.74931 0.472773 0
M  V30 5651 H 551.782 -7.56392 1.58402 0
M  V30 5652 H 550.127 -6.80386 1.41774 0
M  V30 5653 H 553.318 -4.63293 0.669115 0
M  V30 5654 H 553.491 -6.37246 1.17563 0
M  V30 5655 N 546.897 -0.0685191 -1.57451 0
M  V30 5656 C 548.174 0.642167 -1.84758 0
M  V30 5657 C 548.554 1.87991 -0.960344 0
M  V30 5658 O 547.902 2.28485 -0.0257894 0
M  V30 5659 C 548.112 0.982946 -3.34872 0
M  V30 5660 C 549.46 1.35784 -4.02303 0
M  V30 5661 O 550.484 1.07477 -3.39598 0
M  V30 5662 O 549.343 1.88681 -5.12895 0
M  V30 5663 H 546.437 0.318625 -0.763156 0
M  V30 5664 H 548.983 -0.0992015 -1.6941 0
M  V30 5665 H 547.755 0.10372 -3.91163 0
M  V30 5666 H 547.378 1.78119 -3.55471 0
M  V30 5667 N 548.375 1.56261 0.205012 0
M  V30 5668 C 549.623 1.79684 0.925096 0
M  V30 5669 C 549.944 0.63989 1.84202 0
M  V30 5670 O 549.214 -0.342345 1.92885 0
M  V30 5671 H 547.794 0.662774 0.344587 0
M  V30 5672 H 550.456 1.93734 0.212899 0
M  V30 5673 H 549.552 2.72467 1.52211 0
M  V30 5674 N 549.853 -0.472356 1.50355 0
M  V30 5675 C 550.783 -1.57859 1.72055 0
M  V30 5676 C 551.764 -1.60283 0.569505 0
M  V30 5677 O 552.949 -1.7657 0.808503 0
M  V30 5678 C 550.079 -2.96191 1.81351 0
M  V30 5679 C 549.033 -3.08633 2.96529 0
M  V30 5680 C 548.359 -4.486 2.90968 0
M  V30 5681 C 549.659 -2.85969 4.37057 0
M  V30 5682 H 551.353 -1.39953 2.64676 0
M  V30 5683 H 548.899 -0.671846 1.27367 0
M  V30 5684 H 550.852 -3.73507 1.95117 0
M  V30 5685 H 549.576 -3.15251 0.853502 0
M  V30 5686 H 548.235 -2.33749 2.82413 0
M  V30 5687 H 547.883 -4.64577 1.92815 0
M  V30 5688 H 547.583 -4.57861 3.68289 0
M  V30 5689 H 549.107 -5.27938 3.0678 0
M  V30 5690 H 550.521 -3.53036 4.51706 0
M  V30 5691 H 548.918 -3.06677 5.15819 0
M  V30 5692 H 549.988 -1.81838 4.49514 0
M  V30 5693 N 551.331 -1.39911 -0.725443 0
M  V30 5694 C 552.608 -1.28158 -1.47766 0
M  V30 5695 C 552.988 0.104545 -2.10841 0
M  V30 5696 O 552.336 1.11657 -1.99361 0
M  V30 5697 C 552.546 -2.41306 -2.52135 0
M  V30 5698 C 553.894 -2.81076 -3.18247 0
M  V30 5699 O 554.918 -2.40827 -2.62452 0
M  V30 5700 O 553.777 -3.50581 -4.19231 0
M  V30 5701 H 550.871 -0.502761 -0.656628 0
M  V30 5702 H 553.417 -1.51808 -0.758456 0
M  V30 5703 H 552.189 -3.33932 -2.03974 0
M  V30 5704 H 551.812 -2.19374 -3.31603 0
M  V30 5705 N 552.809 0.956637 -1.25245 0
M  V30 5706 C 554.037 1.73571 -1.12608 0
M  V30 5707 C 554.452 1.86063 0.320324 0
M  V30 5708 O 553.809 1.35691 1.22042 0
M  V30 5709 C 553.86 3.15053 -1.77268 0
M  V30 5710 O 553.581 3.03174 -3.16255 0
M  V30 5711 C 555.082 4.09248 -1.70386 0
M  V30 5712 H 552.302 0.543955 -0.392879 0
M  V30 5713 H 554.846 1.20031 -1.65568 0
M  V30 5714 H 553.001 3.65543 -1.28284 0
M  V30 5715 H 553.415 3.9241 -3.48015 0
M  V30 5716 H 554.889 5.06138 -2.20291 0
M  V30 5717 H 555.366 4.34102 -0.667239 0
M  V30 5718 H 555.972 3.64672 -2.18849 0
M  V30 5719 N 554.287 1.06798 1.15896 0
M  V30 5720 C 555.512 0.808739 1.90982 0
M  V30 5721 C 555.937 -0.6316 1.77179 0
M  V30 5722 O 555.295 -1.4407 1.10061 0
M  V30 5723 C 555.343 1.21468 3.39526 0
M  V30 5724 O 554.447 0.356562 4.10856 0
M  V30 5725 H 553.788 0.29512 0.594811 0
M  V30 5726 H 556.318 1.42513 1.46804 0
M  V30 5727 H 556.328 1.18844 3.90308 0
M  V30 5728 H 555.003 2.26379 3.48891 0
M  V30 5729 H 553.58 0.444808 3.70238 0
M  V30 5730 N 555.766 -1.3263 0.851289 0
M  V30 5731 C 557.014 -1.96978 0.452128 0
M  V30 5732 C 557.335 -1.67715 -0.99482 0
M  V30 5733 O 556.605 -0.98259 -1.69476 0
M  V30 5734 H 555.185 -0.72873 0.164202 0
M  V30 5735 H 557.847 -1.61774 1.08698 0
M  V30 5736 H 556.943 -3.06387 0.594407 0
M  V30 5737 N 557.244 -0.608902 -1.45362 0
M  V30 5738 C 558.469 -0.10921 -2.07112 0
M  V30 5739 C 558.894 1.19779 -1.45033 0
M  V30 5740 O 558.252 1.72961 -0.543527 0
M  V30 5741 C 558.3 0.0155745 -3.60597 0
M  V30 5742 O 557.404 1.06546 -3.98399 0
M  V30 5743 H 556.745 -0.0746619 -0.659789 0
M  V30 5744 H 559.275 -0.839283 -1.86594 0
M  V30 5745 H 559.285 0.213364 -4.07442 0
M  V30 5746 H 557.96 -0.938765 -4.05167 0
M  V30 5747 H 556.537 0.844024 -3.63223 0
M  V30 5748 N 558.722 1.53707 -0.348139 0
M  V30 5749 C 559.95 2.05406 0.248224 0
M  V30 5750 C 560.365 1.22282 1.43849 0
M  V30 5751 O 559.722 0.259244 1.80649 0
M  V30 5752 C 559.773 3.55446 0.658793 0
M  V30 5753 O 559.494 4.35417 -0.484149 0
M  V30 5754 C 560.995 4.23335 1.31539 0
M  V30 5755 H 558.215 0.669344 0.0471075 0
M  V30 5756 H 560.759 1.98257 -0.501456 0
M  V30 5757 H 558.914 3.62803 1.35841 0
M  V30 5758 H 559.328 5.24268 -0.155949 0
M  V30 5759 H 560.802 5.29692 1.55338 0
M  V30 5760 H 561.279 3.75967 2.27036 0
M  V30 5761 H 561.885 4.20184 0.657683 0
M  V30 5762 N 560.2 0.0768682 1.57412 0
M  V30 5763 C 561.448 -0.589918 1.93299 0
M  V30 5764 C 561.769 -1.69842 0.958049 0
M  V30 5765 O 561.039 -1.95899 0.00703261 0
M  V30 5766 H 559.619 -0.220901 0.713591 0
M  V30 5767 H 562.281 0.135917 1.94425 0
M  V30 5768 H 561.377 -1.01195 2.95239 0
M  V30 5769 N 561.678 -1.56367 -0.196722 0
M  V30 5770 C 562.903 -1.84991 -0.937714 0
M  V30 5771 C 563.328 -0.660244 -1.76132 0
M  V30 5772 O 562.686 0.390967 -1.77034 0
M  V30 5773 C 562.734 -3.11828 -1.81096 0
M  V30 5774 O 561.838 -2.92266 -2.90955 0
M  V30 5775 H 561.179 -0.609193 -0.264159 0
M  V30 5776 H 563.709 -2.03595 -0.202529 0
M  V30 5777 H 563.719 -3.42579 -2.21594 0
M  V30 5778 H 562.394 -3.98037 -1.2058 0
M  V30 5779 H 560.971 -2.72809 -2.54224 0
M  V30 5780 N 563.156 0.464375 -1.50603 0
M  V30 5781 C 564.567 1.04507 -1.5471 0
M  V30 5782 C 564.918 1.9297 -0.354542 0
M  V30 5783 O 564.043 2.09763 0.531812 0
M  V30 5784 C 564.638 1.90207 -2.80369 0
M  V30 5785 C 563.197 2.43373 -2.87135 0
M  V30 5786 C 562.344 1.21886 -2.49076 0
M  V30 5787 H 565.295 0.246716 -1.56771 0
M  V30 5788 H 565.316 2.75353 -2.62604 0
M  V30 5789 H 564.828 1.25796 -3.67147 0
M  V30 5790 H 562.929 3.11318 -2.04724 0
M  V30 5791 H 563.042 2.7802 -3.90181 0
M  V30 5792 H 561.406 1.55575 -2.01664 0
M  V30 5793 H 562.189 0.591268 -3.3817 0
M  V30 5794 N 564.634 1.40294 0.718013 0
M  V30 5795 C 565.882 1.38167 1.47494 0
M  V30 5796 C 566.203 -0.01607 1.94993 0
M  V30 5797 O 565.473 -0.970396 1.70177 0
M  V30 5798 H 564.053 0.508505 0.547203 0
M  V30 5799 H 566.715 1.75324 0.851322 0
M  V30 5800 H 565.811 2.05503 2.34894 0
M  V30 5801 N 566.112 -0.949982 1.2575 0
M  V30 5802 C 567.075 -2.02894 1.06615 0
M  V30 5803 C 568.075 -1.60791 0.0173905 0
M  V30 5804 O 569.265 -1.72249 0.260003 0
M  V30 5805 C 566.397 -3.35219 0.619751 0
M  V30 5806 H 567.59 -2.21302 2.02399 0
M  V30 5807 H 565.143 -1.12772 1.08223 0
M  V30 5808 H 565.878 -3.22508 -0.340486 0
M  V30 5809 H 565.663 -3.67129 1.37692 0
M  V30 5810 H 567.153 -4.14505 0.507443 0
M  V30 5811 N 567.59 -1.07411 -1.15328 0
M  V30 5812 C 569.001 -0.820261 -1.67716 0
M  V30 5813 C 569.352 0.654539 -1.8496 0
M  V30 5814 O 568.477 1.50664 -1.55337 0
M  V30 5815 C 569.072 -1.48242 -3.04647 0
M  V30 5816 C 567.631 -1.27606 -3.5411 0
M  V30 5817 C 566.778 -1.5517 -2.29821 0
M  V30 5818 H 569.729 -1.23608 -0.995332 0
M  V30 5819 H 569.75 -0.903984 -3.69606 0
M  V30 5820 H 569.262 -2.55578 -2.92064 0
M  V30 5821 H 567.363 -0.222948 -3.71932 0
M  V30 5822 H 567.476 -1.99667 -4.35511 0
M  V30 5823 H 565.84 -0.972747 -2.35393 0
M  V30 5824 H 566.623 -2.63689 -2.19824 0
M  V30 5825 N 569.068 1.32177 -0.85831 0
M  V30 5826 C 570.296 2.01313 -0.477582 0
M  V30 5827 C 570.711 1.6449 0.926736 0
M  V30 5828 O 570.068 0.868096 1.60531 0
M  V30 5829 C 570.119 3.56293 -0.611337 0
M  V30 5830 O 569.84 3.91794 -1.96034 0
M  V30 5831 C 571.341 4.42702 -0.230093 0
M  V30 5832 H 568.561 0.644323 -0.187322 0
M  V30 5833 H 571.105 1.68674 -1.15626 0
M  V30 5834 H 569.26 3.87395 0.0196494 0
M  V30 5835 H 569.674 4.86513 -1.95973 0
M  V30 5836 H 571.148 5.50727 -0.374674 0
M  V30 5837 H 571.625 4.3129 0.829779 0
M  V30 5838 H 572.231 4.16997 -0.836302 0
M  V30 5839 N 570.547 0.616602 1.45037 0
M  V30 5840 C 571.51 -0.0871112 2.29034 0
M  V30 5841 C 572.51 -0.786414 1.40258 0
M  V30 5842 O 573.7 -0.633207 1.62284 0
M  V30 5843 C 570.832 -1.13369 3.21497 0
M  V30 5844 H 572.025 0.651497 2.92738 0
M  V30 5845 H 569.578 0.376058 1.51709 0
M  V30 5846 H 570.313 -1.90277 2.62612 0
M  V30 5847 H 570.098 -0.636358 3.86902 0
M  V30 5848 H 571.588 -1.62627 3.84633 0
M  V30 5849 N 572.025 -1.5352 0.356285 0
M  V30 5850 C 572.988 -2.24071 -0.482182 0
M  V30 5851 C 573.988 -1.24531 -1.01729 0
M  V30 5852 O 575.178 -1.48876 -0.904513 0
M  V30 5853 C 572.31 -2.97025 -1.67299 0
M  V30 5854 H 573.503 -2.99596 0.135031 0
M  V30 5855 H 571.056 -1.55928 0.107825 0
M  V30 5856 H 571.791 -2.25719 -2.32855 0
M  V30 5857 H 571.576 -3.7005 -1.29636 0
M  V30 5858 H 573.066 -3.50683 -2.26741 0
M  V30 5859 N 573.503 -0.0852151 -1.57369 0
M  V30 5860 C 574.919 0.271436 -1.57275 0
M  V30 5861 C 575.119 1.69109 -1.09565 0
M  V30 5862 O 574.175 2.40549 -0.767611 0
M  V30 5863 C 575.488 0.0688638 -3.00621 0
M  V30 5864 C 577.036 0.137373 -3.12698 0
M  V30 5865 C 577.511 -0.0370832 -4.57985 0
M  V30 5866 N 579.002 0.0180794 -4.63196 0
M  V30 5867 C 579.737 -0.0922953 -5.73326 0
M  V30 5868 N 579.233 -0.256948 -6.92323 0
M  V30 5869 N 581.026 -0.0342702 -5.6209 0
M  V30 5870 H 573.177 -1.01288 -1.86693 0
M  V30 5871 H 575.44 -0.396138 -0.861266 0
M  V30 5872 H 575.146 -0.911277 -3.39689 0
M  V30 5873 H 575.02 0.815442 -3.6828 0
M  V30 5874 H 577.407 1.10801 -2.73509 0
M  V30 5875 H 577.488 -0.640532 -2.47651 0
M  V30 5876 H 577.132 -1.00455 -4.97867 0
M  V30 5877 H 577.062 0.760392 -5.21081 0
M  V30 5878 H 579.553 0.143202 -3.77629 0
M  V30 5879 H 579.866 -0.332949 -7.72082 0
M  V30 5880 H 578.211 -0.292487 -6.94384 0
M  V30 5881 H 581.402 0.0931605 -4.68007 0
M  V30 5882 H 581.575 -0.12374 -6.47882 0
M  V30 5883 N 574.981 1.5647 0.188427 0
M  V30 5884 C 576.209 1.85131 0.923803 0
M  V30 5885 C 576.624 0.668537 1.76567 0
M  V30 5886 O 575.981 -0.362662 1.7886 0
M  V30 5887 C 576.032 3.12661 1.81453 0
M  V30 5888 O 575.753 4.26378 1.00665 0
M  V30 5889 C 577.254 3.54548 2.66103 0
M  V30 5890 H 574.474 0.614624 0.269218 0
M  V30 5891 H 577.018 2.03581 0.193671 0
M  V30 5892 H 575.173 2.96088 2.49821 0
M  V30 5893 H 575.587 4.99041 1.61425 0
M  V30 5894 H 577.061 4.4673 3.24247 0
M  V30 5895 H 577.538 2.77853 3.40139 0
M  V30 5896 H 578.144 3.73674 2.03096 0
M  V30 5897 N 576.459 -0.456382 1.50847 0
M  V30 5898 C 577.389 -1.56025 1.73719 0
M  V30 5899 C 578.37 -1.5967 0.586473 0
M  V30 5900 O 579.555 -1.75702 0.827185 0
M  V30 5901 C 576.685 -2.94251 1.84483 0
M  V30 5902 C 575.639 -3.05471 2.99786 0
M  V30 5903 C 574.965 -4.45489 2.95709 0
M  V30 5904 C 576.265 -2.81318 4.40065 0
M  V30 5905 H 577.959 -1.37138 2.66146 0
M  V30 5906 H 575.505 -0.658299 1.28072 0
M  V30 5907 H 577.458 -3.71417 1.99067 0
M  V30 5908 H 576.182 -3.14328 0.886891 0
M  V30 5909 H 574.841 -2.30741 2.84876 0
M  V30 5910 H 574.489 -4.62505 1.97732 0
M  V30 5911 H 574.189 -4.53929 3.73125 0
M  V30 5912 H 575.713 -5.24655 3.12362 0
M  V30 5913 H 577.127 -3.48226 4.55425 0
M  V30 5914 H 575.524 -3.01188 5.19043 0
M  V30 5915 H 576.594 -1.7706 4.51418 0
M  V30 5916 N 577.937 -1.40673 -0.710563 0
M  V30 5917 C 579.183 -1.39428 -1.47267 0
M  V30 5918 C 579.516 0.00182129 -1.942 0
M  V30 5919 O 578.791 0.971387 -1.68506 0
M  V30 5920 C 579.074 -2.38812 -2.6952 0
M  V30 5921 C 578.927 -3.87467 -2.28449 0
M  V30 5922 C 580.246 -2.3566 -3.71689 0
M  V30 5923 H 577.365 -0.507768 -0.534173 0
M  V30 5924 H 580.007 -1.71843 -0.810547 0
M  V30 5925 H 578.157 -2.113 -3.26013 0
M  V30 5926 H 579.829 -4.25825 -1.77399 0
M  V30 5927 H 578.072 -4.03058 -1.60395 0
M  V30 5928 H 578.743 -4.5253 -3.16103 0
M  V30 5929 H 581.219 -2.6004 -3.24836 0
M  V30 5930 H 580.095 -3.07237 -4.54859 0
M  V30 5931 H 580.356 -1.36996 -4.20339 0
M  V30 5932 N 579.415 0.9433 -1.26252 0
M  V30 5933 C 580.64 1.72898 -1.14547 0
M  V30 5934 C 581.065 1.85761 0.295743 0
M  V30 5935 O 580.423 1.3463 1.21427 0
M  V30 5936 C 580.471 3.11471 -1.8171 0
M  V30 5937 O 579.575 3.97336 -1.10445 0
M  V30 5938 H 578.916 0.530555 -0.399259 0
M  V30 5939 H 581.446 1.18159 -1.67032 0
M  V30 5940 H 581.456 3.61872 -1.88449 0
M  V30 5941 H 580.131 3.01425 -2.86558 0
M  V30 5942 H 578.708 3.55788 -1.11666 0
M  V30 5943 N 580.893 1.08022 1.14757 0
M  V30 5944 C 581.803 0.718292 2.23333 0
M  V30 5945 C 582.819 -0.273477 1.71837 0
M  V30 5946 O 583.995 -0.118406 2.01052 0
M  V30 5947 C 581.06 0.128855 3.4646 0
M  V30 5948 C 580.121 1.17473 4.12915 0
M  V30 5949 C 579.354 0.61333 5.30164 0
M  V30 5950 O 579.577 -0.568458 5.6756 0
M  V30 5951 O 578.511 1.3615 5.86299 0
M  V30 5952 H 582.337 1.62394 2.56636 0
M  V30 5953 H 579.922 0.853628 1.22611 0
M  V30 5954 H 581.804 -0.197249 4.20938 0
M  V30 5955 H 580.479 -0.750014 3.14891 0
M  V30 5956 H 579.386 1.5533 3.40328 0
M  V30 5957 H 580.719 2.02574 4.48581 0
M  V30 5958 N 582.371 -1.3172 0.865308 0
M  V30 5959 C 583.782 -1.79104 0.527126 0
M  V30 5960 C 584.133 -1.7135 -0.955695 0
M  V30 5961 O 583.258 -1.27845 -1.74598 0
M  V30 5962 C 583.853 -3.25207 0.950061 0
M  V30 5963 C 582.412 -3.70504 0.663611 0
M  V30 5964 C 581.559 -2.52605 1.14395 0
M  V30 5965 H 584.51 -1.18868 1.05148 0
M  V30 5966 H 584.531 -3.79535 0.270805 0
M  V30 5967 H 584.043 -3.30818 2.02931 0
M  V30 5968 H 582.144 -3.70398 -0.404474 0
M  V30 5969 H 582.257 -4.62845 1.23737 0
M  V30 5970 H 580.621 -2.4838 0.563859 0
M  V30 5971 H 581.404 -2.60964 2.23053 0
M  V30 5972 N 583.85 -0.624285 -1.44708 0
M  V30 5973 C 584.812 0.0749638 -2.29077 0
M  V30 5974 C 585.812 0.778965 -1.40673 0
M  V30 5975 O 587.003 0.624591 -1.62618 0
M  V30 5976 C 584.135 1.11663 -3.22094 0
M  V30 5977 H 585.327 -0.667013 -2.92388 0
M  V30 5978 H 582.88 -0.384098 -1.51507 0
M  V30 5979 H 583.615 1.88881 -2.63618 0
M  V30 5980 H 583.401 0.61583 -3.87234 0
M  V30 5981 H 584.891 1.60585 -3.8549 0
M  V30 5982 N 585.328 1.53329 -0.364422 0
M  V30 5983 C 586.291 2.24323 0.470292 0
M  V30 5984 C 587.291 1.25068 1.01067 0
M  V30 5985 O 588.481 1.49354 0.896605 0
M  V30 5986 C 585.613 2.97908 1.65722 0
M  V30 5987 H 586.806 2.9952 -0.150917 0
M  V30 5988 H 584.359 1.55868 -0.116092 0
M  V30 5989 H 585.094 2.2695 2.31655 0
M  V30 5990 H 584.879 3.70732 1.27671 0
M  V30 5991 H 586.369 3.5188 2.24878 0
M  V30 5992 N 586.806 0.0935595 1.57322 0
M  V30 5993 C 588.083 -0.612692 1.85756 0
M  V30 5994 C 588.463 -1.86439 0.99013 0
M  V30 5995 O 587.811 -2.28416 0.0621362 0
M  V30 5996 C 588.021 -0.929547 3.36393 0
M  V30 5997 C 589.369 -1.29366 4.04413 0
M  V30 5998 O 590.393 -1.02061 3.41265 0
M  V30 5999 O 589.252 -1.80498 5.15832 0
M  V30 6000 H 586.346 -0.306444 0.768128 0
M  V30 6001 H 588.892 0.126141 1.69231 0
M  V30 6002 H 587.664 -0.0414766 3.91278 0
M  V30 6003 H 587.287 -1.72441 3.5826 0
M  V30 6004 O 588.323 -1.61433 -0.0465113 0
M  V30 6005 H 589.014 -1.8177 -0.669292 0
M  V30 END ATOM
M  V30 BEGIN BOND
M  V30 END BOND
M  V30 END CTAB
M  END
$$$$
