drugbank_target|P43099 Ornithine decarboxylase, inducible (DB04137)
 OpenBabel12092119593D

  0  0  0     0  0            999 V3000
M  V30 BEGIN CTAB
M  V30 COUNTS 11478 11627 0 0 0
M  V30 BEGIN ATOM
M  V30 1 H -0.908 1.98254 -0.117106 0
M  V30 2 N 0 1.576 0 0
M  V30 3 C 0.933 2.03868 1.02534 0
M  V30 4 C 1.911 0.928543 1.3348 0
M  V30 5 O 3.095 1.19667 1.45644 0
M  V30 6 C 0.222 2.43627 2.35294 0
M  V30 7 C -0.732 3.65373 2.2001 0
M  V30 8 S 0.101 5.13292 1.52614 0
M  V30 9 C 1.257 5.56322 2.86805 0
M  V30 10 H 1.49 2.90518 0.631377 0
M  V30 11 H -0.977 1.52953 0.210867 0
M  V30 12 H 0.981 2.67203 3.11629 0
M  V30 13 H -0.358 1.57376 2.7183 0
M  V30 14 H -1.165 3.90944 3.18086 0
M  V30 15 H -1.563 3.418 1.51819 0
M  V30 16 H 0.729 5.58782 3.83104 0
M  V30 17 H 1.672 6.56266 2.65933 0
M  V30 18 H 2.08 4.83886 2.90714 0
M  V30 19 N 1.4781 -0.272755 1.55222 0
M  V30 20 C 2.7031 -1.02683 1.80197 0
M  V30 21 C 3.1281 -1.79142 0.573551 0
M  V30 22 O 2.4861 -1.74917 -0.476849 0
M  V30 23 C 2.5341 -1.9609 3.02624 0
M  V30 24 O 1.6381 -3.04863 2.77727 0
M  V30 25 H 0.9791 -0.293557 0.595584 0
M  V30 26 H 3.5091 -0.30159 2.02365 0
M  V30 27 H 3.5191 -2.38039 3.31363 0
M  V30 28 H 2.1941 -1.39851 3.91682 0
M  V30 29 H 0.7711 -2.67228 2.60084 0
M  V30 30 N 2.9562 -1.48159 -0.537278 0
M  V30 31 C 4.1812 -1.59707 -1.32319 0
M  V30 32 C 4.6062 -0.254859 -1.86365 0
M  V30 33 O 3.9642 0.772378 -1.64024 0
M  V30 34 C 4.0122 -2.6412 -2.45505 0
M  V30 35 O 3.1162 -2.20774 -3.48328 0
M  V30 36 H 2.4572 -0.535791 -0.392204 0
M  V30 37 H 4.9872 -1.94092 -0.647268 0
M  V30 38 H 4.9972 -2.85166 -2.91795 0
M  V30 39 H 3.6722 -3.61567 -2.05528 0
M  V30 40 H 2.2492 -2.09911 -3.08207 0
M  V30 41 N 4.4343 0.785586 -1.36625 0
M  V30 42 C 5.6593 1.57963 -1.34397 0
M  V30 43 C 6.0843 1.87964 0.071526 0
M  V30 44 O 5.4423 1.48182 1.0446 0
M  V30 45 C 5.4903 2.87511 -2.17646 0
M  V30 46 O 4.5943 3.81281 -1.57158 0
M  V30 47 H 3.9353 0.479014 -0.459828 0
M  V30 48 H 6.4653 0.973411 -1.79961 0
M  V30 49 H 6.4753 3.36745 -2.30362 0
M  V30 50 H 5.1503 2.65002 -3.20541 0
M  V30 51 H 3.7273 3.39885 -1.53403 0
M  V30 52 N 5.9124 1.20967 1.01018 0
M  V30 53 C 6.8424 0.988272 2.11555 0
M  V30 54 C 7.8234 -0.0849778 1.69888 0
M  V30 55 O 9.0084 0.0738202 1.9406 0
M  V30 56 C 6.1384 0.546528 3.42973 0
M  V30 57 C 5.0924 1.56375 3.9841 0
M  V30 58 C 4.4184 0.97842 5.25672 0
M  V30 59 C 5.7184 2.94922 4.31066 0
M  V30 60 H 7.4124 1.91276 2.30334 0
M  V30 61 H 4.9584 0.921073 1.1069 0
M  V30 62 H 6.9114 0.378839 4.19694 0
M  V30 63 H 5.6354 -0.413598 3.23971 0
M  V30 64 H 4.2944 1.71891 3.23804 0
M  V30 65 H 3.9424 0.0101688 5.02999 0
M  V30 66 H 3.6424 1.65784 5.63728 0
M  V30 67 H 5.1664 0.821939 6.05043 0
M  V30 68 H 6.5804 2.8288 4.9865 0
M  V30 69 H 4.9774 3.5983 4.80253 0
M  V30 70 H 6.0474 3.4616 3.39561 0
M  V30 71 N 7.3905 -1.2043 1.01659 0
M  V30 72 C 8.3375 -2.23215 0.586822 0
M  V30 73 C 9.3075 -1.61382 -0.393085 0
M  V30 74 O 10.4925 -1.88544 -0.292525 0
M  V30 75 C 7.6325 -3.45032 -0.0687464 0
M  V30 76 C 6.7455 -4.21296 0.955724 0
M  V30 77 C 5.8805 -5.30507 0.271208 0
M  V30 78 C 4.9195 -5.98515 1.28244 0
M  V30 79 N 4.0565 -6.99316 0.62459 0
M  V30 80 H 8.8965 -2.59336 1.46796 0
M  V30 81 H 6.4335 -1.27431 0.734836 0
M  V30 82 H 8.3915 -4.1459 -0.465965 0
M  V30 83 H 7.0215 -3.09604 -0.913529 0
M  V30 84 H 6.0735 -3.50803 1.4711 0
M  V30 85 H 7.3855 -4.6803 1.72479 0
M  V30 86 H 6.5395 -6.06428 -0.18151 0
M  V30 87 H 5.2785 -4.8481 -0.530163 0
M  V30 88 H 4.2835 -5.21355 1.74554 0
M  V30 89 H 5.5085 -6.46298 2.08509 0
M  V30 90 H 3.4545 -6.55812 -0.156914 0
M  V30 91 H 3.3715 -7.44178 1.33172 0
M  V30 92 H 4.6395 -7.79255 0.195462 0
M  V30 93 N 8.8686 -0.792821 -1.36206 0
M  V30 94 C 10.1176 -0.363353 -1.984 0
M  V30 95 C 10.4306 1.07172 -1.63626 0
M  V30 96 O 11.6366 1.60362 -2.19081 0
M  V30 97 C 10.0926 -0.59872 -3.54885 0
M  V30 98 C 9.7006 -2.04543 -3.9858 0
M  V30 99 C 11.4446 -0.233926 -4.23855 0
M  V30 100 C 9.3516 -2.22727 -5.47856 0
M  V30 101 H 8.2816 -0.13212 -0.742334 0
M  V30 102 H 10.9326 -0.974935 -1.55458 0
M  V30 103 H 9.3146 0.0826222 -3.95914 0
M  V30 104 H 10.4886 -2.76345 -3.68741 0
M  V30 105 H 8.8036 -2.36879 -3.42458 0
M  V30 106 H 11.4006 -0.348027 -5.33566 0
M  V30 107 H 11.7436 0.818351 -4.08177 0
M  V30 108 H 12.2766 -0.868639 -3.882 0
M  V30 109 H 9.0156 -3.2635 -5.68486 0
M  V30 110 H 8.5356 -1.55434 -5.7931 0
M  V30 111 H 10.2146 -2.03607 -6.14128 0
M  V30 112 N 10.3467 1.47872 -0.545128 0
M  V30 113 C 11.3097 2.28337 0.198717 0
M  V30 114 C 12.3097 1.36255 0.853888 0
M  V30 115 O 13.4997 1.59003 0.711606 0
M  V30 116 C 10.6317 3.15585 1.28915 0
M  V30 117 H 11.8247 2.95567 -0.507941 0
M  V30 118 H 9.3777 1.53362 -0.301616 0
M  V30 119 H 10.1127 2.53019 2.02859 0
M  V30 120 H 9.8977 3.83337 0.824309 0
M  V30 121 H 11.3877 3.76243 1.81194 0
M  V30 122 N 11.8248 0.280983 1.55075 0
M  V30 123 C 13.0498 -0.340154 2.04592 0
M  V30 124 C 13.4748 -1.48246 1.15779 0
M  V30 125 O 12.8328 -1.80614 0.15761 0
M  V30 126 C 12.8808 -0.793104 3.5177 0
M  V30 127 O 11.9848 -1.89981 3.66034 0
M  V30 128 H 11.3258 -0.0694289 0.66036 0
M  V30 129 H 13.8558 0.416993 2.00306 0
M  V30 130 H 13.8658 -1.08729 3.93245 0
M  V30 131 H 12.5408 0.0426163 4.15878 0
M  V30 132 H 11.1178 -1.60771 3.36463 0
M  V30 133 N 13.3029 -1.57598 0.00835791 0
M  V30 134 C 14.5309 -1.95214 -0.68549 0
M  V30 135 C 14.9459 -0.883706 -1.66841 0
M  V30 136 O 14.3029 0.136565 -1.81988 0
M  V30 137 C 14.3539 -3.32865 -1.41007 0
M  V30 138 O 14.0749 -4.35609 -0.466552 0
M  V30 139 C 15.5759 -3.84991 -2.19765 0
M  V30 140 H 12.7959 -0.643422 -0.190392 0
M  V30 141 H 15.3399 -2.04406 0.0619607 0
M  V30 142 H 13.4949 -3.24956 -2.10908 0
M  V30 143 H 13.9089 -5.15288 -0.978699 0
M  V30 144 H 15.3829 -4.8371 -2.65948 0
M  V30 145 H 15.8599 -3.18137 -3.02796 0
M  V30 146 H 16.4659 -3.96103 -1.54864 0
M  V30 147 N 14.781 0.264519 -1.55364 0
M  V30 148 C 15.713 1.34965 -1.85248 0
M  V30 149 C 16.726 1.45136 -0.737525 0
M  V30 150 O 17.915 1.46801 -1.01547 0
M  V30 151 C 15.015 2.73008 -2.00797 0
M  V30 152 C 14.188 2.85324 -3.31525 0
M  V30 153 C 13.247 4.04097 -3.37034 0
M  V30 154 O 12.273 3.94455 -4.10358 0
M  V30 155 N 13.475 5.16458 -2.65049 0
M  V30 156 H 16.24 1.09672 -2.78913 0
M  V30 157 H 13.801 0.454635 -1.55386 0
M  V30 158 H 15.793 3.50772 -2.01844 0
M  V30 159 H 14.363 2.91087 -1.1396 0
M  V30 160 H 13.583 1.94377 -3.42945 0
M  V30 161 H 14.871 2.9049 -4.17724 0
M  V30 162 H 14.269 5.27181 -2.05175 0
M  V30 163 H 12.826 5.92422 -2.71809 0
M  V30 164 N 16.2591 1.48442 0.529413 0
M  V30 165 C 17.1691 1.6569 1.66084 0
M  V30 166 C 18.1851 0.539432 1.65427 0
M  V30 167 O 19.3611 0.810572 1.84368 0
M  V30 168 C 16.4261 1.69315 3.02545 0
M  V30 169 C 15.4871 2.92694 3.14052 0
M  V30 170 C 14.7201 2.96137 4.44003 0
M  V30 171 O 14.9431 2.07973 5.31134 0
M  V30 172 O 13.8771 3.88312 4.59888 0
M  V30 173 H 17.7031 2.61483 1.54469 0
M  V30 174 H 15.2881 1.3185 0.702567 0
M  V30 175 H 17.1701 1.74217 3.83701 0
M  V30 176 H 15.8451 0.766966 3.14483 0
M  V30 177 H 14.7521 2.93324 2.32189 0
M  V30 178 H 16.0851 3.84699 3.0703 0
M  V30 179 N 17.7372 -0.778329 1.37039 0
M  V30 180 C 18.7002 -1.87301 1.32102 0
M  V30 181 C 19.7002 -1.59198 0.226405 0
M  V30 182 O 20.8902 -1.67403 0.481861 0
M  V30 183 C 18.0222 -3.24309 1.05055 0
M  V30 184 H 19.2152 -1.93093 2.29467 0
M  V30 185 H 16.7682 -0.977358 1.21973 0
M  V30 186 H 17.5032 -3.24196 0.0819373 0
M  V30 187 H 17.2882 -3.46098 1.84279 0
M  V30 188 H 18.7782 -4.04382 1.04234 0
M  V30 189 N 19.2153 -1.21501 -1.00376 0
M  V30 190 C 20.6313 -0.972629 -1.26539 0
M  V30 191 C 20.8313 0.340257 -1.98606 0
M  V30 192 O 19.8873 1.06561 -2.28913 0
M  V30 193 C 21.2003 -2.16404 -2.08781 0
M  V30 194 C 22.7483 -2.20643 -2.22004 0
M  V30 195 C 23.2233 -3.39306 -3.07629 0
M  V30 196 N 24.7143 -3.39401 -3.15217 0
M  V30 197 C 25.4493 -4.27867 -3.81729 0
M  V30 198 N 24.9453 -5.26533 -4.5026 0
M  V30 199 N 26.7383 -4.15672 -3.78382 0
M  V30 200 H 18.8893 -2.05929 -0.520281 0
M  V30 201 H 21.1523 -0.901803 -0.292328 0
M  V30 202 H 20.8583 -3.11554 -1.63178 0
M  V30 203 H 20.7323 -2.15567 -3.09533 0
M  V30 204 H 23.1193 -1.26048 -2.66825 0
M  V30 205 H 23.2003 -2.25523 -1.20718 0
M  V30 206 H 22.8443 -4.34195 -2.63509 0
M  V30 207 H 22.7743 -3.31665 -4.09031 0
M  V30 208 H 25.2653 -2.67997 -2.66432 0
M  V30 209 H 25.5783 -5.90337 -4.98721 0
M  V30 210 H 23.9233 -5.30457 -4.49044 0
M  V30 211 H 27.1143 -3.3785 -3.23998 0
M  V30 212 H 27.2873 -4.84825 -4.2994 0
M  V30 213 N 20.6934 1.19889 -1.02296 0
M  V30 214 C 21.6254 2.22334 -0.556787 0
M  V30 215 C 22.6384 1.58674 0.364199 0
M  V30 216 O 23.8274 1.77768 0.161533 0
M  V30 217 C 20.9274 3.38257 0.208694 0
M  V30 218 C 20.1004 4.31504 -0.71577 0
M  V30 219 C 19.1594 5.262 0.00325597 0
M  V30 220 O 18.1854 5.65798 -0.621357 0
M  V30 221 N 19.3874 5.66303 1.27599 0
M  V30 222 H 22.1524 2.62957 -1.43784 0
M  V30 223 H 19.7134 1.34495 -0.901261 0
M  V30 224 H 21.7054 3.98616 0.699111 0
M  V30 225 H 20.2754 2.96472 0.991102 0
M  V30 226 H 19.4954 3.69016 -1.38638 0
M  V30 227 H 20.7834 4.9072 -1.34428 0
M  V30 228 H 20.1814 5.36155 1.80429 0
M  V30 229 H 18.7384 6.28942 1.71102 0
M  V30 230 N 22.1715 0.800033 1.35784 0
M  V30 231 C 23.4015 0.389041 2.02904 0
M  V30 232 C 23.8095 -1.0027 1.60445 0
M  V30 233 O 23.1525 -1.65633 0.794453 0
M  V30 234 C 23.2145 0.385495 3.57427 0
M  V30 235 C 22.8785 1.72662 4.23127 0
M  V30 236 C 23.8755 2.68385 4.4527 0
M  V30 237 C 21.5605 2.00883 4.60381 0
M  V30 238 C 23.5545 3.90517 5.03761 0
M  V30 239 C 21.2415 3.2328 5.18588 0
M  V30 240 C 22.2395 4.17915 5.40218 0
M  V30 241 O 21.9275 5.38153 5.97199 0
M  V30 242 H 21.6595 0.157032 0.657508 0
M  V30 243 H 24.2135 1.08311 1.74522 0
M  V30 244 H 22.4435 -0.365128 3.84972 0
M  V30 245 H 24.1325 -0.00228296 4.059 0
M  V30 246 H 24.8985 2.47872 4.16874 0
M  V30 247 H 20.7775 1.28037 4.42863 0
M  V30 248 H 24.3215 4.64395 5.2056 0
M  V30 249 H 20.2185 3.43667 5.4641 0
M  V30 250 H 20.9865 5.3936 6.15656 0
M  V30 251 N 23.6496 -1.47581 0.552962 0
M  V30 252 C 24.8966 -2.02482 0.0273243 0
M  V30 253 C 25.2246 -1.42776 -1.32081 0
M  V30 254 O 24.4796 -0.571393 -1.87173 0
M  V30 255 C 24.7786 -3.57199 -0.119728 0
M  V30 256 C 24.4446 -4.35804 1.15697 0
M  V30 257 C 23.1066 -4.57 1.50681 0
M  V30 258 C 25.4586 -4.81167 2.00319 0
M  V30 259 C 22.7866 -5.20807 2.70142 0
M  V30 260 C 25.1386 -5.46293 3.18978 0
M  V30 261 C 23.8026 -5.65722 3.54281 0
M  V30 262 H 23.0726 -0.740933 0.00999866 0
M  V30 263 H 25.7196 -1.77302 0.72362 0
M  V30 264 H 24.0246 -3.81348 -0.89896 0
M  V30 265 H 25.7216 -3.97324 -0.541718 0
M  V30 266 H 22.3116 -4.19582 0.874561 0
M  V30 267 H 26.4956 -4.64574 1.74599 0
M  V30 268 H 21.7516 -5.34045 2.97668 0
M  V30 269 H 25.9256 -5.80407 3.84838 0
M  V30 270 H 23.5526 -6.14936 4.46942 0
M  V30 271 N 25.1277 -0.289203 -1.54924 0
M  V30 272 C 26.4047 0.376032 -1.91951 0
M  V30 273 C 26.7847 1.72622 -1.21511 0
M  V30 274 O 26.1327 2.25853 -0.346767 0
M  V30 275 C 26.3427 0.502378 -3.45365 0
M  V30 276 C 27.6907 0.778741 -4.17398 0
M  V30 277 O 28.7147 0.586647 -3.51336 0
M  V30 278 O 27.5737 1.14698 -5.34328 0
M  V30 279 H 24.6677 0.208167 -0.800372 0
M  V30 280 H 27.2137 -0.336394 -1.66332 0
M  V30 281 H 25.9857 -0.447255 -3.88736 0
M  V30 282 H 25.6087 1.26373 -3.76982 0
M  V30 283 N 26.6058 1.57591 -0.0167156 0
M  V30 284 C 27.8338 1.95575 0.675128 0
M  V30 285 C 28.2488 0.892542 1.6637 0
M  V30 286 O 27.6058 -0.126912 1.82058 0
M  V30 287 C 27.6568 3.33608 1.39239 0
M  V30 288 O 27.3778 4.3585 0.443444 0
M  V30 289 C 28.8788 3.86151 2.17721 0
M  V30 290 H 26.0988 0.644423 0.186978 0
M  V30 291 H 28.6428 2.0437 -0.0728 0
M  V30 292 H 26.7978 3.2607 2.09182 0
M  V30 293 H 27.2118 5.158 0.951358 0
M  V30 294 H 28.6858 4.85114 2.63379 0
M  V30 295 H 29.1628 3.19738 3.01105 0
M  V30 296 H 29.7688 3.96918 1.52761 0
M  V30 297 N 28.0839 -0.256276 1.55502 0
M  V30 298 C 29.3609 -1.00789 1.67633 0
M  V30 299 C 29.7409 -2.03706 0.553826 0
M  V30 300 O 29.0889 -2.24145 -0.443969 0
M  V30 301 C 29.2989 -1.64968 3.07549 0
M  V30 302 C 30.6469 -2.15505 3.65845 0
M  V30 303 O 31.6709 -1.74925 3.1029 0
M  V30 304 O 30.5299 -2.89986 4.63217 0
M  V30 305 H 27.6239 -0.468553 0.681459 0
M  V30 306 H 30.1699 -0.250806 1.67836 0
M  V30 307 H 28.9419 -0.904785 3.80696 0
M  V30 308 H 28.5649 -2.47321 3.11317 0
M  V30 309 N 29.562 -1.4872 -0.521534 0
M  V30 310 C 30.978 -1.35028 -0.850855 0
M  V30 311 C 31.178 -0.367712 -1.98116 0
M  V30 312 O 30.234 0.208037 -2.51642 0
M  V30 313 C 31.547 -2.75263 -1.21041 0
M  V30 314 C 33.095 -2.83813 -1.31981 0
M  V30 315 C 33.57 -4.24769 -1.71276 0
M  V30 316 N 35.061 -4.27482 -1.78363 0
M  V30 317 C 35.796 -5.33494 -2.1017 0
M  V30 318 N 35.292 -6.49775 -2.40343 0
M  V30 319 N 37.085 -5.20894 -2.11248 0
M  V30 320 H 29.236 -2.11214 0.22413 0
M  V30 321 H 31.499 -0.947252 0.0376439 0
M  V30 322 H 31.205 -3.48765 -0.453415 0
M  V30 323 H 31.079 -3.09327 -2.15863 0
M  V30 324 H 33.466 -2.10561 -2.06756 0
M  V30 325 H 33.547 -2.53358 -0.352596 0
M  V30 326 H 33.191 -4.9854 -0.970588 0
M  V30 327 H 33.121 -4.52673 -2.69062 0
M  V30 328 H 35.612 -3.43611 -1.57288 0
M  V30 329 H 35.925 -7.26402 -2.63743 0
M  V30 330 H 34.27 -6.53035 -2.37844 0
M  V30 331 H 37.461 -4.29065 -1.87139 0
M  V30 332 H 37.634 -6.03612 -2.35704 0
M  V30 333 N 31.0401 0.771051 -1.3745 0
M  V30 334 C 32.2861 1.5319 -1.32894 0
M  V30 335 C 32.6191 1.94008 0.0862511 0
M  V30 336 O 31.8941 1.64124 1.04373 0
M  V30 337 C 32.1771 2.79648 -2.26868 0
M  V30 338 C 32.0301 2.45079 -3.77169 0
M  V30 339 C 33.3491 3.81583 -2.19277 0
M  V30 340 H 30.4681 0.555744 -0.484064 0
M  V30 341 H 33.1101 0.884492 -1.68157 0
M  V30 342 H 31.2601 3.34891 -1.96926 0
M  V30 343 H 32.9321 1.95745 -4.1771 0
M  V30 344 H 31.1751 1.77767 -3.95704 0
M  V30 345 H 31.8461 3.35478 -4.38359 0
M  V30 346 H 34.3221 3.35835 -2.45671 0
M  V30 347 H 33.1981 4.67787 -2.87171 0
M  V30 348 H 33.4591 4.25897 -1.18592 0
M  V30 349 N 32.5182 1.22032 0.997298 0
M  V30 350 C 33.7642 1.04376 1.73878 0
M  V30 351 C 34.0972 -0.420716 1.89588 0
M  V30 352 O 33.3722 -1.31202 1.43583 0
M  V30 353 C 33.6552 1.75047 3.14691 0
M  V30 354 C 33.5082 3.29062 3.06656 0
M  V30 355 C 34.8272 1.49928 4.13775 0
M  V30 356 H 31.9462 0.380578 0.631133 0
M  V30 357 H 34.5882 1.50312 1.16217 0
M  V30 358 H 32.7382 1.35996 3.63919 0
M  V30 359 H 34.4102 3.7753 2.65083 0
M  V30 360 H 32.6532 3.58967 2.43568 0
M  V30 361 H 33.3242 3.73683 4.06282 0
M  V30 362 H 35.8002 1.83842 3.73285 0
M  V30 363 H 34.6762 2.01878 5.10428 0
M  V30 364 H 34.9372 0.430929 4.39995 0
M  V30 365 N 33.9963 -1.19345 1.0293 0
M  V30 366 C 35.2423 -1.89318 0.727083 0
M  V30 367 C 35.5753 -1.79446 -0.742483 0
M  V30 368 O 34.8503 -1.1871 -1.54072 0
M  V30 369 C 35.1333 -3.40238 1.17942 0
M  V30 370 C 34.9863 -3.58979 2.71024 0
M  V30 371 C 36.3053 -4.33479 0.760548 0
M  V30 372 H 33.4243 -0.687475 0.265606 0
M  V30 373 H 36.0663 -1.40477 1.2793 0
M  V30 374 H 34.2163 -3.81964 0.709608 0
M  V30 375 H 35.8883 -3.26421 3.25955 0
M  V30 376 H 34.1313 -3.02018 3.11396 0
M  V30 377 H 34.8023 -4.64823 2.9773 0
M  V30 378 H 37.2783 -3.99469 1.16464 0
M  V30 379 H 36.1543 -5.37664 1.10493 0
M  V30 380 H 36.4153 -4.40813 -0.337063 0
M  V30 381 N 35.4744 -0.807222 -1.35358 0
M  V30 382 C 36.7514 -0.311126 -1.9311 0
M  V30 383 C 37.1314 1.19937 -1.73719 0
M  V30 384 O 36.4794 1.99918 -1.10657 0
M  V30 385 C 36.6894 -0.723226 -3.41424 0
M  V30 386 C 38.0374 -0.713078 -4.18569 0
M  V30 387 O 39.0614 -0.664811 -3.49941 0
M  V30 388 O 37.9204 -0.772022 -5.41019 0
M  V30 389 H 35.0144 -0.081526 -0.822972 0
M  V30 390 H 37.5604 -0.890962 -1.4443 0
M  V30 391 H 36.3324 -1.76426 -3.4927 0
M  V30 392 H 35.9554 -0.118232 -3.97424 0
M  V30 393 N 36.9525 1.47285 -0.560781 0
M  V30 394 C 37.9155 2.28535 0.174488 0
M  V30 395 C 38.9155 1.37153 0.839388 0
M  V30 396 O 40.1055 1.59748 0.694702 0
M  V30 397 C 37.2375 3.16934 1.25561 0
M  V30 398 H 38.4305 2.95012 -0.539262 0
M  V30 399 H 35.9835 1.53034 -0.317865 0
M  V30 400 H 36.7185 2.55157 2.00164 0
M  V30 401 H 36.5035 3.8419 0.783604 0
M  V30 402 H 37.9935 3.78143 1.77193 0
M  V30 403 N 38.4306 0.297415 1.54768 0
M  V30 404 C 39.6766 -0.313376 2.00364 0
M  V30 405 C 40.0096 -1.53815 1.18553 0
M  V30 406 O 39.2846 -1.92739 0.261103 0
M  V30 407 C 39.5676 -0.673525 3.53745 0
M  V30 408 C 39.4206 0.560133 4.46299 0
M  V30 409 C 40.7396 -1.50143 4.13697 0
M  V30 410 H 37.8586 -0.112428 0.728374 0
M  V30 411 H 40.5006 0.4088 1.8555 0
M  V30 412 H 38.6506 -1.28881 3.665 0
M  V30 413 H 40.3226 1.19863 4.45455 0
M  V30 414 H 38.5656 1.19405 4.17043 0
M  V30 415 H 39.2366 0.26405 5.51368 0
M  V30 416 H 41.7126 -0.981588 4.04356 0
M  V30 417 H 40.5886 -1.72221 5.21182 0
M  V30 418 H 40.8496 -2.48952 3.65343 0
M  V30 419 N 39.9087 -1.5758 0.0250728 0
M  V30 420 C 41.1567 -1.91255 -0.653151 0
M  V30 421 C 41.4777 -0.901691 -1.729 0
M  V30 422 O 40.7477 0.0573785 -1.95816 0
M  V30 423 H 39.3277 -0.705942 -0.244243 0
M  V30 424 H 41.9897 -1.94767 0.0719209 0
M  V30 425 H 41.0857 -2.91752 -1.10847 0
M  V30 426 N 41.3868 0.248026 -1.55636 0
M  V30 427 C 42.6118 0.998028 -1.81808 0
M  V30 428 C 43.0368 1.78207 -0.601979 0
M  V30 429 O 42.3948 1.75653 0.448961 0
M  V30 430 C 42.4428 1.9125 -3.05705 0
M  V30 431 O 41.5468 3.00406 -2.82542 0
M  V30 432 H 40.8878 0.284045 -0.600179 0
M  V30 433 H 43.4178 0.269357 -2.02819 0
M  V30 434 H 43.4278 2.32737 -3.35108 0
M  V30 435 H 42.1028 1.33602 -3.93857 0
M  V30 436 H 40.6798 2.63056 -2.64303 0
M  V30 437 N 42.8649 1.48995 0.513639 0
M  V30 438 C 44.1419 1.48338 1.27495 0
M  V30 439 C 44.5219 0.204065 2.10111 0
M  V30 440 O 43.8699 -0.813881 2.13514 0
M  V30 441 C 44.0799 2.75498 2.14247 0
M  V30 442 C 45.4279 3.24484 2.73852 0
M  V30 443 O 46.4519 2.76528 2.24523 0
M  V30 444 O 45.3109 4.07974 3.6362 0
M  V30 445 H 42.4049 0.593149 0.576284 0
M  V30 446 H 44.9509 1.61246 0.528948 0
M  V30 447 H 43.7229 3.60109 1.53092 0
M  V30 448 H 43.3459 2.6539 2.96064 0
M  V30 449 N 44.343 -0.763751 1.37857 0
M  V30 450 C 45.59 -1.52257 1.33506 0
M  V30 451 C 45.918 -1.94343 -0.078022 0
M  V30 452 O 45.173 -1.64958 -1.05297 0
M  V30 453 C 45.472 -2.79499 2.22745 0
M  V30 454 C 45.138 -2.56426 3.70886 0
M  V30 455 C 43.8 -2.49842 4.11257 0
M  V30 456 C 46.152 -2.36008 4.64704 0
M  V30 457 C 43.48 -2.20841 5.43549 0
M  V30 458 C 45.832 -2.0853 5.97242 0
M  V30 459 C 44.496 -2.00396 6.36709 0
M  V30 460 H 43.766 -0.557149 0.488534 0
M  V30 461 H 46.413 -0.879073 1.70131 0
M  V30 462 H 44.718 -3.48447 1.79142 0
M  V30 463 H 46.415 -3.37413 2.16688 0
M  V30 464 H 43.005 -2.62416 3.38874 0
M  V30 465 H 47.189 -2.40079 4.34368 0
M  V30 466 H 42.445 -2.13045 5.73081 0
M  V30 467 H 46.619 -1.91732 6.69486 0
M  V30 468 H 44.246 -1.77688 7.39142 0
M  V30 469 N 45.8211 -1.22559 -0.990812 0
M  V30 470 C 47.0491 -1.07779 -1.76611 0
M  V30 471 C 47.4641 0.371513 -1.85109 0
M  V30 472 O 46.8211 1.25737 -1.32274 0
M  V30 473 C 46.8721 -1.68512 -3.19822 0
M  V30 474 O 46.5931 -3.07774 -3.1178 0
M  V30 475 C 48.0941 -1.59035 -4.13791 0
M  V30 476 H 45.3141 -0.377729 -0.554583 0
M  V30 477 H 47.8581 -1.62195 -1.24551 0
M  V30 478 H 46.0131 -1.18154 -3.68942 0
M  V30 479 H 46.4271 -3.37062 -4.01858 0
M  V30 480 H 47.9011 -2.0625 -5.1202 0
M  V30 481 H 48.3781 -0.547273 -4.35777 0
M  V30 482 H 48.9841 -2.08709 -3.70568 0
M  V30 483 N 47.2992 1.18797 -1.03562 0
M  V30 484 C 48.5762 1.84469 -0.650434 0
M  V30 485 C 48.9562 1.92319 0.870433 0
M  V30 486 O 48.3042 1.44528 1.76986 0
M  V30 487 C 48.5142 3.2306 -1.32036 0
M  V30 488 C 49.8622 3.9915 -1.44792 0
M  V30 489 O 50.8862 3.32481 -1.27806 0
M  V30 490 O 49.7452 5.18587 -1.72423 0
M  V30 491 H 46.8392 0.795251 -0.226946 0
M  V30 492 H 49.3852 1.26231 -1.13419 0
M  V30 493 H 48.1572 3.1222 -2.3587 0
M  V30 494 H 47.7802 3.88949 -0.8249 0
M  V30 495 N 48.7773 0.814389 1.34928 0
M  V30 496 C 50.0233 0.399013 1.98836 0
M  V30 497 C 50.3563 -1.03314 1.64438 0
M  V30 498 O 49.6313 -1.71811 0.911659 0
M  V30 499 C 49.9143 0.591629 3.55207 0
M  V30 500 C 49.7673 2.06928 3.99376 0
M  V30 501 C 51.0863 0.022199 4.40094 0
M  V30 502 H 48.2053 0.146451 0.722303 0
M  V30 503 H 50.8473 1.02537 1.59957 0
M  V30 504 H 48.9973 0.0584441 3.88456 0
M  V30 505 H 50.6693 2.66544 3.76499 0
M  V30 506 H 48.9123 2.56287 3.49999 0
M  V30 507 H 49.5833 2.1549 5.08201 0
M  V30 508 H 52.0593 0.477643 4.13349 0
M  V30 509 H 50.9353 0.186832 5.48582 0
M  V30 510 H 51.1963 -1.07215 4.28902 0
M  V30 511 N 50.2554 -1.46986 0.568584 0
M  V30 512 C 51.5034 -2.02041 0.0487022 0
M  V30 513 C 51.8244 -1.44408 -1.31039 0
M  V30 514 O 51.0944 -0.623477 -1.85714 0
M  V30 515 H 49.6744 -0.746849 0.015014 0
M  V30 516 H 52.3364 -1.80257 0.741168 0
M  V30 517 H 51.4324 -3.12085 -0.0308961 0
M  V30 518 N 51.7335 -0.305618 -1.54608 0
M  V30 519 C 52.6965 0.555591 -2.22364 0
M  V30 520 C 53.6965 1.05768 -1.21119 0
M  V30 521 O 54.8865 0.952972 -1.45822 0
M  V30 522 C 52.0185 1.76974 -2.91364 0
M  V30 523 H 53.2115 -0.0364572 -2.99878 0
M  V30 524 H 50.7645 -0.0565007 -1.56198 0
M  V30 525 H 51.4995 2.40151 -2.17941 0
M  V30 526 H 51.2845 1.41732 -3.65588 0
M  V30 527 H 52.7745 2.38148 -3.43038 0
M  V30 528 N 53.2116 1.57565 -0.0334293 0
M  V30 529 C 54.4576 1.92262 0.645226 0
M  V30 530 C 54.7906 0.910543 1.71531 0
M  V30 531 O 54.0656 -0.066099 1.94388 0
M  V30 532 C 54.3486 3.37422 1.2577 0
M  V30 533 C 54.2016 4.49369 0.196891 0
M  V30 534 C 55.5206 3.82628 2.17449 0
M  V30 535 H 52.6396 0.699171 0.233085 0
M  V30 536 H 55.2816 1.89779 -0.0915694 0
M  V30 537 H 53.4316 3.39669 1.88566 0
M  V30 538 H 55.1036 4.59254 -0.433962 0
M  V30 539 H 53.3466 4.31168 -0.477137 0
M  V30 540 H 54.0176 5.47978 0.665124 0
M  V30 541 H 56.4936 3.82145 1.64634 0
M  V30 542 H 55.3696 4.84883 2.57254 0
M  V30 543 H 55.6306 3.18376 3.0674 0
M  V30 544 N 54.6897 -0.239769 1.55765 0
M  V30 545 C 55.9387 -0.964754 1.77131 0
M  V30 546 C 56.2517 -1.86213 0.59868 0
M  V30 547 O 57.4577 -2.6244 0.695522 0
M  V30 548 C 55.9137 -1.76552 3.1362 0
M  V30 549 C 55.5217 -0.915185 4.38553 0
M  V30 550 C 57.2657 -2.48281 3.44321 0
M  V30 551 C 55.1727 -1.71225 5.66071 0
M  V30 552 H 54.1027 -0.363953 0.660344 0
M  V30 553 H 56.7537 -0.219181 1.82186 0
M  V30 554 H 55.1357 -2.55331 3.02691 0
M  V30 555 H 56.3097 -0.169217 4.60489 0
M  V30 556 H 54.6247 -0.310889 4.15238 0
M  V30 557 H 57.2217 -3.08382 4.36812 0
M  V30 558 H 57.5647 -3.20256 2.65973 0
M  V30 559 H 58.0977 -1.76507 3.56497 0
M  V30 560 H 54.8367 -1.03612 6.4726 0
M  V30 561 H 54.3567 -2.43331 5.48224 0
M  V30 562 H 56.0357 -2.27758 6.05587 0
M  V30 563 N 56.1678 -1.49265 -0.50573 0
M  V30 564 C 57.1308 -1.65075 -1.59006 0
M  V30 565 C 58.1308 -0.522768 -1.52065 0
M  V30 566 O 59.3208 -0.789117 -1.55302 0
M  V30 567 C 56.4528 -1.64369 -2.98656 0
M  V30 568 H 57.6458 -2.61784 -1.46319 0
M  V30 569 H 55.1988 -1.38226 -0.729616 0
M  V30 570 H 55.9338 -0.692272 -3.16825 0
M  V30 571 H 55.7188 -2.46282 -3.05103 0
M  V30 572 H 57.2088 -1.78674 -3.77446 0
M  V30 573 N 57.6459 0.756429 -1.3826 0
M  V30 574 C 58.5789 1.87802 -1.29637 0
M  V30 575 C 59.5569 1.61667 -0.173939 0
M  V30 576 O 60.7409 1.85208 -0.350775 0
M  V30 577 C 57.8679 3.23354 -1.00797 0
M  V30 578 C 56.9139 3.68379 -2.14939 0
M  V30 579 S 57.7469 3.8025 -3.77054 0
M  V30 580 C 58.9029 5.18626 -3.50396 0
M  V30 581 H 59.1359 1.94829 -2.24564 0
M  V30 582 H 56.6689 0.919117 -1.24063 0
M  V30 583 H 58.6269 4.01637 -0.848413 0
M  V30 584 H 57.2879 3.14008 -0.0759369 0
M  V30 585 H 56.4809 4.66693 -1.90299 0
M  V30 586 H 56.0829 2.97242 -2.26988 0
M  V30 587 H 58.3749 6.04289 -3.06334 0
M  V30 588 H 59.3179 5.48286 -4.48094 0
M  V30 589 H 59.7259 4.87289 -2.84973 0
M  V30 590 N 59.124 1.23083 0.984299 0
M  V30 591 C 60.401 0.9689 1.69917 0
M  V30 592 C 60.781 -0.513604 2.04757 0
M  V30 593 O 60.129 -1.48383 1.73767 0
M  V30 594 C 60.339 1.87518 2.94343 0
M  V30 595 C 61.687 2.13636 3.6694 0
M  V30 596 O 62.711 1.85036 3.04368 0
M  V30 597 O 61.57 2.62119 4.79537 0
M  V30 598 H 58.664 0.365095 0.742048 0
M  V30 599 H 61.21 1.34107 1.03987 0
M  V30 600 H 59.982 2.87756 2.65164 0
M  V30 601 H 59.605 1.50514 3.6801 0
M  V30 602 N 60.6021 -1.18246 1.0419 0
M  V30 603 C 61.8321 -1.91916 0.764961 0
M  V30 604 C 62.2401 -1.76485 -0.681898 0
M  V30 605 O 61.5831 -1.09275 -1.47664 0
M  V30 606 C 61.6451 -3.4373 1.05309 0
M  V30 607 C 61.3091 -3.8294 2.4941 0
M  V30 608 C 62.3061 -3.86621 3.47592 0
M  V30 609 C 59.9911 -4.142 2.84155 0
M  V30 610 C 61.9851 -4.21013 4.78568 0
M  V30 611 C 59.6721 -4.48262 4.15337 0
M  V30 612 C 60.6701 -4.51645 5.12353 0
M  V30 613 O 60.3581 -4.84911 6.41183 0
M  V30 614 H 60.0901 -0.61606 0.278292 0
M  V30 615 H 62.6441 -1.50947 1.39299 0
M  V30 616 H 60.8741 -3.84946 0.367933 0
M  V30 617 H 62.5631 -3.9865 0.763752 0
M  V30 618 H 63.3291 -3.62607 3.22089 0
M  V30 619 H 59.2081 -4.10743 2.09311 0
M  V30 620 H 62.7521 -4.23568 5.54289 0
M  V30 621 H 58.6491 -4.71737 4.40607 0
M  V30 622 H 59.4171 -5.02809 6.45852 0
M  V30 623 N 62.0802 -0.821533 -1.34494 0
M  V30 624 C 62.9902 -0.244355 -2.33324 0
M  V30 625 C 64.0062 0.620527 -1.62559 0
M  V30 626 O 65.1822 0.528754 -1.94335 0
M  V30 627 C 62.2472 0.585368 -3.41723 0
M  V30 628 C 61.3082 -0.301752 -4.28238 0
M  V30 629 C 60.5412 0.488466 -5.3146 0
M  V30 630 O 60.7642 1.72186 -5.4379 0
M  V30 631 O 59.6982 -0.12848 -6.01763 0
M  V30 632 H 63.5242 -1.06231 -2.84515 0
M  V30 633 H 61.1092 -0.583645 -1.37528 0
M  V30 634 H 62.9912 1.05747 -4.07916 0
M  V30 635 H 61.6662 1.38068 -2.92778 0
M  V30 636 H 60.5732 -0.821315 -3.64973 0
M  V30 637 H 61.9062 -1.06138 -4.8062 0
M  V30 638 N 63.5583 1.46682 -0.576371 0
M  V30 639 C 64.7863 2.06798 -0.0649635 0
M  V30 640 C 65.2013 1.42612 1.23723 0
M  V30 641 O 64.5583 0.529203 1.74659 0
M  V30 642 C 64.6093 3.6132 0.114202 0
M  V30 643 O 64.3303 4.23104 -1.13644 0
M  V30 644 C 65.8313 4.38349 0.66069 0
M  V30 645 H 63.0513 0.668778 -0.0545616 0
M  V30 646 H 65.5953 1.88404 -0.795237 0
M  V30 647 H 63.7503 3.79162 0.794673 0
M  V30 648 H 64.1643 5.15894 -0.946253 0
M  V30 649 H 65.6383 5.47081 0.73526 0
M  V30 650 H 66.1153 4.05953 1.67627 0
M  V30 651 H 66.7213 4.25297 0.0152951 0
M  V30 652 N 65.0364 0.313813 1.54444 0
M  V30 653 C 66.3134 -0.345447 1.92525 0
M  V30 654 C 66.6934 -1.70667 1.24242 0
M  V30 655 O 66.0414 -2.25273 0.382654 0
M  V30 656 C 66.2514 -0.44737 3.46121 0
M  V30 657 C 67.5994 -0.712238 4.18584 0
M  V30 658 O 68.6234 -0.530678 3.52225 0
M  V30 659 O 67.4824 -1.06183 5.36085 0
M  V30 660 H 64.5764 -0.195407 0.803583 0
M  V30 661 H 67.1224 0.362813 1.65776 0
M  V30 662 H 65.8944 0.509043 3.87975 0
M  V30 663 H 65.5174 -1.20359 3.78945 0
M  V30 664 N 66.5145 -1.57545 0.0417849 0
M  V30 665 C 67.7605 -1.92601 -0.635021 0
M  V30 666 C 68.0935 -0.919627 -1.71045 0
M  V30 667 O 67.3685 0.0557892 -1.9442 0
M  V30 668 C 67.6515 -3.38085 -1.23979 0
M  V30 669 C 67.5045 -4.49467 -0.173057 0
M  V30 670 C 68.8235 -3.83776 -2.15416 0
M  V30 671 H 65.9425 -0.700397 -0.229374 0
M  V30 672 H 68.5845 -1.89728 0.101633 0
M  V30 673 H 66.7345 -3.40664 -1.86762 0
M  V30 674 H 68.4065 -4.59018 0.458312 0
M  V30 675 H 66.6495 -4.30909 0.499996 0
M  V30 676 H 67.3205 -5.48323 -0.636054 0
M  V30 677 H 69.7965 -3.83013 -1.62605 0
M  V30 678 H 68.6725 -4.8624 -2.54679 0
M  V30 679 H 68.9335 -3.19998 -3.05047 0
M  V30 680 N 67.9926 0.231505 -1.5589 0
M  V30 681 C 69.2416 0.955346 -1.7764 0
M  V30 682 C 69.5546 1.85893 -0.608546 0
M  V30 683 O 70.7606 2.62067 -0.70943 0
M  V30 684 C 69.2166 1.74886 -3.14552 0
M  V30 685 C 68.8246 0.891915 -4.39032 0
M  V30 686 C 70.5686 2.46452 -3.45633 0
M  V30 687 C 68.4756 1.68221 -5.66971 0
M  V30 688 H 67.4056 0.360446 -0.662265 0
M  V30 689 H 70.0566 0.209516 -1.823 0
M  V30 690 H 68.4386 2.53723 -3.04041 0
M  V30 691 H 69.6126 0.144793 -4.60572 0
M  V30 692 H 67.9276 0.288863 -4.15397 0
M  V30 693 H 70.5246 3.06061 -4.38441 0
M  V30 694 H 70.8676 3.18841 -2.67668 0
M  V30 695 H 71.4006 1.74613 -3.57428 0
M  V30 696 H 68.1396 1.00178 -6.478 0
M  V30 697 H 67.6596 2.4042 -5.49507 0
M  V30 698 H 69.3386 2.24544 -6.06786 0
M  V30 699 N 69.4707 1.49531 0.497807 0
M  V30 700 C 70.7477 1.49682 1.25915 0
M  V30 701 C 71.1277 0.226339 2.09883 0
M  V30 702 O 70.4757 -0.791189 2.14365 0
M  V30 703 C 70.6857 2.77755 2.11313 0
M  V30 704 C 72.0337 3.27371 2.70395 0
M  V30 705 O 73.0577 2.78894 2.21578 0
M  V30 706 O 71.9167 4.11808 3.59272 0
M  V30 707 H 69.0107 0.599228 0.56996 0
M  V30 708 H 71.5567 1.61798 0.511816 0
M  V30 709 H 70.3287 3.61713 1.49264 0
M  V30 710 H 69.9517 2.68515 2.93233 0
M  V30 711 N 70.9488 -0.749086 1.3866 0
M  V30 712 C 71.9118 -1.84457 1.36045 0
M  V30 713 C 72.9118 -1.58682 0.260122 0
M  V30 714 O 74.1018 -1.66343 0.517261 0
M  V30 715 C 71.2338 -3.22008 1.11911 0
M  V30 716 H 72.4268 -1.88182 2.33512 0
M  V30 717 H 69.9798 -0.951266 1.24019 0
M  V30 718 H 70.7148 -3.2395 0.150686 0
M  V30 719 H 70.4998 -3.42111 1.91579 0
M  V30 720 H 71.9898 -4.0208 1.12788 0
M  V30 721 N 72.4269 -1.23603 -0.977757 0
M  V30 722 C 73.3899 -1.02069 -2.05218 0
M  V30 723 C 74.3899 0.0184305 -1.60789 0
M  V30 724 O 75.5799 -0.221569 -1.72785 0
M  V30 725 C 72.7119 -0.544926 -3.36517 0
M  V30 726 H 73.9049 -1.9742 -2.25755 0
M  V30 727 H 71.4579 -1.05684 -1.15155 0
M  V30 728 H 72.1929 0.412241 -3.21669 0
M  V30 729 H 71.9779 -1.2948 -3.70105 0
M  V30 730 H 73.4679 -0.414985 -4.15533 0
M  V30 731 N 73.905 1.17692 -1.04816 0
M  V30 732 C 75.182 1.83768 -0.669963 0
M  V30 733 C 75.562 1.93232 0.849986 0
M  V30 734 O 74.91 1.46397 1.75443 0
M  V30 735 C 75.12 3.21641 -1.35455 0
M  V30 736 C 76.468 3.97592 -1.49017 0
M  V30 737 O 77.492 3.31107 -1.31326 0
M  V30 738 O 76.351 5.16729 -1.77914 0
M  V30 739 H 73.445 0.792799 -0.235368 0
M  V30 740 H 75.991 1.25021 -1.14751 0
M  V30 741 H 74.763 3.097 -2.39168 0
M  V30 742 H 74.386 3.88052 -0.866107 0
M  V30 743 N 75.3831 0.828654 1.34056 0
M  V30 744 C 76.3461 0.259927 2.27721 0
M  V30 745 C 77.3461 -0.565478 1.50529 0
M  V30 746 O 78.5361 -0.38075 1.69988 0
M  V30 747 C 75.6681 -0.634944 3.34935 0
M  V30 748 H 76.8611 1.0863 2.79534 0
M  V30 749 H 74.4141 0.600951 1.44285 0
M  V30 750 H 75.1491 -1.48416 2.88346 0
M  V30 751 H 74.9341 -0.0444999 3.92075 0
M  V30 752 H 76.4241 -1.02648 4.04788 0
M  V30 753 N 76.8612 -1.46375 0.584142 0
M  V30 754 C 78.0892 -2.06761 0.0759296 0
M  V30 755 C 78.5042 -1.43266 -1.22965 0
M  V30 756 O 77.8612 -0.538458 -1.74376 0
M  V30 757 C 77.9122 -3.61375 -0.0950384 0
M  V30 758 O 77.6332 -4.22495 1.15887 0
M  V30 759 C 79.1342 -4.38693 -0.637434 0
M  V30 760 H 76.3542 -0.668479 0.0581075 0
M  V30 761 H 78.8982 -1.8798 0.805218 0
M  V30 762 H 77.0532 -3.79578 -0.774554 0
M  V30 763 H 77.4672 -5.15385 0.973598 0
M  V30 764 H 78.9412 -5.47464 -0.706237 0
M  V30 765 H 79.4182 -4.06836 -1.65472 0
M  V30 766 H 80.0242 -4.25299 0.00725967 0
M  V30 767 N 78.3393 -0.321999 -1.54275 0
M  V30 768 C 79.2863 0.544664 -2.24281 0
M  V30 769 C 80.2563 1.1129 -1.23303 0
M  V30 770 O 81.4413 1.15354 -1.51981 0
M  V30 771 C 78.5813 1.70045 -3.00298 0
M  V30 772 C 77.6943 1.16159 -4.1609 0
M  V30 773 C 76.8293 2.28293 -4.79641 0
M  V30 774 C 75.8683 1.71648 -5.8754 0
M  V30 775 N 75.0053 2.77438 -6.44959 0
M  V30 776 H 79.8453 -0.0588907 -2.97942 0
M  V30 777 H 77.3823 -0.0408345 -1.47043 0
M  V30 778 H 79.3403 2.38054 -3.42616 0
M  V30 779 H 77.9703 2.27531 -2.28975 0
M  V30 780 H 77.0223 0.373092 -3.78566 0
M  V30 781 H 78.3343 0.707087 -4.93763 0
M  V30 782 H 77.4883 3.0421 -5.2492 0
M  V30 783 H 76.2273 2.77079 -4.01346 0
M  V30 784 H 75.2323 0.942282 -5.41665 0
M  V30 785 H 76.4573 1.23741 -6.67731 0
M  V30 786 H 74.4033 3.25519 -5.69538 0
M  V30 787 H 74.3203 2.36547 -7.1804 0
M  V30 788 H 75.5883 3.53189 -6.94894 0
M  V30 789 N 79.8174 1.5752 -0.0501392 0
M  V30 790 C 81.0644 1.9265 0.623874 0
M  V30 791 C 81.3924 0.928411 1.70912 0
M  V30 792 O 80.6474 -0.0594525 1.9561 0
M  V30 793 C 80.9464 3.34467 1.25963 0
M  V30 794 C 80.6124 4.49883 0.302689 0
M  V30 795 C 79.2744 4.81184 0.0393636 0
M  V30 796 C 81.6264 5.20002 -0.353205 0
M  V30 797 C 78.9544 5.79951 -0.887308 0
M  V30 798 C 81.3064 6.1976 -1.26806 0
M  V30 799 C 79.9704 6.49491 -1.54007 0
M  V30 800 H 79.2404 0.704957 0.228292 0
M  V30 801 H 81.8874 1.91146 -0.116398 0
M  V30 802 H 80.1924 3.32333 2.07514 0
M  V30 803 H 81.8894 3.58928 1.78806 0
M  V30 804 H 78.4794 4.25457 0.518109 0
M  V30 805 H 82.6634 4.96033 -0.162854 0
M  V30 806 H 77.9194 6.01322 -1.10553 0
M  V30 807 H 82.0934 6.73205 -1.78236 0
M  V30 808 H 79.7204 7.25837 -2.25976 0
M  V30 809 N 81.2955 -0.223234 1.56011 0
M  V30 810 C 82.5435 -0.946003 1.78592 0
M  V30 811 C 82.8645 -1.84936 0.618349 0
M  V30 812 O 82.1345 -1.92473 -0.364833 0
M  V30 813 H 80.7145 -0.352298 0.658707 0
M  V30 814 H 83.3765 -0.235494 1.93472 0
M  V30 815 H 82.4725 -1.55381 2.70672 0
M  V30 816 N 82.7736 -1.49793 -0.48987 0
M  V30 817 C 84.0226 -1.59085 -1.23995 0
M  V30 818 C 84.3356 -0.287907 -1.9347 0
M  V30 819 O 85.5416 -0.259506 -2.70257 0
M  V30 820 C 83.9976 -2.80736 -2.252 0
M  V30 821 C 83.6056 -4.17833 -1.61614 0
M  V30 822 C 85.3496 -2.99364 -3.00967 0
M  V30 823 C 83.2566 -5.30693 -2.60996 0
M  V30 824 H 82.1866 -0.592372 -0.466488 0
M  V30 825 H 84.8376 -1.76197 -0.51252 0
M  V30 826 H 83.2196 -2.57142 -3.01154 0
M  V30 827 H 84.3936 -4.51608 -0.915774 0
M  V30 828 H 82.7086 -4.04656 -0.981977 0
M  V30 829 H 85.3056 -3.80851 -3.75308 0
M  V30 830 H 85.6486 -2.10356 -3.59244 0
M  V30 831 H 86.1816 -3.2305 -2.32128 0
M  V30 832 H 82.9206 -6.21796 -2.07485 0
M  V30 833 H 82.4406 -5.01359 -3.2924 0
M  V30 834 H 84.1196 -5.6049 -3.23202 0
M  V30 835 N 84.2517 0.741722 -1.39055 0
M  V30 836 C 85.6627 1.31966 -1.32068 0
M  V30 837 C 86.0137 1.96192 0.0180797 0
M  V30 838 O 85.1387 1.95861 0.920196 0
M  V30 839 C 85.7337 2.39954 -2.39181 0
M  V30 840 C 84.2927 2.93438 -2.35735 0
M  V30 841 C 83.4397 1.66936 -2.21422 0
M  V30 842 H 86.3907 0.539721 -1.4924 0
M  V30 843 H 86.4117 3.20182 -2.05581 0
M  V30 844 H 85.9237 1.9318 -3.36605 0
M  V30 845 H 84.0247 3.4451 -1.41929 0
M  V30 846 H 84.1377 3.4701 -3.30335 0
M  V30 847 H 82.5017 1.91016 -1.68478 0
M  V30 848 H 83.2847 1.22224 -3.20806 0
M  V30 849 N 85.7298 1.2412 0.971189 0
M  V30 850 C 86.9758 1.08041 1.71625 0
M  V30 851 C 87.3088 -0.380407 1.90438 0
M  V30 852 O 86.5838 -1.28127 1.46334 0
M  V30 853 C 86.8668 1.81682 3.10908 0
M  V30 854 C 86.7198 3.35493 2.99608 0
M  V30 855 C 88.0388 1.58671 4.10501 0
M  V30 856 H 85.1578 0.39388 0.622919 0
M  V30 857 H 87.7998 1.52743 1.13003 0
M  V30 858 H 85.9498 1.43684 3.60953 0
M  V30 859 H 87.6218 3.83068 2.57015 0
M  V30 860 H 85.8648 3.64052 2.35899 0
M  V30 861 H 86.5358 3.82217 3.98264 0
M  V30 862 H 89.0118 1.91719 3.69301 0
M  V30 863 H 87.8878 2.1266 5.06031 0
M  V30 864 H 88.1488 0.524161 4.38982 0
M  V30 865 N 87.2079 -1.17134 1.05439 0
M  V30 866 C 88.4549 -1.87456 0.765942 0
M  V30 867 C 88.7829 -1.81189 -0.707153 0
M  V30 868 O 88.0379 -1.21633 -1.5331 0
M  V30 869 C 88.3369 -3.36833 1.19491 0
M  V30 870 C 88.0029 -3.63301 2.67063 0
M  V30 871 C 86.6649 -3.70234 3.07376 0
M  V30 872 C 89.0169 -3.74575 3.62413 0
M  V30 873 C 86.3449 -3.85933 4.41896 0
M  V30 874 C 88.6969 -3.91793 4.9667 0
M  V30 875 C 87.3609 -3.96966 5.36633 0
M  V30 876 H 86.6309 -0.685948 0.280278 0
M  V30 877 H 89.2779 -1.38556 1.32192 0
M  V30 878 H 87.5829 -3.87807 0.557969 0
M  V30 879 H 89.2799 -3.89611 0.948893 0
M  V30 880 H 85.8699 -3.58532 2.34846 0
M  V30 881 H 90.0539 -3.68537 3.32406 0
M  V30 882 H 85.3099 -3.88187 4.72357 0
M  V30 883 H 89.4839 -3.99458 5.70444 0
M  V30 884 H 87.1109 -4.08883 6.40874 0
M  V30 885 N 88.686 -0.835752 -1.33615 0
M  V30 886 C 89.649 -0.272 -2.2758 0
M  V30 887 C 90.649 0.557487 -1.50827 0
M  V30 888 O 91.839 0.37173 -1.70188 0
M  V30 889 C 88.971 0.617173 -3.35267 0
M  V30 890 H 90.164 -1.10111 -2.78954 0
M  V30 891 H 87.717 -0.608594 -1.43965 0
M  V30 892 H 88.452 1.46884 -2.89129 0
M  V30 893 H 88.237 0.0237066 -3.92093 0
M  V30 894 H 89.727 1.005 -4.05326 0
M  V30 895 N 90.1641 1.46063 -0.591896 0
M  V30 896 C 91.4101 2.02638 -0.0811191 0
M  V30 897 C 91.7431 1.4613 1.27905 0
M  V30 898 O 91.0181 0.629908 1.84017 0
M  V30 899 C 91.3011 3.60091 -0.0252436 0
M  V30 900 C 91.1541 4.26965 -1.41496 0
M  V30 901 C 92.4731 4.3496 0.670685 0
M  V30 902 H 89.5921 0.73635 -0.0309524 0
M  V30 903 H 92.2341 1.741 -0.760859 0
M  V30 904 H 90.3841 3.84535 0.553624 0
M  V30 905 H 92.0561 4.13756 -2.0397 0
M  V30 906 H 90.2991 3.85971 -1.98011 0
M  V30 907 H 90.9701 5.35781 -1.32825 0
M  V30 908 H 93.4461 4.15716 0.178825 0
M  V30 909 H 92.3221 5.44686 0.678837 0
M  V30 910 H 92.5831 4.06685 1.73379 0
M  V30 911 N 91.6422 0.330177 1.54103 0
M  V30 912 C 92.8702 -0.272179 2.05102 0
M  V30 913 C 93.2852 -1.45267 1.20595 0
M  V30 914 O 92.6422 -1.8094 0.238144 0
M  V30 915 C 92.6932 -0.70023 3.54653 0
M  V30 916 O 92.4142 0.433301 4.35952 0
M  V30 917 C 93.9152 -1.3647 4.21771 0
M  V30 918 H 91.1352 -0.0549159 0.668749 0
M  V30 919 H 93.6792 0.478285 1.98828 0
M  V30 920 H 91.8342 -1.40066 3.61193 0
M  V30 921 H 92.2482 0.0947539 5.24414 0
M  V30 922 H 93.7222 -1.61509 5.27843 0
M  V30 923 H 94.1992 -2.31409 3.73292 0
M  V30 924 H 94.8052 -0.706675 4.19388 0
M  V30 925 N 93.1203 -1.57491 0.0584922 0
M  V30 926 C 94.0673 -2.11958 -0.913376 0
M  V30 927 C 95.0373 -1.02875 -1.30407 0
M  V30 928 O 96.2223 -1.30464 -1.39226 0
M  V30 929 C 93.3623 -2.67497 -2.18035 0
M  V30 930 C 92.4753 -3.90691 -1.84349 0
M  V30 931 C 91.6103 -4.3452 -3.05559 0
M  V30 932 C 90.6493 -5.50395 -2.67827 0
M  V30 933 N 89.7863 -5.89244 -3.81754 0
M  V30 934 H 94.6263 -2.94704 -0.442017 0
M  V30 935 H 92.1633 -1.45643 -0.206545 0
M  V30 936 H 94.1213 -2.978 -2.92183 0
M  V30 937 H 92.7513 -1.87537 -2.62735 0
M  V30 938 H 91.8033 -3.66934 -1.00319 0
M  V30 939 H 93.1153 -4.7489 -1.5258 0
M  V30 940 H 92.2693 -4.66414 -3.87998 0
M  V30 941 H 91.0083 -3.49147 -3.40511 0
M  V30 942 H 90.0133 -5.18165 -1.83806 0
M  V30 943 H 91.2383 -6.3749 -2.34059 0
M  V30 944 H 89.1843 -5.06823 -4.16493 0
M  V30 945 H 89.1013 -6.68151 -3.53708 0
M  V30 946 H 90.3693 -6.25756 -4.64811 0
M  V30 947 N 94.5984 0.214957 -1.56127 0
M  V30 948 C 95.8754 0.963093 -1.70247 0
M  V30 949 C 96.2554 2.02166 -0.60764 0
M  V30 950 O 95.6034 2.25244 0.384385 0
M  V30 951 C 95.8134 1.56756 -3.11815 0
M  V30 952 C 97.1614 2.0573 -3.7143 0
M  V30 953 O 98.1854 1.66637 -3.14818 0
M  V30 954 O 97.0444 2.77603 -4.70743 0
M  V30 955 H 94.1384 0.450321 -0.693643 0
M  V30 956 H 96.6844 0.206219 -1.68442 0
M  V30 957 H 95.4564 0.803533 -3.82961 0
M  V30 958 H 95.0794 2.3898 -3.17765 0
M  V30 959 N 96.0765 1.50051 0.48192 0
M  V30 960 C 97.0395 1.67584 1.5636 0
M  V30 961 C 98.0395 0.546894 1.51214 0
M  V30 962 O 99.2295 0.813725 1.54026 0
M  V30 963 C 96.3615 1.691 2.96003 0
M  V30 964 H 97.5545 2.64078 1.42136 0
M  V30 965 H 95.1075 1.39369 0.707533 0
M  V30 966 H 95.8425 0.742589 3.15684 0
M  V30 967 H 95.6275 2.51105 3.01146 0
M  V30 968 H 97.1175 1.84656 3.74556 0
M  V30 969 N 97.5546 -0.734337 1.39446 0
M  V30 970 C 98.4866 -1.85861 1.34121 0
M  V30 971 C 99.4996 -1.60871 0.249864 0
M  V30 972 O 100.689 -1.71093 0.508865 0
M  V30 973 C 97.7886 -3.21899 1.05991 0
M  V30 974 C 96.9616 -3.74239 2.26415 0
M  V30 975 C 96.0206 -4.88841 1.94733 0
M  V30 976 O 95.0466 -5.02468 2.67422 0
M  V30 977 N 96.2486 -5.73261 0.913884 0
M  V30 978 H 99.0136 -1.90934 2.31007 0
M  V30 979 H 96.5746 -0.915102 1.33557 0
M  V30 980 H 98.5666 -3.96136 0.828147 0
M  V30 981 H 97.1366 -3.12091 0.178361 0
M  V30 982 H 96.3566 -2.91347 2.65539 0
M  V30 983 H 97.6446 -4.05942 3.06738 0
M  V30 984 H 97.0426 -5.64842 0.311476 0
M  V30 985 H 95.5996 -6.47563 0.742015 0
M  V30 986 N 99.0327 -1.24633 -0.964593 0
M  V30 987 C 99.9957 -1.0424 -2.04124 0
M  V30 988 C 100.996 0.00137563 -1.608 0
M  V30 989 O 102.186 -0.239883 -1.7254 0
M  V30 990 C 99.3177 -0.580588 -3.3592 0
M  V30 991 H 100.511 -1.99803 -2.23649 0
M  V30 992 H 98.0637 -1.06899 -1.14027 0
M  V30 993 H 98.7987 0.3781 -3.22088 0
M  V30 994 H 98.5837 -1.33398 -3.6871 0
M  V30 995 H 100.074 -0.459034 -4.15069 0
M  V30 996 N 100.511 1.16574 -1.06058 0
M  V30 997 C 101.76 1.86385 -0.770944 0
M  V30 998 C 102.073 1.82448 0.705129 0
M  V30 999 O 103.279 2.47815 1.10905 0
M  V30 1000 C 101.735 3.34466 -1.32893 0
M  V30 1001 C 101.343 3.46883 -2.83507 0
M  V30 1002 C 103.087 4.09548 -1.11672 0
M  V30 1003 C 100.994 4.89036 -3.32562 0
M  V30 1004 H 99.9238 0.698181 -0.284709 0
M  V30 1005 H 102.575 1.31583 -1.27899 0
M  V30 1006 H 100.957 3.88859 -0.748662 0
M  V30 1007 H 102.131 3.02663 -3.47465 0
M  V30 1008 H 100.446 2.85232 -3.03368 0
M  V30 1009 H 103.043 5.14434 -1.45814 0
M  V30 1010 H 103.386 4.16264 -0.0549535 0
M  V30 1011 H 103.919 3.61387 -1.66265 0
M  V30 1012 H 100.658 4.87499 -4.38207 0
M  V30 1013 H 100.178 5.3389 -2.73351 0
M  V30 1014 H 101.857 5.57843 -3.2775 0
M  V30 1015 N 101.989 0.842826 1.3317 0
M  V30 1016 C 103.214 0.453129 2.02389 0
M  V30 1017 C 103.639 -0.939105 1.6298 0
M  V30 1018 O 102.997 -1.61472 0.8244 0
M  V30 1019 C 103.045 0.586094 3.55805 0
M  V30 1020 O 102.149 -0.386029 4.10589 0
M  V30 1021 H 101.49 0.183664 0.638094 0
M  V30 1022 H 104.02 1.13875 1.69981 0
M  V30 1023 H 104.03 0.469209 4.05293 0
M  V30 1024 H 102.705 1.6014 3.83833 0
M  V30 1025 H 101.282 -0.226371 3.72212 0
M  V30 1026 N 103.467 -1.45747 0.599634 0
M  V30 1027 C 104.43 -2.28917 -0.113835 0
M  V30 1028 C 105.43 -1.3933 -0.802729 0
M  V30 1029 O 106.62 -1.61534 -0.652103 0
M  V30 1030 C 103.752 -3.20152 -1.17114 0
M  V30 1031 H 104.945 -2.93478 0.617289 0
M  V30 1032 H 102.498 -1.52137 0.358327 0
M  V30 1033 H 103.233 -2.60374 -1.93329 0
M  V30 1034 H 103.018 -3.86133 -0.681468 0
M  V30 1035 H 104.508 -3.82708 -1.67105 0
M  V30 1036 N 104.945 -0.338344 -1.53925 0
M  V30 1037 C 106.222 0.314774 -1.93051 0
M  V30 1038 C 106.602 1.68669 -1.26941 0
M  V30 1039 O 105.95 2.24636 -0.418445 0
M  V30 1040 C 106.16 0.392249 -3.46789 0
M  V30 1041 C 107.508 0.645554 -4.19664 0
M  V30 1042 O 108.532 0.474575 -3.53024 0
M  V30 1043 O 107.391 0.976408 -5.37707 0
M  V30 1044 H 104.485 0.182598 -0.80659 0
M  V30 1045 H 107.031 -0.389141 -1.65178 0
M  V30 1046 H 105.803 -0.570702 -3.87116 0
M  V30 1047 H 105.426 1.14316 -3.80812 0
M  V30 1048 N 106.423 1.57458 -0.0668435 0
M  V30 1049 C 107.333 2.15937 0.916975 0
M  V30 1050 C 108.349 1.12123 1.33058 0
M  V30 1051 O 109.525 1.44366 1.40429 0
M  V30 1052 C 106.59 2.70547 2.16807 0
M  V30 1053 C 105.651 3.89215 1.81135 0
M  V30 1054 C 104.884 4.41211 3.0028 0
M  V30 1055 O 105.107 3.92225 4.14144 0
M  V30 1056 O 104.041 5.32605 2.80384 0
M  V30 1057 H 107.867 3.00354 0.449561 0
M  V30 1058 H 105.452 1.48584 0.155949 0
M  V30 1059 H 107.334 3.0557 2.90181 0
M  V30 1060 H 106.009 1.89192 2.62656 0
M  V30 1061 H 104.916 3.59054 1.05028 0
M  V30 1062 H 106.249 4.71848 1.40073 0
M  V30 1063 N 107.901 -0.206675 1.56239 0
M  V30 1064 C 108.831 -1.25909 1.96645 0
M  V30 1065 C 109.812 -1.48097 0.836734 0
M  V30 1066 O 110.997 -1.6003 1.10019 0
M  V30 1067 C 108.127 -2.6058 2.29599 0
M  V30 1068 C 107.081 -2.53024 3.452 0
M  V30 1069 C 106.407 -3.91861 3.63798 0
M  V30 1070 C 107.707 -2.06524 4.79734 0
M  V30 1071 H 109.401 -0.923369 2.84806 0
M  V30 1072 H 106.947 -0.442735 1.37025 0
M  V30 1073 H 108.9 -3.34375 2.56459 0
M  V30 1074 H 107.624 -2.95869 1.38307 0
M  V30 1075 H 106.283 -1.81684 3.18412 0
M  V30 1076 H 105.931 -4.24483 2.69857 0
M  V30 1077 H 105.631 -3.87683 4.4156 0
M  V30 1078 H 107.155 -4.67296 3.93022 0
M  V30 1079 H 108.569 -2.70072 5.05702 0
M  V30 1080 H 106.966 -2.13374 5.60885 0
M  V30 1081 H 108.036 -1.01802 4.74093 0
M  V30 1082 N 109.379 -1.50304 -0.473955 0
M  V30 1083 C 110.326 -1.68959 -1.57231 0
M  V30 1084 C 111.296 -0.530899 -1.57387 0
M  V30 1085 O 112.481 -0.761133 -1.74961 0
M  V30 1086 C 109.621 -1.7871 -2.95223 0
M  V30 1087 C 108.734 -3.06061 -3.04878 0
M  V30 1088 C 107.869 -3.06626 -4.33767 0
M  V30 1089 C 106.908 -4.28443 -4.37154 0
M  V30 1090 N 106.045 -4.26763 -5.5751 0
M  V30 1091 H 110.885 -2.6273 -1.40631 0
M  V30 1092 H 108.422 -1.30241 -0.683789 0
M  V30 1093 H 110.38 -1.82344 -3.75242 0
M  V30 1094 H 109.01 -0.883806 -3.10465 0
M  V30 1095 H 108.062 -3.11911 -2.17751 0
M  V30 1096 H 109.374 -3.96039 -3.0324 0
M  V30 1097 H 108.528 -3.08973 -5.22131 0
M  V30 1098 H 107.267 -2.14473 -4.3801 0
M  V30 1099 H 106.272 -4.2631 -3.47188 0
M  V30 1100 H 107.497 -5.2182 -4.34605 0
M  V30 1101 H 105.443 -3.37462 -5.62544 0
M  V30 1102 H 105.36 -5.10507 -5.57601 0
M  V30 1103 H 106.628 -4.33253 -6.48006 0
M  V30 1104 N 110.857 0.726932 -1.39834 0
M  V30 1105 C 111.804 1.841 -1.39197 0
M  V30 1106 C 112.774 1.642 -0.250502 0
M  V30 1107 O 113.959 1.85494 -0.446846 0
M  V30 1108 C 111.099 3.21697 -1.24919 0
M  V30 1109 C 110.212 3.53247 -2.48678 0
M  V30 1110 C 109.347 4.80289 -2.26928 0
M  V30 1111 C 108.386 5.04707 -3.4632 0
M  V30 1112 N 107.523 6.22956 -3.23836 0
M  V30 1113 H 112.363 1.83979 -2.34427 0
M  V30 1114 H 109.9 0.898876 -1.16442 0
M  V30 1115 H 111.858 4.01137 -1.1465 0
M  V30 1116 H 110.488 3.21076 -0.333153 0
M  V30 1117 H 109.54 2.68447 -2.69519 0
M  V30 1118 H 110.852 3.67205 -3.37582 0
M  V30 1119 H 110.006 5.67725 -2.13947 0
M  V30 1120 H 108.745 4.68519 -1.35431 0
M  V30 1121 H 107.75 4.1573 -3.5979 0
M  V30 1122 H 108.975 5.18357 -4.38729 0
M  V30 1123 H 106.921 6.12459 -2.35011 0
M  V30 1124 H 106.838 6.37539 -4.063 0
M  V30 1125 H 108.106 7.1321 -3.14566 0
M  V30 1126 N 112.336 1.25143 0.95797 0
M  V30 1127 C 113.585 1.0909 1.69654 0
M  V30 1128 C 113.898 -0.368548 1.92097 0
M  V30 1129 O 115.104 -0.649455 2.63618 0
M  V30 1130 C 113.56 1.90395 3.05414 0
M  V30 1131 C 113.168 3.4081 2.90779 0
M  V30 1132 C 114.912 1.82901 3.83076 0
M  V30 1133 C 112.819 4.14423 4.21909 0
M  V30 1134 H 111.749 0.404625 0.636235 0
M  V30 1135 H 114.4 1.4931 1.06672 0
M  V30 1136 H 112.782 1.42996 3.69281 0
M  V30 1137 H 113.956 3.95859 2.35865 0
M  V30 1138 H 112.271 3.49361 2.26575 0
M  V30 1139 H 114.868 2.35196 4.80195 0
M  V30 1140 H 115.211 0.796224 4.08615 0
M  V30 1141 H 115.744 2.28033 3.25954 0
M  V30 1142 H 112.483 5.18102 4.01561 0
M  V30 1143 H 112.003 3.64159 4.76601 0
M  V30 1144 H 113.682 4.21956 4.90471 0
M  V30 1145 N 113.814 -1.1601 1.06675 0
M  V30 1146 C 115.061 -1.86633 0.785781 0
M  V30 1147 C 115.389 -1.81929 -0.687896 0
M  V30 1148 O 114.644 -1.23253 -1.52011 0
M  V30 1149 C 114.943 -3.35547 1.23057 0
M  V30 1150 C 114.609 -3.60448 2.70902 0
M  V30 1151 C 113.271 -3.66954 3.11285 0
M  V30 1152 C 115.623 -3.7071 3.66365 0
M  V30 1153 C 112.951 -3.81225 4.45965 0
M  V30 1154 C 115.303 -3.86503 5.00797 0
M  V30 1155 C 113.967 -3.91252 5.40813 0
M  V30 1156 H 113.237 -0.682937 0.287538 0
M  V30 1157 H 115.884 -1.37146 1.33654 0
M  V30 1158 H 114.189 -3.87193 0.59907 0
M  V30 1159 H 115.886 -3.88583 0.990163 0
M  V30 1160 H 112.476 -3.56021 2.38636 0
M  V30 1161 H 116.66 -3.64991 3.36296 0
M  V30 1162 H 111.916 -3.83155 4.76447 0
M  V30 1163 H 116.09 -3.93385 5.74649 0
M  V30 1164 H 113.717 -4.02062 6.45174 0
M  V30 1165 N 115.292 -0.849877 -1.32721 0
M  V30 1166 C 116.242 -0.262892 -2.26479 0
M  V30 1167 C 117.226 0.588493 -1.49752 0
M  V30 1168 O 118.418 0.438659 -1.71478 0
M  V30 1169 C 115.547 0.551818 -3.38836 0
M  V30 1170 C 114.633 -0.311689 -4.22953 0
M  V30 1171 N 115.024 -1.39567 -4.86163 0
M  V30 1172 C 113.322 -0.100611 -4.45887 0
M  V30 1173 C 114.023 -1.92651 -5.48872 0
M  V30 1174 N 112.999 -1.22637 -5.29586 0
M  V30 1175 H 116.801 -1.09166 -2.72873 0
M  V30 1176 H 114.315 -0.695486 -1.46754 0
M  V30 1177 H 116.312 0.988713 -4.05006 0
M  V30 1178 H 114.972 1.37844 -2.93988 0
M  V30 1179 H 115.983 -1.77859 -4.86402 0
M  V30 1180 H 112.66 0.691681 -4.11731 0
M  V30 1181 H 114.05 -2.83487 -6.09167 0
M  V30 1182 N 116.77 1.45427 -0.607355 0
M  V30 1183 C 118.019 2.01452 -0.100036 0
M  V30 1184 C 118.332 1.48159 1.27704 0
M  V30 1185 O 119.538 1.96159 1.87707 0
M  V30 1186 C 117.994 3.59672 -0.128158 0
M  V30 1187 C 117.602 4.21962 -1.50507 0
M  V30 1188 C 119.346 4.23262 0.323932 0
M  V30 1189 C 117.253 5.72333 -1.48959 0
M  V30 1190 H 116.183 0.75325 -0.0336299 0
M  V30 1191 H 118.834 1.66901 -0.76265 0
M  V30 1192 H 117.216 3.91411 0.601105 0
M  V30 1193 H 118.39 4.01796 -2.25602 0
M  V30 1194 H 116.705 3.70565 -1.89923 0
M  V30 1195 H 119.302 5.33522 0.354691 0
M  V30 1196 H 119.645 3.93921 1.34656 0
M  V30 1197 H 120.178 3.96239 -0.352056 0
M  V30 1198 H 116.917 6.06373 -2.48981 0
M  V30 1199 H 116.437 5.94691 -0.781214 0
M  V30 1200 H 118.116 6.35525 -1.21313 0
M  V30 1201 N 118.248 0.346503 1.53744 0
M  V30 1202 C 119.497 -0.250122 2.00143 0
M  V30 1203 C 119.81 -1.51418 1.23822 0
M  V30 1204 O 121.016 -2.18823 1.60713 0
M  V30 1205 C 119.472 -0.496252 3.56462 0
M  V30 1206 C 119.08 0.752077 4.41642 0
M  V30 1207 C 120.824 -1.05157 4.11269 0
M  V30 1208 C 118.731 0.476583 5.89477 0
M  V30 1209 H 117.661 -0.0972409 0.747703 0
M  V30 1210 H 120.312 0.46229 1.77581 0
M  V30 1211 H 118.694 -1.26944 3.75102 0
M  V30 1212 H 119.868 1.5266 4.34778 0
M  V30 1213 H 118.183 1.22925 3.97842 0
M  V30 1214 H 120.78 -1.27269 5.19333 0
M  V30 1215 H 121.123 -2.00799 3.64672 0
M  V30 1216 H 121.656 -0.339019 3.96353 0
M  V30 1217 H 118.395 1.4028 6.40314 0
M  V30 1218 H 117.915 -0.259794 5.99237 0
M  V30 1219 H 119.594 0.0949315 6.4693 0
M  V30 1220 N 119.726 -1.57421 0.075193 0
M  V30 1221 C 121.003 -1.85029 -0.634329 0
M  V30 1222 C 121.383 -0.968305 -1.87582 0
M  V30 1223 O 120.731 -0.0354749 -2.28472 0
M  V30 1224 C 120.941 -3.35286 -0.968742 0
M  V30 1225 C 122.289 -4.02875 -1.34077 0
M  V30 1226 O 123.313 -3.40051 -1.06037 0
M  V30 1227 O 122.172 -5.13691 -1.86506 0
M  V30 1228 H 119.266 -0.7645 -0.315387 0
M  V30 1229 H 121.812 -1.69366 0.106382 0
M  V30 1230 H 120.584 -3.91203 -0.0871376 0
M  V30 1231 H 120.207 -3.56223 -1.7661 0
M  V30 1232 N 121.204 0.198386 -1.56346 0
M  V30 1233 C 122.134 1.24865 -1.9731 0
M  V30 1234 C 123.115 1.47651 -0.844576 0
M  V30 1235 O 124.3 1.59444 -1.10866 0
M  V30 1236 C 121.43 2.59358 -2.30977 0
M  V30 1237 C 120.384 2.5119 -3.46537 0
M  V30 1238 C 119.71 3.89926 -3.65871 0
M  V30 1239 C 121.01 2.03977 -4.80823 0
M  V30 1240 H 122.704 0.908252 -2.85291 0
M  V30 1241 H 120.25 0.435462 -1.37258 0
M  V30 1242 H 122.203 3.33011 -2.58228 0
M  V30 1243 H 120.927 2.95132 -1.39874 0
M  V30 1244 H 119.586 1.79993 -3.19371 0
M  V30 1245 H 119.234 4.23046 -2.72105 0
M  V30 1246 H 118.934 3.85336 -4.4361 0
M  V30 1247 H 120.458 4.65205 -3.95495 0
M  V30 1248 H 121.872 2.67386 -5.07127 0
M  V30 1249 H 120.269 2.10397 -5.62008 0
M  V30 1250 H 121.339 0.992861 -4.74626 0
M  V30 1251 N 122.682 1.50554 0.465978 0
M  V30 1252 C 123.592 1.72585 1.58907 0
M  V30 1253 C 124.608 0.60911 1.6299 0
M  V30 1254 O 125.784 0.88804 1.80765 0
M  V30 1255 C 122.849 1.81995 2.95091 0
M  V30 1256 C 121.91 3.05751 3.01355 0
M  V30 1257 C 121.143 3.14702 4.31043 0
M  V30 1258 O 121.366 2.30313 5.21835 0
M  V30 1259 O 120.3 4.07468 4.43005 0
M  V30 1260 H 124.126 2.67799 1.43239 0
M  V30 1261 H 121.711 1.34711 0.646013 0
M  V30 1262 H 123.593 1.90335 3.75966 0
M  V30 1263 H 122.268 0.899659 3.10947 0
M  V30 1264 H 121.175 3.02908 2.19539 0
M  V30 1265 H 122.508 3.97375 2.90437 0
M  V30 1266 N 124.16 -0.719506 1.40217 0
M  V30 1267 C 125.108 -1.85493 1.40339 0
M  V30 1268 C 126.102 -1.66995 0.284415 0
M  V30 1269 O 127.308 -1.74148 0.455252 0
M  V30 1270 H 123.683 -0.610857 0.438586 0
M  V30 1271 H 125.654 -1.82506 2.36081 0
M  V30 1272 C 124.403 -3.23321 1.27901 0
M  V30 1273 H 123.726 -3.38159 2.1328 0
M  V30 1274 H 125.166 -4.02914 1.32045 0
M  V30 1275 C 123.625 -3.36898 -0.0111355 0
M  V30 1276 O 124.155 -3.89674 -0.975538 0
M  V30 1277 N 122.361 -2.90492 -0.0793393 0
M  V30 1278 H 121.908 -2.47731 0.706183 0
M  V30 1279 H 121.866 -2.99955 -0.942038 0
M  V30 1280 N 125.638 -1.25649 -0.95132 0
M  V30 1281 C 126.585 -1.06323 -2.04851 0
M  V30 1282 C 127.555 0.0286491 -1.66075 0
M  V30 1283 O 128.74 -0.12917 -1.90362 0
M  V30 1284 C 125.88 -0.691529 -3.381 0
M  V30 1285 C 124.993 -1.85861 -3.89974 0
M  V30 1286 C 124.128 -1.43096 -5.11563 0
M  V30 1287 C 123.167 -2.56696 -5.55674 0
M  V30 1288 N 122.304 -2.14684 -6.68472 0
M  V30 1289 H 127.144 -2.00222 -2.20715 0
M  V30 1290 H 124.681 -0.997027 -1.08156 0
M  V30 1291 H 126.639 -0.456963 -4.1469 0
M  V30 1292 H 125.269 0.210474 -3.22113 0
M  V30 1293 H 124.321 -2.20639 -3.09875 0
M  V30 1294 H 125.633 -2.71161 -4.18657 0
M  V30 1295 H 124.787 -1.15624 -5.9558 0
M  V30 1296 H 123.526 -0.548722 -4.84603 0
M  V30 1297 H 122.531 -2.84909 -4.7022 0
M  V30 1298 H 123.756 -3.45503 -5.8464 0
M  V30 1299 H 121.702 -1.28881 -6.43215 0
M  V30 1300 H 121.619 -2.9353 -6.96689 0
M  V30 1301 H 122.887 -1.90397 -7.5589 0
M  V30 1302 N 127.117 1.15442 -1.07289 0
M  V30 1303 C 128.364 1.86213 -0.795668 0
M  V30 1304 C 128.692 1.82291 0.678238 0
M  V30 1305 O 127.947 1.24057 1.51355 0
M  V30 1306 C 128.246 3.3489 -1.24834 0
M  V30 1307 C 127.912 3.59007 -2.72809 0
M  V30 1308 C 126.574 3.65298 -3.13227 0
M  V30 1309 C 128.926 3.68762 -3.68326 0
M  V30 1310 C 126.254 3.78854 -4.4798 0
M  V30 1311 C 128.606 3.83842 -5.0284 0
M  V30 1312 C 127.27 3.88378 -5.4288 0
M  V30 1313 H 126.54 0.681403 -0.291155 0
M  V30 1314 H 129.187 1.36435 -1.34379 0
M  V30 1315 H 127.492 3.8687 -0.619595 0
M  V30 1316 H 129.189 3.88052 -1.01076 0
M  V30 1317 H 125.779 3.5475 -2.40521 0
M  V30 1318 H 129.963 3.63202 -3.38227 0
M  V30 1319 H 125.219 3.80623 -4.78472 0
M  V30 1320 H 129.393 3.90332 -5.76727 0
M  V30 1321 H 127.02 3.98635 -6.47298 0
M  V30 1322 N 128.595 0.856903 1.32268 0
M  V30 1323 C 129.872 0.382583 1.91822 0
M  V30 1324 C 130.252 -1.13407 1.78051 0
M  V30 1325 O 129.6 -1.95673 1.18001 0
M  V30 1326 C 129.81 0.849446 3.38505 0
M  V30 1327 C 131.158 0.867936 4.15634 0
M  V30 1328 O 132.182 0.794232 3.47232 0
M  V30 1329 O 131.041 0.972286 5.37781 0
M  V30 1330 H 128.135 0.112014 0.819379 0
M  V30 1331 H 130.681 0.943952 1.41024 0
M  V30 1332 H 129.453 1.89267 3.42482 0
M  V30 1333 H 129.076 0.265652 3.96712 0
M  V30 1334 N 130.073 -1.45103 0.615059 0
M  V30 1335 C 131.036 -2.29025 -0.0895485 0
M  V30 1336 C 132.036 -1.40174 -0.787906 0
M  V30 1337 O 133.226 -1.62217 -0.634933 0
M  V30 1338 C 130.358 -3.21376 -1.13711 0
M  V30 1339 H 131.551 -2.92807 0.648382 0
M  V30 1340 H 129.104 -1.51749 0.374444 0
M  V30 1341 H 129.839 -2.6241 -1.90556 0
M  V30 1342 H 129.624 -3.86834 -0.640475 0
M  V30 1343 H 131.114 -3.84459 -1.63036 0
M  V30 1344 N 131.551 -0.354651 -1.53558 0
M  V30 1345 C 132.779 0.239515 -2.05509 0
M  V30 1346 C 133.194 1.4333 -1.2289 0
M  V30 1347 O 132.551 1.80538 -0.266899 0
M  V30 1348 C 132.602 0.643719 -3.55723 0
M  V30 1349 O 132.323 -0.502602 -4.35207 0
M  V30 1350 C 133.824 1.29743 -4.23889 0
M  V30 1351 H 131.044 0.0442697 -0.669538 0
M  V30 1352 H 133.588 -0.509856 -1.98042 0
M  V30 1353 H 131.743 1.34302 -3.63376 0
M  V30 1354 H 132.157 -0.178172 -5.24197 0
M  V30 1355 H 133.631 1.53091 -5.30346 0
M  V30 1356 H 134.108 2.25441 -3.76926 0
M  V30 1357 H 134.714 0.639865 -4.20459 0
M  V30 1358 N 133.029 1.57378 -0.0835403 0
M  V30 1359 C 134.275 1.94217 0.583733 0
M  V30 1360 C 134.608 0.964653 1.68547 0
M  V30 1361 O 133.883 -0.00422258 1.945 0
M  V30 1362 C 134.166 3.41253 1.14972 0
M  V30 1363 C 134.019 4.49768 0.0538277 0
M  V30 1364 C 135.338 3.89352 2.05166 0
M  V30 1365 H 132.457 0.706233 0.210724 0
M  V30 1366 H 135.099 1.89392 -0.1519 0
M  V30 1367 H 133.249 3.45496 1.77665 0
M  V30 1368 H 134.921 4.57641 -0.579851 0
M  V30 1369 H 133.164 4.29432 -0.614068 0
M  V30 1370 H 133.835 5.49817 0.490452 0
M  V30 1371 H 136.311 3.87189 1.52393 0
M  V30 1372 H 135.187 4.92822 2.41698 0
M  V30 1373 H 135.448 3.27973 2.96456 0
M  V30 1374 N 134.507 -0.190092 1.56449 0
M  V30 1375 C 135.455 -1.25501 1.95837 0
M  V30 1376 C 136.449 -1.4685 0.844485 0
M  V30 1377 O 137.655 -1.47651 1.02952 0
M  V30 1378 H 134.03 -0.421447 0.622805 0
M  V30 1379 H 136.001 -0.895821 2.84636 0
M  V30 1380 C 134.75 -2.59124 2.31841 0
M  V30 1381 H 134.073 -2.43514 3.17082 0
M  V30 1382 H 135.513 -3.32371 2.6326 0
M  V30 1383 C 133.972 -3.16488 1.15486 0
M  V30 1384 O 134.502 -3.99365 0.432535 0
M  V30 1385 N 132.708 -2.75305 0.930349 0
M  V30 1386 H 132.255 -2.08013 1.51948 0
M  V30 1387 H 132.213 -3.14024 0.153634 0
M  V30 1388 N 135.985 -1.50799 -0.457987 0
M  V30 1389 C 136.948 -1.7005 -1.53674 0
M  V30 1390 C 137.948 -0.570881 -1.50325 0
M  V30 1391 O 139.138 -0.838126 -1.52712 0
M  V30 1392 C 136.27 -1.73788 -2.93276 0
M  V30 1393 H 137.463 -2.66306 -1.37917 0
M  V30 1394 H 135.016 -1.40477 -0.685271 0
M  V30 1395 H 135.751 -0.792717 -3.14462 0
M  V30 1396 H 135.536 -2.55864 -2.97113 0
M  V30 1397 H 137.026 -1.90591 -3.71571 0
M  V30 1398 N 137.463 0.71206 -1.40597 0
M  V30 1399 C 138.879 1.02058 -1.22704 0
M  V30 1400 C 139.079 2.01228 -0.104729 0
M  V30 1401 O 138.135 2.4674 0.53624 0
M  V30 1402 C 139.448 1.56094 -2.57012 0
M  V30 1403 C 140.996 1.6806 -2.64054 0
M  V30 1404 C 141.471 2.25501 -3.9864 0
M  V30 1405 N 142.962 2.32882 -4.004 0
M  V30 1406 C 143.697 2.78317 -5.01325 0
M  V30 1407 N 143.193 3.23478 -6.12645 0
M  V30 1408 N 144.986 2.77733 -4.88693 0
M  V30 1409 H 137.137 0.0547896 -2.12329 0
M  V30 1410 H 139.4 0.0869027 -0.944008 0
M  V30 1411 H 139.106 0.906865 -3.39807 0
M  V30 1412 H 138.98 2.54564 -2.78347 0
M  V30 1413 H 141.367 2.32583 -1.81629 0
M  V30 1414 H 141.448 0.681802 -2.46546 0
M  V30 1415 H 141.092 1.61598 -4.81506 0
M  V30 1416 H 141.022 3.26102 -4.13479 0
M  V30 1417 H 143.513 2.00991 -3.20017 0
M  V30 1418 H 143.826 3.56725 -6.85542 0
M  V30 1419 H 142.171 3.21429 -6.16205 0
M  V30 1420 H 145.362 2.4179 -4.00818 0
M  V30 1421 H 145.535 3.12826 -5.67489 0
M  V30 1422 N 138.941 1.26152 0.944643 0
M  V30 1423 C 139.851 1.09176 2.07648 0
M  V30 1424 C 140.867 0.0261935 1.7398 0
M  V30 1425 O 142.043 0.229208 2.00091 0
M  V30 1426 C 139.108 0.722915 3.39079 0
M  V30 1427 C 138.169 1.86752 3.86552 0
M  V30 1428 C 137.402 1.51617 5.11711 0
M  V30 1429 O 137.625 0.416331 5.68879 0
M  V30 1430 O 136.559 2.34975 5.54139 0
M  V30 1431 H 140.385 2.0412 2.24875 0
M  V30 1432 H 137.97 1.05182 1.061 0
M  V30 1433 H 139.852 0.529787 4.18056 0
M  V30 1434 H 138.527 -0.197159 3.23099 0
M  V30 1435 H 137.434 2.11558 3.08535 0
M  V30 1436 H 138.767 2.76719 4.07047 0
M  V30 1437 N 140.419 -1.14872 1.07899 0
M  V30 1438 C 141.668 -1.85135 0.800499 0
M  V30 1439 C 141.981 -1.83547 -0.676014 0
M  V30 1440 O 143.187 -2.49548 -1.06948 0
M  V30 1441 C 141.643 -3.3231 1.38197 0
M  V30 1442 C 141.251 -3.42329 2.8899 0
M  V30 1443 C 142.995 -4.0772 1.18174 0
M  V30 1444 C 140.902 -4.83684 3.403 0
M  V30 1445 H 139.832 -0.693563 0.29578 0
M  V30 1446 H 142.483 -1.29532 1.29976 0
M  V30 1447 H 140.865 -3.87618 0.810431 0
M  V30 1448 H 142.039 -2.97097 3.52236 0
M  V30 1449 H 140.354 -2.80369 3.07867 0
M  V30 1450 H 142.951 -5.12049 1.5398 0
M  V30 1451 H 143.294 -4.16124 0.12117 0
M  V30 1452 H 143.827 -3.58696 1.71994 0
M  V30 1453 H 140.566 -4.80465 4.45907 0
M  V30 1454 H 140.086 -5.29474 2.81811 0
M  V30 1455 H 141.765 -5.52558 3.36584 0
M  V30 1456 N 141.898 -0.863906 -1.31812 0
M  V30 1457 C 142.808 -0.318461 -2.32428 0
M  V30 1458 C 143.824 0.568496 -1.64451 0
M  V30 1459 O 145 0.46666 -1.95919 0
M  V30 1460 C 142.065 0.476355 -3.43412 0
M  V30 1461 C 141.126 -0.43784 -4.27061 0
M  V30 1462 C 140.359 0.319138 -5.32745 0
M  V30 1463 O 140.582 1.54799 -5.48993 0
M  V30 1464 O 139.516 -0.319861 -6.01049 0
M  V30 1465 H 143.342 -1.15229 -2.80991 0
M  V30 1466 H 140.927 -0.627103 -1.35602 0
M  V30 1467 H 142.809 0.927156 -4.11074 0
M  V30 1468 H 141.484 1.28683 -2.97022 0
M  V30 1469 H 140.391 -0.937013 -3.62175 0
M  V30 1470 H 141.724 -1.21375 -4.77 0
M  V30 1471 N 143.376 1.44774 -0.622745 0
M  V30 1472 C 144.604 2.06487 -0.130722 0
M  V30 1473 C 145.019 1.46476 1.19123 0
M  V30 1474 O 144.376 0.584502 1.72887 0
M  V30 1475 C 144.427 3.615 -0.000807207 0
M  V30 1476 O 144.148 4.19274 -1.27048 0
M  V30 1477 C 145.649 4.40229 0.520898 0
M  V30 1478 H 142.869 0.666704 -0.0758106 0
M  V30 1479 H 145.413 1.85779 -0.854774 0
M  V30 1480 H 143.568 3.81498 0.673643 0
M  V30 1481 H 143.982 5.12622 -1.1099 0
M  V30 1482 H 145.456 5.49144 0.560838 0
M  V30 1483 H 145.933 4.1108 1.54627 0
M  V30 1484 H 146.539 4.25131 -0.120018 0
M  V30 1485 N 144.854 0.36279 1.53368 0
M  V30 1486 C 145.817 -0.472679 2.24273 0
M  V30 1487 C 146.817 -1.012 1.24961 0
M  V30 1488 O 148.007 -0.898194 1.49259 0
M  V30 1489 C 145.139 -1.66039 2.97731 0
M  V30 1490 H 146.332 0.14773 2.99536 0
M  V30 1491 H 143.885 0.114434 1.55881 0
M  V30 1492 H 144.62 -2.31896 2.26704 0
M  V30 1493 H 144.405 -1.28066 3.70596 0
M  V30 1494 H 145.895 -2.25252 3.51641 0
M  V30 1495 N 146.332 -1.57332 0.0918853 0
M  V30 1496 C 147.578 -1.94524 -0.573425 0
M  V30 1497 C 147.911 -0.973578 -1.68033 0
M  V30 1498 O 147.186 -0.00609226 -1.94499 0
M  V30 1499 C 147.469 -3.41858 -1.13161 0
M  V30 1500 C 147.322 -4.4979 -0.0299747 0
M  V30 1501 C 148.641 -3.90435 -2.03098 0
M  V30 1502 H 145.76 -0.70734 -0.206975 0
M  V30 1503 H 148.402 -1.89309 0.161942 0
M  V30 1504 H 146.552 -3.46433 -1.7583 0
M  V30 1505 H 148.224 -4.57327 0.604112 0
M  V30 1506 H 146.467 -4.291 0.636833 0
M  V30 1507 H 147.138 -5.50069 -0.461287 0
M  V30 1508 H 149.614 -3.87992 -1.50338 0
M  V30 1509 H 148.49 -4.94097 -2.39081 0
M  V30 1510 H 148.751 -3.29541 -2.94712 0
M  V30 1511 N 147.81 0.181792 -1.56548 0
M  V30 1512 C 148.758 1.24461 -1.965 0
M  V30 1513 C 149.752 1.464 -0.852261 0
M  V30 1514 O 150.958 1.47103 -1.03733 0
M  V30 1515 H 147.333 0.418138 -0.625031 0
M  V30 1516 H 149.304 0.880714 -2.85107 0
M  V30 1517 C 148.053 2.57891 -2.33212 0
M  V30 1518 H 147.376 2.41829 -3.18369 0
M  V30 1519 H 148.816 3.3097 -2.65019 0
M  V30 1520 C 147.275 3.15871 -1.17163 0
M  V30 1521 O 147.805 3.9913 -0.453708 0
M  V30 1522 N 146.011 2.74808 -0.944936 0
M  V30 1523 H 145.558 2.07205 -1.53049 0
M  V30 1524 H 145.516 3.13939 -0.170286 0
M  V30 1525 N 149.288 1.51039 0.449983 0
M  V30 1526 C 150.236 1.71995 1.5659 0
M  V30 1527 C 151.23 0.586029 1.5894 0
M  V30 1528 O 152.436 0.76709 1.62837 0
M  V30 1529 H 148.811 0.543233 0.520001 0
M  V30 1530 H 150.782 2.65562 1.36085 0
M  V30 1531 C 149.531 1.8506 2.9436 0
M  V30 1532 H 148.854 2.71712 2.93279 0
M  V30 1533 H 150.294 2.0374 3.71842 0
M  V30 1534 C 148.753 0.607277 3.31382 0
M  V30 1535 O 149.283 -0.243903 4.00959 0
M  V30 1536 N 147.489 0.455073 2.87015 0
M  V30 1537 H 147.036 1.14879 2.30566 0
M  V30 1538 H 146.994 -0.375611 3.12148 0
M  V30 1539 N 150.766 -0.704594 1.40972 0
M  V30 1540 C 151.996 -1.49138 1.42974 0
M  V30 1541 C 152.404 -1.89175 0.0308406 0
M  V30 1542 O 151.747 -1.56734 -0.958138 0
M  V30 1543 C 151.809 -2.79016 2.26694 0
M  V30 1544 C 151.473 -2.61236 3.74973 0
M  V30 1545 C 152.47 -2.27773 4.67349 0
M  V30 1546 C 150.155 -2.77158 4.18914 0
M  V30 1547 C 152.149 -2.10457 6.01653 0
M  V30 1548 C 149.836 -2.59459 5.53285 0
M  V30 1549 C 150.834 -2.26158 6.4447 0
M  V30 1550 O 150.522 -2.08605 7.76363 0
M  V30 1551 H 150.254 -0.466443 0.489292 0
M  V30 1552 H 152.808 -0.8758 1.85793 0
M  V30 1553 H 151.038 -3.42947 1.78673 0
M  V30 1554 H 152.727 -3.40782 2.20504 0
M  V30 1555 H 153.493 -2.15095 4.34694 0
M  V30 1556 H 149.372 -3.02064 3.48251 0
M  V30 1557 H 152.916 -1.84387 6.72791 0
M  V30 1558 H 148.813 -2.71725 5.85522 0
M  V30 1559 H 149.581 -2.23439 7.87412 0
M  V30 1560 N 152.244 -1.26651 -0.937939 0
M  V30 1561 C 153.154 -1.10276 -2.07066 0
M  V30 1562 C 154.17 -0.0354197 -1.73964 0
M  V30 1563 O 155.346 -0.239816 -1.99967 0
M  V30 1564 C 152.411 -0.740887 -3.38691 0
M  V30 1565 C 151.472 -1.88799 -3.85556 0
M  V30 1566 C 150.705 -1.54329 -5.10899 0
M  V30 1567 O 150.928 -0.446494 -5.6865 0
M  V30 1568 O 149.862 -2.37911 -5.52885 0
M  V30 1569 H 153.688 -2.05309 -2.23789 0
M  V30 1570 H 151.273 -1.05743 -1.0554 0
M  V30 1571 H 153.155 -0.55195 -4.1777 0
M  V30 1572 H 151.83 0.180022 -3.23199 0
M  V30 1573 H 150.737 -2.13191 -3.07409 0
M  V30 1574 H 152.07 -2.78874 -4.05574 0
M  V30 1575 N 153.722 1.14298 -1.08507 0
M  V30 1576 C 154.999 1.81544 -0.728088 0
M  V30 1577 C 155.379 1.95838 0.78808 0
M  V30 1578 O 154.727 1.51904 1.70697 0
M  V30 1579 C 154.937 3.17169 -1.45619 0
M  V30 1580 C 156.285 3.9265 -1.61591 0
M  V30 1581 O 157.309 3.26762 -1.41793 0
M  V30 1582 O 156.168 5.10807 -1.94263 0
M  V30 1583 H 153.262 0.78491 -0.260471 0
M  V30 1584 H 155.808 1.21307 -1.18671 0
M  V30 1585 H 154.58 3.01934 -2.489 0
M  V30 1586 H 154.203 3.851 -0.989124 0
M  V30 1587 N 155.201 0.870884 1.31352 0
M  V30 1588 C 156.426 0.495957 2.01383 0
M  V30 1589 C 156.851 -0.904324 1.64935 0
M  V30 1590 O 156.209 -1.59687 0.858466 0
M  V30 1591 C 156.257 0.661433 3.54482 0
M  V30 1592 O 155.361 -0.298851 4.11316 0
M  V30 1593 H 154.702 0.197158 0.634054 0
M  V30 1594 H 157.232 1.17455 1.67527 0
M  V30 1595 H 157.242 0.555072 4.04207 0
M  V30 1596 H 155.917 1.68246 3.8035 0
M  V30 1597 H 154.494 -0.147368 3.72609 0
M  V30 1598 N 156.679 -1.44442 0.630414 0
M  V30 1599 C 157.928 -2.01267 0.132073 0
M  V30 1600 C 158.241 -1.50172 -1.25331 0
M  V30 1601 O 159.447 -1.9912 -1.84562 0
M  V30 1602 C 157.903 -3.59422 0.185362 0
M  V30 1603 C 157.511 -4.19514 1.57201 0
M  V30 1604 C 159.255 -4.23724 -0.256553 0
M  V30 1605 C 157.162 -5.69891 1.58045 0
M  V30 1606 H 156.092 -0.752619 0.0456092 0
M  V30 1607 H 158.743 -1.65666 0.789106 0
M  V30 1608 H 157.125 -3.92318 -0.538759 0
M  V30 1609 H 158.299 -3.98156 2.31966 0
M  V30 1610 H 156.614 -3.67496 1.95795 0
M  V30 1611 H 159.211 -5.34019 -0.269767 0
M  V30 1612 H 159.554 -3.96013 -1.28372 0
M  V30 1613 H 160.087 -3.95629 0.41505 0
M  V30 1614 H 156.826 -6.02336 2.58597 0
M  V30 1615 H 156.346 -5.93373 0.875725 0
M  V30 1616 H 158.025 -6.33515 1.31408 0
M  V30 1617 N 158.157 -0.370918 -1.53173 0
M  V30 1618 C 159.087 0.464847 -2.28826 0
M  V30 1619 C 160.068 1.07936 -1.31468 0
M  V30 1620 O 161.253 1.0956 -1.60344 0
M  V30 1621 C 158.383 1.60196 -3.08147 0
M  V30 1622 C 157.337 1.11443 -4.13237 0
M  V30 1623 C 156.663 2.3422 -4.80672 0
M  V30 1624 C 157.963 0.195384 -5.21934 0
M  V30 1625 H 159.657 -0.166329 -2.98938 0
M  V30 1626 H 157.203 -0.0814359 -1.4377 0
M  V30 1627 H 159.156 2.19332 -3.59822 0
M  V30 1628 H 157.88 2.26045 -2.35735 0
M  V30 1629 H 156.539 0.545727 -3.62515 0
M  V30 1630 H 156.187 2.98537 -4.04827 0
M  V30 1631 H 155.887 2.02269 -5.51689 0
M  V30 1632 H 157.411 2.94032 -5.35143 0
M  V30 1633 H 158.825 0.694375 -5.69079 0
M  V30 1634 H 157.222 -0.0335027 -6.00091 0
M  V30 1635 H 158.292 -0.760961 -4.78892 0
M  V30 1636 N 159.635 1.57281 -0.100228 0
M  V30 1637 C 161.046 1.81725 0.428107 0
M  V30 1638 C 161.397 1.01619 1.67833 0
M  V30 1639 O 160.522 0.247098 2.14985 0
M  V30 1640 C 161.117 3.29617 0.78347 0
M  V30 1641 C 159.676 3.54808 1.25653 0
M  V30 1642 C 158.823 2.76118 0.255752 0
M  V30 1643 H 161.774 1.55324 -0.325608 0
M  V30 1644 H 161.795 3.4322 1.64256 0
M  V30 1645 H 161.307 3.87893 -0.12665 0
M  V30 1646 H 159.408 3.01868 2.18418 0
M  V30 1647 H 159.521 4.63443 1.21482 0
M  V30 1648 H 157.885 2.43745 0.738956 0
M  V30 1649 H 158.668 3.37145 -0.647136 0
M  V30 1650 N 161.113 -0.173488 1.56642 0
M  V30 1651 C 162.524 -0.736155 1.71574 0
M  V30 1652 C 162.875 -1.82888 0.710389 0
M  V30 1653 O 162 -2.16017 -0.1287 0
M  V30 1654 C 162.595 -1.34211 3.11083 0
M  V30 1655 C 161.154 -1.85162 3.27707 0
M  V30 1656 C 160.301 -0.729765 2.67525 0
M  V30 1657 H 163.252 0.0518786 1.58615 0
M  V30 1658 H 163.273 -2.21178 3.09613 0
M  V30 1659 H 162.785 -0.546579 3.84232 0
M  V30 1660 H 160.886 -2.67366 2.59512 0
M  V30 1661 H 160.999 -1.99855 4.35425 0
M  V30 1662 H 159.363 -1.14965 2.27278 0
M  V30 1663 H 160.146 0.0538806 3.43258 0
M  V30 1664 N 162.591 -1.51276 -0.441967 0
M  V30 1665 C 163.838 -1.63715 -1.19179 0
M  V30 1666 C 164.166 -0.351175 -1.91303 0
M  V30 1667 O 163.421 0.664524 -1.84072 0
M  V30 1668 C 163.72 -2.78746 -2.23686 0
M  V30 1669 C 163.386 -4.18189 -1.68607 0
M  V30 1670 C 162.048 -4.56125 -1.53308 0
M  V30 1671 C 164.4 -5.05222 -1.28062 0
M  V30 1672 C 161.728 -5.78804 -0.959317 0
M  V30 1673 C 164.08 -6.28476 -0.721162 0
M  V30 1674 C 162.744 -6.65188 -0.55504 0
M  V30 1675 H 162.014 -0.599076 -0.436106 0
M  V30 1676 H 164.661 -1.85296 -0.48351 0
M  V30 1677 H 162.966 -2.51369 -3.00535 0
M  V30 1678 H 164.663 -2.8557 -2.81515 0
M  V30 1679 H 161.253 -3.88277 -1.8149 0
M  V30 1680 H 165.437 -4.76524 -1.38704 0
M  V30 1681 H 160.693 -6.05899 -0.81833 0
M  V30 1682 H 164.867 -6.95259 -0.398458 0
M  V30 1683 H 162.494 -7.60123 -0.108311 0
M  V30 1684 N 164.069 0.697108 -1.41344 0
M  V30 1685 C 165.316 1.45714 -1.40619 0
M  V30 1686 C 165.644 1.94494 -0.0147907 0
M  V30 1687 O 164.899 1.69794 0.973066 0
M  V30 1688 C 165.198 2.68553 -2.35826 0
M  V30 1689 C 164.864 2.38438 -3.82698 0
M  V30 1690 C 163.526 2.29936 -4.22709 0
M  V30 1691 C 165.878 2.13567 -4.75435 0
M  V30 1692 C 163.206 1.94656 -5.53467 0
M  V30 1693 C 165.558 1.79797 -6.06511 0
M  V30 1694 C 164.222 1.69789 -6.45545 0
M  V30 1695 H 163.492 0.533206 -0.51456 0
M  V30 1696 H 166.139 0.796901 -1.74131 0
M  V30 1697 H 164.444 3.39503 -1.95563 0
M  V30 1698 H 166.141 3.2669 -2.32539 0
M  V30 1699 H 162.731 2.4595 -3.51008 0
M  V30 1700 H 166.915 2.19082 -4.45328 0
M  V30 1701 H 162.171 1.8546 -5.82593 0
M  V30 1702 H 166.345 1.59572 -6.77872 0
M  V30 1703 H 163.972 1.4222 -7.46778 0
M  V30 1704 N 165.547 1.27147 0.931209 0
M  V30 1705 C 166.494 1.09568 2.03134 0
M  V30 1706 C 167.464 -0.00222433 1.661 0
M  V30 1707 O 168.649 0.159439 1.90133 0
M  V30 1708 C 165.789 0.745231 3.36957 0
M  V30 1709 C 164.902 1.92041 3.86968 0
M  V30 1710 C 164.037 1.51216 5.09222 0
M  V30 1711 C 163.076 2.65504 5.5152 0
M  V30 1712 N 162.213 2.25291 6.64972 0
M  V30 1713 H 167.053 2.03708 2.17502 0
M  V30 1714 H 164.59 1.01411 1.06556 0
M  V30 1715 H 166.548 0.522878 4.1391 0
M  V30 1716 H 165.178 -0.159202 3.22407 0
M  V30 1717 H 164.23 2.25541 3.06326 0
M  V30 1718 H 165.542 2.77787 4.1429 0
M  V30 1719 H 164.696 1.25084 5.93666 0
M  V30 1720 H 163.435 0.625749 4.83669 0
M  V30 1721 H 162.44 2.92354 4.65628 0
M  V30 1722 H 163.665 3.54761 5.7907 0
M  V30 1723 H 161.611 1.39098 6.41083 0
M  V30 1724 H 161.528 3.04577 6.91931 0
M  V30 1725 H 162.796 2.02398 7.52765 0
M  V30 1726 N 167.025 -1.13721 1.09112 0
M  V30 1727 C 168.25 -1.89314 0.847053 0
M  V30 1728 C 168.675 -1.78416 -0.595774 0
M  V30 1729 O 168.033 -1.12942 -1.41823 0
M  V30 1730 C 168.081 -3.3701 1.28284 0
M  V30 1731 O 167.185 -4.10054 0.439267 0
M  V30 1732 H 166.526 -0.588745 0.307044 0
M  V30 1733 H 169.056 -1.43902 1.45442 0
M  V30 1734 H 169.066 -3.87834 1.26683 0
M  V30 1735 H 167.741 -3.4426 2.33363 0
M  V30 1736 H 166.318 -3.69266 0.519312 0
M  V30 1737 N 168.503 -0.877838 -1.30888 0
M  V30 1738 C 169.433 -0.35534 -2.3078 0
M  V30 1739 C 170.414 0.557994 -1.60687 0
M  V30 1740 O 171.599 0.473355 -1.88343 0
M  V30 1741 C 168.729 0.437221 -3.44537 0
M  V30 1742 C 167.683 -0.383715 -4.26276 0
M  V30 1743 C 167.009 0.535014 -5.32017 0
M  V30 1744 C 168.309 -1.62201 -4.96476 0
M  V30 1745 H 170.003 -1.19007 -2.74732 0
M  V30 1746 H 167.549 -0.573698 -1.32078 0
M  V30 1747 H 169.502 0.813334 -4.13477 0
M  V30 1748 H 168.226 1.30553 -2.99372 0
M  V30 1749 H 166.885 -0.741874 -3.59015 0
M  V30 1750 H 166.533 1.40083 -4.831 0
M  V30 1751 H 166.233 -0.0104211 -5.87599 0
M  V30 1752 H 167.757 0.907799 -6.03814 0
M  V30 1753 H 169.171 -1.31689 -5.5797 0
M  V30 1754 H 167.568 -2.10711 -5.61891 0
M  V30 1755 H 168.638 -2.37044 -4.23011 0
M  V30 1756 N 169.982 1.44106 -0.638065 0
M  V30 1757 C 170.929 2.30715 0.062701 0
M  V30 1758 C 171.899 1.43882 0.829883 0
M  V30 1759 O 173.084 1.72775 0.809532 0
M  V30 1760 C 170.224 3.29258 1.03358 0
M  V30 1761 C 169.337 4.31192 0.26409 0
M  V30 1762 C 168.472 5.16825 1.22741 0
M  V30 1763 C 167.511 6.10462 0.447475 0
M  V30 1764 N 166.648 6.8877 1.36161 0
M  V30 1765 H 171.488 2.90096 -0.681781 0
M  V30 1766 H 169.025 1.42925 -0.347988 0
M  V30 1767 H 170.983 3.84886 1.60992 0
M  V30 1768 H 169.613 2.71562 1.74511 0
M  V30 1769 H 168.665 3.77981 -0.428295 0
M  V30 1770 H 169.977 4.97619 -0.343052 0
M  V30 1771 H 169.131 5.77004 1.87487 0
M  V30 1772 H 167.87 4.50488 1.86847 0
M  V30 1773 H 166.875 5.49386 -0.213433 0
M  V30 1774 H 168.1 6.78837 -0.188968 0
M  V30 1775 H 166.046 6.25096 1.98975 0
M  V30 1776 H 165.963 7.51663 0.808656 0
M  V30 1777 H 167.231 7.53467 1.99769 0
M  V30 1778 N 171.46 0.379036 1.52974 0
M  V30 1779 C 172.37 -0.468639 2.29872 0
M  V30 1780 C 173.386 -1.08067 1.36373 0
M  V30 1781 O 174.562 -1.08871 1.69438 0
M  V30 1782 C 171.627 -1.58594 3.083 0
M  V30 1783 C 170.688 -1.00007 4.17489 0
M  V30 1784 C 169.921 -2.06413 4.92168 0
M  V30 1785 O 170.144 -3.27751 4.66835 0
M  V30 1786 O 169.078 -1.68717 5.7777 0
M  V30 1787 H 172.904 0.157508 3.03291 0
M  V30 1788 H 170.489 0.143035 1.48714 0
M  V30 1789 H 172.371 -2.23525 3.57232 0
M  V30 1790 H 171.046 -2.19724 2.37703 0
M  V30 1791 H 169.953 -0.314299 3.72777 0
M  V30 1792 H 171.286 -0.433135 4.90291 0
M  V30 1793 N 172.938 -1.57226 0.108567 0
M  V30 1794 C 174.168 -1.9889 -0.559142 0
M  V30 1795 C 174.576 -0.986889 -1.61422 0
M  V30 1796 O 173.919 0.0298705 -1.83676 0
M  V30 1797 C 173.981 -3.36952 -1.25315 0
M  V30 1798 C 173.645 -4.55679 -0.347248 0
M  V30 1799 C 174.642 -5.18281 0.409996 0
M  V30 1800 C 172.327 -5.0162 -0.261367 0
M  V30 1801 C 174.321 -6.25203 1.24096 0
M  V30 1802 C 172.008 -6.08405 0.573238 0
M  V30 1803 C 173.006 -6.70063 1.32304 0
M  V30 1804 O 172.694 -7.74788 2.14381 0
M  V30 1805 H 172.426 -0.658343 -0.153492 0
M  V30 1806 H 174.98 -2.04532 0.188584 0
M  V30 1807 H 173.21 -3.28032 -2.04773 0
M  V30 1808 H 174.899 -3.62974 -1.81673 0
M  V30 1809 H 175.665 -4.8371 0.353457 0
M  V30 1810 H 171.544 -4.53381 -0.834656 0
M  V30 1811 H 175.088 -6.73259 1.82669 0
M  V30 1812 H 170.985 -6.42406 0.631208 0
M  V30 1813 H 171.753 -7.91837 2.07209 0
M  V30 1814 N 174.416 0.165178 -1.56732 0
M  V30 1815 C 175.662 0.882112 -1.82611 0
M  V30 1816 C 175.995 1.81628 -0.687378 0
M  V30 1817 O 175.27 1.92009 0.310267 0
M  V30 1818 C 175.553 1.67245 -3.18906 0
M  V30 1819 C 175.406 0.760987 -4.43316 0
M  V30 1820 C 176.725 2.63884 -3.52212 0
M  V30 1821 H 173.844 0.319242 -0.664269 0
M  V30 1822 H 176.486 0.148052 -1.89422 0
M  V30 1823 H 174.636 2.29824 -3.1323 0
M  V30 1824 H 176.308 0.147596 -4.61064 0
M  V30 1825 H 174.551 0.0694102 -4.33744 0
M  V30 1826 H 175.222 1.34962 -5.35247 0
M  V30 1827 H 177.698 2.11429 -3.58381 0
M  V30 1828 H 176.574 3.16245 -4.48643 0
M  V30 1829 H 176.835 3.44377 -2.77231 0
M  V30 1830 N 175.894 1.51508 0.433938 0
M  V30 1831 C 177.119 1.68443 1.21003 0
M  V30 1832 C 177.544 0.382636 1.84167 0
M  V30 1833 O 176.902 -0.65755 1.68956 0
M  V30 1834 C 176.95 2.80405 2.26727 0
M  V30 1835 O 176.054 2.44245 3.32292 0
M  V30 1836 H 175.395 0.561536 0.354363 0
M  V30 1837 H 177.925 1.9809 0.512024 0
M  V30 1838 H 177.935 3.0459 2.71457 0
M  V30 1839 H 176.61 3.74867 1.80132 0
M  V30 1840 H 175.187 2.30644 2.93015 0
M  V30 1841 N 177.372 -0.689602 1.41712 0
M  V30 1842 C 178.788 -1.00093 1.24312 0
M  V30 1843 C 178.988 -2.01036 0.136729 0
M  V30 1844 O 178.044 -2.47562 -0.496918 0
M  V30 1845 C 179.357 -1.51985 2.59463 0
M  V30 1846 C 180.905 -1.63838 2.66695 0
M  V30 1847 C 181.38 -2.1913 4.02177 0
M  V30 1848 N 182.871 -2.26483 4.04054 0
M  V30 1849 C 183.606 -2.70306 5.0569 0
M  V30 1850 N 183.102 -3.13691 6.17713 0
M  V30 1851 N 184.895 -2.69923 4.9305 0
M  V30 1852 H 177.046 -0.0210029 2.1239 0
M  V30 1853 H 179.309 -0.0718733 0.945272 0
M  V30 1854 H 179.015 -0.85269 3.41207 0
M  V30 1855 H 178.889 -2.50103 2.82362 0
M  V30 1856 H 181.276 -2.29664 1.85306 0
M  V30 1857 H 181.357 -0.642492 2.476 0
M  V30 1858 H 181.001 -1.53918 4.84016 0
M  V30 1859 H 180.931 -3.19482 4.18615 0
M  V30 1860 H 183.422 -1.95874 3.23174 0
M  V30 1861 H 183.735 -3.45773 6.9113 0
M  V30 1862 H 182.08 -3.11585 6.21241 0
M  V30 1863 H 185.271 -2.35382 4.04614 0
M  V30 1864 H 185.444 -3.03758 5.72394 0
M  V30 1865 N 178.85 -1.27639 -0.924453 0
M  V30 1866 C 180.098 -1.13941 -1.66918 0
M  V30 1867 C 180.419 0.314589 -1.92446 0
M  V30 1868 O 179.689 1.21964 -1.53303 0
M  V30 1869 H 178.269 -0.418678 -0.618642 0
M  V30 1870 H 180.931 -1.60213 -1.10985 0
M  V30 1871 H 180.027 -1.67094 -2.63602 0
M  V30 1872 N 180.328 1.1314 -1.09713 0
M  V30 1873 C 181.258 2.20748 -0.761102 0
M  V30 1874 C 182.239 1.68061 0.262566 0
M  V30 1875 O 183.424 1.93765 0.129977 0
M  V30 1876 C 180.554 3.46812 -0.184054 0
M  V30 1877 C 179.508 4.12606 -1.13757 0
M  V30 1878 C 178.834 5.33031 -0.422083 0
M  V30 1879 C 180.134 4.59603 -2.48118 0
M  V30 1880 H 181.828 2.49113 -1.66082 0
M  V30 1881 H 179.374 1.19734 -0.799987 0
M  V30 1882 H 181.327 4.21353 0.0631215 0
M  V30 1883 H 180.051 3.17851 0.750868 0
M  V30 1884 H 178.71 3.40036 -1.37007 0
M  V30 1885 H 178.358 5.00335 0.517072 0
M  V30 1886 H 178.058 5.77999 -1.05788 0
M  V30 1887 H 179.582 6.10325 -0.183277 0
M  V30 1888 H 180.996 5.25552 -2.29059 0
M  V30 1889 H 179.393 5.15321 -3.07514 0
M  V30 1890 H 180.463 3.73971 -3.08665 0
M  V30 1891 N 181.806 0.884767 1.30421 0
M  V30 1892 C 183.055 0.499164 1.95426 0
M  V30 1893 C 183.368 -0.95645 1.70621 0
M  V30 1894 O 184.574 -1.44889 2.29607 0
M  V30 1895 C 183.03 0.84177 3.49917 0
M  V30 1896 C 182.638 2.31514 3.83543 0
M  V30 1897 C 184.382 0.525355 4.21237 0
M  V30 1898 C 182.289 2.59939 5.31212 0
M  V30 1899 H 181.219 0.182944 0.73147 0
M  V30 1900 H 183.87 1.07971 1.48373 0
M  V30 1901 H 182.252 0.190311 3.95542 0
M  V30 1902 H 183.426 3.0109 3.48829 0
M  V30 1903 H 181.741 2.59907 3.25326 0
M  V30 1904 H 184.338 0.714762 5.29901 0
M  V30 1905 H 184.681 -0.535222 4.12845 0
M  V30 1906 H 185.214 1.134 3.81294 0
M  V30 1907 H 181.953 3.64736 5.44654 0
M  V30 1908 H 181.473 1.94972 5.67227 0
M  V30 1909 H 183.152 2.45429 5.98643 0
M  V30 1910 N 183.284 -1.43765 0.645699 0
M  V30 1911 C 184.216 -2.29027 -0.0890605 0
M  V30 1912 C 185.229 -1.42093 -0.794563 0
M  V30 1913 O 186.418 -1.66104 -0.653575 0
M  V30 1914 C 183.518 -3.18831 -1.14891 0
M  V30 1915 C 182.691 -4.34261 -0.523043 0
M  V30 1916 C 181.75 -5.04994 -1.47878 0
M  V30 1917 O 180.776 -5.6052 -0.990277 0
M  V30 1918 N 181.978 -5.07795 -2.81291 0
M  V30 1919 H 184.743 -2.92727 0.64272 0
M  V30 1920 H 182.304 -1.54373 0.487924 0
M  V30 1921 H 184.296 -3.63015 -1.78892 0
M  V30 1922 H 182.866 -2.56782 -1.78275 0
M  V30 1923 H 182.086 -3.93088 0.295896 0
M  V30 1924 H 183.374 -5.08728 -0.0858147 0
M  V30 1925 H 182.772 -4.64042 -3.23546 0
M  V30 1926 H 181.329 -5.55721 -3.40614 0
M  V30 1927 N 184.763 -0.387143 -1.52771 0
M  V30 1928 C 186.01 0.195735 -2.01552 0
M  V30 1929 C 186.338 1.46995 -1.27369 0
M  V30 1930 O 185.593 1.92325 -0.361879 0
M  V30 1931 C 185.892 0.512209 -3.53711 0
M  V30 1932 C 185.558 -0.670202 -4.45891 0
M  V30 1933 C 184.22 -0.994586 -4.70809 0
M  V30 1934 C 186.572 -1.46134 -5.00294 0
M  V30 1935 C 183.9 -2.11169 -5.4738 0
M  V30 1936 C 186.252 -2.56903 -5.78086 0
M  V30 1937 C 184.916 -2.89852 -6.01284 0
M  V30 1938 H 184.186 0.0716246 -0.73753 0
M  V30 1939 H 186.833 -0.524046 -1.8419 0
M  V30 1940 H 185.138 1.31329 -3.69134 0
M  V30 1941 H 186.835 0.975804 -3.88946 0
M  V30 1942 H 183.425 -0.407366 -4.2666 0
M  V30 1943 H 187.609 -1.22397 -4.80971 0
M  V30 1944 H 182.865 -2.3707 -5.63567 0
M  V30 1945 H 187.039 -3.18608 -6.19243 0
M  V30 1946 H 184.666 -3.76533 -6.60399 0
M  V30 1947 N 186.241 1.57166 -0.116904 0
M  V30 1948 C 187.518 1.86645 0.585049 0
M  V30 1949 C 187.898 1.0177 1.84949 0
M  V30 1950 O 187.246 0.0960379 2.28298 0
M  V30 1951 C 187.456 3.37736 0.879507 0
M  V30 1952 C 188.804 4.06289 1.23348 0
M  V30 1953 O 189.828 3.42743 0.969836 0
M  V30 1954 O 188.687 5.18455 1.7282 0
M  V30 1955 H 185.781 0.772593 0.295007 0
M  V30 1956 H 188.327 1.69025 -0.151249 0
M  V30 1957 H 187.099 3.91296 -0.0166136 0
M  V30 1958 H 186.722 3.6078 1.67103 0
M  V30 1959 N 187.719 -0.156864 1.56817 0
M  V30 1960 C 188.959 -0.877453 1.84608 0
M  V30 1961 C 189.323 -1.78791 0.699845 0
M  V30 1962 O 190.524 -2.5472 0.858553 0
M  V30 1963 C 188.795 -1.63992 3.17555 0
M  V30 1964 S 190.354 -2.40729 3.66872 0
M  V30 1965 H 187.172 -0.293612 0.647544 0
M  V30 1966 H 189.774 -0.138099 1.95012 0
M  V30 1967 H 188.478 -0.962363 3.98957 0
M  V30 1968 H 188.009 -2.42038 3.10131 0
M  V30 1969 H 190.024 -3.65725 3.3535 0
M  V30 1970 N 189.197 -1.51736 -0.425897 0
M  V30 1971 C 190.608 -1.5732 -1.00536 0
M  V30 1972 C 190.959 -0.403537 -1.92005 0
M  V30 1973 O 190.084 0.478256 -2.11049 0
M  V30 1974 C 190.679 -2.85119 -1.8301 0
M  V30 1975 C 189.238 -2.93236 -2.35987 0
M  V30 1976 C 188.385 -2.52098 -1.15508 0
M  V30 1977 H 191.336 -1.57348 -0.206739 0
M  V30 1978 H 191.357 -2.69526 -2.68581 0
M  V30 1979 H 190.869 -3.7023 -1.16411 0
M  V30 1980 H 188.97 -2.12581 -3.06007 0
M  V30 1981 H 189.083 -3.9713 -2.68001 0
M  V30 1982 H 187.447 -2.05558 -1.50393 0
M  V30 1983 H 188.23 -3.39565 -0.505014 0
M  V30 1984 N 190.675 0.682077 -1.42076 0
M  V30 1985 C 191.923 1.4393 -1.41876 0
M  V30 1986 C 192.244 1.94971 -0.0335599 0
M  V30 1987 O 191.514 1.72591 0.926773 0
M  V30 1988 H 190.094 0.534085 -0.522267 0
M  V30 1989 H 192.756 0.806427 -1.77434 0
M  V30 1990 H 191.852 2.29588 -2.11414 0
M  V30 1991 N 192.153 1.28127 0.917671 0
M  V30 1992 C 193.103 1.08361 2.00604 0
M  V30 1993 C 194.087 0.00847518 1.60898 0
M  V30 1994 O 195.279 0.228167 1.75523 0
M  V30 1995 C 192.408 0.743376 3.35155 0
M  V30 1996 C 191.494 1.85716 3.81275 0
M  V30 1997 N 191.885 3.09822 3.99805 0
M  V30 1998 C 190.183 1.74612 4.10398 0
M  V30 1999 C 190.884 3.82368 4.38372 0
M  V30 2000 N 189.86 3.10192 4.4641 0
M  V30 2001 H 193.662 2.02531 2.12975 0
M  V30 2002 H 191.176 1.18989 1.10523 0
M  V30 2003 H 193.173 0.582859 4.12805 0
M  V30 2004 H 191.833 -0.190595 3.2414 0
M  V30 2005 H 192.844 3.45475 3.85833 0
M  V30 2006 H 189.521 0.883657 4.08041 0
M  V30 2007 H 190.911 4.89082 4.60704 0
M  V30 2008 N 193.631 -1.12557 1.10312 0
M  V30 2009 C 194.563 -2.17971 0.708625 0
M  V30 2010 C 195.576 -1.60806 -0.254027 0
M  V30 2011 O 196.765 -1.78458 -0.0386891 0
M  V30 2012 C 193.865 -3.38891 0.0248198 0
M  V30 2013 C 193.038 -4.25548 1.01132 0
M  V30 2014 C 192.097 -5.24972 0.35924 0
M  V30 2015 O 191.123 -5.60174 1.00965 0
M  V30 2016 N 192.325 -5.73747 -0.882847 0
M  V30 2017 H 195.09 -2.52427 1.61557 0
M  V30 2018 H 192.651 -1.27967 0.991771 0
M  V30 2019 H 194.643 -4.02485 -0.422852 0
M  V30 2020 H 193.213 -3.02596 -0.784514 0
M  V30 2021 H 192.433 -3.58589 1.6373 0
M  V30 2022 H 193.721 -4.80294 1.67914 0
M  V30 2023 H 193.119 -5.4731 -1.43065 0
M  V30 2024 H 191.676 -6.39234 -1.27369 0
M  V30 2025 N 195.109 -0.891671 -1.2995 0
M  V30 2026 C 196.357 -0.512486 -1.95494 0
M  V30 2027 C 196.678 0.942776 -1.70695 0
M  V30 2028 O 195.948 1.66374 -1.03424 0
M  V30 2029 H 194.528 -0.186533 -0.723336 0
M  V30 2030 H 197.19 -1.13621 -1.58355 0
M  V30 2031 H 196.286 -0.688342 -3.04415 0
M  V30 2032 N 196.587 1.43421 -0.653314 0
M  V30 2033 C 197.835 2.01414 -0.166415 0
M  V30 2034 C 198.156 1.51803 1.22397 0
M  V30 2035 O 197.426 0.730693 1.81763 0
M  V30 2036 H 196.006 0.744703 -0.0585319 0
M  V30 2037 H 198.668 1.75629 -0.845003 0
M  V30 2038 H 197.764 3.11734 -0.151111 0
M  V30 2039 N 198.065 0.39524 1.52563 0
M  V30 2040 C 198.997 -0.472201 2.24283 0
M  V30 2041 C 200.01 -1.02178 1.26742 0
M  V30 2042 O 201.199 -0.923097 1.52778 0
M  V30 2043 C 198.299 -1.66775 2.95024 0
M  V30 2044 C 197.472 -1.2445 4.19322 0
M  V30 2045 C 196.531 -2.30539 4.7301 0
M  V30 2046 O 195.557 -1.91702 5.35947 0
M  V30 2047 N 196.759 -3.6253 4.53379 0
M  V30 2048 H 199.524 0.142282 2.99362 0
M  V30 2049 H 197.085 0.2219 1.60372 0
M  V30 2050 H 199.077 -2.37283 3.27839 0
M  V30 2051 H 197.647 -2.18845 2.23217 0
M  V30 2052 H 196.867 -0.368069 3.92478 0
M  V30 2053 H 198.155 -0.938457 5.0007 0
M  V30 2054 H 197.553 -3.96841 4.03154 0
M  V30 2055 H 196.11 -4.29055 4.90668 0
M  V30 2056 N 199.544 -1.57102 0.125237 0
M  V30 2057 C 200.774 -1.99472 -0.538015 0
M  V30 2058 C 201.182 -1.00395 -1.60366 0
M  V30 2059 O 200.525 0.0103875 -1.83697 0
M  V30 2060 C 200.587 -3.38262 -1.21734 0
M  V30 2061 C 200.251 -4.56021 -0.298897 0
M  V30 2062 C 201.248 -5.17817 0.464943 0
M  V30 2063 C 198.933 -5.01869 -0.208149 0
M  V30 2064 C 200.927 -6.23852 1.3072 0
M  V30 2065 C 198.614 -6.07763 0.637736 0
M  V30 2066 C 199.612 -6.68622 1.39403 0
M  V30 2067 O 199.3 -7.7247 2.22586 0
M  V30 2068 H 199.032 -0.659934 -0.146501 0
M  V30 2069 H 201.586 -2.04321 0.210267 0
M  V30 2070 H 199.816 -3.30185 -2.01282 0
M  V30 2071 H 201.505 -3.6488 -1.77813 0
M  V30 2072 H 202.271 -4.83308 0.404741 0
M  V30 2073 H 198.15 -4.54241 -0.786522 0
M  V30 2074 H 201.694 -6.71284 1.898 0
M  V30 2075 H 197.591 -6.41701 0.699309 0
M  V30 2076 H 198.359 -7.89595 2.15596 0
M  V30 2077 N 201.022 0.148545 -1.56898 0
M  V30 2078 C 202.252 0.875118 -1.8715 0
M  V30 2079 C 202.66 1.75322 -0.711262 0
M  V30 2080 O 202.003 1.80745 0.328151 0
M  V30 2081 C 202.065 1.7844 -3.12089 0
M  V30 2082 C 201.729 1.08361 -4.43967 0
M  V30 2083 C 202.726 0.438247 -5.1805 0
M  V30 2084 C 200.411 1.07358 -4.90693 0
M  V30 2085 C 202.405 -0.20779 -6.37061 0
M  V30 2086 C 200.092 0.42373 -6.09629 0
M  V30 2087 C 201.09 -0.215829 -6.82659 0
M  V30 2088 O 200.778 -0.855378 -7.99336 0
M  V30 2089 H 200.51 0.258504 -0.624621 0
M  V30 2090 H 203.064 0.14652 -2.04877 0
M  V30 2091 H 201.294 2.55389 -2.90367 0
M  V30 2092 H 202.983 2.38279 -3.286 0
M  V30 2093 H 203.749 0.437817 -4.8302 0
M  V30 2094 H 199.628 1.5608 -4.33774 0
M  V30 2095 H 203.172 -0.70758 -6.94002 0
M  V30 2096 H 199.069 0.421822 -6.4412 0
M  V30 2097 H 199.837 -0.756892 -8.14993 0
M  V30 2098 N 202.5 1.5196 0.417844 0
M  V30 2099 C 203.916 1.40569 0.755816 0
M  V30 2100 C 204.116 0.503316 1.95113 0
M  V30 2101 O 203.172 -0.0341925 2.52477 0
M  V30 2102 C 204.485 2.82947 1.01791 0
M  V30 2103 C 206.033 2.92231 1.12116 0
M  V30 2104 C 206.508 4.35559 1.41608 0
M  V30 2105 N 207.999 4.38753 1.48491 0
M  V30 2106 C 208.734 5.46705 1.7292 0
M  V30 2107 N 208.23 6.64788 1.95011 0
M  V30 2108 N 210.023 5.34209 1.74863 0
M  V30 2109 H 202.174 2.09168 -0.369098 0
M  V30 2110 H 204.437 0.942409 -0.102809 0
M  V30 2111 H 204.143 3.5106 0.212081 0
M  V30 2112 H 204.017 3.23462 1.94042 0
M  V30 2113 H 206.404 2.24304 1.9176 0
M  V30 2114 H 206.485 2.55185 0.177225 0
M  V30 2115 H 206.129 5.04042 0.624848 0
M  V30 2116 H 206.059 4.70133 2.37239 0
M  V30 2117 H 208.55 3.5363 1.33244 0
M  V30 2118 H 208.863 7.42845 2.13076 0
M  V30 2119 H 207.208 6.67869 1.92293 0
M  V30 2120 H 210.399 4.40937 1.57137 0
M  V30 2121 H 210.572 6.18415 1.93563 0
M  V30 2122 N 203.978 -0.674533 1.42435 0
M  V30 2123 C 204.925 -1.78807 1.45934 0
M  V30 2124 C 205.895 -1.63157 0.311271 0
M  V30 2125 O 207.08 -1.83707 0.515383 0
M  V30 2126 C 204.22 -3.16839 1.36773 0
M  V30 2127 C 203.333 -3.43774 2.61617 0
M  V30 2128 C 202.468 -4.71536 2.44597 0
M  V30 2129 C 201.507 -4.91505 3.64814 0
M  V30 2130 N 200.644 -6.10508 3.46734 0
M  V30 2131 H 205.484 -1.75151 2.41093 0
M  V30 2132 H 203.021 -0.85504 1.19697 0
M  V30 2133 H 204.979 -3.96606 1.29459 0
M  V30 2134 H 203.609 -3.19619 0.452089 0
M  V30 2135 H 202.661 -2.58259 2.79297 0
M  V30 2136 H 203.973 -3.54423 3.50978 0
M  V30 2137 H 203.127 -5.59393 2.3487 0
M  V30 2138 H 201.866 -4.6317 1.52726 0
M  V30 2139 H 200.871 -4.0209 3.74972 0
M  V30 2140 H 202.096 -5.01716 4.57665 0
M  V30 2141 H 200.042 -6.03315 2.5758 0
M  V30 2142 H 199.959 -6.2202 4.29682 0
M  V30 2143 H 201.227 -7.01044 3.40819 0
M  V30 2144 N 205.456 -1.28612 -0.910864 0
M  V30 2145 C 206.406 -1.09423 -2.00026 0
M  V30 2146 C 207.39 -0.0170079 -1.60891 0
M  V30 2147 O 208.582 -0.237472 -1.754 0
M  V30 2148 C 205.711 -0.76114 -3.34756 0
M  V30 2149 C 204.797 -1.87735 -3.80285 0
M  V30 2150 N 205.188 -3.11938 -3.98156 0
M  V30 2151 C 203.486 -1.76786 -4.09467 0
M  V30 2152 C 204.187 -3.84687 -4.36338 0
M  V30 2153 N 203.163 -3.12555 -4.44759 0
M  V30 2154 H 206.965 -2.03658 -2.11898 0
M  V30 2155 H 204.479 -1.19573 -1.09891 0
M  V30 2156 H 206.476 -0.604743 -4.12491 0
M  V30 2157 H 205.136 0.173403 -3.24237 0
M  V30 2158 H 206.147 -3.47516 -3.83996 0
M  V30 2159 H 202.824 -0.905284 -4.07567 0
M  V30 2160 H 204.214 -4.91518 -4.58104 0
M  V30 2161 N 206.934 1.1197 -1.10907 0
M  V30 2162 C 208.345 1.65114 -0.871446 0
M  V30 2163 C 208.696 1.86885 0.597353 0
M  V30 2164 O 207.821 1.59896 1.45816 0
M  V30 2165 C 208.416 2.99944 -1.5754 0
M  V30 2166 C 206.975 3.50018 -1.38435 0
M  V30 2167 C 206.122 2.24941 -1.62164 0
M  V30 2168 H 209.073 0.956851 -1.2661 0
M  V30 2169 H 209.094 3.66651 -1.01721 0
M  V30 2170 H 208.606 2.84067 -2.64438 0
M  V30 2171 H 206.707 3.71071 -0.337214 0
M  V30 2172 H 206.82 4.29165 -2.12965 0
M  V30 2173 H 205.184 2.3229 -1.04467 0
M  V30 2174 H 205.967 2.11612 -2.70324 0
M  V30 2175 N 208.412 0.89855 1.29475 0
M  V30 2176 C 209.375 0.380272 2.26023 0
M  V30 2177 C 210.375 -0.484891 1.53315 0
M  V30 2178 O 211.565 -0.290108 1.71767 0
M  V30 2179 C 208.697 -0.45651 3.3783 0
M  V30 2180 H 209.89 1.23295 2.73383 0
M  V30 2181 H 207.443 0.676589 1.40897 0
M  V30 2182 H 208.178 -1.32922 2.95808 0
M  V30 2183 H 207.963 0.163393 3.91759 0
M  V30 2184 H 209.453 -0.810466 4.0966 0
M  V30 2185 N 209.89 -1.43072 0.660911 0
M  V30 2186 C 211.138 -2.01323 0.177094 0
M  V30 2187 C 211.459 -1.5245 -1.2159 0
M  V30 2188 O 210.729 -0.740322 -1.81373 0
M  V30 2189 H 209.309 -0.744382 0.0624804 0
M  V30 2190 H 211.971 -1.75179 0.854305 0
M  V30 2191 H 211.067 -3.11649 0.167641 0
M  V30 2192 N 211.368 -0.403325 -1.52352 0
M  V30 2193 C 212.784 -0.0539281 -1.59509 0
M  V30 2194 C 212.984 1.43307 -1.41652 0
M  V30 2195 O 212.04 2.19924 -1.24056 0
M  V30 2196 C 213.353 -0.543654 -2.95745 0
M  V30 2197 C 214.901 -0.501125 -3.08962 0
M  V30 2198 C 215.376 -0.967267 -4.47669 0
M  V30 2199 N 216.867 -0.923849 -4.53893 0
M  V30 2200 C 217.602 -1.25578 -5.5948 0
M  V30 2201 N 217.098 -1.65889 -6.72646 0
M  V30 2202 N 218.891 -1.17613 -5.49658 0
M  V30 2203 H 211.042 -1.37123 -1.62206 0
M  V30 2204 H 213.305 -0.56294 -0.76276 0
M  V30 2205 H 213.011 -1.58275 -3.14073 0
M  V30 2206 H 212.885 0.0498042 -3.77167 0
M  V30 2207 H 215.272 0.528909 -2.90321 0
M  V30 2208 H 215.353 -1.13056 -2.2946 0
M  V30 2209 H 214.997 -1.9956 -4.67053 0
M  V30 2210 H 214.927 -0.314698 -5.25659 0
M  V30 2211 H 217.418 -0.627403 -3.72655 0
M  V30 2212 H 217.731 -1.89543 -7.49195 0
M  V30 2213 H 216.076 -1.69787 -6.73942 0
M  V30 2214 H 219.267 -0.860115 -4.6013 0
M  V30 2215 H 219.44 -1.43812 -6.3184 0
M  V30 2216 N 212.846 1.57033 -0.133567 0
M  V30 2217 C 213.756 2.19632 0.824564 0
M  V30 2218 C 214.772 1.17666 1.28182 0
M  V30 2219 O 215.948 1.50193 1.3418 0
M  V30 2220 C 213.013 2.79499 2.05137 0
M  V30 2221 C 212.074 3.96548 1.64464 0
M  V30 2222 C 211.307 4.5355 2.81297 0
M  V30 2223 O 211.53 4.09438 3.97136 0
M  V30 2224 O 210.464 5.44018 2.57542 0
M  V30 2225 H 214.29 3.01991 0.321766 0
M  V30 2226 H 211.875 1.49112 0.0927889 0
M  V30 2227 H 213.757 3.17602 2.7696 0
M  V30 2228 H 212.432 2.00162 2.54395 0
M  V30 2229 H 211.339 3.63186 0.897048 0
M  V30 2230 H 212.672 4.77364 1.19934 0
M  V30 2231 N 214.325 -0.140222 1.56975 0
M  V30 2232 C 215.572 -0.851687 1.83719 0
M  V30 2233 C 215.9 -1.80862 0.715485 0
M  V30 2234 O 215.155 -1.93464 -0.294956 0
M  V30 2235 C 215.454 -1.65386 3.16832 0
M  V30 2236 C 215.12 -0.843112 4.42947 0
M  V30 2237 C 213.782 -0.619464 4.77196 0
M  V30 2238 C 216.134 -0.276582 5.20466 0
M  V30 2239 C 213.462 0.181312 5.8642 0
M  V30 2240 C 215.814 0.51127 6.30531 0
M  V30 2241 C 214.478 0.745432 6.63325 0
M  V30 2242 H 213.748 -0.311654 0.672274 0
M  V30 2243 H 216.395 -0.115006 1.91154 0
M  V30 2244 H 214.7 -2.46084 3.04877 0
M  V30 2245 H 216.397 -2.20793 3.34741 0
M  V30 2246 H 212.987 -1.0275 4.16101 0
M  V30 2247 H 217.171 -0.436632 4.94376 0
M  V30 2248 H 212.427 0.372165 6.10266 0
M  V30 2249 H 216.601 0.957354 6.89788 0
M  V30 2250 H 214.228 1.36778 7.47794 0
M  V30 2251 N 215.803 -1.52179 -0.40978 0
M  V30 2252 C 217.033 -1.69807 -1.17682 0
M  V30 2253 C 217.441 -0.406908 -1.84773 0
M  V30 2254 O 216.784 0.626863 -1.72673 0
M  V30 2255 C 216.846 -2.77712 -2.2829 0
M  V30 2256 C 216.51 -4.19481 -1.81341 0
M  V30 2257 C 217.507 -5.03345 -1.30154 0
M  V30 2258 C 215.192 -4.65713 -1.88194 0
M  V30 2259 C 217.186 -6.31511 -0.864416 0
M  V30 2260 C 214.873 -5.93869 -1.44093 0
M  V30 2261 C 215.871 -6.76597 -0.933023 0
M  V30 2262 O 215.559 -8.02354 -0.49838 0
M  V30 2263 H 215.291 -0.572372 -0.359675 0
M  V30 2264 H 217.845 -1.99511 -0.488311 0
M  V30 2265 H 216.075 -2.43383 -3.00502 0
M  V30 2266 H 217.764 -2.83946 -2.90051 0
M  V30 2267 H 218.53 -4.68819 -1.24232 0
M  V30 2268 H 214.409 -4.01424 -2.26671 0
M  V30 2269 H 217.953 -6.96033 -0.467286 0
M  V30 2270 H 213.85 -6.27903 -1.49694 0
M  V30 2271 H 214.618 -8.16135 -0.621747 0
M  V30 2272 N 217.281 0.66697 -1.42791 0
M  V30 2273 C 218.558 1.4234 -1.34159 0
M  V30 2274 C 218.938 2.11093 0.0172729 0
M  V30 2275 O 218.286 2.03808 1.03318 0
M  V30 2276 C 218.496 2.41942 -2.51526 0
M  V30 2277 C 219.844 3.06353 -2.93995 0
M  V30 2278 O 220.868 2.52269 -2.51473 0
M  V30 2279 O 219.727 4.04376 -3.67617 0
M  V30 2280 H 216.821 0.635277 -0.529483 0
M  V30 2281 H 219.367 0.695034 -1.54814 0
M  V30 2282 H 218.139 1.89991 -3.42081 0
M  V30 2283 H 217.762 3.22249 -2.32898 0
M  V30 2284 N 218.759 1.29093 0.90403 0
M  V30 2285 C 220.006 1.16813 1.65411 0
M  V30 2286 C 220.334 -0.28128 1.92455 0
M  V30 2287 O 219.589 -1.22006 1.53013 0
M  V30 2288 C 219.888 1.92224 3.01305 0
M  V30 2289 C 219.554 3.41968 2.93885 0
M  V30 2290 C 218.216 3.82807 2.91569 0
M  V30 2291 C 220.568 4.37409 2.83413 0
M  V30 2292 C 217.896 5.1741 2.76594 0
M  V30 2293 C 220.248 5.72097 2.69977 0
M  V30 2294 C 218.912 6.12199 2.66024 0
M  V30 2295 H 218.182 0.42745 0.605283 0
M  V30 2296 H 220.829 1.59981 1.05254 0
M  V30 2297 H 219.134 1.41635 3.65304 0
M  V30 2298 H 220.831 1.80131 3.58265 0
M  V30 2299 H 217.421 3.09504 2.96488 0
M  V30 2300 H 221.605 4.06813 2.84283 0
M  V30 2301 H 216.861 5.47596 2.71935 0
M  V30 2302 H 221.035 6.45704 2.60844 0
M  V30 2303 H 218.662 7.16448 2.54178 0
M  V30 2304 N 220.237 -1.11381 1.11499 0
M  V30 2305 C 221.484 -1.83132 0.864231 0
M  V30 2306 C 221.812 -1.84683 -0.610114 0
M  V30 2307 O 221.067 -1.29589 -1.46646 0
M  V30 2308 C 221.366 -3.30026 1.37177 0
M  V30 2309 C 221.032 -3.48634 2.85946 0
M  V30 2310 C 219.694 -3.53421 3.26569 0
M  V30 2311 C 222.046 -3.54837 3.81759 0
M  V30 2312 C 219.374 -3.61967 4.61733 0
M  V30 2313 C 221.726 -3.64915 5.1674 0
M  V30 2314 C 220.39 -3.67962 5.5692 0
M  V30 2315 H 219.66 -0.670127 0.316245 0
M  V30 2316 H 222.307 -1.31354 1.3935 0
M  V30 2317 H 220.612 -3.84304 0.762753 0
M  V30 2318 H 222.309 -3.84034 1.15408 0
M  V30 2319 H 218.899 -3.45579 2.53521 0
M  V30 2320 H 223.083 -3.50399 3.51474 0
M  V30 2321 H 218.339 -3.62603 4.92269 0
M  V30 2322 H 222.513 -3.68658 5.90816 0
M  V30 2323 H 220.14 -3.74336 6.61647 0
M  V30 2324 N 221.715 -0.905404 -1.28997 0
M  V30 2325 C 222.963 -0.533192 -1.9494 0
M  V30 2326 C 223.284 0.924618 -1.71685 0
M  V30 2327 O 222.554 1.65268 -1.05183 0
M  V30 2328 H 221.134 -0.194194 -0.721317 0
M  V30 2329 H 223.796 -1.15294 -1.57141 0
M  V30 2330 H 222.892 -0.72059 -3.03667 0
M  V30 2331 N 223.193 1.4272 -0.668489 0
M  V30 2332 C 224.103 2.34596 0.0139753 0
M  V30 2333 C 225.119 1.5474 0.795703 0
M  V30 2334 O 226.295 1.87334 0.739466 0
M  V30 2335 C 223.36 3.33202 0.957982 0
M  V30 2336 C 222.421 4.28957 0.17149 0
M  V30 2337 C 221.654 5.22853 1.07053 0
M  V30 2338 O 221.877 5.21531 2.31001 0
M  V30 2339 O 220.811 5.9952 0.534727 0
M  V30 2340 H 224.637 2.9448 -0.742661 0
M  V30 2341 H 222.222 1.43117 -0.428705 0
M  V30 2342 H 224.104 3.93796 1.50008 0
M  V30 2343 H 222.779 2.758 1.69458 0
M  V30 2344 H 221.686 3.71796 -0.414558 0
M  V30 2345 H 223.019 4.89383 -0.52586 0
M  V30 2346 N 224.671 0.411399 1.52136 0
M  V30 2347 C 225.899 -0.163076 2.06256 0
M  V30 2348 C 226.314 -1.3867 1.28125 0
M  V30 2349 O 225.671 -1.79423 0.333721 0
M  V30 2350 C 225.722 -0.511252 3.57867 0
M  V30 2351 O 225.443 0.66378 4.33042 0
M  V30 2352 C 226.944 -1.13921 4.28412 0
M  V30 2353 H 224.164 -0.0193897 0.67072 0
M  V30 2354 H 226.708 0.583007 1.96013 0
M  V30 2355 H 224.863 -1.20723 3.6811 0
M  V30 2356 H 225.277 0.372601 5.23175 0
M  V30 2357 H 226.751 -1.33302 5.35663 0
M  V30 2358 H 227.228 -2.11296 3.85033 0
M  V30 2359 H 227.834 -0.483373 4.22544 0
M  V30 2360 N 226.149 -1.5696 0.141893 0
M  V30 2361 C 227.395 -1.9625 -0.511248 0
M  V30 2362 C 227.728 -1.02654 -1.64851 0
M  V30 2363 O 227.003 -0.0679676 -1.94381 0
M  V30 2364 C 227.286 -3.45285 -1.02227 0
M  V30 2365 C 227.139 -4.49658 0.113138 0
M  V30 2366 C 228.458 -3.96698 -1.90574 0
M  V30 2367 H 225.577 -0.713567 -0.184367 0
M  V30 2368 H 228.219 -1.88698 0.222087 0
M  V30 2369 H 226.369 -3.51852 -1.64719 0
M  V30 2370 H 228.041 -4.55174 0.749302 0
M  V30 2371 H 226.284 -4.26857 0.773026 0
M  V30 2372 H 226.955 -5.51258 -0.286053 0
M  V30 2373 H 229.431 -3.92578 -1.37918 0
M  V30 2374 H 228.307 -5.01453 -2.2324 0
M  V30 2375 H 228.568 -3.3875 -2.84079 0
M  V30 2376 N 227.627 0.131896 -1.57047 0
M  V30 2377 C 228.874 0.841932 -1.84168 0
M  V30 2378 C 229.202 1.8048 -0.725066 0
M  V30 2379 O 228.457 1.93618 0.284692 0
M  V30 2380 C 228.756 1.63703 -3.17704 0
M  V30 2381 C 228.422 0.81961 -4.43388 0
M  V30 2382 C 227.084 0.594148 -4.77518 0
M  V30 2383 C 229.436 0.248977 -5.20605 0
M  V30 2384 C 226.764 -0.212409 -5.86315 0
M  V30 2385 C 229.116 -0.544701 -6.30251 0
M  V30 2386 C 227.78 -0.780599 -6.6292 0
M  V30 2387 H 227.05 0.308085 -0.673917 0
M  V30 2388 H 229.697 0.104867 -1.91213 0
M  V30 2389 H 228.002 2.44464 -3.06177 0
M  V30 2390 H 229.699 2.19015 -3.35907 0
M  V30 2391 H 226.289 1.00542 -4.16641 0
M  V30 2392 H 230.473 0.410408 -4.946 0
M  V30 2393 H 225.729 -0.404524 -6.1006 0
M  V30 2394 H 229.903 -0.993922 -6.89271 0
M  V30 2395 H 227.53 -1.40742 -7.47058 0
M  V30 2396 N 229.106 1.52395 0.401703 0
M  V30 2397 C 230.522 1.41363 0.740864 0
M  V30 2398 C 230.722 0.523982 1.94568 0
M  V30 2399 O 229.778 -0.00741204 2.52499 0
M  V30 2400 C 231.091 2.84011 0.987847 0
M  V30 2401 C 232.639 2.93404 1.09011 0
M  V30 2402 C 233.114 4.37036 1.3698 0
M  V30 2403 N 234.605 4.40304 1.43829 0
M  V30 2404 C 235.34 5.48508 1.67112 0
M  V30 2405 N 234.836 6.66819 1.87949 0
M  V30 2406 N 236.629 5.36034 1.69187 0
M  V30 2407 H 228.78 2.08765 -0.391262 0
M  V30 2408 H 231.043 0.941265 -0.112798 0
M  V30 2409 H 230.749 3.51265 0.174835 0
M  V30 2410 H 230.623 3.25502 1.906 0
M  V30 2411 H 233.01 2.26325 1.8937 0
M  V30 2412 H 233.091 2.55359 0.15015 0
M  V30 2413 H 232.735 5.04676 0.571353 0
M  V30 2414 H 232.665 4.72623 2.3224 0
M  V30 2415 H 235.156 3.55024 1.29486 0
M  V30 2416 H 235.469 7.45063 2.05185 0
M  V30 2417 H 233.814 6.6987 1.85199 0
M  V30 2418 H 237.005 4.42579 1.52451 0
M  V30 2419 H 237.178 6.20434 1.86993 0
M  V30 2420 N 230.584 -0.659388 1.43143 0
M  V30 2421 C 231.547 -1.75432 1.47501 0
M  V30 2422 C 232.547 -1.56707 0.360512 0
M  V30 2423 O 233.737 -1.62717 0.622002 0
M  V30 2424 C 230.869 -3.14239 1.32162 0
M  V30 2425 H 232.062 -1.7295 2.45006 0
M  V30 2426 H 229.615 -0.870469 1.29817 0
M  V30 2427 H 230.35 -3.22336 0.356401 0
M  V30 2428 H 230.135 -3.29235 2.12948 0
M  V30 2429 H 231.625 -3.94094 1.3813 0
M  V30 2430 N 232.062 -1.29571 -0.897171 0
M  V30 2431 C 233.339 -1.08365 -1.62839 0
M  V30 2432 C 233.719 0.371331 -2.07808 0
M  V30 2433 O 233.067 1.3606 -1.83576 0
M  V30 2434 C 233.277 -2.0735 -2.80726 0
M  V30 2435 C 234.625 -2.38406 -3.51351 0
M  V30 2436 O 235.649 -2.05564 -2.90898 0
M  V30 2437 O 234.508 -2.9453 -4.60341 0
M  V30 2438 H 231.602 -0.415345 -0.715134 0
M  V30 2439 H 234.148 -1.40952 -0.945018 0
M  V30 2440 H 232.92 -3.05339 -2.44711 0
M  V30 2441 H 232.543 -1.75507 -3.56767 0
M  V30 2442 N 233.54 1.10788 -1.12088 0
M  V30 2443 C 234.47 2.19083 -0.807755 0
M  V30 2444 C 235.451 1.6858 0.226859 0
M  V30 2445 O 236.636 1.93997 0.0888475 0
M  V30 2446 C 233.766 3.46344 -0.257576 0
M  V30 2447 C 232.72 4.101 -1.22483 0
M  V30 2448 C 232.046 5.32016 -0.535052 0
M  V30 2449 C 233.346 4.54236 -2.57811 0
M  V30 2450 H 235.04 2.45534 -1.71328 0
M  V30 2451 H 232.586 1.1801 -0.825205 0
M  V30 2452 H 234.539 4.21392 -0.0262679 0
M  V30 2453 H 233.263 3.19373 0.683278 0
M  V30 2454 H 231.922 3.37054 -1.44189 0
M  V30 2455 H 231.57 5.01319 0.410827 0
M  V30 2456 H 231.27 5.75625 -1.18024 0
M  V30 2457 H 232.794 6.09799 -0.312695 0
M  V30 2458 H 234.208 5.20575 -2.40155 0
M  V30 2459 H 232.605 5.08682 -3.18375 0
M  V30 2460 H 233.675 3.6734 -3.16528 0
M  V30 2461 N 235.018 0.912232 1.28515 0
M  V30 2462 C 236.258 0.551677 1.96814 0
M  V30 2463 C 236.622 -0.887825 1.7024 0
M  V30 2464 O 237.823 -1.35588 2.32098 0
M  V30 2465 C 236.094 0.850555 3.47132 0
M  V30 2466 S 237.653 0.59619 4.34731 0
M  V30 2467 H 234.471 0.204191 0.681049 0
M  V30 2468 H 237.073 1.17736 1.56072 0
M  V30 2469 H 235.777 1.8962 3.63968 0
M  V30 2470 H 235.308 0.213471 3.9282 0
M  V30 2471 H 237.323 -0.553154 4.93107 0
M  V30 2472 N 236.496 -1.42363 0.676048 0
M  V30 2473 C 237.444 -2.32596 -0.0131507 0
M  V30 2474 C 238.438 -1.49891 -0.789238 0
M  V30 2475 O 239.644 -1.65955 -0.697061 0
M  V30 2476 H 236.019 -0.751647 -0.0230481 0
M  V30 2477 H 237.99 -2.88421 0.765243 0
M  V30 2478 C 236.739 -3.34479 -0.949702 0
M  V30 2479 H 236.062 -3.98158 -0.361938 0
M  V30 2480 H 237.502 -4.00199 -1.4006 0
M  V30 2481 C 235.961 -2.66838 -2.05667 0
M  V30 2482 O 236.491 -2.50124 -3.14326 0
M  V30 2483 N 234.697 -2.25843 -1.82875 0
M  V30 2484 H 234.244 -2.39637 -0.945085 0
M  V30 2485 H 234.202 -1.80918 -2.5713 0
M  V30 2486 N 237.974 -0.419461 -1.51915 0
M  V30 2487 C 238.937 0.389116 -2.25873 0
M  V30 2488 C 239.937 0.964924 -1.28631 0
M  V30 2489 O 241.127 0.842179 -1.52489 0
M  V30 2490 C 238.259 1.54874 -3.03689 0
M  V30 2491 H 239.452 -0.258799 -2.98781 0
M  V30 2492 H 237.005 -0.172209 -1.55348 0
M  V30 2493 H 237.74 2.23323 -2.35154 0
M  V30 2494 H 237.525 1.14223 -3.75094 0
M  V30 2495 H 239.015 2.12046 -3.59759 0
M  V30 2496 N 239.452 1.56882 -0.150215 0
M  V30 2497 C 240.729 1.87844 0.545327 0
M  V30 2498 C 241.109 1.0567 1.82749 0
M  V30 2499 O 240.457 0.144442 2.28043 0
M  V30 2500 C 240.667 3.39526 0.80767 0
M  V30 2501 C 242.015 4.08814 1.14703 0
M  V30 2502 O 243.039 3.44723 0.896917 0
M  V30 2503 O 241.898 5.22004 1.61784 0
M  V30 2504 H 238.992 0.778677 0.278553 0
M  V30 2505 H 241.538 1.68666 -0.187068 0
M  V30 2506 H 240.31 3.91173 -0.0996096 0
M  V30 2507 H 239.933 3.64243 1.59413 0
M  V30 2508 N 240.93 -0.123565 1.57115 0
M  V30 2509 C 242.176 -0.833386 1.84885 0
M  V30 2510 C 242.509 -1.79742 0.735292 0
M  V30 2511 O 241.784 -1.92764 -0.25925 0
M  V30 2512 C 242.067 -1.5873 3.23228 0
M  V30 2513 C 241.92 -0.643183 4.45178 0
M  V30 2514 C 243.239 -2.54453 3.59085 0
M  V30 2515 H 240.358 -0.301518 0.6725 0
M  V30 2516 H 243 -0.097778 1.89748 0
M  V30 2517 H 241.15 -2.21438 3.19214 0
M  V30 2518 H 242.822 -0.0253015 4.61293 0
M  V30 2519 H 241.065 0.0456139 4.33776 0
M  V30 2520 H 241.736 -1.20724 5.38637 0
M  V30 2521 H 244.212 -2.01853 3.63861 0
M  V30 2522 H 243.088 -3.04238 4.5687 0
M  V30 2523 H 243.349 -3.36906 2.86264 0
M  V30 2524 N 242.408 -1.52605 -0.393616 0
M  V30 2525 C 243.371 -1.76415 -1.46323 0
M  V30 2526 C 244.371 -0.634126 -1.47768 0
M  V30 2527 O 245.561 -0.902142 -1.4902 0
M  V30 2528 C 242.693 -1.8607 -2.85641 0
M  V30 2529 H 243.886 -2.71916 -1.26498 0
M  V30 2530 H 241.439 -1.43257 -0.625073 0
M  V30 2531 H 242.174 -0.925378 -3.10817 0
M  V30 2532 H 241.959 -2.68235 -2.85993 0
M  V30 2533 H 243.449 -2.06179 -3.63153 0
M  V30 2534 N 243.887 0.651787 -1.4349 0
M  V30 2535 C 244.817 1.77621 -1.51569 0
M  V30 2536 C 245.798 1.66022 -0.370253 0
M  V30 2537 O 246.983 1.85095 -0.587658 0
M  V30 2538 C 244.113 3.16056 -1.43966 0
M  V30 2539 C 243.067 3.4242 -2.56774 0
M  V30 2540 C 242.393 4.8067 -2.34223 0
M  V30 2541 C 243.693 3.37023 -3.99015 0
M  V30 2542 H 245.387 1.71117 -2.45681 0
M  V30 2543 H 242.933 0.821825 -1.18246 0
M  V30 2544 H 244.886 3.94472 -1.48221 0
M  V30 2545 H 243.61 3.23293 -0.463586 0
M  V30 2546 H 242.269 2.66375 -2.51873 0
M  V30 2547 H 241.917 4.84585 -1.34856 0
M  V30 2548 H 241.617 4.9927 -3.09844 0
M  V30 2549 H 243.141 5.61342 -2.40265 0
M  V30 2550 H 244.555 4.05374 -4.05395 0
M  V30 2551 H 242.952 3.67159 -4.74673 0
M  V30 2552 H 244.022 2.3518 -4.2405 0
M  V30 2553 N 245.365 1.30045 0.890287 0
M  V30 2554 C 246.613 1.18327 1.63839 0
M  V30 2555 C 246.934 -0.263455 1.93212 0
M  V30 2556 O 246.204 -1.17856 1.56482 0
M  V30 2557 H 244.784 0.434933 0.607324 0
M  V30 2558 H 247.446 1.631 1.06698 0
M  V30 2559 H 246.542 1.74024 2.59079 0
M  V30 2560 N 246.843 -1.10192 1.12674 0
M  V30 2561 C 248.12 -1.78717 0.794965 0
M  V30 2562 C 248.5 -1.98628 -0.714853 0
M  V30 2563 O 247.848 -1.58135 -1.64941 0
M  V30 2564 C 248.058 -3.11546 1.5729 0
M  V30 2565 C 249.406 -3.86382 1.76052 0
M  V30 2566 O 250.43 -3.21274 1.53823 0
M  V30 2567 O 249.289 -5.03246 2.13087 0
M  V30 2568 H 246.383 -0.774702 0.289423 0
M  V30 2569 H 248.929 -1.16819 1.23091 0
M  V30 2570 H 247.701 -2.92489 2.59935 0
M  V30 2571 H 247.324 -3.81164 1.13137 0
M  V30 2572 N 248.321 -0.919034 -1.28029 0
M  V30 2573 C 249.251 -0.428581 -2.29533 0
M  V30 2574 C 250.232 0.50659 -1.62381 0
M  V30 2575 O 251.417 0.413195 -1.89753 0
M  V30 2576 C 248.547 0.327388 -3.45753 0
M  V30 2577 C 247.501 -0.519137 -4.2484 0
M  V30 2578 C 246.827 0.365486 -5.33449 0
M  V30 2579 C 248.127 -1.77914 -4.91064 0
M  V30 2580 H 249.821 -1.27687 -2.70807 0
M  V30 2581 H 247.367 -0.615428 -1.30186 0
M  V30 2582 H 249.32 0.681378 -4.15855 0
M  V30 2583 H 248.044 1.20963 -3.03374 0
M  V30 2584 H 246.703 -0.855717 -3.56473 0
M  V30 2585 H 246.351 1.24642 -4.87312 0
M  V30 2586 H 246.051 -0.197356 -5.87268 0
M  V30 2587 H 247.575 0.715241 -6.06396 0
M  V30 2588 H 248.989 -1.49374 -5.53498 0
M  V30 2589 H 247.386 -2.2848 -5.54903 0
M  V30 2590 H 248.456 -2.50382 -4.15255 0
M  V30 2591 N 249.799 1.42003 -0.683588 0
M  V30 2592 C 250.729 2.33487 -0.024866 0
M  V30 2593 C 251.71 1.51163 0.779975 0
M  V30 2594 O 252.895 1.79739 0.735362 0
M  V30 2595 C 250.025 3.3487 0.920836 0
M  V30 2596 C 248.979 4.27414 0.223958 0
M  V30 2597 C 248.305 5.19074 1.2832 0
M  V30 2598 C 249.605 5.14445 -0.90242 0
M  V30 2599 H 251.299 2.88819 -0.788921 0
M  V30 2600 H 248.845 1.38873 -0.38083 0
M  V30 2601 H 250.798 3.97787 1.39081 0
M  V30 2602 H 249.522 2.77861 1.71642 0
M  V30 2603 H 248.181 3.65904 -0.225864 0
M  V30 2604 H 247.829 4.58387 2.071 0
M  V30 2605 H 247.529 5.81822 0.821995 0
M  V30 2606 H 249.053 5.84867 1.75392 0
M  V30 2607 H 250.467 5.70998 -0.513272 0
M  V30 2608 H 248.864 5.86072 -1.28997 0
M  V30 2609 H 249.934 4.52322 -1.74737 0
M  V30 2610 N 251.277 0.427512 1.51691 0
M  V30 2611 C 252.526 -0.143679 2.01188 0
M  V30 2612 C 252.839 -1.44642 1.31674 0
M  V30 2613 O 254.045 -2.09997 1.72086 0
M  V30 2614 C 252.501 -0.306602 3.58592 0
M  V30 2615 C 252.109 0.985125 4.37035 0
M  V30 2616 C 253.853 -0.832091 4.16265 0
M  V30 2617 C 251.76 0.788382 5.86122 0
M  V30 2618 H 250.69 -0.0574701 0.751807 0
M  V30 2619 H 253.341 0.555772 1.74881 0
M  V30 2620 H 251.723 -1.06882 3.81303 0
M  V30 2621 H 252.897 1.75492 4.26074 0
M  V30 2622 H 251.212 1.4384 3.90767 0
M  V30 2623 H 253.809 -0.995617 5.25349 0
M  V30 2624 H 254.152 -1.81186 3.74803 0
M  V30 2625 H 254.685 -0.128444 3.97593 0
M  V30 2626 H 251.424 1.74025 6.31978 0
M  V30 2627 H 250.944 0.0582143 5.99772 0
M  V30 2628 H 252.623 0.437722 6.45518 0
M  V30 2629 N 252.755 -1.56801 0.158532 0
M  V30 2630 C 253.705 -2.13923 -0.788738 0
M  V30 2631 C 254.689 -1.07006 -1.2016 0
M  V30 2632 O 255.881 -1.33159 -1.1661 0
M  V30 2633 C 253.01 -2.77348 -2.02319 0
M  V30 2634 C 252.096 -3.91404 -1.6329 0
M  V30 2635 N 252.487 -4.9677 -0.951463 0
M  V30 2636 C 250.785 -4.02326 -1.92482 0
M  V30 2637 C 251.486 -5.76698 -0.761221 0
M  V30 2638 N 250.462 -5.27859 -1.29869 0
M  V30 2639 H 254.264 -2.92757 -0.258995 0
M  V30 2640 H 251.778 -1.62344 -0.0426055 0
M  V30 2641 H 253.775 -3.16639 -2.71192 0
M  V30 2642 H 252.435 -1.99991 -2.558 0
M  V30 2643 H 253.446 -5.14284 -0.610928 0
M  V30 2644 H 250.123 -3.36059 -2.47732 0
M  V30 2645 H 251.513 -6.71529 -0.223284 0
M  V30 2646 N 254.233 0.115231 -1.57178 0
M  V30 2647 C 255.143 1.15994 -2.03918 0
M  V30 2648 C 256.159 1.45103 -0.960268 0
M  V30 2649 O 257.335 1.56144 -1.27204 0
M  V30 2650 C 254.4 2.46568 -2.43732 0
M  V30 2651 C 253.461 2.24822 -3.65723 0
M  V30 2652 C 252.694 3.4917 -4.03629 0
M  V30 2653 O 252.917 4.56623 -3.41835 0
M  V30 2654 O 251.851 3.39949 -4.96708 0
M  V30 2655 H 255.677 0.793019 -2.93164 0
M  V30 2656 H 253.262 0.3263 -1.45793 0
M  V30 2657 H 255.144 3.23492 -2.70057 0
M  V30 2658 H 253.819 2.82726 -1.57631 0
M  V30 2659 H 252.726 1.45744 -3.44542 0
M  V30 2660 H 254.059 1.93566 -4.52541 0
M  V30 2661 N 255.711 1.52812 0.385517 0
M  V30 2662 C 256.959 1.67694 1.12797 0
M  V30 2663 C 257.28 0.421115 1.90399 0
M  V30 2664 O 256.55 -0.564551 1.87589 0
M  V30 2665 H 255.13 0.618155 0.419396 0
M  V30 2666 H 257.792 1.89938 0.436972 0
M  V30 2667 H 256.888 2.52896 1.82894 0
M  V30 2668 N 257.189 -0.644168 1.43834 0
M  V30 2669 C 258.6 -1.22554 1.40845 0
M  V30 2670 C 258.951 -1.9585 0.117115 0
M  V30 2671 O 258.076 -2.01734 -0.783086 0
M  V30 2672 C 258.671 -2.22907 2.55143 0
M  V30 2673 C 257.23 -2.76501 2.5539 0
M  V30 2674 C 256.377 -1.51287 2.32396 0
M  V30 2675 H 259.328 -0.43563 1.52604 0
M  V30 2676 H 259.349 -3.05259 2.2715 0
M  V30 2677 H 258.861 -1.69533 3.49114 0
M  V30 2678 H 256.962 -3.33914 1.65324 0
M  V30 2679 H 257.075 -3.23429 3.53455 0
M  V30 2680 H 255.439 -1.78957 1.81236 0
M  V30 2681 H 256.222 -0.998336 3.28463 0
M  V30 2682 N 258.668 -1.30515 -0.883378 0
M  V30 2683 C 259.631 -1.1701 -1.97082 0
M  V30 2684 C 260.631 -0.10089 -1.60483 0
M  V30 2685 O 261.821 -0.349127 -1.70666 0
M  V30 2686 C 258.953 -0.793045 -3.31547 0
M  V30 2687 H 260.146 -2.13622 -2.10489 0
M  V30 2688 H 257.699 -1.13935 -1.06998 0
M  V30 2689 H 258.434 0.172499 -3.23841 0
M  V30 2690 H 258.219 -1.56576 -3.5948 0
M  V30 2691 H 259.709 -0.722073 -4.1131 0
M  V30 2692 N 260.146 1.09593 -1.13257 0
M  V30 2693 C 261.392 1.82003 -0.89458 0
M  V30 2694 C 261.725 1.85402 0.577906 0
M  V30 2695 O 261 1.32099 1.42759 0
M  V30 2696 C 261.283 3.28237 -1.48096 0
M  V30 2697 C 261.136 3.3312 -3.02244 0
M  V30 2698 C 262.455 4.24871 -1.14774 0
M  V30 2699 H 259.574 0.66077 -0.326424 0
M  V30 2700 H 262.216 1.28389 -1.40058 0
M  V30 2701 H 260.366 3.74024 -1.05062 0
M  V30 2702 H 262.038 2.95748 -3.54021 0
M  V30 2703 H 260.281 2.72756 -3.37323 0
M  V30 2704 H 260.952 4.3613 -3.38371 0
M  V30 2705 H 263.428 3.87361 -1.51957 0
M  V30 2706 H 262.304 5.25532 -1.58452 0
M  V30 2707 H 262.565 4.42058 -0.0611849 0
M  V30 2708 N 261.624 0.925811 1.2754 0
M  V30 2709 C 262.587 0.428129 2.25166 0
M  V30 2710 C 263.587 -0.452261 1.54309 0
M  V30 2711 O 264.777 -0.253608 1.72344 0
M  V30 2712 C 261.909 -0.384749 3.38722 0
M  V30 2713 H 263.102 1.29066 2.70706 0
M  V30 2714 H 260.655 0.706323 1.3943 0
M  V30 2715 H 261.39 -1.26618 2.98561 0
M  V30 2716 H 261.175 0.246454 3.91325 0
M  V30 2717 H 262.665 -0.723389 4.11287 0
M  V30 2718 N 263.102 -1.41638 0.69111 0
M  V30 2719 C 264.065 -2.29178 0.0319786 0
M  V30 2720 C 265.065 -1.44153 -0.712496 0
M  V30 2721 O 266.255 -1.65354 -0.548053 0
M  V30 2722 C 263.387 -3.26952 -0.965161 0
M  V30 2723 H 264.58 -2.88959 0.802681 0
M  V30 2724 H 262.133 -1.4955 0.454356 0
M  V30 2725 H 262.868 -2.72142 -1.76378 0
M  V30 2726 H 262.653 -3.89685 -0.434522 0
M  V30 2727 H 264.143 -3.92561 -1.42428 0
M  V30 2728 N 264.58 -0.43555 -1.51462 0
M  V30 2729 C 265.49 0.383001 -2.31453 0
M  V30 2730 C 266.506 1.02931 -1.4029 0
M  V30 2731 O 267.682 1.02507 -1.73362 0
M  V30 2732 C 264.747 1.47043 -3.13973 0
M  V30 2733 C 263.808 0.844433 -4.20913 0
M  V30 2734 C 263.041 1.88004 -4.9949 0
M  V30 2735 O 263.264 3.10199 -4.78678 0
M  V30 2736 O 262.198 1.47157 -5.83634 0
M  V30 2737 H 266.024 -0.269964 -3.02498 0
M  V30 2738 H 263.609 -0.19813 -1.4808 0
M  V30 2739 H 265.491 2.10113 -3.65281 0
M  V30 2740 H 264.166 2.10751 -2.45695 0
M  V30 2741 H 263.073 0.175729 -3.73687 0
M  V30 2742 H 264.406 0.250869 -4.9156 0
M  V30 2743 N 266.058 1.56714 -0.166846 0
M  V30 2744 C 267.005 2.17746 0.765193 0
M  V30 2745 C 267.975 1.11614 1.23011 0
M  V30 2746 O 269.16 1.39745 1.29908 0
M  V30 2747 C 266.3 2.81882 1.9909 0
M  V30 2748 C 265.413 4.02462 1.56997 0
M  V30 2749 C 264.548 4.54537 2.749 0
M  V30 2750 C 263.587 5.67538 2.29275 0
M  V30 2751 N 262.724 6.14142 3.40255 0
M  V30 2752 H 267.564 2.97048 0.237952 0
M  V30 2753 H 265.101 1.4672 0.105725 0
M  V30 2754 H 267.059 3.17221 2.70974 0
M  V30 2755 H 265.689 2.05191 2.49192 0
M  V30 2756 H 264.741 3.72973 0.748037 0
M  V30 2757 H 266.053 4.84273 1.19503 0
M  V30 2758 H 265.207 4.92035 3.54946 0
M  V30 2759 H 263.946 3.71774 3.1565 0
M  V30 2760 H 262.951 5.29597 1.47674 0
M  V30 2761 H 264.176 6.52099 1.89588 0
M  V30 2762 H 262.122 5.3431 3.8059 0
M  V30 2763 H 262.039 6.9093 3.06841 0
M  V30 2764 H 263.307 6.56289 4.206 0
M  V30 2765 N 267.536 -0.106894 1.57237 0
M  V30 2766 C 268.486 -1.1366 1.9765 0
M  V30 2767 C 269.47 -1.36416 0.853203 0
M  V30 2768 O 270.662 -1.37305 1.11697 0
M  V30 2769 C 267.791 -2.46 2.39455 0
M  V30 2770 C 266.877 -2.26668 3.58445 0
M  V30 2771 N 267.268 -1.77176 4.73754 0
M  V30 2772 C 265.566 -2.57279 3.64312 0
M  V30 2773 C 266.267 -1.71836 5.5574 0
M  V30 2774 N 265.243 -2.16623 4.98573 0
M  V30 2775 H 269.045 -0.74669 2.84256 0
M  V30 2776 H 266.559 -0.314483 1.59326 0
M  V30 2777 H 268.556 -3.2049 2.6663 0
M  V30 2778 H 267.216 -2.85738 1.54219 0
M  V30 2779 H 268.227 -1.46545 4.96734 0
M  V30 2780 H 264.904 -3.00622 2.89711 0
M  V30 2781 H 266.294 -1.34723 6.58255 0
M  V30 2782 N 269.014 -1.53014 -0.377408 0
M  V30 2783 C 269.977 -1.77957 -1.44444 0
M  V30 2784 C 270.977 -0.649763 -1.47087 0
M  V30 2785 O 272.167 -0.917897 -1.48055 0
M  V30 2786 C 269.299 -1.89089 -2.83651 0
M  V30 2787 H 270.492 -2.73243 -1.23606 0
M  V30 2788 H 268.045 -1.43912 -0.609844 0
M  V30 2789 H 268.78 -0.958293 -3.09818 0
M  V30 2790 H 268.565 -2.71254 -2.83132 0
M  V30 2791 H 270.055 -2.1002 -3.60945 0
M  V30 2792 N 270.492 0.636531 -1.44174 0
M  V30 2793 C 271.455 1.73063 -1.50273 0
M  V30 2794 C 272.455 1.56113 -0.385397 0
M  V30 2795 O 273.645 1.61707 -0.64781 0
M  V30 2796 C 270.777 3.12096 -1.37145 0
M  V30 2797 H 271.97 1.69031 -2.47727 0
M  V30 2798 H 269.523 0.849706 -1.31186 0
M  V30 2799 H 270.258 3.21728 -0.407636 0
M  V30 2800 H 270.043 3.25805 -2.18159 0
M  V30 2801 H 271.533 3.91846 -1.44382 0
M  V30 2802 N 271.97 1.30982 0.876444 0
M  V30 2803 C 273.386 1.09498 1.16113 0
M  V30 2804 C 273.586 -0.13875 2.01022 0
M  V30 2805 O 272.642 -0.829935 2.38471 0
M  V30 2806 C 273.955 2.36308 1.85954 0
M  V30 2807 C 275.503 2.41856 1.98683 0
M  V30 2808 C 275.978 3.6853 2.71937 0
M  V30 2809 N 277.469 3.69387 2.79477 0
M  V30 2810 C 278.204 4.64096 3.36753 0
M  V30 2811 N 277.7 5.69155 3.95012 0
M  V30 2812 N 279.493 4.51626 3.3465 0
M  V30 2813 H 271.644 2.10118 0.310494 0
M  V30 2814 H 273.907 0.926634 0.200131 0
M  V30 2815 H 273.613 3.26388 1.31011 0
M  V30 2816 H 273.487 2.4561 2.86278 0
M  V30 2817 H 275.874 1.52249 2.52793 0
M  V30 2818 H 275.955 2.36523 0.9742 0
M  V30 2819 H 275.599 4.58499 2.18496 0
M  V30 2820 H 275.529 3.71127 3.73593 0
M  V30 2821 H 278.02 2.93438 2.38123 0
M  V30 2822 H 278.333 6.3751 4.36808 0
M  V30 2823 H 276.678 5.72937 3.93406 0
M  V30 2824 H 279.869 3.68728 2.8837 0
M  V30 2825 H 280.042 5.25614 3.7899 0
M  V30 2826 N 273.449 -1.08991 1.13837 0
M  V30 2827 C 274.695 -1.81526 0.90422 0
M  V30 2828 C 275.028 -1.85706 -0.568066 0
M  V30 2829 O 274.303 -1.32855 -1.42056 0
M  V30 2830 C 274.586 -3.27447 1.49835 0
M  V30 2831 C 274.439 -3.31512 3.04006 0
M  V30 2832 C 275.758 -4.24256 1.17025 0
M  V30 2833 H 272.877 -0.659029 0.329923 0
M  V30 2834 H 275.519 -1.27644 1.40737 0
M  V30 2835 H 273.669 -3.73462 1.07044 0
M  V30 2836 H 275.341 -2.93867 3.55584 0
M  V30 2837 H 273.584 -2.70963 3.38765 0
M  V30 2838 H 274.255 -4.34329 3.40679 0
M  V30 2839 H 276.731 -3.86549 1.54009 0
M  V30 2840 H 275.607 -5.24684 1.61237 0
M  V30 2841 H 275.868 -4.42019 0.0846274 0
M  V30 2842 N 274.927 -0.932562 -1.27047 0
M  V30 2843 C 276.157 -0.591173 -1.97961 0
M  V30 2844 C 276.565 0.836219 -1.69717 0
M  V30 2845 O 275.908 1.56801 -0.957036 0
M  V30 2846 C 275.97 -0.743082 -3.51736 0
M  V30 2847 C 275.634 -2.1435 -4.03613 0
M  V30 2848 C 276.631 -3.11815 -4.16014 0
M  V30 2849 C 274.316 -2.46175 -4.37839 0
M  V30 2850 C 276.31 -4.39211 -4.61923 0
M  V30 2851 C 273.997 -3.73806 -4.83438 0
M  V30 2852 C 274.995 -4.70137 -4.95439 0
M  V30 2853 O 274.683 -5.95496 -5.40037 0
M  V30 2854 H 274.415 -0.222375 -0.638377 0
M  V30 2855 H 276.969 -1.25317 -1.62742 0
M  V30 2856 H 275.199 -0.0239739 -3.86693 0
M  V30 2857 H 276.888 -0.40603 -4.03864 0
M  V30 2858 H 277.654 -2.88549 -3.89826 0
M  V30 2859 H 273.533 -1.71936 -4.27737 0
M  V30 2860 H 277.077 -5.14404 -4.71205 0
M  V30 2861 H 272.974 -3.96888 -5.09068 0
M  V30 2862 H 273.742 -5.98554 -5.58279 0
M  V30 2863 N 276.405 1.4127 -0.698611 0
M  V30 2864 C 277.353 2.32588 -0.023855 0
M  V30 2865 C 278.347 1.51128 0.765292 0
M  V30 2866 O 279.553 1.67043 0.670571 0
M  V30 2867 H 275.928 0.751918 0.0110871 0
M  V30 2868 H 277.899 2.87167 -0.811031 0
M  V30 2869 C 276.648 3.35947 0.896369 0
M  V30 2870 H 275.971 3.98684 0.298548 0
M  V30 2871 H 277.411 4.02376 1.33676 0
M  V30 2872 C 275.87 2.70076 2.01396 0
M  V30 2873 O 276.4 2.55093 3.10307 0
M  V30 2874 N 274.606 2.28724 1.79259 0
M  V30 2875 H 274.153 2.4111 0.906841 0
M  V30 2876 H 274.111 1.84986 2.54219 0
M  V30 2877 N 277.883 0.443576 1.51229 0
M  V30 2878 C 278.846 -0.353132 2.26463 0
M  V30 2879 C 279.846 -0.944338 1.3015 0
M  V30 2880 O 281.036 -0.817813 1.5381 0
M  V30 2881 C 278.168 -1.50023 3.06114 0
M  V30 2882 H 279.361 0.3063 2.98332 0
M  V30 2883 H 276.914 0.196902 1.55055 0
M  V30 2884 H 277.649 -2.19553 2.38677 0
M  V30 2885 H 277.434 -1.08241 3.76864 0
M  V30 2886 H 278.924 -2.06296 3.63087 0
M  V30 2887 N 279.361 -1.56624 0.175154 0
M  V30 2888 C 280.638 -1.88688 -0.515373 0
M  V30 2889 C 281.018 -1.08564 -1.81044 0
M  V30 2890 O 280.366 -0.180703 -2.27784 0
M  V30 2891 C 280.576 -3.40768 -0.753552 0
M  V30 2892 C 281.924 -4.10587 -1.08184 0
M  V30 2893 O 282.948 -3.46106 -0.841961 0
M  V30 2894 O 281.807 -5.24512 -1.53459 0
M  V30 2895 H 278.901 -0.78301 -0.26613 0
M  V30 2896 H 281.447 -1.68347 0.213877 0
M  V30 2897 H 280.219 -3.90965 0.161829 0
M  V30 2898 H 279.842 -3.66733 -1.53598 0
M  V30 2899 N 280.839 0.0985539 -1.57292 0
M  V30 2900 C 281.786 1.11981 -2.01814 0
M  V30 2901 C 282.756 1.39999 -0.89384 0
M  V30 2902 O 283.941 1.5152 -1.15958 0
M  V30 2903 C 281.081 2.43577 -2.44467 0
M  V30 2904 C 280.194 2.2232 -3.70402 0
M  V30 2905 C 279.329 3.4729 -4.01949 0
M  V30 2906 C 278.368 3.2128 -5.21005 0
M  V30 2907 N 277.505 4.38507 -5.48321 0
M  V30 2908 H 282.345 0.733149 -2.88841 0
M  V30 2909 H 279.882 0.350482 -1.42864 0
M  V30 2910 H 281.84 3.20373 -2.6724 0
M  V30 2911 H 280.47 2.80097 -1.60455 0
M  V30 2912 H 279.522 1.36343 -3.55126 0
M  V30 2913 H 280.834 1.99089 -4.57345 0
M  V30 2914 H 279.988 4.32495 -4.25479 0
M  V30 2915 H 278.727 3.73572 -3.13521 0
M  V30 2916 H 277.732 2.34468 -4.97298 0
M  V30 2917 H 278.957 2.96348 -6.11028 0
M  V30 2918 H 276.903 4.64871 -4.62851 0
M  V30 2919 H 276.82 4.18455 -6.29628 0
M  V30 2920 H 278.088 5.24787 -5.76385 0
M  V30 2921 N 282.317 1.53212 0.369288 0
M  V30 2922 C 283.545 1.73119 1.13303 0
M  V30 2923 C 283.96 0.458455 1.83149 0
M  V30 2924 O 283.317 -0.568403 1.73423 0
M  V30 2925 C 283.368 2.89413 2.16616 0
M  V30 2926 O 283.089 4.11761 1.49614 0
M  V30 2927 C 284.59 3.21161 3.05566 0
M  V30 2928 H 281.81 0.579107 0.338934 0
M  V30 2929 H 284.354 1.99942 0.429338 0
M  V30 2930 H 282.509 2.64994 2.82589 0
M  V30 2931 H 282.923 4.76858 2.18419 0
M  V30 2932 H 284.397 4.05949 3.74045 0
M  V30 2933 H 284.874 2.36369 3.70171 0
M  V30 2934 H 285.48 3.47492 2.45213 0
M  V30 2935 N 283.795 -0.628877 1.44509 0
M  V30 2936 C 285.025 -1.41349 1.50678 0
M  V30 2937 C 285.433 -1.88745 0.131075 0
M  V30 2938 O 284.776 -1.61592 -0.87371 0
M  V30 2939 C 284.838 -2.66608 2.41165 0
M  V30 2940 C 284.502 -2.40993 3.88293 0
M  V30 2941 C 285.499 -2.0268 4.78766 0
M  V30 2942 C 283.184 -2.54563 4.33016 0
M  V30 2943 C 285.178 -1.78269 6.11963 0
M  V30 2944 C 282.865 -2.29766 5.6626 0
M  V30 2945 C 283.863 -1.91678 6.55552 0
M  V30 2946 O 283.551 -1.67158 7.86329 0
M  V30 2947 H 283.283 -0.439851 0.51333 0
M  V30 2948 H 285.837 -0.776084 1.90174 0
M  V30 2949 H 284.067 -3.32994 1.96601 0
M  V30 2950 H 285.756 -3.28615 2.38259 0
M  V30 2951 H 286.522 -1.91751 4.45485 0
M  V30 2952 H 282.401 -2.83179 3.63773 0
M  V30 2953 H 285.945 -1.48465 6.81619 0
M  V30 2954 H 281.842 -2.40306 5.99102 0
M  V30 2955 H 282.61 -1.81386 7.98149 0
M  V30 2956 N 285.273 -1.31445 -0.869486 0
M  V30 2957 C 286.52 -1.21158 -1.62256 0
M  V30 2958 C 286.848 0.230155 -1.93133 0
M  V30 2959 O 286.103 1.17906 -1.56194 0
M  V30 2960 C 286.402 -2.00145 -2.96102 0
M  V30 2961 C 286.068 -3.4964 -2.84715 0
M  V30 2962 C 284.73 -3.90403 -2.81317 0
M  V30 2963 C 287.082 -4.44769 -2.71716 0
M  V30 2964 C 284.41 -5.24561 -2.62778 0
M  V30 2965 C 286.762 -5.79054 -2.54714 0
M  V30 2966 C 285.426 -6.19037 -2.49699 0
M  V30 2967 H 284.696 -0.443348 -0.593737 0
M  V30 2968 H 287.343 -1.62715 -1.00976 0
M  V30 2969 H 285.648 -1.5127 -3.6142 0
M  V30 2970 H 287.345 -1.89566 -3.53363 0
M  V30 2971 H 283.935 -3.17256 -2.88178 0
M  V30 2972 H 288.119 -4.14208 -2.73397 0
M  V30 2973 H 283.375 -5.54613 -2.57321 0
M  V30 2974 H 287.549 -6.52393 -2.43632 0
M  V30 2975 H 285.176 -7.22935 -2.35093 0
M  V30 2976 N 286.751 1.08385 -1.14413 0
M  V30 2977 C 287.997 1.81044 -0.913834 0
M  V30 2978 C 288.33 1.86004 0.558209 0
M  V30 2979 O 287.605 1.33606 1.4135 0
M  V30 2980 C 287.888 3.26648 -1.51569 0
M  V30 2981 C 287.741 3.29895 -3.0576 0
M  V30 2982 C 289.06 4.23629 -1.19273 0
M  V30 2983 H 286.179 0.65727 -0.333414 0
M  V30 2984 H 288.821 1.26896 -1.41412 0
M  V30 2985 H 286.971 3.72889 -1.09023 0
M  V30 2986 H 288.643 2.91977 -3.57137 0
M  V30 2987 H 286.886 2.69163 -3.40197 0
M  V30 2988 H 287.557 4.32516 -3.42977 0
M  V30 2989 H 290.033 3.85727 -1.56057 0
M  V30 2990 H 288.909 5.23822 -1.64017 0
M  V30 2991 H 289.17 4.41968 -0.108068 0
M  V30 2992 N 288.23 0.939286 1.26551 0
M  V30 2993 C 289.16 0.465044 2.28822 0
M  V30 2994 C 290.141 -0.480692 1.63167 0
M  V30 2995 O 291.326 -0.382955 1.90387 0
M  V30 2996 C 288.456 -0.27234 3.46231 0
M  V30 2997 C 287.41 0.58666 4.2396 0
M  V30 2998 C 286.736 -0.280573 5.33963 0
M  V30 2999 C 288.036 1.85704 4.88171 0
M  V30 3000 H 289.73 1.31979 2.68741 0
M  V30 3001 H 287.276 0.636061 1.29191 0
M  V30 3002 H 289.229 -0.615133 4.16886 0
M  V30 3003 H 287.953 -1.16121 3.0526 0
M  V30 3004 H 286.612 0.91232 3.55067 0
M  V30 3005 H 286.26 -1.16874 4.89234 0
M  V30 3006 H 285.96 0.29076 5.8688 0
M  V30 3007 H 287.484 -0.618678 6.07458 0
M  V30 3008 H 288.898 1.58161 5.51052 0
M  V30 3009 H 287.295 2.37279 5.51197 0
M  V30 3010 H 288.365 2.56957 4.11219 0
M  V30 3011 N 289.708 -1.40897 0.706093 0
M  V30 3012 C 290.956 -2.00657 0.241054 0
M  V30 3013 C 291.277 -1.56241 -1.16678 0
M  V30 3014 O 290.547 -0.79765 -1.78926 0
M  V30 3015 H 289.127 -0.742018 0.0861308 0
M  V30 3016 H 291.789 -1.72372 0.909604 0
M  V30 3017 H 290.885 -3.10958 0.266705 0
M  V30 3018 N 291.186 -0.45159 -1.50991 0
M  V30 3019 C 292.434 0.109857 -2.01801 0
M  V30 3020 C 292.755 1.41958 -1.3369 0
M  V30 3021 O 292.025 1.9003 -0.475951 0
M  V30 3022 H 290.605 0.0435884 -0.745727 0
M  V30 3023 H 293.267 -0.597557 -1.85514 0
M  V30 3024 H 292.363 0.275489 -3.10882 0
M  V30 3025 N 292.664 1.56529 -0.183458 0
M  V30 3026 C 293.889 2.02064 0.467428 0
M  V30 3027 C 294.314 1.06282 1.55196 0
M  V30 3028 O 293.672 0.0443565 1.81246 0
M  V30 3029 C 293.72 3.46122 1.01153 0
M  V30 3030 O 292.824 3.53437 2.12499 0
M  V30 3031 H 292.165 0.654726 0.110588 0
M  V30 3032 H 294.695 2.02521 -0.290917 0
M  V30 3033 H 294.705 3.85676 1.33108 0
M  V30 3034 H 293.38 4.15331 0.217533 0
M  V30 3035 H 291.957 3.2575 1.81497 0
M  V30 3036 N 294.142 -0.090211 1.57342 0
M  V30 3037 C 295.367 -0.810082 1.90925 0
M  V30 3038 C 295.792 -1.71248 0.778187 0
M  V30 3039 O 295.15 -1.79278 -0.269991 0
M  V30 3040 C 295.198 -1.59529 3.23393 0
M  V30 3041 O 294.302 -2.70461 3.11327 0
M  V30 3042 H 293.643 -0.222231 0.625707 0
M  V30 3043 H 296.173 -0.0639716 2.045 0
M  V30 3044 H 296.183 -1.97847 3.5682 0
M  V30 3045 H 294.858 -0.933055 4.05299 0
M  V30 3046 H 293.435 -2.35135 2.89423 0
M  V30 3047 N 295.62 -1.53406 -0.361157 0
M  V30 3048 C 296.568 -1.80832 -1.46296 0
M  V30 3049 C 297.562 -0.677699 -1.55253 0
M  V30 3050 O 298.768 -0.860723 -1.58087 0
M  V30 3051 H 295.143 -0.572627 -0.487445 0
M  V30 3052 H 297.114 -2.73045 -1.20371 0
M  V30 3053 C 295.863 -2.01907 -2.8307 0
M  V30 3054 H 295.186 -2.88349 -2.76938 0
M  V30 3055 H 296.626 -2.25072 -3.59331 0
M  V30 3056 C 295.085 -0.799449 -3.27277 0
M  V30 3057 O 295.615 0.00971761 -4.01699 0
M  V30 3058 N 293.821 -0.621637 -2.83873 0
M  V30 3059 H 293.368 -1.28126 -2.23476 0
M  V30 3060 H 293.326 0.19298 -3.13807 0
M  V30 3061 N 297.098 0.621204 -1.44841 0
M  V30 3062 C 298.061 1.71459 -1.521 0
M  V30 3063 C 299.061 1.55696 -0.401933 0
M  V30 3064 O 300.251 1.61011 -0.664925 0
M  V30 3065 C 297.383 3.10624 -1.40447 0
M  V30 3066 H 298.576 1.66394 -2.49506 0
M  V30 3067 H 296.129 0.835745 -1.3208 0
M  V30 3068 H 296.864 3.21277 -0.441737 0
M  V30 3069 H 296.649 3.23473 -2.21602 0
M  V30 3070 H 298.139 3.90293 -1.4853 0
M  V30 3071 N 298.576 1.31904 0.862503 0
M  V30 3072 C 299.524 1.20125 1.9918 0
M  V30 3073 C 300.518 0.107824 1.69056 0
M  V30 3074 O 301.724 0.270223 1.7796 0
M  V30 3075 H 298.099 0.372148 0.65346 0
M  V30 3076 H 300.07 2.15652 2.06244 0
M  V30 3077 C 298.819 0.933099 3.34946 0
M  V30 3078 H 298.142 1.76664 3.5865 0
M  V30 3079 H 299.582 0.890892 4.14535 0
M  V30 3080 C 298.041 -0.364172 3.34926 0
M  V30 3081 O 298.571 -1.37858 3.77304 0
M  V30 3082 N 296.777 -0.383362 2.8806 0
M  V30 3083 H 296.324 0.442651 2.53768 0
M  V30 3084 H 296.282 -1.25123 2.8843 0
M  V30 3085 N 300.054 -1.07777 1.14986 0
M  V30 3086 C 301.002 -2.16964 0.838406 0
M  V30 3087 C 301.996 -1.68372 -0.186386 0
M  V30 3088 O 303.202 -1.79951 -0.0418465 0
M  V30 3089 H 299.577 -0.708006 0.253439 0
M  V30 3090 H 301.548 -2.40454 1.76704 0
M  V30 3091 C 300.297 -3.4604 0.339335 0
M  V30 3092 H 299.62 -3.83813 1.11927 0
M  V30 3093 H 301.06 -4.23698 0.160021 0
M  V30 3094 C 299.519 -3.23569 -0.938325 0
M  V30 3095 O 300.049 -3.47752 -2.01077 0
M  V30 3096 N 298.255 -2.77079 -0.876117 0
M  V30 3097 H 297.802 -2.576 -0.00322037 0
M  V30 3098 H 297.76 -2.62422 -1.73153 0
M  V30 3099 N 301.532 -0.945985 -1.26051 0
M  V30 3100 C 302.76 -0.613025 -1.9761 0
M  V30 3101 C 303.175 0.813035 -1.70397 0
M  V30 3102 O 302.532 1.54274 -0.974979 0
M  V30 3103 C 302.583 -0.85159 -3.51326 0
M  V30 3104 O 302.304 -2.22157 -3.77595 0
M  V30 3105 C 303.805 -0.529831 -4.40122 0
M  V30 3106 H 301.025 -0.230593 -0.630133 0
M  V30 3107 H 303.569 -1.268 -1.60443 0
M  V30 3108 H 301.724 -0.243151 -3.86636 0
M  V30 3109 H 302.138 -2.2852 -4.721 0
M  V30 3110 H 303.612 -0.747348 -5.46917 0
M  V30 3111 H 304.089 0.535341 -4.35925 0
M  V30 3112 H 304.695 -1.11721 -4.10364 0
M  V30 3113 N 303.011 1.40521 -0.713556 0
M  V30 3114 C 304.257 2.01221 -0.252564 0
M  V30 3115 C 304.59 1.56444 1.1506 0
M  V30 3116 O 303.865 0.783597 1.78017 0
M  V30 3117 C 304.148 3.58582 -0.330332 0
M  V30 3118 C 304.001 4.13437 -1.77173 0
M  V30 3119 C 305.32 4.39079 0.299641 0
M  V30 3120 H 302.439 0.731077 -0.0932471 0
M  V30 3121 H 305.081 1.67026 -0.905673 0
M  V30 3122 H 303.231 3.87844 0.225737 0
M  V30 3123 H 304.903 3.9498 -2.38303 0
M  V30 3124 H 303.146 3.67801 -2.3001 0
M  V30 3125 H 303.817 5.22597 -1.77755 0
M  V30 3126 H 306.293 4.15735 -0.174139 0
M  V30 3127 H 305.169 5.4848 0.214771 0
M  V30 3128 H 305.43 4.19915 1.38288 0
M  V30 3129 N 304.489 0.459591 1.5075 0
M  V30 3130 C 305.717 -0.0973749 2.06671 0
M  V30 3131 C 306.132 -1.34524 1.32472 0
M  V30 3132 O 305.489 -1.7827 0.390634 0
M  V30 3133 C 305.54 -0.39714 3.59312 0
M  V30 3134 O 305.261 0.801214 4.30711 0
M  V30 3135 C 306.762 -1.00234 4.31819 0
M  V30 3136 H 303.982 0.00195854 0.670997 0
M  V30 3137 H 306.526 0.645072 1.94059 0
M  V30 3138 H 304.681 -1.08951 3.71764 0
M  V30 3139 H 305.095 0.538857 5.21725 0
M  V30 3140 H 306.569 -1.16193 5.39632 0
M  V30 3141 H 307.046 -1.98939 3.91561 0
M  V30 3142 H 307.652 -0.348699 4.23868 0
M  V30 3143 N 305.967 -1.56429 0.191757 0
M  V30 3144 C 307.192 -2.02309 -0.456706 0
M  V30 3145 C 307.617 -1.07103 -1.5463 0
M  V30 3146 O 306.975 -0.0539677 -1.8122 0
M  V30 3147 C 307.023 -3.46654 -0.993159 0
M  V30 3148 O 306.127 -3.54559 -2.10622 0
M  V30 3149 H 305.468 -0.655303 -0.107114 0
M  V30 3150 H 307.998 -2.02364 0.301653 0
M  V30 3151 H 308.008 -3.86377 -1.31061 0
M  V30 3152 H 306.683 -4.1544 -0.195504 0
M  V30 3153 H 305.26 -3.26708 -1.79767 0
M  V30 3154 N 307.445 0.0818655 -1.57387 0
M  V30 3155 C 308.408 1.08265 -2.02018 0
M  V30 3156 C 309.408 1.32183 -0.915664 0
M  V30 3157 O 310.598 1.28073 -1.18081 0
M  V30 3158 C 307.73 2.42871 -2.39221 0
M  V30 3159 H 308.923 0.698204 -2.91659 0
M  V30 3160 H 306.476 0.327303 -1.52835 0
M  V30 3161 H 307.211 2.86167 -1.52575 0
M  V30 3162 H 306.996 2.26855 -3.19811 0
M  V30 3163 H 308.486 3.14826 -2.74362 0
M  V30 3164 N 308.923 1.53595 0.353017 0
M  V30 3165 C 309.853 1.83902 1.43883 0
M  V30 3166 C 310.834 0.693421 1.55324 0
M  V30 3167 O 312.019 0.944452 1.69687 0
M  V30 3168 C 309.149 2.04016 2.8106 0
M  V30 3169 C 308.103 3.19814 2.84434 0
M  V30 3170 C 307.429 3.25244 4.24406 0
M  V30 3171 C 308.729 4.58133 2.50822 0
M  V30 3172 H 310.423 2.74835 1.1877 0
M  V30 3173 H 307.969 1.32242 0.569917 0
M  V30 3174 H 309.922 2.238 3.57059 0
M  V30 3175 H 308.646 1.09804 3.07588 0
M  V30 3176 H 307.305 2.9987 2.10887 0
M  V30 3177 H 306.953 2.28646 4.48029 0
M  V30 3178 H 306.653 4.03054 4.27576 0
M  V30 3179 H 308.177 3.47228 5.0226 0
M  V30 3180 H 309.591 4.77995 3.16534 0
M  V30 3181 H 307.988 5.38276 2.6529 0
M  V30 3182 H 309.058 4.62387 1.46034 0
M  V30 3183 N 310.401 -0.613514 1.45168 0
M  V30 3184 C 311.647 -1.37471 1.49096 0
M  V30 3185 C 311.98 -1.93765 0.129901 0
M  V30 3186 O 311.255 -1.74707 -0.854858 0
M  V30 3187 C 311.538 -2.52701 2.56542 0
M  V30 3188 C 311.391 -2.01643 4.0207 0
M  V30 3189 C 312.71 -3.54849 2.60327 0
M  V30 3190 H 309.829 -0.498502 0.54283 0
M  V30 3191 H 312.471 -0.692125 1.76945 0
M  V30 3192 H 310.621 -3.10931 2.32926 0
M  V30 3193 H 312.293 -1.48108 4.36877 0
M  V30 3194 H 310.536 -1.32688 4.13009 0
M  V30 3195 H 311.207 -2.84681 4.72928 0
M  V30 3196 H 313.683 -3.0645 2.81474 0
M  V30 3197 H 312.559 -4.32973 3.37381 0
M  V30 3198 H 312.82 -4.10079 1.6519 0
M  V30 3199 N 311.879 -1.3236 -0.855495 0
M  V30 3200 C 313.104 -1.2601 -1.64731 0
M  V30 3201 C 313.529 0.169068 -1.87339 0
M  V30 3202 O 312.887 1.12016 -1.42556 0
M  V30 3203 C 312.935 -2.02417 -2.98429 0
M  V30 3204 O 312.039 -1.3714 -3.8893 0
M  V30 3205 H 311.38 -0.434325 -0.502253 0
M  V30 3206 H 313.91 -1.74661 -1.06558 0
M  V30 3207 H 313.92 -2.12559 -3.48257 0
M  V30 3208 H 312.595 -3.06343 -2.81295 0
M  V30 3209 H 311.172 -1.3554 -3.47395 0
M  V30 3210 N 313.357 1.07166 -1.15556 0
M  V30 3211 C 314.305 2.16517 -0.8499 0
M  V30 3212 C 315.299 1.68468 0.177454 0
M  V30 3213 O 316.505 1.79971 0.0323026 0
M  V30 3214 H 312.88 0.706652 -0.25719 0
M  V30 3215 H 314.851 2.39514 -1.77976 0
M  V30 3216 C 313.6 3.45855 -0.357682 0
M  V30 3217 H 312.923 3.83214 -1.13961 0
M  V30 3218 H 314.363 4.23607 -0.182489 0
M  V30 3219 C 312.822 3.24062 0.921152 0
M  V30 3220 O 313.352 3.48813 1.9923 0
M  V30 3221 N 311.558 2.77539 0.86141 0
M  V30 3222 H 311.105 2.57598 -0.0104408 0
M  V30 3223 H 311.063 2.63337 1.71758 0
M  V30 3224 N 314.835 0.952656 1.25548 0
M  V30 3225 C 316.083 0.605176 1.92826 0
M  V30 3226 C 316.404 -0.860261 1.74999 0
M  V30 3227 O 315.674 -1.6125 1.11244 0
M  V30 3228 H 314.254 0.220832 0.713612 0
M  V30 3229 H 316.916 1.21047 1.52754 0
M  V30 3230 H 316.012 0.832798 3.00784 0
M  V30 3231 N 316.313 -1.40141 0.720998 0
M  V30 3232 C 317.59 -1.94677 0.189757 0
M  V30 3233 C 317.97 -1.65879 -1.30566 0
M  V30 3234 O 317.318 -0.979391 -2.06447 0
M  V30 3235 C 317.528 -3.45279 0.508304 0
M  V30 3236 C 318.876 -4.22209 0.449934 0
M  V30 3237 O 319.9 -3.53413 0.444677 0
M  V30 3238 O 318.759 -5.44788 0.432189 0
M  V30 3239 H 315.853 -0.826459 0.0299026 0
M  V30 3240 H 318.399 -1.49719 0.7989 0
M  V30 3241 H 317.171 -3.59619 1.54239 0
M  V30 3242 H 316.794 -3.97386 -0.130525 0
M  V30 3243 N 317.792 -0.46758 -1.50504 0
M  V30 3244 C 318.722 0.318381 -2.31319 0
M  V30 3245 C 319.703 0.993564 -1.38066 0
M  V30 3246 O 320.888 0.991411 -1.66987 0
M  V30 3247 C 318.018 1.40275 -3.17711 0
M  V30 3248 C 316.972 0.849373 -4.19487 0
M  V30 3249 C 316.298 2.03177 -4.94594 0
M  V30 3250 C 317.598 -0.136942 -5.2212 0
M  V30 3251 H 319.292 -0.356106 -2.97275 0
M  V30 3252 H 316.838 -0.172703 -1.42961 0
M  V30 3253 H 318.791 1.96004 -3.73042 0
M  V30 3254 H 317.515 2.10596 -2.49634 0
M  V30 3255 H 316.174 0.314076 -3.65252 0
M  V30 3256 H 315.822 2.72187 -4.22993 0
M  V30 3257 H 315.522 1.66774 -5.63436 0
M  V30 3258 H 317.046 2.59403 -5.52759 0
M  V30 3259 H 318.46 0.331056 -5.72343 0
M  V30 3260 H 316.857 -0.41507 -5.98663 0
M  V30 3261 H 317.927 -1.06398 -4.73083 0
M  V30 3262 N 319.27 1.56325 -0.20005 0
M  V30 3263 C 320.516 1.98012 0.438059 0
M  V30 3264 C 320.849 1.08702 1.60927 0
M  V30 3265 O 320.124 0.140064 1.93995 0
M  V30 3266 C 320.407 3.48841 0.893419 0
M  V30 3267 C 320.26 4.48928 -0.279947 0
M  V30 3268 C 321.579 4.03498 1.75719 0
M  V30 3269 H 318.698 0.719918 0.157757 0
M  V30 3270 H 321.34 1.87743 -0.291968 0
M  V30 3271 H 319.49 3.57723 1.51547 0
M  V30 3272 H 321.162 4.52079 -0.91772 0
M  V30 3273 H 319.405 4.23694 -0.930919 0
M  V30 3274 H 320.076 5.5194 0.0812601 0
M  V30 3275 H 322.552 3.97427 1.23253 0
M  V30 3276 H 321.428 5.09393 2.04476 0
M  V30 3277 H 321.689 3.4906 2.71311 0
M  V30 3278 N 320.748 -0.0735177 1.57428 0
M  V30 3279 C 321.678 -1.0879 2.06608 0
M  V30 3280 C 322.659 -1.40473 0.959237 0
M  V30 3281 O 323.844 -1.5013 1.23185 0
M  V30 3282 C 320.974 -2.40183 2.50857 0
M  V30 3283 C 319.928 -2.22858 3.65402 0
M  V30 3284 C 319.254 -3.59619 3.957 0
M  V30 3285 C 320.554 -1.65123 4.95511 0
M  V30 3286 H 322.248 -0.678673 2.91607 0
M  V30 3287 H 319.794 -0.325013 1.40284 0
M  V30 3288 H 321.747 -3.11437 2.83874 0
M  V30 3289 H 320.471 -2.83083 1.62885 0
M  V30 3290 H 319.13 -1.54045 3.32664 0
M  V30 3291 H 318.778 -4.00086 3.04861 0
M  V30 3292 H 318.478 -3.48866 4.72828 0
M  V30 3293 H 320.002 -4.32306 4.31212 0
M  V30 3294 H 321.416 -2.26241 5.26771 0
M  V30 3295 H 319.813 -1.65071 5.7695 0
M  V30 3296 H 320.883 -0.612559 4.81015 0
M  V30 3297 N 322.226 -1.5378 -0.344866 0
M  V30 3298 C 323.473 -1.70963 -1.08526 0
M  V30 3299 C 323.801 -0.472126 -1.88683 0
M  V30 3300 O 323.056 0.546116 -1.87926 0
M  V30 3301 C 323.355 -2.92407 -2.05506 0
M  V30 3302 C 323.021 -4.28066 -1.41671 0
M  V30 3303 C 321.683 -4.64951 -1.2399 0
M  V30 3304 C 324.035 -5.12344 -0.956726 0
M  V30 3305 C 321.363 -5.83733 -0.589277 0
M  V30 3306 C 323.715 -6.3179 -0.320015 0
M  V30 3307 C 322.379 -6.67372 -0.130881 0
M  V30 3308 H 321.649 -0.625598 -0.397124 0
M  V30 3309 H 324.296 -1.87995 -0.36469 0
M  V30 3310 H 322.601 -2.69973 -2.8394 0
M  V30 3311 H 324.298 -3.02895 -2.62784 0
M  V30 3312 H 320.888 -3.99034 -1.56429 0
M  V30 3313 H 325.072 -4.8438 -1.08118 0
M  V30 3314 H 320.328 -6.09877 -0.431344 0
M  V30 3315 H 324.502 -6.96386 0.0445072 0
M  V30 3316 H 322.129 -7.59273 0.375318 0
M  V30 3317 N 323.704 0.605807 -1.45491 0
M  V30 3318 C 324.981 1.36522 -1.40075 0
M  V30 3319 C 325.361 2.10976 -0.0722744 0
M  V30 3320 O 324.709 2.08007 0.945808 0
M  V30 3321 C 324.919 2.31056 -2.61561 0
M  V30 3322 C 326.267 2.93608 -3.06724 0
M  V30 3323 O 327.291 2.41376 -2.61946 0
M  V30 3324 O 326.15 3.88421 -3.84437 0
M  V30 3325 H 323.244 0.612248 -0.555951 0
M  V30 3326 H 325.79 0.628747 -1.57623 0
M  V30 3327 H 324.562 1.75311 -3.49831 0
M  V30 3328 H 324.185 3.12081 -2.46356 0
M  V30 3329 N 325.182 1.32811 0.848464 0
M  V30 3330 C 326.598 1.11937 1.13764 0
M  V30 3331 C 326.798 -0.0960789 2.01271 0
M  V30 3332 O 325.854 -0.779165 2.40178 0
M  V30 3333 C 327.167 2.402 1.809 0
M  V30 3334 C 328.715 2.46016 1.93508 0
M  V30 3335 C 329.19 3.74215 2.64059 0
M  V30 3336 N 330.681 3.75232 2.71579 0
M  V30 3337 C 331.416 4.71134 3.26833 0
M  V30 3338 N 330.912 5.77406 3.8285 0
M  V30 3339 N 332.705 4.58623 3.24995 0
M  V30 3340 H 324.856 2.1073 0.265855 0
M  V30 3341 H 327.119 0.930671 0.180431 0
M  V30 3342 H 326.825 3.29093 1.24058 0
M  V30 3343 H 326.699 2.51628 2.81004 0
M  V30 3344 H 329.086 1.57577 2.49506 0
M  V30 3345 H 329.167 2.38536 0.923811 0
M  V30 3346 H 328.811 4.63031 2.08722 0
M  V30 3347 H 328.741 3.78968 3.65637 0
M  V30 3348 H 331.232 2.98423 2.31845 0
M  V30 3349 H 331.545 6.46632 4.23187 0
M  V30 3350 H 329.89 5.81152 3.81165 0
M  V30 3351 H 333.081 3.74762 2.80484 0
M  V30 3352 H 333.254 5.33535 3.67756 0
M  V30 3353 N 326.66 -1.06551 1.16123 0
M  V30 3354 C 327.608 -2.16063 0.861371 0
M  V30 3355 C 328.602 -1.6856 -0.168517 0
M  V30 3356 O 329.808 -1.79986 -0.0227579 0
M  V30 3357 H 326.183 -0.705278 0.260934 0
M  V30 3358 H 328.154 -2.38567 1.79244 0
M  V30 3359 C 326.903 -3.45661 0.376018 0
M  V30 3360 H 326.226 -3.82604 1.15992 0
M  V30 3361 H 327.666 -4.23504 0.204951 0
M  V30 3362 C 326.125 -3.24546 -0.903954 0
M  V30 3363 O 326.655 -3.49865 -1.97377 0
M  V30 3364 N 324.861 -2.77992 -0.846679 0
M  V30 3365 H 324.408 -2.57589 0.0241017 0
M  V30 3366 H 324.366 -2.64244 -1.70359 0
M  V30 3367 N 328.138 -0.959301 -1.25041 0
M  V30 3368 C 329.086 -0.474437 -2.2771 0
M  V30 3369 C 330.08 0.457697 -1.631 0
M  V30 3370 O 331.286 0.333912 -1.76876 0
M  V30 3371 H 327.661 -0.134936 -0.739795 0
M  V30 3372 H 329.632 -1.35251 -2.65988 0
M  V30 3373 C 328.381 0.227884 -3.46952 0
M  V30 3374 H 327.704 -0.480248 -3.96905 0
M  V30 3375 H 329.144 0.531091 -4.20661 0
M  V30 3376 C 327.603 1.452 -3.04004 0
M  V30 3377 O 328.133 2.54949 -3.10426 0
M  V30 3378 N 326.339 1.31502 -2.59144 0
M  V30 3379 H 325.886 0.422065 -2.54119 0
M  V30 3380 H 325.844 2.13521 -2.30773 0
M  V30 3381 N 329.616 1.39756 -0.72842 0
M  V30 3382 C 330.566 2.2792 -0.0603424 0
M  V30 3383 C 331.55 1.43922 0.719399 0
M  V30 3384 O 332.742 1.66895 0.589489 0
M  V30 3385 C 329.871 3.32582 0.851104 0
M  V30 3386 C 328.957 4.24049 0.0658641 0
M  V30 3387 N 329.348 4.96653 -0.957578 0
M  V30 3388 C 327.646 4.45013 0.296509 0
M  V30 3389 C 328.347 5.63836 -1.43052 0
M  V30 3390 N 327.323 5.38397 -0.750315 0
M  V30 3391 H 331.125 2.81504 -0.84455 0
M  V30 3392 H 328.639 1.5236 -0.562155 0
M  V30 3393 H 330.636 3.94603 1.34514 0
M  V30 3394 H 329.296 2.80558 1.63454 0
M  V30 3395 H 330.307 5.00297 -1.33877 0
M  V30 3396 H 326.984 4.03943 1.05527 0
M  V30 3397 H 328.374 6.31974 -2.28163 0
M  V30 3398 N 331.094 0.475555 1.50254 0
M  V30 3399 C 332.041 -0.316293 2.28622 0
M  V30 3400 C 333.011 -0.983227 1.33873 0
M  V30 3401 O 334.196 -0.994805 1.62814 0
M  V30 3402 C 331.336 -1.38975 3.1588 0
M  V30 3403 C 330.449 -0.737146 4.25664 0
M  V30 3404 C 329.584 -1.78887 5.00173 0
M  V30 3405 C 328.623 -1.11676 6.01826 0
M  V30 3406 N 327.76 -2.11154 6.69596 0
M  V30 3407 H 332.6 0.358297 2.95838 0
M  V30 3408 H 330.137 0.188541 1.45887 0
M  V30 3409 H 332.095 -2.02383 3.64825 0
M  V30 3410 H 330.725 -2.03344 2.50701 0
M  V30 3411 H 329.777 0.0096065 3.80399 0
M  V30 3412 H 331.089 -0.206816 4.98371 0
M  V30 3413 H 330.243 -2.49865 5.52859 0
M  V30 3414 H 328.982 -2.35302 4.27182 0
M  V30 3415 H 327.987 -0.392633 5.48396 0
M  V30 3416 H 329.212 -0.55945 6.76792 0
M  V30 3417 H 327.158 -2.66577 5.99394 0
M  V30 3418 H 327.075 -1.63118 7.38193 0
M  V30 3419 H 328.343 -2.81497 7.26897 0
M  V30 3420 N 332.573 -1.56217 0.208337 0
M  V30 3421 C 333.798 -2.02782 -0.435222 0
M  V30 3422 C 334.223 -1.08738 -1.53485 0
M  V30 3423 O 333.581 -0.0731855 -1.81152 0
M  V30 3424 C 333.629 -3.47687 -0.956335 0
M  V30 3425 O 332.733 -3.56773 -2.06849 0
M  V30 3426 H 332.074 -0.656403 -0.100158 0
M  V30 3427 H 334.604 -2.02033 0.3231 0
M  V30 3428 H 334.614 -3.87745 -1.26955 0
M  V30 3429 H 333.289 -4.15624 -0.15143 0
M  V30 3430 H 331.866 -3.28597 -1.76292 0
M  V30 3431 N 334.051 0.0651679 -1.57465 0
M  V30 3432 C 335.297 0.764193 -1.87851 0
M  V30 3433 C 335.63 1.76889 -0.801495 0
M  V30 3434 O 334.905 1.93594 0.187528 0
M  V30 3435 C 335.188 1.46625 -3.28897 0
M  V30 3436 C 335.041 0.477515 -4.47258 0
M  V30 3437 C 336.36 2.4095 -3.68281 0
M  V30 3438 H 333.479 0.276351 -0.683227 0
M  V30 3439 H 336.121 0.0272868 -1.8998 0
M  V30 3440 H 334.271 2.09438 -3.27212 0
M  V30 3441 H 335.943 -0.145922 -4.61069 0
M  V30 3442 H 334.186 -0.206576 -4.33308 0
M  V30 3443 H 334.857 1.0065 -5.42746 0
M  V30 3444 H 337.333 1.88209 -3.71102 0
M  V30 3445 H 336.209 2.87072 -4.67847 0
M  V30 3446 H 336.47 3.26049 -2.98571 0
M  V30 3447 N 335.529 1.53961 0.336706 0
M  V30 3448 C 336.759 1.75229 1.09446 0
M  V30 3449 C 337.167 0.494602 1.82621 0
M  V30 3450 O 336.51 -0.543764 1.75468 0
M  V30 3451 C 336.572 2.88288 2.1478 0
M  V30 3452 C 336.236 4.27656 1.6112 0
M  V30 3453 C 337.233 5.08981 1.0599 0
M  V30 3454 C 334.918 4.74161 1.6576 0
M  V30 3455 C 336.912 6.34916 0.562129 0
M  V30 3456 C 334.599 6.00067 1.15595 0
M  V30 3457 C 335.597 6.80278 0.609147 0
M  V30 3458 O 335.285 8.03818 0.114999 0
M  V30 3459 H 335.017 0.588881 0.331956 0
M  V30 3460 H 337.571 2.01614 0.392566 0
M  V30 3461 H 335.801 2.57443 2.88548 0
M  V30 3462 H 337.49 2.97461 2.76174 0
M  V30 3463 H 338.256 4.74213 1.01722 0
M  V30 3464 H 334.135 4.11781 2.07261 0
M  V30 3465 H 337.679 6.9747 0.134668 0
M  V30 3466 H 333.576 6.3433 1.19566 0
M  V30 3467 H 334.344 8.18172 0.231651 0
M  V30 3468 N 337.007 -0.598083 1.45811 0
M  V30 3469 C 337.955 -1.72932 1.55555 0
M  V30 3470 C 338.949 -1.63984 0.424921 0
M  V30 3471 O 340.155 -1.69663 0.601205 0
M  V30 3472 H 336.53 -0.571489 0.488779 0
M  V30 3473 H 338.501 -1.61842 2.50699 0
M  V30 3474 C 337.25 -3.11318 1.54843 0
M  V30 3475 H 336.573 -3.18867 2.41172 0
M  V30 3476 H 338.013 -3.90274 1.65717 0
M  V30 3477 C 336.472 -3.3578 0.274427 0
M  V30 3478 O 337.002 -3.9654 -0.641778 0
M  V30 3479 N 335.208 -2.90119 0.167139 0
M  V30 3480 H 334.755 -2.40855 0.913596 0
M  V30 3481 H 334.713 -3.0686 -0.684435 0
M  V30 3482 N 338.485 -1.33259 -0.841409 0
M  V30 3483 C 339.71 -1.2775 -1.63385 0
M  V30 3484 C 340.135 0.149188 -1.87507 0
M  V30 3485 O 339.493 1.10498 -1.43736 0
M  V30 3486 C 339.541 -2.05571 -2.96265 0
M  V30 3487 O 338.645 -1.41257 -3.87453 0
M  V30 3488 H 337.986 -0.439627 -0.497618 0
M  V30 3489 H 340.516 -1.75782 -1.04699 0
M  V30 3490 H 340.526 -2.16241 -3.45982 0
M  V30 3491 H 339.201 -3.09309 -2.7803 0
M  V30 3492 H 337.778 -1.39217 -3.45938 0
M  V30 3493 N 339.963 1.05934 -1.16686 0
M  V30 3494 C 340.926 2.11669 -0.879144 0
M  V30 3495 C 341.926 1.60294 0.127445 0
M  V30 3496 O 343.116 1.7389 -0.103865 0
M  V30 3497 C 340.248 3.39438 -0.315425 0
M  V30 3498 H 341.441 2.38626 -1.81653 0
M  V30 3499 H 338.994 1.22058 -0.976299 0
M  V30 3500 H 339.729 3.18132 0.629468 0
M  V30 3501 H 339.514 3.78034 -1.04079 0
M  V30 3502 H 341.004 4.17391 -0.132189 0
M  V30 3503 N 341.441 0.965919 1.2453 0
M  V30 3504 C 342.371 0.513476 2.27784 0
M  V30 3505 C 343.352 -0.445974 1.6415 0
M  V30 3506 O 344.537 -0.342485 1.91156 0
M  V30 3507 C 341.667 -0.198839 3.4673 0
M  V30 3508 C 340.621 0.676456 4.2262 0
M  V30 3509 C 339.947 -0.167248 5.34438 0
M  V30 3510 C 341.247 1.96017 4.84123 0
M  V30 3511 H 342.941 1.3765 2.65881 0
M  V30 3512 H 340.487 0.663321 1.27813 0
M  V30 3513 H 342.44 -0.526567 4.18097 0
M  V30 3514 H 341.164 -1.0962 3.07654 0
M  V30 3515 H 339.823 0.98743 3.53052 0
M  V30 3516 H 339.471 -1.0647 4.91603 0
M  V30 3517 H 339.171 0.415181 5.86131 0
M  V30 3518 H 340.695 -0.489688 6.08633 0
M  V30 3519 H 342.109 1.69814 5.47573 0
M  V30 3520 H 340.506 2.48918 5.4604 0
M  V30 3521 H 341.576 2.65622 4.05676 0
M  V30 3522 N 342.919 -1.39368 0.735821 0
M  V30 3523 C 343.882 -2.2896 0.104874 0
M  V30 3524 C 344.882 -1.46347 -0.666274 0
M  V30 3525 O 346.072 -1.67014 -0.49517 0
M  V30 3526 C 343.204 -3.29857 -0.860656 0
M  V30 3527 H 344.397 -2.86259 0.894205 0
M  V30 3528 H 341.95 -1.48029 0.501704 0
M  V30 3529 H 342.685 -2.77615 -1.67631 0
M  V30 3530 H 342.47 -3.9087 -0.310327 0
M  V30 3531 H 343.96 -3.96893 -1.29867 0
M  V30 3532 N 344.397 -0.483516 -1.5 0
M  V30 3533 C 345.33 0.350427 -2.25493 0
M  V30 3534 C 346.308 0.985549 -1.29328 0
M  V30 3535 O 347.492 1.01906 -1.58579 0
M  V30 3536 C 344.619 1.49202 -3.04066 0
M  V30 3537 C 343.665 0.973036 -4.15252 0
M  V30 3538 S 344.498 -0.122237 -5.3536 0
M  V30 3539 C 345.654 1.02294 -6.17484 0
M  V30 3540 H 345.887 -0.290381 -2.95878 0
M  V30 3541 H 343.42 -0.268562 -1.52046 0
M  V30 3542 H 345.378 2.14623 -3.49925 0
M  V30 3543 H 344.039 2.10438 -2.33183 0
M  V30 3544 H 343.232 1.82804 -4.69679 0
M  V30 3545 H 342.834 0.396335 -3.71894 0
M  V30 3546 H 345.126 1.93195 -6.49371 0
M  V30 3547 H 346.069 0.517664 -7.06205 0
M  V30 3548 H 346.477 1.28238 -5.49741 0
M  V30 3549 N 345.875 1.56104 -0.216619 0
M  V30 3550 C 346.838 2.18819 0.681962 0
M  V30 3551 C 347.838 1.14866 1.12528 0
M  V30 3552 O 349.028 1.40128 1.03488 0
M  V30 3553 C 346.16 2.80756 1.93362 0
M  V30 3554 H 347.353 2.99595 0.135254 0
M  V30 3555 H 344.906 1.56265 0.0330003 0
M  V30 3556 H 345.641 2.03837 2.52232 0
M  V30 3557 H 345.426 3.56876 1.62426 0
M  V30 3558 H 346.916 3.28844 2.57393 0
M  V30 3559 N 347.353 -0.0568162 1.57498 0
M  V30 3560 C 348.601 -0.751617 1.87604 0
M  V30 3561 C 348.922 -1.77351 0.81066 0
M  V30 3562 O 348.192 -1.95254 -0.159018 0
M  V30 3563 H 346.772 -0.280583 0.692302 0
M  V30 3564 H 349.434 -0.0293483 1.94878 0
M  V30 3565 H 348.53 -1.25852 2.856 0
M  V30 3566 N 348.832 -1.54138 -0.328536 0
M  V30 3567 C 350.08 -1.71765 -1.06496 0
M  V30 3568 C 350.401 -0.49149 -1.88704 0
M  V30 3569 O 349.671 0.494539 -1.89555 0
M  V30 3570 H 348.251 -0.633295 -0.396164 0
M  V30 3571 H 350.913 -1.91429 -0.366176 0
M  V30 3572 H 350.009 -2.5951 -1.73381 0
M  V30 3573 N 350.31 0.590341 -1.46126 0
M  V30 3574 C 351.726 0.912917 -1.30912 0
M  V30 3575 C 351.926 1.99616 -0.274893 0
M  V30 3576 O 350.982 2.50397 0.325197 0
M  V30 3577 C 352.295 1.3375 -2.69317 0
M  V30 3578 C 353.843 1.45077 -2.77348 0
M  V30 3579 C 354.318 1.90904 -4.16317 0
M  V30 3580 N 355.809 1.9811 -4.18696 0
M  V30 3581 C 356.544 2.34828 -5.23109 0
M  V30 3582 N 356.04 2.70393 -6.37856 0
M  V30 3583 N 357.833 2.35317 -5.10473 0
M  V30 3584 H 349.984 -0.125358 -2.1203 0
M  V30 3585 H 352.247 0.00658481 -0.947977 0
M  V30 3586 H 351.953 0.615614 -3.4627 0
M  V30 3587 H 351.827 2.30058 -2.9892 0
M  V30 3588 H 354.214 2.16353 -2.00687 0
M  V30 3589 H 354.295 0.4704 -2.51438 0
M  V30 3590 H 353.939 1.20209 -4.9347 0
M  V30 3591 H 353.869 2.89886 -4.39629 0
M  V30 3592 H 356.36 1.73146 -3.359 0
M  V30 3593 H 356.673 2.97341 -7.13308 0
M  V30 3594 H 355.018 2.68048 -6.41229 0
M  V30 3595 H 358.209 2.0695 -4.19868 0
M  V30 3596 H 358.382 2.63605 -5.9196 0
M  V30 3597 N 351.788 1.33704 0.83433 0
M  V30 3598 C 353.199 1.22813 1.4062 0
M  V30 3599 C 353.55 -0.151107 1.95617 0
M  V30 3600 O 352.675 -1.05092 1.89168 0
M  V30 3601 C 353.27 2.22355 2.55624 0
M  V30 3602 C 351.829 2.1529 3.08751 0
M  V30 3603 C 350.976 2.09589 1.8157 0
M  V30 3604 H 353.927 1.45236 0.639702 0
M  V30 3605 H 353.948 1.83391 3.33389 0
M  V30 3606 H 353.46 3.22728 2.15566 0
M  V30 3607 H 351.561 1.18235 3.53343 0
M  V30 3608 H 351.674 3.06038 3.68616 0
M  V30 3609 H 350.038 1.55134 2.02004 0
M  V30 3610 H 350.821 3.11777 1.43701 0
M  V30 3611 N 353.266 -1.05314 1.17247 0
M  V30 3612 C 354.512 -1.78557 0.961513 0
M  V30 3613 C 354.845 -1.87419 -0.508697 0
M  V30 3614 O 354.12 -1.37307 -1.37757 0
M  V30 3615 C 354.403 -3.22514 1.60176 0
M  V30 3616 C 354.256 -3.21673 3.14399 0
M  V30 3617 C 355.575 -4.20318 1.30463 0
M  V30 3618 H 352.694 -0.6482 0.350723 0
M  V30 3619 H 355.336 -1.23102 1.44727 0
M  V30 3620 H 353.486 -3.69867 1.18871 0
M  V30 3621 H 355.158 -2.82405 3.64753 0
M  V30 3622 H 353.401 -2.60048 3.47214 0
M  V30 3623 H 354.072 -4.23271 3.54324 0
M  V30 3624 H 356.548 -3.81454 1.66229 0
M  V30 3625 H 355.424 -5.19289 1.77848 0
M  V30 3626 H 355.685 -4.41526 0.22521 0
M  V30 3627 N 354.744 -0.972509 -1.24016 0
M  V30 3628 C 355.974 -0.653853 -1.9598 0
M  V30 3629 C 356.382 0.781801 -1.72292 0
M  V30 3630 O 355.725 1.53677 -1.00644 0
M  V30 3631 C 355.787 -0.854608 -3.49194 0
M  V30 3632 C 355.451 -2.27082 -3.96589 0
M  V30 3633 C 356.448 -3.24892 -4.05883 0
M  V30 3634 C 354.133 -2.5998 -4.29786 0
M  V30 3635 C 356.127 -4.53684 -4.47716 0
M  V30 3636 C 353.814 -3.88997 -4.71301 0
M  V30 3637 C 354.812 -4.85661 -4.80232 0
M  V30 3638 O 354.5 -6.12376 -5.20818 0
M  V30 3639 H 354.232 -0.242572 -0.630979 0
M  V30 3640 H 356.786 -1.30431 -1.58673 0
M  V30 3641 H 355.016 -0.146985 -3.86421 0
M  V30 3642 H 356.705 -0.534311 -4.02368 0
M  V30 3643 H 357.471 -3.00805 -3.80449 0
M  V30 3644 H 353.35 -1.85457 -4.22051 0
M  V30 3645 H 356.894 -5.29135 -4.54601 0
M  V30 3646 H 352.791 -4.12882 -4.96184 0
M  V30 3647 H 353.559 -6.16013 -5.38953 0
M  V30 3648 N 356.222 1.38976 -0.743202 0
M  V30 3649 C 357.152 2.33171 -0.123873 0
M  V30 3650 C 358.133 1.54336 0.71516 0
M  V30 3651 O 359.318 1.82696 0.658467 0
M  V30 3652 C 356.448 3.38474 0.777978 0
M  V30 3653 C 355.402 4.27979 0.0424758 0
M  V30 3654 C 354.728 5.2405 1.06189 0
M  V30 3655 C 356.028 5.10155 -1.1198 0
M  V30 3656 H 357.722 2.85213 -0.910709 0
M  V30 3657 H 355.268 1.37133 -0.439388 0
M  V30 3658 H 357.221 4.03328 1.22084 0
M  V30 3659 H 355.945 2.84891 1.59702 0
M  V30 3660 H 354.604 3.64616 -0.380853 0
M  V30 3661 H 354.252 4.66758 1.87472 0
M  V30 3662 H 353.952 5.84785 0.574485 0
M  V30 3663 H 355.476 5.9178 1.50428 0
M  V30 3664 H 356.89 5.68307 -0.75499 0
M  V30 3665 H 355.287 5.80073 -1.53738 0
M  V30 3666 H 356.357 4.44504 -1.93764 0
M  V30 3667 N 357.7 0.491464 1.49741 0
M  V30 3668 C 358.632 -0.328609 2.26832 0
M  V30 3669 C 359.645 -0.939113 1.32983 0
M  V30 3670 O 360.834 -0.824067 1.58339 0
M  V30 3671 C 357.934 -1.47675 3.05033 0
M  V30 3672 C 357.107 -0.975305 4.26388 0
M  V30 3673 C 356.166 -1.99991 4.86714 0
M  V30 3674 O 355.192 -1.57229 5.47054 0
M  V30 3675 N 356.394 -3.32962 4.75517 0
M  V30 3676 H 359.159 0.332377 2.97851 0
M  V30 3677 H 356.72 0.323441 1.58636 0
M  V30 3678 H 358.712 -2.15954 3.42266 0
M  V30 3679 H 357.282 -2.04206 2.36683 0
M  V30 3680 H 356.502 -0.117723 3.94024 0
M  V30 3681 H 357.79 -0.618531 5.05026 0
M  V30 3682 H 357.188 -3.70399 4.27576 0
M  V30 3683 H 355.745 -3.96982 5.16961 0
M  V30 3684 N 359.178 -1.55987 0.224894 0
M  V30 3685 C 360.406 -2.02784 -0.410665 0
M  V30 3686 C 360.821 -1.10464 -1.53112 0
M  V30 3687 O 360.178 -0.114871 -1.82138 0
M  V30 3688 C 360.229 -3.49087 -0.939165 0
M  V30 3689 O 359.95 -4.37887 0.136614 0
M  V30 3690 C 361.451 -4.11543 -1.64763 0
M  V30 3691 H 358.671 -0.663484 -0.100148 0
M  V30 3692 H 361.215 -2.01614 0.342326 0
M  V30 3693 H 359.37 -3.50861 -1.64242 0
M  V30 3694 H 359.784 -5.23849 -0.261155 0
M  V30 3695 H 361.258 -5.15673 -1.96939 0
M  V30 3696 H 361.735 -3.56736 -2.56195 0
M  V30 3697 H 362.341 -4.13629 -0.989503 0
M  V30 3698 N 360.656 0.0484629 -1.57525 0
M  V30 3699 C 361.604 1.07359 -2.06341 0
M  V30 3700 C 362.598 1.3865 -0.973269 0
M  V30 3701 O 363.804 1.37783 -1.15827 0
M  V30 3702 H 360.179 0.363662 -0.65822 0
M  V30 3703 H 362.15 0.635916 -2.91545 0
M  V30 3704 C 360.899 2.37198 -2.54229 0
M  V30 3705 H 360.222 2.13977 -3.37719 0
M  V30 3706 H 361.662 3.07319 -2.92115 0
M  V30 3707 C 360.121 3.04805 -1.43511 0
M  V30 3708 O 360.651 3.93848 -0.79034 0
M  V30 3709 N 358.857 2.65811 -1.17444 0
M  V30 3710 H 358.404 1.93488 -1.70059 0
M  V30 3711 H 358.362 3.11366 -0.435737 0
M  V30 3712 N 362.134 1.5431 0.320358 0
M  V30 3713 C 363.55 1.45091 0.664889 0
M  V30 3714 C 363.75 0.626382 1.91517 0
M  V30 3715 O 362.806 0.126443 2.52183 0
M  V30 3716 C 364.119 2.88848 0.83591 0
M  V30 3717 C 365.667 2.9877 0.933046 0
M  V30 3718 C 366.142 4.43683 1.13621 0
M  V30 3719 N 367.633 4.47309 1.20287 0
M  V30 3720 C 368.368 5.56595 1.37801 0
M  V30 3721 N 367.864 6.75844 1.52338 0
M  V30 3722 N 369.657 5.44248 1.40535 0
M  V30 3723 H 361.808 2.06398 -0.501374 0
M  V30 3724 H 364.071 0.933963 -0.162534 0
M  V30 3725 H 363.777 3.51698 -0.0116092 0
M  V30 3726 H 363.651 3.35148 1.73078 0
M  V30 3727 H 366.038 2.36045 1.77107 0
M  V30 3728 H 366.119 2.55796 0.0145782 0
M  V30 3729 H 365.763 5.06995 0.303032 0
M  V30 3730 H 365.693 4.84269 2.0686 0
M  V30 3731 H 368.184 3.61388 1.10485 0
M  V30 3732 H 368.497 7.54892 1.65403 0
M  V30 3733 H 366.842 6.78746 1.4943 0
M  V30 3734 H 370.033 4.50038 1.28777 0
M  V30 3735 H 370.206 6.29473 1.53842 0
M  V30 3736 N 363.613 -0.582584 1.46437 0
M  V30 3737 C 364.561 -1.71272 1.5738 0
M  V30 3738 C 365.555 -1.63524 0.44229 0
M  V30 3739 O 366.761 -1.69016 0.619166 0
M  V30 3740 H 363.136 -0.566273 0.494813 0
M  V30 3741 H 365.107 -1.59174 2.52401 0
M  V30 3742 C 363.856 -3.09658 1.58136 0
M  V30 3743 H 363.179 -3.16291 2.44541 0
M  V30 3744 H 364.619 -3.88494 1.69847 0
M  V30 3745 C 363.078 -3.3547 0.310026 0
M  V30 3746 O 363.608 -3.97199 -0.599683 0
M  V30 3747 N 361.814 -2.89925 0.197901 0
M  V30 3748 H 361.361 -2.39873 0.93909 0
M  V30 3749 H 361.319 -3.07568 -0.65185 0
M  V30 3750 N 365.091 -1.34144 -0.827227 0
M  V30 3751 C 366.502 -1.23557 -1.39966 0
M  V30 3752 C 366.853 0.140731 -1.95695 0
M  V30 3753 O 365.978 1.04087 -1.89723 0
M  V30 3754 C 366.573 -2.23708 -2.54441 0
M  V30 3755 C 365.132 -2.16924 -3.07605 0
M  V30 3756 C 364.279 -2.10549 -1.80456 0
M  V30 3757 H 367.23 -1.45573 -0.631991 0
M  V30 3758 H 367.251 -1.85157 -3.32411 0
M  V30 3759 H 366.763 -3.23866 -2.13851 0
M  V30 3760 H 364.864 -1.20107 -3.52711 0
M  V30 3761 H 364.977 -3.07988 -3.66988 0
M  V30 3762 H 363.341 -1.56203 -2.01178 0
M  V30 3763 H 364.124 -3.12535 -1.42046 0
M  V30 3764 N 366.569 1.04691 -1.17803 0
M  V30 3765 C 367.799 1.81183 -0.992788 0
M  V30 3766 C 368.207 1.8347 0.462098 0
M  V30 3767 O 367.55 1.2643 1.33271 0
M  V30 3768 C 367.612 3.28363 -1.46349 0
M  V30 3769 C 367.276 3.49749 -2.94151 0
M  V30 3770 C 368.273 3.41456 -3.92051 0
M  V30 3771 C 365.958 3.76548 -3.32441 0
M  V30 3772 C 367.952 3.59656 -5.26238 0
M  V30 3773 C 365.639 3.94396 -4.66792 0
M  V30 3774 C 366.637 3.8595 -5.635 0
M  V30 3775 O 366.325 4.03294 -6.9542 0
M  V30 3776 H 366.057 0.577622 -0.351182 0
M  V30 3777 H 368.611 1.32876 -1.5663 0
M  V30 3778 H 366.841 3.77609 -0.833574 0
M  V30 3779 H 368.53 3.86395 -1.24313 0
M  V30 3780 H 369.296 3.20723 -3.63815 0
M  V30 3781 H 365.175 3.82224 -2.57732 0
M  V30 3782 H 368.719 3.52979 -6.01707 0
M  V30 3783 H 364.616 4.14622 -4.94731 0
M  V30 3784 H 365.384 4.2049 -7.02232 0
M  V30 3785 N 368.047 0.979072 1.23499 0
M  V30 3786 C 369.295 0.645941 1.91499 0
M  V30 3787 C 369.616 -0.822948 1.76784 0
M  V30 3788 O 368.886 -1.58854 1.14639 0
M  V30 3789 H 367.466 0.235919 0.708767 0
M  V30 3790 H 370.128 1.2426 1.50152 0
M  V30 3791 H 369.224 0.896411 2.9895 0
M  V30 3792 N 369.525 -1.3858 0.750561 0
M  V30 3793 C 370.772 -2.00184 0.305373 0
M  V30 3794 C 371.1 -1.59575 -1.11203 0
M  V30 3795 O 370.355 -0.823236 -1.77542 0
M  V30 3796 C 370.654 -3.55455 0.372373 0
M  V30 3797 C 370.32 -4.15765 1.745 0
M  V30 3798 C 368.982 -4.31951 2.12065 0
M  V30 3799 C 371.334 -4.49067 2.64553 0
M  V30 3800 C 368.662 -4.78734 3.39162 0
M  V30 3801 C 371.014 -4.97265 3.91038 0
M  V30 3802 C 369.678 -5.11658 4.28676 0
M  V30 3803 H 368.948 -0.732526 0.111744 0
M  V30 3804 H 371.595 -1.65673 0.960451 0
M  V30 3805 H 369.9 -3.90084 -0.366272 0
M  V30 3806 H 371.597 -4.00999 0.00953918 0
M  V30 3807 H 368.187 -4.03579 1.44297 0
M  V30 3808 H 372.371 -4.36166 2.36796 0
M  V30 3809 H 367.627 -4.88062 3.68246 0
M  V30 3810 H 371.801 -5.22003 4.60962 0
M  V30 3811 H 369.428 -5.47668 5.27222 0
M  V30 3812 N 371.003 -0.499398 -1.49478 0
M  V30 3813 C 372.252 0.0475259 -2.01644 0
M  V30 3814 C 372.565 1.38195 -1.38425 0
M  V30 3815 O 373.771 2.01547 -1.8191 0
M  V30 3816 C 372.227 0.135164 -3.59646 0
M  V30 3817 C 371.835 -1.19252 -4.31837 0
M  V30 3818 C 373.579 0.632538 -4.19761 0
M  V30 3819 C 371.486 -1.06713 -5.81693 0
M  V30 3820 H 370.416 0.0215349 -0.753692 0
M  V30 3821 H 373.067 -0.638577 -1.7203 0
M  V30 3822 H 371.449 0.885681 -3.85969 0
M  V30 3823 H 372.623 -1.9562 -4.17216 0
M  V30 3824 H 370.938 -1.62321 -3.83459 0
M  V30 3825 H 373.535 0.743833 -5.29501 0
M  V30 3826 H 373.878 1.63098 -3.83021 0
M  V30 3827 H 374.411 -0.0613987 -3.97753 0
M  V30 3828 H 371.15 -2.03979 -6.22955 0
M  V30 3829 H 370.67 -0.344307 -5.98811 0
M  V30 3830 H 372.349 -0.745208 -6.42694 0
M  V30 3831 N 372.481 1.55866 -0.233164 0
M  V30 3832 C 373.729 1.9821 0.394593 0
M  V30 3833 C 374.05 1.12234 1.59463 0
M  V30 3834 O 373.32 0.201981 1.94856 0
M  V30 3835 H 371.9 0.732034 0.148778 0
M  V30 3836 H 374.562 1.92107 -0.32876 0
M  V30 3837 H 373.658 3.03845 0.713063 0
M  V30 3838 N 373.959 -0.0401083 1.57549 0
M  V30 3839 C 375.207 -0.731677 1.8839 0
M  V30 3840 C 375.528 -1.76481 0.829425 0
M  V30 3841 O 374.798 -1.95411 -0.1383 0
M  V30 3842 H 373.378 -0.273225 0.695239 0
M  V30 3843 H 376.04 -0.00867725 1.94898 0
M  V30 3844 H 375.136 -1.22816 2.86919 0
M  V30 3845 N 375.437 -1.54477 -0.31217 0
M  V30 3846 C 376.686 -1.72438 -1.04633 0
M  V30 3847 C 376.999 -0.511163 -1.88803 0
M  V30 3848 O 378.205 -0.572341 -2.65399 0
M  V30 3849 C 376.661 -3.05043 -1.9099 0
M  V30 3850 C 376.269 -4.33806 -1.11877 0
M  V30 3851 C 378.013 -3.32364 -2.64073 0
M  V30 3852 C 375.92 -5.57467 -1.97445 0
M  V30 3853 H 374.85 -0.642647 -0.394361 0
M  V30 3854 H 377.501 -1.80966 -0.303929 0
M  V30 3855 H 375.883 -2.90451 -2.69173 0
M  V30 3856 H 377.057 -4.59199 -0.383843 0
M  V30 3857 H 375.372 -4.13336 -0.504252 0
M  V30 3858 H 377.969 -4.21951 -3.28423 0
M  V30 3859 H 378.312 -2.50745 -3.32314 0
M  V30 3860 H 378.845 -3.47875 -1.92944 0
M  V30 3861 H 375.584 -6.41722 -1.33692 0
M  V30 3862 H 375.104 -5.36277 -2.6864 0
M  V30 3863 H 376.783 -5.94303 -2.5576 0
M  V30 3864 N 376.915 0.57481 -1.46744 0
M  V30 3865 C 378.145 1.35659 -1.55821 0
M  V30 3866 C 378.553 1.88129 -0.201036 0
M  V30 3867 O 377.896 1.64723 0.813134 0
M  V30 3868 C 377.958 2.57473 -2.50894 0
M  V30 3869 C 377.622 2.26415 -3.9697 0
M  V30 3870 C 378.619 1.84771 -4.85958 0
M  V30 3871 C 376.304 2.38316 -4.42166 0
M  V30 3872 C 378.298 1.55434 -6.18158 0
M  V30 3873 C 375.985 2.08591 -5.74398 0
M  V30 3874 C 376.983 1.67216 -6.62214 0
M  V30 3875 O 376.671 1.37859 -7.91991 0
M  V30 3876 H 376.403 0.420496 -0.529301 0
M  V30 3877 H 378.957 0.704967 -1.92923 0
M  V30 3878 H 377.187 3.25468 -2.08824 0
M  V30 3879 H 378.876 3.19546 -2.50291 0
M  V30 3880 H 379.642 1.75085 -4.52295 0
M  V30 3881 H 375.521 2.69483 -3.74032 0
M  V30 3882 H 379.065 1.23065 -6.86659 0
M  V30 3883 H 374.962 2.17905 -6.07608 0
M  V30 3884 H 375.73 1.51638 -8.04331 0
M  V30 3885 N 378.394 1.34581 0.820102 0
M  V30 3886 C 379.671 1.17675 1.56244 0
M  V30 3887 C 380.051 -0.249541 2.0962 0
M  V30 3888 O 379.399 -1.25125 1.91196 0
M  V30 3889 C 379.609 2.23364 2.6816 0
M  V30 3890 C 380.957 2.58485 3.36854 0
M  V30 3891 O 381.981 2.22175 2.78418 0
M  V30 3892 O 380.84 3.20868 4.42386 0
M  V30 3893 H 377.934 0.456333 0.689702 0
M  V30 3894 H 380.48 1.46222 0.861231 0
M  V30 3895 H 379.252 3.19087 2.26493 0
M  V30 3896 H 378.875 1.96009 3.45928 0
M  V30 3897 N 379.872 -1.04064 1.18357 0
M  V30 3898 C 381.097 -1.81454 1.00445 0
M  V30 3899 C 381.522 -1.82823 -0.442423 0
M  V30 3900 O 380.88 -1.24555 -1.31741 0
M  V30 3901 C 380.928 -3.24925 1.56384 0
M  V30 3902 O 380.032 -4.04856 0.785209 0
M  V30 3903 H 379.373 -0.560604 0.355835 0
M  V30 3904 H 381.903 -1.31059 1.57114 0
M  V30 3905 H 381.913 -3.75702 1.59097 0
M  V30 3906 H 380.588 -3.23244 2.61699 0
M  V30 3907 H 379.165 -3.63537 0.830399 0
M  V30 3908 N 381.35 -0.985608 -1.22978 0
M  V30 3909 C 382.627 -0.573599 -1.87001 0
M  V30 3910 C 383.007 0.949213 -1.88555 0
M  V30 3911 O 382.355 1.82811 -1.37086 0
M  V30 3912 C 382.565 -1.18564 -3.28243 0
M  V30 3913 C 383.913 -1.28163 -4.04796 0
M  V30 3914 O 384.937 -1.13949 -3.37482 0
M  V30 3915 O 383.796 -1.50832 -5.25273 0
M  V30 3916 H 380.89 -0.193868 -0.803955 0
M  V30 3917 H 383.436 -1.08102 -1.30813 0
M  V30 3918 H 382.208 -2.22758 -3.21706 0
M  V30 3919 H 381.831 -0.663363 -3.92027 0
M  V30 3920 N 382.828 1.3818 -0.7579 0
M  V30 3921 C 384.075 2.00019 -0.315985 0
M  V30 3922 C 384.403 1.60163 1.10355 0
M  V30 3923 O 383.658 0.83264 1.77103 0
M  V30 3924 C 383.957 3.55252 -0.391218 0
M  V30 3925 C 383.623 4.14834 -1.76702 0
M  V30 3926 C 382.285 4.30821 -2.14353 0
M  V30 3927 C 384.637 4.47658 -2.66931 0
M  V30 3928 C 381.965 4.76928 -3.41696 0
M  V30 3929 C 384.317 4.95184 -3.93669 0
M  V30 3930 C 382.981 5.09377 -4.31383 0
M  V30 3931 H 382.251 0.731923 -0.115627 0
M  V30 3932 H 384.898 1.65161 -0.969223 0
M  V30 3933 H 383.203 3.90273 0.34558 0
M  V30 3934 H 384.9 4.00988 -0.030805 0
M  V30 3935 H 381.49 4.02808 -1.46435 0
M  V30 3936 H 385.674 4.34904 -2.39106 0
M  V30 3937 H 380.93 4.86103 -3.70829 0
M  V30 3938 H 385.104 5.19551 -4.63724 0
M  V30 3939 H 382.731 5.44865 -5.30119 0
M  V30 3940 N 384.306 0.507319 1.49211 0
M  V30 3941 C 385.583 -0.0982702 1.95353 0
M  V30 3942 C 385.963 -1.53516 1.449 0
M  V30 3943 O 385.311 -2.18594 0.66551 0
M  V30 3944 C 385.521 -0.00440283 3.49 0
M  V30 3945 C 386.869 -0.175147 4.24239 0
M  V30 3946 O 387.893 -0.0792891 3.56112 0
M  V30 3947 O 386.752 -0.37276 5.45227 0
M  V30 3948 H 383.846 -0.0918236 0.821887 0
M  V30 3949 H 386.392 0.570307 1.5983 0
M  V30 3950 H 385.164 0.997402 3.78375 0
M  V30 3951 H 384.787 -0.712845 3.91158 0
M  V30 3952 N 385.784 -1.5574 0.241426 0
M  V30 3953 C 386.694 -2.2479 -0.671305 0
M  V30 3954 C 387.71 -1.26217 -1.19772 0
M  V30 3955 O 388.886 -1.59079 -1.23514 0
M  V30 3956 C 385.951 -2.92966 -1.85396 0
M  V30 3957 C 385.012 -4.06935 -1.36756 0
M  V30 3958 C 384.245 -4.71851 -2.49384 0
M  V30 3959 O 384.468 -4.35823 -3.67987 0
M  V30 3960 O 383.402 -5.60467 -2.19454 0
M  V30 3961 H 387.228 -3.0349 -0.112966 0
M  V30 3962 H 384.813 -1.49397 0.0101513 0
M  V30 3963 H 386.695 -3.35927 -2.54423 0
M  V30 3964 H 385.37 -2.17211 -2.40002 0
M  V30 3965 H 384.277 -3.68503 -0.644726 0
M  V30 3966 H 385.61 -4.84492 -0.867647 0
M  V30 3967 N 387.262 0.0317525 -1.57568 0
M  V30 3968 C 388.209 1.0332 -2.06382 0
M  V30 3969 C 389.179 1.36082 -0.952414 0
M  V30 3970 O 390.364 1.46466 -1.2228 0
M  V30 3971 C 387.504 2.32989 -2.54578 0
M  V30 3972 C 386.617 2.0641 -3.79498 0
M  V30 3973 C 385.752 3.2993 -4.16317 0
M  V30 3974 C 384.791 2.98893 -5.34162 0
M  V30 3975 N 383.928 4.14857 -5.66426 0
M  V30 3976 H 388.768 0.609982 -2.9169 0
M  V30 3977 H 386.305 0.289573 -1.44222 0
M  V30 3978 H 388.263 3.0875 -2.80587 0
M  V30 3979 H 386.893 2.73039 -1.7219 0
M  V30 3980 H 385.945 1.21158 -3.6059 0
M  V30 3981 H 387.257 1.79513 -4.65378 0
M  V30 3982 H 386.411 4.1406 -4.4344 0
M  V30 3983 H 385.15 3.59938 -3.29083 0
M  V30 3984 H 384.155 2.13164 -5.06795 0
M  V30 3985 H 385.38 2.70165 -6.23047 0
M  V30 3986 H 383.326 4.44821 -4.82151 0
M  V30 3987 H 383.243 3.91374 -6.4681 0
M  V30 3988 H 384.511 4.99868 -5.98124 0
M  V30 3989 N 388.74 1.54641 0.303973 0
M  V30 3990 C 389.687 1.85386 1.37479 0
M  V30 3991 C 390.657 0.702528 1.50512 0
M  V30 3992 O 391.842 0.950867 1.65418 0
M  V30 3993 C 388.982 2.10413 2.73533 0
M  V30 3994 C 388.095 3.38049 2.68974 0
M  V30 3995 C 387.23 3.52934 3.97002 0
M  V30 3996 C 386.269 4.74373 3.86829 0
M  V30 3997 N 385.406 4.8608 5.06627 0
M  V30 3998 H 390.246 2.76732 1.1056 0
M  V30 3999 H 387.783 1.37034 0.534805 0
M  V30 4000 H 389.741 2.22919 3.52652 0
M  V30 4001 H 388.371 1.22338 2.98719 0
M  V30 4002 H 387.423 3.3418 1.81736 0
M  V30 4003 H 388.735 4.27288 2.57346 0
M  V30 4004 H 387.889 3.65088 4.84557 0
M  V30 4005 H 386.628 2.61824 4.1146 0
M  V30 4006 H 385.633 4.62255 2.97658 0
M  V30 4007 H 386.858 5.66888 3.73918 0
M  V30 4008 H 384.804 3.97891 5.21554 0
M  V30 4009 H 384.721 5.69315 4.9741 0
M  V30 4010 H 385.989 5.02587 5.95841 0
M  V30 4011 N 390.218 -0.567019 1.47046 0
M  V30 4012 C 391.467 -1.32091 1.5243 0
M  V30 4013 C 391.78 -1.94704 0.187021 0
M  V30 4014 O 392.986 -2.7124 0.118771 0
M  V30 4015 C 391.442 -2.39479 2.68659 0
M  V30 4016 C 391.05 -1.831 4.08874 0
M  V30 4017 C 392.794 -3.16111 2.83327 0
M  V30 4018 C 390.701 -2.8821 5.16419 0
M  V30 4019 H 389.631 -0.496629 0.56734 0
M  V30 4020 H 392.282 -0.603354 1.73297 0
M  V30 4021 H 390.664 -3.14105 2.41152 0
M  V30 4022 H 391.838 -1.14913 4.46242 0
M  V30 4023 H 390.153 -1.19085 3.99008 0
M  V30 4024 H 392.75 -3.94585 3.60842 0
M  V30 4025 H 393.093 -3.69686 1.91411 0
M  V30 4026 H 393.626 -2.48595 3.10556 0
M  V30 4027 H 390.365 -2.39504 6.10179 0
M  V30 4028 H 389.885 -3.54839 4.8358 0
M  V30 4029 H 391.564 -3.51881 5.42945 0
M  V30 4030 N 391.696 -1.35014 -0.812953 0
M  V30 4031 C 393.112 -1.14914 -1.10757 0
M  V30 4032 C 393.312 0.0426818 -2.01455 0
M  V30 4033 O 392.368 0.715212 -2.42159 0
M  V30 4034 C 393.681 -2.44911 -1.74468 0
M  V30 4035 C 395.229 -2.5106 -1.86917 0
M  V30 4036 C 395.704 -3.81085 -2.54044 0
M  V30 4037 N 397.195 -3.82301 -2.61535 0
M  V30 4038 C 397.93 -4.79634 -3.14227 0
M  V30 4039 N 397.426 -5.87353 -3.67407 0
M  V30 4040 N 399.219 -4.67078 -3.12721 0
M  V30 4041 H 391.37 -2.1136 -0.20989 0
M  V30 4042 H 393.633 -0.935128 -0.155692 0
M  V30 4043 H 393.339 -3.32267 -1.15289 0
M  V30 4044 H 393.213 -2.58989 -2.74234 0
M  V30 4045 H 395.6 -1.64137 -2.45241 0
M  V30 4046 H 395.681 -2.40901 -0.860242 0
M  V30 4047 H 395.325 -4.68402 -1.96372 0
M  V30 4048 H 395.255 -3.88529 -3.55461 0
M  V30 4049 H 397.746 -3.04465 -2.23851 0
M  V30 4050 H 398.059 -6.57624 -4.05894 0
M  V30 4051 H 396.404 -5.91054 -3.65623 0
M  V30 4052 H 399.595 -3.82067 -2.70449 0
M  V30 4053 H 399.768 -5.43098 -3.53481 0
M  V30 4054 N 393.175 1.03435 -1.18907 0
M  V30 4055 C 394.085 2.15075 -0.937015 0
M  V30 4056 C 395.101 1.73706 0.101085 0
M  V30 4057 O 396.277 2.01232 -0.0822948 0
M  V30 4058 C 393.342 3.43458 -0.473057 0
M  V30 4059 C 392.403 3.99172 -1.57989 0
M  V30 4060 C 391.636 5.21427 -1.13797 0
M  V30 4061 O 391.859 5.704 0.000725941 0
M  V30 4062 O 390.793 5.69837 -1.9383 0
M  V30 4063 H 394.619 2.39198 -1.87131 0
M  V30 4064 H 392.204 1.13506 -0.971427 0
M  V30 4065 H 394.086 4.20811 -0.222702 0
M  V30 4066 H 392.761 3.20793 0.432869 0
M  V30 4067 H 391.668 3.23178 -1.88433 0
M  V30 4068 H 393.001 4.2619 -2.46217 0
M  V30 4069 N 394.653 0.992116 1.22453 0
M  V30 4070 C 395.583 0.561677 2.26644 0
M  V30 4071 C 396.564 -0.411055 1.65059 0
M  V30 4072 O 397.749 -0.301861 1.9184 0
M  V30 4073 C 394.879 -0.125247 3.47074 0
M  V30 4074 C 393.833 0.765948 4.21091 0
M  V30 4075 C 393.159 -0.0538484 5.34673 0
M  V30 4076 C 394.459 2.06242 4.79856 0
M  V30 4077 H 396.153 1.43259 2.62902 0
M  V30 4078 H 393.699 0.690283 1.26377 0
M  V30 4079 H 395.652 -0.437764 4.1912 0
M  V30 4080 H 394.376 -1.03069 3.0991 0
M  V30 4081 H 393.035 1.0621 3.50878 0
M  V30 4082 H 392.683 -0.960188 4.9375 0
M  V30 4083 H 392.383 0.539415 5.85119 0
M  V30 4084 H 393.907 -0.360477 6.09535 0
M  V30 4085 H 395.321 1.8139 5.43848 0
M  V30 4086 H 393.718 2.60444 5.40638 0
M  V30 4087 H 394.788 2.74167 3.99951 0
M  V30 4088 N 396.131 -1.37776 0.765217 0
M  V30 4089 C 397.094 -2.28686 0.153416 0
M  V30 4090 C 398.094 -1.47727 -0.635081 0
M  V30 4091 O 399.284 -1.68027 -0.459632 0
M  V30 4092 C 396.416 -3.31608 -0.790495 0
M  V30 4093 H 397.609 -2.84297 0.954723 0
M  V30 4094 H 395.162 -1.46932 0.53299 0
M  V30 4095 H 395.897 -2.81109 -1.61705 0
M  V30 4096 H 395.682 -3.9144 -0.227348 0
M  V30 4097 H 397.172 -3.99559 -1.21419 0
M  V30 4098 N 397.609 -0.515225 -1.4894 0
M  V30 4099 C 398.572 0.244681 -2.2789 0
M  V30 4100 C 399.572 0.881166 -1.34507 0
M  V30 4101 O 400.762 0.743497 -1.57537 0
M  V30 4102 C 397.894 1.35247 -3.12923 0
M  V30 4103 H 399.087 -0.448289 -2.96531 0
M  V30 4104 H 396.64 -0.270656 -1.53939 0
M  V30 4105 H 397.375 2.07916 -2.48881 0
M  V30 4106 H 397.16 0.901374 -3.81599 0
M  V30 4107 H 398.65 1.88737 -3.72516 0
M  V30 4108 N 399.087 1.5561 -0.249682 0
M  V30 4109 C 400.034 2.21496 0.648694 0
M  V30 4110 C 401.004 1.17977 1.16921 0
M  V30 4111 O 402.189 1.46434 1.22318 0
M  V30 4112 C 399.329 2.92039 1.83868 0
M  V30 4113 C 398.442 4.10219 1.35442 0
M  V30 4114 C 397.577 4.6847 2.50419 0
M  V30 4115 C 396.616 5.78893 1.98869 0
M  V30 4116 N 395.753 6.31315 3.07223 0
M  V30 4117 H 400.593 2.97892 0.0801582 0
M  V30 4118 H 398.13 1.47074 0.0278031 0
M  V30 4119 H 400.088 3.31138 2.53778 0
M  V30 4120 H 398.718 2.18111 2.37965 0
M  V30 4121 H 397.77 3.76413 0.54928 0
M  V30 4122 H 399.082 4.89927 0.936649 0
M  V30 4123 H 398.236 5.10158 3.28366 0
M  V30 4124 H 396.975 3.87984 2.95499 0
M  V30 4125 H 395.98 5.3668 1.19393 0
M  V30 4126 H 397.205 6.61232 1.54755 0
M  V30 4127 H 395.151 5.53733 3.51732 0
M  V30 4128 H 395.068 7.06224 2.69784 0
M  V30 4129 H 396.336 6.77662 3.8522 0
M  V30 4130 N 400.565 -0.0233959 1.57583 0
M  V30 4131 C 401.811 -0.714119 1.89811 0
M  V30 4132 C 402.144 -1.74702 0.848113 0
M  V30 4133 O 401.419 -1.94023 -0.136135 0
M  V30 4134 C 401.702 -1.37853 3.32669 0
M  V30 4135 C 401.555 -0.358764 4.48367 0
M  V30 4136 C 402.874 -2.31101 3.7454 0
M  V30 4137 H 399.993 -0.25814 0.690314 0
M  V30 4138 H 402.635 0.0230927 1.89986 0
M  V30 4139 H 400.785 -2.00689 3.3265 0
M  V30 4140 H 402.457 0.268115 4.6052 0
M  V30 4141 H 400.7 0.321387 4.32608 0
M  V30 4142 H 401.371 -0.862242 5.45224 0
M  V30 4143 H 403.847 -1.78304 3.75961 0
M  V30 4144 H 402.723 -2.74567 4.75294 0
M  V30 4145 H 402.984 -3.18018 3.0711 0
M  V30 4146 N 402.043 -1.548 -0.295768 0
M  V30 4147 C 403.32 -1.65014 -1.05023 0
M  V30 4148 C 403.7 -0.501805 -2.05049 0
M  V30 4149 O 403.048 0.500869 -2.22943 0
M  V30 4150 C 403.258 -3.03252 -1.72741 0
M  V30 4151 C 404.606 -3.60242 -2.24746 0
M  V30 4152 O 405.63 -3.05737 -1.82765 0
M  V30 4153 O 404.489 -4.55687 -3.01681 0
M  V30 4154 H 401.583 -0.669314 -0.485744 0
M  V30 4155 H 404.129 -1.67144 -0.293438 0
M  V30 4156 H 402.901 -3.7827 -1.00138 0
M  V30 4157 H 402.524 -3.04922 -2.55163 0
M  V30 4158 N 403.521 0.559213 -1.47345 0
M  V30 4159 C 404.932 1.14134 -1.47751 0
M  V30 4160 C 405.283 1.94834 -0.231103 0
M  V30 4161 O 404.408 2.05957 0.664137 0
M  V30 4162 C 405.003 2.07653 -2.67705 0
M  V30 4163 C 403.562 2.61141 -2.71076 0
M  V30 4164 C 402.709 1.3748 -2.40821 0
M  V30 4165 H 405.66 0.345917 -1.54884 0
M  V30 4166 H 405.681 2.91497 -2.44561 0
M  V30 4167 H 405.193 1.4889 -3.58404 0
M  V30 4168 H 403.294 3.23707 -1.84511 0
M  V30 4169 H 403.407 3.02272 -3.7171 0
M  V30 4170 H 401.771 1.68086 -1.91362 0
M  V30 4171 H 402.554 0.805135 -3.33725 0
M  V30 4172 N 404.999 1.35443 0.805782 0
M  V30 4173 C 405.909 1.30546 1.94923 0
M  V30 4174 C 406.925 0.210233 1.72725 0
M  V30 4175 O 408.101 0.43975 1.9654 0
M  V30 4176 C 405.166 1.07782 3.29521 0
M  V30 4177 C 404.227 2.26625 3.64609 0
M  V30 4178 C 403.46 2.04938 4.92784 0
M  V30 4179 O 403.683 1.01624 5.61274 0
M  V30 4180 O 402.617 2.9232 5.26149 0
M  V30 4181 H 406.443 2.26779 2.02002 0
M  V30 4182 H 404.028 1.15823 0.943682 0
M  V30 4183 H 405.91 0.969392 4.10098 0
M  V30 4184 H 404.585 0.146003 3.23371 0
M  V30 4185 H 403.492 2.43033 2.84404 0
M  V30 4186 H 404.825 3.18257 3.75464 0
M  V30 4187 N 406.477 -1.02803 1.19454 0
M  V30 4188 C 407.893 -1.28473 0.946937 0
M  V30 4189 C 408.093 -1.97881 -0.380202 0
M  V30 4190 O 407.149 -2.26719 -1.11151 0
M  V30 4191 C 408.462 -2.13099 2.12154 0
M  V30 4192 C 410.01 -2.26404 2.16126 0
M  V30 4193 C 410.485 -3.14402 3.33039 0
M  V30 4194 N 411.976 -3.21991 3.32981 0
M  V30 4195 C 412.711 -3.90272 4.20089 0
M  V30 4196 N 412.207 -4.60777 5.17355 0
M  V30 4197 N 414 -3.8668 4.07964 0
M  V30 4198 H 406.151 -0.561665 2.04839 0
M  V30 4199 H 408.414 -0.310438 0.89573 0
M  V30 4200 H 408.12 -1.69422 3.08203 0
M  V30 4201 H 407.994 -3.13813 2.09287 0
M  V30 4202 H 410.381 -2.69311 1.20647 0
M  V30 4203 H 410.462 -1.25237 2.23045 0
M  V30 4204 H 410.106 -2.72204 4.28798 0
M  V30 4205 H 410.036 -4.1563 3.23356 0
M  V30 4206 H 412.527 -2.71778 2.62574 0
M  V30 4207 H 412.84 -5.10513 5.80169 0
M  V30 4208 H 411.185 -4.5964 5.21302 0
M  V30 4209 H 414.376 -3.30739 3.31254 0
M  V30 4210 H 414.549 -4.39621 4.76064 0
M  V30 4211 N 407.956 -0.998596 -1.21925 0
M  V30 4212 C 408.919 -0.558679 -2.22287 0
M  V30 4213 C 409.919 0.361525 -1.56683 0
M  V30 4214 O 411.109 0.152695 -1.73529 0
M  V30 4215 C 408.241 0.18661 -3.40389 0
M  V30 4216 H 409.434 -1.4463 -2.62721 0
M  V30 4217 H 406.987 -0.786413 -1.35075 0
M  V30 4218 H 407.722 1.08996 -3.05435 0
M  V30 4219 H 407.507 -0.474188 -3.89222 0
M  V30 4220 H 408.997 0.482367 -4.14805 0
M  V30 4221 N 409.434 1.37368 -0.772513 0
M  V30 4222 C 410.381 2.30262 -0.157488 0
M  V30 4223 C 411.351 1.51137 0.688965 0
M  V30 4224 O 412.536 1.79704 0.641168 0
M  V30 4225 C 409.676 3.37611 0.715045 0
M  V30 4226 C 408.789 4.31746 -0.148098 0
M  V30 4227 C 407.924 5.26171 0.729213 0
M  V30 4228 C 406.963 6.11948 -0.136418 0
M  V30 4229 N 406.1 6.98613 0.698914 0
M  V30 4230 H 410.94 2.82277 -0.955179 0
M  V30 4231 H 408.477 1.38957 -0.482631 0
M  V30 4232 H 410.435 3.98479 1.23575 0
M  V30 4233 H 409.065 2.86959 1.47833 0
M  V30 4234 H 408.117 3.72178 -0.786613 0
M  V30 4235 H 409.429 4.92084 -0.81579 0
M  V30 4236 H 408.583 5.92247 1.31637 0
M  V30 4237 H 407.322 4.66246 1.43059 0
M  V30 4238 H 406.327 5.4485 -0.736102 0
M  V30 4239 H 407.552 6.73945 -0.835134 0
M  V30 4240 H 405.498 6.41215 1.38489 0
M  V30 4241 H 405.415 7.55948 0.0885358 0
M  V30 4242 H 406.683 7.69077 1.27044 0
M  V30 4243 N 410.912 0.523116 1.48665 0
M  V30 4244 C 412.158 -0.00540031 2.03399 0
M  V30 4245 C 412.513 -1.3264 1.39372 0
M  V30 4246 O 411.806 -1.84184 0.527916 0
M  V30 4247 C 412 -0.191671 3.56886 0
M  V30 4248 C 411.829 1.10972 4.35793 0
M  V30 4249 C 410.599 1.66769 4.76987 0
M  V30 4250 C 412.797 2.01861 4.73029 0
M  V30 4251 N 410.779 2.91268 5.40404 0
M  V30 4252 C 412.15 3.10937 5.36394 0
M  V30 4253 C 414.205 2.02271 4.54962 0
M  V30 4254 C 412.908 4.20478 5.83601 0
M  V30 4255 C 414.934 3.10802 5.03146 0
M  V30 4256 C 414.296 4.18597 5.6653 0
M  V30 4257 H 410.395 0.0393531 0.781009 0
M  V30 4258 H 412.979 0.702876 1.8157 0
M  V30 4259 H 411.15 -0.869025 3.78553 0
M  V30 4260 H 412.882 -0.719177 3.98259 0
M  V30 4261 H 409.637 1.20996 4.57883 0
M  V30 4262 H 410.061 3.54635 5.76683 0
M  V30 4263 H 414.703 1.2023 4.05345 0
M  V30 4264 H 412.421 5.03303 6.32228 0
M  V30 4265 H 416.007 3.12166 4.90962 0
M  V30 4266 H 414.887 5.01193 6.03138 0
M  V30 4267 N 412.39 -1.55475 0.257931 0
M  V30 4268 C 413.337 -2.21837 -0.636939 0
M  V30 4269 C 414.307 -1.18596 -1.16294 0
M  V30 4270 O 415.492 -1.47081 -1.21539 0
M  V30 4271 C 412.632 -2.9301 -1.82317 0
M  V30 4272 C 411.745 -4.10931 -1.33265 0
M  V30 4273 C 410.88 -4.69791 -2.47931 0
M  V30 4274 C 409.919 -5.7994 -1.95796 0
M  V30 4275 N 409.056 -6.32935 -3.0387 0
M  V30 4276 H 413.896 -2.9793 -0.0643591 0
M  V30 4277 H 411.433 -1.47086 -0.0200031 0
M  V30 4278 H 413.391 -3.3248 -2.52018 0
M  V30 4279 H 412.021 -2.1937 -2.36805 0
M  V30 4280 H 411.073 -3.76699 -0.52931 0
M  V30 4281 H 412.385 -4.90417 -0.910654 0
M  V30 4282 H 411.539 -5.11892 -3.25656 0
M  V30 4283 H 410.278 -3.89545 -2.93438 0
M  V30 4284 H 409.283 -5.37305 -1.16546 0
M  V30 4285 H 410.508 -6.62043 -1.51246 0
M  V30 4286 H 408.454 -5.55591 -3.48791 0
M  V30 4287 H 408.371 -7.07645 -2.66035 0
M  V30 4288 H 409.639 -6.79695 -3.81621 0
M  V30 4289 N 413.868 0.0150385 -1.57593 0
M  V30 4290 C 415.284 0.370907 -1.5523 0
M  V30 4291 C 415.484 1.75735 -0.985882 0
M  V30 4292 O 414.54 2.44944 -0.613077 0
M  V30 4293 C 415.853 0.259908 -2.99575 0
M  V30 4294 C 417.401 0.335959 -3.11192 0
M  V30 4295 C 417.876 0.254253 -4.57294 0
M  V30 4296 N 419.367 0.312618 -4.62144 0
M  V30 4297 C 420.102 0.272505 -5.72752 0
M  V30 4298 N 419.598 0.183864 -6.92556 0
M  V30 4299 N 421.391 0.323267 -5.6117 0
M  V30 4300 H 413.542 -0.892104 -1.92757 0
M  V30 4301 H 415.805 -0.340563 -0.884715 0
M  V30 4302 H 415.511 -0.693403 -3.44797 0
M  V30 4303 H 415.385 1.048 -3.62349 0
M  V30 4304 H 417.772 1.27971 -2.65909 0
M  V30 4305 H 417.853 -0.481739 -2.51223 0
M  V30 4306 H 417.497 -0.685887 -5.03247 0
M  V30 4307 H 417.427 1.09024 -5.15191 0
M  V30 4308 H 419.918 0.38307 -3.75953 0
M  V30 4309 H 420.231 0.15874 -7.72637 0
M  V30 4310 H 418.576 0.149708 -6.94839 0
M  V30 4311 H 421.767 0.390607 -4.66467 0
M  V30 4312 H 421.94 0.288539 -6.47357 0
M  V30 4313 N 415.346 1.54954 0.287554 0
M  V30 4314 C 416.757 1.65732 0.859634 0
M  V30 4315 C 417.108 0.574767 1.87592 0
M  V30 4316 O 416.233 -0.286299 2.14498 0
M  V30 4317 C 416.828 3.00438 1.56597 0
M  V30 4318 C 415.387 3.13292 2.08627 0
M  V30 4319 C 414.534 2.61473 0.923416 0
M  V30 4320 H 417.485 1.5857 0.0642338 0
M  V30 4321 H 417.506 2.92613 2.43224 0
M  V30 4322 H 417.018 3.79207 0.826053 0
M  V30 4323 H 415.119 2.39268 2.85625 0
M  V30 4324 H 415.232 4.19647 2.31157 0
M  V30 4325 H 413.596 2.18264 1.31275 0
M  V30 4326 H 414.379 3.42733 0.197241 0
M  V30 4327 N 416.824 -0.551391 1.4764 0
M  V30 4328 C 418.071 -1.3083 1.54563 0
M  V30 4329 C 418.399 -1.93359 0.210361 0
M  V30 4330 O 417.654 -1.78721 -0.797332 0
M  V30 4331 C 417.953 -2.43469 2.61644 0
M  V30 4332 C 417.619 -1.98732 4.04742 0
M  V30 4333 C 416.281 -1.86248 4.43695 0
M  V30 4334 C 418.633 -1.64659 4.94507 0
M  V30 4335 C 415.961 -1.37995 5.70241 0
M  V30 4336 C 418.313 -1.17875 6.21521 0
M  V30 4337 C 416.977 -1.03992 6.5935 0
M  V30 4338 H 416.247 -0.478741 0.565587 0
M  V30 4339 H 418.894 -0.617697 1.81264 0
M  V30 4340 H 417.199 -3.18109 2.28722 0
M  V30 4341 H 418.896 -3.01642 2.64222 0
M  V30 4342 H 415.486 -2.09393 3.73968 0
M  V30 4343 H 419.67 -1.73174 4.65107 0
M  V30 4344 H 414.926 -1.25915 5.98294 0
M  V30 4345 H 419.1 -0.905739 6.90485 0
M  V30 4346 H 416.727 -0.663794 7.57296 0
M  V30 4347 N 418.302 -1.35869 -0.798587 0
M  V30 4348 C 419.718 -1.16082 -1.09532 0
M  V30 4349 C 419.918 0.0213124 -2.01489 0
M  V30 4350 O 418.974 0.689488 -2.42904 0
M  V30 4351 C 420.287 -2.46748 -1.7186 0
M  V30 4352 C 421.835 -2.53028 -1.84244 0
M  V30 4353 C 422.31 -3.83758 -2.49988 0
M  V30 4354 N 423.801 -3.85053 -2.57465 0
M  V30 4355 C 424.536 -4.8294 -3.09122 0
M  V30 4356 N 424.032 -5.91217 -3.61157 0
M  V30 4357 N 425.825 -4.70369 -3.0775 0
M  V30 4358 H 417.976 -2.11571 -0.187461 0
M  V30 4359 H 420.239 -0.936726 -0.145765 0
M  V30 4360 H 419.945 -3.33471 -1.11759 0
M  V30 4361 H 419.819 -2.61883 -2.71472 0
M  V30 4362 H 422.206 -1.66729 -2.43486 0
M  V30 4363 H 422.287 -2.418 -0.834643 0
M  V30 4364 H 421.931 -4.70459 -1.91393 0
M  V30 4365 H 421.861 -3.92278 -3.5132 0
M  V30 4366 H 424.352 -3.06822 -2.20609 0
M  V30 4367 H 424.665 -6.61892 -3.98896 0
M  V30 4368 H 423.01 -5.94899 -3.59333 0
M  V30 4369 H 426.201 -3.84914 -2.66381 0
M  V30 4370 H 426.374 -5.46816 -3.47701 0
M  V30 4371 N 419.78 1.02168 -1.19998 0
M  V30 4372 C 420.71 2.12488 -0.96804 0
M  V30 4373 C 421.691 1.69799 0.101185 0
M  V30 4374 O 422.876 1.94121 -0.0552993 0
M  V30 4375 C 420.006 3.43479 -0.513776 0
M  V30 4376 C 418.96 3.99884 -1.52566 0
M  V30 4377 C 418.286 5.26582 -0.928214 0
M  V30 4378 C 419.586 4.33861 -2.90795 0
M  V30 4379 H 421.28 2.32149 -1.89069 0
M  V30 4380 H 418.826 1.11564 -0.910468 0
M  V30 4381 H 420.779 4.20036 -0.338774 0
M  V30 4382 H 419.503 3.23561 0.444493 0
M  V30 4383 H 418.162 3.25429 -1.68794 0
M  V30 4384 H 417.81 5.02986 0.0378289 0
M  V30 4385 H 417.51 5.65284 -1.60397 0
M  V30 4386 H 419.034 6.05799 -0.764167 0
M  V30 4387 H 420.448 5.01327 -2.78109 0
M  V30 4388 H 418.845 4.83664 -3.55231 0
M  V30 4389 H 419.915 3.42848 -3.42904 0
M  V30 4390 N 421.258 1.00505 1.21394 0
M  V30 4391 C 422.221 0.570459 2.21987 0
M  V30 4392 C 423.221 -0.353211 1.56873 0
M  V30 4393 O 424.411 -0.14349 1.73608 0
M  V30 4394 C 421.543 -0.168555 3.40483 0
M  V30 4395 H 422.736 1.46021 2.6195 0
M  V30 4396 H 420.289 0.793565 1.34656 0
M  V30 4397 H 421.024 -1.07374 3.06009 0
M  V30 4398 H 420.809 0.494823 3.88965 0
M  V30 4399 H 422.299 -0.460362 4.15055 0
M  V30 4400 N 422.737 -1.36956 0.779787 0
M  V30 4401 C 423.983 -1.99787 0.348281 0
M  V30 4402 C 424.316 -1.61756 -1.07465 0
M  V30 4403 O 423.591 -0.867639 -1.74075 0
M  V30 4404 C 423.874 -3.56597 0.50104 0
M  V30 4405 C 423.727 -4.04513 1.96697 0
M  V30 4406 C 425.046 -4.40008 -0.0898097 0
M  V30 4407 H 422.165 -0.725796 0.128022 0
M  V30 4408 H 424.807 -1.62514 0.984331 0
M  V30 4409 H 422.957 -3.88479 -0.0404347 0
M  V30 4410 H 424.629 -3.83161 2.56876 0
M  V30 4411 H 422.872 -3.56408 2.47297 0
M  V30 4412 H 423.543 -5.1352 2.02486 0
M  V30 4413 H 426.019 -4.14431 0.372293 0
M  V30 4414 H 424.895 -5.4888 0.0471605 0
M  V30 4415 H 425.156 -4.26035 -1.18096 0
M  V30 4416 N 424.215 -0.530993 -1.48385 0
M  V30 4417 C 425.464 0.00474348 -2.01699 0
M  V30 4418 C 425.777 1.35227 -1.41325 0
M  V30 4419 O 426.983 1.97643 -1.86144 0
M  V30 4420 C 425.439 0.0588473 -3.59852 0
M  V30 4421 C 425.047 -1.28385 -4.2921 0
M  V30 4422 C 426.791 0.543358 -4.21008 0
M  V30 4423 C 424.698 -1.19028 -5.79298 0
M  V30 4424 H 423.628 0.00554317 -0.75398 0
M  V30 4425 H 426.279 -0.674924 -1.70637 0
M  V30 4426 H 424.661 0.803612 -3.8776 0
M  V30 4427 H 425.835 -2.04426 -4.12973 0
M  V30 4428 H 424.15 -1.70418 -3.7993 0
M  V30 4429 H 426.747 0.631351 -5.3096 0
M  V30 4430 H 427.09 1.54937 -3.86394 0
M  V30 4431 H 427.623 -0.145754 -3.97533 0
M  V30 4432 H 424.362 -2.17147 -6.18488 0
M  V30 4433 H 423.882 -0.471246 -5.97946 0
M  V30 4434 H 425.561 -0.881365 -6.40969 0
M  V30 4435 N 425.693 1.55336 -0.266172 0
M  V30 4436 C 426.625 2.19544 0.658247 0
M  V30 4437 C 427.638 1.17746 1.12427 0
M  V30 4438 O 428.827 1.44517 1.04772 0
M  V30 4439 C 425.927 2.80032 1.9088 0
M  V30 4440 C 425.1 4.07436 1.59106 0
M  V30 4441 C 424.159 4.52056 2.69317 0
M  V30 4442 O 423.185 5.18023 2.35883 0
M  V30 4443 N 424.387 4.21448 3.99201 0
M  V30 4444 H 427.152 2.99503 0.108754 0
M  V30 4445 H 424.713 1.61667 -0.0869059 0
M  V30 4446 H 426.705 3.06831 2.63888 0
M  V30 4447 H 425.275 2.04119 2.36758 0
M  V30 4448 H 424.495 3.88021 0.695243 0
M  V30 4449 H 425.783 4.90462 1.35367 0
M  V30 4450 H 425.181 3.68528 4.29189 0
M  V30 4451 H 423.738 4.53039 4.68614 0
M  V30 4452 N 427.171 -0.0066808 1.57599 0
M  V30 4453 C 428.101 -0.999296 2.11036 0
M  V30 4454 C 429.082 -1.36278 1.01795 0
M  V30 4455 O 430.267 -1.4477 1.29442 0
M  V30 4456 C 427.397 -2.29328 2.60818 0
M  V30 4457 C 426.351 -2.07159 3.74525 0
M  V30 4458 C 425.677 -3.42512 4.10596 0
M  V30 4459 C 426.977 -1.43959 5.02069 0
M  V30 4460 H 428.671 -0.554382 2.94223 0
M  V30 4461 H 426.217 -0.265221 1.41536 0
M  V30 4462 H 428.17 -2.99117 2.96828 0
M  V30 4463 H 426.894 -2.7592 1.74745 0
M  V30 4464 H 425.553 -1.39797 3.38899 0
M  V30 4465 H 425.201 -3.86795 3.21556 0
M  V30 4466 H 424.901 -3.28498 4.87199 0
M  V30 4467 H 426.425 -4.13628 4.4916 0
M  V30 4468 H 427.839 -2.03696 5.35893 0
M  V30 4469 H 426.236 -1.40452 5.83432 0
M  V30 4470 H 427.306 -0.407992 4.83181 0
M  V30 4471 N 428.649 -1.55105 -0.279332 0
M  V30 4472 C 429.897 -1.75066 -1.00977 0
M  V30 4473 C 430.218 -0.551276 -1.87045 0
M  V30 4474 O 429.488 0.433984 -1.91032 0
M  V30 4475 H 428.068 -0.645578 -0.375816 0
M  V30 4476 H 430.73 -1.92497 -0.305089 0
M  V30 4477 H 429.826 -2.64894 -1.65038 0
M  V30 4478 N 430.127 0.543554 -1.4793 0
M  V30 4479 C 431.355 1.32516 -1.58894 0
M  V30 4480 C 431.77 1.87215 -0.244131 0
M  V30 4481 O 431.127 1.65709 0.764652 0
M  V30 4482 C 431.178 2.48554 -2.62494 0
M  V30 4483 O 430.899 1.96112 -3.91755 0
M  V30 4484 C 432.4 3.40572 -2.8377 0
M  V30 4485 H 429.62 0.403472 -0.536145 0
M  V30 4486 H 432.164 0.657106 -1.93655 0
M  V30 4487 H 430.319 3.1127 -2.30629 0
M  V30 4488 H 430.733 2.71967 -4.4848 0
M  V30 4489 H 432.207 4.18375 -3.60093 0
M  V30 4490 H 432.684 3.94965 -1.92092 0
M  V30 4491 H 433.29 2.8366 -3.16887 0
M  V30 4492 N 431.605 1.3629 0.791371 0
M  V30 4493 C 432.835 1.33368 1.57786 0
M  V30 4494 C 433.243 -0.0875188 1.88997 0
M  V30 4495 O 432.586 -1.05427 1.50435 0
M  V30 4496 C 432.648 2.08802 2.92646 0
M  V30 4497 C 432.312 3.57903 2.84174 0
M  V30 4498 C 433.309 4.52191 2.56553 0
M  V30 4499 C 430.994 4.00762 3.02812 0
M  V30 4500 C 432.988 5.87315 2.47669 0
M  V30 4501 C 430.675 5.35977 2.93551 0
M  V30 4502 C 431.673 6.29066 2.66017 0
M  V30 4503 O 431.361 7.61798 2.56746 0
M  V30 4504 H 431.093 0.459166 0.496128 0
M  V30 4505 H 433.647 1.79952 0.990269 0
M  V30 4506 H 431.877 1.56878 3.53449 0
M  V30 4507 H 433.566 1.98762 3.53904 0
M  V30 4508 H 434.332 4.20393 2.41858 0
M  V30 4509 H 430.211 3.2868 3.2325 0
M  V30 4510 H 433.755 6.59943 2.26099 0
M  V30 4511 H 429.652 5.67384 3.07808 0
M  V30 4512 H 430.42 7.71898 2.72242 0
M  V30 4513 N 433.083 -1.0153 1.20538 0
M  V30 4514 C 434.36 -1.72327 0.925343 0
M  V30 4515 C 434.74 -2.03383 -0.565547 0
M  V30 4516 O 434.088 -1.69934 -1.52757 0
M  V30 4517 C 434.298 -2.9902 1.79967 0
M  V30 4518 C 435.646 -3.72258 2.04228 0
M  V30 4519 O 436.67 -3.08979 1.77231 0
M  V30 4520 O 435.529 -4.86053 2.4983 0
M  V30 4521 H 432.623 -0.751099 0.346092 0
M  V30 4522 H 435.169 -1.07366 1.31417 0
M  V30 4523 H 433.941 -2.72402 2.80915 0
M  V30 4524 H 433.564 -3.71721 1.41099 0
M  V30 4525 N 434.561 -1.01147 -1.20859 0
M  V30 4526 C 435.809 -0.696486 -1.89719 0
M  V30 4527 C 436.13 0.775788 -1.78904 0
M  V30 4528 O 435.4 1.55759 -1.18811 0
M  V30 4529 H 433.98 -0.254628 -0.702263 0
M  V30 4530 H 436.642 -1.28197 -1.46804 0
M  V30 4531 H 435.738 -0.975357 -2.96468 0
M  V30 4532 N 436.039 1.36541 -0.78704 0
M  V30 4533 C 437.267 2.03561 -0.370199 0
M  V30 4534 C 437.682 1.59347 1.01263 0
M  V30 4535 O 437.039 0.781781 1.64907 0
M  V30 4536 C 437.09 3.59033 -0.421614 0
M  V30 4537 O 436.811 4.01634 -1.7499 0
M  V30 4538 C 438.312 4.433 0.00489763 0
M  V30 4539 H 435.532 0.653346 -0.152904 0
M  V30 4540 H 438.076 1.74566 -1.06522 0
M  V30 4541 H 436.231 3.86746 0.224971 0
M  V30 4542 H 436.645 4.96217 -1.69909 0
M  V30 4543 H 438.119 5.51939 -0.0822184 0
M  V30 4544 H 438.596 4.26285 1.05723 0
M  V30 4545 H 439.202 4.20843 -0.614085 0
M  V30 4546 N 437.518 0.538854 1.48102 0
M  V30 4547 C 438.767 0.0059532 2.01699 0
M  V30 4548 C 439.08 -1.34476 1.42041 0
M  V30 4549 O 440.286 -1.96653 1.87189 0
M  V30 4550 C 438.742 -0.0397627 3.59878 0
M  V30 4551 C 438.35 1.30659 4.28523 0
M  V30 4552 C 440.094 -0.521024 4.2129 0
M  V30 4553 C 438.001 1.22098 5.78659 0
M  V30 4554 H 436.931 -0.00154456 0.753998 0
M  V30 4555 H 439.582 0.683963 1.70277 0
M  V30 4556 H 437.964 -0.783037 3.88181 0
M  V30 4557 H 439.138 2.06613 4.11883 0
M  V30 4558 H 437.453 1.7243 3.79021 0
M  V30 4559 H 440.05 -0.603184 5.31287 0
M  V30 4560 H 440.393 -1.52885 3.8721 0
M  V30 4561 H 440.926 0.166834 3.9745 0
M  V30 4562 H 437.665 2.20424 6.17328 0
M  V30 4563 H 437.185 0.50295 5.97688 0
M  V30 4564 H 438.864 0.915345 6.40492 0
M  V30 4565 N 438.996 -1.55193 0.274407 0
M  V30 4566 C 440.226 -2.03692 -0.345442 0
M  V30 4567 C 440.634 -1.15224 -1.50067 0
M  V30 4568 O 439.977 -0.164749 -1.8296 0
M  V30 4569 C 440.039 -3.48325 -0.88939 0
M  V30 4570 C 439.703 -4.56794 0.137115 0
M  V30 4571 C 440.7 -5.11028 0.956378 0
M  V30 4572 C 438.385 -5.01568 0.27115 0
M  V30 4573 C 440.379 -6.08552 1.89587 0
M  V30 4574 C 438.066 -5.98918 1.21412 0
M  V30 4575 C 439.064 -6.52291 2.02498 0
M  V30 4576 O 438.752 -7.47738 2.952 0
M  V30 4577 H 438.484 -0.670893 -0.0829332 0
M  V30 4578 H 441.038 -2.01387 0.404056 0
M  V30 4579 H 439.268 -3.47867 -1.68895 0
M  V30 4580 H 440.957 -3.80167 -1.42225 0
M  V30 4581 H 441.723 -4.7725 0.863559 0
M  V30 4582 H 437.602 -4.5967 -0.349987 0
M  V30 4583 H 441.146 -6.50137 2.52918 0
M  V30 4584 H 437.043 -6.32114 1.30776 0
M  V30 4585 H 437.811 -7.65451 2.89874 0
M  V30 4586 N 440.474 -0.00167713 -1.576 0
M  V30 4587 C 441.422 1.0074 -2.09652 0
M  V30 4588 C 442.416 1.35483 -1.01689 0
M  V30 4589 O 443.622 1.34028 -1.20152 0
M  V30 4590 H 439.997 0.342537 -0.669457 0
M  V30 4591 H 441.968 0.542841 -2.93421 0
M  V30 4592 C 440.717 2.2899 -2.61647 0
M  V30 4593 H 440.04 2.03124 -3.44355 0
M  V30 4594 H 441.48 2.9787 -3.01744 0
M  V30 4595 C 439.939 3.00085 -1.53136 0
M  V30 4596 O 440.469 3.91135 -0.91524 0
M  V30 4597 N 438.675 2.6194 -1.25841 0
M  V30 4598 H 438.222 1.8798 -1.76129 0
M  V30 4599 H 438.18 3.09822 -0.534576 0
M  V30 4600 N 441.952 1.55251 0.271103 0
M  V30 4601 C 442.915 1.87484 1.31842 0
M  V30 4602 C 443.915 0.749545 1.42262 0
M  V30 4603 O 445.105 1.01771 1.4138 0
M  V30 4604 C 442.237 2.0818 2.69951 0
M  V30 4605 H 443.43 2.81108 1.0449 0
M  V30 4606 H 440.983 1.47771 0.509258 0
M  V30 4607 H 441.718 1.16944 3.02481 0
M  V30 4608 H 441.503 2.90114 2.63774 0
M  V30 4609 H 442.993 2.34385 3.4562 0
M  V30 4610 N 443.43 -0.535701 1.48216 0
M  V30 4611 C 444.38 -1.63688 1.58714 0
M  V30 4612 C 445.364 -1.54635 0.444615 0
M  V30 4613 O 446.556 -1.62753 0.695742 0
M  V30 4614 C 443.685 -3.02423 1.62466 0
M  V30 4615 C 442.771 -3.16601 2.82178 0
M  V30 4616 N 443.162 -3.00771 4.06658 0
M  V30 4617 C 441.46 -3.47645 2.79391 0
M  V30 4618 C 442.161 -3.18213 4.86945 0
M  V30 4619 N 441.137 -3.45528 4.19656 0
M  V30 4620 H 444.939 -1.5005 2.5271 0
M  V30 4621 H 442.453 -0.741018 1.44508 0
M  V30 4622 H 444.45 -3.81517 1.6808 0
M  V30 4623 H 443.11 -3.17157 0.695826 0
M  V30 4624 H 444.121 -2.77652 4.37184 0
M  V30 4625 H 440.798 -3.68771 1.95739 0
M  V30 4626 H 442.188 -3.1076 5.95716 0
M  V30 4627 N 444.908 -1.36708 -0.784132 0
M  V30 4628 C 445.818 -1.3363 -1.92822 0
M  V30 4629 C 446.834 -0.237686 -1.72369 0
M  V30 4630 O 448.01 -0.470962 -1.95816 0
M  V30 4631 C 445.075 -1.13011 -3.27764 0
M  V30 4632 C 444.136 -2.32397 -3.60957 0
M  V30 4633 C 443.369 -2.12752 -4.89461 0
M  V30 4634 O 443.592 -1.10541 -5.59586 0
M  V30 4635 O 442.526 -3.00653 -5.21432 0
M  V30 4636 H 446.352 -2.29964 -1.98369 0
M  V30 4637 H 443.937 -1.1731 -0.925136 0
M  V30 4638 H 445.819 -1.03451 -4.08504 0
M  V30 4639 H 444.494 -0.19743 -3.23097 0
M  V30 4640 H 443.401 -2.47527 -2.80502 0
M  V30 4641 H 444.734 -3.2419 -3.70354 0
M  V30 4642 N 446.386 1.0089 -1.21074 0
M  V30 4643 C 447.632 1.74866 -1.02712 0
M  V30 4644 C 447.965 1.89178 0.438787 0
M  V30 4645 O 447.24 1.42325 1.32567 0
M  V30 4646 C 447.523 3.16347 -1.72036 0
M  V30 4647 C 447.376 3.09782 -3.26121 0
M  V30 4648 C 448.695 4.15187 -1.45973 0
M  V30 4649 H 445.814 0.634736 -0.374539 0
M  V30 4650 H 448.456 1.17646 -1.49196 0
M  V30 4651 H 446.606 3.65201 -1.32517 0
M  V30 4652 H 448.278 2.68673 -3.74983 0
M  V30 4653 H 446.521 2.46982 -3.56626 0
M  V30 4654 H 447.192 4.09829 -3.6979 0
M  V30 4655 H 449.668 3.75022 -1.80272 0
M  V30 4656 H 448.544 5.12331 -1.96999 0
M  V30 4657 H 448.805 4.40386 -0.388924 0
M  V30 4658 N 447.864 1.01787 1.20321 0
M  V30 4659 C 449.11 0.708985 1.90003 0
M  V30 4660 C 449.443 -0.759572 1.78729 0
M  V30 4661 O 448.718 -1.55198 1.17234 0
M  V30 4662 C 449.001 1.1469 3.41348 0
M  V30 4663 C 448.854 2.67586 3.61549 0
M  V30 4664 C 450.173 0.71915 4.34185 0
M  V30 4665 H 447.292 0.259034 0.689978 0
M  V30 4666 H 449.934 1.26584 1.41692 0
M  V30 4667 H 448.084 0.673128 3.82624 0
M  V30 4668 H 449.756 3.22826 3.29517 0
M  V30 4669 H 447.999 3.085 3.04976 0
M  V30 4670 H 448.67 2.93281 4.67643 0
M  V30 4671 H 451.146 1.12647 4.00562 0
M  V30 4672 H 450.022 1.05358 5.38694 0
M  V30 4673 H 450.283 -0.379111 4.40472 0
M  V30 4674 N 449.342 -1.36122 0.79427 0
M  V30 4675 C 450.289 -2.29982 0.194101 0
M  V30 4676 C 451.259 -1.52214 -0.664833 0
M  V30 4677 O 452.444 -1.80702 -0.612498 0
M  V30 4678 C 449.584 -3.38706 -0.661244 0
M  V30 4679 C 448.697 -4.31456 0.216766 0
M  V30 4680 C 447.832 -5.27265 -0.645411 0
M  V30 4681 C 446.871 -6.11653 0.233756 0
M  V30 4682 N 446.008 -6.99636 -0.587682 0
M  V30 4683 H 450.848 -2.80722 0.999965 0
M  V30 4684 H 448.385 -1.38172 0.504677 0
M  V30 4685 H 450.343 -4.00394 -1.17219 0
M  V30 4686 H 448.973 -2.89274 -1.43249 0
M  V30 4687 H 448.025 -3.7088 0.845724 0
M  V30 4688 H 449.337 -4.90724 0.893973 0
M  V30 4689 H 448.491 -5.94266 -1.22198 0
M  V30 4690 H 447.23 -4.68463 -1.35623 0
M  V30 4691 H 446.235 -5.4361 0.82269 0
M  V30 4692 H 447.46 -6.72531 0.942247 0
M  V30 4693 H 445.406 -6.43337 -1.2827 0
M  V30 4694 H 445.323 -7.55993 0.0317402 0
M  V30 4695 H 446.591 -7.71001 -1.14792 0
M  V30 4696 N 450.82 -0.546701 -1.47814 0
M  V30 4697 C 452.236 -0.205717 -1.58269 0
M  V30 4698 C 452.436 1.29153 -1.54667 0
M  V30 4699 O 451.492 2.07098 -1.44453 0
M  V30 4700 C 452.805 -0.823065 -2.89216 0
M  V30 4701 C 454.353 -0.793328 -3.02779 0
M  V30 4702 C 454.828 -1.38955 -4.36412 0
M  V30 4703 N 456.319 -1.35227 -4.43021 0
M  V30 4704 C 457.054 -1.78333 -5.44963 0
M  V30 4705 N 456.55 -2.29246 -6.53772 0
M  V30 4706 N 458.343 -1.69467 -5.35945 0
M  V30 4707 H 450.494 -1.5196 -1.48398 0
M  V30 4708 H 452.757 -0.633078 -0.705632 0
M  V30 4709 H 452.463 -1.8749 -2.97558 0
M  V30 4710 H 452.337 -0.309915 -3.75925 0
M  V30 4711 H 454.724 0.249784 -2.94041 0
M  V30 4712 H 454.805 -1.34412 -2.17639 0
M  V30 4713 H 454.449 -2.43168 -4.45906 0
M  V30 4714 H 454.379 -0.814291 -5.20266 0
M  V30 4715 H 456.87 -0.979739 -3.64979 0
M  V30 4716 H 457.183 -2.60089 -7.27718 0
M  V30 4717 H 455.528 -2.3325 -6.5469 0
M  V30 4718 H 458.719 -1.29477 -4.49837 0
M  V30 4719 H 458.892 -2.03381 -6.15256 0
M  V30 4720 N 452.299 1.55045 -0.282633 0
M  V30 4721 C 453.548 1.98938 0.332667 0
M  V30 4722 C 453.861 1.17455 1.56409 0
M  V30 4723 O 455.067 1.51527 2.25282 0
M  V30 4724 C 453.523 3.54105 0.643226 0
M  V30 4725 C 453.131 4.44374 -0.568814 0
M  V30 4726 C 454.875 4.06569 1.22074 0
M  V30 4727 C 452.782 5.90943 -0.232426 0
M  V30 4728 H 451.712 0.743043 0.128075 0
M  V30 4729 H 454.363 1.79341 -0.388464 0
M  V30 4730 H 452.745 3.69532 1.42346 0
M  V30 4731 H 453.919 4.40718 -1.34551 0
M  V30 4732 H 452.234 4.02585 -1.06369 0
M  V30 4733 H 454.831 5.13626 1.48635 0
M  V30 4734 H 455.174 3.56057 2.15707 0
M  V30 4735 H 455.707 3.94612 0.502621 0
M  V30 4736 H 452.446 6.45567 -1.13683 0
M  V30 4737 H 451.966 5.9765 0.507357 0
M  V30 4738 H 453.645 6.4677 0.172657 0
M  V30 4739 N 453.777 0.010035 1.57597 0
M  V30 4740 C 455.025 -0.671371 1.90623 0
M  V30 4741 C 455.346 -1.73753 0.885151 0
M  V30 4742 O 454.616 -1.95752 -0.0760611 0
M  V30 4743 H 453.196 -0.250968 0.703579 0
M  V30 4744 H 455.858 0.0533325 1.94827 0
M  V30 4745 H 454.954 -1.13626 2.90681 0
M  V30 4746 N 455.255 -1.55392 -0.262866 0
M  V30 4747 C 456.205 -1.85355 -1.32768 0
M  V30 4748 C 457.189 -0.713188 -1.44231 0
M  V30 4749 O 458.381 -0.974765 -1.47741 0
M  V30 4750 C 455.51 -2.13781 -2.68612 0
M  V30 4751 C 454.596 -3.34104 -2.61219 0
M  V30 4752 N 454.987 -4.53766 -2.2345 0
M  V30 4753 C 453.285 -3.36895 -2.92263 0
M  V30 4754 C 453.986 -5.35877 -2.26298 0
M  V30 4755 N 452.962 -4.74536 -2.65172 0
M  V30 4756 H 456.764 -2.75413 -1.02591 0
M  V30 4757 H 454.278 -1.55405 -0.471503 0
M  V30 4758 H 456.275 -2.33407 -3.45437 0
M  V30 4759 H 454.935 -1.25013 -2.99669 0
M  V30 4760 H 455.946 -4.79682 -1.95258 0
M  V30 4761 H 452.623 -2.58351 -3.27965 0
M  V30 4762 H 454.013 -6.41577 -1.99572 0
M  V30 4763 N 456.733 0.527833 -1.48498 0
M  V30 4764 C 457.663 1.64136 -1.66077 0
M  V30 4765 C 458.644 1.62286 -0.509625 0
M  V30 4766 O 459.829 1.79449 -0.742413 0
M  V30 4767 C 456.959 3.02717 -1.70234 0
M  V30 4768 C 455.913 3.19426 -2.8487 0
M  V30 4769 C 455.239 4.5909 -2.74118 0
M  V30 4770 C 456.539 3.01993 -4.26142 0
M  V30 4771 H 458.233 1.4968 -2.593 0
M  V30 4772 H 455.779 0.718654 -1.24785 0
M  V30 4773 H 457.732 3.80491 -1.8112 0
M  V30 4774 H 456.456 3.18201 -0.735911 0
M  V30 4775 H 455.115 2.4407 -2.73542 0
M  V30 4776 H 454.763 4.71413 -1.7544 0
M  V30 4777 H 454.463 4.71214 -3.51042 0
M  V30 4778 H 455.987 5.3896 -2.86974 0
M  V30 4779 H 457.401 3.69558 -4.38292 0
M  V30 4780 H 455.798 3.2561 -5.04082 0
M  V30 4781 H 456.868 1.98396 -4.42456 0
M  V30 4782 N 458.211 1.37122 0.776871 0
M  V30 4783 C 459.451 1.33441 1.54831 0
M  V30 4784 C 459.815 -0.0818963 1.91825 0
M  V30 4785 O 461.016 -0.24338 2.67696 0
M  V30 4786 C 459.287 2.24267 2.78279 0
M  V30 4787 S 460.846 2.38389 3.68397 0
M  V30 4788 H 457.664 0.473791 0.530135 0
M  V30 4789 H 460.266 1.7282 0.913968 0
M  V30 4790 H 458.97 3.261 2.49173 0
M  V30 4791 H 458.501 1.85953 3.46677 0
M  V30 4792 H 460.516 1.59068 4.70013 0
M  V30 4793 N 459.689 -1.00246 1.21608 0
M  V30 4794 C 460.966 -1.71336 0.943568 0
M  V30 4795 C 461.346 -2.03972 -0.543943 0
M  V30 4796 O 460.694 -1.71545 -1.50946 0
M  V30 4797 C 460.904 -2.97094 1.83128 0
M  V30 4798 C 462.252 -3.70071 2.08165 0
M  V30 4799 O 463.276 -3.07081 1.80498 0
M  V30 4800 O 462.135 -4.83376 2.54971 0
M  V30 4801 H 459.229 -0.747386 0.354039 0
M  V30 4802 H 461.775 -1.05967 1.32549 0
M  V30 4803 H 460.547 -2.69407 2.83788 0
M  V30 4804 H 460.17 -3.70204 1.45034 0
M  V30 4805 N 461.167 -1.02423 -1.1978 0
M  V30 4806 C 462.397 -0.736387 -1.93031 0
M  V30 4807 C 462.805 0.708023 -1.75453 0
M  V30 4808 O 462.148 1.4927 -1.07071 0
M  V30 4809 C 462.21 -1.00194 -3.45255 0
M  V30 4810 C 461.874 -2.43698 -3.86601 0
M  V30 4811 C 462.871 -3.41814 -3.91738 0
M  V30 4812 C 460.556 -2.77975 -4.18372 0
M  V30 4813 C 462.55 -4.72265 -4.28071 0
M  V30 4814 C 460.237 -4.08636 -4.54378 0
M  V30 4815 C 461.235 -5.05592 -4.59201 0
M  V30 4816 O 460.923 -6.33914 -4.94376 0
M  V30 4817 H 460.655 -0.269116 -0.620123 0
M  V30 4818 H 463.209 -1.37043 -1.52998 0
M  V30 4819 H 461.439 -0.310747 -3.85449 0
M  V30 4820 H 463.128 -0.704488 -3.9974 0
M  V30 4821 H 463.894 -3.16671 -3.67348 0
M  V30 4822 H 459.773 -2.0319 -4.13805 0
M  V30 4823 H 463.317 -5.4794 -4.3175 0
M  V30 4824 H 459.214 -4.33556 -4.78226 0
M  V30 4825 H 459.982 -6.38317 -5.12341 0
M  V30 4826 N 462.645 1.35699 -0.801477 0
M  V30 4827 C 463.894 1.98165 -0.375979 0
M  V30 4828 C 464.207 1.64306 1.06127 0
M  V30 4829 O 465.413 2.20097 1.58964 0
M  V30 4830 C 463.869 3.54497 -0.621305 0
M  V30 4831 C 463.477 3.9727 -2.07076 0
M  V30 4832 C 465.221 4.23697 -0.26091 0
M  V30 4833 C 463.128 5.46427 -2.26211 0
M  V30 4834 H 462.058 0.741478 -0.136844 0
M  V30 4835 H 464.709 1.54834 -0.984814 0
M  V30 4836 H 463.091 3.95958 0.0574112 0
M  V30 4837 H 464.265 3.66974 -2.78687 0
M  V30 4838 H 462.58 3.40943 -2.39054 0
M  V30 4839 H 465.177 5.33334 -0.381994 0
M  V30 4840 H 465.52 4.0869 0.792344 0
M  V30 4841 H 466.053 3.87639 -0.893339 0
M  V30 4842 H 462.792 5.66396 -3.29963 0
M  V30 4843 H 462.312 5.78309 -1.59119 0
M  V30 4844 H 463.991 6.12819 -2.07513 0
M  V30 4845 N 464.123 0.554532 1.47522 0
M  V30 4846 C 465.033 -0.197865 2.33764 0
M  V30 4847 C 466.049 -0.914576 1.48025 0
M  V30 4848 O 467.225 -0.884067 1.80959 0
M  V30 4849 C 464.29 -1.21628 3.24665 0
M  V30 4850 C 463.351 -0.507283 4.26292 0
M  V30 4851 C 462.584 -1.47718 5.1285 0
M  V30 4852 O 462.807 -2.7118 5.01814 0
M  V30 4853 O 461.741 -1.00313 5.93482 0
M  V30 4854 H 465.567 0.50949 2.99396 0
M  V30 4855 H 463.152 0.315176 1.46038 0
M  V30 4856 H 465.034 -1.80421 3.80823 0
M  V30 4857 H 463.709 -1.9056 2.61665 0
M  V30 4858 H 462.616 0.121778 3.73902 0
M  V30 4859 H 463.949 0.140544 4.91999 0
M  V30 4860 N 465.601 -1.54893 0.290851 0
M  V30 4861 C 466.848 -1.99933 -0.321391 0
M  V30 4862 C 467.176 -1.17927 -1.54672 0
M  V30 4863 O 466.431 -0.240902 -1.94212 0
M  V30 4864 C 466.73 -3.49815 -0.732397 0
M  V30 4865 C 466.396 -4.4921 0.390056 0
M  V30 4866 C 465.058 -4.76107 0.698223 0
M  V30 4867 C 467.41 -5.08453 1.14562 0
M  V30 4868 C 464.738 -5.59514 1.76526 0
M  V30 4869 C 467.09 -5.9302 2.2025 0
M  V30 4870 C 465.754 -6.18232 2.51684 0
M  V30 4871 H 465.024 -0.731608 -0.117605 0
M  V30 4872 H 467.671 -1.87107 0.407839 0
M  V30 4873 H 465.976 -3.60199 -1.54155 0
M  V30 4874 H 467.673 -3.82083 -1.21712 0
M  V30 4875 H 464.263 -4.28372 0.13976 0
M  V30 4876 H 468.447 -4.87683 0.920801 0
M  V30 4877 H 463.703 -5.77289 2.01364 0
M  V30 4878 H 467.877 -6.37955 2.7926 0
M  V30 4879 H 465.504 -6.82653 3.34499 0
M  V30 4880 N 467.08 -0.0183926 -1.57589 0
M  V30 4881 C 468.357 0.700621 -1.82622 0
M  V30 4882 C 468.737 1.90951 -0.90005 0
M  V30 4883 O 468.085 2.28452 0.0469145 0
M  V30 4884 C 468.295 1.08899 -3.31575 0
M  V30 4885 C 469.643 1.48514 -3.9778 0
M  V30 4886 O 470.667 1.18227 -3.36007 0
M  V30 4887 O 469.526 2.04903 -5.06633 0
M  V30 4888 H 466.62 0.342743 -0.752633 0
M  V30 4889 H 469.166 -0.0452548 -1.6964 0
M  V30 4890 H 467.938 0.228113 -3.90635 0
M  V30 4891 H 467.561 1.89338 -3.49624 0
M  V30 4892 N 468.558 1.5553 0.254621 0
M  V30 4893 C 469.783 1.81383 1.00573 0
M  V30 4894 C 470.208 0.594419 1.78461 0
M  V30 4895 O 469.566 -0.456403 1.75461 0
M  V30 4896 C 469.614 3.04892 1.92545 0
M  V30 4897 O 468.718 2.81266 3.01601 0
M  V30 4898 H 468.059 0.598969 0.286587 0
M  V30 4899 H 470.589 2.02703 0.277952 0
M  V30 4900 H 470.599 3.34119 2.34155 0
M  V30 4901 H 469.274 3.93287 1.3527 0
M  V30 4902 H 467.851 2.63185 2.64174 0
M  V30 4903 N 470.036 -0.519951 1.48776 0
M  V30 4904 C 470.999 -1.60574 1.6355 0
M  V30 4905 C 471.999 -1.52557 0.508234 0
M  V30 4906 O 473.189 -1.56047 0.774262 0
M  V30 4907 C 470.321 -3.00211 1.61512 0
M  V30 4908 H 471.514 -1.4881 2.60376 0
M  V30 4909 H 469.067 -0.742772 1.37523 0
M  V30 4910 H 469.802 -3.17471 0.662009 0
M  V30 4911 H 469.587 -3.07439 2.43359 0
M  V30 4912 H 471.077 -3.79134 1.75064 0
M  V30 4913 N 471.514 -1.37532 -0.769588 0
M  V30 4914 C 472.76 -1.34063 -1.52966 0
M  V30 4915 C 473.115 0.0737942 -1.92258 0
M  V30 4916 O 472.408 1.03291 -1.61374 0
M  V30 4917 C 472.602 -2.21558 -2.8044 0
M  V30 4918 C 472.431 -3.71367 -2.53608 0
M  V30 4919 C 471.201 -4.40464 -2.47628 0
M  V30 4920 C 473.399 -4.64177 -2.21459 0
M  V30 4921 N 471.381 -5.758 -2.12902 0
M  V30 4922 C 472.752 -5.87907 -1.9689 0
M  V30 4923 C 474.807 -4.52541 -2.07633 0
M  V30 4924 C 473.51 -7.01304 -1.59892 0
M  V30 4925 C 475.536 -5.65825 -1.72034 0
M  V30 4926 C 474.898 -6.88606 -1.48327 0
M  V30 4927 H 470.997 -0.545856 -0.559969 0
M  V30 4928 H 473.581 -1.72773 -0.897634 0
M  V30 4929 H 471.752 -1.85061 -3.41478 0
M  V30 4930 H 473.484 -2.09332 -3.46356 0
M  V30 4931 H 470.239 -3.93491 -2.63556 0
M  V30 4932 H 470.663 -6.47328 -1.9823 0
M  V30 4933 H 475.305 -3.58183 -2.24643 0
M  V30 4934 H 473.023 -7.95594 -1.4162 0
M  V30 4935 H 476.609 -5.58793 -1.61991 0
M  V30 4936 H 475.489 -7.74779 -1.21189 0
M  V30 4937 N 472.992 0.995999 -1.22138 0
M  V30 4938 C 474.238 1.73767 -1.04561 0
M  V30 4939 C 474.571 1.89633 0.418698 0
M  V30 4940 O 473.846 1.43723 1.3105 0
M  V30 4941 C 474.129 3.14505 -1.75382 0
M  V30 4942 C 473.982 3.06306 -3.29388 0
M  V30 4943 C 475.301 4.13615 -1.50369 0
M  V30 4944 H 472.42 0.630728 -0.38125 0
M  V30 4945 H 475.062 1.16057 -1.50435 0
M  V30 4946 H 473.212 3.63775 -1.36383 0
M  V30 4947 H 474.884 2.64681 -3.77812 0
M  V30 4948 H 473.127 2.43186 -3.59226 0
M  V30 4949 H 473.798 4.05884 -3.74116 0
M  V30 4950 H 476.274 3.73089 -1.84239 0
M  V30 4951 H 475.15 5.10212 -2.02421 0
M  V30 4952 H 475.411 4.39949 -0.435611 0
M  V30 4953 N 474.47 1.03057 1.19235 0
M  V30 4954 C 475.718 0.726581 1.88587 0
M  V30 4955 C 476.039 -0.747227 1.80115 0
M  V30 4956 O 475.309 -1.53849 1.21274 0
M  V30 4957 H 473.889 0.265768 0.698124 0
M  V30 4958 H 476.551 1.30516 1.44746 0
M  V30 4959 H 475.647 1.0224 2.94879 0
M  V30 4960 N 475.948 -1.35272 0.808662 0
M  V30 4961 C 477.178 -2.02652 0.401953 0
M  V30 4962 C 477.586 -1.6108 -0.992462 0
M  V30 4963 O 476.929 -0.804984 -1.65123 0
M  V30 4964 C 476.991 -3.57174 0.408246 0
M  V30 4965 C 476.655 -4.22019 1.75353 0
M  V30 4966 C 477.652 -4.43552 2.71215 0
M  V30 4967 C 475.337 -4.59093 2.03811 0
M  V30 4968 C 477.331 -5.01264 3.93717 0
M  V30 4969 C 475.018 -5.16519 3.26576 0
M  V30 4970 C 476.016 -5.37546 4.21347 0
M  V30 4971 O 475.704 -5.93761 5.41944 0
M  V30 4972 H 475.436 -0.656495 0.161216 0
M  V30 4973 H 477.99 -1.73829 1.0942 0
M  V30 4974 H 476.22 -3.85197 -0.340608 0
M  V30 4975 H 477.909 -4.05893 0.0235623 0
M  V30 4976 H 478.675 -4.15288 2.50522 0
M  V30 4977 H 474.554 -4.42039 1.30854 0
M  V30 4978 H 478.098 -5.17592 4.67701 0
M  V30 4979 H 473.995 -5.4421 3.47139 0
M  V30 4980 H 474.763 -6.1221 5.43269 0
M  V30 4981 N 477.426 -0.562348 -1.47226 0
M  V30 4982 C 478.336 0.185466 -2.33866 0
M  V30 4983 C 479.352 0.906713 -1.48508 0
M  V30 4984 O 480.528 0.874458 -1.81425 0
M  V30 4985 C 477.593 1.19904 -3.25306 0
M  V30 4986 C 476.654 0.484669 -4.26555 0
M  V30 4987 C 475.887 1.44996 -5.13626 0
M  V30 4988 O 476.11 2.68515 -5.03245 0
M  V30 4989 O 475.044 0.971642 -5.94006 0
M  V30 4990 H 478.87 -0.525361 -2.99121 0
M  V30 4991 H 476.455 -0.322916 -1.45868 0
M  V30 4992 H 478.337 1.78399 -3.81774 0
M  V30 4993 H 477.012 1.8917 -2.62672 0
M  V30 4994 H 475.919 -0.141605 -3.73832 0
M  V30 4995 H 477.252 -0.166634 -4.91918 0
M  V30 4996 N 478.904 1.54736 -0.299062 0
M  V30 4997 C 479.836 2.20891 0.61153 0
M  V30 4998 C 480.849 1.20104 1.09904 0
M  V30 4999 O 482.038 1.46707 1.01683 0
M  V30 5000 C 479.138 2.84018 1.84897 0
M  V30 5001 C 478.311 4.10719 1.50428 0
M  V30 5002 C 477.37 4.57667 2.59667 0
M  V30 5003 O 476.396 5.2291 2.24842 0
M  V30 5004 N 477.598 4.29821 3.90172 0
M  V30 5005 H 480.363 2.99666 0.0452001 0
M  V30 5006 H 477.924 1.61446 -0.121178 0
M  V30 5007 H 479.916 3.1236 2.5732 0
M  V30 5008 H 478.486 2.09095 2.32375 0
M  V30 5009 H 477.706 3.89408 0.612781 0
M  V30 5010 H 478.994 4.93223 1.24934 0
M  V30 5011 H 478.392 3.77549 4.21276 0
M  V30 5012 H 476.949 4.62877 4.58899 0
M  V30 5013 N 480.382 0.0267497 1.57577 0
M  V30 5014 C 481.629 -0.652404 1.91703 0
M  V30 5015 C 481.957 -1.72271 0.902936 0
M  V30 5016 O 481.212 -1.955 -0.0884843 0
M  V30 5017 C 481.511 -1.30914 3.3256 0
M  V30 5018 C 481.177 -0.369441 4.49384 0
M  V30 5019 C 479.839 -0.110791 4.81072 0
M  V30 5020 C 482.191 0.275971 5.20469 0
M  V30 5021 C 479.519 0.801116 5.81205 0
M  V30 5022 C 481.871 1.17592 6.21575 0
M  V30 5023 C 480.535 1.44348 6.51705 0
M  V30 5024 H 479.805 -0.238732 0.70149 0
M  V30 5025 H 482.452 0.0880091 1.91298 0
M  V30 5026 H 480.757 -2.12425 3.29216 0
M  V30 5027 H 482.454 -1.84115 3.56234 0
M  V30 5028 H 479.044 -0.581211 4.24641 0
M  V30 5029 H 483.228 0.0892 4.9622 0
M  V30 5030 H 478.484 1.01614 6.02897 0
M  V30 5031 H 482.658 1.68223 6.75777 0
M  V30 5032 H 480.285 2.15176 7.29111 0
M  V30 5033 N 481.861 -1.55662 -0.24637 0
M  V30 5034 C 483.11 -1.7672 -0.972254 0
M  V30 5035 C 483.423 -0.59078 -1.86465 0
M  V30 5036 O 484.629 -0.684391 -2.62732 0
M  V30 5037 C 483.085 -3.12869 -1.7788 0
M  V30 5038 C 482.693 -4.38161 -0.933768 0
M  V30 5039 C 484.437 -3.43265 -2.49738 0
M  V30 5040 C 482.344 -5.6534 -1.73623 0
M  V30 5041 H 481.274 -0.658795 -0.366749 0
M  V30 5042 H 483.925 -1.82092 -0.226902 0
M  V30 5043 H 482.307 -3.01606 -2.56612 0
M  V30 5044 H 483.481 -4.60413 -0.188736 0
M  V30 5045 H 481.796 -4.15102 -0.328488 0
M  V30 5046 H 484.393 -4.35501 -3.10231 0
M  V30 5047 H 484.736 -2.64614 -3.2138 0
M  V30 5048 H 485.269 -3.55746 -1.78016 0
M  V30 5049 H 482.008 -6.46814 -1.06354 0
M  V30 5050 H 481.528 -5.47188 -2.45653 0
M  V30 5051 H 483.207 -6.04616 -2.30323 0
M  V30 5052 N 483.339 0.512053 -1.4905 0
M  V30 5053 C 484.75 1.09376 -1.51307 0
M  V30 5054 C 485.101 1.94 -0.292971 0
M  V30 5055 O 484.226 2.07965 0.598277 0
M  V30 5056 C 484.821 1.99031 -2.74176 0
M  V30 5057 C 483.38 2.52385 -2.79247 0
M  V30 5058 C 482.527 1.29749 -2.45073 0
M  V30 5059 H 485.478 0.296467 -1.55906 0
M  V30 5060 H 485.499 2.83569 -2.53711 0
M  V30 5061 H 485.011 1.37412 -3.62959 0
M  V30 5062 H 483.112 3.17673 -1.94716 0
M  V30 5063 H 483.225 2.90293 -3.81139 0
M  V30 5064 H 481.589 1.61912 -1.96612 0
M  V30 5065 H 482.372 0.698555 -3.36118 0
M  V30 5066 N 484.817 1.37938 0.762283 0
M  V30 5067 C 485.75 1.2884 1.88349 0
M  V30 5068 C 486.728 0.167084 1.61739 0
M  V30 5069 O 487.912 0.34292 1.85355 0
M  V30 5070 C 485.039 0.994257 3.23778 0
M  V30 5071 C 484.085 2.13376 3.69287 0
M  V30 5072 S 484.918 3.75439 3.81845 0
M  V30 5073 C 486.074 3.48195 5.20107 0
M  V30 5074 H 486.307 2.23736 1.95779 0
M  V30 5075 H 483.84 1.23672 0.924368 0
M  V30 5076 H 485.798 0.83138 4.01993 0
M  V30 5077 H 484.459 0.0626251 3.14038 0
M  V30 5078 H 483.652 1.88319 4.67495 0
M  V30 5079 H 483.254 2.25726 2.98201 0
M  V30 5080 H 485.546 3.0377 6.05583 0
M  V30 5081 H 486.489 4.45765 5.50181 0
M  V30 5082 H 486.897 2.82905 4.88493 0
M  V30 5083 N 486.295 -0.989507 1.22664 0
M  V30 5084 C 487.228 -2.07805 0.942985 0
M  V30 5085 C 488.206 -1.6219 -0.115356 0
M  V30 5086 O 489.39 -1.88492 0.0169565 0
M  V30 5087 C 486.517 -3.361 0.418898 0
M  V30 5088 C 485.563 -4.00643 1.46244 0
M  V30 5089 S 486.396 -4.41059 3.03689 0
M  V30 5090 C 487.552 -5.7252 2.52927 0
M  V30 5091 H 487.785 -2.31547 1.86476 0
M  V30 5092 H 485.318 -1.12446 1.05808 0
M  V30 5093 H 487.276 -4.10315 0.123114 0
M  V30 5094 H 485.937 -3.10383 -0.481818 0
M  V30 5095 H 485.13 -4.93033 1.04569 0
M  V30 5096 H 484.732 -3.32767 1.7071 0
M  V30 5097 H 487.024 -6.49017 1.94379 0
M  V30 5098 H 487.967 -6.19026 3.4382 0
M  V30 5099 H 488.375 -5.30083 1.94094 0
M  V30 5100 N 487.773 -1.03688 -1.18687 0
M  V30 5101 C 489.189 -0.755413 -1.4059 0
M  V30 5102 C 489.389 0.656659 -1.905 0
M  V30 5103 O 488.445 1.42144 -2.08689 0
M  V30 5104 C 489.758 -1.7983 -2.41001 0
M  V30 5105 C 491.306 -1.81877 -2.54735 0
M  V30 5106 C 491.781 -2.85148 -3.58406 0
M  V30 5107 N 493.272 -2.84015 -3.6591 0
M  V30 5108 C 494.007 -3.60573 -4.45841 0
M  V30 5109 N 493.503 -4.46871 -5.29413 0
M  V30 5110 N 495.296 -3.49079 -4.40568 0
M  V30 5111 H 487.447 -1.94818 -0.846148 0
M  V30 5112 H 489.71 -0.842727 -0.434184 0
M  V30 5113 H 489.416 -2.81097 -2.1137 0
M  V30 5114 H 489.29 -1.62727 -3.40294 0
M  V30 5115 H 491.677 -0.812836 -2.83685 0
M  V30 5116 H 491.758 -2.03057 -1.55568 0
M  V30 5117 H 491.402 -3.85918 -3.30197 0
M  V30 5118 H 491.332 -2.61224 -4.57241 0
M  V30 5119 H 493.823 -2.21431 -3.0623 0
M  V30 5120 H 494.136 -5.02007 -5.87545 0
M  V30 5121 H 492.481 -4.5094 -5.28846 0
M  V30 5122 H 495.672 -2.81066 -3.74325 0
M  V30 5123 H 495.845 -4.08994 -5.02621 0
M  V30 5124 N 489.251 1.34841 -0.815825 0
M  V30 5125 C 490.199 2.31549 -0.220888 0
M  V30 5126 C 491.193 1.5707 0.634457 0
M  V30 5127 O 492.399 1.72125 0.526589 0
M  V30 5128 H 488.774 0.750153 -0.0526782 0
M  V30 5129 H 490.745 2.7926 -1.05149 0
M  V30 5130 C 489.494 3.42335 0.608427 0
M  V30 5131 H 488.817 3.9978 -0.0404121 0
M  V30 5132 H 490.257 4.12258 0.990931 0
M  V30 5133 C 488.716 2.86173 1.77782 0
M  V30 5134 O 489.246 2.80474 2.87571 0
M  V30 5135 N 487.452 2.43093 1.59229 0
M  V30 5136 H 486.999 2.47928 0.699237 0
M  V30 5137 H 486.957 2.05866 2.37627 0
M  V30 5138 N 490.729 0.570148 1.46925 0
M  V30 5139 C 491.954 0.0542592 2.07329 0
M  V30 5140 C 492.379 -1.23582 1.41806 0
M  V30 5141 O 491.737 -1.74341 0.497479 0
M  V30 5142 C 491.785 -0.111175 3.60429 0
M  V30 5143 O 490.889 -1.17071 3.95434 0
M  V30 5144 H 490.23 0.0571425 0.661537 0
M  V30 5145 H 492.76 0.789516 1.88753 0
M  V30 5146 H 492.77 -0.321315 4.06733 0
M  V30 5147 H 491.445 0.831012 4.07513 0
M  V30 5148 H 490.022 -0.940029 3.60857 0
M  V30 5149 N 492.207 -1.54576 0.307264 0
M  V30 5150 C 493.432 -2.05139 -0.305379 0
M  V30 5151 C 493.857 -1.18278 -1.46259 0
M  V30 5152 O 493.215 -0.188243 -1.8032 0
M  V30 5153 C 493.263 -3.53066 -0.733283 0
M  V30 5154 O 492.367 -3.69206 -1.83741 0
M  V30 5155 H 491.708 -0.661444 -0.0582105 0
M  V30 5156 H 494.238 -1.99569 0.450931 0
M  V30 5157 H 494.248 -3.95034 -1.02039 0
M  V30 5158 H 492.923 -4.15746 0.113198 0
M  V30 5159 H 491.5 -3.39143 -1.55037 0
M  V30 5160 N 493.685 -0.035106 -1.57561 0
M  V30 5161 C 495.096 0.502885 -1.798 0
M  V30 5162 C 495.447 1.71892 -0.945921 0
M  V30 5163 O 494.572 2.15822 -0.157991 0
M  V30 5164 C 495.167 0.919097 -3.26095 0
M  V30 5165 C 493.726 1.40216 -3.49308 0
M  V30 5166 C 492.873 0.369709 -2.74824 0
M  V30 5167 H 495.824 -0.261102 -1.56537 0
M  V30 5168 H 495.845 1.78308 -3.36135 0
M  V30 5169 H 495.357 0.0338526 -3.88085 0
M  V30 5170 H 493.458 2.30714 -2.92578 0
M  V30 5171 H 493.571 1.40541 -4.58023 0
M  V30 5172 H 491.935 0.839113 -2.40481 0
M  V30 5173 H 492.718 -0.507173 -3.39533 0
M  V30 5174 N 495.163 1.55791 0.238111 0
M  V30 5175 C 496.093 1.94068 1.29846 0
M  V30 5176 C 497.074 0.806726 1.49753 0
M  V30 5177 O 498.259 1.06772 1.62214 0
M  V30 5178 C 495.389 2.24302 2.65153 0
M  V30 5179 C 494.343 3.40032 2.59927 0
M  V30 5180 C 493.669 3.55829 3.99111 0
M  V30 5181 C 494.969 4.75476 2.16148 0
M  V30 5182 H 496.663 2.82887 0.980563 0
M  V30 5183 H 494.209 1.36105 0.470253 0
M  V30 5184 H 496.162 2.4967 3.39475 0
M  V30 5185 H 494.886 1.32318 2.98596 0
M  V30 5186 H 493.545 3.14687 1.88063 0
M  V30 5187 H 493.193 2.6125 4.29834 0
M  V30 5188 H 492.893 4.3366 3.96501 0
M  V30 5189 H 494.417 3.83528 4.7512 0
M  V30 5190 H 495.831 5.00158 2.80205 0
M  V30 5191 H 494.228 5.56472 2.24631 0
M  V30 5192 H 495.298 4.71946 1.11333 0
M  V30 5193 N 496.642 -0.504142 1.49319 0
M  V30 5194 C 497.572 -1.61473 1.68667 0
M  V30 5195 C 498.553 -1.61455 0.535378 0
M  V30 5196 O 499.738 -1.78245 0.770868 0
M  V30 5197 C 496.868 -2.99971 1.75028 0
M  V30 5198 C 495.822 -3.14854 2.89916 0
M  V30 5199 C 495.148 -4.54671 2.81387 0
M  V30 5200 C 496.448 -2.95176 4.30893 0
M  V30 5201 H 498.142 -1.45535 2.61648 0
M  V30 5202 H 495.688 -0.698711 1.25913 0
M  V30 5203 H 497.641 -3.77562 1.8715 0
M  V30 5204 H 496.365 -3.1699 0.786441 0
M  V30 5205 H 495.024 -2.39687 2.77391 0
M  V30 5206 H 494.672 -4.68562 1.82917 0
M  V30 5207 H 494.372 -4.6557 3.58494 0
M  V30 5208 H 495.896 -5.34327 2.95512 0
M  V30 5209 H 497.31 -3.62538 4.44116 0
M  V30 5210 H 495.707 -3.17549 5.09198 0
M  V30 5211 H 496.777 -1.91332 4.45556 0
M  V30 5212 N 498.12 -1.38341 -0.754957 0
M  V30 5213 C 499.369 -1.33791 -1.5094 0
M  V30 5214 C 499.682 0.0699267 -1.95475 0
M  V30 5215 O 500.888 0.237956 -2.70455 0
M  V30 5216 C 499.344 -2.34934 -2.72643 0
M  V30 5217 C 498.952 -3.81332 -2.35138 0
M  V30 5218 C 500.696 -2.39425 -3.50536 0
M  V30 5219 C 498.603 -4.74164 -3.53444 0
M  V30 5220 H 497.533 -0.497314 -0.566741 0
M  V30 5221 H 500.184 -1.63888 -0.825403 0
M  V30 5222 H 498.566 -1.97878 -3.43017 0
M  V30 5223 H 499.74 -4.27319 -1.7244 0
M  V30 5224 H 498.055 -3.79946 -1.70382 0
M  V30 5225 H 500.652 -3.0598 -4.38498 0
M  V30 5226 H 500.995 -1.41278 -3.91594 0
M  V30 5227 H 501.528 -2.75274 -2.87174 0
M  V30 5228 H 498.267 -5.73501 -3.17453 0
M  V30 5229 H 497.787 -4.3287 -4.15191 0
M  V30 5230 H 499.466 -4.92111 -4.20043 0
M  V30 5231 N 499.598 0.982988 -1.23187 0
M  V30 5232 C 500.875 1.69814 -0.970707 0
M  V30 5233 C 501.255 2.04811 0.511424 0
M  V30 5234 O 500.603 1.73924 1.48198 0
M  V30 5235 C 500.813 2.94143 -1.87831 0
M  V30 5236 C 502.161 3.66712 -2.14026 0
M  V30 5237 O 503.185 3.04171 -1.8536 0
M  V30 5238 O 502.044 4.79258 -2.62629 0
M  V30 5239 H 499.138 0.741659 -0.365884 0
M  V30 5240 H 501.684 1.03844 -1.34218 0
M  V30 5241 H 500.456 2.64858 -2.88038 0
M  V30 5242 H 500.079 3.6785 -1.50905 0
M  V30 5243 N 501.076 1.04316 1.18135 0
M  V30 5244 C 502.353 0.662166 1.84051 0
M  V30 5245 C 502.733 -0.858169 1.9287 0
M  V30 5246 O 502.081 -1.76062 1.45652 0
M  V30 5247 C 502.291 1.3409 3.22212 0
M  V30 5248 C 503.639 1.4733 3.9822 0
M  V30 5249 O 504.663 1.29921 3.31661 0
M  V30 5250 O 503.522 1.75722 5.17479 0
M  V30 5251 H 500.616 0.232005 0.79379 0
M  V30 5252 H 503.162 1.1422 1.25506 0
M  V30 5253 H 501.934 2.37853 3.10711 0
M  V30 5254 H 501.557 0.849649 3.88416 0
M  V30 5255 N 502.554 -1.34406 0.822964 0
M  V30 5256 C 503.484 -2.32052 0.259608 0
M  V30 5257 C 504.465 -1.58243 -0.623961 0
M  V30 5258 O 505.65 -1.86224 -0.55083 0
M  V30 5259 C 502.78 -3.42434 -0.579314 0
M  V30 5260 C 501.734 -4.27499 0.20712 0
M  V30 5261 C 501.06 -5.29349 -0.754547 0
M  V30 5262 C 502.36 -5.02758 1.41533 0
M  V30 5263 H 504.054 -2.79418 1.07545 0
M  V30 5264 H 501.6 -1.34338 0.518593 0
M  V30 5265 H 503.553 -4.0976 -0.983612 0
M  V30 5266 H 502.277 -2.93717 -1.4282 0
M  V30 5267 H 500.936 -3.61776 0.592787 0
M  V30 5268 H 500.584 -4.76895 -1.59939 0
M  V30 5269 H 500.284 -5.8714 -0.232561 0
M  V30 5270 H 501.808 -5.99544 -1.1567 0
M  V30 5271 H 503.222 -5.62938 1.08504 0
M  V30 5272 H 501.619 -5.70123 1.87296 0
M  V30 5273 H 502.689 -4.32451 2.1935 0
M  V30 5274 N 504.032 -0.577932 -1.46621 0
M  V30 5275 C 505.28 -0.061566 -2.02006 0
M  V30 5276 C 505.601 1.30117 -1.4524 0
M  V30 5277 O 504.871 1.85313 -0.63529 0
M  V30 5278 H 503.451 -0.0197692 -0.746738 0
M  V30 5279 H 506.113 -0.752631 -1.79782 0
M  V30 5280 H 505.209 0.0110238 -3.12098 0
M  V30 5281 N 505.51 1.54411 -0.315457 0
M  V30 5282 C 506.921 1.85885 0.174265 0
M  V30 5283 C 507.272 1.23723 1.52273 0
M  V30 5284 O 506.397 0.540246 2.09548 0
M  V30 5285 C 506.992 3.37257 0.322981 0
M  V30 5286 C 505.551 3.68711 0.756922 0
M  V30 5287 C 504.698 2.77013 -0.126195 0
M  V30 5288 H 507.649 1.49374 -0.536007 0
M  V30 5289 H 507.67 3.62539 1.15522 0
M  V30 5290 H 507.182 3.82471 -0.658602 0
M  V30 5291 H 505.283 3.29024 1.74854 0
M  V30 5292 H 505.396 4.75741 0.566291 0
M  V30 5293 H 503.76 2.51588 0.39692 0
M  V30 5294 H 504.543 3.25051 -1.1044 0
M  V30 5295 N 506.988 0.0434614 1.5754 0
M  V30 5296 C 507.898 -0.94893 2.14552 0
M  V30 5297 C 508.914 -1.34707 1.10136 0
M  V30 5298 O 510.09 -1.42557 1.42266 0
M  V30 5299 C 507.155 -2.208 2.67298 0
M  V30 5300 C 506.216 -1.86893 3.86484 0
M  V30 5301 C 505.449 -3.06797 4.36705 0
M  V30 5302 O 505.672 -4.19921 3.86034 0
M  V30 5303 O 504.606 -2.8826 5.28384 0
M  V30 5304 H 508.432 -0.494099 2.99654 0
M  V30 5305 H 506.017 -0.177989 1.48336 0
M  V30 5306 H 507.899 -2.94686 3.01228 0
M  V30 5307 H 506.574 -2.65436 1.85272 0
M  V30 5308 H 505.481 -1.10347 3.57455 0
M  V30 5309 H 506.814 -1.47062 4.69716 0
M  V30 5310 N 508.466 -1.55915 -0.229846 0
M  V30 5311 C 509.743 -1.6932 -0.979295 0
M  V30 5312 C 510.123 -0.588321 -2.02736 0
M  V30 5313 O 509.471 0.40586 -2.24867 0
M  V30 5314 C 509.681 -3.10305 -1.59724 0
M  V30 5315 C 511.029 -3.6945 -2.09264 0
M  V30 5316 O 512.053 -3.13214 -1.69633 0
M  V30 5317 O 510.912 -4.68072 -2.82082 0
M  V30 5318 H 508.006 -0.689314 -0.456919 0
M  V30 5319 H 510.552 -1.68238 -0.222283 0
M  V30 5320 H 509.324 -3.82177 -0.840039 0
M  V30 5321 H 508.947 -3.1547 -2.42001 0
M  V30 5322 N 509.944 0.496216 -1.49584 0
M  V30 5323 C 511.355 1.07765 -1.52459 0
M  V30 5324 C 511.706 1.93679 -0.31353 0
M  V30 5325 O 510.831 2.08588 0.576186 0
M  V30 5326 C 511.426 1.96111 -2.76271 0
M  V30 5327 C 509.985 2.49409 -2.81908 0
M  V30 5328 C 509.132 1.27142 -2.46435 0
M  V30 5329 H 512.083 0.279914 -1.56212 0
M  V30 5330 H 512.104 2.80862 -2.56704 0
M  V30 5331 H 511.616 1.33555 -3.64396 0
M  V30 5332 H 509.717 3.1559 -1.98074 0
M  V30 5333 H 509.83 2.86234 -3.84196 0
M  V30 5334 H 508.194 1.59818 -1.98319 0
M  V30 5335 H 508.977 0.662866 -3.3684 0
M  V30 5336 N 511.423 1.38739 0.74761 0
M  V30 5337 C 512.671 1.35007 1.50391 0
M  V30 5338 C 512.992 -0.0574274 1.94915 0
M  V30 5339 O 512.262 -1.00628 1.6808 0
M  V30 5340 H 510.842 0.496784 0.557866 0
M  V30 5341 H 513.504 1.73479 0.888319 0
M  V30 5342 H 512.6 2.00474 2.392 0
M  V30 5343 N 512.901 -0.976442 1.23707 0
M  V30 5344 C 514.15 -1.71254 1.06559 0
M  V30 5345 C 514.463 -1.91528 -0.397024 0
M  V30 5346 O 515.669 -2.62625 -0.688518 0
M  V30 5347 C 514.125 -3.08207 1.8584 0
M  V30 5348 C 513.733 -2.95806 3.36456 0
M  V30 5349 C 515.477 -3.85749 1.77194 0
M  V30 5350 C 513.384 -4.28015 4.08114 0
M  V30 5351 H 512.314 -0.642171 0.395136 0
M  V30 5352 H 514.965 -1.08877 1.4771 0
M  V30 5353 H 513.347 -3.71363 1.37498 0
M  V30 5354 H 514.521 -2.41716 3.92314 0
M  V30 5355 H 512.836 -2.31736 3.45959 0
M  V30 5356 H 515.433 -4.83633 2.28041 0
M  V30 5357 H 515.776 -4.09752 0.735477 0
M  V30 5358 H 516.309 -3.29303 2.23169 0
M  V30 5359 H 513.048 -4.09208 5.12083 0
M  V30 5360 H 512.568 -4.81955 3.57043 0
M  V30 5361 H 514.247 -4.96681 4.14629 0
M  V30 5362 N 514.379 -1.04941 -1.1758 0
M  V30 5363 C 515.628 -0.753124 -1.87112 0
M  V30 5364 C 515.941 0.722507 -1.81767 0
M  V30 5365 O 517.147 1.13265 -2.46746 0
M  V30 5366 C 515.603 -1.29695 -3.35719 0
M  V30 5367 C 515.211 -2.80184 -3.49572 0
M  V30 5368 C 516.955 -1.07759 -4.10595 0
M  V30 5369 C 514.862 -3.2788 -4.92187 0
M  V30 5370 H 513.792 -0.278034 -0.700866 0
M  V30 5371 H 516.443 -1.26637 -1.32798 0
M  V30 5372 H 514.825 -0.711522 -3.89555 0
M  V30 5373 H 515.999 -3.44561 -3.05965 0
M  V30 5374 H 514.314 -3.00632 -2.88113 0
M  V30 5375 H 516.911 -1.40899 -5.15802 0
M  V30 5376 H 517.254 -0.0152302 -4.16297 0
M  V30 5377 H 517.787 -1.62809 -3.62957 0
M  V30 5378 H 514.526 -4.33535 -4.91658 0
M  V30 5379 H 514.046 -2.68245 -5.36475 0
M  V30 5380 H 515.725 -3.22412 -5.60945 0
M  V30 5381 N 515.857 1.33968 -0.830081 0
M  V30 5382 C 517.103 1.98357 -0.422191 0
M  V30 5383 C 517.436 1.65633 1.01387 0
M  V30 5384 O 516.711 0.931648 1.70735 0
M  V30 5385 C 516.994 3.54492 -0.633043 0
M  V30 5386 C 516.847 3.96934 -2.11574 0
M  V30 5387 C 518.166 4.40039 -0.0735584 0
M  V30 5388 H 515.285 0.720544 -0.154871 0
M  V30 5389 H 517.927 1.58749 -1.04397 0
M  V30 5390 H 516.077 3.88361 -0.103775 0
M  V30 5391 H 517.749 3.73363 -2.7092 0
M  V30 5392 H 515.992 3.46984 -2.60354 0
M  V30 5393 H 516.663 5.05651 -2.21406 0
M  V30 5394 H 519.139 4.12764 -0.52585 0
M  V30 5395 H 518.015 5.48327 -0.250841 0
M  V30 5396 H 518.276 4.30124 1.02202 0
M  V30 5397 N 517.335 0.585699 1.46312 0
M  V30 5398 C 518.581 0.0725284 2.0267 0
M  V30 5399 C 518.914 -1.28523 1.45586 0
M  V30 5400 O 518.189 -1.84283 0.622101 0
M  V30 5401 C 518.472 0.0099788 3.60099 0
M  V30 5402 C 518.325 1.39685 4.27561 0
M  V30 5403 C 519.644 -0.689117 4.34671 0
M  V30 5404 H 516.763 0.0278307 0.736474 0
M  V30 5405 H 519.405 0.753472 1.74421 0
M  V30 5406 H 517.555 -0.56992 3.84297 0
M  V30 5407 H 519.227 2.02215 4.14617 0
M  V30 5408 H 517.47 1.96374 3.86807 0
M  V30 5409 H 518.141 1.30553 5.36339 0
M  V30 5410 H 520.617 -0.196446 4.15636 0
M  V30 5411 H 519.493 -0.701921 5.44393 0
M  V30 5412 H 519.754 -1.75101 4.05946 0
M  V30 5413 N 518.813 -1.54241 0.323641 0
M  V30 5414 C 519.745 -2.21836 -0.576311 0
M  V30 5415 C 520.758 -1.21837 -1.07979 0
M  V30 5416 O 521.947 -1.48306 -0.99336 0
M  V30 5417 C 519.047 -2.86923 -1.80356 0
M  V30 5418 C 518.22 -4.1306 -1.43875 0
M  V30 5419 C 517.279 -4.6174 -2.52353 0
M  V30 5420 O 516.305 -5.26421 -2.16494 0
M  V30 5421 N 517.507 -4.35974 -3.83284 0
M  V30 5422 H 520.272 -2.997 0.00247987 0
M  V30 5423 H 517.833 -1.61233 0.146848 0
M  V30 5424 H 519.825 -3.16414 -2.52318 0
M  V30 5425 H 518.395 -2.12765 -2.29019 0
M  V30 5426 H 517.615 -3.90334 -0.550752 0
M  V30 5427 H 518.903 -4.95148 -1.17071 0
M  V30 5428 H 518.301 -3.84203 -4.15216 0
M  V30 5429 H 516.858 -4.70119 -4.51477 0
M  V30 5430 N 520.291 -0.0518155 -1.57515 0
M  V30 5431 C 521.516 0.634896 -1.97443 0
M  V30 5432 C 521.941 1.63546 -0.929207 0
M  V30 5433 O 521.299 1.80981 0.107484 0
M  V30 5434 C 521.347 1.29765 -3.36442 0
M  V30 5435 O 520.451 2.41333 -3.34413 0
M  V30 5436 H 519.792 0.164994 -0.643174 0
M  V30 5437 H 522.322 -0.120407 -2.04245 0
M  V30 5438 H 522.332 1.64918 -3.73184 0
M  V30 5439 H 521.007 0.564361 -4.12053 0
M  V30 5440 H 519.584 2.08122 -3.09418 0
M  V30 5441 N 521.769 1.56035 0.221574 0
M  V30 5442 C 523.015 1.79312 0.947372 0
M  V30 5443 C 523.348 0.621453 1.83988 0
M  V30 5444 O 522.623 -0.379287 1.90766 0
M  V30 5445 C 522.906 3.1267 1.78633 0
M  V30 5446 C 522.759 4.40284 0.920312 0
M  V30 5447 C 524.078 3.4247 2.7641 0
M  V30 5448 H 521.197 0.652328 0.342982 0
M  V30 5449 H 523.839 1.88765 0.216244 0
M  V30 5450 H 521.989 3.04741 2.40967 0
M  V30 5451 H 523.661 4.60232 0.313718 0
M  V30 5452 H 521.904 4.33212 0.225734 0
M  V30 5453 H 522.575 5.30033 1.54171 0
M  V30 5454 H 525.051 3.50526 2.24211 0
M  V30 5455 H 523.927 4.3695 3.32213 0
M  V30 5456 H 524.188 2.64635 3.54148 0
M  V30 5457 N 523.247 -0.488276 1.49845 0
M  V30 5458 C 524.197 -1.58556 1.63842 0
M  V30 5459 C 525.181 -1.53142 0.493586 0
M  V30 5460 O 526.373 -1.60457 0.747169 0
M  V30 5461 C 523.502 -2.97101 1.72005 0
M  V30 5462 C 522.588 -3.07463 2.92108 0
M  V30 5463 N 522.979 -2.87681 4.16021 0
M  V30 5464 C 521.277 -3.3858 2.90309 0
M  V30 5465 C 521.978 -3.0256 4.96822 0
M  V30 5466 N 520.954 -3.32002 4.30437 0
M  V30 5467 H 524.756 -1.41935 2.57355 0
M  V30 5468 H 522.27 -0.694668 1.46793 0
M  V30 5469 H 524.267 -3.75976 1.80132 0
M  V30 5470 H 522.927 -3.14782 0.796375 0
M  V30 5471 H 523.938 -2.63603 4.45796 0
M  V30 5472 H 520.615 -3.62357 2.07372 0
M  V30 5473 H 522.005 -2.9165 6.05301 0
M  V30 5474 N 524.725 -1.39134 -0.740242 0
M  V30 5475 C 525.672 -1.37434 -1.8542 0
M  V30 5476 C 526.642 -0.234822 -1.64432 0
M  V30 5477 O 527.827 -0.429125 -1.85912 0
M  V30 5478 C 524.967 -1.21844 -3.22875 0
M  V30 5479 C 524.08 -2.45296 -3.55603 0
M  V30 5480 C 523.215 -2.22334 -4.82432 0
M  V30 5481 C 522.254 -3.41488 -5.07988 0
M  V30 5482 N 521.391 -3.17877 -6.26018 0
M  V30 5483 H 526.231 -2.3266 -1.86207 0
M  V30 5484 H 523.768 -1.15578 -0.909946 0
M  V30 5485 H 525.726 -1.10818 -4.02213 0
M  V30 5486 H 524.356 -0.3025 -3.21379 0
M  V30 5487 H 523.408 -2.66945 -2.71006 0
M  V30 5488 H 524.72 -3.34063 -3.7041 0
M  V30 5489 H 523.874 -2.0852 -5.69741 0
M  V30 5490 H 522.613 -1.30954 -4.6979 0
M  V30 5491 H 521.618 -3.55807 -4.19144 0
M  V30 5492 H 522.843 -4.33763 -5.22519 0
M  V30 5493 H 520.789 -2.29156 -6.14673 0
M  V30 5494 H 520.706 -4.00198 -6.41387 0
M  V30 5495 H 521.974 -3.07746 -7.16179 0
M  V30 5496 N 526.204 0.969867 -1.24223 0
M  V30 5497 C 527.136 2.0669 -0.99055 0
M  V30 5498 C 528.149 1.62753 0.0392222 0
M  V30 5499 O 529.338 1.77403 -0.197561 0
M  V30 5500 C 526.438 3.35589 -0.472594 0
M  V30 5501 C 525.611 4.08444 -1.56499 0
M  V30 5502 C 524.67 5.15616 -1.05007 0
M  V30 5503 O 523.696 5.41911 -1.7413 0
M  V30 5504 N 524.898 5.80383 0.116641 0
M  V30 5505 H 527.663 2.28855 -1.93508 0
M  V30 5506 H 525.224 1.13733 -1.15223 0
M  V30 5507 H 527.216 4.04542 -0.112919 0
M  V30 5508 H 525.786 3.10311 0.377617 0
M  V30 5509 H 525.006 3.33798 -2.09696 0
M  V30 5510 H 526.294 4.53882 -2.29932 0
M  V30 5511 H 525.692 5.6142 0.694589 0
M  V30 5512 H 524.249 6.50462 0.417483 0
M  V30 5513 N 527.682 1.05563 1.17022 0
M  V30 5514 C 528.614 0.617888 2.20714 0
M  V30 5515 C 529.627 -0.320303 1.59618 0
M  V30 5516 O 530.816 -0.112449 1.78145 0
M  V30 5517 C 527.916 -0.115333 3.38704 0
M  V30 5518 C 527.089 0.834493 4.29366 0
M  V30 5519 C 526.148 0.141855 5.26009 0
M  V30 5520 O 525.174 0.777151 5.6387 0
M  V30 5521 N 526.376 -1.11934 5.69606 0
M  V30 5522 H 529.141 1.50981 2.58892 0
M  V30 5523 H 526.702 0.938008 1.31958 0
M  V30 5524 H 528.694 -0.588918 4.00392 0
M  V30 5525 H 527.264 -0.908967 2.99093 0
M  V30 5526 H 526.484 1.48762 3.65053 0
M  V30 5527 H 527.772 1.4791 4.86827 0
M  V30 5528 H 527.17 -1.65574 5.40927 0
M  V30 5529 H 525.727 -1.53692 6.33421 0
M  V30 5530 N 529.16 -1.33526 0.837174 0
M  V30 5531 C 530.123 -2.27551 0.274421 0
M  V30 5532 C 531.123 -1.50886 -0.555881 0
M  V30 5533 O 532.313 -1.70227 -0.369918 0
M  V30 5534 C 529.445 -3.35332 -0.613605 0
M  V30 5535 H 530.638 -2.78837 1.10408 0
M  V30 5536 H 528.191 -1.439 0.610126 0
M  V30 5537 H 528.926 -2.89285 -1.46577 0
M  V30 5538 H 528.711 -3.92095 -0.0195341 0
M  V30 5539 H 530.201 -4.05433 -1.00068 0
M  V30 5540 N 530.638 -0.59345 -1.46 0
M  V30 5541 C 531.886 -0.082988 -2.0193 0
M  V30 5542 C 532.207 1.28569 -1.46612 0
M  V30 5543 O 531.477 1.84629 -0.654909 0
M  V30 5544 H 530.057 -0.0276882 -0.746487 0
M  V30 5545 H 532.719 -0.771657 -1.78973 0
M  V30 5546 H 531.815 -0.022079 -3.12092 0
M  V30 5547 N 532.116 1.54067 -0.331816 0
M  V30 5548 C 533.363 2.00715 0.268269 0
M  V30 5549 C 533.691 1.21986 1.51491 0
M  V30 5550 O 532.946 0.292309 1.93505 0
M  V30 5551 C 533.245 3.51634 0.639392 0
M  V30 5552 C 532.911 4.48018 -0.509019 0
M  V30 5553 C 531.573 4.74089 -0.824209 0
M  V30 5554 C 533.925 5.05237 -1.28003 0
M  V30 5555 C 531.253 5.54637 -1.91298 0
M  V30 5556 C 533.605 5.86972 -2.35895 0
M  V30 5557 C 532.269 6.11342 -2.67987 0
M  V30 5558 H 531.539 0.734469 0.0981667 0
M  V30 5559 H 534.186 1.8596 -0.457304 0
M  V30 5560 H 532.491 3.6416 1.44551 0
M  V30 5561 H 534.188 3.85175 1.11539 0
M  V30 5562 H 530.778 4.27851 -0.253287 0
M  V30 5563 H 534.962 4.8507 -1.04978 0
M  V30 5564 H 530.218 5.71747 -2.16599 0
M  V30 5565 H 534.392 6.30327 -2.96076 0
M  V30 5566 H 532.019 6.73544 -3.5248 0
M  V30 5567 N 533.594 0.0601682 1.57485 0
M  V30 5568 C 534.819 -0.624416 1.97777 0
M  V30 5569 C 535.244 -1.63051 0.937867 0
M  V30 5570 O 534.602 -1.81036 -0.0978845 0
M  V30 5571 C 534.65 -1.27979 3.37126 0
M  V30 5572 O 533.754 -2.39556 3.35688 0
M  V30 5573 H 533.095 -0.161581 0.64404 0
M  V30 5574 H 535.625 0.131237 2.04179 0
M  V30 5575 H 535.635 -1.62937 3.74053 0
M  V30 5576 H 534.31 -0.542501 4.12347 0
M  V30 5577 H 532.887 -2.06478 3.10517 0
M  V30 5578 N 535.072 -1.5615 -0.213296 0
M  V30 5579 C 536.004 -1.89586 -1.28802 0
M  V30 5580 C 537.017 -0.784844 -1.42633 0
M  V30 5581 O 538.206 -1.06319 -1.43383 0
M  V30 5582 C 535.306 -2.09665 -2.66259 0
M  V30 5583 C 534.479 -3.40726 -2.7427 0
M  V30 5584 C 533.538 -3.50137 -3.92798 0
M  V30 5585 O 532.564 -4.23105 -3.8075 0
M  V30 5586 N 533.766 -2.81886 -5.07465 0
M  V30 5587 H 536.531 -2.82368 -1.00442 0
M  V30 5588 H 534.092 -1.56796 -0.403302 0
M  V30 5589 H 536.084 -2.13268 -3.43946 0
M  V30 5590 H 534.654 -1.23469 -2.87183 0
M  V30 5591 H 533.874 -3.4915 -1.82997 0
M  V30 5592 H 535.162 -4.27048 -2.76599 0
M  V30 5593 H 534.56 -2.22397 -5.2015 0
M  V30 5594 H 533.117 -2.91139 -5.83165 0
M  V30 5595 N 536.55 0.480323 -1.50102 0
M  V30 5596 C 537.778 1.25657 -1.64371 0
M  V30 5597 C 538.193 1.86011 -0.323316 0
M  V30 5598 O 537.55 1.68803 0.693682 0
M  V30 5599 C 537.601 2.37197 -2.728 0
M  V30 5600 O 537.322 1.7932 -3.9972 0
M  V30 5601 C 538.823 3.2823 -2.9796 0
M  V30 5602 H 536.043 0.380369 -0.552775 0
M  V30 5603 H 538.587 0.574379 -1.96268 0
M  V30 5604 H 536.742 3.01208 -2.43623 0
M  V30 5605 H 537.156 2.52701 -4.59611 0
M  V30 5606 H 538.63 4.02725 -3.77513 0
M  V30 5607 H 539.107 3.86462 -2.08671 0
M  V30 5608 H 539.713 2.69964 -3.28633 0
M  V30 5609 N 538.028 1.39524 0.732853 0
M  V30 5610 C 539.253 1.40329 1.52717 0
M  V30 5611 C 539.678 0.000286574 1.881 0
M  V30 5612 O 539.036 -0.987262 1.52062 0
M  V30 5613 C 539.084 2.28464 2.78992 0
M  V30 5614 O 538.188 1.716 3.75003 0
M  V30 5615 H 537.529 0.47778 0.461109 0
M  V30 5616 H 540.059 1.83546 0.903996 0
M  V30 5617 H 540.069 2.43051 3.27705 0
M  V30 5618 H 538.744 3.30425 2.52572 0
M  V30 5619 H 537.321 1.66267 3.33781 0
M  V30 5620 N 539.506 -0.963266 1.24736 0
M  V30 5621 C 540.438 -2.06162 1.0015 0
M  V30 5622 C 541.451 -1.62771 -0.0305905 0
M  V30 5623 O 542.64 -1.77296 0.206966 0
M  V30 5624 C 539.74 -3.35333 0.490385 0
M  V30 5625 C 538.913 -4.07609 1.58663 0
M  V30 5626 C 537.972 -5.15052 1.0774 0
M  V30 5627 O 536.998 -5.4098 1.77002 0
M  V30 5628 N 538.2 -5.80436 -0.0858605 0
M  V30 5629 H 540.965 -2.27825 1.94719 0
M  V30 5630 H 538.526 -1.13121 1.15825 0
M  V30 5631 H 540.518 -4.04477 0.134371 0
M  V30 5632 H 539.088 -3.10507 -0.361155 0
M  V30 5633 H 538.308 -3.32681 2.11463 0
M  V30 5634 H 539.596 -4.52656 2.32336 0
M  V30 5635 H 538.994 -5.6178 -0.664806 0
M  V30 5636 H 537.551 -6.50674 -0.382981 0
M  V30 5637 N 540.985 -1.06182 -1.16461 0
M  V30 5638 C 542.234 -0.772927 -1.86303 0
M  V30 5639 C 542.547 0.703187 -1.82523 0
M  V30 5640 O 543.753 1.10641 -2.47933 0
M  V30 5641 C 542.209 -1.33249 -3.34324 0
M  V30 5642 C 541.817 -2.83876 -3.46581 0
M  V30 5643 C 543.561 -1.12108 -4.09429 0
M  V30 5644 C 541.468 -3.33082 -4.88682 0
M  V30 5645 H 540.398 -0.285452 -0.697878 0
M  V30 5646 H 543.049 -1.28039 -1.31447 0
M  V30 5647 H 541.431 -0.7528 -3.88779 0
M  V30 5648 H 542.605 -3.47786 -3.02293 0
M  V30 5649 H 540.92 -3.03671 -2.84909 0
M  V30 5650 H 543.517 -1.46361 -5.14279 0
M  V30 5651 H 543.86 -0.0593832 -4.16258 0
M  V30 5652 H 544.393 -1.6665 -3.6121 0
M  V30 5653 H 541.132 -4.38726 -4.87032 0
M  V30 5654 H 540.652 -2.73919 -5.33599 0
M  V30 5655 H 542.331 -3.28344 -5.57494 0
M  V30 5656 N 542.463 1.3308 -0.844243 0
M  V30 5657 C 543.413 2.26589 -0.253289 0
M  V30 5658 C 544.397 1.49501 0.594836 0
M  V30 5659 O 545.589 1.71291 0.445924 0
M  V30 5660 C 542.718 3.38599 0.566176 0
M  V30 5661 C 541.804 4.23081 -0.293756 0
M  V30 5662 N 542.195 4.86751 -1.37505 0
M  V30 5663 C 540.493 4.45925 -0.0817086 0
M  V30 5664 C 541.194 5.49684 -1.90323 0
M  V30 5665 N 540.17 5.30101 -1.20391 0
M  V30 5666 H 543.972 2.73334 -1.08009 0
M  V30 5667 H 541.486 1.47048 -0.689258 0
M  V30 5668 H 543.483 4.04584 1.00587 0
M  V30 5669 H 542.143 2.93401 1.39089 0
M  V30 5670 H 543.154 4.87151 -1.75796 0
M  V30 5671 H 539.831 4.11434 0.709129 0
M  V30 5672 H 541.221 6.10363 -2.80902 0
M  V30 5673 N 543.941 0.601185 1.45683 0
M  V30 5674 C 544.888 -0.121396 2.30481 0
M  V30 5675 C 545.858 -0.866232 1.41724 0
M  V30 5676 O 547.043 -0.85324 1.70659 0
M  V30 5677 C 544.183 -1.11704 3.26521 0
M  V30 5678 C 543.296 -0.373741 4.3038 0
M  V30 5679 C 542.431 -1.35854 5.13534 0
M  V30 5680 C 541.47 -0.602689 6.09126 0
M  V30 5681 N 540.607 -1.53645 6.85082 0
M  V30 5682 H 545.447 0.607732 2.91737 0
M  V30 5683 H 542.984 0.311502 1.43764 0
M  V30 5684 H 544.942 -1.70735 3.80664 0
M  V30 5685 H 543.572 -1.81366 2.67032 0
M  V30 5686 H 542.624 0.331962 3.78949 0
M  V30 5687 H 543.936 0.2163 4.98331 0
M  V30 5688 H 543.09 -2.02111 5.72046 0
M  V30 5689 H 541.829 -1.98251 4.45587 0
M  V30 5690 H 540.834 0.0735482 5.49751 0
M  V30 5691 H 542.059 0.0161467 6.79098 0
M  V30 5692 H 540.005 -2.14819 6.1983 0
M  V30 5693 H 539.922 -0.999688 7.49361 0
M  V30 5694 H 541.19 -2.1888 7.48139 0
M  V30 5695 N 545.419 -1.53889 0.339982 0
M  V30 5696 C 546.366 -2.24902 -0.518452 0
M  V30 5697 C 547.336 -1.24593 -1.09844 0
M  V30 5698 O 548.521 -1.53317 -1.13572 0
M  V30 5699 C 545.661 -3.02262 -1.66529 0
M  V30 5700 C 544.774 -4.17418 -1.11295 0
M  V30 5701 C 543.909 -4.82273 -2.2268 0
M  V30 5702 C 542.948 -5.89503 -1.6478 0
M  V30 5703 N 542.085 -6.48153 -2.69893 0
M  V30 5704 H 546.925 -2.97853 0.0936579 0
M  V30 5705 H 544.462 -1.46986 0.0579924 0
M  V30 5706 H 546.42 -3.45371 -2.3404 0
M  V30 5707 H 545.05 -2.31614 -2.24844 0
M  V30 5708 H 544.102 -3.78976 -0.328886 0
M  V30 5709 H 545.414 -4.94554 -0.649414 0
M  V30 5710 H 544.568 -5.28435 -2.98063 0
M  V30 5711 H 543.307 -4.04552 -2.72376 0
M  V30 5712 H 542.312 -5.42728 -0.879004 0
M  V30 5713 H 543.537 -6.6913 -1.1594 0
M  V30 5714 H 541.483 -5.73298 -3.1885 0
M  V30 5715 H 541.4 -7.20752 -2.28151 0
M  V30 5716 H 542.668 -6.98968 -3.45056 0
M  V30 5717 N 546.897 -0.0685191 -1.57451 0
M  V30 5718 C 548.174 0.642167 -1.84758 0
M  V30 5719 C 548.554 1.87991 -0.960344 0
M  V30 5720 O 547.902 2.28485 -0.0257894 0
M  V30 5721 C 548.112 0.982946 -3.34872 0
M  V30 5722 C 549.46 1.35784 -4.02303 0
M  V30 5723 O 550.484 1.07477 -3.39598 0
M  V30 5724 O 549.343 1.88681 -5.12895 0
M  V30 5725 H 546.437 0.318625 -0.763156 0
M  V30 5726 H 548.983 -0.0992015 -1.6941 0
M  V30 5727 H 547.755 0.10372 -3.91163 0
M  V30 5728 H 547.378 1.78119 -3.55471 0
M  V30 5729 N 548.375 1.56261 0.205012 0
M  V30 5730 C 549.6 1.84491 0.947512 0
M  V30 5731 C 550.025 0.650894 1.76479 0
M  V30 5732 O 549.383 -0.40035 1.76824 0
M  V30 5733 C 549.431 3.10863 1.82747 0
M  V30 5734 O 548.535 2.90719 2.925 0
M  V30 5735 H 547.876 0.607783 0.267386 0
M  V30 5736 H 550.406 2.03485 0.213323 0
M  V30 5737 H 550.416 3.41399 2.23407 0
M  V30 5738 H 549.091 3.97392 1.2269 0
M  V30 5739 H 547.668 2.71457 2.55667 0
M  V30 5740 N 549.853 -0.472356 1.50355 0
M  V30 5741 C 550.803 -1.56809 1.65514 0
M  V30 5742 C 551.787 -1.5261 0.509801 0
M  V30 5743 O 552.979 -1.59655 0.764145 0
M  V30 5744 C 550.108 -2.9526 1.75146 0
M  V30 5745 C 549.194 -3.04348 2.95353 0
M  V30 5746 N 549.585 -2.83253 4.19048 0
M  V30 5747 C 547.883 -3.35482 2.93884 0
M  V30 5748 C 548.584 -2.97273 5.00003 0
M  V30 5749 N 547.56 -3.27418 4.33934 0
M  V30 5750 H 551.362 -1.39197 2.58846 0
M  V30 5751 H 548.876 -0.67906 1.47521 0
M  V30 5752 H 550.873 -3.74044 1.8411 0
M  V30 5753 H 549.533 -3.1392 0.829717 0
M  V30 5754 H 550.544 -2.5886 4.48567 0
M  V30 5755 H 547.221 -3.60138 2.11204 0
M  V30 5756 H 548.611 -2.85214 6.08361 0
M  V30 5757 N 551.331 -1.39911 -0.725443 0
M  V30 5758 C 552.58 -1.36963 -1.48068 0
M  V30 5759 C 552.893 0.0284478 -1.95579 0
M  V30 5760 O 554.099 0.180535 -2.70899 0
M  V30 5761 C 552.555 -2.40664 -2.67598 0
M  V30 5762 C 552.163 -3.86234 -2.26997 0
M  V30 5763 C 553.907 -2.46807 -3.45379 0
M  V30 5764 C 551.814 -4.81554 -3.43307 0
M  V30 5765 H 550.744 -0.509223 -0.556065 0
M  V30 5766 H 553.395 -1.65602 -0.790454 0
M  V30 5767 H 551.777 -2.05109 -3.38742 0
M  V30 5768 H 552.951 -4.3088 -1.63337 0
M  V30 5769 H 551.266 -3.83475 -1.62284 0
M  V30 5770 H 553.863 -3.15213 -4.31909 0
M  V30 5771 H 554.206 -1.49552 -3.8851 0
M  V30 5772 H 554.739 -2.81303 -2.81271 0
M  V30 5773 H 551.478 -5.80106 -3.05217 0
M  V30 5774 H 550.998 -4.4158 -4.05915 0
M  V30 5775 H 552.677 -5.0091 -4.0951 0
M  V30 5776 N 552.809 0.956637 -1.25245 0
M  V30 5777 C 553.756 2.053 -1.05454 0
M  V30 5778 C 554.726 1.66062 0.0356889 0
M  V30 5779 O 555.911 1.90415 -0.121099 0
M  V30 5780 C 553.051 3.38391 -0.677191 0
M  V30 5781 C 552.164 3.90758 -1.84206 0
M  V30 5782 C 551.299 5.12165 -1.40926 0
M  V30 5783 C 550.338 5.56757 -2.54338 0
M  V30 5784 N 549.475 6.69376 -2.11848 0
M  V30 5785 H 554.315 2.21562 -1.99284 0
M  V30 5786 H 551.852 1.08578 -0.992434 0
M  V30 5787 H 553.81 4.1488 -0.43938 0
M  V30 5788 H 552.44 3.22021 0.224127 0
M  V30 5789 H 551.492 3.10808 -2.19323 0
M  V30 5790 H 552.804 4.19802 -2.69383 0
M  V30 5791 H 551.958 5.96065 -1.13098 0
M  V30 5792 H 550.697 4.84832 -0.528175 0
M  V30 5793 H 549.702 4.71423 -2.82913 0
M  V30 5794 H 550.927 5.861 -3.43022 0
M  V30 5795 H 548.873 6.43756 -1.26153 0
M  V30 5796 H 548.79 6.97927 -2.90574 0
M  V30 5797 H 550.058 7.5669 -1.87191 0
M  V30 5798 N 554.287 1.06798 1.15896 0
M  V30 5799 C 555.535 0.786211 1.8618 0
M  V30 5800 C 555.856 -0.689547 1.82401 0
M  V30 5801 O 555.126 -1.49913 1.26107 0
M  V30 5802 H 553.706 0.287843 0.689315 0
M  V30 5803 H 556.368 1.35055 1.40521 0
M  V30 5804 H 555.464 1.1157 2.91477 0
M  V30 5805 N 555.766 -1.3263 0.851289 0
M  V30 5806 C 556.698 -2.27824 0.250757 0
M  V30 5807 C 557.711 -1.52285 -0.575598 0
M  V30 5808 O 558.9 -1.73946 -0.400638 0
M  V30 5809 C 556 -3.3232 -0.664571 0
M  V30 5810 C 555.173 -4.37221 0.125187 0
M  V30 5811 C 554.232 -5.21314 -0.715385 0
M  V30 5812 O 553.258 -5.69002 -0.150111 0
M  V30 5813 N 554.46 -5.43823 -2.03069 0
M  V30 5814 H 557.225 -2.79997 1.06873 0
M  V30 5815 H 554.786 -1.45455 0.710943 0
M  V30 5816 H 556.778 -3.85486 -1.23216 0
M  V30 5817 H 555.348 -2.80331 -1.38323 0
M  V30 5818 H 554.568 -3.84384 0.874199 0
M  V30 5819 H 555.856 -5.04399 0.667774 0
M  V30 5820 H 555.254 -5.06803 -2.51332 0
M  V30 5821 H 553.811 -5.99998 -2.54648 0
M  V30 5822 N 557.244 -0.608902 -1.45362 0
M  V30 5823 C 558.174 0.0964526 -2.33301 0
M  V30 5824 C 559.155 0.857444 -1.46908 0
M  V30 5825 O 560.34 0.827735 -1.75676 0
M  V30 5826 C 557.47 1.09354 -3.29635 0
M  V30 5827 C 556.424 0.445676 -4.25673 0
M  V30 5828 C 555.75 1.5511 -5.11708 0
M  V30 5829 C 557.05 -0.633972 -5.18438 0
M  V30 5830 H 558.744 -0.637829 -2.92527 0
M  V30 5831 H 556.29 -0.308178 -1.40664 0
M  V30 5832 H 558.243 1.59556 -3.90025 0
M  V30 5833 H 556.967 1.85843 -2.6857 0
M  V30 5834 H 555.626 -0.0354897 -3.66583 0
M  V30 5835 H 555.274 2.30631 -4.4701 0
M  V30 5836 H 554.974 1.12311 -5.76767 0
M  V30 5837 H 556.498 2.05537 -5.74967 0
M  V30 5838 H 557.912 -0.215974 -5.72893 0
M  V30 5839 H 556.309 -0.983789 -5.91981 0
M  V30 5840 H 557.379 -1.51005 -4.60788 0
M  V30 5841 N 558.722 1.53707 -0.348139 0
M  V30 5842 C 560.138 1.596 0.00361134 0
M  V30 5843 C 560.338 1.36394 1.4832 0
M  V30 5844 O 559.394 1.16046 2.24253 0
M  V30 5845 C 560.707 2.97512 -0.436682 0
M  V30 5846 C 562.255 3.10568 -0.389416 0
M  V30 5847 C 562.73 4.50866 -0.805249 0
M  V30 5848 N 564.221 4.56929 -0.759616 0
M  V30 5849 C 564.956 5.63643 -1.05327 0
M  V30 5850 N 564.452 6.78189 -1.41531 0
M  V30 5851 N 566.245 5.5354 -0.977207 0
M  V30 5852 H 558.396 1.67044 -1.31187 0
M  V30 5853 H 560.659 0.782559 -0.535075 0
M  V30 5854 H 560.365 3.19575 -1.46849 0
M  V30 5855 H 560.239 3.76742 0.185744 0
M  V30 5856 H 562.626 2.88226 0.633228 0
M  V30 5857 H 562.707 2.33387 -1.04711 0
M  V30 5858 H 562.351 4.73943 -1.82593 0
M  V30 5859 H 562.281 5.26452 -0.124989 0
M  V30 5860 H 564.772 3.74675 -0.49265 0
M  V30 5861 H 565.085 7.55541 -1.62411 0
M  V30 5862 H 563.43 6.79624 -1.45381 0
M  V30 5863 H 566.621 4.62932 -0.693675 0
M  V30 5864 H 566.794 6.36614 -1.2094 0
M  V30 5865 N 560.2 0.0768682 1.57412 0
M  V30 5866 C 561.43 -0.5991 1.97723 0
M  V30 5867 C 561.838 -1.63378 0.954166 0
M  V30 5868 O 561.181 -1.83578 -0.0668706 0
M  V30 5869 C 561.243 -1.32078 3.34358 0
M  V30 5870 C 560.907 -0.438985 4.54887 0
M  V30 5871 C 561.904 0.305492 5.19002 0
M  V30 5872 C 559.589 -0.362378 5.00991 0
M  V30 5873 C 561.583 1.11475 6.27576 0
M  V30 5874 C 559.27 0.450543 6.09437 0
M  V30 5875 C 560.268 1.18777 6.72593 0
M  V30 5876 O 559.956 1.98727 7.7895 0
M  V30 5877 H 559.688 -0.166725 0.655117 0
M  V30 5878 H 562.242 0.147337 2.04871 0
M  V30 5879 H 560.472 -2.1134 3.2384 0
M  V30 5880 H 562.161 -1.88949 3.5924 0
M  V30 5881 H 562.927 0.25593 4.84324 0
M  V30 5882 H 558.806 -0.925832 4.51608 0
M  V30 5883 H 562.35 1.69068 6.76803 0
M  V30 5884 H 558.247 0.501651 6.43548 0
M  V30 5885 H 559.015 1.91214 7.95851 0
M  V30 5886 N 561.678 -1.56367 -0.196722 0
M  V30 5887 C 562.918 -1.82315 -0.92415 0
M  V30 5888 C 563.282 -0.654117 -1.80514 0
M  V30 5889 O 564.483 -0.79345 -2.56823 0
M  V30 5890 C 562.754 -3.13279 -1.72021 0
M  V30 5891 S 564.313 -3.60627 -2.49988 0
M  V30 5892 H 561.131 -0.639862 -0.309997 0
M  V30 5893 H 563.733 -1.94597 -0.187684 0
M  V30 5894 H 562.437 -3.96379 -1.06358 0
M  V30 5895 H 561.968 -3.03871 -2.49852 0
M  V30 5896 H 563.983 -3.25934 -3.74141 0
M  V30 5897 N 563.156 0.464375 -1.50603 0
M  V30 5898 C 564.433 1.22549 -1.5245 0
M  V30 5899 C 564.813 2.09327 -0.273035 0
M  V30 5900 O 564.161 2.16074 0.743242 0
M  V30 5901 C 564.371 2.05074 -2.82393 0
M  V30 5902 C 565.719 2.63036 -3.33313 0
M  V30 5903 O 566.743 2.1531 -2.8376 0
M  V30 5904 O 565.602 3.5001 -4.19709 0
M  V30 5905 H 562.696 0.556471 -0.611775 0
M  V30 5906 H 565.242 0.475648 -1.62898 0
M  V30 5907 H 564.014 1.41169 -3.64948 0
M  V30 5908 H 563.637 2.87179 -2.7498 0
M  V30 5909 N 564.634 1.40294 0.718013 0
M  V30 5910 C 565.584 1.36847 1.82365 0
M  V30 5911 C 566.568 0.246424 1.59002 0
M  V30 5912 O 567.76 0.485336 1.70216 0
M  V30 5913 C 564.889 1.23105 3.20469 0
M  V30 5914 C 563.975 2.4008 3.49603 0
M  V30 5915 N 564.366 3.65562 3.49568 0
M  V30 5916 C 562.664 2.33407 3.80049 0
M  V30 5917 C 563.365 4.43015 3.76978 0
M  V30 5918 N 562.341 3.72823 3.95606 0
M  V30 5919 H 566.143 2.31811 1.80668 0
M  V30 5920 H 563.657 1.34031 0.91703 0
M  V30 5921 H 565.654 1.18718 3.9964 0
M  V30 5922 H 564.314 0.291056 3.23393 0
M  V30 5923 H 565.325 3.98756 3.30476 0
M  V30 5924 H 562.002 1.47762 3.90478 0
M  V30 5925 H 563.392 5.51859 3.83276 0
M  V30 5926 N 566.112 -0.949982 1.2575 0
M  V30 5927 C 567.059 -2.04738 1.06541 0
M  V30 5928 C 568.029 -1.66078 -0.0268818 0
M  V30 5929 O 569.214 -1.90348 0.131196 0
M  V30 5930 C 566.354 -3.38027 0.695127 0
M  V30 5931 C 565.467 -3.89776 1.86276 0
M  V30 5932 C 564.602 -5.11411 1.4364 0
M  V30 5933 C 563.641 -5.554 2.57287 0
M  V30 5934 N 562.778 -6.68244 2.15395 0
M  V30 5935 H 567.618 -2.20502 2.00457 0
M  V30 5936 H 565.155 -1.0805 0.998178 0
M  V30 5937 H 567.113 -4.14641 0.461375 0
M  V30 5938 H 565.743 -3.22135 -0.207046 0
M  V30 5939 H 564.795 -3.0964 2.20969 0
M  V30 5940 H 566.107 -4.18368 2.71606 0
M  V30 5941 H 565.261 -5.95457 1.16257 0
M  V30 5942 H 564 -4.84545 0.553879 0
M  V30 5943 H 563.005 -4.69916 2.85409 0
M  V30 5944 H 564.23 -5.84272 3.46125 0
M  V30 5945 H 562.176 -6.43078 1.29565 0
M  V30 5946 H 562.093 -6.96377 2.94272 0
M  V30 5947 H 563.361 -7.55687 1.91201 0
M  V30 5948 N 567.59 -1.07411 -1.15328 0
M  V30 5949 C 568.54 -0.664788 -2.18093 0
M  V30 5950 C 569.524 0.310395 -1.57878 0
M  V30 5951 O 570.716 0.124026 -1.76565 0
M  V30 5952 C 567.845 -0.0647822 -3.43239 0
M  V30 5953 C 566.931 -1.06514 -4.10506 0
M  V30 5954 N 567.322 -2.24491 -4.53252 0
M  V30 5955 C 565.62 -0.898613 -4.36853 0
M  V30 5956 C 566.321 -2.8796 -5.05424 0
M  V30 5957 N 565.297 -2.15622 -4.99007 0
M  V30 5958 H 569.099 -1.56333 -2.48872 0
M  V30 5959 H 566.613 -0.947393 -1.31902 0
M  V30 5960 H 568.61 0.246363 -4.16171 0
M  V30 5961 H 567.27 0.828866 -3.13943 0
M  V30 5962 H 568.281 -2.62205 -4.46619 0
M  V30 5963 H 564.958 -0.0579118 -4.1746 0
M  V30 5964 H 566.348 -3.88137 -5.48452 0
M  V30 5965 N 569.068 1.32177 -0.85831 0
M  V30 5966 C 570.315 1.97125 -0.463484 0
M  V30 5967 C 570.643 1.67907 0.981705 0
M  V30 5968 O 569.898 0.961717 1.70439 0
M  V30 5969 C 570.197 3.51372 -0.653658 0
M  V30 5970 C 569.863 4.00584 -2.06987 0
M  V30 5971 C 568.525 4.13733 -2.4572 0
M  V30 5972 C 570.877 4.26624 -2.99402 0
M  V30 5973 C 568.205 4.50268 -3.76132 0
M  V30 5974 C 570.557 4.64618 -4.29316 0
M  V30 5975 C 569.221 4.75975 -4.67979 0
M  V30 5976 H 568.491 0.72133 -0.169601 0
M  V30 5977 H 571.138 1.57517 -1.08907 0
M  V30 5978 H 569.443 3.91761 0.0551328 0
M  V30 5979 H 571.14 3.99655 -0.328163 0
M  V30 5980 H 567.73 3.90837 -1.75911 0
M  V30 5981 H 571.914 4.1597 -2.70708 0
M  V30 5982 H 567.17 4.57256 -4.05865 0
M  V30 5983 H 571.344 4.83722 -5.00985 0
M  V30 5984 H 568.971 5.04041 -5.69076 0
M  V30 5985 N 570.547 0.616602 1.45037 0
M  V30 5986 C 571.495 -0.109318 2.32343 0
M  V30 5987 C 572.489 -0.850543 1.465 0
M  V30 5988 O 573.695 -0.765088 1.62931 0
M  V30 5989 H 570.07 -0.0541091 0.750051 0
M  V30 5990 H 572.041 0.645326 2.91338 0
M  V30 5991 C 570.79 -1.0872 3.30266 0
M  V30 5992 H 570.113 -0.526267 3.96321 0
M  V30 5993 H 571.553 -1.56489 3.94065 0
M  V30 5994 C 570.012 -2.16525 2.58105 0
M  V30 5995 O 570.542 -3.244 2.36913 0
M  V30 5996 N 568.748 -1.92057 2.18088 0
M  V30 5997 H 568.295 -1.04337 2.35524 0
M  V30 5998 H 568.253 -2.64391 1.70131 0
M  V30 5999 N 572.025 -1.5352 0.356285 0
M  V30 6000 C 572.973 -2.26945 -0.50978 0
M  V30 6001 C 573.967 -1.29569 -1.09125 0
M  V30 6002 O 575.173 -1.47231 -1.03552 0
M  V30 6003 H 571.548 -0.729368 -0.183102 0
M  V30 6004 H 573.519 -2.98111 0.131374 0
M  V30 6005 C 572.268 -3.06466 -1.64237 0
M  V30 6006 H 571.591 -3.81233 -1.20423 0
M  V30 6007 H 573.031 -3.61035 -2.22327 0
M  V30 6008 C 571.49 -2.16737 -2.57928 0
M  V30 6009 O 572.02 -1.77195 -3.60507 0
M  V30 6010 N 570.226 -1.81558 -2.26903 0
M  V30 6011 H 569.773 -2.13913 -1.43524 0
M  V30 6012 H 569.731 -1.21806 -2.89846 0
M  V30 6013 N 573.503 -0.0852151 -1.57369 0
M  V30 6014 C 574.728 0.592872 -1.98746 0
M  V30 6015 C 575.153 1.61538 -0.963689 0
M  V30 6016 O 574.511 1.81168 0.069071 0
M  V30 6017 C 574.559 1.22599 -3.39119 0
M  V30 6018 O 573.663 2.34185 -3.39457 0
M  V30 6019 H 573.004 0.151314 -0.646529 0
M  V30 6020 H 575.534 -0.163703 -2.03944 0
M  V30 6021 H 575.544 1.56965 -3.76598 0
M  V30 6022 H 574.219 0.476831 -4.13158 0
M  V30 6023 H 572.796 2.01512 -3.13763 0
M  V30 6024 N 574.981 1.5647 0.188427 0
M  V30 6025 C 576.228 1.81013 0.907779 0
M  V30 6026 C 576.556 0.65953 1.82977 0
M  V30 6027 O 575.811 -0.354308 1.92466 0
M  V30 6028 C 576.11 3.11596 1.7505 0
M  V30 6029 C 575.776 4.40145 0.978922 0
M  V30 6030 C 574.438 4.75066 0.765912 0
M  V30 6031 C 576.79 5.19369 0.436498 0
M  V30 6032 C 574.118 5.867 -0.00089868 0
M  V30 6033 C 576.47 6.31805 -0.317136 0
M  V30 6034 C 575.134 6.65303 -0.541103 0
M  V30 6035 H 574.404 0.662373 0.33218 0
M  V30 6036 H 577.051 1.9071 0.173732 0
M  V30 6037 H 575.356 2.97165 2.55343 0
M  V30 6038 H 577.053 3.27793 2.30983 0
M  V30 6039 H 573.643 4.12745 1.15497 0
M  V30 6040 H 577.827 4.92799 0.588449 0
M  V30 6041 H 573.083 6.11122 -0.184329 0
M  V30 6042 H 577.257 6.92406 -0.744788 0
M  V30 6043 H 574.884 7.51646 -1.13718 0
M  V30 6044 N 576.459 -0.456382 1.50847 0
M  V30 6045 C 577.407 -1.57318 1.71329 0
M  V30 6046 C 578.401 -1.59187 0.579287 0
M  V30 6047 O 579.607 -1.6316 0.76018 0
M  V30 6048 H 575.982 -0.5223 0.541024 0
M  V30 6049 H 577.953 -1.3721 2.64983 0
M  V30 6050 C 576.702 -2.95142 1.83811 0
M  V30 6051 H 576.025 -2.94428 2.70467 0
M  V30 6052 H 577.465 -3.72702 2.02161 0
M  V30 6053 C 575.924 -3.31636 0.593224 0
M  V30 6054 O 576.454 -4.00852 -0.260898 0
M  V30 6055 N 574.66 -2.87205 0.442902 0
M  V30 6056 H 574.207 -2.31051 1.13901 0
M  V30 6057 H 574.165 -3.11986 -0.38884 0
M  V30 6058 N 577.937 -1.40673 -0.710563 0
M  V30 6059 C 578.867 -1.44095 -1.83736 0
M  V30 6060 C 579.848 -0.301286 -1.67411 0
M  V30 6061 O 581.033 -0.510618 -1.87367 0
M  V30 6062 C 578.163 -1.30773 -3.21738 0
M  V30 6063 C 577.117 -2.42395 -3.52745 0
M  V30 6064 C 576.443 -2.14147 -4.89944 0
M  V30 6065 C 577.743 -3.84738 -3.53234 0
M  V30 6066 H 579.437 -2.38396 -1.81129 0
M  V30 6067 H 576.983 -1.14746 -0.870017 0
M  V30 6068 H 578.936 -1.31783 -4.00264 0
M  V30 6069 H 577.66 -0.329507 -3.24934 0
M  V30 6070 H 576.319 -2.40643 -2.76562 0
M  V30 6071 H 575.967 -1.14703 -4.89747 0
M  V30 6072 H 575.667 -2.88934 -5.11655 0
M  V30 6073 H 577.191 -2.16848 -5.70797 0
M  V30 6074 H 578.605 -3.88286 -4.2179 0
M  V30 6075 H 577.002 -4.59085 -3.86473 0
M  V30 6076 H 578.072 -4.13962 -2.52514 0
M  V30 6077 N 579.415 0.9433 -1.26252 0
M  V30 6078 C 580.662 1.68925 -1.11672 0
M  V30 6079 C 580.99 1.91499 0.340329 0
M  V30 6080 O 580.245 1.49189 1.26653 0
M  V30 6081 C 580.544 3.07073 -1.82868 0
M  V30 6082 C 580.21 3.04262 -3.32769 0
M  V30 6083 C 578.872 3.03203 -3.7366 0
M  V30 6084 C 581.224 2.96729 -4.28487 0
M  V30 6085 C 578.552 2.92373 -5.0866 0
M  V30 6086 C 580.904 2.87442 -5.63525 0
M  V30 6087 C 579.568 2.84724 -6.03729 0
M  V30 6088 H 578.838 0.618141 -0.408635 0
M  V30 6089 H 581.485 1.10124 -1.56668 0
M  V30 6090 H 579.79 3.69486 -1.30335 0
M  V30 6091 H 581.487 3.63635 -1.69029 0
M  V30 6092 H 578.077 3.05865 -3.00241 0
M  V30 6093 H 582.261 2.96658 -3.97879 0
M  V30 6094 H 577.517 2.88645 -5.38975 0
M  V30 6095 H 581.691 2.80576 -6.37377 0
M  V30 6096 H 579.318 2.76089 -7.08293 0
M  V30 6097 N 580.893 1.08022 1.14757 0
M  V30 6098 C 581.826 0.650738 2.18725 0
M  V30 6099 C 582.804 -0.335496 1.59101 0
M  V30 6100 O 583.988 -0.240295 1.86962 0
M  V30 6101 C 581.115 -0.0434377 3.38672 0
M  V30 6102 C 580.161 0.90232 4.16846 0
M  V30 6103 S 580.994 2.40693 4.78359 0
M  V30 6104 C 582.15 1.72475 6.01667 0
M  V30 6105 H 582.383 1.53152 2.54817 0
M  V30 6106 H 579.916 0.894823 1.25826 0
M  V30 6107 H 581.874 -0.437684 4.0816 0
M  V30 6108 H 580.535 -0.900659 3.0091 0
M  V30 6109 H 579.728 0.363445 5.02688 0
M  V30 6110 H 579.33 1.23728 3.52941 0
M  V30 6111 H 581.622 1.0404 6.69464 0
M  V30 6112 H 582.565 2.56175 6.60136 0
M  V30 6113 H 582.973 1.19979 5.51602 0
M  V30 6114 N 582.371 -1.3172 0.865308 0
M  V30 6115 C 583.596 -2.01591 0.487415 0
M  V30 6116 C 584.021 -1.6455 -0.911307 0
M  V30 6117 O 583.379 -0.851689 -1.6005 0
M  V30 6118 C 583.427 -3.54759 0.646401 0
M  V30 6119 O 582.531 -4.11185 -0.316284 0
M  V30 6120 H 581.872 -0.634884 0.194468 0
M  V30 6121 H 584.402 -1.68024 1.16744 0
M  V30 6122 H 584.412 -4.04438 0.537932 0
M  V30 6123 H 583.087 -3.8106 1.66632 0
M  V30 6124 H 581.664 -3.72543 -0.163162 0
M  V30 6125 N 583.85 -0.624285 -1.44708 0
M  V30 6126 C 585.077 -0.132919 -2.06473 0
M  V30 6127 C 585.493 1.18967 -1.46602 0
M  V30 6128 O 584.85 1.72824 -0.586341 0
M  V30 6129 C 584.901 -0.00465418 -3.615 0
M  V30 6130 O 584.622 -1.27494 -4.19138 0
M  V30 6131 C 586.123 0.516213 -4.40284 0
M  V30 6132 H 583.343 -0.0765201 -0.666623 0
M  V30 6133 H 585.887 -0.856751 -1.85688 0
M  V30 6134 H 584.042 0.669583 -3.8157 0
M  V30 6135 H 584.456 -1.11536 -5.12504 0
M  V30 6136 H 585.93 0.554994 -5.49203 0
M  V30 6137 H 586.407 1.5419 -4.11245 0
M  V30 6138 H 587.013 -0.124542 -4.25118 0
M  V30 6139 N 585.328 1.53329 -0.364422 0
M  V30 6140 C 586.553 2.06132 0.229033 0
M  V30 6141 C 586.978 1.23625 1.41769 0
M  V30 6142 O 586.336 0.255038 1.79497 0
M  V30 6143 C 586.384 3.55544 0.60174 0
M  V30 6144 O 585.488 3.75771 1.69912 0
M  V30 6145 H 584.829 0.663148 0.0336213 0
M  V30 6146 H 587.359 1.97758 -0.524689 0
M  V30 6147 H 587.369 3.98549 0.873073 0
M  V30 6148 H 586.044 4.15039 -0.267421 0
M  V30 6149 H 584.621 3.44663 1.42343 0
M  V30 6150 N 586.806 0.0935595 1.57322 0
M  V30 6151 C 588.217 -0.435807 1.81542 0
M  V30 6152 C 588.568 -1.68263 1.00907 0
M  V30 6153 O 587.693 -2.15087 0.237983 0
M  V30 6154 C 588.288 -0.797436 3.29282 0
M  V30 6155 C 586.847 -1.27155 3.54272 0
M  V30 6156 C 585.994 -0.267455 2.76007 0
M  V30 6157 H 588.945 0.31902 1.5546 0
M  V30 6158 H 588.966 -1.6571 3.42521 0
M  V30 6159 H 588.478 0.110206 3.87943 0
M  V30 6160 H 586.579 -2.19696 3.00939 0
M  V30 6161 H 586.692 -1.23445 4.62923 0
M  V30 6162 H 585.056 -0.749282 2.43429 0
M  V30 6163 H 585.839 0.632839 3.37417 0
M  V30 6164 N 588.284 -1.56567 -0.180126 0
M  V30 6165 C 589.531 -1.81492 -0.898167 0
M  V30 6166 C 589.859 -0.669225 -1.82624 0
M  V30 6167 O 589.114 0.344096 -1.92651 0
M  V30 6168 C 589.413 -3.1252 -1.73395 0
M  V30 6169 C 589.079 -4.40658 -0.955567 0
M  V30 6170 C 587.741 -4.75465 -0.740707 0
M  V30 6171 C 590.093 -5.19593 -0.408948 0
M  V30 6172 C 587.421 -5.86691 0.0320128 0
M  V30 6173 C 589.773 -6.31627 0.350638 0
M  V30 6174 C 588.437 -6.65007 0.576378 0
M  V30 6175 H 587.707 -0.664125 -0.328662 0
M  V30 6176 H 590.354 -1.908 -0.163616 0
M  V30 6177 H 588.659 -2.98515 -2.53763 0
M  V30 6178 H 590.356 -3.29013 -2.29241 0
M  V30 6179 H 586.946 -4.13352 -1.13306 0
M  V30 6180 H 591.13 -4.93104 -0.562307 0
M  V30 6181 H 586.386 -6.11016 0.216735 0
M  V30 6182 H 590.56 -6.92001 0.781497 0
M  V30 6183 H 588.187 -7.51033 1.17703 0
M  V30 6184 N 589.762 0.448376 -1.51087 0
M  V30 6185 C 590.992 1.21965 -1.66757 0
M  V30 6186 C 591.4 1.85748 -0.359753 0
M  V30 6187 O 590.743 1.71022 0.670604 0
M  V30 6188 C 590.805 2.35284 -2.71812 0
M  V30 6189 C 590.469 1.91957 -4.1473 0
M  V30 6190 C 591.466 1.42921 -4.9987 0
M  V30 6191 C 589.151 1.99985 -4.60772 0
M  V30 6192 C 591.145 1.02485 -6.29107 0
M  V30 6193 C 588.832 1.5916 -5.90009 0
M  V30 6194 C 589.83 1.10491 -6.74004 0
M  V30 6195 O 589.518 0.702413 -8.00825 0
M  V30 6196 H 589.25 0.374125 -0.563034 0
M  V30 6197 H 591.804 0.538927 -1.98204 0
M  V30 6198 H 590.034 3.06599 -2.35657 0
M  V30 6199 H 591.723 2.97184 -2.76472 0
M  V30 6200 H 592.489 1.36123 -4.65506 0
M  V30 6201 H 588.368 2.36814 -3.95525 0
M  V30 6202 H 591.912 0.644271 -6.94619 0
M  V30 6203 H 587.809 1.65626 -6.2389 0
M  V30 6204 H 588.577 0.829248 -8.14288 0
M  V30 6205 N 591.24 1.41047 0.703093 0
M  V30 6206 C 592.651 1.35657 1.28274 0
M  V30 6207 C 593.002 0.0360309 1.96167 0
M  V30 6208 O 592.127 -0.865833 1.98324 0
M  V30 6209 C 592.722 2.45707 2.33267 0
M  V30 6210 C 591.281 2.43738 2.86825 0
M  V30 6211 C 590.428 2.25941 1.60767 0
M  V30 6212 H 593.379 1.50672 0.49836 0
M  V30 6213 H 593.4 2.14333 3.14391 0
M  V30 6214 H 592.912 3.41805 1.83824 0
M  V30 6215 H 591.013 1.51375 3.40465 0
M  V30 6216 H 591.126 3.39779 3.37768 0
M  V30 6217 H 589.49 1.73681 1.86298 0
M  V30 6218 H 590.273 3.24054 1.1333 0
M  V30 6219 N 592.718 -0.936591 1.26751 0
M  V30 6220 C 593.651 -2.03619 1.03027 0
M  V30 6221 C 594.629 -1.62534 -0.0464619 0
M  V30 6222 O 595.813 -1.88251 0.0968873 0
M  V30 6223 C 592.94 -3.3402 0.561072 0
M  V30 6224 C 591.986 -3.9408 1.63105 0
M  V30 6225 S 592.819 -4.27782 3.22122 0
M  V30 6226 C 593.975 -5.61277 2.76982 0
M  V30 6227 H 594.208 -2.23429 1.96129 0
M  V30 6228 H 591.741 -1.07857 1.10482 0
M  V30 6229 H 593.699 -4.09424 0.297031 0
M  V30 6230 H 592.36 -3.12147 -0.349741 0
M  V30 6231 H 591.553 -4.88154 1.25386 0
M  V30 6232 H 591.155 -3.25227 1.84671 0
M  V30 6233 H 593.447 -6.40189 2.21731 0
M  V30 6234 H 594.39 -6.03887 3.69766 0
M  V30 6235 H 594.798 -5.21374 2.16402 0
M  V30 6236 N 594.196 -1.08629 -1.14182 0
M  V30 6237 C 595.426 -0.837673 -1.88856 0
M  V30 6238 C 595.834 0.614024 -1.78959 0
M  V30 6239 O 595.177 1.43384 -1.14833 0
M  V30 6240 C 595.239 -1.18355 -3.39459 0
M  V30 6241 C 594.903 -2.63848 -3.73139 0
M  V30 6242 C 595.9 -3.62099 -3.73069 0
M  V30 6243 C 593.585 -2.99761 -4.03049 0
M  V30 6244 C 595.579 -4.94292 -4.02435 0
M  V30 6245 C 593.266 -4.32147 -4.32078 0
M  V30 6246 C 594.264 -5.29223 -4.31755 0
M  V30 6247 O 593.952 -6.59229 -4.60079 0
M  V30 6248 H 593.684 -0.301609 -0.604986 0
M  V30 6249 H 596.238 -1.44961 -1.45518 0
M  V30 6250 H 594.468 -0.514628 -3.8326 0
M  V30 6251 H 596.157 -0.915391 -3.95443 0
M  V30 6252 H 596.923 -3.35698 -3.50046 0
M  V30 6253 H 592.802 -2.2484 -4.02453 0
M  V30 6254 H 596.346 -5.70055 -4.02098 0
M  V30 6255 H 592.243 -4.58296 -4.54571 0
M  V30 6256 H 593.011 -6.64578 -4.77785 0
M  V30 6257 N 595.674 1.31259 -0.872281 0
M  V30 6258 C 596.637 2.26744 -0.334656 0
M  V30 6259 C 597.637 1.52307 0.515681 0
M  V30 6260 O 598.827 1.71148 0.324656 0
M  V30 6261 C 595.959 3.36841 0.524482 0
M  V30 6262 H 597.152 2.75812 -1.17762 0
M  V30 6263 H 594.705 1.42232 -0.648064 0
M  V30 6264 H 595.44 2.93069 1.38855 0
M  V30 6265 H 595.225 3.92009 -0.0844299 0
M  V30 6266 H 596.715 4.07944 0.892838 0
M  V30 6267 N 597.152 0.631951 1.44375 0
M  V30 6268 C 598.115 -0.0628142 2.29114 0
M  V30 6269 C 599.115 -0.771494 1.41084 0
M  V30 6270 O 600.305 -0.615959 1.62947 0
M  V30 6271 C 597.437 -1.09953 3.22681 0
M  V30 6272 H 598.63 0.682509 2.92031 0
M  V30 6273 H 596.183 0.392128 1.51301 0
M  V30 6274 H 596.918 -1.87481 2.64616 0
M  V30 6275 H 596.703 -0.595286 3.87555 0
M  V30 6276 H 598.193 -1.58538 3.86336 0
M  V30 6277 N 598.631 -1.53133 0.372548 0
M  V30 6278 C 599.561 -2.28876 -0.462412 0
M  V30 6279 C 600.542 -1.31583 -1.07796 0
M  V30 6280 O 601.727 -1.60461 -1.09389 0
M  V30 6281 C 598.857 -3.08317 -1.59868 0
M  V30 6282 C 597.811 -4.13355 -1.11003 0
M  V30 6283 C 597.137 -4.8092 -2.33708 0
M  V30 6284 C 598.437 -5.21955 -0.18983 0
M  V30 6285 H 600.131 -2.9892 0.169511 0
M  V30 6286 H 597.677 -1.43761 0.0829658 0
M  V30 6287 H 599.63 -3.60055 -2.18949 0
M  V30 6288 H 598.354 -2.35976 -2.25794 0
M  V30 6289 H 597.013 -3.62573 -0.541869 0
M  V30 6290 H 596.661 -4.05144 -2.98106 0
M  V30 6291 H 596.361 -5.51904 -2.01682 0
M  V30 6292 H 597.885 -5.35455 -2.93462 0
M  V30 6293 H 599.299 -5.69153 -0.688319 0
M  V30 6294 H 597.696 -6.00087 0.0398887 0
M  V30 6295 H 598.766 -4.78811 0.766057 0
M  V30 6296 N 600.109 -0.101901 -1.5727 0
M  V30 6297 C 601.386 0.602832 -1.86079 0
M  V30 6298 C 601.766 1.85912 -1 0
M  V30 6299 O 601.114 2.28379 -0.0742488 0
M  V30 6300 C 601.324 0.911694 -3.36881 0
M  V30 6301 C 602.672 1.2722 -4.05093 0
M  V30 6302 O 603.696 1.0025 -3.41802 0
M  V30 6303 O 602.555 1.7776 -5.16782 0
M  V30 6304 H 599.649 0.302366 -0.769743 0
M  V30 6305 H 602.195 -0.135113 -1.69161 0
M  V30 6306 H 600.967 0.0207256 -3.91295 0
M  V30 6307 H 600.59 1.70538 -3.59169 0
M  V30 6308 N 601.587 1.56661 0.17182 0
M  V30 6309 C 602.833 1.82235 0.889845 0
M  V30 6310 C 603.166 0.679673 1.81918 0
M  V30 6311 O 602.441 -0.318404 1.91876 0
M  V30 6312 C 602.724 3.18195 1.68595 0
M  V30 6313 C 602.577 4.42989 0.779773 0
M  V30 6314 C 603.896 3.5109 2.65375 0
M  V30 6315 H 601.015 0.66291 0.322056 0
M  V30 6316 H 603.657 1.89358 0.15608 0
M  V30 6317 H 601.807 3.12253 2.3115 0
M  V30 6318 H 603.479 4.60997 0.16714 0
M  V30 6319 H 601.722 4.33711 0.0877964 0
M  V30 6320 H 602.393 5.3467 1.3723 0
M  V30 6321 H 604.869 3.57482 2.12946 0
M  V30 6322 H 603.745 4.47298 3.18144 0
M  V30 6323 H 604.006 2.75768 3.45549 0
M  V30 6324 N 603.065 -0.440357 1.51323 0
M  V30 6325 C 604.013 -1.55492 1.72988 0
M  V30 6326 C 605.007 -1.58564 0.596138 0
M  V30 6327 O 606.213 -1.62345 0.777443 0
M  V30 6328 H 602.588 -0.516532 0.546533 0
M  V30 6329 H 604.559 -1.34392 2.66423 0
M  V30 6330 C 603.308 -2.93176 1.86931 0
M  V30 6331 H 602.631 -2.91543 2.73574 0
M  V30 6332 H 604.071 -3.70537 2.06103 0
M  V30 6333 C 602.53 -3.30988 0.628365 0
M  V30 6334 O 603.06 -4.01106 -0.218367 0
M  V30 6335 N 601.266 -2.86719 0.473339 0
M  V30 6336 H 600.813 -2.2983 1.16345 0
M  V30 6337 H 600.771 -3.12381 -0.355727 0
M  V30 6338 N 604.543 -1.41418 -0.695603 0
M  V30 6339 C 605.506 -1.42988 -1.79129 0
M  V30 6340 C 606.506 -0.320514 -1.57573 0
M  V30 6341 O 607.696 -0.58039 -1.64247 0
M  V30 6342 C 604.828 -1.24122 -3.175 0
M  V30 6343 H 606.021 -2.40526 -1.7913 0
M  V30 6344 H 603.574 -1.2756 -0.903225 0
M  V30 6345 H 604.309 -0.274253 -3.23138 0
M  V30 6346 H 604.094 -2.045 -3.34547 0
M  V30 6347 H 605.584 -1.28056 -3.97481 0
M  V30 6348 N 606.021 0.929856 -1.27246 0
M  V30 6349 C 606.984 2.01172 -1.09829 0
M  V30 6350 C 607.984 1.60743 -0.0429687 0
M  V30 6351 O 609.174 1.71813 -0.287373 0
M  V30 6352 C 606.306 3.34191 -0.673003 0
M  V30 6353 H 607.499 2.18054 -2.05895 0
M  V30 6354 H 605.052 1.11036 -1.10003 0
M  V30 6355 H 605.787 3.23009 0.289134 0
M  V30 6356 H 605.572 3.64892 -1.43515 0
M  V30 6357 H 607.062 4.13646 -0.573323 0
M  V30 6358 N 607.499 1.09233 1.13605 0
M  V30 6359 C 608.432 0.6739 2.18023 0
M  V30 6360 C 609.41 -0.318603 1.59448 0
M  V30 6361 O 610.594 -0.220452 1.87206 0
M  V30 6362 C 607.721 -0.00751458 3.38699 0
M  V30 6363 C 606.767 0.946481 4.15865 0
M  V30 6364 S 607.6 2.45753 4.75779 0
M  V30 6365 C 608.756 1.78846 5.99804 0
M  V30 6366 H 608.989 1.55846 2.53178 0
M  V30 6367 H 606.522 0.908118 1.2487 0
M  V30 6368 H 608.48 -0.394368 4.08601 0
M  V30 6369 H 607.141 -0.868693 3.01849 0
M  V30 6370 H 606.334 0.416742 5.02274 0
M  V30 6371 H 605.936 1.27464 3.51609 0
M  V30 6372 H 608.228 1.11135 6.68323 0
M  V30 6373 H 609.171 2.63163 6.57382 0
M  V30 6374 H 609.579 1.25823 5.50299 0
M  V30 6375 N 608.977 -1.30795 0.87923 0
M  V30 6376 C 609.909 -2.27241 0.299025 0
M  V30 6377 C 610.922 -1.53472 -0.543166 0
M  V30 6378 O 612.111 -1.74756 -0.363651 0
M  V30 6379 C 609.211 -3.33655 -0.593931 0
M  V30 6380 C 608.384 -4.36857 0.2179 0
M  V30 6381 C 607.443 -5.22715 -0.604646 0
M  V30 6382 O 606.469 -5.69192 -0.0293838 0
M  V30 6383 N 607.671 -5.48008 -1.91488 0
M  V30 6384 H 610.436 -2.77667 1.12788 0
M  V30 6385 H 607.997 -1.43914 0.741637 0
M  V30 6386 H 609.989 -3.88013 -1.15012 0
M  V30 6387 H 608.559 -2.83202 -1.32346 0
M  V30 6388 H 607.779 -3.82444 0.955536 0
M  V30 6389 H 609.067 -5.02869 0.774614 0
M  V30 6390 H 608.465 -5.1202 -2.40525 0
M  V30 6391 H 607.022 -6.05264 -2.41864 0
M  V30 6392 N 610.455 -0.639598 -1.44038 0
M  V30 6393 C 611.365 0.0612377 -2.3452 0
M  V30 6394 C 612.381 0.826717 -1.53106 0
M  V30 6395 O 613.557 0.777059 -1.85806 0
M  V30 6396 C 610.622 1.02492 -3.31204 0
M  V30 6397 C 609.683 0.25788 -4.28525 0
M  V30 6398 C 608.916 1.17566 -5.2059 0
M  V30 6399 O 609.139 2.41461 -5.16771 0
M  V30 6400 O 608.073 0.655407 -5.98321 0
M  V30 6401 H 611.899 -0.68318 -2.95916 0
M  V30 6402 H 609.484 -0.399784 -1.43952 0
M  V30 6403 H 611.366 1.57911 -3.90694 0
M  V30 6404 H 610.041 1.7498 -2.7233 0
M  V30 6405 H 608.948 -0.339566 -3.72556 0
M  V30 6406 H 610.281 -0.427154 -4.90343 0
M  V30 6407 N 611.933 1.52934 -0.380664 0
M  V30 6408 C 613.181 2.01069 0.203874 0
M  V30 6409 C 613.502 1.26922 1.4804 0
M  V30 6410 O 612.772 0.386787 1.92044 0
M  V30 6411 H 611.352 0.742882 0.0783279 0
M  V30 6412 H 614.014 1.88099 -0.510368 0
M  V30 6413 H 613.11 3.09258 0.42021 0
M  V30 6414 N 613.412 0.11024 1.57214 0
M  V30 6415 C 614.322 -0.857077 2.18383 0
M  V30 6416 C 615.338 -1.29915 1.1575 0
M  V30 6417 O 616.514 -1.36394 1.48184 0
M  V30 6418 C 613.579 -2.09264 2.76423 0
M  V30 6419 C 612.64 -1.70333 3.94063 0
M  V30 6420 C 611.873 -2.87999 4.49324 0
M  V30 6421 O 612.096 -4.0317 4.03497 0
M  V30 6422 O 611.03 -2.6559 5.40135 0
M  V30 6423 H 614.856 -0.366561 3.0148 0
M  V30 6424 H 612.441 -0.114914 1.48957 0
M  V30 6425 H 614.323 -2.81644 3.13456 0
M  V30 6426 H 612.998 -2.57339 1.96363 0
M  V30 6427 H 611.905 -0.950864 3.61814 0
M  V30 6428 H 613.238 -1.27007 4.75531 0
M  V30 6429 N 614.89 -1.56749 -0.16351 0
M  V30 6430 C 615.853 -1.96121 -1.18613 0
M  V30 6431 C 616.853 -0.845765 -1.36761 0
M  V30 6432 O 618.043 -1.11268 -1.34033 0
M  V30 6433 C 615.175 -2.26282 -2.54969 0
M  V30 6434 H 616.368 -2.87639 -0.848764 0
M  V30 6435 H 613.921 -1.50928 -0.406251 0
M  V30 6436 H 614.656 -1.37504 -2.93706 0
M  V30 6437 H 614.441 -3.07595 -2.43162 0
M  V30 6438 H 615.931 -2.57638 -3.28653 0
M  V30 6439 N 616.368 0.432326 -1.51554 0
M  V30 6440 C 617.616 1.17901 -1.64146 0
M  V30 6441 C 617.937 1.91604 -0.362367 0
M  V30 6442 O 617.207 1.85764 0.621968 0
M  V30 6443 H 615.787 0.438206 -0.604966 0
M  V30 6444 H 618.449 0.495172 -1.88505 0
M  V30 6445 H 617.545 1.90584 -2.47152 0
M  V30 6446 N 617.846 1.41785 0.688094 0
M  V30 6447 C 619.262 1.24419 0.999608 0
M  V30 6448 C 619.462 0.138868 2.01021 0
M  V30 6449 O 618.518 -0.494283 2.47615 0
M  V30 6450 C 619.831 2.59625 1.51709 0
M  V30 6451 C 621.379 2.66869 1.63554 0
M  V30 6452 C 621.854 4.0241 2.18702 0
M  V30 6453 N 623.345 4.04295 2.26053 0
M  V30 6454 C 624.08 5.05977 2.69768 0
M  V30 6455 N 623.576 6.18047 3.13033 0
M  V30 6456 N 625.369 4.93336 2.69398 0
M  V30 6457 H 617.52 2.12392 0.0187427 0
M  V30 6458 H 619.783 0.945347 0.0708673 0
M  V30 6459 H 619.489 3.41297 0.849059 0
M  V30 6460 H 619.363 2.82628 2.49803 0
M  V30 6461 H 621.75 1.8555 2.29467 0
M  V30 6462 H 621.831 2.47668 0.639857 0
M  V30 6463 H 621.475 4.8418 1.53402 0
M  V30 6464 H 621.405 4.18955 3.19037 0
M  V30 6465 H 623.896 3.23383 1.9553 0
M  V30 6466 H 624.209 6.91498 3.45038 0
M  V30 6467 H 622.554 6.21572 3.10923 0
M  V30 6468 H 625.745 4.04865 2.34952 0
M  V30 6469 H 625.918 5.72717 3.03148 0
M  V30 6470 N 619.324 -0.923095 1.27737 0
M  V30 6471 C 620.271 -2.02432 1.1086 0
M  V30 6472 C 621.241 -1.66098 0.00835195 0
M  V30 6473 O 622.426 -1.90027 0.171542 0
M  V30 6474 C 619.566 -3.36476 0.766671 0
M  V30 6475 C 618.679 -3.85737 1.94501 0
M  V30 6476 C 617.814 -5.08249 1.54455 0
M  V30 6477 C 616.853 -5.49818 2.6901 0
M  V30 6478 N 615.99 -6.63524 2.29521 0
M  V30 6479 H 620.83 -2.16201 2.05089 0
M  V30 6480 H 618.367 -1.05909 1.02087 0
M  V30 6481 H 620.325 -4.13569 0.549223 0
M  V30 6482 H 618.955 -3.22502 -0.13867 0
M  V30 6483 H 618.007 -3.04883 2.27487 0
M  V30 6484 H 619.319 -4.12513 2.80419 0
M  V30 6485 H 618.473 -5.92857 1.28862 0
M  V30 6486 H 617.212 -4.83261 0.656534 0
M  V30 6487 H 616.217 -4.63757 2.95313 0
M  V30 6488 H 617.442 -5.76799 3.5844 0
M  V30 6489 H 615.388 -6.40185 1.43177 0
M  V30 6490 H 615.305 -6.89978 3.08977 0
M  V30 6491 H 616.573 -7.51461 2.07187 0
M  V30 6492 N 620.802 -1.09834 -1.13024 0
M  V30 6493 C 621.732 -0.763451 -2.20666 0
M  V30 6494 C 622.713 0.260778 -1.68089 0
M  V30 6495 O 623.898 0.127915 -1.93778 0
M  V30 6496 C 621.028 -0.187744 -3.46792 0
M  V30 6497 C 619.982 -1.14196 -4.12484 0
M  V30 6498 C 619.308 -0.427755 -5.32986 0
M  V30 6499 C 620.608 -2.48607 -4.59338 0
M  V30 6500 H 622.302 -1.66347 -2.48936 0
M  V30 6501 H 619.848 -0.801261 -1.19649 0
M  V30 6502 H 621.801 0.0586375 -4.21359 0
M  V30 6503 H 620.525 0.747485 -3.17931 0
M  V30 6504 H 619.184 -1.37369 -3.3989 0
M  V30 6505 H 618.832 0.511747 -5.0039 0
M  V30 6506 H 618.532 -1.06403 -5.77886 0
M  V30 6507 H 620.056 -0.189772 -6.10305 0
M  V30 6508 H 621.47 -2.29618 -5.25308 0
M  V30 6509 H 619.867 -3.08062 -5.14993 0
M  V30 6510 H 620.937 -3.09062 -3.73642 0
M  V30 6511 N 622.28 1.30327 -0.886154 0
M  V30 6512 C 623.526 1.96764 -0.515312 0
M  V30 6513 C 623.881 1.68675 0.925552 0
M  V30 6514 O 623.174 0.981693 1.6454 0
M  V30 6515 C 623.368 3.49906 -0.728042 0
M  V30 6516 C 623.197 3.92881 -2.18803 0
M  V30 6517 C 621.967 4.18424 -2.83284 0
M  V30 6518 C 624.165 4.05617 -3.16195 0
M  V30 6519 N 622.147 4.47867 -4.19867 0
M  V30 6520 C 623.518 4.38957 -4.37855 0
M  V30 6521 C 625.573 3.88047 -3.11968 0
M  V30 6522 C 624.276 4.56559 -5.55829 0
M  V30 6523 C 626.302 4.06851 -4.29215 0
M  V30 6524 C 625.664 4.40538 -5.49641 0
M  V30 6525 H 621.763 0.74493 -0.237916 0
M  V30 6526 H 624.347 1.57536 -1.14414 0
M  V30 6527 H 622.518 3.88187 -0.128696 0
M  V30 6528 H 624.25 4.03401 -0.323983 0
M  V30 6529 H 621.005 4.1167 -2.34146 0
M  V30 6530 H 621.429 4.66721 -4.90408 0
M  V30 6531 H 626.071 3.61078 -2.19961 0
M  V30 6532 H 623.789 4.8237 -6.4834 0
M  V30 6533 H 627.375 3.94724 -4.27416 0
M  V30 6534 H 626.255 4.54789 -6.38856 0
M  V30 6535 N 623.758 0.647228 1.43697 0
M  V30 6536 C 624.708 -0.0702191 2.27892 0
M  V30 6537 C 625.692 -0.800601 1.39568 0
M  V30 6538 O 626.884 -0.684055 1.63247 0
M  V30 6539 C 624.013 -1.04008 3.27165 0
M  V30 6540 C 623.099 -0.308484 4.22977 0
M  V30 6541 N 623.49 0.671721 5.0132 0
M  V30 6542 C 621.788 -0.550751 4.42586 0
M  V30 6543 C 622.489 1.10543 5.711 0
M  V30 6544 N 621.465 0.440903 5.41809 0
M  V30 6545 H 625.267 0.682031 2.85877 0
M  V30 6546 H 622.781 0.474022 1.55328 0
M  V30 6547 H 624.778 -1.56881 3.86256 0
M  V30 6548 H 623.438 -1.79246 2.70742 0
M  V30 6549 H 624.449 1.0502 5.0714 0
M  V30 6550 H 621.126 -1.28476 3.97241 0
M  V30 6551 H 622.516 1.91614 6.43998 0
M  V30 6552 N 625.236 -1.5273 0.388769 0
M  V30 6553 C 626.513 -1.93981 -0.251133 0
M  V30 6554 C 626.893 -1.32418 -1.64404 0
M  V30 6555 O 626.241 -0.492074 -2.23139 0
M  V30 6556 C 626.451 -3.47891 -0.27802 0
M  V30 6557 C 627.799 -4.21559 -0.507229 0
M  V30 6558 O 628.823 -3.54394 -0.358252 0
M  V30 6559 O 627.682 -5.40626 -0.799094 0
M  V30 6560 H 624.776 -0.812157 -0.15598 0
M  V30 6561 H 627.322 -1.63809 0.443237 0
M  V30 6562 H 626.094 -3.8503 0.697669 0
M  V30 6563 H 625.717 -3.84364 -1.01733 0
M  V30 6564 N 626.714 -0.118576 -1.57153 0
M  V30 6565 C 627.644 0.828436 -2.1831 0
M  V30 6566 C 628.625 1.27758 -1.12303 0
M  V30 6567 O 629.81 1.34026 -1.40537 0
M  V30 6568 C 626.94 2.07876 -2.78217 0
M  V30 6569 C 625.894 1.76742 -3.89803 0
M  V30 6570 C 625.22 3.08801 -4.36516 0
M  V30 6571 C 626.52 1.03606 -5.11921 0
M  V30 6572 H 628.214 0.318824 -2.97698 0
M  V30 6573 H 625.76 0.151911 -1.43196 0
M  V30 6574 H 627.713 2.74584 -3.19659 0
M  V30 6575 H 626.437 2.61161 -1.96118 0
M  V30 6576 H 625.096 1.12424 -3.48936 0
M  V30 6577 H 624.744 3.6002 -3.51276 0
M  V30 6578 H 624.444 2.88743 -5.11763 0
M  V30 6579 H 625.968 3.76627 -4.80608 0
M  V30 6580 H 627.382 1.60467 -5.50385 0
M  V30 6581 H 625.779 0.936454 -5.92748 0
M  V30 6582 H 626.849 0.0227421 -4.84895 0
M  V30 6583 N 628.193 1.56834 0.155195 0
M  V30 6584 C 629.123 2.00678 1.19376 0
M  V30 6585 C 630.104 0.884973 1.45266 0
M  V30 6586 O 631.289 1.1522 1.56326 0
M  V30 6587 C 628.419 2.38042 2.5289 0
M  V30 6588 C 627.373 3.53332 2.41538 0
M  V30 6589 C 626.699 3.76485 3.79688 0
M  V30 6590 C 627.999 4.86265 1.9064 0
M  V30 6591 H 629.693 2.87688 0.829232 0
M  V30 6592 H 627.239 1.38407 0.397445 0
M  V30 6593 H 629.192 2.67314 3.25763 0
M  V30 6594 H 627.916 1.4796 2.91162 0
M  V30 6595 H 626.575 3.24213 1.71117 0
M  V30 6596 H 626.223 2.83667 4.15382 0
M  V30 6597 H 625.923 4.54068 3.72956 0
M  V30 6598 H 627.447 4.08174 4.54122 0
M  V30 6599 H 628.861 5.14308 2.53299 0
M  V30 6600 H 627.258 5.67597 1.94818 0
M  V30 6601 H 628.328 4.77184 0.861596 0
M  V30 6602 N 629.671 -0.424282 1.51781 0
M  V30 6603 C 630.92 -1.16961 1.64326 0
M  V30 6604 C 631.233 -1.92035 0.371749 0
M  V30 6605 O 632.439 -2.68873 0.37676 0
M  V30 6606 C 630.895 -2.12782 2.90262 0
M  V30 6607 C 630.503 -1.43295 4.24465 0
M  V30 6608 C 632.247 -2.87667 3.12166 0
M  V30 6609 C 630.154 -2.37676 5.41538 0
M  V30 6610 H 629.084 -0.440293 0.612093 0
M  V30 6611 H 631.735 -0.435431 1.78259 0
M  V30 6612 H 630.117 -2.8969 2.69992 0
M  V30 6613 H 631.291 -0.718564 4.55163 0
M  V30 6614 H 629.606 -0.805118 4.08542 0
M  V30 6615 H 632.203 -3.58395 3.96808 0
M  V30 6616 H 632.546 -3.49758 2.25776 0
M  V30 6617 H 633.079 -2.17863 3.32837 0
M  V30 6618 H 629.818 -1.80255 6.30229 0
M  V30 6619 H 629.338 -3.07132 5.15199 0
M  V30 6620 H 631.017 -2.98529 5.74012 0
M  V30 6621 N 631.149 -1.42148 -0.680565 0
M  V30 6622 C 632.377 -1.45696 -1.46902 0
M  V30 6623 C 632.792 -0.0665858 -1.88683 0
M  V30 6624 O 632.149 0.917436 -1.57764 0
M  V30 6625 C 632.2 -2.37898 -2.72188 0
M  V30 6626 O 631.921 -3.71526 -2.32163 0
M  V30 6627 C 633.422 -2.50407 -3.65802 0
M  V30 6628 H 630.642 -0.495729 -0.45221 0
M  V30 6629 H 633.186 -1.866 -0.836709 0
M  V30 6630 H 631.341 -2.00263 -3.31622 0
M  V30 6631 H 631.755 -4.20849 -3.13027 0
M  V30 6632 H 633.229 -3.19056 -4.50452 0
M  V30 6633 H 633.706 -1.5401 -4.11312 0
M  V30 6634 H 634.312 -2.8874 -3.12265 0
M  V30 6635 N 632.627 0.916307 -1.28225 0
M  V30 6636 C 633.855 1.69901 -1.18073 0
M  V30 6637 C 634.27 1.86988 0.260968 0
M  V30 6638 O 633.627 1.39505 1.17663 0
M  V30 6639 C 633.678 3.09254 -1.87201 0
M  V30 6640 O 633.399 2.92959 -3.2574 0
M  V30 6641 C 634.9 4.0362 -1.83319 0
M  V30 6642 H 632.12 0.531181 -0.409985 0
M  V30 6643 H 634.664 1.14703 -1.69303 0
M  V30 6644 H 632.819 3.61277 -1.39848 0
M  V30 6645 H 633.233 3.81139 -3.60324 0
M  V30 6646 H 634.707 4.98873 -2.36282 0
M  V30 6647 H 635.184 4.3176 -0.805007 0
M  V30 6648 H 635.79 3.57524 -2.3034 0
M  V30 6649 N 634.105 1.10431 1.1244 0
M  V30 6650 C 635.354 0.841539 1.83306 0
M  V30 6651 C 635.667 -0.634961 1.85007 0
M  V30 6652 O 636.873 -1.01363 2.51869 0
M  V30 6653 C 635.329 1.45565 3.29149 0
M  V30 6654 C 634.937 2.96544 3.35806 0
M  V30 6655 C 636.681 1.27227 4.04986 0
M  V30 6656 C 634.588 3.5099 4.75983 0
M  V30 6657 H 633.518 0.311156 0.686803 0
M  V30 6658 H 636.169 1.32829 1.26604 0
M  V30 6659 H 634.551 0.896574 3.85717 0
M  V30 6660 H 635.725 3.58766 2.89177 0
M  V30 6661 H 634.04 3.14036 2.73442 0
M  V30 6662 H 636.637 1.65348 5.08492 0
M  V30 6663 H 636.98 0.213834 4.1575 0
M  V30 6664 H 637.513 1.79941 3.54776 0
M  V30 6665 H 634.252 4.56499 4.70413 0
M  V30 6666 H 633.772 2.93535 5.23065 0
M  V30 6667 H 635.451 3.48808 5.44924 0
M  V30 6668 N 635.583 -1.29855 0.893053 0
M  V30 6669 C 636.493 -2.31661 0.370157 0
M  V30 6670 C 637.509 -1.65677 -0.531723 0
M  V30 6671 O 638.685 -1.9691 -0.422902 0
M  V30 6672 C 635.75 -3.44388 -0.399741 0
M  V30 6673 C 634.811 -4.2598 0.532861 0
M  V30 6674 C 634.044 -5.33324 -0.200388 0
M  V30 6675 O 634.267 -5.52305 -1.42531 0
M  V30 6676 O 633.201 -6.00188 0.453668 0
M  V30 6677 H 637.027 -2.78354 1.2146 0
M  V30 6678 H 634.612 -1.34171 0.657153 0
M  V30 6679 H 636.494 -4.13037 -0.835358 0
M  V30 6680 H 635.169 -2.99815 -1.22035 0
M  V30 6681 H 634.076 -3.59998 1.01746 0
M  V30 6682 H 635.409 -4.74178 1.3197 0
M  V30 6683 N 637.061 -0.65484 -1.43351 0
M  V30 6684 C 638.024 0.0263562 -2.29185 0
M  V30 6685 C 639.024 0.748951 -1.42293 0
M  V30 6686 O 640.214 0.589957 -1.63906 0
M  V30 6687 C 637.346 1.04806 -3.2439 0
M  V30 6688 H 638.539 -0.728883 -2.90908 0
M  V30 6689 H 636.092 -0.416149 -1.50658 0
M  V30 6690 H 636.827 1.83247 -2.67565 0
M  V30 6691 H 636.612 0.533554 -3.88453 0
M  V30 6692 H 638.102 1.52372 -3.88809 0
M  V30 6693 N 638.539 1.52521 -0.396863 0
M  V30 6694 C 639.955 1.5953 -0.0471659 0
M  V30 6695 C 640.155 1.41044 1.43906 0
M  V30 6696 O 639.211 1.23122 2.20448 0
M  V30 6697 C 640.524 2.95972 -0.531113 0
M  V30 6698 C 642.072 3.09172 -0.488024 0
M  V30 6699 C 642.547 4.48075 -0.948281 0
M  V30 6700 N 644.038 4.54281 -0.9046 0
M  V30 6701 C 644.773 5.60007 -1.23205 0
M  V30 6702 N 644.269 6.73343 -1.63036 0
M  V30 6703 N 646.062 5.50151 -1.15282 0
M  V30 6704 H 638.213 1.62786 -1.36435 0
M  V30 6705 H 640.476 0.76514 -0.559701 0
M  V30 6706 H 640.182 3.14741 -1.56942 0
M  V30 6707 H 640.056 3.77143 0.0657922 0
M  V30 6708 H 642.443 2.90095 0.541211 0
M  V30 6709 H 642.524 2.29937 -1.12083 0
M  V30 6710 H 642.168 4.67894 -1.97578 0
M  V30 6711 H 642.098 5.25788 -0.292412 0
M  V30 6712 H 644.589 3.72918 -0.6116 0
M  V30 6713 H 644.902 7.49992 -1.86365 0
M  V30 6714 H 643.247 6.74655 -1.66929 0
M  V30 6715 H 646.438 4.6049 -0.840602 0
M  V30 6716 H 646.611 6.32444 -1.41133 0
M  V30 6717 N 640.017 0.126909 1.57088 0
M  V30 6718 C 640.964 -0.82036 2.15728 0
M  V30 6719 C 641.934 -1.25811 1.08447 0
M  V30 6720 O 643.119 -1.33422 1.36393 0
M  V30 6721 C 640.259 -2.06199 2.76724 0
M  V30 6722 C 639.372 -1.67188 3.98337 0
M  V30 6723 C 638.507 -2.86378 4.47393 0
M  V30 6724 C 637.546 -2.43644 5.61519 0
M  V30 6725 N 636.683 -3.55775 6.05284 0
M  V30 6726 H 641.523 -0.313472 2.96347 0
M  V30 6727 H 639.06 -0.14303 1.46403 0
M  V30 6728 H 641.018 -2.78959 3.10222 0
M  V30 6729 H 639.648 -2.54333 1.98782 0
M  V30 6730 H 638.7 -0.842714 3.70948 0
M  V30 6731 H 640.012 -1.31789 4.81075 0
M  V30 6732 H 639.166 -3.67353 4.82842 0
M  V30 6733 H 637.905 -3.25009 3.63621 0
M  V30 6734 H 636.91 -1.61104 5.25667 0
M  V30 6735 H 638.135 -2.06122 6.47063 0
M  V30 6736 H 636.081 -3.94065 5.24451 0
M  V30 6737 H 635.998 -3.24325 6.82898 0
M  V30 6738 H 637.266 -4.37166 6.45373 0
M  V30 6739 N 641.495 -1.56914 -0.146875 0
M  V30 6740 C 642.442 -1.98275 -1.18134 0
M  V30 6741 C 643.412 -0.850367 -1.42681 0
M  V30 6742 O 644.597 -1.11244 -1.55014 0
M  V30 6743 C 641.737 -2.36861 -2.5098 0
M  V30 6744 C 640.85 -3.63391 -2.33605 0
M  V30 6745 C 639.985 -3.91079 -3.59486 0
M  V30 6746 C 639.024 -5.10879 -3.37149 0
M  V30 6747 N 638.161 -5.34577 -4.55161 0
M  V30 6748 H 643.001 -2.8645 -0.821622 0
M  V30 6749 H 640.538 -1.41718 -0.394248 0
M  V30 6750 H 642.496 -2.57262 -3.28439 0
M  V30 6751 H 641.126 -1.51766 -2.84898 0
M  V30 6752 H 640.178 -3.50766 -1.47199 0
M  V30 6753 H 641.49 -4.51007 -2.13059 0
M  V30 6754 H 640.644 -4.11979 -4.45374 0
M  V30 6755 H 639.383 -3.01885 -3.83036 0
M  V30 6756 H 638.388 -4.89853 -2.49649 0
M  V30 6757 H 639.613 -6.01626 -3.14997 0
M  V30 6758 H 637.559 -4.48337 -4.78884 0
M  V30 6759 H 637.476 -6.16463 -4.37618 0
M  V30 6760 H 638.744 -5.59975 -5.42263 0
M  V30 6761 N 642.974 0.416227 -1.52004 0
M  V30 6762 C 643.904 1.51365 -1.77795 0
M  V30 6763 C 644.885 1.58059 -0.628601 0
M  V30 6764 O 646.07 1.73447 -0.873478 0
M  V30 6765 C 643.2 2.89256 -1.92219 0
M  V30 6766 C 642.154 2.97415 -3.0778 0
M  V30 6767 C 641.48 4.37492 -3.07417 0
M  V30 6768 C 642.78 2.69551 -4.47369 0
M  V30 6769 H 644.474 1.30033 -2.69688 0
M  V30 6770 H 642.02 0.624112 -1.29772 0
M  V30 6771 H 643.973 3.66008 -2.08845 0
M  V30 6772 H 642.697 3.11866 -0.969917 0
M  V30 6773 H 641.356 2.23107 -2.90893 0
M  V30 6774 H 641.004 4.571 -2.09925 0
M  V30 6775 H 640.704 4.43877 -3.85029 0
M  V30 6776 H 642.228 5.16188 -3.26162 0
M  V30 6777 H 643.642 3.36028 -4.64497 0
M  V30 6778 H 642.039 2.87321 -5.26846 0
M  V30 6779 H 643.109 1.65029 -4.55953 0
M  V30 6780 N 644.452 1.42507 0.673017 0
M  V30 6781 C 645.701 1.42364 1.42883 0
M  V30 6782 C 646.014 0.0441598 1.9555 0
M  V30 6783 O 647.22 -0.0798679 2.71382 0
M  V30 6784 C 645.676 2.5043 2.58482 0
M  V30 6785 C 645.284 3.94392 2.12506 0
M  V30 6786 C 647.028 2.59455 3.35981 0
M  V30 6787 C 644.935 4.93964 3.25198 0
M  V30 6788 H 643.865 0.52951 0.536782 0
M  V30 6789 H 646.516 1.68422 0.728448 0
M  V30 6790 H 644.898 2.1754 3.30896 0
M  V30 6791 H 646.072 4.36645 1.47233 0
M  V30 6792 H 644.387 3.89233 1.4794 0
M  V30 6793 H 646.984 3.31025 4.19912 0
M  V30 6794 H 647.327 1.63869 3.82691 0
M  V30 6795 H 647.86 2.91549 2.70637 0
M  V30 6796 H 644.599 5.91034 2.83477 0
M  V30 6797 H 644.119 4.56341 3.89247 0
M  V30 6798 H 645.798 5.15763 3.90637 0
M  V30 6799 N 645.93 -0.909495 1.28709 0
M  V30 6800 C 646.877 -2.01245 1.13 0
M  V30 6801 C 647.847 -1.6608 0.0259684 0
M  V30 6802 O 649.032 -1.89835 0.191687 0
M  V30 6803 C 646.172 -3.35644 0.802315 0
M  V30 6804 C 645.285 -3.83653 1.98582 0
M  V30 6805 C 644.42 -5.06582 1.59837 0
M  V30 6806 C 643.459 -5.46934 2.74827 0
M  V30 6807 N 642.596 -6.61053 2.36546 0
M  V30 6808 H 647.436 -2.14013 2.0737 0
M  V30 6809 H 644.973 -1.0482 1.03205 0
M  V30 6810 H 646.931 -4.12963 0.593057 0
M  V30 6811 H 645.561 -3.22631 -0.104457 0
M  V30 6812 H 644.613 -3.02454 2.30708 0
M  V30 6813 H 645.925 -4.09515 2.84779 0
M  V30 6814 H 645.079 -5.91457 1.35143 0
M  V30 6815 H 643.818 -4.82537 0.707753 0
M  V30 6816 H 642.823 -4.60599 3.00215 0
M  V30 6817 H 644.048 -5.72965 3.64538 0
M  V30 6818 H 641.994 -6.3863 1.49959 0
M  V30 6819 H 641.911 -6.86662 3.16277 0
M  V30 6820 H 643.179 -7.49221 2.15146 0
M  V30 6821 N 647.408 -1.11026 -1.11852 0
M  V30 6822 C 648.371 -0.768006 -2.1595 0
M  V30 6823 C 649.371 0.210538 -1.59416 0
M  V30 6824 O 650.561 -0.0133978 -1.74195 0
M  V30 6825 C 647.693 -0.138678 -3.40618 0
M  V30 6826 H 648.886 -1.69012 -2.4774 0
M  V30 6827 H 646.439 -0.911578 -1.26964 0
M  V30 6828 H 647.174 0.793872 -3.14433 0
M  V30 6829 H 646.959 -0.843012 -3.8293 0
M  V30 6830 H 648.449 0.0848039 -4.17514 0
M  V30 6831 N 648.886 1.2938 -0.899927 0
M  V30 6832 C 650.134 1.95164 -0.524924 0
M  V30 6833 C 650.455 1.71292 0.931888 0
M  V30 6834 O 649.725 1.04481 1.65712 0
M  V30 6835 H 648.305 0.722133 -0.191135 0
M  V30 6836 H 650.967 1.57628 -1.14627 0
M  V30 6837 H 650.063 3.0397 -0.707711 0
M  V30 6838 N 650.364 0.662433 1.43002 0
M  V30 6839 C 651.589 0.186003 2.06564 0
M  V30 6840 C 652.014 -1.14314 1.49379 0
M  V30 6841 O 651.372 -1.70824 0.607346 0
M  V30 6842 C 651.42 0.118269 3.60406 0
M  V30 6843 O 650.524 -0.916859 4.02079 0
M  V30 6844 H 649.865 0.0990981 0.656563 0
M  V30 6845 H 652.395 0.907958 1.8335 0
M  V30 6846 H 652.405 -0.0619981 4.07953 0
M  V30 6847 H 651.08 1.08849 4.01403 0
M  V30 6848 H 649.657 -0.708635 3.66105 0
M  V30 6849 N 651.842 -1.52309 0.404946 0
M  V30 6850 C 652.775 -2.23369 -0.467087 0
M  V30 6851 C 653.753 -1.24034 -1.0514 0
M  V30 6852 O 654.937 -1.53071 -1.10006 0
M  V30 6853 C 652.064 -2.95906 -1.64795 0
M  V30 6854 C 651.11 -4.09637 -1.18743 0
M  V30 6855 S 651.943 -5.35273 -0.156022 0
M  V30 6856 C 653.099 -6.11337 -1.34231 0
M  V30 6857 H 653.332 -2.96987 0.136294 0
M  V30 6858 H 650.865 -1.53236 0.189219 0
M  V30 6859 H 652.823 -3.38304 -2.3251 0
M  V30 6860 H 651.484 -2.21937 -2.22267 0
M  V30 6861 H 650.677 -4.59549 -2.06955 0
M  V30 6862 H 650.279 -3.69333 -0.588981 0
M  V30 6863 H 652.571 -6.38458 -2.26665 0
M  V30 6864 H 653.514 -7.02563 -0.883804 0
M  V30 6865 H 653.922 -5.42338 -1.56621 0
M  V30 6866 N 653.32 -0.135238 -1.57019 0
M  V30 6867 C 654.567 0.518794 -1.95742 0
M  V30 6868 C 654.895 1.65642 -1.01947 0
M  V30 6869 O 654.15 1.95645 -0.0464016 0
M  V30 6870 C 654.449 1.07694 -3.40788 0
M  V30 6871 C 654.115 0.058992 -4.50861 0
M  V30 6872 C 652.777 -0.220872 -4.80693 0
M  V30 6873 C 655.129 -0.633856 -5.17331 0
M  V30 6874 C 652.457 -1.19959 -5.74305 0
M  V30 6875 C 654.809 -1.60131 -6.11997 0
M  V30 6876 C 653.473 -1.889 -6.40213 0
M  V30 6877 H 652.743 0.18984 -0.716269 0
M  V30 6878 H 655.39 -0.219581 -1.90237 0
M  V30 6879 H 653.695 1.89241 -3.43067 0
M  V30 6880 H 655.392 1.59137 -3.68071 0
M  V30 6881 H 651.982 0.287304 -4.27636 0
M  V30 6882 H 656.166 -0.430823 -4.94427 0
M  V30 6883 H 651.422 -1.42905 -5.94465 0
M  V30 6884 H 655.596 -2.14376 -6.62583 0
M  V30 6885 H 653.223 -2.64891 -7.12556 0
M  V30 6886 N 654.798 1.5699 0.138552 0
M  V30 6887 C 656.214 1.51844 0.491472 0
M  V30 6888 C 656.414 0.845063 1.82923 0
M  V30 6889 O 655.47 0.419143 2.48997 0
M  V30 6890 C 656.783 2.96615 0.493987 0
M  V30 6891 C 658.331 3.076 0.578913 0
M  V30 6892 C 658.806 4.53893 0.612009 0
M  V30 6893 N 660.297 4.5827 0.673997 0
M  V30 6894 C 661.032 5.68852 0.720729 0
M  V30 6895 N 660.528 6.88982 0.726292 0
M  V30 6896 N 662.321 5.56908 0.762253 0
M  V30 6897 H 654.472 1.99158 -0.738228 0
M  V30 6898 H 656.735 0.908693 -0.270149 0
M  V30 6899 H 656.441 3.49172 -0.420933 0
M  V30 6900 H 656.315 3.53017 1.32887 0
M  V30 6901 H 658.702 2.55057 1.48425 0
M  V30 6902 H 658.783 2.54227 -0.283286 0
M  V30 6903 H 658.427 5.07076 -0.289208 0
M  V30 6904 H 658.357 5.05057 1.49082 0
M  V30 6905 H 660.848 3.71793 0.676654 0
M  V30 6906 H 661.161 7.69014 0.764032 0
M  V30 6907 H 659.506 6.91526 0.69403 0
M  V30 6908 H 662.697 4.61969 0.755135 0
M  V30 6909 H 662.87 6.43102 0.795207 0
M  V30 6910 N 656.276 -0.40816 1.52223 0
M  V30 6911 C 657.687 -0.986929 1.58482 0
M  V30 6912 C 658.038 -1.91521 0.425917 0
M  V30 6913 O 657.163 -2.11593 -0.453593 0
M  V30 6914 C 657.758 -1.7967 2.87235 0
M  V30 6915 C 656.317 -2.32549 2.9597 0
M  V30 6916 C 655.464 -1.12558 2.53428 0
M  V30 6917 H 658.415 -0.188362 1.57578 0
M  V30 6918 H 658.436 -2.65417 2.72642 0
M  V30 6919 H 657.948 -1.12082 3.71563 0
M  V30 6920 H 656.049 -3.03505 2.16137 0
M  V30 6921 H 656.162 -2.63348 4.00231 0
M  V30 6922 H 654.526 -1.47984 2.07299 0
M  V30 6923 H 655.309 -0.465351 3.40131 0
M  V30 6924 N 657.755 -1.42862 -0.66545 0
M  V30 6925 C 659.002 -1.4383 -1.42546 0
M  V30 6926 C 659.33 -0.0581114 -1.94413 0
M  V30 6927 O 658.585 0.935002 -1.71919 0
M  V30 6928 C 658.884 -2.4175 -2.63233 0
M  V30 6929 C 658.55 -3.87915 -2.29854 0
M  V30 6930 C 657.212 -4.27726 -2.20463 0
M  V30 6931 C 659.564 -4.80074 -2.02924 0
M  V30 6932 C 656.892 -5.57666 -1.82279 0
M  V30 6933 C 659.244 -6.10366 -1.66242 0
M  V30 6934 C 657.908 -6.49167 -1.55367 0
M  V30 6935 H 657.178 -0.52631 -0.521612 0
M  V30 6936 H 659.825 -1.75863 -0.757914 0
M  V30 6937 H 658.13 -2.03077 -3.35063 0
M  V30 6938 H 659.827 -2.39759 -3.21429 0
M  V30 6939 H 656.417 -3.564 -2.3807 0
M  V30 6940 H 660.601 -4.50097 -2.09108 0
M  V30 6941 H 655.857 -5.8658 -1.72436 0
M  V30 6942 H 660.031 -6.81258 -1.44432 0
M  V30 6943 H 657.658 -7.49761 -1.2555 0
M  V30 6944 N 659.233 0.902656 -1.29189 0
M  V30 6945 C 660.479 1.65532 -1.17163 0
M  V30 6946 C 660.812 1.92216 0.276879 0
M  V30 6947 O 660.087 1.53048 1.20027 0
M  V30 6948 C 660.37 3.00629 -1.98228 0
M  V30 6949 C 660.223 2.81029 -3.51202 0
M  V30 6950 C 661.542 4.01321 -1.80635 0
M  V30 6951 H 658.661 0.60071 -0.426985 0
M  V30 6952 H 661.303 1.04578 -1.5863 0
M  V30 6953 H 659.453 3.52656 -1.62991 0
M  V30 6954 H 661.125 2.35927 -3.96404 0
M  V30 6955 H 659.368 2.1587 -3.76275 0
M  V30 6956 H 660.039 3.77014 -4.03192 0
M  V30 6957 H 662.515 3.58394 -2.11406 0
M  V30 6958 H 661.391 4.93792 -2.3971 0
M  V30 6959 H 661.652 4.35505 -0.760754 0
M  V30 6960 N 660.711 1.11618 1.11262 0
M  V30 6961 C 662.122 0.881942 1.64556 0
M  V30 6962 C 662.473 -0.585442 1.87262 0
M  V30 6963 O 661.598 -1.44795 1.60821 0
M  V30 6964 C 662.193 1.59446 2.98935 0
M  V30 6965 C 660.752 1.40661 3.4913 0
M  V30 6966 C 659.899 1.63593 2.23903 0
M  V30 6967 H 662.85 1.27217 0.94877 0
M  V30 6968 H 662.871 1.04054 3.65996 0
M  V30 6969 H 662.383 2.66241 2.82378 0
M  V30 6970 H 660.484 0.360835 3.70849 0
M  V30 6971 H 660.597 2.15693 4.27801 0
M  V30 6972 H 658.961 1.05944 2.3162 0
M  V30 6973 H 659.744 2.71666 2.09886 0
M  V30 6974 N 662.189 -1.289 0.906776 0
M  V30 6975 C 663.6 -1.77336 0.58384 0
M  V30 6976 C 663.951 -1.74304 -0.900697 0
M  V30 6977 O 663.076 -1.33335 -1.70443 0
M  V30 6978 C 663.671 -3.22019 1.05304 0
M  V30 6979 C 662.23 -3.68205 0.781148 0
M  V30 6980 C 661.377 -2.48837 1.22373 0
M  V30 6981 H 664.328 -1.15462 1.08877 0
M  V30 6982 H 664.349 -3.78481 0.391414 0
M  V30 6983 H 663.861 -3.24194 2.13353 0
M  V30 6984 H 661.962 -3.71497 -0.28643 0
M  V30 6985 H 662.075 -4.58675 1.384 0
M  V30 6986 H 660.439 -2.46461 0.642594 0
M  V30 6987 H 661.222 -2.53736 2.31242 0
M  V30 6988 N 663.667 -0.670007 -1.42649 0
M  V30 6989 C 664.913 -0.190568 -2.01903 0
M  V30 6990 C 665.246 1.19817 -1.52832 0
M  V30 6991 O 664.521 1.80342 -0.728485 0
M  V30 6992 C 664.804 -0.21991 -3.59428 0
M  V30 6993 C 664.657 -1.64376 -4.18689 0
M  V30 6994 C 665.976 0.434519 -4.3795 0
M  V30 6995 H 663.095 -0.0707219 -0.733599 0
M  V30 6996 H 665.737 -0.853883 -1.69732 0
M  V30 6997 H 663.887 0.344894 -3.86966 0
M  V30 6998 H 665.559 -2.26044 -4.02122 0
M  V30 6999 H 663.802 -2.18591 -3.747 0
M  V30 7000 H 664.473 -1.61601 -5.27815 0
M  V30 7001 H 666.949 -0.0462156 -4.16074 0
M  V30 7002 H 665.825 0.38333 -5.4756 0
M  V30 7003 H 666.086 1.51135 -4.15464 0
M  V30 7004 N 665.145 1.52092 -0.413018 0
M  V30 7005 C 666.391 2.02154 0.161737 0
M  V30 7006 C 666.724 1.29789 1.44459 0
M  V30 7007 O 665.999 0.405378 1.90229 0
M  V30 7008 C 666.282 3.5781 0.405463 0
M  V30 7009 C 666.135 4.40819 -0.894335 0
M  V30 7010 C 667.454 4.23821 1.18591 0
M  V30 7011 H 664.573 0.734769 0.0573077 0
M  V30 7012 H 667.215 1.81948 -0.547247 0
M  V30 7013 H 665.365 3.75158 1.0094 0
M  V30 7014 H 667.037 4.35175 -1.53039 0
M  V30 7015 H 665.28 4.06877 -1.50444 0
M  V30 7016 H 665.951 5.47819 -0.678144 0
M  V30 7017 H 668.427 4.10596 0.674573 0
M  V30 7018 H 667.303 5.32663 1.3252 0
M  V30 7019 H 667.564 3.83038 2.20758 0
M  V30 7020 N 666.623 0.143563 1.56945 0
M  V30 7021 C 667.571 -0.814556 2.17871 0
M  V30 7022 C 668.565 -1.25778 1.13474 0
M  V30 7023 O 669.771 -1.22666 1.31731 0
M  V30 7024 H 666.146 -0.280873 0.697578 0
M  V30 7025 H 668.117 -0.276459 2.97117 0
M  V30 7026 C 666.866 -2.04503 2.81201 0
M  V30 7027 H 666.189 -1.71296 3.61245 0
M  V30 7028 H 667.629 -2.69493 3.27337 0
M  V30 7029 C 666.088 -2.85079 1.79532 0
M  V30 7030 O 666.618 -3.81306 1.26368 0
M  V30 7031 N 664.824 -2.49546 1.48913 0
M  V30 7032 H 664.371 -1.71359 1.92338 0
M  V30 7033 H 664.329 -3.03751 0.811348 0
M  V30 7034 N 668.101 -1.57061 -0.130224 0
M  V30 7035 C 669.349 -1.83893 -0.838313 0
M  V30 7036 C 669.67 -0.727046 -1.80939 0
M  V30 7037 O 668.94 0.249927 -1.94299 0
M  V30 7038 H 667.52 -0.67846 -0.312573 0
M  V30 7039 H 670.182 -1.94529 -0.120224 0
M  V30 7040 H 669.278 -2.79419 -1.39038 0
M  V30 7041 N 669.579 0.400081 -1.52437 0
M  V30 7042 C 670.526 1.48803 -1.76426 0
M  V30 7043 C 671.496 1.5461 -0.607032 0
M  V30 7044 O 672.681 1.71041 -0.845563 0
M  V30 7045 C 669.821 2.86156 -1.92896 0
M  V30 7046 C 668.934 2.89587 -3.20567 0
M  V30 7047 C 668.069 4.18296 -3.27417 0
M  V30 7048 C 667.108 4.15736 -4.49255 0
M  V30 7049 N 666.245 5.36032 -4.53447 0
M  V30 7050 H 671.085 1.27649 -2.69276 0
M  V30 7051 H 668.622 0.619451 -1.33421 0
M  V30 7052 H 670.58 3.65901 -2.00429 0
M  V30 7053 H 669.21 3.05785 -1.03418 0
M  V30 7054 H 668.262 2.02278 -3.22161 0
M  V30 7055 H 669.574 2.83562 -4.10358 0
M  V30 7056 H 668.728 5.06439 -3.34072 0
M  V30 7057 H 667.467 4.27028 -2.35581 0
M  V30 7058 H 666.472 3.25982 -4.42737 0
M  V30 7059 H 667.697 4.08636 -5.42396 0
M  V30 7060 H 665.643 5.45415 -3.64498 0
M  V30 7061 H 665.56 5.32038 -5.37096 0
M  V30 7062 H 666.828 6.26104 -4.64343 0
M  V30 7063 N 671.057 1.43213 0.657864 0
M  V30 7064 C 672.004 1.48011 1.77092 0
M  V30 7065 C 672.974 0.330291 1.62783 0
M  V30 7066 O 674.159 0.536787 1.83094 0
M  V30 7067 C 671.299 1.40461 3.15222 0
M  V30 7068 C 670.412 2.65612 3.40697 0
M  V30 7069 C 669.547 2.50083 4.68649 0
M  V30 7070 C 668.586 3.70525 4.87214 0
M  V30 7071 N 667.723 3.53835 6.0642 0
M  V30 7072 H 672.563 2.43121 1.72326 0
M  V30 7073 H 670.1 1.20687 0.841013 0
M  V30 7074 H 672.058 1.34079 3.95068 0
M  V30 7075 H 670.688 0.489359 3.19069 0
M  V30 7076 H 669.74 2.82292 2.54982 0
M  V30 7077 H 671.052 3.5509 3.50303 0
M  V30 7078 H 670.206 2.41383 5.56614 0
M  V30 7079 H 668.945 1.58121 4.61356 0
M  V30 7080 H 667.95 3.79639 3.97686 0
M  V30 7081 H 669.175 4.63489 4.96341 0
M  V30 7082 H 667.121 2.64604 6.00267 0
M  V30 7083 H 667.038 4.36912 6.16963 0
M  V30 7084 H 668.306 3.48978 6.97019 0
M  V30 7085 N 672.536 -0.895792 1.29666 0
M  V30 7086 C 673.782 -1.64921 1.19049 0
M  V30 7087 C 674.137 -1.90707 -0.254678 0
M  V30 7088 O 673.43 -1.5092 -1.18041 0
M  V30 7089 C 673.624 -3.00075 1.94139 0
M  V30 7090 C 673.453 -2.87482 3.4581 0
M  V30 7091 C 672.223 -2.88041 4.15163 0
M  V30 7092 C 674.421 -2.64224 4.41237 0
M  V30 7093 N 672.403 -2.66226 5.5317 0
M  V30 7094 C 673.774 -2.51427 5.66732 0
M  V30 7095 C 675.829 -2.49362 4.30956 0
M  V30 7096 C 674.532 -2.25281 6.83111 0
M  V30 7097 C 676.558 -2.246 5.47091 0
M  V30 7098 C 675.92 -2.12571 6.7156 0
M  V30 7099 H 672.019 -0.608926 0.490646 0
M  V30 7100 H 674.603 -1.05648 1.63544 0
M  V30 7101 H 672.774 -3.574 1.52052 0
M  V30 7102 H 674.506 -3.64544 1.75754 0
M  V30 7103 H 671.261 -2.99471 3.66898 0
M  V30 7104 H 671.685 -2.58361 6.25762 0
M  V30 7105 H 676.327 -2.57403 3.35415 0
M  V30 7106 H 674.045 -2.15978 7.78704 0
M  V30 7107 H 677.631 -2.13939 5.41037 0
M  V30 7108 H 676.511 -1.93676 7.59907 0
M  V30 7109 N 674.014 -1.12206 -1.10668 0
M  V30 7110 C 674.924 -0.800686 -2.20513 0
M  V30 7111 C 675.94 0.209512 -1.72734 0
M  V30 7112 O 677.116 0.043705 -2.01353 0
M  V30 7113 C 674.181 -0.257353 -3.45744 0
M  V30 7114 C 673.242 -1.32718 -4.0827 0
M  V30 7115 C 672.475 -0.809674 -5.27522 0
M  V30 7116 O 672.698 0.35742 -5.69279 0
M  V30 7117 O 671.632 -1.57816 -5.80842 0
M  V30 7118 H 675.458 -1.71807 -2.50432 0
M  V30 7119 H 673.043 -0.898546 -1.19359 0
M  V30 7120 H 674.925 0.0408849 -4.2138 0
M  V30 7121 H 673.6 0.632627 -3.17458 0
M  V30 7122 H 672.507 -1.67855 -3.34329 0
M  V30 7123 H 673.84 -2.19083 -4.40753 0
M  V30 7124 N 675.492 1.28418 -0.913599 0
M  V30 7125 C 676.769 1.89977 -0.465619 0
M  V30 7126 C 677.149 1.82813 1.05559 0
M  V30 7127 O 676.497 1.26397 1.90358 0
M  V30 7128 C 676.707 3.34492 -0.995813 0
M  V30 7129 C 678.055 4.11468 -1.04782 0
M  V30 7130 O 679.079 3.43451 -0.944445 0
M  V30 7131 O 677.938 5.33046 -1.20518 0
M  V30 7132 H 675.032 0.813734 -0.147532 0
M  V30 7133 H 677.578 1.36786 -1.00437 0
M  V30 7134 H 676.35 3.33929 -2.03978 0
M  V30 7135 H 675.973 3.95181 -0.437878 0
M  V30 7136 N 676.97 0.677563 1.42291 0
M  V30 7137 C 678.218 0.200578 2.01102 0
M  V30 7138 C 678.539 -1.19803 1.53858 0
M  V30 7139 O 677.809 -1.80496 0.761439 0
M  V30 7140 H 676.389 0.0711634 0.743603 0
M  V30 7141 H 679.051 0.874691 1.7417 0
M  V30 7142 H 678.147 0.204 3.11433 0
M  V30 7143 N 678.448 -1.51871 0.421078 0
M  V30 7144 C 679.725 -1.9447 -0.20993 0
M  V30 7145 C 680.105 -1.35875 -1.61558 0
M  V30 7146 O 679.453 -0.539294 -2.22045 0
M  V30 7147 C 679.663 -3.48402 -0.204165 0
M  V30 7148 C 681.011 -4.2254 -0.417696 0
M  V30 7149 O 682.035 -3.55074 -0.282999 0
M  V30 7150 O 680.894 -5.422 -0.684239 0
M  V30 7151 H 677.988 -0.815283 -0.138718 0
M  V30 7152 H 680.534 -1.62832 0.477884 0
M  V30 7153 H 679.306 -3.83464 0.779183 0
M  V30 7154 H 678.929 -3.86436 -0.935576 0
M  V30 7155 N 679.926 -0.151884 -1.56866 0
M  V30 7156 C 681.154 0.504813 -2.00647 0
M  V30 7157 C 681.569 1.58098 -1.03201 0
M  V30 7158 O 680.926 1.82476 -0.0297814 0
M  V30 7159 C 680.977 1.10099 -3.44326 0
M  V30 7160 O 680.698 0.0678021 -4.38048 0
M  V30 7161 C 682.199 1.83782 -4.03409 0
M  V30 7162 H 679.419 0.130989 -0.65809 0
M  V30 7163 H 681.963 -0.247903 -2.02992 0
M  V30 7164 H 680.118 1.8043 -3.42817 0
M  V30 7165 H 680.532 0.505237 -5.22061 0
M  V30 7166 H 682.006 2.2078 -5.05925 0
M  V30 7167 H 682.483 2.72557 -3.44397 0
M  V30 7168 H 683.089 1.18138 -4.08563 0
M  V30 7169 N 681.404 1.57128 0.121893 0
M  V30 7170 C 682.314 2.03425 1.16857 0
M  V30 7171 C 683.33 0.954108 1.45509 0
M  V30 7172 O 684.506 1.26541 1.56682 0
M  V30 7173 C 681.571 2.42685 2.47599 0
M  V30 7174 C 680.632 3.64767 2.2637 0
M  V30 7175 C 679.865 4.02145 3.50878 0
M  V30 7176 O 680.088 3.39897 4.58068 0
M  V30 7177 O 679.022 4.95262 3.42051 0
M  V30 7178 H 682.848 2.92825 0.80544 0
M  V30 7179 H 680.433 1.45654 0.332477 0
M  V30 7180 H 682.315 2.68684 3.24634 0
M  V30 7181 H 680.99 1.56432 2.83392 0
M  V30 7182 H 679.897 3.43922 1.47203 0
M  V30 7183 H 681.23 4.51716 1.95482 0
M  V30 7184 N 682.882 -0.391992 1.52647 0
M  V30 7185 C 684.159 -1.15136 1.58123 0
M  V30 7186 C 684.539 -2.07786 0.372597 0
M  V30 7187 O 683.887 -2.19374 -0.639304 0
M  V30 7188 C 684.097 -1.91367 2.91856 0
M  V30 7189 C 685.445 -2.46833 3.45483 0
M  V30 7190 O 686.469 -2.01527 2.9371 0
M  V30 7191 O 685.328 -3.29587 4.3593 0
M  V30 7192 H 682.422 -0.526649 0.637629 0
M  V30 7193 H 684.968 -0.397386 1.64982 0
M  V30 7194 H 683.74 -1.23597 3.71268 0
M  V30 7195 H 683.363 -2.73732 2.88369 0
M  V30 7196 N 684.36 -1.4356 -0.65026 0
M  V30 7197 C 685.293 -1.434 -1.77515 0
M  V30 7198 C 686.271 -0.295082 -1.599 0
M  V30 7199 O 687.455 -0.489128 -1.82043 0
M  V30 7200 C 684.582 -1.2484 -3.14853 0
M  V30 7201 C 683.628 -2.42046 -3.51163 0
M  V30 7202 S 684.461 -4.04595 -3.50803 0
M  V30 7203 C 685.617 -3.88424 -4.90793 0
M  V30 7204 H 685.85 -2.38586 -1.77381 0
M  V30 7205 H 683.383 -1.30627 -0.823169 0
M  V30 7206 H 685.341 -1.14819 -3.94115 0
M  V30 7207 H 684.002 -0.311977 -3.12547 0
M  V30 7208 H 683.195 -2.24873 -4.51052 0
M  V30 7209 H 682.797 -2.48708 -2.79321 0
M  V30 7210 H 685.089 -3.50932 -5.79528 0
M  V30 7211 H 686.032 -4.88076 -5.13018 0
M  V30 7212 H 686.44 -3.20829 -4.64467 0
M  V30 7213 N 685.838 0.888903 -1.30139 0
M  V30 7214 C 686.801 1.97576 -1.16174 0
M  V30 7215 C 687.801 1.60525 -0.094086 0
M  V30 7216 O 688.991 1.70812 -0.341889 0
M  V30 7217 C 686.123 3.3188 -0.778983 0
M  V30 7218 H 687.316 2.11393 -2.12728 0
M  V30 7219 H 684.869 1.0748 -1.1348 0
M  V30 7220 H 685.604 3.23765 0.186225 0
M  V30 7221 H 685.389 3.60141 -1.55051 0
M  V30 7222 H 686.879 4.11612 -0.704631 0
M  V30 7223 N 687.317 1.12792 1.10072 0
M  V30 7224 C 688.265 0.794523 2.18609 0
M  V30 7225 C 689.259 -0.220271 1.67962 0
M  V30 7226 O 690.465 -0.0780938 1.79831 0
M  V30 7227 H 686.84 0.239123 0.712969 0
M  V30 7228 H 688.811 1.71823 2.43966 0
M  V30 7229 C 687.56 0.269548 3.46654 0
M  V30 7230 H 686.883 1.04171 3.8599 0
M  V30 7231 H 688.323 0.0746242 4.23934 0
M  V30 7232 C 686.782 -1.00333 3.21613 0
M  V30 7233 O 687.312 -2.08042 3.4363 0
M  V30 7234 N 685.518 -0.931763 2.75257 0
M  V30 7235 H 685.065 -0.0551197 2.57541 0
M  V30 7236 H 685.023 -1.78405 2.58881 0
M  V30 7237 N 688.795 -1.27931 0.920396 0
M  V30 7238 C 689.743 -2.29061 0.404191 0
M  V30 7239 C 690.737 -1.61615 -0.507634 0
M  V30 7240 O 691.943 -1.75765 -0.388144 0
M  V30 7241 H 688.318 -0.743594 0.112123 0
M  V30 7242 H 690.289 -2.70021 1.27008 0
M  V30 7243 C 689.038 -3.46088 -0.334466 0
M  V30 7244 H 688.361 -3.98194 0.35797 0
M  V30 7245 H 689.801 -4.18829 -0.660196 0
M  V30 7246 C 688.26 -2.99396 -1.54479 0
M  V30 7247 O 688.79 -3.02439 -2.64374 0
M  V30 7248 N 686.996 -2.54978 -1.39408 0
M  V30 7249 H 686.543 -2.52701 -0.500009 0
M  V30 7250 H 686.501 -2.24098 -2.20516 0
M  V30 7251 N 690.273 -0.685099 -1.4193 0
M  V30 7252 C 691.522 -0.208816 -2.00616 0
M  V30 7253 C 691.835 1.19506 -1.54847 0
M  V30 7254 O 693.041 1.76826 -2.06021 0
M  V30 7255 C 691.497 -0.322446 -3.58453 0
M  V30 7256 C 691.105 -1.73102 -4.13206 0
M  V30 7257 C 692.849 0.0945979 -4.24395 0
M  V30 7258 C 690.756 -1.79687 -5.63442 0
M  V30 7259 H 689.686 -0.0743092 -0.750329 0
M  V30 7260 H 692.337 -0.851778 -1.62533 0
M  V30 7261 H 690.719 0.388588 -3.94089 0
M  V30 7262 H 691.893 -2.46997 -3.8901 0
M  V30 7263 H 690.208 -2.09682 -3.59753 0
M  V30 7264 H 692.805 0.0656937 -5.3466 0
M  V30 7265 H 693.148 1.1316 -4.00625 0
M  V30 7266 H 693.681 -0.56579 -3.93756 0
M  V30 7267 H 690.42 -2.81404 -5.92024 0
M  V30 7268 H 689.94 -1.10162 -5.89597 0
M  V30 7269 H 691.619 -1.55498 -6.28036 0
M  V30 7270 N 691.751 1.51645 -0.429126 0
M  V30 7271 C 693.028 1.94579 0.199614 0
M  V30 7272 C 693.408 1.3673 1.60836 0
M  V30 7273 O 692.756 0.551062 2.21756 0
M  V30 7274 C 692.966 3.48506 0.185685 0
M  V30 7275 C 694.314 4.22756 0.395282 0
M  V30 7276 O 695.338 3.55219 0.264165 0
M  V30 7277 O 694.197 5.42555 0.655475 0
M  V30 7278 H 691.291 0.816007 0.134393 0
M  V30 7279 H 693.837 1.62577 -0.486513 0
M  V30 7280 H 692.609 3.83045 -0.799508 0
M  V30 7281 H 692.232 3.86927 0.91507 0
M  V30 7282 N 693.229 0.160201 1.56784 0
M  V30 7283 C 694.459 -0.493449 2.00621 0
M  V30 7284 C 694.867 -1.5809 1.03943 0
M  V30 7285 O 694.21 -1.83675 0.0305343 0
M  V30 7286 C 694.272 -1.14169 3.4089 0
M  V30 7287 C 693.936 -0.197243 4.56574 0
M  V30 7288 C 694.933 0.580174 5.16653 0
M  V30 7289 C 692.618 -0.0963038 5.02208 0
M  V30 7290 C 694.612 1.44584 6.20785 0
M  V30 7291 C 692.299 0.772959 6.06192 0
M  V30 7292 C 693.297 1.54263 6.65351 0
M  V30 7293 O 692.985 2.39738 7.67321 0
M  V30 7294 H 692.717 -0.131764 0.663034 0
M  V30 7295 H 695.271 0.255728 2.03802 0
M  V30 7296 H 693.501 -1.93877 3.34587 0
M  V30 7297 H 695.19 -1.69641 3.6875 0
M  V30 7298 H 695.956 0.5123 4.82287 0
M  V30 7299 H 691.835 -0.685143 4.5588 0
M  V30 7300 H 695.379 2.04706 6.66889 0
M  V30 7301 H 691.276 0.842077 6.39984 0
M  V30 7302 H 692.044 2.33131 7.84597 0
M  V30 7303 N 694.707 -1.5719 -0.113559 0
M  V30 7304 C 695.953 -1.86289 -0.816583 0
M  V30 7305 C 696.308 -0.748672 -1.77236 0
M  V30 7306 O 695.601 0.250889 -1.8995 0
M  V30 7307 C 695.795 -3.19593 -1.59984 0
M  V30 7308 C 695.624 -4.43876 -0.721414 0
M  V30 7309 C 694.394 -5.03913 -0.374172 0
M  V30 7310 C 696.592 -5.14287 -0.0366045 0
M  V30 7311 N 694.574 -6.11741 0.514352 0
M  V30 7312 C 695.945 -6.15913 0.710706 0
M  V30 7313 C 698 -4.97885 0.039247 0
M  V30 7314 C 696.703 -7.0291 1.52675 0
M  V30 7315 C 698.729 -5.85373 0.842135 0
M  V30 7316 C 698.091 -6.86506 1.57762 0
M  V30 7317 H 694.19 -0.731839 -0.275564 0
M  V30 7318 H 696.774 -1.94535 -0.080033 0
M  V30 7319 H 694.945 -3.12432 -2.30739 0
M  V30 7320 H 696.677 -3.3648 -2.24862 0
M  V30 7321 H 693.432 -4.68131 -0.717653 0
M  V30 7322 H 693.856 -6.70293 0.950623 0
M  V30 7323 H 698.498 -4.19651 -0.51503 0
M  V30 7324 H 696.216 -7.80547 2.09217 0
M  V30 7325 H 699.802 -5.74746 0.903256 0
M  V30 7326 H 698.682 -7.53032 2.1889 0
M  V30 7327 N 696.185 0.383891 -1.52853 0
M  V30 7328 C 697.601 0.724316 -1.42218 0
M  V30 7329 C 697.801 1.93943 -0.546654 0
M  V30 7330 O 696.857 2.5249 -0.0220562 0
M  V30 7331 C 698.17 0.954635 -2.85144 0
M  V30 7332 C 699.718 1.05579 -2.94656 0
M  V30 7333 C 700.193 1.3187 -4.38605 0
M  V30 7334 N 701.684 1.38681 -4.41952 0
M  V30 7335 C 702.419 1.60699 -5.50421 0
M  V30 7336 N 701.915 1.80154 -6.68967 0
M  V30 7337 N 703.708 1.6292 -5.37972 0
M  V30 7338 H 695.859 -0.4156 -2.08294 0
M  V30 7339 H 698.122 -0.123776 -0.939885 0
M  V30 7340 H 697.828 0.133829 -3.51445 0
M  V30 7341 H 697.702 1.86788 -3.27704 0
M  V30 7342 H 700.089 1.86716 -2.2852 0
M  V30 7343 H 700.17 0.120338 -2.55517 0
M  V30 7344 H 699.814 0.512416 -5.05309 0
M  V30 7345 H 699.744 2.26708 -4.75301 0
M  V30 7346 H 702.235 1.25334 -3.56511 0
M  V30 7347 H 702.548 1.96476 -7.47407 0
M  V30 7348 H 700.893 1.77368 -6.71986 0
M  V30 7349 H 704.084 1.47276 -4.44328 0
M  V30 7350 H 704.257 1.79739 -6.22574 0
M  V30 7351 N 697.663 1.43903 0.642637 0
M  V30 7352 C 698.91 1.46079 1.40239 0
M  V30 7353 C 699.238 0.0890335 1.94296 0
M  V30 7354 O 698.493 -0.907533 1.73385 0
M  V30 7355 C 698.792 2.45907 2.59354 0
M  V30 7356 C 698.458 3.91522 2.23654 0
M  V30 7357 C 697.12 4.31179 2.1363 0
M  V30 7358 C 699.472 4.83242 1.95261 0
M  V30 7359 C 696.8 5.60495 1.73384 0
M  V30 7360 C 699.152 6.12933 1.56511 0
M  V30 7361 C 697.816 6.51556 1.4502 0
M  V30 7362 H 697.086 0.534542 0.513172 0
M  V30 7363 H 699.733 1.77047 0.72984 0
M  V30 7364 H 698.038 2.08381 3.3179 0
M  V30 7365 H 699.735 2.44842 3.17574 0
M  V30 7366 H 696.325 3.60142 2.32369 0
M  V30 7367 H 700.509 4.53367 2.0192 0
M  V30 7368 H 695.765 5.89249 1.63082 0
M  V30 7369 H 699.939 6.83469 1.33576 0
M  V30 7370 H 697.566 7.51663 1.13606 0
M  V30 7371 N 699.141 -0.881989 1.30609 0
M  V30 7372 C 700.051 -2.02076 1.19174 0
M  V30 7373 C 701.067 -1.73645 0.11102 0
M  V30 7374 O 702.243 -1.98735 0.326528 0
M  V30 7375 C 699.308 -3.3515 0.887438 0
M  V30 7376 C 698.369 -3.76983 2.05383 0
M  V30 7377 C 697.602 -5.03707 1.76395 0
M  V30 7378 O 697.825 -5.66171 0.693302 0
M  V30 7379 O 696.759 -5.42019 2.61723 0
M  V30 7380 H 700.585 -2.14652 2.14845 0
M  V30 7381 H 698.17 -1.00843 1.10232 0
M  V30 7382 H 700.052 -4.14975 0.73306 0
M  V30 7383 H 698.727 -3.23676 -0.0393354 0
M  V30 7384 H 697.634 -2.97849 2.26355 0
M  V30 7385 H 698.967 -3.93066 2.96243 0
M  V30 7386 N 700.619 -1.13374 -1.09472 0
M  V30 7387 C 701.566 -0.810682 -2.16094 0
M  V30 7388 C 702.536 0.227003 -1.64541 0
M  V30 7389 O 703.721 0.0993538 -1.90541 0
M  V30 7390 C 700.861 -0.282336 -3.43943 0
M  V30 7391 C 699.974 -1.37902 -4.09398 0
M  V30 7392 C 699.109 -0.809066 -5.25002 0
M  V30 7393 C 698.148 -1.88419 -5.82379 0
M  V30 7394 N 697.285 -1.33221 -6.89345 0
M  V30 7395 H 702.125 -1.72397 -2.43071 0
M  V30 7396 H 699.662 -0.860564 -1.19301 0
M  V30 7397 H 701.62 0.0421189 -4.17179 0
M  V30 7398 H 700.25 0.594083 -3.17286 0
M  V30 7399 H 699.302 -1.82008 -3.34032 0
M  V30 7400 H 700.614 -2.19161 -4.48074 0
M  V30 7401 H 699.768 -0.435867 -6.05132 0
M  V30 7402 H 698.507 0.0346058 -4.87688 0
M  V30 7403 H 697.512 -2.26646 -5.00911 0
M  V30 7404 H 698.737 -2.73125 -6.21755 0
M  V30 7405 H 696.683 -0.510535 -6.5401 0
M  V30 7406 H 696.6 -2.08129 -7.26786 0
M  V30 7407 H 697.868 -0.986565 -7.73232 0
M  V30 7408 N 702.098 1.27442 -0.927168 0
M  V30 7409 C 703.346 1.94007 -0.566203 0
M  V30 7410 C 703.667 1.7323 0.895345 0
M  V30 7411 O 702.937 1.07973 1.63459 0
M  V30 7412 H 701.517 0.717917 -0.206409 0
M  V30 7413 H 704.179 1.55161 -1.17945 0
M  V30 7414 H 703.275 3.02401 -0.772028 0
M  V30 7415 N 703.576 0.692616 1.41565 0
M  V30 7416 C 704.539 0.0344174 2.29174 0
M  V30 7417 C 705.539 -0.710961 1.44229 0
M  V30 7418 O 706.729 -0.546293 1.65412 0
M  V30 7419 C 703.861 -0.961682 3.27054 0
M  V30 7420 H 705.054 0.805755 2.88873 0
M  V30 7421 H 702.607 0.455947 1.49502 0
M  V30 7422 H 703.342 -1.76089 2.72329 0
M  V30 7423 H 703.127 -0.430375 3.89731 0
M  V30 7424 H 704.617 -1.4201 3.92712 0
M  V30 7425 N 705.054 -1.51416 0.437162 0
M  V30 7426 C 706.001 -2.27743 -0.374374 0
M  V30 7427 C 706.971 -1.31327 -1.01698 0
M  V30 7428 O 708.156 -1.60229 -1.03592 0
M  V30 7429 C 705.296 -3.12241 -1.46969 0
M  V30 7430 C 704.409 -4.23651 -0.845236 0
M  V30 7431 C 703.544 -4.95458 -1.91559 0
M  V30 7432 C 702.583 -5.98789 -1.26956 0
M  V30 7433 N 701.72 -6.64005 -2.28126 0
M  V30 7434 H 706.56 -2.96654 0.282892 0
M  V30 7435 H 704.097 -1.46319 0.151352 0
M  V30 7436 H 706.055 -3.59556 -2.11602 0
M  V30 7437 H 704.685 -2.45445 -2.09659 0
M  V30 7438 H 703.737 -3.803 -0.0872059 0
M  V30 7439 H 705.049 -4.97683 -0.333582 0
M  V30 7440 H 704.203 -5.46321 -2.63854 0
M  V30 7441 H 702.942 -4.21055 -2.46097 0
M  V30 7442 H 701.947 -5.47219 -0.53207 0
M  V30 7443 H 703.172 -6.75149 -0.731509 0
M  V30 7444 H 701.118 -5.92415 -2.81745 0
M  V30 7445 H 701.035 -7.33802 -1.81852 0
M  V30 7446 H 702.303 -7.19498 -2.99905 0
M  V30 7447 N 706.532 -0.168513 -1.56696 0
M  V30 7448 C 707.778 0.471368 -1.97863 0
M  V30 7449 C 708.133 1.61049 -1.05267 0
M  V30 7450 O 707.426 1.9138 -0.0917908 0
M  V30 7451 C 707.62 1.00441 -3.42996 0
M  V30 7452 C 707.449 -0.081524 -4.49626 0
M  V30 7453 C 706.219 -0.530242 -5.0251 0
M  V30 7454 C 708.417 -0.880897 -5.067 0
M  V30 7455 N 706.399 -1.59678 -5.9277 0
M  V30 7456 C 707.77 -1.79742 -5.93374 0
M  V30 7457 C 709.825 -0.92629 -4.89208 0
M  V30 7458 C 708.528 -2.7555 -6.64428 0
M  V30 7459 C 710.554 -1.8723 -5.6098 0
M  V30 7460 C 709.916 -2.77631 -6.4738 0
M  V30 7461 H 706.015 0.140671 -0.769244 0
M  V30 7462 H 708.599 -0.268084 -1.92846 0
M  V30 7463 H 706.77 1.71339 -3.48565 0
M  V30 7464 H 708.502 1.61269 -3.7118 0
M  V30 7465 H 705.257 -0.12847 -4.73426 0
M  V30 7466 H 705.681 -2.13045 -6.42605 0
M  V30 7467 H 710.323 -0.241412 -4.2211 0
M  V30 7468 H 708.041 -3.45027 -7.30741 0
M  V30 7469 H 711.627 -1.91349 -5.49433 0
M  V30 7470 H 710.507 -3.4964 -7.01941 0
M  V30 7471 N 708.01 1.57248 0.105221 0
M  V30 7472 C 708.96 1.9777 1.1345 0
M  V30 7473 C 709.944 0.854654 1.36325 0
M  V30 7474 O 711.136 1.11844 1.37186 0
M  V30 7475 C 708.265 2.39717 2.45745 0
M  V30 7476 C 707.351 3.58686 2.26286 0
M  V30 7477 N 707.742 4.73942 1.76671 0
M  V30 7478 C 706.04 3.64586 2.56891 0
M  V30 7479 C 706.741 5.55923 1.71245 0
M  V30 7480 N 705.717 4.98803 2.16093 0
M  V30 7481 H 709.519 2.84336 0.743664 0
M  V30 7482 H 707.033 1.59359 0.312787 0
M  V30 7483 H 709.03 2.66971 3.20206 0
M  V30 7484 H 707.69 1.54523 2.85574 0
M  V30 7485 H 708.701 4.9689 1.46016 0
M  V30 7486 H 705.378 2.90031 3.00314 0
M  V30 7487 H 706.768 6.58398 1.34022 0
M  V30 7488 N 709.488 -0.375779 1.53054 0
M  V30 7489 C 710.451 -1.44254 1.7811 0
M  V30 7490 C 711.451 -1.47018 0.651328 0
M  V30 7491 O 712.641 -1.47957 0.919472 0
M  V30 7492 C 709.773 -2.8345 1.89391 0
M  V30 7493 H 710.966 -1.23316 2.73374 0
M  V30 7494 H 708.519 -0.608312 1.43977 0
M  V30 7495 H 709.254 -3.09716 0.961589 0
M  V30 7496 H 709.039 -2.82844 2.71555 0
M  V30 7497 H 710.529 -3.60722 2.10404 0
M  V30 7498 N 710.966 -1.44241 -0.634997 0
M  V30 7499 C 712.196 -1.50078 -1.41987 0
M  V30 7500 C 712.604 -0.123072 -1.88799 0
M  V30 7501 O 711.947 0.880552 -1.6122 0
M  V30 7502 C 712.009 -2.40033 -2.67628 0
M  V30 7503 C 711.673 -3.87268 -2.42637 0
M  V30 7504 C 712.67 -4.77902 -2.04708 0
M  V30 7505 C 710.355 -4.31933 -2.56396 0
M  V30 7506 C 712.349 -6.11202 -1.80862 0
M  V30 7507 C 710.036 -5.65281 -2.32164 0
M  V30 7508 C 711.034 -6.54734 -1.94455 0
M  V30 7509 O 710.722 -7.85613 -1.7049 0
M  V30 7510 H 710.454 -0.51146 -0.442023 0
M  V30 7511 H 713.008 -1.89843 -0.784138 0
M  V30 7512 H 711.238 -1.95188 -3.33824 0
M  V30 7513 H 712.927 -2.36863 -3.29622 0
M  V30 7514 H 713.693 -4.44668 -1.93638 0
M  V30 7515 H 709.572 -3.62569 -2.84719 0
M  V30 7516 H 713.116 -6.80983 -1.51353 0
M  V30 7517 H 709.013 -5.98078 -2.42843 0
M  V30 7518 H 709.781 -7.97373 -1.84767 0
M  V30 7519 N 712.444 0.87505 -1.31075 0
M  V30 7520 C 713.354 2.01441 -1.20244 0
M  V30 7521 C 714.37 1.73584 -0.120227 0
M  V30 7522 O 715.546 1.98559 -0.337063 0
M  V30 7523 C 712.611 3.34675 -0.905199 0
M  V30 7524 C 711.672 3.75889 -2.0738 0
M  V30 7525 C 710.905 5.02764 -1.79064 0
M  V30 7526 O 711.128 5.65795 -0.723318 0
M  V30 7527 O 710.062 5.40623 -2.64594 0
M  V30 7528 H 713.888 2.13509 -2.1598 0
M  V30 7529 H 711.473 1.00257 -1.10765 0
M  V30 7530 H 713.355 4.1458 -0.755057 0
M  V30 7531 H 712.03 3.23692 0.0221695 0
M  V30 7532 H 710.937 2.96645 -2.27931 0
M  V30 7533 H 712.27 3.91489 -2.98324 0
M  V30 7534 N 713.922 1.13953 1.08869 0
M  V30 7535 C 715.17 0.903023 1.80803 0
M  V30 7536 C 715.491 -0.572151 1.86417 0
M  V30 7537 O 714.761 -1.41589 1.35386 0
M  V30 7538 H 713.341 0.331099 0.669614 0
M  V30 7539 H 716.003 1.43719 1.31647 0
M  V30 7540 H 715.099 1.29881 2.83791 0
M  V30 7541 N 715.4 -1.26948 0.933913 0
M  V30 7542 C 716.63 -1.97898 0.593279 0
M  V30 7543 C 717.038 -1.69806 -0.834412 0
M  V30 7544 O 716.381 -0.958704 -1.56699 0
M  V30 7545 C 716.443 -3.51657 0.746825 0
M  V30 7546 C 716.107 -4.03384 2.14779 0
M  V30 7547 C 717.104 -4.15682 3.12257 0
M  V30 7548 C 714.789 -4.37577 2.46641 0
M  V30 7549 C 716.783 -4.61455 4.39702 0
M  V30 7550 C 714.47 -4.8304 3.7432 0
M  V30 7551 C 715.468 -4.94939 4.70664 0
M  V30 7552 O 715.156 -5.39403 5.96071 0
M  V30 7553 H 714.888 -0.63814 0.223055 0
M  V30 7554 H 717.442 -1.62608 1.2549 0
M  V30 7555 H 715.672 -3.8669 0.0280889 0
M  V30 7556 H 717.361 -4.03821 0.410328 0
M  V30 7557 H 718.127 -3.89519 2.88964 0
M  V30 7558 H 714.006 -4.27554 1.72391 0
M  V30 7559 H 717.55 -4.70658 5.14905 0
M  V30 7560 H 713.447 -5.08646 3.97429 0
M  V30 7561 H 714.215 -5.57641 5.99148 0
M  V30 7562 N 716.879 -0.700114 -1.41195 0
M  V30 7563 C 718.127 -0.232546 -2.00758 0
M  V30 7564 C 718.448 1.1734 -1.55745 0
M  V30 7565 O 717.718 1.79262 -0.790058 0
M  V30 7566 H 716.298 -0.0829845 -0.742376 0
M  V30 7567 H 718.96 -0.902289 -1.72756 0
M  V30 7568 H 718.056 -0.253521 -3.11069 0
M  V30 7569 N 718.357 1.51182 -0.445186 0
M  V30 7570 C 719.634 1.9478 0.178965 0
M  V30 7571 C 720.014 1.38428 1.59376 0
M  V30 7572 O 719.362 0.574552 2.21159 0
M  V30 7573 C 719.572 3.48683 0.148711 0
M  V30 7574 C 720.92 4.23152 0.35042 0
M  V30 7575 O 721.944 3.55479 0.226474 0
M  V30 7576 O 720.803 5.4322 0.597893 0
M  V30 7577 H 717.897 0.817387 0.12573 0
M  V30 7578 H 720.443 1.62051 -0.503729 0
M  V30 7579 H 719.215 3.82176 -0.84009 0
M  V30 7580 H 718.838 3.87875 0.873979 0
M  V30 7581 N 719.835 0.176821 1.56605 0
M  V30 7582 C 720.783 -0.768159 2.1955 0
M  V30 7583 C 721.777 -1.23343 1.16116 0
M  V30 7584 O 722.983 -1.19844 1.34303 0
M  V30 7585 H 719.358 -0.266013 0.703378 0
M  V30 7586 H 721.329 -0.213374 2.97636 0
M  V30 7587 C 720.078 -1.98492 2.85475 0
M  V30 7588 H 719.401 -1.63595 3.64797 0
M  V30 7589 H 720.841 -2.62489 3.3298 0
M  V30 7590 C 719.3 -2.81207 1.85538 0
M  V30 7591 O 719.83 -3.7854 1.34427 0
M  V30 7592 N 718.036 -2.46331 1.54173 0
M  V30 7593 H 717.583 -1.67241 1.95929 0
M  V30 7594 H 717.541 -3.01961 0.875595 0
M  V30 7595 N 721.313 -1.57302 -0.09688 0
M  V30 7596 C 722.245 -1.98618 -1.14384 0
M  V30 7597 C 723.258 -0.888483 -1.36418 0
M  V30 7598 O 724.447 -1.16661 -1.35101 0
M  V30 7599 C 721.547 -2.28838 -2.49973 0
M  V30 7600 C 720.72 -3.60132 -2.48241 0
M  V30 7601 C 719.779 -3.7831 -3.65743 0
M  V30 7602 O 718.805 -4.50183 -3.48316 0
M  V30 7603 N 720.007 -3.18752 -4.85157 0
M  V30 7604 H 722.772 -2.8904 -0.792202 0
M  V30 7605 H 720.333 -1.59356 -0.285883 0
M  V30 7606 H 722.325 -2.38193 -3.27179 0
M  V30 7607 H 720.895 -1.44431 -2.77233 0
M  V30 7608 H 720.115 -3.61763 -1.56593 0
M  V30 7609 H 721.403 -4.46389 -2.4416 0
M  V30 7610 H 720.801 -2.60368 -5.0222 0
M  V30 7611 H 719.358 -3.33595 -5.59962 0
M  V30 7612 N 722.791 0.367657 -1.53252 0
M  V30 7613 C 724.021 1.12955 -1.72988 0
M  V30 7614 C 724.429 1.8358 -0.457708 0
M  V30 7615 O 723.772 1.74336 0.579006 0
M  V30 7616 C 723.834 2.20545 -2.83902 0
M  V30 7617 C 723.498 1.69704 -4.24323 0
M  V30 7618 C 724.495 1.16223 -5.06743 0
M  V30 7619 C 722.18 1.7528 -4.70725 0
M  V30 7620 C 724.174 0.689935 -6.33655 0
M  V30 7621 C 721.861 1.27662 -5.97617 0
M  V30 7622 C 722.859 0.746083 -6.78913 0
M  V30 7623 O 722.547 0.276925 -8.03423 0
M  V30 7624 H 722.279 0.343753 -0.582074 0
M  V30 7625 H 724.833 0.433106 -2.00782 0
M  V30 7626 H 723.063 2.93676 -2.51577 0
M  V30 7627 H 724.752 2.82111 -2.91836 0
M  V30 7628 H 725.518 1.11256 -4.72067 0
M  V30 7629 H 721.397 2.15515 -4.07522 0
M  V30 7630 H 724.941 0.275164 -6.97057 0
M  V30 7631 H 720.838 1.32322 -6.31792 0
M  V30 7632 H 721.606 0.396445 -8.17539 0
M  V30 7633 N 724.269 1.44576 0.627338 0
M  V30 7634 C 725.499 1.50829 1.41189 0
M  V30 7635 C 725.907 0.133083 1.88731 0
M  V30 7636 O 725.25 -0.87199 1.61685 0
M  V30 7637 C 725.312 2.41449 2.66351 0
M  V30 7638 C 724.976 3.88549 2.40579 0
M  V30 7639 C 725.973 4.78981 2.0217 0
M  V30 7640 C 723.658 4.33287 2.54102 0
M  V30 7641 C 725.652 6.12153 1.77618 0
M  V30 7642 C 723.339 5.66505 2.29163 0
M  V30 7643 C 724.337 6.55756 1.9098 0
M  V30 7644 O 724.025 7.86506 1.66321 0
M  V30 7645 H 723.757 0.513797 0.439304 0
M  V30 7646 H 726.311 1.90256 0.774059 0
M  V30 7647 H 724.541 1.96955 3.32784 0
M  V30 7648 H 726.23 2.38608 3.28361 0
M  V30 7649 H 726.996 4.45689 1.91277 0
M  V30 7650 H 722.875 3.64074 2.82792 0
M  V30 7651 H 726.419 6.81776 1.47739 0
M  V30 7652 H 722.316 5.99358 2.39668 0
M  V30 7653 H 723.084 7.98341 1.80536 0
M  V30 7654 N 725.747 -0.868086 1.31537 0
M  V30 7655 C 726.993 -1.62367 1.2151 0
M  V30 7656 C 727.326 -1.92883 -0.225819 0
M  V30 7657 O 726.601 -1.56176 -1.15927 0
M  V30 7658 C 726.884 -2.95268 2.06129 0
M  V30 7659 C 726.737 -2.71619 3.58529 0
M  V30 7660 C 728.056 -3.96391 1.91212 0
M  V30 7661 H 725.175 -0.589178 0.442762 0
M  V30 7662 H 727.817 -1.00336 1.61347 0
M  V30 7663 H 725.967 -3.4821 1.72284 0
M  V30 7664 H 727.639 -2.25334 4.0252 0
M  V30 7665 H 725.882 -2.05817 3.81866 0
M  V30 7666 H 726.553 -3.66192 4.13047 0
M  V30 7667 H 729.029 -3.52663 2.20834 0
M  V30 7668 H 727.905 -4.87263 2.52718 0
M  V30 7669 H 728.166 -4.33335 0.875953 0
M  V30 7670 N 727.225 -1.14528 -1.08264 0
M  V30 7671 C 728.502 -0.825185 -1.77342 0
M  V30 7672 C 728.882 0.681037 -1.99813 0
M  V30 7673 O 728.23 1.62234 -1.60912 0
M  V30 7674 C 728.44 -1.62556 -3.08831 0
M  V30 7675 C 729.788 -1.82585 -3.83338 0
M  V30 7676 O 730.812 -1.59254 -3.18617 0
M  V30 7677 O 729.671 -2.21598 -4.99556 0
M  V30 7678 H 726.765 -0.302531 -0.769678 0
M  V30 7679 H 729.311 -1.25056 -1.14713 0
M  V30 7680 H 728.083 -2.64862 -2.88035 0
M  V30 7681 H 727.706 -1.1959 -3.79189 0
M  V30 7682 N 728.703 1.26451 -0.940633 0
M  V30 7683 C 730.114 1.75726 -0.630653 0
M  V30 7684 C 730.465 1.76631 0.854167 0
M  V30 7685 O 729.59 1.37807 1.66848 0
M  V30 7686 C 730.185 3.19114 -1.13805 0
M  V30 7687 C 728.744 3.66005 -0.878497 0
M  V30 7688 C 727.891 2.45505 -1.28928 0
M  V30 7689 H 730.842 1.12535 -1.119 0
M  V30 7690 H 730.863 3.77311 -0.491625 0
M  V30 7691 H 730.375 3.18424 -2.21874 0
M  V30 7692 H 728.476 3.72126 0.187833 0
M  V30 7693 H 728.589 4.54844 -1.50512 0
M  V30 7694 H 726.953 2.4467 -0.707713 0
M  V30 7695 H 727.736 2.47516 -2.37888 0
M  V30 7696 N 730.181 0.707592 1.40822 0
M  V30 7697 C 731.129 0.0386643 2.32568 0
M  V30 7698 C 732.123 -0.755653 1.51612 0
M  V30 7699 O 733.329 -0.659921 1.67467 0
M  V30 7700 H 729.704 -0.00629912 0.751974 0
M  V30 7701 H 731.675 0.8293 2.86645 0
M  V30 7702 C 730.424 -0.87496 3.36511 0
M  V30 7703 H 729.747 -0.273157 3.98866 0
M  V30 7704 H 731.187 -1.31111 4.03219 0
M  V30 7705 C 729.646 -1.99672 2.71353 0
M  V30 7706 O 730.176 -3.08676 2.57064 0
M  V30 7707 N 728.382 -1.77799 2.29861 0
M  V30 7708 H 727.929 -0.89147 2.41683 0
M  V30 7709 H 727.887 -2.53036 1.86601 0
M  V30 7710 N 731.66 -1.50943 0.453197 0
M  V30 7711 C 732.607 -2.28128 -0.350197 0
M  V30 7712 C 733.577 -1.32398 -1.00299 0
M  V30 7713 O 734.762 -1.61319 -1.01887 0
M  V30 7714 C 731.902 -3.13782 -1.43649 0
M  V30 7715 C 731.015 -4.24523 -0.800255 0
M  V30 7716 C 730.15 -4.97462 -1.86293 0
M  V30 7717 C 729.189 -6.00102 -1.20598 0
M  V30 7718 N 728.326 -6.66387 -2.21071 0
M  V30 7719 H 733.166 -2.96337 0.31434 0
M  V30 7720 H 730.703 -1.46151 0.166863 0
M  V30 7721 H 732.661 -3.6178 -2.07776 0
M  V30 7722 H 731.291 -2.47655 -2.07044 0
M  V30 7723 H 730.343 -3.80371 -0.0468651 0
M  V30 7724 H 731.655 -4.98009 -0.280777 0
M  V30 7725 H 730.809 -5.49088 -2.58044 0
M  V30 7726 H 729.548 -4.23642 -2.41617 0
M  V30 7727 H 728.553 -5.47753 -0.474 0
M  V30 7728 H 729.778 -6.75887 -0.659859 0
M  V30 7729 H 727.724 -5.9537 -2.75446 0
M  V30 7730 H 727.641 -7.3569 -1.74058 0
M  V30 7731 H 728.909 -7.22638 -2.92257 0
M  V30 7732 N 733.138 -0.185124 -1.56509 0
M  V30 7733 C 734.385 0.456258 -1.97293 0
M  V30 7734 C 734.713 1.62314 -1.07165 0
M  V30 7735 O 733.968 1.95398 -0.108621 0
M  V30 7736 C 734.267 0.967977 -3.44042 0
M  V30 7737 C 733.933 -0.084476 -4.50821 0
M  V30 7738 C 732.595 -0.373689 -4.79747 0
M  V30 7739 C 734.947 -0.79812 -5.15053 0
M  V30 7740 C 732.275 -1.3817 -5.70198 0
M  V30 7741 C 734.627 -1.79521 -6.06593 0
M  V30 7742 C 733.291 -2.09172 -6.3388 0
M  V30 7743 H 732.561 0.166957 -0.721946 0
M  V30 7744 H 735.208 -0.279992 -1.89442 0
M  V30 7745 H 733.513 1.78231 -3.48914 0
M  V30 7746 H 735.21 1.47347 -3.72948 0
M  V30 7747 H 731.8 0.15111 -4.28334 0
M  V30 7748 H 735.984 -0.587903 -4.92806 0
M  V30 7749 H 731.24 -1.61745 -5.89617 0
M  V30 7750 H 735.414 -2.35347 -6.55427 0
M  V30 7751 H 733.041 -2.87427 -7.03768 0
M  V30 7752 N 734.616 1.57351 0.0885366 0
M  V30 7753 C 735.549 1.97786 1.13825 0
M  V30 7754 C 736.527 0.852091 1.38485 0
M  V30 7755 O 737.711 1.11296 1.52137 0
M  V30 7756 C 734.838 2.30024 2.48609 0
M  V30 7757 C 733.884 3.52437 2.40189 0
M  V30 7758 S 734.717 5.03908 1.81209 0
M  V30 7759 C 735.873 5.39331 3.17605 0
M  V30 7760 H 736.106 2.86513 0.793587 0
M  V30 7761 H 733.639 1.51527 0.29646 0
M  V30 7762 H 735.597 2.49274 3.26148 0
M  V30 7763 H 734.258 1.41856 2.80242 0
M  V30 7764 H 733.451 3.72457 3.39546 0
M  V30 7765 H 733.053 3.32731 1.70781 0
M  V30 7766 H 735.345 5.36378 4.13891 0
M  V30 7767 H 736.288 6.4029 3.02381 0
M  V30 7768 H 736.696 4.6679 3.17438 0
M  V30 7769 N 736.094 -0.359525 1.53444 0
M  V30 7770 C 737.024 -1.44662 1.8329 0
M  V30 7771 C 738.005 -1.55617 0.68683 0
M  V30 7772 O 739.19 -1.70086 0.93725 0
M  V30 7773 C 736.32 -2.81923 2.02822 0
M  V30 7774 C 735.274 -2.85787 3.18606 0
M  V30 7775 C 734.6 -4.25781 3.23442 0
M  V30 7776 C 735.9 -2.52762 4.57065 0
M  V30 7777 H 737.594 -1.19934 2.74329 0
M  V30 7778 H 735.14 -0.575517 1.31999 0
M  V30 7779 H 737.093 -3.58005 2.22285 0
M  V30 7780 H 735.817 -3.08051 1.085 0
M  V30 7781 H 734.476 -2.12157 2.98973 0
M  V30 7782 H 734.124 -4.48994 2.26745 0
M  V30 7783 H 733.824 -4.29281 4.01238 0
M  V30 7784 H 735.348 -5.03727 3.45096 0
M  V30 7785 H 736.762 -3.18557 4.76649 0
M  V30 7786 H 735.159 -2.67569 5.37147 0
M  V30 7787 H 736.229 -1.47993 4.61764 0
M  V30 7788 N 737.572 -1.44907 -0.619662 0
M  V30 7789 C 738.8 -1.51795 -1.40591 0
M  V30 7790 C 739.215 -0.146553 -1.8823 0
M  V30 7791 O 738.572 0.849698 -1.61513 0
M  V30 7792 C 738.623 -2.49229 -2.61853 0
M  V30 7793 O 738.344 -3.81039 -2.16197 0
M  V30 7794 C 739.845 -2.65696 -3.54853 0
M  V30 7795 H 737.065 -0.514463 -0.430777 0
M  V30 7796 H 739.609 -1.8998 -0.756813 0
M  V30 7797 H 737.764 -2.14149 -3.2283 0
M  V30 7798 H 738.178 -4.33747 -2.94896 0
M  V30 7799 H 739.652 -3.37874 -4.36515 0
M  V30 7800 H 740.129 -1.71316 -4.0441 0
M  V30 7801 H 740.735 -3.01724 -2.99737 0
M  V30 7802 N 739.05 0.861098 -1.31996 0
M  V30 7803 C 740.278 1.6474 -1.25173 0
M  V30 7804 C 740.693 1.87926 0.181425 0
M  V30 7805 O 740.05 1.4437 1.1164 0
M  V30 7806 C 740.101 3.01036 -2.0015 0
M  V30 7807 O 739.822 2.7888 -3.37872 0
M  V30 7808 C 741.323 3.95481 -2.00273 0
M  V30 7809 H 738.543 0.513314 -0.432146 0
M  V30 7810 H 741.087 1.07419 -1.74016 0
M  V30 7811 H 739.242 3.55021 -1.55046 0
M  V30 7812 H 739.656 3.65514 -3.76165 0
M  V30 7813 H 741.13 4.88403 -2.57229 0
M  V30 7814 H 741.607 4.27957 -0.987407 0
M  V30 7815 H 742.213 3.47433 -2.45296 0
M  V30 7816 N 740.528 1.15101 1.07655 0
M  V30 7817 C 741.939 0.933848 1.61667 0
M  V30 7818 C 742.29 -0.525569 1.8903 0
M  V30 7819 O 741.415 -1.39605 1.65346 0
M  V30 7820 C 742.01 1.68876 2.93711 0
M  V30 7821 C 740.569 1.51697 3.44478 0
M  V30 7822 C 739.716 1.70633 2.18586 0
M  V30 7823 H 742.667 1.30171 0.907816 0
M  V30 7824 H 742.688 1.15645 3.625 0
M  V30 7825 H 742.2 2.7509 2.73764 0
M  V30 7826 H 740.301 0.478635 3.69513 0
M  V30 7827 H 740.414 2.29194 4.20722 0
M  V30 7828 H 738.778 1.13259 2.28132 0
M  V30 7829 H 739.561 2.78206 2.01137 0
M  V30 7830 N 742.006 -1.2595 0.947325 0
M  V30 7831 C 743.254 -1.93081 0.596996 0
M  V30 7832 C 743.575 -1.74632 -0.867672 0
M  V30 7833 O 742.845 -1.1056 -1.6172 0
M  V30 7834 H 741.425 -0.714542 0.217805 0
M  V30 7835 H 744.087 -1.53265 1.20398 0
M  V30 7836 H 743.183 -3.01134 0.82004 0
M  V30 7837 N 743.484 -0.715051 -1.40445 0
M  V30 7838 C 744.733 -0.251322 -2.00128 0
M  V30 7839 C 745.046 1.16194 -1.57347 0
M  V30 7840 O 746.252 1.72416 -2.09726 0
M  V30 7841 C 744.708 -0.398407 -3.57688 0
M  V30 7842 C 744.316 -1.81828 -4.09442 0
M  V30 7843 C 746.06 0.00455625 -4.245 0
M  V30 7844 C 743.967 -1.91598 -5.59503 0
M  V30 7845 H 742.897 -0.0902081 -0.748584 0
M  V30 7846 H 745.548 -0.886062 -1.6069 0
M  V30 7847 H 743.93 0.304908 -3.94824 0
M  V30 7848 H 745.104 -2.55193 -3.83684 0
M  V30 7849 H 743.419 -2.17266 -3.55225 0
M  V30 7850 H 746.016 -0.0477303 -5.34679 0
M  V30 7851 H 746.359 1.04636 -4.02935 0
M  V30 7852 H 746.892 -0.649184 -3.92467 0
M  V30 7853 H 743.631 -2.93898 -5.85922 0
M  V30 7854 H 743.151 -1.22644 -5.87127 0
M  V30 7855 H 744.83 -1.68785 -6.24596 0
M  V30 7856 N 744.962 1.50701 -0.461195 0
M  V30 7857 C 745.91 2.29918 0.352231 0
M  V30 7858 C 746.904 1.36778 0.999403 0
M  V30 7859 O 748.11 1.54015 0.931639 0
M  V30 7860 H 744.485 0.740249 0.132423 0
M  V30 7861 H 746.456 2.96497 -0.336424 0
M  V30 7862 C 745.205 3.17052 1.42736 0
M  V30 7863 H 744.528 3.88623 0.938747 0
M  V30 7864 H 745.968 3.75493 1.96928 0
M  V30 7865 C 744.427 2.3399 2.42384 0
M  V30 7866 O 744.957 2.01608 3.47444 0
M  V30 7867 N 743.163 1.96758 2.13857 0
M  V30 7868 H 742.71 2.23292 1.28447 0
M  V30 7869 H 742.668 1.41484 2.80766 0
M  V30 7870 N 746.441 0.193421 1.56409 0
M  V30 7871 C 747.852 -0.319471 1.83946 0
M  V30 7872 C 748.203 -1.61505 1.11403 0
M  V30 7873 O 747.328 -2.13139 0.374289 0
M  V30 7874 C 747.923 -0.586411 3.33686 0
M  V30 7875 C 746.482 -1.04368 3.61641 0
M  V30 7876 C 745.629 -0.0913834 2.77149 0
M  V30 7877 H 748.58 0.417242 1.53117 0
M  V30 7878 H 748.601 -1.43591 3.52366 0
M  V30 7879 H 748.113 0.356701 3.86457 0
M  V30 7880 H 746.214 -2.00113 3.14302 0
M  V30 7881 H 746.327 -0.937549 4.69837 0
M  V30 7882 H 744.691 -0.592954 2.47702 0
M  V30 7883 H 745.474 0.846142 3.32709 0
M  V30 7884 N 747.919 -1.57396 -0.0801906 0
M  V30 7885 C 748.829 -2.06451 -1.11423 0
M  V30 7886 C 749.845 -0.992352 -1.42928 0
M  V30 7887 O 751.021 -1.30651 -1.53272 0
M  V30 7888 C 748.086 -2.49164 -2.41077 0
M  V30 7889 C 747.147 -3.70641 -2.16619 0
M  V30 7890 C 746.38 -4.11307 -3.40092 0
M  V30 7891 O 746.603 -3.51922 -4.48895 0
M  V30 7892 O 745.537 -5.04157 -3.288 0
M  V30 7893 H 749.363 -2.94857 -0.727519 0
M  V30 7894 H 746.948 -1.46484 -0.293743 0
M  V30 7895 H 748.83 -2.77196 -3.17396 0
M  V30 7896 H 747.505 -1.6389 -2.79145 0
M  V30 7897 H 746.412 -3.47703 -1.38033 0
M  V30 7898 H 747.745 -4.5674 -1.83437 0
M  V30 7899 N 749.397 0.351382 -1.53633 0
M  V30 7900 C 750.625 1.11275 -1.74429 0
M  V30 7901 C 751.04 1.82602 -0.479798 0
M  V30 7902 O 750.397 1.74074 0.548125 0
M  V30 7903 C 750.448 2.13223 -2.91921 0
M  V30 7904 O 750.169 1.44798 -4.13479 0
M  V30 7905 C 751.67 3.01797 -3.24706 0
M  V30 7906 H 748.89 0.332153 -0.583023 0
M  V30 7907 H 751.434 0.405974 -2.0043 0
M  V30 7908 H 749.589 2.79477 -2.68274 0
M  V30 7909 H 750.003 2.12839 -4.79374 0
M  V30 7910 H 751.477 3.69282 -4.10286 0
M  V30 7911 H 751.954 3.67387 -2.40673 0
M  V30 7912 H 752.56 2.41141 -3.5033 0
M  V30 7913 N 750.875 1.45233 0.611969 0
M  V30 7914 C 752.123 1.48727 1.36838 0
M  V30 7915 C 752.444 0.128616 1.94575 0
M  V30 7916 O 751.714 -0.84149 1.76906 0
M  V30 7917 H 750.294 0.547695 0.507976 0
M  V30 7918 H 752.956 1.81156 0.718925 0
M  V30 7919 H 752.052 2.2236 2.19003 0
M  V30 7920 N 752.353 -0.854086 1.3245 0
M  V30 7921 C 753.63 -1.59188 1.1366 0
M  V30 7922 C 754.01 -2.08917 -0.302807 0
M  V30 7923 O 753.358 -1.8795 -1.29951 0
M  V30 7924 C 753.568 -2.73757 2.16467 0
M  V30 7925 C 754.916 -3.43323 2.49829 0
M  V30 7926 O 755.94 -2.83983 2.15017 0
M  V30 7927 O 754.799 -4.50409 3.09506 0
M  V30 7928 H 751.893 -0.701092 0.438633 0
M  V30 7929 H 754.439 -0.898165 1.43983 0
M  V30 7930 H 753.211 -2.3454 3.1322 0
M  V30 7931 H 752.834 -3.50804 1.87142 0
M  V30 7932 N 753.831 -1.1567 -1.07043 0
M  V30 7933 C 755.061 -0.956083 -1.83146 0
M  V30 7934 C 755.469 0.498969 -1.82502 0
M  V30 7935 O 754.812 1.35791 -1.23719 0
M  V30 7936 C 754.874 -1.39704 -3.31245 0
M  V30 7937 C 754.538 -2.87045 -3.55604 0
M  V30 7938 C 755.535 -3.85092 -3.49285 0
M  V30 7939 C 753.22 -3.24787 -3.8317 0
M  V30 7940 C 755.214 -5.18885 -3.70185 0
M  V30 7941 C 752.901 -4.58751 -4.03721 0
M  V30 7942 C 753.899 -5.55609 -3.97224 0
M  V30 7943 O 753.587 -6.87154 -4.17223 0
M  V30 7944 H 753.319 -0.339473 -0.58458 0
M  V30 7945 H 755.873 -1.53922 -1.36005 0
M  V30 7946 H 754.103 -0.757326 -3.79212 0
M  V30 7947 H 755.792 -1.16503 -3.88821 0
M  V30 7948 H 756.558 -3.5728 -3.27988 0
M  V30 7949 H 752.437 -2.49979 -3.87339 0
M  V30 7950 H 755.981 -5.94473 -3.6503 0
M  V30 7951 H 751.878 -4.86277 -4.24505 0
M  V30 7952 H 752.646 -6.93618 -4.34553 0
M  V30 7953 N 755.309 1.25446 -0.953992 0
M  V30 7954 C 756.219 2.29632 -0.480264 0
M  V30 7955 C 757.235 1.68025 0.452071 0
M  V30 7956 O 758.411 1.98703 0.328472 0
M  V30 7957 C 755.476 3.45903 0.234974 0
M  V30 7958 C 754.537 4.22953 -0.735495 0
M  V30 7959 C 753.77 5.33672 -0.0542957 0
M  V30 7960 O 753.993 5.58477 1.16018 0
M  V30 7961 O 752.927 5.9734 -0.739509 0
M  V30 7962 H 756.753 2.72242 -1.34602 0
M  V30 7963 H 754.338 1.30883 -0.720419 0
M  V30 7964 H 756.22 4.16552 0.637341 0
M  V30 7965 H 754.895 3.05296 1.07592 0
M  V30 7966 H 753.802 3.54734 -1.18806 0
M  V30 7967 H 755.135 4.67341 -1.54444 0
M  V30 7968 N 756.787 0.722489 1.40064 0
M  V30 7969 C 758.064 0.191829 1.94657 0
M  V30 7970 C 758.444 -1.30389 1.66018 0
M  V30 7971 O 757.792 -2.06342 0.981588 0
M  V30 7972 C 758.002 0.511978 3.45224 0
M  V30 7973 C 759.35 0.454426 4.22161 0
M  V30 7974 O 760.374 0.448438 3.53366 0
M  V30 7975 O 759.233 0.437986 5.44742 0
M  V30 7976 H 756.327 0.0307821 0.826427 0
M  V30 7977 H 758.873 0.800493 1.49634 0
M  V30 7978 H 757.645 1.54622 3.59455 0
M  V30 7979 H 757.268 -0.126296 3.97399 0
M  V30 7980 N 758.265 -1.50454 0.469181 0
M  V30 7981 C 759.512 -2.02315 -0.086469 0
M  V30 7982 C 759.84 -1.3513 -1.39893 0
M  V30 7983 O 759.095 -0.465341 -1.90087 0
M  V30 7984 C 759.394 -3.55963 -0.320207 0
M  V30 7985 C 759.06 -4.41615 0.910318 0
M  V30 7986 C 757.722 -4.64743 1.2477 0
M  V30 7987 C 760.074 -4.91661 1.72971 0
M  V30 7988 C 757.402 -5.35161 2.40457 0
M  V30 7989 C 759.754 -5.6335 2.87785 0
M  V30 7990 C 758.418 -5.84732 3.2194 0
M  V30 7991 H 757.688 -0.740324 -0.0316412 0
M  V30 7992 H 760.335 -1.81087 0.622872 0
M  V30 7993 H 758.64 -3.75695 -1.11177 0
M  V30 7994 H 760.337 -3.93653 -0.764071 0
M  V30 7995 H 756.927 -4.23833 0.637467 0
M  V30 7996 H 761.111 -4.73649 1.48224 0
M  V30 7997 H 756.367 -5.49924 2.67196 0
M  V30 7998 H 760.541 -6.0111 3.51624 0
M  V30 7999 H 758.168 -6.39074 4.1169 0
M  V30 8000 N 759.743 -0.201713 -1.56304 0
M  V30 8001 C 760.991 0.434447 -1.97375 0
M  V30 8002 C 761.312 1.61692 -1.08998 0
M  V30 8003 O 760.582 1.95223 -0.162682 0
M  V30 8004 H 759.162 0.163497 -0.728888 0
M  V30 8005 H 761.824 -0.289988 -1.92731 0
M  V30 8006 H 760.92 0.774136 -3.02347 0
M  V30 8007 N 761.222 1.57436 0.0718424 0
M  V30 8008 C 762.468 1.87525 0.772149 0
M  V30 8009 C 762.801 0.79399 1.77227 0
M  V30 8010 O 762.076 -0.195733 1.93513 0
M  V30 8011 C 762.359 3.28272 1.48018 0
M  V30 8012 C 762.212 4.47052 0.49647 0
M  V30 8013 C 763.531 3.67256 2.42509 0
M  V30 8014 H 760.65 0.682049 0.279245 0
M  V30 8015 H 763.292 1.89967 0.03534 0
M  V30 8016 H 761.442 3.26321 2.10824 0
M  V30 8017 H 763.114 4.61127 -0.126375 0
M  V30 8018 H 761.357 4.33392 -0.188205 0
M  V30 8019 H 762.028 5.42315 1.02949 0
M  V30 8020 H 764.504 3.70301 1.89781 0
M  V30 8021 H 763.38 4.66626 2.89053 0
M  V30 8022 H 763.641 2.97186 3.27312 0
M  V30 8023 N 762.7 -0.34323 1.53817 0
M  V30 8024 C 764.111 -0.918823 1.62525 0
M  V30 8025 C 764.462 -1.89542 0.506765 0
M  V30 8026 O 763.587 -2.13326 -0.363441 0
M  V30 8027 C 764.182 -1.67326 2.94597 0
M  V30 8028 C 762.741 -2.19786 3.05567 0
M  V30 8029 C 761.888 -1.01708 2.57974 0
M  V30 8030 H 764.839 -0.121358 1.58235 0
M  V30 8031 H 764.86 -2.53615 2.83654 0
M  V30 8032 H 764.372 -0.962223 3.75983 0
M  V30 8033 H 762.473 -2.94065 2.28816 0
M  V30 8034 H 762.586 -2.46135 4.1104 0
M  V30 8035 H 760.95 -1.39058 2.13389 0
M  V30 8036 H 761.733 -0.320671 3.41799 0
M  V30 8037 N 764.178 -1.45556 -0.604258 0
M  V30 8038 C 765.141 -1.54091 -1.69672 0
M  V30 8039 C 766.141 -0.420076 -1.55216 0
M  V30 8040 O 767.331 -0.683671 -1.60224 0
M  V30 8041 C 764.463 -1.44063 -3.08964 0
M  V30 8042 H 765.656 -2.51431 -1.6347 0
M  V30 8043 H 763.209 -1.33046 -0.820273 0
M  V30 8044 H 763.944 -0.479201 -3.2074 0
M  V30 8045 H 763.729 -2.25362 -3.20865 0
M  V30 8046 H 765.219 -1.53075 -3.88533 0
M  V30 8047 N 765.656 0.84705 -1.32902 0
M  V30 8048 C 766.884 1.63403 -1.26913 0
M  V30 8049 C 767.299 1.88108 0.161483 0
M  V30 8050 O 766.656 1.45546 1.10103 0
M  V30 8051 C 766.707 2.98896 -2.03331 0
M  V30 8052 O 766.428 2.75281 -3.40811 0
M  V30 8053 C 767.929 3.93335 -2.04457 0
M  V30 8054 H 765.149 0.508701 -0.437566 0
M  V30 8055 H 767.693 1.05567 -1.75145 0
M  V30 8056 H 765.848 3.53356 -1.58802 0
M  V30 8057 H 766.262 3.61504 -3.8002 0
M  V30 8058 H 767.736 4.85647 -2.62394 0
M  V30 8059 H 768.213 4.26885 -1.03274 0
M  V30 8060 H 768.819 3.44812 -2.48967 0
M  V30 8061 N 767.134 1.16236 1.06428 0
M  V30 8062 C 768.383 0.937523 1.78587 0
M  V30 8063 C 768.696 -0.536 1.88113 0
M  V30 8064 O 769.902 -0.878697 2.56887 0
M  V30 8065 C 768.358 1.62808 3.2097 0
M  V30 8066 C 767.966 3.13927 3.19615 0
M  V30 8067 C 769.71 1.48515 3.97673 0
M  V30 8068 C 767.617 3.75727 4.56709 0
M  V30 8069 H 766.547 0.347125 0.669343 0
M  V30 8070 H 769.198 1.39353 1.19385 0
M  V30 8071 H 767.58 1.09977 3.80422 0
M  V30 8072 H 768.754 3.7359 2.69753 0
M  V30 8073 H 767.069 3.28089 2.56411 0
M  V30 8074 H 769.666 1.92069 4.99013 0
M  V30 8075 H 770.009 0.433913 4.14032 0
M  V30 8076 H 770.542 1.98494 3.44739 0
M  V30 8077 H 767.281 4.80793 4.45554 0
M  V30 8078 H 766.801 3.20849 5.0677 0
M  V30 8079 H 768.48 3.77203 5.25668 0
M  V30 8080 N 768.612 -1.24939 0.960631 0
M  V30 8081 C 769.858 -1.93104 0.61958 0
M  V30 8082 C 770.191 -1.74991 -0.84212 0
M  V30 8083 O 769.466 -1.09867 -1.60498 0
M  V30 8084 C 769.749 -3.46326 0.986422 0
M  V30 8085 C 769.602 -3.73638 2.50429 0
M  V30 8086 C 770.921 -4.37067 0.515827 0
M  V30 8087 H 768.04 -0.701311 0.226566 0
M  V30 8088 H 770.682 -1.47442 1.19836 0
M  V30 8089 H 768.832 -3.85348 0.493907 0
M  V30 8090 H 770.504 -3.44217 3.07103 0
M  V30 8091 H 768.747 -3.19035 2.93937 0
M  V30 8092 H 769.418 -4.80815 2.71147 0
M  V30 8093 H 771.894 -4.05381 0.938389 0
M  V30 8094 H 770.77 -5.43022 0.80114 0
M  V30 8095 H 771.031 -4.38224 -0.584171 0
M  V30 8096 N 770.09 -0.729906 -1.39679 0
M  V30 8097 C 771.053 -0.0951668 -2.29002 0
M  V30 8098 C 772.053 0.672471 -1.46063 0
M  V30 8099 O 773.243 0.502245 -1.66803 0
M  V30 8100 C 770.375 0.874631 -3.29489 0
M  V30 8101 H 771.568 -0.882062 -2.86635 0
M  V30 8102 H 769.121 -0.495424 -1.4824 0
M  V30 8103 H 769.856 1.68807 -2.76902 0
M  V30 8104 H 769.641 0.326893 -3.90735 0
M  V30 8105 H 771.131 1.31548 -3.96339 0
M  V30 8106 N 771.568 1.50203 -0.477153 0
M  V30 8107 C 772.516 2.30278 0.327826 0
M  V30 8108 C 773.51 1.37831 0.984839 0
M  V30 8109 O 774.716 1.54994 0.915251 0
M  V30 8110 H 771.091 0.741612 0.124564 0
M  V30 8111 H 773.062 2.96124 -0.367853 0
M  V30 8112 C 771.811 3.18548 1.39365 0
M  V30 8113 H 771.134 3.89596 0.897475 0
M  V30 8114 H 772.574 3.77561 1.92934 0
M  V30 8115 C 771.033 2.36548 2.39889 0
M  V30 8116 O 771.563 2.05282 3.45286 0
M  V30 8117 N 769.769 1.99015 2.11758 0
M  V30 8118 H 769.316 2.24641 1.26071 0
M  V30 8119 H 769.274 1.44454 2.7925 0
M  V30 8120 N 773.046 0.209999 1.56195 0
M  V30 8121 C 774.276 -0.429373 2.02089 0
M  V30 8122 C 774.684 -1.54703 1.0892 0
M  V30 8123 O 774.027 -1.83485 0.0889535 0
M  V30 8124 C 774.089 -1.03266 3.44349 0
M  V30 8125 C 773.753 -0.0518873 4.56971 0
M  V30 8126 C 774.75 0.744249 5.14545 0
M  V30 8127 C 772.435 0.0635185 5.0226 0
M  V30 8128 C 774.429 1.64261 6.15871 0
M  V30 8129 C 772.116 0.965423 6.03426 0
M  V30 8130 C 773.114 1.75352 6.60106 0
M  V30 8131 O 772.802 2.64029 7.59305 0
M  V30 8132 H 772.534 -0.110604 0.66689 0
M  V30 8133 H 775.088 0.320436 2.02885 0
M  V30 8134 H 773.318 -1.83134 3.40586 0
M  V30 8135 H 775.007 -1.57823 3.73961 0
M  V30 8136 H 775.773 0.665476 4.80413 0
M  V30 8137 H 771.652 -0.539762 4.57829 0
M  V30 8138 H 775.196 2.25819 6.60039 0
M  V30 8139 H 771.093 1.04526 6.36981 0
M  V30 8140 H 771.861 2.57974 7.76783 0
M  V30 8141 N 774.524 -1.57472 -0.0634922 0
M  V30 8142 C 775.454 -2.07297 -1.07473 0
M  V30 8143 C 776.435 -0.968162 -1.39859 0
M  V30 8144 O 777.62 -1.24139 -1.49343 0
M  V30 8145 C 774.75 -2.52381 -2.38581 0
M  V30 8146 C 773.704 -3.66813 -2.20526 0
M  V30 8147 C 773.03 -3.97982 -3.57092 0
M  V30 8148 C 774.33 -4.96553 -1.61965 0
M  V30 8149 H 776.024 -2.92033 -0.660092 0
M  V30 8150 H 773.57 -1.40488 -0.316074 0
M  V30 8151 H 775.523 -2.85852 -3.09624 0
M  V30 8152 H 774.247 -1.64684 -2.8204 0
M  V30 8153 H 772.906 -3.33639 -1.51924 0
M  V30 8154 H 772.554 -3.07403 -3.98136 0
M  V30 8155 H 772.254 -4.7504 -3.45848 0
M  V30 8156 H 773.778 -4.33956 -4.29552 0
M  V30 8157 H 775.192 -5.28201 -2.22883 0
M  V30 8158 H 773.589 -5.7799 -1.61394 0
M  V30 8159 H 774.659 -4.81396 -0.581918 0
M  V30 8160 N 776.003 0.335068 -1.53997 0
M  V30 8161 C 777.419 0.678704 -1.4445 0
M  V30 8162 C 777.619 1.92106 -0.608078 0
M  V30 8163 O 776.675 2.52292 -0.102373 0
M  V30 8164 C 777.988 0.863435 -2.88037 0
M  V30 8165 C 779.536 0.961513 -2.97866 0
M  V30 8166 C 780.011 1.1785 -4.42578 0
M  V30 8167 N 781.502 1.2455 -4.46141 0
M  V30 8168 C 782.237 1.43106 -5.55255 0
M  V30 8169 N 781.733 1.5878 -6.74359 0
M  V30 8170 N 783.526 1.45722 -5.42883 0
M  V30 8171 H 775.677 -0.481656 -2.06867 0
M  V30 8172 H 777.94 -0.153615 -0.935471 0
M  V30 8173 H 777.646 0.0219511 -3.51693 0
M  V30 8174 H 777.52 1.76268 -3.33481 0
M  V30 8175 H 779.907 1.79351 -2.34344 0
M  V30 8176 H 779.988 0.0389862 -2.5577 0
M  V30 8177 H 779.632 0.351397 -5.06683 0
M  V30 8178 H 779.562 2.11472 -4.82273 0
M  V30 8179 H 782.053 1.13928 -3.60318 0
M  V30 8180 H 782.366 1.72599 -7.53279 0
M  V30 8181 H 780.711 1.559 -6.77289 0
M  V30 8182 H 783.902 1.33065 -4.48789 0
M  V30 8183 H 784.075 1.59841 -6.27977 0
M  V30 8184 N 777.481 1.45874 0.596531 0
M  V30 8185 C 778.758 1.40942 1.35627 0
M  V30 8186 C 779.138 0.0857066 2.10926 0
M  V30 8187 O 778.486 -0.932544 2.08605 0
M  V30 8188 C 778.696 2.63027 2.29386 0
M  V30 8189 C 780.044 3.08588 2.91649 0
M  V30 8190 O 781.068 2.63478 2.39704 0
M  V30 8191 O 779.927 3.86902 3.85965 0
M  V30 8192 H 777.021 0.559838 0.608696 0
M  V30 8193 H 779.567 1.5802 0.618698 0
M  V30 8194 H 778.339 3.5094 1.7308 0
M  V30 8195 H 777.962 2.48338 3.10506 0
M  V30 8196 N 778.959 -0.83999 1.33349 0
M  V30 8197 C 779.909 -1.93817 1.20079 0
M  V30 8198 C 780.893 -1.60564 0.103978 0
M  V30 8199 O 782.085 -1.73859 0.331964 0
M  V30 8200 C 779.214 -3.30151 0.941031 0
M  V30 8201 C 778.3 -3.69577 2.08023 0
M  V30 8202 N 778.691 -3.80707 3.3301 0
M  V30 8203 C 776.989 -3.99309 1.98667 0
M  V30 8204 C 777.69 -4.14899 4.07717 0
M  V30 8205 N 776.666 -4.27208 3.36146 0
M  V30 8206 H 780.468 -2.00576 2.14817 0
M  V30 8207 H 777.982 -1.03264 1.2534 0
M  V30 8208 H 779.979 -4.08617 0.826894 0
M  V30 8209 H 778.639 -3.247 0.00216738 0
M  V30 8210 H 779.65 -3.64644 3.67771 0
M  V30 8211 H 776.327 -4.02076 1.12433 0
M  V30 8212 H 777.717 -4.30857 5.15569 0
M  V30 8213 N 780.437 -1.16799 -1.0581 0
M  V30 8214 C 781.685 -0.950642 -1.78346 0
M  V30 8215 C 782.006 0.522524 -1.87869 0
M  V30 8216 O 781.276 1.3795 -1.39092 0
M  V30 8217 H 779.856 -0.348736 -0.6606 0
M  V30 8218 H 782.518 -1.47158 -1.27791 0
M  V30 8219 H 781.614 -1.37359 -2.80248 0
M  V30 8220 N 781.915 1.24427 -0.967243 0
M  V30 8221 C 783.164 1.91789 -0.624478 0
M  V30 8222 C 783.477 1.76448 0.844129 0
M  V30 8223 O 784.683 2.38495 1.2974 0
M  V30 8224 C 783.139 3.43743 -1.06626 0
M  V30 8225 C 782.747 3.67771 -2.55829 0
M  V30 8226 C 784.491 4.16958 -0.79662 0
M  V30 8227 C 782.398 5.13293 -2.93742 0
M  V30 8228 H 781.328 0.71811 -0.229856 0
M  V30 8229 H 783.979 1.41081 -1.17339 0
M  V30 8230 H 782.361 3.93484 -0.445663 0
M  V30 8231 H 783.535 3.28631 -3.23015 0
M  V30 8232 H 781.85 3.07841 -2.80398 0
M  V30 8233 H 784.447 5.24171 -1.05589 0
M  V30 8234 H 784.79 4.15442 0.267163 0
M  V30 8235 H 785.323 3.73164 -1.37816 0
M  V30 8236 H 782.062 5.19931 -3.9919 0
M  V30 8237 H 781.582 5.53433 -2.3124 0
M  V30 8238 H 783.261 5.81521 -2.83623 0
M  V30 8239 N 783.393 0.737304 1.3929 0
M  V30 8240 C 784.642 0.283129 1.99703 0
M  V30 8241 C 784.955 -1.13677 1.59176 0
M  V30 8242 O 786.161 -1.69058 2.12442 0
M  V30 8243 C 784.617 0.455262 3.57009 0
M  V30 8244 C 784.225 1.88319 4.06497 0
M  V30 8245 C 785.969 0.0629786 4.24453 0
M  V30 8246 C 783.876 2.00475 5.56385 0
M  V30 8247 H 782.806 0.102106 0.747054 0
M  V30 8248 H 785.457 0.911515 1.5926 0
M  V30 8249 H 783.839 -0.242057 3.9526 0
M  V30 8250 H 785.013 2.61265 3.79575 0
M  V30 8251 H 783.328 2.2289 3.51723 0
M  V30 8252 H 785.925 0.132787 5.34535 0
M  V30 8253 H 786.268 -0.982128 4.04549 0
M  V30 8254 H 786.801 0.71154 3.91385 0
M  V30 8255 H 783.54 3.03182 5.81172 0
M  V30 8256 H 783.06 1.31969 5.85102 0
M  V30 8257 H 784.739 1.787 6.21832 0
M  V30 8258 N 784.871 -1.49948 0.485112 0
M  V30 8259 C 786.282 -1.8667 0.0334041 0
M  V30 8260 C 786.633 -1.3988 -1.37579 0
M  V30 8261 O 785.758 -0.769788 -2.02245 0
M  V30 8262 C 786.353 -3.38757 0.0538426 0
M  V30 8263 C 784.912 -3.74839 -0.342453 0
M  V30 8264 C 784.059 -2.73894 0.433281 0
M  V30 8265 H 787.01 -1.42492 0.698699 0
M  V30 8266 H 787.031 -3.73132 -0.745146 0
M  V30 8267 H 786.543 -3.72782 1.07959 0
M  V30 8268 H 784.644 -3.46419 -1.37203 0
M  V30 8269 H 784.757 -4.79088 -0.0340503 0
M  V30 8270 H 783.121 -2.54441 -0.114849 0
M  V30 8271 H 783.904 -3.10763 1.45881 0
M  V30 8272 N 786.349 -0.21828 -1.56081 0
M  V30 8273 C 787.259 0.704602 -2.23769 0
M  V30 8274 C 788.275 1.21633 -1.24425 0
M  V30 8275 O 789.451 1.25862 -1.57228 0
M  V30 8276 C 786.516 1.89725 -2.90182 0
M  V30 8277 C 785.577 1.42782 -4.0486 0
M  V30 8278 C 784.81 2.56361 -4.68097 0
M  V30 8279 O 785.033 3.74417 -4.30312 0
M  V30 8280 O 783.967 2.2775 -5.57148 0
M  V30 8281 H 787.793 0.158007 -3.03289 0
M  V30 8282 H 785.378 0.0120279 -1.49395 0
M  V30 8283 H 787.26 2.59382 -3.32113 0
M  V30 8284 H 785.935 2.432 -2.13624 0
M  V30 8285 H 784.842 0.699359 -3.67505 0
M  V30 8286 H 786.175 0.939474 -4.83151 0
M  V30 8287 N 787.827 1.57504 0.0551401 0
M  V30 8288 C 788.774 2.04825 1.06373 0
M  V30 8289 C 789.744 0.932108 1.37481 0
M  V30 8290 O 790.929 1.20093 1.48265 0
M  V30 8291 C 788.069 2.51091 2.36743 0
M  V30 8292 C 787.182 3.76392 2.12021 0
M  V30 8293 C 786.317 4.11373 3.36074 0
M  V30 8294 C 785.356 5.29666 3.0679 0
M  V30 8295 N 784.493 5.60205 4.2322 0
M  V30 8296 H 789.333 2.90753 0.653216 0
M  V30 8297 H 786.87 1.43776 0.310951 0
M  V30 8298 H 788.828 2.75973 3.12881 0
M  V30 8299 H 787.458 1.68118 2.75565 0
M  V30 8300 H 786.51 3.58751 1.26498 0
M  V30 8301 H 787.822 4.62662 1.86401 0
M  V30 8302 H 786.976 4.37245 4.20597 0
M  V30 8303 H 785.715 3.23704 3.64784 0
M  V30 8304 H 784.72 5.03574 2.20664 0
M  V30 8305 H 785.945 6.18968 2.79385 0
M  V30 8306 H 783.891 4.75495 4.5193 0
M  V30 8307 H 783.808 6.40928 4.00933 0
M  V30 8308 H 785.076 5.90637 5.08692 0
M  V30 8309 N 789.305 -0.326896 1.54172 0
M  V30 8310 C 790.53 -1.08924 1.76494 0
M  V30 8311 C 790.955 -1.81039 0.510523 0
M  V30 8312 O 790.313 -1.73141 -0.537756 0
M  V30 8313 C 790.361 -2.06558 2.95578 0
M  V30 8314 O 789.465 -3.14394 2.6689 0
M  V30 8315 H 788.806 -0.314216 0.584948 0
M  V30 8316 H 791.336 -0.372207 2.01186 0
M  V30 8317 H 791.346 -2.49487 3.22832 0
M  V30 8318 H 790.021 -1.53469 3.86549 0
M  V30 8319 H 788.598 -2.76164 2.50576 0
M  V30 8320 N 790.784 -1.46188 -0.588786 0
M  V30 8321 C 792.061 -1.41659 -1.34878 0
M  V30 8322 C 792.441 -0.0968913 -2.10878 0
M  V30 8323 O 791.789 0.921468 -2.09096 0
M  V30 8324 C 791.999 -2.6424 -2.27988 0
M  V30 8325 C 793.347 -3.1013 -2.90008 0
M  V30 8326 O 794.371 -2.64745 -2.38303 0
M  V30 8327 O 793.23 -3.88944 -3.83908 0
M  V30 8328 H 790.324 -0.563058 -0.605718 0
M  V30 8329 H 792.87 -1.58346 -0.610309 0
M  V30 8330 H 791.642 -3.51853 -1.71217 0
M  V30 8331 H 791.265 -2.49982 -3.09184 0
M  V30 8332 N 792.262 0.832906 -1.33792 0
M  V30 8333 C 793.192 1.95828 -1.27176 0
M  V30 8334 C 794.173 1.69427 -0.15114 0
M  V30 8335 O 795.358 1.91167 -0.341886 0
M  V30 8336 C 792.488 3.32098 -1.01629 0
M  V30 8337 C 791.442 3.72912 -2.10049 0
M  V30 8338 C 790.768 5.07054 -1.69706 0
M  V30 8339 C 792.068 3.86064 -3.51783 0
M  V30 8340 H 793.762 2.01622 -2.21334 0
M  V30 8341 H 791.308 0.96866 -1.0655 0
M  V30 8342 H 793.261 4.10402 -0.956474 0
M  V30 8343 H 791.985 3.26577 -0.0390956 0
M  V30 8344 H 790.644 2.96876 -2.15082 0
M  V30 8345 H 790.292 4.9801 -0.706737 0
M  V30 8346 H 789.992 5.35333 -2.42264 0
M  V30 8347 H 791.516 5.87827 -1.65202 0
M  V30 8348 H 792.93 4.54665 -3.49218 0
M  V30 8349 H 791.327 4.25787 -4.22878 0
M  V30 8350 H 792.397 2.88344 -3.89854 0
M  V30 8351 N 793.74 1.17359 1.05189 0
M  V30 8352 C 794.688 0.886527 2.15043 0
M  V30 8353 C 795.682 -0.148834 1.68745 0
M  V30 8354 O 796.888 -0.00175123 1.8 0
M  V30 8355 H 793.263 0.269147 0.702185 0
M  V30 8356 H 795.234 1.82016 2.36459 0
M  V30 8357 C 793.983 0.416333 3.45198 0
M  V30 8358 H 793.306 1.20449 3.81225 0
M  V30 8359 H 794.746 0.254362 4.23236 0
M  V30 8360 C 793.205 -0.866016 3.25579 0
M  V30 8361 O 793.735 -1.9328 3.52144 0
M  V30 8362 N 791.941 -0.814179 2.78961 0
M  V30 8363 H 791.488 0.0541618 2.57543 0
M  V30 8364 H 791.446 -1.67264 2.66214 0
M  V30 8365 N 795.218 -1.23913 0.973828 0
M  V30 8366 C 796.443 -1.96735 0.656511 0
M  V30 8367 C 796.868 -1.71682 -0.768571 0
M  V30 8368 O 796.226 -0.984267 -1.52256 0
M  V30 8369 C 796.274 -3.48004 0.944735 0
M  V30 8370 O 795.378 -4.12387 0.0333357 0
M  V30 8371 H 794.719 -0.616119 0.247575 0
M  V30 8372 H 797.249 -1.57525 1.30564 0
M  V30 8373 H 797.259 -3.98424 0.87876 0
M  V30 8374 H 795.934 -3.65567 1.98328 0
M  V30 8375 H 794.511 -3.72585 0.153157 0
M  V30 8376 N 796.696 -0.74468 -1.38897 0
M  V30 8377 C 797.945 -0.293716 -1.9955 0
M  V30 8378 C 798.258 1.12831 -1.59777 0
M  V30 8379 O 799.464 1.67929 -2.13336 0
M  V30 8380 C 797.92 -0.474188 -3.56762 0
M  V30 8381 C 797.528 -1.90472 -4.05493 0
M  V30 8382 C 799.272 -0.0854875 -4.24414 0
M  V30 8383 C 797.179 -2.03423 -5.55314 0
M  V30 8384 H 796.109 -0.106066 -0.746502 0
M  V30 8385 H 798.76 -0.919948 -1.58774 0
M  V30 8386 H 797.142 0.221092 -3.95382 0
M  V30 8387 H 798.316 -2.63274 -3.78184 0
M  V30 8388 H 796.631 -2.24752 -3.50536 0
M  V30 8389 H 799.228 -0.161133 -5.34457 0
M  V30 8390 H 799.571 0.96066 -4.05064 0
M  V30 8391 H 800.104 -0.732286 -3.91002 0
M  V30 8392 H 796.843 -3.0626 -5.79556 0
M  V30 8393 H 796.363 -1.3507 -5.84394 0
M  V30 8394 H 798.042 -1.81996 -6.20876 0
M  V30 8395 N 798.174 1.49689 -0.493057 0
M  V30 8396 C 799.104 2.31826 0.279073 0
M  V30 8397 C 800.085 1.39733 0.969987 0
M  V30 8398 O 801.27 1.68646 0.962925 0
M  V30 8399 C 798.4 3.20046 1.34862 0
M  V30 8400 C 797.354 4.20869 0.77805 0
M  V30 8401 C 796.68 4.97971 1.94753 0
M  V30 8402 C 797.98 5.21813 -0.225543 0
M  V30 8403 H 799.674 2.96627 -0.406512 0
M  V30 8404 H 797.22 1.42647 -0.196943 0
M  V30 8405 H 799.173 3.76315 1.89645 0
M  V30 8406 H 797.897 2.53172 2.06328 0
M  V30 8407 H 796.556 3.65733 0.252036 0
M  V30 8408 H 796.204 4.27552 2.64969 0
M  V30 8409 H 795.904 5.66186 1.57187 0
M  V30 8410 H 797.428 5.57082 2.49984 0
M  V30 8411 H 798.842 5.72823 0.233864 0
M  V30 8412 H 797.239 5.97872 -0.516622 0
M  V30 8413 H 798.309 4.71209 -1.14412 0
M  V30 8414 N 799.652 0.226554 1.55963 0
M  V30 8415 C 800.899 -0.403789 1.98433 0
M  V30 8416 C 801.227 -1.59416 1.1143 0
M  V30 8417 O 800.482 -1.95042 0.160389 0
M  V30 8418 C 800.781 -0.87642 3.46488 0
M  V30 8419 C 800.447 0.203973 4.50438 0
M  V30 8420 C 799.109 0.500754 4.78587 0
M  V30 8421 C 801.461 0.934396 5.12756 0
M  V30 8422 C 798.789 1.53239 5.66334 0
M  V30 8423 C 801.141 1.9554 6.0162 0
M  V30 8424 C 799.805 2.25905 6.28111 0
M  V30 8425 H 799.075 -0.147757 0.726119 0
M  V30 8426 H 801.722 0.330121 1.88633 0
M  V30 8427 H 800.027 -1.68918 3.53517 0
M  V30 8428 H 801.724 -1.37407 3.76723 0
M  V30 8429 H 798.314 -0.0374917 4.28584 0
M  V30 8430 H 802.498 0.718355 4.91074 0
M  V30 8431 H 797.754 1.77321 5.85122 0
M  V30 8432 H 801.928 2.52642 6.48957 0
M  V30 8433 H 799.555 3.05985 6.959 0
M  V30 8434 N 801.13 -1.57531 -0.0467866 0
M  V30 8435 C 802.06 -2.08425 -1.05268 0
M  V30 8436 C 803.041 -0.982941 -1.38825 0
M  V30 8437 O 804.226 -1.25716 -1.48018 0
M  V30 8438 C 801.356 -2.54897 -2.35891 0
M  V30 8439 C 800.31 -3.69132 -2.16623 0
M  V30 8440 C 799.636 -4.01747 -3.52851 0
M  V30 8441 C 800.936 -4.98243 -1.56689 0
M  V30 8442 H 802.63 -2.92716 -0.62908 0
M  V30 8443 H 800.176 -1.40816 -0.301156 0
M  V30 8444 H 802.129 -2.8912 -3.06574 0
M  V30 8445 H 800.853 -1.67666 -2.80278 0
M  V30 8446 H 799.512 -3.35231 -1.48377 0
M  V30 8447 H 799.16 -3.11608 -3.94853 0
M  V30 8448 H 798.86 -4.78681 -3.4079 0
M  V30 8449 H 800.384 -4.38487 -4.24925 0
M  V30 8450 H 801.798 -5.30535 -2.17268 0
M  V30 8451 H 800.195 -5.79669 -1.55255 0
M  V30 8452 H 801.265 -4.81986 -0.530827 0
M  V30 8453 N 802.608 0.318715 -1.54344 0
M  V30 8454 C 803.541 1.41644 -1.7892 0
M  V30 8455 C 804.519 1.495 -0.639421 0
M  V30 8456 O 805.703 1.66835 -0.877404 0
M  V30 8457 C 802.83 2.79701 -1.9101 0
M  V30 8458 C 801.876 2.89354 -3.13331 0
M  V30 8459 S 802.709 2.53264 -4.71824 0
M  V30 8460 C 803.865 3.93384 -4.86826 0
M  V30 8461 H 804.098 1.20585 -2.71747 0
M  V30 8462 H 801.631 0.515828 -1.45529 0
M  V30 8463 H 803.589 3.59227 -1.98661 0
M  V30 8464 H 802.25 2.9804 -0.991516 0
M  V30 8465 H 801.443 3.90574 -3.1854 0
M  V30 8466 H 801.045 2.17805 -3.04035 0
M  V30 8467 H 803.337 4.88191 -4.69761 0
M  V30 8468 H 804.28 3.93156 -5.88926 0
M  V30 8469 H 804.688 3.82564 -4.15097 0
M  V30 8470 N 804.086 1.46499 0.581025 0
M  V30 8471 C 805.314 1.5547 1.36517 0
M  V30 8472 C 805.729 0.196407 1.87776 0
M  V30 8473 O 805.086 -0.806577 1.63709 0
M  V30 8474 C 805.137 2.56084 2.55154 0
M  V30 8475 O 804.858 3.86637 2.06018 0
M  V30 8476 C 806.359 2.75011 3.47683 0
M  V30 8477 H 803.579 0.525703 0.416986 0
M  V30 8478 H 806.123 1.9192 0.706177 0
M  V30 8479 H 804.278 2.22633 3.17039 0
M  V30 8480 H 804.692 4.41413 2.83292 0
M  V30 8481 H 806.166 3.49329 4.27403 0
M  V30 8482 H 806.643 1.81978 3.99726 0
M  V30 8483 H 807.249 3.09565 2.91632 0
M  V30 8484 N 805.565 -0.825799 1.34232 0
M  V30 8485 C 806.976 -1.39835 1.23706 0
M  V30 8486 C 807.327 -1.95709 -0.138649 0
M  V30 8487 O 806.452 -1.89833 -1.03886 0
M  V30 8488 C 807.047 -2.54203 2.23978 0
M  V30 8489 C 805.606 -3.07374 2.17251 0
M  V30 8490 C 804.753 -1.80232 2.10741 0
M  V30 8491 H 807.704 -0.630442 1.4564 0
M  V30 8492 H 807.725 -3.32214 1.8551 0
M  V30 8493 H 807.237 -2.13506 3.24094 0
M  V30 8494 H 805.338 -3.52583 1.20483 0
M  V30 8495 H 805.451 -3.6666 3.08379 0
M  V30 8496 H 803.815 -2.01012 1.56417 0
M  V30 8497 H 804.598 -1.41713 3.12686 0
M  V30 8498 N 807.043 -1.17915 -1.04565 0
M  V30 8499 C 808.006 -0.903787 -2.10628 0
M  V30 8500 C 809.006 0.10873 -1.60432 0
M  V30 8501 O 810.196 -0.124152 -1.73757 0
M  V30 8502 C 807.328 -0.355017 -3.39046 0
M  V30 8503 H 808.521 -1.84425 -2.3649 0
M  V30 8504 H 806.074 -0.990477 -1.2091 0
M  V30 8505 H 806.809 0.592297 -3.18845 0
M  V30 8506 H 806.594 -1.08484 -3.76794 0
M  V30 8507 H 808.084 -0.180891 -4.17208 0
M  V30 8508 N 808.521 1.23394 -0.980386 0
M  V30 8509 C 809.431 2.28561 -0.528864 0
M  V30 8510 C 810.447 1.68946 0.416329 0
M  V30 8511 O 811.623 1.99355 0.286251 0
M  V30 8512 C 808.688 3.46323 0.16155 0
M  V30 8513 C 807.749 4.21297 -0.825044 0
M  V30 8514 C 806.982 5.33437 -0.167483 0
M  V30 8515 O 807.205 5.60812 1.04146 0
M  V30 8516 O 806.139 5.95637 -0.866047 0
M  V30 8517 H 809.965 2.69326 -1.40346 0
M  V30 8518 H 807.55 1.29325 -0.748019 0
M  V30 8519 H 809.432 4.17811 0.548841 0
M  V30 8520 H 808.107 3.0751 1.01092 0
M  V30 8521 H 807.014 3.52134 -1.26303 0
M  V30 8522 H 808.347 4.6396 -1.64322 0
M  V30 8523 N 809.999 0.752036 1.385 0
M  V30 8524 C 811.227 0.318274 2.04437 0
M  V30 8525 C 811.642 -1.05285 1.56718 0
M  V30 8526 O 810.999 -1.66844 0.73956 0
M  V30 8527 C 811.05 0.330106 3.5999 0
M  V30 8528 O 810.771 1.64712 4.05957 0
M  V30 8529 C 812.272 -0.117713 4.43144 0
M  V30 8530 H 809.492 0.136228 0.657026 0
M  V30 8531 H 812.036 1.02045 1.7722 0
M  V30 8532 H 810.191 -0.323323 3.86048 0
M  V30 8533 H 810.605 1.57225 5.0038 0
M  V30 8534 H 812.079 -0.0582735 5.51969 0
M  V30 8535 H 812.556 -1.16538 4.23457 0
M  V30 8536 H 813.162 0.506784 4.2227 0
M  V30 8537 N 811.477 -1.49425 0.500989 0
M  V30 8538 C 812.888 -1.86624 0.0532011 0
M  V30 8539 C 813.239 -1.41331 -1.36088 0
M  V30 8540 O 812.364 -0.791195 -2.01418 0
M  V30 8541 C 812.959 -3.38681 0.0897693 0
M  V30 8542 C 811.518 -3.75181 -0.302677 0
M  V30 8543 C 810.665 -2.73419 0.462307 0
M  V30 8544 H 813.616 -1.41743 0.713773 0
M  V30 8545 H 813.637 -3.73902 -0.705528 0
M  V30 8546 H 813.149 -3.71616 1.11907 0
M  V30 8547 H 811.25 -3.47855 -1.33521 0
M  V30 8548 H 811.363 -4.79097 0.0167653 0
M  V30 8549 H 809.727 -2.54548 -0.0878557 0
M  V30 8550 H 810.51 -3.09198 1.49169 0
M  V30 8551 N 812.955 -0.234822 -1.55841 0
M  V30 8552 C 813.918 0.656378 -2.196 0
M  V30 8553 C 814.918 1.11179 -1.16171 0
M  V30 8554 O 816.108 1.01845 -1.41326 0
M  V30 8555 C 813.24 1.90072 -2.82993 0
M  V30 8556 H 814.433 0.100281 -2.99732 0
M  V30 8557 H 811.986 0.0147613 -1.56293 0
M  V30 8558 H 812.721 2.49836 -2.06767 0
M  V30 8559 H 812.506 1.5825 -3.58747 0
M  V30 8560 H 813.996 2.53538 -3.31826 0
M  V30 8561 N 814.433 1.57553 0.0384317 0
M  V30 8562 C 815.38 2.05942 1.04194 0
M  V30 8563 C 816.35 0.946637 1.36484 0
M  V30 8564 O 817.535 1.21658 1.46983 0
M  V30 8565 C 814.675 2.53588 2.34066 0
M  V30 8566 C 813.788 3.7862 2.08017 0
M  V30 8567 C 812.923 4.14915 3.31692 0
M  V30 8568 C 811.962 5.32891 3.01155 0
M  V30 8569 N 811.099 5.64662 4.17254 0
M  V30 8570 H 815.939 2.91429 0.622341 0
M  V30 8571 H 813.476 1.44098 0.295684 0
M  V30 8572 H 815.434 2.79276 3.09937 0
M  V30 8573 H 814.064 1.71031 2.73767 0
M  V30 8574 H 813.116 3.60073 1.22686 0
M  V30 8575 H 814.428 4.64613 1.81484 0
M  V30 8576 H 813.582 4.41681 4.15936 0
M  V30 8577 H 812.321 3.27555 3.6133 0
M  V30 8578 H 811.326 5.05887 2.15311 0
M  V30 8579 H 812.551 6.21896 2.72804 0
M  V30 8580 H 810.497 4.80261 4.46861 0
M  V30 8581 H 810.414 6.45145 3.94112 0
M  V30 8582 H 811.682 5.96 5.02399 0
M  V30 8583 N 815.911 -0.310526 1.54511 0
M  V30 8584 C 816.844 -1.40693 1.79668 0
M  V30 8585 C 817.822 -1.49159 0.64734 0
M  V30 8586 O 819.006 -1.66367 0.886239 0
M  V30 8587 C 816.133 -2.78685 1.92491 0
M  V30 8588 C 815.179 -2.87688 3.14861 0
M  V30 8589 S 816.012 -2.50759 4.7316 0
M  V30 8590 C 817.168 -3.90797 4.88906 0
M  V30 8591 H 817.401 -1.19142 2.72383 0
M  V30 8592 H 814.934 -0.508103 1.458 0
M  V30 8593 H 816.892 -3.58168 2.00563 0
M  V30 8594 H 815.553 -2.9751 1.00731 0
M  V30 8595 H 814.746 -3.8888 3.20607 0
M  V30 8596 H 814.348 -2.16189 3.05186 0
M  V30 8597 H 816.64 -4.85693 4.72344 0
M  V30 8598 H 817.583 -3.90027 5.91003 0
M  V30 8599 H 817.991 -3.80357 4.1712 0
M  V30 8600 N 817.389 -1.46805 -0.573248 0
M  V30 8601 C 818.337 -1.58468 -1.70267 0
M  V30 8602 C 819.331 -0.452694 -1.63239 0
M  V30 8603 O 820.537 -0.629915 -1.68618 0
M  V30 8604 H 816.912 -0.498408 -0.56311 0
M  V30 8605 H 818.883 -2.5341 -1.57563 0
M  V30 8606 C 817.632 -1.60104 -3.08645 0
M  V30 8607 H 816.955 -2.4655 -3.14727 0
M  V30 8608 H 818.395 -1.72318 -3.87405 0
M  V30 8609 C 816.854 -0.33138 -3.35266 0
M  V30 8610 O 817.384 0.57438 -3.97572 0
M  V30 8611 N 815.59 -0.216358 -2.89793 0
M  V30 8612 H 815.137 -0.954345 -2.3927 0
M  V30 8613 H 815.095 0.632253 -3.07977 0
M  V30 8614 N 818.867 0.818669 -1.34668 0
M  V30 8615 C 819.815 1.95123 -1.26609 0
M  V30 8616 C 820.809 1.68611 -0.163348 0
M  V30 8617 O 822.015 1.76975 -0.328586 0
M  V30 8618 H 818.39 0.640871 -0.393431 0
M  V30 8619 H 820.361 1.99043 -2.22316 0
M  V30 8620 C 819.11 3.31697 -1.04272 0
M  V30 8621 H 818.433 3.52648 -1.8836 0
M  V30 8622 H 819.873 4.11382 -1.0267 0
M  V30 8623 C 818.332 3.35942 0.253858 0
M  V30 8624 O 818.862 3.81632 1.25378 0
M  V30 8625 N 817.068 2.89165 0.288447 0
M  V30 8626 H 816.615 2.52176 -0.525845 0
M  V30 8627 H 816.573 2.92387 1.15572 0
M  V30 8628 N 820.346 1.18468 1.03938 0
M  V30 8629 C 821.276 0.936389 2.13902 0
M  V30 8630 C 822.257 -0.126381 1.6963 0
M  V30 8631 O 823.442 0.0264757 1.94182 0
M  V30 8632 C 820.572 0.462729 3.44204 0
M  V30 8633 C 819.526 1.46613 4.02105 0
M  V30 8634 C 818.852 0.84994 5.27902 0
M  V30 8635 C 820.152 2.84323 4.3813 0
M  V30 8636 H 821.846 1.85602 2.3493 0
M  V30 8637 H 819.392 0.893806 1.12903 0
M  V30 8638 H 821.345 0.276382 4.20493 0
M  V30 8639 H 820.069 -0.492477 3.22866 0
M  V30 8640 H 818.728 1.63944 3.27899 0
M  V30 8641 H 818.376 -0.112493 5.02874 0
M  V30 8642 H 818.076 1.51988 5.67603 0
M  V30 8643 H 819.6 0.674152 6.06867 0
M  V30 8644 H 821.014 2.70636 5.054 0
M  V30 8645 H 819.411 3.48012 4.88884 0
M  V30 8646 H 820.481 3.37776 3.47901 0
M  V30 8647 N 821.824 -1.22873 0.986916 0
M  V30 8648 C 823.073 -1.90772 0.654911 0
M  V30 8649 C 823.386 -1.77768 -0.81595 0
M  V30 8650 O 824.592 -2.40529 -1.25929 0
M  V30 8651 C 823.048 -3.42003 1.12081 0
M  V30 8652 C 822.656 -3.63655 2.61647 0
M  V30 8653 C 824.4 -4.15638 0.862854 0
M  V30 8654 C 822.307 -5.08555 3.01871 0
M  V30 8655 H 821.237 -0.714362 0.241252 0
M  V30 8656 H 823.888 -1.39196 1.19568 0
M  V30 8657 H 822.27 -3.92725 0.508207 0
M  V30 8658 H 823.444 -3.2345 3.28202 0
M  V30 8659 H 821.759 -3.03341 2.8526 0
M  V30 8660 H 824.356 -5.22425 1.13915 0
M  V30 8661 H 824.699 -4.15814 -0.201036 0
M  V30 8662 H 825.232 -3.70924 1.43736 0
M  V30 8663 H 821.971 -5.13514 4.07411 0
M  V30 8664 H 821.491 -5.49684 2.40015 0
M  V30 8665 H 823.17 -5.76936 2.92839 0
M  V30 8666 N 823.302 -0.75937 -1.38099 0
M  V30 8667 C 824.53 -0.329111 -2.04266 0
M  V30 8668 C 824.945 1.04453 -1.57274 0
M  V30 8669 O 824.302 1.66449 -0.748397 0
M  V30 8670 C 824.353 -0.349192 -3.5981 0
M  V30 8671 O 824.074 -1.66863 -4.05078 0
M  V30 8672 C 825.575 0.0942106 -4.432 0
M  V30 8673 H 822.795 -0.13971 -0.656294 0
M  V30 8674 H 825.339 -1.02984 -1.76677 0
M  V30 8675 H 823.494 0.302846 -3.86214 0
M  V30 8676 H 823.908 -1.59877 -4.9954 0
M  V30 8677 H 825.382 0.0290004 -5.51992 0
M  V30 8678 H 825.859 1.1429 -4.24069 0
M  V30 8679 H 826.465 -0.529171 -4.21995 0
M  V30 8680 N 824.78 1.49157 -0.508906 0
M  V30 8681 C 825.712 2.272 0.302115 0
M  V30 8682 C 826.725 1.3407 0.923529 0
M  V30 8683 O 827.914 1.5929 0.805532 0
M  V30 8684 C 825.014 3.06736 1.44105 0
M  V30 8685 C 824.187 4.27497 0.925477 0
M  V30 8686 C 823.246 4.89014 1.94297 0
M  V30 8687 O 822.272 5.48851 1.50834 0
M  V30 8688 N 823.474 4.7937 3.2739 0
M  V30 8689 H 826.239 2.97443 -0.367115 0
M  V30 8690 H 823.8 1.58248 -0.341933 0
M  V30 8691 H 825.792 3.44763 2.11944 0
M  V30 8692 H 824.362 2.3905 2.0143 0
M  V30 8693 H 823.582 3.94135 0.0717301 0
M  V30 8694 H 824.87 5.05714 0.55955 0
M  V30 8695 H 824.268 4.31869 3.65384 0
M  V30 8696 H 822.825 5.21559 3.90922 0
M  V30 8697 N 826.258 0.243083 1.55714 0
M  V30 8698 C 827.188 -0.652336 2.24203 0
M  V30 8699 C 828.169 -1.1843 1.221 0
M  V30 8700 O 829.354 -1.22435 1.50743 0
M  V30 8701 C 826.484 -1.85111 2.93856 0
M  V30 8702 C 825.438 -1.45208 4.02615 0
M  V30 8703 C 824.764 -2.73137 4.59674 0
M  V30 8704 C 826.064 -0.625988 5.18535 0
M  V30 8705 H 827.758 -0.0812504 2.9929 0
M  V30 8706 H 825.304 -0.0376388 1.43951 0
M  V30 8707 H 827.257 -2.48314 3.40468 0
M  V30 8708 H 825.981 -2.44751 2.16251 0
M  V30 8709 H 824.64 -0.843406 3.56766 0
M  V30 8710 H 824.288 -3.30967 3.78774 0
M  V30 8711 H 823.988 -2.47163 5.33089 0
M  V30 8712 H 825.512 -3.37245 5.09017 0
M  V30 8713 H 826.926 -1.16223 5.61396 0
M  V30 8714 H 825.323 -0.462465 5.98315 0
M  V30 8715 H 826.393 0.362652 4.83542 0
M  V30 8716 N 827.736 -1.57571 -0.0300757 0
M  V30 8717 C 828.666 -2.0953 -1.03051 0
M  V30 8718 C 829.647 -0.99761 -1.37774 0
M  V30 8719 O 830.832 -1.27279 -1.46676 0
M  V30 8720 C 827.962 -2.57385 -2.33174 0
M  V30 8721 C 826.916 -3.71409 -2.12696 0
M  V30 8722 C 826.242 -4.05467 -3.4857 0
M  V30 8723 C 827.542 -4.99877 -1.51396 0
M  V30 8724 H 829.236 -2.93367 -0.597999 0
M  V30 8725 H 826.782 -1.41127 -0.286203 0
M  V30 8726 H 828.735 -2.92355 -3.03491 0
M  V30 8727 H 827.459 -1.70629 -2.78484 0
M  V30 8728 H 826.118 -3.36786 -1.44813 0
M  V30 8729 H 825.766 -3.15779 -3.91526 0
M  V30 8730 H 825.466 -4.82269 -3.35694 0
M  V30 8731 H 826.99 -4.4297 -4.2025 0
M  V30 8732 H 828.404 -5.3281 -2.11629 0
M  V30 8733 H 826.801 -5.81283 -1.49098 0
M  V30 8734 H 827.871 -4.82522 -0.479676 0
M  V30 8735 N 829.214 0.302327 -1.54673 0
M  V30 8736 C 830.146 1.39443 -1.81902 0
M  V30 8737 C 831.159 1.46891 -0.701914 0
M  V30 8738 O 832.348 1.49233 -0.979369 0
M  V30 8739 C 829.448 2.77824 -1.9408 0
M  V30 8740 C 828.621 2.93324 -3.24468 0
M  V30 8741 C 827.68 4.12196 -3.27079 0
M  V30 8742 O 826.706 4.04344 -4.00617 0
M  V30 8743 N 827.908 5.22768 -2.52376 0
M  V30 8744 H 830.673 1.1644 -2.76155 0
M  V30 8745 H 828.234 0.492392 -1.54231 0
M  V30 8746 H 830.226 3.5559 -1.9323 0
M  V30 8747 H 828.796 2.9378 -1.06828 0
M  V30 8748 H 828.016 2.02682 -3.38103 0
M  V30 8749 H 829.304 3.0059 -4.10516 0
M  V30 8750 H 828.702 5.32027 -1.92259 0
M  V30 8751 H 827.259 5.98874 -2.57281 0
M  V30 8752 N 830.692 1.47107 0.565454 0
M  V30 8753 C 831.622 1.61846 1.68309 0
M  V30 8754 C 832.603 0.468159 1.63531 0
M  V30 8755 O 833.788 0.696504 1.8128 0
M  V30 8756 C 830.918 1.62474 3.06952 0
M  V30 8757 C 829.872 2.76649 3.26572 0
M  V30 8758 C 829.198 2.62345 4.65917 0
M  V30 8759 C 830.498 4.18319 3.12741 0
M  V30 8760 H 832.192 2.55407 1.5623 0
M  V30 8761 H 829.738 1.22916 0.750179 0
M  V30 8762 H 831.691 1.71378 3.84977 0
M  V30 8763 H 830.415 0.654692 3.19971 0
M  V30 8764 H 829.074 2.67242 2.50952 0
M  V30 8765 H 828.722 1.63386 4.75725 0
M  V30 8766 H 828.422 3.38936 4.79996 0
M  V30 8767 H 829.946 2.73165 5.46089 0
M  V30 8768 H 831.36 4.28745 3.80593 0
M  V30 8769 H 829.757 4.95632 3.38333 0
M  V30 8770 H 830.827 4.37263 2.09592 0
M  V30 8771 N 832.17 -0.811516 1.35101 0
M  V30 8772 C 833.102 -1.93102 1.23468 0
M  V30 8773 C 834.115 -1.62021 0.159095 0
M  V30 8774 O 835.304 -1.73682 0.411945 0
M  V30 8775 C 832.404 -3.27345 0.877404 0
M  V30 8776 C 831.577 -3.86368 2.05033 0
M  V30 8777 C 830.636 -4.99009 1.66963 0
M  V30 8778 O 829.662 -5.16698 2.38772 0
M  V30 8779 N 830.864 -5.7749 0.590394 0
M  V30 8780 H 833.629 -2.0361 2.19916 0
M  V30 8781 H 831.19 -0.988687 1.28205 0
M  V30 8782 H 833.182 -4.00163 0.604298 0
M  V30 8783 H 831.752 -3.126 0.00275267 0
M  V30 8784 H 830.972 -3.05804 2.48752 0
M  V30 8785 H 832.26 -4.22533 2.83449 0
M  V30 8786 H 831.658 -5.657 -0.00633259 0
M  V30 8787 H 830.215 -6.50708 0.377055 0
M  V30 8788 N 833.648 -1.19017 -1.03309 0
M  V30 8789 C 835.064 -0.941483 -1.28873 0
M  V30 8790 C 835.264 0.388587 -1.97718 0
M  V30 8791 O 834.32 1.12111 -2.26246 0
M  V30 8792 C 835.633 -2.11249 -2.13996 0
M  V30 8793 C 837.181 -2.15164 -2.27318 0
M  V30 8794 C 837.656 -3.31704 -3.15811 0
M  V30 8795 N 839.147 -3.31613 -3.23399 0
M  V30 8796 C 839.882 -4.18431 -3.9205 0
M  V30 8797 N 839.378 -5.15397 -4.62966 0
M  V30 8798 N 841.171 -4.06321 -3.88406 0
M  V30 8799 H 833.322 -2.04599 -0.570343 0
M  V30 8800 H 835.585 -0.894406 -0.314232 0
M  V30 8801 H 835.291 -3.07482 -1.70727 0
M  V30 8802 H 835.165 -2.07955 -3.14697 0
M  V30 8803 H 837.552 -1.19504 -2.6982 0
M  V30 8804 H 837.633 -2.22513 -1.26182 0
M  V30 8805 H 837.277 -4.2764 -2.74019 0
M  V30 8806 H 837.207 -3.21592 -4.16997 0
M  V30 8807 H 839.698 -2.6142 -2.72888 0
M  V30 8808 H 840.011 -5.78 -5.12968 0
M  V30 8809 H 838.356 -5.19349 -4.61846 0
M  V30 8810 H 841.547 -3.29849 -3.3214 0
M  V30 8811 H 841.72 -4.74196 -4.41635 0
M  V30 8812 N 835.127 1.22348 -0.993418 0
M  V30 8813 C 836.057 2.26584 -0.564088 0
M  V30 8814 C 837.038 1.65102 0.409298 0
M  V30 8815 O 838.223 1.91872 0.299819 0
M  V30 8816 C 835.353 3.47087 0.121554 0
M  V30 8817 C 834.307 4.21009 -0.770429 0
M  V30 8818 C 833.633 5.34678 0.0481586 0
M  V30 8819 C 834.933 4.79636 -2.06752 0
M  V30 8820 H 836.627 2.62749 -1.43538 0
M  V30 8821 H 834.173 1.26303 -0.691628 0
M  V30 8822 H 836.126 4.19166 0.433303 0
M  V30 8823 H 834.85 3.1002 1.0274 0
M  V30 8824 H 833.509 3.50764 -1.06583 0
M  V30 8825 H 833.157 4.93852 0.954933 0
M  V30 8826 H 832.857 5.85061 -0.545641 0
M  V30 8827 H 834.381 6.09573 0.353991 0
M  V30 8828 H 835.795 5.43654 -1.81969 0
M  V30 8829 H 834.192 5.4036 -2.61019 0
M  V30 8830 H 835.262 3.99659 -2.74592 0
M  V30 8831 N 836.605 0.766683 1.37694 0
M  V30 8832 C 837.854 0.325425 1.99057 0
M  V30 8833 C 838.167 -1.10275 1.61551 0
M  V30 8834 O 839.373 -1.64513 2.1598 0
M  V30 8835 C 837.829 0.530886 3.55963 0
M  V30 8836 C 837.437 1.96899 4.02411 0
M  V30 8837 C 839.181 0.152997 4.24224 0
M  V30 8838 C 837.088 2.12232 5.52007 0
M  V30 8839 H 836.018 0.117929 0.744721 0
M  V30 8840 H 838.669 0.945091 1.5729 0
M  V30 8841 H 837.051 -0.158162 3.95684 0
M  V30 8842 H 838.225 2.69258 3.73948 0
M  V30 8843 H 836.54 2.303 3.46916 0
M  V30 8844 H 839.137 0.24614 5.34133 0
M  V30 8845 H 839.48 -0.896096 4.06541 0
M  V30 8846 H 840.013 0.794398 3.89787 0
M  V30 8847 H 836.752 3.15442 5.7461 0
M  V30 8848 H 836.272 1.4435 5.82171 0
M  V30 8849 H 837.951 1.9185 6.17902 0
M  V30 8850 N 838.083 -1.48885 0.516809 0
M  V30 8851 C 838.993 -2.33185 -0.257293 0
M  V30 8852 C 840.009 -1.4565 -0.951952 0
M  V30 8853 O 841.185 -1.78651 -0.929834 0
M  V30 8854 C 838.25 -3.21465 -1.29851 0
M  V30 8855 C 837.311 -4.24863 -0.615608 0
M  V30 8856 C 836.544 -5.08925 -1.60722 0
M  V30 8857 O 836.767 -4.9475 -2.83863 0
M  V30 8858 O 835.701 -5.90737 -1.15384 0
M  V30 8859 H 839.527 -3.00596 0.433131 0
M  V30 8860 H 837.112 -1.46792 0.277908 0
M  V30 8861 H 838.994 -3.76108 -1.90055 0
M  V30 8862 H 837.669 -2.5673 -1.97158 0
M  V30 8863 H 836.576 -3.74091 0.0265829 0
M  V30 8864 H 837.909 -4.92198 0.0152871 0
M  V30 8865 N 839.561 -0.251338 -1.55583 0
M  V30 8866 C 840.471 0.656978 -2.25213 0
M  V30 8867 C 841.487 1.18966 -1.26977 0
M  V30 8868 O 842.663 1.22499 -1.59862 0
M  V30 8869 C 839.728 1.83527 -2.94141 0
M  V30 8870 C 838.789 1.34162 -4.07798 0
M  V30 8871 C 838.022 2.46375 -4.73429 0
M  V30 8872 O 838.245 3.65205 -4.38157 0
M  V30 8873 O 837.179 2.15881 -5.61853 0
M  V30 8874 H 841.005 0.0936395 -3.03556 0
M  V30 8875 H 838.59 -0.0196638 -1.49387 0
M  V30 8876 H 840.472 2.52279 -3.3754 0
M  V30 8877 H 839.147 2.38614 -2.18735 0
M  V30 8878 H 838.054 0.621249 -3.68906 0
M  V30 8879 H 839.387 0.836779 -4.85035 0
M  V30 8880 N 841.039 1.57585 0.0217189 0
M  V30 8881 C 842.316 1.80779 0.74687 0
M  V30 8882 C 842.696 0.851163 1.9318 0
M  V30 8883 O 842.044 -0.105039 2.28258 0
M  V30 8884 C 842.254 3.28696 1.17302 0
M  V30 8885 C 843.602 3.93871 1.58589 0
M  V30 8886 O 844.626 3.3289 1.2674 0
M  V30 8887 O 843.485 5.01254 2.1773 0
M  V30 8888 H 840.579 0.743666 0.361786 0
M  V30 8889 H 843.125 1.697 -0.00206785 0
M  V30 8890 H 841.897 3.89927 0.327453 0
M  V30 8891 H 841.52 3.44692 1.98174 0
M  V30 8892 N 842.517 -0.29412 1.54831 0
M  V30 8893 C 843.48 -1.3461 1.85507 0
M  V30 8894 C 844.48 -1.43359 0.728343 0
M  V30 8895 O 845.67 -1.42875 0.996609 0
M  V30 8896 C 842.802 -2.73012 2.0415 0
M  V30 8897 H 843.995 -1.08651 2.79526 0
M  V30 8898 H 841.548 -0.531138 1.46999 0
M  V30 8899 H 842.283 -3.04183 1.12441 0
M  V30 8900 H 842.068 -2.68051 2.86166 0
M  V30 8901 H 843.558 -3.49061 2.29229 0
M  V30 8902 N 843.995 -1.47404 -0.557645 0
M  V30 8903 C 845.406 -1.47872 -1.13977 0
M  V30 8904 C 845.757 -0.233176 -1.94809 0
M  V30 8905 O 844.882 0.661945 -2.06027 0
M  V30 8906 C 845.477 -2.67926 -2.07368 0
M  V30 8907 C 844.036 -2.71354 -2.60852 0
M  V30 8908 C 843.183 -2.40967 -1.37223 0
M  V30 8909 H 846.134 -1.54921 -0.344268 0
M  V30 8910 H 846.155 -2.44871 -2.91236 0
M  V30 8911 H 845.667 -3.58562 -1.48509 0
M  V30 8912 H 843.768 -1.84855 -3.23511 0
M  V30 8913 H 843.881 -3.72032 -3.01876 0
M  V30 8914 H 842.245 -1.91541 -1.67882 0
M  V30 8915 H 843.028 -3.33811 -0.801583 0
M  V30 8916 N 845.473 0.80434 -1.35529 0
M  V30 8917 C 846.403 1.93086 -1.31301 0
M  V30 8918 C 847.384 1.69068 -0.187044 0
M  V30 8919 O 848.569 1.90399 -0.382359 0
M  V30 8920 C 845.699 3.29867 -1.0865 0
M  V30 8921 C 844.653 3.68373 -2.17911 0
M  V30 8922 C 843.979 5.0334 -1.80423 0
M  V30 8923 C 845.279 3.78516 -3.59893 0
M  V30 8924 H 846.973 1.96882 -2.25561 0
M  V30 8925 H 844.519 0.945841 -1.08581 0
M  V30 8926 H 846.472 4.08281 -1.04331 0
M  V30 8927 H 845.196 3.2642 -0.108359 0
M  V30 8928 H 843.855 2.92247 -2.21331 0
M  V30 8929 H 843.503 4.96399 -0.812213 0
M  V30 8930 H 843.203 5.30074 -2.53565 0
M  V30 8931 H 844.727 5.84191 -1.77633 0
M  V30 8932 H 846.141 4.47155 -3.58783 0
M  V30 8933 H 844.538 4.16721 -4.31814 0
M  V30 8934 H 845.608 2.8001 -3.95882 0
M  V30 8935 N 846.951 1.19563 1.02676 0
M  V30 8936 C 847.898 0.935291 2.11 0
M  V30 8937 C 848.868 -0.130685 1.65585 0
M  V30 8938 O 850.053 0.0119062 1.90796 0
M  V30 8939 C 847.193 0.482384 3.41712 0
M  V30 8940 C 846.306 1.61537 4.00662 0
M  V30 8941 C 845.441 1.11378 5.19392 0
M  V30 8942 C 844.48 2.22052 5.70403 0
M  V30 8943 N 843.617 1.73185 6.80405 0
M  V30 8944 H 848.457 1.86275 2.32606 0
M  V30 8945 H 845.994 0.928656 1.14081 0
M  V30 8946 H 847.952 0.20118 4.16715 0
M  V30 8947 H 846.582 -0.408086 3.2021 0
M  V30 8948 H 845.634 2.01173 3.22852 0
M  V30 8949 H 846.946 2.44912 4.34534 0
M  V30 8950 H 846.1 0.787935 6.01562 0
M  V30 8951 H 844.839 0.249789 4.8706 0
M  V30 8952 H 843.844 2.55465 4.86845 0
M  V30 8953 H 845.069 3.08911 6.04774 0
M  V30 8954 H 843.015 0.890973 6.49921 0
M  V30 8955 H 842.932 2.50148 7.13416 0
M  V30 8956 H 844.2 1.4357 7.66164 0
M  V30 8957 N 848.429 -1.21819 0.999893 0
M  V30 8958 C 849.361 -2.23356 0.514256 0
M  V30 8959 C 850.374 -1.5795 -0.394413 0
M  V30 8960 O 851.563 -1.77427 -0.195428 0
M  V30 8961 C 848.663 -3.37797 -0.273207 0
M  V30 8962 C 847.836 -4.32791 0.633293 0
M  V30 8963 C 846.895 -5.26098 -0.103673 0
M  V30 8964 O 845.921 -5.66881 0.513269 0
M  V30 8965 N 847.123 -5.63764 -1.38383 0
M  V30 8966 H 849.888 -2.65653 1.3874 0
M  V30 8967 H 847.449 -1.3619 0.875431 0
M  V30 8968 H 849.441 -3.97209 -0.775053 0
M  V30 8969 H 848.011 -2.94527 -1.0475 0
M  V30 8970 H 847.231 -3.71595 1.31571 0
M  V30 8971 H 848.519 -4.93196 1.25039 0
M  V30 8972 H 847.917 -5.32614 -1.90627 0
M  V30 8973 H 846.474 -6.25562 -1.83073 0
M  V30 8974 N 849.908 -0.773975 -1.37286 0
M  V30 8975 C 851.154 -0.339809 -1.99933 0
M  V30 8976 C 851.487 1.0815 -1.61299 0
M  V30 8977 O 850.762 1.74442 -0.860252 0
M  V30 8978 C 851.045 -0.485919 -3.56806 0
M  V30 8979 C 850.898 -1.9498 -4.05343 0
M  V30 8980 C 852.217 0.108461 -4.39966 0
M  V30 8981 H 849.336 -0.124944 -0.726332 0
M  V30 8982 H 851.978 -0.977433 -1.6293 0
M  V30 8983 H 850.128 0.0569023 -3.88458 0
M  V30 8984 H 851.8 -2.5525 -3.84246 0
M  V30 8985 H 850.043 -2.45784 -3.57453 0
M  V30 8986 H 850.714 -2.00308 -5.14374 0
M  V30 8987 H 853.19 -0.354722 -4.14585 0
M  V30 8988 H 852.066 -0.0238926 -5.48895 0
M  V30 8989 H 852.327 1.19901 -4.25531 0
M  V30 8990 N 851.386 1.48609 -0.524698 0
M  V30 8991 C 852.316 2.32366 0.229837 0
M  V30 8992 C 853.297 1.41759 0.940129 0
M  V30 8993 O 854.482 1.7065 0.926936 0
M  V30 8994 C 851.612 3.22835 1.28043 0
M  V30 8995 C 850.566 4.22424 0.688603 0
M  V30 8996 C 849.892 5.0199 1.84146 0
M  V30 8997 C 851.192 5.21217 -0.336176 0
M  V30 8998 H 852.886 2.95698 -0.469339 0
M  V30 8999 H 850.432 1.42197 -0.227156 0
M  V30 9000 H 852.385 3.80253 1.8162 0
M  V30 9001 H 851.109 2.57492 2.00912 0
M  V30 9002 H 849.768 3.66185 0.174402 0
M  V30 9003 H 849.416 4.33076 2.5584 0
M  V30 9004 H 849.116 5.69392 1.45142 0
M  V30 9005 H 850.64 5.62259 2.38111 0
M  V30 9006 H 852.054 5.7319 0.112307 0
M  V30 9007 H 850.451 5.96642 -0.643324 0
M  V30 9008 H 851.521 4.68676 -1.24381 0
M  V30 9009 N 852.864 0.259585 1.55447 0
M  V30 9010 C 854.275 -0.241165 1.85136 0
M  V30 9011 C 854.626 -1.56634 1.18153 0
M  V30 9012 O 853.751 -2.11359 0.464351 0
M  V30 9013 C 854.346 -0.444355 3.35873 0
M  V30 9014 C 852.905 -0.889354 3.65742 0
M  V30 9015 C 852.052 0.0262474 2.77288 0
M  V30 9016 H 855.003 0.481808 1.51209 0
M  V30 9017 H 855.024 -1.28517 3.58139 0
M  V30 9018 H 854.536 0.520289 3.84597 0
M  V30 9019 H 852.637 -1.86602 3.22507 0
M  V30 9020 H 852.75 -0.737432 4.73391 0
M  V30 9021 H 851.114 -0.487361 2.49994 0
M  V30 9022 H 851.897 0.986494 3.28821 0
M  V30 9023 N 854.342 -1.57594 -0.0133615 0
M  V30 9024 C 855.567 -1.94649 -0.715996 0
M  V30 9025 C 855.992 -0.860786 -1.67249 0
M  V30 9026 O 855.35 0.182228 -1.80382 0
M  V30 9027 C 855.398 -3.30789 -1.43566 0
M  V30 9028 O 854.502 -3.24148 -2.54955 0
M  V30 9029 H 853.843 -0.635801 -0.191449 0
M  V30 9030 H 856.373 -2.04569 0.0358478 0
M  V30 9031 H 856.383 -3.66045 -1.80208 0
M  V30 9032 H 855.058 -4.09367 -0.734263 0
M  V30 9033 H 853.635 -3.00548 -2.20739 0
M  V30 9034 N 855.82 0.285905 -1.54985 0
M  V30 9035 C 857.069 1.01691 -1.74189 0
M  V30 9036 C 857.382 1.87908 -0.543135 0
M  V30 9037 O 858.588 2.64389 -0.617305 0
M  V30 9038 C 857.044 1.85785 -3.0824 0
M  V30 9039 C 856.652 1.04497 -4.35642 0
M  V30 9040 C 858.396 2.58393 -3.36798 0
M  V30 9041 C 856.303 1.87955 -5.60738 0
M  V30 9042 H 855.233 0.383396 -0.649248 0
M  V30 9043 H 857.884 0.27317 -1.81455 0
M  V30 9044 H 856.266 2.64205 -2.94978 0
M  V30 9045 H 857.44 0.305847 -4.59784 0
M  V30 9046 H 855.755 0.434023 -4.14132 0
M  V30 9047 H 858.352 3.21214 -4.27464 0
M  V30 9048 H 858.695 3.28011 -2.56349 0
M  V30 9049 H 859.228 1.87012 -3.511 0
M  V30 9050 H 855.967 1.22781 -6.43898 0
M  V30 9051 H 855.487 2.59499 -5.40759 0
M  V30 9052 H 857.166 2.45636 -5.98558 0
M  V30 9053 N 857.298 1.47698 0.54982 0
M  V30 9054 C 858.528 1.58101 1.32995 0
M  V30 9055 C 858.936 0.232939 1.87761 0
M  V30 9056 O 858.279 -0.785058 1.6608 0
M  V30 9057 C 858.341 2.55228 2.53178 0
M  V30 9058 C 858.005 4.00756 2.19645 0
M  V30 9059 C 859.002 4.89025 1.76496 0
M  V30 9060 C 856.687 4.46147 2.30777 0
M  V30 9061 C 858.681 6.20707 1.44919 0
M  V30 9062 C 856.368 5.77856 1.98812 0
M  V30 9063 C 857.366 6.64957 1.55952 0
M  V30 9064 O 857.054 7.94217 1.24396 0
M  V30 9065 H 856.786 0.536362 0.411451 0
M  V30 9066 H 859.34 1.94092 0.67212 0
M  V30 9067 H 857.57 2.14319 3.21876 0
M  V30 9068 H 859.259 2.55678 3.15251 0
M  V30 9069 H 860.025 4.55201 1.67383 0
M  V30 9070 H 855.904 3.78552 2.63096 0
M  V30 9071 H 859.448 6.88649 1.11392 0
M  V30 9072 H 855.345 6.11219 2.0756 0
M  V30 9073 H 856.113 8.06789 1.37964 0
M  V30 9074 N 858.776 -0.797141 1.35954 0
M  V30 9075 C 859.739 -1.89104 1.29508 0
M  V30 9076 C 860.739 -1.59495 0.204444 0
M  V30 9077 O 861.929 -1.68051 0.458746 0
M  V30 9078 C 859.061 -3.25726 1.00576 0
M  V30 9079 H 860.254 -1.96237 2.26785 0
M  V30 9080 H 857.807 -0.994075 1.20614 0
M  V30 9081 H 858.542 -3.24279 0.0372519 0
M  V30 9082 H 858.327 -3.48604 1.79492 0
M  V30 9083 H 859.817 -4.0578 0.986508 0
M  V30 9084 N 860.254 -1.20106 -1.0204 0
M  V30 9085 C 861.217 -0.948261 -2.08664 0
M  V30 9086 C 862.217 0.0746753 -1.60627 0
M  V30 9087 O 863.407 -0.160981 -1.73455 0
M  V30 9088 C 860.539 -0.426854 -3.38217 0
M  V30 9089 H 861.732 -1.894 -2.32524 0
M  V30 9090 H 859.285 -1.0159 -1.18782 0
M  V30 9091 H 860.02 0.524532 -3.2003 0
M  V30 9092 H 859.805 -1.16451 -3.74408 0
M  V30 9093 H 861.295 -0.269346 -4.1673 0
M  V30 9094 N 861.732 1.21287 -1.00634 0
M  V30 9095 C 862.68 2.25733 -0.561026 0
M  V30 9096 C 863.674 1.64728 0.395095 0
M  V30 9097 O 864.88 1.78022 0.266141 0
M  V30 9098 H 861.255 0.734104 -0.163081 0
M  V30 9099 H 863.226 2.60631 -1.45307 0
M  V30 9100 C 861.975 3.47569 0.0952587 0
M  V30 9101 H 861.298 3.94782 -0.631427 0
M  V30 9102 H 862.738 4.22382 0.370105 0
M  V30 9103 C 861.197 3.09326 1.33488 0
M  V30 9104 O 861.727 3.19933 2.42912 0
M  V30 9105 N 859.933 2.63976 1.21512 0
M  V30 9106 H 859.48 2.55545 0.324741 0
M  V30 9107 H 859.438 2.38757 2.04555 0
M  V30 9108 N 863.21 0.781244 1.36873 0
M  V30 9109 C 864.12 0.174981 2.33947 0
M  V30 9110 C 865.136 -0.668512 1.60645 0
M  V30 9111 O 866.312 -0.586213 1.9268 0
M  V30 9112 C 863.377 -0.686557 3.39834 0
M  V30 9113 C 862.438 0.174489 4.28945 0
M  V30 9114 C 861.671 -0.646024 5.29776 0
M  V30 9115 O 861.894 -1.88254 5.38439 0
M  V30 9116 O 860.828 -0.0502214 6.01879 0
M  V30 9117 H 864.654 0.977382 2.87543 0
M  V30 9118 H 862.239 0.542559 1.392 0
M  V30 9119 H 864.121 -1.1781 4.04597 0
M  V30 9120 H 862.796 -1.46699 2.8855 0
M  V30 9121 H 861.703 0.712604 3.6725 0
M  V30 9122 H 863.036 0.918232 4.83559 0
M  V30 9123 N 864.689 -1.48329 0.532571 0
M  V30 9124 C 865.599 -2.33445 -0.232546 0
M  V30 9125 C 866.615 -1.46651 -0.93645 0
M  V30 9126 O 867.791 -1.79627 -0.910834 0
M  V30 9127 C 864.856 -3.22824 -1.26434 0
M  V30 9128 C 863.917 -4.25492 -0.570511 0
M  V30 9129 C 863.15 -5.10601 -1.55315 0
M  V30 9130 O 863.373 -4.97733 -2.78599 0
M  V30 9131 O 862.307 -5.91927 -1.09112 0
M  V30 9132 H 866.133 -3.00119 0.464988 0
M  V30 9133 H 863.718 -1.46489 0.293462 0
M  V30 9134 H 865.6 -3.78103 -1.86055 0
M  V30 9135 H 864.275 -2.58807 -1.94424 0
M  V30 9136 H 863.182 -3.74041 0.0662587 0
M  V30 9137 H 864.515 -4.92154 0.0674904 0
M  V30 9138 N 866.167 -0.267825 -1.55308 0
M  V30 9139 C 867.583 0.0865107 -1.59365 0
M  V30 9140 C 867.783 1.55205 -1.28505 0
M  V30 9141 O 866.839 2.29978 -1.04241 0
M  V30 9142 C 868.152 -0.28155 -2.99379 0
M  V30 9143 C 869.7 -0.227565 -3.12172 0
M  V30 9144 C 870.175 -0.569959 -4.5444 0
M  V30 9145 N 871.666 -0.521238 -4.60258 0
M  V30 9146 C 872.401 -0.759061 -5.68354 0
M  V30 9147 N 871.897 -1.06112 -6.84626 0
M  V30 9148 N 873.69 -0.688351 -5.57869 0
M  V30 9149 H 865.841 -1.22332 -1.73633 0
M  V30 9150 H 868.104 -0.493703 -0.809297 0
M  V30 9151 H 867.81 -1.3005 -3.26772 0
M  V30 9152 H 867.684 0.381192 -3.75269 0
M  V30 9153 H 870.071 0.782093 -2.84548 0
M  V30 9154 H 870.152 -0.924461 -2.38511 0
M  V30 9155 H 869.796 -1.57727 -4.82788 0
M  V30 9156 H 869.726 0.148646 -5.2639 0
M  V30 9157 H 872.217 -0.297359 -3.76728 0
M  V30 9158 H 872.53 -1.22945 -7.62958 0
M  V30 9159 H 870.875 -1.09881 -6.86259 0
M  V30 9160 H 874.066 -0.452268 -4.6591 0
M  V30 9161 H 874.239 -0.877081 -6.42037 0
M  V30 9162 N 867.645 1.57599 0.00500368 0
M  V30 9163 C 868.875 1.94344 0.700998 0
M  V30 9164 C 869.283 0.868011 1.68114 0
M  V30 9165 O 868.626 -0.16214 1.82983 0
M  V30 9166 C 868.688 3.27046 1.49268 0
M  V30 9167 C 868.352 4.51992 0.674684 0
M  V30 9168 C 869.349 5.19888 -0.0354833 0
M  V30 9169 C 867.034 4.98432 0.622129 0
M  V30 9170 C 869.028 6.3252 -0.787246 0
M  V30 9171 C 866.715 6.10954 -0.133362 0
M  V30 9172 C 867.713 6.77855 -0.836788 0
M  V30 9173 O 867.401 7.88221 -1.57996 0
M  V30 9174 H 867.133 0.645572 0.20053 0
M  V30 9175 H 869.687 2.0536 -0.040718 0
M  V30 9176 H 867.917 3.12424 2.27877 0
M  V30 9177 H 869.606 3.4894 2.07355 0
M  V30 9178 H 870.372 4.85 -0.00400159 0
M  V30 9179 H 866.251 4.46189 1.15917 0
M  V30 9180 H 869.795 6.84671 -1.33683 0
M  V30 9181 H 865.692 6.45285 -0.166682 0
M  V30 9182 H 866.46 8.0471 -1.49615 0
M  V30 9183 N 869.123 -0.277682 1.55134 0
M  V30 9184 C 870.071 -1.36305 1.88478 0
M  V30 9185 C 871.065 -1.51362 0.760654 0
M  V30 9186 O 872.271 -1.53202 0.944943 0
M  V30 9187 H 868.646 -0.45577 0.598146 0
M  V30 9188 H 870.617 -1.05431 2.79154 0
M  V30 9189 C 869.366 -2.71739 2.16918 0
M  V30 9190 H 868.689 -2.60942 3.02901 0
M  V30 9191 H 870.129 -3.46635 2.44172 0
M  V30 9192 C 868.588 -3.22476 0.975239 0
M  V30 9193 O 869.118 -4.01164 0.207497 0
M  V30 9194 N 867.324 -2.80097 0.774219 0
M  V30 9195 H 866.871 -2.16221 1.40022 0
M  V30 9196 H 866.829 -3.14392 -0.023021 0
M  V30 9197 N 870.601 -1.47988 -0.541979 0
M  V30 9198 C 871.849 -1.55086 -1.29587 0
M  V30 9199 C 872.17 -0.221304 -1.9374 0
M  V30 9200 O 871.44 0.756128 -1.80719 0
M  V30 9201 H 870.02 -0.571307 -0.481266 0
M  V30 9202 H 872.682 -1.8438 -0.631675 0
M  V30 9203 H 871.778 -2.32556 -2.08144 0
M  V30 9204 N 872.079 0.78992 -1.36375 0
M  V30 9205 C 873.309 1.57644 -1.33536 0
M  V30 9206 C 873.717 1.89007 0.0855075 0
M  V30 9207 O 873.06 1.50547 1.05267 0
M  V30 9208 C 873.122 2.92424 -2.09113 0
M  V30 9209 C 872.786 2.83793 -3.58205 0
M  V30 9210 C 873.783 2.56072 -4.52464 0
M  V30 9211 C 871.468 3.02386 -4.01084 0
M  V30 9212 C 873.462 2.47044 -5.87578 0
M  V30 9213 C 871.149 2.9298 -5.36289 0
M  V30 9214 C 872.147 2.65347 -6.29349 0
M  V30 9215 O 871.835 2.55935 -7.62071 0
M  V30 9216 H 871.567 0.495639 -0.459694 0
M  V30 9217 H 874.121 0.988354 -1.80058 0
M  V30 9218 H 872.351 3.53282 -1.57254 0
M  V30 9219 H 874.04 3.53693 -1.99139 0
M  V30 9220 H 874.806 2.4141 -4.2065 0
M  V30 9221 H 870.685 3.229 -3.29023 0
M  V30 9222 H 874.229 2.25396 -6.60184 0
M  V30 9223 H 870.126 3.07204 -5.67711 0
M  V30 9224 H 870.894 2.7142 -7.72187 0
M  V30 9225 N 873.557 1.20646 1.01402 0
M  V30 9226 C 874.785 1.04389 1.78635 0
M  V30 9227 C 875.2 -0.406771 1.84366 0
M  V30 9228 O 874.557 -1.28239 1.2985 0
M  V30 9229 C 874.608 1.62378 3.22979 0
M  V30 9230 O 874.329 3.01768 3.17597 0
M  V30 9231 C 875.83 1.5111 4.1675 0
M  V30 9232 H 873.05 0.367077 0.56169 0
M  V30 9233 H 875.594 1.59789 1.27624 0
M  V30 9234 H 873.749 1.11092 3.7113 0
M  V30 9235 H 874.163 3.29331 4.08217 0
M  V30 9236 H 875.637 1.96441 5.15863 0
M  V30 9237 H 876.114 0.464011 4.36742 0
M  V30 9238 H 876.72 2.01599 3.74483 0
M  V30 9239 N 875.035 -1.20752 1.01276 0
M  V30 9240 C 876.284 -1.8934 0.695229 0
M  V30 9241 C 876.597 -1.79459 -0.77806 0
M  V30 9242 O 877.803 -2.43146 -1.20799 0
M  V30 9243 C 876.259 -3.39548 1.1931 0
M  V30 9244 C 875.867 -3.58023 2.69302 0
M  V30 9245 C 877.611 -4.13714 0.950823 0
M  V30 9246 C 875.518 -5.02037 3.1259 0
M  V30 9247 H 874.448 -0.709084 0.25635 0
M  V30 9248 H 877.099 -1.36629 1.22494 0
M  V30 9249 H 875.481 -3.91559 0.591395 0
M  V30 9250 H 876.655 -3.16416 3.34989 0
M  V30 9251 H 874.97 -2.97222 2.9163 0
M  V30 9252 H 877.567 -5.19891 1.24971 0
M  V30 9253 H 877.91 -4.16147 -0.112791 0
M  V30 9254 H 878.443 -3.67792 1.51571 0
M  V30 9255 H 875.182 -5.04757 4.18211 0
M  V30 9256 H 874.702 -5.44469 2.51621 0
M  V30 9257 H 876.381 -5.70594 3.0501 0
M  V30 9258 N 876.513 -0.788492 -1.36457 0
M  V30 9259 C 877.929 -0.470063 -1.52521 0
M  V30 9260 C 878.129 1.01176 -1.74258 0
M  V30 9261 O 877.185 1.79726 -1.77355 0
M  V30 9262 C 878.498 -1.2997 -2.71161 0
M  V30 9263 C 880.046 -1.2933 -2.85031 0
M  V30 9264 C 880.521 -2.10665 -4.06674 0
M  V30 9265 N 882.012 -2.08107 -4.13819 0
M  V30 9266 C 882.747 -2.6781 -5.07016 0
M  V30 9267 N 882.243 -3.36369 -6.05663 0
M  V30 9268 N 884.036 -2.57549 -4.99625 0
M  V30 9269 H 876.187 -1.7484 -1.20602 0
M  V30 9270 H 878.45 -0.743159 -0.588574 0
M  V30 9271 H 878.156 -2.35051 -2.61618 0
M  V30 9272 H 878.03 -0.940367 -3.6529 0
M  V30 9273 H 880.417 -0.250414 -2.94036 0
M  V30 9274 H 880.498 -1.69239 -1.91812 0
M  V30 9275 H 880.142 -3.14984 -3.98431 0
M  V30 9276 H 880.072 -1.68128 -4.9904 0
M  V30 9277 H 882.563 -1.58208 -3.43189 0
M  V30 9278 H 882.876 -3.79258 -6.73338 0
M  V30 9279 H 881.221 -3.40471 -6.05891 0
M  V30 9280 H 884.412 -2.0359 -4.21508 0
M  V30 9281 H 884.585 -3.0437 -5.72069 0
M  V30 9282 N 877.991 1.48044 -0.54043 0
M  V30 9283 C 878.901 2.33565 0.220163 0
M  V30 9284 C 879.917 1.47146 0.928659 0
M  V30 9285 O 881.093 1.80107 0.901295 0
M  V30 9286 C 878.158 3.2349 1.2472 0
M  V30 9287 C 877.219 4.25789 0.547938 0
M  V30 9288 C 876.452 5.11417 1.52605 0
M  V30 9289 O 876.675 4.99204 2.75956 0
M  V30 9290 O 875.609 5.92498 1.05972 0
M  V30 9291 H 879.435 2.99868 -0.480898 0
M  V30 9292 H 877.02 1.46332 -0.301226 0
M  V30 9293 H 878.902 3.79084 1.84047 0
M  V30 9294 H 877.577 2.59835 1.93048 0
M  V30 9295 H 876.484 3.74001 -0.0860941 0
M  V30 9296 H 877.817 4.92111 -0.0935896 0
M  V30 9297 N 879.47 0.276058 1.55163 0
M  V30 9298 C 880.4 -0.604633 2.25536 0
M  V30 9299 C 881.381 -1.15813 1.24585 0
M  V30 9300 O 882.566 -1.1921 1.53306 0
M  V30 9301 C 879.696 -1.78836 2.97716 0
M  V30 9302 C 878.65 -1.36635 4.05604 0
M  V30 9303 C 877.976 -2.63325 4.65364 0
M  V30 9304 C 879.276 -0.515858 5.19746 0
M  V30 9305 H 880.97 -0.0177483 2.99395 0
M  V30 9306 H 878.516 -0.00709627 1.43998 0
M  V30 9307 H 880.469 -2.41036 3.45658 0
M  V30 9308 H 879.193 -2.40109 2.21394 0
M  V30 9309 H 877.852 -0.767541 3.58475 0
M  V30 9310 H 877.5 -3.22858 3.85709 0
M  V30 9311 H 877.2 -2.358 5.38212 0
M  V30 9312 H 878.724 -3.26372 5.16056 0
M  V30 9313 H 880.138 -1.04289 5.63735 0
M  V30 9314 H 878.535 -0.335449 5.99162 0
M  V30 9315 H 879.605 0.465137 4.82664 0
M  V30 9316 N 880.948 -1.576 0.00335426 0
M  V30 9317 C 882.188 -1.92571 -0.685253 0
M  V30 9318 C 882.552 -0.877961 -1.70751 0
M  V30 9319 O 883.753 -1.11303 -2.44673 0
M  V30 9320 C 882.024 -3.3258 -1.30863 0
M  V30 9321 S 883.583 -3.89442 -2.02189 0
M  V30 9322 H 880.401 -0.674035 -0.226268 0
M  V30 9323 H 883.003 -1.95405 0.0608461 0
M  V30 9324 H 881.707 -4.06673 -0.551837 0
M  V30 9325 H 881.238 -3.33128 -2.09259 0
M  V30 9326 H 883.253 -3.70789 -3.29742 0
M  V30 9327 N 882.426 0.269451 -1.5528 0
M  V30 9328 C 883.358 1.35553 -1.84819 0
M  V30 9329 C 884.371 1.45369 -0.732914 0
M  V30 9330 O 885.56 1.47122 -1.0108 0
M  V30 9331 C 882.66 2.73645 -1.9993 0
M  V30 9332 C 881.833 2.86376 -3.30617 0
M  V30 9333 C 880.892 4.05165 -3.35749 0
M  V30 9334 O 879.918 3.95756 -4.09104 0
M  V30 9335 N 881.12 5.17297 -2.63408 0
M  V30 9336 H 883.885 1.10557 -2.78563 0
M  V30 9337 H 881.446 0.459566 -1.5524 0
M  V30 9338 H 883.438 3.51411 -2.00729 0
M  V30 9339 H 882.008 2.91448 -1.13035 0
M  V30 9340 H 881.228 1.95465 -3.42326 0
M  V30 9341 H 882.516 2.91815 -4.16799 0
M  V30 9342 H 881.914 5.2783 -2.03501 0
M  V30 9343 H 880.471 5.93281 -2.69927 0
M  V30 9344 N 883.904 1.48273 0.534124 0
M  V30 9345 C 884.814 1.65162 1.66609 0
M  V30 9346 C 885.83 0.534177 1.65598 0
M  V30 9347 O 887.006 0.804715 1.84625 0
M  V30 9348 C 884.071 1.68354 3.03081 0
M  V30 9349 C 883.132 2.91696 3.1498 0
M  V30 9350 C 882.365 2.94725 4.44941 0
M  V30 9351 O 882.588 2.06285 5.31792 0
M  V30 9352 O 881.522 3.8685 4.61119 0
M  V30 9353 H 885.348 2.60991 1.55298 0
M  V30 9354 H 882.933 1.31626 0.706749 0
M  V30 9355 H 884.815 1.72998 3.84252 0
M  V30 9356 H 883.49 0.756978 3.14725 0
M  V30 9357 H 882.397 2.92586 2.33119 0
M  V30 9358 H 883.73 3.83722 3.0825 0
M  V30 9359 N 885.382 -0.782676 1.36792 0
M  V30 9360 C 886.312 -1.90973 1.34356 0
M  V30 9361 C 887.293 -1.6875 0.213917 0
M  V30 9362 O 888.478 -1.89766 0.412601 0
M  V30 9363 C 885.608 -3.28097 1.13884 0
M  V30 9364 C 884.562 -3.6486 2.23744 0
M  V30 9365 C 883.888 -5.00406 1.88408 0
M  V30 9366 C 885.188 -3.72742 3.6587 0
M  V30 9367 H 886.882 -1.93268 2.28665 0
M  V30 9368 H 884.428 -0.928447 1.10072 0
M  V30 9369 H 886.381 -4.06569 1.10813 0
M  V30 9370 H 885.105 -3.26206 0.160275 0
M  V30 9371 H 883.764 -2.88689 2.25952 0
M  V30 9372 H 883.412 -4.95044 0.891083 0
M  V30 9373 H 883.112 -5.25973 2.61966 0
M  V30 9374 H 884.636 -5.81291 1.86905 0
M  V30 9375 H 886.05 -4.4139 3.65852 0
M  V30 9376 H 884.447 -4.09798 4.38389 0
M  V30 9377 H 885.517 -2.73676 4.00287 0
M  V30 9378 N 886.86 -1.21182 -1.00761 0
M  V30 9379 C 887.81 -0.936247 -2.0789 0
M  V30 9380 C 888.794 0.107482 -1.60541 0
M  V30 9381 O 889.986 -0.1011 -1.76711 0
M  V30 9382 C 887.115 -0.499949 -3.3964 0
M  V30 9383 C 886.201 -1.5776 -3.93666 0
M  V30 9384 N 886.592 -2.80208 -4.2109 0
M  V30 9385 C 884.89 -1.44586 -4.21913 0
M  V30 9386 C 885.591 -3.49787 -4.64784 0
M  V30 9387 N 884.567 -2.7722 -4.676 0
M  V30 9388 H 888.369 -1.86659 -2.27015 0
M  V30 9389 H 885.883 -1.10716 -1.1881 0
M  V30 9390 H 887.88 -0.283897 -4.15932 0
M  V30 9391 H 886.54 0.423659 -3.21924 0
M  V30 9392 H 887.551 -3.16776 -4.09724 0
M  V30 9393 H 884.228 -0.587346 -4.13348 0
M  V30 9394 H 885.618 -4.54615 -4.94747 0
M  V30 9395 N 888.338 1.20213 -1.01915 0
M  V30 9396 C 889.615 1.85348 -0.62495 0
M  V30 9397 C 889.995 1.91101 0.896854 0
M  V30 9398 O 889.343 1.42075 1.78961 0
M  V30 9399 C 889.553 3.24849 -1.27571 0
M  V30 9400 C 890.901 4.01107 -1.39277 0
M  V30 9401 O 891.925 3.34211 -1.23212 0
M  V30 9402 O 890.784 5.20914 -1.6526 0
M  V30 9403 H 887.878 0.798303 -0.215965 0
M  V30 9404 H 890.424 1.27782 -1.11669 0
M  V30 9405 H 889.196 3.1544 -2.31545 0
M  V30 9406 H 888.819 3.90049 -0.77122 0
M  V30 9407 N 889.816 0.795718 1.36037 0
M  V30 9408 C 891.063 0.371024 1.99072 0
M  V30 9409 C 891.391 -1.05896 1.63145 0
M  V30 9410 O 890.646 -1.7474 0.881163 0
M  V30 9411 C 890.945 0.489038 3.54038 0
M  V30 9412 C 890.611 1.88075 4.09803 0
M  V30 9413 C 889.273 2.26152 4.24745 0
M  V30 9414 C 891.625 2.79174 4.40126 0
M  V30 9415 C 888.953 3.54718 4.67324 0
M  V30 9416 C 891.305 4.07175 4.8414 0
M  V30 9417 C 889.969 4.45266 4.97287 0
M  V30 9418 H 889.239 0.135767 0.728456 0
M  V30 9419 H 891.886 1.0144 1.62426 0
M  V30 9420 H 890.191 -0.237823 3.91078 0
M  V30 9421 H 891.888 0.141374 4.00751 0
M  V30 9422 H 888.478 1.57488 3.98617 0
M  V30 9423 H 892.662 2.51009 4.28145 0
M  V30 9424 H 887.918 3.84093 4.75691 0
M  V30 9425 H 892.092 4.77875 5.06565 0
M  V30 9426 H 889.719 5.44943 5.30038 0
M  V30 9427 N 891.294 -1.47756 0.548274 0
M  V30 9428 C 892.524 -2.06584 0.0254503 0
M  V30 9429 C 892.932 -1.40268 -1.26971 0
M  V30 9430 O 892.275 -0.49019 -1.77039 0
M  V30 9431 C 892.337 -3.58628 -0.250301 0
M  V30 9432 C 892.001 -4.4693 0.954087 0
M  V30 9433 C 892.998 -4.85592 1.85733 0
M  V30 9434 C 890.683 -4.88573 1.16624 0
M  V30 9435 C 892.677 -5.64686 2.95648 0
M  V30 9436 C 890.364 -5.67435 2.2685 0
M  V30 9437 C 891.362 -6.05401 3.16194 0
M  V30 9438 O 891.05 -6.82676 4.24511 0
M  V30 9439 H 890.782 -0.67489 0.0387264 0
M  V30 9440 H 893.336 -1.90876 0.758663 0
M  V30 9441 H 891.566 -3.72516 -1.03771 0
M  V30 9442 H 893.255 -3.9951 -0.717419 0
M  V30 9443 H 894.021 -4.54026 1.70544 0
M  V30 9444 H 889.9 -4.58494 0.480039 0
M  V30 9445 H 893.444 -5.9424 3.65411 0
M  V30 9446 H 889.341 -5.98413 2.42016 0
M  V30 9447 H 890.109 -7.01057 4.22447 0
M  V30 9448 N 892.772 -0.284283 -1.55015 0
M  V30 9449 C 893.719 0.599194 -2.22886 0
M  V30 9450 C 894.689 1.14264 -1.20553 0
M  V30 9451 O 895.874 1.19025 -1.49123 0
M  V30 9452 C 893.014 1.77317 -2.96062 0
M  V30 9453 C 892.127 1.26271 -4.13134 0
M  V30 9454 C 891.262 2.39922 -4.73931 0
M  V30 9455 C 890.301 1.85925 -5.8318 0
M  V30 9456 N 889.438 2.93084 -6.38002 0
M  V30 9457 H 894.278 0.0137816 -2.97997 0
M  V30 9458 H 891.815 -0.00496503 -1.47099 0
M  V30 9459 H 893.773 2.46339 -3.36709 0
M  V30 9460 H 892.403 2.33047 -2.23358 0
M  V30 9461 H 891.455 0.465296 -3.77544 0
M  V30 9462 H 892.767 0.827284 -4.91892 0
M  V30 9463 H 891.921 3.1692 -5.17346 0
M  V30 9464 H 890.66 2.86784 -3.9447 0
M  V30 9465 H 889.665 1.07409 -5.39206 0
M  V30 9466 H 890.89 1.39987 -6.64515 0
M  V30 9467 H 888.836 3.3931 -5.61431 0
M  V30 9468 H 888.753 2.53986 -7.12058 0
M  V30 9469 H 890.021 3.7003 -6.86075 0
M  V30 9470 N 894.251 1.57596 -0.0117121 0
M  V30 9471 C 895.199 2.1029 0.994035 0
M  V30 9472 C 896.193 1.02549 1.34833 0
M  V30 9473 O 897.399 1.21003 1.3326 0
M  V30 9474 H 893.774 0.671624 0.338268 0
M  V30 9475 H 895.745 2.93761 0.524147 0
M  V30 9476 C 894.494 2.63099 2.27319 0
M  V30 9477 H 893.817 3.45642 2.00927 0
M  V30 9478 H 895.257 3.03635 2.95942 0
M  V30 9479 C 893.716 1.55044 2.99104 0
M  V30 9480 O 894.246 0.940127 3.90544 0
M  V30 9481 N 892.452 1.27506 2.61133 0
M  V30 9482 H 891.999 1.77322 1.86855 0
M  V30 9483 H 891.957 0.554292 3.09475 0
M  V30 9484 N 895.729 -0.261212 1.5542 0
M  V30 9485 C 896.677 -1.34298 1.89913 0
M  V30 9486 C 897.671 -1.50547 0.776665 0
M  V30 9487 O 898.877 -1.52191 0.961139 0
M  V30 9488 H 895.252 -0.4494 0.602946 0
M  V30 9489 H 897.223 -1.02464 2.80256 0
M  V30 9490 C 895.972 -2.69423 2.19788 0
M  V30 9491 H 895.295 -2.57715 3.05652 0
M  V30 9492 H 896.735 -3.44026 2.47835 0
M  V30 9493 C 895.194 -3.21423 1.00939 0
M  V30 9494 O 895.724 -4.00921 0.250034 0
M  V30 9495 N 893.93 -2.7926 0.803883 0
M  V30 9496 H 893.477 -2.14724 1.42308 0
M  V30 9497 H 893.435 -3.14398 0.0103257 0
M  V30 9498 N 897.207 -1.48554 -0.526253 0
M  V30 9499 C 898.155 -1.63804 -1.65139 0
M  V30 9500 C 899.149 -0.504398 -1.61716 0
M  V30 9501 O 900.355 -0.683241 -1.66529 0
M  V30 9502 H 896.73 -0.516071 -0.546969 0
M  V30 9503 H 898.701 -2.58294 -1.49421 0
M  V30 9504 C 897.45 -1.69843 -3.03395 0
M  V30 9505 H 896.773 -2.56438 -3.06724 0
M  V30 9506 H 898.213 -1.84555 -3.81727 0
M  V30 9507 C 896.672 -0.437875 -3.34042 0
M  V30 9508 O 897.202 0.447604 -3.99198 0
M  V30 9509 N 895.408 -0.308444 -2.88958 0
M  V30 9510 H 894.955 -1.02998 -2.36112 0
M  V30 9511 H 894.913 0.533952 -3.09833 0
M  V30 9512 N 898.685 0.775411 -1.37205 0
M  V30 9513 C 899.913 1.56446 -1.35397 0
M  V30 9514 C 900.328 1.887 0.0615437 0
M  V30 9515 O 899.685 1.51178 1.02233 0
M  V30 9516 C 899.736 2.87697 -2.18889 0
M  V30 9517 O 899.457 2.56828 -3.54924 0
M  V30 9518 C 900.958 3.81944 -2.25019 0
M  V30 9519 H 898.178 0.484792 -0.463916 0
M  V30 9520 H 900.722 0.961346 -1.80495 0
M  V30 9521 H 898.877 3.44442 -1.7731 0
M  V30 9522 H 899.291 3.40851 -3.98649 0
M  V30 9523 H 900.765 4.71055 -2.87769 0
M  V30 9524 H 901.242 4.20811 -1.25757 0
M  V30 9525 H 901.848 3.3113 -2.66895 0
M  V30 9526 N 900.163 1.21714 1.00117 0
M  V30 9527 C 901.41 1.0367 1.73951 0
M  V30 9528 C 901.738 -0.429289 1.89703 0
M  V30 9529 O 900.993 -1.33475 1.43119 0
M  V30 9530 C 901.292 1.68345 3.15269 0
M  V30 9531 C 900.958 3.18214 3.19454 0
M  V30 9532 C 899.62 3.59109 3.20303 0
M  V30 9533 C 901.972 4.14179 3.16394 0
M  V30 9534 C 899.3 4.94467 3.15783 0
M  V30 9535 C 901.652 5.49502 3.13416 0
M  V30 9536 C 900.316 5.8979 3.12577 0
M  V30 9537 H 899.586 0.379355 0.63653 0
M  V30 9538 H 902.233 1.51361 1.17312 0
M  V30 9539 H 900.538 1.12957 3.75164 0
M  V30 9540 H 902.235 1.51882 3.71124 0
M  V30 9541 H 898.825 2.85646 3.19538 0
M  V30 9542 H 903.009 3.83607 3.14895 0
M  V30 9543 H 898.265 5.24923 3.13473 0
M  V30 9544 H 902.439 6.23595 3.10003 0
M  V30 9545 H 900.066 6.94643 3.08829 0
M  V30 9546 N 901.641 -1.19671 1.02551 0
M  V30 9547 C 902.869 -1.93233 0.739513 0
M  V30 9548 C 903.284 -1.75298 -0.701158 0
M  V30 9549 O 902.641 -1.07269 -1.47647 0
M  V30 9550 C 902.692 -3.45085 1.07697 0
M  V30 9551 O 902.413 -3.62441 2.46106 0
M  V30 9552 C 903.914 -4.35776 0.813298 0
M  V30 9553 H 901.134 -0.613905 0.270853 0
M  V30 9554 H 903.678 -1.51909 1.36909 0
M  V30 9555 H 901.833 -3.84255 0.492635 0
M  V30 9556 H 902.247 -4.56337 2.58567 0
M  V30 9557 H 903.721 -5.40941 1.09941 0
M  V30 9558 H 904.198 -4.38474 -0.252359 0
M  V30 9559 H 904.804 -4.02282 1.38021 0
M  V30 9560 N 903.119 -0.802921 -1.35613 0
M  V30 9561 C 904.349 -0.393359 -2.02821 0
M  V30 9562 C 904.757 0.999282 -1.60658 0
M  V30 9563 O 904.1 1.65463 -0.797977 0
M  V30 9564 C 904.162 -0.393102 -3.57344 0
M  V30 9565 C 903.826 -1.73563 -4.22759 0
M  V30 9566 C 904.823 -2.69333 -4.44698 0
M  V30 9567 C 902.508 -2.01863 -4.59953 0
M  V30 9568 C 904.502 -3.91589 -5.02928 0
M  V30 9569 C 902.189 -3.24383 -5.17898 0
M  V30 9570 C 903.187 -4.19064 -5.39328 0
M  V30 9571 O 902.875 -5.39422 -5.96053 0
M  V30 9572 H 902.607 -0.158431 -0.657172 0
M  V30 9573 H 905.161 -1.08682 -1.74291 0
M  V30 9574 H 903.391 0.356934 -3.85049 0
M  V30 9575 H 905.08 -0.00635596 -4.059 0
M  V30 9576 H 905.846 -2.48759 -4.16346 0
M  V30 9577 H 901.725 -1.28979 -4.42589 0
M  V30 9578 H 905.269 -4.65502 -5.1957 0
M  V30 9579 H 901.166 -3.44829 -5.45677 0
M  V30 9580 H 901.934 -5.40669 -6.14507 0
M  V30 9581 N 904.597 1.47463 -0.556102 0
M  V30 9582 C 905.529 2.28046 0.22968 0
M  V30 9583 C 906.542 1.3694 0.880409 0
M  V30 9584 O 907.731 1.61773 0.754447 0
M  V30 9585 C 904.831 3.11165 1.34273 0
M  V30 9586 C 904.004 4.30225 0.789004 0
M  V30 9587 C 903.063 4.94948 1.78641 0
M  V30 9588 O 902.089 5.53372 1.33297 0
M  V30 9589 N 903.291 4.89543 3.11974 0
M  V30 9590 H 906.056 2.96125 -0.461558 0
M  V30 9591 H 903.617 1.5708 -0.392105 0
M  V30 9592 H 905.609 3.51331 2.00869 0
M  V30 9593 H 904.179 2.45337 1.93722 0
M  V30 9594 H 903.399 3.94163 -0.0536971 0
M  V30 9595 H 904.687 5.07238 0.398378 0
M  V30 9596 H 904.085 4.43275 3.51459 0
M  V30 9597 H 902.642 5.33732 3.74131 0
M  V30 9598 N 906.075 0.2925 1.54862 0
M  V30 9599 C 907.022 -0.587365 2.23201 0
M  V30 9600 C 907.992 -1.13623 1.21157 0
M  V30 9601 O 909.177 -1.18233 1.49752 0
M  V30 9602 C 906.317 -1.75745 2.96998 0
M  V30 9603 C 905.43 -1.24078 4.13798 0
M  V30 9604 C 904.565 -2.37405 4.75197 0
M  V30 9605 C 903.604 -1.82829 5.84157 0
M  V30 9606 N 902.741 -2.89696 6.39547 0
M  V30 9607 H 907.581 0.00202207 2.98 0
M  V30 9608 H 905.118 0.012766 1.47094 0
M  V30 9609 H 907.076 -2.44549 3.38011 0
M  V30 9610 H 905.706 -2.3186 2.24591 0
M  V30 9611 H 904.758 -0.445268 3.77785 0
M  V30 9612 H 906.07 -0.801186 4.92324 0
M  V30 9613 H 905.224 -3.14172 5.19019 0
M  V30 9614 H 903.963 -2.84688 3.95985 0
M  V30 9615 H 902.968 -1.04548 5.39768 0
M  V30 9616 H 904.193 -1.36461 6.65248 0
M  V30 9617 H 902.139 -3.36328 5.63222 0
M  V30 9618 H 902.056 -2.50206 7.13395 0
M  V30 9619 H 903.324 -3.66386 6.88027 0
M  V30 9620 N 907.553 -1.57587 0.0200696 0
M  V30 9621 C 908.969 -1.56018 -0.336237 0
M  V30 9622 C 909.169 -1.02478 -1.73495 0
M  V30 9623 O 908.225 -0.667487 -2.43518 0
M  V30 9624 C 909.538 -3.00079 -0.193112 0
M  V30 9625 C 911.086 -3.11863 -0.266557 0
M  V30 9626 C 911.561 -4.57747 -0.152326 0
M  V30 9627 N 913.052 -4.62726 -0.209596 0
M  V30 9628 C 913.787 -5.73217 -0.144855 0
M  V30 9629 N 913.283 -6.92794 -0.0295487 0
M  V30 9630 N 915.076 -5.61751 -0.198184 0
M  V30 9631 H 907.227 -1.90722 0.93482 0
M  V30 9632 H 909.49 -0.876909 0.360186 0
M  V30 9633 H 909.196 -3.43167 0.770036 0
M  V30 9634 H 909.07 -3.64593 -0.967029 0
M  V30 9635 H 911.457 -2.68693 -1.22016 0
M  V30 9636 H 911.538 -2.50087 0.53758 0
M  V30 9637 H 911.182 -5.01595 0.797817 0
M  V30 9638 H 911.112 -5.17491 -0.97521 0
M  V30 9639 H 913.603 -3.76713 -0.299229 0
M  V30 9640 H 913.916 -7.72799 0.0134071 0
M  V30 9641 H 912.261 -6.95 0.00510737 0
M  V30 9642 H 915.452 -4.67222 -0.286603 0
M  V30 9643 H 915.625 -6.47839 -0.144266 0
M  V30 9644 N 909.032 0.252966 -1.55557 0
M  V30 9645 C 909.962 1.31691 -1.9282 0
M  V30 9646 C 910.943 1.50516 -0.7924 0
M  V30 9647 O 912.128 1.63225 -1.05219 0
M  V30 9648 C 909.258 2.67281 -2.21762 0
M  V30 9649 C 908.212 2.6316 -3.37536 0
M  V30 9650 C 907.538 4.02488 -3.52005 0
M  V30 9651 C 908.838 2.20675 -4.73392 0
M  V30 9652 H 910.532 1.00751 -2.81939 0
M  V30 9653 H 908.078 0.483219 -1.3565 0
M  V30 9654 H 910.031 3.41842 -2.46419 0
M  V30 9655 H 908.755 2.99845 -1.29463 0
M  V30 9656 H 907.414 1.91057 -3.12878 0
M  V30 9657 H 907.062 4.32307 -2.57137 0
M  V30 9658 H 906.762 4.00621 -4.29857 0
M  V30 9659 H 908.286 4.78758 -3.78977 0
M  V30 9660 H 909.7 2.84965 -4.97461 0
M  V30 9661 H 908.097 2.29931 -5.54303 0
M  V30 9662 H 909.167 1.15831 -4.70862 0
M  V30 9663 N 910.51 1.48831 0.518367 0
M  V30 9664 C 911.757 1.57439 1.27355 0
M  V30 9665 C 912.085 0.25338 1.92843 0
M  V30 9666 O 911.34 -0.757323 1.80452 0
M  V30 9667 C 911.639 2.67003 2.3758 0
M  V30 9668 C 911.305 4.09069 1.89667 0
M  V30 9669 C 909.967 4.47733 1.76319 0
M  V30 9670 C 912.319 4.98052 1.53603 0
M  V30 9671 C 909.647 5.73173 1.25258 0
M  V30 9672 C 911.999 6.23992 1.04001 0
M  V30 9673 C 910.663 6.61503 0.892784 0
M  V30 9674 H 909.933 0.57611 0.466023 0
M  V30 9675 H 912.58 1.82595 0.577166 0
M  V30 9676 H 910.885 2.35751 3.12936 0
M  V30 9677 H 912.582 2.70876 2.95681 0
M  V30 9678 H 909.172 3.7854 2.01011 0
M  V30 9679 H 913.356 4.68849 1.62771 0
M  V30 9680 H 908.612 6.0095 1.12557 0
M  V30 9681 H 912.786 6.92331 0.751706 0
M  V30 9682 H 910.413 7.58587 0.494939 0
M  V30 9683 N 911.988 -0.768124 1.37614 0
M  V30 9684 C 912.918 -1.89537 1.36374 0
M  V30 9685 C 913.899 -1.68513 0.231803 0
M  V30 9686 O 915.084 -1.89318 0.432705 0
M  V30 9687 C 912.214 -3.26871 1.17358 0
M  V30 9688 C 911.168 -3.62466 2.27602 0
M  V30 9689 C 910.494 -4.9838 1.93705 0
M  V30 9690 C 911.794 -3.68841 3.69802 0
M  V30 9691 H 913.488 -1.90832 2.30702 0
M  V30 9692 H 911.034 -0.91672 1.11051 0
M  V30 9693 H 912.987 -4.05371 1.15119 0
M  V30 9694 H 911.711 -3.26018 0.194865 0
M  V30 9695 H 910.37 -2.86276 2.29002 0
M  V30 9696 H 910.018 -4.94071 0.943539 0
M  V30 9697 H 909.718 -5.23165 2.6753 0
M  V30 9698 H 911.242 -5.79276 1.93059 0
M  V30 9699 H 912.656 -4.37485 3.70513 0
M  V30 9700 H 911.053 -4.05126 4.42711 0
M  V30 9701 H 912.123 -2.69415 4.03167 0
M  V30 9702 N 913.466 -1.22244 -0.994698 0
M  V30 9703 C 914.882 -0.982006 -1.25813 0
M  V30 9704 C 915.082 0.325488 -1.98854 0
M  V30 9705 O 914.138 1.04857 -2.29698 0
M  V30 9706 C 915.451 -2.1795 -2.07167 0
M  V30 9707 C 916.999 -2.22287 -2.20358 0
M  V30 9708 C 917.474 -3.41583 -3.05098 0
M  V30 9709 N 918.965 -3.41734 -3.12686 0
M  V30 9710 C 919.7 -4.30692 -3.78539 0
M  V30 9711 N 919.196 -5.29865 -4.46335 0
M  V30 9712 N 920.989 -4.18473 -3.75283 0
M  V30 9713 H 913.14 -2.0631 -0.504963 0
M  V30 9714 H 915.403 -0.90395 -0.285618 0
M  V30 9715 H 915.109 -3.12758 -1.60858 0
M  V30 9716 H 914.983 -2.17862 -3.07922 0
M  V30 9717 H 917.37 -1.28028 -2.65881 0
M  V30 9718 H 917.451 -2.26414 -1.19039 0
M  V30 9719 H 917.095 -4.36141 -2.60275 0
M  V30 9720 H 917.025 -3.34695 -4.06555 0
M  V30 9721 H 919.516 -2.69969 -2.64433 0
M  V30 9722 H 919.829 -5.94027 -4.9432 0
M  V30 9723 H 918.174 -5.3378 -4.45089 0
M  V30 9724 H 921.365 -3.40249 -3.21478 0
M  V30 9725 H 921.538 -4.88007 -4.26326 0
M  V30 9726 N 914.944 1.19125 -1.03184 0
M  V30 9727 C 915.854 2.26112 -0.625329 0
M  V30 9728 C 916.87 1.7056 0.344298 0
M  V30 9729 O 918.046 2.0039 0.20144 0
M  V30 9730 C 915.111 3.46697 0.0145169 0
M  V30 9731 C 914.172 4.17419 -1.00299 0
M  V30 9732 C 913.405 5.32247 -0.393581 0
M  V30 9733 O 913.628 5.64724 0.802659 0
M  V30 9734 O 912.562 5.91428 -1.1179 0
M  V30 9735 H 916.388 2.63131 -1.51643 0
M  V30 9736 H 913.973 1.26036 -0.802197 0
M  V30 9737 H 915.855 4.19762 0.371139 0
M  V30 9738 H 914.53 3.11521 0.879581 0
M  V30 9739 H 913.437 3.4646 -1.41125 0
M  V30 9740 H 914.77 4.56573 -1.83852 0
M  V30 9741 N 916.422 0.810101 1.35185 0
M  V30 9742 C 917.669 0.392117 1.98667 0
M  V30 9743 C 917.997 -1.0416 1.64259 0
M  V30 9744 O 917.252 -1.73795 0.899647 0
M  V30 9745 C 917.551 0.526561 3.535 0
M  V30 9746 C 917.217 1.92411 4.07785 0
M  V30 9747 C 915.879 2.30644 4.22323 0
M  V30 9748 C 918.231 2.83827 4.37141 0
M  V30 9749 C 915.559 3.59655 4.63536 0
M  V30 9750 C 917.911 4.12287 4.79794 0
M  V30 9751 C 916.575 4.50515 4.92536 0
M  V30 9752 H 915.845 0.143486 0.726975 0
M  V30 9753 H 918.492 1.03157 1.61341 0
M  V30 9754 H 916.797 -0.19633 3.91308 0
M  V30 9755 H 918.494 0.183871 4.00578 0
M  V30 9756 H 915.084 1.61707 3.96924 0
M  V30 9757 H 919.268 2.55536 4.25459 0
M  V30 9758 H 914.524 3.89117 4.71591 0
M  V30 9759 H 918.698 4.83221 5.01468 0
M  V30 9760 H 916.325 5.50535 5.24229 0
M  V30 9761 N 917.9 -1.47166 0.563914 0
M  V30 9762 C 919.147 -2.02456 0.042371 0
M  V30 9763 C 919.475 -1.43753 -1.31016 0
M  V30 9764 O 918.73 -0.585287 -1.86743 0
M  V30 9765 C 919.029 -3.57279 -0.0931797 0
M  V30 9766 C 918.695 -4.34932 1.18933 0
M  V30 9767 C 917.357 -4.55867 1.54073 0
M  V30 9768 C 919.709 -4.79665 2.03889 0
M  V30 9769 C 917.037 -5.18785 2.74005 0
M  V30 9770 C 919.389 -5.43907 3.23029 0
M  V30 9771 C 918.053 -5.63074 3.58475 0
M  V30 9772 H 917.323 -0.740838 0.0155047 0
M  V30 9773 H 919.97 -1.76759 0.736776 0
M  V30 9774 H 918.275 -3.82005 -0.870596 0
M  V30 9775 H 919.972 -3.97716 -0.512176 0
M  V30 9776 H 916.562 -4.18921 0.905718 0
M  V30 9777 H 920.746 -4.63264 1.78046 0
M  V30 9778 H 916.002 -5.31818 3.01628 0
M  V30 9779 H 920.176 -5.77531 3.89141 0
M  V30 9780 H 917.803 -6.11598 4.515 0
M  V30 9781 N 919.378 -0.300708 -1.54705 0
M  V30 9782 C 920.789 0.191995 -1.8571 0
M  V30 9783 C 921.14 1.53447 -1.22264 0
M  V30 9784 O 920.265 2.10054 -0.520226 0
M  V30 9785 C 920.86 0.355148 -3.36933 0
M  V30 9786 C 919.419 0.792071 -3.67972 0
M  V30 9787 C 918.566 -0.099756 -2.77121 0
M  V30 9788 H 921.517 -0.521729 -1.49879 0
M  V30 9789 H 921.538 1.18977 -3.61421 0
M  V30 9790 H 921.05 -0.622075 -3.83082 0
M  V30 9791 H 919.151 1.77986 -3.27341 0
M  V30 9792 H 919.264 0.611661 -4.75179 0
M  V30 9793 H 917.628 0.420909 -2.51198 0
M  V30 9794 H 918.411 -1.07333 -3.2609 0
M  V30 9795 N 920.856 1.57574 -0.0284266 0
M  V30 9796 C 921.766 2.13637 0.96936 0
M  V30 9797 C 922.782 1.08845 1.35752 0
M  V30 9798 O 923.958 1.40899 1.43908 0
M  V30 9799 C 921.023 2.65179 2.2334 0
M  V30 9800 C 920.084 3.84683 1.90572 0
M  V30 9801 C 919.317 4.33758 3.1095 0
M  V30 9802 O 919.54 3.82009 4.23586 0
M  V30 9803 O 918.474 5.2561 2.93288 0
M  V30 9804 H 922.3 2.99169 0.52267 0
M  V30 9805 H 919.885 1.48159 0.192135 0
M  V30 9806 H 921.767 2.98402 2.97547 0
M  V30 9807 H 920.442 1.82731 2.67191 0
M  V30 9808 H 919.349 3.56386 1.13753 0
M  V30 9809 H 920.682 4.68292 1.51538 0
M  V30 9810 N 922.334 -0.244713 1.55689 0
M  V30 9811 C 923.266 -1.32595 1.86952 0
M  V30 9812 C 924.279 -1.44185 0.755948 0
M  V30 9813 O 925.468 -1.45496 1.03408 0
M  V30 9814 C 922.568 -2.70429 2.04258 0
M  V30 9815 C 921.741 -2.8108 3.35131 0
M  V30 9816 C 920.8 -3.99773 3.42152 0
M  V30 9817 O 919.826 -3.89197 4.15348 0
M  V30 9818 N 921.028 -5.13041 2.71604 0
M  V30 9819 H 923.793 -1.06111 2.80287 0
M  V30 9820 H 921.354 -0.434811 1.55952 0
M  V30 9821 H 923.346 -3.48173 2.06295 0
M  V30 9822 H 921.916 -2.89612 1.17658 0
M  V30 9823 H 921.136 -1.89994 3.45392 0
M  V30 9824 H 922.424 -2.85147 4.21389 0
M  V30 9825 H 921.822 -5.24525 2.11872 0
M  V30 9826 H 920.379 -5.88912 2.79331 0
M  V30 9827 N 923.813 -1.49104 -0.510467 0
M  V30 9828 C 925.061 -1.578 -1.26268 0
M  V30 9829 C 925.382 -0.262349 -1.93227 0
M  V30 9830 O 924.652 0.717624 -1.82283 0
M  V30 9831 H 923.232 -0.581387 -0.46904 0
M  V30 9832 H 925.894 -1.85678 -0.592423 0
M  V30 9833 H 924.99 -2.36919 -2.03165 0
M  V30 9834 N 925.291 0.760815 -1.38019 0
M  V30 9835 C 926.224 1.88212 -1.2904 0
M  V30 9836 C 927.202 1.61721 -0.168805 0
M  V30 9837 O 928.386 1.85318 -0.344893 0
M  V30 9838 C 925.513 3.23672 -0.997702 0
M  V30 9839 C 924.559 3.6906 -2.13769 0
M  V30 9840 S 925.392 3.81445 -3.75845 0
M  V30 9841 C 926.548 5.19736 -3.48748 0
M  V30 9842 H 926.781 1.95541 -2.23944 0
M  V30 9843 H 924.314 0.923051 -1.2377 0
M  V30 9844 H 926.272 4.01904 -0.835657 0
M  V30 9845 H 924.933 3.14031 -0.065967 0
M  V30 9846 H 924.126 4.67295 -1.88816 0
M  V30 9847 H 923.728 2.97961 -2.26043 0
M  V30 9848 H 926.02 6.05259 -3.04414 0
M  V30 9849 H 926.963 5.49706 -4.46351 0
M  V30 9850 H 927.371 4.88191 -2.83425 0
M  V30 9851 N 926.769 1.22769 0.988202 0
M  V30 9852 C 927.699 1.02627 2.09738 0
M  V30 9853 C 928.68 -0.0543211 1.70013 0
M  V30 9854 O 929.865 0.108811 1.93895 0
M  V30 9855 C 926.995 0.608302 3.41931 0
M  V30 9856 C 925.949 1.63536 3.95525 0
M  V30 9857 C 925.275 1.07308 5.23822 0
M  V30 9858 C 926.575 3.02649 4.25677 0
M  V30 9859 H 928.269 1.954 2.26847 0
M  V30 9860 H 925.815 0.940888 1.09011 0
M  V30 9861 H 927.768 0.454478 4.18942 0
M  V30 9862 H 926.492 -0.355095 3.24664 0
M  V30 9863 H 925.151 1.77704 3.20651 0
M  V30 9864 H 924.799 0.100894 5.02899 0
M  V30 9865 H 924.499 1.75925 5.60646 0
M  V30 9866 H 926.023 0.930938 6.03462 0
M  V30 9867 H 927.437 2.91828 4.93467 0
M  V30 9868 H 925.834 3.68434 4.73684 0
M  V30 9869 H 926.904 3.52228 3.33262 0
M  V30 9870 N 928.247 -1.18576 1.03814 0
M  V30 9871 C 929.658 -1.70159 0.768299 0
M  V30 9872 C 930.009 -1.8286 -0.711106 0
M  V30 9873 O 929.134 -1.5063 -1.55369 0
M  V30 9874 C 929.729 -3.09062 1.38804 0
M  V30 9875 C 928.288 -3.57866 1.16656 0
M  V30 9876 C 927.435 -2.34484 1.48029 0
M  V30 9877 H 930.386 -1.03287 1.20488 0
M  V30 9878 H 930.407 -3.72211 0.7899 0
M  V30 9879 H 929.919 -2.99785 2.46476 0
M  V30 9880 H 928.02 -3.72442 0.108471 0
M  V30 9881 H 928.133 -4.41445 1.8618 0
M  V30 9882 H 926.497 -2.38273 0.899902 0
M  V30 9883 H 927.28 -2.27829 2.56805 0
M  V30 9884 N 929.725 -0.817259 -1.34754 0
M  V30 9885 C 930.955 -0.414849 -2.02392 0
M  V30 9886 C 931.363 0.982186 -1.61709 0
M  V30 9887 O 930.706 1.64607 -0.815481 0
M  V30 9888 C 930.768 -0.430981 -3.56907 0
M  V30 9889 C 930.432 -1.78037 -4.20894 0
M  V30 9890 C 931.429 -2.74034 -4.41816 0
M  V30 9891 C 929.114 -2.0673 -4.57786 0
M  V30 9892 C 931.108 -3.96901 -4.98747 0
M  V30 9893 C 928.795 -3.29858 -5.14429 0
M  V30 9894 C 929.793 -4.24761 -5.34853 0
M  V30 9895 O 929.481 -5.45714 -5.90298 0
M  V30 9896 H 929.213 -0.165392 -0.655455 0
M  V30 9897 H 931.767 -1.10524 -1.73129 0
M  V30 9898 H 929.997 0.316074 -3.85406 0
M  V30 9899 H 931.686 -0.0494067 -4.0587 0
M  V30 9900 H 932.452 -2.53161 -4.13684 0
M  V30 9901 H 928.331 -1.33666 -4.41197 0
M  V30 9902 H 931.875 -4.70987 -5.14604 0
M  V30 9903 H 927.772 -3.50597 -5.41989 0
M  V30 9904 H 928.54 -5.47157 -6.08738 0
M  V30 9905 N 931.203 1.46865 -0.571711 0
M  V30 9906 C 932.113 2.33979 0.170571 0
M  V30 9907 C 933.129 1.49083 0.897239 0
M  V30 9908 O 934.305 1.81979 0.862888 0
M  V30 9909 C 931.37 3.26063 1.17831 0
M  V30 9910 C 930.431 4.26855 0.457499 0
M  V30 9911 C 929.664 5.14539 1.41722 0
M  V30 9912 O 929.887 5.04945 2.65305 0
M  V30 9913 O 928.821 5.94612 0.9338 0
M  V30 9914 H 932.647 2.98781 -0.544396 0
M  V30 9915 H 930.232 1.4566 -0.332198 0
M  V30 9916 H 932.114 3.82903 1.75965 0
M  V30 9917 H 930.789 2.63871 1.87493 0
M  V30 9918 H 929.696 3.73734 -0.165406 0
M  V30 9919 H 931.029 4.91802 -0.197953 0
M  V30 9920 N 932.681 0.308908 1.54543 0
M  V30 9921 C 933.644 -0.550857 2.22482 0
M  V30 9922 C 934.644 -1.0551 1.21344 0
M  V30 9923 O 935.834 -0.949866 1.46025 0
M  V30 9924 C 932.966 -1.76354 2.9174 0
M  V30 9925 H 934.159 0.0428395 2.99869 0
M  V30 9926 H 931.712 0.059825 1.56185 0
M  V30 9927 H 932.447 -2.39686 2.18451 0
M  V30 9928 H 932.232 -1.40954 3.65889 0
M  V30 9929 H 933.722 -2.37417 3.43545 0
M  V30 9930 N 934.159 -1.57557 0.0367827 0
M  V30 9931 C 935.575 -1.56366 -0.31967 0
M  V30 9932 C 935.775 -1.04313 -1.72398 0
M  V30 9933 O 934.831 -0.693278 -2.42796 0
M  V30 9934 C 936.144 -3.00267 -0.161274 0
M  V30 9935 C 937.692 -3.12128 -0.233464 0
M  V30 9936 C 938.167 -4.57882 -0.103767 0
M  V30 9937 N 939.658 -4.62922 -0.160506 0
M  V30 9938 C 940.393 -5.73338 -0.0840493 0
M  V30 9939 N 939.889 -6.92786 0.043933 0
M  V30 9940 N 941.682 -5.61929 -0.138592 0
M  V30 9941 H 933.833 -1.8972 0.954996 0
M  V30 9942 H 936.096 -0.87304 0.369467 0
M  V30 9943 H 935.802 -3.42331 0.80639 0
M  V30 9944 H 935.676 -3.65599 -0.928304 0
M  V30 9945 H 938.063 -2.69972 -1.19159 0
M  V30 9946 H 938.144 -2.49503 0.564075 0
M  V30 9947 H 937.788 -5.0072 0.850973 0
M  V30 9948 H 937.718 -5.18496 -0.920268 0
M  V30 9949 H 940.209 -3.7701 -0.259257 0
M  V30 9950 H 940.522 -7.72741 0.095372 0
M  V30 9951 H 938.867 -6.94955 0.0788211 0
M  V30 9952 H 942.058 -4.67499 -0.237031 0
M  V30 9953 H 942.231 -6.47956 -0.075546 0
M  V30 9954 N 935.637 0.236453 -1.55816 0
M  V30 9955 C 936.569 1.31602 -1.87653 0
M  V30 9956 C 937.582 1.43782 -0.763584 0
M  V30 9957 O 938.771 1.44945 -1.04178 0
M  V30 9958 C 935.871 2.69342 -2.05689 0
M  V30 9959 C 935.044 2.79298 -3.36617 0
M  V30 9960 C 934.103 3.97952 -3.44268 0
M  V30 9961 O 933.129 3.86989 -4.17406 0
M  V30 9962 N 934.331 5.11594 -2.74321 0
M  V30 9963 H 937.096 1.04623 -2.80845 0
M  V30 9964 H 934.657 0.426534 -1.5618 0
M  V30 9965 H 936.649 3.47074 -2.08138 0
M  V30 9966 H 935.219 2.88984 -1.19192 0
M  V30 9967 H 934.439 1.8816 -3.46395 0
M  V30 9968 H 935.727 2.82908 -4.22895 0
M  V30 9969 H 935.125 5.23394 -2.14651 0
M  V30 9970 H 933.682 5.87422 -2.8245 0
M  V30 9971 N 937.115 1.49373 0.502552 0
M  V30 9972 C 938.025 1.68659 1.63068 0
M  V30 9973 C 939.041 0.569182 1.64427 0
M  V30 9974 O 940.217 0.843695 1.82876 0
M  V30 9975 C 937.282 1.74745 2.99441 0
M  V30 9976 C 936.343 2.98311 3.08721 0
M  V30 9977 C 935.576 3.04097 4.38589 0
M  V30 9978 O 935.799 2.17519 5.27297 0
M  V30 9979 O 934.733 3.96544 4.52809 0
M  V30 9980 H 938.559 2.64226 1.49727 0
M  V30 9981 H 936.144 1.33096 0.67867 0
M  V30 9982 H 938.026 1.8111 3.80496 0
M  V30 9983 H 936.701 0.823565 3.13048 0
M  V30 9984 H 935.608 2.97465 2.2686 0
M  V30 9985 H 936.941 3.90174 3.00041 0
M  V30 9986 N 938.594 -0.753485 1.38421 0
M  V30 9987 C 939.841 -1.51261 1.34634 0
M  V30 9988 C 940.169 -1.94396 -0.0635771 0
M  V30 9989 O 939.424 -1.65736 -1.04068 0
M  V30 9990 C 939.723 -2.77836 2.24816 0
M  V30 9991 C 939.389 -2.53662 3.72782 0
M  V30 9992 C 938.051 -2.46779 4.13103 0
M  V30 9993 C 940.403 -2.32548 4.66445 0
M  V30 9994 C 937.731 -2.16796 5.45176 0
M  V30 9995 C 940.083 -2.04085 5.98775 0
M  V30 9996 C 938.747 -1.95658 6.3818 0
M  V30 9997 H 938.017 -0.553503 0.492661 0
M  V30 9998 H 940.664 -0.866406 1.7078 0
M  V30 9999 H 938.969 -3.47106 1.81726 0
M  V30 10000 H 940.666 -3.35793 2.19189 0
M  V30 10001 H 937.256 -2.59891 3.40815 0
M  V30 10002 H 941.44 -2.36845 4.3614 0
M  V30 10003 H 936.696 -2.0878 5.74648 0
M  V30 10004 H 940.87 -1.86751 6.70893 0
M  V30 10005 H 938.497 -1.7219 7.40442 0
M  V30 10006 N 940.072 -1.23292 -0.981677 0
M  V30 10007 C 941.321 -1.05832 -1.71705 0
M  V30 10008 C 941.634 0.40514 -1.91358 0
M  V30 10009 O 942.84 0.699645 -2.6233 0
M  V30 10010 C 941.296 -1.84532 -3.08992 0
M  V30 10011 C 940.904 -3.35199 -2.9723 0
M  V30 10012 C 942.648 -1.75557 -3.86497 0
M  V30 10013 C 940.555 -4.06296 -4.29741 0
M  V30 10014 H 939.485 -0.39241 -0.64384 0
M  V30 10015 H 942.136 -1.47247 -1.09502 0
M  V30 10016 H 940.518 -1.35923 -3.71942 0
M  V30 10017 H 941.692 -3.91286 -2.43377 0
M  V30 10018 H 940.007 -3.44973 -2.332 0
M  V30 10019 H 942.604 -2.25989 -4.84596 0
M  V30 10020 H 942.947 -0.718101 -4.1006 0
M  V30 10021 H 943.48 -2.21771 -3.30246 0
M  V30 10022 H 940.219 -5.10344 -4.11375 0
M  V30 10023 H 939.739 -3.54997 -4.83464 0
M  V30 10024 H 941.418 -4.12519 -4.98434 0
M  V30 10025 N 941.55 1.18024 -1.04442 0
M  V30 10026 C 942.966 1.40107 -0.76435 0
M  V30 10027 C 943.166 1.90914 0.644516 0
M  V30 10028 O 942.222 2.0959 1.40813 0
M  V30 10029 C 943.535 2.39851 -1.81361 0
M  V30 10030 C 945.083 2.53571 -1.83496 0
M  V30 10031 C 945.558 3.56583 -2.87424 0
M  V30 10032 N 947.049 3.64094 -2.86339 0
M  V30 10033 C 947.784 4.43537 -3.63405 0
M  V30 10034 N 947.28 5.26557 -4.50233 0
M  V30 10035 N 949.073 4.38336 -3.51877 0
M  V30 10036 H 941.224 0.833726 -1.95353 0
M  V30 10037 H 943.487 0.42881 -0.845474 0
M  V30 10038 H 943.193 2.09576 -2.82438 0
M  V30 10039 H 943.067 3.39251 -1.6489 0
M  V30 10040 H 945.454 2.83161 -0.830883 0
M  V30 10041 H 945.535 1.54272 -2.04044 0
M  V30 10042 H 945.179 3.27733 -3.88012 0
M  V30 10043 H 945.109 4.55569 -2.6413 0
M  V30 10044 H 947.6 3.04814 -2.23376 0
M  V30 10045 H 947.913 5.84336 -5.05738 0
M  V30 10046 H 946.258 5.25964 -4.54298 0
M  V30 10047 H 949.449 3.72528 -2.83444 0
M  V30 10048 H 949.622 5.00007 -4.12186 0
M  V30 10049 N 943.028 0.824394 1.34319 0
M  V30 10050 C 943.976 0.235628 2.31403 0
M  V30 10051 C 944.97 -0.624443 1.57471 0
M  V30 10052 O 946.176 -0.515618 1.72457 0
M  V30 10053 H 942.551 0.0574537 0.749802 0
M  V30 10054 H 944.522 1.06925 2.78585 0
M  V30 10055 C 943.271 -0.586617 3.42716 0
M  V30 10056 H 942.594 0.0658669 3.99746 0
M  V30 10057 H 944.034 -0.964661 4.1288 0
M  V30 10058 C 942.493 -1.75957 2.87299 0
M  V30 10059 O 943.023 -2.8578 2.82299 0
M  V30 10060 N 941.229 -1.57678 2.44102 0
M  V30 10061 H 940.776 -0.683436 2.48369 0
M  V30 10062 H 940.734 -2.36311 2.07375 0
M  V30 10063 N 944.506 -1.46559 0.579492 0
M  V30 10064 C 945.456 -2.27316 -0.17645 0
M  V30 10065 C 946.44 -1.35681 -0.864835 0
M  V30 10066 O 947.632 -1.59879 -0.759462 0
M  V30 10067 C 944.761 -3.21957 -1.19157 0
M  V30 10068 C 943.847 -4.21077 -0.505459 0
M  V30 10069 N 944.238 -5.03908 0.437133 0
M  V30 10070 C 942.536 -4.39535 -0.75661 0
M  V30 10071 C 943.237 -5.75635 0.837819 0
M  V30 10072 N 942.213 -5.43276 0.187679 0
M  V30 10073 H 946.015 -2.88747 0.547932 0
M  V30 10074 H 943.529 -1.5737 0.401048 0
M  V30 10075 H 945.526 -3.78518 -1.74728 0
M  V30 10076 H 944.186 -2.62085 -1.9168 0
M  V30 10077 H 945.197 -5.11487 0.812488 0
M  V30 10078 H 941.874 -3.90815 -1.46867 0
M  V30 10079 H 943.264 -6.52235 1.61364 0
M  V30 10080 N 945.984 -0.3171 -1.54377 0
M  V30 10081 C 946.932 0.567371 -2.25574 0
M  V30 10082 C 947.926 1.12387 -1.2675 0
M  V30 10083 O 949.132 1.07266 -1.44548 0
M  V30 10084 H 945.507 0.201605 -0.724472 0
M  V30 10085 H 947.478 -0.0554644 -2.98348 0
M  V30 10086 C 946.227 1.71984 -3.02187 0
M  V30 10087 H 945.55 1.30086 -3.78044 0
M  V30 10088 H 946.99 2.31443 -3.5526 0
M  V30 10089 C 945.449 2.6336 -2.10103 0
M  V30 10090 O 945.979 3.64899 -1.67962 0
M  V30 10091 N 944.185 2.3145 -1.75725 0
M  V30 10092 H 943.732 1.48921 -2.10191 0
M  V30 10093 H 943.69 2.92852 -1.14391 0
M  V30 10094 N 947.462 1.57535 -0.0451378 0
M  V30 10095 C 948.409 2.11176 0.931313 0
M  V30 10096 C 949.379 1.01765 1.31275 0
M  V30 10097 O 950.564 1.29279 1.40327 0
M  V30 10098 C 947.704 2.65639 2.20295 0
M  V30 10099 C 946.817 3.89114 1.87654 0
M  V30 10100 C 945.952 4.31914 3.09232 0
M  V30 10101 C 944.991 5.48105 2.72484 0
M  V30 10102 N 944.128 5.85986 3.86736 0
M  V30 10103 H 948.968 2.94318 0.466986 0
M  V30 10104 H 946.505 1.45462 0.218886 0
M  V30 10105 H 948.463 2.95312 2.94697 0
M  V30 10106 H 947.093 1.85303 2.64316 0
M  V30 10107 H 946.145 3.6607 1.03427 0
M  V30 10108 H 947.457 4.7358 1.56601 0
M  V30 10109 H 946.611 4.63108 3.91939 0
M  V30 10110 H 945.35 3.46247 3.43459 0
M  V30 10111 H 944.355 5.16589 1.88192 0
M  V30 10112 H 945.58 6.35482 2.39455 0
M  V30 10113 H 943.526 5.03273 4.20775 0
M  V30 10114 H 943.443 6.65129 3.5936 0
M  V30 10115 H 944.711 6.21793 4.701 0
M  V30 10116 N 948.94 -0.228186 1.55939 0
M  V30 10117 C 949.87 -1.28607 1.94891 0
M  V30 10118 C 950.851 -1.49236 0.816245 0
M  V30 10119 O 952.036 -1.61531 1.07803 0
M  V30 10120 C 949.166 -2.63719 2.25986 0
M  V30 10121 C 948.12 -2.57757 3.4168 0
M  V30 10122 C 947.446 -3.96837 3.58364 0
M  V30 10123 C 948.746 -2.13116 4.76843 0
M  V30 10124 H 950.44 -0.962531 2.83506 0
M  V30 10125 H 947.986 -0.461577 1.36402 0
M  V30 10126 H 949.939 -3.37878 2.51826 0
M  V30 10127 H 948.663 -2.97747 1.34217 0
M  V30 10128 H 947.322 -1.86055 3.15878 0
M  V30 10129 H 946.97 -4.28162 2.63982 0
M  V30 10130 H 946.67 -3.93731 4.36176 0
M  V30 10131 H 948.194 -4.72668 3.86545 0
M  V30 10132 H 949.608 -2.77015 5.01932 0
M  V30 10133 H 948.005 -2.21083 5.57891 0
M  V30 10134 H 949.075 -1.08326 4.72645 0
M  V30 10135 N 950.418 -1.49637 -0.494624 0
M  V30 10136 C 951.664 -1.59681 -1.25019 0
M  V30 10137 C 951.997 -0.285511 -1.9209 0
M  V30 10138 O 951.272 0.711398 -1.81023 0
M  V30 10139 C 951.555 -2.76058 -2.31222 0
M  V30 10140 C 951.408 -4.17002 -1.68611 0
M  V30 10141 C 952.727 -2.88056 -3.32734 0
M  V30 10142 H 949.846 -0.581209 -0.453172 0
M  V30 10143 H 952.488 -1.81944 -0.547391 0
M  V30 10144 H 950.638 -2.57207 -2.91164 0
M  V30 10145 H 952.31 -4.47385 -1.12447 0
M  V30 10146 H 950.553 -4.22352 -0.989991 0
M  V30 10147 H 951.224 -4.94316 -2.45674 0
M  V30 10148 H 953.7 -3.05237 -2.82789 0
M  V30 10149 H 952.576 -3.71151 -4.04399 0
M  V30 10150 H 952.837 -1.97676 -3.95445 0
M  V30 10151 N 951.896 0.746133 -1.38819 0
M  V30 10152 C 953.307 1.32384 -1.31648 0
M  V30 10153 C 953.658 1.96185 0.0243086 0
M  V30 10154 O 952.783 1.95567 0.92641 0
M  V30 10155 C 953.378 2.40712 -2.38418 0
M  V30 10156 C 951.937 2.94185 -2.34803 0
M  V30 10157 C 951.084 1.67639 -2.20891 0
M  V30 10158 H 954.035 0.544457 -1.49068 0
M  V30 10159 H 954.056 3.20833 -2.04564 0
M  V30 10160 H 953.568 1.94247 -3.3599 0
M  V30 10161 H 951.669 3.44959 -1.40834 0
M  V30 10162 H 951.782 3.48057 -3.29231 0
M  V30 10163 H 950.146 1.9155 -1.67871 0
M  V30 10164 H 950.929 1.23242 -3.20416 0
M  V30 10165 N 953.375 1.23811 0.975125 0
M  V30 10166 C 954.305 1.04846 2.08638 0
M  V30 10167 C 955.286 -0.0362859 1.70061 0
M  V30 10168 O 956.471 0.12937 1.93769 0
M  V30 10169 C 953.601 0.644534 3.41267 0
M  V30 10170 C 952.555 1.67722 3.93768 0
M  V30 10171 C 951.881 1.12857 5.22654 0
M  V30 10172 C 953.181 3.07147 4.22443 0
M  V30 10173 H 954.875 1.97795 2.24761 0
M  V30 10174 H 952.421 0.952397 1.08006 0
M  V30 10175 H 954.374 0.498887 4.18436 0
M  V30 10176 H 953.098 -0.320641 3.25022 0
M  V30 10177 H 951.757 1.81095 3.18748 0
M  V30 10178 H 951.405 0.154227 5.02764 0
M  V30 10179 H 951.105 1.81862 5.58749 0
M  V30 10180 H 952.629 0.994891 6.0244 0
M  V30 10181 H 954.043 2.97045 4.90344 0
M  V30 10182 H 952.44 3.73437 4.6975 0
M  V30 10183 H 953.51 3.55743 3.29507 0
M  V30 10184 N 954.853 -1.17469 1.05066 0
M  V30 10185 C 955.801 -2.23495 0.644418 0
M  V30 10186 C 956.795 -1.66081 -0.333685 0
M  V30 10187 O 958.001 -1.78887 -0.199886 0
M  V30 10188 H 954.376 -0.727546 0.190214 0
M  V30 10189 H 956.347 -2.55058 1.5488 0
M  V30 10190 C 955.096 -3.47684 0.0338051 0
M  V30 10191 H 954.419 -3.92167 0.777513 0
M  V30 10192 H 955.859 -4.23464 -0.213086 0
M  V30 10193 C 954.318 -3.14067 -1.21915 0
M  V30 10194 O 954.848 -3.28728 -2.3087 0
M  V30 10195 N 953.054 -2.68304 -1.11631 0
M  V30 10196 H 952.601 -2.56574 -0.229673 0
M  V30 10197 H 952.559 -2.46184 -1.95553 0
M  V30 10198 N 956.331 -0.831506 -1.3388 0
M  V30 10199 C 957.278 -0.257449 -2.2936 0
M  V30 10200 C 958.248 0.622604 -1.5399 0
M  V30 10201 O 959.433 0.562432 -1.82322 0
M  V30 10202 C 956.573 0.567587 -3.404 0
M  V30 10203 C 955.686 -0.335666 -4.30694 0
M  V30 10204 C 954.821 0.499762 -5.28844 0
M  V30 10205 C 953.86 -0.402343 -6.10776 0
M  V30 10206 N 952.997 0.39452 -7.00991 0
M  V30 10207 H 957.837 -1.077 -2.77857 0
M  V30 10208 H 955.374 -0.542589 -1.36727 0
M  V30 10209 H 957.332 1.06133 -4.03474 0
M  V30 10210 H 955.962 1.35217 -2.93115 0
M  V30 10211 H 955.014 -0.94768 -3.68406 0
M  V30 10212 H 956.326 -1.02896 -4.88072 0
M  V30 10213 H 955.48 1.05763 -5.9741 0
M  V30 10214 H 954.219 1.22652 -4.72025 0
M  V30 10215 H 953.224 -0.972288 -5.41135 0
M  V30 10216 H 954.449 -1.12735 -6.69677 0
M  V30 10217 H 952.395 1.1048 -6.4663 0
M  V30 10218 H 952.312 -0.240209 -7.55618 0
M  V30 10219 H 953.58 0.934867 -7.73874 0
M  V30 10220 N 957.809 1.4625 -0.587256 0
M  V30 10221 C 959.058 2.01571 -0.0722643 0
M  V30 10222 C 959.371 1.46385 1.29733 0
M  V30 10223 O 960.577 1.93554 1.90392 0
M  V30 10224 C 959.033 3.59814 -0.078579 0
M  V30 10225 C 958.641 4.23996 -1.44678 0
M  V30 10226 C 960.385 4.22776 0.382231 0
M  V30 10227 C 958.292 5.74332 -1.41057 0
M  V30 10228 H 957.222 0.753642 -0.0232461 0
M  V30 10229 H 959.873 1.67936 -0.739577 0
M  V30 10230 H 958.255 3.90546 0.654988 0
M  V30 10231 H 959.429 4.04867 -2.20043 0
M  V30 10232 H 957.744 3.73147 -1.84799 0
M  V30 10233 H 960.341 5.32983 0.428182 0
M  V30 10234 H 960.684 3.92027 1.40072 0
M  V30 10235 H 961.217 3.96687 -0.297417 0
M  V30 10236 H 957.956 6.09747 -2.40601 0
M  V30 10237 H 957.476 5.95711 -0.699185 0
M  V30 10238 H 959.155 6.37137 -1.12543 0
M  V30 10239 N 959.287 0.325282 1.54207 0
M  V30 10240 C 960.197 -0.548778 2.28091 0
M  V30 10241 C 961.213 -1.12772 1.32508 0
M  V30 10242 O 962.389 -1.14732 1.65525 0
M  V30 10243 C 959.454 -1.69284 3.02562 0
M  V30 10244 C 958.515 -1.14553 4.13734 0
M  V30 10245 C 957.748 -2.23506 4.84645 0
M  V30 10246 O 957.971 -3.43884 4.55082 0
M  V30 10247 O 956.905 -1.88828 5.71513 0
M  V30 10248 H 960.731 0.0512974 3.03657 0
M  V30 10249 H 958.316 0.0909159 1.49123 0
M  V30 10250 H 960.198 -2.35887 3.49192 0
M  V30 10251 H 958.873 -2.27906 2.2987 0
M  V30 10252 H 957.78 -0.444532 3.71449 0
M  V30 10253 H 959.113 -0.60441 4.88475 0
M  V30 10254 N 960.765 -1.57509 0.0534917 0
M  V30 10255 C 962.013 -1.92402 -0.618548 0
M  V30 10256 C 962.334 -0.93273 -1.71246 0
M  V30 10257 O 961.604 0.0220495 -1.95888 0
M  V30 10258 H 960.184 -0.710233 -0.23147 0
M  V30 10259 H 962.846 -1.94606 0.10704 0
M  V30 10260 H 961.942 -2.93704 -1.05566 0
M  V30 10261 N 962.243 0.219913 -1.56058 0
M  V30 10262 C 963.153 1.29349 -1.95719 0
M  V30 10263 C 964.169 1.5119 -0.861248 0
M  V30 10264 O 965.345 1.64289 -1.16495 0
M  V30 10265 C 962.41 2.6229 -2.26726 0
M  V30 10266 C 961.471 2.48738 -3.49897 0
M  V30 10267 C 960.704 3.75339 -3.79416 0
M  V30 10268 O 960.927 4.78427 -3.10586 0
M  V30 10269 O 959.861 3.72352 -4.72903 0
M  V30 10270 H 963.687 0.986979 -2.87215 0
M  V30 10271 H 961.272 0.42291 -1.43289 0
M  V30 10272 H 963.154 3.408 -2.47857 0
M  V30 10273 H 961.829 2.92619 -1.38404 0
M  V30 10274 H 960.736 1.68422 -3.34043 0
M  V30 10275 H 962.069 2.23347 -4.38608 0
M  V30 10276 N 963.721 1.49897 0.486681 0
M  V30 10277 C 964.97 1.59349 1.23656 0
M  V30 10278 C 965.283 0.292024 1.93408 0
M  V30 10279 O 966.489 0.265258 2.70201 0
M  V30 10280 C 964.945 2.81215 2.24602 0
M  V30 10281 C 964.553 4.18177 1.60725 0
M  V30 10282 C 966.297 3.00004 3.00329 0
M  V30 10283 C 964.204 5.31247 2.59866 0
M  V30 10284 H 963.134 0.593363 0.465227 0
M  V30 10285 H 965.785 1.76306 0.508769 0
M  V30 10286 H 964.167 2.57783 3.00606 0
M  V30 10287 H 965.341 4.51802 0.90616 0
M  V30 10288 H 963.656 4.04864 0.973362 0
M  V30 10289 H 966.253 3.81649 3.74497 0
M  V30 10290 H 966.596 2.1112 3.58795 0
M  V30 10291 H 967.129 3.23544 2.3144 0
M  V30 10292 H 963.868 6.22236 2.06161 0
M  V30 10293 H 963.388 5.02059 3.28172 0
M  V30 10294 H 965.067 5.61177 3.22009 0
M  V30 10295 N 965.199 -0.738761 1.39212 0
M  V30 10296 C 966.162 -1.83441 1.37412 0
M  V30 10297 C 967.162 -1.58484 0.271908 0
M  V30 10298 O 968.352 -1.65954 0.529609 0
M  V30 10299 C 965.484 -3.21167 1.143 0
M  V30 10300 H 966.677 -1.86441 2.34904 0
M  V30 10301 H 964.23 -0.942023 1.24722 0
M  V30 10302 H 964.965 -3.23829 0.174756 0
M  V30 10303 H 964.75 -3.40678 1.94116 0
M  V30 10304 H 966.24 -4.01231 1.15773 0
M  V30 10305 N 966.677 -1.24326 -0.968545 0
M  V30 10306 C 967.607 -1.05951 -2.08079 0
M  V30 10307 C 968.588 0.0272666 -1.70078 0
M  V30 10308 O 969.773 -0.139644 -1.93697 0
M  V30 10309 C 966.903 -0.662623 -3.4092 0
M  V30 10310 C 965.857 -1.69807 -3.92873 0
M  V30 10311 C 965.183 -1.15628 -5.22048 0
M  V30 10312 C 966.483 -3.09383 -4.20808 0
M  V30 10313 H 968.177 -1.98984 -2.23709 0
M  V30 10314 H 965.723 -0.958112 -1.075 0
M  V30 10315 H 967.676 -0.521071 -4.18166 0
M  V30 10316 H 966.4 0.303399 -3.25188 0
M  V30 10317 H 965.059 -1.82783 -3.17783 0
M  V30 10318 H 964.707 -0.180888 -5.02675 0
M  V30 10319 H 964.407 -1.84822 -5.57776 0
M  V30 10320 H 965.931 -1.02683 -6.01904 0
M  V30 10321 H 967.345 -2.99642 -4.88761 0
M  V30 10322 H 965.742 -3.75923 -4.67763 0
M  V30 10323 H 966.812 -3.57486 -3.27616 0
M  V30 10324 N 968.156 1.1691 -1.05688 0
M  V30 10325 C 969.066 2.24735 -0.67315 0
M  V30 10326 C 970.082 1.71252 0.308043 0
M  V30 10327 O 971.258 2.00772 0.158889 0
M  V30 10328 C 968.323 3.4665 -0.059026 0
M  V30 10329 C 967.384 4.15198 -1.0913 0
M  V30 10330 C 966.617 5.31292 -0.50639 0
M  V30 10331 O 966.84 5.663 0.682692 0
M  V30 10332 O 965.774 5.88923 -1.2431 0
M  V30 10333 H 969.6 2.59855 -1.57191 0
M  V30 10334 H 967.185 1.24306 -0.828751 0
M  V30 10335 H 969.067 4.20455 0.282018 0
M  V30 10336 H 967.742 3.13316 0.813304 0
M  V30 10337 H 966.649 3.43389 -1.48442 0
M  V30 10338 H 967.982 4.52571 -1.93495 0
M  V30 10339 N 969.634 0.838594 1.33437 0
M  V30 10340 C 970.882 0.433312 1.974 0
M  V30 10341 C 971.203 -1.01078 1.66758 0
M  V30 10342 O 970.473 -1.70406 0.966373 0
M  V30 10343 H 969.053 0.15724 0.730263 0
M  V30 10344 H 971.715 1.07149 1.62804 0
M  V30 10345 H 970.811 0.565144 3.06941 0
M  V30 10346 N 971.112 -1.45937 0.595003 0
M  V30 10347 C 972.075 -2.2888 -0.121102 0
M  V30 10348 C 973.075 -1.39075 -0.807149 0
M  V30 10349 O 974.265 -1.61326 -0.657228 0
M  V30 10350 C 971.397 -3.19778 -1.1813 0
M  V30 10351 H 972.59 -2.93673 0.607968 0
M  V30 10352 H 970.143 -1.5225 0.353495 0
M  V30 10353 H 970.878 -2.59759 -1.94154 0
M  V30 10354 H 970.663 -3.85914 -0.693724 0
M  V30 10355 H 972.153 -3.82176 -1.68319 0
M  V30 10356 N 972.59 -0.333456 -1.54032 0
M  V30 10357 C 973.52 0.52051 -2.27625 0
M  V30 10358 C 974.501 1.1111 -1.28797 0
M  V30 10359 O 975.686 1.13438 -1.57625 0
M  V30 10360 C 972.816 1.67663 -3.04149 0
M  V30 10361 C 971.77 1.21487 -4.10396 0
M  V30 10362 C 971.096 2.45872 -4.74817 0
M  V30 10363 C 972.396 0.322603 -5.21303 0
M  V30 10364 H 974.09 -0.0933823 -2.99254 0
M  V30 10365 H 971.636 -0.0463526 -1.43925 0
M  V30 10366 H 973.589 2.28041 -3.54366 0
M  V30 10367 H 972.313 2.31727 -2.30153 0
M  V30 10368 H 970.972 0.633966 -3.61077 0
M  V30 10369 H 970.62 3.0832 -3.97426 0
M  V30 10370 H 970.32 2.15662 -5.46593 0
M  V30 10371 H 971.844 3.06994 -5.27814 0
M  V30 10372 H 973.258 0.832942 -5.67217 0
M  V30 10373 H 971.655 0.112843 -5.99994 0
M  V30 10374 H 972.725 -0.643954 -4.80605 0
M  V30 10375 N 974.068 1.57479 -0.061844 0
M  V30 10376 C 975.479 1.80627 0.472295 0
M  V30 10377 C 975.83 0.97496 1.70261 0
M  V30 10378 O 974.955 0.1946 2.15523 0
M  V30 10379 C 975.55 3.27608 0.863616 0
M  V30 10380 C 974.109 3.51638 1.34267 0
M  V30 10381 C 973.256 2.75412 0.323009 0
M  V30 10382 H 976.207 1.56072 -0.287634 0
M  V30 10383 H 976.228 3.39113 1.72577 0
M  V30 10384 H 975.74 3.88087 -0.0320226 0
M  V30 10385 H 973.841 2.96452 2.25714 0
M  V30 10386 H 973.954 4.60342 1.32747 0
M  V30 10387 H 972.318 2.4187 0.798175 0
M  V30 10388 H 973.101 3.38623 -0.564729 0
M  V30 10389 N 975.546 -0.211634 1.56173 0
M  V30 10390 C 976.776 -0.949805 1.83473 0
M  V30 10391 C 977.184 -1.78045 0.640053 0
M  V30 10392 O 976.527 -1.79277 -0.400702 0
M  V30 10393 C 976.589 -1.90868 3.04647 0
M  V30 10394 C 976.253 -1.26159 4.39241 0
M  V30 10395 C 977.25 -0.646597 5.15863 0
M  V30 10396 C 974.935 -1.27039 4.85969 0
M  V30 10397 C 976.929 -0.0490313 6.37381 0
M  V30 10398 C 974.616 -0.668987 6.07427 0
M  V30 10399 C 975.614 -0.0593687 6.82974 0
M  V30 10400 O 975.302 0.532656 8.02133 0
M  V30 10401 H 975.034 -0.283458 0.6137 0
M  V30 10402 H 977.588 -0.22894 2.0412 0
M  V30 10403 H 975.818 -2.6688 2.79843 0
M  V30 10404 H 977.507 -2.51323 3.18734 0
M  V30 10405 H 978.273 -0.632056 4.80864 0
M  V30 10406 H 974.152 -1.73429 4.27134 0
M  V30 10407 H 977.696 0.427414 6.96289 0
M  V30 10408 H 973.593 -0.680975 6.41898 0
M  V30 10409 H 974.361 0.427942 8.17381 0
M  V30 10410 N 977.024 -1.50153 -0.478725 0
M  V30 10411 C 978.435 -1.53706 -1.05978 0
M  V30 10412 C 978.786 -0.336112 -1.933 0
M  V30 10413 O 977.911 0.551803 -2.09246 0
M  V30 10414 C 978.506 -2.78541 -1.92874 0
M  V30 10415 C 977.065 -2.848 -2.46102 0
M  V30 10416 C 976.212 -2.47902 -1.24257 0
M  V30 10417 H 979.163 -1.56528 -0.261664 0
M  V30 10418 H 979.184 -2.59964 -2.77847 0
M  V30 10419 H 978.696 -3.6593 -1.29293 0
M  V30 10420 H 976.797 -2.01744 -3.13257 0
M  V30 10421 H 976.91 -3.87511 -2.81731 0
M  V30 10422 H 975.274 -2.0017 -1.57493 0
M  V30 10423 H 976.057 -3.3759 -0.62351 0
M  V30 10424 N 978.502 0.731368 -1.39602 0
M  V30 10425 C 979.913 1.30981 -1.33045 0
M  V30 10426 C 980.264 1.962 0.00349918 0
M  V30 10427 O 979.389 1.96539 0.905615 0
M  V30 10428 C 979.984 2.3817 -2.40958 0
M  V30 10429 C 978.543 2.91678 -2.3791 0
M  V30 10430 C 977.69 1.65286 -2.22656 0
M  V30 10431 H 980.641 0.528615 -1.49637 0
M  V30 10432 H 980.662 3.18645 -2.07955 0
M  V30 10433 H 980.174 1.90673 -3.38032 0
M  V30 10434 H 978.275 3.43446 -1.44485 0
M  V30 10435 H 978.388 3.44545 -3.32904 0
M  V30 10436 H 976.752 1.89759 -1.69893 0
M  V30 10437 H 977.535 1.19836 -3.21705 0
M  V30 10438 N 979.98 1.24838 0.961938 0
M  V30 10439 C 981.228 1.08936 1.70227 0
M  V30 10440 C 981.549 -0.371582 1.91427 0
M  V30 10441 O 980.819 -1.26461 1.49614 0
M  V30 10442 H 979.399 0.400128 0.630799 0
M  V30 10443 H 982.061 1.56848 1.15692 0
M  V30 10444 H 981.157 1.59195 2.68446 0
M  V30 10445 N 981.458 -1.16348 1.06306 0
M  V30 10446 C 982.704 -1.87158 0.781007 0
M  V30 10447 C 983.037 -1.81499 -0.690784 0
M  V30 10448 O 982.312 -1.23074 -1.50609 0
M  V30 10449 C 982.595 -3.3672 1.27639 0
M  V30 10450 C 982.448 -3.51069 2.81194 0
M  V30 10451 C 983.767 -4.31122 0.884388 0
M  V30 10452 H 980.886 -0.679586 0.285187 0
M  V30 10453 H 983.528 -1.36756 1.31901 0
M  V30 10454 H 981.678 -3.79775 0.818715 0
M  V30 10455 H 983.35 -3.16952 3.35171 0
M  V30 10456 H 981.593 -2.92976 3.19918 0
M  V30 10457 H 982.264 -4.56105 3.10921 0
M  V30 10458 H 984.74 -3.95969 1.27858 0
M  V30 10459 H 983.616 -5.34279 1.25847 0
M  V30 10460 H 983.877 -4.41598 -0.210673 0
M  V30 10461 N 982.937 -0.845659 -1.3299 0
M  V30 10462 C 984.184 -0.444653 -1.97558 0
M  V30 10463 C 984.512 0.997682 -1.66963 0
M  V30 10464 O 983.767 1.71349 -0.94541 0
M  V30 10465 C 984.066 -0.6201 -3.51979 0
M  V30 10466 C 983.732 -2.03155 -4.02541 0
M  V30 10467 C 982.394 -2.4176 -4.16059 0
M  V30 10468 C 984.746 -2.95317 -4.29462 0
M  V30 10469 C 982.074 -3.71818 -4.53837 0
M  V30 10470 C 984.426 -4.24863 -4.68694 0
M  V30 10471 C 983.09 -4.63416 -4.80419 0
M  V30 10472 H 982.36 -0.16271 -0.722915 0
M  V30 10473 H 985.007 -1.07399 -1.58549 0
M  V30 10474 H 983.312 0.092513 -3.91691 0
M  V30 10475 H 985.009 -0.290012 -3.9995 0
M  V30 10476 H 981.599 -1.72174 -3.92497 0
M  V30 10477 H 985.783 -2.66726 -4.18534 0
M  V30 10478 H 981.039 -4.01484 -4.61108 0
M  V30 10479 H 985.213 -4.96347 -4.8848 0
M  V30 10480 H 982.84 -5.6424 -5.09448 0
M  V30 10481 N 984.415 1.45619 -0.602734 0
M  V30 10482 C 985.655 2.0416 -0.0989764 0
M  V30 10483 C 986.019 1.4616 1.24504 0
M  V30 10484 O 987.22 1.96025 1.83923 0
M  V30 10485 C 985.491 3.57357 -0.0551869 0
M  V30 10486 S 987.05 4.3708 0.388086 0
M  V30 10487 H 983.868 0.709431 -0.0472054 0
M  V30 10488 H 986.47 1.78394 -0.799745 0
M  V30 10489 H 985.174 3.97083 -1.03697 0
M  V30 10490 H 984.705 3.87692 0.667727 0
M  V30 10491 H 986.72 4.68362 1.63865 0
M  V30 10492 N 985.893 0.34162 1.53853 0
M  V30 10493 C 987.139 -0.255862 2.01179 0
M  V30 10494 C 987.472 -1.50356 1.22909 0
M  V30 10495 O 986.747 -1.91913 0.316198 0
M  V30 10496 C 987.03 -0.571934 3.55529 0
M  V30 10497 C 986.883 0.687727 4.44511 0
M  V30 10498 C 988.202 -1.38233 4.17827 0
M  V30 10499 H 985.321 -0.091521 0.731295 0
M  V30 10500 H 987.963 0.461775 1.84303 0
M  V30 10501 H 986.113 -1.18331 3.70041 0
M  V30 10502 H 987.785 1.32572 4.4184 0
M  V30 10503 H 986.028 1.313 4.13452 0
M  V30 10504 H 986.699 0.421858 5.50386 0
M  V30 10505 H 989.175 -0.865374 4.07002 0
M  V30 10506 H 988.051 -1.57223 5.25901 0
M  V30 10507 H 988.312 -2.38386 3.72323 0
M  V30 10508 N 987.371 -1.57444 0.0701946 0
M  V30 10509 C 988.334 -2.11511 -0.882923 0
M  V30 10510 C 989.334 -1.03879 -1.22743 0
M  V30 10511 O 990.524 -1.29874 -1.16097 0
M  V30 10512 C 987.656 -2.61514 -2.18686 0
M  V30 10513 H 988.849 -2.9703 -0.413873 0
M  V30 10514 H 986.402 -1.55278 -0.178488 0
M  V30 10515 H 987.137 -1.79443 -2.70131 0
M  V30 10516 H 986.922 -3.40185 -1.94978 0
M  V30 10517 H 988.412 -3.03425 -2.86919 0
M  V30 10518 N 988.849 0.203349 -1.56283 0
M  V30 10519 C 990.26 0.768764 -1.70138 0
M  V30 10520 C 990.611 1.8421 -0.675358 0
M  V30 10521 O 989.736 2.15732 0.1699 0
M  V30 10522 C 990.331 1.40123 -3.08466 0
M  V30 10523 C 988.89 1.91382 -3.24114 0
M  V30 10524 C 988.037 0.780685 -2.66084 0
M  V30 10525 H 990.988 -0.0215997 -1.58685 0
M  V30 10526 H 991.009 2.27046 -3.05336 0
M  V30 10527 H 990.521 0.619805 -3.83119 0
M  V30 10528 H 988.622 2.7227 -2.54362 0
M  V30 10529 H 988.735 2.08128 -4.31531 0
M  V30 10530 H 987.099 1.19281 -2.25042 0
M  V30 10531 H 987.882 0.0116351 -3.43298 0
M  V30 10532 N 990.327 1.50405 0.470755 0
M  V30 10533 C 991.575 1.61092 1.2204 0
M  V30 10534 C 991.896 0.313487 1.92464 0
M  V30 10535 O 991.166 -0.669043 1.84121 0
M  V30 10536 H 989.746 0.593618 0.45346 0
M  V30 10537 H 992.408 1.87184 0.542985 0
M  V30 10538 H 991.504 2.42222 1.96812 0
M  V30 10539 N 991.805 -0.723954 1.39988 0
M  V30 10540 C 992.715 -1.86829 1.41887 0
M  V30 10541 C 993.731 -1.71173 0.312401 0
M  V30 10542 O 994.907 -1.93583 0.555651 0
M  V30 10543 C 991.972 -3.22541 1.27154 0
M  V30 10544 C 991.033 -3.50512 2.47871 0
M  V30 10545 C 990.266 -4.79749 2.33831 0
M  V30 10546 O 990.489 -5.54251 1.34765 0
M  V30 10547 O 989.423 -5.07868 3.23039 0
M  V30 10548 H 993.249 -1.88183 2.38371 0
M  V30 10549 H 990.834 -0.873259 1.21221 0
M  V30 10550 H 992.716 -4.0362 1.21114 0
M  V30 10551 H 991.391 -3.21933 0.337715 0
M  V30 10552 H 990.298 -2.69475 2.59488 0
M  V30 10553 H 991.631 -3.55909 3.39985 0
M  V30 10554 N 993.283 -1.25346 -0.955304 0
M  V30 10555 C 994.23 -1.05672 -2.05188 0
M  V30 10556 C 995.2 0.0339217 -1.66065 0
M  V30 10557 O 996.385 -0.123126 -1.90402 0
M  V30 10558 C 993.525 -0.680791 -3.38318 0
M  V30 10559 C 992.638 -1.84622 -3.90562 0
M  V30 10560 C 991.773 -1.41471 -5.12015 0
M  V30 10561 C 990.812 -2.54931 -5.56486 0
M  V30 10562 N 989.949 -2.1256 -6.69151 0
M  V30 10563 H 994.789 -1.9952 -2.2135 0
M  V30 10564 H 992.326 -0.993588 -1.08472 0
M  V30 10565 H 994.284 -0.443794 -4.14833 0
M  V30 10566 H 992.914 0.2207 -3.22045 0
M  V30 10567 H 991.966 -2.19654 -3.10574 0
M  V30 10568 H 993.278 -2.6983 -4.19515 0
M  V30 10569 H 992.432 -1.13732 -5.95945 0
M  V30 10570 H 991.171 -0.533334 -4.84775 0
M  V30 10571 H 990.176 -2.83415 -4.71122 0
M  V30 10572 H 991.401 -3.43645 -5.85734 0
M  V30 10573 H 989.347 -1.26838 -6.43621 0
M  V30 10574 H 989.264 -2.91317 -6.97618 0
M  V30 10575 H 990.532 -1.87996 -7.5649 0
M  V30 10576 N 994.761 1.15782 -1.06922 0
M  V30 10577 C 996.007 1.86975 -0.800747 0
M  V30 10578 C 996.362 1.80512 0.665818 0
M  V30 10579 O 995.655 1.21432 1.48205 0
M  V30 10580 C 995.849 3.35284 -1.2377 0
M  V30 10581 C 995.678 3.56186 -2.74521 0
M  V30 10582 C 994.448 3.71908 -3.42071 0
M  V30 10583 C 996.646 3.54373 -3.72725 0
M  V30 10584 N 994.628 3.80821 -4.81507 0
M  V30 10585 C 995.999 3.69347 -4.97978 0
M  V30 10586 C 998.054 3.37622 -3.65945 0
M  V30 10587 C 996.757 3.69302 -6.17259 0
M  V30 10588 C 998.783 3.38873 -4.84684 0
M  V30 10589 C 998.145 3.54373 -6.08769 0
M  V30 10590 H 994.244 0.701533 -0.345507 0
M  V30 10591 H 996.828 1.38875 -1.36462 0
M  V30 10592 H 994.999 3.82011 -0.701588 0
M  V30 10593 H 996.731 3.94169 -0.917235 0
M  V30 10594 H 993.486 3.72499 -2.92475 0
M  V30 10595 H 993.91 3.89031 -5.54061 0
M  V30 10596 H 998.552 3.24562 -2.7096 0
M  V30 10597 H 996.27 3.81142 -7.1257 0
M  V30 10598 H 999.856 3.27146 -4.8111 0
M  V30 10599 H 998.736 3.55268 -6.9911 0
M  V30 10600 N 996.239 0.8527 1.3254 0
M  V30 10601 C 997.464 0.468157 2.02047 0
M  V30 10602 C 997.889 -0.926967 1.63673 0
M  V30 10603 O 997.247 -1.60855 0.836378 0
M  V30 10604 C 997.295 0.612519 3.5536 0
M  V30 10605 O 996.399 -0.355506 4.10865 0
M  V30 10606 H 995.74 0.188401 0.636711 0
M  V30 10607 H 998.27 1.15135 1.6913 0
M  V30 10608 H 998.28 0.499315 4.04933 0
M  V30 10609 H 996.955 1.62988 3.82632 0
M  V30 10610 H 995.532 -0.198703 3.7237 0
M  V30 10611 N 997.718 -1.45297 0.610449 0
M  V30 10612 C 998.628 -2.34349 -0.108475 0
M  V30 10613 C 999.644 -1.51409 -0.857397 0
M  V30 10614 O 1000.82 -1.84202 -0.814337 0
M  V30 10615 C 997.885 -3.29072 -1.09144 0
M  V30 10616 C 996.946 -4.27918 -0.344165 0
M  V30 10617 C 996.179 -5.18116 -1.28031 0
M  V30 10618 O 996.402 -5.11802 -2.51824 0
M  V30 10619 O 995.336 -5.96879 -0.775821 0
M  V30 10620 H 999.162 -2.97232 0.623421 0
M  V30 10621 H 996.747 -1.44728 0.3707 0
M  V30 10622 H 998.629 -3.87433 -1.65751 0
M  V30 10623 H 997.304 -2.68749 -1.80431 0
M  V30 10624 H 996.211 -3.73164 0.264437 0
M  V30 10625 H 997.544 -4.91104 0.328275 0
M  V30 10626 N 999.196 -0.349774 -1.5367 0
M  V30 10627 C 1000.42 0.246038 -2.05432 0
M  V30 10628 C 1000.84 1.43719 -1.22435 0
M  V30 10629 O 1000.2 1.80622 -0.261166 0
M  V30 10630 C 1000.25 0.65501 -3.55516 0
M  V30 10631 O 999.968 -0.488782 -4.35365 0
M  V30 10632 C 1001.47 1.31088 -4.23475 0
M  V30 10633 H 998.689 0.0463952 -0.669394 0
M  V30 10634 H 1001.23 -0.503566 -1.98203 0
M  V30 10635 H 999.388 1.35455 -3.62947 0
M  V30 10636 H 999.802 -0.161528 -5.24251 0
M  V30 10637 H 1001.28 1.54774 -5.29857 0
M  V30 10638 H 1001.75 2.26636 -3.76208 0
M  V30 10639 H 1002.36 0.653211 -4.20254 0
M  V30 10640 N 1000.67 1.57404 -0.0785433 0
M  V30 10641 C 1001.64 2.11977 0.871693 0
M  V30 10642 C 1002.64 1.04529 1.2219 0
M  V30 10643 O 1003.83 1.30488 1.15406 0
M  V30 10644 C 1000.96 2.6267 2.17296 0
M  V30 10645 H 1002.15 2.97246 0.398115 0
M  V30 10646 H 999.705 1.5537 0.170251 0
M  V30 10647 H 1000.44 1.80873 2.69175 0
M  V30 10648 H 1000.22 3.41214 1.93171 0
M  V30 10649 H 1001.71 3.04943 2.85306 0
M  V30 10650 N 1002.15 -0.195058 1.56388 0
M  V30 10651 C 1003.4 -0.9168 1.80894 0
M  V30 10652 C 1003.73 -1.82907 0.652592 0
M  V30 10653 O 1003.01 -1.91382 -0.346853 0
M  V30 10654 C 1003.29 -1.733 3.15657 0
M  V30 10655 C 1003.14 -0.845449 4.41783 0
M  V30 10656 C 1004.46 -2.70557 3.47112 0
M  V30 10657 H 1001.58 -0.331861 0.658056 0
M  V30 10658 H 1004.22 -0.184174 1.89105 0
M  V30 10659 H 1002.37 -2.3576 3.08787 0
M  V30 10660 H 1004.04 -0.235557 4.60698 0
M  V30 10661 H 1002.29 -0.152172 4.33533 0
M  V30 10662 H 1002.96 -1.45152 5.32574 0
M  V30 10663 H 1005.43 -2.1823 3.54281 0
M  V30 10664 H 1004.31 -3.24749 4.42526 0
M  V30 10665 H 1004.57 -3.49605 2.70608 0
M  V30 10666 N 1003.63 -1.50653 -0.462772 0
M  V30 10667 C 1004.58 -1.70122 -1.55971 0
M  V30 10668 C 1005.55 -0.542581 -1.56988 0
M  V30 10669 O 1006.73 -0.774114 -1.74391 0
M  V30 10670 C 1003.87 -1.80899 -2.93887 0
M  V30 10671 C 1002.98 -3.08318 -3.02595 0
M  V30 10672 C 1002.12 -3.09841 -4.31477 0
M  V30 10673 C 1001.16 -4.3168 -4.33957 0
M  V30 10674 N 1000.3 -4.30894 -5.54323 0
M  V30 10675 H 1005.14 -2.63768 -1.38674 0
M  V30 10676 H 1002.67 -1.30746 -0.674091 0
M  V30 10677 H 1004.63 -1.85128 -3.73876 0
M  V30 10678 H 1003.26 -0.906854 -3.098 0
M  V30 10679 H 1002.31 -3.13521 -2.15427 0
M  V30 10680 H 1003.62 -3.98282 -3.00288 0
M  V30 10681 H 1002.78 -3.12845 -5.1982 0
M  V30 10682 H 1001.52 -2.17722 -4.36404 0
M  V30 10683 H 1000.52 -4.28879 -3.4401 0
M  V30 10684 H 1001.75 -5.25035 -4.30715 0
M  V30 10685 H 999.694 -3.41633 -5.6002 0
M  V30 10686 H 999.611 -5.14636 -5.53792 0
M  V30 10687 H 1000.88 -4.38056 -6.44769 0
M  V30 10688 N 1005.11 0.71652 -1.4037 0
M  V30 10689 C 1006.34 1.50344 -1.41704 0
M  V30 10690 C 1006.75 1.89194 -0.0148011 0
M  V30 10691 O 1006.09 1.55916 0.971391 0
M  V30 10692 C 1006.15 2.80928 -2.2432 0
M  V30 10693 C 1005.82 2.64406 -3.72744 0
M  V30 10694 C 1006.81 2.31727 -4.65401 0
M  V30 10695 C 1004.5 2.807 -4.16549 0
M  V30 10696 C 1006.49 2.15551 -5.99847 0
M  V30 10697 C 1004.18 2.64141 -5.51065 0
M  V30 10698 C 1005.18 2.31614 -6.42529 0
M  V30 10699 O 1004.86 2.15179 -7.74566 0
M  V30 10700 H 1004.6 0.470574 -0.48532 0
M  V30 10701 H 1007.15 0.89152 -1.85043 0
M  V30 10702 H 1005.38 3.4445 -1.75759 0
M  V30 10703 H 1007.07 3.4264 -2.17607 0
M  V30 10704 H 1007.84 2.18773 -4.32855 0
M  V30 10705 H 1003.71 3.05005 -3.45677 0
M  V30 10706 H 1007.26 1.90084 -6.71203 0
M  V30 10707 H 1003.16 2.76679 -5.83197 0
M  V30 10708 H 1003.92 2.30106 -7.85489 0
M  V30 10709 N 1006.59 1.25851 0.948643 0
M  V30 10710 C 1007.83 1.10954 1.69397 0
M  V30 10711 C 1008.16 -0.348443 1.91353 0
M  V30 10712 O 1007.42 -1.27285 1.48651 0
M  V30 10713 C 1007.72 1.81565 3.07846 0
M  V30 10714 C 1007.38 3.31477 3.0567 0
M  V30 10715 C 1006.04 3.72371 3.04784 0
M  V30 10716 C 1008.4 4.27225 2.98543 0
M  V30 10717 C 1005.72 5.07416 2.94527 0
M  V30 10718 C 1008.08 5.62301 2.89828 0
M  V30 10719 C 1006.74 6.02516 2.87281 0
M  V30 10720 H 1006.01 0.406011 0.619868 0
M  V30 10721 H 1008.66 1.562 1.10787 0
M  V30 10722 H 1006.96 1.28767 3.70035 0
M  V30 10723 H 1008.66 1.67486 3.64348 0
M  V30 10724 H 1005.25 2.98941 3.07135 0
M  V30 10725 H 1009.43 3.96618 2.98342 0
M  V30 10726 H 1004.69 5.37746 2.90928 0
M  V30 10727 H 1008.86 6.36182 2.83276 0
M  V30 10728 H 1006.49 7.07116 2.79089 0
M  V30 10729 N 1008.06 -1.15214 1.07534 0
M  V30 10730 C 1009.29 -1.89922 0.820804 0
M  V30 10731 C 1009.71 -1.78114 -0.626177 0
M  V30 10732 O 1009.06 -1.13435 -1.42964 0
M  V30 10733 C 1009.12 -3.40207 1.22236 0
M  V30 10734 O 1008.84 -3.51676 2.61257 0
M  V30 10735 C 1010.34 -4.31934 0.997393 0
M  V30 10736 H 1007.56 -0.601865 0.296647 0
M  V30 10737 H 1010.1 -1.45965 1.43229 0
M  V30 10738 H 1008.26 -3.8182 0.655167 0
M  V30 10739 H 1008.67 -4.44959 2.77689 0
M  V30 10740 H 1010.14 -5.35791 1.32785 0
M  V30 10741 H 1010.62 -4.3915 -0.0661599 0
M  V30 10742 H 1011.23 -3.96066 1.54958 0
M  V30 10743 N 1009.54 -0.859717 -1.32086 0
M  V30 10744 C 1010.79 -0.461779 -1.96343 0
M  V30 10745 C 1011.1 0.988837 -1.68764 0
M  V30 10746 O 1012.31 1.49244 -2.268 0
M  V30 10747 C 1010.77 -0.77484 -3.5146 0
M  V30 10748 C 1010.37 -2.24153 -3.87891 0
M  V30 10749 C 1012.12 -0.444873 -4.22162 0
M  V30 10750 C 1010.03 -2.49754 -5.36075 0
M  V30 10751 H 1008.96 -0.168951 -0.734828 0
M  V30 10752 H 1011.61 -1.0512 -1.50406 0
M  V30 10753 H 1009.99 -0.114792 -3.95834 0
M  V30 10754 H 1011.16 -2.94378 -3.54511 0
M  V30 10755 H 1009.48 -2.53651 -3.30227 0
M  V30 10756 H 1012.07 -0.613508 -5.31169 0
M  V30 10757 H 1012.42 0.61391 -4.11749 0
M  V30 10758 H 1012.95 -1.06103 -3.83389 0
M  V30 10759 H 1009.69 -3.54276 -5.51515 0
M  V30 10760 H 1009.21 -1.84112 -5.70844 0
M  V30 10761 H 1010.89 -2.3396 -6.03218 0
M  V30 10762 N 1011.02 1.44971 -0.618145 0
M  V30 10763 C 1011.95 2.33357 0.0815955 0
M  V30 10764 C 1012.93 1.47451 0.848072 0
M  V30 10765 O 1014.12 1.762 0.816532 0
M  V30 10766 C 1011.25 3.30324 1.07253 0
M  V30 10767 C 1010.2 4.25948 0.418563 0
M  V30 10768 C 1009.53 5.12685 1.51849 0
M  V30 10769 C 1010.83 5.18024 -0.66697 0
M  V30 10770 H 1012.52 2.92115 -0.656442 0
M  V30 10771 H 1010.07 1.40465 -0.317129 0
M  V30 10772 H 1012.02 3.91033 1.57069 0
M  V30 10773 H 1010.74 2.69748 1.8413 0
M  V30 10774 H 1009.4 3.66553 -0.0588308 0
M  V30 10775 H 1009.05 4.4847 2.2778 0
M  V30 10776 H 1008.75 5.7747 1.08637 0
M  V30 10777 H 1010.27 5.76264 2.01871 0
M  V30 10778 H 1011.69 5.72744 -0.252448 0
M  V30 10779 H 1010.09 5.91343 -1.02146 0
M  V30 10780 H 1011.16 4.59817 -1.53936 0
M  V30 10781 N 1012.5 0.357919 1.53482 0
M  V30 10782 C 1013.43 -0.526753 2.23065 0
M  V30 10783 C 1014.44 -1.05239 1.24212 0
M  V30 10784 O 1015.63 -0.960078 1.50482 0
M  V30 10785 C 1012.73 -1.73919 2.9087 0
M  V30 10786 C 1011.91 -1.34638 4.16163 0
M  V30 10787 C 1010.96 -2.42005 4.67247 0
M  V30 10788 O 1009.99 -2.04714 5.31113 0
M  V30 10789 N 1011.19 -3.73478 4.44404 0
M  V30 10790 H 1013.96 0.0692386 2.9962 0
M  V30 10791 H 1011.52 0.182726 1.60866 0
M  V30 10792 H 1013.51 -2.45207 3.21956 0
M  V30 10793 H 1012.08 -2.24223 2.17814 0
M  V30 10794 H 1011.3 -0.463667 3.91464 0
M  V30 10795 H 1012.59 -1.06012 4.97633 0
M  V30 10796 H 1011.99 -4.06555 3.93357 0
M  V30 10797 H 1010.54 -4.40893 4.80059 0
M  V30 10798 N 1013.98 -1.5736 0.0868897 0
M  V30 10799 C 1015.25 -1.85495 -0.620561 0
M  V30 10800 C 1015.63 -0.982218 -1.86857 0
M  V30 10801 O 1014.98 -0.0524529 -2.2844 0
M  V30 10802 C 1015.19 -3.35996 -0.943798 0
M  V30 10803 C 1016.54 -4.03861 -1.31079 0
M  V30 10804 O 1017.56 -3.4083 -1.03507 0
M  V30 10805 O 1016.42 -5.15062 -1.82683 0
M  V30 10806 H 1013.52 -0.766822 -0.309697 0
M  V30 10807 H 1016.06 -1.69282 0.118966 0
M  V30 10808 H 1014.83 -3.91257 -0.0580628 0
M  V30 10809 H 1014.46 -3.57525 -1.73958 0
M  V30 10810 N 1015.45 0.186762 -1.56489 0
M  V30 10811 C 1016.7 0.904063 -1.80752 0
M  V30 10812 C 1017.02 1.83443 -0.661343 0
M  V30 10813 O 1016.29 1.93272 0.319811 0
M  V30 10814 H 1014.87 0.336828 -0.66675 0
M  V30 10815 H 1017.54 0.190275 -1.93969 0
M  V30 10816 H 1016.63 1.49021 -2.74225 0
M  V30 10817 N 1016.93 1.50896 0.454776 0
M  V30 10818 C 1018.18 1.61936 1.20248 0
M  V30 10819 C 1018.49 0.332983 1.92745 0
M  V30 10820 O 1019.7 0.322512 2.69578 0
M  V30 10821 C 1018.16 2.85916 2.18587 0
M  V30 10822 C 1017.76 4.21492 1.51818 0
M  V30 10823 C 1019.51 3.06307 2.93898 0
M  V30 10824 C 1017.42 5.3664 2.48539 0
M  V30 10825 H 1016.35 0.603098 0.452536 0
M  V30 10826 H 1019 1.77345 0.471257 0
M  V30 10827 H 1017.38 2.64101 2.95071 0
M  V30 10828 H 1018.55 4.53623 0.810123 0
M  V30 10829 H 1016.87 4.06837 0.887265 0
M  V30 10830 H 1019.46 3.89507 3.66317 0
M  V30 10831 H 1019.81 2.18683 3.54236 0
M  V30 10832 H 1020.34 3.2838 2.24525 0
M  V30 10833 H 1017.08 6.26469 1.92916 0
M  V30 10834 H 1016.6 5.08907 3.17449 0
M  V30 10835 H 1018.28 5.67881 3.10033 0
M  V30 10836 N 1018.41 -0.709066 1.40748 0
M  V30 10837 C 1019.36 -1.84445 1.41714 0
M  V30 10838 C 1020.35 -1.66779 0.296818 0
M  V30 10839 O 1021.56 -1.73805 0.468181 0
M  V30 10840 H 1017.93 -0.607581 0.443114 0
M  V30 10841 H 1019.9 -1.80747 2.3743 0
M  V30 10842 C 1018.65 -3.22362 1.303 0
M  V30 10843 H 1017.98 -3.36565 2.15787 0
M  V30 10844 H 1019.42 -4.01922 1.35036 0
M  V30 10845 C 1017.88 -3.36897 0.0139015 0
M  V30 10846 O 1018.41 -3.90389 -0.946553 0
M  V30 10847 N 1016.61 -2.90543 -0.0577491 0
M  V30 10848 H 1016.16 -2.472 0.724574 0
M  V30 10849 H 1016.12 -3.00647 -0.919721 0
M  V30 10850 N 1019.89 -1.26353 -0.941956 0
M  V30 10851 C 1020.84 -1.07654 -2.06188 0
M  V30 10852 C 1021.83 -0.00369741 -1.694 0
M  V30 10853 O 1023.04 -0.160316 -1.79285 0
M  V30 10854 H 1019.41 -0.331274 -0.675101 0
M  V30 10855 H 1021.38 -2.02566 -2.19111 0
M  V30 10856 C 1020.13 -0.725436 -3.40048 0
M  V30 10857 H 1019.46 -1.54283 -3.68832 0
M  V30 10858 H 1020.9 -0.634383 -4.19227 0
M  V30 10859 C 1019.35 0.569369 -3.32054 0
M  V30 10860 O 1019.88 1.60791 -3.68116 0
M  V30 10861 N 1018.09 0.559714 -2.85159 0
M  V30 10862 H 1017.64 -0.285817 -2.56009 0
M  V30 10863 H 1017.6 1.42617 -2.80193 0
M  V30 10864 N 1021.37 1.14642 -1.08144 0
M  V30 10865 C 1022.61 1.85617 -0.809484 0
M  V30 10866 C 1022.94 1.8279 0.664672 0
M  V30 10867 O 1022.2 1.25178 1.50429 0
M  V30 10868 C 1022.5 3.33953 -1.2732 0
M  V30 10869 C 1022.16 3.56969 -2.7547 0
M  V30 10870 C 1020.82 3.6296 -3.15933 0
M  V30 10871 C 1023.18 3.66014 -3.71057 0
M  V30 10872 C 1020.5 3.75515 -4.50783 0
M  V30 10873 C 1022.86 3.80094 -5.05679 0
M  V30 10874 C 1021.52 3.84333 -5.45751 0
M  V30 10875 H 1020.79 0.67922 -0.296211 0
M  V30 10876 H 1023.44 1.35433 -1.35389 0
M  V30 10877 H 1021.74 3.86399 -0.648329 0
M  V30 10878 H 1023.44 3.87291 -1.03957 0
M  V30 10879 H 1020.03 3.52953 -2.4315 0
M  V30 10880 H 1024.21 3.60679 -3.40917 0
M  V30 10881 H 1019.47 3.77057 -4.81288 0
M  V30 10882 H 1023.64 3.86035 -5.79612 0
M  V30 10883 H 1021.27 3.93814 -6.50242 0
M  V30 10884 N 1022.85 0.866709 1.31628 0
M  V30 10885 C 1024.26 0.529032 1.79048 0
M  V30 10886 C 1024.61 -0.953871 1.71452 0
M  V30 10887 O 1023.73 -1.74462 1.28031 0
M  V30 10888 C 1024.33 0.953522 3.25105 0
M  V30 10889 C 1022.89 0.667554 3.70433 0
M  V30 10890 C 1022.03 1.14664 2.52483 0
M  V30 10891 H 1024.98 1.05275 1.18756 0
M  V30 10892 H 1025.01 0.274844 3.79506 0
M  V30 10893 H 1024.52 2.03283 3.30602 0
M  V30 10894 H 1022.62 -0.400532 3.70441 0
M  V30 10895 H 1022.73 1.2423 4.62714 0
M  V30 10896 H 1021.1 0.566502 2.4832 0
M  V30 10897 H 1021.88 2.2333 2.60727 0
M  V30 10898 N 1024.32 -1.44642 0.625825 0
M  V30 10899 C 1025.57 -2.01695 0.127948 0
M  V30 10900 C 1025.89 -1.49439 -1.25271 0
M  V30 10901 O 1025.16 -0.695873 -1.83124 0
M  V30 10902 H 1023.74 -0.745685 0.0443096 0
M  V30 10903 H 1026.4 -1.7721 0.811332 0
M  V30 10904 H 1025.5 -3.11966 0.0915933 0
M  V30 10905 N 1025.8 -0.366053 -1.5329 0
M  V30 10906 C 1027.05 0.223493 -2.01263 0
M  V30 10907 C 1027.38 1.48736 -1.25331 0
M  V30 10908 O 1026.63 1.92805 -0.335341 0
M  V30 10909 C 1026.93 0.560906 -3.52971 0
M  V30 10910 C 1026.6 -0.60869 -4.46773 0
M  V30 10911 C 1025.26 -0.929609 -4.72135 0
M  V30 10912 C 1027.61 -1.39225 -5.02261 0
M  V30 10913 C 1024.94 -2.03606 -5.50238 0
M  V30 10914 C 1027.29 -2.48912 -5.81572 0
M  V30 10915 C 1025.95 -2.81538 -6.05221 0
M  V30 10916 H 1025.22 0.0817818 -0.736473 0
M  V30 10917 H 1027.87 -0.498613 -1.84895 0
M  V30 10918 H 1026.18 1.36403 -3.67289 0
M  V30 10919 H 1027.87 1.02931 -3.87564 0
M  V30 10920 H 1024.46 -0.348529 -4.27181 0
M  V30 10921 H 1028.65 -1.15757 -4.82612 0
M  V30 10922 H 1023.9 -2.29281 -5.6678 0
M  V30 10923 H 1028.08 -3.10044 -6.23575 0
M  V30 10924 H 1025.7 -3.67396 -6.65525 0
M  V30 10925 N 1027.28 1.57312 -0.0952337 0
M  V30 10926 C 1028.24 2.12889 0.849161 0
M  V30 10927 C 1029.24 1.05819 1.21075 0
M  V30 10928 O 1030.43 1.31704 1.14016 0
M  V30 10929 C 1027.56 2.6496 2.14498 0
M  V30 10930 H 1028.76 2.97651 0.366566 0
M  V30 10931 H 1026.31 1.55542 0.153762 0
M  V30 10932 H 1027.05 1.83718 2.67242 0
M  V30 10933 H 1026.83 3.43244 1.89542 0
M  V30 10934 H 1028.32 3.07952 2.82056 0
M  V30 10935 N 1028.76 -0.17846 1.56586 0
M  V30 10936 C 1030.17 -0.741599 1.71339 0
M  V30 10937 C 1030.52 -1.83112 0.704579 0
M  V30 10938 O 1029.64 -2.15975 -0.135557 0
M  V30 10939 C 1030.24 -1.35198 3.10656 0
M  V30 10940 C 1028.8 -1.86202 3.27118 0
M  V30 10941 C 1027.95 -0.738255 2.67292 0
M  V30 10942 H 1030.9 0.0468424 1.58631 0
M  V30 10943 H 1030.92 -2.2216 3.0891 0
M  V30 10944 H 1030.43 -0.558776 3.84056 0
M  V30 10945 H 1028.53 -2.68188 2.58661 0
M  V30 10946 H 1028.64 -2.01237 4.34788 0
M  V30 10947 H 1027.01 -1.15686 2.26912 0
M  V30 10948 H 1027.79 0.0429821 3.43273 0
M  V30 10949 N 1030.24 -1.51135 -0.446768 0
M  V30 10950 C 1031.15 -1.74595 -1.56696 0
M  V30 10951 C 1032.16 -0.629816 -1.62201 0
M  V30 10952 O 1033.34 -0.910987 -1.79619 0
M  V30 10953 C 1030.4 -1.85738 -2.9275 0
M  V30 10954 C 1029.46 -3.09564 -2.97437 0
M  V30 10955 C 1028.7 -3.20165 -4.27001 0
M  V30 10956 O 1028.92 -2.36939 -5.1886 0
M  V30 10957 O 1027.85 -4.13077 -4.3778 0
M  V30 10958 H 1031.68 -2.69601 -1.39817 0
M  V30 10959 H 1029.26 -1.35523 -0.628805 0
M  V30 10960 H 1031.15 -1.95107 -3.73512 0
M  V30 10961 H 1029.82 -0.939184 -3.09776 0
M  V30 10962 H 1028.73 -3.05679 -2.15664 0
M  V30 10963 H 1030.06 -4.01041 -2.85353 0
M  V30 10964 N 1031.71 0.701592 -1.41122 0
M  V30 10965 C 1032.96 1.45722 -1.39456 0
M  V30 10966 C 1033.28 1.95599 -0.00475228 0
M  V30 10967 O 1034.48 2.71166 0.134529 0
M  V30 10968 C 1032.94 2.63475 -2.45172 0
M  V30 10969 C 1032.55 2.20409 -3.90031 0
M  V30 10970 C 1034.29 3.4114 -2.52633 0
M  V30 10971 C 1032.2 3.35084 -4.87312 0
M  V30 10972 H 1031.13 0.547341 -0.518588 0
M  V30 10973 H 1033.78 0.762233 -1.6692 0
M  V30 10974 H 1032.16 3.35212 -2.10829 0
M  V30 10975 H 1033.33 1.56 -4.3359 0
M  V30 10976 H 1031.65 1.55752 -3.86174 0
M  V30 10977 H 1034.25 4.26496 -3.22498 0
M  V30 10978 H 1034.59 3.85915 -1.56125 0
M  V30 10979 H 1035.12 2.76456 -2.86037 0
M  V30 10980 H 1031.86 2.95327 -5.85203 0
M  V30 10981 H 1031.38 3.98362 -4.48406 0
M  V30 10982 H 1033.06 4.00949 -5.07788 0
M  V30 10983 N 1033.19 1.2685 0.935242 0
M  V30 10984 C 1034.12 1.04717 2.0388 0
M  V30 10985 C 1035.14 0.00567507 1.62799 0
M  V30 10986 O 1036.33 0.246408 1.76791 0
M  V30 10987 C 1033.43 0.56496 3.34158 0
M  V30 10988 C 1032.6 1.67704 4.03973 0
M  V30 10989 C 1031.66 1.19186 5.12524 0
M  V30 10990 O 1030.68 1.89008 5.36903 0
M  V30 10991 N 1031.89 0.0434554 5.80484 0
M  V30 10992 H 1034.65 1.99746 2.23431 0
M  V30 10993 H 1032.21 1.18316 1.10512 0
M  V30 10994 H 1034.2 0.224436 4.04077 0
M  V30 10995 H 1032.77 -0.291899 3.11234 0
M  V30 10996 H 1031.99 2.18821 3.27889 0
M  V30 10997 H 1033.28 2.42361 4.47368 0
M  V30 10998 H 1032.68 -0.539502 5.63122 0
M  V30 10999 H 1031.24 -0.237946 6.51366 0
M  V30 11000 N 1034.67 -1.14067 1.0875 0
M  V30 11001 C 1035.92 -1.84819 0.817698 0
M  V30 11002 C 1036.24 -1.83545 -0.658488 0
M  V30 11003 O 1035.51 -1.28633 -1.47751 0
M  V30 11004 H 1034.09 -0.68433 0.299502 0
M  V30 11005 H 1036.75 -1.38208 1.37421 0
M  V30 11006 H 1035.85 -2.89541 1.16501 0
M  V30 11007 N 1036.15 -0.873678 -1.31166 0
M  V30 11008 C 1037.39 -0.487178 -1.96861 0
M  V30 11009 C 1037.73 0.95887 -1.68877 0
M  V30 11010 O 1037 1.6758 -0.987279 0
M  V30 11011 C 1037.29 -0.74925 -3.52219 0
M  V30 11012 C 1037.14 -2.2451 -3.89763 0
M  V30 11013 C 1038.46 -0.218194 -4.39559 0
M  V30 11014 H 1035.58 -0.178477 -0.715063 0
M  V30 11015 H 1038.22 -1.0956 -1.55231 0
M  V30 11016 H 1036.37 -0.231403 -3.8781 0
M  V30 11017 H 1038.04 -2.83049 -3.64254 0
M  V30 11018 H 1036.28 -2.71621 -3.38237 0
M  V30 11019 H 1036.95 -2.37911 -4.98099 0
M  V30 11020 H 1039.43 -0.661274 -4.10812 0
M  V30 11021 H 1038.31 -0.430983 -5.47205 0
M  V30 11022 H 1038.57 0.880056 -4.33252 0
M  V30 11023 N 1037.63 1.44308 -0.633487 0
M  V30 11024 C 1038.86 2.06085 -0.145852 0
M  V30 11025 C 1039.26 1.47432 1.18577 0
M  V30 11026 O 1038.61 0.592575 1.7388 0
M  V30 11027 C 1038.67 3.59477 0.0407848 0
M  V30 11028 C 1038.33 4.40607 -1.21304 0
M  V30 11029 C 1039.33 4.73937 -2.13728 0
M  V30 11030 C 1037.02 4.80943 -1.44911 0
M  V30 11031 C 1039.01 5.46489 -3.28068 0
M  V30 11032 C 1036.7 5.53243 -2.59548 0
M  V30 11033 C 1037.69 5.85936 -3.50953 0
M  V30 11034 O 1037.38 6.56764 -4.6359 0
M  V30 11035 H 1037.11 0.671484 -0.0780085 0
M  V30 11036 H 1039.67 1.86128 -0.868658 0
M  V30 11037 H 1037.9 3.77933 0.818761 0
M  V30 11038 H 1039.59 4.03013 0.483273 0
M  V30 11039 H 1040.35 4.43311 -1.96725 0
M  V30 11040 H 1036.23 4.54915 -0.746537 0
M  V30 11041 H 1039.78 5.71924 -3.99435 0
M  V30 11042 H 1035.67 5.83285 -2.76493 0
M  V30 11043 H 1036.44 6.75234 -4.62602 0
M  V30 11044 N 1039.1 0.374177 1.53094 0
M  V30 11045 C 1040.35 -0.212816 2.01379 0
M  V30 11046 C 1040.68 -1.48069 1.26118 0
M  V30 11047 O 1039.93 -1.92625 0.345561 0
M  V30 11048 C 1040.23 -0.542179 3.53264 0
M  V30 11049 C 1039.9 0.632375 4.46444 0
M  V30 11050 C 1038.56 0.954635 4.71636 0
M  V30 11051 C 1040.91 1.41887 5.01515 0
M  V30 11052 C 1038.24 2.06521 5.4915 0
M  V30 11053 C 1040.59 2.51993 5.80243 0
M  V30 11054 C 1039.26 2.84744 6.03719 0
M  V30 11055 H 1038.53 -0.0778749 0.736897 0
M  V30 11056 H 1041.17 0.508412 1.84628 0
M  V30 11057 H 1039.48 -1.34454 3.68007 0
M  V30 11058 H 1041.18 -1.00874 3.88105 0
M  V30 11059 H 1037.77 0.371179 4.2699 0
M  V30 11060 H 1041.95 1.18315 4.81991 0
M  V30 11061 H 1037.21 2.32284 5.65557 0
M  V30 11062 H 1041.38 3.13346 6.21922 0
M  V30 11063 H 1039.01 3.70921 6.63568 0
M  V30 11064 N 1040.58 -1.57259 0.103575 0
M  V30 11065 C 1041.53 -2.14487 -0.852295 0
M  V30 11066 C 1042.5 -1.06567 -1.27407 0
M  V30 11067 O 1043.68 -1.34398 -1.35432 0
M  V30 11068 C 1040.82 -2.73632 -2.10284 0
M  V30 11069 C 1039.94 -3.95811 -1.73083 0
M  V30 11070 C 1039.07 -4.43093 -2.92988 0
M  V30 11071 C 1038.11 -5.5784 -2.51953 0
M  V30 11072 N 1037.25 -5.99936 -3.64721 0
M  V30 11073 H 1042.09 -2.95849 -0.35743 0
M  V30 11074 H 1039.63 -1.46175 -0.164748 0
M  V30 11075 H 1041.58 -3.06046 -2.83534 0
M  V30 11076 H 1040.21 -1.94985 -2.57256 0
M  V30 11077 H 1039.27 -3.69656 -0.897688 0
M  V30 11078 H 1040.58 -4.79066 -1.38916 0
M  V30 11079 H 1039.73 -4.77335 -3.74481 0
M  V30 11080 H 1038.47 -3.58756 -3.30372 0
M  V30 11081 H 1037.48 -5.23217 -1.6889 0
M  V30 11082 H 1038.7 -6.43932 -2.15705 0
M  V30 11083 H 1036.65 -5.18543 -4.01807 0
M  V30 11084 H 1036.56 -6.78008 -3.34427 0
M  V30 11085 H 1037.83 -6.38812 -4.46699 0
M  V30 11086 N 1042.06 0.170153 -1.56679 0
M  V30 11087 C 1042.99 1.23525 -1.93066 0
M  V30 11088 C 1044.01 1.40414 -0.823879 0
M  V30 11089 O 1045.19 1.40396 -1.10232 0
M  V30 11090 C 1042.29 2.60376 -2.16928 0
M  V30 11091 C 1041.47 2.6477 -3.4816 0
M  V30 11092 C 1040.53 3.82993 -3.60837 0
M  V30 11093 O 1039.55 3.68937 -4.33444 0
M  V30 11094 N 1040.75 4.99498 -2.95773 0
M  V30 11095 H 1043.52 0.926172 -2.8503 0
M  V30 11096 H 1041.08 0.359909 -1.57849 0
M  V30 11097 H 1043.07 3.37934 -2.22672 0
M  V30 11098 H 1041.64 2.83669 -1.31342 0
M  V30 11099 H 1040.86 1.73298 -3.54064 0
M  V30 11100 H 1042.15 2.64717 -4.34514 0
M  V30 11101 H 1041.55 5.13819 -2.36657 0
M  V30 11102 H 1040.11 5.74914 -3.07111 0
M  V30 11103 N 1043.54 1.5137 0.438746 0
M  V30 11104 C 1044.45 1.75424 1.55768 0
M  V30 11105 C 1045.46 0.638409 1.61865 0
M  V30 11106 O 1046.64 0.9205 1.79133 0
M  V30 11107 C 1043.71 1.87288 2.9176 0
M  V30 11108 C 1042.77 3.11137 2.95791 0
M  V30 11109 C 1042 3.22425 4.25297 0
M  V30 11110 O 1042.22 2.39688 5.17596 0
M  V30 11111 O 1041.16 4.15393 4.35583 0
M  V30 11112 H 1044.98 2.70339 1.38386 0
M  V30 11113 H 1042.57 1.35854 0.621609 0
M  V30 11114 H 1044.45 1.97085 3.72472 0
M  V30 11115 H 1043.12 0.955599 3.09273 0
M  V30 11116 H 1042.03 3.06819 2.1404 0
M  V30 11117 H 1043.36 4.02549 2.83223 0
M  V30 11118 N 1045.02 -0.694098 1.41492 0
M  V30 11119 C 1046.26 -1.45127 1.4065 0
M  V30 11120 C 1046.59 -1.94993 0.0170289 0
M  V30 11121 O 1045.86 -1.71799 -0.941372 0
M  V30 11122 H 1044.44 -0.538493 0.51772 0
M  V30 11123 H 1047.1 -0.821441 1.76744 0
M  V30 11124 H 1046.19 -2.31372 2.0946 0
M  V30 11125 N 1046.49 -1.27344 -0.928501 0
M  V30 11126 C 1047.77 -1.04362 -1.65433 0
M  V30 11127 C 1048.15 0.421896 -2.06841 0
M  V30 11128 O 1047.5 1.40496 -1.80203 0
M  V30 11129 C 1047.71 -2.00442 -2.85699 0
M  V30 11130 C 1049.06 -2.29767 -3.57061 0
M  V30 11131 O 1050.08 -1.98409 -2.95825 0
M  V30 11132 O 1048.94 -2.83217 -4.67387 0
M  V30 11133 H 1046.03 -0.397783 -0.72505 0
M  V30 11134 H 1048.58 -1.38606 -0.979109 0
M  V30 11135 H 1047.35 -2.99281 -2.52085 0
M  V30 11136 H 1046.98 -1.66755 -3.60941 0
M  V30 11137 N 1047.97 1.13488 -1.09353 0
M  V30 11138 C 1048.92 2.18876 -0.732251 0
M  V30 11139 C 1049.89 1.63616 0.286175 0
M  V30 11140 O 1051.07 1.90059 0.167981 0
M  V30 11141 C 1048.21 3.44737 -0.158157 0
M  V30 11142 C 1047.33 4.14104 -1.23053 0
M  V30 11143 C 1046.46 5.27578 -0.619272 0
M  V30 11144 C 1045.5 5.88793 -1.67301 0
M  V30 11145 N 1044.64 6.937 -1.08283 0
M  V30 11146 H 1049.48 2.49128 -1.63522 0
M  V30 11147 H 1047.02 1.22326 -0.816995 0
M  V30 11148 H 1048.97 4.16756 0.192488 0
M  V30 11149 H 1047.6 3.14938 0.708082 0
M  V30 11150 H 1046.66 3.40376 -1.69847 0
M  V30 11151 H 1047.97 4.55683 -2.02865 0
M  V30 11152 H 1047.12 6.0631 -0.217428 0
M  V30 11153 H 1045.86 4.87246 0.210399 0
M  V30 11154 H 1044.87 5.08756 -2.0844 0
M  V30 11155 H 1046.09 6.31197 -2.50533 0
M  V30 11156 H 1044.04 6.55426 -0.274426 0
M  V30 11157 H 1043.95 7.33817 -1.81792 0
M  V30 11158 H 1045.22 7.76286 -0.707167 0
M  V30 11159 N 1049.45 0.880621 1.30701 0
M  V30 11160 C 1050.7 0.497611 1.966 0
M  V30 11161 C 1051.03 -0.949901 1.69383 0
M  V30 11162 O 1050.31 -1.67054 0.996152 0
M  V30 11163 C 1050.59 0.767919 3.51817 0
M  V30 11164 C 1050.44 2.26574 3.88567 0
M  V30 11165 C 1051.76 0.241502 4.39437 0
M  V30 11166 H 1048.88 0.182267 0.714106 0
M  V30 11167 H 1051.52 1.10382 1.54648 0
M  V30 11168 H 1049.67 0.251967 3.87682 0
M  V30 11169 H 1051.34 2.84977 3.62748 0
M  V30 11170 H 1049.59 2.73411 3.36792 0
M  V30 11171 H 1050.26 2.40549 4.9683 0
M  V30 11172 H 1052.73 0.683051 4.10455 0
M  V30 11173 H 1051.61 0.459997 5.46969 0
M  V30 11174 H 1051.87 -0.857068 4.33713 0
M  V30 11175 N 1050.93 -1.4397 0.641131 0
M  V30 11176 C 1052.18 -2.02246 0.14985 0
M  V30 11177 C 1052.51 -1.50387 -1.22871 0
M  V30 11178 O 1051.78 -0.692003 -1.81773 0
M  V30 11179 C 1052.07 -3.59798 0.147449 0
M  V30 11180 C 1051.92 -4.21916 1.55907 0
M  V30 11181 C 1053.24 -4.36985 -0.522667 0
M  V30 11182 H 1050.36 -0.734875 0.0559274 0
M  V30 11183 H 1053 -1.71418 0.819513 0
M  V30 11184 H 1051.15 -3.86193 -0.422789 0
M  V30 11185 H 1052.82 -4.06594 2.17896 0
M  V30 11186 H 1051.06 -3.79028 2.10998 0
M  V30 11187 H 1051.74 -5.30964 1.50934 0
M  V30 11188 H 1054.21 -4.16083 -0.0376226 0
M  V30 11189 H 1053.09 -5.46676 -0.493572 0
M  V30 11190 H 1053.35 -4.12335 -1.59475 0
M  V30 11191 N 1052.41 -0.382291 -1.52893 0
M  V30 11192 C 1053.37 0.44408 -2.24857 0
M  V30 11193 C 1054.37 0.996004 -1.26239 0
M  V30 11194 O 1055.56 0.879114 -1.5039 0
M  V30 11195 C 1052.69 1.62234 -2.99822 0
M  V30 11196 H 1053.89 -0.185862 -2.99324 0
M  V30 11197 H 1051.44 -0.134275 -1.55722 0
M  V30 11198 H 1052.17 2.28991 -2.29638 0
M  V30 11199 H 1051.96 1.23336 -3.72197 0
M  V30 11200 H 1053.45 2.20756 -3.54481 0
M  V30 11201 N 1053.89 1.57202 -0.111913 0
M  V30 11202 C 1055.12 1.99008 0.554907 0
M  V30 11203 C 1055.52 0.990323 1.61212 0
M  V30 11204 O 1054.87 -0.0259612 1.83682 0
M  V30 11205 C 1054.93 3.37218 1.24598 0
M  V30 11206 C 1054.59 4.55752 0.337549 0
M  V30 11207 C 1055.59 5.18192 -0.421026 0
M  V30 11208 C 1053.27 5.01674 0.25069 0
M  V30 11209 C 1055.27 6.24938 -1.25426 0
M  V30 11210 C 1052.96 6.08282 -0.586186 0
M  V30 11211 C 1053.95 6.6978 -1.3373 0
M  V30 11212 O 1053.64 7.7433 -2.16029 0
M  V30 11213 H 1053.37 0.658669 0.152091 0
M  V30 11214 H 1055.93 2.04492 -0.192937 0
M  V30 11215 H 1054.16 3.28467 2.04074 0
M  V30 11216 H 1055.85 3.63359 1.809 0
M  V30 11217 H 1056.61 4.83634 -0.363752 0
M  V30 11218 H 1052.49 4.53558 0.825005 0
M  V30 11219 H 1056.04 6.72869 -1.84102 0
M  V30 11220 H 1051.93 6.42271 -0.64488 0
M  V30 11221 H 1052.7 7.91395 -2.08894 0
M  V30 11222 N 1055.36 -0.161842 1.56767 0
M  V30 11223 C 1056.61 -0.875192 1.82167 0
M  V30 11224 C 1056.93 -1.82367 0.690444 0
M  V30 11225 O 1056.2 -1.93756 -0.289023 0
M  V30 11226 H 1054.78 -0.326178 0.672024 0
M  V30 11227 H 1057.44 -0.159392 1.94247 0
M  V30 11228 H 1056.54 -1.44639 2.76561 0
M  V30 11229 N 1056.84 -1.516 -0.430713 0
M  V30 11230 C 1057.75 -1.76247 -1.54836 0
M  V30 11231 C 1058.77 -0.646985 -1.61524 0
M  V30 11232 O 1059.94 -0.929987 -1.78643 0
M  V30 11233 C 1057.01 -1.88833 -2.90763 0
M  V30 11234 C 1056.07 -3.12701 -2.94137 0
M  V30 11235 C 1055.3 -3.24676 -4.23581 0
M  V30 11236 O 1055.53 -2.42429 -5.16318 0
M  V30 11237 O 1054.46 -4.17697 -4.33374 0
M  V30 11238 H 1058.29 -2.71069 -1.3695 0
M  V30 11239 H 1055.87 -1.36182 -0.614396 0
M  V30 11240 H 1057.75 -1.99057 -3.71422 0
M  V30 11241 H 1056.43 -0.971987 -3.08762 0
M  V30 11242 H 1055.33 -3.0795 -2.1241 0
M  V30 11243 H 1056.67 -4.04045 -2.81084 0
M  V30 11244 N 1058.32 0.686584 -1.41858 0
M  V30 11245 C 1059.57 1.44879 -1.41908 0
M  V30 11246 C 1059.9 1.94175 -0.0311408 0
M  V30 11247 O 1059.17 1.70131 0.942646 0
M  V30 11248 C 1059.46 2.65428 -2.43352 0
M  V30 11249 C 1059.31 2.2184 -3.91289 0
M  V30 11250 C 1060.63 3.67635 -2.41934 0
M  V30 11251 H 1057.75 0.525477 -0.516762 0
M  V30 11252 H 1060.39 0.781263 -1.73194 0
M  V30 11253 H 1058.54 3.2238 -2.16803 0
M  V30 11254 H 1060.21 1.70146 -4.28775 0
M  V30 11255 H 1058.45 1.53531 -4.05722 0
M  V30 11256 H 1059.13 3.08376 -4.5783 0
M  V30 11257 H 1061.6 3.20376 -2.65516 0
M  V30 11258 H 1060.48 4.49579 -3.14913 0
M  V30 11259 H 1060.74 4.17953 -1.44111 0
M  V30 11260 N 1059.8 1.27835 0.921735 0
M  V30 11261 C 1061.03 1.17182 1.70153 0
M  V30 11262 C 1061.44 -0.273207 1.87217 0
M  V30 11263 O 1060.78 -1.19729 1.39322 0
M  V30 11264 C 1060.84 1.78969 3.11786 0
M  V30 11265 C 1060.5 3.28179 3.18037 0
M  V30 11266 C 1061.5 4.24729 2.99835 0
M  V30 11267 C 1059.19 3.68995 3.40805 0
M  V30 11268 C 1061.18 5.60071 3.04301 0
M  V30 11269 C 1058.87 5.04465 3.44904 0
M  V30 11270 C 1059.87 5.99813 3.2667 0
M  V30 11271 O 1059.55 7.32813 3.30515 0
M  V30 11272 H 1059.29 0.408079 0.538932 0
M  V30 11273 H 1061.84 1.69326 1.16266 0
M  V30 11274 H 1060.07 1.2131 3.6718 0
M  V30 11275 H 1061.76 1.62946 3.71757 0
M  V30 11276 H 1062.52 3.94533 2.8208 0
M  V30 11277 H 1058.4 2.9525 3.54045 0
M  V30 11278 H 1061.95 6.34471 2.89987 0
M  V30 11279 H 1057.84 5.34315 3.62185 0
M  V30 11280 H 1058.61 7.41338 3.4693 0
M  V30 11281 N 1061.28 -1.12907 1.09954 0
M  V30 11282 C 1062.55 -1.80602 0.751148 0
M  V30 11283 C 1062.93 -1.96826 -0.763077 0
M  V30 11284 O 1062.28 -1.54066 -1.68749 0
M  V30 11285 C 1062.49 -3.15289 1.49646 0
M  V30 11286 C 1063.84 -3.9056 1.66578 0
M  V30 11287 O 1064.86 -3.24929 1.45943 0
M  V30 11288 O 1063.72 -5.08292 2.00752 0
M  V30 11289 H 1060.82 -0.781529 0.270446 0
M  V30 11290 H 1063.36 -1.19786 1.20206 0
M  V30 11291 H 1062.13 -2.9874 2.52725 0
M  V30 11292 H 1061.76 -3.83809 1.03808 0
M  V30 11293 N 1062.75 -0.88754 -1.30232 0
M  V30 11294 C 1063.72 -0.361095 -2.26338 0
M  V30 11295 C 1064.72 0.497871 -1.52898 0
M  V30 11296 O 1065.91 0.30466 -1.71515 0
M  V30 11297 C 1063.04 0.485135 -3.3743 0
M  V30 11298 H 1064.23 -1.20973 -2.74419 0
M  V30 11299 H 1061.78 -0.664619 -1.41466 0
M  V30 11300 H 1062.52 1.35425 -2.9467 0
M  V30 11301 H 1062.3 -0.130173 -3.91884 0
M  V30 11302 H 1063.79 0.845169 -4.08958 0
M  V30 11303 N 1064.23 1.43628 -0.648757 0
M  V30 11304 C 1065.14 2.34554 0.0463037 0
M  V30 11305 C 1066.16 1.53629 0.816952 0
M  V30 11306 O 1067.33 1.86297 0.765212 0
M  V30 11307 C 1064.4 3.3185 1.00381 0
M  V30 11308 C 1063.46 4.2868 0.230589 0
M  V30 11309 C 1062.69 5.21328 1.14249 0
M  V30 11310 O 1062.92 5.18298 2.38166 0
M  V30 11311 O 1061.85 5.98726 0.617296 0
M  V30 11312 H 1065.68 2.95475 -0.702008 0
M  V30 11313 H 1063.26 1.43694 -0.408942 0
M  V30 11314 H 1065.14 3.91692 1.5542 0
M  V30 11315 H 1063.82 2.73439 1.73243 0
M  V30 11316 H 1062.73 3.72332 -0.363282 0
M  V30 11317 H 1064.06 4.90061 -0.458368 0
M  V30 11318 N 1065.71 0.390394 1.52688 0
M  V30 11319 C 1066.96 -0.191729 2.01892 0
M  V30 11320 C 1067.29 -1.4637 1.27631 0
M  V30 11321 O 1066.56 -1.90809 0.377094 0
M  V30 11322 C 1066.85 -0.458535 3.57169 0
M  V30 11323 C 1066.7 0.828796 4.42098 0
M  V30 11324 C 1068.02 -1.2487 4.22014 0
M  V30 11325 H 1065.14 -0.0682091 0.733837 0
M  V30 11326 H 1067.78 0.520176 1.82741 0
M  V30 11327 H 1065.93 -1.06498 3.73618 0
M  V30 11328 H 1067.6 1.46562 4.37398 0
M  V30 11329 H 1065.85 1.44388 4.09066 0
M  V30 11330 H 1066.52 0.596746 5.48765 0
M  V30 11331 H 1068.99 -0.735452 4.09549 0
M  V30 11332 H 1067.87 -1.40412 5.30637 0
M  V30 11333 H 1068.13 -2.2642 3.79719 0
M  V30 11334 N 1067.19 -1.57141 0.120249 0
M  V30 11335 C 1068.15 -2.14213 -0.815185 0
M  V30 11336 C 1069.15 -1.07731 -1.19376 0
M  V30 11337 O 1070.34 -1.33502 -1.11906 0
M  V30 11338 C 1067.47 -2.68339 -2.10255 0
M  V30 11339 H 1068.67 -2.98197 -0.319166 0
M  V30 11340 H 1066.22 -1.55767 -0.128997 0
M  V30 11341 H 1066.95 -1.87946 -2.64285 0
M  V30 11342 H 1066.74 -3.46216 -1.84057 0
M  V30 11343 H 1068.23 -3.124 -2.77121 0
M  V30 11344 N 1068.67 0.153526 -1.5685 0
M  V30 11345 C 1069.61 1.18973 -1.97773 0
M  V30 11346 C 1070.58 1.43041 -0.844311 0
M  V30 11347 O 1071.77 1.55484 -1.10586 0
M  V30 11348 C 1068.91 2.51981 -2.35795 0
M  V30 11349 C 1068.02 2.35143 -3.62397 0
M  V30 11350 C 1067.16 3.61141 -3.89552 0
M  V30 11351 C 1066.2 3.39311 -5.09445 0
M  V30 11352 N 1065.33 4.57423 -5.32643 0
M  V30 11353 H 1070.17 0.833758 -2.86099 0
M  V30 11354 H 1067.71 0.400252 -1.4155 0
M  V30 11355 H 1069.67 3.29527 -2.55867 0
M  V30 11356 H 1068.3 2.85539 -1.50557 0
M  V30 11357 H 1067.35 1.48684 -3.50139 0
M  V30 11358 H 1068.66 2.14969 -4.501 0
M  V30 11359 H 1067.82 4.47117 -4.10087 0
M  V30 11360 H 1066.55 3.84312 -3.00259 0
M  V30 11361 H 1065.56 2.51723 -4.8879 0
M  V30 11362 H 1066.78 3.17545 -6.00285 0
M  V30 11363 H 1064.73 4.8078 -4.46303 0
M  V30 11364 H 1064.65 4.40228 -6.14602 0
M  V30 11365 H 1065.92 5.44632 -5.57671 0
M  V30 11366 N 1070.14 1.51827 0.422667 0
M  V30 11367 C 1071.09 1.74791 1.53463 0
M  V30 11368 C 1072.09 0.614602 1.57858 0
M  V30 11369 O 1073.29 0.796336 1.61426 0
M  V30 11370 H 1069.67 0.552524 0.510118 0
M  V30 11371 H 1071.64 2.67974 1.31273 0
M  V30 11372 C 1070.39 1.90339 2.90975 0
M  V30 11373 H 1069.71 2.76958 2.8833 0
M  V30 11374 H 1071.15 2.10413 3.68106 0
M  V30 11375 C 1069.61 0.66695 3.30232 0
M  V30 11376 O 1070.14 -0.171542 4.01334 0
M  V30 11377 N 1068.35 0.506768 2.86147 0
M  V30 11378 H 1067.89 1.19019 2.28456 0
M  V30 11379 H 1067.85 -0.319247 3.12775 0
M  V30 11380 N 1071.62 -0.679052 1.4222 0
M  V30 11381 C 1072.9 -1.43473 1.32947 0
M  V30 11382 C 1073.28 -2.11071 -0.0351689 0
M  V30 11383 O 1072.63 -2.02925 -1.05042 0
M  V30 11384 C 1072.84 -2.44065 2.49466 0
M  V30 11385 C 1074.19 -3.08834 2.91387 0
M  V30 11386 O 1075.21 -2.54392 2.49325 0
M  V30 11387 O 1074.07 -4.07478 3.64175 0
M  V30 11388 H 1071.16 -0.639743 0.524078 0
M  V30 11389 H 1073.71 -0.708134 1.54219 0
M  V30 11390 H 1072.48 -1.92884 3.40457 0
M  V30 11391 H 1072.1 -3.24212 2.30158 0
M  V30 11392 N 1073.1 -1.28322 -0.914942 0
M  V30 11393 C 1074.38 -1.06111 -1.64316 0
M  V30 11394 C 1074.76 0.399934 -2.07277 0
M  V30 11395 O 1074.11 1.38577 -1.81683 0
M  V30 11396 C 1074.32 -2.03461 -2.83557 0
M  V30 11397 C 1075.66 -2.33541 -3.54604 0
M  V30 11398 O 1076.69 -2.01536 -2.93704 0
M  V30 11399 O 1075.55 -2.88158 -4.64357 0
M  V30 11400 H 1072.64 -0.405451 -0.72079 0
M  V30 11401 H 1075.19 -1.39636 -0.964352 0
M  V30 11402 H 1073.96 -3.01938 -2.48896 0
M  V30 11403 H 1073.58 -1.70574 -3.59152 0
M  V30 11404 N 1074.58 1.12322 -1.10551 0
M  V30 11405 C 1075.99 1.35858 -0.837543 0
M  V30 11406 C 1076.19 1.94062 0.54241 0
M  V30 11407 O 1075.25 2.1676 1.29505 0
M  V30 11408 C 1076.56 2.299 -1.9382 0
M  V30 11409 C 1078.11 2.43488 -1.96679 0
M  V30 11410 C 1078.59 3.40846 -3.05922 0
M  V30 11411 N 1080.08 3.48404 -3.05236 0
M  V30 11412 C 1080.81 4.2365 -3.86405 0
M  V30 11413 N 1080.31 5.01951 -4.77512 0
M  V30 11414 N 1082.1 4.19068 -3.74618 0
M  V30 11415 H 1074.25 0.729002 -1.99498 0
M  V30 11416 H 1076.52 0.38339 -0.867016 0
M  V30 11417 H 1076.22 1.94309 -2.9315 0
M  V30 11418 H 1076.1 3.30033 -1.82641 0
M  V30 11419 H 1078.48 2.78359 -0.979813 0
M  V30 11420 H 1078.56 1.43239 -2.11934 0
M  V30 11421 H 1078.21 3.06704 -4.04839 0
M  V30 11422 H 1078.14 4.40927 -2.87907 0
M  V30 11423 H 1080.63 2.92545 -2.39219 0
M  V30 11424 H 1080.94 5.56707 -5.36002 0
M  V30 11425 H 1079.29 5.01143 -4.8154 0
M  V30 11426 H 1082.48 3.5698 -3.02792 0
M  V30 11427 H 1082.65 4.77455 -4.38111 0
M  V30 11428 N 1076.06 0.894434 1.2976 0
M  V30 11429 C 1077.29 0.532143 1.99629 0
M  V30 11430 C 1077.69 -0.886234 1.6716 0
M  V30 11431 O 1077.04 -1.59573 0.910065 0
M  V30 11432 C 1077.1 0.638335 3.53787 0
M  V30 11433 C 1076.76 2.02273 4.09798 0
M  V30 11434 C 1077.76 2.99327 4.25087 0
M  V30 11435 C 1075.45 2.33069 4.44954 0
M  V30 11436 C 1077.44 4.25304 4.74758 0
M  V30 11437 C 1075.13 3.59289 4.94322 0
M  V30 11438 C 1076.12 4.55222 5.09178 0
M  V30 11439 O 1075.81 5.79202 5.57477 0
M  V30 11440 H 1075.54 0.203326 0.644697 0
M  V30 11441 H 1078.1 1.2043 1.6639 0
M  V30 11442 H 1076.33 -0.0908338 3.86593 0
M  V30 11443 H 1078.02 0.285956 4.04891 0
M  V30 11444 H 1078.78 2.76849 3.9822 0
M  V30 11445 H 1074.66 1.59162 4.32653 0
M  V30 11446 H 1078.21 5.00189 4.86269 0
M  V30 11447 H 1074.1 3.816 5.20626 0
M  V30 11448 H 1074.87 5.81717 5.75802 0
M  V30 11449 N 1077.53 -1.43282 0.656365 0
M  V30 11450 C 1078.48 -2.32556 -0.0452037 0
M  V30 11451 C 1079.48 -1.48789 -0.80982 0
M  V30 11452 O 1080.68 -1.64979 -0.719865 0
M  V30 11453 H 1077.06 -0.751258 -0.0334043 0
M  V30 11454 H 1079.03 -2.89448 0.725423 0
M  V30 11455 C 1077.78 -3.33138 -0.995706 0
M  V30 11456 H 1077.1 -3.97622 -0.416774 0
M  V30 11457 H 1078.54 -3.98231 -1.45562 0
M  V30 11458 C 1077 -2.63978 -2.09325 0
M  V30 11459 O 1077.53 -2.45769 -3.17743 0
M  V30 11460 N 1075.74 -2.23301 -1.8597 0
M  V30 11461 H 1075.28 -2.38312 -0.97802 0
M  V30 11462 H 1075.24 -1.77358 -2.59599 0
M  V30 11463 N 1079.01 -0.398486 -1.52479 0
M  V30 11464 C 1079.96 0.447001 -2.28264 0
M  V30 11465 C 1080.96 1.05511 -1.32529 0
M  V30 11466 O 1082.16 0.994528 -1.5003 0
M  V30 11467 H 1078.54 0.162919 -0.73414 0
M  V30 11468 H 1080.51 -0.213534 -2.97635 0
M  V30 11469 C 1079.26 1.55724 -3.10879 0
M  V30 11470 H 1078.58 1.09864 -3.84409 0
M  V30 11471 H 1080.02 2.12286 -3.67029 0
M  V30 11472 C 1078.48 2.51853 -2.23768 0
M  V30 11473 O 1079.01 3.55483 -1.87069 0
M  V30 11474 N 1077.21 2.2181 -1.87746 0
M  V30 11475 H 1076.76 1.3757 -2.17789 0
M  V30 11476 H 1076.72 2.86376 -1.29753 0
M  V30 11477 O 1080.53 1.59242 -0.269118 0
M  V30 11478 H 1081.22 1.9133 0.302063 0
M  V30 END ATOM
M  V30 BEGIN BOND
M  V30 END BOND
M  V30 END CTAB
M  END
$$$$
