drugbank_target|P62277 40S ribosomal protein S13 (DB11638)
 OpenBabel12092121093D

  0  0  0     0  0            999 V3000
M  V30 BEGIN CTAB
M  V30 COUNTS 2522 2546 0 0 0
M  V30 BEGIN ATOM
M  V30 1 H -0.908 1.98254 -0.117106 0
M  V30 2 N 0 1.576 0 0
M  V30 3 C 0.933 2.03868 1.02534 0
M  V30 4 C 1.911 0.928543 1.3348 0
M  V30 5 O 3.095 1.19667 1.45644 0
M  V30 6 C 0.222 2.43627 2.35294 0
M  V30 7 C -0.732 3.65373 2.2001 0
M  V30 8 S 0.101 5.13292 1.52614 0
M  V30 9 C 1.257 5.56322 2.86805 0
M  V30 10 H 1.49 2.90518 0.631377 0
M  V30 11 H -0.977 1.52953 0.210867 0
M  V30 12 H 0.981 2.67203 3.11629 0
M  V30 13 H -0.358 1.57376 2.7183 0
M  V30 14 H -1.165 3.90944 3.18086 0
M  V30 15 H -1.563 3.418 1.51819 0
M  V30 16 H 0.729 5.58782 3.83104 0
M  V30 17 H 1.672 6.56266 2.65933 0
M  V30 18 H 2.08 4.83886 2.90714 0
M  V30 19 N 1.4781 -0.272755 1.55222 0
M  V30 20 C 2.7261 -1.00234 1.75492 0
M  V30 21 C 3.0471 -1.8681 0.5592 0
M  V30 22 O 2.3171 -1.91215 -0.425882 0
M  V30 23 H 0.8971 -0.373076 0.647166 0
M  V30 24 H 3.5591 -0.296926 1.92625 0
M  V30 25 H 2.6551 -1.63913 2.65592 0
M  V30 26 N 2.9562 -1.48159 -0.537278 0
M  V30 27 C 4.3722 -1.34118 -0.865129 0
M  V30 28 C 4.5722 -0.346678 -1.98495 0
M  V30 29 O 3.6282 0.234715 -2.51407 0
M  V30 30 C 4.9412 -2.73963 -1.23954 0
M  V30 31 C 6.4892 -2.82397 -1.34984 0
M  V30 32 C 6.9642 -4.22928 -1.75772 0
M  V30 33 N 8.4552 -4.25566 -1.82887 0
M  V30 34 C 9.1902 -5.31235 -2.15817 0
M  V30 35 N 8.6862 -6.47189 -2.47222 0
M  V30 36 N 10.4792 -5.18624 -2.16761 0
M  V30 37 H 2.6302 -2.1144 0.201715 0
M  V30 38 H 4.8932 -0.947598 0.0275949 0
M  V30 39 H 4.5992 -3.48264 -0.490381 0
M  V30 40 H 4.4732 -3.0702 -2.19132 0
M  V30 41 H 6.8602 -2.08356 -2.08978 0
M  V30 42 H 6.9412 -2.5297 -0.379448 0
M  V30 43 H 6.5852 -4.97482 -1.02341 0
M  V30 44 H 6.5152 -4.49794 -2.73848 0
M  V30 45 H 9.0062 -3.41924 -1.60924 0
M  V30 46 H 9.3192 -7.23564 -2.71433 0
M  V30 47 H 7.6642 -6.50476 -2.44757 0
M  V30 48 H 10.8552 -4.27056 -1.91679 0
M  V30 49 H 11.0282 -6.01078 -2.42093 0
M  V30 50 N 4.4343 0.785586 -1.36625 0
M  V30 51 C 5.3673 1.90509 -1.25625 0
M  V30 52 C 6.3453 1.62 -0.139607 0
M  V30 53 O 7.5293 1.8591 -0.31141 0
M  V30 54 C 4.6563 3.25419 -0.939158 0
M  V30 55 C 3.7023 3.72856 -2.07077 0
M  V30 56 S 4.5353 3.88162 -3.68904 0
M  V30 57 C 5.6913 5.25942 -3.39317 0
M  V30 58 H 5.9243 1.99549 -2.20381 0
M  V30 59 H 3.4573 0.945226 -1.22085 0
M  V30 60 H 5.4153 4.03346 -0.763029 0
M  V30 61 H 4.0763 3.14099 -0.00931402 0
M  V30 62 H 3.2693 4.70624 -1.80357 0
M  V30 63 H 2.8713 3.01989 -2.20632 0
M  V30 64 H 5.1633 6.10651 -2.93447 0
M  V30 65 H 6.1063 5.57668 -4.36363 0
M  V30 66 H 6.5143 4.93224 -2.74573 0
M  V30 67 N 5.9124 1.20967 1.01018 0
M  V30 68 C 6.8624 0.93182 2.08089 0
M  V30 69 C 7.8464 -0.110898 1.60517 0
M  V30 70 O 9.0384 0.0973392 1.76732 0
M  V30 71 C 6.1674 0.492719 3.39746 0
M  V30 72 C 5.2534 1.56922 3.94 0
M  V30 73 N 5.6444 2.79312 4.21686 0
M  V30 74 C 3.9424 1.43688 4.2222 0
M  V30 75 C 4.6434 3.48797 4.65527 0
M  V30 76 N 3.6194 2.76224 4.68189 0
M  V30 77 H 7.4214 1.86175 2.27412 0
M  V30 78 H 4.9354 1.10463 1.19045 0
M  V30 79 H 6.9324 0.275044 4.15992 0
M  V30 80 H 5.5924 -0.430509 3.21833 0
M  V30 81 H 6.6034 3.15903 4.10397 0
M  V30 82 H 3.2804 0.578548 4.13472 0
M  V30 83 H 4.6704 4.53561 4.95714 0
M  V30 84 N 7.3905 -1.2043 1.01659 0
M  V30 85 C 8.3535 -2.21433 0.591616 0
M  V30 86 C 9.3535 -1.57203 -0.338226 0
M  V30 87 O 10.5435 -1.73737 -0.126918 0
M  V30 88 C 7.6755 -3.40628 -0.136058 0
M  V30 89 H 8.8685 -2.60545 1.48514 0
M  V30 90 H 6.4215 -1.33893 0.806379 0
M  V30 91 H 7.1565 -3.07019 -1.04449 0
M  V30 92 H 6.9415 -3.88475 0.531917 0
M  V30 93 H 8.4315 -4.15475 -0.420735 0
M  V30 94 N 8.8686 -0.792821 -1.36206 0
M  V30 95 C 10.2796 -0.429513 -1.81692 0
M  V30 96 C 10.6306 1.04695 -1.65932 0
M  V30 97 O 9.7556 1.81256 -1.18218 0
M  V30 98 C 10.3506 -0.772831 -3.29868 0
M  V30 99 C 8.9096 -0.462307 -3.7355 0
M  V30 100 C 8.0566 -1.00569 -2.5842 0
M  V30 101 H 11.0076 -0.985672 -1.24379 0
M  V30 102 H 11.0286 -0.0651928 -3.80444 0
M  V30 103 H 10.5406 -1.84747 -3.41307 0
M  V30 104 H 8.6416 0.604158 -3.67669 0
M  V30 105 H 8.7546 -0.985299 -4.68859 0
M  V30 106 H 7.1186 -0.428734 -2.51066 0
M  V30 107 H 7.9016 -2.08616 -2.72643 0
M  V30 108 N 10.3467 1.47872 -0.545128 0
M  V30 109 C 11.5947 2.02093 -0.016553 0
M  V30 110 C 11.9157 1.42305 1.3332 0
M  V30 111 O 11.1857 0.593853 1.86682 0
M  V30 112 H 9.7657 0.746993 -0.00313038 0
M  V30 113 H 12.4277 1.81414 -0.712397 0
M  V30 114 H 11.5237 3.11996 0.0805422 0
M  V30 115 N 11.8248 0.280983 1.55075 0
M  V30 116 C 12.7718 -0.603937 2.22758 0
M  V30 117 C 13.7418 -1.1452 1.20309 0
M  V30 118 O 14.9268 -1.19343 1.48869 0
M  V30 119 C 12.0668 -1.77947 2.95684 0
M  V30 120 C 11.1798 -1.2715 4.12864 0
M  V30 121 C 10.3148 -2.4093 4.7342 0
M  V30 122 C 9.3538 -1.87165 5.82783 0
M  V30 123 N 8.4908 -2.94441 6.37377 0
M  V30 124 H 13.3308 -0.020124 2.97993 0
M  V30 125 H 10.8678 0.00183425 1.471 0
M  V30 126 H 12.8258 -2.47055 3.36184 0
M  V30 127 H 11.4558 -2.33522 2.22861 0
M  V30 128 H 10.5078 -0.473331 3.77444 0
M  V30 129 H 11.8198 -0.837751 4.91715 0
M  V30 130 H 10.9738 -3.18021 5.1667 0
M  V30 131 H 9.7128 -2.87623 3.93859 0
M  V30 132 H 8.7178 -1.08556 5.38976 0
M  V30 133 H 9.9428 -1.41401 6.64216 0
M  V30 134 H 7.8888 -3.40505 5.60707 0
M  V30 135 H 7.8058 -2.55501 7.11516 0
M  V30 136 H 9.0738 -3.71489 6.85285 0
M  V30 137 N 13.3029 -1.57598 0.00835791 0
M  V30 138 C 14.5509 -1.90551 -0.6734 0
M  V30 139 C 14.8719 -0.883301 -1.73847 0
M  V30 140 O 14.1419 0.0781442 -1.95744 0
M  V30 141 H 12.7219 -0.703312 -0.251717 0
M  V30 142 H 15.3839 -1.94833 0.0512592 0
M  V30 143 H 14.4799 -2.9056 -1.13935 0
M  V30 144 N 14.781 0.264519 -1.55364 0
M  V30 145 C 15.711 1.33121 -1.91836 0
M  V30 146 C 16.692 1.51101 -0.781192 0
M  V30 147 O 17.877 1.64003 -1.04003 0
M  V30 148 C 15.007 2.68921 -2.19769 0
M  V30 149 C 13.961 2.65661 -3.35571 0
M  V30 150 C 13.287 4.05093 -3.49004 0
M  V30 151 C 14.587 2.24187 -4.71739 0
M  V30 152 H 16.281 1.02844 -2.81182 0
M  V30 153 H 13.827 0.493286 -1.35287 0
M  V30 154 H 15.78 3.43663 -2.43872 0
M  V30 155 H 14.504 3.00799 -1.27231 0
M  V30 156 H 13.163 1.93377 -3.1145 0
M  V30 157 H 12.811 4.34206 -2.53917 0
M  V30 158 H 12.511 4.03804 -4.26868 0
M  V30 159 H 14.035 4.81561 -3.75408 0
M  V30 160 H 15.449 2.88654 -4.9533 0
M  V30 161 H 13.846 2.34044 -5.52579 0
M  V30 162 H 14.916 1.19327 -4.69988 0
M  V30 163 N 16.2591 1.48442 0.529413 0
M  V30 164 C 17.4841 1.60406 1.31471 0
M  V30 165 C 17.9091 0.264738 1.86228 0
M  V30 166 O 17.2671 -0.763668 1.64432 0
M  V30 167 C 17.3151 2.65419 2.44101 0
M  V30 168 O 16.4191 2.22618 3.47153 0
M  V30 169 H 15.7601 0.537863 0.389357 0
M  V30 170 H 18.2901 1.94432 0.636965 0
M  V30 171 H 18.3001 2.86709 2.90279 0
M  V30 172 H 16.9751 3.62652 2.03608 0
M  V30 173 H 15.5521 2.11543 3.0709 0
M  V30 174 N 17.7372 -0.778329 1.37039 0
M  V30 175 C 18.6692 -1.90034 1.2814 0
M  V30 176 C 19.6822 -1.61585 0.198558 0
M  V30 177 O 20.8712 -1.72625 0.454175 0
M  V30 178 C 17.9712 -3.25108 0.956968 0
M  V30 179 C 17.1442 -3.81253 2.14394 0
M  V30 180 C 16.2032 -4.94789 1.79082 0
M  V30 181 O 15.2292 -5.10721 2.51301 0
M  V30 182 N 16.4312 -5.75878 0.731043 0
M  V30 183 H 19.1962 -1.98186 2.24816 0
M  V30 184 H 16.7572 -0.957129 1.30578 0
M  V30 185 H 18.7492 -3.9857 0.701701 0
M  V30 186 H 17.3192 -3.125 0.0789812 0
M  V30 187 H 16.5392 -2.99647 2.56135 0
M  V30 188 H 17.8272 -4.15495 2.93668 0
M  V30 189 H 17.2252 -5.65547 0.131618 0
M  V30 190 H 15.7822 -6.49596 0.535622 0
M  V30 191 N 19.2153 -1.21501 -1.00376 0
M  V30 192 C 20.4403 -1.05977 -1.78279 0
M  V30 193 C 20.8653 0.385994 -1.84097 0
M  V30 194 O 20.2233 1.27849 -1.28547 0
M  V30 195 C 20.2713 -1.66302 -3.19963 0
M  V30 196 O 19.3753 -0.909333 -4.0225 0
M  V30 197 H 18.7163 -0.372906 -0.549397 0
M  V30 198 H 21.2463 -1.6107 -1.26165 0
M  V30 199 H 21.2563 -1.70574 -3.70632 0
M  V30 200 H 19.9313 -2.71515 -3.15043 0
M  V30 201 H 18.5083 -0.941795 -3.60811 0
M  V30 202 N 20.6934 1.19889 -1.02296 0
M  V30 203 C 21.6564 2.21116 -0.603351 0
M  V30 204 C 22.6564 1.5738 0.329884 0
M  V30 205 O 23.8464 1.73802 0.117702 0
M  V30 206 C 20.9784 3.40696 0.117992 0
M  V30 207 H 22.1714 2.59754 -1.49893 0
M  V30 208 H 19.7244 1.33463 -0.813468 0
M  V30 209 H 20.4594 3.07569 1.0282 0
M  V30 210 H 20.2444 3.88188 -0.552511 0
M  V30 211 H 21.7344 4.15692 0.398696 0
M  V30 212 N 22.1715 0.800033 1.35784 0
M  V30 213 C 23.1015 0.220184 2.3246 0
M  V30 214 C 24.0825 -0.65073 1.57161 0
M  V30 215 O 25.2675 -0.582359 1.85263 0
M  V30 216 C 22.3975 -0.637353 3.41402 0
M  V30 217 C 21.3515 0.134531 4.27789 0
M  V30 218 C 20.6775 -0.844285 5.27992 0
M  V30 219 C 21.9775 1.32979 5.05088 0
M  V30 220 H 23.6715 1.02787 2.81203 0
M  V30 221 H 21.2175 0.495717 1.35199 0
M  V30 222 H 23.1705 -1.05302 4.08031 0
M  V30 223 H 21.8945 -1.47785 2.91251 0
M  V30 224 H 20.5535 0.531296 3.6273 0
M  V30 225 H 20.2015 -1.68011 4.74111 0
M  V30 226 H 19.9015 -0.332184 5.8666 0
M  V30 227 H 21.4255 -1.2583 5.97494 0
M  V30 228 H 22.8395 0.98934 5.64699 0
M  V30 229 H 21.2365 1.77593 5.7322 0
M  V30 230 H 22.3065 2.11978 4.36111 0
M  V30 231 N 23.6496 -1.47581 0.552962 0
M  V30 232 C 25.0606 -1.86324 0.118463 0
M  V30 233 C 25.4116 -1.46006 -1.3106 0
M  V30 234 O 24.5366 -0.861182 -1.98526 0
M  V30 235 C 25.1316 -3.3816 0.20821 0
M  V30 236 C 23.6906 -3.7601 -0.171226 0
M  V30 237 C 22.8376 -2.71634 0.557686 0
M  V30 238 H 25.7886 -1.39159 0.762928 0
M  V30 239 H 25.8096 -3.76141 -0.574278 0
M  V30 240 H 25.3216 -3.67473 1.24841 0
M  V30 241 H 23.4226 -3.52313 -1.21269 0
M  V30 242 H 23.5356 -4.78745 0.184379 0
M  V30 243 H 21.8996 -2.547 0.00125792 0
M  V30 244 H 22.6826 -3.0379 1.59896 0
M  V30 245 N 25.1277 -0.289203 -1.54924 0
M  V30 246 C 26.3577 0.325989 -2.04012 0
M  V30 247 C 26.7657 1.48961 -1.1665 0
M  V30 248 O 26.1087 1.82794 -0.1822 0
M  V30 249 C 26.1707 0.856112 -3.49158 0
M  V30 250 C 25.8347 -0.180697 -4.56643 0
M  V30 251 C 26.8317 -1.0051 -5.10092 0
M  V30 252 C 24.5167 -0.318998 -5.01286 0
M  V30 253 C 26.5107 -1.95385 -6.06715 0
M  V30 254 C 24.1977 -1.27121 -5.97732 0
M  V30 255 C 25.1957 -2.08713 -6.50329 0
M  V30 256 O 24.8837 -3.02322 -7.44887 0
M  V30 257 H 24.6157 0.0765276 -0.671654 0
M  V30 258 H 27.1697 -0.423254 -2.00992 0
M  V30 259 H 25.3997 1.65567 -3.49463 0
M  V30 260 H 27.0887 1.38591 -3.81507 0
M  V30 261 H 27.8547 -0.90906 -4.76404 0
M  V30 262 H 23.7337 0.306108 -4.59983 0
M  V30 263 H 27.2777 -2.59111 -6.47694 0
M  V30 264 H 23.1747 -1.36801 -6.30837 0
M  V30 265 H 23.9427 -2.97165 -7.6265 0
M  V30 266 N 26.6058 1.57591 -0.0167156 0
M  V30 267 C 28.0218 1.55946 0.339557 0
M  V30 268 C 28.2218 1.02109 1.73713 0
M  V30 269 O 27.2778 0.662303 2.43659 0
M  V30 270 C 28.5908 3.00037 0.199499 0
M  V30 271 C 30.1388 3.11805 0.273193 0
M  V30 272 C 30.6138 4.57713 0.162068 0
M  V30 273 N 32.1048 4.6268 0.219444 0
M  V30 274 C 32.8398 5.73185 0.157054 0
M  V30 275 N 32.3358 6.92786 0.0442936 0
M  V30 276 N 34.1288 5.61707 0.21014 0
M  V30 277 H 26.2798 1.90921 -0.930758 0
M  V30 278 H 28.5428 0.877674 -0.358319 0
M  V30 279 H 28.2488 3.4333 -0.76273 0
M  V30 280 H 28.1228 3.64387 0.974786 0
M  V30 281 H 30.5098 2.68433 1.22587 0
M  V30 282 H 30.5908 2.50201 -0.532256 0
M  V30 283 H 30.2348 5.01763 -0.78714 0
M  V30 284 H 30.1648 5.17283 0.986222 0
M  V30 285 H 32.6558 3.76649 0.307246 0
M  V30 286 H 32.9688 7.728 0.00304069 0
M  V30 287 H 31.3138 6.94999 0.00968457 0
M  V30 288 H 34.5048 4.6716 0.296546 0
M  V30 289 H 34.6778 6.47807 0.158054 0
M  V30 290 N 28.0839 -0.256276 1.55502 0
M  V30 291 C 29.4999 -0.604325 1.47716 0
M  V30 292 C 29.6999 -1.88763 0.705039 0
M  V30 293 O 28.7559 -2.51445 0.230613 0
M  V30 294 C 30.0689 -0.715756 2.92057 0
M  V30 295 C 31.6169 -0.808706 3.02372 0
M  V30 296 C 32.0919 -0.951777 4.48001 0
M  V30 297 N 33.5829 -1.01688 4.519 0
M  V30 298 C 34.3179 -1.14668 5.61817 0
M  V30 299 N 33.8139 -1.24261 6.81565 0
M  V30 300 N 35.6069 -1.1791 5.49594 0
M  V30 301 H 27.7579 0.586291 2.04148 0
M  V30 302 H 30.0209 0.201015 0.926443 0
M  V30 303 H 29.7269 0.157027 3.51349 0
M  V30 304 H 29.6009 -1.59071 3.42018 0
M  V30 305 H 31.9879 -1.67195 2.43166 0
M  V30 306 H 32.0689 0.0912063 2.55637 0
M  V30 307 H 31.7129 -0.0931291 5.07815 0
M  V30 308 H 31.6429 -1.86659 4.92408 0
M  V30 309 H 34.1339 -0.954468 3.65648 0
M  V30 310 H 34.4469 -1.34046 7.61086 0
M  V30 311 H 32.7919 -1.21236 6.84344 0
M  V30 312 H 35.9829 -1.10057 4.54978 0
M  V30 313 H 36.1559 -1.27681 6.35296 0
M  V30 314 N 29.562 -1.4872 -0.521534 0
M  V30 315 C 30.787 -1.61101 -1.30618 0
M  V30 316 C 31.212 -0.274611 -1.86085 0
M  V30 317 O 30.57 0.754937 -1.64834 0
M  V30 318 C 30.618 -2.66709 -2.4269 0
M  V30 319 O 29.722 -2.24456 -3.45967 0
M  V30 320 H 29.063 -0.539921 -0.386499 0
M  V30 321 H 31.593 -1.94767 -0.626645 0
M  V30 322 H 31.603 -2.88245 -2.88754 0
M  V30 323 H 30.278 -3.63727 -2.01682 0
M  V30 324 H 28.855 -2.13168 -3.05964 0
M  V30 325 N 31.0401 0.771051 -1.3745 0
M  V30 326 C 32.2861 1.5319 -1.32894 0
M  V30 327 C 32.6191 1.94008 0.0862511 0
M  V30 328 O 31.8941 1.64124 1.04373 0
M  V30 329 C 32.1771 2.79648 -2.26868 0
M  V30 330 C 32.0301 2.45079 -3.77169 0
M  V30 331 C 33.3491 3.81583 -2.19277 0
M  V30 332 H 30.4681 0.555744 -0.484064 0
M  V30 333 H 33.1101 0.884492 -1.68157 0
M  V30 334 H 31.2601 3.34891 -1.96926 0
M  V30 335 H 32.9321 1.95745 -4.1771 0
M  V30 336 H 31.1751 1.77767 -3.95704 0
M  V30 337 H 31.8461 3.35478 -4.38359 0
M  V30 338 H 34.3221 3.35835 -2.45671 0
M  V30 339 H 33.1981 4.67787 -2.87171 0
M  V30 340 H 33.4591 4.25897 -1.18592 0
M  V30 341 N 32.5182 1.22032 0.997298 0
M  V30 342 C 33.9292 1.0397 1.55071 0
M  V30 343 C 34.2802 -0.398192 1.92117 0
M  V30 344 O 33.4052 -1.28254 1.74298 0
M  V30 345 C 34.0002 1.88109 2.81781 0
M  V30 346 C 32.5592 1.74357 3.33581 0
M  V30 347 C 31.7062 1.84846 2.06706 0
M  V30 348 H 34.6572 1.35941 0.818883 0
M  V30 349 H 34.6782 1.39589 3.53971 0
M  V30 350 H 34.1902 2.92754 2.54787 0
M  V30 351 H 32.2912 0.72427 3.65493 0
M  V30 352 H 32.4042 2.56772 4.04481 0
M  V30 353 H 30.7682 1.28238 2.20062 0
M  V30 354 H 31.5512 2.91014 1.82114 0
M  V30 355 N 33.9963 -1.19345 1.0293 0
M  V30 356 C 35.2243 -1.92997 0.745644 0
M  V30 357 C 35.6393 -1.75519 -0.695589 0
M  V30 358 O 34.9963 -1.07737 -1.47306 0
M  V30 359 C 35.0473 -3.44741 1.08792 0
M  V30 360 O 34.7683 -3.61658 2.47256 0
M  V30 361 C 36.2693 -4.35515 0.827129 0
M  V30 362 H 33.4893 -0.613042 0.272801 0
M  V30 363 H 36.0333 -1.51473 1.3739 0
M  V30 364 H 34.1883 -3.84097 0.504832 0
M  V30 365 H 34.6023 -4.55514 2.60015 0
M  V30 366 H 36.0763 -5.40589 1.11658 0
M  V30 367 H 36.5533 -4.38552 -0.238436 0
M  V30 368 H 37.1593 -4.01841 1.39297 0
M  V30 369 N 35.4744 -0.807222 -1.35358 0
M  V30 370 C 36.7204 -0.397594 -1.99476 0
M  V30 371 C 37.0754 1.02405 -1.62883 0
M  V30 372 O 36.3684 1.70077 -0.882282 0
M  V30 373 C 36.5624 -0.519036 -3.53611 0
M  V30 374 C 36.3914 -1.95094 -4.05177 0
M  V30 375 C 35.1614 -2.57945 -4.34503 0
M  V30 376 C 37.3594 -2.91558 -4.23673 0
M  V30 377 N 35.3414 -3.92539 -4.72003 0
M  V30 378 C 36.7124 -4.11024 -4.64176 0
M  V30 379 C 38.7674 -2.88381 -4.05883 0
M  V30 380 C 37.4704 -5.27745 -4.88751 0
M  V30 381 C 39.4964 -4.04306 -4.31614 0
M  V30 382 C 38.8584 -5.22519 -4.72391 0
M  V30 383 H 34.9574 -0.193274 -0.75774 0
M  V30 384 H 37.5414 -1.0486 -1.6405 0
M  V30 385 H 35.7124 0.101979 -3.88266 0
M  V30 386 H 37.4444 -0.0839321 -4.04613 0
M  V30 387 H 34.1994 -2.09295 -4.24844 0
M  V30 388 H 34.6234 -4.61836 -4.95011 0
M  V30 389 H 39.2654 -1.98137 -3.73499 0
M  V30 390 H 36.9834 -6.1856 -5.20008 0
M  V30 391 H 40.5694 -4.03229 -4.19402 0
M  V30 392 H 39.4494 -6.1073 -4.91913 0
M  V30 393 N 36.9525 1.47285 -0.560781 0
M  V30 394 C 37.8825 2.32857 0.173105 0
M  V30 395 C 38.8635 1.44009 0.905281 0
M  V30 396 O 40.0485 1.7286 0.885046 0
M  V30 397 C 37.1785 3.25861 1.20133 0
M  V30 398 C 36.1325 4.23978 0.585388 0
M  V30 399 C 35.4585 5.06332 1.7185 0
M  V30 400 C 36.7585 5.20242 -0.463178 0
M  V30 401 H 38.4525 2.94466 -0.541307 0
M  V30 402 H 35.9985 1.41601 -0.261764 0
M  V30 403 H 37.9515 3.84569 1.72293 0
M  V30 404 H 36.6755 2.62315 1.94573 0
M  V30 405 H 35.3345 3.66501 0.085054 0
M  V30 406 H 34.9825 4.39186 2.45203 0
M  V30 407 H 34.6825 5.72762 1.31213 0
M  V30 408 H 36.2065 5.67899 2.24329 0
M  V30 409 H 37.6205 5.73293 -0.027502 0
M  V30 410 H 36.0175 5.94896 -0.788627 0
M  V30 411 H 37.0875 4.65504 -1.35773 0
M  V30 412 N 38.4306 0.297415 1.54768 0
M  V30 413 C 39.3776 -0.580276 2.23386 0
M  V30 414 C 40.3476 -1.13238 1.21517 0
M  V30 415 O 41.5326 -1.17757 1.50126 0
M  V30 416 C 38.6726 -1.74801 2.97555 0
M  V30 417 C 37.7856 -1.22764 4.1419 0
M  V30 418 C 36.9206 -2.35895 4.75949 0
M  V30 419 C 35.9596 -1.80974 5.84735 0
M  V30 420 N 35.0966 -2.87664 6.40464 0
M  V30 421 H 39.9366 0.0114833 2.97998 0
M  V30 422 H 37.4736 0.0174361 1.4709 0
M  V30 423 H 39.4316 -2.43475 3.38786 0
M  V30 424 H 38.0616 -2.31145 2.25326 0
M  V30 425 H 37.1136 -0.433271 3.77924 0
M  V30 426 H 38.4256 -0.785551 4.92575 0
M  V30 427 H 37.5796 -3.12523 5.20014 0
M  V30 428 H 36.3186 -2.83429 3.96887 0
M  V30 429 H 35.3236 -1.02834 5.40097 0
M  V30 430 H 36.5486 -1.34348 6.65678 0
M  V30 431 H 34.4946 -3.34538 5.64287 0
M  V30 432 H 34.4116 -2.4794 7.14186 0
M  V30 433 H 35.6796 -3.642 6.89187 0
M  V30 434 N 39.9087 -1.5758 0.0250728 0
M  V30 435 C 40.8387 -2.13007 -0.956575 0
M  V30 436 C 41.8197 -1.0452 -1.342 0
M  V30 437 O 43.0047 -1.32332 -1.42133 0
M  V30 438 C 40.1347 -2.65386 -2.24026 0
M  V30 439 C 39.0887 -3.78623 -1.99571 0
M  V30 440 C 38.4147 -4.17414 -3.3417 0
M  V30 441 C 39.7147 -5.04867 -1.33814 0
M  V30 442 H 41.4087 -2.9528 -0.494991 0
M  V30 443 H 38.9547 -1.42042 -0.236651 0
M  V30 444 H 40.9077 -3.02794 -2.93076 0
M  V30 445 H 39.6317 -1.80268 -2.72343 0
M  V30 446 H 38.2907 -3.41646 -1.32941 0
M  V30 447 H 37.9387 -3.29284 -3.80238 0
M  V30 448 H 37.6387 -4.93719 -3.18615 0
M  V30 449 H 39.1627 -4.57402 -4.04495 0
M  V30 450 H 40.5767 -5.39888 -1.92857 0
M  V30 451 H 38.9737 -5.86144 -1.28669 0
M  V30 452 H 40.0437 -4.83904 -0.310561 0
M  V30 453 N 41.3868 0.248026 -1.55636 0
M  V30 454 C 42.6148 0.993808 -1.81469 0
M  V30 455 C 43.0298 1.78991 -0.60064 0
M  V30 456 O 42.3868 1.77345 0.430682 0
M  V30 457 C 42.4378 1.93258 -3.05506 0
M  V30 458 O 42.1588 1.16869 -4.22224 0
M  V30 459 C 43.6598 2.79444 -3.4413 0
M  V30 460 H 40.8798 0.292486 -0.603898 0
M  V30 461 H 43.4238 0.271253 -2.02693 0
M  V30 462 H 41.5788 2.60943 -2.86335 0
M  V30 463 H 41.9928 1.80359 -4.92515 0
M  V30 464 H 43.4668 3.41066 -4.34026 0
M  V30 465 H 43.9438 3.50499 -2.64665 0
M  V30 466 H 44.5498 2.17214 -3.65648 0
M  V30 467 N 42.8649 1.48995 0.513639 0
M  V30 468 C 44.0899 1.61792 1.29762 0
M  V30 469 C 44.5149 0.284475 1.85936 0
M  V30 470 O 43.8729 -0.746185 1.65232 0
M  V30 471 C 43.9209 2.67993 2.41272 0
M  V30 472 O 43.0249 2.26287 3.44772 0
M  V30 473 H 42.3659 0.541963 0.38363 0
M  V30 474 H 44.8959 1.95097 0.616307 0
M  V30 475 H 44.9059 2.89772 2.87221 0
M  V30 476 H 43.5809 3.64791 1.9975 0
M  V30 477 H 42.1579 2.14788 3.04829 0
M  V30 478 N 44.343 -0.763751 1.37857 0
M  V30 479 C 45.62 -1.51244 1.24035 0
M  V30 480 C 46 -2.10472 -0.162649 0
M  V30 481 O 45.348 -1.96206 -1.17112 0
M  V30 482 C 45.558 -2.58694 2.34261 0
M  V30 483 C 46.906 -3.25878 2.72193 0
M  V30 484 O 47.93 -2.68993 2.33497 0
M  V30 485 O 46.789 -4.2874 3.38887 0
M  V30 486 H 43.883 -0.670243 0.484462 0
M  V30 487 H 46.429 -0.800031 1.49658 0
M  V30 488 H 45.201 -2.13105 3.2818 0
M  V30 489 H 44.824 -3.37527 2.10146 0
M  V30 490 N 45.8211 -1.22559 -0.990812 0
M  V30 491 C 47.0981 -0.959875 -1.70428 0
M  V30 492 C 47.4781 0.524455 -2.04481 0
M  V30 493 O 46.8261 1.49302 -1.72977 0
M  V30 494 C 47.0361 -1.85955 -2.95333 0
M  V30 495 C 48.3841 -2.11687 -3.68068 0
M  V30 496 O 49.4081 -1.8342 -3.05345 0
M  V30 497 O 48.2671 -2.59572 -4.80921 0
M  V30 498 H 45.3611 -0.361154 -0.743974 0
M  V30 499 H 47.9071 -1.33554 -1.04697 0
M  V30 500 H 46.6791 -2.86346 -2.66687 0
M  V30 501 H 46.3021 -1.4856 -3.68803 0
M  V30 502 N 47.2992 1.18797 -1.03562 0
M  V30 503 C 48.5452 1.8893 -0.737113 0
M  V30 504 C 48.8782 1.79837 0.732956 0
M  V30 505 O 48.1532 1.19525 1.5344 0
M  V30 506 C 48.4362 3.39607 -1.19745 0
M  V30 507 C 48.2892 3.57537 -2.72924 0
M  V30 508 C 49.6082 4.33069 -0.783526 0
M  V30 509 H 46.7272 0.686057 -0.269249 0
M  V30 510 H 49.3692 1.39797 -1.28673 0
M  V30 511 H 47.5192 3.81583 -0.729855 0
M  V30 512 H 49.1912 3.24688 -3.27682 0
M  V30 513 H 47.4342 3.00363 -3.12993 0
M  V30 514 H 48.1052 4.63238 -3.00191 0
M  V30 515 H 50.5812 3.98846 -1.18581 0
M  V30 516 H 49.4572 5.3707 -1.13343 0
M  V30 517 H 49.7182 4.40986 0.313681 0
M  V30 518 N 48.7773 0.814389 1.34928 0
M  V30 519 C 49.7243 0.22822 2.29669 0
M  V30 520 C 50.6943 -0.642164 1.53184 0
M  V30 521 O 51.8793 -0.585605 1.81591 0
M  V30 522 C 49.0193 -0.61089 3.3965 0
M  V30 523 C 48.1323 0.280792 4.31086 0
M  V30 524 C 47.2673 -0.567067 5.28165 0
M  V30 525 C 46.3063 0.324531 6.11239 0
M  V30 526 N 45.4433 -0.483756 7.00431 0
M  V30 527 H 50.2833 1.04153 2.79206 0
M  V30 528 H 47.8203 0.525133 1.37407 0
M  V30 529 H 49.7783 -1.11263 4.0209 0
M  V30 530 H 48.4083 -1.38939 2.91369 0
M  V30 531 H 47.4603 0.900688 3.69583 0
M  V30 532 H 48.7723 0.966723 4.89342 0
M  V30 533 H 47.9263 -1.13363 5.96015 0
M  V30 534 H 46.6653 -1.28654 4.70425 0
M  V30 535 H 45.6703 0.903298 5.42329 0
M  V30 536 H 46.8953 1.04198 6.71059 0
M  V30 537 H 44.8413 -1.18706 6.45171 0
M  V30 538 H 44.7583 0.143965 7.55863 0
M  V30 539 H 46.0263 -1.03334 7.7262 0
M  V30 540 N 50.2554 -1.46986 0.568584 0
M  V30 541 C 51.1654 -2.33942 -0.17555 0
M  V30 542 C 52.1814 -1.48891 -0.90041 0
M  V30 543 O 53.3574 -1.81794 -0.86676 0
M  V30 544 C 50.4224 -3.25811 -1.18524 0
M  V30 545 C 49.4834 -4.26757 -0.466582 0
M  V30 546 C 48.7164 -5.14236 -1.42817 0
M  V30 547 O 48.9394 -5.04379 -2.66379 0
M  V30 548 O 47.8734 -5.94412 -0.946453 0
M  V30 549 H 51.6994 -2.98896 0.538036 0
M  V30 550 H 49.2844 -1.4573 0.329097 0
M  V30 551 H 51.1664 -3.82527 -1.76779 0
M  V30 552 H 49.8414 -2.63471 -1.88055 0
M  V30 553 H 48.7484 -3.73769 0.157451 0
M  V30 554 H 50.0814 -4.91843 0.187485 0
M  V30 555 N 51.7335 -0.305618 -1.54608 0
M  V30 556 C 52.6655 0.602161 -2.21149 0
M  V30 557 C 53.6785 1.09394 -1.20569 0
M  V30 558 O 54.8675 1.0106 -1.47136 0
M  V30 559 C 51.9675 1.83692 -2.84799 0
M  V30 560 C 51.1405 1.48686 -4.11353 0
M  V30 561 C 50.1995 2.57725 -4.58764 0
M  V30 562 O 49.2255 2.22623 -5.23858 0
M  V30 563 N 50.4275 3.88346 -4.31471 0
M  V30 564 H 53.1925 0.0324966 -2.99682 0
M  V30 565 H 50.7535 -0.128021 -1.61393 0
M  V30 566 H 52.7455 2.55994 -3.13448 0
M  V30 567 H 51.3155 2.31486 -2.10078 0
M  V30 568 H 50.5355 0.596269 -3.89664 0
M  V30 569 H 51.8235 1.22842 -4.93748 0
M  V30 570 H 51.2215 4.19671 -3.79331 0
M  V30 571 H 49.7785 4.56932 -4.64818 0
M  V30 572 N 53.2116 1.57565 -0.0334293 0
M  V30 573 C 54.4606 1.91155 0.643639 0
M  V30 574 C 54.7736 0.91192 1.73042 0
M  V30 575 O 55.9796 1.13923 2.46442 0
M  V30 576 C 54.4356 3.39443 1.1961 0
M  V30 577 C 54.0436 4.47774 0.142381 0
M  V30 578 C 55.7876 3.82094 1.84944 0
M  V30 579 C 53.6946 5.87162 0.706727 0
M  V30 580 H 52.6246 0.713368 0.244176 0
M  V30 581 H 55.2756 1.8323 -0.0994323 0
M  V30 582 H 53.6576 3.42313 1.99092 0
M  V30 583 H 54.8316 4.56469 -0.630296 0
M  V30 584 H 53.1466 4.14352 -0.412446 0
M  V30 585 H 55.7436 4.83591 2.2813 0
M  V30 586 H 56.0866 3.17386 2.69392 0
M  V30 587 H 56.6196 3.81665 1.12145 0
M  V30 588 H 53.3586 6.55424 -0.0997178 0
M  V30 589 H 52.8786 5.82064 1.44779 0
M  V30 590 H 54.5576 6.35866 1.19514 0
M  V30 591 N 54.6897 -0.239769 1.55765 0
M  V30 592 C 55.9197 -0.982743 1.8173 0
M  V30 593 C 56.3277 -1.7917 0.607835 0
M  V30 594 O 55.6707 -1.78525 -0.432973 0
M  V30 595 C 55.7327 -1.96332 3.01155 0
M  V30 596 C 55.3967 -1.34062 4.36894 0
M  V30 597 C 56.3937 -0.739539 5.14613 0
M  V30 598 C 54.0787 -1.35784 4.83599 0
M  V30 599 C 56.0727 -0.163989 6.37189 0
M  V30 600 C 53.7597 -0.778441 6.06122 0
M  V30 601 C 54.7577 -0.182548 6.82756 0
M  V30 602 O 54.4457 0.387887 8.02964 0
M  V30 603 H 54.1777 -0.294481 0.608487 0
M  V30 604 H 56.7317 -0.26572 2.03674 0
M  V30 605 H 54.9617 -2.71884 2.74984 0
M  V30 606 H 56.6507 -2.57032 3.14149 0
M  V30 607 H 57.4167 -0.718687 4.79646 0
M  V30 608 H 53.2957 -1.81105 4.23936 0
M  V30 609 H 56.8397 0.301753 6.96947 0
M  V30 610 H 52.7367 -0.796645 6.40565 0
M  V30 611 H 53.5047 0.28044 8.18019 0
M  V30 612 N 56.1678 -1.49265 -0.50573 0
M  V30 613 C 57.1148 -1.65585 -1.6078 0
M  V30 614 C 58.0848 -0.497396 -1.58478 0
M  V30 615 O 59.2698 -0.72385 -1.76536 0
M  V30 616 C 56.4098 -1.72408 -2.98948 0
M  V30 617 C 55.5228 -2.99525 -3.11301 0
M  V30 618 C 54.6578 -2.97356 -4.40174 0
M  V30 619 C 53.6968 -4.19074 -4.46143 0
M  V30 620 N 52.8338 -4.14841 -5.66437 0
M  V30 621 H 57.6738 -2.59688 -1.46172 0
M  V30 622 H 55.2108 -1.28761 -0.711261 0
M  V30 623 H 57.1688 -1.74344 -3.79025 0
M  V30 624 H 55.7988 -0.817753 -3.1227 0
M  V30 625 H 54.8508 -3.07222 -2.24318 0
M  V30 626 H 56.1628 -3.89518 -3.11572 0
M  V30 627 H 55.3168 -2.97829 -5.28567 0
M  V30 628 H 54.0558 -2.05133 -4.42461 0
M  V30 629 H 53.0608 -4.1885 -3.56153 0
M  V30 630 H 54.2858 -5.12483 -4.45575 0
M  V30 631 H 52.2318 -3.25453 -5.69575 0
M  V30 632 H 52.1488 -4.98564 -5.68304 0
M  V30 633 H 53.4168 -4.1941 -6.57051 0
M  V30 634 N 57.6459 0.756429 -1.3826 0
M  V30 635 C 58.5759 1.88374 -1.37976 0
M  V30 636 C 59.5569 1.68311 -0.246082 0
M  V30 637 O 60.7419 1.88944 -0.44874 0
M  V30 638 C 57.8719 3.25864 -1.20125 0
M  V30 639 C 56.8259 3.60523 -2.30666 0
M  V30 640 C 56.1519 4.9672 -1.97923 0
M  V30 641 C 57.4519 3.65692 -3.72916 0
M  V30 642 H 59.1459 1.88869 -2.32312 0
M  V30 643 H 56.6919 0.907272 -1.11824 0
M  V30 644 H 58.6449 4.0438 -1.18552 0
M  V30 645 H 57.3689 3.25841 -0.222498 0
M  V30 646 H 56.0279 2.84324 -2.3142 0
M  V30 647 H 55.6759 4.93253 -0.985393 0
M  V30 648 H 55.3759 5.20878 -2.71955 0
M  V30 649 H 56.8999 5.77618 -1.97964 0
M  V30 650 H 58.3139 4.34328 -3.74208 0
M  V30 651 H 56.7109 4.01358 -4.4613 0
M  V30 652 H 57.7809 2.65987 -4.05436 0
M  V30 653 N 59.124 1.23083 0.984299 0
M  V30 654 C 60.087 1.00979 2.05757 0
M  V30 655 C 61.087 -0.0269573 1.60777 0
M  V30 656 O 62.277 0.212403 1.729 0
M  V30 657 C 59.409 0.527072 3.36801 0
M  V30 658 H 60.602 1.9622 2.26799 0
M  V30 659 H 58.155 1.05072 1.15714 0
M  V30 660 H 58.89 -0.429294 3.21446 0
M  V30 661 H 58.675 1.27515 3.70786 0
M  V30 662 H 60.165 0.392942 4.15747 0
M  V30 663 N 60.6021 -1.18246 1.0419 0
M  V30 664 C 61.5491 -2.2192 0.634037 0
M  V30 665 C 62.5191 -1.62179 -0.358765 0
M  V30 666 O 63.7041 -1.89122 -0.252466 0
M  V30 667 C 60.8441 -3.451 0.00445535 0
M  V30 668 C 59.9571 -4.19174 1.04487 0
M  V30 669 C 59.0921 -5.29813 0.383676 0
M  V30 670 C 58.1311 -5.9566 1.4091 0
M  V30 671 N 57.2681 -6.97834 0.772784 0
M  V30 672 H 62.1081 -2.56164 1.52263 0
M  V30 673 H 59.6451 -1.25843 0.761701 0
M  V30 674 H 61.6031 -4.15485 -0.377919 0
M  V30 675 H 60.2331 -3.11472 -0.847652 0
M  V30 676 H 59.2851 -3.47604 1.54518 0
M  V30 677 H 60.5971 -4.64267 1.82368 0
M  V30 678 H 59.7511 -6.06677 -0.0528366 0
M  V30 679 H 58.4901 -4.85825 -0.427208 0
M  V30 680 H 57.4951 -5.17535 1.85574 0
M  V30 681 H 58.7201 -6.4173 2.22171 0
M  V30 682 H 56.6661 -6.55998 -0.0177708 0
M  V30 683 H 56.5831 -7.41186 1.48928 0
M  V30 684 H 57.8511 -7.78665 0.36071 0
M  V30 685 N 62.0802 -0.821533 -1.34494 0
M  V30 686 C 63.0272 -0.240397 -2.29545 0
M  V30 687 C 63.9972 0.634031 -1.53523 0
M  V30 688 O 65.1822 0.575966 -1.81899 0
M  V30 689 C 62.3222 0.592869 -3.39969 0
M  V30 690 C 61.4352 -0.30365 -4.30932 0
M  V30 691 C 60.5702 0.539049 -5.28458 0
M  V30 692 C 59.6092 -0.356942 -6.11058 0
M  V30 693 N 58.7462 0.446603 -7.00678 0
M  V30 694 H 63.5862 -1.05632 -2.7865 0
M  V30 695 H 61.1232 -0.532413 -1.37127 0
M  V30 696 H 63.0812 1.09129 -4.02675 0
M  V30 697 H 61.7112 1.37392 -2.92102 0
M  V30 698 H 60.7632 -0.920276 -3.691 0
M  V30 699 H 62.0752 -0.992661 -4.88823 0
M  V30 700 H 61.2292 1.102 -5.96608 0
M  V30 701 H 59.9682 1.26157 -4.71101 0
M  V30 702 H 58.9732 -0.932047 -5.41842 0
M  V30 703 H 60.1982 -1.07755 -6.70497 0
M  V30 704 H 58.1442 1.15282 -6.45791 0
M  V30 705 H 58.0612 -0.184048 -7.55776 0
M  V30 706 H 59.3292 0.992352 -7.73158 0
M  V30 707 N 63.5583 1.46682 -0.576371 0
M  V30 708 C 64.8063 2.02013 -0.0594163 0
M  V30 709 C 65.1273 1.45101 1.30271 0
M  V30 710 O 64.3973 0.633317 1.8538 0
M  V30 711 H 62.9773 0.746759 -0.0189745 0
M  V30 712 H 65.6393 1.79862 -0.750717 0
M  V30 713 H 64.7353 3.12097 0.014345 0
M  V30 714 N 65.0364 0.313813 1.54444 0
M  V30 715 C 65.9664 -0.549454 2.26943 0
M  V30 716 C 66.9474 -1.12741 1.27372 0
M  V30 717 O 68.1324 -1.15436 1.56167 0
M  V30 718 C 65.2624 -1.71523 3.01989 0
M  V30 719 C 64.2164 -1.26703 4.08816 0
M  V30 720 C 63.5424 -2.51898 4.71647 0
M  V30 721 C 64.8424 -0.388962 5.2085 0
M  V30 722 H 66.5364 0.0552661 2.99349 0
M  V30 723 H 64.0824 0.0280207 1.43973 0
M  V30 724 H 66.0354 -2.32535 3.51433 0
M  V30 725 H 64.7594 -2.34639 2.27183 0
M  V30 726 H 63.4184 -0.679896 3.6024 0
M  V30 727 H 63.0664 -3.13356 3.93468 0
M  V30 728 H 62.7664 -2.22605 5.43802 0
M  V30 729 H 64.2904 -3.1369 5.23861 0
M  V30 730 H 65.7044 -0.905107 5.6611 0
M  V30 731 H 64.1014 -0.18924 5.99802 0
M  V30 732 H 65.1714 0.582699 4.81386 0
M  V30 733 N 66.5145 -1.57545 0.0417849 0
M  V30 734 C 67.7425 -1.96624 -0.643928 0
M  V30 735 C 68.1575 -0.918897 -1.64929 0
M  V30 736 O 67.5145 0.0979323 -1.82237 0
M  V30 737 C 67.5655 -3.35781 -1.33914 0
M  V30 738 O 67.2865 -4.365 -0.374048 0
M  V30 739 C 68.7875 -3.89566 -2.1155 0
M  V30 740 H 66.0075 -0.647316 -0.176702 0
M  V30 741 H 68.5515 -2.04229 0.105304 0
M  V30 742 H 66.7065 -3.29357 -2.03968 0
M  V30 743 H 67.1205 -5.17248 -0.869179 0
M  V30 744 H 68.5945 -4.89242 -2.55628 0
M  V30 745 H 69.0715 -3.24488 -2.9598 0
M  V30 746 H 69.6775 -3.99298 -1.46427 0
M  V30 747 N 67.9926 0.231505 -1.5589 0
M  V30 748 C 69.4036 0.799327 -1.68724 0
M  V30 749 C 69.7546 1.85398 -0.642022 0
M  V30 750 O 68.8796 2.1539 0.208784 0
M  V30 751 C 69.4746 1.45664 -3.05888 0
M  V30 752 C 68.0336 1.97197 -3.20609 0
M  V30 753 C 67.1806 0.828552 -2.64632 0
M  V30 754 H 70.1316 0.00702616 -1.58698 0
M  V30 755 H 70.1526 2.32517 -3.01191 0
M  V30 756 H 69.6646 0.688808 -3.81939 0
M  V30 757 H 67.7656 2.76813 -2.4941 0
M  V30 758 H 67.8786 2.15878 -4.27707 0
M  V30 759 H 66.2426 1.23321 -2.22854 0
M  V30 760 H 67.0256 0.0735544 -3.43221 0
M  V30 761 N 69.4707 1.49531 0.497807 0
M  V30 762 C 70.6957 1.63159 1.28039 0
M  V30 763 C 71.1207 0.30418 1.85624 0
M  V30 764 O 70.4787 -0.728618 1.66015 0
M  V30 765 C 70.5267 2.70537 2.38416 0
M  V30 766 O 69.6307 2.29931 3.42353 0
M  V30 767 H 68.9717 0.546001 0.377861 0
M  V30 768 H 71.5017 1.9574 0.59558 0
M  V30 769 H 71.5117 2.92802 2.84132 0
M  V30 770 H 70.1867 3.6689 1.95869 0
M  V30 771 H 68.7637 2.18009 3.02533 0
M  V30 772 N 70.9488 -0.749086 1.3866 0
M  V30 773 C 71.8808 -1.87273 1.32142 0
M  V30 774 C 72.8938 -1.61127 0.232787 0
M  V30 775 O 74.0828 -1.71623 0.49069 0
M  V30 776 C 71.1828 -3.23005 1.02571 0
M  V30 777 C 70.3558 -3.7662 2.22433 0
M  V30 778 C 69.4148 -4.90879 1.89537 0
M  V30 779 O 68.4408 -5.05276 2.62078 0
M  V30 780 N 69.6428 -5.74198 0.853031 0
M  V30 781 H 72.4078 -1.93373 2.28969 0
M  V30 782 H 69.9688 -0.929216 1.32579 0
M  V30 783 H 71.9608 -3.96992 0.786085 0
M  V30 784 H 70.5308 -3.12262 0.145249 0
M  V30 785 H 69.7508 -2.94147 2.62434 0
M  V30 786 H 71.0388 -4.09173 3.02415 0
M  V30 787 H 70.4368 -5.6514 0.25155 0
M  V30 788 H 68.9938 -6.48313 0.67329 0
M  V30 789 N 72.4269 -1.23603 -0.977757 0
M  V30 790 C 73.6759 -1.06377 -1.71368 0
M  V30 791 C 73.9889 0.399062 -1.91486 0
M  V30 792 O 75.1949 0.691312 -2.62551 0
M  V30 793 C 73.6509 -1.85512 -3.08404 0
M  V30 794 C 73.2589 -3.36141 -2.96164 0
M  V30 795 C 75.0029 -1.76783 -3.85938 0
M  V30 796 C 72.9099 -4.07659 -4.28449 0
M  V30 797 H 71.8399 -0.394452 -0.642591 0
M  V30 798 H 74.4909 -1.47594 -1.09034 0
M  V30 799 H 72.8729 -1.37103 -3.71509 0
M  V30 800 H 74.0469 -3.92056 -2.42133 0
M  V30 801 H 72.3619 -3.45712 -2.32104 0
M  V30 802 H 74.9589 -2.27526 -4.83876 0
M  V30 803 H 75.3019 -0.731116 -4.0983 0
M  V30 804 H 75.8349 -2.22818 -3.2954 0
M  V30 805 H 72.5739 -5.11648 -4.09752 0
M  V30 806 H 72.0939 -3.5653 -4.82334 0
M  V30 807 H 73.7729 -4.141 -4.97122 0
M  V30 808 N 73.905 1.17692 -1.04816 0
M  V30 809 C 75.153 1.87488 -0.754497 0
M  V30 810 C 75.474 1.81205 0.720407 0
M  V30 811 O 74.744 1.23544 1.52032 0
M  V30 812 H 73.324 0.694101 -0.276102 0
M  V30 813 H 75.986 1.42793 -1.32651 0
M  V30 814 H 75.082 2.93328 -1.06606 0
M  V30 815 N 75.3831 0.828654 1.34056 0
M  V30 816 C 76.6291 0.42008 1.98402 0
M  V30 817 C 76.9621 -1.01564 1.65525 0
M  V30 818 O 76.2371 -1.70834 0.929831 0
M  V30 819 C 76.5201 0.62927 3.54559 0
M  V30 820 C 76.3731 2.11152 3.97159 0
M  V30 821 C 77.6921 0.0688756 4.40046 0
M  V30 822 H 74.8111 0.154104 0.720709 0
M  V30 823 H 77.4531 1.04228 1.5886 0
M  V30 824 H 75.6031 0.0996418 3.88372 0
M  V30 825 H 77.2751 2.70522 3.73651 0
M  V30 826 H 75.5181 2.59985 3.47261 0
M  V30 827 H 76.1891 2.20868 5.05887 0
M  V30 828 H 78.6651 0.521458 4.1282 0
M  V30 829 H 77.5411 0.245006 5.48353 0
M  V30 830 H 77.8021 -1.0266 4.30015 0
M  V30 831 N 76.8612 -1.46375 0.584142 0
M  V30 832 C 78.1102 -2.01585 0.0679741 0
M  V30 833 C 78.4232 -1.46109 -1.30045 0
M  V30 834 O 79.6292 -1.93148 -1.90804 0
M  V30 835 C 78.0852 -3.5983 0.0709207 0
M  V30 836 C 77.6932 -4.24303 1.43775 0
M  V30 837 C 79.4372 -4.22693 -0.391228 0
M  V30 838 C 77.3442 -5.74631 1.39834 0
M  V30 839 H 76.2742 -0.753689 0.0216421 0
M  V30 840 H 78.9252 -1.68093 0.736001 0
M  V30 841 H 77.3072 -3.90405 -0.663299 0
M  V30 842 H 78.4812 -4.05335 2.19181 0
M  V30 843 H 76.7962 -3.73539 1.84004 0
M  V30 844 H 79.3932 -5.3289 -0.439524 0
M  V30 845 H 79.7362 -3.91728 -1.40906 0
M  V30 846 H 80.2692 -3.96749 0.288974 0
M  V30 847 H 77.0082 -6.10258 2.39303 0
M  V30 848 H 76.5282 -5.95858 0.686505 0
M  V30 849 H 78.2072 -6.37375 1.11187 0
M  V30 850 N 78.3393 -0.321999 -1.54275 0
M  V30 851 C 79.2693 0.537411 -2.27231 0
M  V30 852 C 80.2503 1.12064 -1.27968 0
M  V30 853 O 81.4353 1.14606 -1.56777 0
M  V30 854 C 78.5653 1.69919 -3.02894 0
M  V30 855 C 77.5193 1.24534 -4.09482 0
M  V30 856 C 76.8453 2.49394 -4.72977 0
M  V30 857 C 78.1453 0.361335 -5.21049 0
M  V30 858 H 79.8393 -0.0711406 -2.99315 0
M  V30 859 H 77.3853 -0.0356555 -1.43956 0
M  V30 860 H 79.3383 2.30668 -3.52662 0
M  V30 861 H 78.0623 2.33431 -2.28424 0
M  V30 862 H 76.7213 0.660782 -3.60596 0
M  V30 863 H 76.3693 3.11265 -3.95124 0
M  V30 864 H 76.0693 2.19718 -5.44975 0
M  V30 865 H 77.5933 3.10908 -5.25517 0
M  V30 866 H 79.0073 0.875072 -5.66582 0
M  V30 867 H 77.4043 0.157428 -5.99893 0
M  V30 868 H 78.4743 -0.60822 -4.8107 0
M  V30 869 N 79.8174 1.5752 -0.0501392 0
M  V30 870 C 81.2334 1.56631 0.306402 0
M  V30 871 C 81.4334 1.0577 1.71508 0
M  V30 872 O 80.4894 0.713837 2.422 0
M  V30 873 C 81.8024 3.00393 0.135811 0
M  V30 874 C 83.3504 3.12315 0.206993 0
M  V30 875 C 83.8254 4.57954 0.064944 0
M  V30 876 N 85.3164 4.63041 0.121254 0
M  V30 877 C 86.0514 5.73389 0.0354381 0
M  V30 878 N 85.5474 6.92724 -0.102666 0
M  V30 879 N 87.3404 5.62026 0.090946 0
M  V30 880 H 79.4914 1.88903 -0.971046 0
M  V30 881 H 81.7544 0.869876 -0.376855 0
M  V30 882 H 81.4604 3.41635 -0.835384 0
M  V30 883 H 81.3344 3.66373 0.897275 0
M  V30 884 H 83.7214 2.70973 1.16866 0
M  V30 885 H 83.8024 2.49016 -0.585208 0
M  V30 886 H 83.4464 4.99981 -0.893394 0
M  V30 887 H 83.3764 5.19258 0.876277 0
M  V30 888 H 85.8674 3.77216 0.227284 0
M  V30 889 H 86.1804 7.72633 -0.160882 0
M  V30 890 H 84.5254 6.94864 -0.137737 0
M  V30 891 H 87.7164 4.67684 0.197388 0
M  V30 892 H 87.8894 6.47997 0.0206089 0
M  V30 893 N 81.2955 -0.223234 1.56011 0
M  V30 894 C 82.5725 -0.972108 1.69733 0
M  V30 895 C 82.9525 -2.02485 0.59691 0
M  V30 896 O 82.3005 -2.25037 -0.396324 0
M  V30 897 C 82.5105 -1.58407 3.10979 0
M  V30 898 C 83.8585 -2.07696 3.70334 0
M  V30 899 O 84.8825 -1.68304 3.1393 0
M  V30 900 O 83.7415 -2.80096 4.69264 0
M  V30 901 H 80.8355 -0.453993 0.691245 0
M  V30 902 H 83.3815 -0.215149 1.68331 0
M  V30 903 H 82.1535 -0.823831 3.82529 0
M  V30 904 H 81.7765 -2.40661 3.16493 0
M  V30 905 N 82.7736 -1.49793 -0.48987 0
M  V30 906 C 83.9986 -1.63836 -1.27172 0
M  V30 907 C 84.4236 -0.31402 -1.8546 0
M  V30 908 O 83.7816 0.719803 -1.66399 0
M  V30 909 C 83.8296 -2.71797 -2.36978 0
M  V30 910 O 82.9336 -2.31744 -3.41128 0
M  V30 911 H 82.2746 -0.547997 -0.37496 0
M  V30 912 H 84.8046 -1.96053 -0.585191 0
M  V30 913 H 84.8146 -2.94305 -2.82575 0
M  V30 914 H 83.4896 -3.67923 -1.93921 0
M  V30 915 H 82.0666 -2.1961 -3.01373 0
M  V30 916 N 84.2517 0.741722 -1.39055 0
M  V30 917 C 85.2017 1.84661 -1.33732 0
M  V30 918 C 86.1857 1.59397 -0.219401 0
M  V30 919 O 87.3777 1.71015 -0.456375 0
M  V30 920 C 84.5067 3.22512 -1.17647 0
M  V30 921 C 83.5927 3.53628 -2.34112 0
M  V30 922 N 83.9837 3.55723 -3.59576 0
M  V30 923 C 82.2817 3.83956 -2.26923 0
M  V30 924 C 82.9827 3.84443 -4.36553 0
M  V30 925 N 81.9587 4.01877 -3.66055 0
M  V30 926 H 85.7607 1.84576 -2.28711 0
M  V30 927 H 83.2747 0.939647 -1.32455 0
M  V30 928 H 85.2717 4.01597 -1.11917 0
M  V30 929 H 83.9317 3.2384 -0.236124 0
M  V30 930 H 84.9427 3.37196 -3.93089 0
M  V30 931 H 81.6197 3.92929 -1.41113 0
M  V30 932 H 83.0097 3.92588 -5.45274 0
M  V30 933 N 85.7298 1.2412 0.971189 0
M  V30 934 C 86.9778 1.07668 1.71032 0
M  V30 935 C 87.2988 -0.385797 1.91146 0
M  V30 936 O 86.5688 -1.27569 1.4867 0
M  V30 937 H 85.1488 0.395429 0.633755 0
M  V30 938 H 87.8108 1.55984 1.16855 0
M  V30 939 H 86.9068 1.57195 2.69622 0
M  V30 940 N 87.2079 -1.17134 1.05439 0
M  V30 941 C 88.4539 -1.87733 0.767077 0
M  V30 942 C 88.7869 -1.8098 -0.704253 0
M  V30 943 O 88.0619 -1.21951 -1.5152 0
M  V30 944 C 88.3449 -3.37659 1.25133 0
M  V30 945 C 88.1979 -3.53149 2.78578 0
M  V30 946 C 89.5169 -4.31768 0.852324 0
M  V30 947 H 86.6359 -0.681687 0.280129 0
M  V30 948 H 89.2779 -1.37732 1.30881 0
M  V30 949 H 87.4279 -3.80373 0.790469 0
M  V30 950 H 89.0999 -3.19434 3.32806 0
M  V30 951 H 87.3429 -2.95345 3.17732 0
M  V30 952 H 88.0139 -4.58403 3.07523 0
M  V30 953 H 90.4899 -3.96909 1.24911 0
M  V30 954 H 89.3659 -5.35199 1.21873 0
M  V30 955 H 89.6269 -4.41429 -0.243485 0
M  V30 956 N 88.686 -0.835752 -1.33615 0
M  V30 957 C 89.649 -0.272 -2.2758 0
M  V30 958 C 90.649 0.557487 -1.50827 0
M  V30 959 O 91.839 0.37173 -1.70188 0
M  V30 960 C 88.971 0.617173 -3.35267 0
M  V30 961 H 90.164 -1.10111 -2.78954 0
M  V30 962 H 87.717 -0.608594 -1.43965 0
M  V30 963 H 88.452 1.46884 -2.89129 0
M  V30 964 H 88.237 0.0237066 -3.92093 0
M  V30 965 H 89.727 1.005 -4.05326 0
M  V30 966 N 90.1641 1.46063 -0.591896 0
M  V30 967 C 91.0961 2.28539 0.174001 0
M  V30 968 C 92.1091 1.39047 0.846753 0
M  V30 969 O 93.2981 1.63564 0.714774 0
M  V30 970 C 90.3981 3.14347 1.26645 0
M  V30 971 C 89.5711 4.32021 0.683856 0
M  V30 972 C 88.6301 4.99157 1.66518 0
M  V30 973 O 87.6561 5.56458 1.19763 0
M  V30 974 N 88.8581 4.97005 2.99943 0
M  V30 975 H 91.6231 2.94911 -0.533633 0
M  V30 976 H 89.1841 1.56077 -0.430294 0
M  V30 977 H 91.1761 3.56125 1.92242 0
M  V30 978 H 89.7461 2.49988 1.87682 0
M  V30 979 H 88.9661 3.93915 -0.1498 0
M  V30 980 H 90.2541 5.08059 0.274567 0
M  V30 981 H 89.6521 4.51714 3.40545 0
M  V30 982 H 88.2091 5.42696 3.61004 0
M  V30 983 N 91.6422 0.330177 1.54103 0
M  V30 984 C 92.8882 -0.270806 2.00984 0
M  V30 985 C 93.2212 -1.51265 1.21789 0
M  V30 986 O 92.4962 -1.92142 0.301927 0
M  V30 987 C 92.7792 -0.598339 3.55094 0
M  V30 988 C 92.6322 0.654674 4.4501 0
M  V30 989 C 93.9512 -1.41334 4.16789 0
M  V30 990 H 91.0702 -0.0969531 0.730595 0
M  V30 991 H 93.7122 0.448066 1.84641 0
M  V30 992 H 91.8622 -1.21078 3.69151 0
M  V30 993 H 93.5342 1.29285 4.42813 0
M  V30 994 H 91.7772 1.28224 4.14416 0
M  V30 995 H 92.4482 0.380944 5.50684 0
M  V30 996 H 94.9242 -0.895597 4.06347 0
M  V30 997 H 93.8002 -1.61127 5.24718 0
M  V30 998 H 94.0612 -2.41146 3.70541 0
M  V30 999 N 93.1203 -1.57491 0.0584922 0
M  V30 1000 C 94.5363 -1.56792 -0.298091 0
M  V30 1001 C 94.7363 -1.06679 -1.70944 0
M  V30 1002 O 93.7923 -0.726672 -2.41818 0
M  V30 1003 C 95.1053 -3.00461 -0.119879 0
M  V30 1004 C 96.6533 -3.1242 -0.190428 0
M  V30 1005 C 97.1283 -4.57982 -0.0406567 0
M  V30 1006 N 98.6193 -4.63099 -0.0966958 0
M  V30 1007 C 99.3543 -5.734 -0.00502943 0
M  V30 1008 N 98.8503 -6.9266 0.139402 0
M  V30 1009 N 100.643 -5.62067 -0.0611391 0
M  V30 1010 H 92.7943 -1.88386 0.98105 0
M  V30 1011 H 95.0573 -0.867865 0.381463 0
M  V30 1012 H 94.7633 -3.41187 0.85349 0
M  V30 1013 H 94.6373 -3.66843 -0.877833 0
M  V30 1014 H 97.0243 -2.71589 -1.15427 0
M  V30 1015 H 97.1053 -2.48702 0.598405 0
M  V30 1016 H 96.7493 -4.995 0.919897 0
M  V30 1017 H 96.6793 -5.19715 -0.848727 0
M  V30 1018 H 99.1703 -3.77331 -0.207277 0
M  V30 1019 H 99.4833 -7.72536 0.201855 0
M  V30 1020 H 97.8283 -6.94781 0.174586 0
M  V30 1021 H 101.019 -4.67782 -0.172583 0
M  V30 1022 H 101.192 -6.47999 0.0137562 0
M  V30 1023 N 94.5984 0.214957 -1.56127 0
M  V30 1024 C 95.8454 0.938372 -1.79446 0
M  V30 1025 C 96.1734 1.8407 -0.628378 0
M  V30 1026 O 95.4284 1.91837 0.386925 0
M  V30 1027 C 95.7274 1.80314 -3.0858 0
M  V30 1028 C 95.3934 1.05349 -4.3842 0
M  V30 1029 C 94.0554 0.846435 -4.73697 0
M  V30 1030 C 96.4074 0.524588 -5.18553 0
M  V30 1031 C 93.7354 0.098683 -5.86617 0
M  V30 1032 C 96.0874 -0.209853 -6.32252 0
M  V30 1033 C 94.7514 -0.428102 -6.66126 0
M  V30 1034 H 94.0214 0.343375 -0.656639 0
M  V30 1035 H 96.6684 0.206077 -1.90388 0
M  V30 1036 H 94.9734 2.6035 -2.92789 0
M  V30 1037 H 96.6704 2.36513 -3.23825 0
M  V30 1038 H 93.2604 1.22486 -4.10725 0
M  V30 1039 H 97.4444 0.672008 -4.91729 0
M  V30 1040 H 92.7004 -0.0805753 -6.11347 0
M  V30 1041 H 96.8744 -0.627157 -6.9357 0
M  V30 1042 H 94.5014 -1.00944 -7.53468 0
M  V30 1043 N 96.0765 1.50051 0.48192 0
M  V30 1044 C 97.3225 1.60736 1.2366 0
M  V30 1045 C 97.6555 0.301786 1.91841 0
M  V30 1046 O 96.9305 -0.696025 1.8162 0
M  V30 1047 C 97.2135 2.78009 2.28874 0
M  V30 1048 C 97.0665 4.18416 1.65069 0
M  V30 1049 C 98.3855 2.90867 3.30279 0
M  V30 1050 H 95.5045 0.585031 0.448228 0
M  V30 1051 H 98.1465 1.82402 0.531946 0
M  V30 1052 H 96.2965 2.59667 2.88973 0
M  V30 1053 H 97.9685 4.48322 1.0865 0
M  V30 1054 H 96.2115 4.23177 0.954148 0
M  V30 1055 H 96.8825 4.96381 2.41474 0
M  V30 1056 H 99.3585 3.07623 2.80191 0
M  V30 1057 H 98.2345 3.74566 4.01238 0
M  V30 1058 H 98.4955 2.01021 3.93755 0
M  V30 1059 N 97.5546 -0.734337 1.39446 0
M  V30 1060 C 98.7826 -1.52358 1.39981 0
M  V30 1061 C 99.1976 -1.88799 -0.0054975 0
M  V30 1062 O 98.5546 -1.54146 -0.976998 0
M  V30 1063 C 98.6056 -2.81072 2.27333 0
M  V30 1064 O 98.3266 -2.46178 3.62392 0
M  V30 1065 C 99.8276 -3.75096 2.36259 0
M  V30 1066 H 97.0476 -0.470806 0.478103 0
M  V30 1067 H 99.5916 -0.907339 1.83269 0
M  V30 1068 H 97.7466 -3.39026 1.87457 0
M  V30 1069 H 98.1606 -3.28866 4.08592 0
M  V30 1070 H 99.6346 -4.62305 3.01626 0
M  V30 1071 H 100.112 -4.16892 1.38194 0
M  V30 1072 H 100.718 -3.23061 2.76608 0
M  V30 1073 N 99.0327 -1.24633 -0.964593 0
M  V30 1074 C 100.281 -1.08573 -1.70459 0
M  V30 1075 C 100.602 0.375655 -1.91347 0
M  V30 1076 O 99.8717 1.26779 -1.49345 0
M  V30 1077 H 98.4517 -0.398784 -0.631649 0
M  V30 1078 H 101.114 -1.56601 -1.16026 0
M  V30 1079 H 100.21 -1.58623 -2.68785 0
M  V30 1080 N 100.511 1.16574 -1.06058 0
M  V30 1081 C 101.459 2.22941 -0.663343 0
M  V30 1082 C 102.453 1.66358 0.319593 0
M  V30 1083 O 103.659 1.7905 0.184713 0
M  V30 1084 H 100.034 0.725907 -0.196376 0
M  V30 1085 H 102.005 2.53736 -1.57037 0
M  V30 1086 C 100.754 3.47642 -0.0632808 0
M  V30 1087 H 100.077 3.91493 -0.810733 0
M  V30 1088 H 101.517 4.2363 0.177177 0
M  V30 1089 C 99.9758 3.1509 1.19248 0
M  V30 1090 O 100.506 3.30673 2.28075 0
M  V30 1091 N 98.7118 2.6924 1.09353 0
M  V30 1092 H 98.2588 2.5676 0.207912 0
M  V30 1093 H 98.2168 2.47833 1.93458 0
M  V30 1094 N 101.989 0.842826 1.3317 0
M  V30 1095 C 102.936 0.276885 2.29133 0
M  V30 1096 C 103.906 -0.609527 1.54512 0
M  V30 1097 O 105.091 -0.546955 1.82792 0
M  V30 1098 C 102.231 -0.538707 3.40869 0
M  V30 1099 C 101.344 0.372169 4.30394 0
M  V30 1100 C 100.479 -0.454908 5.29249 0
M  V30 1101 C 99.5179 0.45411 6.10413 0
M  V30 1102 N 98.6549 -0.335075 7.013 0
M  V30 1103 H 103.495 1.10052 2.76934 0
M  V30 1104 H 101.032 0.554161 1.36262 0
M  V30 1105 H 102.99 -1.02709 4.0436 0
M  V30 1106 H 101.62 -1.32727 2.9425 0
M  V30 1107 H 100.672 0.97888 3.6759 0
M  V30 1108 H 101.984 1.0703 4.87182 0
M  V30 1109 H 101.138 -1.00695 5.98285 0
M  V30 1110 H 99.8769 -1.18646 4.73048 0
M  V30 1111 H 98.8819 1.01813 5.40291 0
M  V30 1112 H 100.107 1.18409 6.68697 0
M  V30 1113 H 98.0529 -1.04994 6.47543 0
M  V30 1114 H 97.9699 0.304262 7.55387 0
M  V30 1115 H 99.2379 -0.869224 7.74638 0
M  V30 1116 N 103.467 -1.45747 0.599634 0
M  V30 1117 C 104.716 -2.01502 0.0893511 0
M  V30 1118 C 105.029 -1.4748 -1.28488 0
M  V30 1119 O 106.235 -1.95161 -1.88745 0
M  V30 1120 C 104.691 -3.59735 0.109082 0
M  V30 1121 C 104.299 -4.22754 1.48267 0
M  V30 1122 C 106.043 -4.23085 -0.346374 0
M  V30 1123 C 103.95 -5.73115 1.45921 0
M  V30 1124 H 102.88 -0.753417 0.0296347 0
M  V30 1125 H 105.531 -1.67303 0.753788 0
M  V30 1126 H 103.913 -3.91087 -0.621854 0
M  V30 1127 H 105.087 -4.02987 2.23468 0
M  V30 1128 H 103.402 -3.71567 1.87955 0
M  V30 1129 H 105.999 -5.33327 -0.38298 0
M  V30 1130 H 106.342 -3.93201 -1.36743 0
M  V30 1131 H 106.875 -3.9642 0.331038 0
M  V30 1132 H 103.614 -6.07685 2.45762 0
M  V30 1133 H 103.134 -5.95097 0.749665 0
M  V30 1134 H 104.813 -6.3616 1.17941 0
M  V30 1135 N 104.945 -0.338344 -1.53925 0
M  V30 1136 C 105.875 0.51328 -2.27789 0
M  V30 1137 C 106.856 1.107 -1.29149 0
M  V30 1138 O 108.041 1.12937 -1.57984 0
M  V30 1139 C 105.171 1.66697 -3.04679 0
M  V30 1140 C 104.125 1.20183 -4.1078 0
M  V30 1141 C 103.451 2.44363 -4.75595 0
M  V30 1142 C 104.751 0.30605 -5.21403 0
M  V30 1143 H 106.445 -0.102883 -2.99223 0
M  V30 1144 H 103.991 -0.0509219 -1.4391 0
M  V30 1145 H 105.944 2.26915 -3.55088 0
M  V30 1146 H 104.668 2.30995 -2.30887 0
M  V30 1147 H 103.327 0.622499 -3.61276 0
M  V30 1148 H 102.975 3.07057 -3.98403 0
M  V30 1149 H 102.675 2.13925 -5.47275 0
M  V30 1150 H 104.199 3.05317 -5.28786 0
M  V30 1151 H 105.613 0.814929 -5.67478 0
M  V30 1152 H 104.01 0.0937929 -6.00027 0
M  V30 1153 H 105.08 -0.65921 -4.80398 0
M  V30 1154 N 106.423 1.57458 -0.0668435 0
M  V30 1155 C 107.839 1.56947 0.289772 0
M  V30 1156 C 108.039 1.07584 1.70376 0
M  V30 1157 O 107.095 0.739486 2.41429 0
M  V30 1158 C 108.408 3.0052 0.103943 0
M  V30 1159 C 109.956 3.12517 0.173857 0
M  V30 1160 C 110.431 4.57997 0.0163682 0
M  V30 1161 N 111.922 4.63144 0.0721352 0
M  V30 1162 C 112.657 5.73394 -0.0253794 0
M  V30 1163 N 112.153 6.92576 -0.176133 0
M  V30 1164 N 113.946 5.62091 0.0313305 0
M  V30 1165 H 106.097 1.87863 -0.991027 0
M  V30 1166 H 108.36 0.86583 -0.38606 0
M  V30 1167 H 108.066 3.40729 -0.871572 0
M  V30 1168 H 107.94 3.67304 0.858366 0
M  V30 1169 H 110.327 2.72197 1.13985 0
M  V30 1170 H 110.408 2.48381 -0.611586 0
M  V30 1171 H 110.052 4.99005 -0.946374 0
M  V30 1172 H 109.982 5.20158 0.821153 0
M  V30 1173 H 112.473 3.77436 0.187263 0
M  V30 1174 H 112.786 7.72418 -0.242821 0
M  V30 1175 H 111.131 6.94678 -0.211429 0
M  V30 1176 H 114.322 4.67867 0.147773 0
M  V30 1177 H 114.495 6.47982 -0.048121 0
M  V30 1178 N 107.901 -0.206675 1.56239 0
M  V30 1179 C 109.15 -0.926964 1.79138 0
M  V30 1180 C 109.463 -1.84901 0.638043 0
M  V30 1181 O 110.669 -2.60906 0.751033 0
M  V30 1182 C 109.125 -1.6986 3.17294 0
M  V30 1183 C 108.733 -0.821956 4.40395 0
M  V30 1184 C 110.477 -2.40922 3.4951 0
M  V30 1185 C 108.384 -1.59179 5.69575 0
M  V30 1186 H 107.314 -0.349864 0.667915 0
M  V30 1187 H 109.965 -0.180487 1.8261 0
M  V30 1188 H 108.347 -2.48853 3.08039 0
M  V30 1189 H 109.521 -0.0715019 4.60745 0
M  V30 1190 H 107.836 -0.222741 4.15804 0
M  V30 1191 H 110.433 -2.99047 4.43255 0
M  V30 1192 H 110.776 -3.14542 2.72707 0
M  V30 1193 H 111.309 -1.68905 3.60161 0
M  V30 1194 H 108.048 -0.898589 6.49312 0
M  V30 1195 H 107.568 -2.31648 5.53262 0
M  V30 1196 H 109.247 -2.14862 6.10281 0
M  V30 1197 N 109.379 -1.50304 -0.473955 0
M  V30 1198 C 110.309 -1.71886 -1.58042 0
M  V30 1199 C 111.29 -0.567799 -1.60344 0
M  V30 1200 O 112.475 -0.806623 -1.76656 0
M  V30 1201 C 109.605 -1.81036 -2.96384 0
M  V30 1202 C 108.559 -2.962 -3.08949 0
M  V30 1203 C 107.885 -2.9049 -4.48909 0
M  V30 1204 C 109.185 -4.36752 -2.86434 0
M  V30 1205 H 110.879 -2.64527 -1.40234 0
M  V30 1206 H 108.425 -1.27295 -0.673201 0
M  V30 1207 H 110.378 -1.94719 -3.73714 0
M  V30 1208 H 109.102 -0.850147 -3.15341 0
M  V30 1209 H 107.761 -2.82164 -2.3405 0
M  V30 1210 H 107.409 -1.92321 -4.64781 0
M  V30 1211 H 107.109 -3.67802 -4.58253 0
M  V30 1212 H 108.633 -3.06218 -5.28264 0
M  V30 1213 H 110.047 -4.5133 -3.53517 0
M  V30 1214 H 108.444 -5.15493 -3.07225 0
M  V30 1215 H 109.514 -4.49321 -1.82316 0
M  V30 1216 N 110.857 0.726932 -1.39834 0
M  V30 1217 C 111.804 1.841 -1.39197 0
M  V30 1218 C 112.774 1.642 -0.250502 0
M  V30 1219 O 113.959 1.85494 -0.446846 0
M  V30 1220 C 111.099 3.21697 -1.24919 0
M  V30 1221 C 110.212 3.53247 -2.48678 0
M  V30 1222 C 109.347 4.80289 -2.26928 0
M  V30 1223 C 108.386 5.04707 -3.4632 0
M  V30 1224 N 107.523 6.22956 -3.23836 0
M  V30 1225 H 112.363 1.83979 -2.34427 0
M  V30 1226 H 109.9 0.898876 -1.16442 0
M  V30 1227 H 111.858 4.01137 -1.1465 0
M  V30 1228 H 110.488 3.21076 -0.333153 0
M  V30 1229 H 109.54 2.68447 -2.69519 0
M  V30 1230 H 110.852 3.67205 -3.37582 0
M  V30 1231 H 110.006 5.67725 -2.13947 0
M  V30 1232 H 108.745 4.68519 -1.35431 0
M  V30 1233 H 107.75 4.1573 -3.5979 0
M  V30 1234 H 108.975 5.18357 -4.38729 0
M  V30 1235 H 106.921 6.12459 -2.35011 0
M  V30 1236 H 106.838 6.37539 -4.063 0
M  V30 1237 H 108.106 7.1321 -3.14566 0
M  V30 1238 N 112.336 1.25143 0.95797 0
M  V30 1239 C 113.561 1.12521 1.74223 0
M  V30 1240 C 113.986 -0.317402 1.85403 0
M  V30 1241 O 113.344 -1.2299 1.33204 0
M  V30 1242 C 113.392 1.78062 3.1357 0
M  V30 1243 O 112.496 1.058 3.98598 0
M  V30 1244 H 111.837 0.39304 0.535178 0
M  V30 1245 H 114.367 1.65641 1.201 0
M  V30 1246 H 114.377 1.84213 3.64046 0
M  V30 1247 H 113.052 2.83021 3.04749 0
M  V30 1248 H 111.629 1.07506 3.57067 0
M  V30 1249 N 113.814 -1.1601 1.06675 0
M  V30 1250 C 114.761 -2.20525 0.680967 0
M  V30 1251 C 115.731 -1.62904 -0.324283 0
M  V30 1252 O 116.916 -1.89615 -0.212294 0
M  V30 1253 C 114.056 -3.45013 0.0776551 0
M  V30 1254 C 113.169 -4.16863 1.13355 0
M  V30 1255 C 112.304 -5.2888 0.49597 0
M  V30 1256 C 111.343 -5.92537 1.53513 0
M  V30 1257 N 110.48 -6.96038 0.920631 0
M  V30 1258 H 115.32 -2.52876 1.57663 0
M  V30 1259 H 112.857 -1.24199 0.788223 0
M  V30 1260 H 114.815 -4.16193 -0.289704 0
M  V30 1261 H 113.445 -3.132 -0.781393 0
M  V30 1262 H 112.497 -3.44248 1.61857 0
M  V30 1263 H 113.809 -4.60294 1.92174 0
M  V30 1264 H 112.963 -6.06653 0.0758604 0
M  V30 1265 H 111.702 -4.86622 -0.324062 0
M  V30 1266 H 110.707 -5.13482 1.9651 0
M  V30 1267 H 111.932 -6.36873 2.35733 0
M  V30 1268 H 109.878 -6.55888 0.12138 0
M  V30 1269 H 109.795 -7.3786 1.64616 0
M  V30 1270 H 111.063 -7.77725 0.525795 0
M  V30 1271 N 115.292 -0.849877 -1.32721 0
M  V30 1272 C 116.54 -0.450032 -1.97026 0
M  V30 1273 C 116.861 0.996604 -1.67609 0
M  V30 1274 O 116.131 1.6958 -0.980786 0
M  V30 1275 H 114.711 -0.163426 -0.728904 0
M  V30 1276 H 117.373 -1.08526 -1.6189 0
M  V30 1277 H 116.469 -0.591146 -3.0645 0
M  V30 1278 N 116.77 1.45427 -0.607355 0
M  V30 1279 C 117.7 2.3329 0.0989352 0
M  V30 1280 C 118.681 1.46816 0.859007 0
M  V30 1281 O 119.866 1.75588 0.829604 0
M  V30 1282 C 116.996 3.29518 1.09705 0
M  V30 1283 C 115.95 4.25626 0.450206 0
M  V30 1284 C 115.276 5.11542 1.55655 0
M  V30 1285 C 116.576 5.18505 -0.628455 0
M  V30 1286 H 118.27 2.92595 -0.634716 0
M  V30 1287 H 115.816 1.40696 -0.306681 0
M  V30 1288 H 117.769 3.89855 1.59971 0
M  V30 1289 H 116.493 2.68372 1.86129 0
M  V30 1290 H 115.152 3.66586 -0.0315886 0
M  V30 1291 H 114.8 4.46765 2.31107 0
M  V30 1292 H 114.5 5.76647 1.12925 0
M  V30 1293 H 116.024 5.74748 2.06148 0
M  V30 1294 H 117.438 5.72916 -0.209877 0
M  V30 1295 H 115.835 5.92085 -0.977489 0
M  V30 1296 H 116.905 4.60948 -1.50514 0
M  V30 1297 N 118.248 0.346503 1.53744 0
M  V30 1298 C 119.211 -0.496439 2.23759 0
M  V30 1299 C 120.211 -1.0252 1.2388 0
M  V30 1300 O 121.401 -0.913974 1.48297 0
M  V30 1301 C 118.533 -1.69187 2.95954 0
M  V30 1302 H 119.726 0.115952 2.99676 0
M  V30 1303 H 117.279 0.0978939 1.55993 0
M  V30 1304 H 118.014 -2.34288 2.24231 0
M  V30 1305 H 117.799 -1.31989 3.69217 0
M  V30 1306 H 119.289 -2.28969 3.49232 0
M  V30 1307 N 119.726 -1.57421 0.075193 0
M  V30 1308 C 121.137 -1.81021 -0.456964 0
M  V30 1309 C 121.488 -0.98936 -1.69429 0
M  V30 1310 O 120.613 -0.212865 -2.15351 0
M  V30 1311 C 121.208 -3.28329 -0.83581 0
M  V30 1312 C 119.767 -3.52764 -1.31281 0
M  V30 1313 C 118.914 -2.75676 -0.299648 0
M  V30 1314 H 121.865 -1.55822 0.300856 0
M  V30 1315 H 121.886 -3.40564 -1.69696 0
M  V30 1316 H 121.398 -3.88046 0.0649238 0
M  V30 1317 H 119.499 -2.98355 -2.23193 0
M  V30 1318 H 119.612 -4.61451 -1.28839 0
M  V30 1319 H 117.976 -2.42538 -0.777641 0
M  V30 1320 H 118.759 -3.38132 0.593417 0
M  V30 1321 N 121.204 0.198386 -1.56346 0
M  V30 1322 C 122.481 0.944982 -1.71258 0
M  V30 1323 C 122.861 2.0151 -0.629048 0
M  V30 1324 O 122.209 2.25639 0.360473 0
M  V30 1325 C 122.419 1.5344 -3.1346 0
M  V30 1326 C 123.767 2.01778 -3.73591 0
M  V30 1327 O 124.791 1.63288 -3.16568 0
M  V30 1328 O 123.65 2.72594 -4.73661 0
M  V30 1329 H 120.744 0.442939 -0.69838 0
M  V30 1330 H 123.29 0.188342 -1.68652 0
M  V30 1331 H 122.062 0.762869 -3.83792 0
M  V30 1332 H 121.685 2.35596 -3.20282 0
M  V30 1333 N 122.682 1.50554 0.465978 0
M  V30 1334 C 123.612 1.72722 1.57128 0
M  V30 1335 C 124.593 0.576294 1.6004 0
M  V30 1336 O 125.778 0.81598 1.76225 0
M  V30 1337 C 122.908 1.82605 2.95419 0
M  V30 1338 C 121.862 2.97835 3.07373 0
M  V30 1339 C 121.188 2.92867 4.47363 0
M  V30 1340 C 122.488 4.38265 2.84114 0
M  V30 1341 H 124.182 2.65267 1.38829 0
M  V30 1342 H 121.728 1.2765 0.666441 0
M  V30 1343 H 123.681 1.96698 3.72677 0
M  V30 1344 H 122.405 0.866858 3.14886 0
M  V30 1345 H 121.064 2.83401 2.3255 0
M  V30 1346 H 120.712 1.94783 4.63755 0
M  V30 1347 H 120.412 3.70227 4.56296 0
M  V30 1348 H 121.936 3.09015 5.26633 0
M  V30 1349 H 123.35 4.53198 3.51118 0
M  V30 1350 H 121.747 5.17115 3.04487 0
M  V30 1351 H 122.817 4.50281 1.7993 0
M  V30 1352 N 124.16 -0.719506 1.40217 0
M  V30 1353 C 125.571 -1.29848 1.34151 0
M  V30 1354 C 125.922 -1.96196 0.0131349 0
M  V30 1355 O 125.047 -1.973 -0.88892 0
M  V30 1356 C 125.642 -2.36118 2.42968 0
M  V30 1357 C 124.201 -2.8965 2.40374 0
M  V30 1358 C 123.348 -1.63393 2.24049 0
M  V30 1359 H 126.299 -0.51591 1.5008 0
M  V30 1360 H 126.32 -3.16871 2.10649 0
M  V30 1361 H 125.832 -1.878 3.39636 0
M  V30 1362 H 123.933 -3.42208 1.47392 0
M  V30 1363 H 124.046 -3.4171 3.35814 0
M  V30 1364 H 122.41 -1.88312 1.71495 0
M  V30 1365 H 123.193 -1.17104 3.2271 0
M  V30 1366 N 125.638 -1.25649 -0.95132 0
M  V30 1367 C 126.548 -1.08073 -2.08224 0
M  V30 1368 C 127.564 -0.0169666 -1.73992 0
M  V30 1369 O 128.74 -0.218593 -2.0021 0
M  V30 1370 C 125.805 -0.704922 -3.39458 0
M  V30 1371 C 124.866 -1.84699 -3.87537 0
M  V30 1372 C 124.099 -1.48902 -5.12508 0
M  V30 1373 O 124.322 -0.386156 -5.69091 0
M  V30 1374 O 123.256 -2.32033 -5.55378 0
M  V30 1375 H 127.082 -2.02924 -2.25954 0
M  V30 1376 H 124.667 -1.04618 -1.06656 0
M  V30 1377 H 126.549 -0.507609 -4.18332 0
M  V30 1378 H 125.224 0.214291 -3.2299 0
M  V30 1379 H 124.131 -2.09919 -3.09653 0
M  V30 1380 H 125.464 -2.74557 -4.08509 0
M  V30 1381 N 127.117 1.15442 -1.07289 0
M  V30 1382 C 128.394 1.82306 -0.708792 0
M  V30 1383 C 128.774 1.94991 0.808807 0
M  V30 1384 O 128.122 1.50085 1.72298 0
M  V30 1385 C 128.332 3.18695 -1.42247 0
M  V30 1386 C 129.68 3.94341 -1.57417 0
M  V30 1387 O 130.704 3.28247 -1.38319 0
M  V30 1388 O 129.563 5.12839 -1.88834 0
M  V30 1389 H 126.657 0.787628 -0.252132 0
M  V30 1390 H 129.203 1.22559 -1.17377 0
M  V30 1391 H 127.975 3.04557 -2.45684 0
M  V30 1392 H 127.598 3.86128 -0.948223 0
M  V30 1393 N 128.595 0.856903 1.32268 0
M  V30 1394 C 129.525 0.31858 2.31316 0
M  V30 1395 C 130.506 -0.583487 1.59779 0
M  V30 1396 O 131.691 -0.503259 1.87566 0
M  V30 1397 C 128.821 -0.491979 3.43798 0
M  V30 1398 C 127.775 0.315849 4.26833 0
M  V30 1399 C 127.101 -0.619586 5.31098 0
M  V30 1400 C 128.401 1.54282 4.98993 0
M  V30 1401 H 130.095 1.14621 2.76591 0
M  V30 1402 H 127.641 0.552613 1.32974 0
M  V30 1403 H 129.594 -0.879012 4.1213 0
M  V30 1404 H 128.318 -1.35299 2.97257 0
M  V30 1405 H 126.977 0.684664 3.6015 0
M  V30 1406 H 126.625 -1.47751 4.8081 0
M  V30 1407 H 126.325 -0.0830621 5.87541 0
M  V30 1408 H 127.849 -1.00375 6.02293 0
M  V30 1409 H 129.263 1.22796 5.59995 0
M  V30 1410 H 127.66 2.01745 5.65172 0
M  V30 1411 H 128.73 2.30285 4.26728 0
M  V30 1412 N 130.073 -1.45103 0.615059 0
M  V30 1413 C 131.303 -2.06254 0.119596 0
M  V30 1414 C 131.711 -1.4591 -1.20445 0
M  V30 1415 O 131.054 -0.570384 -1.7462 0
M  V30 1416 C 131.116 -3.59396 -0.0865591 0
M  V30 1417 C 130.78 -4.42116 1.15683 0
M  V30 1418 C 131.777 -4.7662 2.07676 0
M  V30 1419 C 129.462 -4.82749 1.38775 0
M  V30 1420 C 131.456 -5.50622 3.21082 0
M  V30 1421 C 129.143 -5.56504 2.52481 0
M  V30 1422 C 130.141 -5.90358 3.43463 0
M  V30 1423 O 129.829 -6.62615 4.55189 0
M  V30 1424 H 129.561 -0.672423 0.0694512 0
M  V30 1425 H 132.115 -1.87219 0.844885 0
M  V30 1426 H 130.345 -3.76859 -0.866823 0
M  V30 1427 H 132.034 -4.02365 -0.534555 0
M  V30 1428 H 132.8 -4.4578 1.91063 0
M  V30 1429 H 128.679 -4.55829 0.688545 0
M  V30 1430 H 132.223 -5.76965 3.92119 0
M  V30 1431 H 128.12 -5.86759 2.69043 0
M  V30 1432 H 128.888 -6.81071 4.53966 0
M  V30 1433 N 131.551 -0.354651 -1.53558 0
M  V30 1434 C 132.501 0.513179 -2.2215 0
M  V30 1435 C 133.485 1.05734 -1.21281 0
M  V30 1436 O 134.677 0.989202 -1.46778 0
M  V30 1437 C 131.806 1.65798 -3.00609 0
M  V30 1438 C 130.892 1.12722 -4.08845 0
M  V30 1439 N 131.283 0.318563 -5.04796 0
M  V30 1440 C 129.581 1.40307 -4.23356 0
M  V30 1441 C 130.282 0.0292224 -5.81693 0
M  V30 1442 N 129.258 0.623891 -5.40008 0
M  V30 1443 H 133.06 -0.111586 -2.93688 0
M  V30 1444 H 130.574 -0.162091 -1.61589 0
M  V30 1445 H 132.571 2.29176 -3.48258 0
M  V30 1446 H 131.231 2.28591 -2.306 0
M  V30 1447 H 132.242 -0.0413091 -5.17884 0
M  V30 1448 H 128.919 2.03458 -3.6457 0
M  V30 1449 H 130.309 -0.623808 -6.68998 0
M  V30 1450 N 133.029 1.57378 -0.0835403 0
M  V30 1451 C 133.959 2.1641 0.87686 0
M  V30 1452 C 134.94 1.09429 1.30228 0
M  V30 1453 O 136.125 1.37516 1.37124 0
M  V30 1454 C 133.255 2.73517 2.14022 0
M  V30 1455 C 132.209 3.85769 1.85381 0
M  V30 1456 C 131.535 4.29529 3.18448 0
M  V30 1457 C 132.835 5.09486 1.14984 0
M  V30 1458 H 134.529 2.96914 0.385059 0
M  V30 1459 H 132.075 1.42823 0.18377 0
M  V30 1460 H 134.028 3.13463 2.81636 0
M  V30 1461 H 132.752 1.90252 2.65465 0
M  V30 1462 H 131.411 3.46345 1.20169 0
M  V30 1463 H 131.059 3.43169 3.67755 0
M  V30 1464 H 130.759 5.05204 3.00071 0
M  V30 1465 H 132.283 4.72099 3.8724 0
M  V30 1466 H 133.697 5.46674 1.72687 0
M  V30 1467 H 132.094 5.90515 1.06826 0
M  V30 1468 H 133.164 4.84724 0.130749 0
M  V30 1469 N 134.507 -0.190092 1.56449 0
M  V30 1470 C 135.756 -0.907912 1.80111 0
M  V30 1471 C 136.069 -1.84214 0.657619 0
M  V30 1472 O 137.275 -2.60094 0.778663 0
M  V30 1473 C 135.731 -1.66485 3.19078 0
M  V30 1474 C 135.339 -0.7752 4.41242 0
M  V30 1475 C 137.083 -2.37201 3.52045 0
M  V30 1476 C 134.99 -1.53129 5.71231 0
M  V30 1477 H 133.92 -0.34276 0.671589 0
M  V30 1478 H 136.571 -0.161109 1.82791 0
M  V30 1479 H 134.953 -2.45572 3.10661 0
M  V30 1480 H 136.127 -0.0226298 4.60794 0
M  V30 1481 H 134.442 -0.178627 4.16017 0
M  V30 1482 H 137.039 -2.94329 4.46402 0
M  V30 1483 H 137.382 -3.11632 2.76028 0
M  V30 1484 H 137.915 -1.65075 3.61932 0
M  V30 1485 H 134.654 -0.82967 6.50228 0
M  V30 1486 H 134.174 -2.25767 5.55688 0
M  V30 1487 H 135.853 -2.08377 6.12526 0
M  V30 1488 N 135.985 -1.50799 -0.457987 0
M  V30 1489 C 136.932 -1.70617 -1.5543 0
M  V30 1490 C 137.902 -0.547562 -1.56815 0
M  V30 1491 O 139.087 -0.779647 -1.74144 0
M  V30 1492 C 136.227 -1.81831 -2.93311 0
M  V30 1493 C 135.34 -3.09278 -3.01615 0
M  V30 1494 C 134.475 -3.11209 -4.30491 0
M  V30 1495 C 133.514 -4.33055 -4.32585 0
M  V30 1496 N 132.651 -4.32652 -5.52952 0
M  V30 1497 H 137.491 -2.64207 -1.37836 0
M  V30 1498 H 135.028 -1.30959 -0.669937 0
M  V30 1499 H 136.986 -1.86314 -3.73287 0
M  V30 1500 H 135.616 -0.916685 -3.0951 0
M  V30 1501 H 134.668 -3.14203 -2.1443 0
M  V30 1502 H 135.98 -3.99233 -2.99022 0
M  V30 1503 H 135.134 -3.14494 -5.18824 0
M  V30 1504 H 133.873 -2.19106 -4.35711 0
M  V30 1505 H 132.878 -4.29969 -3.42647 0
M  V30 1506 H 134.103 -5.264 -4.29046 0
M  V30 1507 H 132.049 -3.43409 -5.58933 0
M  V30 1508 H 131.966 -5.16392 -5.52155 0
M  V30 1509 H 133.234 -4.40101 -6.43375 0
M  V30 1510 N 137.463 0.71206 -1.40597 0
M  V30 1511 C 138.41 1.82613 -1.41142 0
M  V30 1512 C 139.38 1.63925 -0.267903 0
M  V30 1513 O 140.565 1.85009 -0.466495 0
M  V30 1514 C 137.705 3.20354 -1.28324 0
M  V30 1515 C 136.818 3.50589 -2.52411 0
M  V30 1516 C 135.953 4.77855 -2.32009 0
M  V30 1517 C 134.992 5.01005 -3.51654 0
M  V30 1518 N 134.129 6.19487 -3.30425 0
M  V30 1519 H 138.969 1.81482 -2.36365 0
M  V30 1520 H 136.506 0.886475 -1.17388 0
M  V30 1521 H 138.464 3.99899 -1.18899 0
M  V30 1522 H 137.094 3.20705 -0.367189 0
M  V30 1523 H 136.146 2.65573 -2.72351 0
M  V30 1524 H 137.458 3.63604 -3.41458 0
M  V30 1525 H 136.612 5.65424 -2.19956 0
M  V30 1526 H 135.351 4.67056 -1.40392 0
M  V30 1527 H 134.356 4.1189 -3.64179 0
M  V30 1528 H 135.581 5.13674 -4.44202 0
M  V30 1529 H 133.527 6.09932 -2.41494 0
M  V30 1530 H 133.444 6.33194 -4.13039 0
M  V30 1531 H 134.712 7.09834 -3.22113 0
M  V30 1532 N 138.941 1.26152 0.944643 0
M  V30 1533 C 139.904 1.07474 2.0244 0
M  V30 1534 C 140.904 0.0242064 1.60782 0
M  V30 1535 O 142.094 0.267302 1.72137 0
M  V30 1536 C 139.226 0.633956 3.34953 0
M  V30 1537 H 140.419 2.03336 2.20442 0
M  V30 1538 H 137.972 1.087 1.12312 0
M  V30 1539 H 138.707 -0.326811 3.22649 0
M  V30 1540 H 138.492 1.39247 3.66542 0
M  V30 1541 H 139.982 0.52501 4.14287 0
M  V30 1542 N 140.419 -1.14872 1.07899 0
M  V30 1543 C 141.665 -1.86064 0.806725 0
M  V30 1544 C 141.998 -1.82434 -0.665706 0
M  V30 1545 O 141.273 -1.25138 -1.48899 0
M  V30 1546 C 141.556 -3.34929 1.32267 0
M  V30 1547 C 141.409 -3.47161 2.86006 0
M  V30 1548 C 142.728 -4.29863 0.943717 0
M  V30 1549 H 139.847 -0.675591 0.294526 0
M  V30 1550 H 142.489 -1.34925 1.33773 0
M  V30 1551 H 140.639 -3.78611 0.870974 0
M  V30 1552 H 142.311 -3.12302 3.39507 0
M  V30 1553 H 140.554 -2.88539 3.23925 0
M  V30 1554 H 141.225 -4.51777 3.17177 0
M  V30 1555 H 143.701 -3.9417 1.33302 0
M  V30 1556 H 142.577 -5.32494 1.33198 0
M  V30 1557 H 142.838 -4.41846 -0.149796 0
M  V30 1558 N 141.898 -0.863906 -1.31812 0
M  V30 1559 C 142.861 -0.320212 -2.26952 0
M  V30 1560 C 143.861 0.525369 -1.51975 0
M  V30 1561 O 145.051 0.335547 -1.70938 0
M  V30 1562 C 142.183 0.545919 -3.365 0
M  V30 1563 H 143.376 -1.16004 -2.76556 0
M  V30 1564 H 140.929 -0.638995 -1.42641 0
M  V30 1565 H 141.664 1.40718 -2.92179 0
M  V30 1566 H 141.449 -0.0594674 -3.92055 0
M  V30 1567 H 142.939 0.918796 -4.07367 0
M  V30 1568 N 143.376 1.44774 -0.622745 0
M  V30 1569 C 144.622 2.0242 -0.124083 0
M  V30 1570 C 144.955 1.4881 1.24777 0
M  V30 1571 O 144.23 0.668799 1.8264 0
M  V30 1572 C 144.513 3.59957 -0.101619 0
M  V30 1573 C 144.366 4.23867 -1.50521 0
M  V30 1574 C 145.685 4.36284 0.578272 0
M  V30 1575 H 142.804 0.735528 -0.0465645 0
M  V30 1576 H 145.446 1.72447 -0.797617 0
M  V30 1577 H 143.596 3.85623 0.471934 0
M  V30 1578 H 145.268 4.09336 -2.12701 0
M  V30 1579 H 143.511 3.81684 -2.06154 0
M  V30 1580 H 144.182 5.32843 -1.4416 0
M  V30 1581 H 146.658 4.16001 0.0906057 0
M  V30 1582 H 145.534 5.46004 0.563149 0
M  V30 1583 H 145.795 4.10271 1.64713 0
M  V30 1584 N 144.854 0.36279 1.53368 0
M  V30 1585 C 146.27 0.0116182 1.59596 0
M  V30 1586 C 146.47 -1.47012 1.37803 0
M  V30 1587 O 145.526 -2.23136 1.18181 0
M  V30 1588 C 146.839 0.465052 2.97082 0
M  V30 1589 C 148.387 0.419033 3.10182 0
M  V30 1590 C 148.862 0.848235 4.50077 0
M  V30 1591 N 150.353 0.803183 4.56183 0
M  V30 1592 C 151.088 1.107 5.62613 0
M  V30 1593 N 150.584 1.47996 6.76808 0
M  V30 1594 N 152.377 1.02998 5.52583 0
M  V30 1595 H 144.528 1.32775 1.65785 0
M  V30 1596 H 146.791 0.542518 0.777417 0
M  V30 1597 H 146.497 1.49892 3.18159 0
M  V30 1598 H 146.371 -0.149786 3.76902 0
M  V30 1599 H 148.758 -0.605696 2.88817 0
M  V30 1600 H 148.839 1.06933 2.32377 0
M  V30 1601 H 148.483 1.87107 4.7218 0
M  V30 1602 H 148.413 0.175218 5.26308 0
M  V30 1603 H 150.904 0.52838 3.74188 0
M  V30 1604 H 151.217 1.69613 7.53957 0
M  V30 1605 H 149.562 1.51859 6.78206 0
M  V30 1606 H 152.753 0.737817 4.62249 0
M  V30 1607 H 152.926 1.2701 6.35431 0
M  V30 1608 N 146.332 -1.57332 0.0918853 0
M  V30 1609 C 147.279 -2.13847 -0.868211 0
M  V30 1610 C 148.249 -1.05618 -1.28196 0
M  V30 1611 O 149.434 -1.33387 -1.36427 0
M  V30 1612 C 146.574 -2.72062 -2.12312 0
M  V30 1613 C 145.687 -3.94514 -1.7602 0
M  V30 1614 C 144.822 -4.40903 -2.96273 0
M  V30 1615 C 143.861 -5.55953 -2.56092 0
M  V30 1616 N 142.998 -5.97209 -3.69169 0
M  V30 1617 H 147.838 -2.95575 -0.379406 0
M  V30 1618 H 145.375 -1.46048 -0.175606 0
M  V30 1619 H 147.333 -3.03931 -2.858 0
M  V30 1620 H 145.963 -1.93068 -2.58698 0
M  V30 1621 H 145.015 -3.68979 -0.925135 0
M  V30 1622 H 146.327 -4.7802 -1.42472 0
M  V30 1623 H 145.481 -4.74539 -3.78018 0
M  V30 1624 H 144.22 -3.56291 -3.33029 0
M  V30 1625 H 143.225 -5.21948 -1.72773 0
M  V30 1626 H 144.45 -6.42311 -2.20484 0
M  V30 1627 H 142.396 -5.15543 -4.05649 0
M  V30 1628 H 142.313 -6.75504 -3.39456 0
M  V30 1629 H 143.581 -6.35475 -4.51434 0
M  V30 1630 N 147.81 0.181792 -1.56548 0
M  V30 1631 C 148.76 1.22961 -1.92002 0
M  V30 1632 C 149.744 1.40331 -0.787146 0
M  V30 1633 O 150.936 1.42478 -1.05019 0
M  V30 1634 C 148.065 2.57144 -2.27446 0
M  V30 1635 C 147.151 2.43512 -3.47222 0
M  V30 1636 N 147.542 1.99577 -4.64761 0
M  V30 1637 C 145.84 2.74368 -3.51622 0
M  V30 1638 C 146.541 1.98156 -5.46909 0
M  V30 1639 N 145.517 2.40164 -4.8767 0
M  V30 1640 H 149.319 0.881462 -2.8037 0
M  V30 1641 H 146.833 0.390141 -1.57644 0
M  V30 1642 H 148.83 3.32847 -2.51035 0
M  V30 1643 H 147.49 2.92771 -1.40411 0
M  V30 1644 H 148.501 1.70078 -4.89177 0
M  V30 1645 H 145.178 3.14102 -2.75038 0
M  V30 1646 H 146.568 1.65975 -6.51077 0
M  V30 1647 N 149.288 1.51039 0.449983 0
M  V30 1648 C 150.218 1.74379 1.55288 0
M  V30 1649 C 151.199 0.593236 1.5942 0
M  V30 1650 O 152.384 0.834625 1.7535 0
M  V30 1651 C 149.514 1.85728 2.93466 0
M  V30 1652 C 148.468 3.01078 3.04197 0
M  V30 1653 C 147.794 2.97595 4.44231 0
M  V30 1654 C 149.094 4.41254 2.7945 0
M  V30 1655 H 150.788 2.66725 1.36008 0
M  V30 1656 H 148.334 1.2835 0.652864 0
M  V30 1657 H 150.287 2.0064 3.70569 0
M  V30 1658 H 149.011 0.900207 3.13949 0
M  V30 1659 H 147.67 2.85851 2.29531 0
M  V30 1660 H 147.318 1.99691 4.61663 0
M  V30 1661 H 147.018 3.75046 4.52343 0
M  V30 1662 H 148.542 3.14583 5.23326 0
M  V30 1663 H 149.956 4.56897 3.46292 0
M  V30 1664 H 148.353 5.20315 2.98985 0
M  V30 1665 H 149.423 4.52164 1.75144 0
M  V30 1666 N 150.766 -0.704594 1.40972 0
M  V30 1667 C 151.676 -1.84856 1.44448 0
M  V30 1668 C 152.692 -1.70726 0.335961 0
M  V30 1669 O 153.868 -1.92799 0.582276 0
M  V30 1670 C 150.933 -3.20758 1.31587 0
M  V30 1671 C 149.994 -3.47063 2.52677 0
M  V30 1672 C 149.227 -4.76481 2.4042 0
M  V30 1673 O 149.45 -5.52341 1.42391 0
M  V30 1674 O 148.384 -5.03367 3.30007 0
M  V30 1675 H 152.21 -1.8488 2.40942 0
M  V30 1676 H 149.795 -0.85647 1.22413 0
M  V30 1677 H 151.677 -4.01913 1.26665 0
M  V30 1678 H 150.352 -3.21438 0.382049 0
M  V30 1679 H 149.259 -2.65873 2.63177 0
M  V30 1680 H 150.592 -3.5119 3.44858 0
M  V30 1681 N 152.244 -1.26651 -0.937939 0
M  V30 1682 C 153.66 -1.03834 -1.21205 0
M  V30 1683 C 153.86 0.234502 -2.00131 0
M  V30 1684 O 152.916 0.942767 -2.3424 0
M  V30 1685 C 154.229 -2.27167 -1.97017 0
M  V30 1686 C 155.777 -2.32101 -2.09996 0
M  V30 1687 C 156.252 -3.55136 -2.8921 0
M  V30 1688 N 157.743 -3.55632 -2.96783 0
M  V30 1689 C 158.478 -4.475 -3.58512 0
M  V30 1690 N 157.974 -5.4966 -4.21717 0
M  V30 1691 N 159.767 -4.35145 -3.55816 0
M  V30 1692 H 151.918 -2.08398 -0.410391 0
M  V30 1693 H 154.181 -0.916031 -0.244114 0
M  V30 1694 H 153.887 -3.19765 -1.46434 0
M  V30 1695 H 153.761 -2.31672 -2.97671 0
M  V30 1696 H 156.148 -1.40015 -2.59769 0
M  V30 1697 H 156.229 -2.31605 -1.08594 0
M  V30 1698 H 155.873 -4.47553 -2.40123 0
M  V30 1699 H 155.803 -3.5288 -3.90875 0
M  V30 1700 H 158.294 -2.81743 -2.51852 0
M  V30 1701 H 158.607 -6.15943 -4.66727 0
M  V30 1702 H 156.952 -5.53514 -4.20294 0
M  V30 1703 H 160.143 -3.5455 -3.05634 0
M  V30 1704 H 160.316 -5.06934 -4.03636 0
M  V30 1705 N 153.722 1.14298 -1.08507 0
M  V30 1706 C 154.67 2.21483 -0.710483 0
M  V30 1707 C 155.664 1.66998 0.284234 0
M  V30 1708 O 156.87 1.79401 0.146692 0
M  V30 1709 H 153.245 0.721578 -0.211729 0
M  V30 1710 H 155.216 2.50348 -1.62384 0
M  V30 1711 C 153.965 3.4743 -0.137007 0
M  V30 1712 H 153.288 3.89686 -0.893592 0
M  V30 1713 H 154.728 4.2391 0.0872789 0
M  V30 1714 C 153.187 3.17548 1.12538 0
M  V30 1715 O 153.717 3.35437 2.21009 0
M  V30 1716 N 151.923 2.71499 1.03617 0
M  V30 1717 H 151.47 2.57143 0.153403 0
M  V30 1718 H 151.428 2.51881 1.88158 0
M  V30 1719 N 155.201 0.870884 1.31352 0
M  V30 1720 C 156.617 0.562932 1.49343 0
M  V30 1721 C 156.817 -0.902725 1.80148 0
M  V30 1722 O 155.873 -1.68484 1.88067 0
M  V30 1723 C 157.186 1.46393 2.62659 0
M  V30 1724 C 158.734 1.46607 2.76542 0
M  V30 1725 C 159.209 2.35266 3.92955 0
M  V30 1726 N 160.7 2.33151 4.00243 0
M  V30 1727 C 161.435 2.98471 4.89594 0
M  V30 1728 N 160.931 3.72964 5.8384 0
M  V30 1729 N 162.724 2.87775 4.82848 0
M  V30 1730 H 154.875 1.81923 1.09626 0
M  V30 1731 H 157.138 0.777934 0.541777 0
M  V30 1732 H 156.844 2.50689 2.46674 0
M  V30 1733 H 156.718 1.16314 3.58819 0
M  V30 1734 H 159.105 0.43069 2.9194 0
M  V30 1735 H 159.186 1.8071 1.81046 0
M  V30 1736 H 158.83 3.38881 3.78315 0
M  V30 1737 H 158.76 1.98487 4.87761 0
M  V30 1738 H 161.251 1.79006 3.32814 0
M  V30 1739 H 161.564 4.19932 6.4875 0
M  V30 1740 H 159.909 3.77073 5.83816 0
M  V30 1741 H 163.1 2.29116 4.08195 0
M  V30 1742 H 163.273 3.38961 5.52277 0
M  V30 1743 N 156.679 -1.44442 0.630414 0
M  V30 1744 C 157.626 -2.30678 -0.0749355 0
M  V30 1745 C 158.596 -1.4344 -0.837502 0
M  V30 1746 O 159.781 -1.72343 -0.818684 0
M  V30 1747 C 156.921 -3.28706 -1.05103 0
M  V30 1748 C 156.034 -4.31046 -0.286954 0
M  V30 1749 C 155.169 -5.16167 -1.2548 0
M  V30 1750 C 154.208 -6.10216 -0.479843 0
M  V30 1751 N 153.345 -6.88039 -1.39811 0
M  V30 1752 H 158.185 -2.90454 0.666386 0
M  V30 1753 H 155.722 -1.43107 0.340404 0
M  V30 1754 H 157.68 -3.84027 -1.63031 0
M  V30 1755 H 156.31 -2.70632 -1.75949 0
M  V30 1756 H 155.362 -3.78203 0.408243 0
M  V30 1757 H 156.674 -4.97794 0.316657 0
M  V30 1758 H 155.828 -5.76002 -1.90544 0
M  V30 1759 H 154.567 -4.49491 -1.89233 0
M  V30 1760 H 153.572 -5.49491 0.184295 0
M  V30 1761 H 154.797 -6.78928 0.152965 0
M  V30 1762 H 152.743 -6.24032 -2.02287 0
M  V30 1763 H 152.66 -7.51223 -0.848508 0
M  V30 1764 H 153.928 -7.52397 -2.03762 0
M  V30 1765 N 158.157 -0.370918 -1.53173 0
M  V30 1766 C 159.434 0.273754 -1.93675 0
M  V30 1767 C 159.814 1.65938 -1.3049 0
M  V30 1768 O 159.162 2.23698 -0.465999 0
M  V30 1769 C 159.372 0.318602 -3.47543 0
M  V30 1770 C 160.72 0.556392 -4.20939 0
M  V30 1771 O 161.744 0.399587 -3.53952 0
M  V30 1772 O 160.603 0.862133 -5.39657 0
M  V30 1773 H 157.697 0.165448 -0.810281 0
M  V30 1774 H 160.243 -0.42409 -1.64315 0
M  V30 1775 H 159.015 -0.652687 -3.85818 0
M  V30 1776 H 158.638 1.06212 -3.83151 0
M  V30 1777 N 159.635 1.57281 -0.100228 0
M  V30 1778 C 160.582 2.14305 0.856858 0
M  V30 1779 C 161.552 1.06296 1.27634 0
M  V30 1780 O 162.737 1.34109 1.35718 0
M  V30 1781 C 159.877 2.73184 2.10866 0
M  V30 1782 C 158.99 3.95442 1.73925 0
M  V30 1783 C 158.125 4.42468 2.93931 0
M  V30 1784 C 157.164 5.57303 2.5314 0
M  V30 1785 N 156.301 5.99158 3.65997 0
M  V30 1786 H 161.141 2.95772 0.363726 0
M  V30 1787 H 158.678 1.46139 0.167858 0
M  V30 1788 H 160.636 3.05442 2.84185 0
M  V30 1789 H 159.266 1.94437 2.57671 0
M  V30 1790 H 158.318 3.69464 0.905554 0
M  V30 1791 H 159.63 4.78769 1.39935 0
M  V30 1792 H 158.784 4.76537 3.75496 0
M  V30 1793 H 157.523 3.58052 3.31134 0
M  V30 1794 H 156.528 5.22857 1.70003 0
M  V30 1795 H 157.753 6.43471 2.17075 0
M  V30 1796 H 155.699 5.17687 4.02909 0
M  V30 1797 H 155.616 6.77295 3.35869 0
M  V30 1798 H 156.884 6.3786 4.48057 0
M  V30 1799 N 161.113 -0.173488 1.56642 0
M  V30 1800 C 162.39 -0.917617 1.7274 0
M  V30 1801 C 162.77 -2.00484 0.661027 0
M  V30 1802 O 162.118 -2.26184 -0.32453 0
M  V30 1803 C 162.328 -1.48433 3.15862 0
M  V30 1804 C 163.676 -1.95809 3.76754 0
M  V30 1805 O 164.7 -1.58231 3.19126 0
M  V30 1806 O 163.559 -2.65024 4.77938 0
M  V30 1807 H 160.653 -0.431772 0.705338 0
M  V30 1808 H 163.199 -0.161487 1.6893 0
M  V30 1809 H 161.971 -0.701715 3.84957 0
M  V30 1810 H 161.594 -2.30471 3.23989 0
M  V30 1811 N 162.591 -1.51276 -0.441967 0
M  V30 1812 C 163.554 -1.7167 -1.51862 0
M  V30 1813 C 164.554 -0.586793 -1.49711 0
M  V30 1814 O 165.744 -0.854276 -1.51815 0
M  V30 1815 C 162.876 -1.76889 -2.91416 0
M  V30 1816 H 164.069 -2.67754 -1.35084 0
M  V30 1817 H 161.622 -1.41196 -0.670333 0
M  V30 1818 H 162.357 -0.826026 -3.13604 0
M  V30 1819 H 162.142 -2.59001 -2.94382 0
M  V30 1820 H 163.632 -1.94522 -3.69528 0
M  V30 1821 N 164.069 0.697108 -1.41344 0
M  V30 1822 C 165.016 1.81106 -1.43071 0
M  V30 1823 C 165.986 1.63632 -0.285275 0
M  V30 1824 O 167.171 1.84504 -0.486091 0
M  V30 1825 C 164.311 3.18975 -1.31715 0
M  V30 1826 C 163.424 3.47892 -2.56115 0
M  V30 1827 C 162.559 4.75367 -2.37064 0
M  V30 1828 C 161.598 4.97247 -3.56948 0
M  V30 1829 N 160.735 6.15947 -3.36977 0
M  V30 1830 H 165.575 1.78965 -2.38276 0
M  V30 1831 H 163.112 0.873975 -1.18322 0
M  V30 1832 H 165.07 3.98615 -1.23133 0
M  V30 1833 H 163.7 3.20297 -0.401183 0
M  V30 1834 H 162.752 2.62669 -2.75153 0
M  V30 1835 H 164.064 3.59962 -3.45295 0
M  V30 1836 H 163.218 5.63059 -2.25941 0
M  V30 1837 H 161.957 4.65541 -1.45338 0
M  V30 1838 H 160.962 4.08004 -3.68527 0
M  V30 1839 H 162.187 5.08934 -4.49626 0
M  V30 1840 H 160.133 6.07336 -2.47949 0
M  V30 1841 H 160.05 6.28777 -4.19732 0
M  V30 1842 H 161.318 7.06377 -3.29623 0
M  V30 1843 N 165.547 1.27147 0.931209 0
M  V30 1844 C 166.794 1.13278 1.67852 0
M  V30 1845 C 167.122 -0.32204 1.91815 0
M  V30 1846 O 166.377 -1.25224 1.50391 0
M  V30 1847 C 166.676 1.8579 3.05314 0
M  V30 1848 C 166.342 3.35657 3.01073 0
M  V30 1849 C 165.004 3.76536 2.99623 0
M  V30 1850 C 167.356 4.31299 2.92627 0
M  V30 1851 C 164.684 5.11426 2.87506 0
M  V30 1852 C 167.036 5.66242 2.82051 0
M  V30 1853 C 165.7 6.06418 2.7895 0
M  V30 1854 H 164.97 0.414515 0.614214 0
M  V30 1855 H 167.617 1.57712 1.08624 0
M  V30 1856 H 165.922 1.33854 3.68226 0
M  V30 1857 H 167.619 1.72491 3.62005 0
M  V30 1858 H 164.209 3.03146 3.02986 0
M  V30 1859 H 168.393 4.00692 2.92848 0
M  V30 1860 H 163.649 5.41705 2.83489 0
M  V30 1861 H 167.823 6.40026 2.74481 0
M  V30 1862 H 165.45 7.10895 2.69318 0
M  V30 1863 N 167.025 -1.13721 1.09112 0
M  V30 1864 C 168.441 -1.36914 0.820174 0
M  V30 1865 C 168.641 -1.93356 -0.567079 0
M  V30 1866 O 167.697 -2.15093 -1.32255 0
M  V30 1867 C 169.01 -2.3235 1.90877 0
M  V30 1868 C 170.558 -2.45973 1.93562 0
M  V30 1869 C 171.033 -3.44714 3.01556 0
M  V30 1870 N 172.524 -3.52263 3.00775 0
M  V30 1871 C 173.259 -4.28536 3.80978 0
M  V30 1872 N 172.755 -5.07991 4.71081 0
M  V30 1873 N 174.548 -4.23804 3.69251 0
M  V30 1874 H 166.699 -0.754348 1.98553 0
M  V30 1875 H 168.962 -0.3944 0.862063 0
M  V30 1876 H 168.668 -1.98027 2.90651 0
M  V30 1877 H 168.542 -3.32332 1.78424 0
M  V30 1878 H 170.929 -2.79584 0.944286 0
M  V30 1879 H 171.01 -1.45926 2.10093 0
M  V30 1880 H 170.654 -3.11835 4.00901 0
M  V30 1881 H 170.584 -4.44558 2.82269 0
M  V30 1882 H 173.075 -2.95567 2.35475 0
M  V30 1883 H 173.388 -5.63487 5.28869 0
M  V30 1884 H 171.733 -5.07235 4.75119 0
M  V30 1885 H 174.924 -3.60806 2.98222 0
M  V30 1886 H 175.097 -4.82995 4.31995 0
M  V30 1887 N 168.503 -0.877838 -1.30888 0
M  V30 1888 C 169.433 -0.35534 -2.3078 0
M  V30 1889 C 170.414 0.557994 -1.60687 0
M  V30 1890 O 171.599 0.473355 -1.88343 0
M  V30 1891 C 168.729 0.437221 -3.44537 0
M  V30 1892 C 167.683 -0.383715 -4.26276 0
M  V30 1893 C 167.009 0.535014 -5.32017 0
M  V30 1894 C 168.309 -1.62201 -4.96476 0
M  V30 1895 H 170.003 -1.19007 -2.74732 0
M  V30 1896 H 167.549 -0.573698 -1.32078 0
M  V30 1897 H 169.502 0.813334 -4.13477 0
M  V30 1898 H 168.226 1.30553 -2.99372 0
M  V30 1899 H 166.885 -0.741874 -3.59015 0
M  V30 1900 H 166.533 1.40083 -4.831 0
M  V30 1901 H 166.233 -0.0104211 -5.87599 0
M  V30 1902 H 167.757 0.907799 -6.03814 0
M  V30 1903 H 169.171 -1.31689 -5.5797 0
M  V30 1904 H 167.568 -2.10711 -5.61891 0
M  V30 1905 H 168.638 -2.37044 -4.23011 0
M  V30 1906 N 169.982 1.44106 -0.638065 0
M  V30 1907 C 171.231 2.01194 -0.142744 0
M  V30 1908 C 171.544 1.50835 1.24532 0
M  V30 1909 O 172.75 2.00096 1.83504 0
M  V30 1910 C 171.206 3.59319 -0.20442 0
M  V30 1911 C 170.814 4.18674 -1.59423 0
M  V30 1912 C 172.558 4.23854 0.234079 0
M  V30 1913 C 170.465 5.69045 -1.61065 0
M  V30 1914 H 169.395 0.752367 -0.0495998 0
M  V30 1915 H 172.046 1.65246 -0.797881 0
M  V30 1916 H 170.428 3.92598 0.517946 0
M  V30 1917 H 171.602 3.96921 -2.34074 0
M  V30 1918 H 169.917 3.66453 -1.97741 0
M  V30 1919 H 172.514 5.34155 0.241443 0
M  V30 1920 H 172.857 3.96688 1.2627 0
M  V30 1921 H 173.39 3.95403 -0.436025 0
M  V30 1922 H 170.129 6.00956 -2.61787 0
M  V30 1923 H 169.649 5.929 -0.90718 0
M  V30 1924 H 171.328 6.32809 -1.34766 0
M  V30 1925 N 171.46 0.379036 1.52974 0
M  V30 1926 C 172.39 -0.452706 2.29069 0
M  V30 1927 C 173.371 -1.07237 1.32039 0
M  V30 1928 O 174.556 -1.08708 1.60923 0
M  V30 1929 C 171.686 -1.5856 3.08992 0
M  V30 1930 C 170.64 -1.0925 4.13822 0
M  V30 1931 C 169.966 -2.31668 4.81907 0
M  V30 1932 C 171.266 -0.167702 5.22031 0
M  V30 1933 H 172.96 0.182181 2.98845 0
M  V30 1934 H 170.506 0.0890592 1.43724 0
M  V30 1935 H 172.459 -2.1742 3.6098 0
M  V30 1936 H 171.183 -2.24792 2.36931 0
M  V30 1937 H 169.842 -0.526494 3.628 0
M  V30 1938 H 169.49 -2.96386 4.06404 0
M  V30 1939 H 169.19 -1.9934 5.52754 0
M  V30 1940 H 170.714 -2.91189 5.36695 0
M  V30 1941 H 172.128 -0.664186 5.6944 0
M  V30 1942 H 170.525 0.0653265 6.00064 0
M  V30 1943 H 171.595 0.786347 4.78482 0
M  V30 1944 N 172.938 -1.57226 0.108567 0
M  V30 1945 C 174.187 -1.94008 -0.551703 0
M  V30 1946 C 174.5 -0.993442 -1.68494 0
M  V30 1947 O 175.706 -1.25551 -2.40726 0
M  V30 1948 C 174.162 -3.44763 -1.03279 0
M  V30 1949 C 173.77 -4.47943 0.0714193 0
M  V30 1950 C 175.514 -3.90483 -1.66503 0
M  V30 1951 C 173.421 -5.89865 -0.425779 0
M  V30 1952 H 172.351 -0.724206 -0.209863 0
M  V30 1953 H 175.002 -1.82547 0.186741 0
M  V30 1954 H 173.384 -3.51422 -1.82533 0
M  V30 1955 H 174.558 -4.52942 0.847365 0
M  V30 1956 H 172.873 -4.11913 0.609669 0
M  V30 1957 H 175.47 -4.93925 -2.04798 0
M  V30 1958 H 175.813 -3.29877 -2.53942 0
M  V30 1959 H 176.346 -3.86581 -0.938074 0
M  V30 1960 H 173.085 -6.54202 0.412316 0
M  V30 1961 H 172.605 -5.88309 -1.16843 0
M  V30 1962 H 174.284 -6.40844 -0.890397 0
M  V30 1963 N 174.416 0.165178 -1.56732 0
M  V30 1964 C 175.326 1.22423 -2.00125 0
M  V30 1965 C 176.342 1.48084 -0.913619 0
M  V30 1966 O 177.518 1.60112 -1.22172 0
M  V30 1967 C 174.583 2.54197 -2.35764 0
M  V30 1968 C 173.644 2.36343 -3.58386 0
M  V30 1969 C 172.877 3.61834 -3.92316 0
M  V30 1970 O 173.1 4.67267 -3.27135 0
M  V30 1971 O 172.034 3.55579 -4.85641 0
M  V30 1972 H 175.86 0.885886 -2.90492 0
M  V30 1973 H 173.445 0.372518 -1.44681 0
M  V30 1974 H 175.327 3.3192 -2.59629 0
M  V30 1975 H 174.002 2.87598 -1.48557 0
M  V30 1976 H 172.909 1.56632 -3.39731 0
M  V30 1977 H 174.242 2.07865 -4.46154 0
M  V30 1978 N 175.894 1.51508 0.433938 0
M  V30 1979 C 177.119 1.68443 1.21003 0
M  V30 1980 C 177.544 0.382636 1.84167 0
M  V30 1981 O 176.902 -0.65755 1.68956 0
M  V30 1982 C 176.95 2.80405 2.26727 0
M  V30 1983 O 176.054 2.44245 3.32292 0
M  V30 1984 H 175.395 0.561536 0.354363 0
M  V30 1985 H 177.925 1.9809 0.512024 0
M  V30 1986 H 177.935 3.0459 2.71457 0
M  V30 1987 H 176.61 3.74867 1.80132 0
M  V30 1988 H 175.187 2.30644 2.93015 0
M  V30 1989 N 177.372 -0.689602 1.41712 0
M  V30 1990 C 178.788 -1.00093 1.24312 0
M  V30 1991 C 178.988 -2.01036 0.136729 0
M  V30 1992 O 178.044 -2.47562 -0.496918 0
M  V30 1993 C 179.357 -1.51985 2.59463 0
M  V30 1994 C 180.905 -1.63838 2.66695 0
M  V30 1995 C 181.38 -2.1913 4.02177 0
M  V30 1996 N 182.871 -2.26483 4.04054 0
M  V30 1997 C 183.606 -2.70306 5.0569 0
M  V30 1998 N 183.102 -3.13691 6.17713 0
M  V30 1999 N 184.895 -2.69923 4.9305 0
M  V30 2000 H 177.046 -0.0210029 2.1239 0
M  V30 2001 H 179.309 -0.0718733 0.945272 0
M  V30 2002 H 179.015 -0.85269 3.41207 0
M  V30 2003 H 178.889 -2.50103 2.82362 0
M  V30 2004 H 181.276 -2.29664 1.85306 0
M  V30 2005 H 181.357 -0.642492 2.476 0
M  V30 2006 H 181.001 -1.53918 4.84016 0
M  V30 2007 H 180.931 -3.19482 4.18615 0
M  V30 2008 H 183.422 -1.95874 3.23174 0
M  V30 2009 H 183.735 -3.45773 6.9113 0
M  V30 2010 H 182.08 -3.11585 6.21241 0
M  V30 2011 H 185.271 -2.35382 4.04614 0
M  V30 2012 H 185.444 -3.03758 5.72394 0
M  V30 2013 N 178.85 -1.27639 -0.924453 0
M  V30 2014 C 180.099 -1.13549 -1.66702 0
M  V30 2015 C 180.412 0.317487 -1.93006 0
M  V30 2016 O 181.618 0.579333 -2.65247 0
M  V30 2017 C 180.074 -1.98426 -3.00259 0
M  V30 2018 C 179.682 -3.484 -2.81641 0
M  V30 2019 C 181.426 -1.92993 -3.78092 0
M  V30 2020 C 179.333 -4.25464 -4.10773 0
M  V30 2021 H 178.263 -0.421351 -0.625283 0
M  V30 2022 H 180.914 -1.52085 -1.02676 0
M  V30 2023 H 179.296 -1.52736 -3.6536 0
M  V30 2024 H 180.47 -4.01973 -2.25287 0
M  V30 2025 H 178.785 -3.55245 -2.17232 0
M  V30 2026 H 181.382 -2.47844 -4.7379 0
M  V30 2027 H 181.725 -0.904281 -4.0636 0
M  V30 2028 H 182.258 -2.36595 -3.19793 0
M  V30 2029 H 178.997 -5.28566 -3.87683 0
M  V30 2030 H 178.517 -3.76667 -4.66779 0
M  V30 2031 H 180.196 -4.34812 -4.79111 0
M  V30 2032 N 180.328 1.1314 -1.09713 0
M  V30 2033 C 181.278 2.16709 -0.708593 0
M  V30 2034 C 182.262 1.58471 0.278523 0
M  V30 2035 O 183.454 1.76779 0.088427 0
M  V30 2036 C 180.583 3.43039 -0.133923 0
M  V30 2037 C 179.669 4.08277 -1.14763 0
M  V30 2038 N 180.06 4.48637 -2.33577 0
M  V30 2039 C 178.358 4.34954 -0.986446 0
M  V30 2040 C 179.059 4.9952 -2.98085 0
M  V30 2041 N 178.035 4.94561 -2.25632 0
M  V30 2042 H 181.837 2.45672 -1.61315 0
M  V30 2043 H 179.351 1.29967 -0.973775 0
M  V30 2044 H 181.348 4.16583 0.162465 0
M  V30 2045 H 180.008 3.15549 0.765447 0
M  V30 2046 H 181.019 4.41246 -2.7115 0
M  V30 2047 H 177.696 4.17258 -0.142008 0
M  V30 2048 H 179.086 5.40521 -3.99108 0
M  V30 2049 N 181.806 0.884767 1.30421 0
M  V30 2050 C 183.222 0.57874 1.48737 0
M  V30 2051 C 183.422 -0.883567 1.81095 0
M  V30 2052 O 182.478 -1.6648 1.89844 0
M  V30 2053 C 183.791 1.49171 2.61091 0
M  V30 2054 C 185.339 1.49532 2.74971 0
M  V30 2055 C 185.814 2.39421 3.90438 0
M  V30 2056 N 187.305 2.37383 3.97748 0
M  V30 2057 C 188.04 3.03647 4.86401 0
M  V30 2058 N 187.536 3.79136 5.79852 0
M  V30 2059 N 189.329 2.9288 4.79768 0
M  V30 2060 H 181.48 1.83075 1.0769 0
M  V30 2061 H 183.743 0.783637 0.533495 0
M  V30 2062 H 183.449 2.53291 2.44001 0
M  V30 2063 H 183.323 1.20113 3.57565 0
M  V30 2064 H 185.71 0.46163 2.91467 0
M  V30 2065 H 185.791 1.8262 1.79119 0
M  V30 2066 H 185.435 3.42874 3.74699 0
M  V30 2067 H 185.365 2.03649 4.85628 0
M  V30 2068 H 187.856 1.82525 3.30897 0
M  V30 2069 H 188.169 4.26789 6.4426 0
M  V30 2070 H 186.514 3.83243 5.79784 0
M  V30 2071 H 189.705 2.33433 4.05742 0
M  V30 2072 H 189.878 3.448 5.4865 0
M  V30 2073 N 183.284 -1.43765 0.645699 0
M  V30 2074 C 184.214 -2.33471 -0.0370477 0
M  V30 2075 C 185.195 -1.49042 -0.819779 0
M  V30 2076 O 186.38 -1.77726 -0.782758 0
M  V30 2077 C 183.51 -3.32311 -1.0093 0
M  V30 2078 C 182.464 -4.2667 -0.337201 0
M  V30 2079 C 181.79 -5.1549 -1.42037 0
M  V30 2080 C 183.09 -5.16657 0.765706 0
M  V30 2081 H 184.784 -2.90809 0.712069 0
M  V30 2082 H 182.33 -1.39834 0.343876 0
M  V30 2083 H 184.283 -3.9396 -1.49578 0
M  V30 2084 H 183.007 -2.73213 -1.78948 0
M  V30 2085 H 181.666 -3.66374 0.128771 0
M  V30 2086 H 181.314 -4.52735 -2.1918 0
M  V30 2087 H 181.014 -5.79438 -0.975966 0
M  V30 2088 H 182.538 -5.80012 -1.90838 0
M  V30 2089 H 183.952 -5.72158 0.361702 0
M  V30 2090 H 182.349 -5.89286 1.13413 0
M  V30 2091 H 183.419 -4.56796 1.62683 0
M  V30 2092 N 184.763 -0.387143 -1.52771 0
M  V30 2093 C 185.726 0.436939 -2.24997 0
M  V30 2094 C 186.726 0.991991 -1.26555 0
M  V30 2095 O 187.916 0.874335 -1.50669 0
M  V30 2096 C 185.048 1.61281 -3.00335 0
M  V30 2097 H 186.241 -0.195365 -2.99263 0
M  V30 2098 H 183.794 -0.139218 -1.55679 0
M  V30 2099 H 184.529 2.2826 -2.30364 0
M  V30 2100 H 184.314 1.22154 -3.72587 0
M  V30 2101 H 185.804 2.19629 -3.5518 0
M  V30 2102 N 186.241 1.57166 -0.116904 0
M  V30 2103 C 187.657 1.5779 0.239693 0
M  V30 2104 C 187.857 1.1295 1.66867 0
M  V30 2105 O 186.913 0.81592 2.38954 0
M  V30 2106 C 188.226 3.00699 0.00828202 0
M  V30 2107 C 189.774 3.12912 0.0743438 0
M  V30 2108 C 190.249 4.57817 -0.129348 0
M  V30 2109 N 191.74 4.63139 -0.075247 0
M  V30 2110 C 192.475 5.73023 -0.207788 0
M  V30 2111 N 191.971 6.91665 -0.396382 0
M  V30 2112 N 193.764 5.61906 -0.14751 0
M  V30 2113 H 185.915 1.84615 -1.05029 0
M  V30 2114 H 188.178 0.85311 -0.41341 0
M  V30 2115 H 187.884 3.37784 -0.979531 0
M  V30 2116 H 187.758 3.69848 0.741077 0
M  V30 2117 H 190.145 2.75686 1.05268 0
M  V30 2118 H 190.226 2.4631 -0.690297 0
M  V30 2119 H 189.87 4.95742 -1.10465 0
M  V30 2120 H 189.8 5.22507 0.655253 0
M  V30 2121 H 192.291 3.7784 0.0670898 0
M  V30 2122 H 192.604 7.71255 -0.488437 0
M  V30 2123 H 190.949 6.93654 -0.432329 0
M  V30 2124 H 194.14 4.681 -0.00115036 0
M  V30 2125 H 194.313 6.47501 -0.254247 0
M  V30 2126 N 187.719 -0.156864 1.56817 0
M  V30 2127 C 188.949 -0.885031 1.86684 0
M  V30 2128 C 189.357 -1.75696 0.701954 0
M  V30 2129 O 188.7 -1.80569 -0.337732 0
M  V30 2130 C 188.762 -1.80092 3.11138 0
M  V30 2131 C 188.426 -1.10714 4.43386 0
M  V30 2132 C 189.423 -0.465714 5.1781 0
M  V30 2133 C 187.108 -1.09959 4.90117 0
M  V30 2134 C 189.102 0.174002 6.37162 0
M  V30 2135 C 186.789 -0.456055 6.09396 0
M  V30 2136 C 187.787 0.179622 6.82764 0
M  V30 2137 O 187.475 0.812975 7.99779 0
M  V30 2138 H 187.207 -0.261813 0.623242 0
M  V30 2139 H 189.761 -0.157383 2.04796 0
M  V30 2140 H 187.991 -2.56926 2.89009 0
M  V30 2141 H 189.68 -2.40018 3.27332 0
M  V30 2142 H 190.446 -0.463427 4.82781 0
M  V30 2143 H 186.325 -1.58378 4.3294 0
M  V30 2144 H 189.869 0.670765 6.94368 0
M  V30 2145 H 185.766 -0.455975 6.43888 0
M  V30 2146 H 186.534 0.71366 8.15383 0
M  V30 2147 N 189.197 -1.51736 -0.425897 0
M  V30 2148 C 190.427 -1.68549 -1.19476 0
M  V30 2149 C 190.835 -0.387288 -1.85194 0
M  V30 2150 O 190.178 0.645142 -1.71999 0
M  V30 2151 C 190.24 -2.75275 -2.31223 0
M  V30 2152 C 189.904 -4.17534 -1.8578 0
M  V30 2153 C 190.901 -5.01936 -1.35485 0
M  V30 2154 C 188.586 -4.6369 -1.93123 0
M  V30 2155 C 190.58 -6.30559 -0.931347 0
M  V30 2156 C 188.267 -5.92307 -1.50384 0
M  V30 2157 C 189.265 -6.75569 -1.00473 0
M  V30 2158 O 188.953 -8.0178 -0.583452 0
M  V30 2159 H 188.685 -0.568525 -0.365725 0
M  V30 2160 H 191.239 -1.98982 -0.509444 0
M  V30 2161 H 189.469 -2.40182 -3.03067 0
M  V30 2162 H 191.158 -2.80853 -2.93047 0
M  V30 2163 H 191.924 -4.67475 -1.29197 0
M  V30 2164 H 187.803 -3.98997 -2.30916 0
M  V30 2165 H 191.347 -6.95498 -0.541084 0
M  V30 2166 H 187.244 -6.2628 -1.56346 0
M  V30 2167 H 188.012 -8.1543 -0.708275 0
M  V30 2168 N 190.675 0.682077 -1.42076 0
M  V30 2169 C 191.622 1.79578 -1.44984 0
M  V30 2170 C 192.592 1.6332 -0.302614 0
M  V30 2171 O 193.777 1.83978 -0.505633 0
M  V30 2172 C 190.917 3.1756 -1.35091 0
M  V30 2173 C 190.03 3.45156 -2.59791 0
M  V30 2174 C 189.165 4.72826 -2.42093 0
M  V30 2175 C 188.204 4.93433 -3.62202 0
M  V30 2176 N 187.341 6.12338 -3.43491 0
M  V30 2177 H 192.181 1.76427 -2.40161 0
M  V30 2178 H 189.718 0.861376 -1.19242 0
M  V30 2179 H 191.676 3.97287 -1.27354 0
M  V30 2180 H 190.306 3.19854 -0.435133 0
M  V30 2181 H 189.358 2.59736 -2.77923 0
M  V30 2182 H 190.67 3.5628 -3.49094 0
M  V30 2183 H 189.824 5.60631 -2.319 0
M  V30 2184 H 188.563 4.63973 -1.50268 0
M  V30 2185 H 187.568 4.04073 -3.72834 0
M  V30 2186 H 188.793 5.04136 -4.54998 0
M  V30 2187 H 186.739 6.04672 -2.54377 0
M  V30 2188 H 186.656 6.2429 -4.26377 0
M  V30 2189 H 187.924 7.02841 -3.37097 0
M  V30 2190 N 192.153 1.28127 0.917671 0
M  V30 2191 C 193.381 1.17892 1.70026 0
M  V30 2192 C 193.796 -0.262958 1.8696 0
M  V30 2193 O 193.153 -1.17811 1.3938 0
M  V30 2194 C 193.204 1.86872 3.09453 0
M  V30 2195 O 192.925 3.25428 2.93306 0
M  V30 2196 C 194.426 1.8289 4.03815 0
M  V30 2197 H 191.646 0.40942 0.531617 0
M  V30 2198 H 194.19 1.69181 1.14883 0
M  V30 2199 H 192.345 1.39464 3.61426 0
M  V30 2200 H 192.759 3.59918 3.81523 0
M  V30 2201 H 194.233 2.35751 4.99125 0
M  V30 2202 H 194.71 0.800412 4.31845 0
M  V30 2203 H 195.316 2.29959 3.57769 0
M  V30 2204 N 193.631 -1.12557 1.10312 0
M  V30 2205 C 194.578 -2.18247 0.750781 0
M  V30 2206 C 195.548 -1.63853 -0.272293 0
M  V30 2207 O 196.733 -1.90195 -0.151862 0
M  V30 2208 C 193.873 -3.44591 0.187379 0
M  V30 2209 C 192.986 -4.13046 1.2656 0
M  V30 2210 C 192.121 -5.27034 0.663978 0
M  V30 2211 C 191.16 -5.87353 1.72287 0
M  V30 2212 N 190.297 -6.92757 1.1416 0
M  V30 2213 H 195.137 -2.47732 1.65628 0
M  V30 2214 H 192.674 -1.21629 0.827337 0
M  V30 2215 H 194.632 -4.16904 -0.157148 0
M  V30 2216 H 193.262 -3.15527 -0.681355 0
M  V30 2217 H 192.314 -3.38924 1.72727 0
M  V30 2218 H 193.626 -4.53947 2.06721 0
M  V30 2219 H 192.78 -6.06104 0.268824 0
M  V30 2220 H 191.519 -4.87407 -0.169082 0
M  V30 2221 H 190.524 -5.06971 2.12746 0
M  V30 2222 H 191.749 -6.29051 2.55875 0
M  V30 2223 H 189.695 -6.5517 0.329984 0
M  V30 2224 H 189.612 -7.3225 1.88007 0
M  V30 2225 H 190.88 -7.75658 0.772956 0
M  V30 2226 N 195.109 -0.891671 -1.2995 0
M  V30 2227 C 196.525 -0.58662 -1.48428 0
M  V30 2228 C 196.725 0.873951 -1.81561 0
M  V30 2229 O 195.781 1.65471 -1.90724 0
M  V30 2230 C 197.094 -1.50553 -2.60296 0
M  V30 2231 C 198.642 -1.50988 -2.74175 0
M  V30 2232 C 199.117 -2.41488 -3.89163 0
M  V30 2233 N 200.608 -2.39489 -3.96483 0
M  V30 2234 C 201.343 -3.06223 -4.84784 0
M  V30 2235 N 200.839 -3.82206 -5.77833 0
M  V30 2236 N 202.632 -2.95421 -4.78208 0
M  V30 2237 H 194.783 -1.83644 -1.06718 0
M  V30 2238 H 197.046 -0.786455 -0.529332 0
M  V30 2239 H 196.752 -2.54581 -2.42654 0
M  V30 2240 H 196.626 -1.22008 -3.56923 0
M  V30 2241 H 199.013 -0.47708 -2.91218 0
M  V30 2242 H 199.094 -1.83567 -1.78148 0
M  V30 2243 H 198.738 -3.44857 -3.72876 0
M  V30 2244 H 198.668 -2.06222 -4.84541 0
M  V30 2245 H 201.159 -1.84278 -3.29924 0
M  V30 2246 H 201.472 -4.302 -6.41988 0
M  V30 2247 H 199.817 -3.86313 -5.77743 0
M  V30 2248 H 203.008 -2.35581 -4.04499 0
M  V30 2249 H 203.181 -3.47704 -5.46814 0
M  V30 2250 N 196.587 1.43421 -0.653314 0
M  V30 2251 C 197.833 2.02111 -0.166992 0
M  V30 2252 C 198.166 1.51423 1.21592 0
M  V30 2253 O 197.441 0.707389 1.8118 0
M  V30 2254 C 197.724 3.5966 -0.177948 0
M  V30 2255 C 197.577 4.20579 -1.59478 0
M  V30 2256 C 198.896 4.37413 0.4856 0
M  V30 2257 H 196.015 0.734374 -0.0621557 0
M  V30 2258 H 198.657 1.70717 -0.834016 0
M  V30 2259 H 196.807 3.86537 0.390032 0
M  V30 2260 H 198.479 4.04732 -2.21336 0
M  V30 2261 H 196.722 3.77226 -2.14204 0
M  V30 2262 H 197.393 5.29665 -1.5543 0
M  V30 2263 H 199.869 4.161 0.00234528 0
M  V30 2264 H 198.745 5.47075 0.447207 0
M  V30 2265 H 199.006 4.13672 1.55974 0
M  V30 2266 N 198.065 0.39524 1.52563 0
M  V30 2267 C 198.995 -0.428384 2.29537 0
M  V30 2268 C 199.976 -1.05831 1.33169 0
M  V30 2269 O 201.161 -1.06995 1.62067 0
M  V30 2270 C 198.291 -1.55274 3.10656 0
M  V30 2271 C 197.245 -1.04855 4.14957 0
M  V30 2272 C 196.571 -2.26543 4.84337 0
M  V30 2273 C 197.871 -0.112324 5.22179 0
M  V30 2274 H 199.565 0.213867 2.98635 0
M  V30 2275 H 197.111 0.104298 1.43622 0
M  V30 2276 H 199.064 -2.1358 3.63265 0
M  V30 2277 H 197.788 -2.22266 2.39302 0
M  V30 2278 H 196.447 -0.487985 3.63338 0
M  V30 2279 H 196.095 -2.92059 4.09525 0
M  V30 2280 H 195.795 -1.93466 5.54837 0
M  V30 2281 H 197.319 -2.85481 5.39753 0
M  V30 2282 H 198.733 -0.603752 5.70112 0
M  V30 2283 H 197.13 0.128968 5.99961 0
M  V30 2284 H 198.2 0.837052 4.77621 0
M  V30 2285 N 199.544 -1.57102 0.125237 0
M  V30 2286 C 200.955 -1.82384 -0.399142 0
M  V30 2287 C 201.306 -1.04276 -1.66195 0
M  V30 2288 O 200.431 -0.281269 -2.14564 0
M  V30 2289 C 201.026 -3.30821 -0.730932 0
M  V30 2290 C 199.585 -3.56762 -1.19992 0
M  V30 2291 C 198.732 -2.7649 -0.211792 0
M  V30 2292 H 201.683 -1.54786 0.350277 0
M  V30 2293 H 201.704 -3.4579 -1.58775 0
M  V30 2294 H 201.216 -3.87643 0.188345 0
M  V30 2295 H 199.317 -3.05305 -2.13588 0
M  V30 2296 H 199.43 -4.65317 -1.14093 0
M  V30 2297 H 197.794 -2.4489 -0.700085 0
M  V30 2298 H 198.577 -3.36073 0.700691 0
M  V30 2299 N 201.022 0.148545 -1.56898 0
M  V30 2300 C 202.433 0.708766 -1.72723 0
M  V30 2301 C 202.784 1.81734 -0.739395 0
M  V30 2302 O 201.909 2.16194 0.0943169 0
M  V30 2303 C 202.504 1.29245 -3.13179 0
M  V30 2304 C 201.063 1.79925 -3.30611 0
M  V30 2305 C 200.21 0.687111 -2.68652 0
M  V30 2306 H 203.161 -0.0771063 -1.58513 0
M  V30 2307 H 203.182 2.16224 -3.13093 0
M  V30 2308 H 202.694 0.485382 -3.85053 0
M  V30 2309 H 200.795 2.63203 -2.63732 0
M  V30 2310 H 200.908 1.92903 -4.38549 0
M  V30 2311 H 199.272 1.11335 -2.29078 0
M  V30 2312 H 200.055 -0.108483 -3.43129 0
M  V30 2313 N 202.5 1.5196 0.417844 0
M  V30 2314 C 203.448 1.75278 1.52907 0
M  V30 2315 C 204.442 0.619611 1.57662 0
M  V30 2316 O 205.648 0.801457 1.61173 0
M  V30 2317 H 202.023 0.554141 0.508362 0
M  V30 2318 H 203.994 2.68389 1.30422 0
M  V30 2319 C 202.743 1.91262 2.90369 0
M  V30 2320 H 202.066 2.77872 2.8745 0
M  V30 2321 H 203.506 2.11581 3.67436 0
M  V30 2322 C 201.965 0.677431 3.30019 0
M  V30 2323 O 202.495 -0.158799 4.01386 0
M  V30 2324 N 200.701 0.515851 2.85985 0
M  V30 2325 H 200.248 1.19744 2.28077 0
M  V30 2326 H 200.206 -0.309315 3.12875 0
M  V30 2327 N 203.978 -0.674533 1.42435 0
M  V30 2328 C 205.224 -1.43521 1.4413 0
M  V30 2329 C 205.579 -1.92316 0.0567773 0
M  V30 2330 O 204.872 -1.68008 -0.921076 0
M  V30 2331 C 205.066 -2.64767 2.40069 0
M  V30 2332 C 204.895 -2.27836 3.87713 0
M  V30 2333 C 203.665 -2.17183 4.56245 0
M  V30 2334 C 205.863 -1.89466 4.78129 0
M  V30 2335 N 203.845 -1.73358 5.88915 0
M  V30 2336 C 205.216 -1.56561 5.99907 0
M  V30 2337 C 207.271 -1.7646 4.65582 0
M  V30 2338 C 205.974 -1.11957 7.10534 0
M  V30 2339 C 208 -1.3326 5.76191 0
M  V30 2340 C 207.362 -1.0128 6.97081 0
M  V30 2341 H 203.461 -0.521656 0.582579 0
M  V30 2342 H 206.045 -0.778381 1.78464 0
M  V30 2343 H 204.216 -3.28139 2.07796 0
M  V30 2344 H 205.948 -3.3136 2.32342 0
M  V30 2345 H 202.703 -2.3626 4.10461 0
M  V30 2346 H 203.127 -1.53867 6.59283 0
M  V30 2347 H 207.769 -1.99831 3.72595 0
M  V30 2348 H 205.487 -0.873318 8.03367 0
M  V30 2349 H 209.073 -1.23717 5.68494 0
M  V30 2350 H 207.953 -0.683597 7.81215 0
M  V30 2351 N 205.456 -1.28612 -0.910864 0
M  V30 2352 C 206.403 -1.12786 -2.01365 0
M  V30 2353 C 207.373 -0.024201 -1.66082 0
M  V30 2354 O 208.558 -0.189667 -1.89855 0
M  V30 2355 C 205.698 -0.798743 -3.35729 0
M  V30 2356 C 204.811 -1.98173 -3.83864 0
M  V30 2357 C 203.946 -1.59298 -5.06752 0
M  V30 2358 C 202.985 -2.74245 -5.47226 0
M  V30 2359 N 202.122 -2.35842 -6.61304 0
M  V30 2360 H 206.962 -2.07142 -2.14234 0
M  V30 2361 H 204.499 -1.03093 -1.0493 0
M  V30 2362 H 206.457 -0.588662 -4.13026 0
M  V30 2363 H 205.087 0.10789 -3.2262 0
M  V30 2364 H 204.139 -2.30386 -3.02699 0
M  V30 2365 H 205.451 -2.84343 -4.09818 0
M  V30 2366 H 204.605 -1.34513 -5.916 0
M  V30 2367 H 203.344 -0.702618 -4.82612 0
M  V30 2368 H 202.349 -2.99725 -4.60918 0
M  V30 2369 H 203.574 -3.63928 -5.73353 0
M  V30 2370 H 201.52 -1.49279 -6.38789 0
M  V30 2371 H 201.437 -3.15546 -6.86998 0
M  V30 2372 H 202.705 -2.14348 -7.4945 0
M  V30 2373 N 206.934 1.1197 -1.10907 0
M  V30 2374 C 208.164 1.8713 -0.875553 0
M  V30 2375 C 208.572 1.8016 0.577843 0
M  V30 2376 O 207.915 1.17699 1.41042 0
M  V30 2377 C 207.977 3.37005 -1.2517 0
M  V30 2378 C 207.641 3.67748 -2.71313 0
M  V30 2379 C 208.638 3.65698 -3.69542 0
M  V30 2380 C 206.323 3.96928 -3.07821 0
M  V30 2381 C 208.317 3.92395 -5.023 0
M  V30 2382 C 206.004 4.23284 -4.40765 0
M  V30 2383 C 207.002 4.21005 -5.37814 0
M  V30 2384 O 206.69 4.46704 -6.68364 0
M  V30 2385 H 206.422 0.598786 -0.313737 0
M  V30 2386 H 208.976 1.42568 -1.47863 0
M  V30 2387 H 207.206 3.82146 -0.591741 0
M  V30 2388 H 208.895 3.93519 -0.994877 0
M  V30 2389 H 209.661 3.43211 -3.42682 0
M  V30 2390 H 205.54 3.97841 -2.32902 0
M  V30 2391 H 209.084 3.90531 -5.78041 0
M  V30 2392 H 204.981 4.45246 -4.67361 0
M  V30 2393 H 205.749 4.64299 -6.74069 0
M  V30 2394 N 208.412 0.89855 1.29475 0
M  V30 2395 C 209.322 0.379974 2.31502 0
M  V30 2396 C 210.338 -0.524695 1.659 0
M  V30 2397 O 211.514 -0.414551 1.97087 0
M  V30 2398 C 208.579 -0.385138 3.44554 0
M  V30 2399 C 207.64 0.550914 4.2575 0
M  V30 2400 C 206.873 -0.177778 5.33404 0
M  V30 2401 O 207.096 -1.40189 5.52904 0
M  V30 2402 O 206.03 0.479106 5.9999 0
M  V30 2403 H 209.856 1.22639 2.77837 0
M  V30 2404 H 207.441 0.662834 1.33891 0
M  V30 2405 H 209.323 -0.817841 4.13388 0
M  V30 2406 H 207.998 -1.20763 3.0033 0
M  V30 2407 H 206.905 1.03271 3.59564 0
M  V30 2408 H 208.238 1.33979 4.73614 0
M  V30 2409 N 209.89 -1.43072 0.660911 0
M  V30 2410 C 211.115 -2.06584 0.183805 0
M  V30 2411 C 211.54 -1.49257 -1.14472 0
M  V30 2412 O 210.898 -0.605528 -1.70889 0
M  V30 2413 C 210.946 -3.60418 0.114434 0
M  V30 2414 O 210.05 -4.01981 -0.921137 0
M  V30 2415 H 209.391 -0.656669 0.0983994 0
M  V30 2416 H 211.921 -1.83447 0.906006 0
M  V30 2417 H 211.931 -4.07946 -0.0663394 0
M  V30 2418 H 210.606 -4.01519 1.08422 0
M  V30 2419 H 209.183 -3.66029 -0.71253 0
M  V30 2420 N 211.368 -0.403325 -1.52352 0
M  V30 2421 C 212.593 0.176499 -2.06648 0
M  V30 2422 C 213.018 1.38577 -1.27193 0
M  V30 2423 O 212.376 1.7879 -0.300637 0
M  V30 2424 C 212.424 0.511061 -3.5696 0
M  V30 2425 O 211.528 1.60294 -3.79973 0
M  V30 2426 H 210.869 0.0167337 -0.663789 0
M  V30 2427 H 213.399 -0.574848 -1.96359 0
M  V30 2428 H 213.409 0.771362 -4.00642 0
M  V30 2429 H 212.084 -0.37296 -4.14224 0
M  V30 2430 H 210.661 1.33526 -3.48174 0
M  V30 2431 N 212.846 1.57033 -0.133567 0
M  V30 2432 C 214.074 2.00044 0.528195 0
M  V30 2433 C 214.489 1.01349 1.59291 0
M  V30 2434 O 213.846 0.00848369 1.82498 0
M  V30 2435 C 213.897 3.43018 1.1411 0
M  V30 2436 O 213.618 4.37939 0.11892 0
M  V30 2437 C 215.119 4.01237 1.88477 0
M  V30 2438 H 212.339 0.656517 0.138661 0
M  V30 2439 H 214.883 2.03267 -0.224196 0
M  V30 2440 H 213.038 3.40688 1.84418 0
M  V30 2441 H 213.452 5.21436 0.56613 0
M  V30 2442 H 214.926 5.03314 2.26669 0
M  V30 2443 H 215.403 3.41193 2.76558 0
M  V30 2444 H 216.009 4.07156 1.22898 0
M  V30 2445 N 214.325 -0.140222 1.56975 0
M  V30 2446 C 215.288 -1.15689 1.97861 0
M  V30 2447 C 216.288 -1.3549 0.865974 0
M  V30 2448 O 217.478 -1.32367 1.13246 0
M  V30 2449 C 214.61 -2.51582 2.30042 0
M  V30 2450 H 215.803 -0.805971 2.88867 0
M  V30 2451 H 213.356 -0.383801 1.51515 0
M  V30 2452 H 214.091 -2.91632 1.41849 0
M  V30 2453 H 213.876 -2.38569 3.11171 0
M  V30 2454 H 215.366 -3.24792 2.62488 0
M  V30 2455 N 215.803 -1.52179 -0.40978 0
M  V30 2456 C 217.028 -1.70347 -1.18308 0
M  V30 2457 C 217.453 -0.411887 -1.83535 0
M  V30 2458 O 216.811 0.630587 -1.6998 0
M  V30 2459 C 216.859 -2.83977 -2.22238 0
M  V30 2460 O 215.963 -2.495 -3.28365 0
M  V30 2461 H 215.304 -0.567103 -0.345384 0
M  V30 2462 H 217.834 -1.98879 -0.480445 0
M  V30 2463 H 217.844 -3.0887 -2.66577 0
M  V30 2464 H 216.519 -3.77685 -1.74146 0
M  V30 2465 H 215.096 -2.35277 -2.89308 0
M  V30 2466 N 217.281 0.66697 -1.42791 0
M  V30 2467 C 218.244 1.76211 -1.46568 0
M  V30 2468 C 219.244 1.56896 -0.352196 0
M  V30 2469 O 220.434 1.63044 -0.613364 0
M  V30 2470 C 217.566 3.14935 -1.30494 0
M  V30 2471 H 218.759 1.74247 -2.44086 0
M  V30 2472 H 216.312 0.877342 -1.29354 0
M  V30 2473 H 217.047 3.2252 -0.339301 0
M  V30 2474 H 216.832 3.30359 -2.11199 0
M  V30 2475 H 218.322 3.94821 -1.36038 0
M  V30 2476 N 218.759 1.29093 0.90403 0
M  V30 2477 C 219.689 1.16401 2.02418 0
M  V30 2478 C 220.67 0.0593085 1.69997 0
M  V30 2479 O 221.855 0.238021 1.92736 0
M  V30 2480 C 218.985 0.835233 3.37107 0
M  V30 2481 C 217.939 1.89578 3.83724 0
M  V30 2482 C 217.265 1.42041 5.15489 0
M  V30 2483 C 218.565 3.30394 4.04521 0
M  V30 2484 H 220.259 2.10109 2.13295 0
M  V30 2485 H 217.805 1.01157 1.02486 0
M  V30 2486 H 219.758 0.733169 4.14973 0
M  V30 2487 H 218.482 -0.137543 3.2631 0
M  V30 2488 H 217.141 1.98715 3.08071 0
M  V30 2489 H 216.789 0.436426 5.01103 0
M  V30 2490 H 216.489 2.12964 5.4765 0
M  V30 2491 H 218.013 1.33176 5.959 0
M  V30 2492 H 219.427 3.24123 4.72882 0
M  V30 2493 H 217.824 3.99237 4.48029 0
M  V30 2494 H 218.894 3.73692 3.09002 0
M  V30 2495 N 220.237 -1.11381 1.11499 0
M  V30 2496 C 221.483 -1.83403 0.865512 0
M  V30 2497 C 221.816 -1.84459 -0.607329 0
M  V30 2498 O 221.091 -1.29811 -1.44842 0
M  V30 2499 C 221.374 -3.30552 1.42855 0
M  V30 2500 C 221.227 -3.37886 2.96906 0
M  V30 2501 C 222.546 -4.26643 1.08 0
M  V30 2502 H 219.665 -0.665879 0.31587 0
M  V30 2503 H 222.307 -1.30601 1.37998 0
M  V30 2504 H 220.457 -3.75648 0.990985 0
M  V30 2505 H 222.129 -3.01343 3.49271 0
M  V30 2506 H 220.372 -2.78088 3.32941 0
M  V30 2507 H 221.043 -4.41458 3.31389 0
M  V30 2508 H 223.519 -3.89729 1.45775 0
M  V30 2509 H 222.395 -5.27986 1.50072 0
M  V30 2510 H 222.656 -4.42099 -0.00915037 0
M  V30 2511 N 221.715 -0.905404 -1.28997 0
M  V30 2512 C 222.678 -0.392253 -2.25819 0
M  V30 2513 C 223.678 0.476753 -1.5357 0
M  V30 2514 O 224.868 0.280994 -1.71919 0
M  V30 2515 C 222 0.438588 -3.38067 0
M  V30 2516 H 223.193 -1.24743 -2.72725 0
M  V30 2517 H 220.746 -0.684051 -1.40536 0
M  V30 2518 H 221.481 1.31352 -2.96508 0
M  V30 2519 H 221.266 -0.184167 -3.91667 0
M  V30 2520 H 222.756 0.78873 -4.10084 0
M  V30 2521 O 223.232 1.39848 -0.807758 0
M  V30 2522 H 223.923 1.89847 -0.38441 0
M  V30 END ATOM
M  V30 BEGIN BOND
M  V30 END BOND
M  V30 END CTAB
M  END
$$$$
