drugbank_target|P10253 Lysosomal alpha-glucosidase (DB00284; DB00491; DB05200)
 OpenBabel12092119423D

  0  0  0     0  0            999 V3000
M  V30 BEGIN CTAB
M  V30 COUNTS 14670 14897 0 0 0
M  V30 BEGIN ATOM
M  V30 1 H -0.908 1.98254 -0.117106 0
M  V30 2 N 0 1.576 0 0
M  V30 3 C 0.933 2.03868 1.02534 0
M  V30 4 C 1.911 0.928543 1.3348 0
M  V30 5 O 3.095 1.19667 1.45644 0
M  V30 6 C 0.222 2.43627 2.35294 0
M  V30 7 C -0.732 3.65373 2.2001 0
M  V30 8 S 0.101 5.13292 1.52614 0
M  V30 9 C 1.257 5.56322 2.86805 0
M  V30 10 H 1.49 2.90518 0.631377 0
M  V30 11 H -0.977 1.52953 0.210867 0
M  V30 12 H 0.981 2.67203 3.11629 0
M  V30 13 H -0.358 1.57376 2.7183 0
M  V30 14 H -1.165 3.90944 3.18086 0
M  V30 15 H -1.563 3.418 1.51819 0
M  V30 16 H 0.729 5.58782 3.83104 0
M  V30 17 H 1.672 6.56266 2.65933 0
M  V30 18 H 2.08 4.83886 2.90714 0
M  V30 19 N 1.4781 -0.272755 1.55222 0
M  V30 20 C 2.7261 -1.00234 1.75492 0
M  V30 21 C 3.0471 -1.8681 0.5592 0
M  V30 22 O 2.3171 -1.91215 -0.425882 0
M  V30 23 H 0.8971 -0.373076 0.647166 0
M  V30 24 H 3.5591 -0.296926 1.92625 0
M  V30 25 H 2.6551 -1.63913 2.65592 0
M  V30 26 N 2.9562 -1.48159 -0.537278 0
M  V30 27 C 4.2022 -1.56035 -1.29541 0
M  V30 28 C 4.5352 -0.230377 -1.92829 0
M  V30 29 O 3.8102 0.762952 -1.78911 0
M  V30 30 C 4.0932 -2.69323 -2.39034 0
M  V30 31 C 3.9462 -4.12002 -1.80485 0
M  V30 32 C 5.2652 -2.78408 -3.40847 0
M  V30 33 H 2.3842 -0.567992 -0.469632 0
M  V30 34 H 5.0262 -1.80302 -0.599277 0
M  V30 35 H 3.1762 -2.48763 -2.98412 0
M  V30 36 H 4.8482 -4.43981 -1.25215 0
M  V30 37 H 3.0912 -4.19344 -1.11055 0
M  V30 38 H 3.7622 -4.87077 -2.59731 0
M  V30 39 H 6.2382 -2.97012 -2.91416 0
M  V30 40 H 5.1142 -3.59416 -4.14863 0
M  V30 41 H 5.3752 -1.86269 -4.00944 0
M  V30 42 N 4.4343 0.785586 -1.36625 0
M  V30 43 C 5.8503 1.08419 -1.17122 0
M  V30 44 C 6.0503 2.015 0.00208491 0
M  V30 45 O 5.1063 2.43551 0.666278 0
M  V30 46 C 6.4193 1.69498 -2.48377 0
M  V30 47 C 7.9673 1.81821 -2.54775 0
M  V30 48 C 8.4423 2.46315 -3.86126 0
M  V30 49 N 9.9333 2.53779 -3.87492 0
M  V30 50 C 10.6683 3.045 -4.85868 0
M  V30 51 N 10.1643 3.55499 -5.94637 0
M  V30 52 N 11.9573 3.03247 -4.73284 0
M  V30 53 H 4.1083 0.167264 -2.1174 0
M  V30 54 H 6.3713 0.13682 -0.938075 0
M  V30 55 H 6.0773 1.08571 -3.34522 0
M  V30 56 H 5.9513 2.6896 -2.64462 0
M  V30 57 H 8.3383 2.41884 -1.69045 0
M  V30 58 H 8.4193 0.811532 -2.42586 0
M  V30 59 H 8.0633 1.86895 -4.72263 0
M  V30 60 H 7.9933 3.47561 -3.95612 0
M  V30 61 H 10.4843 2.17672 -3.08913 0
M  V30 62 H 10.7973 3.92562 -6.65669 0
M  V30 63 H 9.1423 3.5364 -5.98301 0
M  V30 64 H 12.3333 2.62696 -3.87438 0
M  V30 65 H 12.5063 3.42467 -5.50109 0
M  V30 66 N 5.9124 1.20967 1.01018 0
M  V30 67 C 6.8624 0.93182 2.08089 0
M  V30 68 C 7.8464 -0.110898 1.60517 0
M  V30 69 O 9.0384 0.0973392 1.76732 0
M  V30 70 C 6.1674 0.492719 3.39746 0
M  V30 71 C 5.2534 1.56922 3.94 0
M  V30 72 N 5.6444 2.79312 4.21686 0
M  V30 73 C 3.9424 1.43688 4.2222 0
M  V30 74 C 4.6434 3.48797 4.65527 0
M  V30 75 N 3.6194 2.76224 4.68189 0
M  V30 76 H 7.4214 1.86175 2.27412 0
M  V30 77 H 4.9354 1.10463 1.19045 0
M  V30 78 H 6.9324 0.275044 4.15992 0
M  V30 79 H 5.5924 -0.430509 3.21833 0
M  V30 80 H 6.6034 3.15903 4.10397 0
M  V30 81 H 3.2804 0.578548 4.13472 0
M  V30 82 H 4.6704 4.53561 4.95714 0
M  V30 83 N 7.3905 -1.2043 1.01659 0
M  V30 84 C 8.8015 -1.71517 0.737482 0
M  V30 85 C 9.1525 -1.81547 -0.743973 0
M  V30 86 O 8.2775 -1.47803 -1.58061 0
M  V30 87 C 8.8725 -3.11515 1.33206 0
M  V30 88 C 7.4315 -3.59912 1.10183 0
M  V30 89 C 6.5785 -2.37116 1.43776 0
M  V30 90 H 9.5295 -1.05444 1.18606 0
M  V30 91 H 9.5505 -3.73575 0.722636 0
M  V30 92 H 9.0625 -3.04182 2.41028 0
M  V30 93 H 7.1635 -3.72577 0.0412756 0
M  V30 94 H 7.2765 -4.44731 1.78188 0
M  V30 95 H 5.6405 -2.39857 0.856778 0
M  V30 96 H 6.4235 -2.32424 2.52654 0
M  V30 97 N 8.8686 -0.792821 -1.36206 0
M  V30 98 C 10.2796 -0.429513 -1.81692 0
M  V30 99 C 10.6306 1.04695 -1.65932 0
M  V30 100 O 9.7556 1.81256 -1.18218 0
M  V30 101 C 10.3506 -0.772831 -3.29868 0
M  V30 102 C 8.9096 -0.462307 -3.7355 0
M  V30 103 C 8.0566 -1.00569 -2.5842 0
M  V30 104 H 11.0076 -0.985672 -1.24379 0
M  V30 105 H 11.0286 -0.0651928 -3.80444 0
M  V30 106 H 10.5406 -1.84747 -3.41307 0
M  V30 107 H 8.6416 0.604158 -3.67669 0
M  V30 108 H 8.7546 -0.985299 -4.68859 0
M  V30 109 H 7.1186 -0.428734 -2.51066 0
M  V30 110 H 7.9016 -2.08616 -2.72643 0
M  V30 111 N 10.3467 1.47872 -0.545128 0
M  V30 112 C 11.5867 2.04391 -0.0187854 0
M  V30 113 C 11.9507 1.41162 1.30144 0
M  V30 114 O 13.1517 1.88656 1.91474 0
M  V30 115 C 11.4227 3.57299 0.0850867 0
M  V30 116 S 12.9817 4.35221 0.559302 0
M  V30 117 H 9.7997 0.710737 -0.0193301 0
M  V30 118 H 12.4017 1.81395 -0.729125 0
M  V30 119 H 11.1057 4.00847 -0.880351 0
M  V30 120 H 10.6367 3.84773 0.819348 0
M  V30 121 H 12.6517 4.61571 1.82118 0
M  V30 122 N 11.8248 0.280983 1.55075 0
M  V30 123 C 13.0498 -0.340154 2.04592 0
M  V30 124 C 13.4748 -1.48246 1.15779 0
M  V30 125 O 12.8328 -1.80614 0.15761 0
M  V30 126 C 12.8808 -0.793104 3.5177 0
M  V30 127 O 11.9848 -1.89981 3.66034 0
M  V30 128 H 11.3258 -0.0694289 0.66036 0
M  V30 129 H 13.8558 0.416993 2.00306 0
M  V30 130 H 13.8658 -1.08729 3.93245 0
M  V30 131 H 12.5408 0.0426163 4.15878 0
M  V30 132 H 11.1178 -1.60771 3.36463 0
M  V30 133 N 13.3029 -1.57598 0.00835791 0
M  V30 134 C 14.2529 -2.05431 -0.989045 0
M  V30 135 C 15.2369 -0.950662 -1.29812 0
M  V30 136 O 16.4289 -1.21438 -1.28771 0
M  V30 137 C 13.5579 -2.56801 -2.27833 0
M  V30 138 C 12.6439 -3.74058 -1.99853 0
M  V30 139 N 13.0349 -4.8544 -1.42062 0
M  V30 140 C 11.3329 -3.82148 -2.29953 0
M  V30 141 C 12.0339 -5.66817 -1.30743 0
M  V30 142 N 11.0099 -5.13077 -1.7959 0
M  V30 143 H 14.8119 -2.88955 -0.536853 0
M  V30 144 H 12.3259 -1.61199 -0.197148 0
M  V30 145 H 14.3229 -2.89349 -3.00137 0
M  V30 146 H 12.9829 -1.74699 -2.73698 0
M  V30 147 H 13.9939 -5.0612 -1.09833 0
M  V30 148 H 10.6709 -3.10916 -2.78635 0
M  V30 149 H 12.0609 -6.66343 -0.862328 0
M  V30 150 N 14.781 0.264519 -1.55364 0
M  V30 151 C 16.197 0.61215 -1.47394 0
M  V30 152 C 16.397 1.89134 -0.695018 0
M  V30 153 O 15.453 2.51563 -0.217275 0
M  V30 154 C 16.766 0.731235 -2.91674 0
M  V30 155 C 18.314 0.82473 -3.01939 0
M  V30 156 C 18.789 0.975522 -4.4749 0
M  V30 157 N 20.28 1.04083 -4.51354 0
M  V30 158 C 21.015 1.17646 -5.61201 0
M  V30 159 N 20.511 1.27874 -6.80896 0
M  V30 160 N 22.304 1.20823 -5.48961 0
M  V30 161 H 14.455 -0.575456 -2.04456 0
M  V30 162 H 16.718 -0.196099 -0.927496 0
M  V30 163 H 16.424 -0.138392 -3.51428 0
M  V30 164 H 16.298 1.60883 -3.41169 0
M  V30 165 H 18.685 1.68482 -2.42276 0
M  V30 166 H 18.766 -0.0776479 -2.55682 0
M  V30 167 H 18.41 0.120058 -5.07758 0
M  V30 168 H 18.34 1.89268 -4.91412 0
M  V30 169 H 20.831 0.973846 -3.65136 0
M  V30 170 H 21.144 1.38081 -7.60364 0
M  V30 171 H 19.489 1.24863 -6.83692 0
M  V30 172 H 22.68 1.12469 -4.54388 0
M  V30 173 H 22.853 1.31049 -6.3461 0
M  V30 174 N 16.2591 1.48442 0.529413 0
M  V30 175 C 17.1891 1.65902 1.64313 0
M  V30 176 C 18.1701 0.507897 1.6234 0
M  V30 177 O 19.3551 0.740503 1.79528 0
M  V30 178 C 16.4851 1.69911 3.02898 0
M  V30 179 C 15.4391 2.8453 3.19729 0
M  V30 180 C 14.7651 2.73629 4.59381 0
M  V30 181 C 16.0651 4.25821 3.02447 0
M  V30 182 H 17.7591 2.5914 1.49955 0
M  V30 183 H 15.3051 1.24709 0.719982 0
M  V30 184 H 17.2581 1.80715 3.80684 0
M  V30 185 H 15.9821 0.732524 3.18279 0
M  V30 186 H 14.6411 2.73283 2.44361 0
M  V30 187 H 14.2891 1.74938 4.71599 0
M  V30 188 H 13.9891 3.50541 4.71588 0
M  V30 189 H 15.5131 2.86401 5.39265 0
M  V30 190 H 16.9271 4.37898 3.70024 0
M  V30 191 H 15.3241 5.03735 3.26146 0
M  V30 192 H 16.3941 4.42244 1.98867 0
M  V30 193 N 17.7372 -0.778329 1.37039 0
M  V30 194 C 18.6672 -1.90546 1.34962 0
M  V30 195 C 19.6482 -1.68681 0.219274 0
M  V30 196 O 20.8332 -1.89634 0.418624 0
M  V30 197 C 17.9632 -3.27734 1.14925 0
M  V30 198 C 16.9172 -3.64147 2.24902 0
M  V30 199 C 16.2432 -4.99806 1.89996 0
M  V30 200 C 17.5432 -3.71579 3.67051 0
M  V30 201 H 19.2372 -1.92541 2.29277 0
M  V30 202 H 16.7832 -0.924948 1.10366 0
M  V30 203 H 18.7362 -4.06215 1.12104 0
M  V30 204 H 17.4602 -3.26154 0.170631 0
M  V30 205 H 16.1192 -2.8797 2.26868 0
M  V30 206 H 15.7672 -4.94759 0.906796 0
M  V30 207 H 15.4672 -5.25139 2.63634 0
M  V30 208 H 16.9912 -5.80694 1.88749 0
M  V30 209 H 18.4052 -4.40227 3.67251 0
M  V30 210 H 16.8022 -4.08405 4.39688 0
M  V30 211 H 17.8722 -2.72404 4.01154 0
M  V30 212 N 19.2153 -1.21501 -1.00376 0
M  V30 213 C 20.1783 -0.976927 -2.07337 0
M  V30 214 C 21.1783 0.0525322 -1.60714 0
M  V30 215 O 22.3683 -0.184869 -1.73216 0
M  V30 216 C 19.5003 -0.473423 -3.37597 0
M  V30 217 H 20.6933 -1.92587 -2.29892 0
M  V30 218 H 18.2463 -1.03217 -1.17371 0
M  V30 219 H 18.9813 0.480379 -3.20722 0
M  V30 220 H 18.7663 -1.216 -3.72768 0
M  V30 221 H 20.2563 -0.32675 -4.1632 0
M  V30 222 N 20.6934 1.19889 -1.02296 0
M  V30 223 C 21.9394 1.89701 -0.717033 0
M  V30 224 C 22.2724 1.7905 0.751989 0
M  V30 225 O 21.5474 1.17891 1.547 0
M  V30 226 C 21.8304 3.40858 -1.16136 0
M  V30 227 C 21.6834 3.60411 -2.69117 0
M  V30 228 C 23.0024 4.33876 -0.737549 0
M  V30 229 H 20.1214 0.688874 -0.261957 0
M  V30 230 H 22.7634 1.41154 -1.27183 0
M  V30 231 H 20.9134 3.82335 -0.689342 0
M  V30 232 H 22.5854 3.28145 -3.2422 0
M  V30 233 H 20.8284 3.03665 -3.0979 0
M  V30 234 H 21.4994 4.66396 -2.95261 0
M  V30 235 H 23.9754 4.00081 -1.14344 0
M  V30 236 H 22.8514 5.38242 -1.0764 0
M  V30 237 H 23.1124 4.40628 0.360436 0
M  V30 238 N 22.1715 0.800033 1.35784 0
M  V30 239 C 23.4115 0.382891 2.00782 0
M  V30 240 C 23.7755 -1.02891 1.62103 0
M  V30 241 O 24.9765 -1.54771 2.19771 0
M  V30 242 C 23.2475 0.553299 3.53091 0
M  V30 243 S 24.8065 0.225608 4.3822 0
M  V30 244 H 21.6245 0.145737 0.695904 0
M  V30 245 H 24.2265 1.04085 1.65489 0
M  V30 246 H 22.9305 1.58091 3.78729 0
M  V30 247 H 22.4615 -0.120214 3.93216 0
M  V30 248 H 24.4765 -0.969074 4.86645 0
M  V30 249 N 23.6496 -1.47581 0.552962 0
M  V30 250 C 24.6126 -2.28439 -0.186605 0
M  V30 251 C 25.6126 -1.36706 -0.84665 0
M  V30 252 O 26.8026 -1.59378 -0.703164 0
M  V30 253 C 23.9346 -3.16264 -1.2724 0
M  V30 254 H 25.1276 -2.95294 0.523609 0
M  V30 255 H 22.6806 -1.532 0.309745 0
M  V30 256 H 23.4156 -2.54091 -2.01514 0
M  V30 257 H 23.2006 -3.83769 -0.803968 0
M  V30 258 H 24.6906 -3.77198 -1.79196 0
M  V30 259 N 25.1277 -0.289203 -1.54924 0
M  V30 260 C 26.0577 0.58549 -2.2604 0
M  V30 261 C 27.0387 1.14753 -1.25562 0
M  V30 262 O 28.2237 1.17906 -1.54311 0
M  V30 263 C 25.3537 1.76305 -2.99222 0
M  V30 264 C 24.3077 1.33191 -4.06748 0
M  V30 265 C 23.6337 2.5937 -4.6758 0
M  V30 266 C 24.9337 0.471775 -5.20165 0
M  V30 267 H 26.6277 -0.00763532 -2.99399 0
M  V30 268 H 24.1737 -0.00511229 -1.43999 0
M  V30 269 H 26.1267 2.38097 -3.47689 0
M  V30 270 H 24.8507 2.38223 -2.23422 0
M  V30 271 H 23.5097 0.737121 -3.59113 0
M  V30 272 H 23.1577 3.19576 -3.88433 0
M  V30 273 H 22.8577 2.31228 -5.40192 0
M  V30 274 H 24.3817 3.21985 -5.18804 0
M  V30 275 H 25.7957 0.995056 -5.64599 0
M  V30 276 H 24.1927 0.284639 -5.99425 0
M  V30 277 H 25.2627 -0.506041 -4.82252 0
M  V30 278 N 26.6058 1.57591 -0.0167156 0
M  V30 279 C 27.8518 1.91567 0.665582 0
M  V30 280 C 28.1848 0.892298 1.72487 0
M  V30 281 O 27.4598 -0.0867127 1.94307 0
M  V30 282 C 27.7428 3.36069 1.29342 0
M  V30 283 C 27.5958 4.49135 0.244541 0
M  V30 284 C 28.9148 3.803 2.21495 0
M  V30 285 H 26.0338 0.69666 0.240488 0
M  V30 286 H 28.6758 1.89866 -0.0714356 0
M  V30 287 H 26.8258 3.3765 1.92158 0
M  V30 288 H 28.4978 4.59689 -0.385228 0
M  V30 289 H 26.7408 4.3165 -0.431379 0
M  V30 290 H 27.4118 5.47242 0.723207 0
M  V30 291 H 29.8878 3.80377 1.68678 0
M  V30 292 H 28.7638 4.82127 2.62382 0
M  V30 293 H 29.0248 3.15104 3.101 0
M  V30 294 N 28.0839 -0.256276 1.55502 0
M  V30 295 C 29.3089 -1.00766 1.81276 0
M  V30 296 C 29.7339 -1.78524 0.59252 0
M  V30 297 O 29.0919 -1.75413 -0.45827 0
M  V30 298 C 29.1399 -1.92869 3.04687 0
M  V30 299 O 28.2439 -3.019 2.80945 0
M  V30 300 H 27.5849 -0.287224 0.598664 0
M  V30 301 H 30.1149 -0.280109 2.02674 0
M  V30 302 H 30.1249 -2.34511 3.33869 0
M  V30 303 H 28.7999 -1.35689 3.93143 0
M  V30 304 H 27.3769 -2.64454 2.62904 0
M  V30 305 N 29.562 -1.4872 -0.521534 0
M  V30 306 C 30.492 -1.66771 -1.63431 0
M  V30 307 C 31.473 -0.516499 -1.62069 0
M  V30 308 O 32.658 -0.750013 -1.79132 0
M  V30 309 C 29.788 -1.71515 -3.01993 0
M  V30 310 C 28.742 -2.86222 -3.18216 0
M  V30 311 C 28.068 -2.76061 -4.57924 0
M  V30 312 C 29.368 -4.27419 -3.00184 0
M  V30 313 H 31.062 -2.59932 -1.48579 0
M  V30 314 H 28.608 -1.25089 -0.713358 0
M  V30 315 H 30.561 -1.82731 -3.7972 0
M  V30 316 H 29.285 -0.749393 -3.17886 0
M  V30 317 H 27.944 -2.74575 -2.42908 0
M  V30 318 H 27.592 -1.77437 -4.70665 0
M  V30 319 H 27.292 -3.53037 -4.69722 0
M  V30 320 H 28.816 -2.89256 -5.37739 0
M  V30 321 H 30.23 -4.39855 -3.67697 0
M  V30 322 H 28.627 -5.05458 -3.2347 0
M  V30 323 H 29.697 -4.43293 -1.96518 0
M  V30 324 N 31.0401 0.771051 -1.3745 0
M  V30 325 C 32.0031 1.86598 -1.33093 0
M  V30 326 C 33.0031 1.59076 -0.234845 0
M  V30 327 O 34.1931 1.67145 -0.490732 0
M  V30 328 C 31.3251 3.23747 -1.06773 0
M  V30 329 H 32.5181 1.91873 -2.30488 0
M  V30 330 H 30.0711 0.970876 -1.2249 0
M  V30 331 H 30.8061 3.24148 -0.099129 0
M  V30 332 H 30.5911 3.45115 -1.86112 0
M  V30 333 H 32.0811 4.03824 -1.06377 0
M  V30 334 N 32.5182 1.22032 0.997298 0
M  V30 335 C 33.7462 1.06841 1.7718 0
M  V30 336 C 34.1612 -0.381325 1.84909 0
M  V30 337 O 33.5182 -1.26437 1.31605 0
M  V30 338 C 33.5692 1.66814 3.20711 0
M  V30 339 O 33.2902 3.06116 3.13408 0
M  V30 340 C 34.7912 1.56838 4.14628 0
M  V30 341 H 32.0112 0.374782 0.556578 0
M  V30 342 H 34.5552 1.61532 1.2541 0
M  V30 343 H 32.7102 1.16196 3.69564 0
M  V30 344 H 33.1242 3.34926 4.0364 0
M  V30 345 H 34.5982 2.03532 5.13107 0
M  V30 346 H 35.0752 0.524155 4.36061 0
M  V30 347 H 35.6812 2.06741 3.7167 0
M  V30 348 N 33.9963 -1.19345 1.0293 0
M  V30 349 C 34.9593 -2.20793 0.615069 0
M  V30 350 C 35.9593 -1.57553 -0.321533 0
M  V30 351 O 37.1493 -1.73862 -0.108483 0
M  V30 352 C 34.2813 -3.40754 -0.0999222 0
M  V30 353 H 35.4743 -2.58955 1.51269 0
M  V30 354 H 33.0273 -1.3303 0.820534 0
M  V30 355 H 33.7623 -3.0811 -1.01187 0
M  V30 356 H 33.5473 -3.87889 0.57309 0
M  V30 357 H 35.0373 -4.15898 -0.376645 0
M  V30 358 N 35.4744 -0.807222 -1.35358 0
M  V30 359 C 36.4374 -0.223665 -2.28106 0
M  V30 360 C 37.4374 0.589354 -1.4961 0
M  V30 361 O 38.6274 0.407745 -1.69361 0
M  V30 362 C 35.7594 0.688149 -3.33882 0
M  V30 363 H 36.9524 -1.04169 -2.81227 0
M  V30 364 H 34.5054 -0.577921 -1.45223 0
M  V30 365 H 35.2404 1.52984 -2.85948 0
M  V30 366 H 35.0254 0.10687 -3.91954 0
M  V30 367 H 36.5154 1.09075 -4.03104 0
M  V30 368 N 36.9525 1.47285 -0.560781 0
M  V30 369 C 37.8825 2.32857 0.173105 0
M  V30 370 C 38.8635 1.44009 0.905281 0
M  V30 371 O 40.0485 1.7286 0.885046 0
M  V30 372 C 37.1785 3.25861 1.20133 0
M  V30 373 C 36.1325 4.23978 0.585388 0
M  V30 374 C 35.4585 5.06332 1.7185 0
M  V30 375 C 36.7585 5.20242 -0.463178 0
M  V30 376 H 38.4525 2.94466 -0.541307 0
M  V30 377 H 35.9985 1.41601 -0.261764 0
M  V30 378 H 37.9515 3.84569 1.72293 0
M  V30 379 H 36.6755 2.62315 1.94573 0
M  V30 380 H 35.3345 3.66501 0.085054 0
M  V30 381 H 34.9825 4.39186 2.45203 0
M  V30 382 H 34.6825 5.72762 1.31213 0
M  V30 383 H 36.2065 5.67899 2.24329 0
M  V30 384 H 37.6205 5.73293 -0.027502 0
M  V30 385 H 36.0175 5.94896 -0.788627 0
M  V30 386 H 37.0875 4.65504 -1.35773 0
M  V30 387 N 38.4306 0.297415 1.54768 0
M  V30 388 C 39.3606 -0.573494 2.26348 0
M  V30 389 C 40.3416 -1.14085 1.26169 0
M  V30 390 O 41.5266 -1.17086 1.54934 0
M  V30 391 C 38.6566 -1.74716 3.00153 0
M  V30 392 C 37.6106 -1.31032 4.07449 0
M  V30 393 C 36.9366 -2.56887 4.68949 0
M  V30 394 C 38.2366 -0.444183 5.20408 0
M  V30 395 H 39.9306 0.0235131 2.99391 0
M  V30 396 H 37.4766 0.0127488 1.43994 0
M  V30 397 H 39.4296 -2.3625 3.48947 0
M  V30 398 H 38.1536 -2.37035 2.24682 0
M  V30 399 H 36.8126 -0.718066 3.59499 0
M  V30 400 H 36.4606 -3.17512 3.90122 0
M  V30 401 H 36.1606 -2.2836 5.41411 0
M  V30 402 H 37.6846 -3.19229 5.20505 0
M  V30 403 H 39.0986 -0.9651 5.65118 0
M  V30 404 H 37.4956 -0.252846 5.99567 0
M  V30 405 H 38.5656 0.531609 4.81977 0
M  V30 406 N 39.9087 -1.5758 0.0250728 0
M  V30 407 C 41.1567 -1.91255 -0.653151 0
M  V30 408 C 41.4777 -0.901691 -1.729 0
M  V30 409 O 40.7477 0.0573785 -1.95816 0
M  V30 410 H 39.3277 -0.705942 -0.244243 0
M  V30 411 H 41.9897 -1.94767 0.0719209 0
M  V30 412 H 41.0857 -2.91752 -1.10847 0
M  V30 413 N 41.3868 0.248026 -1.55636 0
M  V30 414 C 42.3368 1.30994 -1.86614 0
M  V30 415 C 43.3208 1.43543 -0.726918 0
M  V30 416 O 44.5128 1.46804 -0.988818 0
M  V30 417 C 41.6418 2.6656 -2.16335 0
M  V30 418 C 40.7278 2.58019 -3.36581 0
M  V30 419 N 41.1188 2.1911 -4.55878 0
M  V30 420 C 39.4168 2.89035 -3.39669 0
M  V30 421 C 40.1178 2.21174 -5.38012 0
M  V30 422 N 39.0938 2.60632 -4.77045 0
M  V30 423 H 42.8958 0.999583 -2.76379 0
M  V30 424 H 40.4098 0.456652 -1.55848 0
M  V30 425 H 42.4068 3.43194 -2.36692 0
M  V30 426 H 41.0668 2.98463 -1.27867 0
M  V30 427 H 42.0778 1.90672 -4.81523 0
M  V30 428 H 38.7548 3.25485 -2.61469 0
M  V30 429 H 40.1448 1.9344 -6.43452 0
M  V30 430 N 42.8649 1.48995 0.513639 0
M  V30 431 C 44.1139 1.57093 1.2651 0
M  V30 432 C 44.4269 0.257091 1.93903 0
M  V30 433 O 45.6329 0.216478 2.70636 0
M  V30 434 C 44.0889 2.77118 2.29638 0
M  V30 435 C 43.6969 4.15209 1.68241 0
M  V30 436 C 45.4409 2.94538 3.05692 0
M  V30 437 C 43.3479 5.26474 2.69406 0
M  V30 438 H 42.2779 0.584876 0.475854 0
M  V30 439 H 44.9289 1.7536 0.540487 0
M  V30 440 H 43.3109 2.52319 3.05207 0
M  V30 441 H 44.4849 4.50094 0.987505 0
M  V30 442 H 42.7999 4.03042 1.04623 0
M  V30 443 H 45.3969 3.74832 3.8132 0
M  V30 444 H 45.7399 2.04614 3.62545 0
M  V30 445 H 46.2729 3.19316 2.37238 0
M  V30 446 H 43.0119 6.18417 2.17351 0
M  V30 447 H 42.5319 4.96058 3.37175 0
M  V30 448 H 44.2109 5.55277 3.32078 0
M  V30 449 N 44.343 -0.763751 1.37857 0
M  V30 450 C 45.273 -1.89103 1.36975 0
M  V30 451 C 46.254 -1.68439 0.237152 0
M  V30 452 O 47.439 -1.8918 0.438713 0
M  V30 453 C 44.569 -3.26496 1.18395 0
M  V30 454 C 43.523 -3.61741 2.28751 0
M  V30 455 C 42.849 -4.97762 1.95286 0
M  V30 456 C 44.149 -3.67665 3.70972 0
M  V30 457 H 45.843 -1.90099 2.31307 0
M  V30 458 H 43.389 -0.91319 1.11341 0
M  V30 459 H 45.342 -4.05003 1.16406 0
M  V30 460 H 44.066 -3.25955 0.205215 0
M  V30 461 H 42.725 -2.85547 2.29909 0
M  V30 462 H 42.373 -4.93769 0.959221 0
M  V30 463 H 42.073 -5.22313 2.69189 0
M  V30 464 H 43.597 -5.7866 1.94898 0
M  V30 465 H 45.011 -4.36307 3.719 0
M  V30 466 H 43.408 -4.03718 4.43995 0
M  V30 467 H 44.478 -2.68134 4.0402 0
M  V30 468 N 45.8211 -1.22559 -0.990812 0
M  V30 469 C 46.7511 -1.0218 -2.09956 0
M  V30 470 C 47.7321 0.0579394 -1.70001 0
M  V30 471 O 48.9171 -0.104684 -1.93918 0
M  V30 472 C 46.0471 -0.601023 -3.4206 0
M  V30 473 C 45.0011 -1.62694 -3.95872 0
M  V30 474 C 44.3271 -1.06193 -5.24049 0
M  V30 475 C 45.6271 -3.01743 -4.2632 0
M  V30 476 H 47.3211 -1.94916 -2.27262 0
M  V30 477 H 44.8671 -0.938566 -1.09211 0
M  V30 478 H 46.8201 -0.445561 -4.19038 0
M  V30 479 H 45.5441 0.362005 -3.24588 0
M  V30 480 H 44.2031 -1.77021 -3.21028 0
M  V30 481 H 43.8511 -0.0901903 -5.02919 0
M  V30 482 H 43.5511 -1.74732 -5.61019 0
M  V30 483 H 45.0751 -0.918092 -6.03658 0
M  V30 484 H 46.4891 -2.90777 -4.94087 0
M  V30 485 H 44.8861 -3.67425 -4.74467 0
M  V30 486 H 45.9561 -3.51518 -3.34011 0
M  V30 487 N 47.2992 1.18797 -1.03562 0
M  V30 488 C 48.2492 2.20161 -0.592724 0
M  V30 489 C 49.2332 1.56772 0.362133 0
M  V30 490 O 50.4252 1.76062 0.182009 0
M  V30 491 C 47.5542 3.43266 0.0481024 0
M  V30 492 C 46.6402 4.13786 -0.9296 0
M  V30 493 N 47.0312 4.60388 -2.09467 0
M  V30 494 C 45.3292 4.39572 -0.754499 0
M  V30 495 C 46.0302 5.14619 -2.71187 0
M  V30 496 N 45.0062 5.05826 -1.991 0
M  V30 497 H 48.8082 2.53877 -1.48066 0
M  V30 498 H 46.3222 1.34946 -0.903514 0
M  V30 499 H 48.3192 4.15136 0.383058 0
M  V30 500 H 46.9792 3.11048 0.931636 0
M  V30 501 H 47.9902 4.54999 -2.47379 0
M  V30 502 H 44.6672 4.17425 0.0793713 0
M  V30 503 H 46.0572 5.60917 -3.69895 0
M  V30 504 N 48.7773 0.814389 1.34928 0
M  V30 505 C 50.0543 0.321363 1.92942 0
M  V30 506 C 50.4343 -1.19014 1.74353 0
M  V30 507 O 49.7823 -1.99328 1.11716 0
M  V30 508 C 49.9923 0.741323 3.41036 0
M  V30 509 C 51.3403 0.735266 4.18185 0
M  V30 510 O 52.3643 0.68336 3.49584 0
M  V30 511 O 51.2233 0.800703 5.40602 0
M  V30 512 H 48.3173 0.0858893 0.822528 0
M  V30 513 H 50.8633 0.898609 1.43955 0
M  V30 514 H 49.6353 1.78276 3.4833 0
M  V30 515 H 49.2583 0.139307 3.97356 0
M  V30 516 N 50.2554 -1.46986 0.568584 0
M  V30 517 C 51.5024 -2.02441 0.0487986 0
M  V30 518 C 51.8304 -1.44169 -1.30559 0
M  V30 519 O 51.0854 -0.591213 -1.86556 0
M  V30 520 C 51.3844 -3.57306 -0.081836 0
M  V30 521 C 51.0504 -4.34552 1.20313 0
M  V30 522 C 49.7124 -4.55376 1.5552 0
M  V30 523 C 52.0644 -4.79016 2.05411 0
M  V30 524 C 49.3924 -5.17913 2.7565 0
M  V30 525 C 51.7444 -5.42879 3.24754 0
M  V30 526 C 50.4084 -5.61933 3.60261 0
M  V30 527 H 49.6784 -0.740785 0.0178567 0
M  V30 528 H 52.3254 -1.76525 0.742384 0
M  V30 529 H 50.6304 -3.8228 -0.858463 0
M  V30 530 H 52.3274 -3.97876 -0.499546 0
M  V30 531 H 48.9174 -4.18631 0.919014 0
M  V30 532 H 53.1014 -4.62696 1.79516 0
M  V30 533 H 48.3574 -5.30858 3.03315 0
M  V30 534 H 52.5314 -5.76293 3.90973 0
M  V30 535 H 50.1584 -6.10161 4.53439 0
M  V30 536 N 51.7335 -0.305618 -1.54608 0
M  V30 537 C 52.6635 0.561482 -2.26649 0
M  V30 538 C 53.6445 1.13415 -1.26772 0
M  V30 539 O 54.8295 1.16262 -1.55553 0
M  V30 540 C 51.9595 1.73122 -3.01075 0
M  V30 541 C 50.9135 1.2887 -4.08138 0
M  V30 542 C 50.2395 2.54396 -4.70305 0
M  V30 543 C 51.5395 0.416578 -5.20636 0
M  V30 544 H 53.2335 -0.0393902 -2.99374 0
M  V30 545 H 50.7795 -0.020385 -1.43986 0
M  V30 546 H 52.7325 2.34396 -3.50195 0
M  V30 547 H 51.4565 2.3584 -2.25936 0
M  V30 548 H 50.1155 0.698991 -3.59875 0
M  V30 549 H 49.7635 3.15439 -3.918 0
M  V30 550 H 49.4635 2.25486 -5.42614 0
M  V30 551 H 50.9875 3.16464 -5.2219 0
M  V30 552 H 52.4015 0.935116 -5.65622 0
M  V30 553 H 50.7985 0.221046 -5.99693 0
M  V30 554 H 51.8685 -0.557162 -4.81688 0
M  V30 555 N 53.2116 1.57565 -0.0334293 0
M  V30 556 C 54.1416 2.13511 0.945265 0
M  V30 557 C 55.1226 1.05231 1.33643 0
M  V30 558 O 56.3076 1.33084 1.41429 0
M  V30 559 C 53.4376 2.6657 2.22616 0
M  V30 560 C 52.3916 3.79676 1.97561 0
M  V30 561 C 51.7176 4.1918 3.31952 0
M  V30 562 C 53.0176 5.0557 1.31135 0
M  V30 563 H 54.7116 2.95538 0.479325 0
M  V30 564 H 52.2576 1.42166 0.229115 0
M  V30 565 H 54.2106 3.04344 2.91466 0
M  V30 566 H 52.9346 1.8171 2.71384 0
M  V30 567 H 51.5936 3.42347 1.31127 0
M  V30 568 H 51.2416 3.31296 3.78487 0
M  V30 569 H 50.9416 4.95402 3.15992 0
M  V30 570 H 52.4656 4.59541 4.02063 0
M  V30 571 H 53.8796 5.40903 1.89992 0
M  V30 572 H 52.2766 5.86818 1.25559 0
M  V30 573 H 53.3466 4.84062 0.284894 0
M  V30 574 N 54.6897 -0.239769 1.55765 0
M  V30 575 C 55.9357 -0.968234 1.78194 0
M  V30 576 C 56.2687 -1.84701 0.599938 0
M  V30 577 O 55.5437 -1.9031 -0.401524 0
M  V30 578 C 55.8267 -1.8227 3.10564 0
M  V30 579 C 55.6797 -0.971633 4.3918 0
M  V30 580 C 56.9987 -2.80388 3.39221 0
M  V30 581 H 54.1177 -0.350572 0.648281 0
M  V30 582 H 56.7597 -0.238259 1.885 0
M  V30 583 H 54.9097 -2.44507 3.01908 0
M  V30 584 H 56.5817 -0.367408 4.59835 0
M  V30 585 H 54.8247 -0.276276 4.32919 0
M  V30 586 H 55.4957 -1.60346 5.28198 0
M  V30 587 H 57.9717 -2.28287 3.47885 0
M  V30 588 H 56.8477 -3.3729 4.33044 0
M  V30 589 H 57.1087 -3.57212 2.60484 0
M  V30 590 N 56.1678 -1.49265 -0.50573 0
M  V30 591 C 57.5788 -1.51769 -1.08734 0
M  V30 592 C 57.9298 -0.301192 -1.93874 0
M  V30 593 O 57.0548 0.589456 -2.08217 0
M  V30 594 C 57.6498 -2.75017 -1.97867 0
M  V30 595 C 56.2088 -2.80314 -2.51199 0
M  V30 596 C 55.3558 -2.4562 -1.28709 0
M  V30 597 H 58.3068 -1.56031 -0.289855 0
M  V30 598 H 58.3278 -2.5491 -2.82491 0
M  V30 599 H 57.8398 -3.63539 -1.35873 0
M  V30 600 H 55.9408 -1.96061 -3.16845 0
M  V30 601 H 56.0538 -3.82366 -2.88675 0
M  V30 602 H 54.4178 -1.97297 -1.61078 0
M  V30 603 H 55.2008 -3.36411 -0.6843 0
M  V30 604 N 57.6459 0.756429 -1.3826 0
M  V30 605 C 59.0619 1.0591 -1.19395 0
M  V30 606 C 59.2619 2.01459 -0.0406567 0
M  V30 607 O 58.3179 2.44909 0.614467 0
M  V30 608 C 59.6309 1.64191 -2.51916 0
M  V30 609 C 61.1789 1.76376 -2.58574 0
M  V30 610 C 61.6539 2.38069 -3.91264 0
M  V30 611 N 63.1449 2.45503 -3.92788 0
M  V30 612 C 63.8799 2.94126 -4.92217 0
M  V30 613 N 63.3759 3.42805 -6.02043 0
M  V30 614 N 65.1689 2.9314 -4.7961 0
M  V30 615 H 57.3199 0.122313 -2.12048 0
M  V30 616 H 59.5829 0.116892 -0.940766 0
M  V30 617 H 59.2889 1.01451 -3.3675 0
M  V30 618 H 59.1629 2.6329 -2.70108 0
M  V30 619 H 61.5499 2.38244 -1.74137 0
M  V30 620 H 61.6309 0.759894 -2.44252 0
M  V30 621 H 61.2749 1.76835 -4.76121 0
M  V30 622 H 61.2049 3.39091 -4.02895 0
M  V30 623 H 63.6959 2.1107 -3.13461 0
M  V30 624 H 64.0089 3.78354 -6.73846 0
M  V30 625 H 62.3539 3.4087 -6.05667 0
M  V30 626 H 65.5449 2.54419 -3.92923 0
M  V30 627 H 65.7179 3.30721 -5.5725 0
M  V30 628 N 59.124 1.23083 0.984299 0
M  V30 629 C 60.034 1.02515 2.11016 0
M  V30 630 C 61.05 -0.0291702 1.73976 0
M  V30 631 O 62.226 0.165434 2.00719 0
M  V30 632 C 59.291 0.614673 3.41208 0
M  V30 633 C 58.352 1.74359 3.92297 0
M  V30 634 C 57.585 1.35261 5.16275 0
M  V30 635 O 57.808 0.235136 5.69915 0
M  V30 636 O 56.742 2.17227 5.61334 0
M  V30 637 H 60.568 1.96862 2.31255 0
M  V30 638 H 58.153 1.01753 1.09392 0
M  V30 639 H 60.035 0.396518 4.1953 0
M  V30 640 H 58.71 -0.299851 3.22308 0
M  V30 641 H 57.617 2.01635 3.1511 0
M  V30 642 H 58.95 2.63629 4.15645 0
M  V30 643 N 60.6021 -1.18246 1.0419 0
M  V30 644 C 61.5321 -2.24127 0.654914 0
M  V30 645 C 62.5131 -1.66617 -0.342451 0
M  V30 646 O 63.6981 -1.92924 -0.222277 0
M  V30 647 C 60.8281 -3.47295 0.0183757 0
M  V30 648 C 59.7821 -4.17563 0.939414 0
M  V30 649 C 59.1081 -5.34438 0.167286 0
M  V30 650 C 60.4081 -4.70917 2.25908 0
M  V30 651 H 62.1021 -2.56753 1.54007 0
M  V30 652 H 59.6481 -1.23414 0.74195 0
M  V30 653 H 61.6011 -4.20572 -0.264082 0
M  V30 654 H 60.3251 -3.13907 -0.901664 0
M  V30 655 H 58.9841 -3.46186 1.20628 0
M  V30 656 H 58.6321 -4.97298 -0.7552 0
M  V30 657 H 58.3321 -5.82388 0.780901 0
M  V30 658 H 59.8561 -6.10504 -0.108125 0
M  V30 659 H 61.2701 -5.35882 2.03724 0
M  V30 660 H 59.6671 -5.29406 2.82577 0
M  V30 661 H 60.7371 -3.88272 2.9047 0
M  V30 662 N 62.0802 -0.821533 -1.34494 0
M  V30 663 C 63.3052 -0.420873 -2.03085 0
M  V30 664 C 63.7302 0.964915 -1.61465 0
M  V30 665 O 63.0882 1.62763 -0.798607 0
M  V30 666 C 63.1362 -0.529414 -3.56693 0
M  V30 667 O 62.2402 0.451302 -4.09923 0
M  V30 668 H 61.5812 -0.173489 -0.640935 0
M  V30 669 H 64.1112 -1.11157 -1.71771 0
M  V30 670 H 64.1212 -0.404671 -4.05988 0
M  V30 671 H 62.7962 -1.54014 -3.86332 0
M  V30 672 H 61.3732 0.285558 -3.71805 0
M  V30 673 N 63.5583 1.46682 -0.576371 0
M  V30 674 C 64.8063 2.02013 -0.0594163 0
M  V30 675 C 65.1273 1.45101 1.30271 0
M  V30 676 O 64.3973 0.633317 1.8538 0
M  V30 677 H 62.9773 0.746759 -0.0189745 0
M  V30 678 H 65.6393 1.79862 -0.750717 0
M  V30 679 H 64.7353 3.12097 0.014345 0
M  V30 680 N 65.0364 0.313813 1.54444 0
M  V30 681 C 66.2614 -0.296681 2.05267 0
M  V30 682 C 66.6864 -1.45757 1.18897 0
M  V30 683 O 66.0444 -1.80239 0.195886 0
M  V30 684 C 66.0924 -0.71831 3.53373 0
M  V30 685 O 65.1964 -1.82175 3.69981 0
M  V30 686 H 64.5374 -0.0554061 0.661684 0
M  V30 687 H 67.0674 0.459387 1.99376 0
M  V30 688 H 67.0774 -1.00364 3.95463 0
M  V30 689 H 65.7524 0.130821 4.15694 0
M  V30 690 H 64.3294 -1.53598 3.39797 0
M  V30 691 N 66.5145 -1.57545 0.0417849 0
M  V30 692 C 67.7395 -1.97035 -0.647455 0
M  V30 693 C 68.1645 -0.918775 -1.64135 0
M  V30 694 O 67.5225 0.119006 -1.80909 0
M  V30 695 C 67.5705 -3.35609 -1.31905 0
M  V30 696 O 66.6745 -3.3287 -2.43457 0
M  V30 697 H 66.0155 -0.64211 -0.169086 0
M  V30 698 H 68.5455 -2.04318 0.107399 0
M  V30 699 H 68.5555 -3.72126 -1.67291 0
M  V30 700 H 67.2305 -4.11685 -0.590586 0
M  V30 701 H 65.8075 -3.08087 -2.10088 0
M  V30 702 N 67.9926 0.231505 -1.5589 0
M  V30 703 C 69.4036 0.799327 -1.68724 0
M  V30 704 C 69.7546 1.85398 -0.642022 0
M  V30 705 O 68.8796 2.1539 0.208784 0
M  V30 706 C 69.4746 1.45664 -3.05888 0
M  V30 707 C 68.0336 1.97197 -3.20609 0
M  V30 708 C 67.1806 0.828552 -2.64632 0
M  V30 709 H 70.1316 0.00702616 -1.58698 0
M  V30 710 H 70.1526 2.32517 -3.01191 0
M  V30 711 H 69.6646 0.688808 -3.81939 0
M  V30 712 H 67.7656 2.76813 -2.4941 0
M  V30 713 H 67.8786 2.15878 -4.27707 0
M  V30 714 H 66.2426 1.23321 -2.22854 0
M  V30 715 H 67.0256 0.0735544 -3.43221 0
M  V30 716 N 69.4707 1.49531 0.497807 0
M  V30 717 C 70.7167 1.59415 1.25358 0
M  V30 718 C 71.0497 0.281422 1.9215 0
M  V30 719 O 70.3247 -0.715249 1.80871 0
M  V30 720 C 70.6077 2.75566 2.3181 0
M  V30 721 C 70.4607 4.16642 1.69498 0
M  V30 722 C 71.7797 2.87347 3.33346 0
M  V30 723 H 68.8987 0.580244 0.454408 0
M  V30 724 H 71.5407 1.81827 0.551262 0
M  V30 725 H 69.6907 2.56587 2.91711 0
M  V30 726 H 71.3627 4.47145 1.13399 0
M  V30 727 H 69.6057 4.22141 0.998978 0
M  V30 728 H 70.2767 4.93792 2.46725 0
M  V30 729 H 72.7527 3.04634 2.83438 0
M  V30 730 H 71.6287 3.70289 4.05188 0
M  V30 731 H 71.8897 1.96834 3.95865 0
M  V30 732 N 70.9488 -0.749086 1.3866 0
M  V30 733 C 71.8788 -1.8764 1.38973 0
M  V30 734 C 72.8598 -1.68178 0.255004 0
M  V30 735 O 74.0448 -1.88704 0.458754 0
M  V30 736 C 71.1748 -3.25222 1.21851 0
M  V30 737 C 70.1288 -3.59295 2.32575 0
M  V30 738 C 69.4548 -4.95663 2.00555 0
M  V30 739 C 70.7548 -3.63709 3.7485 0
M  V30 740 H 72.4488 -1.87635 2.3331 0
M  V30 741 H 69.9948 -0.901329 1.12303 0
M  V30 742 H 71.9478 -4.03746 1.20695 0
M  V30 743 H 70.6718 -3.25719 0.239775 0
M  V30 744 H 69.3308 -2.83093 2.32925 0
M  V30 745 H 68.9788 -4.92724 1.01154 0
M  V30 746 H 68.6788 -5.19429 2.74714 0
M  V30 747 H 70.2028 -5.7656 2.01024 0
M  V30 748 H 71.6168 -4.32338 3.76506 0
M  V30 749 H 70.0138 -3.98986 4.48252 0
M  V30 750 H 71.0838 -2.63834 4.06841 0
M  V30 751 N 72.4269 -1.23603 -0.977757 0
M  V30 752 C 73.3369 -1.03632 -2.1047 0
M  V30 753 C 74.3529 0.0199435 -1.73989 0
M  V30 754 O 75.5289 -0.176076 -2.00629 0
M  V30 755 C 72.5939 -0.63276 -3.40877 0
M  V30 756 C 71.6549 -1.76437 -3.91367 0
M  V30 757 C 70.8879 -1.37997 -5.15551 0
M  V30 758 O 71.1109 -0.265357 -5.69782 0
M  V30 759 O 70.0449 -2.20201 -5.60174 0
M  V30 760 H 73.8709 -1.98086 -2.30208 0
M  V30 761 H 71.4559 -1.02332 -1.08851 0
M  V30 762 H 73.3379 -0.418761 -4.19314 0
M  V30 763 H 72.0129 0.282754 -3.22463 0
M  V30 764 H 70.9199 -2.03304 -3.14036 0
M  V30 765 H 72.2529 -2.6583 -4.14241 0
M  V30 766 N 73.905 1.17692 -1.04816 0
M  V30 767 C 74.815 2.25229 -0.65643 0
M  V30 768 C 75.831 1.71018 0.320761 0
M  V30 769 O 77.007 2.00649 0.173805 0
M  V30 770 C 74.072 3.46684 -0.0332629 0
M  V30 771 C 73.133 4.15997 -1.06042 0
M  V30 772 C 72.366 5.31654 -0.466893 0
M  V30 773 O 72.589 5.65777 0.724758 0
M  V30 774 O 71.523 5.89831 -1.1993 0
M  V30 775 H 75.349 2.61016 -1.55255 0
M  V30 776 H 72.934 1.24919 -0.81949 0
M  V30 777 H 74.816 4.20234 0.313256 0
M  V30 778 H 73.491 3.12703 0.836566 0
M  V30 779 H 72.398 3.44482 -1.45886 0
M  V30 780 H 73.731 4.53996 -1.90127 0
M  V30 781 N 75.3831 0.828654 1.34056 0
M  V30 782 C 76.6111 0.43262 2.02326 0
M  V30 783 C 77.0261 -0.963147 1.62385 0
M  V30 784 O 76.3831 -1.62425 0.832121 0
M  V30 785 C 76.4341 0.53182 3.57567 0
M  V30 786 O 76.1551 1.87258 3.96063 0
M  V30 787 C 77.6561 0.131422 4.43105 0
M  V30 788 H 74.8761 0.172923 0.648335 0
M  V30 789 H 77.4201 1.1184 1.71208 0
M  V30 790 H 75.5751 -0.105938 3.87255 0
M  V30 791 H 75.9891 1.85087 4.90758 0
M  V30 792 H 77.4631 0.251904 5.51425 0
M  V30 793 H 77.9401 -0.925645 4.29335 0
M  V30 794 H 78.5461 0.743207 4.18756 0
M  V30 795 N 76.8612 -1.46375 0.584142 0
M  V30 796 C 77.8112 -2.27371 -0.169232 0
M  V30 797 C 78.7952 -1.35955 -0.860523 0
M  V30 798 O 79.9872 -1.60119 -0.754382 0
M  V30 799 C 77.1162 -3.22334 -1.18134 0
M  V30 800 C 76.2022 -4.21235 -0.492088 0
M  V30 801 N 76.5932 -5.03766 0.453129 0
M  V30 802 C 74.8912 -4.39773 -0.742652 0
M  V30 803 C 75.5922 -5.75366 0.85609 0
M  V30 804 N 74.5682 -5.43214 0.204926 0
M  V30 805 H 78.3702 -2.88572 0.557097 0
M  V30 806 H 75.8842 -1.57242 0.406042 0
M  V30 807 H 77.8812 -3.79071 -1.73525 0
M  V30 808 H 76.5412 -2.62693 -1.90847 0
M  V30 809 H 77.5522 -5.11227 0.828723 0
M  V30 810 H 74.2292 -3.91279 -1.45625 0
M  V30 811 H 75.6192 -6.5172 1.63434 0
M  V30 812 N 78.3393 -0.321999 -1.54275 0
M  V30 813 C 79.7503 0.166384 -1.85957 0
M  V30 814 C 80.1013 1.51747 -1.24367 0
M  V30 815 O 79.2263 2.09317 -0.549124 0
M  V30 816 C 79.8213 0.308681 -3.37391 0
M  V30 817 C 78.3803 0.741286 -3.69028 0
M  V30 818 C 77.5273 -0.137937 -2.76957 0
M  V30 819 H 80.4783 -0.542335 -1.49146 0
M  V30 820 H 80.4993 1.13984 -3.63026 0
M  V30 821 H 80.0113 -0.674809 -3.82188 0
M  V30 822 H 78.1123 1.73458 -3.29762 0
M  V30 823 H 78.2253 0.546118 -4.75977 0
M  V30 824 H 76.5893 0.386251 -2.51754 0
M  V30 825 H 77.3723 -1.11816 -3.2458 0
M  V30 826 N 79.8174 1.5752 -0.0501392 0
M  V30 827 C 80.7804 2.1037 0.909786 0
M  V30 828 C 81.7804 1.02308 1.24056 0
M  V30 829 O 82.9704 1.28385 1.17741 0
M  V30 830 C 80.1024 2.58708 2.21998 0
M  V30 831 H 81.2954 2.96479 0.451665 0
M  V30 832 H 78.8484 1.55038 0.198248 0
M  V30 833 H 79.5834 1.75989 2.72394 0
M  V30 834 H 79.3684 3.37675 1.99295 0
M  V30 835 H 80.8584 2.99747 2.9076 0
M  V30 836 N 81.2955 -0.223234 1.56011 0
M  V30 837 C 82.2455 -1.28008 1.88674 0
M  V30 838 C 83.2295 -1.42369 0.749663 0
M  V30 839 O 84.4215 -1.45212 1.01205 0
M  V30 840 C 81.5505 -2.63084 2.20548 0
M  V30 841 C 80.6365 -2.52632 3.40643 0
M  V30 842 N 81.0275 -2.11829 4.59306 0
M  V30 843 C 79.3255 -2.83594 3.44224 0
M  V30 844 C 80.0265 -2.12587 5.41463 0
M  V30 845 N 79.0025 -2.5301 4.81131 0
M  V30 846 H 82.8045 -0.955487 2.77935 0
M  V30 847 H 80.3185 -0.431801 1.56554 0
M  V30 848 H 82.3155 -3.39385 2.42122 0
M  V30 849 H 80.9755 -2.96391 1.32599 0
M  V30 850 H 81.9865 -1.82988 4.84496 0
M  V30 851 H 78.6635 -3.21284 2.66614 0
M  V30 852 H 80.0535 -1.83179 6.46448 0
M  V30 853 N 82.7736 -1.49793 -0.48987 0
M  V30 854 C 83.7056 -1.63413 -1.60713 0
M  V30 855 C 84.7186 -0.516329 -1.54395 0
M  V30 856 O 85.9076 -0.788812 -1.60125 0
M  V30 857 C 83.0076 -1.58516 -2.99543 0
M  V30 858 C 82.1806 -2.86016 -3.30928 0
M  V30 859 C 81.2396 -2.74018 -4.49222 0
M  V30 860 O 80.2656 -3.47964 -4.50455 0
M  V30 861 N 81.4676 -1.86309 -5.4979 0
M  V30 862 H 84.2326 -2.59777 -1.49452 0
M  V30 863 H 81.7936 -1.47022 -0.677955 0
M  V30 864 H 83.7856 -1.48128 -3.76617 0
M  V30 865 H 82.3556 -0.69965 -3.0467 0
M  V30 866 H 81.5756 -3.10672 -2.42645 0
M  V30 867 H 82.8636 -3.70521 -3.487 0
M  V30 868 H 82.2616 -1.2551 -5.51601 0
M  V30 869 H 80.8186 -1.81837 -6.25922 0
M  V30 870 N 84.2517 0.741722 -1.39055 0
M  V30 871 C 85.1837 1.8657 -1.33133 0
M  V30 872 C 86.1967 1.61001 -0.241329 0
M  V30 873 O 87.3857 1.7136 -0.499784 0
M  V30 874 C 84.4857 3.22457 -1.04283 0
M  V30 875 C 83.6587 3.75435 -2.24427 0
M  V30 876 C 82.7177 4.89867 -1.92138 0
M  V30 877 O 81.7437 5.03879 -2.64754 0
M  V30 878 N 82.9457 5.73738 -0.88347 0
M  V30 879 H 85.7107 1.92156 -2.29991 0
M  V30 880 H 83.2717 0.922172 -1.3307 0
M  V30 881 H 85.2637 3.9657 -0.807128 0
M  V30 882 H 83.8337 3.12181 -0.161807 0
M  V30 883 H 83.0537 2.92751 -2.6399 0
M  V30 884 H 84.3417 4.07563 -3.04581 0
M  V30 885 H 83.7397 5.64999 -0.281517 0
M  V30 886 H 82.2967 6.47947 -0.707662 0
M  V30 887 N 85.7298 1.2412 0.971189 0
M  V30 888 C 86.9778 1.07668 1.71032 0
M  V30 889 C 87.2988 -0.385797 1.91146 0
M  V30 890 O 86.5688 -1.27569 1.4867 0
M  V30 891 H 85.1488 0.395429 0.633755 0
M  V30 892 H 87.8108 1.55984 1.16855 0
M  V30 893 H 86.9068 1.57195 2.69622 0
M  V30 894 N 87.2079 -1.17134 1.05439 0
M  V30 895 C 88.1709 -2.19439 0.661764 0
M  V30 896 C 89.1709 -1.58199 -0.288042 0
M  V30 897 O 90.3609 -1.74053 -0.0715803 0
M  V30 898 C 87.4929 -3.40889 -0.0276209 0
M  V30 899 H 88.6859 -2.55688 1.56728 0
M  V30 900 H 86.2389 -1.31259 0.848567 0
M  V30 901 H 86.9739 -3.10187 -0.94629 0
M  V30 902 H 86.7589 -3.86586 0.655238 0
M  V30 903 H 88.2489 -4.16603 -0.288342 0
M  V30 904 N 88.686 -0.835752 -1.33615 0
M  V30 905 C 89.911 -0.442389 -2.02627 0
M  V30 906 C 90.336 0.947735 -1.62479 0
M  V30 907 O 89.694 1.61907 -0.815826 0
M  V30 908 C 89.742 -0.567216 -3.56111 0
M  V30 909 O 88.846 0.407799 -4.10379 0
M  V30 910 H 88.187 -0.180278 -0.639059 0
M  V30 911 H 90.717 -1.12972 -1.70583 0
M  V30 912 H 90.727 -0.447708 -4.05536 0
M  V30 913 H 89.402 -1.58103 -3.84677 0
M  V30 914 H 87.979 0.246107 -3.72087 0
M  V30 915 N 90.1641 1.46063 -0.591896 0
M  V30 916 C 91.5801 1.57561 -0.254288 0
M  V30 917 C 91.7801 1.58565 1.24336 0
M  V30 918 O 90.8361 1.50753 2.02558 0
M  V30 919 C 92.1491 2.86549 -0.911611 0
M  V30 920 C 93.6971 3.00197 -0.886059 0
M  V30 921 C 94.1721 4.31933 -1.5231 0
M  V30 922 N 95.6631 4.38654 -1.48786 0
M  V30 923 C 96.3981 5.39222 -1.95006 0
M  V30 924 N 95.8941 6.46414 -2.49241 0
M  V30 925 N 97.6871 5.3048 -1.85868 0
M  V30 926 H 89.8381 1.43655 -1.56451 0
M  V30 927 H 92.1011 0.68583 -0.654478 0
M  V30 928 H 91.8071 2.91651 -1.96551 0
M  V30 929 H 91.6811 3.74794 -0.425368 0
M  V30 930 H 94.0681 2.9467 0.159246 0
M  V30 931 H 94.1491 2.13403 -1.41041 0
M  V30 932 H 93.7931 4.38217 -2.56765 0
M  V30 933 H 93.7231 5.17516 -0.973891 0
M  V30 934 H 96.2141 3.61793 -1.09151 0
M  V30 935 H 96.5271 7.19376 -2.82344 0
M  V30 936 H 94.8721 6.47208 -2.53272 0
M  V30 937 H 98.0631 4.45643 -1.43248 0
M  V30 938 H 98.2361 6.08711 -2.22204 0
M  V30 939 N 91.6422 0.330177 1.54103 0
M  V30 940 C 93.0532 -0.15652 1.86043 0
M  V30 941 C 93.4042 -1.51086 1.2517 0
M  V30 942 O 92.5292 -2.09023 0.560217 0
M  V30 943 C 93.1242 -0.290784 3.3755 0
M  V30 944 C 91.6832 -0.721705 3.69416 0
M  V30 945 C 90.8302 0.152622 2.7688 0
M  V30 946 H 93.7812 0.550237 1.48856 0
M  V30 947 H 93.8022 -1.12058 3.63625 0
M  V30 948 H 93.3142 0.695068 3.81825 0
M  V30 949 H 91.4152 -1.71706 3.30678 0
M  V30 950 H 91.5282 -0.520869 4.7626 0
M  V30 951 H 89.8922 -0.372894 2.51956 0
M  V30 952 H 90.6752 1.13536 3.23982 0
M  V30 953 N 93.1203 -1.57491 0.0584922 0
M  V30 954 C 94.3683 -1.92597 -0.612436 0
M  V30 955 C 94.6893 -0.938162 -1.70949 0
M  V30 956 O 93.9593 0.0158301 -1.95894 0
M  V30 957 H 92.5393 -0.710964 -0.229214 0
M  V30 958 H 95.2013 -1.94571 0.113218 0
M  V30 959 H 94.2973 -2.94038 -1.04633 0
M  V30 960 N 94.5984 0.214957 -1.56127 0
M  V30 961 C 96.0094 0.781386 -1.69562 0
M  V30 962 C 96.3604 1.84707 -0.66165 0
M  V30 963 O 95.4854 2.156 0.185927 0
M  V30 964 C 96.0804 1.42411 -3.07416 0
M  V30 965 C 94.6394 1.93786 -3.22683 0
M  V30 966 C 93.7864 0.800438 -2.65496 0
M  V30 967 H 96.7374 -0.00980633 -1.58697 0
M  V30 968 H 96.7584 2.29309 -3.0364 0
M  V30 969 H 96.2704 0.64826 -3.82648 0
M  V30 970 H 94.3714 2.74152 -2.52332 0
M  V30 971 H 94.4844 2.1133 -4.29973 0
M  V30 972 H 92.8484 1.2095 -2.2415 0
M  V30 973 H 93.6314 0.0371471 -3.4328 0
M  V30 974 N 96.0765 1.50051 0.48192 0
M  V30 975 C 97.4925 1.37237 0.814756 0
M  V30 976 C 97.6925 0.420109 1.97072 0
M  V30 977 O 96.7485 -0.141246 2.52105 0
M  V30 978 C 98.0615 2.78375 1.13701 0
M  V30 979 C 99.6095 2.87213 1.2441 0
M  V30 980 C 100.084 4.29161 1.59954 0
M  V30 981 N 101.575 4.32061 1.66967 0
M  V30 982 C 102.31 5.38879 1.95952 0
M  V30 983 N 101.806 6.55918 2.23031 0
M  V30 984 N 103.599 5.26312 1.97363 0
M  V30 985 H 95.7505 2.10546 -0.28005 0
M  V30 986 H 98.0135 0.945921 -0.0627454 0
M  V30 987 H 97.7195 3.49845 0.360787 0
M  V30 988 H 97.5935 3.14941 2.07586 0
M  V30 989 H 99.9805 2.15969 2.01101 0
M  V30 990 H 100.061 2.54204 0.285299 0
M  V30 991 H 99.7055 5.00938 0.838067 0
M  V30 992 H 99.6355 4.59648 2.56966 0
M  V30 993 H 102.126 3.47661 1.48123 0
M  V30 994 H 102.439 7.33139 2.44391 0
M  V30 995 H 100.784 6.59112 2.20447 0
M  V30 996 H 103.975 4.33876 1.75697 0
M  V30 997 H 104.148 6.09649 2.19618 0
M  V30 998 N 97.5546 -0.734337 1.39446 0
M  V30 999 C 98.8316 -1.48579 1.27215 0
M  V30 1000 C 99.2116 -2.1077 -0.117968 0
M  V30 1001 O 98.5596 -1.98646 -1.12924 0
M  V30 1002 C 98.7696 -2.53667 2.39696 0
M  V30 1003 C 100.118 -3.20031 2.79044 0
M  V30 1004 O 101.142 -2.6398 2.39151 0
M  V30 1005 O 100.001 -4.21455 3.47905 0
M  V30 1006 H 97.0946 -0.659816 0.49857 0
M  V30 1007 H 99.6406 -0.768106 1.51322 0
M  V30 1008 H 98.4126 -2.06096 3.32626 0
M  V30 1009 H 98.0356 -3.32994 2.17258 0
M  V30 1010 N 99.0327 -1.24633 -0.964593 0
M  V30 1011 C 99.9957 -1.0424 -2.04124 0
M  V30 1012 C 100.996 0.00137563 -1.608 0
M  V30 1013 O 102.186 -0.239883 -1.7254 0
M  V30 1014 C 99.3177 -0.580588 -3.3592 0
M  V30 1015 H 100.511 -1.99803 -2.23649 0
M  V30 1016 H 98.0637 -1.06899 -1.14027 0
M  V30 1017 H 98.7987 0.3781 -3.22088 0
M  V30 1018 H 98.5837 -1.33398 -3.6871 0
M  V30 1019 H 100.074 -0.459034 -4.15069 0
M  V30 1020 N 100.511 1.16574 -1.06058 0
M  V30 1021 C 101.443 2.2045 -0.627239 0
M  V30 1022 C 102.456 1.59752 0.313534 0
M  V30 1023 O 103.645 1.78192 0.104896 0
M  V30 1024 C 100.745 3.3875 0.100974 0
M  V30 1025 C 99.9178 4.29008 -0.852687 0
M  V30 1026 C 98.9768 5.25944 -0.164152 0
M  V30 1027 O 98.0028 5.63535 -0.801047 0
M  V30 1028 N 99.2048 5.70075 1.09518 0
M  V30 1029 H 101.97 2.58249 -1.52077 0
M  V30 1030 H 99.5308 1.3156 -0.943594 0
M  V30 1031 H 101.523 4.00638 0.57194 0
M  V30 1032 H 100.093 2.99476 0.89628 0
M  V30 1033 H 99.3128 3.64419 -1.50308 0
M  V30 1034 H 100.601 4.86195 -1.49972 0
M  V30 1035 H 99.9988 5.41624 1.6328 0
M  V30 1036 H 98.5558 6.34067 1.51006 0
M  V30 1037 N 101.989 0.842826 1.3317 0
M  V30 1038 C 102.952 0.284065 2.27433 0
M  V30 1039 C 103.952 -0.54948 1.5112 0
M  V30 1040 O 105.142 -0.362699 1.70382 0
M  V30 1041 C 102.274 -0.599384 3.35589 0
M  V30 1042 H 103.467 1.11589 2.78366 0
M  V30 1043 H 101.02 0.616221 1.4364 0
M  V30 1044 H 101.755 -1.45349 2.89904 0
M  V30 1045 H 101.54 -0.00291266 3.921 0
M  V30 1046 H 103.03 -0.983488 4.05854 0
M  V30 1047 N 103.467 -1.45747 0.599634 0
M  V30 1048 C 104.417 -2.27538 -0.145107 0
M  V30 1049 C 105.401 -1.3686 -0.846055 0
M  V30 1050 O 106.593 -1.6091 -0.737357 0
M  V30 1051 C 103.722 -3.23569 -1.14708 0
M  V30 1052 C 102.808 -4.21734 -0.447383 0
M  V30 1053 N 103.199 -5.03257 0.506535 0
M  V30 1054 C 101.497 -4.40536 -0.695966 0
M  V30 1055 C 102.198 -5.74426 0.917068 0
M  V30 1056 N 101.174 -5.42966 0.26253 0
M  V30 1057 H 104.976 -2.87965 0.587672 0
M  V30 1058 H 102.49 -1.56803 0.422697 0
M  V30 1059 H 104.487 -3.8089 -1.69495 0
M  V30 1060 H 103.147 -2.64702 -1.8805 0
M  V30 1061 H 104.158 -5.10319 0.882899 0
M  V30 1062 H 100.835 -3.92802 -1.41467 0
M  V30 1063 H 102.225 -6.4995 1.70338 0
M  V30 1064 N 104.945 -0.338344 -1.53925 0
M  V30 1065 C 106.356 0.146651 -1.86123 0
M  V30 1066 C 106.707 1.5042 -1.2597 0
M  V30 1067 O 105.832 2.08723 -0.571294 0
M  V30 1068 C 106.427 0.272879 -3.37699 0
M  V30 1069 C 104.986 0.702103 -3.69794 0
M  V30 1070 C 104.133 -0.167304 -2.76795 0
M  V30 1071 H 107.084 -0.558123 -1.48562 0
M  V30 1072 H 107.105 1.10128 -3.64214 0
M  V30 1073 H 106.617 -0.715307 -3.81451 0
M  V30 1074 H 104.718 1.6995 -3.31584 0
M  V30 1075 H 104.831 0.495604 -4.7653 0
M  V30 1076 H 103.195 0.359527 -2.5215 0
M  V30 1077 H 103.978 -1.15253 -3.23375 0
M  V30 1078 N 106.423 1.57458 -0.0668435 0
M  V30 1079 C 107.671 1.92919 0.602214 0
M  V30 1080 C 107.992 0.947215 1.70449 0
M  V30 1081 O 107.262 -0.00544117 1.95899 0
M  V30 1082 H 105.842 0.71217 0.22544 0
M  V30 1083 H 108.504 1.94508 -0.123535 0
M  V30 1084 H 107.6 2.94589 1.03073 0
M  V30 1085 N 107.901 -0.206675 1.56239 0
M  V30 1086 C 109.317 -0.557025 1.49564 0
M  V30 1087 C 109.517 -1.86424 0.764735 0
M  V30 1088 O 108.573 -2.50584 0.310491 0
M  V30 1089 C 109.886 -0.622478 2.94186 0
M  V30 1090 C 111.434 -0.712099 3.04792 0
M  V30 1091 C 111.909 -0.808767 4.50803 0
M  V30 1092 N 113.4 -0.8726 4.54907 0
M  V30 1093 C 114.135 -0.967365 5.65181 0
M  V30 1094 N 113.631 -1.02515 6.85173 0
M  V30 1095 N 115.424 -1.00366 5.53067 0
M  V30 1096 H 107.575 0.650943 2.02179 0
M  V30 1097 H 109.838 0.230387 0.919579 0
M  V30 1098 H 109.544 0.268727 3.50672 0
M  V30 1099 H 109.418 -1.4811 3.46905 0
M  V30 1100 H 111.805 -1.59374 2.48363 0
M  V30 1101 H 111.886 0.172489 2.55218 0
M  V30 1102 H 111.53 0.0684754 5.07854 0
M  V30 1103 H 111.46 -1.70899 4.98098 0
M  V30 1104 H 113.951 -0.837657 3.68499 0
M  V30 1105 H 114.264 -1.09765 7.64965 0
M  V30 1106 H 112.609 -0.994026 6.87855 0
M  V30 1107 H 115.8 -0.95527 4.58249 0
M  V30 1108 H 115.973 -1.07405 6.39037 0
M  V30 1109 N 109.379 -1.50304 -0.473955 0
M  V30 1110 C 110.79 -1.54042 -1.0549 0
M  V30 1111 C 111.141 -0.342248 -1.93192 0
M  V30 1112 O 110.266 0.545157 -2.09421 0
M  V30 1113 C 110.861 -2.79152 -1.91989 0
M  V30 1114 C 109.42 -2.8558 -2.45196 0
M  V30 1115 C 108.567 -2.48295 -1.2347 0
M  V30 1116 H 111.518 -1.5661 -0.256693 0
M  V30 1117 H 111.539 -2.60845 -2.7702 0
M  V30 1118 H 111.051 -3.66339 -1.28131 0
M  V30 1119 H 109.152 -2.02738 -3.12615 0
M  V30 1120 H 109.265 -3.88403 -2.80499 0
M  V30 1121 H 107.629 -2.00669 -1.56856 0
M  V30 1122 H 108.412 -3.37787 -0.612789 0
M  V30 1123 N 110.857 0.726932 -1.39834 0
M  V30 1124 C 112.273 1.03354 -1.21615 0
M  V30 1125 C 112.473 2.01327 -0.08338 0
M  V30 1126 O 111.529 2.46158 0.56238 0
M  V30 1127 C 112.842 1.58811 -2.55342 0
M  V30 1128 C 114.39 1.70851 -2.62257 0
M  V30 1129 C 114.865 2.29716 -3.96225 0
M  V30 1130 N 116.356 2.37116 -3.97907 0
M  V30 1131 C 117.091 2.83619 -4.98345 0
M  V30 1132 N 116.587 3.29958 -6.09179 0
M  V30 1133 N 118.38 2.82901 -4.8572 0
M  V30 1134 H 110.531 0.0773069 -2.12259 0
M  V30 1135 H 112.794 0.0969102 -0.943034 0
M  V30 1136 H 112.5 0.942855 -3.38826 0
M  V30 1137 H 112.374 2.57502 -2.75632 0
M  V30 1138 H 114.761 2.34497 -1.79152 0
M  V30 1139 H 114.842 0.707913 -2.45809 0
M  V30 1140 H 114.486 1.66696 -4.79765 0
M  V30 1141 H 114.416 3.30469 -4.09997 0
M  V30 1142 H 116.907 2.04374 -3.17868 0
M  V30 1143 H 117.22 3.63976 -6.8172 0
M  V30 1144 H 115.565 3.27946 -6.12761 0
M  V30 1145 H 118.756 2.46027 -3.98231 0
M  V30 1146 H 118.929 3.18827 -5.6414 0
M  V30 1147 N 112.336 1.25143 0.95797 0
M  V30 1148 C 113.299 1.05321 2.03569 0
M  V30 1149 C 114.299 0.007152 1.60798 0
M  V30 1150 O 115.489 0.24903 1.72411 0
M  V30 1151 C 112.621 0.598394 3.35607 0
M  V30 1152 H 113.814 2.00986 2.22586 0
M  V30 1153 H 111.367 1.07502 1.13459 0
M  V30 1154 H 112.102 -0.361014 3.22284 0
M  V30 1155 H 111.887 1.35351 3.67998 0
M  V30 1156 H 113.377 0.48104 4.1482 0
M  V30 1157 N 113.814 -1.1601 1.06675 0
M  V30 1158 C 115.06 -1.86909 0.786945 0
M  V30 1159 C 115.393 -1.81717 -0.685018 0
M  V30 1160 O 114.668 -1.23551 -1.50218 0
M  V30 1161 C 114.951 -3.36313 1.28707 0
M  V30 1162 C 114.804 -3.50175 2.82308 0
M  V30 1163 C 116.123 -4.3084 0.898071 0
M  V30 1164 H 113.242 -0.678677 0.287343 0
M  V30 1165 H 115.884 -1.36336 1.32334 0
M  V30 1166 H 114.034 -3.79513 0.830768 0
M  V30 1167 H 115.706 -3.15886 3.36175 0
M  V30 1168 H 113.949 -2.91959 3.20847 0
M  V30 1169 H 114.62 -4.55116 3.12368 0
M  V30 1170 H 117.096 -3.95561 1.29114 0
M  V30 1171 H 115.972 -5.33876 1.27543 0
M  V30 1172 H 116.233 -4.41662 -0.196651 0
M  V30 1173 N 115.292 -0.849877 -1.32721 0
M  V30 1174 C 116.703 -0.506188 -1.79707 0
M  V30 1175 C 117.054 0.975627 -1.70223 0
M  V30 1176 O 116.179 1.76078 -1.25799 0
M  V30 1177 C 116.774 -0.912044 -3.26293 0
M  V30 1178 C 115.333 -0.620326 -3.71253 0
M  V30 1179 C 114.48 -1.11439 -2.53922 0
M  V30 1180 H 117.431 -1.03754 -1.20087 0
M  V30 1181 H 117.452 -0.226493 -3.79825 0
M  V30 1182 H 116.964 -1.99057 -3.33164 0
M  V30 1183 H 115.065 0.447674 -3.69901 0
M  V30 1184 H 115.178 -1.18327 -4.64258 0
M  V30 1185 H 113.542 -0.534834 -2.49021 0
M  V30 1186 H 114.325 -2.19992 -2.6355 0
M  V30 1187 N 116.77 1.45427 -0.607355 0
M  V30 1188 C 117.998 2.06614 -0.108814 0
M  V30 1189 C 118.413 1.45204 1.2067 0
M  V30 1190 O 117.77 0.566132 1.73497 0
M  V30 1191 C 117.821 3.61481 0.0375347 0
M  V30 1192 O 117.542 4.20598 -1.22593 0
M  V30 1193 C 119.043 4.39652 0.567561 0
M  V30 1194 H 116.263 0.66747 -0.0687351 0
M  V30 1195 H 118.807 1.86675 -0.835022 0
M  V30 1196 H 116.962 3.80762 0.714068 0
M  V30 1197 H 117.376 5.1377 -1.05547 0
M  V30 1198 H 118.85 5.48518 0.61905 0
M  V30 1199 H 119.327 4.09417 1.58978 0
M  V30 1200 H 119.933 4.25234 -0.0749202 0
M  V30 1201 N 118.248 0.346503 1.53744 0
M  V30 1202 C 119.18 -0.543316 2.22667 0
M  V30 1203 C 120.193 -1.06159 1.23427 0
M  V30 1204 O 121.382 -0.971235 1.49764 0
M  V30 1205 C 118.482 -1.76076 2.89569 0
M  V30 1206 C 117.655 -1.37727 4.15151 0
M  V30 1207 C 116.714 -2.45471 4.65436 0
M  V30 1208 O 115.74 -2.08655 5.29577 0
M  V30 1209 N 116.942 -3.7677 4.41616 0
M  V30 1210 H 119.707 0.0469703 2.99663 0
M  V30 1211 H 117.268 0.170766 1.60997 0
M  V30 1212 H 119.26 -2.47593 3.20125 0
M  V30 1213 H 117.83 -2.25835 2.16142 0
M  V30 1214 H 117.05 -0.492746 3.91108 0
M  V30 1215 H 118.338 -1.09708 4.96832 0
M  V30 1216 H 117.736 -4.09467 3.90325 0
M  V30 1217 H 116.293 -4.44448 4.7677 0
M  V30 1218 N 119.726 -1.57421 0.075193 0
M  V30 1219 C 120.966 -1.95495 -0.596757 0
M  V30 1220 C 121.33 -0.954886 -1.66571 0
M  V30 1221 O 122.531 -1.22341 -2.39345 0
M  V30 1222 C 120.802 -3.382 -1.15566 0
M  V30 1223 S 122.361 -3.98254 -1.84226 0
M  V30 1224 H 119.179 -0.683649 -0.195307 0
M  V30 1225 H 121.781 -1.94925 0.149859 0
M  V30 1226 H 120.485 -4.08766 -0.36588 0
M  V30 1227 H 120.016 -3.42321 -1.93856 0
M  V30 1228 H 122.031 -3.85435 -3.12497 0
M  V30 1229 N 121.204 0.198386 -1.56346 0
M  V30 1230 C 122.481 0.944982 -1.71258 0
M  V30 1231 C 122.861 2.0151 -0.629048 0
M  V30 1232 O 122.209 2.25639 0.360473 0
M  V30 1233 C 122.419 1.5344 -3.1346 0
M  V30 1234 C 123.767 2.01778 -3.73591 0
M  V30 1235 O 124.791 1.63288 -3.16568 0
M  V30 1236 O 123.65 2.72594 -4.73661 0
M  V30 1237 H 120.744 0.442939 -0.69838 0
M  V30 1238 H 123.29 0.188342 -1.68652 0
M  V30 1239 H 122.062 0.762869 -3.83792 0
M  V30 1240 H 121.685 2.35596 -3.20282 0
M  V30 1241 N 122.682 1.50554 0.465978 0
M  V30 1242 C 123.928 1.62038 1.21949 0
M  V30 1243 C 124.261 0.322116 1.9151 0
M  V30 1244 O 123.536 -0.676723 1.82348 0
M  V30 1245 C 123.819 2.80421 2.25912 0
M  V30 1246 C 123.672 4.20144 1.60622 0
M  V30 1247 C 124.991 2.94354 3.27176 0
M  V30 1248 H 122.11 0.589752 0.441998 0
M  V30 1249 H 124.752 1.82956 0.51257 0
M  V30 1250 H 122.902 2.62717 2.86203 0
M  V30 1251 H 124.574 4.49449 1.03889 0
M  V30 1252 H 122.817 4.24165 0.909211 0
M  V30 1253 H 123.488 4.98914 2.36196 0
M  V30 1254 H 125.964 3.10578 2.76913 0
M  V30 1255 H 124.84 3.788 3.97242 0
M  V30 1256 H 125.101 2.05186 3.916 0
M  V30 1257 N 124.16 -0.719506 1.40217 0
M  V30 1258 C 125.571 -1.29848 1.34151 0
M  V30 1259 C 125.922 -1.96196 0.0131349 0
M  V30 1260 O 125.047 -1.973 -0.88892 0
M  V30 1261 C 125.642 -2.36118 2.42968 0
M  V30 1262 C 124.201 -2.8965 2.40374 0
M  V30 1263 C 123.348 -1.63393 2.24049 0
M  V30 1264 H 126.299 -0.51591 1.5008 0
M  V30 1265 H 126.32 -3.16871 2.10649 0
M  V30 1266 H 125.832 -1.878 3.39636 0
M  V30 1267 H 123.933 -3.42208 1.47392 0
M  V30 1268 H 124.046 -3.4171 3.35814 0
M  V30 1269 H 122.41 -1.88312 1.71495 0
M  V30 1270 H 123.193 -1.17104 3.2271 0
M  V30 1271 N 125.638 -1.25649 -0.95132 0
M  V30 1272 C 127.049 -1.09654 -1.51106 0
M  V30 1273 C 127.4 0.326615 -1.93462 0
M  V30 1274 O 126.525 1.21697 -1.78938 0
M  V30 1275 C 127.12 -1.98437 -2.74605 0
M  V30 1276 C 125.679 -1.86618 -3.2688 0
M  V30 1277 C 124.826 -1.9239 -1.99703 0
M  V30 1278 H 127.777 -1.38887 -0.767865 0
M  V30 1279 H 127.798 -1.5263 -3.48546 0
M  V30 1280 H 127.31 -3.02009 -2.43746 0
M  V30 1281 H 125.411 -0.859421 -3.62553 0
M  V30 1282 H 125.524 -2.71607 -3.94673 0
M  V30 1283 H 123.888 -1.36317 -2.15151 0
M  V30 1284 H 124.671 -2.97573 -1.71188 0
M  V30 1285 N 127.117 1.15442 -1.07289 0
M  V30 1286 C 128.065 2.22225 -0.686952 0
M  V30 1287 C 129.059 1.66688 0.30193 0
M  V30 1288 O 130.265 1.79236 0.165712 0
M  V30 1289 H 126.64 0.723783 -0.204064 0
M  V30 1290 H 128.611 2.52056 -1.5972 0
M  V30 1291 C 127.36 3.47556 -0.100149 0
M  V30 1292 H 126.683 3.90612 -0.852211 0
M  V30 1293 H 128.123 4.23794 0.132235 0
M  V30 1294 C 126.582 3.16337 1.159 0
M  V30 1295 O 127.112 3.33074 2.24555 0
M  V30 1296 N 125.318 2.70385 1.06491 0
M  V30 1297 H 124.865 2.56966 0.180668 0
M  V30 1298 H 124.823 2.49871 1.90819 0
M  V30 1299 N 128.595 0.856903 1.32268 0
M  V30 1300 C 129.82 0.474569 2.01897 0
M  V30 1301 C 130.245 -0.921766 1.63967 0
M  V30 1302 O 129.603 -1.60589 0.84148 0
M  V30 1303 C 129.651 0.623799 3.55164 0
M  V30 1304 O 128.755 -0.342459 4.10976 0
M  V30 1305 H 128.096 0.190422 0.63611 0
M  V30 1306 H 130.626 1.15672 1.68764 0
M  V30 1307 H 130.636 0.512169 4.04773 0
M  V30 1308 H 129.311 1.64202 3.82113 0
M  V30 1309 H 127.888 -0.18688 3.72431 0
M  V30 1310 N 130.073 -1.45103 0.615059 0
M  V30 1311 C 131.489 -1.57137 0.279322 0
M  V30 1312 C 131.689 -1.60523 -1.21797 0
M  V30 1313 O 130.745 -1.53956 -2.00134 0
M  V30 1314 C 132.058 -2.85062 0.957083 0
M  V30 1315 C 133.606 -2.98749 0.933706 0
M  V30 1316 C 134.081 -4.29455 1.59162 0
M  V30 1317 N 135.572 -4.36231 1.55746 0
M  V30 1318 C 136.307 -5.36051 2.0356 0
M  V30 1319 N 135.803 -6.42367 2.59494 0
M  V30 1320 N 137.596 -5.27456 1.94284 0
M  V30 1321 H 129.747 -1.41148 1.58717 0
M  V30 1322 H 132.01 -0.675331 0.665306 0
M  V30 1323 H 131.716 -2.88488 2.01166 0
M  V30 1324 H 131.59 -3.7407 0.48494 0
M  V30 1325 H 133.977 -2.94886 -0.112347 0
M  V30 1326 H 134.058 -2.11132 1.44419 0
M  V30 1327 H 133.702 -4.34077 2.63704 0
M  V30 1328 H 133.632 -5.15901 1.0561 0
M  V30 1329 H 136.123 -3.60011 1.14893 0
M  V30 1330 H 136.436 -7.14793 2.93752 0
M  V30 1331 H 134.781 -6.43097 2.63537 0
M  V30 1332 H 137.972 -4.43308 1.5032 0
M  V30 1333 H 138.145 -6.05099 2.3186 0
M  V30 1334 N 131.551 -0.354651 -1.53558 0
M  V30 1335 C 132.798 0.238443 -2.01091 0
M  V30 1336 C 133.126 1.49663 -1.24222 0
M  V30 1337 O 132.381 1.93049 -0.321003 0
M  V30 1338 C 132.68 0.587121 -3.52545 0
M  V30 1339 C 132.346 -0.575472 -4.47213 0
M  V30 1340 C 131.008 -0.894497 -4.72813 0
M  V30 1341 C 133.36 -1.35489 -5.03281 0
M  V30 1342 C 130.688 -1.99511 -5.51736 0
M  V30 1343 C 133.04 -2.44583 -5.83405 0
M  V30 1344 C 131.704 -2.77033 -6.07296 0
M  V30 1345 H 130.974 0.0872526 -0.735845 0
M  V30 1346 H 133.621 -0.484859 -1.8526 0
M  V30 1347 H 131.926 1.39129 -3.66265 0
M  V30 1348 H 133.623 1.05809 -3.86789 0
M  V30 1349 H 130.213 -0.316774 -4.27428 0
M  V30 1350 H 134.397 -1.12167 -4.83459 0
M  V30 1351 H 129.653 -2.25063 -5.68469 0
M  V30 1352 H 133.827 -3.05401 -6.25862 0
M  V30 1353 H 131.454 -3.6244 -6.68237 0
M  V30 1354 N 133.029 1.57378 -0.0835403 0
M  V30 1355 C 134.306 1.85363 0.624507 0
M  V30 1356 C 134.686 0.978239 1.87066 0
M  V30 1357 O 134.034 0.0475908 2.2845 0
M  V30 1358 C 134.244 3.35795 0.950947 0
M  V30 1359 C 135.592 4.03581 1.31939 0
M  V30 1360 O 136.616 3.40609 1.04232 0
M  V30 1361 O 135.475 5.14672 1.83779 0
M  V30 1362 H 132.569 0.766162 0.311329 0
M  V30 1363 H 135.115 1.69307 -0.115362 0
M  V30 1364 H 133.887 3.91244 0.0663899 0
M  V30 1365 H 133.51 3.57154 1.74719 0
M  V30 1366 N 134.507 -0.190092 1.56449 0
M  V30 1367 C 135.747 -0.916414 1.82705 0
M  V30 1368 C 136.111 -1.80235 0.661763 0
M  V30 1369 O 137.312 -2.56484 0.80433 0
M  V30 1370 C 135.583 -1.70691 3.14005 0
M  V30 1371 S 137.142 -2.48457 3.61683 0
M  V30 1372 H 133.96 -0.307281 0.64117 0
M  V30 1373 H 136.562 -0.179433 1.94675 0
M  V30 1374 H 135.266 -1.04677 3.96826 0
M  V30 1375 H 134.797 -2.48562 3.04927 0
M  V30 1376 H 136.812 -3.72756 3.27517 0
M  V30 1377 N 135.985 -1.50799 -0.457987 0
M  V30 1378 C 136.948 -1.7005 -1.53674 0
M  V30 1379 C 137.948 -0.570881 -1.50325 0
M  V30 1380 O 139.138 -0.838126 -1.52712 0
M  V30 1381 C 136.27 -1.73788 -2.93276 0
M  V30 1382 H 137.463 -2.66306 -1.37917 0
M  V30 1383 H 135.016 -1.40477 -0.685271 0
M  V30 1384 H 135.751 -0.792717 -3.14462 0
M  V30 1385 H 135.536 -2.55864 -2.97113 0
M  V30 1386 H 137.026 -1.90591 -3.71571 0
M  V30 1387 N 137.463 0.71206 -1.40597 0
M  V30 1388 C 138.874 1.29135 -1.34837 0
M  V30 1389 C 139.225 1.96186 -0.0235395 0
M  V30 1390 O 138.35 1.97768 0.878444 0
M  V30 1391 C 138.945 2.34827 -2.44217 0
M  V30 1392 C 137.504 2.88371 -2.41907 0
M  V30 1393 C 136.651 1.62202 -2.24913 0
M  V30 1394 H 139.602 0.507944 -1.50352 0
M  V30 1395 H 139.623 3.15749 -2.12327 0
M  V30 1396 H 139.135 1.85996 -3.40627 0
M  V30 1397 H 137.236 3.41422 -1.49204 0
M  V30 1398 H 137.349 3.39925 -3.37621 0
M  V30 1399 H 135.713 1.874 -1.72492 0
M  V30 1400 H 136.496 1.15391 -3.23326 0
M  V30 1401 N 138.941 1.26152 0.944643 0
M  V30 1402 C 140.218 1.02247 1.66748 0
M  V30 1403 C 140.598 -0.448202 2.06287 0
M  V30 1404 O 139.946 -1.42779 1.78399 0
M  V30 1405 C 140.156 1.96788 2.88228 0
M  V30 1406 C 141.504 2.25201 3.59958 0
M  V30 1407 O 142.528 1.94626 2.98327 0
M  V30 1408 O 141.387 2.77242 4.70956 0
M  V30 1409 H 138.481 0.388517 0.730057 0
M  V30 1410 H 141.027 1.37348 0.99668 0
M  V30 1411 H 139.799 2.96047 2.55875 0
M  V30 1412 H 139.422 1.62145 3.63035 0
M  V30 1413 N 140.419 -1.14872 1.07899 0
M  V30 1414 C 141.366 -2.19791 0.704319 0
M  V30 1415 C 142.336 -1.63238 -0.306987 0
M  V30 1416 O 143.521 -1.8983 -0.192171 0
M  V30 1417 C 140.661 -3.44911 0.114244 0
M  V30 1418 C 139.774 -4.15637 1.1777 0
M  V30 1419 C 138.909 -5.28324 0.552037 0
M  V30 1420 C 137.948 -5.90875 1.59789 0
M  V30 1421 N 137.085 -6.95022 0.994404 0
M  V30 1422 H 141.925 -2.5119 1.60336 0
M  V30 1423 H 139.462 -1.23356 0.801352 0
M  V30 1424 H 141.42 -4.16477 -0.245544 0
M  V30 1425 H 140.05 -3.14011 -0.74813 0
M  V30 1426 H 139.102 -3.42512 1.65499 0
M  V30 1427 H 140.414 -4.5823 1.97046 0
M  V30 1428 H 139.568 -6.06538 0.1402 0
M  V30 1429 H 138.307 -4.86939 -0.272431 0
M  V30 1430 H 137.312 -5.11369 2.01945 0
M  V30 1431 H 138.537 -6.34337 2.42474 0
M  V30 1432 H 136.483 -6.55722 0.190939 0
M  V30 1433 H 136.4 -7.36073 1.72432 0
M  V30 1434 H 137.668 -7.77123 0.608253 0
M  V30 1435 N 141.898 -0.863906 -1.31812 0
M  V30 1436 C 142.861 -0.320212 -2.26952 0
M  V30 1437 C 143.861 0.525369 -1.51975 0
M  V30 1438 O 145.051 0.335547 -1.70938 0
M  V30 1439 C 142.183 0.545919 -3.365 0
M  V30 1440 H 143.376 -1.16004 -2.76556 0
M  V30 1441 H 140.929 -0.638995 -1.42641 0
M  V30 1442 H 141.664 1.40718 -2.92179 0
M  V30 1443 H 141.449 -0.0594674 -3.92055 0
M  V30 1444 H 142.939 0.918796 -4.07367 0
M  V30 1445 N 143.376 1.44774 -0.622745 0
M  V30 1446 C 144.625 2.01334 -0.121397 0
M  V30 1447 C 144.938 1.49505 1.26125 0
M  V30 1448 O 146.144 1.98139 1.85616 0
M  V30 1449 C 144.6 3.59516 -0.166298 0
M  V30 1450 C 144.208 4.20342 -1.54974 0
M  V30 1451 C 145.952 4.23582 0.279021 0
M  V30 1452 C 143.859 5.70721 -1.55021 0
M  V30 1453 H 142.789 0.752851 -0.0416172 0
M  V30 1454 H 145.44 1.66083 -0.780309 0
M  V30 1455 H 143.822 3.92027 0.559557 0
M  V30 1456 H 144.996 3.99381 -2.29851 0
M  V30 1457 H 143.311 3.68529 -1.93843 0
M  V30 1458 H 145.908 5.33868 0.298083 0
M  V30 1459 H 146.251 3.95327 1.30471 0
M  V30 1460 H 146.784 3.95843 -0.394063 0
M  V30 1461 H 143.523 6.03698 -2.55399 0
M  V30 1462 H 143.043 5.93829 -0.844245 0
M  V30 1463 H 144.722 6.34203 -1.28047 0
M  V30 1464 N 144.854 0.36279 1.53368 0
M  V30 1465 C 146.082 -0.228613 2.05633 0
M  V30 1466 C 146.497 -1.42676 1.23649 0
M  V30 1467 O 145.854 -1.80394 0.27647 0
M  V30 1468 C 145.905 -0.624845 3.56059 0
M  V30 1469 O 145.626 0.525675 4.34935 0
M  V30 1470 C 147.127 -1.27493 4.24571 0
M  V30 1471 H 144.347 -0.0407183 0.669763 0
M  V30 1472 H 146.891 0.520352 1.97769 0
M  V30 1473 H 145.046 -1.32373 3.64083 0
M  V30 1474 H 145.46 0.205969 5.24095 0
M  V30 1475 H 146.934 -1.50277 5.31151 0
M  V30 1476 H 147.411 -2.23439 3.78116 0
M  V30 1477 H 148.017 -0.617558 4.20792 0
M  V30 1478 N 146.332 -1.57332 0.0918853 0
M  V30 1479 C 147.264 -2.10869 -0.898168 0
M  V30 1480 C 148.277 -1.04521 -1.24817 0
M  V30 1481 O 149.466 -1.31977 -1.20184 0
M  V30 1482 C 146.566 -2.57083 -2.2082 0
M  V30 1483 C 145.739 -3.87229 -2.03402 0
M  V30 1484 C 144.798 -4.19324 -3.17889 0
M  V30 1485 O 143.824 -4.88598 -2.91994 0
M  V30 1486 N 145.026 -3.74471 -4.43567 0
M  V30 1487 H 147.791 -2.96439 -0.440943 0
M  V30 1488 H 145.352 -1.61631 -0.0933064 0
M  V30 1489 H 147.344 -2.75602 -2.96354 0
M  V30 1490 H 145.914 -1.76541 -2.57977 0
M  V30 1491 H 145.134 -3.7789 -1.12218 0
M  V30 1492 H 146.422 -4.72379 -1.89038 0
M  V30 1493 H 145.82 -3.18546 -4.67488 0
M  V30 1494 H 144.377 -3.98151 -5.16061 0
M  V30 1495 N 147.81 0.181792 -1.56548 0
M  V30 1496 C 148.72 1.24538 -1.98815 0
M  V30 1497 C 149.736 1.49045 -0.897861 0
M  V30 1498 O 150.912 1.61399 -1.20467 0
M  V30 1499 C 147.977 2.56683 -2.33055 0
M  V30 1500 C 147.038 2.40131 -3.55859 0
M  V30 1501 C 146.271 3.65975 -3.88456 0
M  V30 1502 O 146.494 4.70711 -3.22161 0
M  V30 1503 O 145.428 3.6071 -4.81842 0
M  V30 1504 H 149.254 0.916647 -2.89536 0
M  V30 1505 H 146.839 0.387842 -1.44278 0
M  V30 1506 H 148.721 3.34655 -2.56094 0
M  V30 1507 H 147.396 2.89157 -1.45498 0
M  V30 1508 H 146.303 1.60226 -3.38051 0
M  V30 1509 H 147.636 2.12585 -4.43924 0
M  V30 1510 N 149.288 1.51039 0.449983 0
M  V30 1511 C 150.22 1.67617 1.56324 0
M  V30 1512 C 151.233 0.557083 1.52972 0
M  V30 1513 O 152.422 0.830989 1.57977 0
M  V30 1514 C 149.522 1.66402 2.95235 0
M  V30 1515 C 148.695 2.9469 3.23229 0
M  V30 1516 C 147.754 2.85832 4.41799 0
M  V30 1517 O 146.78 3.59785 4.41071 0
M  V30 1518 N 147.982 2.00821 5.44657 0
M  V30 1519 H 150.747 2.63648 1.42512 0
M  V30 1520 H 148.308 1.48767 0.638737 0
M  V30 1521 H 150.3 1.58062 3.72557 0
M  V30 1522 H 148.87 0.780182 3.02708 0
M  V30 1523 H 148.09 3.16996 2.34323 0
M  V30 1524 H 149.378 3.79636 3.38754 0
M  V30 1525 H 148.776 1.40091 5.48079 0
M  V30 1526 H 147.333 1.98368 6.20881 0
M  V30 1527 N 150.766 -0.704594 1.40972 0
M  V30 1528 C 152.006 -1.47691 1.41304 0
M  V30 1529 C 152.37 -1.91992 0.0178582 0
M  V30 1530 O 153.571 -2.68599 -0.103996 0
M  V30 1531 C 151.842 -2.66254 2.38419 0
M  V30 1532 S 153.401 -3.55516 2.57204 0
M  V30 1533 H 150.219 -0.504808 0.500689 0
M  V30 1534 H 152.821 -0.822962 1.77335 0
M  V30 1535 H 151.525 -2.31897 3.38603 0
M  V30 1536 H 151.056 -3.3655 2.03711 0
M  V30 1537 H 153.071 -4.61115 1.83268 0
M  V30 1538 N 152.244 -1.26651 -0.937939 0
M  V30 1539 C 153.154 -1.10276 -2.07066 0
M  V30 1540 C 154.17 -0.0354197 -1.73964 0
M  V30 1541 O 155.346 -0.239816 -1.99967 0
M  V30 1542 C 152.411 -0.740887 -3.38691 0
M  V30 1543 C 151.472 -1.88799 -3.85556 0
M  V30 1544 C 150.705 -1.54329 -5.10899 0
M  V30 1545 O 150.928 -0.446494 -5.6865 0
M  V30 1546 O 149.862 -2.37911 -5.52885 0
M  V30 1547 H 153.688 -2.05309 -2.23789 0
M  V30 1548 H 151.273 -1.05743 -1.0554 0
M  V30 1549 H 153.155 -0.55195 -4.1777 0
M  V30 1550 H 151.83 0.180022 -3.23199 0
M  V30 1551 H 150.737 -2.13191 -3.07409 0
M  V30 1552 H 152.07 -2.78874 -4.05574 0
M  V30 1553 N 153.722 1.14298 -1.08507 0
M  V30 1554 C 154.685 2.17607 -0.719711 0
M  V30 1555 C 155.685 1.58907 0.245997 0
M  V30 1556 O 156.875 1.74181 0.0254081 0
M  V30 1557 C 154.007 3.40842 -0.0627695 0
M  V30 1558 H 155.2 2.51443 -1.63452 0
M  V30 1559 H 152.753 1.28963 -0.88307 0
M  V30 1560 H 153.488 3.12587 0.863716 0
M  V30 1561 H 153.273 3.84713 -0.757504 0
M  V30 1562 H 154.763 4.17221 0.177786 0
M  V30 1563 N 155.201 0.870884 1.31352 0
M  V30 1564 C 156.617 0.562932 1.49343 0
M  V30 1565 C 156.817 -0.902725 1.80148 0
M  V30 1566 O 155.873 -1.68484 1.88067 0
M  V30 1567 C 157.186 1.46393 2.62659 0
M  V30 1568 C 158.734 1.46607 2.76542 0
M  V30 1569 C 159.209 2.35266 3.92955 0
M  V30 1570 N 160.7 2.33151 4.00243 0
M  V30 1571 C 161.435 2.98471 4.89594 0
M  V30 1572 N 160.931 3.72964 5.8384 0
M  V30 1573 N 162.724 2.87775 4.82848 0
M  V30 1574 H 154.875 1.81923 1.09626 0
M  V30 1575 H 157.138 0.777934 0.541777 0
M  V30 1576 H 156.844 2.50689 2.46674 0
M  V30 1577 H 156.718 1.16314 3.58819 0
M  V30 1578 H 159.105 0.43069 2.9194 0
M  V30 1579 H 159.186 1.8071 1.81046 0
M  V30 1580 H 158.83 3.38881 3.78315 0
M  V30 1581 H 158.76 1.98487 4.87761 0
M  V30 1582 H 161.251 1.79006 3.32814 0
M  V30 1583 H 161.564 4.19932 6.4875 0
M  V30 1584 H 159.909 3.77073 5.83816 0
M  V30 1585 H 163.1 2.29116 4.08195 0
M  V30 1586 H 163.273 3.38961 5.52277 0
M  V30 1587 N 156.679 -1.44442 0.630414 0
M  V30 1588 C 157.927 -2.01653 0.134351 0
M  V30 1589 C 158.248 -1.49836 -1.24796 0
M  V30 1590 O 157.518 -0.701684 -1.82902 0
M  V30 1591 H 156.098 -0.74554 0.0466769 0
M  V30 1592 H 158.76 -1.76952 0.816955 0
M  V30 1593 H 157.856 -3.11935 0.101498 0
M  V30 1594 N 158.157 -0.370918 -1.53173 0
M  V30 1595 C 159.397 0.217106 -2.03244 0
M  V30 1596 C 159.761 1.45558 -1.25207 0
M  V30 1597 O 160.962 2.11957 -1.65311 0
M  V30 1598 C 159.233 0.496664 -3.53932 0
M  V30 1599 S 160.792 1.0576 -4.25864 0
M  V30 1600 H 157.61 0.0627827 -0.708223 0
M  V30 1601 H 160.212 -0.515019 -1.88594 0
M  V30 1602 H 158.916 -0.412096 -4.08326 0
M  V30 1603 H 158.447 1.25772 -3.72753 0
M  V30 1604 H 160.462 2.34145 -4.37482 0
M  V30 1605 N 159.635 1.57281 -0.100228 0
M  V30 1606 C 160.875 1.96419 0.56558 0
M  V30 1607 C 161.239 0.981265 1.65031 0
M  V30 1608 O 162.44 1.26133 2.37369 0
M  V30 1609 C 160.711 3.39996 1.10171 0
M  V30 1610 S 162.27 4.01134 1.77867 0
M  V30 1611 H 159.088 0.68667 0.184406 0
M  V30 1612 H 161.69 1.94662 -0.180851 0
M  V30 1613 H 160.394 4.09296 0.300803 0
M  V30 1614 H 159.925 3.45361 1.88385 0
M  V30 1615 H 161.94 3.90358 3.06326 0
M  V30 1616 N 161.113 -0.173488 1.56642 0
M  V30 1617 C 162.343 -0.904781 1.85734 0
M  V30 1618 C 162.751 -1.76431 0.68328 0
M  V30 1619 O 162.094 -1.802 -0.356865 0
M  V30 1620 C 162.156 -1.83382 3.09211 0
M  V30 1621 C 161.82 -1.15411 4.42187 0
M  V30 1622 C 162.817 -0.520609 5.17287 0
M  V30 1623 C 160.502 -1.15151 4.88923 0
M  V30 1624 C 162.496 0.106412 6.37311 0
M  V30 1625 C 160.183 -0.520664 6.08878 0
M  V30 1626 C 161.181 0.107196 6.82916 0
M  V30 1627 O 160.869 0.728102 8.00596 0
M  V30 1628 H 160.601 -0.268408 0.62043 0
M  V30 1629 H 163.155 -0.179096 2.04618 0
M  V30 1630 H 161.385 -2.59976 2.86268 0
M  V30 1631 H 163.074 -2.43476 3.24768 0
M  V30 1632 H 163.84 -0.514606 4.82262 0
M  V30 1633 H 159.719 -1.62961 4.31236 0
M  V30 1634 H 163.263 0.597081 6.9504 0
M  V30 1635 H 159.16 -0.524242 6.43368 0
M  V30 1636 H 159.928 0.627138 8.16094 0
M  V30 1637 N 162.591 -1.51276 -0.441967 0
M  V30 1638 C 163.84 -1.6295 -1.18871 0
M  V30 1639 C 164.153 -0.349312 -1.92456 0
M  V30 1640 O 165.359 -0.345355 -2.69295 0
M  V30 1641 C 163.815 -2.87759 -2.16155 0
M  V30 1642 C 163.423 -4.22764 -1.48239 0
M  V30 1643 C 165.167 -3.08788 -2.91291 0
M  V30 1644 C 163.074 -5.38728 -2.4398 0
M  V30 1645 H 162.004 -0.606913 -0.447406 0
M  V30 1646 H 164.655 -1.77739 -0.456205 0
M  V30 1647 H 163.037 -2.66593 -2.92821 0
M  V30 1648 H 164.211 -4.54293 -0.771635 0
M  V30 1649 H 162.526 -4.07575 -0.852741 0
M  V30 1650 H 165.123 -3.92599 -3.63002 0
M  V30 1651 H 165.466 -2.21679 -3.5237 0
M  V30 1652 H 165.999 -3.30272 -2.21733 0
M  V30 1653 H 162.738 -6.28082 -1.87598 0
M  V30 1654 H 162.258 -5.1158 -3.13123 0
M  V30 1655 H 163.937 -5.70489 -3.05207 0
M  V30 1656 N 164.069 0.697108 -1.41344 0
M  V30 1657 C 165.48 1.27697 -1.36199 0
M  V30 1658 C 165.831 1.9615 -0.0443463 0
M  V30 1659 O 164.956 1.98689 0.857419 0
M  V30 1660 C 165.551 2.32223 -2.46694 0
M  V30 1661 C 164.11 2.8579 -2.44952 0
M  V30 1662 C 163.257 1.59807 -2.26621 0
M  V30 1663 H 166.208 0.491968 -1.50882 0
M  V30 1664 H 166.229 3.1348 -2.15664 0
M  V30 1665 H 165.741 1.82373 -3.42581 0
M  V30 1666 H 163.842 3.3982 -1.52817 0
M  V30 1667 H 163.955 3.36325 -3.41207 0
M  V30 1668 H 162.319 1.8556 -1.7447 0
M  V30 1669 H 163.102 1.11956 -3.24532 0
M  V30 1670 N 165.547 1.27147 0.931209 0
M  V30 1671 C 166.51 1.09615 2.01289 0
M  V30 1672 C 167.51 0.0412581 1.60747 0
M  V30 1673 O 168.7 0.285545 1.71844 0
M  V30 1674 C 165.832 0.669447 3.34262 0
M  V30 1675 H 167.025 2.05662 2.18273 0
M  V30 1676 H 164.578 1.09885 1.11153 0
M  V30 1677 H 165.313 -0.292572 3.22978 0
M  V30 1678 H 165.098 1.43127 3.65044 0
M  V30 1679 H 166.588 0.568921 4.13706 0
M  V30 1680 N 167.025 -1.13721 1.09112 0
M  V30 1681 C 167.972 -2.19031 0.727591 0
M  V30 1682 C 168.942 -1.63555 -0.289656 0
M  V30 1683 O 170.127 -1.90023 -0.172026 0
M  V30 1684 C 167.267 -3.4477 0.15082 0
M  V30 1685 C 166.38 -4.14365 1.22172 0
M  V30 1686 C 165.515 -5.27709 0.608042 0
M  V30 1687 C 164.554 -5.89147 1.66047 0
M  V30 1688 N 163.691 -6.93929 1.06806 0
M  V30 1689 H 168.531 -2.49475 1.62991 0
M  V30 1690 H 166.068 -1.22499 0.81439 0
M  V30 1691 H 168.026 -4.16714 -0.201358 0
M  V30 1692 H 166.656 -3.14787 -0.714783 0
M  V30 1693 H 165.708 -3.40737 1.69122 0
M  V30 1694 H 167.02 -4.56114 2.01895 0
M  V30 1695 H 166.174 -6.06355 0.204523 0
M  V30 1696 H 164.913 -4.872 -0.220769 0
M  V30 1697 H 163.918 -5.09198 2.07357 0
M  V30 1698 H 165.143 -6.31729 2.49189 0
M  V30 1699 H 163.089 -6.55483 0.260476 0
M  V30 1700 H 163.006 -7.34202 1.8023 0
M  V30 1701 H 164.274 -7.76434 0.690644 0
M  V30 1702 N 168.503 -0.877838 -1.30888 0
M  V30 1703 C 169.435 -0.296607 -2.27273 0
M  V30 1704 C 170.448 0.544799 -1.53414 0
M  V30 1705 O 171.637 0.365511 -1.74718 0
M  V30 1706 C 168.737 0.597481 -3.33592 0
M  V30 1707 C 167.91 -0.213251 -4.3688 0
M  V30 1708 C 166.969 0.610208 -5.2265 0
M  V30 1709 O 165.995 0.035441 -5.69189 0
M  V30 1710 N 167.197 1.92071 -5.47804 0
M  V30 1711 H 169.962 -1.12492 -2.77787 0
M  V30 1712 H 167.523 -0.740105 -1.43993 0
M  V30 1713 H 169.515 1.15425 -3.87891 0
M  V30 1714 H 168.085 1.32647 -2.83061 0
M  V30 1715 H 167.305 -0.951466 -3.82545 0
M  V30 1716 H 168.593 -0.769262 -5.02951 0
M  V30 1717 H 167.991 2.4107 -5.11763 0
M  V30 1718 H 166.548 2.42508 -6.05007 0
M  V30 1719 N 169.982 1.44106 -0.638065 0
M  V30 1720 C 171.23 2.01579 -0.145043 0
M  V30 1721 C 171.551 1.50496 1.24 0
M  V30 1722 O 170.821 0.711374 1.82527 0
M  V30 1723 H 169.401 0.745282 -0.05063 0
M  V30 1724 H 172.063 1.76516 -0.826327 0
M  V30 1725 H 171.159 3.11877 -0.118039 0
M  V30 1726 N 171.46 0.379036 1.52974 0
M  V30 1727 C 172.39 -0.452706 2.29069 0
M  V30 1728 C 173.371 -1.07237 1.32039 0
M  V30 1729 O 174.556 -1.08708 1.60923 0
M  V30 1730 C 171.686 -1.5856 3.08992 0
M  V30 1731 C 170.64 -1.0925 4.13822 0
M  V30 1732 C 169.966 -2.31668 4.81907 0
M  V30 1733 C 171.266 -0.167702 5.22031 0
M  V30 1734 H 172.96 0.182181 2.98845 0
M  V30 1735 H 170.506 0.0890592 1.43724 0
M  V30 1736 H 172.459 -2.1742 3.6098 0
M  V30 1737 H 171.183 -2.24792 2.36931 0
M  V30 1738 H 169.842 -0.526494 3.628 0
M  V30 1739 H 169.49 -2.96386 4.06404 0
M  V30 1740 H 169.19 -1.9934 5.52754 0
M  V30 1741 H 170.714 -2.91189 5.36695 0
M  V30 1742 H 172.128 -0.664186 5.6944 0
M  V30 1743 H 170.525 0.0653265 6.00064 0
M  V30 1744 H 171.595 0.786347 4.78482 0
M  V30 1745 N 172.938 -1.57226 0.108567 0
M  V30 1746 C 173.87 -2.11809 -0.875752 0
M  V30 1747 C 174.883 -1.05839 -1.23701 0
M  V30 1748 O 176.072 -1.33245 -1.18778 0
M  V30 1749 C 173.172 -2.59411 -2.18081 0
M  V30 1750 C 172.345 -3.89364 -1.99284 0
M  V30 1751 C 171.404 -4.22672 -3.13424 0
M  V30 1752 O 170.43 -4.91668 -2.86795 0
M  V30 1753 N 171.632 -3.79154 -4.3957 0
M  V30 1754 H 174.397 -2.9689 -0.409477 0
M  V30 1755 H 171.958 -1.61721 -0.076158 0
M  V30 1756 H 173.95 -2.7873 -2.93414 0
M  V30 1757 H 172.52 -1.79268 -2.5609 0
M  V30 1758 H 171.74 -3.79059 -1.08203 0
M  V30 1759 H 173.028 -4.74358 -1.84017 0
M  V30 1760 H 172.426 -3.23486 -4.64083 0
M  V30 1761 H 170.983 -4.03602 -5.11809 0
M  V30 1762 N 174.416 0.165178 -1.56732 0
M  V30 1763 C 175.664 0.879068 -1.8198 0
M  V30 1764 C 175.985 1.82514 -0.686561 0
M  V30 1765 O 175.255 1.93694 0.293146 0
M  V30 1766 H 173.835 0.327608 -0.671329 0
M  V30 1767 H 176.497 0.163526 -1.94213 0
M  V30 1768 H 175.593 1.45228 -2.76252 0
M  V30 1769 N 175.894 1.51508 0.433938 0
M  V30 1770 C 176.857 1.72473 1.50949 0
M  V30 1771 C 177.857 0.594725 1.49398 0
M  V30 1772 O 179.047 0.862315 1.5136 0
M  V30 1773 C 176.179 1.78431 2.90474 0
M  V30 1774 H 177.372 2.68467 1.33662 0
M  V30 1775 H 174.925 1.41549 0.662836 0
M  V30 1776 H 175.66 0.842645 3.13161 0
M  V30 1777 H 175.445 2.60558 2.93005 0
M  V30 1778 H 176.935 1.96479 3.68491 0
M  V30 1779 N 177.372 -0.689602 1.41712 0
M  V30 1780 C 178.304 -1.815 1.39966 0
M  V30 1781 C 179.317 -1.59995 0.300917 0
M  V30 1782 O 180.506 -1.69387 0.563039 0
M  V30 1783 C 177.606 -3.18364 1.16179 0
M  V30 1784 C 176.779 -3.66847 2.38206 0
M  V30 1785 C 175.838 -4.82398 2.10186 0
M  V30 1786 O 174.864 -4.93706 2.83272 0
M  V30 1787 N 176.066 -5.70064 1.0958 0
M  V30 1788 H 178.831 -1.83488 2.36965 0
M  V30 1789 H 176.392 -0.872149 1.36401 0
M  V30 1790 H 178.384 -3.93301 0.953756 0
M  V30 1791 H 176.954 -3.11365 0.27756 0
M  V30 1792 H 176.174 -2.82751 2.74673 0
M  V30 1793 H 177.462 -3.95978 3.19498 0
M  V30 1794 H 176.86 -5.63565 0.491019 0
M  V30 1795 H 175.417 -6.44874 0.947656 0
M  V30 1796 N 178.85 -1.27639 -0.924453 0
M  V30 1797 C 179.783 -1.04966 -2.02626 0
M  V30 1798 C 180.761 0.0309505 -1.62571 0
M  V30 1799 O 181.945 -0.114846 -1.8815 0
M  V30 1800 C 179.072 -0.59292 -3.3347 0
M  V30 1801 C 178.118 -1.66858 -3.92506 0
M  V30 1802 S 178.951 -3.2619 -4.24689 0
M  V30 1803 C 180.107 -2.82325 -5.58609 0
M  V30 1804 H 180.34 -1.98252 -2.21547 0
M  V30 1805 H 177.873 -1.11506 -1.06798 0
M  V30 1806 H 179.831 -0.336086 -4.09122 0
M  V30 1807 H 178.492 0.319939 -3.12466 0
M  V30 1808 H 177.685 -1.30038 -4.86935 0
M  V30 1809 H 177.287 -1.87766 -3.2345 0
M  V30 1810 H 179.579 -2.2783 -6.38044 0
M  V30 1811 H 180.522 -3.75511 -6.00331 0
M  V30 1812 H 180.93 -2.21367 -5.19285 0
M  V30 1813 N 180.328 1.1314 -1.09713 0
M  V30 1814 C 181.576 1.84119 -0.833338 0
M  V30 1815 C 181.897 1.84097 0.642904 0
M  V30 1816 O 181.167 1.29881 1.46655 0
M  V30 1817 H 179.747 0.681766 -0.305293 0
M  V30 1818 H 182.409 1.37038 -1.38588 0
M  V30 1819 H 181.505 2.88543 -1.18951 0
M  V30 1820 N 181.806 0.884767 1.30421 0
M  V30 1821 C 182.738 0.308655 2.27112 0
M  V30 1822 C 183.751 -0.536655 1.53701 0
M  V30 1823 O 184.94 -0.35624 1.74909 0
M  V30 1824 C 182.04 -0.579782 3.33904 0
M  V30 1825 C 181.213 0.236417 4.36761 0
M  V30 1826 C 180.272 -0.582482 5.22966 0
M  V30 1827 O 179.298 -0.00525502 5.692 0
M  V30 1828 N 180.5 -1.89163 5.48815 0
M  V30 1829 H 183.265 1.13964 2.77186 0
M  V30 1830 H 180.826 0.747731 1.43599 0
M  V30 1831 H 182.818 -1.13366 3.88497 0
M  V30 1832 H 181.388 -1.31144 2.83761 0
M  V30 1833 H 180.608 0.97174 3.82035 0
M  V30 1834 H 181.896 0.795924 5.02536 0
M  V30 1835 H 181.294 -2.38352 5.13035 0
M  V30 1836 H 179.851 -2.39296 6.06284 0
M  V30 1837 N 183.284 -1.43765 0.645699 0
M  V30 1838 C 184.695 -1.85193 0.236719 0
M  V30 1839 C 185.046 -1.54045 -1.21509 0
M  V30 1840 O 184.171 -0.985694 -1.92647 0
M  V30 1841 C 184.766 -3.36151 0.422845 0
M  V30 1842 C 183.325 -3.76338 0.0682492 0
M  V30 1843 C 182.472 -2.67538 0.729306 0
M  V30 1844 H 185.423 -1.34025 0.849883 0
M  V30 1845 H 185.444 -3.79032 -0.333904 0
M  V30 1846 H 184.956 -3.5879 1.47958 0
M  V30 1847 H 183.057 -3.59312 -0.986179 0
M  V30 1848 H 183.17 -4.76603 0.488469 0
M  V30 1849 H 181.534 -2.54176 0.163235 0
M  V30 1850 H 182.317 -2.93006 1.78892 0
M  V30 1851 N 184.763 -0.387143 -1.52771 0
M  V30 1852 C 186.009 0.188506 -2.02525 0
M  V30 1853 C 186.364 1.44649 -1.26864 0
M  V30 1854 O 185.657 1.88189 -0.359945 0
M  V30 1855 C 185.851 0.512209 -3.53711 0
M  V30 1856 C 185.68 -0.712855 -4.44014 0
M  V30 1857 C 184.45 -1.23147 -4.90064 0
M  V30 1858 C 186.648 -1.58453 -4.89282 0
M  V30 1859 N 184.63 -2.41431 -5.64433 0
M  V30 1860 C 186.001 -2.61381 -5.6221 0
M  V30 1861 C 188.056 -1.60488 -4.71326 0
M  V30 1862 C 186.759 -3.66227 -6.19088 0
M  V30 1863 C 188.785 -2.6424 -5.29085 0
M  V30 1864 C 188.147 -3.6589 -6.01917 0
M  V30 1865 H 184.246 0.0311236 -0.78138 0
M  V30 1866 H 186.83 -0.536548 -1.87161 0
M  V30 1867 H 185.001 1.20632 -3.69192 0
M  V30 1868 H 186.733 1.07482 -3.90166 0
M  V30 1869 H 183.488 -0.792795 -4.66917 0
M  V30 1870 H 183.912 -3.01274 -6.0627 0
M  V30 1871 H 188.554 -0.83247 -4.14524 0
M  V30 1872 H 186.272 -4.44337 -6.74974 0
M  V30 1873 H 189.858 -2.66695 -5.17074 0
M  V30 1874 H 188.738 -4.44855 -6.45813 0
M  V30 1875 N 186.241 1.57166 -0.116904 0
M  V30 1876 C 187.481 1.97008 0.544715 0
M  V30 1877 C 187.845 0.998713 1.63981 0
M  V30 1878 O 189.046 1.28644 2.36018 0
M  V30 1879 C 187.317 3.41145 1.06559 0
M  V30 1880 S 188.876 4.02998 1.73603 0
M  V30 1881 H 185.694 0.688587 0.177112 0
M  V30 1882 H 188.296 1.94459 -0.201487 0
M  V30 1883 H 187 4.09592 0.257374 0
M  V30 1884 H 186.531 3.4734 1.84712 0
M  V30 1885 H 188.546 3.93585 3.02168 0
M  V30 1886 N 187.719 -0.156864 1.56817 0
M  V30 1887 C 188.966 -0.871125 1.82805 0
M  V30 1888 C 189.294 -1.81611 0.696262 0
M  V30 1889 O 188.549 -1.93141 -0.315459 0
M  V30 1890 C 188.848 -1.68737 3.1506 0
M  V30 1891 C 188.514 -0.890045 4.42028 0
M  V30 1892 C 187.176 -0.670042 4.76512 0
M  V30 1893 C 189.528 -0.331769 5.20143 0
M  V30 1894 C 186.856 0.119104 5.86579 0
M  V30 1895 C 189.208 0.444365 6.31037 0
M  V30 1896 C 187.872 0.675035 6.64078 0
M  V30 1897 H 187.142 -0.318767 0.668931 0
M  V30 1898 H 189.789 -0.135274 1.91022 0
M  V30 1899 H 188.094 -2.49304 3.0225 0
M  V30 1900 H 189.791 -2.24331 3.3238 0
M  V30 1901 H 186.381 -1.07157 4.14988 0
M  V30 1902 H 190.565 -0.489043 4.93885 0
M  V30 1903 H 185.821 0.307417 6.10627 0
M  V30 1904 H 189.995 0.884139 6.90765 0
M  V30 1905 H 187.622 1.28839 7.49203 0
M  V30 1906 N 189.197 -1.51736 -0.425897 0
M  V30 1907 C 190.444 -1.6497 -1.17436 0
M  V30 1908 C 190.772 -0.371445 -1.9092 0
M  V30 1909 O 190.027 0.644963 -1.84767 0
M  V30 1910 C 190.326 -2.81103 -2.20717 0
M  V30 1911 C 189.992 -4.19954 -1.64162 0
M  V30 1912 C 188.654 -4.57725 -1.48462 0
M  V30 1913 C 191.006 -5.06552 -1.22696 0
M  V30 1914 C 188.334 -5.79789 -0.897873 0
M  V30 1915 C 190.686 -6.29205 -0.654464 0
M  V30 1916 C 189.35 -6.6574 -0.484456 0
M  V30 1917 H 188.62 -0.603668 -0.429727 0
M  V30 1918 H 191.267 -1.85798 -0.463829 0
M  V30 1919 H 189.572 -2.54542 -2.97852 0
M  V30 1920 H 191.269 -2.8854 -2.78471 0
M  V30 1921 H 187.859 -3.90181 -1.77361 0
M  V30 1922 H 192.043 -4.77968 -1.33642 0
M  V30 1923 H 187.299 -6.06733 -0.75402 0
M  V30 1924 H 191.473 -6.95643 -0.324694 0
M  V30 1925 H 189.1 -7.60195 -0.0276833 0
M  V30 1926 N 190.675 0.682077 -1.42076 0
M  V30 1927 C 192.086 1.26246 -1.37546 0
M  V30 1928 C 192.437 1.96092 -0.0651481 0
M  V30 1929 O 191.562 1.99587 0.836297 0
M  V30 1930 C 192.157 2.29594 -2.49143 0
M  V30 1931 C 190.716 2.83175 -2.47969 0
M  V30 1932 C 189.863 1.57395 -2.28303 0
M  V30 1933 H 192.814 0.475937 -1.51395 0
M  V30 1934 H 192.835 3.11175 -2.18976 0
M  V30 1935 H 192.347 1.78729 -3.44496 0
M  V30 1936 H 190.448 3.3818 -1.56413 0
M  V30 1937 H 190.561 3.32687 -3.44755 0
M  V30 1938 H 188.925 1.83699 -1.76428 0
M  V30 1939 H 189.708 1.08507 -3.25701 0
M  V30 1940 N 192.153 1.28127 0.917671 0
M  V30 1941 C 193.564 1.13622 1.48145 0
M  V30 1942 C 193.915 -0.275207 1.9426 0
M  V30 1943 O 193.04 -1.1691 1.82102 0
M  V30 1944 C 193.635 2.05648 2.69248 0
M  V30 1945 C 192.194 1.95219 3.21818 0
M  V30 1946 C 191.341 1.97618 1.94532 0
M  V30 1947 H 194.292 1.40874 0.730772 0
M  V30 1948 H 194.313 1.61818 3.44377 0
M  V30 1949 H 193.825 3.08365 2.35653 0
M  V30 1950 H 191.926 0.955244 3.60147 0
M  V30 1951 H 192.039 2.81976 3.87333 0
M  V30 1952 H 190.403 1.41973 2.11461 0
M  V30 1953 H 191.186 3.02007 1.63238 0
M  V30 1954 N 193.631 -1.12557 1.10312 0
M  V30 1955 C 194.856 -1.88405 0.867085 0
M  V30 1956 C 195.281 -1.79038 -0.576817 0
M  V30 1957 O 194.639 -1.14439 -1.40618 0
M  V30 1958 C 194.687 -3.3563 1.31851 0
M  V30 1959 O 193.791 -4.09565 0.482734 0
M  V30 1960 H 193.132 -0.585455 0.313271 0
M  V30 1961 H 195.662 -1.42352 1.4696 0
M  V30 1962 H 195.672 -3.86469 1.3079 0
M  V30 1963 H 194.347 -3.41765 2.37001 0
M  V30 1964 H 192.924 -3.68695 0.558448 0
M  V30 1965 N 195.109 -0.891671 -1.2995 0
M  V30 1966 C 196.339 -0.527893 -1.99742 0
M  V30 1967 C 196.747 0.88979 -1.66971 0
M  V30 1968 O 196.09 1.59766 -0.906667 0
M  V30 1969 C 196.152 -0.630804 -3.53922 0
M  V30 1970 C 195.816 -2.01401 -4.10228 0
M  V30 1971 C 196.813 -2.98422 -4.25724 0
M  V30 1972 C 194.498 -2.32121 -4.45449 0
M  V30 1973 C 196.492 -4.24293 -4.75662 0
M  V30 1974 C 194.179 -3.58237 -4.95086 0
M  V30 1975 C 195.177 -4.54137 -5.10146 0
M  V30 1976 O 194.865 -5.78014 -5.58708 0
M  V30 1977 H 194.597 -0.201953 -0.645129 0
M  V30 1978 H 197.151 -1.20076 -1.66646 0
M  V30 1979 H 195.381 0.0990616 -3.86573 0
M  V30 1980 H 197.07 -0.277338 -4.04951 0
M  V30 1981 H 197.836 -2.76001 -3.98809 0
M  V30 1982 H 193.715 -1.5824 -4.32991 0
M  V30 1983 H 197.259 -4.99153 -4.87332 0
M  V30 1984 H 193.156 -3.80491 -5.21437 0
M  V30 1985 H 193.924 -5.8049 -5.77039 0
M  V30 1986 N 196.587 1.43421 -0.653314 0
M  V30 1987 C 197.998 1.85065 -0.246537 0
M  V30 1988 C 198.349 1.54688 1.2069 0
M  V30 1989 O 197.474 0.995896 1.92122 0
M  V30 1990 C 198.069 3.35922 -0.440666 0
M  V30 1991 C 196.628 3.76297 -0.0882064 0
M  V30 1992 C 195.775 2.67147 -0.743484 0
M  V30 1993 H 198.726 1.33572 -0.856979 0
M  V30 1994 H 198.747 3.79204 0.313798 0
M  V30 1995 H 198.259 3.58 -1.49858 0
M  V30 1996 H 196.36 3.5983 0.96711 0
M  V30 1997 H 196.473 4.76338 -0.513738 0
M  V30 1998 H 194.837 2.54086 -0.176712 0
M  V30 1999 H 195.62 2.92053 -1.80443 0
M  V30 2000 N 198.065 0.39524 1.52563 0
M  V30 2001 C 199.29 -0.187456 2.06551 0
M  V30 2002 C 199.715 -1.39249 1.26457 0
M  V30 2003 O 199.073 -1.78947 0.291151 0
M  V30 2004 C 199.121 -0.529985 3.56684 0
M  V30 2005 O 198.225 -1.62307 3.79118 0
M  V30 2006 H 197.566 -0.0202537 0.663691 0
M  V30 2007 H 200.096 0.564426 1.96661 0
M  V30 2008 H 200.106 -0.792598 4.00227 0
M  V30 2009 H 198.781 0.350987 4.14416 0
M  V30 2010 H 197.358 -1.3537 3.47461 0
M  V30 2011 N 199.544 -1.57102 0.125237 0
M  V30 2012 C 200.774 -1.99472 -0.538015 0
M  V30 2013 C 201.182 -1.00395 -1.60366 0
M  V30 2014 O 200.525 0.0103875 -1.83697 0
M  V30 2015 C 200.587 -3.38262 -1.21734 0
M  V30 2016 C 200.251 -4.56021 -0.298897 0
M  V30 2017 C 201.248 -5.17817 0.464943 0
M  V30 2018 C 198.933 -5.01869 -0.208149 0
M  V30 2019 C 200.927 -6.23852 1.3072 0
M  V30 2020 C 198.614 -6.07763 0.637736 0
M  V30 2021 C 199.612 -6.68622 1.39403 0
M  V30 2022 O 199.3 -7.7247 2.22586 0
M  V30 2023 H 199.032 -0.659934 -0.146501 0
M  V30 2024 H 201.586 -2.04321 0.210267 0
M  V30 2025 H 199.816 -3.30185 -2.01282 0
M  V30 2026 H 201.505 -3.6488 -1.77813 0
M  V30 2027 H 202.271 -4.83308 0.404741 0
M  V30 2028 H 198.15 -4.54241 -0.786522 0
M  V30 2029 H 201.694 -6.71284 1.898 0
M  V30 2030 H 197.591 -6.41701 0.699309 0
M  V30 2031 H 198.359 -7.89595 2.15596 0
M  V30 2032 N 201.022 0.148545 -1.56898 0
M  V30 2033 C 201.969 1.18345 -1.98149 0
M  V30 2034 C 202.939 1.42772 -0.848848 0
M  V30 2035 O 204.124 1.55132 -1.11079 0
M  V30 2036 C 201.264 2.51231 -2.36594 0
M  V30 2037 C 200.377 2.33991 -3.63142 0
M  V30 2038 C 199.512 3.59902 -3.90697 0
M  V30 2039 C 198.551 3.37692 -5.1052 0
M  V30 2040 N 197.688 4.5573 -5.34092 0
M  V30 2041 H 202.528 0.82467 -2.86362 0
M  V30 2042 H 200.065 0.395756 -1.41676 0
M  V30 2043 H 202.023 3.28713 -2.56912 0
M  V30 2044 H 200.653 2.85059 -1.51463 0
M  V30 2045 H 199.705 1.47572 -3.50609 0
M  V30 2046 H 201.017 2.13539 -4.5078 0
M  V30 2047 H 200.171 4.45813 -4.11505 0
M  V30 2048 H 198.91 3.83357 -3.01477 0
M  V30 2049 H 197.915 2.5017 -4.89587 0
M  V30 2050 H 199.14 3.15637 -6.0129 0
M  V30 2051 H 197.086 4.79361 -4.47827 0
M  V30 2052 H 197.003 4.38274 -6.15996 0
M  V30 2053 H 198.271 5.42858 -5.59397 0
M  V30 2054 N 202.5 1.5196 0.417844 0
M  V30 2055 C 203.43 1.77634 1.51554 0
M  V30 2056 C 204.411 0.626918 1.58126 0
M  V30 2057 O 205.596 0.871632 1.7354 0
M  V30 2058 C 202.726 1.91911 2.8946 0
M  V30 2059 C 201.68 3.07463 2.97743 0
M  V30 2060 C 201.006 3.06951 4.37819 0
M  V30 2061 C 202.306 4.47082 2.70027 0
M  V30 2062 H 204 2.6955 1.3032 0
M  V30 2063 H 201.546 1.29706 0.625492 0
M  V30 2064 H 203.499 2.08455 3.6623 0
M  V30 2065 H 202.223 0.966598 3.11969 0
M  V30 2066 H 200.882 2.90656 2.23416 0
M  V30 2067 H 200.53 2.09438 4.57323 0
M  V30 2068 H 200.23 3.84556 4.44286 0
M  V30 2069 H 201.754 3.25613 5.16535 0
M  V30 2070 H 203.168 4.6414 3.36522 0
M  V30 2071 H 201.565 5.2654 2.87881 0
M  V30 2072 H 202.635 4.55777 1.65514 0
M  V30 2073 N 203.978 -0.674533 1.42435 0
M  V30 2074 C 204.888 -1.81751 1.48337 0
M  V30 2075 C 205.904 -1.69975 0.372099 0
M  V30 2076 O 207.08 -1.91521 0.62304 0
M  V30 2077 C 204.145 -3.17895 1.38361 0
M  V30 2078 C 203.206 -3.41625 2.59982 0
M  V30 2079 C 202.439 -4.71274 2.50473 0
M  V30 2080 O 202.662 -5.49197 1.54075 0
M  V30 2081 O 201.596 -4.96254 3.4061 0
M  V30 2082 H 205.422 -1.79728 2.44809 0
M  V30 2083 H 203.007 -0.830312 1.24202 0
M  V30 2084 H 204.889 -3.99136 1.35161 0
M  V30 2085 H 203.564 -3.20555 0.450144 0
M  V30 2086 H 202.471 -2.60231 2.68757 0
M  V30 2087 H 203.804 -3.43796 3.52229 0
M  V30 2088 N 205.456 -1.28612 -0.910864 0
M  V30 2089 C 206.404 -1.1265 -2.03501 0
M  V30 2090 C 207.398 -0.0450054 -1.6934 0
M  V30 2091 O 208.604 -0.203988 -1.7884 0
M  V30 2092 H 204.979 -0.347639 -0.666822 0
M  V30 2093 H 206.95 -2.07849 -2.14106 0
M  V30 2094 C 205.699 -0.808143 -3.38178 0
M  V30 2095 H 205.022 -1.63231 -3.6496 0
M  V30 2096 H 206.462 -0.736426 -4.17556 0
M  V30 2097 C 204.921 0.488226 -3.33344 0
M  V30 2098 O 205.451 1.51766 -3.71927 0
M  V30 2099 N 203.657 0.490009 -2.86439 0
M  V30 2100 H 203.204 -0.348161 -2.55236 0
M  V30 2101 H 203.162 1.35741 -2.83587 0
M  V30 2102 N 206.934 1.1197 -1.10907 0
M  V30 2103 C 207.864 2.19928 -0.784473 0
M  V30 2104 C 208.845 1.6833 0.244726 0
M  V30 2105 O 210.03 1.93892 0.109418 0
M  V30 2106 C 207.16 3.46597 -0.220827 0
M  V30 2107 C 206.114 4.11376 -1.18127 0
M  V30 2108 C 205.44 5.32554 -0.478594 0
M  V30 2109 C 206.74 4.56945 -2.52979 0
M  V30 2110 H 208.434 2.47337 -1.68715 0
M  V30 2111 H 205.98 1.18879 -0.812642 0
M  V30 2112 H 207.933 4.21396 0.0184278 0
M  V30 2113 H 206.657 3.1863 0.717113 0
M  V30 2114 H 205.316 3.38564 -1.40606 0
M  V30 2115 H 204.964 5.00856 0.463976 0
M  V30 2116 H 204.664 5.76844 -1.11912 0
M  V30 2117 H 206.188 6.10096 -0.248 0
M  V30 2118 H 207.602 5.23093 -2.3462 0
M  V30 2119 H 205.999 5.1203 -3.12962 0
M  V30 2120 H 207.069 3.70676 -3.12614 0
M  V30 2121 N 208.412 0.89855 1.29475 0
M  V30 2122 C 209.637 0.538561 2.00285 0
M  V30 2123 C 210.062 -0.869135 1.66816 0
M  V30 2124 O 209.42 -1.57831 0.892145 0
M  V30 2125 C 209.468 0.736475 3.52999 0
M  V30 2126 O 208.572 -0.211537 4.11857 0
M  V30 2127 H 207.913 0.210563 0.62973 0
M  V30 2128 H 210.443 1.20982 1.64998 0
M  V30 2129 H 210.453 0.640685 4.02938 0
M  V30 2130 H 209.128 1.76276 3.76696 0
M  V30 2131 H 207.705 -0.0682991 3.72837 0
M  V30 2132 N 209.89 -1.43072 0.660911 0
M  V30 2133 C 211.115 -2.06584 0.183805 0
M  V30 2134 C 211.54 -1.49257 -1.14472 0
M  V30 2135 O 210.898 -0.605528 -1.70889 0
M  V30 2136 C 210.946 -3.60418 0.114434 0
M  V30 2137 O 210.05 -4.01981 -0.921137 0
M  V30 2138 H 209.391 -0.656669 0.0983994 0
M  V30 2139 H 211.921 -1.83447 0.906006 0
M  V30 2140 H 211.931 -4.07946 -0.0663394 0
M  V30 2141 H 210.606 -4.01519 1.08422 0
M  V30 2142 H 209.183 -3.66029 -0.71253 0
M  V30 2143 N 211.368 -0.403325 -1.52352 0
M  V30 2144 C 212.593 0.176499 -2.06648 0
M  V30 2145 C 213.018 1.38577 -1.27193 0
M  V30 2146 O 212.376 1.7879 -0.300637 0
M  V30 2147 C 212.424 0.511061 -3.5696 0
M  V30 2148 O 211.528 1.60294 -3.79973 0
M  V30 2149 H 210.869 0.0167337 -0.663789 0
M  V30 2150 H 213.399 -0.574848 -1.96359 0
M  V30 2151 H 213.409 0.771362 -4.00642 0
M  V30 2152 H 212.084 -0.37296 -4.14224 0
M  V30 2153 H 210.661 1.33526 -3.48174 0
M  V30 2154 N 212.846 1.57033 -0.133567 0
M  V30 2155 C 213.756 2.19632 0.824564 0
M  V30 2156 C 214.772 1.17666 1.28182 0
M  V30 2157 O 215.948 1.50193 1.3418 0
M  V30 2158 C 213.013 2.79499 2.05137 0
M  V30 2159 C 212.074 3.96548 1.64464 0
M  V30 2160 C 211.307 4.5355 2.81297 0
M  V30 2161 O 211.53 4.09438 3.97136 0
M  V30 2162 O 210.464 5.44018 2.57542 0
M  V30 2163 H 214.29 3.01991 0.321766 0
M  V30 2164 H 211.875 1.49112 0.0927889 0
M  V30 2165 H 213.757 3.17602 2.7696 0
M  V30 2166 H 212.432 2.00162 2.54395 0
M  V30 2167 H 211.339 3.63186 0.897048 0
M  V30 2168 H 212.672 4.77364 1.19934 0
M  V30 2169 N 214.325 -0.140222 1.56975 0
M  V30 2170 C 215.258 -1.20266 1.93936 0
M  V30 2171 C 216.236 -1.41212 0.806099 0
M  V30 2172 O 217.42 -1.55713 1.06234 0
M  V30 2173 C 214.547 -2.56037 2.21726 0
M  V30 2174 C 213.593 -2.51646 3.44349 0
M  V30 2175 S 214.426 -1.97678 4.97678 0
M  V30 2176 C 215.582 -3.35165 5.28597 0
M  V30 2177 H 215.815 -0.887358 2.83749 0
M  V30 2178 H 213.348 -0.346119 1.50471 0
M  V30 2179 H 215.306 -3.34167 2.38416 0
M  V30 2180 H 213.967 -2.84755 1.32566 0
M  V30 2181 H 213.16 -3.51608 3.61092 0
M  V30 2182 H 212.762 -1.81628 3.26936 0
M  V30 2183 H 215.054 -4.31302 5.2248 0
M  V30 2184 H 215.997 -3.23269 6.30002 0
M  V30 2185 H 216.405 -3.32614 4.56101 0
M  V30 2186 N 215.803 -1.52179 -0.40978 0
M  V30 2187 C 217.051 -1.65878 -1.15451 0
M  V30 2188 C 217.372 -0.390771 -1.91044 0
M  V30 2189 O 216.642 0.594323 -1.86667 0
M  V30 2190 H 215.222 -0.611405 -0.429177 0
M  V30 2191 H 217.884 -1.89219 -0.467134 0
M  V30 2192 H 216.98 -2.49954 -1.86894 0
M  V30 2193 N 217.281 0.66697 -1.42791 0
M  V30 2194 C 218.511 1.45294 -1.46878 0
M  V30 2195 C 218.919 1.89027 -0.0809861 0
M  V30 2196 O 218.262 1.59219 0.916246 0
M  V30 2197 C 218.324 2.72908 -2.34012 0
M  V30 2198 C 217.988 2.51203 -3.81767 0
M  V30 2199 C 218.985 2.15302 -4.73224 0
M  V30 2200 C 216.67 2.65954 -4.26115 0
M  V30 2201 C 218.664 1.94431 -6.07022 0
M  V30 2202 C 216.351 2.44699 -5.59969 0
M  V30 2203 C 217.349 2.08992 -6.5024 0
M  V30 2204 O 217.037 1.87948 -7.81621 0
M  V30 2205 H 216.769 0.453306 -0.501487 0
M  V30 2206 H 219.323 0.826232 -1.88049 0
M  V30 2207 H 217.553 3.38089 -1.87703 0
M  V30 2208 H 219.242 3.34816 -2.29462 0
M  V30 2209 H 220.008 2.03495 -4.40244 0
M  V30 2210 H 215.887 2.92724 -3.56137 0
M  V30 2211 H 219.431 1.66484 -6.77443 0
M  V30 2212 H 215.328 2.56105 -5.9252 0
M  V30 2213 H 216.096 2.02483 -7.93059 0
M  V30 2214 N 218.759 1.29093 0.90403 0
M  V30 2215 C 219.987 1.19689 1.68766 0
M  V30 2216 C 220.402 -0.243113 1.87228 0
M  V30 2217 O 219.759 -1.16326 1.40621 0
M  V30 2218 C 219.81 1.90144 3.07453 0
M  V30 2219 O 219.531 3.2852 2.89838 0
M  V30 2220 C 221.032 1.87162 4.01852 0
M  V30 2221 H 218.252 0.415035 0.527244 0
M  V30 2222 H 220.796 1.7039 1.13082 0
M  V30 2223 H 218.951 1.43289 3.59926 0
M  V30 2224 H 219.365 3.63944 3.77684 0
M  V30 2225 H 220.839 2.41032 4.96596 0
M  V30 2226 H 221.316 0.84617 4.30972 0
M  V30 2227 H 221.922 2.33741 3.5531 0
M  V30 2228 N 220.237 -1.11381 1.11499 0
M  V30 2229 C 221.2 -2.15622 0.777153 0
M  V30 2230 C 222.2 -1.59504 -0.203779 0
M  V30 2231 O 223.39 -1.74188 0.020782 0
M  V30 2232 C 220.522 -3.40556 0.153116 0
M  V30 2233 H 221.715 -2.47021 1.70061 0
M  V30 2234 H 219.268 -1.26577 0.916952 0
M  V30 2235 H 220.003 -3.14767 -0.780536 0
M  V30 2236 H 219.788 -3.8257 0.859238 0
M  V30 2237 H 221.278 -4.17546 -0.0671044 0
M  V30 2238 N 221.715 -0.905404 -1.28997 0
M  V30 2239 C 222.943 -0.549846 -1.9946 0
M  V30 2240 C 223.358 0.866834 -1.67724 0
M  V30 2241 O 222.715 1.57298 -0.925404 0
M  V30 2242 C 222.766 -0.739387 -3.53858 0
M  V30 2243 O 222.487 -2.10031 -3.84472 0
M  V30 2244 C 223.988 -0.389541 -4.41585 0
M  V30 2245 H 221.208 -0.210429 -0.637151 0
M  V30 2246 H 223.752 -1.21632 -1.64396 0
M  V30 2247 H 221.907 -0.120023 -3.87214 0
M  V30 2248 H 222.321 -2.13385 -4.79132 0
M  V30 2249 H 223.795 -0.572972 -5.49018 0
M  V30 2250 H 224.272 0.673756 -4.34001 0
M  V30 2251 H 224.878 -0.986089 -4.1371 0
M  V30 2252 N 223.193 1.4272 -0.668489 0
M  V30 2253 C 224.123 2.335 -0.000100175 0
M  V30 2254 C 225.104 1.50328 0.795964 0
M  V30 2255 O 226.289 1.78949 0.754385 0
M  V30 2256 C 223.419 3.33874 0.956302 0
M  V30 2257 C 222.373 4.27152 0.269278 0
M  V30 2258 C 221.699 5.17684 1.33818 0
M  V30 2259 C 222.999 5.15373 -0.847805 0
M  V30 2260 H 224.693 2.89639 -0.758244 0
M  V30 2261 H 222.239 1.39269 -0.366079 0
M  V30 2262 H 224.192 3.9629 1.43292 0
M  V30 2263 H 222.916 2.76025 1.74579 0
M  V30 2264 H 221.575 3.66123 -0.187042 0
M  V30 2265 H 221.223 4.56165 2.1195 0
M  V30 2266 H 220.923 5.80918 0.883659 0
M  V30 2267 H 222.447 5.82974 1.81586 0
M  V30 2268 H 223.861 5.7151 -0.452681 0
M  V30 2269 H 222.258 5.87407 -1.22773 0
M  V30 2270 H 223.328 4.5415 -1.69929 0
M  V30 2271 N 224.671 0.411399 1.52136 0
M  V30 2272 C 225.899 -0.163076 2.06256 0
M  V30 2273 C 226.314 -1.3867 1.28125 0
M  V30 2274 O 225.671 -1.79423 0.333721 0
M  V30 2275 C 225.722 -0.511252 3.57867 0
M  V30 2276 O 225.443 0.66378 4.33042 0
M  V30 2277 C 226.944 -1.13921 4.28412 0
M  V30 2278 H 224.164 -0.0193897 0.67072 0
M  V30 2279 H 226.708 0.583007 1.96013 0
M  V30 2280 H 224.863 -1.20723 3.6811 0
M  V30 2281 H 225.277 0.372601 5.23175 0
M  V30 2282 H 226.751 -1.33302 5.35663 0
M  V30 2283 H 227.228 -2.11296 3.85033 0
M  V30 2284 H 227.834 -0.483373 4.22544 0
M  V30 2285 N 226.149 -1.5696 0.141893 0
M  V30 2286 C 227.565 -1.58151 -0.21456 0
M  V30 2287 C 227.765 -1.1559 -1.65049 0
M  V30 2288 O 226.821 -0.853832 -2.37626 0
M  V30 2289 C 228.134 -3.00674 0.0395576 0
M  V30 2290 C 229.682 -3.1299 -0.0245529 0
M  V30 2291 C 230.157 -4.57554 0.202167 0
M  V30 2292 N 231.648 -4.62961 0.148919 0
M  V30 2293 C 232.383 -5.7262 0.298924 0
M  V30 2294 N 231.879 -6.90947 0.50637 0
M  V30 2295 N 233.672 -5.61601 0.236886 0
M  V30 2296 H 225.823 -1.8292 1.07953 0
M  V30 2297 H 228.086 -0.846425 0.42693 0
M  V30 2298 H 227.792 -3.36183 1.03315 0
M  V30 2299 H 227.666 -3.70981 -0.682143 0
M  V30 2300 H 230.053 -2.77326 -1.00869 0
M  V30 2301 H 230.134 -2.4518 0.729396 0
M  V30 2302 H 229.778 -4.93922 1.18338 0
M  V30 2303 H 229.708 -5.23484 -0.572044 0
M  V30 2304 H 232.199 -3.77899 -0.00697015 0
M  V30 2305 H 232.512 -7.7038 0.611076 0
M  V30 2306 H 230.857 -6.92878 0.542628 0
M  V30 2307 H 234.048 -4.68039 0.0756209 0
M  V30 2308 H 234.221 -6.47015 0.357227 0
M  V30 2309 N 227.627 0.131896 -1.57047 0
M  V30 2310 C 228.855 0.856461 -1.88341 0
M  V30 2311 C 229.27 1.74042 -0.731757 0
M  V30 2312 O 228.627 1.80051 0.297945 0
M  V30 2313 C 228.678 1.70064 -3.18999 0
M  V30 2314 O 228.399 0.852278 -4.2973 0
M  V30 2315 C 229.9 2.53148 -3.63911 0
M  V30 2316 H 227.12 0.246885 -0.62393 0
M  V30 2317 H 229.664 0.120152 -2.04147 0
M  V30 2318 H 227.819 2.38984 -3.04902 0
M  V30 2319 H 228.233 1.43329 -5.04537 0
M  V30 2320 H 229.707 3.07931 -4.58129 0
M  V30 2321 H 230.184 3.29901 -2.89935 0
M  V30 2322 H 230.79 1.89492 -3.80753 0
M  V30 2323 N 229.106 1.52395 0.401703 0
M  V30 2324 C 230.334 1.70676 1.16949 0
M  V30 2325 C 230.749 0.419503 1.8408 0
M  V30 2326 O 230.106 -0.605061 1.72178 0
M  V30 2327 C 230.157 2.84753 2.22706 0
M  V30 2328 O 229.878 4.08495 1.58314 0
M  V30 2329 C 231.379 3.14608 3.12309 0
M  V30 2330 H 228.599 0.571787 0.351142 0
M  V30 2331 H 231.143 1.98987 0.471652 0
M  V30 2332 H 229.298 2.58941 2.88147 0
M  V30 2333 H 229.712 4.72117 2.28485 0
M  V30 2334 H 231.186 3.97923 3.82572 0
M  V30 2335 H 231.663 2.28464 3.75101 0
M  V30 2336 H 232.269 3.42212 2.52529 0
M  V30 2337 N 230.584 -0.659388 1.43143 0
M  V30 2338 C 231.995 -1.24041 1.39537 0
M  V30 2339 C 232.346 -1.95963 0.0963364 0
M  V30 2340 O 231.471 -2.00892 -0.804438 0
M  V30 2341 C 232.066 -2.25601 2.52764 0
M  V30 2342 C 230.625 -2.79195 2.52443 0
M  V30 2343 C 229.772 -1.53743 2.30778 0
M  V30 2344 H 232.723 -0.451792 1.52133 0
M  V30 2345 H 232.744 -3.07651 2.23899 0
M  V30 2346 H 232.256 -1.73226 3.47296 0
M  V30 2347 H 230.357 -3.35649 1.61773 0
M  V30 2348 H 230.47 -3.2716 3.50004 0
M  V30 2349 H 228.834 -1.80869 1.79328 0
M  V30 2350 H 229.617 -1.03312 3.27386 0
M  V30 2351 N 232.062 -1.29571 -0.897171 0
M  V30 2352 C 233.29 -1.20583 -1.68129 0
M  V30 2353 C 233.705 0.233181 -1.87354 0
M  V30 2354 O 233.062 1.15579 -1.41236 0
M  V30 2355 C 233.113 -1.91772 -3.06441 0
M  V30 2356 O 232.834 -3.30053 -2.88091 0
M  V30 2357 C 234.335 -1.89291 -4.00854 0
M  V30 2358 H 231.555 -0.417826 -0.525036 0
M  V30 2359 H 234.099 -1.70987 -1.12177 0
M  V30 2360 H 232.254 -1.45196 -3.59161 0
M  V30 2361 H 232.668 -3.65942 -3.75748 0
M  V30 2362 H 234.142 -2.43662 -4.95311 0
M  V30 2363 H 234.619 -0.869014 -4.30517 0
M  V30 2364 H 235.225 -2.35622 -3.54066 0
M  V30 2365 N 233.54 1.10788 -1.12088 0
M  V30 2366 C 234.787 1.82671 -0.873931 0
M  V30 2367 C 235.115 1.85004 0.600311 0
M  V30 2368 O 234.37 1.30365 1.45957 0
M  V30 2369 C 234.669 3.29294 -1.38926 0
M  V30 2370 C 234.335 3.47113 -2.87791 0
M  V30 2371 C 232.997 3.51684 -3.28439 0
M  V30 2372 C 235.349 3.52808 -3.83635 0
M  V30 2373 C 232.677 3.59513 -4.63646 0
M  V30 2374 C 235.029 3.62169 -5.18668 0
M  V30 2375 C 233.693 3.65003 -5.58864 0
M  V30 2376 H 232.963 0.668441 -0.319794 0
M  V30 2377 H 235.61 1.30613 -1.40045 0
M  V30 2378 H 233.915 3.83894 -0.783122 0
M  V30 2379 H 235.612 3.83416 -1.17443 0
M  V30 2380 H 232.202 3.4423 -2.5535 0
M  V30 2381 H 236.386 3.4853 -3.53328 0
M  V30 2382 H 231.642 3.59987 -4.94185 0
M  V30 2383 H 235.816 3.6552 -5.92763 0
M  V30 2384 H 233.443 3.70822 -6.63623 0
M  V30 2385 N 235.018 0.912232 1.28515 0
M  V30 2386 C 236.265 0.544599 1.95039 0
M  V30 2387 C 236.593 -0.911435 1.71823 0
M  V30 2388 O 235.848 -1.66317 1.03137 0
M  V30 2389 C 236.147 0.798392 3.48368 0
M  V30 2390 C 235.813 2.23374 3.91682 0
M  V30 2391 C 234.475 2.62617 4.03219 0
M  V30 2392 C 236.827 3.16786 4.13879 0
M  V30 2393 C 234.155 3.94429 4.3433 0
M  V30 2394 C 236.507 4.48161 4.46469 0
M  V30 2395 C 235.171 4.8726 4.56217 0
M  V30 2396 H 234.441 0.199283 0.7137 0
M  V30 2397 H 237.088 1.15327 1.52879 0
M  V30 2398 H 235.393 0.106908 3.91654 0
M  V30 2399 H 237.09 0.493141 3.97956 0
M  V30 2400 H 233.68 1.91922 3.83228 0
M  V30 2401 H 237.864 2.87677 4.0442 0
M  V30 2402 H 233.12 4.24426 4.40082 0
M  V30 2403 H 237.294 5.20559 4.62592 0
M  V30 2404 H 234.921 5.89431 4.80078 0
M  V30 2405 N 236.496 -1.42363 0.676048 0
M  V30 2406 C 237.907 -1.84649 0.275948 0
M  V30 2407 C 238.258 -1.56588 -1.18214 0
M  V30 2408 O 237.383 -1.02634 -1.90513 0
M  V30 2409 C 237.978 -3.35178 0.494053 0
M  V30 2410 C 236.537 -3.76109 0.148061 0
M  V30 2411 C 235.684 -2.65931 0.785891 0
M  V30 2412 H 238.635 -1.32192 0.878121 0
M  V30 2413 H 238.656 -3.79655 -0.25343 0
M  V30 2414 H 238.168 -3.55571 1.55535 0
M  V30 2415 H 236.269 -3.61323 -0.909742 0
M  V30 2416 H 236.382 -4.7546 0.589454 0
M  V30 2417 H 234.746 -2.53773 0.217113 0
M  V30 2418 H 235.529 -2.89146 1.85067 0
M  V30 2419 N 237.974 -0.419461 -1.51915 0
M  V30 2420 C 238.921 0.400927 -2.27291 0
M  V30 2421 C 239.891 1.03224 -1.30131 0
M  V30 2422 O 241.076 1.05455 -1.59009 0
M  V30 2423 C 238.216 1.50603 -3.10504 0
M  V30 2424 C 237.329 0.89462 -4.22635 0
M  V30 2425 C 236.464 1.97328 -4.93189 0
M  V30 2426 C 235.503 1.33935 -5.97267 0
M  V30 2427 N 234.64 2.3586 -6.61298 0
M  V30 2428 H 239.48 -0.248251 -2.96964 0
M  V30 2429 H 237.017 -0.134266 -1.46486 0
M  V30 2430 H 238.975 2.15783 -3.57062 0
M  V30 2431 H 237.605 2.12509 -2.42981 0
M  V30 2432 H 236.657 0.131583 -3.80172 0
M  V30 2433 H 237.969 0.391641 -4.9726 0
M  V30 2434 H 237.123 2.70211 -5.43204 0
M  V30 2435 H 235.862 2.50994 -4.18155 0
M  V30 2436 H 234.867 0.595896 -5.46561 0
M  V30 2437 H 236.092 0.810252 -6.74249 0
M  V30 2438 H 234.038 2.88639 -5.89087 0
M  V30 2439 H 233.955 1.90403 -7.3163 0
M  V30 2440 H 235.223 3.08282 -7.15949 0
M  V30 2441 N 239.452 1.56882 -0.150215 0
M  V30 2442 C 240.729 1.87844 0.545327 0
M  V30 2443 C 241.109 1.0567 1.82749 0
M  V30 2444 O 240.457 0.144442 2.28043 0
M  V30 2445 C 240.667 3.39526 0.80767 0
M  V30 2446 C 242.015 4.08814 1.14703 0
M  V30 2447 O 243.039 3.44723 0.896917 0
M  V30 2448 O 241.898 5.22004 1.61784 0
M  V30 2449 H 238.992 0.778677 0.278553 0
M  V30 2450 H 241.538 1.68666 -0.187068 0
M  V30 2451 H 240.31 3.91173 -0.0996096 0
M  V30 2452 H 239.933 3.64243 1.59413 0
M  V30 2453 N 240.93 -0.123565 1.57115 0
M  V30 2454 C 242.179 -0.830704 1.83799 0
M  V30 2455 C 242.492 -1.81259 0.735158 0
M  V30 2456 O 243.698 -2.56558 0.888278 0
M  V30 2457 C 242.154 -1.52802 3.25852 0
M  V30 2458 C 241.762 -0.587356 4.44133 0
M  V30 2459 C 243.506 -2.22056 3.61789 0
M  V30 2460 C 241.413 -1.28764 5.77212 0
M  V30 2461 H 240.343 -0.313967 0.685522 0
M  V30 2462 H 242.994 -0.0834359 1.8331 0
M  V30 2463 H 241.376 -2.32175 3.20797 0
M  V30 2464 H 242.55 0.172829 4.60476 0
M  V30 2465 H 240.865 -0.00201892 4.164 0
M  V30 2466 H 243.462 -2.75131 4.58483 0
M  V30 2467 H 243.805 -2.99644 2.88997 0
M  V30 2468 H 244.338 -1.49576 3.68608 0
M  V30 2469 H 241.077 -0.55314 6.53162 0
M  V30 2470 H 240.597 -2.01995 5.64764 0
M  V30 2471 H 242.276 -1.8221 6.20813 0
M  V30 2472 N 242.408 -1.52605 -0.393616 0
M  V30 2473 C 243.338 -1.80022 -1.48709 0
M  V30 2474 C 244.319 -0.651995 -1.57108 0
M  V30 2475 O 245.504 -0.89913 -1.72132 0
M  V30 2476 C 242.634 -1.96492 -2.86371 0
M  V30 2477 C 241.588 -3.12161 -2.92813 0
M  V30 2478 C 240.914 -3.13877 -4.3288 0
M  V30 2479 C 242.214 -4.51322 -2.6288 0
M  V30 2480 H 243.908 -2.71589 -1.26015 0
M  V30 2481 H 241.454 -1.30684 -0.604778 0
M  V30 2482 H 243.407 -2.14255 -3.62867 0
M  V30 2483 H 242.131 -1.01611 -3.10391 0
M  V30 2484 H 240.79 -2.94173 -2.18764 0
M  V30 2485 H 240.438 -2.16687 -4.53933 0
M  V30 2486 H 240.138 -3.91576 -4.38112 0
M  V30 2487 H 241.662 -3.33789 -5.1129 0
M  V30 2488 H 243.076 -4.69435 -3.29096 0
M  V30 2489 H 241.473 -5.31053 -2.79468 0
M  V30 2490 H 242.543 -4.58353 -1.58242 0
M  V30 2491 N 243.887 0.651787 -1.4349 0
M  V30 2492 C 245.115 1.43937 -1.48626 0
M  V30 2493 C 245.53 1.8851 -0.104587 0
M  V30 2494 O 244.887 1.5958 0.885464 0
M  V30 2495 C 244.938 2.6734 -2.43334 0
M  V30 2496 O 244.659 2.24631 -3.76128 0
M  V30 2497 C 246.16 3.60683 -2.57726 0
M  V30 2498 H 243.38 0.44213 -0.504739 0
M  V30 2499 H 245.924 0.798944 -1.88248 0
M  V30 2500 H 244.079 3.2752 -2.06904 0
M  V30 2501 H 244.493 3.04485 -4.2707 0
M  V30 2502 H 245.967 4.43933 -3.28067 0
M  V30 2503 H 246.444 4.08126 -1.62265 0
M  V30 2504 H 247.05 3.06384 -2.94973 0
M  V30 2505 N 245.365 1.30045 0.890287 0
M  V30 2506 C 246.295 1.18541 2.01172 0
M  V30 2507 C 247.276 0.0773356 1.69924 0
M  V30 2508 O 248.461 0.25845 1.92473 0
M  V30 2509 C 245.591 0.870941 3.36202 0
M  V30 2510 C 244.545 1.93637 3.81692 0
M  V30 2511 C 243.871 1.475 5.13953 0
M  V30 2512 C 245.171 3.34666 4.00994 0
M  V30 2513 H 246.865 2.12359 2.11054 0
M  V30 2514 H 244.411 1.02238 1.01407 0
M  V30 2515 H 246.364 0.777141 4.14172 0
M  V30 2516 H 245.088 -0.102926 3.26438 0
M  V30 2517 H 243.747 2.01972 3.05946 0
M  V30 2518 H 243.395 0.489551 5.00612 0
M  V30 2519 H 243.095 2.1876 5.4536 0
M  V30 2520 H 244.619 1.39489 5.94454 0
M  V30 2521 H 246.033 3.2912 4.69417 0
M  V30 2522 H 244.43 4.03966 4.43769 0
M  V30 2523 H 245.5 3.76949 3.05021 0
M  V30 2524 N 246.843 -1.10192 1.12674 0
M  V30 2525 C 248.259 -1.34235 0.863317 0
M  V30 2526 C 248.459 -1.95062 -0.505277 0
M  V30 2527 O 247.515 -2.19192 -1.25345 0
M  V30 2528 C 248.828 -2.2616 1.98172 0
M  V30 2529 C 250.376 -2.3969 2.0129 0
M  V30 2530 C 250.851 -3.34946 3.1237 0
M  V30 2531 N 252.342 -3.42515 3.11829 0
M  V30 2532 C 253.077 -4.16199 3.94419 0
M  V30 2533 N 252.573 -4.92747 4.87004 0
M  V30 2534 N 254.366 -4.11843 3.82547 0
M  V30 2535 H 246.517 -0.690798 2.00853 0
M  V30 2536 H 248.78 -0.366774 0.874174 0
M  V30 2537 H 248.486 -1.8868 2.96804 0
M  V30 2538 H 248.36 -3.26488 1.88906 0
M  V30 2539 H 250.747 -2.76438 1.03276 0
M  V30 2540 H 250.828 -1.39169 2.14629 0
M  V30 2541 H 250.472 -2.98923 4.10619 0
M  V30 2542 H 250.402 -4.35353 2.96269 0
M  V30 2543 H 252.893 -2.87926 2.44759 0
M  V30 2544 H 253.206 -5.46376 5.46528 0
M  V30 2545 H 251.551 -4.91862 4.91016 0
M  V30 2546 H 254.742 -3.51136 3.0955 0
M  V30 2547 H 254.915 -4.69007 4.47142 0
M  V30 2548 N 248.321 -0.919034 -1.28029 0
M  V30 2549 C 249.251 -0.428581 -2.29533 0
M  V30 2550 C 250.232 0.50659 -1.62381 0
M  V30 2551 O 251.417 0.413195 -1.89753 0
M  V30 2552 C 248.547 0.327388 -3.45753 0
M  V30 2553 C 247.501 -0.519137 -4.2484 0
M  V30 2554 C 246.827 0.365486 -5.33449 0
M  V30 2555 C 248.127 -1.77914 -4.91064 0
M  V30 2556 H 249.821 -1.27687 -2.70807 0
M  V30 2557 H 247.367 -0.615428 -1.30186 0
M  V30 2558 H 249.32 0.681378 -4.15855 0
M  V30 2559 H 248.044 1.20963 -3.03374 0
M  V30 2560 H 246.703 -0.855717 -3.56473 0
M  V30 2561 H 246.351 1.24642 -4.87312 0
M  V30 2562 H 246.051 -0.197356 -5.87268 0
M  V30 2563 H 247.575 0.715241 -6.06396 0
M  V30 2564 H 248.989 -1.49374 -5.53498 0
M  V30 2565 H 247.386 -2.2848 -5.54903 0
M  V30 2566 H 248.456 -2.50382 -4.15255 0
M  V30 2567 N 249.799 1.42003 -0.683588 0
M  V30 2568 C 251.076 1.95112 -0.138075 0
M  V30 2569 C 251.456 1.62359 1.34918 0
M  V30 2570 O 250.804 0.924311 2.08971 0
M  V30 2571 C 251.014 3.46505 -0.416581 0
M  V30 2572 C 252.362 4.23254 -0.337834 0
M  V30 2573 O 253.386 3.54468 -0.35082 0
M  V30 2574 O 252.245 5.45743 -0.287596 0
M  V30 2575 H 249.339 0.826961 -0.00797996 0
M  V30 2576 H 251.885 1.51784 -0.758924 0
M  V30 2577 H 250.657 3.63582 -1.4465 0
M  V30 2578 H 250.28 3.969 0.235839 0
M  V30 2579 N 251.277 0.427512 1.51691 0
M  V30 2580 C 252.523 -0.142439 2.02299 0
M  V30 2581 C 252.856 -1.43214 1.31162 0
M  V30 2582 O 252.131 -1.89833 0.423511 0
M  V30 2583 C 252.414 -0.371301 3.58181 0
M  V30 2584 C 252.267 0.936358 4.39946 0
M  V30 2585 C 253.586 -1.14542 4.24933 0
M  V30 2586 H 250.705 -0.0502937 0.735282 0
M  V30 2587 H 253.347 0.564584 1.81418 0
M  V30 2588 H 251.497 -0.973559 3.76104 0
M  V30 2589 H 253.169 1.57184 4.33694 0
M  V30 2590 H 251.412 1.5432 4.05423 0
M  V30 2591 H 252.083 0.730388 5.47147 0
M  V30 2592 H 254.559 -0.635362 4.11221 0
M  V30 2593 H 253.435 -1.27431 5.33903 0
M  V30 2594 H 253.696 -2.17093 3.85127 0
M  V30 2595 N 252.755 -1.56801 0.158532 0
M  V30 2596 C 253.688 -2.13148 -0.815065 0
M  V30 2597 C 254.666 -1.0581 -1.23462 0
M  V30 2598 O 255.85 -1.3371 -1.32868 0
M  V30 2599 C 252.977 -2.6606 -2.09594 0
M  V30 2600 C 252.023 -3.85651 -1.82141 0
M  V30 2601 S 252.856 -5.26041 -1.00207 0
M  V30 2602 C 254.012 -5.8235 -2.29389 0
M  V30 2603 H 254.245 -2.95396 -0.335937 0
M  V30 2604 H 251.778 -1.54299 -0.0559391 0
M  V30 2605 H 253.736 -2.97195 -2.8317 0
M  V30 2606 H 252.397 -1.83921 -2.54621 0
M  V30 2607 H 251.59 -4.20958 -2.77147 0
M  V30 2608 H 251.192 -3.55338 -1.16667 0
M  V30 2609 H 253.484 -5.94485 -3.24952 0
M  V30 2610 H 254.427 -6.79688 -1.9857 0
M  V30 2611 H 254.835 -5.10675 -2.40564 0
M  V30 2612 N 254.233 0.115231 -1.57178 0
M  V30 2613 C 255.166 1.17166 -1.95825 0
M  V30 2614 C 256.144 1.39912 -0.828463 0
M  V30 2615 O 257.328 1.54004 -1.08697 0
M  V30 2616 C 254.455 2.52478 -2.25771 0
M  V30 2617 C 253.501 2.46136 -3.48309 0
M  V30 2618 S 254.334 1.89736 -5.0076 0
M  V30 2619 C 255.49 3.26713 -5.33863 0
M  V30 2620 H 255.723 0.842103 -2.85124 0
M  V30 2621 H 253.256 0.322136 -1.51002 0
M  V30 2622 H 255.214 3.30332 -2.43702 0
M  V30 2623 H 253.875 2.82609 -1.37079 0
M  V30 2624 H 253.068 3.45819 -3.66641 0
M  V30 2625 H 252.67 1.76404 -3.29784 0
M  V30 2626 H 254.962 4.22935 -5.29275 0
M  V30 2627 H 255.905 3.13205 -6.35065 0
M  V30 2628 H 256.313 3.25316 -4.61335 0
M  V30 2629 N 255.711 1.52812 0.385517 0
M  V30 2630 C 256.621 1.80766 1.49535 0
M  V30 2631 C 257.637 0.694651 1.59532 0
M  V30 2632 O 258.813 0.982611 1.75803 0
M  V30 2633 C 255.878 1.97381 2.85029 0
M  V30 2634 C 254.939 3.21295 2.84724 0
M  V30 2635 C 254.172 3.37108 4.13756 0
M  V30 2636 O 254.395 2.5765 5.08893 0
M  V30 2637 O 253.329 4.30378 4.20783 0
M  V30 2638 H 257.155 2.75015 1.28842 0
M  V30 2639 H 254.74 1.37946 0.573697 0
M  V30 2640 H 256.622 2.09996 3.65349 0
M  V30 2641 H 255.297 1.06322 3.05741 0
M  V30 2642 H 254.204 3.1412 2.03174 0
M  V30 2643 H 255.537 4.12212 2.68965 0
M  V30 2644 N 257.189 -0.644168 1.43834 0
M  V30 2645 C 258.417 -1.43147 1.49387 0
M  V30 2646 C 258.832 -1.88452 0.114583 0
M  V30 2647 O 258.189 -1.60047 -0.876989 0
M  V30 2648 C 258.24 -2.66046 2.44748 0
M  V30 2649 O 257.961 -2.22633 3.77314 0
M  V30 2650 C 259.462 -3.59311 2.59635 0
M  V30 2651 H 256.682 -0.439447 0.507077 0
M  V30 2652 H 259.226 -0.78895 1.88669 0
M  V30 2653 H 257.381 -3.26418 2.08638 0
M  V30 2654 H 257.795 -3.02216 4.28679 0
M  V30 2655 H 259.269 -4.42187 3.30416 0
M  V30 2656 H 259.746 -4.07259 1.64427 0
M  V30 2657 H 260.352 -3.04816 2.96593 0
M  V30 2658 N 258.668 -1.30515 -0.883378 0
M  V30 2659 C 259.578 -1.18959 -2.02203 0
M  V30 2660 C 260.594 -0.109172 -1.73657 0
M  V30 2661 O 261.77 -0.324413 -1.9877 0
M  V30 2662 C 258.835 -0.883871 -3.35244 0
M  V30 2663 C 257.896 -2.04982 -3.77201 0
M  V30 2664 C 257.129 -1.75859 -5.03894 0
M  V30 2665 O 257.352 -0.687276 -5.66244 0
M  V30 2666 O 256.286 -2.61146 -5.42297 0
M  V30 2667 H 260.112 -2.14616 -2.1488 0
M  V30 2668 H 257.697 -1.10124 -1.0096 0
M  V30 2669 H 259.579 -0.728644 -4.15053 0
M  V30 2670 H 258.254 0.0427798 -3.23672 0
M  V30 2671 H 257.161 -2.26038 -2.9809 0
M  V30 2672 H 258.494 -2.95825 -3.93381 0
M  V30 2673 N 260.146 1.09593 -1.13257 0
M  V30 2674 C 261.094 2.18271 -0.803783 0
M  V30 2675 C 262.088 1.68054 0.213148 0
M  V30 2676 O 263.294 1.79862 0.0704699 0
M  V30 2677 H 259.669 0.711949 -0.242143 0
M  V30 2678 H 261.64 2.43235 -1.72856 0
M  V30 2679 C 260.389 3.46536 -0.28424 0
M  V30 2680 H 259.712 3.85545 -1.05807 0
M  V30 2681 H 261.152 4.23899 -0.0925945 0
M  V30 2682 C 259.611 3.22036 0.989684 0
M  V30 2683 O 260.141 3.44509 2.06584 0
M  V30 2684 N 258.347 2.7565 0.920086 0
M  V30 2685 H 257.894 2.57562 0.0442019 0
M  V30 2686 H 257.852 2.59635 1.77306 0
M  V30 2687 N 261.624 0.925811 1.2754 0
M  V30 2688 C 263.04 0.625767 1.46821 0
M  V30 2689 C 263.24 -0.825506 1.83814 0
M  V30 2690 O 262.296 -1.60356 1.95044 0
M  V30 2691 C 263.609 1.57402 2.56213 0
M  V30 2692 C 265.157 1.58204 2.70075 0
M  V30 2693 C 265.632 2.51721 3.82623 0
M  V30 2694 N 267.123 2.49917 3.89994 0
M  V30 2695 C 267.858 3.18968 4.76494 0
M  V30 2696 N 267.354 3.97391 5.67496 0
M  V30 2697 N 269.147 3.07996 4.70208 0
M  V30 2698 H 261.298 1.86409 1.01811 0
M  V30 2699 H 263.561 0.800213 0.508295 0
M  V30 2700 H 263.267 2.60925 2.35819 0
M  V30 2701 H 263.141 1.31428 3.53563 0
M  V30 2702 H 265.528 0.554124 2.89851 0
M  V30 2703 H 265.609 1.88226 1.73218 0
M  V30 2704 H 265.253 3.54622 3.63601 0
M  V30 2705 H 265.183 2.18996 4.78903 0
M  V30 2706 H 267.674 1.9296 3.24923 0
M  V30 2707 H 267.987 4.4707 6.30356 0
M  V30 2708 H 266.332 4.01495 5.67298 0
M  V30 2709 H 269.523 2.46223 3.9811 0
M  V30 2710 H 269.696 3.6208 5.37403 0
M  V30 2711 N 263.102 -1.41638 0.69111 0
M  V30 2712 C 264.032 -2.3347 0.037248 0
M  V30 2713 C 265.013 -1.51575 -0.771947 0
M  V30 2714 O 266.198 -1.80126 -0.72582 0
M  V30 2715 C 263.328 -3.35354 -0.903064 0
M  V30 2716 C 262.282 -4.27526 -0.201288 0
M  V30 2717 C 261.608 -5.19747 -1.25565 0
M  V30 2718 C 262.908 -5.13959 0.929689 0
M  V30 2719 H 264.602 -2.88397 0.804227 0
M  V30 2720 H 262.148 -1.38669 0.388189 0
M  V30 2721 H 264.101 -3.98519 -1.36969 0
M  V30 2722 H 262.825 -2.78767 -1.70166 0
M  V30 2723 H 261.484 -3.65779 0.245265 0
M  V30 2724 H 261.132 -4.59479 -2.04666 0
M  V30 2725 H 260.832 -5.8225 -0.791128 0
M  V30 2726 H 262.356 -5.85789 -1.72288 0
M  V30 2727 H 263.77 -5.70718 0.543546 0
M  V30 2728 H 262.167 -5.85379 1.32103 0
M  V30 2729 H 263.237 -4.51389 1.77133 0
M  V30 2730 N 264.58 -0.43555 -1.51462 0
M  V30 2731 C 265.53 0.394701 -2.24558 0
M  V30 2732 C 266.514 0.99157 -1.26715 0
M  V30 2733 O 267.706 0.910007 -1.51815 0
M  V30 2734 C 264.835 1.4963 -3.08975 0
M  V30 2735 C 263.921 0.908912 -4.14246 0
M  V30 2736 N 264.312 0.0505335 -5.05775 0
M  V30 2737 C 262.61 1.17668 -4.30198 0
M  V30 2738 C 263.311 -0.279161 -5.8103 0
M  V30 2739 N 262.287 0.336767 -5.42556 0
M  V30 2740 H 266.089 -0.267106 -2.92684 0
M  V30 2741 H 263.603 -0.247518 -1.60503 0
M  V30 2742 H 265.6 2.10394 -3.59917 0
M  V30 2743 H 264.26 2.16046 -2.42393 0
M  V30 2744 H 265.271 -0.31577 -5.16936 0
M  V30 2745 H 261.948 1.83847 -3.74842 0
M  V30 2746 H 263.338 -0.977553 -6.64751 0
M  V30 2747 N 266.058 1.56714 -0.166846 0
M  V30 2748 C 267.305 1.96747 0.479252 0
M  V30 2749 C 267.633 1.05263 1.63554 0
M  V30 2750 O 266.888 0.0858098 1.95512 0
M  V30 2751 C 267.187 3.42889 1.00806 0
M  V30 2752 C 266.853 4.50889 -0.0318574 0
M  V30 2753 C 265.515 4.8015 -0.317675 0
M  V30 2754 C 267.867 5.15949 -0.737956 0
M  V30 2755 C 265.195 5.71772 -1.31506 0
M  V30 2756 C 267.547 6.08647 -1.72429 0
M  V30 2757 C 266.211 6.36277 -2.0176 0
M  V30 2758 H 265.481 0.719949 0.175371 0
M  V30 2759 H 268.128 1.89756 -0.257864 0
M  V30 2760 H 266.433 3.4681 1.82291 0
M  V30 2761 H 268.13 3.71203 1.51689 0
M  V30 2762 H 264.72 4.28128 0.201088 0
M  V30 2763 H 268.904 4.93458 -0.530351 0
M  V30 2764 H 264.16 5.91465 -1.54853 0
M  V30 2765 H 268.334 6.58129 -2.27682 0
M  V30 2766 H 265.961 7.07075 -2.79194 0
M  V30 2767 N 267.536 -0.106894 1.57237 0
M  V30 2768 C 268.764 -0.826389 1.8968 0
M  V30 2769 C 269.179 -1.72856 0.759353 0
M  V30 2770 O 268.536 -1.80503 -0.269263 0
M  V30 2771 C 268.587 -1.64967 3.21665 0
M  V30 2772 O 268.308 -0.783804 4.31031 0
M  V30 2773 C 269.809 -2.47326 3.67892 0
M  V30 2774 H 267.029 -0.236927 0.627779 0
M  V30 2775 H 269.573 -0.0876593 2.04312 0
M  V30 2776 H 267.728 -2.34103 3.08666 0
M  V30 2777 H 268.142 -1.35284 5.06753 0
M  V30 2778 H 269.616 -3.00604 4.6297 0
M  V30 2779 H 270.093 -3.25247 2.95146 0
M  V30 2780 H 270.699 -1.83411 3.83719 0
M  V30 2781 N 269.014 -1.53014 -0.377408 0
M  V30 2782 C 270.263 -1.67845 -1.11853 0
M  V30 2783 C 270.576 -0.430625 -1.90801 0
M  V30 2784 O 271.782 -0.459261 -2.67587 0
M  V30 2785 C 270.238 -2.96668 -2.03756 0
M  V30 2786 C 269.846 -4.28671 -1.30175 0
M  V30 2787 C 271.59 -3.20865 -2.77932 0
M  V30 2788 C 269.497 -5.48591 -2.20911 0
M  V30 2789 H 268.427 -0.625343 -0.421263 0
M  V30 2790 H 271.078 -1.79514 -0.380409 0
M  V30 2791 H 269.46 -2.78773 -2.8125 0
M  V30 2792 H 270.634 -4.57157 -0.578259 0
M  V30 2793 H 268.949 -4.10825 -0.679108 0
M  V30 2794 H 271.546 -4.07642 -3.46024 0
M  V30 2795 H 271.889 -2.36424 -3.4265 0
M  V30 2796 H 272.422 -3.39379 -2.07525 0
M  V30 2797 H 269.161 -6.35474 -1.6079 0
M  V30 2798 H 268.681 -5.244 -2.91144 0
M  V30 2799 H 270.36 -5.8292 -2.80736 0
M  V30 2800 N 270.492 0.636531 -1.44174 0
M  V30 2801 C 271.439 1.74875 -1.50624 0
M  V30 2802 C 272.409 1.62275 -0.35442 0
M  V30 2803 O 273.594 1.82276 -0.563908 0
M  V30 2804 C 270.734 3.13102 -1.45125 0
M  V30 2805 C 269.847 3.36717 -2.7064 0
M  V30 2806 C 268.982 4.64885 -2.57013 0
M  V30 2807 C 268.021 4.8166 -3.77717 0
M  V30 2808 N 267.158 6.01101 -3.62798 0
M  V30 2809 H 271.998 1.68697 -2.45653 0
M  V30 2810 H 269.535 0.823004 -1.21922 0
M  V30 2811 H 271.493 3.93034 -1.39929 0
M  V30 2812 H 270.123 3.18308 -0.536671 0
M  V30 2813 H 269.175 2.50763 -2.86046 0
M  V30 2814 H 270.487 3.44993 -3.60252 0
M  V30 2815 H 269.641 5.52969 -2.49619 0
M  V30 2816 H 268.38 4.58957 -1.64953 0
M  V30 2817 H 267.385 3.92007 -3.85501 0
M  V30 2818 H 268.61 4.89406 -4.70807 0
M  V30 2819 H 266.556 5.96273 -2.73486 0
M  V30 2820 H 266.473 6.10409 -4.46023 0
M  V30 2821 H 267.741 6.91761 -3.59286 0
M  V30 2822 N 271.97 1.30982 0.876444 0
M  V30 2823 C 273.247 1.10942 1.61094 0
M  V30 2824 C 273.627 -0.338223 2.08373 0
M  V30 2825 O 272.975 -1.33122 1.85717 0
M  V30 2826 C 273.185 2.11789 2.77392 0
M  V30 2827 C 274.533 2.43965 3.47514 0
M  V30 2828 O 275.557 2.10166 2.87591 0
M  V30 2829 O 274.416 3.01817 4.55597 0
M  V30 2830 H 271.51 0.42667 0.708436 0
M  V30 2831 H 274.056 1.42438 0.922474 0
M  V30 2832 H 272.828 3.09194 2.39823 0
M  V30 2833 H 272.451 1.81161 3.5393 0
M  V30 2834 N 273.449 -1.08991 1.13837 0
M  V30 2835 C 274.86 -1.62746 0.914917 0
M  V30 2836 C 275.211 -1.88403 -0.547594 0
M  V30 2837 O 274.336 -1.63706 -1.41525 0
M  V30 2838 C 274.931 -2.95662 1.65437 0
M  V30 2839 C 273.49 -3.46225 1.47666 0
M  V30 2840 C 272.637 -2.20562 1.6807 0
M  V30 2841 H 275.588 -0.922946 1.29102 0
M  V30 2842 H 275.609 -3.63825 1.11407 0
M  V30 2843 H 275.121 -2.76956 2.71877 0
M  V30 2844 H 273.222 -3.70046 0.435478 0
M  V30 2845 H 273.335 -4.23368 2.24268 0
M  V30 2846 H 271.699 -2.29439 1.10589 0
M  V30 2847 H 272.482 -2.0437 2.7584 0
M  V30 2848 N 274.927 -0.932562 -1.27047 0
M  V30 2849 C 275.89 -0.440064 -2.24936 0
M  V30 2850 C 276.89 0.444071 -1.54547 0
M  V30 2851 O 278.08 0.244465 -1.72476 0
M  V30 2852 C 275.212 0.36678 -3.38921 0
M  V30 2853 H 276.405 -1.305 -2.70018 0
M  V30 2854 H 273.958 -0.713707 -1.39054 0
M  V30 2855 H 274.693 1.25033 -2.99228 0
M  V30 2856 H 274.478 -0.267204 -3.91188 0
M  V30 2857 H 275.968 0.701567 -4.11665 0
M  V30 2858 N 276.405 1.4127 -0.698611 0
M  V30 2859 C 277.353 2.32588 -0.023855 0
M  V30 2860 C 278.347 1.51128 0.765292 0
M  V30 2861 O 279.553 1.67043 0.670571 0
M  V30 2862 H 275.928 0.751918 0.0110871 0
M  V30 2863 H 277.899 2.87167 -0.811031 0
M  V30 2864 C 276.648 3.35947 0.896369 0
M  V30 2865 H 275.971 3.98684 0.298548 0
M  V30 2866 H 277.411 4.02376 1.33676 0
M  V30 2867 C 275.87 2.70076 2.01396 0
M  V30 2868 O 276.4 2.55093 3.10307 0
M  V30 2869 N 274.606 2.28724 1.79259 0
M  V30 2870 H 274.153 2.4111 0.906841 0
M  V30 2871 H 274.111 1.84986 2.54219 0
M  V30 2872 N 277.883 0.443576 1.51229 0
M  V30 2873 C 279.299 0.0962001 1.5931 0
M  V30 2874 C 279.499 -1.39501 1.45402 0
M  V30 2875 O 278.555 -2.16557 1.29843 0
M  V30 2876 C 279.868 0.621875 2.94199 0
M  V30 2877 C 281.416 0.582865 3.07525 0
M  V30 2878 C 281.891 1.08562 4.44948 0
M  V30 2879 N 283.382 1.04387 4.51284 0
M  V30 2880 C 284.117 1.40368 5.55954 0
M  V30 2881 N 283.613 1.83664 6.68011 0
M  V30 2882 N 285.406 1.32145 5.46346 0
M  V30 2883 H 277.557 1.41376 1.58514 0
M  V30 2884 H 279.82 0.582965 0.747567 0
M  V30 2885 H 279.526 1.66546 3.09767 0
M  V30 2886 H 279.4 0.0502125 3.77167 0
M  V30 2887 H 281.787 -0.451749 2.91622 0
M  V30 2888 H 281.868 1.191 2.26382 0
M  V30 2889 H 281.512 2.11873 4.61598 0
M  V30 2890 H 281.442 0.453956 5.2464 0
M  V30 2891 H 283.933 0.725986 3.70861 0
M  V30 2892 H 284.246 2.0934 7.43906 0
M  V30 2893 H 282.591 1.87596 6.69203 0
M  V30 2894 H 285.782 0.981808 4.57688 0
M  V30 2895 H 285.955 1.60514 6.27805 0
M  V30 2896 N 279.361 -1.56624 0.175154 0
M  V30 2897 C 280.777 -1.58571 -0.180966 0
M  V30 2898 C 280.977 -1.19065 -1.6256 0
M  V30 2899 O 280.033 -0.904044 -2.35761 0
M  V30 2900 C 281.346 -3.00522 0.103326 0
M  V30 2901 C 282.894 -3.12972 0.0418426 0
M  V30 2902 C 283.369 -4.57022 0.299175 0
M  V30 2903 N 284.86 -4.62541 0.247086 0
M  V30 2904 C 285.595 -5.71857 0.420318 0
M  V30 2905 N 285.091 -6.89717 0.652816 0
M  V30 2906 N 286.884 -5.60972 0.355957 0
M  V30 2907 H 279.035 -1.80589 1.11809 0
M  V30 2908 H 281.298 -0.837178 0.444788 0
M  V30 2909 H 281.004 -3.33916 1.10422 0
M  V30 2910 H 280.878 -3.72344 -0.603299 0
M  V30 2911 H 283.265 -2.79403 -0.949636 0
M  V30 2912 H 283.346 -2.43578 0.781238 0
M  V30 2913 H 282.99 -4.913 1.28788 0
M  V30 2914 H 282.92 -5.24579 -0.460876 0
M  V30 2915 H 285.411 -3.77829 0.0731895 0
M  V30 2916 H 285.724 -7.68911 0.774347 0
M  V30 2917 H 284.069 -6.91572 0.689476 0
M  V30 2918 H 287.26 -4.67773 0.174882 0
M  V30 2919 H 287.433 -6.46111 0.494388 0
M  V30 2920 N 280.839 0.0985539 -1.57292 0
M  V30 2921 C 282.069 0.815135 -1.8984 0
M  V30 2922 C 282.477 1.7297 -0.766679 0
M  V30 2923 O 281.82 1.81698 0.270483 0
M  V30 2924 C 281.882 1.6842 -3.17608 0
M  V30 2925 C 281.546 0.94182 -4.4719 0
M  V30 2926 C 282.543 0.273212 -5.19182 0
M  V30 2927 C 280.228 0.916927 -4.9386 0
M  V30 2928 C 282.222 -0.410361 -6.36078 0
M  V30 2929 C 279.909 0.229567 -6.10669 0
M  V30 2930 C 280.907 -0.432902 -6.81627 0
M  V30 2931 O 280.595 -1.10925 -7.9621 0
M  V30 2932 H 280.327 0.238501 -0.632529 0
M  V30 2933 H 282.881 0.0812659 -2.05239 0
M  V30 2934 H 281.111 2.46022 -2.98345 0
M  V30 2935 H 282.8 2.27704 -3.36015 0
M  V30 2936 H 283.566 0.283927 -4.84168 0
M  V30 2937 H 279.445 1.42201 -4.3852 0
M  V30 2938 H 282.989 -0.928013 -6.914 0
M  V30 2939 H 278.886 0.216686 -6.45136 0
M  V30 2940 H 279.654 -1.01579 -8.12172 0
M  V30 2941 N 282.317 1.53212 0.369288 0
M  V30 2942 C 283.227 1.82342 1.47609 0
M  V30 2943 C 284.243 0.711532 1.58787 0
M  V30 2944 O 285.419 1.0012 1.74751 0
M  V30 2945 C 282.484 2.00393 2.8292 0
M  V30 2946 C 281.545 3.24297 2.81301 0
M  V30 2947 C 280.778 3.41478 4.10157 0
M  V30 2948 O 281.001 2.63033 5.06132 0
M  V30 2949 O 279.935 4.34817 4.16194 0
M  V30 2950 H 283.761 2.76366 1.25918 0
M  V30 2951 H 281.346 1.38547 0.559034 0
M  V30 2952 H 283.228 2.13859 3.63101 0
M  V30 2953 H 281.903 1.09559 3.04596 0
M  V30 2954 H 280.81 3.16257 1.99831 0
M  V30 2955 H 282.143 4.15041 2.64578 0
M  V30 2956 N 283.795 -0.628877 1.44509 0
M  V30 2957 C 285.041 -1.39045 1.47629 0
M  V30 2958 C 285.374 -1.93892 0.109343 0
M  V30 2959 O 284.649 -1.7379 -0.87334 0
M  V30 2960 C 284.932 -2.55408 2.53848 0
M  V30 2961 C 284.785 -2.05896 3.99909 0
M  V30 2962 C 286.104 -3.5759 2.56549 0
M  V30 2963 H 283.223 -0.504232 0.537512 0
M  V30 2964 H 285.865 -0.710854 1.76201 0
M  V30 2965 H 284.015 -3.13384 2.29615 0
M  V30 2966 H 285.687 -1.52734 4.35282 0
M  V30 2967 H 283.93 -1.37061 4.11578 0
M  V30 2968 H 284.601 -2.89681 4.69882 0
M  V30 2969 H 287.077 -3.09419 2.78207 0
M  V30 2970 H 285.953 -4.36527 3.32769 0
M  V30 2971 H 286.214 -4.11808 1.60832 0
M  V30 2972 N 285.273 -1.31445 -0.869486 0
M  V30 2973 C 286.684 -1.19042 -1.43826 0
M  V30 2974 C 287.035 0.202919 -1.95148 0
M  V30 2975 O 286.16 1.10071 -1.86315 0
M  V30 2976 C 286.755 -2.15499 -2.6143 0
M  V30 2977 C 285.314 -2.07028 -3.14351 0
M  V30 2978 C 284.461 -2.04701 -1.87063 0
M  V30 2979 H 287.412 -1.43489 -0.677984 0
M  V30 2980 H 287.433 -1.74488 -3.38134 0
M  V30 2981 H 286.945 -3.16899 -2.24046 0
M  V30 2982 H 285.046 -1.08825 -3.56354 0
M  V30 2983 H 285.159 -2.96157 -3.766 0
M  V30 2984 H 283.523 -1.49724 -2.06046 0
M  V30 2985 H 284.306 -3.07857 -1.51917 0
M  V30 2986 N 286.751 1.08385 -1.14413 0
M  V30 2987 C 287.681 2.17321 -0.854044 0
M  V30 2988 C 288.662 1.69024 0.191049 0
M  V30 2989 O 289.847 1.94141 0.0476779 0
M  V30 2990 C 286.977 3.45719 -0.330983 0
M  V30 2991 C 285.931 4.07409 -1.31155 0
M  V30 2992 C 285.257 5.30762 -0.64778 0
M  V30 2993 C 286.557 4.48665 -2.67388 0
M  V30 2994 H 288.251 2.41845 -1.76498 0
M  V30 2995 H 285.797 1.16233 -0.850051 0
M  V30 2996 H 287.75 4.21241 -0.115645 0
M  V30 2997 H 286.474 3.2075 0.615381 0
M  V30 2998 H 285.133 3.33919 -1.51306 0
M  V30 2999 H 284.781 5.02078 0.304398 0
M  V30 3000 H 284.481 5.72992 -1.30207 0
M  V30 3001 H 286.005 6.08998 -0.441972 0
M  V30 3002 H 287.419 5.15364 -2.51143 0
M  V30 3003 H 285.816 5.01814 -3.29093 0
M  V30 3004 H 286.886 3.60543 -3.24248 0
M  V30 3005 N 288.23 0.939286 1.26551 0
M  V30 3006 C 289.14 0.453432 2.30176 0
M  V30 3007 C 290.156 -0.471649 1.67486 0
M  V30 3008 O 291.332 -0.35164 1.98306 0
M  V30 3009 C 288.397 -0.275326 3.45605 0
M  V30 3010 C 287.458 0.686084 4.23782 0
M  V30 3011 C 286.691 -0.00798994 5.33699 0
M  V30 3012 O 286.914 -1.22528 5.57085 0
M  V30 3013 O 285.848 0.669746 5.98162 0
M  V30 3014 H 289.674 1.31416 2.73795 0
M  V30 3015 H 287.259 0.705095 1.31715 0
M  V30 3016 H 289.141 -0.685911 4.1578 0
M  V30 3017 H 287.816 -1.11147 3.0402 0
M  V30 3018 H 286.723 1.14658 3.56096 0
M  V30 3019 H 288.056 1.48979 4.69112 0
M  V30 3020 N 289.708 -1.40897 0.706093 0
M  V30 3021 C 290.936 -2.05373 0.250887 0
M  V30 3022 C 291.351 -1.53172 -1.10381 0
M  V30 3023 O 290.708 -0.684305 -1.69185 0
M  V30 3024 C 290.759 -3.6088 0.211571 0
M  V30 3025 O 290.48 -4.11153 1.51276 0
M  V30 3026 C 291.981 -4.42517 -0.263346 0
M  V30 3027 H 289.201 -0.66115 0.114552 0
M  V30 3028 H 291.745 -1.80479 0.961635 0
M  V30 3029 H 289.9 -3.84777 -0.450073 0
M  V30 3030 H 290.314 -5.05279 1.40689 0
M  V30 3031 H 291.788 -5.51479 -0.239718 0
M  V30 3032 H 292.265 -4.19396 -1.30397 0
M  V30 3033 H 292.871 -4.23708 0.367677 0
M  V30 3034 N 291.186 -0.45159 -1.50991 0
M  V30 3035 C 292.597 0.00818571 -1.86698 0
M  V30 3036 C 292.948 1.40661 -1.3678 0
M  V30 3037 O 292.073 2.0391 -0.724546 0
M  V30 3038 C 292.668 0.0216303 -3.38793 0
M  V30 3039 C 291.227 0.425865 -3.73983 0
M  V30 3040 C 290.374 -0.372163 -2.74791 0
M  V30 3041 H 293.325 -0.666785 -1.44013 0
M  V30 3042 H 293.346 0.828078 -3.7138 0
M  V30 3043 H 292.858 -0.996288 -3.75094 0
M  V30 3044 H 290.959 1.44886 -3.43277 0
M  V30 3045 H 291.072 0.140761 -4.78893 0
M  V30 3046 H 289.436 0.171498 -2.54122 0
M  V30 3047 H 290.219 -1.38922 -3.13935 0
M  V30 3048 N 292.664 1.56529 -0.183458 0
M  V30 3049 C 293.614 2.1515 0.754605 0
M  V30 3050 C 294.598 1.08904 1.18443 0
M  V30 3051 O 295.79 1.34997 1.14476 0
M  V30 3052 C 292.919 2.80531 1.97881 0
M  V30 3053 C 292.005 3.93952 1.57043 0
M  V30 3054 N 292.396 4.98221 0.87231 0
M  V30 3055 C 290.694 4.05338 1.86057 0
M  V30 3056 C 291.395 5.77836 0.669377 0
M  V30 3057 N 290.371 5.29858 1.21454 0
M  V30 3058 H 294.173 2.93132 0.212387 0
M  V30 3059 H 291.687 1.62391 0.0167725 0
M  V30 3060 H 293.684 3.20914 2.6612 0
M  V30 3061 H 292.344 2.04035 2.52586 0
M  V30 3062 H 293.355 5.15191 0.529033 0
M  V30 3063 H 290.032 3.39957 2.42354 0
M  V30 3064 H 291.422 6.71799 0.116422 0
M  V30 3065 N 294.142 -0.090211 1.57342 0
M  V30 3066 C 295.388 -0.793982 1.86611 0
M  V30 3067 C 295.721 -1.78142 0.773252 0
M  V30 3068 O 294.996 -1.93271 -0.218304 0
M  V30 3069 C 295.279 -1.51839 3.26523 0
M  V30 3070 C 295.132 -0.548609 4.46442 0
M  V30 3071 C 296.451 -2.46779 3.64401 0
M  V30 3072 H 293.57 -0.287186 0.678744 0
M  V30 3073 H 296.212 -0.0575076 1.89913 0
M  V30 3074 H 294.362 -2.14617 3.23839 0
M  V30 3075 H 296.034 0.0725513 4.61243 0
M  V30 3076 H 294.277 0.137614 4.33582 0
M  V30 3077 H 294.948 -1.09271 5.41076 0
M  V30 3078 H 297.424 -1.94089 3.68061 0
M  V30 3079 H 296.3 -2.94479 4.63221 0
M  V30 3080 H 296.561 -3.30758 2.93346 0
M  V30 3081 N 295.62 -1.53406 -0.361157 0
M  V30 3082 C 296.57 -1.76536 -1.44287 0
M  V30 3083 C 297.554 -0.620019 -1.48474 0
M  V30 3084 O 298.746 -0.878834 -1.53641 0
M  V30 3085 C 295.875 -1.96266 -2.81664 0
M  V30 3086 C 294.961 -3.16815 -2.81938 0
M  V30 3087 N 295.352 -4.38637 -2.51855 0
M  V30 3088 C 293.65 -3.17627 -3.13096 0
M  V30 3089 C 294.351 -5.20401 -2.59919 0
M  V30 3090 N 293.327 -4.56712 -2.94814 0
M  V30 3091 H 297.129 -2.68331 -1.19899 0
M  V30 3092 H 294.643 -1.52091 -0.56938 0
M  V30 3093 H 296.64 -2.10966 -3.59582 0
M  V30 3094 H 295.3 -1.05702 -3.07013 0
M  V30 3095 H 296.311 -4.66293 -2.25369 0
M  V30 3096 H 292.988 -2.36971 -3.43731 0
M  V30 3097 H 294.378 -6.27586 -2.39969 0
M  V30 3098 N 297.098 0.621204 -1.44841 0
M  V30 3099 C 298.323 1.41244 -1.51871 0
M  V30 3100 C 298.748 1.87519 -0.147764 0
M  V30 3101 O 298.106 1.59334 0.865 0
M  V30 3102 C 298.154 2.60221 -2.49634 0
M  V30 3103 O 297.258 3.60395 -2.00473 0
M  V30 3104 H 296.599 0.42223 -0.512463 0
M  V30 3105 H 299.129 0.757305 -1.90069 0
M  V30 3106 H 299.139 3.0764 -2.67996 0
M  V30 3107 H 297.814 2.25887 -3.4921 0
M  V30 3108 H 296.391 3.19717 -1.91925 0
M  V30 3109 N 298.576 1.31904 0.862503 0
M  V30 3110 C 299.992 1.10724 1.14945 0
M  V30 3111 C 300.192 -0.117421 2.01158 0
M  V30 3112 O 299.248 -0.804595 2.39338 0
M  V30 3113 C 300.561 2.38267 1.83437 0
M  V30 3114 C 302.109 2.43949 1.96106 0
M  V30 3115 C 302.584 3.71394 2.68013 0
M  V30 3116 N 304.075 3.72331 2.75543 0
M  V30 3117 C 304.81 4.67641 3.31812 0
M  V30 3118 N 304.306 5.73313 3.88953 0
M  V30 3119 N 306.099 4.5515 3.29841 0
M  V30 3120 H 298.25 2.10436 0.288191 0
M  V30 3121 H 300.513 0.928705 0.190292 0
M  V30 3122 H 300.219 3.27759 1.27542 0
M  V30 3123 H 300.093 2.48633 2.83657 0
M  V30 3124 H 302.48 1.54922 2.51164 0
M  V30 3125 H 302.561 2.37543 0.949059 0
M  V30 3126 H 302.205 4.60791 2.13621 0
M  V30 3127 H 302.135 3.75069 3.69636 0
M  V30 3128 H 304.626 2.95947 2.34997 0
M  V30 3129 H 304.939 6.42107 4.30022 0
M  V30 3130 H 303.284 5.77077 3.87308 0
M  V30 3131 H 306.475 3.71766 2.84443 0
M  V30 3132 H 306.648 5.29604 3.73394 0
M  V30 3133 N 300.054 -1.07777 1.14986 0
M  V30 3134 C 301.017 -2.13041 0.845358 0
M  V30 3135 C 302.017 -1.60071 -0.152931 0
M  V30 3136 O 303.207 -1.74033 0.0761879 0
M  V30 3137 C 300.339 -3.39896 0.261383 0
M  V30 3138 H 301.532 -2.41485 1.77834 0
M  V30 3139 H 299.085 -1.23595 0.956757 0
M  V30 3140 H 299.82 -3.17091 -0.68 0
M  V30 3141 H 299.605 -3.79642 0.980514 0
M  V30 3142 H 301.095 -4.17548 0.0657687 0
M  V30 3143 N 301.532 -0.945985 -1.26051 0
M  V30 3144 C 302.943 -0.638096 -1.75457 0
M  V30 3145 C 303.294 0.846672 -1.76991 0
M  V30 3146 O 302.419 1.66262 -1.38513 0
M  V30 3147 C 303.014 -1.15157 -3.18629 0
M  V30 3148 C 301.573 -0.894004 -3.65629 0
M  V30 3149 C 300.72 -1.29967 -2.44957 0
M  V30 3150 H 303.671 -1.12376 -1.1206 0
M  V30 3151 H 303.692 -0.507615 -3.77099 0
M  V30 3152 H 303.204 -2.23222 -3.1748 0
M  V30 3153 H 301.305 0.172057 -3.72203 0
M  V30 3154 H 301.418 -1.52439 -4.54202 0
M  V30 3155 H 299.782 -0.718078 -2.44368 0
M  V30 3156 H 300.565 -2.38935 -2.46505 0
M  V30 3157 N 303.011 1.40521 -0.713556 0
M  V30 3158 C 304.236 2.05759 -0.26035 0
M  V30 3159 C 304.661 1.53403 1.08854 0
M  V30 3160 O 304.019 0.668535 1.68524 0
M  V30 3161 C 304.067 3.59745 -0.248122 0
M  V30 3162 O 303.171 4.05123 0.77131 0
M  V30 3163 H 302.512 0.652564 -0.122703 0
M  V30 3164 H 305.042 1.79958 -0.973467 0
M  V30 3165 H 305.052 4.07911 -0.0851129 0
M  V30 3166 H 303.727 3.97218 -1.2325 0
M  V30 3167 H 302.304 3.68422 0.57619 0
M  V30 3168 N 304.489 0.459591 1.5075 0
M  V30 3169 C 305.9 0.00171547 1.867 0
M  V30 3170 C 306.251 -1.39934 1.37525 0
M  V30 3171 O 305.376 -2.03523 0.735349 0
M  V30 3172 C 305.971 -0.00366298 3.388 0
M  V30 3173 C 304.53 -0.406026 3.74204 0
M  V30 3174 C 303.677 0.38673 2.7459 0
M  V30 3175 H 306.628 0.674413 1.43657 0
M  V30 3176 H 306.649 -0.808371 3.71814 0
M  V30 3177 H 306.161 1.01617 3.74561 0
M  V30 3178 H 304.262 -1.43063 3.4404 0
M  V30 3179 H 304.375 -0.115362 4.78961 0
M  V30 3180 H 302.739 -0.158019 2.54209 0
M  V30 3181 H 303.522 1.40585 3.13194 0
M  V30 3182 N 305.967 -1.56429 0.191757 0
M  V30 3183 C 306.897 -2.21937 -0.725696 0
M  V30 3184 C 307.878 -1.1814 -1.2238 0
M  V30 3185 O 309.063 -1.46636 -1.27325 0
M  V30 3186 C 306.193 -2.87611 -1.94672 0
M  V30 3187 C 305.147 -3.97623 -1.58366 0
M  V30 3188 C 304.473 -4.50446 -2.88102 0
M  V30 3189 C 305.773 -5.16197 -0.796133 0
M  V30 3190 H 307.467 -2.98861 -0.179606 0
M  V30 3191 H 305.013 -1.43749 -0.0849464 0
M  V30 3192 H 306.966 -3.3212 -2.59373 0
M  V30 3193 H 305.69 -2.08087 -2.51728 0
M  V30 3194 H 304.349 -3.53801 -0.960247 0
M  V30 3195 H 303.997 -3.67688 -3.43241 0
M  V30 3196 H 303.697 -5.24675 -2.64556 0
M  V30 3197 H 305.221 -4.97654 -3.53798 0
M  V30 3198 H 306.635 -5.57271 -1.34618 0
M  V30 3199 H 305.032 -5.96471 -0.658928 0
M  V30 3200 H 306.102 -4.84473 0.203478 0
M  V30 3201 N 307.445 0.0818655 -1.57387 0
M  V30 3202 C 308.675 0.794954 -1.90694 0
M  V30 3203 C 309.083 1.72147 -0.784982 0
M  V30 3204 O 308.426 1.81974 0.251196 0
M  V30 3205 C 308.488 1.65042 -3.19376 0
M  V30 3206 C 308.152 0.894337 -4.48164 0
M  V30 3207 C 309.149 0.21813 -5.19442 0
M  V30 3208 C 306.834 0.864495 -4.94805 0
M  V30 3209 C 308.828 -0.477802 -6.35607 0
M  V30 3210 C 306.515 0.164785 -6.10878 0
M  V30 3211 C 307.513 -0.505173 -6.81129 0
M  V30 3212 O 307.201 -1.19363 -7.94989 0
M  V30 3213 H 306.933 0.231779 -0.635023 0
M  V30 3214 H 309.487 0.059493 -2.05314 0
M  V30 3215 H 307.717 2.42844 -3.00938 0
M  V30 3216 H 309.406 2.24127 -3.38411 0
M  V30 3217 H 310.172 0.232558 -4.84442 0
M  V30 3218 H 306.051 1.37542 -4.40004 0
M  V30 3219 H 309.595 -1.00129 -6.90377 0
M  V30 3220 H 305.492 0.148249 -6.4533 0
M  V30 3221 H 306.26 -1.10188 -8.11049 0
M  V30 3222 N 308.923 1.53595 0.353017 0
M  V30 3223 C 310.148 1.7462 1.11904 0
M  V30 3224 C 310.573 0.479721 1.8188 0
M  V30 3225 O 309.931 -0.567066 1.72204 0
M  V30 3226 C 309.979 2.92029 2.11545 0
M  V30 3227 O 309.083 2.61516 3.18878 0
M  V30 3228 H 308.424 0.579531 0.324099 0
M  V30 3229 H 310.954 2.00525 0.406301 0
M  V30 3230 H 310.964 3.18551 2.5493 0
M  V30 3231 H 309.639 3.83888 1.60008 0
M  V30 3232 H 308.216 2.45852 2.80377 0
M  V30 3233 N 310.401 -0.613514 1.45168 0
M  V30 3234 C 311.647 -1.37471 1.49096 0
M  V30 3235 C 311.98 -1.93765 0.129901 0
M  V30 3236 O 311.255 -1.74707 -0.854858 0
M  V30 3237 C 311.538 -2.52701 2.56542 0
M  V30 3238 C 311.391 -2.01643 4.0207 0
M  V30 3239 C 312.71 -3.54849 2.60327 0
M  V30 3240 H 309.829 -0.498502 0.54283 0
M  V30 3241 H 312.471 -0.692125 1.76945 0
M  V30 3242 H 310.621 -3.10931 2.32926 0
M  V30 3243 H 312.293 -1.48108 4.36877 0
M  V30 3244 H 310.536 -1.32688 4.13009 0
M  V30 3245 H 311.207 -2.84681 4.72928 0
M  V30 3246 H 313.683 -3.0645 2.81474 0
M  V30 3247 H 312.559 -4.32973 3.37381 0
M  V30 3248 H 312.82 -4.10079 1.6519 0
M  V30 3249 N 311.879 -1.3236 -0.855495 0
M  V30 3250 C 312.789 -1.23221 -1.99634 0
M  V30 3251 C 313.805 -0.145983 -1.73387 0
M  V30 3252 O 314.981 -0.366502 -1.98037 0
M  V30 3253 C 312.046 -0.954782 -3.33294 0
M  V30 3254 C 311.107 -2.12937 -3.72769 0
M  V30 3255 C 310.34 -1.86508 -5.00051 0
M  V30 3256 O 310.563 -0.807231 -5.64659 0
M  V30 3257 O 309.497 -2.72591 -5.36636 0
M  V30 3258 H 313.323 -2.19126 -2.1028 0
M  V30 3259 H 310.908 -1.12241 -0.986018 0
M  V30 3260 H 312.79 -0.816519 -4.13414 0
M  V30 3261 H 311.465 -0.0258854 -3.2369 0
M  V30 3262 H 310.372 -2.3231 -2.93228 0
M  V30 3263 H 311.705 -3.04102 -3.87018 0
M  V30 3264 N 313.357 1.07166 -1.15556 0
M  V30 3265 C 314.604 1.79798 -0.931604 0
M  V30 3266 C 314.932 1.8682 0.54115 0
M  V30 3267 O 314.187 1.34942 1.41736 0
M  V30 3268 C 314.486 3.24707 -1.49332 0
M  V30 3269 C 314.152 3.37781 -2.98688 0
M  V30 3270 C 312.814 3.41057 -3.39461 0
M  V30 3271 C 315.166 3.40424 -3.94665 0
M  V30 3272 C 312.494 3.4458 -4.74849 0
M  V30 3273 C 314.846 3.45485 -5.29927 0
M  V30 3274 C 313.51 3.47039 -5.70193 0
M  V30 3275 H 312.78 0.657928 -0.340898 0
M  V30 3276 H 315.427 1.26091 -1.44129 0
M  V30 3277 H 313.732 3.81208 -0.904859 0
M  V30 3278 H 315.429 3.79486 -1.29582 0
M  V30 3279 H 312.019 3.35932 -2.66172 0
M  V30 3280 H 316.203 3.37113 -3.64237 0
M  V30 3281 H 311.459 3.44083 -5.05388 0
M  V30 3282 H 315.633 3.46476 -6.04092 0
M  V30 3283 H 313.26 3.49522 -6.75084 0
M  V30 3284 N 314.835 0.952656 1.25548 0
M  V30 3285 C 316.06 0.623025 1.97821 0
M  V30 3286 C 316.485 -0.7976 1.70352 0
M  V30 3287 O 315.843 -1.53905 0.958283 0
M  V30 3288 C 315.891 0.885532 3.49558 0
M  V30 3289 O 314.995 -0.0366641 4.12384 0
M  V30 3290 H 314.336 0.237082 0.620232 0
M  V30 3291 H 316.866 1.27871 1.59719 0
M  V30 3292 H 316.876 0.811009 3.99858 0
M  V30 3293 H 315.551 1.92094 3.6888 0
M  V30 3294 H 314.128 0.0898954 3.72792 0
M  V30 3295 N 316.313 -1.40141 0.720998 0
M  V30 3296 C 317.223 -2.34486 0.0731031 0
M  V30 3297 C 318.239 -1.57587 -0.737723 0
M  V30 3298 O 319.415 -1.89949 -0.669429 0
M  V30 3299 C 316.48 -3.36528 -0.833656 0
M  V30 3300 C 315.541 -4.29298 -0.0121673 0
M  V30 3301 C 314.774 -5.26466 -0.875742 0
M  V30 3302 O 314.997 -5.29745 -2.11485 0
M  V30 3303 O 313.931 -6.01092 -0.31185 0
M  V30 3304 H 317.757 -2.9152 0.851444 0
M  V30 3305 H 315.342 -1.41427 0.481527 0
M  V30 3306 H 317.224 -3.99093 -1.35289 0
M  V30 3307 H 315.899 -2.81899 -1.59105 0
M  V30 3308 H 314.806 -3.70001 0.552262 0
M  V30 3309 H 316.139 -4.87094 0.707129 0
M  V30 3310 N 317.792 -0.46758 -1.50504 0
M  V30 3311 C 318.702 0.33382 -2.32213 0
M  V30 3312 C 319.718 0.999323 -1.42441 0
M  V30 3313 O 320.894 0.988068 -1.75497 0
M  V30 3314 C 317.959 1.4035 -3.17022 0
M  V30 3315 C 317.02 0.754961 -4.2261 0
M  V30 3316 C 316.253 1.77367 -5.03365 0
M  V30 3317 O 316.476 2.99976 -4.8515 0
M  V30 3318 O 315.41 1.34744 -5.86624 0
M  V30 3319 H 319.236 -0.334067 -3.01857 0
M  V30 3320 H 316.821 -0.229496 -1.47627 0
M  V30 3321 H 318.703 2.02318 -3.69656 0
M  V30 3322 H 317.378 2.05492 -2.5011 0
M  V30 3323 H 316.285 0.0964244 -3.73976 0
M  V30 3324 H 317.618 0.146545 -4.91982 0
M  V30 3325 N 319.27 1.56325 -0.20005 0
M  V30 3326 C 320.681 1.8408 0.31167 0
M  V30 3327 C 321.032 1.12087 1.61031 0
M  V30 3328 O 320.157 0.38332 2.12978 0
M  V30 3329 C 320.752 3.33932 0.57226 0
M  V30 3330 C 319.311 3.6208 1.02834 0
M  V30 3331 C 318.458 2.77186 0.079634 0
M  V30 3332 H 321.409 1.52939 -0.423729 0
M  V30 3333 H 321.43 3.52971 1.42096 0
M  V30 3334 H 320.942 3.86303 -0.37308 0
M  V30 3335 H 319.043 3.15147 1.98778 0
M  V30 3336 H 319.156 4.7023 0.917624 0
M  V30 3337 H 317.52 2.47951 0.582448 0
M  V30 3338 H 318.303 3.32347 -0.860238 0
M  V30 3339 N 320.748 -0.0735177 1.57428 0
M  V30 3340 C 321.995 -0.772999 1.87166 0
M  V30 3341 C 322.323 -1.77665 0.791551 0
M  V30 3342 O 321.578 -1.94541 -0.212636 0
M  V30 3343 C 321.877 -1.51799 3.23561 0
M  V30 3344 C 321.543 -0.654484 4.46125 0
M  V30 3345 C 320.205 -0.416511 4.79394 0
M  V30 3346 C 322.557 -0.0555862 5.2117 0
M  V30 3347 C 319.885 0.429869 5.85123 0
M  V30 3348 C 322.237 0.778239 6.27795 0
M  V30 3349 C 320.901 1.0261 6.59566 0
M  V30 3350 H 320.171 -0.282861 0.684888 0
M  V30 3351 H 322.818 -0.0338272 1.9147 0
M  V30 3352 H 321.123 -2.32932 3.1504 0
M  V30 3353 H 322.82 -2.06397 3.43804 0
M  V30 3354 H 319.41 -0.850091 4.20085 0
M  V30 3355 H 323.594 -0.226558 4.95783 0
M  V30 3356 H 318.85 0.630665 6.08139 0
M  V30 3357 H 323.024 1.24906 6.85107 0
M  V30 3358 H 320.651 1.68371 7.4132 0
M  V30 3359 N 322.226 -1.5378 -0.344866 0
M  V30 3360 C 323.474 -1.70625 -1.08311 0
M  V30 3361 C 323.795 -0.471447 -1.89215 0
M  V30 3362 O 323.065 0.514616 -1.8902 0
M  V30 3363 H 321.645 -0.629058 -0.402859 0
M  V30 3364 H 324.307 -1.9103 -0.386459 0
M  V30 3365 H 323.403 -2.57656 -1.76124 0
M  V30 3366 N 323.704 0.605807 -1.45491 0
M  V30 3367 C 324.95 1.36679 -1.49823 0
M  V30 3368 C 325.283 1.93693 -0.140175 0
M  V30 3369 O 324.558 1.75158 0.845581 0
M  V30 3370 C 324.841 2.51337 -2.57879 0
M  V30 3371 C 324.694 1.99508 -4.03134 0
M  V30 3372 C 326.013 3.53463 -2.62205 0
M  V30 3373 H 323.132 0.495617 -0.545466 0
M  V30 3374 H 325.774 0.682732 -1.7731 0
M  V30 3375 H 323.924 3.09691 -2.34571 0
M  V30 3376 H 325.596 1.45789 -4.37656 0
M  V30 3377 H 323.839 1.30496 -4.13707 0
M  V30 3378 H 324.51 2.82169 -4.74431 0
M  V30 3379 H 326.986 3.04953 -2.83095 0
M  V30 3380 H 325.862 4.31178 -3.39672 0
M  V30 3381 H 326.123 4.09197 -1.67363 0
M  V30 3382 N 325.182 1.32811 0.848464 0
M  V30 3383 C 326.431 1.23075 1.59798 0
M  V30 3384 C 326.744 -0.204419 1.94529 0
M  V30 3385 O 327.95 -0.423701 2.68173 0
M  V30 3386 C 326.406 2.15594 2.88179 0
M  V30 3387 C 326.014 3.64228 2.60849 0
M  V30 3388 C 327.758 2.14709 3.66197 0
M  V30 3389 C 325.665 4.48689 3.85269 0
M  V30 3390 H 324.595 0.457091 0.599653 0
M  V30 3391 H 327.246 1.57813 0.936342 0
M  V30 3392 H 325.628 1.73778 3.55833 0
M  V30 3393 H 326.802 4.14424 2.01467 0
M  V30 3394 H 325.117 3.67306 1.96151 0
M  V30 3395 H 327.714 2.75046 4.58534 0
M  V30 3396 H 328.057 1.13966 4.00397 0
M  V30 3397 H 328.59 2.54837 3.05455 0
M  V30 3398 H 325.329 5.5027 3.56207 0
M  V30 3399 H 324.849 4.03241 4.44024 0
M  V30 3400 H 326.528 4.62006 4.52946 0
M  V30 3401 N 326.66 -1.06551 1.16123 0
M  V30 3402 C 327.906 -1.79567 0.94252 0
M  V30 3403 C 328.239 -1.86869 -0.528547 0
M  V30 3404 O 327.514 -1.35838 -1.39206 0
M  V30 3405 C 327.797 -3.24195 1.56747 0
M  V30 3406 C 327.65 -3.24989 3.10969 0
M  V30 3407 C 328.969 -4.21678 1.25998 0
M  V30 3408 H 326.088 -0.651883 0.343828 0
M  V30 3409 H 328.73 -1.2463 1.43413 0
M  V30 3410 H 326.88 -3.71107 1.14942 0
M  V30 3411 H 328.552 -2.86258 3.61737 0
M  V30 3412 H 326.795 -2.63716 3.44436 0
M  V30 3413 H 327.466 -4.27005 3.49815 0
M  V30 3414 H 329.942 -3.83196 1.62174 0
M  V30 3415 H 328.818 -5.21146 1.7233 0
M  V30 3416 H 329.079 -4.4174 0.178367 0
M  V30 3417 N 328.138 -0.959301 -1.25041 0
M  V30 3418 C 329.554 -0.664474 -1.4511 0
M  V30 3419 C 329.754 0.776481 -1.85938 0
M  V30 3420 O 328.81 1.55128 -1.99227 0
M  V30 3421 C 330.123 -1.64139 -2.5195 0
M  V30 3422 C 331.671 -1.65309 -2.65786 0
M  V30 3423 C 332.146 -2.61777 -3.75815 0
M  V30 3424 N 333.637 -2.60169 -3.83231 0
M  V30 3425 C 334.372 -3.31489 -4.6787 0
M  V30 3426 N 333.868 -4.12298 -5.56761 0
M  V30 3427 N 335.661 -3.20354 -4.61876 0
M  V30 3428 H 327.812 -1.89043 -0.968332 0
M  V30 3429 H 330.075 -0.813408 -0.4869 0
M  V30 3430 H 329.781 -2.67086 -2.28819 0
M  V30 3431 H 329.655 -1.40756 -3.49954 0
M  V30 3432 H 332.042 -0.630778 -2.8828 0
M  V30 3433 H 332.123 -1.92753 -1.68167 0
M  V30 3434 H 331.767 -3.64137 -3.54071 0
M  V30 3435 H 331.697 -2.31616 -4.72929 0
M  V30 3436 H 334.188 -2.01507 -3.19692 0
M  V30 3437 H 334.501 -4.63625 -6.18281 0
M  V30 3438 H 332.846 -4.16395 -5.56454 0
M  V30 3439 H 336.037 -2.56692 -3.91442 0
M  V30 3440 H 336.21 -3.76201 -5.27614 0
M  V30 3441 N 329.616 1.39756 -0.72842 0
M  V30 3442 C 331.032 1.5442 -0.403308 0
M  V30 3443 C 331.232 1.69694 1.08656 0
M  V30 3444 O 330.288 1.69373 1.87267 0
M  V30 3445 C 331.601 2.76555 -1.18058 0
M  V30 3446 C 333.149 2.90384 -1.16815 0
M  V30 3447 C 333.624 4.15449 -1.92785 0
M  V30 3448 N 335.115 4.22475 -1.89918 0
M  V30 3449 C 335.85 5.1818 -2.45514 0
M  V30 3450 N 335.346 6.19714 -3.09719 0
M  V30 3451 N 337.139 5.1035 -2.35584 0
M  V30 3452 H 329.29 1.28089 -1.69431 0
M  V30 3453 H 331.553 0.620327 -0.716867 0
M  V30 3454 H 331.259 2.7159 -2.23455 0
M  V30 3455 H 331.133 3.69033 -0.780662 0
M  V30 3456 H 333.52 2.94846 -0.12234 0
M  V30 3457 H 333.601 1.98988 -1.6074 0
M  V30 3458 H 333.245 4.11749 -2.97364 0
M  V30 3459 H 333.175 5.05877 -1.46272 0
M  V30 3460 H 335.666 3.49743 -1.43138 0
M  V30 3461 H 335.979 6.8919 -3.49625 0
M  V30 3462 H 334.324 6.20121 -3.13807 0
M  V30 3463 H 337.515 4.2996 -1.85072 0
M  V30 3464 H 337.688 5.84761 -2.79211 0
M  V30 3465 N 331.094 0.475555 1.50254 0
M  V30 3466 C 332.026 -0.352649 2.26471 0
M  V30 3467 C 333.039 -0.953165 1.3198 0
M  V30 3468 O 334.228 -0.840815 1.57457 0
M  V30 3469 C 331.328 -1.50902 3.0345 0
M  V30 3470 C 330.501 -1.02047 4.25329 0
M  V30 3471 C 329.56 -2.05142 4.84565 0
M  V30 3472 O 328.586 -1.63023 5.45355 0
M  V30 3473 N 329.788 -3.37987 4.71959 0
M  V30 3474 H 332.553 0.300767 2.98187 0
M  V30 3475 H 330.114 0.306598 1.5897 0
M  V30 3476 H 332.106 -2.19572 3.39956 0
M  V30 3477 H 330.676 -2.06705 2.34504 0
M  V30 3478 H 329.896 -0.159507 3.93877 0
M  V30 3479 H 331.184 -0.672061 5.04342 0
M  V30 3480 H 330.582 -3.74913 4.23623 0
M  V30 3481 H 329.139 -4.02443 5.12721 0
M  V30 3482 N 332.573 -1.56217 0.208337 0
M  V30 3483 C 333.503 -2.22694 -0.702116 0
M  V30 3484 C 334.484 -1.19432 -1.2112 0
M  V30 3485 O 335.669 -1.47978 -1.25762 0
M  V30 3486 C 332.799 -2.8966 -1.9161 0
M  V30 3487 C 331.753 -3.9928 -1.5414 0
M  V30 3488 C 331.079 -4.53476 -2.83308 0
M  V30 3489 C 332.379 -5.17012 -0.741339 0
M  V30 3490 H 334.073 -2.99034 -0.147898 0
M  V30 3491 H 331.619 -1.43831 -0.0696951 0
M  V30 3492 H 333.572 -3.34852 -2.55836 0
M  V30 3493 H 332.296 -2.10746 -2.49507 0
M  V30 3494 H 330.955 -3.54799 -0.922668 0
M  V30 3495 H 330.603 -3.71308 -3.39322 0
M  V30 3496 H 330.303 -5.27451 -2.58976 0
M  V30 3497 H 331.827 -5.01378 -3.485 0
M  V30 3498 H 333.241 -5.58667 -1.28699 0
M  V30 3499 H 331.638 -5.97137 -0.595627 0
M  V30 3500 H 332.708 -4.8423 0.254851 0
M  V30 3501 N 334.051 0.0651679 -1.57465 0
M  V30 3502 C 335.328 0.79644 -1.78651 0
M  V30 3503 C 335.708 1.95454 -0.797566 0
M  V30 3504 O 335.056 2.27882 0.167946 0
M  V30 3505 C 335.266 1.26322 -3.25337 0
M  V30 3506 C 336.614 1.6939 -3.89348 0
M  V30 3507 O 337.638 1.35872 -3.29268 0
M  V30 3508 O 336.497 2.31471 -4.95059 0
M  V30 3509 H 333.591 0.382157 -0.733407 0
M  V30 3510 H 336.137 0.0447311 -1.69641 0
M  V30 3511 H 334.909 0.434859 -3.88876 0
M  V30 3512 H 334.532 2.07604 -3.39096 0
M  V30 3513 N 335.529 1.53961 0.336706 0
M  V30 3514 C 336.777 1.71197 1.07405 0
M  V30 3515 C 337.098 0.481475 1.88962 0
M  V30 3516 O 336.368 -0.504585 1.8929 0
M  V30 3517 H 334.948 0.631185 0.399517 0
M  V30 3518 H 337.61 1.91232 0.376323 0
M  V30 3519 H 336.706 2.58587 1.74755 0
M  V30 3520 N 337.007 -0.598083 1.45811 0
M  V30 3521 C 338.423 -0.919847 1.30426 0
M  V30 3522 C 338.623 -1.99759 0.264303 0
M  V30 3523 O 337.679 -2.50221 -0.338472 0
M  V30 3524 C 338.992 -1.35176 2.68603 0
M  V30 3525 C 340.54 -1.46546 2.76574 0
M  V30 3526 C 341.015 -1.9311 4.15298 0
M  V30 3527 N 342.506 -2.00328 4.1764 0
M  V30 3528 C 343.241 -2.37599 5.21856 0
M  V30 3529 N 342.737 -2.73771 6.36413 0
M  V30 3530 N 344.53 -2.38021 5.09218 0
M  V30 3531 H 336.681 0.114111 2.12093 0
M  V30 3532 H 338.944 -0.0116121 0.947929 0
M  V30 3533 H 338.65 -0.633969 3.45939 0
M  V30 3534 H 338.524 -2.3164 2.97696 0
M  V30 3535 H 340.911 -2.17415 1.99537 0
M  V30 3536 H 340.992 -0.483727 2.51185 0
M  V30 3537 H 340.636 -1.22824 4.92825 0
M  V30 3538 H 340.566 -2.92213 4.38086 0
M  V30 3539 H 343.057 -1.74925 3.34977 0
M  V30 3540 H 343.37 -3.0112 7.11721 0
M  V30 3541 H 341.715 -2.71445 6.39799 0
M  V30 3542 H 344.906 -2.09174 4.18765 0
M  V30 3543 H 345.079 -2.66741 5.90554 0
M  V30 3544 N 338.485 -1.33259 -0.841409 0
M  V30 3545 C 339.731 -1.24757 -1.59886 0
M  V30 3546 C 340.064 0.186913 -1.93298 0
M  V30 3547 O 339.339 1.12757 -1.5848 0
M  V30 3548 C 339.622 -2.12036 -2.91055 0
M  V30 3549 C 339.475 -3.63929 -2.6434 0
M  V30 3550 C 340.794 -1.9916 -3.92458 0
M  V30 3551 H 337.913 -0.454542 -0.580138 0
M  V30 3552 H 340.555 -1.63335 -0.970647 0
M  V30 3553 H 338.705 -1.79265 -3.44669 0
M  V30 3554 H 340.377 -4.06978 -2.17178 0
M  V30 3555 H 338.62 -3.85935 -1.98082 0
M  V30 3556 H 339.291 -4.20341 -3.57796 0
M  V30 3557 H 341.767 -2.27895 -3.48143 0
M  V30 3558 H 340.643 -2.62484 -4.82072 0
M  V30 3559 H 340.904 -0.963082 -4.31482 0
M  V30 3560 N 339.963 1.05934 -1.16686 0
M  V30 3561 C 340.893 2.1546 -0.899949 0
M  V30 3562 C 341.874 1.69391 0.155154 0
M  V30 3563 O 343.059 1.94199 0.00648693 0
M  V30 3564 C 340.189 3.44939 -0.404241 0
M  V30 3565 C 339.143 4.04536 -1.39767 0
M  V30 3566 C 338.469 5.29268 -0.760216 0
M  V30 3567 C 339.769 4.42893 -2.76845 0
M  V30 3568 H 341.463 2.38046 -1.81588 0
M  V30 3569 H 339.009 1.14404 -0.874514 0
M  V30 3570 H 340.962 4.20901 -0.204971 0
M  V30 3571 H 339.686 3.21983 0.547206 0
M  V30 3572 H 338.345 3.30635 -1.58355 0
M  V30 3573 H 337.993 5.02611 0.197831 0
M  V30 3574 H 337.693 5.70101 -1.42332 0
M  V30 3575 H 339.217 6.07924 -0.57105 0
M  V30 3576 H 340.631 5.09921 -2.62019 0
M  V30 3577 H 339.028 4.94721 -3.39663 0
M  V30 3578 H 340.098 3.53584 -3.31823 0
M  V30 3579 N 341.441 0.965919 1.2453 0
M  V30 3580 C 342.371 0.513476 2.27784 0
M  V30 3581 C 343.352 -0.445974 1.6415 0
M  V30 3582 O 344.537 -0.342485 1.91156 0
M  V30 3583 C 341.667 -0.198839 3.4673 0
M  V30 3584 C 340.621 0.676456 4.2262 0
M  V30 3585 C 339.947 -0.167248 5.34438 0
M  V30 3586 C 341.247 1.96017 4.84123 0
M  V30 3587 H 342.941 1.3765 2.65881 0
M  V30 3588 H 340.487 0.663321 1.27813 0
M  V30 3589 H 342.44 -0.526567 4.18097 0
M  V30 3590 H 341.164 -1.0962 3.07654 0
M  V30 3591 H 339.823 0.98743 3.53052 0
M  V30 3592 H 339.471 -1.0647 4.91603 0
M  V30 3593 H 339.171 0.415181 5.86131 0
M  V30 3594 H 340.695 -0.489688 6.08633 0
M  V30 3595 H 342.109 1.69814 5.47573 0
M  V30 3596 H 340.506 2.48918 5.4604 0
M  V30 3597 H 341.576 2.65622 4.05676 0
M  V30 3598 N 342.919 -1.39368 0.735821 0
M  V30 3599 C 343.867 -2.32443 0.0855131 0
M  V30 3600 C 344.861 -1.53104 -0.724954 0
M  V30 3601 O 346.067 -1.68762 -0.626047 0
M  V30 3602 H 342.442 -0.751948 0.00885257 0
M  V30 3603 H 344.413 -2.84916 0.886883 0
M  V30 3604 C 343.162 -3.38206 -0.806983 0
M  V30 3605 H 342.485 -3.99335 -0.19274 0
M  V30 3606 H 343.925 -4.05779 -1.2296 0
M  V30 3607 C 342.384 -2.75321 -1.94165 0
M  V30 3608 O 342.914 -2.63231 -3.03435 0
M  V30 3609 N 341.12 -2.33396 -1.73132 0
M  V30 3610 H 340.667 -2.4343 -0.842596 0
M  V30 3611 H 340.625 -1.91661 -2.49225 0
M  V30 3612 N 344.397 -0.483516 -1.5 0
M  V30 3613 C 345.625 0.0644831 -2.06799 0
M  V30 3614 C 346.04 1.32399 -1.34596 0
M  V30 3615 O 345.397 1.77626 -0.418946 0
M  V30 3616 C 345.448 0.339927 -3.59898 0
M  V30 3617 O 345.169 -0.869635 -4.29382 0
M  V30 3618 C 346.67 0.933515 -4.33359 0
M  V30 3619 H 343.89 -0.0126333 -0.670881 0
M  V30 3620 H 346.434 -0.675864 -1.93009 0
M  V30 3621 H 344.589 1.03022 -3.7345 0
M  V30 3622 H 345.003 -0.62179 -5.20801 0
M  V30 3623 H 346.477 1.07593 -5.41413 0
M  V30 3624 H 346.954 1.92685 -3.94676 0
M  V30 3625 H 347.56 0.281221 -4.24369 0
M  V30 3626 N 345.875 1.56104 -0.216619 0
M  V30 3627 C 347.103 2.02563 0.421413 0
M  V30 3628 C 347.518 1.0965 1.53695 0
M  V30 3629 O 346.875 0.10521 1.82196 0
M  V30 3630 C 346.926 3.48584 0.957665 0
M  V30 3631 O 346.647 4.37953 -0.113389 0
M  V30 3632 C 348.148 4.10664 1.66943 0
M  V30 3633 H 345.368 0.662944 0.103665 0
M  V30 3634 H 347.912 2.01793 -0.331629 0
M  V30 3635 H 346.067 3.49985 1.661 0
M  V30 3636 H 346.481 5.23704 0.288932 0
M  V30 3637 H 347.955 5.14622 1.99671 0
M  V30 3638 H 348.432 3.55373 2.58083 0
M  V30 3639 H 349.038 4.13098 1.01142 0
M  V30 3640 N 347.353 -0.0568162 1.57498 0
M  V30 3641 C 348.599 -0.75422 1.88253 0
M  V30 3642 C 348.932 -1.76461 0.810865 0
M  V30 3643 O 348.207 -1.93691 -0.177259 0
M  V30 3644 C 348.49 -1.44878 3.2967 0
M  V30 3645 C 348.343 -0.453789 4.47505 0
M  V30 3646 C 349.662 -2.38994 3.69554 0
M  V30 3647 H 346.781 -0.272724 0.684683 0
M  V30 3648 H 349.423 -0.0172113 1.89992 0
M  V30 3649 H 347.573 -2.077 3.28318 0
M  V30 3650 H 349.245 0.170371 4.60985 0
M  V30 3651 H 347.488 0.229552 4.33192 0
M  V30 3652 H 348.159 -0.977699 5.43273 0
M  V30 3653 H 350.635 -1.86239 3.72095 0
M  V30 3654 H 349.511 -2.84587 4.69363 0
M  V30 3655 H 349.772 -3.24461 3.00296 0
M  V30 3656 N 348.832 -1.54138 -0.328536 0
M  V30 3657 C 349.795 -1.82462 -1.38709 0
M  V30 3658 C 350.795 -0.696229 -1.44946 0
M  V30 3659 O 351.985 -0.964535 -1.4506 0
M  V30 3660 C 349.117 -1.98018 -2.77492 0
M  V30 3661 H 350.31 -2.77037 -1.14851 0
M  V30 3662 H 347.863 -1.45779 -0.563751 0
M  V30 3663 H 348.598 -1.05637 -3.06613 0
M  V30 3664 H 348.383 -2.80124 -2.74359 0
M  V30 3665 H 349.873 -2.21396 -3.54081 0
M  V30 3666 N 350.31 0.590341 -1.46126 0
M  V30 3667 C 351.721 1.17243 -1.45296 0
M  V30 3668 C 352.072 1.95281 -0.189723 0
M  V30 3669 O 351.197 2.04502 0.707674 0
M  V30 3670 C 351.792 2.13284 -2.6324 0
M  V30 3671 C 350.351 2.66832 -2.65476 0
M  V30 3672 C 349.498 1.42557 -2.3785 0
M  V30 3673 H 352.449 0.378692 -1.54116 0
M  V30 3674 H 352.47 2.96619 -2.38323 0
M  V30 3675 H 351.982 1.56459 -3.55165 0
M  V30 3676 H 350.083 3.27548 -1.77603 0
M  V30 3677 H 350.196 3.10088 -3.65215 0
M  V30 3678 H 348.56 1.72107 -1.87753 0
M  V30 3679 H 349.343 0.875741 -3.31942 0
M  V30 3680 N 351.788 1.33704 0.83433 0
M  V30 3681 C 352.718 1.26967 1.95963 0
M  V30 3682 C 353.699 0.149337 1.69443 0
M  V30 3683 O 354.884 0.339852 1.91203 0
M  V30 3684 C 352.014 1.01275 3.32206 0
M  V30 3685 C 350.968 2.09652 3.73136 0
M  V30 3686 C 350.294 1.69166 5.07235 0
M  V30 3687 C 351.594 3.51372 3.86439 0
M  V30 3688 H 353.288 2.2112 2.01857 0
M  V30 3689 H 350.834 1.06447 0.969793 0
M  V30 3690 H 352.787 0.952106 4.10503 0
M  V30 3691 H 351.511 0.0356203 3.26581 0
M  V30 3692 H 350.17 2.14766 2.97104 0
M  V30 3693 H 349.818 0.701437 4.98085 0
M  V30 3694 H 349.518 2.41694 5.35591 0
M  V30 3695 H 351.042 1.64576 5.88003 0
M  V30 3696 H 352.456 3.48734 4.55036 0
M  V30 3697 H 350.853 4.22425 4.26236 0
M  V30 3698 H 351.923 3.89546 2.88759 0
M  V30 3699 N 353.266 -1.05314 1.17247 0
M  V30 3700 C 354.513 -1.78293 0.960091 0
M  V30 3701 C 354.841 -1.87658 -0.51136 0
M  V30 3702 O 354.096 -1.3718 -1.39571 0
M  V30 3703 C 354.395 -3.2229 1.54479 0
M  V30 3704 C 354.061 -3.32987 3.04024 0
M  V30 3705 C 352.723 -3.35613 3.44844 0
M  V30 3706 C 355.075 -3.34102 4.00031 0
M  V30 3707 C 352.403 -3.36982 4.8027 0
M  V30 3708 C 354.755 -3.3701 5.35357 0
M  V30 3709 C 353.419 -3.37923 5.75642 0
M  V30 3710 H 352.689 -0.652422 0.351322 0
M  V30 3711 H 355.336 -1.23782 1.46117 0
M  V30 3712 H 353.641 -3.7972 0.965391 0
M  V30 3713 H 355.338 -3.77376 1.35603 0
M  V30 3714 H 351.928 -3.31655 2.71483 0
M  V30 3715 H 356.112 -3.31276 3.69554 0
M  V30 3716 H 351.368 -3.35999 5.10798 0
M  V30 3717 H 355.542 -3.36822 6.09528 0
M  V30 3718 H 353.169 -3.38738 6.80559 0
M  V30 3719 N 354.744 -0.972509 -1.24016 0
M  V30 3720 C 355.991 -0.637034 -1.92219 0
M  V30 3721 C 356.319 0.828418 -1.75976 0
M  V30 3722 O 355.574 1.61206 -1.10955 0
M  V30 3723 C 355.873 -0.963694 -3.44162 0
M  V30 3724 C 355.539 -2.41807 -3.80579 0
M  V30 3725 C 354.201 -2.81556 -3.9023 0
M  V30 3726 C 356.553 -3.36172 -3.98293 0
M  V30 3727 C 353.881 -4.14702 -4.15017 0
M  V30 3728 C 356.233 -4.68952 -4.24578 0
M  V30 3729 C 354.897 -5.08472 -4.32449 0
M  V30 3730 H 354.167 -0.233107 -0.703379 0
M  V30 3731 H 356.814 -1.2249 -1.47202 0
M  V30 3732 H 355.119 -0.29365 -3.90698 0
M  V30 3733 H 356.816 -0.682449 -3.9515 0
M  V30 3734 H 353.406 -2.09988 -3.73635 0
M  V30 3735 H 357.59 -3.06644 -3.90234 0
M  V30 3736 H 352.846 -4.4494 -4.19331 0
M  V30 3737 H 357.02 -5.42037 -4.37229 0
M  V30 3738 H 354.647 -6.11665 -4.51409 0
M  V30 3739 N 356.222 1.38976 -0.743202 0
M  V30 3740 C 357.185 2.28901 -0.117014 0
M  V30 3741 C 358.185 1.46698 0.658503 0
M  V30 3742 O 359.375 1.67274 0.486305 0
M  V30 3743 C 356.507 3.30309 0.84315 0
M  V30 3744 H 357.7 2.8578 -0.909373 0
M  V30 3745 H 355.253 1.47761 -0.509547 0
M  V30 3746 H 355.988 2.785 1.66157 0
M  V30 3747 H 355.773 3.91029 0.289594 0
M  V30 3748 H 357.263 3.97577 1.2776 0
M  V30 3749 N 357.7 0.491464 1.49741 0
M  V30 3750 C 358.977 -0.118984 1.95238 0
M  V30 3751 C 359.357 -1.55044 1.43264 0
M  V30 3752 O 358.705 -2.19287 0.642287 0
M  V30 3753 C 358.915 -0.0414187 3.48975 0
M  V30 3754 C 360.263 -0.220133 4.24029 0
M  V30 3755 O 361.287 -0.117055 3.56008 0
M  V30 3756 O 360.146 -0.430567 5.44801 0
M  V30 3757 H 357.24 -0.100536 0.820866 0
M  V30 3758 H 359.786 0.553322 1.60426 0
M  V30 3759 H 358.558 0.957214 3.79412 0
M  V30 3760 H 358.181 -0.754292 3.9038 0
M  V30 3761 N 359.178 -1.55987 0.224894 0
M  V30 3762 C 360.11 -2.17722 -0.716224 0
M  V30 3763 C 361.123 -1.14723 -1.15509 0
M  V30 3764 O 362.312 -1.41688 -1.08567 0
M  V30 3765 C 359.412 -2.74873 -1.98238 0
M  V30 3766 C 358.585 -4.03074 -1.69853 0
M  V30 3767 C 357.644 -4.44757 -2.81208 0
M  V30 3768 O 356.67 -5.11587 -2.49534 0
M  V30 3769 N 357.872 -4.10716 -4.10235 0
M  V30 3770 H 360.637 -2.99109 -0.188123 0
M  V30 3771 H 358.198 -1.6184 0.0440123 0
M  V30 3772 H 360.19 -2.99727 -2.7193 0
M  V30 3773 H 358.76 -1.9777 -2.42086 0
M  V30 3774 H 357.98 -3.86041 -0.797875 0
M  V30 3775 H 359.268 -4.86701 -1.48324 0
M  V30 3776 H 358.666 -3.57019 -4.38809 0
M  V30 3777 H 357.223 -4.40455 -4.80461 0
M  V30 3778 N 360.656 0.0484629 -1.57525 0
M  V30 3779 C 361.903 0.743125 -1.88372 0
M  V30 3780 C 362.231 1.76383 -0.819715 0
M  V30 3781 O 361.486 1.94855 0.181659 0
M  V30 3782 C 361.785 1.46632 -3.25935 0
M  V30 3783 C 361.451 0.583427 -4.4711 0
M  V30 3784 C 360.113 0.340191 -4.79996 0
M  V30 3785 C 362.465 -0.0273345 -5.21193 0
M  V30 3786 C 359.793 -0.522903 -5.84365 0
M  V30 3787 C 362.145 -0.878017 -6.26477 0
M  V30 3788 C 360.809 -1.1309 -6.5785 0
M  V30 3789 H 360.079 0.271929 -0.689301 0
M  V30 3790 H 362.726 0.00336166 -1.915 0
M  V30 3791 H 361.031 2.2789 -3.18706 0
M  V30 3792 H 362.728 2.00902 -3.47044 0
M  V30 3793 H 359.318 0.783151 -4.21384 0
M  V30 3794 H 363.502 0.147654 -4.9608 0
M  V30 3795 H 358.758 -0.727335 -6.07058 0
M  V30 3796 H 362.932 -1.35789 -6.83033 0
M  V30 3797 H 360.559 -1.80144 -7.38547 0
M  V30 3798 N 362.134 1.5431 0.320358 0
M  V30 3799 C 363.064 1.86912 1.3995 0
M  V30 3800 C 364.045 0.726211 1.53819 0
M  V30 3801 O 365.23 0.980233 1.67646 0
M  V30 3802 C 362.36 2.09932 2.7667 0
M  V30 3803 C 361.314 3.25776 2.77586 0
M  V30 3804 C 360.64 3.34173 4.17412 0
M  V30 3805 C 361.94 4.6335 2.41048 0
M  V30 3806 H 363.634 2.77292 1.12914 0
M  V30 3807 H 361.18 1.33421 0.541738 0
M  V30 3808 H 363.133 2.31324 3.52232 0
M  V30 3809 H 361.857 1.16304 3.0519 0
M  V30 3810 H 360.516 3.04276 2.04479 0
M  V30 3811 H 360.164 2.38098 4.43078 0
M  V30 3812 H 359.864 4.12033 4.18931 0
M  V30 3813 H 361.388 3.57803 4.94782 0
M  V30 3814 H 362.802 4.84602 3.06324 0
M  V30 3815 H 361.199 5.43782 2.53813 0
M  V30 3816 H 362.269 4.65381 1.36193 0
M  V30 3817 N 363.613 -0.582584 1.46437 0
M  V30 3818 C 364.545 -1.70618 1.53043 0
M  V30 3819 C 365.558 -1.57322 0.418769 0
M  V30 3820 O 366.747 -1.64744 0.687136 0
M  V30 3821 C 363.847 -3.08869 1.39474 0
M  V30 3822 C 363.02 -3.48166 2.64762 0
M  V30 3823 C 362.079 -4.65478 2.4539 0
M  V30 3824 O 361.105 -4.71333 3.19114 0
M  V30 3825 N 362.307 -5.60365 1.51564 0
M  V30 3826 H 365.072 -1.65405 2.49923 0
M  V30 3827 H 362.633 -0.768567 1.42494 0
M  V30 3828 H 364.625 -3.85143 1.24287 0
M  V30 3829 H 363.195 -3.08449 0.507758 0
M  V30 3830 H 362.415 -2.61598 2.9489 0
M  V30 3831 H 363.703 -3.71188 3.4799 0
M  V30 3832 H 363.101 -5.5837 0.907705 0
M  V30 3833 H 361.658 -6.36068 1.4234 0
M  V30 3834 N 365.091 -1.34144 -0.827227 0
M  V30 3835 C 366.021 -1.28005 -1.95287 0
M  V30 3836 C 367.002 -0.158321 -1.69362 0
M  V30 3837 O 368.187 -0.349987 -1.9102 0
M  V30 3838 C 365.317 -1.03036 -3.31664 0
M  V30 3839 C 364.271 -2.11628 -3.72019 0
M  V30 3840 C 363.597 -1.71854 -5.0633 0
M  V30 3841 C 364.897 -3.53417 -3.8457 0
M  V30 3842 H 366.591 -2.22187 -2.00682 0
M  V30 3843 H 364.137 -1.0696 -0.964135 0
M  V30 3844 H 366.09 -0.973863 -4.09993 0
M  V30 3845 H 364.814 -0.0529391 -3.26557 0
M  V30 3846 H 363.473 -2.16339 -2.95961 0
M  V30 3847 H 363.121 -0.727841 -4.97706 0
M  V30 3848 H 362.821 -2.44531 -5.34302 0
M  V30 3849 H 364.345 -1.67692 -5.87122 0
M  V30 3850 H 365.759 -3.51142 -4.5318 0
M  V30 3851 H 364.156 -4.24679 -4.2399 0
M  V30 3852 H 365.226 -3.91072 -2.86689 0
M  V30 3853 N 366.569 1.04691 -1.17803 0
M  V30 3854 C 367.794 1.81984 -0.994813 0
M  V30 3855 C 368.219 1.82586 0.452112 0
M  V30 3856 O 367.577 1.23854 1.324 0
M  V30 3857 C 367.625 3.2575 -1.54659 0
M  V30 3858 O 366.729 4.05267 -0.763728 0
M  V30 3859 H 366.07 0.562483 -0.352857 0
M  V30 3860 H 368.6 1.3189 -1.56417 0
M  V30 3861 H 368.61 3.76541 -1.57102 0
M  V30 3862 H 367.285 3.24627 -2.59981 0
M  V30 3863 H 365.862 3.63972 -0.811108 0
M  V30 3864 N 368.047 0.979072 1.23499 0
M  V30 3865 C 369.275 0.665202 1.95915 0
M  V30 3866 C 369.69 -0.767571 1.72493 0
M  V30 3867 O 369.047 -1.51635 1.01554 0
M  V30 3868 C 369.098 0.944438 3.48945 0
M  V30 3869 O 368.819 2.3209 3.71572 0
M  V30 3870 C 370.32 0.646336 4.38563 0
M  V30 3871 H 367.54 0.247218 0.623798 0
M  V30 3872 H 370.084 1.31009 1.57025 0
M  V30 3873 H 368.239 0.345575 3.85856 0
M  V30 3874 H 368.653 2.40957 4.65876 0
M  V30 3875 H 370.127 0.892091 5.44744 0
M  V30 3876 H 370.604 -0.419575 4.37191 0
M  V30 3877 H 371.21 1.22562 4.07258 0
M  V30 3878 N 369.525 -1.3858 0.750561 0
M  V30 3879 C 370.75 -2.04997 0.314812 0
M  V30 3880 C 371.175 -1.56235 -1.04749 0
M  V30 3881 O 370.533 -0.712981 -1.66692 0
M  V30 3882 C 370.581 -3.58961 0.343415 0
M  V30 3883 O 369.685 -4.07025 -0.663628 0
M  V30 3884 H 369.026 -0.649081 0.139962 0
M  V30 3885 H 371.556 -1.77313 1.02084 0
M  V30 3886 H 371.566 -4.07542 0.193233 0
M  V30 3887 H 370.241 -3.93811 1.33738 0
M  V30 3888 H 368.818 -3.6982 -0.478307 0
M  V30 3889 N 371.003 -0.499398 -1.49478 0
M  V30 3890 C 371.933 0.269244 -2.31943 0
M  V30 3891 C 372.914 0.964054 -1.40143 0
M  V30 3892 O 374.099 0.955767 -1.69052 0
M  V30 3893 C 371.229 1.33504 -3.20615 0
M  V30 3894 C 370.183 0.760202 -4.21195 0
M  V30 3895 C 369.509 1.9264 -4.98792 0
M  V30 3896 C 370.809 -0.247661 -5.21712 0
M  V30 3897 H 372.503 -0.419082 -2.96452 0
M  V30 3898 H 370.049 -0.202988 -1.42562 0
M  V30 3899 H 372.002 1.88048 -3.77115 0
M  V30 3900 H 370.726 2.05253 -2.54045 0
M  V30 3901 H 369.385 0.23653 -3.65836 0
M  V30 3902 H 369.033 2.63154 -4.28671 0
M  V30 3903 H 368.733 1.54785 -5.66847 0
M  V30 3904 H 370.257 2.4762 -5.58137 0
M  V30 3905 H 371.671 0.209579 -5.72917 0
M  V30 3906 H 370.068 -0.541962 -5.97648 0
M  V30 3907 H 371.138 -1.16409 -4.7072 0
M  V30 3908 N 372.481 1.55866 -0.233164 0
M  V30 3909 C 373.892 1.847 0.272554 0
M  V30 3910 C 374.243 1.15477 1.58617 0
M  V30 3911 O 373.368 0.42841 2.12117 0
M  V30 3912 C 373.963 3.35071 0.501299 0
M  V30 3913 C 372.522 3.6418 0.951304 0
M  V30 3914 C 371.669 2.77292 0.0208209 0
M  V30 3915 H 374.62 1.52005 -0.456074 0
M  V30 3916 H 374.641 3.55906 1.34577 0
M  V30 3917 H 374.153 3.85424 -0.454936 0
M  V30 3918 H 372.254 3.19293 1.92049 0
M  V30 3919 H 372.367 4.72071 0.817675 0
M  V30 3920 H 370.731 2.49131 0.529723 0
M  V30 3921 H 371.514 3.30448 -0.93054 0
M  V30 3922 N 373.959 -0.0401083 1.57549 0
M  V30 3923 C 375.184 -0.748931 1.93406 0
M  V30 3924 C 375.609 -1.68686 0.832274 0
M  V30 3925 O 374.967 -1.80047 -0.212818 0
M  V30 3926 C 375.015 -1.4916 3.28304 0
M  V30 3927 O 374.119 -2.6042 3.19774 0
M  V30 3928 H 373.46 -0.202212 0.63246 0
M  V30 3929 H 375.99 0.00112086 2.046 0
M  V30 3930 H 376 -1.86395 3.62934 0
M  V30 3931 H 374.675 -0.80364 4.08062 0
M  V30 3932 H 373.252 -2.25808 2.96758 0
M  V30 3933 N 375.437 -1.54477 -0.31217 0
M  V30 3934 C 376.369 -1.81011 -1.40598 0
M  V30 3935 C 377.382 -0.692546 -1.47335 0
M  V30 3936 O 378.571 -0.969847 -1.49854 0
M  V30 3937 C 375.671 -1.92307 -2.79054 0
M  V30 3938 C 374.844 -3.22594 -2.95384 0
M  V30 3939 C 373.903 -3.24448 -4.1427 0
M  V30 3940 O 372.929 -3.98035 -4.06887 0
M  V30 3941 N 374.131 -2.49042 -5.24365 0
M  V30 3942 H 376.896 -2.75408 -1.18196 0
M  V30 3943 H 374.457 -1.53914 -0.502202 0
M  V30 3944 H 376.449 -1.90962 -3.56813 0
M  V30 3945 H 375.019 -1.04955 -2.94454 0
M  V30 3946 H 374.239 -3.36806 -2.04831 0
M  V30 3947 H 375.527 -4.08593 -3.03198 0
M  V30 3948 H 374.925 -1.88867 -5.33241 0
M  V30 3949 H 373.482 -2.53463 -6.005 0
M  V30 3950 N 376.915 0.57481 -1.46744 0
M  V30 3951 C 378.145 1.35659 -1.55821 0
M  V30 3952 C 378.553 1.88129 -0.201036 0
M  V30 3953 O 377.896 1.64723 0.813134 0
M  V30 3954 C 377.958 2.57473 -2.50894 0
M  V30 3955 C 377.622 2.26415 -3.9697 0
M  V30 3956 C 378.619 1.84771 -4.85958 0
M  V30 3957 C 376.304 2.38316 -4.42166 0
M  V30 3958 C 378.298 1.55434 -6.18158 0
M  V30 3959 C 375.985 2.08591 -5.74398 0
M  V30 3960 C 376.983 1.67216 -6.62214 0
M  V30 3961 O 376.671 1.37859 -7.91991 0
M  V30 3962 H 376.403 0.420496 -0.529301 0
M  V30 3963 H 378.957 0.704967 -1.92923 0
M  V30 3964 H 377.187 3.25468 -2.08824 0
M  V30 3965 H 378.876 3.19546 -2.50291 0
M  V30 3966 H 379.642 1.75085 -4.52295 0
M  V30 3967 H 375.521 2.69483 -3.74032 0
M  V30 3968 H 379.065 1.23065 -6.86659 0
M  V30 3969 H 374.962 2.17905 -6.07608 0
M  V30 3970 H 375.73 1.51638 -8.04331 0
M  V30 3971 N 378.394 1.34581 0.820102 0
M  V30 3972 C 379.643 1.26437 1.57151 0
M  V30 3973 C 379.956 -0.163111 1.94919 0
M  V30 3974 O 381.162 -0.366722 2.69012 0
M  V30 3975 C 379.618 2.21658 2.83541 0
M  V30 3976 C 379.226 3.69679 2.53065 0
M  V30 3977 C 380.97 2.22428 3.61561 0
M  V30 3978 C 378.877 4.56761 3.75664 0
M  V30 3979 H 377.807 0.469707 0.589823 0
M  V30 3980 H 380.458 1.59763 0.902656 0
M  V30 3981 H 378.84 1.81287 3.52067 0
M  V30 3982 H 380.014 4.18605 1.92631 0
M  V30 3983 H 378.329 3.71384 1.88316 0
M  V30 3984 H 380.926 2.8471 4.52597 0
M  V30 3985 H 381.269 1.22434 3.97889 0
M  V30 3986 H 381.802 2.61259 2.99981 0
M  V30 3987 H 378.541 5.57702 3.44454 0
M  V30 3988 H 378.061 4.12568 4.35371 0
M  V30 3989 H 379.74 4.71509 4.43044 0
M  V30 3990 N 379.872 -1.04064 1.18357 0
M  V30 3991 C 381.1 -1.80916 1.00384 0
M  V30 3992 C 381.515 -1.83414 -0.447738 0
M  V30 3993 O 380.872 -1.26962 -1.31099 0
M  V30 3994 C 380.923 -3.26516 1.55144 0
M  V30 3995 O 380.644 -3.2424 2.94618 0
M  V30 3996 C 382.145 -4.20013 1.41789 0
M  V30 3997 H 379.365 -0.569728 0.354474 0
M  V30 3998 H 381.909 -1.31151 1.56906 0
M  V30 3999 H 380.064 -3.73512 1.02798 0
M  V30 4000 H 380.478 -4.15452 3.20156 0
M  V30 4001 H 381.952 -5.20111 1.84901 0
M  V30 4002 H 382.429 -4.37667 0.36661 0
M  V30 4003 H 383.035 -3.78881 1.93207 0
M  V30 4004 N 381.35 -0.985608 -1.22978 0
M  V30 4005 C 382.598 -0.656087 -1.91154 0
M  V30 4006 C 382.919 0.813561 -1.77218 0
M  V30 4007 O 382.189 1.58244 -1.1548 0
M  V30 4008 H 380.769 -0.239674 -0.707506 0
M  V30 4009 H 383.431 -1.25054 -1.49491 0
M  V30 4010 H 382.527 -0.912253 -2.9847 0
M  V30 4011 N 382.828 1.3818 -0.7579 0
M  V30 4012 C 383.758 2.33027 -0.148597 0
M  V30 4013 C 384.739 1.55085 0.69875 0
M  V30 4014 O 385.924 1.83384 0.639053 0
M  V30 4015 C 383.054 3.3928 0.742034 0
M  V30 4016 C 382.008 4.28 -0.00291946 0
M  V30 4017 C 381.334 5.25146 1.00625 0
M  V30 4018 C 382.634 5.08938 -1.17385 0
M  V30 4019 H 384.328 2.84231 -0.940909 0
M  V30 4020 H 381.874 1.36659 -0.453908 0
M  V30 4021 H 383.827 4.046 1.17799 0
M  V30 4022 H 382.551 2.86569 1.56671 0
M  V30 4023 H 381.21 3.64192 -0.419504 0
M  V30 4024 H 380.858 4.68721 1.8251 0
M  V30 4025 H 380.558 5.85361 0.512428 0
M  V30 4026 H 382.082 5.93342 1.44143 0
M  V30 4027 H 383.496 5.67474 -0.815224 0
M  V30 4028 H 381.893 5.7841 -1.59882 0
M  V30 4029 H 382.963 4.42424 -1.98468 0
M  V30 4030 N 384.306 0.507319 1.49211 0
M  V30 4031 C 385.269 -0.256763 2.27757 0
M  V30 4032 C 386.269 -0.888287 1.34038 0
M  V30 4033 O 387.459 -0.751841 1.5714 0
M  V30 4034 C 384.591 -1.36905 3.12202 0
M  V30 4035 H 385.784 0.432557 2.96764 0
M  V30 4036 H 383.337 0.262488 1.5408 0
M  V30 4037 H 384.072 -2.09233 2.47775 0
M  V30 4038 H 383.857 -0.921599 3.81115 0
M  V30 4039 H 385.347 -1.9071 3.7151 0
M  V30 4040 N 385.784 -1.5574 0.241426 0
M  V30 4041 C 386.694 -2.2479 -0.671305 0
M  V30 4042 C 387.71 -1.26217 -1.19772 0
M  V30 4043 O 388.886 -1.59079 -1.23514 0
M  V30 4044 C 385.951 -2.92966 -1.85396 0
M  V30 4045 C 385.012 -4.06935 -1.36756 0
M  V30 4046 C 384.245 -4.71851 -2.49384 0
M  V30 4047 O 384.468 -4.35823 -3.67987 0
M  V30 4048 O 383.402 -5.60467 -2.19454 0
M  V30 4049 H 387.228 -3.0349 -0.112966 0
M  V30 4050 H 384.813 -1.49397 0.0101513 0
M  V30 4051 H 386.695 -3.35927 -2.54423 0
M  V30 4052 H 385.37 -2.17211 -2.40002 0
M  V30 4053 H 384.277 -3.68503 -0.644726 0
M  V30 4054 H 385.61 -4.84492 -0.867647 0
M  V30 4055 N 387.262 0.0317525 -1.57568 0
M  V30 4056 C 388.212 1.04101 -2.02847 0
M  V30 4057 C 389.196 1.3219 -0.917317 0
M  V30 4058 O 390.388 1.31819 -1.18121 0
M  V30 4059 C 387.517 2.34295 -2.5092 0
M  V30 4060 C 386.603 2.09308 -3.68851 0
M  V30 4061 N 386.994 1.5437 -4.81667 0
M  V30 4062 C 385.292 2.39604 -3.76172 0
M  V30 4063 C 385.993 1.45126 -5.63306 0
M  V30 4064 N 384.969 1.92589 -5.08341 0
M  V30 4065 H 388.771 0.610217 -2.87495 0
M  V30 4066 H 386.285 0.238108 -1.60645 0
M  V30 4067 H 388.282 3.07404 -2.81617 0
M  V30 4068 H 386.942 2.78055 -1.67677 0
M  V30 4069 H 387.953 1.22678 -5.03161 0
M  V30 4070 H 384.63 2.86457 -3.03724 0
M  V30 4071 H 386.02 1.03163 -6.63933 0
M  V30 4072 N 388.74 1.54641 0.303973 0
M  V30 4073 C 389.67 1.88386 1.3796 0
M  V30 4074 C 390.651 0.742485 1.5304 0
M  V30 4075 O 391.836 0.997959 1.66597 0
M  V30 4076 C 388.966 2.12854 2.74427 0
M  V30 4077 C 387.92 3.28702 2.74115 0
M  V30 4078 C 387.246 3.38582 4.13844 0
M  V30 4079 C 388.546 4.65881 2.3612 0
M  V30 4080 H 390.24 2.78474 1.09966 0
M  V30 4081 H 387.786 1.33988 0.527556 0
M  V30 4082 H 389.739 2.35047 3.49758 0
M  V30 4083 H 388.463 1.19535 3.03939 0
M  V30 4084 H 387.122 3.06428 2.0124 0
M  V30 4085 H 386.77 2.42784 4.40528 0
M  V30 4086 H 386.47 4.16453 4.14537 0
M  V30 4087 H 387.994 3.63031 4.90959 0
M  V30 4088 H 389.408 4.87823 3.01167 0
M  V30 4089 H 387.805 5.46444 2.48031 0
M  V30 4090 H 388.875 4.66799 1.3125 0
M  V30 4091 N 390.218 -0.567019 1.47046 0
M  V30 4092 C 391.443 -1.3551 1.57009 0
M  V30 4093 C 391.868 -1.86841 0.217259 0
M  V30 4094 O 391.226 -1.62435 -0.805268 0
M  V30 4095 C 391.274 -2.50777 2.5912 0
M  V30 4096 O 390.378 -3.52706 2.13711 0
M  V30 4097 H 389.719 -0.402919 0.52778 0
M  V30 4098 H 392.249 -0.686241 1.92748 0
M  V30 4099 H 392.259 -2.97481 2.79229 0
M  V30 4100 H 390.934 -2.12771 3.57353 0
M  V30 4101 H 389.511 -3.12374 2.03659 0
M  V30 4102 N 391.696 -1.35014 -0.812953 0
M  V30 4103 C 393.107 -1.25035 -1.38648 0
M  V30 4104 C 393.458 0.119967 -1.95833 0
M  V30 4105 O 392.583 1.02069 -1.90816 0
M  V30 4106 C 393.178 -2.26394 -2.52054 0
M  V30 4107 C 391.737 -2.20175 -3.05287 0
M  V30 4108 C 390.884 -2.12451 -1.78213 0
M  V30 4109 H 393.835 -1.46235 -0.616516 0
M  V30 4110 H 393.856 -1.88672 -3.30429 0
M  V30 4111 H 393.368 -3.26116 -2.10404 0
M  V30 4112 H 391.469 -1.23841 -3.51417 0
M  V30 4113 H 391.582 -3.11863 -3.63701 0
M  V30 4114 H 389.946 -1.58328 -1.9951 0
M  V30 4115 H 390.729 -3.14024 -1.38723 0
M  V30 4116 N 393.175 1.03435 -1.18907 0
M  V30 4117 C 394.105 2.13503 -0.945448 0
M  V30 4118 C 395.086 1.69682 0.119189 0
M  V30 4119 O 396.271 1.94169 -0.034707 0
M  V30 4120 C 393.401 3.44004 -0.477316 0
M  V30 4121 C 392.355 4.0148 -1.48316 0
M  V30 4122 C 391.681 5.27537 -0.872311 0
M  V30 4123 C 392.981 4.36921 -2.86177 0
M  V30 4124 H 394.675 2.34141 -1.86597 0
M  V30 4125 H 392.221 1.12523 -0.898584 0
M  V30 4126 H 394.174 4.20372 -0.294204 0
M  V30 4127 H 392.898 3.23072 0.478786 0
M  V30 4128 H 391.557 3.27201 -1.65332 0
M  V30 4129 H 391.205 5.02917 0.0911752 0
M  V30 4130 H 390.905 5.66954 -1.54393 0
M  V30 4131 H 392.429 6.06576 -0.699871 0
M  V30 4132 H 393.843 5.04248 -2.72776 0
M  V30 4133 H 392.24 4.87405 -3.50081 0
M  V30 4134 H 393.31 3.46466 -3.39248 0
M  V30 4135 N 394.653 0.992116 1.22453 0
M  V30 4136 C 395.586 0.486701 2.22949 0
M  V30 4137 C 396.564 -0.45259 1.56174 0
M  V30 4138 O 397.748 -0.378317 1.84665 0
M  V30 4139 C 394.875 -0.294537 3.37417 0
M  V30 4140 C 393.921 0.590628 4.22391 0
M  V30 4141 S 394.754 2.04546 4.94895 0
M  V30 4142 C 395.91 1.27369 6.12803 0
M  V30 4143 H 396.143 1.33828 2.65475 0
M  V30 4144 H 393.676 0.799023 1.32117 0
M  V30 4145 H 395.634 -0.739241 4.03789 0
M  V30 4146 H 394.295 -1.12139 2.934 0
M  V30 4147 H 393.488 -0.0104375 5.03999 0
M  V30 4148 H 393.09 0.972064 3.61147 0
M  V30 4149 H 395.382 0.540943 6.75337 0
M  V30 4150 H 396.325 2.06502 6.7732 0
M  V30 4151 H 396.733 0.787324 5.58983 0
M  V30 4152 N 396.131 -1.37776 0.765217 0
M  V30 4153 C 397.061 -2.32945 0.160953 0
M  V30 4154 C 398.042 -1.55454 -0.690516 0
M  V30 4155 O 399.227 -1.83721 -0.629318 0
M  V30 4156 C 396.357 -3.39669 -0.724031 0
M  V30 4157 C 395.311 -4.27992 0.0256173 0
M  V30 4158 C 394.637 -5.25673 -0.978383 0
M  V30 4159 C 395.937 -5.08309 1.20082 0
M  V30 4160 H 397.631 -2.83728 0.955969 0
M  V30 4161 H 395.177 -1.36416 0.461149 0
M  V30 4162 H 397.13 -4.05219 -1.15652 0
M  V30 4163 H 395.854 -2.87396 -1.5515 0
M  V30 4164 H 394.513 -3.63964 0.438812 0
M  V30 4165 H 394.161 -4.69682 -1.80022 0
M  V30 4166 H 393.861 -5.85625 -0.481378 0
M  V30 4167 H 395.385 -5.94098 -1.40995 0
M  V30 4168 H 396.799 -5.67034 0.845307 0
M  V30 4169 H 395.196 -5.77554 1.62947 0
M  V30 4170 H 396.266 -4.41365 2.00811 0
M  V30 4171 N 397.609 -0.515225 -1.4894 0
M  V30 4172 C 398.834 0.022727 -2.07388 0
M  V30 4173 C 399.259 1.2876 -1.37122 0
M  V30 4174 O 398.617 1.76067 -0.432431 0
M  V30 4175 C 398.665 0.244869 -3.59768 0
M  V30 4176 O 397.769 1.31667 -3.90817 0
M  V30 4177 H 397.11 -0.0325506 -0.663202 0
M  V30 4178 H 399.64 -0.718918 -1.91553 0
M  V30 4179 H 399.65 0.47205 -4.0526 0
M  V30 4180 H 398.325 -0.679194 -4.10317 0
M  V30 4181 H 396.902 1.07331 -3.5712 0
M  V30 4182 N 399.087 1.5561 -0.249682 0
M  V30 4183 C 400.315 2.03411 0.378352 0
M  V30 4184 C 400.73 1.12886 1.51335 0
M  V30 4185 O 400.087 0.143833 1.81932 0
M  V30 4186 C 400.138 3.50537 0.88351 0
M  V30 4187 O 399.859 4.37614 -0.20626 0
M  V30 4188 C 401.36 4.14113 1.58195 0
M  V30 4189 H 398.58 0.664994 0.08958 0
M  V30 4190 H 401.124 2.01044 -0.374357 0
M  V30 4191 H 399.279 3.5343 1.58639 0
M  V30 4192 H 399.693 5.24199 0.177782 0
M  V30 4193 H 401.167 5.18741 1.8871 0
M  V30 4194 H 401.644 3.60767 2.50487 0
M  V30 4195 H 402.25 4.15151 0.923573 0
M  V30 4196 N 400.565 -0.0233959 1.57583 0
M  V30 4197 C 401.79 -0.728376 1.94189 0
M  V30 4198 C 402.215 -1.67793 0.850119 0
M  V30 4199 O 401.573 -1.80262 -0.19371 0
M  V30 4200 C 401.621 -1.45669 3.29868 0
M  V30 4201 O 400.725 -2.57013 3.22518 0
M  V30 4202 H 400.066 -0.195493 0.63457 0
M  V30 4203 H 402.596 0.0228214 2.04587 0
M  V30 4204 H 402.606 -1.82535 3.6489 0
M  V30 4205 H 401.281 -0.760314 4.08891 0
M  V30 4206 H 399.858 -2.22648 2.99136 0
M  V30 4207 N 402.043 -1.548 -0.295768 0
M  V30 4208 C 403.289 -1.75517 -1.02789 0
M  V30 4209 C 403.644 -0.537266 -1.84746 0
M  V30 4210 O 402.937 0.470299 -1.85738 0
M  V30 4211 C 403.131 -2.98797 -1.961 0
M  V30 4212 C 402.96 -4.3246 -1.23321 0
M  V30 4213 C 401.73 -4.96131 -0.95822 0
M  V30 4214 C 403.928 -5.10365 -0.635024 0
M  V30 4215 N 401.91 -6.1357 -0.201257 0
M  V30 4216 C 403.281 -6.19999 -0.0110937 0
M  V30 4217 C 405.336 -4.94957 -0.540594 0
M  V30 4218 C 404.039 -7.15904 0.698136 0
M  V30 4219 C 406.065 -5.91197 0.154992 0
M  V30 4220 C 405.427 -7.00203 0.767752 0
M  V30 4221 H 401.526 -0.694786 -0.358882 0
M  V30 4222 H 404.11 -1.92281 -0.305943 0
M  V30 4223 H 402.281 -2.83448 -2.6554 0
M  V30 4224 H 404.013 -3.08017 -2.62502 0
M  V30 4225 H 400.768 -4.56595 -1.25771 0
M  V30 4226 H 401.192 -6.76802 0.16389 0
M  V30 4227 H 405.834 -4.10803 -1.00003 0
M  V30 4228 H 403.552 -7.99595 1.16933 0
M  V30 4229 H 407.138 -5.81353 0.228069 0
M  V30 4230 H 406.018 -7.73393 1.29743 0
M  V30 4231 N 403.521 0.559213 -1.47345 0
M  V30 4232 C 404.749 1.34194 -1.57479 0
M  V30 4233 C 405.164 1.87463 -0.224261 0
M  V30 4234 O 404.521 1.64888 0.782185 0
M  V30 4235 C 404.572 2.51324 -2.59843 0
M  V30 4236 O 404.293 2.00256 -3.89653 0
M  V30 4237 C 405.794 3.43563 -2.80142 0
M  V30 4238 H 403.014 0.409136 -0.531835 0
M  V30 4239 H 405.558 0.677609 -1.92947 0
M  V30 4240 H 403.713 3.13699 -2.27314 0
M  V30 4241 H 404.127 2.76708 -4.4557 0
M  V30 4242 H 405.601 4.2217 -3.55635 0
M  V30 4243 H 406.078 3.9698 -1.87892 0
M  V30 4244 H 406.684 2.87005 -3.1386 0
M  V30 4245 N 404.999 1.35443 0.805782 0
M  V30 4246 C 406.415 1.15499 1.10146 0
M  V30 4247 C 406.615 -0.0319975 2.01475 0
M  V30 4248 O 405.671 -0.70236 2.42535 0
M  V30 4249 C 406.984 2.45833 1.73166 0
M  V30 4250 C 408.532 2.52047 1.85583 0
M  V30 4251 C 409.007 3.82427 2.52019 0
M  V30 4252 N 410.498 3.83682 2.59504 0
M  V30 4253 C 411.233 4.81294 3.11679 0
M  V30 4254 N 410.729 5.89294 3.64287 0
M  V30 4255 N 412.522 4.6873 3.1024 0
M  V30 4256 H 404.673 2.11469 0.198678 0
M  V30 4257 H 406.936 0.93594 0.150731 0
M  V30 4258 H 406.642 3.32874 1.13526 0
M  V30 4259 H 406.516 2.6044 2.72857 0
M  V30 4260 H 408.903 1.65435 2.44367 0
M  V30 4261 H 408.984 2.41354 0.847455 0
M  V30 4262 H 408.628 4.69437 1.93885 0
M  V30 4263 H 408.558 3.90409 3.53395 0
M  V30 4264 H 411.049 3.05648 2.22234 0
M  V30 4265 H 411.362 6.59768 4.02401 0
M  V30 4266 H 409.707 5.92985 3.62483 0
M  V30 4267 H 412.898 3.83496 2.68419 0
M  V30 4268 H 413.071 5.44965 3.50596 0
M  V30 4269 N 406.477 -1.02803 1.19454 0
M  V30 4270 C 407.726 -1.7562 0.991996 0
M  V30 4271 C 408.039 -1.89672 -0.477901 0
M  V30 4272 O 409.245 -2.59468 -0.799287 0
M  V30 4273 C 407.701 -3.15812 1.72601 0
M  V30 4274 C 407.309 -3.0981 3.23607 0
M  V30 4275 C 409.053 -3.92918 1.60674 0
M  V30 4276 C 406.96 -4.44939 3.89594 0
M  V30 4277 H 405.89 -0.658352 0.367543 0
M  V30 4278 H 408.541 -1.15044 1.42959 0
M  V30 4279 H 406.923 -3.7686 1.21624 0
M  V30 4280 H 408.097 -2.58138 3.81709 0
M  V30 4281 H 406.412 -2.46201 3.35819 0
M  V30 4282 H 409.009 -4.9287 2.07323 0
M  V30 4283 H 409.352 -4.12502 0.561025 0
M  V30 4284 H 409.885 -3.38472 2.09001 0
M  V30 4285 H 406.624 -4.30559 4.94267 0
M  V30 4286 H 406.144 -4.96664 3.36281 0
M  V30 4287 H 407.823 -5.1382 3.93189 0
M  V30 4288 N 407.956 -0.998596 -1.21925 0
M  V30 4289 C 409.184 -0.696286 -1.94832 0
M  V30 4290 C 409.599 0.740032 -1.73692 0
M  V30 4291 O 408.956 1.5 -1.03953 0
M  V30 4292 C 409.007 -0.999833 -3.47398 0
M  V30 4293 O 408.728 -2.37972 -3.67833 0
M  V30 4294 C 410.229 -0.716025 -4.37479 0
M  V30 4295 H 407.449 -0.257111 -0.619786 0
M  V30 4296 H 409.993 -1.33491 -1.54921 0
M  V30 4297 H 408.148 -0.406918 -3.85257 0
M  V30 4298 H 408.562 -2.48338 -4.61983 0
M  V30 4299 H 410.036 -0.978642 -5.43256 0
M  V30 4300 H 410.513 0.349968 -4.37803 0
M  V30 4301 H 411.119 -1.29025 -4.05256 0
M  V30 4302 N 409.434 1.37368 -0.772513 0
M  V30 4303 C 410.364 2.32856 -0.173304 0
M  V30 4304 C 411.345 1.55818 0.682262 0
M  V30 4305 O 412.53 1.84052 0.619566 0
M  V30 4306 C 409.66 3.40048 0.706007 0
M  V30 4307 C 408.614 4.27973 -0.0483144 0
M  V30 4308 C 407.94 5.26184 0.950491 0
M  V30 4309 C 409.24 5.07665 -1.22776 0
M  V30 4310 H 410.934 2.83217 -0.971002 0
M  V30 4311 H 408.48 1.3617 -0.468377 0
M  V30 4312 H 410.433 4.05827 1.13501 0
M  V30 4313 H 409.157 2.88214 1.53623 0
M  V30 4314 H 407.816 3.63726 -0.458107 0
M  V30 4315 H 407.464 4.7063 1.77529 0
M  V30 4316 H 407.164 5.85872 0.450314 0
M  V30 4317 H 408.688 5.94838 1.37842 0
M  V30 4318 H 410.102 5.66578 -0.875366 0
M  V30 4319 H 408.499 5.76681 -1.66007 0
M  V30 4320 H 409.569 4.40294 -2.03149 0
M  V30 4321 N 410.912 0.523116 1.48665 0
M  V30 4322 C 412.158 -0.00540031 2.03399 0
M  V30 4323 C 412.513 -1.3264 1.39372 0
M  V30 4324 O 411.806 -1.84184 0.527916 0
M  V30 4325 C 412 -0.191671 3.56886 0
M  V30 4326 C 411.829 1.10972 4.35793 0
M  V30 4327 C 410.599 1.66769 4.76987 0
M  V30 4328 C 412.797 2.01861 4.73029 0
M  V30 4329 N 410.779 2.91268 5.40404 0
M  V30 4330 C 412.15 3.10937 5.36394 0
M  V30 4331 C 414.205 2.02271 4.54962 0
M  V30 4332 C 412.908 4.20478 5.83601 0
M  V30 4333 C 414.934 3.10802 5.03146 0
M  V30 4334 C 414.296 4.18597 5.6653 0
M  V30 4335 H 410.395 0.0393531 0.781009 0
M  V30 4336 H 412.979 0.702876 1.8157 0
M  V30 4337 H 411.15 -0.869025 3.78553 0
M  V30 4338 H 412.882 -0.719177 3.98259 0
M  V30 4339 H 409.637 1.20996 4.57883 0
M  V30 4340 H 410.061 3.54635 5.76683 0
M  V30 4341 H 414.703 1.2023 4.05345 0
M  V30 4342 H 412.421 5.03303 6.32228 0
M  V30 4343 H 416.007 3.12166 4.90962 0
M  V30 4344 H 414.887 5.01193 6.03138 0
M  V30 4345 N 412.39 -1.55475 0.257931 0
M  V30 4346 C 413.338 -2.23244 -0.653076 0
M  V30 4347 C 414.332 -1.22366 -1.17144 0
M  V30 4348 O 415.538 -1.40347 -1.12706 0
M  V30 4349 H 411.913 -0.716247 -0.229117 0
M  V30 4350 H 413.884 -2.98343 -0.0584788 0
M  V30 4351 C 412.633 -2.95401 -1.83395 0
M  V30 4352 H 411.956 -3.72802 -1.44424 0
M  V30 4353 H 413.396 -3.46165 -2.44838 0
M  V30 4354 C 411.855 -1.99895 -2.71189 0
M  V30 4355 O 412.385 -1.53909 -3.71046 0
M  V30 4356 N 410.591 -1.6676 -2.3799 0
M  V30 4357 H 410.138 -2.04352 -1.56837 0
M  V30 4358 H 410.096 -1.03127 -2.97005 0
M  V30 4359 N 413.868 0.0150385 -1.57593 0
M  V30 4360 C 415.284 0.370907 -1.5523 0
M  V30 4361 C 415.484 1.75735 -0.985882 0
M  V30 4362 O 414.54 2.44944 -0.613077 0
M  V30 4363 C 415.853 0.259908 -2.99575 0
M  V30 4364 C 417.401 0.335959 -3.11192 0
M  V30 4365 C 417.876 0.254253 -4.57294 0
M  V30 4366 N 419.367 0.312618 -4.62144 0
M  V30 4367 C 420.102 0.272505 -5.72752 0
M  V30 4368 N 419.598 0.183864 -6.92556 0
M  V30 4369 N 421.391 0.323267 -5.6117 0
M  V30 4370 H 413.542 -0.892104 -1.92757 0
M  V30 4371 H 415.805 -0.340563 -0.884715 0
M  V30 4372 H 415.511 -0.693403 -3.44797 0
M  V30 4373 H 415.385 1.048 -3.62349 0
M  V30 4374 H 417.772 1.27971 -2.65909 0
M  V30 4375 H 417.853 -0.481739 -2.51223 0
M  V30 4376 H 417.497 -0.685887 -5.03247 0
M  V30 4377 H 417.427 1.09024 -5.15191 0
M  V30 4378 H 419.918 0.38307 -3.75953 0
M  V30 4379 H 420.231 0.15874 -7.72637 0
M  V30 4380 H 418.576 0.149708 -6.94839 0
M  V30 4381 H 421.767 0.390607 -4.66467 0
M  V30 4382 H 421.94 0.288539 -6.47357 0
M  V30 4383 N 415.346 1.54954 0.287554 0
M  V30 4384 C 416.623 1.65569 1.04146 0
M  V30 4385 C 417.003 0.512672 2.0478 0
M  V30 4386 O 416.351 -0.489038 2.23205 0
M  V30 4387 C 416.561 3.04163 1.71131 0
M  V30 4388 C 417.909 3.61429 2.22832 0
M  V30 4389 O 418.933 3.06702 1.81141 0
M  V30 4390 O 417.792 4.57281 2.9926 0
M  V30 4391 H 414.886 0.671881 0.482188 0
M  V30 4392 H 417.432 1.67297 0.28457 0
M  V30 4393 H 416.204 3.78796 0.981303 0
M  V30 4394 H 415.827 3.06271 2.53543 0
M  V30 4395 N 416.824 -0.551391 1.4764 0
M  V30 4396 C 417.754 -1.66757 1.63445 0
M  V30 4397 C 418.735 -1.63077 0.483742 0
M  V30 4398 O 419.92 -1.80607 0.71377 0
M  V30 4399 C 417.05 -3.05387 1.65396 0
M  V30 4400 C 416.004 -3.23918 2.79752 0
M  V30 4401 C 415.33 -4.63393 2.66779 0
M  V30 4402 C 416.63 -3.08735 4.21284 0
M  V30 4403 H 418.324 -1.53786 2.56886 0
M  V30 4404 H 415.87 -0.738415 1.23626 0
M  V30 4405 H 417.823 -3.83325 1.75043 0
M  V30 4406 H 416.547 -3.19332 0.685195 0
M  V30 4407 H 415.206 -2.48391 2.69625 0
M  V30 4408 H 414.854 -4.74144 1.67918 0
M  V30 4409 H 414.554 -4.7674 3.43501 0
M  V30 4410 H 416.078 -5.43458 2.78364 0
M  V30 4411 H 417.492 -3.76484 4.32357 0
M  V30 4412 H 415.889 -3.33588 4.98838 0
M  V30 4413 H 416.959 -2.0541 4.39243 0
M  V30 4414 N 418.302 -1.35869 -0.798587 0
M  V30 4415 C 419.265 -1.29307 -1.89242 0
M  V30 4416 C 420.265 -0.202747 -1.59517 0
M  V30 4417 O 421.455 -0.456957 -1.681 0
M  V30 4418 C 418.587 -1.00229 -3.25833 0
M  V30 4419 H 419.78 -2.26576 -1.96478 0
M  V30 4420 H 417.333 -1.20509 -0.995358 0
M  V30 4421 H 418.068 -0.033801 -3.24282 0
M  V30 4422 H 417.853 -1.79121 -3.48795 0
M  V30 4423 H 419.343 -0.98219 -4.05885 0
M  V30 4424 N 419.78 1.02168 -1.19998 0
M  V30 4425 C 421.191 1.57135 -1.00825 0
M  V30 4426 C 421.542 1.91276 0.436818 0
M  V30 4427 O 420.667 1.71679 1.3174 0
M  V30 4428 C 421.262 2.85514 -1.82393 0
M  V30 4429 C 419.821 3.37027 -1.67601 0
M  V30 4430 C 418.968 2.10388 -1.80644 0
M  V30 4431 H 421.919 0.846106 -1.34264 0
M  V30 4432 H 421.94 3.56711 -1.32429 0
M  V30 4433 H 421.452 2.60634 -2.87561 0
M  V30 4434 H 419.553 3.66878 -0.650485 0
M  V30 4435 H 419.666 4.09572 -2.4857 0
M  V30 4436 H 418.03 2.22601 -1.23778 0
M  V30 4437 H 418.813 1.8794 -2.87286 0
M  V30 4438 N 421.258 1.00505 1.21394 0
M  V30 4439 C 422.486 0.706609 1.9446 0
M  V30 4440 C 422.901 -0.73081 1.74082 0
M  V30 4441 O 422.258 -1.49446 1.04747 0
M  V30 4442 C 422.309 1.01824 3.46863 0
M  V30 4443 O 422.03 2.39919 3.66566 0
M  V30 4444 C 423.531 0.739216 4.37093 0
M  V30 4445 H 420.751 0.260394 0.618414 0
M  V30 4446 H 423.295 1.34311 1.54211 0
M  V30 4447 H 421.45 0.427343 3.85036 0
M  V30 4448 H 421.864 2.50784 4.6066 0
M  V30 4449 H 423.338 1.00744 5.42729 0
M  V30 4450 H 423.815 -0.326746 4.37983 0
M  V30 4451 H 424.421 1.31173 4.04566 0
M  V30 4452 N 422.737 -1.36956 0.779787 0
M  V30 4453 C 424.148 -1.82094 0.412156 0
M  V30 4454 C 424.499 -1.64926 -1.06273 0
M  V30 4455 O 423.624 -1.16483 -1.82375 0
M  V30 4456 C 424.219 -3.3059 0.741319 0
M  V30 4457 C 422.778 -3.73974 0.426641 0
M  V30 4458 C 421.925 -2.59368 0.980987 0
M  V30 4459 H 424.876 -1.25314 0.973758 0
M  V30 4460 H 424.897 -3.80489 0.028887 0
M  V30 4461 H 424.409 -3.43054 1.81482 0
M  V30 4462 H 422.51 -3.67076 -0.639215 0
M  V30 4463 H 422.623 -4.69778 0.940515 0
M  V30 4464 H 420.987 -2.51463 0.404757 0
M  V30 4465 H 421.77 -2.74621 2.06005 0
M  V30 4466 N 424.215 -0.530993 -1.48385 0
M  V30 4467 C 425.463 0.00273189 -2.021 0
M  V30 4468 C 425.784 1.34672 -1.41027 0
M  V30 4469 O 425.054 1.8724 -0.576012 0
M  V30 4470 H 423.634 0.00399774 -0.746989 0
M  V30 4471 H 426.296 -0.695054 -1.82085 0
M  V30 4472 H 425.392 0.11031 -3.11905 0
M  V30 4473 N 425.693 1.55336 -0.266172 0
M  V30 4474 C 426.656 2.20878 0.612001 0
M  V30 4475 C 427.656 1.18388 1.08816 0
M  V30 4476 O 428.846 1.4335 0.989774 0
M  V30 4477 C 425.978 2.86765 1.84332 0
M  V30 4478 H 427.171 2.99873 0.0398718 0
M  V30 4479 H 424.724 1.56291 -0.0167309 0
M  V30 4480 H 425.459 2.11759 2.45619 0
M  V30 4481 H 425.244 3.61862 1.5099 0
M  V30 4482 H 426.734 3.36867 2.46801 0
M  V30 4483 N 427.171 -0.0066808 1.57599 0
M  V30 4484 C 428.119 -1.01851 2.09115 0
M  V30 4485 C 429.113 -1.36021 1.00969 0
M  V30 4486 O 430.319 -1.34663 1.19439 0
M  V30 4487 H 426.694 -0.346083 0.667631 0
M  V30 4488 H 428.665 -0.558394 2.93129 0
M  V30 4489 C 427.414 -2.30374 2.60429 0
M  V30 4490 H 426.737 -2.04947 3.43273 0
M  V30 4491 H 428.177 -2.99466 3.00161 0
M  V30 4492 C 426.636 -3.00893 1.51542 0
M  V30 4493 O 427.166 -3.91614 0.894484 0
M  V30 4494 N 425.372 -2.62603 1.2445 0
M  V30 4495 H 424.919 -1.88911 1.75129 0
M  V30 4496 H 424.877 -3.10101 0.518137 0
M  V30 4497 N 428.649 -1.55105 -0.279332 0
M  V30 4498 C 429.579 -1.90557 -1.34945 0
M  V30 4499 C 430.56 -0.766738 -1.51839 0
M  V30 4500 O 431.745 -1.02434 -1.64988 0
M  V30 4501 C 428.875 -2.17193 -2.71006 0
M  V30 4502 C 427.829 -3.33021 -2.68851 0
M  V30 4503 C 427.155 -3.45123 -4.08405 0
M  V30 4504 C 428.455 -4.69578 -2.28678 0
M  V30 4505 H 430.149 -2.80188 -1.05522 0
M  V30 4506 H 427.695 -1.34811 -0.506173 0
M  V30 4507 H 429.648 -2.40581 -3.45975 0
M  V30 4508 H 428.372 -1.24355 -3.01999 0
M  V30 4509 H 427.031 -3.0959 -1.9634 0
M  V30 4510 H 426.679 -2.49762 -4.3661 0
M  V30 4511 H 426.379 -4.22995 -4.07859 0
M  V30 4512 H 427.903 -3.70796 -4.85121 0
M  V30 4513 H 429.317 -4.92553 -2.93368 0
M  V30 4514 H 427.714 -5.5032 -2.39306 0
M  V30 4515 H 428.784 -4.68828 -1.23807 0
M  V30 4516 N 430.127 0.543554 -1.4793 0
M  V30 4517 C 431.357 1.32324 -1.58663 0
M  V30 4518 C 431.765 1.8766 -0.240896 0
M  V30 4519 O 431.108 1.66411 0.778011 0
M  V30 4520 C 431.17 2.52094 -2.56299 0
M  V30 4521 C 430.834 2.17944 -4.01683 0
M  V30 4522 C 431.831 1.74422 -4.89768 0
M  V30 4523 C 429.516 2.28884 -4.47121 0
M  V30 4524 C 431.51 1.42287 -6.21316 0
M  V30 4525 C 429.197 1.96361 -5.78693 0
M  V30 4526 C 430.195 1.53132 -6.65612 0
M  V30 4527 O 429.883 1.21029 -7.94737 0
M  V30 4528 H 429.615 0.409174 -0.538101 0
M  V30 4529 H 432.169 0.663887 -1.94375 0
M  V30 4530 H 430.399 3.20965 -2.15681 0
M  V30 4531 H 432.088 3.14165 -2.57012 0
M  V30 4532 H 432.854 1.65452 -4.55907 0
M  V30 4533 H 428.733 2.61488 -3.79664 0
M  V30 4534 H 432.277 1.08472 -6.89115 0
M  V30 4535 H 428.174 2.04967 -6.12094 0
M  V30 4536 H 428.942 1.34543 -8.07366 0
M  V30 4537 N 431.605 1.3629 0.791371 0
M  V30 4538 C 432.853 1.30154 1.5461 0
M  V30 4539 C 433.174 -0.119409 1.94634 0
M  V30 4540 O 432.444 -1.05924 1.64794 0
M  V30 4541 H 431.024 0.478784 0.573389 0
M  V30 4542 H 433.686 1.70565 0.94306 0
M  V30 4543 H 432.782 1.92762 2.45457 0
M  V30 4544 N 433.083 -1.0153 1.20538 0
M  V30 4545 C 434.308 -1.79283 1.04271 0
M  V30 4546 C 434.733 -1.8372 -0.403544 0
M  V30 4547 O 434.091 -1.27321 -1.2907 0
M  V30 4548 C 434.139 -3.21535 1.63241 0
M  V30 4549 O 433.243 -4.03099 0.870908 0
M  V30 4550 H 432.584 -0.55293 0.367647 0
M  V30 4551 H 435.114 -1.27696 1.59859 0
M  V30 4552 H 435.124 -3.72243 1.6703 0
M  V30 4553 H 433.799 -3.1762 2.68497 0
M  V30 4554 H 432.376 -3.61693 0.907323 0
M  V30 4555 N 434.561 -1.01147 -1.20859 0
M  V30 4556 C 435.511 -0.548247 -2.2131 0
M  V30 4557 C 436.495 0.393646 -1.5601 0
M  V30 4558 O 437.687 0.217445 -1.75659 0
M  V30 4559 C 434.816 0.117252 -3.431 0
M  V30 4560 C 433.902 -0.846043 -4.15575 0
M  V30 4561 N 434.293 -2.00149 -4.64515 0
M  V30 4562 C 432.591 -0.665783 -4.41003 0
M  V30 4563 C 433.292 -2.60764 -5.19978 0
M  V30 4564 N 432.268 -1.88868 -5.09735 0
M  V30 4565 H 436.07 -1.42921 -2.56809 0
M  V30 4566 H 433.584 -0.876142 -1.36739 0
M  V30 4567 H 435.581 0.46662 -4.1428 0
M  V30 4568 H 434.241 0.994115 -3.09107 0
M  V30 4569 H 435.252 -2.38162 -4.5989 0
M  V30 4570 H 431.929 0.163456 -4.1718 0
M  V30 4571 H 433.319 -3.58519 -5.68255 0
M  V30 4572 N 436.039 1.36541 -0.78704 0
M  V30 4573 C 437.45 1.81873 -0.421807 0
M  V30 4574 C 437.801 1.65487 1.05397 0
M  V30 4575 O 436.926 1.17448 1.81755 0
M  V30 4576 C 437.521 3.30192 -0.758841 0
M  V30 4577 C 436.08 3.73743 -0.446468 0
M  V30 4578 C 435.227 2.58844 -0.994728 0
M  V30 4579 H 438.178 1.24796 -0.98039 0
M  V30 4580 H 438.199 3.80468 -0.0490648 0
M  V30 4581 H 437.711 3.42087 -1.83299 0
M  V30 4582 H 435.812 3.6741 0.619739 0
M  V30 4583 H 435.925 4.69272 -0.965415 0
M  V30 4584 H 434.289 2.51245 -0.418087 0
M  V30 4585 H 435.072 2.73525 -2.07458 0
M  V30 4586 N 437.518 0.538854 1.48102 0
M  V30 4587 C 438.765 0.0080018 2.02498 0
M  V30 4588 C 439.093 -1.33437 1.41509 0
M  V30 4589 O 438.348 -1.87709 0.553507 0
M  V30 4590 C 438.647 -0.153808 3.57069 0
M  V30 4591 C 438.313 1.11533 4.36888 0
M  V30 4592 C 436.975 1.46314 4.58417 0
M  V30 4593 C 439.327 1.95718 4.83057 0
M  V30 4594 C 436.655 2.6516 5.23361 0
M  V30 4595 C 439.007 3.13751 5.49312 0
M  V30 4596 C 437.671 3.48866 5.69077 0
M  V30 4597 H 436.941 0.00292807 0.740994 0
M  V30 4598 H 439.588 0.706668 1.77984 0
M  V30 4599 H 437.893 -0.935309 3.80472 0
M  V30 4600 H 439.59 -0.579607 3.96789 0
M  V30 4601 H 436.18 0.834484 4.20398 0
M  V30 4602 H 440.364 1.70158 4.66219 0
M  V30 4603 H 435.62 2.92558 5.36861 0
M  V30 4604 H 439.794 3.79282 5.84053 0
M  V30 4605 H 437.421 4.41054 6.19173 0
M  V30 4606 N 438.996 -1.55193 0.274407 0
M  V30 4607 C 440.226 -2.03692 -0.345442 0
M  V30 4608 C 440.634 -1.15224 -1.50067 0
M  V30 4609 O 439.977 -0.164749 -1.8296 0
M  V30 4610 C 440.039 -3.48325 -0.88939 0
M  V30 4611 C 439.703 -4.56794 0.137115 0
M  V30 4612 C 440.7 -5.11028 0.956378 0
M  V30 4613 C 438.385 -5.01568 0.27115 0
M  V30 4614 C 440.379 -6.08552 1.89587 0
M  V30 4615 C 438.066 -5.98918 1.21412 0
M  V30 4616 C 439.064 -6.52291 2.02498 0
M  V30 4617 O 438.752 -7.47738 2.952 0
M  V30 4618 H 438.484 -0.670893 -0.0829332 0
M  V30 4619 H 441.038 -2.01387 0.404056 0
M  V30 4620 H 439.268 -3.47867 -1.68895 0
M  V30 4621 H 440.957 -3.80167 -1.42225 0
M  V30 4622 H 441.723 -4.7725 0.863559 0
M  V30 4623 H 437.602 -4.5967 -0.349987 0
M  V30 4624 H 441.146 -6.50137 2.52918 0
M  V30 4625 H 437.043 -6.32114 1.30776 0
M  V30 4626 H 437.811 -7.65451 2.89874 0
M  V30 4627 N 440.474 -0.00167713 -1.576 0
M  V30 4628 C 441.404 0.988091 -2.11563 0
M  V30 4629 C 442.385 1.35736 -1.02517 0
M  V30 4630 O 443.57 1.44082 -1.30208 0
M  V30 4631 C 440.7 2.27941 -2.62031 0
M  V30 4632 C 439.654 2.0517 -3.75619 0
M  V30 4633 C 438.98 3.4033 -4.12407 0
M  V30 4634 C 440.28 1.41294 -5.02825 0
M  V30 4635 H 441.974 0.538771 -2.94513 0
M  V30 4636 H 439.52 0.257712 -1.41675 0
M  V30 4637 H 441.473 2.97539 -2.9841 0
M  V30 4638 H 440.197 2.74989 -1.76205 0
M  V30 4639 H 438.856 1.37998 -3.39635 0
M  V30 4640 H 438.504 3.85085 -3.23603 0
M  V30 4641 H 438.204 3.25909 -4.88935 0
M  V30 4642 H 439.728 4.1124 -4.51347 0
M  V30 4643 H 441.142 2.00851 -5.36965 0
M  V30 4644 H 439.539 1.37356 -5.84169 0
M  V30 4645 H 440.609 0.382362 -4.8339 0
M  V30 4646 N 441.952 1.55251 0.271103 0
M  V30 4647 C 442.915 1.87484 1.31842 0
M  V30 4648 C 443.915 0.749545 1.42262 0
M  V30 4649 O 445.105 1.01771 1.4138 0
M  V30 4650 C 442.237 2.0818 2.69951 0
M  V30 4651 H 443.43 2.81108 1.0449 0
M  V30 4652 H 440.983 1.47771 0.509258 0
M  V30 4653 H 441.718 1.16944 3.02481 0
M  V30 4654 H 441.503 2.90114 2.63774 0
M  V30 4655 H 442.993 2.34385 3.4562 0
M  V30 4656 N 443.43 -0.535701 1.48216 0
M  V30 4657 C 444.36 -1.65014 1.65204 0
M  V30 4658 C 445.341 -1.62554 0.501011 0
M  V30 4659 O 446.526 -1.7984 0.732886 0
M  V30 4660 C 443.656 -3.03616 1.68626 0
M  V30 4661 C 442.61 -3.20932 2.83172 0
M  V30 4662 C 441.936 -4.60537 2.71679 0
M  V30 4663 C 443.236 -3.04249 4.24535 0
M  V30 4664 H 444.93 -1.51053 2.58502 0
M  V30 4665 H 442.476 -0.725262 1.24402 0
M  V30 4666 H 444.429 -3.81446 1.79099 0
M  V30 4667 H 443.153 -3.18587 0.719026 0
M  V30 4668 H 441.812 -2.45517 2.72244 0
M  V30 4669 H 441.46 -4.72336 1.72937 0
M  V30 4670 H 441.16 -4.73069 3.48538 0
M  V30 4671 H 442.684 -5.40475 2.84112 0
M  V30 4672 H 444.098 -3.71877 4.36326 0
M  V30 4673 H 442.495 -3.28278 5.02348 0
M  V30 4674 H 443.565 -2.00739 4.41397 0
M  V30 4675 N 444.908 -1.36708 -0.784132 0
M  V30 4676 C 445.818 -1.3363 -1.92822 0
M  V30 4677 C 446.834 -0.237686 -1.72369 0
M  V30 4678 O 448.01 -0.470962 -1.95816 0
M  V30 4679 C 445.075 -1.13011 -3.27764 0
M  V30 4680 C 444.136 -2.32397 -3.60957 0
M  V30 4681 C 443.369 -2.12752 -4.89461 0
M  V30 4682 O 443.592 -1.10541 -5.59586 0
M  V30 4683 O 442.526 -3.00653 -5.21432 0
M  V30 4684 H 446.352 -2.29964 -1.98369 0
M  V30 4685 H 443.937 -1.1731 -0.925136 0
M  V30 4686 H 445.819 -1.03451 -4.08504 0
M  V30 4687 H 444.494 -0.19743 -3.23097 0
M  V30 4688 H 443.401 -2.47527 -2.80502 0
M  V30 4689 H 444.734 -3.2419 -3.70354 0
M  V30 4690 N 446.386 1.0089 -1.21074 0
M  V30 4691 C 447.663 1.71834 -0.934469 0
M  V30 4692 C 448.043 2.0368 0.554753 0
M  V30 4693 O 447.391 1.70742 1.51854 0
M  V30 4694 C 447.601 2.98061 -1.8155 0
M  V30 4695 C 448.949 3.7117 -2.06199 0
M  V30 4696 O 449.973 3.08034 -1.78867 0
M  V30 4697 O 448.832 4.84721 -2.52404 0
M  V30 4698 H 445.926 0.749253 -0.35007 0
M  V30 4699 H 448.472 1.06668 -1.31985 0
M  V30 4700 H 447.244 2.70908 -2.82355 0
M  V30 4701 H 446.867 3.70968 -1.43068 0
M  V30 4702 N 447.864 1.01787 1.20321 0
M  V30 4703 C 449.112 0.706538 1.89347 0
M  V30 4704 C 449.433 -0.766289 1.79313 0
M  V30 4705 O 448.703 -1.55126 1.19635 0
M  V30 4706 H 447.283 0.258348 0.700903 0
M  V30 4707 H 449.945 1.28974 1.46122 0
M  V30 4708 H 449.041 0.991066 2.95946 0
M  V30 4709 N 449.342 -1.36122 0.79427 0
M  V30 4710 C 450.59 -1.98718 0.368177 0
M  V30 4711 C 450.911 -1.63345 -1.06506 0
M  V30 4712 O 450.181 -0.909825 -1.73491 0
M  V30 4713 H 448.761 -0.735038 0.133146 0
M  V30 4714 H 451.423 -1.66239 1.01739 0
M  V30 4715 H 450.519 -3.08633 0.463923 0
M  V30 4716 N 450.82 -0.546701 -1.47814 0
M  V30 4717 C 452.045 -0.021268 -2.07389 0
M  V30 4718 C 452.47 1.25822 -1.39822 0
M  V30 4719 O 451.828 1.75111 -0.46968 0
M  V30 4720 C 451.876 0.168502 -3.60206 0
M  V30 4721 O 450.98 1.23347 -3.93522 0
M  V30 4722 H 450.321 -0.0466108 -0.662362 0
M  V30 4723 H 452.851 -0.759387 -1.89985 0
M  V30 4724 H 452.861 0.385982 -4.0617 0
M  V30 4725 H 451.536 -0.766075 -4.08784 0
M  V30 4726 H 450.113 0.997319 -3.59316 0
M  V30 4727 N 452.299 1.55045 -0.282633 0
M  V30 4728 C 453.262 2.21515 0.588539 0
M  V30 4729 C 454.262 1.19535 1.07554 0
M  V30 4730 O 455.452 1.44391 0.974514 0
M  V30 4731 C 452.584 2.88704 1.8128 0
M  V30 4732 H 453.777 2.99899 0.00806397 0
M  V30 4733 H 451.33 1.56265 -0.0333067 0
M  V30 4734 H 452.065 2.14352 2.43359 0
M  V30 4735 H 451.85 3.63443 1.47144 0
M  V30 4736 H 453.34 3.39465 2.43214 0
M  V30 4737 N 453.777 0.010035 1.57597 0
M  V30 4738 C 454.727 -0.986858 2.05536 0
M  V30 4739 C 455.711 -1.29711 0.952042 0
M  V30 4740 O 456.903 -1.28641 1.21575 0
M  V30 4741 C 454.032 -2.2756 2.57043 0
M  V30 4742 C 453.118 -1.99455 3.74271 0
M  V30 4743 N 453.509 -1.41546 4.85591 0
M  V30 4744 C 451.807 -2.29547 3.82393 0
M  V30 4745 C 452.508 -1.3014 5.66956 0
M  V30 4746 N 451.484 -1.79044 5.13268 0
M  V30 4747 H 455.286 -0.533778 2.89012 0
M  V30 4748 H 452.8 -0.195432 1.6122 0
M  V30 4749 H 454.797 -2.99829 2.89669 0
M  V30 4750 H 453.457 -2.73512 1.7499 0
M  V30 4751 H 454.468 -1.09294 5.06236 0
M  V30 4752 H 451.145 -2.78304 3.11213 0
M  V30 4753 H 452.535 -0.855237 6.66435 0
M  V30 4754 N 455.255 -1.55392 -0.262866 0
M  V30 4755 C 456.503 -1.76127 -0.991147 0
M  V30 4756 C 456.824 -0.571083 -1.8645 0
M  V30 4757 O 456.094 0.413698 -1.91482 0
M  V30 4758 H 454.674 -0.649528 -0.368948 0
M  V30 4759 H 457.336 -1.9281 -0.284655 0
M  V30 4760 H 456.432 -2.6663 -1.62219 0
M  V30 4761 N 456.733 0.527833 -1.48498 0
M  V30 4762 C 457.979 1.28545 -1.56857 0
M  V30 4763 C 458.312 1.92678 -0.242651 0
M  V30 4764 O 457.587 1.79394 0.751545 0
M  V30 4765 C 457.87 2.37314 -2.70839 0
M  V30 4766 C 457.723 1.77858 -4.13142 0
M  V30 4767 C 459.042 3.39068 -2.80573 0
M  V30 4768 H 456.161 0.466006 -0.570971 0
M  V30 4769 H 458.803 0.587784 -1.8068 0
M  V30 4770 H 456.953 2.96821 -2.50658 0
M  V30 4771 H 458.625 1.22385 -4.44769 0
M  V30 4772 H 456.868 1.08383 -4.20042 0
M  V30 4773 H 457.539 2.56624 -4.88721 0
M  V30 4774 H 460.015 2.89518 -2.98862 0
M  V30 4775 H 458.891 4.12566 -3.6205 0
M  V30 4776 H 459.152 3.9975 -1.88818 0
M  V30 4777 N 458.211 1.37122 0.776871 0
M  V30 4778 C 459.458 1.32047 1.53524 0
M  V30 4779 C 459.786 -0.0965631 1.9426 0
M  V30 4780 O 459.041 -1.06866 1.63945 0
M  V30 4781 C 459.34 2.20068 2.81611 0
M  V30 4782 C 459.006 3.68423 2.59953 0
M  V30 4783 C 457.668 4.08854 2.53755 0
M  V30 4784 C 460.02 4.62431 2.40431 0
M  V30 4785 C 457.348 5.41417 2.26018 0
M  V30 4786 C 459.7 5.95225 2.14219 0
M  V30 4787 C 458.364 6.34767 2.06462 0
M  V30 4788 H 457.634 0.483196 0.561785 0
M  V30 4789 H 460.281 1.69284 0.895268 0
M  V30 4790 H 458.586 1.75809 3.50141 0
M  V30 4791 H 460.283 2.13458 3.39465 0
M  V30 4792 H 456.873 3.36354 2.65638 0
M  V30 4793 H 461.057 4.32057 2.44213 0
M  V30 4794 H 456.313 5.71022 2.18504 0
M  V30 4795 H 460.487 6.67626 1.98112 0
M  V30 4796 H 458.114 7.37413 1.84733 0
M  V30 4797 N 459.689 -1.00246 1.21608 0
M  V30 4798 C 460.619 -2.10921 1.00172 0
M  V30 4799 C 461.6 -1.69938 -0.0741587 0
M  V30 4800 O 462.785 -1.94009 0.0861753 0
M  V30 4801 C 459.915 -3.42618 0.568355 0
M  V30 4802 C 458.869 -3.97407 1.58909 0
M  V30 4803 C 458.195 -5.25038 1.01187 0
M  V30 4804 C 459.495 -4.2918 2.97661 0
M  V30 4805 H 461.189 -2.29112 1.92739 0
M  V30 4806 H 458.735 -1.10101 0.928102 0
M  V30 4807 H 460.688 -4.19444 0.405555 0
M  V30 4808 H 459.412 -3.24227 -0.392961 0
M  V30 4809 H 458.071 -3.22703 1.73949 0
M  V30 4810 H 457.719 -5.02982 0.0421965 0
M  V30 4811 H 457.419 -5.62661 1.6937 0
M  V30 4812 H 458.943 -6.04507 0.860448 0
M  V30 4813 H 460.357 -4.96839 2.86049 0
M  V30 4814 H 458.754 -4.77952 3.6288 0
M  V30 4815 H 459.824 -3.3735 3.48315 0
M  V30 4816 N 461.167 -1.02423 -1.1978 0
M  V30 4817 C 462.097 -0.62157 -2.25075 0
M  V30 4818 C 463.078 0.367148 -1.6609 0
M  V30 4819 O 464.263 0.250892 -1.92573 0
M  V30 4820 C 461.393 0.0331826 -3.47284 0
M  V30 4821 C 460.347 -0.877323 -4.18912 0
M  V30 4822 C 459.673 -0.0879296 -5.34628 0
M  V30 4823 C 460.973 -2.18892 -4.74219 0
M  V30 4824 H 462.667 -1.50179 -2.59011 0
M  V30 4825 H 460.213 -0.723547 -1.24502 0
M  V30 4826 H 462.166 0.326488 -4.20133 0
M  V30 4827 H 460.89 0.948164 -3.12534 0
M  V30 4828 H 459.549 -1.15475 -3.47938 0
M  V30 4829 H 459.197 0.828941 -4.96123 0
M  V30 4830 H 458.897 -0.694359 -5.83483 0
M  V30 4831 H 460.421 0.198743 -6.10276 0
M  V30 4832 H 461.835 -1.95746 -5.38847 0
M  V30 4833 H 460.232 -2.74686 -5.33542 0
M  V30 4834 H 461.302 -2.84674 -3.92541 0
M  V30 4835 N 462.645 1.35699 -0.801477 0
M  V30 4836 C 463.593 2.3177 -0.196317 0
M  V30 4837 C 464.587 1.56388 0.651081 0
M  V30 4838 O 465.793 1.71557 0.544815 0
M  V30 4839 H 462.168 0.750669 -0.0447189 0
M  V30 4840 H 464.139 2.8036 -1.02181 0
M  V30 4841 C 462.888 3.41671 0.644702 0
M  V30 4842 H 462.211 3.998 0.0019921 0
M  V30 4843 H 463.651 4.11184 1.0346 0
M  V30 4844 C 462.11 2.84271 1.80808 0
M  V30 4845 O 462.64 2.77408 2.9053 0
M  V30 4846 N 460.846 2.41391 1.61799 0
M  V30 4847 H 460.393 2.47173 0.725493 0
M  V30 4848 H 460.351 2.03334 2.39797 0
M  V30 4849 N 464.123 0.554532 1.47522 0
M  V30 4850 C 465.348 0.0322661 2.07375 0
M  V30 4851 C 465.773 -1.25079 1.40488 0
M  V30 4852 O 465.131 -1.74859 0.47896 0
M  V30 4853 C 465.179 -0.149397 3.6029 0
M  V30 4854 O 464.283 -1.21259 3.9417 0
M  V30 4855 H 463.624 0.0501228 0.662106 0
M  V30 4856 H 466.154 0.769452 1.8958 0
M  V30 4857 H 466.164 -0.364437 4.06369 0
M  V30 4858 H 464.839 0.787743 4.08372 0
M  V30 4859 H 463.416 -0.97825 3.5984 0
M  V30 4860 N 465.601 -1.54893 0.290851 0
M  V30 4861 C 466.549 -2.24579 -0.605576 0
M  V30 4862 C 467.543 -1.24824 -1.14522 0
M  V30 4863 O 468.749 -1.42706 -1.09704 0
M  V30 4864 H 465.124 -0.720946 -0.213872 0
M  V30 4865 H 467.095 -2.984 0.0048173 0
M  V30 4866 C 465.844 -2.99224 -1.77088 0
M  V30 4867 H 465.167 -3.75782 -1.36484 0
M  V30 4868 H 466.607 -3.51281 -2.3744 0
M  V30 4869 C 465.066 -2.05602 -2.66888 0
M  V30 4870 O 465.596 -1.61745 -3.67698 0
M  V30 4871 N 463.802 -1.71771 -2.34399 0
M  V30 4872 H 463.349 -2.07633 -1.52468 0
M  V30 4873 H 463.307 -1.09403 -2.94751 0
M  V30 4874 N 467.08 -0.0183926 -1.57589 0
M  V30 4875 C 468.043 0.951986 -2.08494 0
M  V30 4876 C 469.043 1.26092 -0.997874 0
M  V30 4877 O 470.233 1.20304 -1.25987 0
M  V30 4878 C 467.365 2.27165 -2.54182 0
M  V30 4879 H 468.558 0.511307 -2.95509 0
M  V30 4880 H 466.111 0.229444 -1.54607 0
M  V30 4881 H 466.846 2.75884 -1.70465 0
M  V30 4882 H 466.631 2.06057 -3.33591 0
M  V30 4883 H 468.121 2.9674 -2.93828 0
M  V30 4884 N 468.558 1.5553 0.254621 0
M  V30 4885 C 469.491 1.84624 1.34124 0
M  V30 4886 C 470.469 0.700693 1.46728 0
M  V30 4887 O 471.653 0.94564 1.63064 0
M  V30 4888 C 468.78 2.02412 2.71564 0
M  V30 4889 C 467.826 3.25028 2.7615 0
M  V30 4890 S 468.659 4.81893 2.33538 0
M  V30 4891 C 469.815 5.02677 3.72917 0
M  V30 4892 H 470.048 2.76501 1.09245 0
M  V30 4893 H 467.581 1.47537 0.455211 0
M  V30 4894 H 469.539 2.13345 3.50705 0
M  V30 4895 H 468.2 1.11391 2.93685 0
M  V30 4896 H 467.393 3.34418 3.77069 0
M  V30 4897 H 466.995 3.12781 2.05046 0
M  V30 4898 H 469.287 4.89546 4.68349 0
M  V30 4899 H 470.23 6.0468 3.68467 0
M  V30 4900 H 470.638 4.30561 3.65072 0
M  V30 4901 N 470.036 -0.519951 1.48776 0
M  V30 4902 C 471.313 -1.28123 1.47797 0
M  V30 4903 C 471.693 -2.10196 0.195157 0
M  V30 4904 O 471.041 -2.13167 -0.822925 0
M  V30 4905 C 471.251 -2.15413 2.74587 0
M  V30 4906 C 472.599 -2.75225 3.23321 0
M  V30 4907 O 473.623 -2.25694 2.75574 0
M  V30 4908 O 472.482 -3.65346 4.06429 0
M  V30 4909 H 469.576 -0.578793 0.590701 0
M  V30 4910 H 472.122 -0.535779 1.6102 0
M  V30 4911 H 470.894 -1.54617 3.59457 0
M  V30 4912 H 470.517 -2.97186 2.64132 0
M  V30 4913 N 471.514 -1.37532 -0.769588 0
M  V30 4914 C 472.76 -1.33057 -1.53048 0
M  V30 4915 C 473.093 0.0841865 -1.94017 0
M  V30 4916 O 472.368 1.04198 -1.64235 0
M  V30 4917 C 472.651 -2.27166 -2.79406 0
M  V30 4918 C 472.504 -3.77429 -2.44677 0
M  V30 4919 C 473.823 -2.19683 -3.81349 0
M  V30 4920 H 470.942 -0.484655 -0.555228 0
M  V30 4921 H 473.584 -1.68251 -0.882702 0
M  V30 4922 H 471.734 -1.97283 -3.34682 0
M  V30 4923 H 473.406 -4.17918 -1.953 0
M  V30 4924 H 471.649 -3.95892 -1.77346 0
M  V30 4925 H 472.32 -4.38716 -3.35011 0
M  V30 4926 H 474.796 -2.46029 -3.35573 0
M  V30 4927 H 473.672 -2.87668 -4.67481 0
M  V30 4928 H 473.933 -1.19045 -4.25771 0
M  V30 4929 N 472.992 0.995999 -1.22138 0
M  V30 4930 C 474.238 1.73767 -1.04561 0
M  V30 4931 C 474.571 1.89633 0.418698 0
M  V30 4932 O 473.846 1.43723 1.3105 0
M  V30 4933 C 474.129 3.14505 -1.75382 0
M  V30 4934 C 473.982 3.06306 -3.29388 0
M  V30 4935 C 475.301 4.13615 -1.50369 0
M  V30 4936 H 472.42 0.630728 -0.38125 0
M  V30 4937 H 475.062 1.16057 -1.50435 0
M  V30 4938 H 473.212 3.63775 -1.36383 0
M  V30 4939 H 474.884 2.64681 -3.77812 0
M  V30 4940 H 473.127 2.43186 -3.59226 0
M  V30 4941 H 473.798 4.05884 -3.74116 0
M  V30 4942 H 476.274 3.73089 -1.84239 0
M  V30 4943 H 475.15 5.10212 -2.02421 0
M  V30 4944 H 475.411 4.39949 -0.435611 0
M  V30 4945 N 474.47 1.03057 1.19235 0
M  V30 4946 C 475.4 0.633497 2.24742 0
M  V30 4947 C 476.381 -0.358335 1.66283 0
M  V30 4948 O 477.566 -0.240676 1.92703 0
M  V30 4949 C 474.696 -0.0147648 3.47297 0
M  V30 4950 C 473.65 0.899527 4.18441 0
M  V30 4951 C 472.976 0.116281 5.34574 0
M  V30 4952 C 474.276 2.21404 4.73051 0
M  V30 4953 H 475.97 1.5155 2.58211 0
M  V30 4954 H 473.516 0.73014 1.24117 0
M  V30 4955 H 475.469 -0.304202 4.20301 0
M  V30 4956 H 474.193 -0.931577 3.13032 0
M  V30 4957 H 472.852 1.17319 3.47321 0
M  V30 4958 H 472.5 -0.802619 4.96555 0
M  V30 4959 H 472.2 0.725293 5.83107 0
M  V30 4960 H 473.724 -0.166376 6.10373 0
M  V30 4961 H 475.138 1.98601 5.37802 0
M  V30 4962 H 473.535 2.77512 5.32078 0
M  V30 4963 H 474.605 2.86752 3.91026 0
M  V30 4964 N 475.948 -1.35272 0.808662 0
M  V30 4965 C 476.88 -2.28507 0.178149 0
M  V30 4966 C 477.893 -1.50377 -0.623754 0
M  V30 4967 O 479.082 -1.72583 -0.455774 0
M  V30 4968 C 476.182 -3.30038 -0.769959 0
M  V30 4969 C 475.355 -4.37398 -0.0139749 0
M  V30 4970 C 474.414 -5.18775 -0.880875 0
M  V30 4971 O 473.44 -5.68236 -0.331059 0
M  V30 4972 N 474.642 -5.37087 -2.20267 0
M  V30 4973 H 477.407 -2.83255 0.979106 0
M  V30 4974 H 474.968 -1.47643 0.664308 0
M  V30 4975 H 476.96 -3.81371 -1.35418 0
M  V30 4976 H 475.53 -2.75789 -1.47171 0
M  V30 4977 H 474.75 -3.86971 0.751468 0
M  V30 4978 H 476.038 -5.06268 0.506965 0
M  V30 4979 H 475.436 -4.9855 -2.67328 0
M  V30 4980 H 473.993 -5.91593 -2.73608 0
M  V30 4981 N 477.426 -0.562348 -1.47226 0
M  V30 4982 C 478.837 -0.130325 -1.86245 0
M  V30 4983 C 479.188 1.30128 -1.46838 0
M  V30 4984 O 478.313 1.97974 -0.873805 0
M  V30 4985 C 478.908 -0.229738 -3.3802 0
M  V30 4986 C 477.467 0.14728 -3.76112 0
M  V30 4987 C 476.614 -0.574971 -2.71274 0
M  V30 4988 H 479.565 -0.771773 -1.3867 0
M  V30 4989 H 479.586 0.550316 -3.76499 0
M  V30 4990 H 479.098 -1.27178 -3.66671 0
M  V30 4991 H 477.199 1.19023 -3.53078 0
M  V30 4992 H 477.312 -0.214858 -4.78618 0
M  V30 4993 H 475.676 -0.0174756 -2.54694 0
M  V30 4994 H 476.459 -1.61827 -3.02766 0
M  V30 4995 N 478.904 1.54736 -0.299062 0
M  V30 4996 C 480.129 2.04975 0.316254 0
M  V30 4997 C 480.554 1.17501 1.46885 0
M  V30 4998 O 479.912 0.178678 1.80417 0
M  V30 4999 C 479.96 3.52672 0.751997 0
M  V30 5000 O 479.064 3.68226 1.85697 0
M  V30 5001 H 478.405 0.661126 0.0617175 0
M  V30 5002 H 480.935 1.99805 -0.440341 0
M  V30 5003 H 480.945 3.94488 1.04133 0
M  V30 5004 H 479.62 4.158 -0.0911482 0
M  V30 5005 H 478.197 3.38316 1.56834 0
M  V30 5006 N 480.382 0.0267497 1.57577 0
M  V30 5007 C 481.793 -0.512413 1.79531 0
M  V30 5008 C 482.144 -1.72391 0.936791 0
M  V30 5009 O 481.269 -2.15903 0.146543 0
M  V30 5010 C 481.864 -0.936378 3.25603 0
M  V30 5011 C 480.423 -1.42067 3.4856 0
M  V30 5012 C 479.57 -0.384278 2.74624 0
M  V30 5013 H 482.521 0.252797 1.56674 0
M  V30 5014 H 482.542 -1.80088 3.35184 0
M  V30 5015 H 482.054 -0.0544332 3.88062 0
M  V30 5016 H 480.155 -2.32262 2.9135 0
M  V30 5017 H 480.268 -1.42968 4.57271 0
M  V30 5018 H 478.632 -0.851855 2.40032 0
M  V30 5019 H 479.415 0.489159 3.39797 0
M  V30 5020 N 481.861 -1.55662 -0.24637 0
M  V30 5021 C 482.824 -1.89558 -1.28842 0
M  V30 5022 C 483.824 -0.772082 -1.41052 0
M  V30 5023 O 485.014 -1.04007 -1.39743 0
M  V30 5024 C 482.146 -2.12449 -2.66605 0
M  V30 5025 H 483.339 -2.82735 -1.00004 0
M  V30 5026 H 480.892 -1.48562 -0.485684 0
M  V30 5027 H 481.627 -1.21742 -3.00582 0
M  V30 5028 H 481.412 -2.94273 -2.59125 0
M  V30 5029 H 482.902 -2.39854 -3.41847 0
M  V30 5030 N 483.339 0.512053 -1.4905 0
M  V30 5031 C 484.269 1.62365 -1.67809 0
M  V30 5032 C 485.25 1.61737 -0.526809 0
M  V30 5033 O 486.435 1.78651 -0.761404 0
M  V30 5034 C 483.565 3.00895 -1.73435 0
M  V30 5035 C 482.519 3.16387 -2.88242 0
M  V30 5036 C 481.845 4.56157 -2.78971 0
M  V30 5037 C 483.145 2.97457 -4.29321 0
M  V30 5038 H 484.839 1.46921 -2.60873 0
M  V30 5039 H 482.385 0.705379 -1.2554 0
M  V30 5040 H 484.338 3.78549 -1.85145 0
M  V30 5041 H 483.062 3.17403 -0.769619 0
M  V30 5042 H 481.721 2.41155 -2.76116 0
M  V30 5043 H 481.369 4.69525 -1.8043 0
M  V30 5044 H 481.069 4.67465 -3.5602 0
M  V30 5045 H 482.593 5.35886 -2.92675 0
M  V30 5046 H 484.007 3.64888 -4.42187 0
M  V30 5047 H 482.404 3.20245 -5.07507 0
M  V30 5048 H 483.474 1.93692 -4.44535 0
M  V30 5049 N 484.817 1.37938 0.762283 0
M  V30 5050 C 486.042 1.37059 1.55659 0
M  V30 5051 C 486.467 -0.0396123 1.88058 0
M  V30 5052 O 485.825 -1.01929 1.49934 0
M  V30 5053 C 485.873 2.22494 2.83776 0
M  V30 5054 O 484.977 1.63607 3.78559 0
M  V30 5055 H 484.318 0.467892 0.47114 0
M  V30 5056 H 486.848 1.81587 0.942725 0
M  V30 5057 H 486.858 2.36045 3.32786 0
M  V30 5058 H 485.533 3.24993 2.59524 0
M  V30 5059 H 484.11 1.5915 3.37233 0
M  V30 5060 N 486.295 -0.989507 1.22664 0
M  V30 5061 C 487.541 -1.73298 1.06487 0
M  V30 5062 C 487.896 -1.88292 -0.395438 0
M  V30 5063 O 487.189 -1.41748 -1.28911 0
M  V30 5064 C 487.383 -3.13649 1.71345 0
M  V30 5065 C 487.212 -3.12341 3.23532 0
M  V30 5066 C 485.982 -3.18044 3.92653 0
M  V30 5067 C 488.18 -2.96226 4.20422 0
M  V30 5068 N 486.162 -3.06526 5.31898 0
M  V30 5069 C 487.533 -2.92773 5.4652 0
M  V30 5070 C 489.588 -2.80642 4.11271 0
M  V30 5071 C 488.291 -2.75332 6.64519 0
M  V30 5072 C 490.317 -2.64563 5.28924 0
M  V30 5073 C 489.679 -2.618 6.53942 0
M  V30 5074 H 485.778 -0.643643 0.444126 0
M  V30 5075 H 488.362 -1.17489 1.55256 0
M  V30 5076 H 486.533 -3.67694 1.25122 0
M  V30 5077 H 488.265 -3.76577 1.48229 0
M  V30 5078 H 485.02 -3.25861 3.43673 0
M  V30 5079 H 485.444 -3.04067 6.04874 0
M  V30 5080 H 490.086 -2.81574 3.15398 0
M  V30 5081 H 487.804 -2.73145 7.60538 0
M  V30 5082 H 491.39 -2.53482 5.23677 0
M  V30 5083 H 490.27 -2.49511 7.43447 0
M  V30 5084 N 487.773 -1.03688 -1.18687 0
M  V30 5085 C 489.189 -0.755413 -1.4059 0
M  V30 5086 C 489.389 0.656659 -1.905 0
M  V30 5087 O 488.445 1.42144 -2.08689 0
M  V30 5088 C 489.758 -1.7983 -2.41001 0
M  V30 5089 C 491.306 -1.81877 -2.54735 0
M  V30 5090 C 491.781 -2.85148 -3.58406 0
M  V30 5091 N 493.272 -2.84015 -3.6591 0
M  V30 5092 C 494.007 -3.60573 -4.45841 0
M  V30 5093 N 493.503 -4.46871 -5.29413 0
M  V30 5094 N 495.296 -3.49079 -4.40568 0
M  V30 5095 H 487.447 -1.94818 -0.846148 0
M  V30 5096 H 489.71 -0.842727 -0.434184 0
M  V30 5097 H 489.416 -2.81097 -2.1137 0
M  V30 5098 H 489.29 -1.62727 -3.40294 0
M  V30 5099 H 491.677 -0.812836 -2.83685 0
M  V30 5100 H 491.758 -2.03057 -1.55568 0
M  V30 5101 H 491.402 -3.85918 -3.30197 0
M  V30 5102 H 491.332 -2.61224 -4.57241 0
M  V30 5103 H 493.823 -2.21431 -3.0623 0
M  V30 5104 H 494.136 -5.02007 -5.87545 0
M  V30 5105 H 492.481 -4.5094 -5.28846 0
M  V30 5106 H 495.672 -2.81066 -3.74325 0
M  V30 5107 H 495.845 -4.08994 -5.02621 0
M  V30 5108 N 489.251 1.34841 -0.815825 0
M  V30 5109 C 490.476 2.03261 -0.41226 0
M  V30 5110 C 490.901 1.61055 0.971751 0
M  V30 5111 O 490.259 0.7917 1.63101 0
M  V30 5112 C 490.307 3.56914 -0.514289 0
M  V30 5113 O 489.411 4.09728 0.468675 0
M  V30 5114 H 488.752 0.641664 -0.170771 0
M  V30 5115 H 491.282 1.72241 -1.10427 0
M  V30 5116 H 491.292 4.06156 -0.387457 0
M  V30 5117 H 489.967 3.86982 -1.52375 0
M  V30 5118 H 488.544 3.71681 0.301316 0
M  V30 5119 N 490.729 0.570148 1.46925 0
M  V30 5120 C 491.957 0.0561966 2.06824 0
M  V30 5121 C 492.372 -1.24326 1.42086 0
M  V30 5122 O 491.729 -1.74882 0.521794 0
M  V30 5123 C 491.78 -0.129517 3.61268 0
M  V30 5124 O 491.501 1.1185 4.23581 0
M  V30 5125 C 493.002 -0.679266 4.38065 0
M  V30 5126 H 490.222 0.0517261 0.669003 0
M  V30 5127 H 492.766 0.787243 1.8874 0
M  V30 5128 H 490.921 -0.810739 3.78822 0
M  V30 5129 H 491.335 0.924375 5.1629 0
M  V30 5130 H 492.809 -0.758445 5.46765 0
M  V30 5131 H 493.286 -1.69346 4.05239 0
M  V30 5132 H 493.892 -0.0333237 4.25287 0
M  V30 5133 N 492.207 -1.54576 0.307264 0
M  V30 5134 C 493.455 -1.99867 -0.299574 0
M  V30 5135 C 493.776 -1.19714 -1.53927 0
M  V30 5136 O 493.046 -0.29472 -1.9367 0
M  V30 5137 H 491.626 -0.738299 -0.113683 0
M  V30 5138 H 494.288 -1.9032 0.420042 0
M  V30 5139 H 493.384 -3.06901 -0.567283 0
M  V30 5140 N 493.685 -0.035106 -1.57561 0
M  V30 5141 C 494.933 0.64096 -1.91667 0
M  V30 5142 C 495.254 1.72323 -0.912681 0
M  V30 5143 O 494.524 1.95849 0.0449089 0
M  V30 5144 H 493.104 0.239743 -0.707483 0
M  V30 5145 H 495.766 -0.084321 -1.94718 0
M  V30 5146 H 494.862 1.08987 -2.92452 0
M  V30 5147 N 495.163 1.55791 0.238111 0
M  V30 5148 C 496.412 1.77234 0.962868 0
M  V30 5149 C 496.725 0.600661 1.86149 0
M  V30 5150 O 497.931 0.698315 2.62366 0
M  V30 5151 C 496.387 3.13808 1.76218 0
M  V30 5152 C 495.995 4.3865 0.910518 0
M  V30 5153 C 497.739 3.44585 2.47914 0
M  V30 5154 C 495.646 5.66252 1.70623 0
M  V30 5155 H 494.576 0.660731 0.36325 0
M  V30 5156 H 497.227 1.8221 0.217242 0
M  V30 5157 H 495.609 3.02963 2.55009 0
M  V30 5158 H 496.783 4.60507 0.164316 0
M  V30 5159 H 495.098 4.15271 0.30647 0
M  V30 5160 H 497.695 4.3714 3.07917 0
M  V30 5161 H 498.038 2.66314 3.19973 0
M  V30 5162 H 498.571 3.56685 1.76127 0
M  V30 5163 H 495.31 6.47369 1.02923 0
M  V30 5164 H 494.83 5.48483 2.42748 0
M  V30 5165 H 496.509 6.05829 2.27114 0
M  V30 5166 N 496.642 -0.504142 1.49319 0
M  V30 5167 C 497.572 -1.61473 1.68667 0
M  V30 5168 C 498.553 -1.61455 0.535378 0
M  V30 5169 O 499.738 -1.78245 0.770868 0
M  V30 5170 C 496.868 -2.99971 1.75028 0
M  V30 5171 C 495.822 -3.14854 2.89916 0
M  V30 5172 C 495.148 -4.54671 2.81387 0
M  V30 5173 C 496.448 -2.95176 4.30893 0
M  V30 5174 H 498.142 -1.45535 2.61648 0
M  V30 5175 H 495.688 -0.698711 1.25913 0
M  V30 5176 H 497.641 -3.77562 1.8715 0
M  V30 5177 H 496.365 -3.1699 0.786441 0
M  V30 5178 H 495.024 -2.39687 2.77391 0
M  V30 5179 H 494.672 -4.68562 1.82917 0
M  V30 5180 H 494.372 -4.6557 3.58494 0
M  V30 5181 H 495.896 -5.34327 2.95512 0
M  V30 5182 H 497.31 -3.62538 4.44116 0
M  V30 5183 H 495.707 -3.17549 5.09198 0
M  V30 5184 H 496.777 -1.91332 4.45556 0
M  V30 5185 N 498.12 -1.38341 -0.754957 0
M  V30 5186 C 499.397 -1.24995 -1.50451 0
M  V30 5187 C 499.777 0.149244 -2.10572 0
M  V30 5188 O 499.125 1.15861 -1.96948 0
M  V30 5189 C 499.335 -2.35904 -2.57197 0
M  V30 5190 C 500.683 -2.74262 -3.24138 0
M  V30 5191 O 501.707 -2.35205 -2.67501 0
M  V30 5192 O 500.566 -3.4161 -4.26574 0
M  V30 5193 H 497.66 -0.48872 -0.667144 0
M  V30 5194 H 500.206 -1.50165 -0.790486 0
M  V30 5195 H 498.978 -3.2953 -2.11011 0
M  V30 5196 H 498.601 -2.12291 -3.36182 0
M  V30 5197 N 499.598 0.982988 -1.23187 0
M  V30 5198 C 500.844 1.72648 -1.06398 0
M  V30 5199 C 501.177 1.90066 0.398561 0
M  V30 5200 O 500.452 1.45105 1.29518 0
M  V30 5201 C 500.735 3.12627 -1.78707 0
M  V30 5202 C 500.588 3.02795 -3.32618 0
M  V30 5203 C 501.907 4.11997 -1.54747 0
M  V30 5204 H 499.026 0.626649 -0.387918 0
M  V30 5205 H 501.668 1.14455 -1.51658 0
M  V30 5206 H 499.818 3.62308 -1.40234 0
M  V30 5207 H 501.49 2.60659 -3.80598 0
M  V30 5208 H 499.733 2.39362 -3.61785 0
M  V30 5209 H 500.404 4.01893 -3.78399 0
M  V30 5210 H 502.88 3.71114 -1.88186 0
M  V30 5211 H 501.756 5.08037 -2.07821 0
M  V30 5212 H 502.017 4.39462 -0.482249 0
M  V30 5213 N 501.076 1.04316 1.18135 0
M  V30 5214 C 502.306 0.767003 1.91835 0
M  V30 5215 C 502.714 -0.68002 1.76557 0
M  V30 5216 O 502.057 -1.47548 1.09432 0
M  V30 5217 C 502.119 1.05674 3.43618 0
M  V30 5218 C 501.783 2.49818 3.82675 0
M  V30 5219 C 502.78 3.48003 3.86251 0
M  V30 5220 C 500.465 2.84596 4.13897 0
M  V30 5221 C 502.459 4.79016 4.20503 0
M  V30 5222 C 500.146 4.15813 4.4782 0
M  V30 5223 C 501.144 5.12834 4.51099 0
M  V30 5224 O 500.832 6.41699 4.84229 0
M  V30 5225 H 500.564 0.278948 0.615763 0
M  V30 5226 H 503.118 1.3946 1.50798 0
M  V30 5227 H 501.348 0.372029 3.84906 0
M  V30 5228 H 503.037 0.767994 3.98568 0
M  V30 5229 H 503.803 3.22475 3.62264 0
M  V30 5230 H 499.682 2.09748 4.1052 0
M  V30 5231 H 503.226 5.54739 4.22978 0
M  V30 5232 H 499.123 4.41109 4.71268 0
M  V30 5233 H 499.891 6.46387 5.02121 0
M  V30 5234 N 502.554 -1.34406 0.822964 0
M  V30 5235 C 503.803 -1.97542 0.407458 0
M  V30 5236 C 504.116 -1.65973 -1.035 0
M  V30 5237 O 505.322 -2.22598 -1.55442 0
M  V30 5238 C 503.778 -3.53463 0.677623 0
M  V30 5239 C 503.386 -3.93925 2.1337 0
M  V30 5240 C 505.13 -4.23229 0.328284 0
M  V30 5241 C 503.037 -5.42759 2.34876 0
M  V30 5242 H 501.967 -0.739207 0.148623 0
M  V30 5243 H 504.618 -1.53248 1.00932 0
M  V30 5244 H 503 -3.96 0.00558965 0
M  V30 5245 H 504.174 -3.62494 2.8449 0
M  V30 5246 H 502.489 -3.37097 2.44448 0
M  V30 5247 H 505.086 -5.32659 0.466794 0
M  V30 5248 H 505.429 -4.09899 -0.727224 0
M  V30 5249 H 505.962 -3.86169 0.954896 0
M  V30 5250 H 502.701 -5.61075 3.38932 0
M  V30 5251 H 502.221 -5.75704 1.68299 0
M  V30 5252 H 503.9 -6.0944 2.17236 0
M  V30 5253 N 504.032 -0.577932 -1.46621 0
M  V30 5254 C 505.279 -0.0616879 -2.02406 0
M  V30 5255 C 505.607 1.29638 -1.44997 0
M  V30 5256 O 504.862 1.86176 -0.60308 0
M  V30 5257 C 505.161 0.0590832 -3.57351 0
M  V30 5258 C 504.827 -1.23077 -4.33777 0
M  V30 5259 C 503.489 -1.58416 -4.54376 0
M  V30 5260 C 505.841 -2.08457 -4.77698 0
M  V30 5261 C 503.169 -2.78943 -5.16147 0
M  V30 5262 C 505.521 -3.28204 -5.408 0
M  V30 5263 C 504.185 -3.63832 -5.59627 0
M  V30 5264 H 503.455 -0.0225732 -0.740656 0
M  V30 5265 H 506.102 -0.753609 -1.76048 0
M  V30 5266 H 504.407 0.834104 -3.82818 0
M  V30 5267 H 506.104 0.474202 -3.98186 0
M  V30 5268 H 502.694 -0.945652 -4.18038 0
M  V30 5269 H 506.878 -1.82459 -4.61544 0
M  V30 5270 H 502.134 -3.06689 -5.28916 0
M  V30 5271 H 506.308 -3.94634 -5.73792 0
M  V30 5272 H 503.935 -4.57315 -6.07262 0
M  V30 5273 N 505.51 1.54411 -0.315457 0
M  V30 5274 C 506.44 2.27002 0.547039 0
M  V30 5275 C 507.421 1.27492 1.12605 0
M  V30 5276 O 508.606 1.5629 1.15269 0
M  V30 5277 C 505.736 3.02171 1.71201 0
M  V30 5278 C 504.69 4.0895 1.26268 0
M  V30 5279 C 504.016 4.71915 2.51396 0
M  V30 5280 C 505.316 5.20891 0.383419 0
M  V30 5281 H 507.01 2.99343 -0.0584517 0
M  V30 5282 H 504.556 1.4397 -0.0295527 0
M  V30 5283 H 506.509 3.51681 2.32161 0
M  V30 5284 H 505.233 2.27433 2.34397 0
M  V30 5285 H 503.892 3.60312 0.676062 0
M  V30 5286 H 503.54 3.93801 3.12937 0
M  V30 5287 H 503.24 5.44039 2.22026 0
M  V30 5288 H 504.764 5.24195 3.13133 0
M  V30 5289 H 506.178 5.66206 0.899082 0
M  V30 5290 H 504.575 5.99821 0.182857 0
M  V30 5291 H 505.645 4.81324 -0.587821 0
M  V30 5292 N 506.988 0.0434614 1.5754 0
M  V30 5293 C 508.236 -0.630786 1.92004 0
M  V30 5294 C 508.557 -1.71836 0.921807 0
M  V30 5295 O 507.827 -1.9587 -0.034522 0
M  V30 5296 H 506.407 -0.235988 0.708745 0
M  V30 5297 H 509.069 0.0946462 1.9467 0
M  V30 5298 H 508.165 -1.07434 2.93026 0
M  V30 5299 N 508.466 -1.55915 -0.229846 0
M  V30 5300 C 509.877 -1.68809 -0.797531 0
M  V30 5301 C 510.228 -0.643995 -1.8533 0
M  V30 5302 O 509.353 0.206492 -2.15413 0
M  V30 5303 C 509.948 -3.06043 -1.45338 0
M  V30 5304 C 508.507 -3.20819 -1.96856 0
M  V30 5305 C 507.654 -2.6472 -0.825736 0
M  V30 5306 H 510.605 -1.58699 -0.00533733 0
M  V30 5307 H 510.626 -3.01438 -2.32196 0
M  V30 5308 H 510.138 -3.82012 -0.684743 0
M  V30 5309 H 508.239 -2.49704 -2.76548 0
M  V30 5310 H 508.352 -4.27937 -2.15423 0
M  V30 5311 H 506.716 -2.22985 -1.23084 0
M  V30 5312 H 507.499 -3.43229 -0.0699019 0
M  V30 5313 N 509.944 0.496216 -1.49584 0
M  V30 5314 C 510.854 1.62352 -1.69349 0
M  V30 5315 C 511.87 1.64184 -0.576147 0
M  V30 5316 O 513.046 1.82517 -0.85144 0
M  V30 5317 C 510.111 2.98698 -1.76013 0
M  V30 5318 C 509.172 3.07454 -2.99617 0
M  V30 5319 C 508.405 4.37296 -3.05953 0
M  V30 5320 O 508.628 5.2637 -2.19752 0
M  V30 5321 O 507.562 4.51124 -3.9846 0
M  V30 5322 H 511.388 1.48606 -2.64859 0
M  V30 5323 H 508.973 0.673022 -1.33382 0
M  V30 5324 H 510.855 3.79725 -1.82721 0
M  V30 5325 H 509.53 3.12696 -0.836828 0
M  V30 5326 H 508.437 2.25597 -2.98424 0
M  V30 5327 H 509.77 2.98385 -3.91443 0
M  V30 5328 N 511.423 1.38739 0.74761 0
M  V30 5329 C 512.834 1.31507 1.32524 0
M  V30 5330 C 513.185 -0.0263963 1.96182 0
M  V30 5331 O 512.31 -0.92849 1.95469 0
M  V30 5332 C 512.905 2.38162 2.40966 0
M  V30 5333 C 511.464 2.34489 2.94434 0
M  V30 5334 C 510.611 2.20712 1.67873 0
M  V30 5335 H 513.562 1.4901 0.546043 0
M  V30 5336 H 513.583 2.04222 3.21051 0
M  V30 5337 H 513.095 3.35783 1.94605 0
M  V30 5338 H 511.196 1.40467 3.45108 0
M  V30 5339 H 511.309 3.28861 3.48407 0
M  V30 5340 H 509.673 1.67667 1.91729 0
M  V30 5341 H 510.456 3.20285 1.23582 0
M  V30 5342 N 512.901 -0.976442 1.23707 0
M  V30 5343 C 513.848 -2.06952 1.02174 0
M  V30 5344 C 514.818 -1.65984 -0.0621034 0
M  V30 5345 O 516.003 -1.90584 0.0907906 0
M  V30 5346 C 513.143 -3.39425 0.62327 0
M  V30 5347 C 512.256 -3.9364 1.77966 0
M  V30 5348 C 511.391 -5.14343 1.3276 0
M  V30 5349 C 510.43 -5.60733 2.45449 0
M  V30 5350 N 509.567 -6.72662 2.01172 0
M  V30 5351 H 514.407 -2.24704 1.95734 0
M  V30 5352 H 511.944 -1.10143 0.975034 0
M  V30 5353 H 513.902 -4.15526 0.37332 0
M  V30 5354 H 512.532 -3.21624 -0.275329 0
M  V30 5355 H 511.584 -3.14258 2.14351 0
M  V30 5356 H 512.896 -4.24035 2.62671 0
M  V30 5357 H 512.05 -5.97789 1.03601 0
M  V30 5358 H 510.789 -4.8561 0.450975 0
M  V30 5359 H 509.794 -4.75865 2.75378 0
M  V30 5360 H 511.019 -5.91483 3.33654 0
M  V30 5361 H 508.965 -6.45681 1.15895 0
M  V30 5362 H 508.882 -7.02462 2.79434 0
M  V30 5363 H 510.15 -7.59572 1.75129 0
M  V30 5364 N 514.379 -1.04941 -1.1758 0
M  V30 5365 C 515.604 -0.778253 -1.92245 0
M  V30 5366 C 516.029 0.659707 -1.76152 0
M  V30 5367 O 515.387 1.45803 -1.07755 0
M  V30 5368 C 515.435 -1.16051 -3.41416 0
M  V30 5369 O 514.539 -0.291153 -4.11371 0
M  V30 5370 H 513.88 -0.285619 -0.599431 0
M  V30 5371 H 516.41 -1.40159 -1.49052 0
M  V30 5372 H 516.42 -1.12619 -3.92149 0
M  V30 5373 H 515.095 -2.208 -3.52449 0
M  V30 5374 H 513.672 -0.385851 -3.70898 0
M  V30 5375 N 515.857 1.33968 -0.830081 0
M  V30 5376 C 517.103 1.98357 -0.422191 0
M  V30 5377 C 517.436 1.65633 1.01387 0
M  V30 5378 O 516.711 0.931648 1.70735 0
M  V30 5379 C 516.994 3.54492 -0.633043 0
M  V30 5380 C 516.847 3.96934 -2.11574 0
M  V30 5381 C 518.166 4.40039 -0.0735584 0
M  V30 5382 H 515.285 0.720544 -0.154871 0
M  V30 5383 H 517.927 1.58749 -1.04397 0
M  V30 5384 H 516.077 3.88361 -0.103775 0
M  V30 5385 H 517.749 3.73363 -2.7092 0
M  V30 5386 H 515.992 3.46984 -2.60354 0
M  V30 5387 H 516.663 5.05651 -2.21406 0
M  V30 5388 H 519.139 4.12764 -0.52585 0
M  V30 5389 H 518.015 5.48327 -0.250841 0
M  V30 5390 H 518.276 4.30124 1.02202 0
M  V30 5391 N 517.335 0.585699 1.46312 0
M  V30 5392 C 518.581 0.0725284 2.0267 0
M  V30 5393 C 518.914 -1.28523 1.45586 0
M  V30 5394 O 518.189 -1.84283 0.622101 0
M  V30 5395 C 518.472 0.0099788 3.60099 0
M  V30 5396 C 518.325 1.39685 4.27561 0
M  V30 5397 C 519.644 -0.689117 4.34671 0
M  V30 5398 H 516.763 0.0278307 0.736474 0
M  V30 5399 H 519.405 0.753472 1.74421 0
M  V30 5400 H 517.555 -0.56992 3.84297 0
M  V30 5401 H 519.227 2.02215 4.14617 0
M  V30 5402 H 517.47 1.96374 3.86807 0
M  V30 5403 H 518.141 1.30553 5.36339 0
M  V30 5404 H 520.617 -0.196446 4.15636 0
M  V30 5405 H 519.493 -0.701921 5.44393 0
M  V30 5406 H 519.754 -1.75101 4.05946 0
M  V30 5407 N 518.813 -1.54241 0.323641 0
M  V30 5408 C 519.745 -2.21836 -0.576311 0
M  V30 5409 C 520.758 -1.21837 -1.07979 0
M  V30 5410 O 521.947 -1.48306 -0.99336 0
M  V30 5411 C 519.047 -2.86923 -1.80356 0
M  V30 5412 C 518.22 -4.1306 -1.43875 0
M  V30 5413 C 517.279 -4.6174 -2.52353 0
M  V30 5414 O 516.305 -5.26421 -2.16494 0
M  V30 5415 N 517.507 -4.35974 -3.83284 0
M  V30 5416 H 520.272 -2.997 0.00247987 0
M  V30 5417 H 517.833 -1.61233 0.146848 0
M  V30 5418 H 519.825 -3.16414 -2.52318 0
M  V30 5419 H 518.395 -2.12765 -2.29019 0
M  V30 5420 H 517.615 -3.90334 -0.550752 0
M  V30 5421 H 518.903 -4.95148 -1.17071 0
M  V30 5422 H 518.301 -3.84203 -4.15216 0
M  V30 5423 H 516.858 -4.70119 -4.51477 0
M  V30 5424 N 520.291 -0.0518155 -1.57515 0
M  V30 5425 C 521.223 0.951542 -2.08515 0
M  V30 5426 C 522.236 1.27436 -1.01311 0
M  V30 5427 O 523.425 1.23504 -1.28876 0
M  V30 5428 C 520.525 2.27291 -2.5138 0
M  V30 5429 C 519.698 2.13191 -3.81927 0
M  V30 5430 C 518.757 3.28458 -4.11098 0
M  V30 5431 O 517.783 3.04334 -4.81009 0
M  V30 5432 N 518.985 4.52954 -3.63061 0
M  V30 5433 H 521.75 0.516242 -2.9522 0
M  V30 5434 H 519.311 0.13441 -1.61341 0
M  V30 5435 H 521.303 3.03272 -2.67971 0
M  V30 5436 H 519.873 2.62386 -1.69919 0
M  V30 5437 H 519.093 1.21798 -3.74912 0
M  V30 5438 H 520.381 2.00999 -4.67415 0
M  V30 5439 H 519.779 4.75444 -3.06545 0
M  V30 5440 H 518.336 5.26026 -3.84889 0
M  V30 5441 N 521.769 1.56035 0.221574 0
M  V30 5442 C 522.999 1.82864 0.961468 0
M  V30 5443 C 523.407 0.628703 1.78449 0
M  V30 5444 O 522.75 -0.412109 1.79018 0
M  V30 5445 C 522.812 3.03425 1.92804 0
M  V30 5446 C 522.476 4.38429 1.28954 0
M  V30 5447 C 523.473 5.15441 0.679431 0
M  V30 5448 C 521.158 4.85151 1.30131 0
M  V30 5449 C 523.152 6.37337 0.0896148 0
M  V30 5450 C 520.839 6.06989 0.707651 0
M  V30 5451 C 521.837 6.82923 0.102855 0
M  V30 5452 O 521.525 8.02456 -0.48157 0
M  V30 5453 H 521.257 0.611883 0.28736 0
M  V30 5454 H 523.811 2.0397 0.241932 0
M  V30 5455 H 522.041 2.78138 2.68656 0
M  V30 5456 H 523.73 3.17127 2.53348 0
M  V30 5457 H 524.496 4.80452 0.662661 0
M  V30 5458 H 520.375 4.26021 1.76145 0
M  V30 5459 H 523.919 6.96547 -0.383069 0
M  V30 5460 H 519.816 6.41451 0.721834 0
M  V30 5461 H 520.584 8.17636 -0.375887 0
M  V30 5462 N 523.247 -0.488276 1.49845 0
M  V30 5463 C 524.177 -1.59675 1.70371 0
M  V30 5464 C 525.158 -1.60878 0.552473 0
M  V30 5465 O 526.343 -1.77417 0.78973 0
M  V30 5466 C 523.473 -2.98098 1.782 0
M  V30 5467 C 522.427 -3.11761 2.93239 0
M  V30 5468 C 521.753 -4.51661 2.86193 0
M  V30 5469 C 523.053 -2.90589 4.33999 0
M  V30 5470 H 524.747 -1.42752 2.63177 0
M  V30 5471 H 522.293 -0.685317 1.26647 0
M  V30 5472 H 524.246 -3.75555 1.91144 0
M  V30 5473 H 522.97 -3.16138 0.820018 0
M  V30 5474 H 521.629 -2.36732 2.79917 0
M  V30 5475 H 521.277 -4.66595 1.87877 0
M  V30 5476 H 520.977 -4.61742 3.63412 0
M  V30 5477 H 522.501 -5.31162 3.01163 0
M  V30 5478 H 523.915 -3.57807 4.47936 0
M  V30 5479 H 522.312 -3.1213 5.12538 0
M  V30 5480 H 523.382 -1.86595 4.4756 0
M  V30 5481 N 524.725 -1.39134 -0.740242 0
M  V30 5482 C 526.002 -1.26584 -1.49117 0
M  V30 5483 C 526.382 0.126902 -2.10718 0
M  V30 5484 O 525.73 1.13765 -1.98166 0
M  V30 5485 C 525.94 -2.38619 -2.54681 0
M  V30 5486 C 527.288 -2.77685 -3.21211 0
M  V30 5487 O 528.312 -2.38029 -2.64991 0
M  V30 5488 O 527.171 -3.46115 -4.22926 0
M  V30 5489 H 524.265 -0.495769 -0.661923 0
M  V30 5490 H 526.811 -1.50995 -0.774514 0
M  V30 5491 H 525.583 -3.3175 -2.07504 0
M  V30 5492 H 525.206 -2.15845 -3.33911 0
M  V30 5493 N 526.204 0.969867 -1.24223 0
M  V30 5494 C 527.45 1.7151 -1.08223 0
M  V30 5495 C 527.783 1.90478 0.37838 0
M  V30 5496 O 527.058 1.4647 1.27971 0
M  V30 5497 C 527.341 3.10714 -1.82013 0
M  V30 5498 C 527.194 2.9925 -3.35811 0
M  V30 5499 C 528.513 4.10332 -1.59108 0
M  V30 5500 H 525.632 0.622499 -0.394543 0
M  V30 5501 H 528.274 1.1284 -1.52863 0
M  V30 5502 H 526.424 3.608 -1.44068 0
M  V30 5503 H 528.096 2.56608 -3.83341 0
M  V30 5504 H 526.339 2.35512 -3.64303 0
M  V30 5505 H 527.01 3.97857 -3.82641 0
M  V30 5506 H 529.486 3.69097 -1.92111 0
M  V30 5507 H 528.362 5.05804 -2.13198 0
M  V30 5508 H 528.623 4.38926 -0.528832 0
M  V30 5509 N 527.682 1.05563 1.17022 0
M  V30 5510 C 528.928 0.769074 1.87652 0
M  V30 5511 C 529.261 -0.702326 1.81055 0
M  V30 5512 O 528.536 -1.5139 1.22112 0
M  V30 5513 C 528.819 1.25492 3.37526 0
M  V30 5514 C 528.672 2.78953 3.52853 0
M  V30 5515 C 529.991 0.856919 4.31677 0
M  V30 5516 H 527.11 0.280854 0.681388 0
M  V30 5517 H 529.752 1.31027 1.37593 0
M  V30 5518 H 527.902 0.794516 3.80289 0
M  V30 5519 H 529.574 3.33146 3.19079 0
M  V30 5520 H 527.817 3.18046 2.95007 0
M  V30 5521 H 528.488 3.08011 4.58076 0
M  V30 5522 H 530.964 1.25334 3.96775 0
M  V30 5523 H 529.84 1.22443 5.35069 0
M  V30 5524 H 530.101 -0.238787 4.41455 0
M  V30 5525 N 529.16 -1.33526 0.837174 0
M  V30 5526 C 530.408 -1.97446 0.431211 0
M  V30 5527 C 530.729 -1.6665 -1.01255 0
M  V30 5528 O 529.999 -0.964559 -1.70508 0
M  V30 5529 H 528.579 -0.73043 0.156463 0
M  V30 5530 H 531.241 -1.62918 1.06976 0
M  V30 5531 H 530.337 -3.07001 0.561877 0
M  V30 5532 N 530.638 -0.59345 -1.46 0
M  V30 5533 C 531.868 -0.0889642 -2.06408 0
M  V30 5534 C 532.276 1.22597 -1.44106 0
M  V30 5535 O 531.619 1.75448 -0.544398 0
M  V30 5536 C 531.681 0.139902 -3.59228 0
M  V30 5537 C 531.345 -1.09107 -4.43784 0
M  V30 5538 C 532.342 -2.00577 -4.79651 0
M  V30 5539 C 530.027 -1.31593 -4.84756 0
M  V30 5540 C 532.021 -3.12873 -5.55328 0
M  V30 5541 C 529.708 -2.44192 -5.60191 0
M  V30 5542 C 530.706 -3.34661 -5.95392 0
M  V30 5543 O 530.394 -4.45302 -6.69299 0
M  V30 5544 H 530.126 -0.0594613 -0.67338 0
M  V30 5545 H 532.68 -0.817 -1.88452 0
M  V30 5546 H 530.91 0.922672 -3.75531 0
M  V30 5547 H 532.599 0.594228 -4.01527 0
M  V30 5548 H 533.365 -1.84425 -4.48567 0
M  V30 5549 H 529.244 -0.620801 -4.56801 0
M  V30 5550 H 532.788 -3.83511 -5.82722 0
M  V30 5551 H 528.685 -2.60303 -5.90688 0
M  V30 5552 H 529.453 -4.43805 -6.87735 0
M  V30 5553 N 532.116 1.54067 -0.331816 0
M  V30 5554 C 533.527 1.86059 0.15454 0
M  V30 5555 C 533.878 1.25331 1.50952 0
M  V30 5556 O 533.003 0.562441 2.08963 0
M  V30 5557 C 533.598 3.37581 0.287192 0
M  V30 5558 C 532.157 3.69493 0.717773 0
M  V30 5559 C 531.304 2.76863 -0.155569 0
M  V30 5560 H 534.255 1.48797 -0.55182 0
M  V30 5561 H 534.276 3.63744 1.11671 0
M  V30 5562 H 533.788 3.81751 -0.699131 0
M  V30 5563 H 531.889 3.3086 1.71354 0
M  V30 5564 H 532.002 4.76315 0.5158 0
M  V30 5565 H 530.366 2.51995 0.370213 0
M  V30 5566 H 531.149 3.23861 -1.13881 0
M  V30 5567 N 533.594 0.0601682 1.57485 0
M  V30 5568 C 534.841 -0.611594 1.93043 0
M  V30 5569 C 535.169 -1.70317 0.939274 0
M  V30 5570 O 534.424 -1.95644 -0.046996 0
M  V30 5571 C 534.723 -1.23831 3.35262 0
M  V30 5572 C 534.389 -0.274037 4.50066 0
M  V30 5573 C 533.051 -0.00872394 4.81199 0
M  V30 5574 C 535.403 0.386308 5.19766 0
M  V30 5575 C 532.731 0.924218 5.79375 0
M  V30 5576 C 535.083 1.3075 6.1894 0
M  V30 5577 C 533.747 1.58139 6.48497 0
M  V30 5578 H 533.017 -0.223798 0.706396 0
M  V30 5579 H 535.664 0.128566 1.91068 0
M  V30 5580 H 533.969 -2.05394 3.33647 0
M  V30 5581 H 535.666 -1.76517 3.60059 0
M  V30 5582 H 532.256 -0.491008 4.25778 0
M  V30 5583 H 536.44 0.194436 4.95919 0
M  V30 5584 H 531.696 1.1438 6.00606 0
M  V30 5585 H 535.87 1.82519 6.72056 0
M  V30 5586 H 533.497 2.30593 7.24383 0
M  V30 5587 N 535.072 -1.5615 -0.213296 0
M  V30 5588 C 536.005 -1.88115 -1.29182 0
M  V30 5589 C 536.983 -0.739348 -1.44819 0
M  V30 5590 O 538.167 -0.988541 -1.605 0
M  V30 5591 C 535.294 -2.09541 -2.66102 0
M  V30 5592 C 534.34 -3.32236 -2.67436 0
M  V30 5593 S 535.173 -4.87915 -2.20679 0
M  V30 5594 C 536.329 -5.12387 -3.59458 0
M  V30 5595 H 536.562 -2.793 -1.01876 0
M  V30 5596 H 534.095 -1.48692 -0.415934 0
M  V30 5597 H 536.053 -2.22568 -3.44925 0
M  V30 5598 H 534.714 -1.19138 -2.90628 0
M  V30 5599 H 533.907 -3.44297 -3.6807 0
M  V30 5600 H 533.509 -3.18108 -1.96681 0
M  V30 5601 H 535.801 -5.01791 -4.55205 0
M  V30 5602 H 536.744 -6.14236 -3.52306 0
M  V30 5603 H 537.152 -4.40089 -3.53528 0
M  V30 5604 N 536.55 0.480323 -1.50102 0
M  V30 5605 C 537.961 1.06142 -1.53593 0
M  V30 5606 C 538.312 1.93335 -0.334055 0
M  V30 5607 O 537.437 2.09188 0.55403 0
M  V30 5608 C 538.032 1.9317 -2.78336 0
M  V30 5609 C 536.591 2.46405 -2.84538 0
M  V30 5610 C 535.738 1.24521 -2.4777 0
M  V30 5611 H 538.689 0.26333 -1.565 0
M  V30 5612 H 538.71 2.78123 -2.59669 0
M  V30 5613 H 538.222 1.29683 -3.65792 0
M  V30 5614 H 536.323 3.13472 -2.01411 0
M  V30 5615 H 536.436 2.82143 -3.87211 0
M  V30 5616 H 534.8 1.57706 -2.00003 0
M  V30 5617 H 535.583 0.627102 -3.37524 0
M  V30 5618 N 538.028 1.39524 0.732853 0
M  V30 5619 C 539.439 1.32905 1.31122 0
M  V30 5620 C 539.79 -0.00558708 1.96199 0
M  V30 5621 O 538.915 -0.907706 1.96443 0
M  V30 5622 C 539.51 2.40704 2.38426 0
M  V30 5623 C 538.069 2.37599 2.91931 0
M  V30 5624 C 537.216 2.2248 1.65523 0
M  V30 5625 H 540.167 1.49581 0.530207 0
M  V30 5626 H 540.188 2.07616 3.18867 0
M  V30 5627 H 539.7 3.37829 1.91033 0
M  V30 5628 H 537.801 1.44119 3.43599 0
M  V30 5629 H 537.914 3.32538 3.44899 0
M  V30 5630 H 536.278 1.69691 1.8994 0
M  V30 5631 H 537.061 3.21577 1.20178 0
M  V30 5632 N 539.506 -0.963266 1.24736 0
M  V30 5633 C 540.736 -1.73913 1.11524 0
M  V30 5634 C 541.144 -1.86218 -0.334612 0
M  V30 5635 O 540.487 -1.3531 -1.24245 0
M  V30 5636 C 540.549 -3.17501 1.68622 0
M  V30 5637 C 540.213 -3.28655 3.17546 0
M  V30 5638 C 541.21 -3.13637 4.14642 0
M  V30 5639 C 538.895 -3.52753 3.5759 0
M  V30 5640 C 540.889 -3.2255 5.49764 0
M  V30 5641 C 538.576 -3.61303 4.92852 0
M  V30 5642 C 539.574 -3.46214 5.88748 0
M  V30 5643 O 539.262 -3.5443 7.2155 0
M  V30 5644 H 538.994 -0.552057 0.390139 0
M  V30 5645 H 541.548 -1.2177 1.65412 0
M  V30 5646 H 539.778 -3.70969 1.09172 0
M  V30 5647 H 541.467 -3.76914 1.50635 0
M  V30 5648 H 542.233 -2.94899 3.85045 0
M  V30 5649 H 538.112 -3.63561 2.83451 0
M  V30 5650 H 541.656 -3.1069 6.24594 0
M  V30 5651 H 537.553 -3.79556 5.22118 0
M  V30 5652 H 538.321 -3.71116 7.29531 0
M  V30 5653 N 540.985 -1.06182 -1.16461 0
M  V30 5654 C 542.231 -0.788825 -1.87481 0
M  V30 5655 C 542.586 0.677298 -1.80085 0
M  V30 5656 O 541.879 1.48976 -1.20486 0
M  V30 5657 C 542.073 -1.21633 -3.36066 0
M  V30 5658 C 541.902 -2.72247 -3.57927 0
M  V30 5659 C 540.672 -3.39696 -3.74079 0
M  V30 5660 C 542.87 -3.70461 -3.56739 0
M  V30 5661 N 540.852 -4.79072 -3.83879 0
M  V30 5662 C 542.223 -4.95616 -3.72511 0
M  V30 5663 C 544.278 -3.63788 -3.39945 0
M  V30 5664 C 542.981 -6.14895 -3.73225 0
M  V30 5665 C 545.007 -4.82517 -3.41953 0
M  V30 5666 C 544.369 -6.065 -3.58242 0
M  V30 5667 H 540.468 -0.341034 -0.703719 0
M  V30 5668 H 543.052 -1.35575 -1.39741 0
M  V30 5669 H 541.223 -0.67725 -3.8245 0
M  V30 5670 H 542.955 -0.892119 -3.94745 0
M  V30 5671 H 539.71 -2.90097 -3.74354 0
M  V30 5672 H 540.134 -5.51573 -3.92551 0
M  V30 5673 H 544.776 -2.68888 -3.26281 0
M  V30 5674 H 542.494 -7.10129 -3.85672 0
M  V30 5675 H 546.08 -4.79017 -3.30203 0
M  V30 5676 H 544.96 -6.96833 -3.59712 0
M  V30 5677 N 542.463 1.3308 -0.844243 0
M  V30 5678 C 543.711 1.97215 -0.441676 0
M  V30 5679 C 544.032 1.67185 1.0037 0
M  V30 5680 O 543.302 0.973588 1.69994 0
M  V30 5681 H 541.882 0.72959 -0.160335 0
M  V30 5682 H 544.544 1.62348 -1.07838 0
M  V30 5683 H 543.64 3.06698 -0.57815 0
M  V30 5684 N 543.941 0.601185 1.45683 0
M  V30 5685 C 544.871 -0.108824 2.33246 0
M  V30 5686 C 545.852 -0.865223 1.46451 0
M  V30 5687 O 547.037 -0.83704 1.75235 0
M  V30 5688 C 544.167 -1.11101 3.2905 0
M  V30 5689 C 543.121 -0.468244 4.25431 0
M  V30 5690 C 542.447 -1.57822 5.10878 0
M  V30 5691 C 543.747 0.606469 5.18767 0
M  V30 5692 H 545.441 0.622306 2.92861 0
M  V30 5693 H 542.987 0.300714 1.40825 0
M  V30 5694 H 544.94 -1.61622 3.89174 0
M  V30 5695 H 543.664 -1.87265 2.67581 0
M  V30 5696 H 542.323 0.0160484 3.66596 0
M  V30 5697 H 541.971 -2.32998 4.45781 0
M  V30 5698 H 541.671 -1.15369 5.76163 0
M  V30 5699 H 543.195 -2.08583 5.73869 0
M  V30 5700 H 544.609 0.185589 5.73 0
M  V30 5701 H 543.006 0.952381 5.92494 0
M  V30 5702 H 544.076 1.48559 4.61582 0
M  V30 5703 N 545.419 -1.53889 0.339982 0
M  V30 5704 C 546.667 -2.00458 -0.257112 0
M  V30 5705 C 546.988 -1.22953 -1.51353 0
M  V30 5706 O 546.258 -0.335734 -1.93002 0
M  V30 5707 H 544.838 -0.740544 -0.0979965 0
M  V30 5708 H 547.5 -1.89386 0.460317 0
M  V30 5709 H 546.596 -3.08035 -0.502057 0
M  V30 5710 N 546.897 -0.0685191 -1.57451 0
M  V30 5711 C 548.144 0.601348 -1.93365 0
M  V30 5712 C 548.472 1.69816 -0.948294 0
M  V30 5713 O 547.727 1.95666 0.0366199 0
M  V30 5714 C 548.026 1.22051 -3.35914 0
M  V30 5715 C 547.692 0.250165 -4.50205 0
M  V30 5716 C 546.354 -0.0167954 -4.81197 0
M  V30 5717 C 548.706 -0.413867 -5.19554 0
M  V30 5718 C 546.034 -0.95493 -5.78876 0
M  V30 5719 C 548.386 -1.3403 -6.18238 0
M  V30 5720 C 547.05 -1.61576 -6.47649 0
M  V30 5721 H 546.32 0.220049 -0.707573 0
M  V30 5722 H 548.967 -0.138697 -1.90997 0
M  V30 5723 H 547.272 2.03622 -3.34732 0
M  V30 5724 H 548.969 1.74605 -3.6099 0
M  V30 5725 H 545.559 0.468421 -4.26033 0
M  V30 5726 H 549.743 -0.220733 -4.95809 0
M  V30 5727 H 544.999 -1.17563 -5.99991 0
M  V30 5728 H 549.173 -1.86081 -6.71079 0
M  V30 5729 H 546.8 -2.34431 -7.2315 0
M  V30 5730 N 548.375 1.56261 0.205012 0
M  V30 5731 C 549.325 1.90155 1.25798 0
M  V30 5732 C 550.309 0.766227 1.41484 0
M  V30 5733 O 551.501 1.02893 1.44021 0
M  V30 5734 C 548.63 2.23603 2.60493 0
M  V30 5735 C 547.716 3.43568 2.48639 0
M  V30 5736 N 548.107 4.61747 2.06455 0
M  V30 5737 C 546.405 3.4751 2.79558 0
M  V30 5738 C 547.106 5.43907 2.06253 0
M  V30 5739 N 546.082 4.84051 2.47377 0
M  V30 5740 H 549.884 2.79031 0.922986 0
M  V30 5741 H 547.398 1.57048 0.413501 0
M  V30 5742 H 549.395 2.46067 3.36537 0
M  V30 5743 H 548.055 1.36049 2.94823 0
M  V30 5744 H 549.066 4.86598 1.77321 0
M  V30 5745 H 545.743 2.70345 3.18151 0
M  V30 5746 H 547.133 6.48542 1.75622 0
M  V30 5747 N 549.853 -0.472356 1.50355 0
M  V30 5748 C 550.783 -1.57859 1.72055 0
M  V30 5749 C 551.764 -1.60283 0.569505 0
M  V30 5750 O 552.949 -1.7657 0.808503 0
M  V30 5751 C 550.079 -2.96191 1.81351 0
M  V30 5752 C 549.033 -3.08633 2.96529 0
M  V30 5753 C 548.359 -4.486 2.90968 0
M  V30 5754 C 549.659 -2.85969 4.37057 0
M  V30 5755 H 551.353 -1.39953 2.64676 0
M  V30 5756 H 548.899 -0.671846 1.27367 0
M  V30 5757 H 550.852 -3.73507 1.95117 0
M  V30 5758 H 549.576 -3.15251 0.853502 0
M  V30 5759 H 548.235 -2.33749 2.82413 0
M  V30 5760 H 547.883 -4.64577 1.92815 0
M  V30 5761 H 547.583 -4.57861 3.68289 0
M  V30 5762 H 549.107 -5.27938 3.0678 0
M  V30 5763 H 550.521 -3.53036 4.51706 0
M  V30 5764 H 548.918 -3.06677 5.15819 0
M  V30 5765 H 549.988 -1.81838 4.49514 0
M  V30 5766 N 551.331 -1.39911 -0.725443 0
M  V30 5767 C 552.571 -1.39096 -1.49772 0
M  V30 5768 C 552.935 0.0106452 -1.91997 0
M  V30 5769 O 554.136 0.143859 -2.68415 0
M  V30 5770 C 552.407 -2.34441 -2.69764 0
M  V30 5771 S 553.966 -2.51898 -3.59295 0
M  V30 5772 H 550.784 -0.49314 -0.512186 0
M  V30 5773 H 553.386 -1.76093 -0.849197 0
M  V30 5774 H 552.09 -3.35123 -2.36898 0
M  V30 5775 H 551.621 -1.98692 -3.39537 0
M  V30 5776 H 553.636 -1.76402 -4.63785 0
M  V30 5777 N 552.809 0.956637 -1.25245 0
M  V30 5778 C 554.225 1.22733 -1.02023 0
M  V30 5779 C 554.425 1.99761 0.264186 0
M  V30 5780 O 553.481 2.32814 0.977436 0
M  V30 5781 C 554.794 2.00367 -2.24217 0
M  V30 5782 C 556.342 2.13418 -2.28958 0
M  V30 5783 C 556.817 2.9445 -3.50803 0
M  V30 5784 N 558.308 3.02029 -3.51187 0
M  V30 5785 C 559.043 3.65116 -4.42129 0
M  V30 5786 N 558.539 4.2983 -5.43339 0
M  V30 5787 N 560.332 3.62237 -4.29815 0
M  V30 5788 H 552.483 0.441282 -2.07765 0
M  V30 5789 H 554.746 0.257686 -0.912306 0
M  V30 5790 H 554.452 1.51165 -3.17556 0
M  V30 5791 H 554.326 3.01077 -2.27228 0
M  V30 5792 H 556.713 2.61819 -1.36143 0
M  V30 5793 H 556.794 1.1202 -2.29968 0
M  V30 5794 H 556.438 2.46741 -4.43939 0
M  V30 5795 H 556.368 3.9607 -3.47039 0
M  V30 5796 H 558.859 2.56007 -2.77973 0
M  V30 5797 H 559.172 4.75819 -6.08947 0
M  V30 5798 H 557.517 4.28465 -5.47214 0
M  V30 5799 H 560.708 3.10863 -3.49974 0
M  V30 5800 H 560.881 4.11117 -5.00886 0
M  V30 5801 N 554.287 1.06798 1.15896 0
M  V30 5802 C 555.533 0.798757 1.8706 0
M  V30 5803 C 555.888 -0.667739 1.80441 0
M  V30 5804 O 555.181 -1.48334 1.21274 0
M  V30 5805 C 555.375 1.23414 3.35416 0
M  V30 5806 C 555.204 2.74142 3.56478 0
M  V30 5807 C 553.974 3.41675 3.72272 0
M  V30 5808 C 556.172 3.72348 3.5477 0
M  V30 5809 N 554.154 4.81101 3.81333 0
M  V30 5810 C 555.525 4.97585 3.69877 0
M  V30 5811 C 557.58 3.65585 3.38011 0
M  V30 5812 C 556.283 6.16866 3.69959 0
M  V30 5813 C 558.309 4.84323 3.39389 0
M  V30 5814 C 557.671 6.08391 3.5502 0
M  V30 5815 H 553.77 0.344761 0.7019 0
M  V30 5816 H 556.354 1.36314 1.3902 0
M  V30 5817 H 554.525 0.697522 3.82085 0
M  V30 5818 H 556.257 0.91304 3.94266 0
M  V30 5819 H 553.012 2.92078 3.7281 0
M  V30 5820 H 553.436 5.53647 3.8962 0
M  V30 5821 H 558.078 2.70615 3.2485 0
M  V30 5822 H 555.796 7.12164 3.819 0
M  V30 5823 H 559.382 4.80762 3.27658 0
M  V30 5824 H 558.262 6.98731 3.56012 0
M  V30 5825 N 555.766 -1.3263 0.851289 0
M  V30 5826 C 557.014 -1.96978 0.452128 0
M  V30 5827 C 557.335 -1.67715 -0.99482 0
M  V30 5828 O 556.605 -0.98259 -1.69476 0
M  V30 5829 H 555.185 -0.72873 0.164202 0
M  V30 5830 H 557.847 -1.61774 1.08698 0
M  V30 5831 H 556.943 -3.06387 0.594407 0
M  V30 5832 N 557.244 -0.608902 -1.45362 0
M  V30 5833 C 558.474 -0.110852 -2.06302 0
M  V30 5834 C 558.882 1.21062 -1.45398 0
M  V30 5835 O 558.225 1.74861 -0.562976 0
M  V30 5836 C 558.287 0.101793 -3.59356 0
M  V30 5837 C 557.951 -1.13808 -4.42602 0
M  V30 5838 C 558.948 -2.05653 -4.77496 0
M  V30 5839 C 556.633 -1.36727 -4.83333 0
M  V30 5840 C 558.627 -3.18745 -5.51978 0
M  V30 5841 C 556.314 -2.5012 -5.57569 0
M  V30 5842 C 557.312 -3.40957 -5.91809 0
M  V30 5843 O 557 -4.52376 -6.64538 0
M  V30 5844 H 556.732 -0.0666001 -0.672711 0
M  V30 5845 H 559.286 -0.836942 -1.87575 0
M  V30 5846 H 557.516 0.88279 -3.76489 0
M  V30 5847 H 559.205 0.551607 -4.02134 0
M  V30 5848 H 559.971 -1.89172 -4.46586 0
M  V30 5849 H 555.85 -0.669216 -4.56117 0
M  V30 5850 H 559.394 -3.8967 -5.78622 0
M  V30 5851 H 555.291 -2.66553 -5.87894 0
M  V30 5852 H 556.059 -4.51075 -6.82989 0
M  V30 5853 N 558.722 1.53707 -0.348139 0
M  V30 5854 C 559.947 2.05877 0.250883 0
M  V30 5855 C 560.372 1.22115 1.43072 0
M  V30 5856 O 559.73 0.235986 1.79758 0
M  V30 5857 C 559.778 3.54886 0.639416 0
M  V30 5858 O 558.882 3.73948 1.73888 0
M  V30 5859 H 558.223 0.662754 0.040653 0
M  V30 5860 H 560.753 1.98303 -0.503685 0
M  V30 5861 H 560.763 3.97601 0.915295 0
M  V30 5862 H 559.438 4.153 -0.223386 0
M  V30 5863 H 558.015 3.43134 1.45991 0
M  V30 5864 N 560.2 0.0768682 1.57412 0
M  V30 5865 C 561.425 -0.603404 1.98428 0
M  V30 5866 C 561.85 -1.62047 0.955108 0
M  V30 5867 O 561.208 -1.81129 -0.0786778 0
M  V30 5868 C 561.256 -1.24396 3.38464 0
M  V30 5869 O 560.36 -2.35982 3.3821 0
M  V30 5870 H 559.701 -0.154741 0.645718 0
M  V30 5871 H 562.231 0.152885 2.04028 0
M  V30 5872 H 562.241 -1.5896 3.7576 0
M  V30 5873 H 560.916 -0.498735 4.12899 0
M  V30 5874 H 559.493 -2.03173 3.1269 0
M  V30 5875 N 561.678 -1.56367 -0.196722 0
M  V30 5876 C 562.906 -1.84639 -0.933608 0
M  V30 5877 C 563.321 -0.659164 -1.76919 0
M  V30 5878 O 562.678 0.372142 -1.78665 0
M  V30 5879 C 562.729 -3.11694 -1.83109 0
M  V30 5880 O 562.45 -4.25838 -1.02924 0
M  V30 5881 C 563.951 -3.53132 -2.67979 0
M  V30 5882 H 561.171 -0.613188 -0.272473 0
M  V30 5883 H 563.715 -2.03475 -0.204465 0
M  V30 5884 H 561.87 -2.94759 -2.51387 0
M  V30 5885 H 562.284 -4.98178 -1.64069 0
M  V30 5886 H 563.758 -4.45005 -3.26611 0
M  V30 5887 H 564.235 -2.76045 -3.41608 0
M  V30 5888 H 564.841 -3.72592 -2.05074 0
M  V30 5889 N 563.156 0.464375 -1.50603 0
M  V30 5890 C 564.119 1.54393 -1.69397 0
M  V30 5891 C 565.119 1.50566 -0.564504 0
M  V30 5892 O 566.309 1.53066 -0.831645 0
M  V30 5893 C 563.441 2.9401 -1.72543 0
M  V30 5894 H 564.634 1.39044 -2.65719 0
M  V30 5895 H 562.187 0.69122 -1.40185 0
M  V30 5896 H 562.922 3.14795 -0.77938 0
M  V30 5897 H 562.707 2.98195 -2.54602 0
M  V30 5898 H 564.197 3.72375 -1.89015 0
M  V30 5899 N 564.634 1.40294 0.718013 0
M  V30 5900 C 565.883 1.37746 1.4734 0
M  V30 5901 C 566.196 -0.0180754 1.95592 0
M  V30 5902 O 567.402 -0.166166 2.70991 0
M  V30 5903 C 565.858 2.4208 2.66318 0
M  V30 5904 C 565.466 3.87432 2.24945 0
M  V30 5905 C 567.21 2.48635 3.44065 0
M  V30 5906 C 565.117 4.83368 3.40748 0
M  V30 5907 H 564.047 0.512165 0.553356 0
M  V30 5908 H 566.698 1.66019 0.781661 0
M  V30 5909 H 565.08 2.06903 3.3765 0
M  V30 5910 H 566.254 4.3174 1.6105 0
M  V30 5911 H 564.569 3.8433 1.60249 0
M  V30 5912 H 567.166 3.17499 4.30231 0
M  V30 5913 H 567.509 1.51611 3.87711 0
M  V30 5914 H 568.042 2.82791 2.79775 0
M  V30 5915 H 564.781 5.81716 3.02136 0
M  V30 5916 H 564.301 4.43726 4.03568 0
M  V30 5917 H 565.98 5.03074 4.06848 0
M  V30 5918 N 566.112 -0.949982 1.2575 0
M  V30 5919 C 567.34 -1.72972 1.13527 0
M  V30 5920 C 567.755 -1.8623 -0.310453 0
M  V30 5921 O 567.112 -1.36336 -1.2132 0
M  V30 5922 C 567.163 -3.14108 1.78936 0
M  V30 5923 O 566.884 -3.01493 3.17858 0
M  V30 5924 C 568.385 -4.08338 1.72554 0
M  V30 5925 H 565.605 -0.541864 0.395758 0
M  V30 5926 H 568.149 -1.19151 1.66202 0
M  V30 5927 H 566.304 -3.64858 1.30221 0
M  V30 5928 H 566.718 -3.90559 3.50092 0
M  V30 5929 H 568.192 -5.04963 2.22973 0
M  V30 5930 H 568.669 -4.33742 0.690251 0
M  V30 5931 H 569.275 -3.63506 2.2078 0
M  V30 5932 N 567.59 -1.07411 -1.15328 0
M  V30 5933 C 569.006 -0.799759 -1.38116 0
M  V30 5934 C 569.206 0.59572 -1.92493 0
M  V30 5935 O 568.262 1.35433 -2.13106 0
M  V30 5936 C 569.575 -1.87407 -2.35158 0
M  V30 5937 C 571.123 -1.89889 -2.48819 0
M  V30 5938 C 571.598 -2.96406 -3.49153 0
M  V30 5939 N 573.089 -2.95512 -3.56689 0
M  V30 5940 C 573.824 -3.74575 -4.34144 0
M  V30 5941 N 573.32 -4.63488 -5.14928 0
M  V30 5942 N 575.113 -3.62919 -4.29239 0
M  V30 5943 H 567.264 -1.97411 -0.78374 0
M  V30 5944 H 569.527 -0.856113 -0.407154 0
M  V30 5945 H 569.233 -2.8768 -2.0232 0
M  V30 5946 H 569.107 -1.73471 -3.34944 0
M  V30 5947 H 571.494 -0.902677 -2.80955 0
M  V30 5948 H 571.575 -2.07904 -1.49029 0
M  V30 5949 H 571.219 -3.96227 -3.17752 0
M  V30 5950 H 571.149 -2.75638 -4.48699 0
M  V30 5951 H 573.64 -2.31061 -2.99031 0
M  V30 5952 H 573.953 -5.20445 -5.71276 0
M  V30 5953 H 572.298 -4.67537 -5.14232 0
M  V30 5954 H 575.489 -2.92833 -3.65194 0
M  V30 5955 H 575.662 -4.24777 -4.89355 0
M  V30 5956 N 569.068 1.32177 -0.85831 0
M  V30 5957 C 570 2.27688 -0.262835 0
M  V30 5958 C 571.013 1.52588 0.567513 0
M  V30 5959 O 572.202 1.74156 0.391407 0
M  V30 5960 C 569.302 3.32668 0.646937 0
M  V30 5961 C 568.475 4.37148 -0.148372 0
M  V30 5962 C 567.534 5.21686 0.687728 0
M  V30 5963 O 566.56 5.69074 0.119934 0
M  V30 5964 N 567.762 5.44892 2.00182 0
M  V30 5965 H 570.527 2.79426 -1.08356 0
M  V30 5966 H 568.088 1.45076 -0.718647 0
M  V30 5967 H 570.08 3.86134 1.2117 0
M  V30 5968 H 568.65 2.81061 1.36834 0
M  V30 5969 H 567.87 3.83915 -0.894572 0
M  V30 5970 H 569.158 5.04038 -0.694514 0
M  V30 5971 H 568.556 5.08128 2.4864 0
M  V30 5972 H 567.113 6.0134 2.51463 0
M  V30 5973 N 570.547 0.616602 1.45037 0
M  V30 5974 C 571.793 0.115501 2.02471 0
M  V30 5975 C 572.126 -1.25406 1.4828 0
M  V30 5976 O 571.401 -1.82922 0.661051 0
M  V30 5977 C 571.684 0.0863588 3.59996 0
M  V30 5978 C 571.537 1.48723 4.24501 0
M  V30 5979 C 572.856 -0.596762 4.36035 0
M  V30 5980 H 569.975 0.0434461 0.735718 0
M  V30 5981 H 572.617 0.7903 1.72784 0
M  V30 5982 H 570.767 -0.488277 3.85419 0
M  V30 5983 H 572.439 2.10964 4.10234 0
M  V30 5984 H 570.682 2.04534 3.82555 0
M  V30 5985 H 571.353 1.419 5.3345 0
M  V30 5986 H 573.829 -0.10824 4.15959 0
M  V30 5987 H 572.705 -0.586289 5.4576 0
M  V30 5988 H 572.966 -1.66451 4.09569 0
M  V30 5989 N 572.025 -1.5352 0.356285 0
M  V30 5990 C 573.271 -2.01414 -0.236653 0
M  V30 5991 C 573.604 -1.24339 -1.49176 0
M  V30 5992 O 572.879 -0.334496 -1.91602 0
M  V30 5993 C 573.162 -3.56059 -0.537982 0
M  V30 5994 C 573.015 -4.43835 0.730112 0
M  V30 5995 C 574.334 -4.19127 -1.34239 0
M  V30 5996 H 571.453 -0.732135 -0.0845386 0
M  V30 5997 H 574.095 -1.83854 0.479341 0
M  V30 5998 H 572.245 -3.71153 -1.14795 0
M  V30 5999 H 573.917 -4.40555 1.36782 0
M  V30 6000 H 572.16 -4.1218 1.3524 0
M  V30 6001 H 572.831 -5.49958 0.474358 0
M  V30 6002 H 575.307 -4.07809 -0.826498 0
M  V30 6003 H 574.183 -5.27378 -1.52198 0
M  V30 6004 H 574.444 -3.74581 -2.34822 0
M  V30 6005 N 573.503 -0.0852151 -1.57369 0
M  V30 6006 C 574.413 0.891712 -2.16992 0
M  V30 6007 C 575.429 1.3174 -1.13669 0
M  V30 6008 O 576.605 1.38735 -1.45995 0
M  V30 6009 C 573.67 2.13635 -2.73059 0
M  V30 6010 C 572.731 1.7658 -3.91303 0
M  V30 6011 C 571.964 2.95111 -4.44686 0
M  V30 6012 O 572.187 4.09539 -3.97032 0
M  V30 6013 O 571.121 2.74149 -5.35841 0
M  V30 6014 H 574.947 0.414477 -3.00858 0
M  V30 6015 H 572.532 0.138598 -1.48756 0
M  V30 6016 H 574.414 2.86595 -3.08935 0
M  V30 6017 H 573.089 2.6043 -1.92244 0
M  V30 6018 H 571.996 1.00831 -3.60255 0
M  V30 6019 H 573.329 1.34557 -4.7345 0
M  V30 6020 N 574.981 1.5647 0.188427 0
M  V30 6021 C 575.929 1.95971 1.25293 0
M  V30 6022 C 576.923 0.846047 1.4676 0
M  V30 6023 O 578.129 1.03109 1.47542 0
M  V30 6024 H 574.504 0.623253 0.420784 0
M  V30 6025 H 576.475 2.84731 0.892792 0
M  V30 6026 C 575.224 2.32116 2.58877 0
M  V30 6027 H 574.547 3.17341 2.43176 0
M  V30 6028 H 575.987 2.63613 3.3209 0
M  V30 6029 C 574.446 1.15823 3.16365 0
M  V30 6030 O 574.976 0.436785 3.99318 0
M  V30 6031 N 573.182 0.933278 2.75206 0
M  V30 6032 H 572.729 1.52169 2.07852 0
M  V30 6033 H 572.687 0.156976 3.14008 0
M  V30 6034 N 576.459 -0.456382 1.50847 0
M  V30 6035 C 577.392 -1.57177 1.65441 0
M  V30 6036 C 578.37 -1.54649 0.502224 0
M  V30 6037 O 579.554 -1.74057 0.723633 0
M  V30 6038 C 576.681 -2.95763 1.65052 0
M  V30 6039 C 575.727 -3.16389 2.86007 0
M  V30 6040 S 576.56 -2.94716 4.47105 0
M  V30 6041 C 577.716 -4.35617 4.49432 0
M  V30 6042 H 577.949 -1.44561 2.59787 0
M  V30 6043 H 575.482 -0.644758 1.40293 0
M  V30 6044 H 577.44 -3.75654 1.65512 0
M  V30 6045 H 576.101 -3.05756 0.719153 0
M  V30 6046 H 575.294 -4.17667 2.82081 0
M  V30 6047 H 574.896 -2.44293 2.8319 0
M  V30 6048 H 577.188 -5.28503 4.239 0
M  V30 6049 H 578.131 -4.44582 5.51137 0
M  V30 6050 H 578.539 -4.18382 3.78967 0
M  V30 6051 N 577.937 -1.40673 -0.710563 0
M  V30 6052 C 579.165 -1.42547 -1.4996 0
M  V30 6053 C 579.58 -0.0265485 -1.88781 0
M  V30 6054 O 578.937 0.950694 -1.55782 0
M  V30 6055 C 578.988 -2.32071 -2.77173 0
M  V30 6056 O 578.709 -3.66518 -2.39992 0
M  V30 6057 C 580.21 -2.42591 -3.71032 0
M  V30 6058 H 577.43 -0.486025 -0.462623 0
M  V30 6059 H 579.974 -1.84783 -0.876102 0
M  V30 6060 H 578.129 -1.93184 -3.35795 0
M  V30 6061 H 578.543 -4.14115 -3.21884 0
M  V30 6062 H 580.017 -3.09429 -4.57119 0
M  V30 6063 H 580.494 -1.4525 -4.14486 0
M  V30 6064 H 581.1 -2.82051 -3.18319 0
M  V30 6065 N 579.415 0.9433 -1.26252 0
M  V30 6066 C 580.831 1.21644 -1.03319 0
M  V30 6067 C 581.031 2.0003 0.242983 0
M  V30 6068 O 580.087 2.33838 0.952688 0
M  V30 6069 C 581.4 1.97978 -2.2633 0
M  V30 6070 C 582.948 2.10978 -2.31209 0
M  V30 6071 C 583.423 2.90713 -3.53907 0
M  V30 6072 N 584.914 2.98287 -3.54371 0
M  V30 6073 C 585.649 3.60406 -4.45976 0
M  V30 6074 N 585.145 4.24043 -5.47868 0
M  V30 6075 N 586.938 3.57658 -4.33633 0
M  V30 6076 H 579.089 0.419221 -2.08222 0
M  V30 6077 H 581.352 0.247995 -0.914988 0
M  V30 6078 H 581.058 1.47788 -3.19142 0
M  V30 6079 H 580.932 2.9865 -2.30408 0
M  V30 6080 H 583.319 2.6036 -1.38913 0
M  V30 6081 H 583.4 1.09575 -2.31143 0
M  V30 6082 H 583.044 2.42018 -4.46531 0
M  V30 6083 H 582.974 3.92367 -3.5122 0
M  V30 6084 H 585.465 2.53044 -2.80673 0
M  V30 6085 H 585.778 4.69334 -6.13959 0
M  V30 6086 H 584.123 4.22637 -5.51728 0
M  V30 6087 H 587.314 3.07134 -3.53251 0
M  V30 6088 H 587.487 4.05782 -5.05218 0
M  V30 6089 N 580.893 1.08022 1.14757 0
M  V30 6090 C 581.856 0.71048 2.1791 0
M  V30 6091 C 582.856 -0.252731 1.58801 0
M  V30 6092 O 584.046 -0.0327915 1.74169 0
M  V30 6093 C 581.178 0.0483203 3.40866 0
M  V30 6094 H 582.371 1.62384 2.52134 0
M  V30 6095 H 579.924 0.877595 1.29337 0
M  V30 6096 H 580.659 -0.876959 3.12218 0
M  V30 6097 H 580.444 0.741189 3.85031 0
M  V30 6098 H 581.934 -0.195471 4.17142 0
M  V30 6099 N 582.371 -1.3172 0.865308 0
M  V30 6100 C 583.321 -2.26157 0.289305 0
M  V30 6101 C 584.305 -1.50428 -0.570977 0
M  V30 6102 O 585.497 -1.71978 -0.418617 0
M  V30 6103 C 582.626 -3.39457 -0.512237 0
M  V30 6104 C 581.712 -4.22561 0.361028 0
M  V30 6105 N 582.103 -4.84501 1.45231 0
M  V30 6106 C 580.401 -4.45739 0.152641 0
M  V30 6107 C 581.102 -5.46586 1.99043 0
M  V30 6108 N 580.078 -5.28119 1.28809 0
M  V30 6109 H 583.88 -2.71581 1.12344 0
M  V30 6110 H 581.394 -1.45932 0.712565 0
M  V30 6111 H 583.391 -4.06133 -0.941379 0
M  V30 6112 H 582.051 -2.95577 -1.34404 0
M  V30 6113 H 583.062 -4.84293 1.83524 0
M  V30 6114 H 579.739 -4.1251 -0.643583 0
M  V30 6115 H 581.129 -6.05817 2.90577 0
M  V30 6116 N 583.85 -0.624285 -1.44708 0
M  V30 6117 C 585.096 -0.126051 -2.02107 0
M  V30 6118 C 585.425 1.2496 -1.49048 0
M  V30 6119 O 584.68 1.84163 -0.662005 0
M  V30 6120 C 584.979 -0.0546353 -3.57358 0
M  V30 6121 C 584.644 -1.36815 -4.29642 0
M  V30 6122 C 583.307 -1.72792 -4.49106 0
M  V30 6123 C 585.659 -2.23549 -4.70824 0
M  V30 6124 C 582.986 -2.95222 -5.07012 0
M  V30 6125 C 585.339 -3.45243 -5.30085 0
M  V30 6126 C 584.003 -3.81452 -5.47769 0
M  V30 6127 H 583.273 -0.0461252 -0.739563 0
M  V30 6128 H 585.92 -0.809236 -1.73562 0
M  V30 6129 H 584.225 0.711891 -3.85278 0
M  V30 6130 H 585.922 0.347282 -3.99493 0
M  V30 6131 H 582.512 -1.07817 -4.14817 0
M  V30 6132 H 586.696 -1.9705 -4.55505 0
M  V30 6133 H 581.952 -3.23361 -5.18891 0
M  V30 6134 H 586.125 -4.12689 -5.60946 0
M  V30 6135 H 583.753 -4.76403 -5.92405 0
M  V30 6136 N 585.328 1.53329 -0.364422 0
M  V30 6137 C 586.739 1.86345 0.115039 0
M  V30 6138 C 587.09 1.28505 1.4826 0
M  V30 6139 O 586.215 0.606639 2.07723 0
M  V30 6140 C 586.81 3.38114 0.215522 0
M  V30 6141 C 585.369 3.70932 0.639237 0
M  V30 6142 C 584.516 2.76471 -0.214261 0
M  V30 6143 H 587.467 1.47593 -0.583258 0
M  V30 6144 H 587.488 3.66031 1.0393 0
M  V30 6145 H 587 3.80182 -0.779948 0
M  V30 6146 H 585.101 3.3442 1.64298 0
M  V30 6147 H 585.214 4.77302 0.41465 0
M  V30 6148 H 583.578 2.52724 0.316678 0
M  V30 6149 H 584.361 3.21373 -1.20725 0
M  V30 6150 N 586.806 0.0935595 1.57322 0
M  V30 6151 C 587.736 -0.863062 2.16964 0
M  V30 6152 C 588.717 -1.29528 1.10256 0
M  V30 6153 O 589.902 -1.36245 1.38387 0
M  V30 6154 C 587.032 -2.12276 2.74875 0
M  V30 6155 C 585.986 -1.82921 3.86942 0
M  V30 6156 C 585.312 -3.15707 4.31548 0
M  V30 6157 C 586.612 -1.11737 5.10208 0
M  V30 6158 H 588.306 -0.366145 2.97153 0
M  V30 6159 H 585.852 -0.174673 1.42937 0
M  V30 6160 H 587.805 -2.79634 3.1525 0
M  V30 6161 H 586.529 -2.64248 1.91938 0
M  V30 6162 H 585.188 -1.17961 3.47103 0
M  V30 6163 H 584.836 -3.65563 3.45504 0
M  V30 6164 H 584.536 -2.96849 5.07104 0
M  V30 6165 H 586.06 -3.84226 4.74555 0
M  V30 6166 H 587.474 -1.69203 5.47762 0
M  V30 6167 H 585.871 -1.03064 5.91183 0
M  V30 6168 H 586.941 -0.0998818 4.84797 0
M  V30 6169 N 588.284 -1.56567 -0.180126 0
M  V30 6170 C 589.561 -1.7235 -0.924931 0
M  V30 6171 C 589.941 -0.652523 -2.00762 0
M  V30 6172 O 589.289 0.334115 -2.26044 0
M  V30 6173 C 589.499 -3.1523 -1.49771 0
M  V30 6174 C 590.847 -3.75921 -1.97405 0
M  V30 6175 O 591.871 -3.18452 -1.59583 0
M  V30 6176 O 590.73 -4.7681 -2.67048 0
M  V30 6177 H 587.824 -0.703502 -0.434758 0
M  V30 6178 H 590.37 -1.6886 -0.168647 0
M  V30 6179 H 589.142 -3.84656 -0.718027 0
M  V30 6180 H 588.765 -3.23009 -2.31842 0
M  V30 6181 N 589.762 0.448376 -1.51087 0
M  V30 6182 C 591.008 1.20049 -1.6345 0
M  V30 6183 C 591.341 1.91121 -0.344444 0
M  V30 6184 O 590.616 1.83125 0.655396 0
M  V30 6185 C 590.899 2.22624 -2.83038 0
M  V30 6186 C 590.752 1.55708 -4.21989 0
M  V30 6187 C 592.071 3.23718 -2.98152 0
M  V30 6188 H 589.19 0.435085 -0.59487 0
M  V30 6189 H 591.832 0.491183 -1.83541 0
M  V30 6190 H 589.982 2.83117 -2.66039 0
M  V30 6191 H 591.654 0.986367 -4.50631 0
M  V30 6192 H 589.897 0.859647 -4.25197 0
M  V30 6193 H 590.568 2.30357 -5.01637 0
M  V30 6194 H 593.044 2.73269 -3.13788 0
M  V30 6195 H 591.92 3.92795 -3.83411 0
M  V30 6196 H 592.181 3.89179 -2.09743 0
M  V30 6197 N 591.24 1.41047 0.703093 0
M  V30 6198 C 592.172 1.38228 1.82827 0
M  V30 6199 C 593.185 0.285637 1.60275 0
M  V30 6200 O 594.374 0.54685 1.69917 0
M  V30 6201 C 591.474 1.13136 3.19458 0
M  V30 6202 C 590.647 2.34695 3.69103 0
M  V30 6203 C 589.706 2.05574 4.84382 0
M  V30 6204 O 588.732 2.78549 4.96386 0
M  V30 6205 N 589.934 1.04135 5.71083 0
M  V30 6206 H 592.699 2.35203 1.85741 0
M  V30 6207 H 590.26 1.35562 0.885125 0
M  V30 6208 H 592.252 0.916183 3.94193 0
M  V30 6209 H 590.822 0.247836 3.11616 0
M  V30 6210 H 590.042 2.71963 2.85359 0
M  V30 6211 H 591.33 3.15705 3.99009 0
M  V30 6212 H 590.728 0.43722 5.64008 0
M  V30 6213 H 589.285 0.886078 6.45749 0
M  V30 6214 N 592.718 -0.936591 1.26751 0
M  V30 6215 C 593.964 -1.68625 1.13741 0
M  V30 6216 C 594.319 -1.898 -0.315221 0
M  V30 6217 O 593.612 -1.47088 -1.22783 0
M  V30 6218 C 593.806 -3.06099 1.84494 0
M  V30 6219 C 593.635 -2.98338 3.36488 0
M  V30 6220 C 592.405 -3.01104 4.05789 0
M  V30 6221 C 594.603 -2.78128 4.32608 0
M  V30 6222 N 592.585 -2.8369 5.4442 0
M  V30 6223 C 593.956 -2.69329 5.58446 0
M  V30 6224 C 596.011 -2.62946 4.22804 0
M  V30 6225 C 594.714 -2.46899 6.75598 0
M  V30 6226 C 596.74 -2.41892 5.39669 0
M  V30 6227 C 596.102 -2.33829 6.64457 0
M  V30 6228 H 592.201 -0.624227 0.471025 0
M  V30 6229 H 594.785 -1.10798 1.601 0
M  V30 6230 H 592.956 -3.62057 1.40604 0
M  V30 6231 H 594.688 -3.69951 1.64067 0
M  V30 6232 H 591.443 -3.10992 3.57185 0
M  V30 6233 H 591.867 -2.78138 6.17226 0
M  V30 6234 H 596.509 -2.67944 3.27056 0
M  V30 6235 H 594.227 -2.40642 7.71438 0
M  V30 6236 H 597.813 -2.31043 5.33957 0
M  V30 6237 H 596.693 -2.17754 7.53361 0
M  V30 6238 N 594.196 -1.08629 -1.14182 0
M  V30 6239 C 595.144 -0.71284 -2.21408 0
M  V30 6240 C 596.138 0.282457 -1.67029 0
M  V30 6241 O 597.344 0.144783 -1.79417 0
M  V30 6242 H 593.719 -0.212497 -0.721352 0
M  V30 6243 H 595.69 -1.6265 -2.50175 0
M  V30 6244 C 594.439 -0.140704 -3.47415 0
M  V30 6245 H 593.762 -0.897739 -3.8959 0
M  V30 6246 H 595.202 0.0827677 -4.23919 0
M  V30 6247 C 593.661 1.122 -3.17668 0
M  V30 6248 O 594.191 2.20652 -3.35672 0
M  V30 6249 N 592.397 1.03328 -2.71609 0
M  V30 6250 H 591.944 0.150666 -2.57159 0
M  V30 6251 H 591.902 1.8789 -2.52081 0
M  V30 6252 N 595.674 1.31259 -0.872281 0
M  V30 6253 C 596.951 1.91362 -0.404943 0
M  V30 6254 C 597.331 1.79362 1.11321 0
M  V30 6255 O 596.679 1.20277 1.94283 0
M  V30 6256 C 596.889 3.3749 -0.888893 0
M  V30 6257 C 598.237 4.14593 -0.916384 0
M  V30 6258 O 599.261 3.46282 -0.834701 0
M  V30 6259 O 598.12 5.3661 -1.03498 0
M  V30 6260 H 595.214 0.818016 -0.121569 0
M  V30 6261 H 597.76 1.39912 -0.960346 0
M  V30 6262 H 596.532 3.40249 -1.93251 0
M  V30 6263 H 596.155 3.96375 -0.311932 0
M  V30 6264 N 597.152 0.631951 1.44375 0
M  V30 6265 C 598.082 -0.0593243 2.33425 0
M  V30 6266 C 599.063 -0.833964 1.48253 0
M  V30 6267 O 600.248 -0.799682 1.76971 0
M  V30 6268 C 597.378 -1.04096 3.31333 0
M  V30 6269 C 596.332 -0.377899 4.26328 0
M  V30 6270 C 595.658 -1.4695 5.14111 0
M  V30 6271 C 596.958 0.716371 5.17364 0
M  V30 6272 H 598.652 0.684287 2.91475 0
M  V30 6273 H 596.198 0.330518 1.40156 0
M  V30 6274 H 598.151 -1.53331 3.92514 0
M  V30 6275 H 596.875 -1.81547 2.71493 0
M  V30 6276 H 595.534 0.0938054 3.6648 0
M  V30 6277 H 595.182 -2.2349 4.50623 0
M  V30 6278 H 594.882 -1.03121 5.78481 0
M  V30 6279 H 596.406 -1.96363 5.78164 0
M  V30 6280 H 597.82 0.307089 5.72477 0
M  V30 6281 H 596.217 1.07784 5.90341 0
M  V30 6282 H 597.287 1.58316 4.58327 0
M  V30 6283 N 598.631 -1.53133 0.372548 0
M  V30 6284 C 599.908 -1.93704 -0.271693 0
M  V30 6285 C 600.288 -1.30667 -1.65799 0
M  V30 6286 O 599.636 -0.46838 -2.23648 0
M  V30 6287 C 599.846 -3.47576 -0.314903 0
M  V30 6288 C 601.194 -4.20998 -0.551912 0
M  V30 6289 O 602.218 -3.53994 -0.39582 0
M  V30 6290 O 601.077 -5.39748 -0.85639 0
M  V30 6291 H 598.171 -0.810457 -0.164586 0
M  V30 6292 H 600.717 -1.6427 0.425838 0
M  V30 6293 H 599.489 -3.85749 0.656792 0
M  V30 6294 H 599.112 -3.83264 -1.05804 0
M  V30 6295 N 600.109 -0.101901 -1.5727 0
M  V30 6296 C 601.339 0.567568 -1.98651 0
M  V30 6297 C 601.747 1.61839 -0.980037 0
M  V30 6298 O 601.09 1.83661 0.0376564 0
M  V30 6299 C 601.152 1.26742 -3.36417 0
M  V30 6300 C 600.816 0.366561 -4.55528 0
M  V30 6301 C 601.813 -0.388022 -5.1845 0
M  V30 6302 C 599.498 0.282629 -5.01504 0
M  V30 6303 C 601.492 -1.21445 -6.25724 0
M  V30 6304 C 599.179 -0.547443 -6.08643 0
M  V30 6305 C 600.177 -1.29462 -6.70618 0
M  V30 6306 O 599.865 -2.11095 -7.7569 0
M  V30 6307 H 599.597 0.156282 -0.657687 0
M  V30 6308 H 602.151 -0.179912 -2.04611 0
M  V30 6309 H 600.381 2.06162 -3.27161 0
M  V30 6310 H 602.07 1.8321 -3.622 0
M  V30 6311 H 602.836 -0.332949 -4.83856 0
M  V30 6312 H 598.715 0.853868 -4.53023 0
M  V30 6313 H 602.259 -1.79814 -6.74027 0
M  V30 6314 H 598.156 -0.603971 -6.42668 0
M  V30 6315 H 598.924 -2.03851 -7.92709 0
M  V30 6316 N 601.587 1.56661 0.17182 0
M  V30 6317 C 602.52 1.91474 1.24149 0
M  V30 6318 C 603.498 0.777485 1.42807 0
M  V30 6319 O 604.682 1.03075 1.57822 0
M  V30 6320 C 601.809 2.16523 2.60453 0
M  V30 6321 C 600.855 3.39209 2.58533 0
M  V30 6322 S 601.688 4.93594 2.07665 0
M  V30 6323 C 602.844 5.21737 3.45747 0
M  V30 6324 H 603.077 2.81903 0.944346 0
M  V30 6325 H 600.61 1.49743 0.376364 0
M  V30 6326 H 602.568 2.31635 3.38903 0
M  V30 6327 H 601.229 1.26802 2.87368 0
M  V30 6328 H 600.422 3.53935 3.58812 0
M  V30 6329 H 600.024 3.2321 1.88178 0
M  V30 6330 H 602.316 5.13684 4.41741 0
M  V30 6331 H 603.259 6.23361 3.35896 0
M  V30 6332 H 603.667 4.49307 3.41736 0
M  V30 6333 N 603.065 -0.440357 1.51323 0
M  V30 6334 C 604.342 -1.20109 1.5438 0
M  V30 6335 C 604.722 -2.08866 0.306303 0
M  V30 6336 O 604.07 -2.1723 -0.708773 0
M  V30 6337 C 604.28 -2.00555 2.8562 0
M  V30 6338 C 605.628 -2.577 3.37455 0
M  V30 6339 O 606.652 -2.10769 2.8715 0
M  V30 6340 O 605.511 -3.43289 4.25224 0
M  V30 6341 H 602.605 -0.546668 0.620551 0
M  V30 6342 H 605.151 -0.449672 1.63634 0
M  V30 6343 H 603.923 -1.35346 3.67147 0
M  V30 6344 H 603.546 -2.82768 2.79514 0
M  V30 6345 N 604.543 -1.41418 -0.695603 0
M  V30 6346 C 605.768 -1.44329 -1.48942 0
M  V30 6347 C 606.193 -0.0501579 -1.88033 0
M  V30 6348 O 605.551 0.946598 -1.54626 0
M  V30 6349 C 605.599 -2.3578 -2.72837 0
M  V30 6350 O 604.703 -1.81482 -3.70322 0
M  V30 6351 H 604.044 -0.489838 -0.44828 0
M  V30 6352 H 606.574 -1.85878 -0.855014 0
M  V30 6353 H 606.584 -2.51654 -3.21145 0
M  V30 6354 H 605.259 -3.37005 -2.43722 0
M  V30 6355 H 603.836 -1.75058 -3.29255 0
M  V30 6356 N 606.021 0.929856 -1.27246 0
M  V30 6357 C 607.437 1.20542 -1.04603 0
M  V30 6358 C 607.637 2.00276 0.221754 0
M  V30 6359 O 606.693 2.34835 0.927833 0
M  V30 6360 C 608.006 1.95566 -2.28417 0
M  V30 6361 C 609.554 2.08513 -2.33433 0
M  V30 6362 C 610.029 2.86943 -3.5697 0
M  V30 6363 N 611.52 2.94512 -3.57515 0
M  V30 6364 C 612.255 3.55656 -4.49774 0
M  V30 6365 N 611.751 4.18209 -5.52334 0
M  V30 6366 N 613.544 3.53038 -4.37402 0
M  V30 6367 H 605.695 0.397113 -2.08655 0
M  V30 6368 H 607.958 0.238277 -0.917566 0
M  V30 6369 H 607.664 1.44395 -3.20691 0
M  V30 6370 H 607.538 2.9619 -2.33563 0
M  V30 6371 H 609.925 2.58872 -1.41666 0
M  V30 6372 H 610.006 1.07117 -2.32292 0
M  V30 6373 H 609.65 2.37268 -4.49072 0
M  V30 6374 H 609.58 3.8862 -3.55362 0
M  V30 6375 H 612.071 2.50053 -2.83341 0
M  V30 6376 H 612.384 4.62796 -6.18902 0
M  V30 6377 H 610.729 4.16761 -5.56179 0
M  V30 6378 H 613.92 3.0337 -3.56489 0
M  V30 6379 H 614.093 4.004 -5.09493 0
M  V30 6380 N 607.499 1.09233 1.13605 0
M  V30 6381 C 608.915 0.82163 1.36826 0
M  V30 6382 C 609.115 -0.565021 1.93416 0
M  V30 6383 O 608.171 -1.32026 2.15234 0
M  V30 6384 C 609.484 1.91124 2.32147 0
M  V30 6385 C 611.032 1.93824 2.45767 0
M  V30 6386 C 611.507 3.01923 3.44393 0
M  V30 6387 N 612.998 3.01149 3.51942 0
M  V30 6388 C 613.733 3.81434 4.2813 0
M  V30 6389 N 613.229 4.71621 5.07489 0
M  V30 6390 N 615.022 3.69702 4.23411 0
M  V30 6391 H 607.173 1.98633 0.752234 0
M  V30 6392 H 609.436 0.862482 0.393482 0
M  V30 6393 H 609.142 2.90862 1.97717 0
M  V30 6394 H 609.016 1.78777 3.32142 0
M  V30 6395 H 611.403 0.94726 2.79483 0
M  V30 6396 H 611.484 2.10248 1.45703 0
M  V30 6397 H 611.128 4.01232 3.11408 0
M  V30 6398 H 611.058 2.82742 4.44257 0
M  V30 6399 H 613.549 2.35789 2.95317 0
M  V30 6400 H 613.862 5.29468 5.62924 0
M  V30 6401 H 612.207 4.75658 5.06729 0
M  V30 6402 H 615.398 2.98606 3.60489 0
M  V30 6403 H 615.571 4.32509 4.82535 0
M  V30 6404 N 608.977 -1.30795 0.87923 0
M  V30 6405 C 610.254 -1.91145 0.415086 0
M  V30 6406 C 610.634 -1.7995 -1.10368 0
M  V30 6407 O 609.982 -1.21305 -1.93642 0
M  V30 6408 C 610.192 -3.37014 0.906778 0
M  V30 6409 C 611.54 -4.14101 0.938358 0
M  V30 6410 O 612.564 -3.45834 0.853053 0
M  V30 6411 O 611.423 -5.36054 1.06342 0
M  V30 6412 H 608.517 -0.81736 0.125905 0
M  V30 6413 H 611.063 -1.39401 0.967753 0
M  V30 6414 H 609.835 -3.3922 1.95053 0
M  V30 6415 H 609.458 -3.96204 0.332948 0
M  V30 6416 N 610.455 -0.639598 -1.44038 0
M  V30 6417 C 611.702 -0.14748 -2.01962 0
M  V30 6418 C 612.03 1.23372 -1.50365 0
M  V30 6419 O 611.285 1.8345 -0.681501 0
M  V30 6420 C 611.584 -0.0925348 -3.5728 0
M  V30 6421 C 611.25 -1.41365 -4.28167 0
M  V30 6422 C 609.912 -1.77545 -4.47248 0
M  V30 6423 C 612.264 -2.2853 -4.68427 0
M  V30 6424 C 609.592 -3.00583 -5.03852 0
M  V30 6425 C 611.944 -3.50846 -5.26393 0
M  V30 6426 C 610.608 -3.8724 -5.43692 0
M  V30 6427 H 609.878 -0.0539666 -0.739032 0
M  V30 6428 H 612.525 -0.827599 -1.72694 0
M  V30 6429 H 610.83 0.670987 -3.86012 0
M  V30 6430 H 612.527 0.304891 -3.99839 0
M  V30 6431 H 609.117 -1.1221 -4.13651 0
M  V30 6432 H 613.301 -2.0187 -4.5339 0
M  V30 6433 H 608.557 -3.28846 -5.15432 0
M  V30 6434 H 612.731 -4.18616 -5.56537 0
M  V30 6435 H 610.358 -4.8266 -5.87319 0
M  V30 6436 N 611.933 1.52934 -0.380664 0
M  V30 6437 C 613.161 2.05886 0.204599 0
M  V30 6438 C 613.576 1.25305 1.41223 0
M  V30 6439 O 612.933 0.297504 1.80059 0
M  V30 6440 C 612.984 3.56764 0.583249 0
M  V30 6441 O 612.705 4.34292 -0.576398 0
M  V30 6442 C 614.206 4.2603 1.2253 0
M  V30 6443 H 611.426 0.670193 0.0328991 0
M  V30 6444 H 613.97 1.97148 -0.543397 0
M  V30 6445 H 612.125 3.65603 1.28115 0
M  V30 6446 H 612.539 5.23819 -0.267119 0
M  V30 6447 H 614.013 5.32868 1.44068 0
M  V30 6448 H 614.49 3.80698 2.19011 0
M  V30 6449 H 615.096 4.21485 0.568407 0
M  V30 6450 N 613.412 0.11024 1.57214 0
M  V30 6451 C 614.659 -0.54987 1.94891 0
M  V30 6452 C 614.987 -1.67243 0.992984 0
M  V30 6453 O 614.242 -1.95694 0.0152703 0
M  V30 6454 C 614.541 -1.13102 3.39032 0
M  V30 6455 C 614.207 -0.130713 4.5071 0
M  V30 6456 C 612.869 0.14437 4.80983 0
M  V30 6457 C 615.221 0.551472 5.18274 0
M  V30 6458 C 612.549 1.10807 5.76141 0
M  V30 6459 C 614.901 1.50375 6.14467 0
M  V30 6460 C 613.565 1.78691 6.43138 0
M  V30 6461 H 612.835 -0.201212 0.713158 0
M  V30 6462 H 615.482 0.189288 1.90562 0
M  V30 6463 H 613.787 -1.94675 3.40013 0
M  V30 6464 H 615.484 -1.64973 3.65493 0
M  V30 6465 H 612.074 -0.355301 4.27125 0
M  V30 6466 H 616.258 0.35211 4.95049 0
M  V30 6467 H 611.514 1.3343 5.96663 0
M  V30 6468 H 615.688 2.03808 6.65909 0
M  V30 6469 H 613.315 2.53522 7.1668 0
M  V30 6470 N 614.89 -1.56749 -0.16351 0
M  V30 6471 C 615.838 -1.97939 -1.22159 0
M  V30 6472 C 616.832 -0.869288 -1.45395 0
M  V30 6473 O 618.038 -1.05443 -1.45883 0
M  V30 6474 H 614.413 -0.629869 -0.410815 0
M  V30 6475 H 616.384 -2.86115 -0.847381 0
M  V30 6476 C 615.133 -2.36206 -2.55151 0
M  V30 6477 H 614.456 -3.2117 -2.38097 0
M  V30 6478 H 615.896 -2.68863 -3.27854 0
M  V30 6479 C 614.355 -1.20841 -3.14482 0
M  V30 6480 O 614.885 -0.500258 -3.98573 0
M  V30 6481 N 613.091 -0.976943 -2.73686 0
M  V30 6482 H 612.638 -1.55457 -2.05404 0
M  V30 6483 H 612.596 -0.206912 -3.13718 0
M  V30 6484 N 616.368 0.432326 -1.51554 0
M  V30 6485 C 617.315 1.52512 -1.7323 0
M  V30 6486 C 618.285 1.55863 -0.5741 0
M  V30 6487 O 619.47 1.72796 -0.809093 0
M  V30 6488 C 616.61 2.90183 -1.86783 0
M  V30 6489 C 615.723 2.96322 -3.14352 0
M  V30 6490 C 614.858 4.25147 -3.18471 0
M  V30 6491 C 613.897 4.25172 -4.40335 0
M  V30 6492 N 613.034 5.45529 -4.41975 0
M  V30 6493 H 617.874 1.33332 -2.66508 0
M  V30 6494 H 615.411 0.647613 -1.32077 0
M  V30 6495 H 617.369 3.70071 -1.92623 0
M  V30 6496 H 615.999 3.0791 -0.969087 0
M  V30 6497 H 615.051 2.09066 -3.17798 0
M  V30 6498 H 616.363 2.92203 -4.04251 0
M  V30 6499 H 615.517 5.13411 -3.23255 0
M  V30 6500 H 614.256 4.31929 -2.2647 0
M  V30 6501 H 613.261 3.353 -4.35723 0
M  V30 6502 H 614.486 4.20049 -5.33606 0
M  V30 6503 H 612.432 5.53024 -3.52847 0
M  V30 6504 H 612.349 5.43311 -5.25689 0
M  V30 6505 H 613.617 6.35812 -4.50958 0
M  V30 6506 N 617.846 1.41785 0.688094 0
M  V30 6507 C 619.123 1.32031 1.44316 0
M  V30 6508 C 619.503 -0.0486079 2.11044 0
M  V30 6509 O 618.851 -1.06332 2.02252 0
M  V30 6510 C 619.061 2.47906 2.45649 0
M  V30 6511 C 620.409 2.89415 3.10683 0
M  V30 6512 O 621.433 2.477 2.55975 0
M  V30 6513 O 620.292 3.61573 4.09789 0
M  V30 6514 H 617.386 0.519994 0.643067 0
M  V30 6515 H 619.932 1.53765 0.71794 0
M  V30 6516 H 618.704 3.39222 1.95048 0
M  V30 6517 H 618.327 2.28089 3.25671 0
M  V30 6518 N 619.324 -0.923095 1.27737 0
M  V30 6519 C 620.572 -1.66797 1.14119 0
M  V30 6520 C 620.893 -1.92479 -0.312541 0
M  V30 6521 O 620.163 -1.53432 -1.218 0
M  V30 6522 H 618.743 -0.618196 0.419336 0
M  V30 6523 H 621.405 -1.10815 1.60331 0
M  V30 6524 H 620.501 -2.63424 1.67374 0
M  V30 6525 N 620.802 -1.09834 -1.13024 0
M  V30 6526 C 622.049 -0.83695 -1.84395 0
M  V30 6527 C 622.377 0.637463 -1.83757 0
M  V30 6528 O 621.632 1.48554 -1.27398 0
M  V30 6529 C 621.931 -1.32263 -3.32026 0
M  V30 6530 C 621.597 -2.80739 -3.52841 0
M  V30 6531 C 620.259 -3.21286 -3.5823 0
M  V30 6532 C 622.611 -3.76449 -3.60466 0
M  V30 6533 C 619.939 -4.56308 -3.68781 0
M  V30 6534 C 622.291 -5.11266 -3.72546 0
M  V30 6535 C 620.955 -5.51397 -3.76189 0
M  V30 6536 H 620.225 -0.306262 -0.674748 0
M  V30 6537 H 622.872 -1.37385 -1.33408 0
M  V30 6538 H 621.177 -0.705618 -3.85394 0
M  V30 6539 H 622.874 -1.09695 -3.85705 0
M  V30 6540 H 619.464 -2.48363 -3.49305 0
M  V30 6541 H 623.648 -3.46234 -3.55578 0
M  V30 6542 H 618.904 -4.86832 -3.69871 0
M  V30 6543 H 623.078 -5.85279 -3.77388 0
M  V30 6544 H 620.705 -6.56017 -3.84117 0
M  V30 6545 N 622.28 1.30327 -0.886154 0
M  V30 6546 C 623.696 1.48676 -0.580323 0
M  V30 6547 C 623.896 1.81189 0.881639 0
M  V30 6548 O 622.952 1.90021 1.66278 0
M  V30 6549 C 624.265 2.60932 -1.49449 0
M  V30 6550 C 625.813 2.74812 -1.49824 0
M  V30 6551 C 626.288 3.90183 -2.39836 0
M  V30 6552 N 627.779 3.97495 -2.37806 0
M  V30 6553 C 628.514 4.86078 -3.04165 0
M  V30 6554 N 628.01 5.79448 -3.79753 0
M  V30 6555 N 629.803 4.79456 -2.93391 0
M  V30 6556 H 621.954 1.07495 -1.8319 0
M  V30 6557 H 624.217 0.532661 -0.784204 0
M  V30 6558 H 623.923 2.43731 -2.5355 0
M  V30 6559 H 623.797 3.57437 -1.20494 0
M  V30 6560 H 626.184 2.91418 -0.464731 0
M  V30 6561 H 626.265 1.78924 -1.82811 0
M  V30 6562 H 625.909 3.74334 -3.43273 0
M  V30 6563 H 625.839 4.85411 -2.04166 0
M  V30 6564 H 628.33 3.30703 -1.82877 0
M  V30 6565 H 628.643 6.43805 -4.27475 0
M  V30 6566 H 626.988 5.79376 -3.8386 0
M  V30 6567 H 630.179 4.05494 -2.33864 0
M  V30 6568 H 630.352 5.48283 -3.45383 0
M  V30 6569 N 623.758 0.647228 1.43697 0
M  V30 6570 C 625.035 0.0883758 1.954 0
M  V30 6571 C 625.415 -1.39006 1.58873 0
M  V30 6572 O 624.763 -2.11255 0.87083 0
M  V30 6573 C 624.973 0.328263 3.47453 0
M  V30 6574 C 626.321 0.230009 4.23977 0
M  V30 6575 O 627.345 0.260496 3.55246 0
M  V30 6576 O 626.204 0.148615 5.46298 0
M  V30 6577 H 623.298 -0.0130683 0.826897 0
M  V30 6578 H 625.844 0.72005 1.53666 0
M  V30 6579 H 624.616 1.3535 3.67146 0
M  V30 6580 H 624.239 -0.336772 3.96171 0
M  V30 6581 N 625.236 -1.5273 0.388769 0
M  V30 6582 C 626.483 -2.01573 -0.19359 0
M  V30 6583 C 626.811 -1.27525 -1.46859 0
M  V30 6584 O 626.066 -0.363926 -1.92286 0
M  V30 6585 C 626.365 -3.53765 -0.508445 0
M  V30 6586 C 626.031 -4.4582 0.674947 0
M  V30 6587 C 624.693 -4.70703 0.999596 0
M  V30 6588 C 627.045 -5.00138 1.46666 0
M  V30 6589 C 624.373 -5.47155 2.11751 0
M  V30 6590 C 626.725 -5.77812 2.57518 0
M  V30 6591 C 625.389 -6.00975 2.90492 0
M  V30 6592 H 624.659 -0.737606 -0.0708397 0
M  V30 6593 H 627.306 -1.84134 0.526006 0
M  V30 6594 H 625.611 -3.69274 -1.30936 0
M  V30 6595 H 627.308 -3.8905 -0.971664 0
M  V30 6596 H 623.898 -4.26616 0.411906 0
M  V30 6597 H 628.082 -4.8084 1.22909 0
M  V30 6598 H 623.338 -5.63314 2.3767 0
M  V30 6599 H 627.512 -6.18904 3.19267 0
M  V30 6600 H 625.139 -6.59998 3.77236 0
M  V30 6601 N 626.714 -0.118576 -1.57153 0
M  V30 6602 C 628.125 0.40687 -1.82213 0
M  V30 6603 C 628.476 1.66636 -1.03571 0
M  V30 6604 O 627.601 2.14682 -0.272171 0
M  V30 6605 C 628.196 0.744949 -3.30509 0
M  V30 6606 C 626.755 1.21503 -3.5625 0
M  V30 6607 C 625.902 0.223511 -2.76398 0
M  V30 6608 H 628.853 -0.343712 -1.54933 0
M  V30 6609 H 628.874 1.6024 -3.45114 0
M  V30 6610 H 628.386 -0.171911 -3.87719 0
M  V30 6611 H 626.487 2.1488 -3.04396 0
M  V30 6612 H 626.6 1.16065 -4.64829 0
M  V30 6613 H 624.964 0.71046 -2.44591 0
M  V30 6614 H 625.747 -0.686439 -3.36367 0
M  V30 6615 N 628.193 1.56834 0.155195 0
M  V30 6616 C 629.156 1.96748 1.17571 0
M  V30 6617 C 630.156 0.853006 1.3631 0
M  V30 6618 O 631.346 1.11978 1.33441 0
M  V30 6619 C 628.478 2.27631 2.53765 0
M  V30 6620 H 629.671 2.88085 0.833498 0
M  V30 6621 H 627.224 1.51141 0.398242 0
M  V30 6622 H 627.959 1.39059 2.92973 0
M  V30 6623 H 627.744 3.0888 2.41527 0
M  V30 6624 H 629.234 2.59377 3.27282 0
M  V30 6625 N 629.671 -0.424282 1.51781 0
M  V30 6626 C 630.604 -1.53633 1.68737 0
M  V30 6627 C 631.582 -1.53549 0.534915 0
M  V30 6628 O 632.766 -1.72483 0.760391 0
M  V30 6629 C 629.893 -2.92195 1.71288 0
M  V30 6630 C 628.939 -3.10251 2.92654 0
M  V30 6631 S 629.772 -2.85166 4.53256 0
M  V30 6632 C 630.928 -4.25986 4.58571 0
M  V30 6633 H 631.161 -1.39018 2.62795 0
M  V30 6634 H 628.694 -0.614854 1.41629 0
M  V30 6635 H 630.652 -3.72059 1.73443 0
M  V30 6636 H 629.313 -3.04162 0.783847 0
M  V30 6637 H 628.506 -4.1159 2.90877 0
M  V30 6638 H 628.108 -2.38231 2.88308 0
M  V30 6639 H 630.4 -5.19392 4.35015 0
M  V30 6640 H 631.343 -4.32792 5.60444 0
M  V30 6641 H 631.751 -4.1025 3.87757 0
M  V30 6642 N 631.149 -1.42148 -0.680565 0
M  V30 6643 C 632.395 -1.42521 -1.44277 0
M  V30 6644 C 632.728 -0.0393718 -1.9416 0
M  V30 6645 O 632.003 0.935425 -1.70529 0
M  V30 6646 C 632.286 -2.44475 -2.64394 0
M  V30 6647 C 632.139 -3.92226 -2.20179 0
M  V30 6648 C 633.458 -2.43491 -3.66606 0
M  V30 6649 H 630.577 -0.518985 -0.523282 0
M  V30 6650 H 633.219 -1.73524 -0.773914 0
M  V30 6651 H 631.369 -2.18168 -3.21458 0
M  V30 6652 H 633.041 -4.29493 -1.68327 0
M  V30 6653 H 631.284 -4.0637 -1.5181 0
M  V30 6654 H 631.955 -4.59133 -3.06433 0
M  V30 6655 H 634.431 -2.66872 -3.19247 0
M  V30 6656 H 633.307 -3.16816 -4.4824 0
M  V30 6657 H 633.568 -1.45881 -4.17338 0
M  V30 6658 N 632.627 0.916307 -1.28225 0
M  V30 6659 C 633.559 2.02303 -1.07732 0
M  V30 6660 C 634.572 1.62773 -0.0298421 0
M  V30 6661 O 635.761 1.76406 -0.272626 0
M  V30 6662 C 632.861 3.33282 -0.614504 0
M  V30 6663 C 632.034 4.01439 -1.73682 0
M  V30 6664 C 631.093 5.10698 -1.26781 0
M  V30 6665 O 630.119 5.34038 -1.96958 0
M  V30 6666 N 631.321 5.80355 -0.129624 0
M  V30 6667 H 634.086 2.20442 -2.03041 0
M  V30 6668 H 631.647 1.08744 -1.19943 0
M  V30 6669 H 633.639 4.03699 -0.284397 0
M  V30 6670 H 632.209 3.11633 0.245664 0
M  V30 6671 H 631.429 3.24604 -2.23665 0
M  V30 6672 H 632.717 4.43721 -2.48976 0
M  V30 6673 H 632.115 5.6386 0.455847 0
M  V30 6674 H 630.672 6.51647 0.141224 0
M  V30 6675 N 634.105 1.10431 1.1244 0
M  V30 6676 C 635.015 0.765502 2.21759 0
M  V30 6677 C 636.031 -0.236966 1.72379 0
M  V30 6678 O 637.207 -0.0757329 2.01258 0
M  V30 6679 C 634.272 0.202316 3.46109 0
M  V30 6680 C 633.333 1.26205 4.1033 0
M  V30 6681 C 632.566 0.725648 5.28744 0
M  V30 6682 O 632.789 -0.447942 5.68638 0
M  V30 6683 O 631.723 1.48555 5.83279 0
M  V30 6684 H 635.549 1.67801 2.53133 0
M  V30 6685 H 633.134 0.879443 1.20773 0
M  V30 6686 H 635.016 -0.107918 4.21262 0
M  V30 6687 H 633.691 -0.683052 3.16411 0
M  V30 6688 H 632.598 1.62514 3.36957 0
M  V30 6689 H 633.931 2.12044 4.44183 0
M  V30 6690 N 635.583 -1.29855 0.893053 0
M  V30 6691 C 636.513 -2.3035 0.382249 0
M  V30 6692 C 637.494 -1.61328 -0.539203 0
M  V30 6693 O 638.679 -1.88882 -0.451342 0
M  V30 6694 C 635.809 -3.45024 -0.396983 0
M  V30 6695 C 634.763 -4.258 0.433437 0
M  V30 6696 C 634.089 -5.32605 -0.472889 0
M  V30 6697 C 635.389 -4.94549 1.67984 0
M  V30 6698 H 637.083 -2.73325 1.22205 0
M  V30 6699 H 634.629 -1.314 0.589073 0
M  V30 6700 H 636.582 -4.14398 -0.765024 0
M  V30 6701 H 635.306 -3.00875 -1.2705 0
M  V30 6702 H 633.965 -3.58125 0.783723 0
M  V30 6703 H 633.613 -4.84702 -1.34435 0
M  V30 6704 H 633.313 -5.87547 0.0789958 0
M  V30 6705 H 634.837 -6.04832 -0.837269 0
M  V30 6706 H 636.251 -5.56395 1.38192 0
M  V30 6707 H 634.648 -5.59393 2.17254 0
M  V30 6708 H 635.718 -4.20215 2.41965 0
M  V30 6709 N 637.061 -0.65484 -1.43351 0
M  V30 6710 C 638.011 0.0581325 -2.27926 0
M  V30 6711 C 638.995 0.793188 -1.3999 0
M  V30 6712 O 640.187 0.675387 -1.63608 0
M  V30 6713 C 637.316 1.02272 -3.27712 0
M  V30 6714 C 636.402 0.286048 -4.23134 0
M  V30 6715 N 636.793 -0.698298 -5.00957 0
M  V30 6716 C 635.091 0.527272 -4.42872 0
M  V30 6717 C 635.792 -1.1357 -5.70506 0
M  V30 6718 N 634.768 -0.469631 -5.41568 0
M  V30 6719 H 638.57 -0.697182 -2.85511 0
M  V30 6720 H 636.084 -0.482252 -1.55074 0
M  V30 6721 H 638.081 1.5483 -3.87083 0
M  V30 6722 H 636.741 1.77807 -2.71688 0
M  V30 6723 H 637.752 -1.07708 -5.06576 0
M  V30 6724 H 634.429 1.26367 -3.97916 0
M  V30 6725 H 635.819 -1.95027 -6.42973 0
M  V30 6726 N 638.539 1.52521 -0.396863 0
M  V30 6727 C 639.471 2.24333 0.469814 0
M  V30 6728 C 640.484 1.2685 1.02043 0
M  V30 6729 O 641.673 1.52876 0.92147 0
M  V30 6730 C 638.773 2.95202 1.66461 0
M  V30 6731 C 637.946 4.19454 1.24003 0
M  V30 6732 C 637.005 4.73255 2.30036 0
M  V30 6733 O 636.031 5.36151 1.91131 0
M  V30 6734 N 637.233 4.53765 3.62047 0
M  V30 6735 H 639.998 2.99347 -0.145468 0
M  V30 6736 H 637.559 1.60348 -0.223606 0
M  V30 6737 H 639.551 3.28092 2.36934 0
M  V30 6738 H 638.121 2.2345 2.18607 0
M  V30 6739 H 637.341 3.92517 0.363892 0
M  V30 6740 H 638.629 5.0017 0.933135 0
M  V30 6741 H 638.027 4.03576 3.96412 0
M  V30 6742 H 636.584 4.91124 4.28533 0
M  V30 6743 N 640.017 0.126909 1.57088 0
M  V30 6744 C 641.265 -0.528123 1.95078 0
M  V30 6745 C 641.586 -1.66708 1.0116 0
M  V30 6746 O 640.856 -1.95777 0.0693527 0
M  V30 6747 H 639.436 -0.198087 0.720257 0
M  V30 6748 H 642.098 0.197703 1.93895 0
M  V30 6749 H 641.194 -0.917507 2.98309 0
M  V30 6750 N 641.495 -1.56914 -0.146875 0
M  V30 6751 C 642.743 -1.82994 -0.85777 0
M  V30 6752 C 643.064 -0.707814 -1.817 0
M  V30 6753 O 642.334 0.270521 -1.94023 0
M  V30 6754 H 640.914 -0.675106 -0.319751 0
M  V30 6755 H 643.576 -1.9439 -0.140849 0
M  V30 6756 H 642.672 -2.77928 -1.41994 0
M  V30 6757 N 642.974 0.416227 -1.52004 0
M  V30 6758 C 644.39 0.754319 -1.40649 0
M  V30 6759 C 644.59 1.95059 -0.505392 0
M  V30 6760 O 643.646 2.5248 0.0315057 0
M  V30 6761 C 644.959 1.0149 -2.83055 0
M  V30 6762 C 646.507 1.11805 -2.9235 0
M  V30 6763 C 646.982 1.41144 -4.35709 0
M  V30 6764 N 648.473 1.48024 -4.38911 0
M  V30 6765 C 649.208 1.72338 -5.46889 0
M  V30 6766 N 648.704 1.94303 -6.64995 0
M  V30 6767 N 650.497 1.74294 -5.34395 0
M  V30 6768 H 642.648 -0.371324 -2.09129 0
M  V30 6769 H 644.911 -0.103811 -0.942299 0
M  V30 6770 H 644.617 0.208345 -3.51082 0
M  V30 6771 H 644.491 1.93697 -3.23668 0
M  V30 6772 H 646.878 1.91521 -2.24508 0
M  V30 6773 H 646.959 0.17451 -2.55204 0
M  V30 6774 H 646.603 0.619484 -5.04108 0
M  V30 6775 H 646.533 2.36739 -4.70385 0
M  V30 6776 H 649.024 1.32868 -3.53772 0
M  V30 6777 H 649.337 2.12286 -7.43071 0
M  V30 6778 H 647.682 1.91582 -6.68073 0
M  V30 6779 H 650.873 1.56667 -4.41104 0
M  V30 6780 H 651.046 1.92904 -6.18621 0
M  V30 6781 N 644.452 1.42507 0.673017 0
M  V30 6782 C 645.868 1.25472 0.986355 0
M  V30 6783 C 646.068 0.160181 2.00862 0
M  V30 6784 O 645.124 -0.467993 2.48125 0
M  V30 6785 C 646.437 2.61219 1.48947 0
M  V30 6786 C 647.985 2.68589 1.60715 0
M  V30 6787 C 648.46 4.04707 2.14422 0
M  V30 6788 N 649.951 4.0667 2.21752 0
M  V30 6789 C 650.686 5.0881 2.64386 0
M  V30 6790 N 650.182 6.21332 3.0646 0
M  V30 6791 N 651.975 4.96166 2.64151 0
M  V30 6792 H 644.126 2.124 -0.00378532 0
M  V30 6793 H 646.389 0.946046 0.0608367 0
M  V30 6794 H 646.095 3.42179 0.812812 0
M  V30 6795 H 645.969 2.85261 2.46791 0
M  V30 6796 H 648.356 1.87974 2.27486 0
M  V30 6797 H 648.437 2.48333 0.613552 0
M  V30 6798 H 648.081 4.8578 1.48258 0
M  V30 6799 H 648.011 4.22315 3.14575 0
M  V30 6800 H 650.502 3.25438 1.92089 0
M  V30 6801 H 650.815 6.95118 3.37684 0
M  V30 6802 H 649.16 6.24835 3.04313 0
M  V30 6803 H 652.351 4.07334 2.30644 0
M  V30 6804 H 652.524 5.759 2.97057 0
M  V30 6805 N 645.93 -0.909495 1.28709 0
M  V30 6806 C 647.16 -1.69027 1.188 0
M  V30 6807 C 647.568 -1.87469 -0.255329 0
M  V30 6808 O 646.911 -1.40458 -1.18394 0
M  V30 6809 C 646.973 -3.10064 1.81936 0
M  V30 6810 C 646.637 -3.14891 3.31199 0
M  V30 6811 C 647.634 -2.95768 4.27571 0
M  V30 6812 C 645.319 -3.37269 3.7223 0
M  V30 6813 C 647.313 -2.98942 5.6295 0
M  V30 6814 C 645 -3.40074 5.07733 0
M  V30 6815 C 645.998 -3.20932 6.02903 0
M  V30 6816 O 645.686 -3.23507 7.35934 0
M  V30 6817 H 645.418 -0.535014 0.413203 0
M  V30 6818 H 647.972 -1.14645 1.70428 0
M  V30 6819 H 646.202 -3.66005 1.24808 0
M  V30 6820 H 647.891 -3.70185 1.66486 0
M  V30 6821 H 648.657 -2.78302 3.97206 0
M  V30 6822 H 644.536 -3.51212 2.98615 0
M  V30 6823 H 648.08 -2.83919 6.37209 0
M  V30 6824 H 643.977 -3.5707 5.37747 0
M  V30 6825 H 644.745 -3.3984 7.44615 0
M  V30 6826 N 647.408 -1.11026 -1.11852 0
M  V30 6827 C 648.341 -0.708501 -2.16923 0
M  V30 6828 C 649.319 0.293196 -1.59935 0
M  V30 6829 O 650.503 0.190641 -1.87533 0
M  V30 6830 C 647.63 -0.0463705 -3.38668 0
M  V30 6831 C 646.676 -1.01252 -4.14307 0
M  V30 6832 S 647.509 -2.53291 -4.71809 0
M  V30 6833 C 648.665 -1.88366 -5.96883 0
M  V30 6834 H 648.898 -1.59854 -2.50667 0
M  V30 6835 H 646.431 -0.927869 -1.2341 0
M  V30 6836 H 648.389 0.329314 -4.09177 0
M  V30 6837 H 647.05 0.820562 -3.03192 0
M  V30 6838 H 646.243 -0.496596 -5.01548 0
M  V30 6839 H 645.845 -1.33042 -3.49537 0
M  V30 6840 H 648.137 -1.21753 -6.6647 0
M  V30 6841 H 649.08 -2.73588 -6.53112 0
M  V30 6842 H 649.488 -1.34562 -5.48227 0
M  V30 6843 N 648.886 1.2938 -0.899927 0
M  V30 6844 C 649.819 2.25911 -0.322386 0
M  V30 6845 C 650.797 1.52447 0.565567 0
M  V30 6846 O 651.981 1.81404 0.512324 0
M  V30 6847 C 649.108 3.3436 0.540455 0
M  V30 6848 C 648.154 4.25579 -0.280211 0
M  V30 6849 S 648.987 5.08526 -1.67814 0
M  V30 6850 C 650.143 6.20476 -0.822224 0
M  V30 6851 H 650.376 2.7455 -1.1406 0
M  V30 6852 H 647.909 1.37606 -0.700285 0
M  V30 6853 H 649.867 3.97303 1.0325 0
M  V30 6854 H 648.528 2.84416 1.33291 0
M  V30 6855 H 647.721 5.02574 0.378915 0
M  V30 6856 H 647.323 3.67287 -0.705405 0
M  V30 6857 H 649.615 6.77485 -0.0457138 0
M  V30 6858 H 650.558 6.90606 -1.56426 0
M  V30 6859 H 650.966 5.63243 -0.37651 0
M  V30 6860 N 650.364 0.662433 1.43002 0
M  V30 6861 C 651.613 0.176873 2.00923 0
M  V30 6862 C 651.926 -1.21954 1.52927 0
M  V30 6863 O 653.132 -1.80081 2.03182 0
M  V30 6864 C 651.588 0.265379 3.5892 0
M  V30 6865 C 651.196 1.66507 4.15908 0
M  V30 6866 C 652.94 -0.162103 4.2419 0
M  V30 6867 C 650.847 1.707 5.66229 0
M  V30 6868 H 649.777 0.0623627 0.751417 0
M  V30 6869 H 652.428 0.825813 1.63868 0
M  V30 6870 H 650.81 -0.451235 3.93421 0
M  V30 6871 H 651.984 2.40777 3.92891 0
M  V30 6872 H 650.299 2.03932 3.63044 0
M  V30 6873 H 652.896 -0.150745 5.34487 0
M  V30 6874 H 653.239 -1.19519 3.98774 0
M  V30 6875 H 653.772 0.503075 3.94606 0
M  V30 6876 H 650.511 2.7195 5.96426 0
M  V30 6877 H 650.031 1.00768 5.91275 0
M  V30 6878 H 651.71 1.45487 6.3043 0
M  V30 6879 N 651.842 -1.52309 0.404946 0
M  V30 6880 C 653.088 -2.02065 -0.172455 0
M  V30 6881 C 653.421 -1.29022 -1.45145 0
M  V30 6882 O 652.696 -0.395284 -1.90441 0
M  V30 6883 C 652.979 -3.5759 -0.424433 0
M  V30 6884 C 652.832 -4.41287 0.870945 0
M  V30 6885 C 654.151 -4.23186 -1.20837 0
M  V30 6886 H 651.27 -0.734454 -0.0612035 0
M  V30 6887 H 653.912 -1.82236 0.53759 0
M  V30 6888 H 652.062 -3.74617 -1.02929 0
M  V30 6889 H 653.734 -4.3598 1.50729 0
M  V30 6890 H 651.977 -4.07669 1.48284 0
M  V30 6891 H 652.648 -5.48171 0.649083 0
M  V30 6892 H 655.124 -4.10232 -0.696338 0
M  V30 6893 H 654 -5.31953 -1.35343 0
M  V30 6894 H 654.261 -3.81862 -2.22786 0
M  V30 6895 N 653.32 -0.135238 -1.57019 0
M  V30 6896 C 654.597 0.563227 -1.87316 0
M  V30 6897 C 654.977 1.83749 -1.03921 0
M  V30 6898 O 654.325 2.2817 -0.122675 0
M  V30 6899 C 654.535 0.840031 -3.3874 0
M  V30 6900 C 655.883 1.18598 -4.077 0
M  V30 6901 O 656.907 0.92977 -3.43851 0
M  V30 6902 O 655.766 1.66758 -5.20436 0
M  V30 6903 H 652.86 0.285971 -0.775983 0
M  V30 6904 H 655.406 -0.170965 -1.68837 0
M  V30 6905 H 654.178 -0.0622785 -3.9125 0
M  V30 6906 H 653.801 1.62882 -3.62706 0
M  V30 6907 N 654.798 1.5699 0.138552 0
M  V30 6908 C 656.209 1.73171 0.697754 0
M  V30 6909 C 656.56 0.750952 1.8126 0
M  V30 6910 O 655.685 -0.080549 2.1625 0
M  V30 6911 C 656.28 3.13996 1.27248 0
M  V30 6912 C 654.839 3.3175 1.77816 0
M  V30 6913 C 653.986 2.69084 0.669991 0
M  V30 6914 H 656.937 1.5846 -0.0871979 0
M  V30 6915 H 656.958 3.14463 2.14227 0
M  V30 6916 H 656.47 3.85354 0.460855 0
M  V30 6917 H 654.571 2.65403 2.61519 0
M  V30 6918 H 654.684 4.39768 1.90107 0
M  V30 6919 H 653.048 2.29782 1.09874 0
M  V30 6920 H 653.831 3.43053 -0.130329 0
M  V30 6921 N 656.276 -0.40816 1.52223 0
M  V30 6922 C 657.239 -1.48 1.7501 0
M  V30 6923 C 658.239 -1.48367 0.619996 0
M  V30 6924 O 659.429 -1.49874 0.887881 0
M  V30 6925 C 656.561 -2.87403 1.83336 0
M  V30 6926 H 657.754 -1.29086 2.70697 0
M  V30 6927 H 655.307 -0.638715 1.42654 0
M  V30 6928 H 656.042 -3.11686 0.895677 0
M  V30 6929 H 655.827 -2.8854 2.65494 0
M  V30 6930 H 657.317 -3.65103 2.02705 0
M  V30 6931 N 657.755 -1.42862 -0.66545 0
M  V30 6932 C 659.004 -1.43119 -1.42126 0
M  V30 6933 C 659.317 -0.0545297 -1.95524 0
M  V30 6934 O 660.523 0.0654747 -2.71421 0
M  V30 6935 C 658.979 -2.51797 -2.5715 0
M  V30 6936 C 658.587 -3.95514 -2.10411 0
M  V30 6937 C 660.331 -2.61233 -3.346 0
M  V30 6938 C 658.238 -4.95682 -3.22573 0
M  V30 6939 H 657.168 -0.532349 -0.533966 0
M  V30 6940 H 659.819 -1.68806 -0.719506 0
M  V30 6941 H 658.201 -2.19292 -3.29738 0
M  V30 6942 H 659.375 -4.3742 -1.44915 0
M  V30 6943 H 657.69 -3.90012 -1.45874 0
M  V30 6944 H 660.287 -3.33248 -4.18151 0
M  V30 6945 H 660.63 -1.65896 -3.81817 0
M  V30 6946 H 661.163 -2.9298 -2.69087 0
M  V30 6947 H 657.902 -5.92529 -2.80338 0
M  V30 6948 H 657.422 -4.58399 -3.86821 0
M  V30 6949 H 659.101 -5.17828 -3.87896 0
M  V30 6950 N 659.233 0.902656 -1.29189 0
M  V30 6951 C 660.458 1.69167 -1.19989 0
M  V30 6952 C 660.883 1.86607 0.236495 0
M  V30 6953 O 660.241 1.38425 1.17082 0
M  V30 6954 C 660.289 3.05532 -1.91527 0
M  V30 6955 O 659.393 3.93621 -1.2303 0
M  V30 6956 H 658.734 0.517584 -0.415936 0
M  V30 6957 H 661.264 1.12785 -1.70706 0
M  V30 6958 H 661.274 3.55693 -1.99866 0
M  V30 6959 H 659.949 2.92156 -2.96003 0
M  V30 6960 H 658.526 3.52055 -1.22928 0
M  V30 6961 N 660.711 1.11618 1.11262 0
M  V30 6962 C 661.936 0.889013 1.8738 0
M  V30 6963 C 662.361 -0.555884 1.79698 0
M  V30 6964 O 661.719 -1.39272 1.16073 0
M  V30 6965 C 661.767 1.35759 3.34069 0
M  V30 6966 O 660.871 0.530499 4.08974 0
M  V30 6967 H 660.212 0.320082 0.581759 0
M  V30 6968 H 662.742 1.48611 1.40627 0
M  V30 6969 H 662.752 1.35291 3.84916 0
M  V30 6970 H 661.427 2.40973 3.38976 0
M  V30 6971 H 660.004 0.601439 3.68018 0
M  V30 6972 N 662.189 -1.289 0.906776 0
M  V30 6973 C 663.414 -1.99939 0.551303 0
M  V30 6974 C 663.839 -1.67366 -0.858496 0
M  V30 6975 O 663.197 -0.902176 -1.57259 0
M  V30 6976 C 663.245 -3.52523 0.758937 0
M  V30 6977 O 662.349 -4.11983 -0.185308 0
M  V30 6978 H 661.69 -0.628376 0.214568 0
M  V30 6979 H 664.22 -1.64225 1.2203 0
M  V30 6980 H 664.23 -4.02522 0.666329 0
M  V30 6981 H 662.905 -3.75566 1.78671 0
M  V30 6982 H 661.482 -3.72873 -0.0445577 0
M  V30 6983 N 663.667 -0.670007 -1.42649 0
M  V30 6984 C 664.915 -0.18991 -2.01206 0
M  V30 6985 C 665.236 1.20617 -1.53221 0
M  V30 6986 O 664.506 1.80898 -0.751856 0
M  V30 6987 H 663.086 -0.0672189 -0.743969 0
M  V30 6988 H 665.748 -0.865442 -1.74631 0
M  V30 6989 H 664.844 -0.187481 -3.11536 0
M  V30 6990 N 665.145 1.52092 -0.413018 0
M  V30 6991 C 666.556 1.86617 0.0556967 0
M  V30 6992 C 666.907 1.33156 1.44097 0
M  V30 6993 O 666.032 0.672417 2.05688 0
M  V30 6994 C 666.627 3.38628 0.107844 0
M  V30 6995 C 665.186 3.72778 0.520904 0
M  V30 6996 C 664.333 2.75649 -0.302109 0
M  V30 6997 H 667.284 1.45663 -0.629919 0
M  V30 6998 H 667.305 3.69152 0.922324 0
M  V30 6999 H 666.817 3.77508 -0.900506 0
M  V30 7000 H 664.918 3.39478 1.53575 0
M  V30 7001 H 665.031 4.7838 0.262591 0
M  V30 7002 H 663.395 2.53603 0.236115 0
M  V30 7003 H 664.178 3.17369 -1.30888 0
M  V30 7004 N 666.623 0.143563 1.56945 0
M  V30 7005 C 667.586 -0.783295 2.154 0
M  V30 7006 C 668.586 -1.17763 1.09492 0
M  V30 7007 O 669.776 -1.09912 1.35148 0
M  V30 7008 C 666.908 -2.06248 2.7143 0
M  V30 7009 H 668.101 -0.274863 2.98638 0
M  V30 7010 H 665.654 -0.105859 1.55941 0
M  V30 7011 H 666.389 -2.61466 1.91849 0
M  V30 7012 H 666.174 -1.78897 3.4891 0
M  V30 7013 H 667.664 -2.72453 3.16479 0
M  V30 7014 N 668.101 -1.57061 -0.130224 0
M  V30 7015 C 669.349 -1.83893 -0.838313 0
M  V30 7016 C 669.67 -0.727046 -1.80939 0
M  V30 7017 O 668.94 0.249927 -1.94299 0
M  V30 7018 H 667.52 -0.67846 -0.312573 0
M  V30 7019 H 670.182 -1.94529 -0.120224 0
M  V30 7020 H 669.278 -2.79419 -1.39038 0
M  V30 7021 N 669.579 0.400081 -1.52437 0
M  V30 7022 C 670.804 1.17221 -1.71096 0
M  V30 7023 C 671.229 1.83269 -0.423565 0
M  V30 7024 O 670.587 1.70378 0.619751 0
M  V30 7025 C 670.635 2.20425 -2.85386 0
M  V30 7026 O 669.739 3.26769 -2.51586 0
M  V30 7027 H 669.08 0.341766 -0.569291 0
M  V30 7028 H 671.61 0.467772 -1.99181 0
M  V30 7029 H 671.62 2.64605 -3.10561 0
M  V30 7030 H 670.295 1.71737 -3.78786 0
M  V30 7031 H 668.872 2.87804 -2.37114 0
M  V30 7032 N 671.057 1.43213 0.657864 0
M  V30 7033 C 672.287 1.478 1.44356 0
M  V30 7034 C 672.695 0.0930206 1.88971 0
M  V30 7035 O 672.038 -0.906089 1.59799 0
M  V30 7036 C 672.1 2.35745 2.71412 0
M  V30 7037 C 671.764 3.83359 2.48767 0
M  V30 7038 C 672.761 4.74585 2.12285 0
M  V30 7039 C 670.446 4.27799 2.63235 0
M  V30 7040 C 672.44 6.08247 1.90562 0
M  V30 7041 C 670.127 5.61516 2.41128 0
M  V30 7042 C 671.125 6.51557 2.04847 0
M  V30 7043 O 670.813 7.82802 1.82967 0
M  V30 7044 H 670.545 0.504363 0.450104 0
M  V30 7045 H 673.099 1.88572 0.814241 0
M  V30 7046 H 671.329 1.89852 3.36887 0
M  V30 7047 H 673.018 2.31589 3.33348 0
M  V30 7048 H 673.784 4.41531 2.00687 0
M  V30 7049 H 669.663 3.57993 2.90451 0
M  V30 7050 H 673.207 6.78489 1.62168 0
M  V30 7051 H 669.104 5.94139 2.52327 0
M  V30 7052 H 669.872 7.94332 1.97429 0
M  V30 7053 N 672.536 -0.895792 1.29666 0
M  V30 7054 C 673.952 -1.17726 1.07763 0
M  V30 7055 C 674.152 -2.00794 -0.168576 0
M  V30 7056 O 673.208 -2.37213 -0.865244 0
M  V30 7057 C 674.521 -1.89441 2.33522 0
M  V30 7058 C 676.069 -2.02251 2.3888 0
M  V30 7059 C 676.544 -2.77378 3.64452 0
M  V30 7060 N 678.035 -2.8493 3.65198 0
M  V30 7061 C 678.77 -3.43606 4.59045 0
M  V30 7062 N 678.266 -4.03417 5.63228 0
M  V30 7063 N 680.059 -3.41317 4.46608 0
M  V30 7064 H 672.21 -0.341652 2.09634 0
M  V30 7065 H 674.473 -0.213865 0.923561 0
M  V30 7066 H 674.179 -1.35842 3.24407 0
M  V30 7067 H 674.053 -2.89893 2.41334 0
M  V30 7068 H 676.44 -2.55025 1.4848 0
M  V30 7069 H 676.521 -1.0092 2.3505 0
M  V30 7070 H 676.165 -2.25279 4.55205 0
M  V30 7071 H 676.095 -3.79062 3.65541 0
M  V30 7072 H 678.586 -2.42453 2.89871 0
M  V30 7073 H 678.899 -4.46224 6.30955 0
M  V30 7074 H 677.244 -4.01868 5.67033 0
M  V30 7075 H 680.435 -2.93812 3.64407 0
M  V30 7076 H 680.608 -3.86751 5.1993 0
M  V30 7077 N 674.014 -1.12206 -1.10668 0
M  V30 7078 C 675.425 -0.890657 -1.64086 0
M  V30 7079 C 675.776 0.575502 -1.8757 0
M  V30 7080 O 674.901 1.4394 -1.61587 0
M  V30 7081 C 675.496 -1.61029 -2.98085 0
M  V30 7082 C 674.055 -1.4251 -3.48379 0
M  V30 7083 C 673.202 -1.64778 -2.23033 0
M  V30 7084 H 676.153 -1.27718 -0.94201 0
M  V30 7085 H 676.174 -1.05993 -3.65439 0
M  V30 7086 H 675.686 -2.67735 -2.80962 0
M  V30 7087 H 673.787 -0.380497 -3.70652 0
M  V30 7088 H 673.9 -2.17959 -4.26651 0
M  V30 7089 H 672.264 -1.07171 -2.31055 0
M  V30 7090 H 673.047 -2.72776 -2.08443 0
M  V30 7091 N 675.492 1.28418 -0.913599 0
M  V30 7092 C 676.722 1.98817 -0.56172 0
M  V30 7093 C 677.13 1.68457 0.861321 0
M  V30 7094 O 676.473 0.933653 1.58204 0
M  V30 7095 C 676.535 3.52801 -0.690785 0
M  V30 7096 C 676.199 4.0675 -2.08334 0
M  V30 7097 C 677.196 4.20597 -3.05604 0
M  V30 7098 C 674.881 4.41445 -2.39648 0
M  V30 7099 C 676.875 4.68392 -4.32305 0
M  V30 7100 C 674.562 4.88934 -3.66588 0
M  V30 7101 C 675.56 5.02364 -4.6273 0
M  V30 7102 O 675.248 5.48817 -5.87414 0
M  V30 7103 H 674.98 0.641608 -0.212874 0
M  V30 7104 H 677.534 1.64584 -1.22887 0
M  V30 7105 H 675.764 3.86686 0.0334336 0
M  V30 7106 H 677.453 4.04422 -0.346031 0
M  V30 7107 H 678.219 3.94067 -2.8273 0
M  V30 7108 H 674.098 4.30242 -1.65567 0
M  V30 7109 H 677.642 4.7879 -5.07352 0
M  V30 7110 H 673.539 5.14904 -3.89287 0
M  V30 7111 H 674.307 5.67103 -5.90201 0
M  V30 7112 N 676.97 0.677563 1.42291 0
M  V30 7113 C 678.247 0.129803 1.95169 0
M  V30 7114 C 678.627 -1.35605 1.61786 0
M  V30 7115 O 677.975 -2.09361 0.915444 0
M  V30 7116 C 678.185 0.401889 3.46678 0
M  V30 7117 C 679.533 0.319889 4.23393 0
M  V30 7118 O 680.557 0.33579 3.54614 0
M  V30 7119 O 679.416 0.264459 5.4586 0
M  V30 7120 H 676.51 0.00447433 0.826988 0
M  V30 7121 H 679.056 0.752483 1.52105 0
M  V30 7122 H 677.828 1.43108 3.64192 0
M  V30 7123 H 677.451 -0.252662 3.96796 0
M  V30 7124 N 678.448 -1.51871 0.421078 0
M  V30 7125 C 679.358 -2.31077 -0.405069 0
M  V30 7126 C 680.374 -1.39301 -1.04265 0
M  V30 7127 O 681.55 -1.72376 -1.04157 0
M  V30 7128 C 678.615 -3.12556 -1.50032 0
M  V30 7129 C 677.676 -4.20088 -0.884559 0
M  V30 7130 C 676.909 -4.97673 -1.92762 0
M  V30 7131 O 677.132 -4.75696 -3.14753 0
M  V30 7132 O 676.066 -5.82203 -1.52719 0
M  V30 7133 H 679.892 -3.02742 0.241086 0
M  V30 7134 H 677.477 -1.48263 0.183991 0
M  V30 7135 H 679.359 -3.6326 -2.13589 0
M  V30 7136 H 678.034 -2.43672 -2.13086 0
M  V30 7137 H 676.941 -3.73502 -0.211379 0
M  V30 7138 H 678.274 -4.91298 -0.297763 0
M  V30 7139 N 679.926 -0.151884 -1.56866 0
M  V30 7140 C 681.174 0.497021 -1.95893 0
M  V30 7141 C 681.495 1.65078 -1.03799 0
M  V30 7142 O 680.765 1.95642 -0.10049 0
M  V30 7143 H 679.345 0.186603 -0.723318 0
M  V30 7144 H 682.007 -0.228525 -1.93556 0
M  V30 7145 H 681.103 0.869933 -2.99731 0
M  V30 7146 N 681.404 1.57128 0.121893 0
M  V30 7147 C 682.334 2.03165 1.15092 0
M  V30 7148 C 683.315 0.915587 1.43356 0
M  V30 7149 O 684.5 1.1851 1.53847 0
M  V30 7150 C 681.63 2.43352 2.47784 0
M  V30 7151 C 680.584 3.58376 2.33989 0
M  V30 7152 C 679.91 3.84454 3.71617 0
M  V30 7153 C 681.21 4.90199 1.80283 0
M  V30 7154 H 682.904 2.89382 0.768023 0
M  V30 7155 H 680.45 1.39218 0.367998 0
M  V30 7156 H 682.403 2.74163 3.20019 0
M  V30 7157 H 681.127 1.54103 2.87958 0
M  V30 7158 H 679.786 3.2777 1.64202 0
M  V30 7159 H 679.434 2.92414 4.09271 0
M  V30 7160 H 679.134 4.61877 3.6324 0
M  V30 7161 H 680.658 4.17714 4.45362 0
M  V30 7162 H 682.072 5.19565 2.42333 0
M  V30 7163 H 680.469 5.71601 1.82735 0
M  V30 7164 H 681.539 4.78904 0.760184 0
M  V30 7165 N 682.882 -0.391992 1.52647 0
M  V30 7166 C 684.298 -0.731848 1.41831 0
M  V30 7167 C 684.498 -1.9423 0.536361 0
M  V30 7168 O 683.554 -2.52499 0.00866571 0
M  V30 7169 C 684.867 -0.969743 2.84634 0
M  V30 7170 C 686.415 -1.0714 2.94092 0
M  V30 7171 C 686.89 -1.34195 4.37899 0
M  V30 7172 N 688.381 -1.41023 4.41211 0
M  V30 7173 C 689.116 -1.63616 5.49561 0
M  V30 7174 N 688.612 -1.83699 6.68002 0
M  V30 7175 N 690.405 -1.65771 5.371 0
M  V30 7176 H 682.556 0.404547 2.08512 0
M  V30 7177 H 684.819 0.11879 0.940528 0
M  V30 7178 H 684.525 -0.152465 3.51369 0
M  V30 7179 H 684.399 -1.88523 3.26709 0
M  V30 7180 H 686.786 -1.87925 2.27526 0
M  V30 7181 H 686.867 -0.133887 2.55449 0
M  V30 7182 H 686.511 -0.539207 5.0503 0
M  V30 7183 H 686.441 -2.29226 4.74092 0
M  V30 7184 H 688.932 -1.27223 3.55841 0
M  V30 7185 H 689.245 -2.00437 7.46354 0
M  V30 7186 H 687.59 -1.8093 6.71036 0
M  V30 7187 H 690.781 -1.4963 4.43541 0
M  V30 7188 H 690.954 -1.83038 6.21612 0
M  V30 7189 N 684.36 -1.4356 -0.65026 0
M  V30 7190 C 685.776 -1.27025 -0.966269 0
M  V30 7191 C 685.976 -0.192117 -2.00582 0
M  V30 7192 O 685.032 0.428459 -2.48838 0
M  V30 7193 C 686.345 -2.63556 -1.44772 0
M  V30 7194 C 687.893 -2.71111 -1.56421 0
M  V30 7195 C 688.368 -4.08067 -2.07956 0
M  V30 7196 N 689.859 -4.10146 -2.15254 0
M  V30 7197 C 690.594 -5.12952 -2.56258 0
M  V30 7198 N 690.09 -6.26129 -2.96537 0
M  V30 7199 N 691.883 -5.00306 -2.56224 0
M  V30 7200 H 684.034 -2.12367 0.0375758 0
M  V30 7201 H 686.297 -0.946894 -0.0457782 0
M  V30 7202 H 686.003 -3.43429 -0.758271 0
M  V30 7203 H 685.877 -2.89152 -2.42221 0
M  V30 7204 H 688.264 -1.91569 -2.24467 0
M  V30 7205 H 688.345 -2.49277 -0.573967 0
M  V30 7206 H 687.989 -4.88077 -1.40511 0
M  V30 7207 H 687.919 -4.27266 -3.07817 0
M  V30 7208 H 690.41 -3.28453 -1.86887 0
M  V30 7209 H 690.723 -7.00403 -3.26582 0
M  V30 7210 H 689.068 -6.29597 -2.94334 0
M  V30 7211 H 692.259 -4.10952 -2.24135 0
M  V30 7212 H 692.432 -5.80553 -2.87857 0
M  V30 7213 N 685.838 0.888903 -1.30139 0
M  V30 7214 C 687.086 1.63713 -1.18501 0
M  V30 7215 C 687.407 1.9324 0.261399 0
M  V30 7216 O 686.677 1.56608 1.17689 0
M  V30 7217 H 685.257 0.606861 -0.435579 0
M  V30 7218 H 687.919 1.06525 -1.63213 0
M  V30 7219 H 687.015 2.58894 -1.743 0
M  V30 7220 N 687.317 1.12792 1.10072 0
M  V30 7221 C 688.563 0.886857 1.82381 0
M  V30 7222 C 688.896 -0.58576 1.85155 0
M  V30 7223 O 688.171 -1.43317 1.31493 0
M  V30 7224 C 688.454 1.46703 3.28862 0
M  V30 7225 C 688.307 3.00829 3.34398 0
M  V30 7226 C 689.626 1.12971 4.25353 0
M  V30 7227 H 686.745 0.32362 0.662148 0
M  V30 7228 H 689.387 1.39513 1.28982 0
M  V30 7229 H 687.537 1.03476 3.74466 0
M  V30 7230 H 689.209 3.52764 2.97247 0
M  V30 7231 H 687.452 3.36164 2.74183 0
M  V30 7232 H 688.123 3.36519 4.3756 0
M  V30 7233 H 690.599 1.50313 3.88001 0
M  V30 7234 H 689.475 1.56223 5.26199 0
M  V30 7235 H 689.736 0.0424452 4.4208 0
M  V30 7236 N 688.795 -1.27931 0.920396 0
M  V30 7237 C 690.042 -1.94689 0.557007 0
M  V30 7238 C 690.37 -1.724 -0.900476 0
M  V30 7239 O 689.625 -1.04194 -1.65657 0
M  V30 7240 C 689.924 -3.47853 0.820558 0
M  V30 7241 C 689.59 -3.90252 2.25863 0
M  V30 7242 C 688.252 -4.01539 2.65179 0
M  V30 7243 C 690.604 -4.11853 3.19415 0
M  V30 7244 C 687.932 -4.3181 3.97187 0
M  V30 7245 C 690.284 -4.43606 4.50995 0
M  V30 7246 C 688.948 -4.53105 4.90155 0
M  V30 7247 H 688.218 -0.712416 0.203823 0
M  V30 7248 H 690.865 -1.52142 1.16298 0
M  V30 7249 H 689.17 -3.91578 0.131844 0
M  V30 7250 H 690.867 -3.97634 0.51847 0
M  V30 7251 H 687.457 -3.81999 1.94358 0
M  V30 7252 H 691.641 -4.0258 2.90246 0
M  V30 7253 H 686.897 -4.37371 4.2722 0
M  V30 7254 H 691.071 -4.59268 5.23494 0
M  V30 7255 H 688.698 -4.76315 5.92476 0
M  V30 7256 N 690.273 -0.685099 -1.4193 0
M  V30 7257 C 691.522 -0.208816 -2.00616 0
M  V30 7258 C 691.835 1.19506 -1.54847 0
M  V30 7259 O 693.041 1.76826 -2.06021 0
M  V30 7260 C 691.497 -0.322446 -3.58453 0
M  V30 7261 C 691.105 -1.73102 -4.13206 0
M  V30 7262 C 692.849 0.0945979 -4.24395 0
M  V30 7263 C 690.756 -1.79687 -5.63442 0
M  V30 7264 H 689.686 -0.0743092 -0.750329 0
M  V30 7265 H 692.337 -0.851778 -1.62533 0
M  V30 7266 H 690.719 0.388588 -3.94089 0
M  V30 7267 H 691.893 -2.46997 -3.8901 0
M  V30 7268 H 690.208 -2.09682 -3.59753 0
M  V30 7269 H 692.805 0.0656937 -5.3466 0
M  V30 7270 H 693.148 1.1316 -4.00625 0
M  V30 7271 H 693.681 -0.56579 -3.93756 0
M  V30 7272 H 690.42 -2.81404 -5.92024 0
M  V30 7273 H 689.94 -1.10162 -5.89597 0
M  V30 7274 H 691.619 -1.55498 -6.28036 0
M  V30 7275 N 691.751 1.51645 -0.429126 0
M  V30 7276 C 692.979 2.06433 0.138994 0
M  V30 7277 C 693.394 1.29735 1.37165 0
M  V30 7278 O 692.751 0.354638 1.79021 0
M  V30 7279 C 692.802 3.58439 0.469452 0
M  V30 7280 O 692.523 4.32238 -0.714273 0
M  V30 7281 C 694.024 4.29712 1.08914 0
M  V30 7282 H 691.244 0.6709 0.0115608 0
M  V30 7283 H 693.788 1.9532 -0.605843 0
M  V30 7284 H 691.943 3.69494 1.16419 0
M  V30 7285 H 692.357 5.22704 -0.433633 0
M  V30 7286 H 693.831 5.37182 1.27042 0
M  V30 7287 H 694.308 3.87473 2.06788 0
M  V30 7288 H 694.914 4.2308 0.434028 0
M  V30 7289 N 693.229 0.160201 1.56784 0
M  V30 7290 C 694.177 -0.791402 2.18723 0
M  V30 7291 C 695.171 -1.24567 1.14801 0
M  V30 7292 O 696.377 -1.21262 1.33025 0
M  V30 7293 H 692.752 -0.273458 0.700517 0
M  V30 7294 H 694.723 -0.244931 2.97393 0
M  V30 7295 C 693.472 -2.01509 2.83354 0
M  V30 7296 H 692.795 -1.67454 3.63041 0
M  V30 7297 H 694.235 -2.66006 3.30177 0
M  V30 7298 C 692.694 -2.83159 1.82545 0
M  V30 7299 O 693.224 -3.79944 1.30405 0
M  V30 7300 N 691.43 -2.47953 1.51552 0
M  V30 7301 H 690.977 -1.69309 1.94144 0
M  V30 7302 H 690.935 -3.02873 0.843519 0
M  V30 7303 N 694.707 -1.5719 -0.113559 0
M  V30 7304 C 695.617 -2.04041 -1.15777 0
M  V30 7305 C 696.633 -0.961812 -1.45001 0
M  V30 7306 O 697.809 -1.2737 -1.56009 0
M  V30 7307 C 694.874 -2.43994 -2.46308 0
M  V30 7308 C 693.935 -3.65962 -2.24433 0
M  V30 7309 C 693.168 -4.04 -3.4874 0
M  V30 7310 O 693.391 -3.42321 -4.56259 0
M  V30 7311 O 692.325 -4.97069 -3.3942 0
M  V30 7312 H 696.151 -2.93248 -0.789899 0
M  V30 7313 H 693.736 -1.45828 -0.324748 0
M  V30 7314 H 695.618 -2.70401 -3.23204 0
M  V30 7315 H 694.293 -1.57932 -2.82558 0
M  V30 7316 H 693.2 -3.44697 -1.45377 0
M  V30 7317 H 694.533 -4.52746 -1.93084 0
M  V30 7318 N 696.185 0.383891 -1.52853 0
M  V30 7319 C 697.413 1.1495 -1.7203 0
M  V30 7320 C 697.828 1.83578 -0.440957 0
M  V30 7321 O 697.185 1.72872 0.584925 0
M  V30 7322 C 697.236 2.19368 -2.87333 0
M  V30 7323 O 696.957 1.53536 -4.10315 0
M  V30 7324 C 698.458 3.08616 -3.18231 0
M  V30 7325 H 695.678 0.344445 -0.575846 0
M  V30 7326 H 698.222 0.448397 -1.99524 0
M  V30 7327 H 696.377 2.85105 -2.62286 0
M  V30 7328 H 696.791 2.2296 -4.74752 0
M  V30 7329 H 698.265 3.77902 -4.02361 0
M  V30 7330 H 698.742 3.72409 -2.32826 0
M  V30 7331 H 699.348 2.48518 -3.45136 0
M  V30 7332 N 697.663 1.43903 0.642637 0
M  V30 7333 C 698.911 1.45791 1.39962 0
M  V30 7334 C 699.232 0.0873144 1.94804 0
M  V30 7335 O 698.502 -0.878825 1.75081 0
M  V30 7336 H 697.082 0.536797 0.519479 0
M  V30 7337 H 699.744 1.7959 0.757189 0
M  V30 7338 H 698.84 2.17665 2.2367 0
M  V30 7339 N 699.141 -0.881989 1.30609 0
M  V30 7340 C 700.073 -1.99375 1.13058 0
M  V30 7341 C 701.086 -1.62636 0.0729879 0
M  V30 7342 O 702.275 -1.75621 0.319301 0
M  V30 7343 C 699.375 -3.31536 0.702651 0
M  V30 7344 C 698.548 -3.96693 1.84265 0
M  V30 7345 C 697.607 -5.07158 1.40277 0
M  V30 7346 O 696.633 -5.28628 2.11048 0
M  V30 7347 N 697.835 -5.79808 0.283449 0
M  V30 7348 H 700.6 -2.14981 2.08814 0
M  V30 7349 H 698.161 -1.05526 1.22784 0
M  V30 7350 H 700.153 -4.02804 0.391331 0
M  V30 7351 H 698.723 -3.12175 -0.162954 0
M  V30 7352 H 697.943 -3.1856 2.32192 0
M  V30 7353 H 699.231 -4.36964 2.60653 0
M  V30 7354 H 698.629 -5.64871 -0.306189 0
M  V30 7355 H 697.186 -6.51792 0.0315985 0
M  V30 7356 N 700.619 -1.13374 -1.09472 0
M  V30 7357 C 702.03 -0.90801 -1.63132 0
M  V30 7358 C 702.381 0.555576 -1.8817 0
M  V30 7359 O 701.506 1.42218 -1.63104 0
M  V30 7360 C 702.101 -1.64182 -2.96361 0
M  V30 7361 C 700.66 -1.46197 -3.46848 0
M  V30 7362 C 699.807 -1.67134 -2.21273 0
M  V30 7363 H 702.758 -1.2871 -0.928411 0
M  V30 7364 H 702.779 -1.09863 -3.64294 0
M  V30 7365 H 702.291 -2.707 -2.78106 0
M  V30 7366 H 700.392 -0.419788 -3.70228 0
M  V30 7367 H 700.505 -2.22472 -4.24315 0
M  V30 7368 H 698.869 -1.09616 -2.29905 0
M  V30 7369 H 699.652 -2.74971 -2.05538 0
M  V30 7370 N 702.098 1.27442 -0.927168 0
M  V30 7371 C 703.028 2.29256 -0.443188 0
M  V30 7372 C 704.009 1.62701 0.49624 0
M  V30 7373 O 705.194 1.90013 0.401105 0
M  V30 7374 C 702.324 3.45955 0.305366 0
M  V30 7375 C 701.278 4.24501 -0.546178 0
M  V30 7376 C 700.604 5.33671 0.331512 0
M  V30 7377 C 701.904 4.89921 -1.81037 0
M  V30 7378 H 703.598 2.69988 -1.29409 0
M  V30 7379 H 701.144 1.29792 -0.623705 0
M  V30 7380 H 703.097 4.1628 0.654885 0
M  V30 7381 H 701.821 3.04138 1.19029 0
M  V30 7382 H 700.48 3.55921 -0.878398 0
M  V30 7383 H 700.128 4.88096 1.21537 0
M  V30 7384 H 699.828 5.87131 -0.234746 0
M  V30 7385 H 701.352 6.0684 0.676614 0
M  V30 7386 H 702.766 5.52536 -1.52895 0
M  V30 7387 H 701.163 5.53436 -2.32009 0
M  V30 7388 H 702.233 4.13652 -2.53021 0
M  V30 7389 N 703.576 0.692616 1.41565 0
M  V30 7390 C 704.825 0.219452 2.00503 0
M  V30 7391 C 705.138 -1.18683 1.55479 0
M  V30 7392 O 706.344 -1.75731 2.06956 0
M  V30 7393 C 704.8 0.341451 3.58277 0
M  V30 7394 C 704.408 1.75291 4.12283 0
M  V30 7395 C 706.152 -0.0720899 4.24439 0
M  V30 7396 C 704.059 1.82673 5.62481 0
M  V30 7397 H 702.989 0.0782874 0.749925 0
M  V30 7398 H 705.64 0.860386 1.62079 0
M  V30 7399 H 704.022 -0.367683 3.94289 0
M  V30 7400 H 705.196 2.49057 3.87695 0
M  V30 7401 H 703.511 2.11587 3.58636 0
M  V30 7402 H 706.108 -0.0373385 5.34687 0
M  V30 7403 H 706.451 -1.11034 4.0122 0
M  V30 7404 H 706.984 0.586663 3.9345 0
M  V30 7405 H 703.723 2.84539 5.90523 0
M  V30 7406 H 703.243 1.13288 5.89004 0
M  V30 7407 H 704.922 1.58827 6.27203 0
M  V30 7408 N 705.054 -1.51416 0.437162 0
M  V30 7409 C 706.302 -2.01687 -0.129108 0
M  V30 7410 C 706.623 -1.32329 -1.43227 0
M  V30 7411 O 705.893 -0.457796 -1.90476 0
M  V30 7412 H 704.473 -0.745277 -0.0507023 0
M  V30 7413 H 707.135 -1.86075 0.579828 0
M  V30 7414 H 706.231 -3.10605 -0.305141 0
M  V30 7415 N 706.532 -0.168513 -1.56696 0
M  V30 7416 C 707.479 0.762875 -2.17828 0
M  V30 7417 C 708.449 1.22892 -1.11745 0
M  V30 7418 O 709.634 1.29759 -1.39883 0
M  V30 7419 C 706.774 1.9879 -2.82093 0
M  V30 7420 C 705.887 1.56568 -4.02629 0
M  V30 7421 C 705.022 2.74416 -4.54829 0
M  V30 7422 C 704.061 2.28671 -5.67782 0
M  V30 7423 N 703.198 3.39602 -6.14504 0
M  V30 7424 H 708.038 0.23479 -2.97074 0
M  V30 7425 H 705.575 0.104163 -1.46731 0
M  V30 7426 H 707.533 2.70636 -3.17509 0
M  V30 7427 H 706.163 2.48973 -2.05456 0
M  V30 7428 H 705.215 0.744067 -3.73052 0
M  V30 7429 H 706.527 1.18988 -4.844 0
M  V30 7430 H 705.681 3.54423 -4.92412 0
M  V30 7431 H 704.42 3.15254 -3.7211 0
M  V30 7432 H 703.425 1.4711 -5.29753 0
M  V30 7433 H 704.65 1.88894 -6.52301 0
M  V30 7434 H 702.596 3.80021 -5.34715 0
M  V30 7435 H 702.513 3.06105 -6.91257 0
M  V30 7436 H 703.781 4.19902 -6.56737 0
M  V30 7437 N 708.01 1.57248 0.105221 0
M  V30 7438 C 709.256 1.85845 0.811753 0
M  V30 7439 C 709.589 0.756219 1.78871 0
M  V30 7440 O 708.864 -0.236736 1.93054 0
M  V30 7441 C 709.147 3.25059 1.54947 0
M  V30 7442 C 709 4.45898 0.591185 0
M  V30 7443 C 710.319 3.6203 2.50245 0
M  V30 7444 H 707.438 0.675973 0.293649 0
M  V30 7445 H 710.08 1.89849 0.0756269 0
M  V30 7446 H 708.23 3.21776 2.17698 0
M  V30 7447 H 709.902 4.61291 -0.0285352 0
M  V30 7448 H 708.145 4.33693 -0.0962343 0
M  V30 7449 H 708.816 5.40009 1.1443 0
M  V30 7450 H 711.292 3.66192 1.97593 0
M  V30 7451 H 710.168 4.60389 2.98886 0
M  V30 7452 H 710.429 2.90176 3.33542 0
M  V30 7453 N 709.488 -0.375779 1.53054 0
M  V30 7454 C 710.734 -1.11767 1.6994 0
M  V30 7455 C 711.089 -1.87288 0.440574 0
M  V30 7456 O 710.382 -1.83045 -0.566146 0
M  V30 7457 C 710.576 -2.11356 2.88207 0
M  V30 7458 C 710.405 -1.45619 4.25471 0
M  V30 7459 C 709.175 -1.21464 4.90484 0
M  V30 7460 C 711.373 -0.899276 5.06377 0
M  V30 7461 N 709.355 -0.519705 6.11696 0
M  V30 7462 C 710.726 -0.333138 6.19104 0
M  V30 7463 C 712.781 -0.79697 4.9148 0
M  V30 7464 C 711.484 0.325316 7.18564 0
M  V30 7465 C 713.51 -0.152315 5.91204 0
M  V30 7466 C 712.872 0.402994 7.03246 0
M  V30 7467 H 708.971 -0.394489 0.675206 0
M  V30 7468 H 711.555 -0.40541 1.90432 0
M  V30 7469 H 709.726 -2.79905 2.69272 0
M  V30 7470 H 711.458 -2.78148 2.93966 0
M  V30 7471 H 708.213 -1.49319 4.49445 0
M  V30 7472 H 708.637 -0.187896 6.76739 0
M  V30 7473 H 713.279 -1.21208 4.05054 0
M  V30 7474 H 710.997 0.752399 8.0459 0
M  V30 7475 H 714.583 -0.074223 5.81753 0
M  V30 7476 H 713.463 0.89394 7.79088 0
M  V30 7477 N 710.966 -1.44241 -0.634997 0
M  V30 7478 C 712.377 -1.41622 -1.21655 0
M  V30 7479 C 712.728 -0.129584 -1.95772 0
M  V30 7480 O 711.853 0.770225 -2.02229 0
M  V30 7481 C 712.448 -2.56557 -2.21278 0
M  V30 7482 C 711.007 -2.57145 -2.7487 0
M  V30 7483 C 710.154 -2.33354 -1.49804 0
M  V30 7484 H 713.105 -1.52878 -0.425905 0
M  V30 7485 H 713.126 -2.29089 -3.03807 0
M  V30 7486 H 712.638 -3.50186 -1.67306 0
M  V30 7487 H 710.739 -1.67447 -3.32855 0
M  V30 7488 H 710.852 -3.55507 -3.21172 0
M  V30 7489 H 709.216 -1.82372 -1.77799 0
M  V30 7490 H 709.999 -3.29092 -0.977402 0
M  V30 7491 N 712.444 0.87505 -1.31075 0
M  V30 7492 C 713.692 1.62447 -1.20231 0
M  V30 7493 C 714.013 1.93506 0.240888 0
M  V30 7494 O 713.283 1.57847 1.16022 0
M  V30 7495 H 711.863 0.602207 -0.441991 0
M  V30 7496 H 714.525 1.04788 -1.64334 0
M  V30 7497 H 713.621 2.57031 -1.77036 0
M  V30 7498 N 713.922 1.13953 1.08869 0
M  V30 7499 C 715.147 0.928559 1.85452 0
M  V30 7500 C 715.572 -0.517642 1.80837 0
M  V30 7501 O 714.93 -1.36779 1.19001 0
M  V30 7502 C 714.978 1.42814 3.31114 0
M  V30 7503 O 714.082 0.617129 4.07756 0
M  V30 7504 H 713.423 0.33235 0.574839 0
M  V30 7505 H 715.953 1.5156 1.37443 0
M  V30 7506 H 715.963 1.43425 3.8196 0
M  V30 7507 H 714.638 2.48109 3.33788 0
M  V30 7508 H 713.215 0.679365 3.66659 0
M  V30 7509 N 715.4 -1.26948 0.933913 0
M  V30 7510 C 716.628 -1.98186 0.59414 0
M  V30 7511 C 717.043 -1.69614 -0.829257 0
M  V30 7512 O 716.4 -0.960213 -1.55197 0
M  V30 7513 C 716.451 -3.52123 0.818026 0
M  V30 7514 O 716.172 -3.79698 2.18543 0
M  V30 7515 C 717.673 -4.40608 0.48781 0
M  V30 7516 H 714.893 -0.632305 0.224569 0
M  V30 7517 H 717.437 -1.61646 1.25263 0
M  V30 7518 H 715.592 -3.86851 0.206246 0
M  V30 7519 H 716.006 -4.7426 2.24005 0
M  V30 7520 H 717.48 -5.47606 0.695126 0
M  V30 7521 H 717.957 -4.35394 -0.576913 0
M  V30 7522 H 718.563 -4.11411 1.078 0
M  V30 7523 N 716.879 -0.700114 -1.41195 0
M  V30 7524 C 717.842 -0.0465706 -2.29153 0
M  V30 7525 C 718.842 0.703302 -1.44604 0
M  V30 7526 O 720.032 0.537513 -1.657 0
M  V30 7527 C 717.164 0.944324 -3.2756 0
M  V30 7528 H 718.357 -0.821064 -2.88442 0
M  V30 7529 H 715.91 -0.463869 -1.49258 0
M  V30 7530 H 716.645 1.74642 -2.73259 0
M  V30 7531 H 716.43 0.409701 -3.89954 0
M  V30 7532 H 717.92 1.39925 -3.9346 0
M  V30 7533 N 718.357 1.51182 -0.445186 0
M  V30 7534 C 719.604 2.02152 0.118645 0
M  V30 7535 C 719.932 1.32888 1.42025 0
M  V30 7536 O 719.187 0.435041 1.90803 0
M  V30 7537 C 719.486 3.55408 0.376797 0
M  V30 7538 C 719.152 4.43008 -0.839945 0
M  V30 7539 C 717.814 4.66669 -1.17361 0
M  V30 7540 C 720.166 4.9435 -1.65127 0
M  V30 7541 C 717.494 5.38919 -2.31913 0
M  V30 7542 C 719.846 5.67857 -2.78786 0
M  V30 7543 C 718.51 5.89779 -3.12597 0
M  V30 7544 H 717.78 0.739727 0.0434152 0
M  V30 7545 H 720.427 1.82055 -0.593984 0
M  V30 7546 H 718.732 3.73879 1.1714 0
M  V30 7547 H 720.429 3.92388 0.826602 0
M  V30 7548 H 717.019 4.24793 -0.569958 0
M  V30 7549 H 721.203 4.75947 -1.4067 0
M  V30 7550 H 716.459 5.54105 -2.58413 0
M  V30 7551 H 720.633 6.06628 -3.42017 0
M  V30 7552 H 718.26 6.45542 -4.01471 0
M  V30 7553 N 719.835 0.176821 1.56605 0
M  V30 7554 C 721.246 -0.338963 1.83597 0
M  V30 7555 C 721.597 -1.62677 1.09684 0
M  V30 7556 O 720.722 -2.13524 0.351661 0
M  V30 7557 C 721.317 -0.62177 3.33046 0
M  V30 7558 C 719.876 -1.08198 3.60514 0
M  V30 7559 C 719.023 -0.120774 2.77037 0
M  V30 7560 H 721.974 0.400978 1.53551 0
M  V30 7561 H 721.995 -1.47321 3.50823 0
M  V30 7562 H 721.507 0.315692 3.86814 0
M  V30 7563 H 719.608 -2.03435 3.12162 0
M  V30 7564 H 719.721 -0.987329 4.68816 0
M  V30 7565 H 718.085 -0.619192 2.47059 0
M  V30 7566 H 718.868 0.810806 3.33588 0
M  V30 7567 N 721.313 -1.57302 -0.09688 0
M  V30 7568 C 722.59 -1.7701 -0.832272 0
M  V30 7569 C 722.97 -0.758025 -1.97021 0
M  V30 7570 O 722.318 0.213824 -2.27497 0
M  V30 7571 C 722.528 -3.22725 -1.32851 0
M  V30 7572 C 723.876 -3.85856 -1.772 0
M  V30 7573 O 724.9 -3.26464 -1.42478 0
M  V30 7574 O 723.759 -4.90295 -2.41398 0
M  V30 7575 H 720.853 -0.725558 -0.396856 0
M  V30 7576 H 723.399 -1.69516 -0.0789005 0
M  V30 7577 H 722.171 -3.87921 -0.51312 0
M  V30 7578 H 721.794 -3.34845 -2.14394 0
M  V30 7579 N 722.791 0.367657 -1.53252 0
M  V30 7580 C 724.038 1.11052 -1.69333 0
M  V30 7581 C 724.366 1.89363 -0.444064 0
M  V30 7582 O 723.621 1.87094 0.573953 0
M  V30 7583 C 723.92 2.09825 -2.89324 0
M  V30 7584 C 723.586 1.4801 -4.25915 0
M  V30 7585 C 722.248 1.30879 -4.6306 0
M  V30 7586 C 724.6 1.03268 -5.10867 0
M  V30 7587 C 721.928 0.675868 -5.82794 0
M  V30 7588 C 724.28 0.41377 -6.31245 0
M  V30 7589 C 722.944 0.229939 -6.67104 0
M  V30 7590 H 722.214 0.406367 -0.619634 0
M  V30 7591 H 724.861 0.392558 -1.87433 0
M  V30 7592 H 723.166 2.87917 -2.65728 0
M  V30 7593 H 724.863 2.67252 -2.98961 0
M  V30 7594 H 721.453 1.62336 -3.96667 0
M  V30 7595 H 725.637 1.15297 -4.82722 0
M  V30 7596 H 720.893 0.521833 -6.09169 0
M  V30 7597 H 725.067 0.0588768 -6.96375 0
M  V30 7598 H 722.694 -0.262562 -7.59746 0
M  V30 7599 N 724.269 1.44576 0.627338 0
M  V30 7600 C 725.497 1.51048 1.41394 0
M  V30 7601 C 725.912 0.136568 1.88305 0
M  V30 7602 O 725.269 -0.858251 1.6106 0
M  V30 7603 C 725.32 2.47837 2.63172 0
M  V30 7604 O 725.041 3.79887 2.18215 0
M  V30 7605 C 726.542 2.63811 3.56257 0
M  V30 7606 H 723.762 0.512171 0.4335 0
M  V30 7607 H 726.306 1.89576 0.766878 0
M  V30 7608 H 724.461 2.12433 3.23961 0
M  V30 7609 H 724.875 4.32177 2.97192 0
M  V30 7610 H 726.349 3.35554 4.38301 0
M  V30 7611 H 726.826 1.69169 4.05313 0
M  V30 7612 H 727.432 3.0013 3.01333 0
M  V30 7613 N 725.747 -0.868086 1.31537 0
M  V30 7614 C 726.695 -1.99688 1.1928 0
M  V30 7615 C 727.689 -1.69101 0.100656 0
M  V30 7616 O 728.895 -1.78073 0.262677 0
M  V30 7617 H 725.27 -0.655032 0.369374 0
M  V30 7618 H 727.241 -2.07157 2.14776 0
M  V30 7619 C 725.99 -3.35338 0.918892 0
M  V30 7620 H 725.313 -3.59396 1.75142 0
M  V30 7621 H 726.753 -4.14909 0.873311 0
M  V30 7622 C 725.212 -3.34769 -0.378366 0
M  V30 7623 O 725.742 -3.76716 -1.39456 0
M  V30 7624 N 723.948 -2.87895 -0.39557 0
M  V30 7625 H 723.495 -2.53954 0.431889 0
M  V30 7626 H 723.453 -2.87897 -1.26344 0
M  V30 7627 N 727.225 -1.14528 -1.08264 0
M  V30 7628 C 728.636 -0.925261 -1.6216 0
M  V30 7629 C 728.987 0.535587 -1.88748 0
M  V30 7630 O 728.112 1.4048 -1.64604 0
M  V30 7631 C 728.707 -1.67316 -2.94603 0
M  V30 7632 C 727.266 -1.49868 -3.45278 0
M  V30 7633 C 726.413 -1.69471 -2.19487 0
M  V30 7634 H 729.364 -1.29687 -0.914707 0
M  V30 7635 H 729.385 -1.13721 -3.63109 0
M  V30 7636 H 728.897 -2.73635 -2.75219 0
M  V30 7637 H 726.998 -0.459032 -3.69762 0
M  V30 7638 H 727.111 -2.2696 -4.21931 0
M  V30 7639 H 725.475 -1.12048 -2.2873 0
M  V30 7640 H 726.258 -2.77136 -2.0261 0
M  V30 7641 N 728.703 1.26451 -0.940633 0
M  V30 7642 C 729.931 1.97868 -0.604642 0
M  V30 7643 C 730.346 1.70051 0.820251 0
M  V30 7644 O 729.703 0.96843 1.54686 0
M  V30 7645 C 729.754 3.51684 -0.836689 0
M  V30 7646 O 729.475 3.78533 -2.20554 0
M  V30 7647 C 730.976 4.40343 -0.511169 0
M  V30 7648 H 728.196 0.631105 -0.227919 0
M  V30 7649 H 730.74 1.60979 -1.26119 0
M  V30 7650 H 728.895 3.86736 -0.226759 0
M  V30 7651 H 729.309 4.73065 -2.26517 0
M  V30 7652 H 730.783 5.47229 -0.724157 0
M  V30 7653 H 731.26 4.35694 0.553815 0
M  V30 7654 H 731.866 4.10834 -1.0998 0
M  V30 7655 N 730.181 0.707592 1.40822 0
M  V30 7656 C 731.144 0.0587224 2.29125 0
M  V30 7657 C 732.144 -0.695624 1.44975 0
M  V30 7658 O 733.334 -0.528718 1.65983 0
M  V30 7659 C 730.466 -0.926939 3.28056 0
M  V30 7660 H 731.659 0.836349 2.88002 0
M  V30 7661 H 729.212 0.471778 1.4901 0
M  V30 7662 H 729.947 -1.7319 2.74182 0
M  V30 7663 H 729.732 -0.389015 3.90165 0
M  V30 7664 H 731.222 -1.37837 3.94196 0
M  V30 7665 N 731.66 -1.50943 0.453197 0
M  V30 7666 C 732.59 -2.31005 -0.34044 0
M  V30 7667 C 733.571 -1.37112 -1.00669 0
M  V30 7668 O 734.756 -1.66033 -1.0073 0
M  V30 7669 C 731.886 -3.16358 -1.433 0
M  V30 7670 C 730.84 -4.18658 -0.889363 0
M  V30 7671 C 730.166 -4.92633 -2.07887 0
M  V30 7672 C 731.466 -5.22227 0.0871142 0
M  V30 7673 H 733.16 -2.97601 0.327723 0
M  V30 7674 H 730.706 -1.43119 0.159054 0
M  V30 7675 H 732.659 -3.71155 -1.99555 0
M  V30 7676 H 731.383 -2.47613 -2.12968 0
M  V30 7677 H 730.042 -3.64936 -0.348915 0
M  V30 7678 H 729.69 -4.20376 -2.76211 0
M  V30 7679 H 729.39 -5.61819 -1.72143 0
M  V30 7680 H 730.914 -5.50258 -2.64666 0
M  V30 7681 H 732.328 -5.72001 -0.385656 0
M  V30 7682 H 730.725 -5.99032 0.357926 0
M  V30 7683 H 731.795 -4.74077 1.01879 0
M  V30 7684 N 733.138 -0.185124 -1.56509 0
M  V30 7685 C 734.101 0.72591 -2.17401 0
M  V30 7686 C 735.101 1.14819 -1.12575 0
M  V30 7687 O 736.291 1.0629 -1.38015 0
M  V30 7688 C 733.423 1.98979 -2.76803 0
M  V30 7689 H 734.616 0.195588 -2.99262 0
M  V30 7690 H 732.169 0.0644772 -1.56167 0
M  V30 7691 H 732.904 2.56287 -1.98714 0
M  V30 7692 H 732.689 1.69583 -3.53531 0
M  V30 7693 H 734.179 2.63966 -3.23592 0
M  V30 7694 N 734.616 1.57351 0.0885366 0
M  V30 7695 C 735.862 1.87564 0.786842 0
M  V30 7696 C 736.217 0.776774 1.76023 0
M  V30 7697 O 735.51 -0.220637 1.90325 0
M  V30 7698 C 735.704 3.22098 1.5488 0
M  V30 7699 C 735.533 4.44967 0.650706 0
M  V30 7700 C 734.303 5.04444 0.293957 0
M  V30 7701 C 736.501 5.1428 -0.0452187 0
M  V30 7702 N 734.483 6.10846 -0.611609 0
M  V30 7703 C 735.854 6.14704 -0.808603 0
M  V30 7704 C 737.909 4.97759 -0.118451 0
M  V30 7705 C 736.612 7.00392 -1.63839 0
M  V30 7706 C 738.638 5.8396 -0.935157 0
M  V30 7707 C 738 6.83909 -1.68664 0
M  V30 7708 H 734.099 0.73613 0.263887 0
M  V30 7709 H 736.683 1.94638 0.049074 0
M  V30 7710 H 734.854 3.16064 2.2574 0
M  V30 7711 H 736.586 3.40015 2.19481 0
M  V30 7712 H 733.341 4.69214 0.643086 0
M  V30 7713 H 733.765 6.68695 -1.05714 0
M  V30 7714 H 738.407 4.20418 0.448202 0
M  V30 7715 H 736.125 7.7712 -2.21608 0
M  V30 7716 H 739.711 5.73236 -0.994579 0
M  V30 7717 H 738.591 7.49454 -2.30842 0
M  V30 7718 N 736.094 -0.359525 1.53444 0
M  V30 7719 C 737.34 -1.09958 1.71116 0
M  V30 7720 C 737.695 -1.8681 0.460414 0
M  V30 7721 O 736.988 -1.83635 -0.5467 0
M  V30 7722 C 737.182 -2.08287 2.90433 0
M  V30 7723 C 737.011 -1.41098 4.26991 0
M  V30 7724 C 735.781 -1.16255 4.91745 0
M  V30 7725 C 737.979 -0.845517 5.07302 0
M  V30 7726 N 735.961 -0.454798 6.12213 0
M  V30 7727 C 737.332 -0.267455 6.19423 0
M  V30 7728 C 739.387 -0.744797 4.92298 0
M  V30 7729 C 738.09 0.401511 7.18179 0
M  V30 7730 C 740.116 -0.0896013 5.91332 0
M  V30 7731 C 739.478 0.47756 7.02779 0
M  V30 7732 H 735.577 -0.387305 0.679352 0
M  V30 7733 H 738.161 -0.38519 1.90852 0
M  V30 7734 H 736.332 -2.77034 2.72226 0
M  V30 7735 H 738.064 -2.75015 2.96899 0
M  V30 7736 H 734.819 -1.44544 4.51003 0
M  V30 7737 H 735.243 -0.116108 6.769 0
M  V30 7738 H 739.885 -1.16905 4.06317 0
M  V30 7739 H 737.603 0.837694 8.03746 0
M  V30 7740 H 741.189 -0.0125162 5.81799 0
M  V30 7741 H 740.069 0.976522 7.78096 0
M  V30 7742 N 737.572 -1.44907 -0.619662 0
M  V30 7743 C 738.482 -1.55168 -1.75955 0
M  V30 7744 C 739.498 -0.43672 -1.6843 0
M  V30 7745 O 740.674 -0.695704 -1.89002 0
M  V30 7746 C 737.739 -1.50397 -3.12381 0
M  V30 7747 C 736.8 -2.72835 -3.31451 0
M  V30 7748 C 736.033 -2.68283 -4.61368 0
M  V30 7749 O 736.256 -1.74929 -5.42914 0
M  V30 7750 O 735.19 -3.59308 -4.82889 0
M  V30 7751 H 739.016 -2.51493 -1.7025 0
M  V30 7752 H 736.601 -1.27282 -0.782289 0
M  V30 7753 H 738.483 -1.50301 -3.93685 0
M  V30 7754 H 737.158 -0.572197 -3.18603 0
M  V30 7755 H 736.065 -2.78496 -2.49781 0
M  V30 7756 H 737.398 -3.65098 -3.30098 0
M  V30 7757 N 739.05 0.861098 -1.31996 0
M  V30 7758 C 740.327 1.59788 -1.12814 0
M  V30 7759 C 740.707 2.08753 0.313882 0
M  V30 7760 O 740.055 1.87258 1.30946 0
M  V30 7761 C 740.265 2.74901 -2.15012 0
M  V30 7762 C 741.613 3.44643 -2.48004 0
M  V30 7763 O 742.637 2.85119 -2.13508 0
M  V30 7764 O 741.496 4.52044 -3.07113 0
M  V30 7765 H 738.59 0.703408 -0.434909 0
M  V30 7766 H 741.136 0.905788 -1.43505 0
M  V30 7767 H 739.908 2.36198 -3.11971 0
M  V30 7768 H 739.531 3.51792 -1.85279 0
M  V30 7769 N 740.528 1.15101 1.07655 0
M  V30 7770 C 741.461 0.788522 2.14144 0
M  V30 7771 C 742.439 -0.233635 1.60913 0
M  V30 7772 O 743.623 -0.120908 1.88112 0
M  V30 7773 C 740.75 0.172033 3.38263 0
M  V30 7774 C 739.796 1.16559 4.10264 0
M  V30 7775 S 740.629 2.70627 4.62084 0
M  V30 7776 C 741.785 2.10389 5.8948 0
M  V30 7777 H 742.018 1.69047 2.44561 0
M  V30 7778 H 739.551 0.973033 1.19881 0
M  V30 7779 H 741.509 -0.177223 4.10117 0
M  V30 7780 H 740.17 -0.707468 3.06029 0
M  V30 7781 H 739.363 0.6824 4.99359 0
M  V30 7782 H 738.965 1.45923 3.44358 0
M  V30 7783 H 741.257 1.46405 6.61492 0
M  V30 7784 H 742.2 2.97639 6.42508 0
M  V30 7785 H 742.608 1.54816 5.42856 0
M  V30 7786 N 742.006 -1.2595 0.947325 0
M  V30 7787 C 743.252 -1.9375 0.599064 0
M  V30 7788 C 743.585 -1.74088 -0.860632 0
M  V30 7789 O 742.86 -1.08158 -1.61654 0
M  V30 7790 C 743.143 -3.47353 0.949634 0
M  V30 7791 C 742.996 -3.76273 2.46452 0
M  V30 7792 C 744.315 -4.37589 0.469442 0
M  V30 7793 H 741.434 -0.703674 0.219115 0
M  V30 7794 H 744.076 -1.48705 1.18266 0
M  V30 7795 H 742.226 -3.8585 0.453008 0
M  V30 7796 H 743.898 -3.47455 3.03435 0
M  V30 7797 H 742.141 -3.22135 2.90537 0
M  V30 7798 H 742.812 -4.83664 2.66032 0
M  V30 7799 H 745.288 -4.06353 0.89534 0
M  V30 7800 H 744.164 -5.43841 0.7435 0
M  V30 7801 H 744.425 -4.37579 -0.630618 0
M  V30 7802 N 743.484 -0.715051 -1.40445 0
M  V30 7803 C 744.447 -0.0708726 -2.2909 0
M  V30 7804 C 745.447 0.687926 -1.45342 0
M  V30 7805 O 746.637 0.519908 -1.66261 0
M  V30 7806 C 743.769 0.909528 -3.28543 0
M  V30 7807 H 744.962 -0.851611 -2.87555 0
M  V30 7808 H 742.515 -0.479674 -1.48758 0
M  V30 7809 H 743.25 1.71734 -2.75096 0
M  V30 7810 H 743.035 0.368318 -3.90366 0
M  V30 7811 H 744.525 1.35744 -3.94922 0
M  V30 7812 N 744.962 1.50701 -0.461195 0
M  V30 7813 C 745.872 2.32069 0.343661 0
M  V30 7814 C 746.888 1.42016 1.00535 0
M  V30 7815 O 748.064 1.75077 0.995498 0
M  V30 7816 C 745.129 3.16424 1.41692 0
M  V30 7817 C 744.19 4.22286 0.772869 0
M  V30 7818 C 743.423 5.02609 1.79499 0
M  V30 7819 O 743.646 4.83874 3.0203 0
M  V30 7820 O 742.58 5.86047 1.3723 0
M  V30 7821 H 746.406 3.01996 -0.321268 0
M  V30 7822 H 743.991 1.47723 -0.223235 0
M  V30 7823 H 745.873 3.68795 2.03883 0
M  V30 7824 H 744.548 2.49236 2.0655 0
M  V30 7825 H 743.455 3.73931 0.112277 0
M  V30 7826 H 744.788 4.91915 0.167399 0
M  V30 7827 N 746.441 0.193421 1.56409 0
M  V30 7828 C 747.688 -0.445789 1.97532 0
M  V30 7829 C 748.016 -1.61744 1.08024 0
M  V30 7830 O 747.271 -1.95338 0.118982 0
M  V30 7831 C 747.57 -0.949718 3.44551 0
M  V30 7832 C 747.236 0.108383 4.5077 0
M  V30 7833 C 745.898 0.399126 4.79542 0
M  V30 7834 C 748.25 0.825423 5.14622 0
M  V30 7835 C 745.578 1.41192 5.69457 0
M  V30 7836 C 747.93 1.82735 6.05632 0
M  V30 7837 C 746.594 2.12531 6.32761 0
M  V30 7838 H 745.864 -0.163126 0.722822 0
M  V30 7839 H 748.511 0.290035 1.89291 0
M  V30 7840 H 746.816 -1.76378 3.49854 0
M  V30 7841 H 748.513 -1.45367 3.73724 0
M  V30 7842 H 745.103 -0.128392 4.28408 0
M  V30 7843 H 749.287 0.61403 4.92487 0
M  V30 7844 H 744.543 1.6487 5.88751 0
M  V30 7845 H 748.717 2.3882 6.5417 0
M  V30 7846 H 746.344 2.91155 7.02234 0
M  V30 7847 N 747.919 -1.57396 -0.0801906 0
M  V30 7848 C 748.869 -1.9955 -1.10289 0
M  V30 7849 C 749.853 -0.876234 -1.34948 0
M  V30 7850 O 751.045 -1.14012 -1.35389 0
M  V30 7851 C 748.174 -2.43596 -2.419 0
M  V30 7852 C 747.26 -3.6224 -2.20551 0
M  V30 7853 N 747.651 -4.76693 -1.69109 0
M  V30 7854 C 745.949 -3.68627 -2.51059 0
M  V30 7855 C 746.65 -5.58577 -1.62379 0
M  V30 7856 N 745.626 -5.02178 -2.0813 0
M  V30 7857 H 749.428 -2.85483 -0.698335 0
M  V30 7858 H 746.942 -1.59837 -0.287395 0
M  V30 7859 H 748.939 -2.72031 -3.15919 0
M  V30 7860 H 747.599 -1.59047 -2.8308 0
M  V30 7861 H 748.61 -4.9915 -1.38092 0
M  V30 7862 H 745.287 -2.94772 -2.95661 0
M  V30 7863 H 746.677 -6.60447 -1.2353 0
M  V30 7864 N 749.397 0.351382 -1.53633 0
M  V30 7865 C 750.674 1.10903 -1.6112 0
M  V30 7866 C 751.054 2.06725 -0.427556 0
M  V30 7867 O 750.402 2.20992 0.580916 0
M  V30 7868 C 750.612 1.83561 -2.96827 0
M  V30 7869 C 751.96 2.37587 -3.51906 0
M  V30 7870 O 752.984 1.93669 -2.9895 0
M  V30 7871 O 751.843 3.17913 -4.44515 0
M  V30 7872 H 748.937 0.509558 -0.651368 0
M  V30 7873 H 751.483 0.353504 -1.65977 0
M  V30 7874 H 750.255 1.1371 -3.74414 0
M  V30 7875 H 749.878 2.6599 -2.95525 0
M  V30 7876 N 750.875 1.45233 0.611969 0
M  V30 7877 C 751.807 1.49575 1.73666 0
M  V30 7878 C 752.82 0.386987 1.58134 0
M  V30 7879 O 754.009 0.653804 1.66095 0
M  V30 7880 C 751.109 1.33223 3.11617 0
M  V30 7881 C 750.282 2.57694 3.5343 0
M  V30 7882 C 749.341 2.35962 4.70328 0
M  V30 7883 O 748.367 3.09553 4.77667 0
M  V30 7884 N 749.569 1.40243 5.63305 0
M  V30 7885 H 752.334 2.46539 1.70407 0
M  V30 7886 H 749.895 1.40917 0.79712 0
M  V30 7887 H 751.887 1.16502 3.87569 0
M  V30 7888 H 750.457 0.44551 3.09409 0
M  V30 7889 H 749.677 2.8956 2.67486 0
M  V30 7890 H 750.965 3.40441 3.78124 0
M  V30 7891 H 750.363 0.795023 5.60086 0
M  V30 7892 H 748.92 1.29496 6.38807 0
M  V30 7893 N 752.353 -0.854086 1.3245 0
M  V30 7894 C 753.599 -1.61069 1.23225 0
M  V30 7895 C 753.932 -1.93111 -0.205349 0
M  V30 7896 O 753.207 -1.57397 -1.14265 0
M  V30 7897 C 753.49 -2.93065 2.09249 0
M  V30 7898 C 753.343 -2.67801 3.6139 0
M  V30 7899 C 754.662 -3.94341 1.95406 0
M  V30 7900 H 751.781 -0.584449 0.448986 0
M  V30 7901 H 754.423 -0.986189 1.62402 0
M  V30 7902 H 752.573 -3.46364 1.75967 0
M  V30 7903 H 754.245 -2.21052 4.04887 0
M  V30 7904 H 752.488 -2.01756 3.84027 0
M  V30 7905 H 753.159 -3.6179 4.16907 0
M  V30 7906 H 755.635 -3.50301 2.24562 0
M  V30 7907 H 754.511 -4.84555 2.57872 0
M  V30 7908 H 754.772 -4.32382 0.921865 0
M  V30 7909 N 753.831 -1.1567 -1.07043 0
M  V30 7910 C 755.242 -0.942408 -1.61169 0
M  V30 7911 C 755.593 0.515537 -1.89306 0
M  V30 7912 O 754.718 1.38726 -1.66084 0
M  V30 7913 C 755.313 -1.70431 -2.92812 0
M  V30 7914 C 753.872 -1.53521 -3.43669 0
M  V30 7915 C 753.019 -1.7179 -2.17678 0
M  V30 7916 H 755.97 -1.3065 -0.9009 0
M  V30 7917 H 755.991 -1.17566 -3.61882 0
M  V30 7918 H 755.503 -2.76538 -2.72302 0
M  V30 7919 H 753.604 -0.498224 -3.69254 0
M  V30 7920 H 753.717 -2.31422 -4.19501 0
M  V30 7921 H 752.081 -1.14468 -2.27529 0
M  V30 7922 H 752.864 -2.79269 -1.99659 0
M  V30 7923 N 755.309 1.25446 -0.953992 0
M  V30 7924 C 756.556 1.93143 -0.608429 0
M  V30 7925 C 756.884 1.74727 0.854451 0
M  V30 7926 O 756.139 1.0855 1.62836 0
M  V30 7927 C 756.438 3.45555 -0.912496 0
M  V30 7928 C 756.104 3.84126 -2.36131 0
M  V30 7929 C 754.766 3.94367 -2.75732 0
M  V30 7930 C 757.118 4.0324 -3.30223 0
M  V30 7931 C 754.446 4.21127 -4.08496 0
M  V30 7932 C 756.798 4.31493 -4.62598 0
M  V30 7933 C 755.462 4.3995 -5.01996 0
M  V30 7934 H 754.732 0.706762 -0.22264 0
M  V30 7935 H 757.379 1.49005 -1.20291 0
M  V30 7936 H 755.684 3.91091 -0.235618 0
M  V30 7937 H 757.381 3.9612 -0.623714 0
M  V30 7938 H 753.971 3.76711 -2.04418 0
M  V30 7939 H 758.155 3.94744 -3.00817 0
M  V30 7940 H 753.411 4.2589 -4.38665 0
M  V30 7941 H 757.585 4.45227 -5.35486 0
M  V30 7942 H 755.212 4.60439 -6.04896 0
M  V30 7943 N 756.787 0.722489 1.40064 0
M  V30 7944 C 758.064 0.191829 1.94657 0
M  V30 7945 C 758.444 -1.30389 1.66018 0
M  V30 7946 O 757.792 -2.06342 0.981588 0
M  V30 7947 C 758.002 0.511978 3.45224 0
M  V30 7948 C 759.35 0.454426 4.22161 0
M  V30 7949 O 760.374 0.448438 3.53366 0
M  V30 7950 O 759.233 0.437986 5.44742 0
M  V30 7951 H 756.327 0.0307821 0.826427 0
M  V30 7952 H 758.873 0.800493 1.49634 0
M  V30 7953 H 757.645 1.54622 3.59455 0
M  V30 7954 H 757.268 -0.126296 3.97399 0
M  V30 7955 N 758.265 -1.50454 0.469181 0
M  V30 7956 C 759.513 -2.01916 -0.0862982 0
M  V30 7957 C 759.834 -1.35337 -1.40388 0
M  V30 7958 O 759.104 -0.498096 -1.89462 0
M  V30 7959 H 757.684 -0.746185 -0.0348825 0
M  V30 7960 H 760.346 -1.84804 0.619167 0
M  V30 7961 H 759.442 -3.11182 -0.239189 0
M  V30 7962 N 759.743 -0.201713 -1.56304 0
M  V30 7963 C 760.676 0.755976 -2.15314 0
M  V30 7964 C 761.654 1.20497 -1.09175 0
M  V30 7965 O 762.838 1.2913 -1.37323 0
M  V30 7966 C 759.965 2.02177 -2.71739 0
M  V30 7967 C 759.011 1.71436 -3.90528 0
M  V30 7968 S 759.844 0.856624 -5.28604 0
M  V30 7969 C 761 2.13242 -5.88455 0
M  V30 7970 H 761.233 0.254348 -2.9621 0
M  V30 7971 H 758.766 0.0133669 -1.54394 0
M  V30 7972 H 760.724 2.74867 -3.04891 0
M  V30 7973 H 759.385 2.49452 -1.90873 0
M  V30 7974 H 758.578 2.65433 -4.28441 0
M  V30 7975 H 758.18 1.06823 -3.5842 0
M  V30 7976 H 760.472 3.08435 -6.0322 0
M  V30 7977 H 761.415 1.7975 -6.84905 0
M  V30 7978 H 761.823 2.2639 -5.17115 0
M  V30 7979 N 761.222 1.57436 0.0718424 0
M  V30 7980 C 762.468 1.88388 0.766904 0
M  V30 7981 C 762.823 0.7954 1.75189 0
M  V30 7982 O 762.116 -0.200438 1.90549 0
M  V30 7983 C 762.31 3.23723 1.51455 0
M  V30 7984 C 762.139 4.45632 0.603475 0
M  V30 7985 C 760.909 5.04728 0.240437 0
M  V30 7986 C 763.107 5.14203 -0.0997624 0
M  V30 7987 N 761.089 6.10163 -0.676363 0
M  V30 7988 C 762.46 6.13812 -0.873755 0
M  V30 7989 C 764.515 4.97605 -0.171238 0
M  V30 7990 C 763.218 6.98615 -1.71258 0
M  V30 7991 C 765.244 5.82935 -0.997041 0
M  V30 7992 C 764.606 6.82082 -1.75908 0
M  V30 7993 H 760.705 0.738888 0.256064 0
M  V30 7994 H 763.289 1.94679 0.0284273 0
M  V30 7995 H 761.46 3.1844 2.22375 0
M  V30 7996 H 763.192 3.42324 2.15862 0
M  V30 7997 H 759.947 4.69869 0.593284 0
M  V30 7998 H 760.371 6.67537 -1.12801 0
M  V30 7999 H 765.013 4.20869 0.403586 0
M  V30 8000 H 762.731 7.74726 -2.29838 0
M  V30 8001 H 766.317 5.72149 -1.05532 0
M  V30 8002 H 765.197 7.46964 -2.38778 0
M  V30 8003 N 762.7 -0.34323 1.53817 0
M  V30 8004 C 763.949 -1.08086 1.70295 0
M  V30 8005 C 764.262 -1.89794 0.47302 0
M  V30 8006 O 765.468 -2.66498 0.518754 0
M  V30 8007 C 763.924 -1.97097 3.01133 0
M  V30 8008 C 763.532 -1.20594 4.31464 0
M  V30 8009 C 765.276 -2.70715 3.26976 0
M  V30 8010 C 763.183 -2.08636 5.53376 0
M  V30 8011 H 762.113 -0.407228 0.634572 0
M  V30 8012 H 764.764 -0.340328 1.80316 0
M  V30 8013 H 763.146 -2.74971 2.84969 0
M  V30 8014 H 764.32 -0.476282 4.58332 0
M  V30 8015 H 762.635 -0.587426 4.12236 0
M  V30 8016 H 765.232 -3.36857 4.15248 0
M  V30 8017 H 765.575 -3.37299 2.43998 0
M  V30 8018 H 766.108 -1.99914 3.43917 0
M  V30 8019 H 762.847 -1.46594 6.38898 0
M  V30 8020 H 762.367 -2.7939 5.30755 0
M  V30 8021 H 764.046 -2.67682 5.89029 0
M  V30 8022 N 764.178 -1.45556 -0.604258 0
M  V30 8023 C 765.455 -1.40221 -1.36373 0
M  V30 8024 C 765.835 -0.0745195 -2.10968 0
M  V30 8025 O 765.183 0.943594 -2.08107 0
M  V30 8026 C 765.393 -2.61807 -2.30777 0
M  V30 8027 C 766.741 -3.07037 -2.93281 0
M  V30 8028 O 767.765 -2.62203 -2.41097 0
M  V30 8029 O 766.624 -3.8485 -3.88011 0
M  V30 8030 H 763.718 -0.556602 -0.611656 0
M  V30 8031 H 766.264 -1.57689 -0.627069 0
M  V30 8032 H 765.036 -3.50017 -1.74939 0
M  V30 8033 H 764.659 -2.46688 -3.11818 0
M  V30 8034 N 765.656 0.84705 -1.32902 0
M  V30 8035 C 766.589 1.96038 -1.1681 0
M  V30 8036 C 767.567 1.62468 -0.0656144 0
M  V30 8037 O 768.751 1.87136 -0.226339 0
M  V30 8038 C 765.878 3.29362 -0.789839 0
M  V30 8039 C 764.924 3.81908 -1.89865 0
M  V30 8040 S 765.757 4.04576 -3.50826 0
M  V30 8041 C 766.913 5.40863 -3.14989 0
M  V30 8042 H 767.146 2.09387 -2.11055 0
M  V30 8043 H 764.679 0.999896 -1.1765 0
M  V30 8044 H 766.637 4.06405 -0.578369 0
M  V30 8045 H 765.298 3.13815 0.133878 0
M  V30 8046 H 764.491 4.78357 -1.58716 0
M  V30 8047 H 764.093 3.11733 -2.06636 0
M  V30 8048 H 766.385 6.23393 -2.65306 0
M  V30 8049 H 767.328 5.7698 -4.10488 0
M  V30 8050 H 767.736 5.05228 -2.51804 0
M  V30 8051 N 767.134 1.16236 1.06428 0
M  V30 8052 C 768.082 0.863669 2.15971 0
M  V30 8053 C 769.076 -0.166723 1.68578 0
M  V30 8054 O 770.282 -0.0208425 1.79988 0
M  V30 8055 H 766.657 0.261684 0.705 0
M  V30 8056 H 768.628 1.79498 2.38376 0
M  V30 8057 C 767.377 0.379697 3.45621 0
M  V30 8058 H 766.7 1.16399 3.82481 0
M  V30 8059 H 768.14 0.209458 4.23482 0
M  V30 8060 C 766.599 -0.900499 3.24642 0
M  V30 8061 O 767.129 -1.97004 3.50074 0
M  V30 8062 N 765.335 -0.843721 2.78082 0
M  V30 8063 H 764.882 0.0268429 2.57586 0
M  V30 8064 H 764.84 -1.70078 2.64425 0
M  V30 8065 N 768.612 -1.24939 0.960631 0
M  V30 8066 C 769.522 -2.29374 0.492435 0
M  V30 8067 C 770.538 -1.68262 -0.443154 0
M  V30 8068 O 771.714 -1.98875 -0.31793 0
M  V30 8069 C 768.779 -3.46023 -0.216626 0
M  V30 8070 C 767.84 -4.22557 0.757915 0
M  V30 8071 C 767.073 -5.33636 0.0825969 0
M  V30 8072 O 767.296 -5.59084 -1.13054 0
M  V30 8073 O 766.23 -5.96939 0.771177 0
M  V30 8074 H 770.056 -2.71525 1.36044 0
M  V30 8075 H 767.641 -1.30499 0.72735 0
M  V30 8076 H 769.523 -4.16885 -0.615241 0
M  V30 8077 H 768.198 -3.05862 -1.05971 0
M  V30 8078 H 767.105 -3.54099 1.20685 0
M  V30 8079 H 768.438 -4.66516 1.5692 0
M  V30 8080 N 770.09 -0.729906 -1.39679 0
M  V30 8081 C 771.501 -0.346241 -1.83461 0
M  V30 8082 C 771.852 1.1215 -1.60987 0
M  V30 8083 O 770.977 1.86456 -1.09832 0
M  V30 8084 C 771.572 -0.621656 -3.33048 0
M  V30 8085 C 770.131 -0.291543 -3.75269 0
M  V30 8086 C 769.278 -0.886844 -2.62736 0
M  V30 8087 H 772.229 -0.927949 -1.28743 0
M  V30 8088 H 772.25 0.108301 -3.80346 0
M  V30 8089 H 771.762 -1.68996 -3.49373 0
M  V30 8090 H 769.863 0.771133 -3.64533 0
M  V30 8091 H 769.976 -0.770544 -4.72863 0
M  V30 8092 H 768.34 -0.313839 -2.52759 0
M  V30 8093 H 769.123 -1.95971 -2.81869 0
M  V30 8094 N 771.568 1.50203 -0.477153 0
M  V30 8095 C 772.793 2.07263 0.0754986 0
M  V30 8096 C 773.218 1.33801 1.32208 0
M  V30 8097 O 772.576 0.387482 1.77111 0
M  V30 8098 C 772.624 3.59028 0.336348 0
M  V30 8099 O 771.728 3.87339 1.4157 0
M  V30 8100 H 771.069 0.663815 -0.015662 0
M  V30 8101 H 773.599 1.93321 -0.669936 0
M  V30 8102 H 773.609 4.03927 0.575034 0
M  V30 8103 H 772.284 4.11912 -0.574551 0
M  V30 8104 H 770.861 3.54272 1.16385 0
M  V30 8105 N 773.046 0.209999 1.56195 0
M  V30 8106 C 773.994 -0.721416 2.2113 0
M  V30 8107 C 774.988 -1.20852 1.18706 0
M  V30 8108 O 776.194 -1.16968 1.36815 0
M  V30 8109 H 772.569 -0.251033 0.708863 0
M  V30 8110 H 774.54 -0.150193 2.98022 0
M  V30 8111 C 773.289 -1.92392 2.89621 0
M  V30 8112 H 772.612 -1.5582 3.68185 0
M  V30 8113 H 774.052 -2.55367 3.38473 0
M  V30 8114 C 772.511 -2.77208 1.91461 0
M  V30 8115 O 773.041 -3.75603 1.42426 0
M  V30 8116 N 771.247 -2.43006 1.59363 0
M  V30 8117 H 770.794 -1.63047 1.99433 0
M  V30 8118 H 770.752 -3.00036 0.939449 0
M  V30 8119 N 774.524 -1.57472 -0.0634922 0
M  V30 8120 C 775.771 -1.87654 -0.761066 0
M  V30 8121 C 776.099 -0.802847 -1.77157 0
M  V30 8122 O 775.354 0.200244 -1.94673 0
M  V30 8123 C 775.653 -3.24521 -1.49736 0
M  V30 8124 C 775.319 -4.46532 -0.626065 0
M  V30 8125 C 773.981 -4.7965 -0.385978 0
M  V30 8126 C 776.333 -5.21195 -0.0224001 0
M  V30 8127 C 773.661 -5.84837 0.467118 0
M  V30 8128 C 776.013 -6.27286 0.818198 0
M  V30 8129 C 774.677 -6.58899 1.06808 0
M  V30 8130 H 773.947 -0.686675 -0.278494 0
M  V30 8131 H 776.594 -1.91488 -0.0216348 0
M  V30 8132 H 774.899 -3.16516 -2.30921 0
M  V30 8133 H 776.596 -3.45111 -2.04204 0
M  V30 8134 H 773.186 -4.20618 -0.823325 0
M  V30 8135 H 777.37 -4.95917 -0.194985 0
M  V30 8136 H 772.626 -6.07725 0.669375 0
M  V30 8137 H 776.8 -6.84298 1.29265 0
M  V30 8138 H 774.427 -7.40233 1.73088 0
M  V30 8139 N 776.003 0.335068 -1.53997 0
M  V30 8140 C 777.252 1.07182 -1.70865 0
M  V30 8141 C 777.565 1.89541 -0.483078 0
M  V30 8142 O 778.771 2.66219 -0.532879 0
M  V30 8143 C 777.227 1.95497 -3.02174 0
M  V30 8144 C 776.835 1.18304 -4.32097 0
M  V30 8145 C 778.579 2.68978 -3.28407 0
M  V30 8146 C 776.486 2.05699 -5.54474 0
M  V30 8147 H 775.416 0.403857 -0.636722 0
M  V30 8148 H 778.067 0.33076 -1.80494 0
M  V30 8149 H 776.449 2.73456 -2.86423 0
M  V30 8150 H 777.623 0.451969 -4.58578 0
M  V30 8151 H 775.938 0.565556 -4.12541 0
M  V30 8152 H 778.535 3.34651 -4.17029 0
M  V30 8153 H 778.878 3.36 -2.45784 0
M  V30 8154 H 779.411 1.98087 -3.44973 0
M  V30 8155 H 776.15 1.43204 -6.39666 0
M  V30 8156 H 775.67 2.76572 -5.32229 0
M  V30 8157 H 777.349 2.64554 -5.90441 0
M  V30 8158 N 777.481 1.45874 0.596531 0
M  V30 8159 C 778.897 1.30524 0.918459 0
M  V30 8160 C 779.097 0.266429 1.99731 0
M  V30 8161 O 778.153 -0.335809 2.50257 0
M  V30 8162 C 779.466 2.68747 1.3489 0
M  V30 8163 C 781.014 2.7673 1.46251 0
M  V30 8164 C 781.489 4.15504 1.92667 0
M  V30 8165 N 782.98 4.17853 1.99883 0
M  V30 8166 C 783.715 5.22109 2.37044 0
M  V30 8167 N 783.211 6.36704 2.73094 0
M  V30 8168 N 785.004 5.09471 2.37479 0
M  V30 8169 H 777.155 2.12081 -0.116368 0
M  V30 8170 H 779.418 0.947941 0.0106033 0
M  V30 8171 H 779.124 3.46006 0.630288 0
M  V30 8172 H 778.998 2.97942 2.31323 0
M  V30 8173 H 781.385 1.99768 2.17202 0
M  V30 8174 H 781.466 2.51236 0.481054 0
M  V30 8175 H 781.11 4.92956 1.223 0
M  V30 8176 H 781.04 4.38396 2.91747 0
M  V30 8177 H 783.531 3.35163 1.74568 0
M  V30 8178 H 783.844 7.12041 3.00362 0
M  V30 8179 H 782.189 6.40087 2.70764 0
M  V30 8180 H 785.38 4.18987 2.08728 0
M  V30 8181 H 785.553 5.90837 2.66112 0
M  V30 8182 N 778.959 -0.83999 1.33349 0
M  V30 8183 C 780.207 -1.59202 1.24496 0
M  V30 8184 C 780.528 -1.94077 -0.189499 0
M  V30 8185 O 779.798 -1.60868 -1.11796 0
M  V30 8186 H 778.378 -0.590276 0.457802 0
M  V30 8187 H 781.04 -1.00394 1.67054 0
M  V30 8188 H 780.136 -2.52247 1.83788 0
M  V30 8189 N 780.437 -1.16799 -1.0581 0
M  V30 8190 C 781.662 -0.977402 -1.82925 0
M  V30 8191 C 782.087 0.469514 -1.82146 0
M  V30 8192 O 781.445 1.33576 -1.22585 0
M  V30 8193 C 781.493 -1.51543 -3.27211 0
M  V30 8194 O 780.597 -0.725021 -4.05977 0
M  V30 8195 H 779.938 -0.347474 -0.565825 0
M  V30 8196 H 782.468 -1.55151 -1.33376 0
M  V30 8197 H 782.478 -1.53502 -3.78023 0
M  V30 8198 H 781.153 -2.56872 -3.27093 0
M  V30 8199 H 779.73 -0.77634 -3.64729 0
M  V30 8200 N 781.915 1.24427 -0.967243 0
M  V30 8201 C 782.825 2.29109 -0.504592 0
M  V30 8202 C 783.841 1.68495 0.434224 0
M  V30 8203 O 785.017 1.99041 0.307379 0
M  V30 8204 C 782.082 3.46133 0.198273 0
M  V30 8205 C 781.143 4.22149 -0.780313 0
M  V30 8206 C 780.376 5.33585 -0.110896 0
M  V30 8207 O 780.599 5.59676 1.10088 0
M  V30 8208 O 779.533 5.96522 -0.802823 0
M  V30 8209 H 783.359 2.708 -1.37482 0
M  V30 8210 H 780.944 1.30111 -0.73426 0
M  V30 8211 H 782.826 4.17205 0.593124 0
M  V30 8212 H 781.501 3.0642 1.04347 0
M  V30 8213 H 780.408 3.53454 -1.22561 0
M  V30 8214 H 781.741 4.65677 -1.59392 0
M  V30 8215 N 783.393 0.737304 1.3929 0
M  V30 8216 C 784.67 0.212464 1.94443 0
M  V30 8217 C 785.05 -1.28621 1.67391 0
M  V30 8218 O 784.398 -2.0529 1.00342 0
M  V30 8219 C 784.608 0.548565 3.44662 0
M  V30 8220 C 785.956 0.499177 4.21656 0
M  V30 8221 O 786.98 0.485892 3.5287 0
M  V30 8222 O 785.839 0.495739 5.44247 0
M  V30 8223 H 782.933 0.0395457 0.826054 0
M  V30 8224 H 785.479 0.816319 1.48776 0
M  V30 8225 H 784.251 1.58426 3.57795 0
M  V30 8226 H 783.874 -0.0841399 3.97511 0
M  V30 8227 N 784.871 -1.49948 0.485112 0
M  V30 8228 C 786.119 -2.01996 -0.0648775 0
M  V30 8229 C 786.44 -1.36819 -1.38945 0
M  V30 8230 O 785.71 -0.518163 -1.88923 0
M  V30 8231 H 784.29 -0.746513 -0.0269662 0
M  V30 8232 H 786.952 -1.84136 0.638733 0
M  V30 8233 H 786.048 -3.11418 -0.20617 0
M  V30 8234 N 786.349 -0.21828 -1.56081 0
M  V30 8235 C 787.589 0.416193 -2.00118 0
M  V30 8236 C 787.953 1.5718 -1.10265 0
M  V30 8237 O 789.154 2.27206 -1.43635 0
M  V30 8238 C 787.425 0.842781 -3.47321 0
M  V30 8239 S 788.984 1.47182 -4.1338 0
M  V30 8240 H 785.802 0.132219 -0.698598 0
M  V30 8241 H 788.404 -0.326799 -1.92749 0
M  V30 8242 H 787.108 -0.00799925 -4.10399 0
M  V30 8243 H 786.639 1.61867 -3.58556 0
M  V30 8244 H 788.654 2.76087 -4.12299 0
M  V30 8245 N 787.827 1.57504 0.0551401 0
M  V30 8246 C 789.238 1.76626 0.604979 0
M  V30 8247 C 789.589 0.845978 1.77024 0
M  V30 8248 O 788.714 0.0341936 2.16373 0
M  V30 8249 C 789.309 3.203 1.10425 0
M  V30 8250 C 787.868 3.4071 1.59981 0
M  V30 8251 C 787.015 2.72258 0.526414 0
M  V30 8252 H 789.966 1.57775 -0.171072 0
M  V30 8253 H 789.987 3.25377 1.97256 0
M  V30 8254 H 789.499 3.87255 0.255939 0
M  V30 8255 H 787.6 2.78892 2.47083 0
M  V30 8256 H 787.713 4.49227 1.66528 0
M  V30 8257 H 786.077 2.35283 0.97539 0
M  V30 8258 H 786.86 3.41879 -0.311991 0
M  V30 8259 N 789.305 -0.326896 1.54172 0
M  V30 8260 C 790.253 -1.42232 1.84046 0
M  V30 8261 C 791.247 -1.53705 0.712115 0
M  V30 8262 O 792.453 -1.56131 0.895724 0
M  V30 8263 H 788.828 -0.474568 0.583343 0
M  V30 8264 H 790.799 -1.14259 2.75658 0
M  V30 8265 C 789.548 -2.78502 2.08163 0
M  V30 8266 H 788.871 -2.70447 2.94446 0
M  V30 8267 H 790.311 -3.54228 2.33021 0
M  V30 8268 C 788.77 -3.25415 0.872152 0
M  V30 8269 O 789.3 -4.01621 0.0797648 0
M  V30 8270 N 787.506 -2.82418 0.684716 0
M  V30 8271 H 787.053 -2.20566 1.33072 0
M  V30 8272 H 787.011 -3.14159 -0.123031 0
M  V30 8273 N 790.784 -1.46188 -0.588786 0
M  V30 8274 C 791.732 -1.56653 -1.71938 0
M  V30 8275 C 792.726 -0.435354 -1.6371 0
M  V30 8276 O 793.932 -0.611996 -1.69277 0
M  V30 8277 H 790.307 -0.492408 -0.568365 0
M  V30 8278 H 792.278 -2.51724 -1.60242 0
M  V30 8279 C 791.027 -1.56822 -3.10326 0
M  V30 8280 H 790.35 -2.43198 -3.17325 0
M  V30 8281 H 791.79 -1.68199 -3.89211 0
M  V30 8282 C 790.249 -0.295802 -3.35599 0
M  V30 8283 O 790.779 0.616515 -3.96941 0
M  V30 8284 N 788.985 -0.185609 -2.90007 0
M  V30 8285 H 788.532 -0.928914 -2.40269 0
M  V30 8286 H 788.49 0.664883 -3.07289 0
M  V30 8287 N 792.262 0.832906 -1.33792 0
M  V30 8288 C 793.172 1.97514 -1.26592 0
M  V30 8289 C 794.188 1.73114 -0.175391 0
M  V30 8290 O 795.364 1.97387 -0.400062 0
M  V30 8291 C 792.429 3.31625 -1.01121 0
M  V30 8292 C 791.49 3.69101 -2.19233 0
M  V30 8293 C 790.723 4.96813 -1.94968 0
M  V30 8294 O 790.946 5.63208 -0.902955 0
M  V30 8295 O 789.88 5.31932 -2.8166 0
M  V30 8296 H 793.706 2.0653 -2.22664 0
M  V30 8297 H 791.291 0.966826 -1.13898 0
M  V30 8298 H 793.173 4.11968 -0.886571 0
M  V30 8299 H 791.848 3.23599 -0.080822 0
M  V30 8300 H 790.755 2.89243 -2.37253 0
M  V30 8301 H 792.088 3.818 -3.10628 0
M  V30 8302 N 793.74 1.17359 1.05189 0
M  V30 8303 C 794.67 0.91365 2.14883 0
M  V30 8304 C 795.651 -0.144365 1.69486 0
M  V30 8305 O 796.836 0.00587861 1.94199 0
M  V30 8306 C 793.966 0.426196 3.44675 0
M  V30 8307 C 792.92 1.4234 4.03638 0
M  V30 8308 C 792.246 0.793902 5.28773 0
M  V30 8309 C 793.546 2.7966 4.41121 0
M  V30 8310 H 795.24 1.831 2.36885 0
M  V30 8311 H 792.786 0.881781 1.13845 0
M  V30 8312 H 794.739 0.231767 4.20762 0
M  V30 8313 H 793.463 -0.526693 3.22325 0
M  V30 8314 H 792.122 1.60457 3.2962 0
M  V30 8315 H 791.77 -0.165824 5.02727 0
M  V30 8316 H 791.47 1.45959 5.69183 0
M  V30 8317 H 792.994 0.609747 6.07548 0
M  V30 8318 H 794.408 2.6526 5.08242 0
M  V30 8319 H 792.805 3.42807 4.92548 0
M  V30 8320 H 793.875 3.34068 3.51464 0
M  V30 8321 N 795.218 -1.23913 0.973828 0
M  V30 8322 C 796.128 -2.28838 0.516735 0
M  V30 8323 C 797.144 -1.68723 -0.425282 0
M  V30 8324 O 798.32 -1.99201 -0.296819 0
M  V30 8325 C 795.385 -3.46233 -0.179914 0
M  V30 8326 C 794.446 -4.21729 0.80269 0
M  V30 8327 C 793.679 -5.33518 0.139191 0
M  V30 8328 O 793.902 -5.60252 -1.07118 0
M  V30 8329 O 792.836 -5.96088 0.834447 0
M  V30 8330 H 796.662 -2.70067 1.38916 0
M  V30 8331 H 794.247 -1.2972 0.74115 0
M  V30 8332 H 796.129 -4.17514 -0.570991 0
M  V30 8333 H 794.804 -3.06969 -1.02721 0
M  V30 8334 H 793.711 -3.52799 1.24434 0
M  V30 8335 H 795.044 -4.64825 1.61859 0
M  V30 8336 N 796.696 -0.74468 -1.38897 0
M  V30 8337 C 797.644 -0.100312 -2.32384 0
M  V30 8338 C 798.638 0.715191 -1.53562 0
M  V30 8339 O 799.844 0.615288 -1.69157 0
M  V30 8340 H 796.219 -0.0136403 -0.751876 0
M  V30 8341 H 798.19 -0.905007 -2.84345 0
M  V30 8342 C 796.939 0.785432 -3.38713 0
M  V30 8343 H 796.262 0.167308 -3.9945 0
M  V30 8344 H 797.702 1.20374 -4.06554 0
M  V30 8345 C 796.161 1.92408 -2.76552 0
M  V30 8346 O 796.691 3.01752 -2.65157 0
M  V30 8347 N 794.897 1.71642 -2.34494 0
M  V30 8348 H 794.444 0.827079 -2.43961 0
M  V30 8349 H 794.402 2.48 -1.93244 0
M  V30 8350 N 798.174 1.49689 -0.493057 0
M  V30 8351 C 799.585 1.8665 -0.0433032 0
M  V30 8352 C 799.936 1.40607 1.36836 0
M  V30 8353 O 799.061 0.780503 2.01834 0
M  V30 8354 C 799.656 3.38724 -0.0718069 0
M  V30 8355 C 798.215 3.75015 0.32257 0
M  V30 8356 C 797.362 2.7366 -0.4478 0
M  V30 8357 H 800.313 1.42119 -0.706246 0
M  V30 8358 H 800.334 3.73522 0.725347 0
M  V30 8359 H 799.846 3.72204 -1.09935 0
M  V30 8360 H 797.947 3.47142 1.35364 0
M  V30 8361 H 798.06 4.79099 0.00864259 0
M  V30 8362 H 796.424 2.54498 0.101354 0
M  V30 8363 H 797.207 3.09985 -1.47527 0
M  V30 8364 N 799.652 0.226554 1.55963 0
M  V30 8365 C 801.063 -0.280381 1.84583 0
M  V30 8366 C 801.414 -1.59105 1.14804 0
M  V30 8367 O 800.539 -2.12297 0.419414 0
M  V30 8368 C 801.134 -0.515499 3.34855 0
M  V30 8369 C 799.693 -0.966733 3.63774 0
M  V30 8370 C 798.84 -0.0325753 2.77281 0
M  V30 8371 H 801.791 0.449626 1.52197 0
M  V30 8372 H 801.812 -1.36085 3.55332 0
M  V30 8373 H 801.324 0.438594 3.85614 0
M  V30 8374 H 799.425 -1.93401 3.18476 0
M  V30 8375 H 799.538 -0.837679 4.7172 0
M  V30 8376 H 797.902 -0.540279 2.48904 0
M  V30 8377 H 798.685 0.916524 3.30839 0
M  V30 8378 N 801.13 -1.57531 -0.0467866 0
M  V30 8379 C 802.36 -1.92417 -0.752279 0
M  V30 8380 C 802.768 -0.823134 -1.70356 0
M  V30 8381 O 802.111 0.210598 -1.82489 0
M  V30 8382 C 802.173 -3.22974 -1.57887 0
M  V30 8383 C 801.837 -4.50045 -0.794285 0
M  V30 8384 C 802.834 -5.19799 -0.102368 0
M  V30 8385 C 800.519 -4.96608 -0.754061 0
M  V30 8386 C 802.513 -6.34385 0.619267 0
M  V30 8387 C 800.2 -6.11093 -0.0286682 0
M  V30 8388 C 801.198 -6.79835 0.656772 0
M  V30 8389 O 800.886 -7.92133 1.37042 0
M  V30 8390 H 800.618 -0.640029 -0.217576 0
M  V30 8391 H 803.172 -2.05395 -0.0137438 0
M  V30 8392 H 801.402 -3.06273 -2.3608 0
M  V30 8393 H 803.091 -3.43319 -2.16533 0
M  V30 8394 H 803.857 -4.8484 -0.124589 0
M  V30 8395 H 799.736 -4.42958 -1.27706 0
M  V30 8396 H 803.28 -6.87975 1.15483 0
M  V30 8397 H 799.177 -6.455 -0.00446214 0
M  V30 8398 H 799.945 -8.08394 1.28227 0
M  V30 8399 N 802.608 0.318715 -1.54344 0
M  V30 8400 C 803.854 1.05765 -1.73037 0
M  V30 8401 C 804.187 1.87514 -0.505181 0
M  V30 8402 O 803.462 1.88021 0.497838 0
M  V30 8403 C 803.745 1.97836 -3.00887 0
M  V30 8404 C 803.598 1.19384 -4.33668 0
M  V30 8405 C 804.917 2.97285 -3.24514 0
M  V30 8406 H 802.036 0.383104 -0.629603 0
M  V30 8407 H 804.678 0.333864 -1.87044 0
M  V30 8408 H 802.828 2.59552 -2.89076 0
M  V30 8409 H 804.5 0.600906 -4.57369 0
M  V30 8410 H 802.743 0.496198 -4.30953 0
M  V30 8411 H 803.414 1.87014 -5.19355 0
M  V30 8412 H 805.89 2.45693 -3.35819 0
M  V30 8413 H 804.766 3.58887 -4.15321 0
M  V30 8414 H 805.027 3.70003 -2.41971 0
M  V30 8415 N 804.086 1.46499 0.581025 0
M  V30 8416 C 805.497 1.4604 1.16315 0
M  V30 8417 C 805.848 0.202154 1.95156 0
M  V30 8418 O 804.973 -0.694638 2.04948 0
M  V30 8419 C 805.568 2.64593 2.11604 0
M  V30 8420 C 804.127 2.6717 2.65136 0
M  V30 8421 C 803.274 2.38753 1.4104 0
M  V30 8422 H 806.225 1.54354 0.368871 0
M  V30 8423 H 806.246 2.40207 2.95095 0
M  V30 8424 H 805.758 3.56154 1.54194 0
M  V30 8425 H 803.859 1.79685 3.26411 0
M  V30 8426 H 803.972 3.67182 3.07757 0
M  V30 8427 H 802.336 1.88845 1.70908 0
M  V30 8428 H 803.119 3.32493 0.854588 0
M  V30 8429 N 805.565 -0.825799 1.34232 0
M  V30 8430 C 806.813 -1.57873 1.26177 0
M  V30 8431 C 807.134 -1.94267 -0.168904 0
M  V30 8432 O 806.404 -1.62045 -1.10084 0
M  V30 8433 H 804.984 -0.585388 0.464037 0
M  V30 8434 H 807.646 -0.986163 1.6811 0
M  V30 8435 H 806.742 -2.50283 1.86453 0
M  V30 8436 N 807.043 -1.17915 -1.04565 0
M  V30 8437 C 808.289 -0.972863 -1.77942 0
M  V30 8438 C 808.622 0.496753 -1.87739 0
M  V30 8439 O 807.897 1.3688 -1.38181 0
M  V30 8440 C 808.18 -1.62227 -3.21488 0
M  V30 8441 C 808.033 -3.16441 -3.19664 0
M  V30 8442 C 809.352 -1.33137 -4.19479 0
M  V30 8443 H 806.471 -0.354843 -0.645953 0
M  V30 8444 H 809.113 -1.45508 -1.22178 0
M  V30 8445 H 807.263 -1.21224 -3.69103 0
M  V30 8446 H 808.935 -3.66544 -2.80077 0
M  V30 8447 H 807.178 -3.48863 -2.57832 0
M  V30 8448 H 807.849 -3.57012 -4.21006 0
M  V30 8449 H 810.325 -1.68654 -3.80388 0
M  V30 8450 H 809.201 -1.81151 -5.18146 0
M  V30 8451 H 809.462 -0.253319 -4.41374 0
M  V30 8452 N 808.521 1.23394 -0.980386 0
M  V30 8453 C 809.767 1.92094 -0.650223 0
M  V30 8454 C 810.1 1.76309 0.814173 0
M  V30 8455 O 809.375 1.12406 1.5873 0
M  V30 8456 C 809.658 3.44713 -1.04139 0
M  V30 8457 C 809.511 3.69606 -2.56342 0
M  V30 8458 C 810.83 4.36191 -0.585296 0
M  V30 8459 H 807.949 0.697618 -0.237695 0
M  V30 8460 H 810.591 1.45517 -1.22167 0
M  V30 8461 H 808.741 3.84513 -0.55515 0
M  V30 8462 H 810.413 3.39288 -3.1254 0
M  V30 8463 H 808.656 3.14318 -2.98976 0
M  V30 8464 H 809.327 4.76441 -2.78762 0
M  V30 8465 H 811.803 4.03836 -1.00276 0
M  V30 8466 H 810.679 5.41679 -0.887428 0
M  V30 8467 H 810.94 4.39097 0.51438 0
M  V30 8468 N 809.999 0.752036 1.385 0
M  V30 8469 C 811.247 0.306895 1.99756 0
M  V30 8470 C 811.568 -1.11478 1.59992 0
M  V30 8471 O 810.838 -1.76206 0.856045 0
M  V30 8472 H 809.418 0.11048 0.738785 0
M  V30 8473 H 812.08 0.965785 1.69289 0
M  V30 8474 H 811.176 0.368797 3.09913 0
M  V30 8475 N 811.477 -1.49425 0.500989 0
M  V30 8476 C 812.725 -2.02053 -0.0434495 0
M  V30 8477 C 813.046 -1.38285 -1.37486 0
M  V30 8478 O 812.316 -0.538171 -1.88363 0
M  V30 8479 H 810.896 -0.746757 -0.0190469 0
M  V30 8480 H 813.558 -1.83449 0.658227 0
M  V30 8481 H 812.654 -3.11619 -0.173129 0
M  V30 8482 N 812.955 -0.234822 -1.55841 0
M  V30 8483 C 814.183 0.397745 -2.03041 0
M  V30 8484 C 814.598 1.52405 -1.11437 0
M  V30 8485 O 813.955 1.82061 -0.126466 0
M  V30 8486 C 814.006 0.916919 -3.49678 0
M  V30 8487 O 813.727 -0.164493 -4.37791 0
M  V30 8488 C 815.228 1.62139 -4.12584 0
M  V30 8489 H 812.448 0.0959214 -0.664108 0
M  V30 8490 H 814.992 -0.355156 -2.01392 0
M  V30 8491 H 813.147 1.62004 -3.519 0
M  V30 8492 H 813.561 0.227794 -5.24005 0
M  V30 8493 H 815.035 1.93651 -5.16917 0
M  V30 8494 H 815.512 2.53918 -3.58361 0
M  V30 8495 H 816.118 0.963145 -4.14251 0
M  V30 8496 N 814.433 1.57553 0.0384317 0
M  V30 8497 C 815.363 2.0898 1.04161 0
M  V30 8498 C 816.344 0.99029 1.38301 0
M  V30 8499 O 817.529 1.26499 1.47349 0
M  V30 8500 C 814.659 2.56145 2.34536 0
M  V30 8501 C 813.613 3.70275 2.14663 0
M  V30 8502 C 812.939 4.03612 3.50715 0
M  V30 8503 C 814.239 4.99067 1.54045 0
M  V30 8504 H 815.933 2.93046 0.613548 0
M  V30 8505 H 813.479 1.40973 0.293684 0
M  V30 8506 H 815.432 2.90741 3.05037 0
M  V30 8507 H 814.156 1.6915 2.79385 0
M  V30 8508 H 812.815 3.36013 1.46597 0
M  V30 8509 H 812.463 3.13698 3.93195 0
M  V30 8510 H 812.163 4.80482 3.38247 0
M  V30 8511 H 813.687 4.40735 4.22593 0
M  V30 8512 H 815.101 5.3168 2.14451 0
M  V30 8513 H 813.498 5.80484 1.52178 0
M  V30 8514 H 814.568 4.8226 0.505259 0
M  V30 8515 N 815.911 -0.310526 1.54511 0
M  V30 8516 C 816.843 -1.40405 1.8116 0
M  V30 8517 C 817.856 -1.47261 0.694114 0
M  V30 8518 O 819.045 -1.49751 0.971441 0
M  V30 8519 C 816.145 -2.78849 1.92604 0
M  V30 8520 C 815.318 -2.95041 3.22908 0
M  V30 8521 C 814.377 -4.13925 3.24889 0
M  V30 8522 O 813.403 -4.06463 3.98467 0
M  V30 8523 N 814.605 -5.24099 2.496 0
M  V30 8524 H 817.37 -1.17903 2.75534 0
M  V30 8525 H 814.931 -0.500564 1.53967 0
M  V30 8526 H 816.923 -3.5661 1.91342 0
M  V30 8527 H 815.493 -2.94342 1.05268 0
M  V30 8528 H 814.713 -2.04472 3.37023 0
M  V30 8529 H 816.001 -3.02763 4.08916 0
M  V30 8530 H 815.399 -5.33039 1.89435 0
M  V30 8531 H 813.956 -6.0023 2.54102 0
M  V30 8532 N 817.389 -1.46805 -0.573248 0
M  V30 8533 C 818.352 -1.57655 -1.66366 0
M  V30 8534 C 819.352 -0.452905 -1.5429 0
M  V30 8535 O 820.542 -0.717502 -1.58737 0
M  V30 8536 C 817.674 -1.50584 -3.05839 0
M  V30 8537 H 818.867 -2.54842 -1.581 0
M  V30 8538 H 816.42 -1.34756 -0.791868 0
M  V30 8539 H 817.155 -0.547127 -3.19651 0
M  V30 8540 H 816.94 -2.32118 -3.16012 0
M  V30 8541 H 818.43 -1.61282 -3.85199 0
M  V30 8542 N 818.867 0.818669 -1.34668 0
M  V30 8543 C 819.83 1.9114 -1.26483 0
M  V30 8544 C 820.83 1.598 -0.179044 0
M  V30 8545 O 822.02 1.6876 -0.431952 0
M  V30 8546 C 819.152 3.27285 -0.95381 0
M  V30 8547 H 820.345 1.9982 -2.23634 0
M  V30 8548 H 817.898 1.01314 -1.19018 0
M  V30 8549 H 818.633 3.24297 0.0143428 0
M  V30 8550 H 818.418 3.51416 -1.73924 0
M  V30 8551 H 819.908 4.07299 -0.921827 0
M  V30 8552 N 820.346 1.18468 1.03938 0
M  V30 8553 C 821.574 1.00576 1.80809 0
M  V30 8554 C 821.989 -0.445786 1.83462 0
M  V30 8555 O 821.346 -1.30964 1.27101 0
M  V30 8556 C 821.397 1.55491 3.26351 0
M  V30 8557 O 821.118 2.94963 3.23926 0
M  V30 8558 C 822.619 1.42236 4.19862 0
M  V30 8559 H 819.839 0.35508 0.56935 0
M  V30 8560 H 822.383 1.57046 1.30984 0
M  V30 8561 H 820.538 1.03195 3.73403 0
M  V30 8562 H 820.952 3.20598 4.15111 0
M  V30 8563 H 822.426 1.85455 5.19914 0
M  V30 8564 H 822.903 0.371267 4.37628 0
M  V30 8565 H 823.509 1.9361 3.78675 0
M  V30 8566 N 821.824 -1.22873 0.986916 0
M  V30 8567 C 823.073 -1.90772 0.654911 0
M  V30 8568 C 823.386 -1.77768 -0.81595 0
M  V30 8569 O 824.592 -2.40529 -1.25929 0
M  V30 8570 C 823.048 -3.42003 1.12081 0
M  V30 8571 C 822.656 -3.63655 2.61647 0
M  V30 8572 C 824.4 -4.15638 0.862854 0
M  V30 8573 C 822.307 -5.08555 3.01871 0
M  V30 8574 H 821.237 -0.714362 0.241252 0
M  V30 8575 H 823.888 -1.39196 1.19568 0
M  V30 8576 H 822.27 -3.92725 0.508207 0
M  V30 8577 H 823.444 -3.2345 3.28202 0
M  V30 8578 H 821.759 -3.03341 2.8526 0
M  V30 8579 H 824.356 -5.22425 1.13915 0
M  V30 8580 H 824.699 -4.15814 -0.201036 0
M  V30 8581 H 825.232 -3.70924 1.43736 0
M  V30 8582 H 821.971 -5.13514 4.07411 0
M  V30 8583 H 821.491 -5.49684 2.40015 0
M  V30 8584 H 823.17 -5.76936 2.92839 0
M  V30 8585 N 823.302 -0.75937 -1.38099 0
M  V30 8586 C 824.542 -0.323116 -2.0183 0
M  V30 8587 C 824.906 1.07658 -1.58977 0
M  V30 8588 O 826.107 1.61227 -2.1508 0
M  V30 8589 C 824.378 -0.448234 -3.54578 0
M  V30 8590 S 825.937 -0.0954152 -4.38696 0
M  V30 8591 H 822.755 -0.125013 -0.699923 0
M  V30 8592 H 825.357 -0.991262 -1.68506 0
M  V30 8593 H 824.061 -1.46778 -3.83255 0
M  V30 8594 H 823.592 0.236895 -3.92686 0
M  V30 8595 H 825.607 1.11312 -4.83554 0
M  V30 8596 N 824.78 1.49157 -0.508906 0
M  V30 8597 C 825.743 2.27784 0.25434 0
M  V30 8598 C 826.743 1.34132 0.88686 0
M  V30 8599 O 827.933 1.5722 0.750168 0
M  V30 8600 C 825.065 3.12347 1.36573 0
M  V30 8601 H 826.258 2.96718 -0.435714 0
M  V30 8602 H 823.811 1.54052 -0.264128 0
M  V30 8603 H 824.546 2.47997 2.08969 0
M  V30 8604 H 824.331 3.81213 0.917543 0
M  V30 8605 H 825.821 3.71712 1.90315 0
M  V30 8606 N 826.258 0.243083 1.55714 0
M  V30 8607 C 827.483 -0.389944 2.03701 0
M  V30 8608 C 827.908 -1.51025 1.12129 0
M  V30 8609 O 827.266 -1.80944 0.11352 0
M  V30 8610 C 827.314 -0.878649 3.49731 0
M  V30 8611 O 826.418 -1.98851 3.61292 0
M  V30 8612 H 825.759 -0.0855115 0.658471 0
M  V30 8613 H 828.289 0.368023 2.01263 0
M  V30 8614 H 828.299 -1.18287 3.90477 0
M  V30 8615 H 826.974 -0.0588107 4.15858 0
M  V30 8616 H 825.551 -1.68928 3.32442 0
M  V30 8617 N 827.736 -1.57571 -0.0300757 0
M  V30 8618 C 828.961 -1.93879 -0.736601 0
M  V30 8619 C 829.386 -0.842998 -1.68152 0
M  V30 8620 O 828.744 0.20135 -1.80178 0
M  V30 8621 C 828.792 -3.29247 -1.47066 0
M  V30 8622 O 827.896 -3.21426 -2.58378 0
M  V30 8623 H 827.237 -0.633735 -0.198181 0
M  V30 8624 H 829.767 -2.04595 0.0141485 0
M  V30 8625 H 829.777 -3.64113 -1.84081 0
M  V30 8626 H 828.452 -4.08565 -0.77764 0
M  V30 8627 H 827.029 -2.98189 -2.23914 0
M  V30 8628 N 829.214 0.302327 -1.54673 0
M  V30 8629 C 830.164 1.37443 -1.81916 0
M  V30 8630 C 831.148 1.45999 -0.676251 0
M  V30 8631 O 832.34 1.50174 -0.93685 0
M  V30 8632 C 829.469 2.73966 -2.06876 0
M  V30 8633 C 828.555 2.69637 -3.27348 0
M  V30 8634 N 828.946 2.34926 -4.47933 0
M  V30 8635 C 827.244 3.00742 -3.29348 0
M  V30 8636 C 827.945 2.39862 -5.29944 0
M  V30 8637 N 826.921 2.77163 -4.67634 0
M  V30 8638 H 830.723 1.09567 -2.72713 0
M  V30 8639 H 828.237 0.5109 -1.54154 0
M  V30 8640 H 830.234 3.51265 -2.2454 0
M  V30 8641 H 828.894 3.02754 -1.17346 0
M  V30 8642 H 829.905 2.07403 -4.74557 0
M  V30 8643 H 826.582 3.34434 -2.49921 0
M  V30 8644 H 827.972 2.15835 -6.3629 0
M  V30 8645 N 830.692 1.47107 0.565454 0
M  V30 8646 C 831.624 1.55024 1.6882 0
M  V30 8647 C 832.637 0.4371 1.56822 0
M  V30 8648 O 833.826 0.706315 1.63931 0
M  V30 8649 C 830.926 1.43069 3.0722 0
M  V30 8650 C 830.099 2.68807 3.45053 0
M  V30 8651 C 829.158 2.50806 4.62583 0
M  V30 8652 O 828.184 3.24593 4.67577 0
M  V30 8653 N 829.386 1.58093 5.58558 0
M  V30 8654 H 832.151 2.51836 1.62477 0
M  V30 8655 H 829.712 1.43382 0.751885 0
M  V30 8656 H 831.704 1.28773 3.83666 0
M  V30 8657 H 830.274 0.543721 3.07835 0
M  V30 8658 H 829.494 2.97923 2.58138 0
M  V30 8659 H 830.782 3.52298 3.67101 0
M  V30 8660 H 830.18 0.972807 5.57273 0
M  V30 8661 H 828.737 1.49753 6.34364 0
M  V30 8662 N 832.17 -0.811516 1.35101 0
M  V30 8663 C 833.417 -1.56835 1.28098 0
M  V30 8664 C 833.745 -1.93951 -0.14597 0
M  V30 8665 O 833 -1.61173 -1.11004 0
M  V30 8666 C 833.299 -2.87121 2.1283 0
M  V30 8667 C 832.965 -2.69245 3.61688 0
M  V30 8668 C 831.627 -2.64078 4.02264 0
M  V30 8669 C 833.979 -2.52122 4.56162 0
M  V30 8670 C 831.307 -2.39724 5.3549 0
M  V30 8671 C 833.659 -2.29298 5.89581 0
M  V30 8672 C 832.323 -2.2255 6.29307 0
M  V30 8673 H 831.593 -0.5739 0.468742 0
M  V30 8674 H 834.24 -0.93806 1.66951 0
M  V30 8675 H 832.545 -3.54502 1.66841 0
M  V30 8676 H 834.242 -3.44788 2.0475 0
M  V30 8677 H 830.832 -2.74112 3.29485 0
M  V30 8678 H 835.016 -2.5513 4.25702 0
M  V30 8679 H 830.272 -2.32965 5.65276 0
M  V30 8680 H 834.446 -2.15038 6.62368 0
M  V30 8681 H 832.073 -2.0344 7.32473 0
M  V30 8682 N 833.648 -1.19017 -1.03309 0
M  V30 8683 C 834.578 -0.94772 -2.13402 0
M  V30 8684 C 835.559 0.117383 -1.69694 0
M  V30 8685 O 836.744 -0.0367733 -1.94165 0
M  V30 8686 C 833.874 -0.480977 -3.43953 0
M  V30 8687 C 832.828 -1.48743 -4.01322 0
M  V30 8688 C 832.154 -0.877924 -5.27443 0
M  V30 8689 C 833.454 -2.86642 -4.36616 0
M  V30 8690 H 835.148 -1.86846 -2.33942 0
M  V30 8691 H 832.694 -0.899781 -1.12427 0
M  V30 8692 H 834.647 -0.298677 -4.2034 0
M  V30 8693 H 833.371 0.475348 -3.23122 0
M  V30 8694 H 832.03 -1.65681 -3.27025 0
M  V30 8695 H 831.678 0.0858232 -5.02927 0
M  V30 8696 H 831.378 -1.54996 -5.66789 0
M  V30 8697 H 832.902 -0.706326 -6.06501 0
M  V30 8698 H 834.316 -2.73312 -5.03958 0
M  V30 8699 H 832.713 -3.50599 -4.87032 0
M  V30 8700 H 833.783 -3.39617 -3.46105 0
M  V30 8701 N 835.127 1.22348 -0.993418 0
M  V30 8702 C 836.352 1.95666 -0.687727 0
M  V30 8703 C 836.777 1.72883 0.741161 0
M  V30 8704 O 836.135 1.00837 1.50671 0
M  V30 8705 C 836.183 3.46457 -0.99998 0
M  V30 8706 O 835.287 4.12281 -0.0989386 0
M  V30 8707 H 834.628 0.612102 -0.257346 0
M  V30 8708 H 837.158 1.55428 -1.33054 0
M  V30 8709 H 837.168 3.96976 -0.942035 0
M  V30 8710 H 835.843 3.62365 -2.04118 0
M  V30 8711 H 834.42 3.72295 -0.212413 0
M  V30 8712 N 836.605 0.766683 1.37694 0
M  V30 8713 C 837.833 0.339939 2.04088 0
M  V30 8714 C 838.248 -1.03617 1.57826 0
M  V30 8715 O 837.605 -1.6605 0.757214 0
M  V30 8716 C 837.656 0.368269 3.59619 0
M  V30 8717 O 837.377 1.69009 4.04188 0
M  V30 8718 C 838.878 -0.0707053 4.43244 0
M  V30 8719 H 836.098 0.143189 0.655544 0
M  V30 8720 H 838.642 1.03919 1.76128 0
M  V30 8721 H 836.797 -0.282359 3.8637 0
M  V30 8722 H 837.211 1.62523 4.98685 0
M  V30 8723 H 838.685 0.000273538 5.52 0
M  V30 8724 H 839.162 -1.1204 4.24669 0
M  V30 8725 H 839.768 0.551543 4.21709 0
M  V30 8726 N 838.083 -1.48885 0.516809 0
M  V30 8727 C 839.033 -2.26363 -0.272704 0
M  V30 8728 C 840.017 -1.31891 -0.921604 0
M  V30 8729 O 841.209 -1.56514 -0.826589 0
M  V30 8730 C 838.338 -3.16614 -1.32705 0
M  V30 8731 C 837.424 -4.18554 -0.683598 0
M  V30 8732 N 837.815 -5.05308 0.223015 0
M  V30 8733 C 836.113 -4.35931 -0.942351 0
M  V30 8734 C 836.814 -5.7867 0.592918 0
M  V30 8735 N 835.79 -5.43583 -0.042912 0
M  V30 8736 H 839.592 -2.90811 0.424971 0
M  V30 8737 H 837.106 -1.5893 0.333941 0
M  V30 8738 H 839.103 -3.70766 -1.90625 0
M  V30 8739 H 837.763 -2.5372 -2.02624 0
M  V30 8740 H 838.774 -5.14473 0.594818 0
M  V30 8741 H 835.451 -3.84234 -1.6331 0
M  V30 8742 H 836.841 -6.58493 1.33556 0
M  V30 8743 N 839.561 -0.251338 -1.55583 0
M  V30 8744 C 840.791 0.375642 -2.03156 0
M  V30 8745 C 841.199 1.51761 -1.12983 0
M  V30 8746 O 840.542 1.83184 -0.13757 0
M  V30 8747 C 840.604 0.941001 -3.46966 0
M  V30 8748 C 840.268 -0.0692886 -4.56947 0
M  V30 8749 C 841.265 -0.88041 -5.12391 0
M  V30 8750 C 838.95 -0.196661 -5.01915 0
M  V30 8751 C 840.944 -1.80532 -6.11299 0
M  V30 8752 C 838.631 -1.12507 -6.00654 0
M  V30 8753 C 839.629 -1.92792 -6.55225 0
M  V30 8754 O 839.317 -2.84067 -7.52038 0
M  V30 8755 H 839.049 0.0928836 -0.669588 0
M  V30 8756 H 841.603 -0.374115 -2.01964 0
M  V30 8757 H 839.833 1.7404 -3.45322 0
M  V30 8758 H 841.522 1.47853 -3.78014 0
M  V30 8759 H 842.288 -0.792615 -4.78479 0
M  V30 8760 H 838.167 0.418187 -4.59099 0
M  V30 8761 H 841.711 -2.43239 -6.5382 0
M  V30 8762 H 837.608 -1.21377 -6.33986 0
M  V30 8763 H 838.376 -2.78479 -7.6967 0
M  V30 8764 N 841.039 1.57585 0.0217189 0
M  V30 8765 C 841.987 2.08134 1.03842 0
M  V30 8766 C 842.981 0.996662 1.36978 0
M  V30 8767 O 844.187 1.18149 1.35797 0
M  V30 8768 H 840.562 0.664298 0.352438 0
M  V30 8769 H 842.533 2.92583 0.58634 0
M  V30 8770 C 841.282 2.58218 2.32849 0
M  V30 8771 H 840.605 3.41302 2.08214 0
M  V30 8772 H 842.045 2.97289 3.02316 0
M  V30 8773 C 840.504 1.48664 3.02325 0
M  V30 8774 O 841.034 0.857075 3.9245 0
M  V30 8775 N 839.24 1.21938 2.63779 0
M  V30 8776 H 838.787 1.73319 1.90574 0
M  V30 8777 H 838.745 0.488523 3.10581 0
M  V30 8778 N 842.517 -0.29412 1.54831 0
M  V30 8779 C 843.447 -1.36757 1.89261 0
M  V30 8780 C 844.428 -1.52564 0.752214 0
M  V30 8781 O 845.613 -1.65958 1.00855 0
M  V30 8782 C 842.743 -2.73066 2.14597 0
M  V30 8783 C 841.697 -2.72017 3.3044 0
M  V30 8784 C 841.023 -4.11679 3.4121 0
M  V30 8785 C 842.323 -2.33149 4.67375 0
M  V30 8786 H 844.017 -1.08191 2.79169 0
M  V30 8787 H 841.563 -0.519014 1.34321 0
M  V30 8788 H 843.516 -3.48255 2.37269 0
M  V30 8789 H 842.24 -3.03172 1.21467 0
M  V30 8790 H 840.899 -1.99285 3.07703 0
M  V30 8791 H 840.547 -4.38973 2.45584 0
M  V30 8792 H 840.247 -4.11877 4.19084 0
M  V30 8793 H 841.771 -4.88637 3.6615 0
M  V30 8794 H 843.185 -2.98054 4.89731 0
M  V30 8795 H 841.582 -2.44546 5.48012 0
M  V30 8796 H 842.652 -1.28275 4.67626 0
M  V30 8797 N 843.995 -1.47404 -0.557645 0
M  V30 8798 C 844.945 -1.56267 -1.66026 0
M  V30 8799 C 845.929 -0.42161 -1.55278 0
M  V30 8800 O 847.121 -0.671505 -1.63768 0
M  V30 8801 C 844.25 -1.57958 -3.04802 0
M  V30 8802 C 843.336 -2.77447 -3.20755 0
M  V30 8803 N 843.727 -4.02148 -3.06775 0
M  V30 8804 C 842.025 -2.74199 -3.51754 0
M  V30 8805 C 842.726 -4.82168 -3.25406 0
M  V30 8806 N 841.702 -4.14481 -3.5172 0
M  V30 8807 H 845.504 -2.50454 -1.53785 0
M  V30 8808 H 843.018 -1.43392 -0.762388 0
M  V30 8809 H 845.015 -1.62397 -3.8397 0
M  V30 8810 H 843.675 -0.648667 -3.18155 0
M  V30 8811 H 844.686 -4.33014 -2.84111 0
M  V30 8812 H 841.363 -1.90243 -3.71637 0
M  V30 8813 H 842.753 -5.91037 -3.19569 0
M  V30 8814 N 845.473 0.80434 -1.35529 0
M  V30 8815 C 846.421 1.93769 -1.28671 0
M  V30 8816 C 847.415 1.68428 -0.181222 0
M  V30 8817 O 848.621 1.76617 -0.347338 0
M  V30 8818 H 844.996 0.636663 -0.400206 0
M  V30 8819 H 846.967 1.96673 -2.24415 0
M  V30 8820 C 845.716 3.30572 -1.07784 0
M  V30 8821 H 845.039 3.5063 -1.9209 0
M  V30 8822 H 846.479 4.1027 -1.07027 0
M  V30 8823 C 844.938 3.36193 0.218213 0
M  V30 8824 O 845.468 3.82941 1.21323 0
M  V30 8825 N 843.674 2.89455 0.257761 0
M  V30 8826 H 843.221 2.51604 -0.552562 0
M  V30 8827 H 843.179 2.93597 1.12465 0
M  V30 8828 N 846.951 1.19563 1.02676 0
M  V30 8829 C 847.881 0.959024 2.12897 0
M  V30 8830 C 848.862 -0.108382 1.69754 0
M  V30 8831 O 850.047 0.0470698 1.94143 0
M  V30 8832 C 847.177 0.499211 3.43693 0
M  V30 8833 C 846.131 1.5087 4.00528 0
M  V30 8834 C 845.457 0.905884 5.2697 0
M  V30 8835 C 846.757 2.88954 4.3509 0
M  V30 8836 H 848.451 1.88084 2.32948 0
M  V30 8837 H 845.997 0.905731 1.11949 0
M  V30 8838 H 847.95 0.320965 4.20176 0
M  V30 8839 H 846.674 -0.458205 3.2337 0
M  V30 8840 H 845.333 1.67413 3.26142 0
M  V30 8841 H 844.981 -0.0591506 5.02965 0
M  V30 8842 H 844.681 1.58 5.65959 0
M  V30 8843 H 846.205 0.73848 6.06118 0
M  V30 8844 H 847.619 2.75981 5.02501 0
M  V30 8845 H 846.016 3.53177 4.85166 0
M  V30 8846 H 847.086 3.41447 3.44299 0
M  V30 8847 N 848.429 -1.21819 0.999893 0
M  V30 8848 C 849.659 -1.94475 0.697346 0
M  V30 8849 C 850.067 -1.73991 -0.743228 0
M  V30 8850 O 849.41 -1.04042 -1.51397 0
M  V30 8851 C 849.472 -3.47204 0.932181 0
M  V30 8852 C 849.136 -3.91432 2.3586 0
M  V30 8853 C 850.133 -3.98545 3.33853 0
M  V30 8854 C 847.818 -4.23888 2.69489 0
M  V30 8855 C 849.812 -4.37499 4.63545 0
M  V30 8856 C 847.499 -4.62519 3.99399 0
M  V30 8857 C 848.497 -4.69294 4.96238 0
M  V30 8858 O 848.185 -5.07048 6.23825 0
M  V30 8859 H 847.917 -0.625419 0.256567 0
M  V30 8860 H 850.471 -1.55728 1.33933 0
M  V30 8861 H 848.701 -3.85997 0.233025 0
M  V30 8862 H 850.39 -4.01078 0.623807 0
M  V30 8863 H 851.156 -3.73654 3.09205 0
M  V30 8864 H 847.035 -4.17815 1.94812 0
M  V30 8865 H 850.579 -4.42702 5.3913 0
M  V30 8866 H 846.476 -4.86864 4.23833 0
M  V30 8867 H 847.244 -5.25098 6.27865 0
M  V30 8868 N 849.908 -0.773975 -1.37286 0
M  V30 8869 C 851.156 -0.338636 -1.99243 0
M  V30 8870 C 851.477 1.08919 -1.61746 0
M  V30 8871 O 850.747 1.74822 -0.88397 0
M  V30 8872 H 849.327 -0.12222 -0.736934 0
M  V30 8873 H 851.989 -0.992595 -1.67731 0
M  V30 8874 H 851.085 -0.418055 -3.09287 0
M  V30 8875 N 851.386 1.48609 -0.524698 0
M  V30 8876 C 852.316 2.32366 0.229837 0
M  V30 8877 C 853.297 1.41759 0.940129 0
M  V30 8878 O 854.482 1.7065 0.926936 0
M  V30 8879 C 851.612 3.22835 1.28043 0
M  V30 8880 C 850.566 4.22424 0.688603 0
M  V30 8881 C 849.892 5.0199 1.84146 0
M  V30 8882 C 851.192 5.21217 -0.336176 0
M  V30 8883 H 852.886 2.95698 -0.469339 0
M  V30 8884 H 850.432 1.42197 -0.227156 0
M  V30 8885 H 852.385 3.80253 1.8162 0
M  V30 8886 H 851.109 2.57492 2.00912 0
M  V30 8887 H 849.768 3.66185 0.174402 0
M  V30 8888 H 849.416 4.33076 2.5584 0
M  V30 8889 H 849.116 5.69392 1.45142 0
M  V30 8890 H 850.64 5.62259 2.38111 0
M  V30 8891 H 852.054 5.7319 0.112307 0
M  V30 8892 H 850.451 5.96642 -0.643324 0
M  V30 8893 H 851.521 4.68676 -1.24381 0
M  V30 8894 N 852.864 0.259585 1.55447 0
M  V30 8895 C 854.092 -0.365392 2.03648 0
M  V30 8896 C 854.507 -1.50613 1.13847 0
M  V30 8897 O 853.864 -1.81837 0.155414 0
M  V30 8898 C 853.915 -0.861172 3.51093 0
M  V30 8899 O 853.636 0.234121 4.37474 0
M  V30 8900 C 855.137 -1.55555 4.15111 0
M  V30 8901 H 852.357 -0.0853439 0.66555 0
M  V30 8902 H 854.901 0.387151 2.00802 0
M  V30 8903 H 853.056 -1.56385 3.54433 0
M  V30 8904 H 853.47 -0.1444 5.24301 0
M  V30 8905 H 854.944 -1.85403 5.19932 0
M  V30 8906 H 855.421 -2.48185 3.62355 0
M  V30 8907 H 856.027 -0.89712 4.15731 0
M  V30 8908 N 854.342 -1.57594 -0.0133615 0
M  V30 8909 C 855.252 -2.10991 -1.02566 0
M  V30 8910 C 856.268 -1.05208 -1.3859 0
M  V30 8911 O 857.444 -1.37034 -1.47593 0
M  V30 8912 C 854.509 -2.59165 -2.30292 0
M  V30 8913 C 853.57 -3.79495 -2.00704 0
M  V30 8914 C 852.803 -4.25361 -3.22341 0
M  V30 8915 O 853.026 -3.70645 -4.33565 0
M  V30 8916 O 851.96 -5.17649 -3.07121 0
M  V30 8917 H 855.786 -2.97678 -0.601806 0
M  V30 8918 H 853.371 -1.47598 -0.23135 0
M  V30 8919 H 855.253 -2.90409 -3.05354 0
M  V30 8920 H 853.928 -1.75582 -2.71942 0
M  V30 8921 H 852.835 -3.53245 -1.23161 0
M  V30 8922 H 854.168 -4.64109 -1.639 0
M  V30 8923 N 855.82 0.285905 -1.54985 0
M  V30 8924 C 856.783 1.33625 -1.86218 0
M  V30 8925 C 857.783 1.42971 -0.735936 0
M  V30 8926 O 858.973 1.42345 -1.00417 0
M  V30 8927 C 856.105 2.71926 -2.05595 0
M  V30 8928 H 857.298 1.07167 -2.80099 0
M  V30 8929 H 854.851 0.523335 -1.47278 0
M  V30 8930 H 855.586 3.03583 -1.14053 0
M  V30 8931 H 855.371 2.6653 -2.87583 0
M  V30 8932 H 856.861 3.47841 -2.31077 0
M  V30 8933 N 857.298 1.47698 0.54982 0
M  V30 8934 C 858.547 1.53961 1.30303 0
M  V30 8935 C 858.86 0.209731 1.94472 0
M  V30 8936 O 860.066 0.150418 2.71083 0
M  V30 8937 C 858.522 2.71436 2.36328 0
M  V30 8938 C 858.13 4.10983 1.78316 0
M  V30 8939 C 859.874 2.86996 3.12783 0
M  V30 8940 C 857.781 5.19747 2.82164 0
M  V30 8941 H 856.711 0.573098 0.489975 0
M  V30 8942 H 859.362 1.73989 0.583089 0
M  V30 8943 H 857.744 2.44801 3.11269 0
M  V30 8944 H 858.918 4.47552 1.09697 0
M  V30 8945 H 857.233 4.00371 1.1442 0
M  V30 8946 H 859.83 3.65422 3.90347 0
M  V30 8947 H 860.173 1.95712 3.67427 0
M  V30 8948 H 860.706 3.13436 2.44954 0
M  V30 8949 H 857.445 6.12932 2.32366 0
M  V30 8950 H 856.965 4.87688 3.49171 0
M  V30 8951 H 858.644 5.47014 3.4552 0
M  V30 8952 N 858.776 -0.797141 1.35954 0
M  V30 8953 C 859.739 -1.89104 1.29508 0
M  V30 8954 C 860.739 -1.59495 0.204444 0
M  V30 8955 O 861.929 -1.68051 0.458746 0
M  V30 8956 C 859.061 -3.25726 1.00576 0
M  V30 8957 H 860.254 -1.96237 2.26785 0
M  V30 8958 H 857.807 -0.994075 1.20614 0
M  V30 8959 H 858.542 -3.24279 0.0372519 0
M  V30 8960 H 858.327 -3.48604 1.79492 0
M  V30 8961 H 859.817 -4.0578 0.986508 0
M  V30 8962 N 860.254 -1.20106 -1.0204 0
M  V30 8963 C 861.479 -1.0351 -1.79723 0
M  V30 8964 C 861.904 0.411328 -1.83548 0
M  V30 8965 O 861.262 1.29608 -1.26773 0
M  V30 8966 C 861.31 -1.61876 -3.22224 0
M  V30 8967 O 860.414 -0.853813 -4.03465 0
M  V30 8968 H 859.755 -0.365299 -0.554484 0
M  V30 8969 H 862.285 -1.59316 -1.28373 0
M  V30 8970 H 862.295 -1.65451 -3.72948 0
M  V30 8971 H 860.97 -2.67148 -3.18755 0
M  V30 8972 H 859.547 -0.891983 -3.62075 0
M  V30 8973 N 861.732 1.21287 -1.00634 0
M  V30 8974 C 862.682 2.21541 -0.53886 0
M  V30 8975 C 863.666 1.55842 0.400256 0
M  V30 8976 O 864.858 1.75566 0.224889 0
M  V30 8977 C 861.987 3.43047 0.131796 0
M  V30 8978 C 861.073 4.1593 -0.828419 0
M  V30 8979 N 861.464 4.65359 -1.98178 0
M  V30 8980 C 859.762 4.41281 -0.647083 0
M  V30 8981 C 860.463 5.21079 -2.58557 0
M  V30 8982 N 859.439 5.10531 -1.86705 0
M  V30 8983 H 863.241 2.57413 -1.41831 0
M  V30 8984 H 860.755 1.37109 -0.870338 0
M  V30 8985 H 862.752 4.14079 0.484178 0
M  V30 8986 H 861.412 3.08683 1.00721 0
M  V30 8987 H 862.423 4.60896 -2.3621 0
M  V30 8988 H 859.1 4.17107 0.181139 0
M  V30 8989 H 860.49 5.6977 -3.56107 0
M  V30 8990 N 863.21 0.781244 1.36873 0
M  V30 8991 C 864.626 0.461968 1.52768 0
M  V30 8992 C 864.826 -1.02099 1.73719 0
M  V30 8993 O 863.882 -1.80665 1.76399 0
M  V30 8994 C 865.195 1.2853 2.71846 0
M  V30 8995 C 866.743 1.27817 2.85713 0
M  V30 8996 C 867.218 2.08506 4.07786 0
M  V30 8997 N 868.709 2.05909 4.14917 0
M  V30 8998 C 869.444 2.65118 5.08429 0
M  V30 8999 N 868.94 3.33152 6.07438 0
M  V30 9000 N 870.733 2.54896 5.00983 0
M  V30 9001 H 862.884 1.74198 1.21527 0
M  V30 9002 H 865.147 0.740027 0.592506 0
M  V30 9003 H 864.853 2.3366 2.62861 0
M  V30 9004 H 864.727 0.920981 3.65784 0
M  V30 9005 H 867.114 0.234817 2.94164 0
M  V30 9006 H 867.195 1.68219 1.92707 0
M  V30 9007 H 866.839 3.12867 4.00096 0
M  V30 9008 H 866.769 1.65479 4.99924 0
M  V30 9009 H 869.26 1.56386 3.44023 0
M  V30 9010 H 869.573 3.75681 6.75339 0
M  V30 9011 H 867.918 3.37253 6.07689 0
M  V30 9012 H 871.109 2.01352 4.22581 0
M  V30 9013 H 871.282 3.01332 5.73675 0
M  V30 9014 N 864.689 -1.48329 0.532571 0
M  V30 9015 C 865.652 -2.2816 -0.218069 0
M  V30 9016 C 866.652 -1.35526 -0.865409 0
M  V30 9017 O 867.842 -1.58394 -0.725061 0
M  V30 9018 C 864.974 -3.1448 -1.31586 0
M  V30 9019 H 866.167 -2.95987 0.482865 0
M  V30 9020 H 863.72 -1.53612 0.288603 0
M  V30 9021 H 864.455 -2.5129 -2.04997 0
M  V30 9022 H 864.24 -3.82625 -0.856779 0
M  V30 9023 H 865.73 -3.74693 -1.84377 0
M  V30 9024 N 866.167 -0.267825 -1.55308 0
M  V30 9025 C 867.097 0.616585 -2.25212 0
M  V30 9026 C 868.078 1.16472 -1.23969 0
M  V30 9027 O 869.263 1.20021 -1.52672 0
M  V30 9028 C 866.393 1.80412 -2.96764 0
M  V30 9029 C 865.347 1.38784 -4.04874 0
M  V30 9030 C 864.673 2.65789 -4.63961 0
M  V30 9031 C 865.973 0.543415 -5.19465 0
M  V30 9032 H 867.667 0.0336257 -2.99381 0
M  V30 9033 H 865.213 0.0147328 -1.43992 0
M  V30 9034 H 867.166 2.42866 -3.44375 0
M  V30 9035 H 865.89 2.4128 -2.20118 0
M  V30 9036 H 864.549 0.786541 -3.58063 0
M  V30 9037 H 864.197 3.24899 -3.83992 0
M  V30 9038 H 863.897 2.38651 -5.36954 0
M  V30 9039 H 865.421 3.29104 -5.14318 0
M  V30 9040 H 866.835 1.07277 -5.63174 0
M  V30 9041 H 865.232 0.367219 -5.98975 0
M  V30 9042 H 866.302 -0.439534 -4.82904 0
M  V30 9043 N 867.645 1.57599 0.00500368 0
M  V30 9044 C 868.891 1.90631 0.691919 0
M  V30 9045 C 869.224 0.868443 1.737 0
M  V30 9046 O 868.499 -0.113482 1.94169 0
M  V30 9047 C 868.782 3.34255 1.33961 0
M  V30 9048 C 868.635 4.48755 0.306413 0
M  V30 9049 C 869.954 3.77211 2.26715 0
M  V30 9050 H 867.073 0.693279 0.250066 0
M  V30 9051 H 869.715 1.89946 -0.0452634 0
M  V30 9052 H 867.865 3.3497 1.96793 0
M  V30 9053 H 869.537 4.60176 -0.321841 0
M  V30 9054 H 867.78 4.32203 -0.371852 0
M  V30 9055 H 868.451 5.46193 0.798554 0
M  V30 9056 H 870.927 3.78017 1.73904 0
M  V30 9057 H 869.803 4.78466 2.69002 0
M  V30 9058 H 870.064 3.10801 3.14413 0
M  V30 9059 N 869.123 -0.277682 1.55134 0
M  V30 9060 C 870.07 -1.34313 1.87693 0
M  V30 9061 C 871.04 -1.49298 0.727973 0
M  V30 9062 O 872.225 -1.6378 0.978807 0
M  V30 9063 C 869.365 -2.69922 2.15026 0
M  V30 9064 C 868.478 -2.63197 3.42565 0
M  V30 9065 C 867.613 -3.90955 3.59622 0
M  V30 9066 C 866.652 -3.78722 4.8087 0
M  V30 9067 N 865.789 -4.98303 4.94609 0
M  V30 9068 H 870.629 -1.05847 2.78569 0
M  V30 9069 H 868.166 -0.511469 1.37922 0
M  V30 9070 H 870.124 -3.48817 2.28872 0
M  V30 9071 H 868.754 -2.966 1.2739 0
M  V30 9072 H 867.806 -1.76038 3.37216 0
M  V30 9073 H 869.118 -2.50056 4.31594 0
M  V30 9074 H 868.272 -4.78291 3.7326 0
M  V30 9075 H 867.011 -4.06957 2.6877 0
M  V30 9076 H 866.016 -2.89769 4.67241 0
M  V30 9077 H 867.241 -3.64242 5.73153 0
M  V30 9078 H 865.187 -5.14725 4.06687 0
M  V30 9079 H 865.104 -4.87675 5.77676 0
M  V30 9080 H 866.372 -5.87225 5.12628 0
M  V30 9081 N 870.601 -1.47988 -0.541979 0
M  V30 9082 C 871.564 -1.61148 -1.62984 0
M  V30 9083 C 872.564 -0.48553 -1.53295 0
M  V30 9084 O 873.754 -0.751012 -1.5718 0
M  V30 9085 C 870.886 -1.57038 -3.02576 0
M  V30 9086 H 872.079 -2.58138 -1.52659 0
M  V30 9087 H 869.632 -1.36405 -0.763106 0
M  V30 9088 H 870.367 -0.614807 -3.18419 0
M  V30 9089 H 870.152 -2.38769 -3.11018 0
M  V30 9090 H 871.642 -1.69416 -3.81691 0
M  V30 9091 N 872.079 0.78992 -1.36375 0
M  V30 9092 C 873.495 1.0879 -1.16777 0
M  V30 9093 C 873.695 2.01498 0.00848236 0
M  V30 9094 O 872.751 2.43338 0.674007 0
M  V30 9095 C 874.064 1.70285 -2.47837 0
M  V30 9096 C 875.612 1.82629 -2.54196 0
M  V30 9097 C 876.087 2.47539 -3.85342 0
M  V30 9098 N 877.578 2.55008 -3.86685 0
M  V30 9099 C 878.313 3.06041 -4.84898 0
M  V30 9100 N 877.809 3.57385 -5.93505 0
M  V30 9101 N 879.602 3.04748 -4.72319 0
M  V30 9102 H 871.753 0.173985 -2.11686 0
M  V30 9103 H 874.016 0.139798 -0.937636 0
M  V30 9104 H 873.722 1.09633 -3.34176 0
M  V30 9105 H 873.596 2.69799 -2.63607 0
M  V30 9106 H 875.983 2.42419 -1.68276 0
M  V30 9107 H 876.064 0.81923 -2.42327 0
M  V30 9108 H 875.708 1.88393 -4.71668 0
M  V30 9109 H 875.638 3.48815 -3.94507 0
M  V30 9110 H 878.129 2.18651 -3.08221 0
M  V30 9111 H 878.442 3.94674 -6.64419 0
M  V30 9112 H 876.787 3.55538 -5.97175 0
M  V30 9113 H 879.978 2.63925 -3.86602 0
M  V30 9114 H 880.151 3.44212 -5.49019 0
M  V30 9115 N 873.557 1.20646 1.01402 0
M  V30 9116 C 874.805 1.01618 1.74695 0
M  V30 9117 C 875.126 -0.452438 1.89679 0
M  V30 9118 O 874.396 -1.32693 1.44116 0
M  V30 9119 H 872.976 0.373013 0.647202 0
M  V30 9120 H 875.638 1.518 1.22241 0
M  V30 9121 H 874.734 1.47666 2.74957 0
M  V30 9122 N 875.035 -1.20752 1.01276 0
M  V30 9123 C 876.263 -1.94006 0.718976 0
M  V30 9124 C 876.678 -1.74544 -0.719711 0
M  V30 9125 O 876.035 -1.05697 -1.48776 0
M  V30 9126 C 876.086 -3.46208 1.04031 0
M  V30 9127 O 875.807 -3.65031 2.42248 0
M  V30 9128 C 877.308 -4.36614 0.767032 0
M  V30 9129 H 874.528 -0.616743 0.264327 0
M  V30 9130 H 877.072 -1.53352 1.3529 0
M  V30 9131 H 875.227 -3.84756 0.451852 0
M  V30 9132 H 875.641 -4.59054 2.53712 0
M  V30 9133 H 877.115 -5.42076 1.04198 0
M  V30 9134 H 877.592 -4.38182 -0.298851 0
M  V30 9135 H 878.198 -4.03723 1.33746 0
M  V30 9136 N 876.513 -0.788492 -1.36457 0
M  V30 9137 C 877.929 -0.470063 -1.52521 0
M  V30 9138 C 878.129 1.01176 -1.74258 0
M  V30 9139 O 877.185 1.79726 -1.77355 0
M  V30 9140 C 878.498 -1.2997 -2.71161 0
M  V30 9141 C 880.046 -1.2933 -2.85031 0
M  V30 9142 C 880.521 -2.10665 -4.06674 0
M  V30 9143 N 882.012 -2.08107 -4.13819 0
M  V30 9144 C 882.747 -2.6781 -5.07016 0
M  V30 9145 N 882.243 -3.36369 -6.05663 0
M  V30 9146 N 884.036 -2.57549 -4.99625 0
M  V30 9147 H 876.187 -1.7484 -1.20602 0
M  V30 9148 H 878.45 -0.743159 -0.588574 0
M  V30 9149 H 878.156 -2.35051 -2.61618 0
M  V30 9150 H 878.03 -0.940367 -3.6529 0
M  V30 9151 H 880.417 -0.250414 -2.94036 0
M  V30 9152 H 880.498 -1.69239 -1.91812 0
M  V30 9153 H 880.142 -3.14984 -3.98431 0
M  V30 9154 H 880.072 -1.68128 -4.9904 0
M  V30 9155 H 882.563 -1.58208 -3.43189 0
M  V30 9156 H 882.876 -3.79258 -6.73338 0
M  V30 9157 H 881.221 -3.40471 -6.05891 0
M  V30 9158 H 884.412 -2.0359 -4.21508 0
M  V30 9159 H 884.585 -3.0437 -5.72069 0
M  V30 9160 N 877.991 1.48044 -0.54043 0
M  V30 9161 C 879.402 1.86418 -0.102662 0
M  V30 9162 C 879.753 1.4489 1.32293 0
M  V30 9163 O 878.878 0.844319 1.99249 0
M  V30 9164 C 879.473 3.38324 -0.179533 0
M  V30 9165 C 878.032 3.75852 0.203098 0
M  V30 9166 C 877.179 2.72097 -0.534637 0
M  V30 9167 H 880.13 1.398 -0.751103 0
M  V30 9168 H 880.151 3.75641 0.606147 0
M  V30 9169 H 879.663 3.68518 -1.21721 0
M  V30 9170 H 877.764 3.51272 1.24252 0
M  V30 9171 H 877.877 4.78884 -0.143784 0
M  V30 9172 H 876.241 2.54692 0.0203358 0
M  V30 9173 H 877.024 3.05135 -1.57314 0
M  V30 9174 N 879.47 0.276058 1.55163 0
M  V30 9175 C 880.717 -0.340455 1.99618 0
M  V30 9176 C 881.045 -1.5579 1.16446 0
M  V30 9177 O 880.3 -1.94433 0.222359 0
M  V30 9178 C 880.599 -0.765744 3.491 0
M  V30 9179 C 880.265 0.347174 4.49561 0
M  V30 9180 C 878.927 0.65276 4.76752 0
M  V30 9181 C 881.279 1.09705 5.09523 0
M  V30 9182 C 878.607 1.71179 5.61173 0
M  V30 9183 C 880.959 2.14581 5.95095 0
M  V30 9184 C 879.623 2.45773 6.20606 0
M  V30 9185 H 878.893 -0.124581 0.730452 0
M  V30 9186 H 881.54 0.389966 1.87487 0
M  V30 9187 H 879.845 -1.57585 3.58712 0
M  V30 9188 H 881.542 -1.25352 3.80904 0
M  V30 9189 H 878.132 0.0988779 4.28486 0
M  V30 9190 H 882.316 0.874223 4.8854 0
M  V30 9191 H 877.572 1.95846 5.79184 0
M  V30 9192 H 881.746 2.7316 6.40591 0
M  V30 9193 H 879.373 3.27969 6.85813 0
M  V30 9194 N 880.948 -1.576 0.00335426 0
M  V30 9195 C 882.194 -1.90996 -0.681799 0
M  V30 9196 C 882.527 -0.877643 -1.73237 0
M  V30 9197 O 881.802 0.103183 -1.94226 0
M  V30 9198 C 882.085 -3.34961 -1.32187 0
M  V30 9199 C 881.938 -4.48911 -0.28261 0
M  V30 9200 C 883.257 -3.78408 -2.24711 0
M  V30 9201 H 880.376 -0.694596 -0.246386 0
M  V30 9202 H 883.018 -1.89919 0.055336 0
M  V30 9203 H 881.168 -3.36008 -1.95014 0
M  V30 9204 H 882.84 -4.59999 0.346241 0
M  V30 9205 H 881.083 -4.32 0.394768 0
M  V30 9206 H 881.754 -5.46609 -0.769576 0
M  V30 9207 H 884.23 -3.78934 -1.71897 0
M  V30 9208 H 883.106 -4.79885 -2.66461 0
M  V30 9209 H 883.367 -3.12464 -3.1276 0
M  V30 9210 N 882.426 0.269451 -1.5528 0
M  V30 9211 C 883.675 0.998381 -1.75258 0
M  V30 9212 C 883.988 1.87321 -0.563034 0
M  V30 9213 O 885.194 2.63719 -0.645313 0
M  V30 9214 C 883.65 1.82505 -3.10193 0
M  V30 9215 C 883.258 0.99871 -4.36726 0
M  V30 9216 C 885.002 2.54807 -3.3952 0
M  V30 9217 C 882.909 1.81997 -5.627 0
M  V30 9218 H 881.839 0.376488 -0.653278 0
M  V30 9219 H 884.49 0.253909 -1.81735 0
M  V30 9220 H 882.872 2.61061 -2.97763 0
M  V30 9221 H 884.046 0.257064 -4.60082 0
M  V30 9222 H 882.361 0.390074 -4.14569 0
M  V30 9223 H 884.958 3.16662 -4.30847 0
M  V30 9224 H 885.301 3.25273 -2.59813 0
M  V30 9225 H 885.834 1.83278 -3.53064 0
M  V30 9226 H 882.573 1.15945 -6.45164 0
M  V30 9227 H 882.093 2.53749 -5.43481 0
M  V30 9228 H 883.772 2.39274 -6.0113 0
M  V30 9229 N 883.904 1.48273 0.534124 0
M  V30 9230 C 885.129 1.59988 1.31979 0
M  V30 9231 C 885.554 0.258824 1.86311 0
M  V30 9232 O 884.912 -0.768885 1.64188 0
M  V30 9233 C 884.96 2.64642 2.44943 0
M  V30 9234 O 884.064 2.21515 3.47858 0
M  V30 9235 H 883.405 0.536625 0.391063 0
M  V30 9236 H 885.935 1.94229 0.643135 0
M  V30 9237 H 885.945 2.85786 2.91187 0
M  V30 9238 H 884.62 3.62004 2.04758 0
M  V30 9239 H 883.197 2.10567 3.0776 0
M  V30 9240 N 885.382 -0.782676 1.36792 0
M  V30 9241 C 886.798 -1.08169 1.17352 0
M  V30 9242 C 886.998 -2.015 0.0022037 0
M  V30 9243 O 886.054 -2.43692 -0.661093 0
M  V30 9244 C 887.367 -1.68969 2.48737 0
M  V30 9245 C 888.915 -1.81278 2.55161 0
M  V30 9246 C 889.39 -2.45492 3.86649 0
M  V30 9247 N 890.881 -2.52954 3.88032 0
M  V30 9248 C 891.616 -3.03465 4.86515 0
M  V30 9249 N 891.112 -3.54232 5.95392 0
M  V30 9250 N 892.905 -3.02239 4.73928 0
M  V30 9251 H 885.056 -0.162757 2.11775 0
M  V30 9252 H 887.319 -0.134823 0.938364 0
M  V30 9253 H 887.025 -1.07859 3.34753 0
M  V30 9254 H 886.899 -2.68397 2.65034 0
M  V30 9255 H 889.286 -2.41524 1.69559 0
M  V30 9256 H 889.367 -0.806367 2.42758 0
M  V30 9257 H 889.011 -1.85889 4.7266 0
M  V30 9258 H 888.941 -3.46718 3.96351 0
M  V30 9259 H 891.432 -2.17014 3.09376 0
M  V30 9260 H 891.745 -3.91145 6.66503 0
M  V30 9261 H 890.09 -3.52366 5.99052 0
M  V30 9262 H 893.281 -2.61871 3.87996 0
M  V30 9263 H 893.454 -3.41295 5.50837 0
M  V30 9264 N 886.86 -1.21182 -1.00761 0
M  V30 9265 C 888.085 -1.05411 -1.78615 0
M  V30 9266 C 888.51 0.391837 -1.83973 0
M  V30 9267 O 887.868 1.28256 -1.28141 0
M  V30 9268 C 887.916 -1.65285 -3.20489 0
M  V30 9269 O 887.02 -0.896558 -4.02536 0
M  V30 9270 H 886.361 -0.37116 -0.550578 0
M  V30 9271 H 888.891 -1.60669 -1.26676 0
M  V30 9272 H 888.901 -1.69397 -3.71172 0
M  V30 9273 H 887.576 -2.70514 -3.15904 0
M  V30 9274 H 886.153 -0.930335 -3.61108 0
M  V30 9275 N 888.338 1.20213 -1.01915 0
M  V30 9276 C 889.566 1.93622 -0.729255 0
M  V30 9277 C 889.981 1.74923 0.710444 0
M  V30 9278 O 889.338 1.06484 1.48214 0
M  V30 9279 C 889.389 3.45651 -1.05865 0
M  V30 9280 O 889.11 3.63741 -2.44181 0
M  V30 9281 C 890.611 4.36201 -0.790176 0
M  V30 9282 H 887.831 0.615333 -0.267594 0
M  V30 9283 H 890.375 1.52633 -1.36101 0
M  V30 9284 H 888.53 3.84511 -0.47225 0
M  V30 9285 H 888.944 4.57702 -2.56143 0
M  V30 9286 H 890.418 5.41516 -1.07071 0
M  V30 9287 H 890.895 4.38334 0.275609 0
M  V30 9288 H 891.501 4.03008 -1.35885 0
M  V30 9289 N 889.816 0.795718 1.36037 0
M  V30 9290 C 891.063 0.371024 1.99072 0
M  V30 9291 C 891.391 -1.05896 1.63145 0
M  V30 9292 O 890.646 -1.7474 0.881163 0
M  V30 9293 C 890.945 0.489038 3.54038 0
M  V30 9294 C 890.611 1.88075 4.09803 0
M  V30 9295 C 889.273 2.26152 4.24745 0
M  V30 9296 C 891.625 2.79174 4.40126 0
M  V30 9297 C 888.953 3.54718 4.67324 0
M  V30 9298 C 891.305 4.07175 4.8414 0
M  V30 9299 C 889.969 4.45266 4.97287 0
M  V30 9300 H 889.239 0.135767 0.728456 0
M  V30 9301 H 891.886 1.0144 1.62426 0
M  V30 9302 H 890.191 -0.237823 3.91078 0
M  V30 9303 H 891.888 0.141374 4.00751 0
M  V30 9304 H 888.478 1.57488 3.98617 0
M  V30 9305 H 892.662 2.51009 4.28145 0
M  V30 9306 H 887.918 3.84093 4.75691 0
M  V30 9307 H 892.092 4.77875 5.06565 0
M  V30 9308 H 889.719 5.44943 5.30038 0
M  V30 9309 N 891.294 -1.47756 0.548274 0
M  V30 9310 C 892.257 -2.28379 -0.193857 0
M  V30 9311 C 893.257 -1.36436 -0.850986 0
M  V30 9312 O 894.447 -1.59154 -0.70822 0
M  V30 9313 C 891.579 -3.15858 -1.28243 0
M  V30 9314 H 892.772 -2.95458 0.514231 0
M  V30 9315 H 890.325 -1.53298 0.304879 0
M  V30 9316 H 891.06 -2.5345 -2.0232 0
M  V30 9317 H 890.845 -3.83512 -0.816148 0
M  V30 9318 H 892.335 -3.76627 -1.80393 0
M  V30 9319 N 892.772 -0.284283 -1.55015 0
M  V30 9320 C 894.02 0.329212 -1.99401 0
M  V30 9321 C 894.341 1.55687 -1.17416 0
M  V30 9322 O 893.611 1.94087 -0.265937 0
M  V30 9323 H 892.191 0.12463 -0.73653 0
M  V30 9324 H 894.853 -0.391743 -1.90922 0
M  V30 9325 H 893.949 0.61278 -3.06025 0
M  V30 9326 N 894.251 1.57596 -0.0117121 0
M  V30 9327 C 895.201 2.05641 0.98467 0
M  V30 9328 C 896.185 0.953422 1.2961 0
M  V30 9329 O 897.377 1.21712 1.28512 0
M  V30 9330 C 894.506 2.57285 2.27286 0
M  V30 9331 C 893.592 3.74483 1.99057 0
M  V30 9332 N 893.983 4.85741 1.41029 0
M  V30 9333 C 892.281 3.82637 2.2914 0
M  V30 9334 C 892.982 5.67094 1.29536 0
M  V30 9335 N 891.958 5.13459 1.78497 0
M  V30 9336 H 895.76 2.89069 0.530702 0
M  V30 9337 H 893.274 1.6124 0.193717 0
M  V30 9338 H 895.271 2.89988 2.99521 0
M  V30 9339 H 893.931 1.75281 2.73325 0
M  V30 9340 H 894.942 5.06352 1.08756 0
M  V30 9341 H 891.619 3.11509 2.77972 0
M  V30 9342 H 893.009 6.66525 0.848144 0
M  V30 9343 N 895.729 -0.261212 1.5542 0
M  V30 9344 C 896.977 -0.989272 1.76232 0
M  V30 9345 C 897.298 -1.86389 0.573067 0
M  V30 9346 O 896.568 -1.91526 -0.41166 0
M  V30 9347 H 895.148 -0.368256 0.64992 0
M  V30 9348 H 897.81 -0.282603 1.9284 0
M  V30 9349 H 896.906 -1.61935 2.66802 0
M  V30 9350 N 897.207 -1.48554 -0.526253 0
M  V30 9351 C 898.623 -1.34757 -0.855138 0
M  V30 9352 C 898.823 -0.36142 -1.98232 0
M  V30 9353 O 897.879 0.216026 -2.51574 0
M  V30 9354 C 899.192 -2.74877 -1.21915 0
M  V30 9355 C 900.74 -2.83393 -1.32882 0
M  V30 9356 C 901.215 -4.24223 -1.72624 0
M  V30 9357 N 902.706 -4.26913 -1.7972 0
M  V30 9358 C 903.441 -5.32824 -2.11863 0
M  V30 9359 N 902.937 -6.49008 -2.42405 0
M  V30 9360 N 904.73 -5.20221 -2.12901 0
M  V30 9361 H 896.881 -2.11284 0.217422 0
M  V30 9362 H 899.144 -0.947367 0.0346362 0
M  V30 9363 H 898.85 -3.48619 -0.464486 0
M  V30 9364 H 898.724 -3.0864 -2.16844 0
M  V30 9365 H 901.111 -2.09904 -2.07424 0
M  V30 9366 H 901.192 -2.53245 -0.360638 0
M  V30 9367 H 900.836 -4.98229 -0.986411 0
M  V30 9368 H 900.766 -4.51817 -2.70498 0
M  V30 9369 H 903.257 -3.4311 -1.58379 0
M  V30 9370 H 903.57 -7.25561 -2.66048 0
M  V30 9371 H 901.915 -6.52277 -2.39917 0
M  V30 9372 H 905.106 -4.28469 -1.885 0
M  V30 9373 H 905.279 -6.02861 -2.37619 0
M  V30 9374 N 898.685 0.775411 -1.37205 0
M  V30 9375 C 899.915 1.56219 -1.352 0
M  V30 9376 C 900.323 1.89087 0.065456 0
M  V30 9377 O 899.666 1.51655 1.03665 0
M  V30 9378 C 899.728 2.9019 -2.12203 0
M  V30 9379 C 899.392 2.79978 -3.61195 0
M  V30 9380 C 900.389 2.51258 -4.55154 0
M  V30 9381 C 898.074 2.98115 -4.04268 0
M  V30 9382 C 900.068 2.40798 -5.90165 0
M  V30 9383 C 897.755 2.87276 -5.39366 0
M  V30 9384 C 898.753 2.58657 -6.32128 0
M  V30 9385 O 898.441 2.47838 -7.64743 0
M  V30 9386 H 898.173 0.490735 -0.464925 0
M  V30 9387 H 900.727 0.969201 -1.81096 0
M  V30 9388 H 898.957 3.51594 -1.60992 0
M  V30 9389 H 900.646 3.51561 -2.02879 0
M  V30 9390 H 901.412 2.36935 -4.23186 0
M  V30 9391 H 897.291 3.19392 -3.3243 0
M  V30 9392 H 900.835 2.18381 -6.62537 0
M  V30 9393 H 896.732 3.01166 -5.70937 0
M  V30 9394 H 897.5 2.63215 -7.75023 0
M  V30 9395 N 900.163 1.21714 1.00117 0
M  V30 9396 C 901.126 0.981338 2.07129 0
M  V30 9397 C 902.126 -0.0491116 1.60725 0
M  V30 9398 O 903.316 0.188555 1.73177 0
M  V30 9399 C 900.448 0.480608 3.37495 0
M  V30 9400 H 901.641 1.93075 2.29482 0
M  V30 9401 H 899.194 1.03467 1.17151 0
M  V30 9402 H 899.929 -0.473552 3.20824 0
M  V30 9403 H 899.714 1.22393 3.72508 0
M  V30 9404 H 901.204 0.33561 4.16249 0
M  V30 9405 N 901.641 -1.19671 1.02551 0
M  V30 9406 C 902.889 -1.88894 0.71858 0
M  V30 9407 C 903.21 -1.79797 -0.754856 0
M  V30 9408 O 902.48 -1.20621 -1.54362 0
M  V30 9409 H 901.06 -0.699244 0.262806 0
M  V30 9410 H 903.722 -1.45298 1.29902 0
M  V30 9411 H 902.818 -2.95309 1.00989 0
M  V30 9412 N 903.119 -0.802921 -1.35613 0
M  V30 9413 C 904.069 -0.183492 -2.2726 0
M  V30 9414 C 905.053 0.640527 -1.47601 0
M  V30 9415 O 906.245 0.498386 -1.69838 0
M  V30 9416 C 903.374 0.67003 -3.36698 0
M  V30 9417 C 902.46 -0.163517 -4.23785 0
M  V30 9418 N 902.851 -1.22472 -4.90749 0
M  V30 9419 C 901.149 0.0554547 -4.45966 0
M  V30 9420 C 901.85 -1.73329 -5.55276 0
M  V30 9421 N 900.826 -1.04033 -5.33552 0
M  V30 9422 H 904.628 -0.995525 -2.76526 0
M  V30 9423 H 902.142 -0.643714 -1.49098 0
M  V30 9424 H 904.139 1.12981 -4.01299 0
M  V30 9425 H 902.799 1.48045 -2.88986 0
M  V30 9426 H 903.81 -1.60733 -4.92327 0
M  V30 9427 H 900.487 0.835312 -4.09058 0
M  V30 9428 H 901.877 -2.62 -6.18713 0
M  V30 9429 N 904.597 1.47463 -0.556102 0
M  V30 9430 C 905.843 2.03361 -0.039909 0
M  V30 9431 C 906.198 1.42292 1.29502 0
M  V30 9432 O 905.491 0.568813 1.82962 0
M  V30 9433 C 905.685 3.57224 0.112126 0
M  V30 9434 C 905.514 4.33213 -1.20652 0
M  V30 9435 C 904.284 4.73153 -1.77352 0
M  V30 9436 C 906.482 4.68415 -2.12348 0
M  V30 9437 N 904.464 5.33781 -3.03233 0
M  V30 9438 C 905.835 5.29334 -3.22808 0
M  V30 9439 C 907.89 4.50344 -2.12356 0
M  V30 9440 C 906.593 5.7409 -4.33374 0
M  V30 9441 C 908.619 4.96098 -3.21933 0
M  V30 9442 C 907.981 5.57065 -4.31112 0
M  V30 9443 H 904.08 0.779939 -0.0567407 0
M  V30 9444 H 906.664 1.79959 -0.743147 0
M  V30 9445 H 904.835 3.80395 0.784485 0
M  V30 9446 H 906.567 3.99762 0.630285 0
M  V30 9447 H 903.322 4.55074 -1.31165 0
M  V30 9448 H 903.746 5.6864 -3.67393 0
M  V30 9449 H 908.388 4.02566 -1.29229 0
M  V30 9450 H 906.106 6.2086 -5.17261 0
M  V30 9451 H 909.692 4.83887 -3.23024 0
M  V30 9452 H 908.572 5.91824 -5.14504 0
M  V30 9453 N 906.075 0.2925 1.54862 0
M  V30 9454 C 907.303 -0.322113 2.04377 0
M  V30 9455 C 907.718 -1.48164 1.17016 0
M  V30 9456 O 907.075 -1.81466 0.19395 0
M  V30 9457 C 907.126 -0.786506 3.5284 0
M  V30 9458 O 906.847 0.326863 4.36879 0
M  V30 9459 C 908.348 -1.46715 4.18318 0
M  V30 9460 H 905.568 -0.0712074 0.667211 0
M  V30 9461 H 908.112 0.429657 1.99935 0
M  V30 9462 H 906.267 -1.48832 3.5767 0
M  V30 9463 H 906.681 -0.0331558 5.2449 0
M  V30 9464 H 908.155 -1.74333 5.23748 0
M  V30 9465 H 908.632 -2.40443 3.67538 0
M  V30 9466 H 909.238 -0.808735 4.1754 0
M  V30 9467 N 907.553 -1.57587 0.0200696 0
M  V30 9468 C 908.801 -1.91046 -0.65922 0
M  V30 9469 C 909.122 -0.896197 -1.73186 0
M  V30 9470 O 908.392 0.0635952 -1.95797 0
M  V30 9471 H 906.972 -0.705163 -0.246483 0
M  V30 9472 H 909.634 -1.94789 0.0657368 0
M  V30 9473 H 908.73 -2.91399 -1.11773 0
M  V30 9474 N 909.032 0.252966 -1.55557 0
M  V30 9475 C 910.309 1.00432 -1.67847 0
M  V30 9476 C 910.689 2.03587 -0.55816 0
M  V30 9477 O 910.037 2.24239 0.439197 0
M  V30 9478 C 910.247 1.64313 -3.079 0
M  V30 9479 C 911.595 2.14726 -3.66303 0
M  V30 9480 O 912.619 1.74264 -3.10661 0
M  V30 9481 O 911.478 2.89 -4.63833 0
M  V30 9482 H 908.572 0.467102 -0.682455 0
M  V30 9483 H 911.118 0.247233 -1.67889 0
M  V30 9484 H 909.89 0.896681 -3.80888 0
M  V30 9485 H 909.513 2.46657 -3.11843 0
M  V30 9486 N 910.51 1.48831 0.518367 0
M  V30 9487 C 911.756 1.57672 1.27543 0
M  V30 9488 C 912.089 0.254915 1.9252 0
M  V30 9489 O 911.364 -0.740107 1.79868 0
M  V30 9490 C 911.647 2.72345 2.35585 0
M  V30 9491 C 911.5 4.14267 1.75224 0
M  V30 9492 C 912.819 2.82726 3.37274 0
M  V30 9493 H 909.938 0.573926 0.462361 0
M  V30 9494 H 912.58 1.8105 0.576267 0
M  V30 9495 H 910.73 2.52543 2.95219 0
M  V30 9496 H 912.402 4.45539 1.19551 0
M  V30 9497 H 910.645 4.20724 1.05706 0
M  V30 9498 H 911.316 4.90345 2.53507 0
M  V30 9499 H 913.792 3.00699 2.8761 0
M  V30 9500 H 912.668 3.6467 4.10252 0
M  V30 9501 H 912.929 1.9136 3.9854 0
M  V30 9502 N 911.988 -0.768124 1.37614 0
M  V30 9503 C 913.234 -1.52823 1.34226 0
M  V30 9504 C 913.589 -1.92266 -0.0717482 0
M  V30 9505 O 912.882 -1.61484 -1.03119 0
M  V30 9506 C 913.076 -2.80204 2.21856 0
M  V30 9507 C 912.905 -2.53213 3.71636 0
M  V30 9508 C 911.675 -2.47159 4.40727 0
M  V30 9509 C 913.873 -2.20965 4.64413 0
M  V30 9510 N 911.855 -2.12289 5.76026 0
M  V30 9511 C 913.226 -1.96264 5.88116 0
M  V30 9512 C 915.281 -2.07151 4.52761 0
M  V30 9513 C 913.984 -1.59145 7.01474 0
M  V30 9514 C 916.01 -1.71432 5.66008 0
M  V30 9515 C 915.372 -1.47594 6.88764 0
M  V30 9516 H 911.471 -0.559388 0.546451 0
M  V30 9517 H 914.055 -0.895795 1.72869 0
M  V30 9518 H 912.226 -3.4128 1.85424 0
M  V30 9519 H 913.958 -3.46133 2.097 0
M  V30 9520 H 910.713 -2.63137 3.93772 0
M  V30 9521 H 911.137 -1.97541 6.47539 0
M  V30 9522 H 915.779 -2.24262 3.58422 0
M  V30 9523 H 913.497 -1.40773 7.95744 0
M  V30 9524 H 917.083 -1.61397 5.58965 0
M  V30 9525 H 915.963 -1.20365 7.74908 0
M  V30 9526 N 913.466 -1.22244 -0.994698 0
M  V30 9527 C 914.691 -1.07299 -1.77487 0
M  V30 9528 C 915.116 0.372302 -1.84379 0
M  V30 9529 O 914.474 1.2689 -1.29494 0
M  V30 9530 C 914.522 -1.68675 -3.18718 0
M  V30 9531 O 913.626 -0.939202 -4.01563 0
M  V30 9532 H 912.967 -0.376979 -0.546611 0
M  V30 9533 H 915.497 -1.62003 -1.24965 0
M  V30 9534 H 915.507 -1.73324 -3.69354 0
M  V30 9535 H 914.182 -2.73849 -3.13017 0
M  V30 9536 H 912.759 -0.968583 -3.60101 0
M  V30 9537 N 914.944 1.19125 -1.03184 0
M  V30 9538 C 916.169 1.93379 -0.749628 0
M  V30 9539 C 916.594 1.75153 0.685785 0
M  V30 9540 O 915.952 1.05579 1.47386 0
M  V30 9541 C 916 3.43101 -1.1097 0
M  V30 9542 O 915.104 4.11758 -0.230053 0
M  V30 9543 H 914.445 0.603605 -0.276689 0
M  V30 9544 H 916.975 1.51116 -1.37931 0
M  V30 9545 H 916.985 3.93778 -1.06785 0
M  V30 9546 H 915.66 3.55688 -2.15544 0
M  V30 9547 H 914.237 3.7143 -0.330748 0
M  V30 9548 N 916.422 0.810101 1.35185 0
M  V30 9549 C 917.668 0.401839 1.99391 0
M  V30 9550 C 918.023 -1.02059 1.63101 0
M  V30 9551 O 917.316 -1.69889 0.8859 0
M  V30 9552 C 917.51 0.526561 3.535 0
M  V30 9553 C 917.339 1.95956 4.04761 0
M  V30 9554 C 916.109 2.58869 4.33953 0
M  V30 9555 C 918.307 2.92459 4.23051 0
M  V30 9556 N 916.289 3.93542 4.71166 0
M  V30 9557 C 917.66 4.12011 4.633 0
M  V30 9558 C 919.715 2.89244 4.05268 0
M  V30 9559 C 918.418 5.28784 4.87627 0
M  V30 9560 C 920.444 4.05223 4.30753 0
M  V30 9561 C 919.806 5.23524 4.71277 0
M  V30 9562 H 915.905 0.194886 0.757327 0
M  V30 9563 H 918.489 1.05209 1.63827 0
M  V30 9564 H 916.66 -0.0937151 3.88287 0
M  V30 9565 H 918.392 0.0925434 4.04594 0
M  V30 9566 H 915.147 2.10198 4.24398 0
M  V30 9567 H 915.571 4.62889 4.94027 0
M  V30 9568 H 920.213 1.98932 3.73076 0
M  V30 9569 H 917.931 6.19666 5.18691 0
M  V30 9570 H 921.517 4.04121 4.18542 0
M  V30 9571 H 920.397 6.11776 4.90612 0
M  V30 9572 N 917.9 -1.47166 0.563914 0
M  V30 9573 C 918.81 -2.33885 -0.182977 0
M  V30 9574 C 919.826 -1.48605 -0.905132 0
M  V30 9575 O 921.002 -1.81518 -0.872527 0
M  V30 9576 C 918.067 -3.25433 -1.19558 0
M  V30 9577 C 917.128 -4.26607 -0.480129 0
M  V30 9578 C 916.361 -5.1378 -1.44449 0
M  V30 9579 O 916.584 -5.03531 -2.67979 0
M  V30 9580 O 915.518 -5.94109 -0.965321 0
M  V30 9581 H 919.344 -2.99065 0.528544 0
M  V30 9582 H 916.929 -1.45834 0.324468 0
M  V30 9583 H 918.811 -3.81964 -1.77993 0
M  V30 9584 H 917.486 -2.62873 -1.8889 0
M  V30 9585 H 916.393 -3.73817 0.145583 0
M  V30 9586 H 917.726 -4.919 0.171868 0
M  V30 9587 N 919.378 -0.300708 -1.54705 0
M  V30 9588 C 920.31 0.609179 -2.20956 0
M  V30 9589 C 921.323 1.09776 -1.20221 0
M  V30 9590 O 922.512 1.01527 -1.46815 0
M  V30 9591 C 919.612 1.84595 -2.84214 0
M  V30 9592 C 918.785 1.49991 -4.10879 0
M  V30 9593 C 917.844 2.5918 -4.57943 0
M  V30 9594 O 916.87 2.24285 -5.23149 0
M  V30 9595 N 918.072 3.89714 -4.30236 0
M  V30 9596 H 920.837 0.0420111 -2.99671 0
M  V30 9597 H 918.398 -0.122896 -1.61433 0
M  V30 9598 H 920.39 2.56988 -3.12633 0
M  V30 9599 H 918.96 2.32152 -2.09342 0
M  V30 9600 H 918.18 0.608637 -3.89473 0
M  V30 9601 H 919.468 1.24409 -4.93356 0
M  V30 9602 H 918.866 4.20874 -3.77997 0
M  V30 9603 H 917.423 4.58406 -4.63365 0
M  V30 9604 N 920.856 1.57574 -0.0284266 0
M  V30 9605 C 921.786 2.1321 0.952039 0
M  V30 9606 C 922.767 1.04806 1.33977 0
M  V30 9607 O 923.952 1.32635 1.41851 0
M  V30 9608 C 921.082 2.65862 2.23461 0
M  V30 9609 C 920.036 3.79047 1.98765 0
M  V30 9610 C 919.362 4.18124 3.33281 0
M  V30 9611 C 920.662 5.05151 1.32739 0
M  V30 9612 H 922.356 2.95385 0.488705 0
M  V30 9613 H 919.902 1.42092 0.233628 0
M  V30 9614 H 921.855 3.03417 2.92431 0
M  V30 9615 H 920.579 1.80848 2.71959 0
M  V30 9616 H 919.238 3.41929 1.32213 0
M  V30 9617 H 918.886 3.30092 3.79537 0
M  V30 9618 H 918.586 4.94396 3.17563 0
M  V30 9619 H 920.11 4.58262 4.0352 0
M  V30 9620 H 921.524 5.40297 1.91708 0
M  V30 9621 H 919.921 5.86416 1.27421 0
M  V30 9622 H 920.991 4.83969 0.300261 0
M  V30 9623 N 922.334 -0.244713 1.55689 0
M  V30 9624 C 923.297 -1.2864 1.89695 0
M  V30 9625 C 924.297 -1.40969 0.773583 0
M  V30 9626 O 925.487 -1.39632 1.04156 0
M  V30 9627 C 922.619 -2.66379 2.12732 0
M  V30 9628 H 923.812 -0.997033 2.82841 0
M  V30 9629 H 921.365 -0.484103 1.48614 0
M  V30 9630 H 922.1 -3.00452 1.22062 0
M  V30 9631 H 921.885 -2.58812 2.94549 0
M  V30 9632 H 923.375 -3.41592 2.40218 0
M  V30 9633 N 923.813 -1.49104 -0.510467 0
M  V30 9634 C 925.038 -1.62068 -1.29417 0
M  V30 9635 C 925.463 -0.288432 -1.85875 0
M  V30 9636 O 924.821 0.742667 -1.65391 0
M  V30 9637 C 924.869 -2.68506 -2.40701 0
M  V30 9638 O 923.973 -2.27021 -3.4429 0
M  V30 9639 H 923.314 -0.542778 -0.382476 0
M  V30 9640 H 925.844 -1.95228 -0.612154 0
M  V30 9641 H 925.854 -2.90383 -2.86604 0
M  V30 9642 H 924.529 -3.65216 -1.98973 0
M  V30 9643 H 923.106 -2.15436 -3.04371 0
M  V30 9644 N 925.291 0.760815 -1.38019 0
M  V30 9645 C 926.516 1.55513 -1.37224 0
M  V30 9646 C 926.941 1.88062 0.037611 0
M  V30 9647 O 926.299 1.50042 1.0177 0
M  V30 9648 C 926.347 2.83539 -2.22796 0
M  V30 9649 O 925.451 3.78384 -1.64009 0
M  V30 9650 H 924.792 0.470642 -0.468393 0
M  V30 9651 H 927.322 0.940792 -1.81687 0
M  V30 9652 H 927.332 3.32535 -2.36399 0
M  V30 9653 H 926.007 2.59178 -3.25269 0
M  V30 9654 H 924.584 3.37063 -1.59508 0
M  V30 9655 N 926.769 1.22769 0.988202 0
M  V30 9656 C 928.015 1.05665 1.73097 0
M  V30 9657 C 928.348 -0.406615 1.89895 0
M  V30 9658 O 927.623 -1.30132 1.44554 0
M  V30 9659 C 927.906 1.77381 3.13382 0
M  V30 9660 C 927.759 3.31332 3.04203 0
M  V30 9661 C 929.078 1.52999 4.12649 0
M  V30 9662 H 926.197 0.385258 0.628288 0
M  V30 9663 H 928.839 1.51171 1.15097 0
M  V30 9664 H 926.989 1.38696 3.62899 0
M  V30 9665 H 928.661 3.79489 2.6227 0
M  V30 9666 H 926.904 3.60767 2.40894 0
M  V30 9667 H 927.575 3.76692 4.03493 0
M  V30 9668 H 930.051 1.86611 3.71908 0
M  V30 9669 H 928.927 2.05666 5.08913 0
M  V30 9670 H 929.188 0.463615 4.39662 0
M  V30 9671 N 928.247 -1.18576 1.03814 0
M  V30 9672 C 929.658 -1.70159 0.768299 0
M  V30 9673 C 930.009 -1.8286 -0.711106 0
M  V30 9674 O 929.134 -1.5063 -1.55369 0
M  V30 9675 C 929.729 -3.09062 1.38804 0
M  V30 9676 C 928.288 -3.57866 1.16656 0
M  V30 9677 C 927.435 -2.34484 1.48029 0
M  V30 9678 H 930.386 -1.03287 1.20488 0
M  V30 9679 H 930.407 -3.72211 0.7899 0
M  V30 9680 H 929.919 -2.99785 2.46476 0
M  V30 9681 H 928.02 -3.72442 0.108471 0
M  V30 9682 H 928.133 -4.41445 1.8618 0
M  V30 9683 H 926.497 -2.38273 0.899902 0
M  V30 9684 H 927.28 -2.27829 2.56805 0
M  V30 9685 N 929.725 -0.817259 -1.34754 0
M  V30 9686 C 930.635 -0.236946 -2.334 0
M  V30 9687 C 931.651 0.625685 -1.62361 0
M  V30 9688 O 932.827 0.534921 -1.94166 0
M  V30 9689 C 929.892 0.596215 -3.41535 0
M  V30 9690 C 928.953 -0.288154 -4.28332 0
M  V30 9691 C 928.186 0.505337 -5.31302 0
M  V30 9692 O 928.409 1.73912 -5.43241 0
M  V30 9693 O 927.343 -0.109374 -6.01801 0
M  V30 9694 H 931.169 -1.05327 -2.84851 0
M  V30 9695 H 928.754 -0.579275 -1.37713 0
M  V30 9696 H 930.636 1.07041 -4.07578 0
M  V30 9697 H 929.311 1.38997 -2.92338 0
M  V30 9698 H 928.218 -0.809724 -3.65232 0
M  V30 9699 H 929.551 -1.04612 -4.80955 0
M  V30 9700 N 931.203 1.46865 -0.571711 0
M  V30 9701 C 932.452 2.01636 -0.050881 0
M  V30 9702 C 932.765 1.45001 1.31279 0
M  V30 9703 O 933.971 1.91523 1.92435 0
M  V30 9704 C 932.427 3.59877 -0.0404114 0
M  V30 9705 C 932.035 4.25506 -1.40172 0
M  V30 9706 C 933.779 4.22346 0.42705 0
M  V30 9707 C 931.686 5.75795 -1.34958 0
M  V30 9708 H 930.616 0.753846 -0.0152514 0
M  V30 9709 H 933.267 1.68711 -0.721723 0
M  V30 9710 H 931.649 3.89829 0.696374 0
M  V30 9711 H 932.823 4.07178 -2.15737 0
M  V30 9712 H 931.138 3.75086 -1.8083 0
M  V30 9713 H 933.735 5.32499 0.484688 0
M  V30 9714 H 934.078 3.9052 1.44222 0
M  V30 9715 H 934.611 3.9698 -0.255326 0
M  V30 9716 H 931.35 6.12265 -2.3412 0
M  V30 9717 H 930.87 5.96419 -0.635962 0
M  V30 9718 H 932.549 6.38294 -1.05779 0
M  V30 9719 N 932.681 0.308908 1.54543 0
M  V30 9720 C 933.611 -0.556657 2.26768 0
M  V30 9721 C 934.592 -1.13145 1.27013 0
M  V30 9722 O 935.777 -1.15931 1.558 0
M  V30 9723 C 932.907 -1.72481 3.01443 0
M  V30 9724 C 931.861 -1.28001 4.08411 0
M  V30 9725 C 931.187 -2.53395 4.70845 0
M  V30 9726 C 932.487 -0.405497 5.20724 0
M  V30 9727 H 934.181 0.0457618 2.99365 0
M  V30 9728 H 931.727 0.0234495 1.43981 0
M  V30 9729 H 933.68 -2.3365 3.50693 0
M  V30 9730 H 932.404 -2.35359 2.26437 0
M  V30 9731 H 931.063 -0.69133 3.60022 0
M  V30 9732 H 930.711 -3.14604 3.92471 0
M  V30 9733 H 930.411 -2.2433 5.43093 0
M  V30 9734 H 931.935 -3.15352 5.22863 0
M  V30 9735 H 933.349 -0.923076 5.6582 0
M  V30 9736 H 931.746 -0.208282 5.99738 0
M  V30 9737 H 932.816 0.567412 4.81569 0
M  V30 9738 N 934.159 -1.57557 0.0367827 0
M  V30 9739 C 935.091 -2.07597 -0.971395 0
M  V30 9740 C 936.104 -1.0009 -1.28397 0
M  V30 9741 O 937.293 -1.27692 -1.24728 0
M  V30 9742 C 934.393 -2.492 -2.2968 0
M  V30 9743 C 933.566 -3.79875 -2.16826 0
M  V30 9744 C 932.625 -4.07946 -3.32366 0
M  V30 9745 O 931.651 -4.78083 -3.0891 0
M  V30 9746 N 932.853 -3.58722 -4.56397 0
M  V30 9747 H 935.618 -2.94714 -0.544389 0
M  V30 9748 H 933.179 -1.61205 -0.1498 0
M  V30 9749 H 935.171 -2.65065 -3.05815 0
M  V30 9750 H 933.741 -1.67407 -2.63995 0
M  V30 9751 H 932.961 -3.73732 -1.2537 0
M  V30 9752 H 934.249 -4.65476 -2.0545 0
M  V30 9753 H 933.647 -3.01994 -4.78347 0
M  V30 9754 H 932.204 -3.79852 -5.29675 0
M  V30 9755 N 935.637 0.236453 -1.55816 0
M  V30 9756 C 936.884 0.963012 -1.78136 0
M  V30 9757 C 937.212 1.84918 -0.602952 0
M  V30 9758 O 936.467 1.91285 0.413325 0
M  V30 9759 C 936.766 1.84549 -3.06066 0
M  V30 9760 C 936.432 1.11381 -4.36927 0
M  V30 9761 C 935.094 0.911635 -4.72486 0
M  V30 9762 C 937.446 0.596 -5.17781 0
M  V30 9763 C 934.774 0.179515 -5.86425 0
M  V30 9764 C 937.126 -0.122702 -6.32481 0
M  V30 9765 C 935.79 -0.336263 -6.66652 0
M  V30 9766 H 935.06 0.352391 -0.651845 0
M  V30 9767 H 937.707 0.232295 -1.90086 0
M  V30 9768 H 936.012 2.6436 -2.89173 0
M  V30 9769 H 937.709 2.40953 -3.20535 0
M  V30 9770 H 934.299 1.28134 -4.08998 0
M  V30 9771 H 938.483 0.73971 -4.90757 0
M  V30 9772 H 933.739 0.00368224 -6.114 0
M  V30 9773 H 937.913 -0.531516 -6.94369 0
M  V30 9774 H 935.54 -0.905507 -7.54788 0
M  V30 9775 N 937.115 1.49373 0.502552 0
M  V30 9776 C 938.063 1.66411 1.62512 0
M  V30 9777 C 939.057 0.530062 1.60893 0
M  V30 9778 O 940.263 0.709648 1.65421 0
M  V30 9779 H 936.638 0.524707 0.538689 0
M  V30 9780 H 938.609 2.60639 1.45293 0
M  V30 9781 C 937.358 1.74648 3.00655 0
M  V30 9782 H 936.681 2.61285 3.02606 0
M  V30 9783 H 938.121 1.90605 3.78742 0
M  V30 9784 C 936.58 0.490963 3.33303 0
M  V30 9785 O 937.11 -0.384039 3.9986 0
M  V30 9786 N 935.316 0.354375 2.88431 0
M  V30 9787 H 934.863 1.06742 2.34444 0
M  V30 9788 H 934.821 -0.484593 3.10643 0
M  V30 9789 N 938.594 -0.753485 1.38421 0
M  V30 9790 C 939.524 -1.8808 1.38377 0
M  V30 9791 C 940.505 -1.68258 0.249664 0
M  V30 9792 O 941.69 -1.88848 0.45276 0
M  V30 9793 C 938.82 -3.25608 1.20818 0
M  V30 9794 C 937.774 -3.60032 2.31433 0
M  V30 9795 C 937.1 -4.96297 1.9898 0
M  V30 9796 C 938.4 -3.64898 3.73694 0
M  V30 9797 H 940.094 -1.88375 2.32713 0
M  V30 9798 H 937.64 -0.90489 1.12017 0
M  V30 9799 H 939.593 -4.04127 1.19412 0
M  V30 9800 H 938.317 -3.25793 0.229433 0
M  V30 9801 H 936.976 -2.83831 2.32025 0
M  V30 9802 H 936.624 -4.93043 0.995889 0
M  V30 9803 H 936.324 -5.20298 2.73063 0
M  V30 9804 H 937.848 -5.77196 1.99193 0
M  V30 9805 H 939.262 -4.33531 3.75132 0
M  V30 9806 H 937.659 -4.00407 4.46983 0
M  V30 9807 H 938.729 -2.65124 4.06002 0
M  V30 9808 N 940.072 -1.23292 -0.981677 0
M  V30 9809 C 941.002 -1.03738 -2.09191 0
M  V30 9810 C 941.983 0.0453041 -1.7004 0
M  V30 9811 O 943.168 -0.119092 -1.93834 0
M  V30 9812 C 940.298 -0.626426 -3.41604 0
M  V30 9813 C 939.252 -1.65631 -3.94652 0
M  V30 9814 C 938.578 -1.10084 -5.23245 0
M  V30 9815 C 939.878 -3.04903 -4.24066 0
M  V30 9816 H 941.572 -1.966 -2.25807 0
M  V30 9817 H 939.118 -0.946656 -1.0851 0
M  V30 9818 H 941.071 -0.476689 -4.18695 0
M  V30 9819 H 939.795 0.337873 -3.24848 0
M  V30 9820 H 938.454 -1.79402 -3.19704 0
M  V30 9821 H 938.102 -0.127562 -5.02838 0
M  V30 9822 H 937.802 -1.78896 -5.59705 0
M  V30 9823 H 939.326 -0.962928 -6.02959 0
M  V30 9824 H 940.74 -2.94441 -4.91912 0
M  V30 9825 H 939.137 -3.70941 -4.71724 0
M  V30 9826 H 940.207 -3.53991 -3.31389 0
M  V30 9827 N 941.55 1.18024 -1.04442 0
M  V30 9828 C 942.798 1.87727 -0.74854 0
M  V30 9829 C 943.119 1.80975 0.726156 0
M  V30 9830 O 942.389 1.23061 1.52423 0
M  V30 9831 H 940.969 0.694974 -0.273897 0
M  V30 9832 H 943.631 1.43213 -1.32197 0
M  V30 9833 H 942.727 2.93665 -1.05674 0
M  V30 9834 N 943.028 0.824394 1.34319 0
M  V30 9835 C 944.274 0.413779 1.98534 0
M  V30 9836 C 944.607 -1.02089 1.65201 0
M  V30 9837 O 943.882 -1.71129 0.924402 0
M  V30 9838 C 944.165 0.61801 3.54757 0
M  V30 9839 C 944.018 2.0989 3.97827 0
M  V30 9840 C 945.337 0.0549041 4.40066 0
M  V30 9841 H 942.456 0.151815 0.721194 0
M  V30 9842 H 945.098 1.03723 1.5919 0
M  V30 9843 H 943.248 0.0873107 3.88402 0
M  V30 9844 H 944.92 2.69335 3.74508 0
M  V30 9845 H 943.163 2.58881 3.48085 0
M  V30 9846 H 943.834 2.1926 5.06586 0
M  V30 9847 H 946.31 0.508348 4.12983 0
M  V30 9848 H 945.186 0.227595 5.48428 0
M  V30 9849 H 945.447 -1.04025 4.29687 0
M  V30 9850 N 944.506 -1.46559 0.579492 0
M  V30 9851 C 945.917 -1.8608 0.152052 0
M  V30 9852 C 946.268 -1.48346 -1.28405 0
M  V30 9853 O 945.393 -0.89685 -1.9694 0
M  V30 9854 C 945.988 -3.37729 0.269171 0
M  V30 9855 C 944.547 -3.76258 -0.103376 0
M  V30 9856 C 943.694 -2.70584 0.60659 0
M  V30 9857 H 946.645 -1.3776 0.787904 0
M  V30 9858 H 946.666 -3.77116 -0.506339 0
M  V30 9859 H 946.178 -3.65162 1.31448 0
M  V30 9860 H 944.279 -3.54443 -1.14895 0
M  V30 9861 H 944.392 -4.78335 0.270701 0
M  V30 9862 H 942.756 -2.54656 0.0471984 0
M  V30 9863 H 943.539 -3.00856 1.65349 0
M  V30 9864 N 945.984 -0.3171 -1.54377 0
M  V30 9865 C 946.914 0.544623 -2.2706 0
M  V30 9866 C 947.895 1.12469 -1.27611 0
M  V30 9867 O 949.08 1.15103 -1.56413 0
M  V30 9868 C 946.21 1.70879 -3.02353 0
M  V30 9869 C 945.164 1.25833 -4.09084 0
M  V30 9870 C 944.49 2.50894 -4.72182 0
M  V30 9871 C 945.79 0.377876 -5.20931 0
M  V30 9872 H 947.484 -0.0616372 -2.99337 0
M  V30 9873 H 945.03 -0.0310848 -1.43966 0
M  V30 9874 H 946.983 2.31787 -3.51927 0
M  V30 9875 H 945.707 2.34155 -2.27682 0
M  V30 9876 H 944.366 0.672228 -3.60384 0
M  V30 9877 H 944.014 3.12518 -3.94134 0
M  V30 9878 H 943.714 2.21447 -5.44275 0
M  V30 9879 H 945.238 3.12575 -5.24528 0
M  V30 9880 H 946.652 0.893056 -5.66302 0
M  V30 9881 H 945.049 0.176474 -5.9984 0
M  V30 9882 H 946.119 -0.592943 -4.81261 0
M  V30 9883 N 947.462 1.57535 -0.0451378 0
M  V30 9884 C 948.708 1.92736 0.630921 0
M  V30 9885 C 949.041 0.923265 1.70849 0
M  V30 9886 O 948.316 -0.0516512 1.94431 0
M  V30 9887 C 948.599 3.38348 1.23259 0
M  V30 9888 C 948.452 4.49503 0.16349 0
M  V30 9889 C 949.771 3.84233 2.14599 0
M  V30 9890 H 946.89 0.700884 0.227883 0
M  V30 9891 H 949.532 1.89706 -0.10567 0
M  V30 9892 H 947.682 3.41061 1.86037 0
M  V30 9893 H 949.354 4.58919 -0.46808 0
M  V30 9894 H 947.597 4.30802 -0.509166 0
M  V30 9895 H 948.268 5.48457 0.624382 0
M  V30 9896 H 950.744 3.83358 1.6179 0
M  V30 9897 H 949.62 4.86781 2.53644 0
M  V30 9898 H 949.881 3.20646 3.04366 0
M  V30 9899 N 948.94 -0.228186 1.55939 0
M  V30 9900 C 950.188 -0.951668 1.78291 0
M  V30 9901 C 950.509 -1.85132 0.612474 0
M  V30 9902 O 949.779 -1.92356 -0.370942 0
M  V30 9903 H 948.359 -0.354388 0.657585 0
M  V30 9904 H 951.021 -0.241635 1.93396 0
M  V30 9905 H 950.117 -1.56239 2.70177 0
M  V30 9906 N 950.418 -1.49637 -0.494624 0
M  V30 9907 C 951.381 -1.66252 -1.57775 0
M  V30 9908 C 952.381 -0.534054 -1.51672 0
M  V30 9909 O 953.571 -0.800637 -1.54711 0
M  V30 9910 C 950.703 -1.66584 -2.97426 0
M  V30 9911 H 951.896 -2.62864 -1.4437 0
M  V30 9912 H 949.449 -1.38764 -0.719323 0
M  V30 9913 H 950.184 -0.715798 -3.16302 0
M  V30 9914 H 949.969 -2.48543 -3.03264 0
M  V30 9915 H 951.459 -1.81474 -3.76108 0
M  V30 9916 N 951.896 0.746133 -1.38819 0
M  V30 9917 C 953.173 1.49652 -1.25951 0
M  V30 9918 C 953.553 2.10663 0.135833 0
M  V30 9919 O 952.901 1.97682 1.14604 0
M  V30 9920 C 953.111 2.5569 -2.37537 0
M  V30 9921 C 954.459 3.22385 -2.76321 0
M  V30 9922 O 955.483 2.65998 -2.36904 0
M  V30 9923 O 954.342 4.2439 -3.44319 0
M  V30 9924 H 951.436 0.664019 -0.492958 0
M  V30 9925 H 953.982 0.780908 -1.50665 0
M  V30 9926 H 952.754 2.08908 -3.30867 0
M  V30 9927 H 952.377 3.34823 -2.14427 0
M  V30 9928 N 953.375 1.23811 0.975125 0
M  V30 9929 C 954.621 1.07495 1.71967 0
M  V30 9930 C 954.954 -0.386451 1.90316 0
M  V30 9931 O 954.229 -1.28591 1.45927 0
M  V30 9932 C 954.512 1.80694 3.11483 0
M  V30 9933 C 954.365 3.3454 3.00671 0
M  V30 9934 C 955.684 1.57367 4.11003 0
M  V30 9935 H 952.803 0.3919 0.624166 0
M  V30 9936 H 955.445 1.52383 1.13487 0
M  V30 9937 H 953.595 1.42538 3.61407 0
M  V30 9938 H 955.267 3.8225 2.5823 0
M  V30 9939 H 953.51 3.63301 2.37054 0
M  V30 9940 H 954.181 3.80951 3.99475 0
M  V30 9941 H 956.657 1.90545 3.69908 0
M  V30 9942 H 955.533 2.11052 5.06703 0
M  V30 9943 H 955.794 0.510221 4.39146 0
M  V30 9944 N 954.853 -1.17469 1.05066 0
M  V30 9945 C 956.093 -1.89382 0.769012 0
M  V30 9946 C 956.457 -1.79126 -0.691217 0
M  V30 9947 O 957.658 -2.45845 -1.08692 0
M  V30 9948 C 955.929 -3.35397 1.23465 0
M  V30 9949 S 957.488 -4.25297 1.08018 0
M  V30 9950 H 954.306 -0.653839 0.279312 0
M  V30 9951 H 956.908 -1.41877 1.34503 0
M  V30 9952 H 955.612 -3.40395 2.29258 0
M  V30 9953 H 955.143 -3.87945 0.652853 0
M  V30 9954 H 957.158 -4.962 0.00358573 0
M  V30 9955 N 956.331 -0.831506 -1.3388 0
M  V30 9956 C 957.579 -0.422837 -1.97627 0
M  V30 9957 C 957.9 1.01961 -1.6622 0
M  V30 9958 O 957.17 1.70916 -0.957323 0
M  V30 9959 H 955.75 -0.153365 -0.731087 0
M  V30 9960 H 958.412 -1.06284 -1.6337 0
M  V30 9961 H 957.508 -0.548858 -3.07236 0
M  V30 9962 N 957.809 1.4625 -0.587256 0
M  V30 9963 C 959.056 2.02363 -0.0745746 0
M  V30 9964 C 959.384 1.4582 1.28712 0
M  V30 9965 O 958.639 0.614922 1.85788 0
M  V30 9966 C 958.938 3.57382 0.036328 0
M  V30 9967 C 958.604 4.32985 -1.25837 0
M  V30 9968 C 957.266 4.53358 -1.61306 0
M  V30 9969 C 959.618 4.76361 -2.11494 0
M  V30 9970 C 956.946 5.14361 -2.82223 0
M  V30 9971 C 959.298 5.38699 -3.31641 0
M  V30 9972 C 957.962 5.57299 -3.67388 0
M  V30 9973 H 957.232 0.740497 -0.0272888 0
M  V30 9974 H 959.879 1.75565 -0.764804 0
M  V30 9975 H 958.184 3.83342 0.809712 0
M  V30 9976 H 959.881 3.9848 0.448838 0
M  V30 9977 H 956.471 4.17427 -0.972251 0
M  V30 9978 H 960.655 4.60372 -1.85394 0
M  V30 9979 H 955.911 5.26952 -3.10051 0
M  V30 9980 H 960.085 5.71267 -3.9828 0
M  V30 9981 H 957.712 6.04338 -4.61173 0
M  V30 9982 N 959.287 0.325282 1.54207 0
M  V30 9983 C 960.217 -0.532574 2.27345 0
M  V30 9984 C 961.198 -1.11791 1.28206 0
M  V30 9985 O 962.383 -1.14272 1.57021 0
M  V30 9986 C 959.513 -1.69274 3.03255 0
M  V30 9987 C 958.467 -1.23662 4.09746 0
M  V30 9988 C 957.793 -2.48386 4.73506 0
M  V30 9989 C 959.093 -0.350244 5.21124 0
M  V30 9990 H 960.787 0.0775108 2.993 0
M  V30 9991 H 958.333 0.0387193 1.43948 0
M  V30 9992 H 960.286 -2.29917 3.53152 0
M  V30 9993 H 959.01 -2.32944 2.28921 0
M  V30 9994 H 957.669 -0.653106 3.60735 0
M  V30 9995 H 957.317 -3.10424 3.95786 0
M  V30 9996 H 957.017 -2.18558 5.45441 0
M  V30 9997 H 958.541 -3.09789 5.26178 0
M  V30 9998 H 959.955 -0.863011 5.66767 0
M  V30 9999 H 958.352 -0.14466 5.99926 0
M  V30 10000 H 959.422 0.618457 4.8094 0
M  V30 10001 N 960.765 -1.57509 0.0534917 0
M  V30 10002 C 962.013 -1.92402 -0.618548 0
M  V30 10003 C 962.334 -0.93273 -1.71246 0
M  V30 10004 O 961.604 0.0220495 -1.95888 0
M  V30 10005 H 960.184 -0.710233 -0.23147 0
M  V30 10006 H 962.846 -1.94606 0.10704 0
M  V30 10007 H 961.942 -2.93704 -1.05566 0
M  V30 10008 N 962.243 0.219913 -1.56058 0
M  V30 10009 C 963.191 1.29215 -1.93407 0
M  V30 10010 C 964.185 1.48434 -0.816307 0
M  V30 10011 O 965.391 1.49589 -1.00115 0
M  V30 10012 H 961.766 0.433256 -0.614649 0
M  V30 10013 H 963.737 0.949977 -2.82875 0
M  V30 10014 C 962.486 2.63501 -2.26854 0
M  V30 10015 H 961.809 2.4952 -3.12377 0
M  V30 10016 H 963.249 3.37334 -2.56869 0
M  V30 10017 C 961.708 3.18634 -1.09425 0
M  V30 10018 O 962.238 4.00117 -0.356243 0
M  V30 10019 N 960.444 2.7703 -0.877642 0
M  V30 10020 H 959.991 2.10875 -1.47951 0
M  V30 10021 H 959.949 3.1426 -0.0936792 0
M  V30 10022 N 963.721 1.49897 0.486681 0
M  V30 10023 C 964.949 1.63837 1.26353 0
M  V30 10024 C 965.364 0.315428 1.86146 0
M  V30 10025 O 964.721 -0.700831 1.68507 0
M  V30 10026 C 964.772 2.71792 2.38351 0
M  V30 10027 O 964.493 3.98956 1.81013 0
M  V30 10028 C 965.994 2.96566 3.2949 0
M  V30 10029 H 963.214 0.551158 0.382709 0
M  V30 10030 H 965.758 1.96023 0.582694 0
M  V30 10031 H 963.913 2.42344 3.02238 0
M  V30 10032 H 964.327 4.58536 2.54647 0
M  V30 10033 H 965.801 3.75803 4.04322 0
M  V30 10034 H 966.278 2.07031 3.87343 0
M  V30 10035 H 966.884 3.27485 2.71355 0
M  V30 10036 N 965.199 -0.738761 1.39212 0
M  V30 10037 C 966.424 -1.5331 1.39681 0
M  V30 10038 C 966.849 -1.88098 -0.00768715 0
M  V30 10039 O 966.207 -1.51642 -0.993699 0
M  V30 10040 C 966.255 -2.79958 2.27279 0
M  V30 10041 O 965.359 -3.75727 1.70008 0
M  V30 10042 H 964.7 -0.463131 0.475821 0
M  V30 10043 H 967.23 -0.911768 1.83161 0
M  V30 10044 H 967.24 -3.28732 2.41659 0
M  V30 10045 H 965.915 -2.5397 3.29351 0
M  V30 10046 H 964.492 -3.34483 1.64851 0
M  V30 10047 N 966.677 -1.24326 -0.968545 0
M  V30 10048 C 967.587 -1.05194 -2.09694 0
M  V30 10049 C 968.603 0.00701291 -1.73999 0
M  V30 10050 O 969.779 -0.190981 -2.00492 0
M  V30 10051 C 966.844 -0.658075 -3.40397 0
M  V30 10052 C 965.905 -1.79341 -3.90045 0
M  V30 10053 C 965.138 -1.41824 -5.14511 0
M  V30 10054 O 965.361 -0.307693 -5.69569 0
M  V30 10055 O 964.295 -2.24358 -5.58522 0
M  V30 10056 H 968.121 -1.99791 -2.2873 0
M  V30 10057 H 965.706 -1.03138 -1.08088 0
M  V30 10058 H 967.588 -0.449911 -4.18991 0
M  V30 10059 H 966.263 0.258782 -3.22664 0
M  V30 10060 H 965.17 -2.05632 -3.12516 0
M  V30 10061 H 966.503 -2.68901 -4.12254 0
M  V30 10062 N 968.156 1.1691 -1.05688 0
M  V30 10063 C 969.066 2.24735 -0.67315 0
M  V30 10064 C 970.082 1.71252 0.308043 0
M  V30 10065 O 971.258 2.00772 0.158889 0
M  V30 10066 C 968.323 3.4665 -0.059026 0
M  V30 10067 C 967.384 4.15198 -1.0913 0
M  V30 10068 C 966.617 5.31292 -0.50639 0
M  V30 10069 O 966.84 5.663 0.682692 0
M  V30 10070 O 965.774 5.88923 -1.2431 0
M  V30 10071 H 969.6 2.59855 -1.57191 0
M  V30 10072 H 967.185 1.24306 -0.828751 0
M  V30 10073 H 969.067 4.20455 0.282018 0
M  V30 10074 H 967.742 3.13316 0.813304 0
M  V30 10075 H 966.649 3.43389 -1.48442 0
M  V30 10076 H 967.982 4.52571 -1.93495 0
M  V30 10077 N 969.634 0.838594 1.33437 0
M  V30 10078 C 970.564 0.286672 2.31734 0
M  V30 10079 C 971.545 -0.605451 1.5896 0
M  V30 10080 O 972.73 -0.529059 1.86854 0
M  V30 10081 C 969.86 -0.539311 3.43087 0
M  V30 10082 C 968.814 0.256997 4.27228 0
M  V30 10083 C 968.14 -0.692718 5.30194 0
M  V30 10084 C 969.44 1.47391 5.01072 0
M  V30 10085 H 971.134 1.10798 2.78144 0
M  V30 10086 H 968.68 0.534235 1.33723 0
M  V30 10087 H 970.633 -0.935724 4.1088 0
M  V30 10088 H 969.357 -1.39383 2.95364 0
M  V30 10089 H 968.016 0.634967 3.61059 0
M  V30 10090 H 967.664 -1.54363 4.78729 0
M  V30 10091 H 967.364 -0.164023 5.87371 0
M  V30 10092 H 968.888 -1.08665 6.00853 0
M  V30 10093 H 970.302 1.15067 5.61634 0
M  V30 10094 H 968.699 1.93937 5.67898 0
M  V30 10095 H 969.769 2.24382 4.29861 0
M  V30 10096 N 971.112 -1.45937 0.595003 0
M  V30 10097 C 972.352 -2.0421 0.0881479 0
M  V30 10098 C 972.716 -1.45498 -1.25277 0
M  V30 10099 O 973.917 -1.95047 -1.8496 0
M  V30 10100 C 972.188 -3.57382 0.0362346 0
M  V30 10101 S 973.747 -4.36869 -0.41126 0
M  V30 10102 H 970.565 -0.709672 0.0434424 0
M  V30 10103 H 973.167 -1.78815 0.790273 0
M  V30 10104 H 971.871 -3.97628 1.0159 0
M  V30 10105 H 971.402 -3.87332 -0.688278 0
M  V30 10106 H 973.417 -4.67486 -1.66347 0
M  V30 10107 N 972.59 -0.333456 -1.54032 0
M  V30 10108 C 973.836 0.266527 -2.01041 0
M  V30 10109 C 974.169 1.51006 -1.2211 0
M  V30 10110 O 973.444 1.92078 -0.306016 0
M  V30 10111 C 973.727 0.59078 -3.55221 0
M  V30 10112 C 973.58 -0.664143 -4.4487 0
M  V30 10113 C 974.899 1.40447 -4.17088 0
M  V30 10114 H 972.018 0.0953979 -0.7308 0
M  V30 10115 H 974.66 -0.451995 -1.84545 0
M  V30 10116 H 972.81 1.20292 -3.69408 0
M  V30 10117 H 974.482 -1.30227 -4.42537 0
M  V30 10118 H 972.725 -1.29106 -4.14143 0
M  V30 10119 H 973.396 -0.392664 -5.50602 0
M  V30 10120 H 975.872 0.886946 -4.06537 0
M  V30 10121 H 974.748 1.6001 -5.2506 0
M  V30 10122 H 975.009 2.40357 -3.71054 0
M  V30 10123 N 974.068 1.57479 -0.061844 0
M  V30 10124 C 975.484 1.56855 0.294753 0
M  V30 10125 C 975.684 1.07042 1.70717 0
M  V30 10126 O 974.74 0.731817 2.41662 0
M  V30 10127 C 976.053 3.00486 0.113484 0
M  V30 10128 C 977.601 3.1246 0.183778 0
M  V30 10129 C 978.076 4.5799 0.0309092 0
M  V30 10130 N 979.567 4.63119 0.0868393 0
M  V30 10131 C 980.302 5.734 -0.00717446 0
M  V30 10132 N 979.798 6.92628 -0.154144 0
M  V30 10133 N 981.591 5.62078 0.0491763 0
M  V30 10134 H 973.742 1.88176 -0.985058 0
M  V30 10135 H 976.005 0.867051 -0.383309 0
M  V30 10136 H 975.711 3.41004 -0.86075 0
M  V30 10137 H 975.585 3.67029 0.870023 0
M  V30 10138 H 977.972 2.71834 1.14849 0
M  V30 10139 H 978.053 2.48574 -0.603697 0
M  V30 10140 H 977.697 4.99303 -0.930526 0
M  V30 10141 H 977.627 5.19895 0.837664 0
M  V30 10142 H 980.118 3.77374 0.199245 0
M  V30 10143 H 980.431 7.72492 -0.218296 0
M  V30 10144 H 978.776 6.94742 -0.189372 0
M  V30 10145 H 981.967 4.67817 0.162626 0
M  V30 10146 H 982.14 6.47994 -0.0275478 0
M  V30 10147 N 975.546 -0.211634 1.56173 0
M  V30 10148 C 976.792 -0.931479 1.80818 0
M  V30 10149 C 977.147 -1.81571 0.636373 0
M  V30 10150 O 976.44 -1.8801 -0.369182 0
M  V30 10151 C 976.634 -1.79657 3.08963 0
M  V30 10152 C 976.463 -0.997577 4.38496 0
M  V30 10153 C 975.233 -0.688558 5.00587 0
M  V30 10154 C 977.431 -0.358138 5.13052 0
M  V30 10155 N 975.413 0.130797 6.13761 0
M  V30 10156 C 976.784 0.324159 6.19152 0
M  V30 10157 C 978.839 -0.272178 4.97156 0
M  V30 10158 C 977.542 1.08421 7.11082 0
M  V30 10159 C 979.568 0.474428 5.89494 0
M  V30 10160 C 978.93 1.14523 6.95028 0
M  V30 10161 H 975.029 -0.32079 0.713174 0
M  V30 10162 H 977.613 -0.201528 1.93654 0
M  V30 10163 H 975.784 -2.49826 2.97392 0
M  V30 10164 H 977.516 -2.45464 3.2176 0
M  V30 10165 H 974.271 -1.00899 4.62727 0
M  V30 10166 H 974.695 0.5296 6.74925 0
M  V30 10167 H 979.337 -0.776448 4.15609 0
M  V30 10168 H 977.055 1.59996 7.92103 0
M  V30 10169 H 980.641 0.542076 5.79269 0
M  V30 10170 H 979.521 1.71371 7.65246 0
M  V30 10171 N 977.024 -1.50153 -0.478725 0
M  V30 10172 C 978.252 -1.64505 -1.25482 0
M  V30 10173 C 978.667 -0.325295 -1.85977 0
M  V30 10174 O 978.024 0.691885 -1.68876 0
M  V30 10175 C 978.075 -2.73052 -2.36906 0
M  V30 10176 O 977.796 -3.99911 -1.78894 0
M  V30 10177 C 979.297 -2.98309 -3.27912 0
M  V30 10178 H 976.517 -0.55318 -0.379781 0
M  V30 10179 H 979.061 -1.96329 -0.57229 0
M  V30 10180 H 977.216 -2.43944 -3.00949 0
M  V30 10181 H 977.63 -4.5988 -2.52211 0
M  V30 10182 H 979.104 -3.77942 -4.02323 0
M  V30 10183 H 979.581 -2.09082 -3.8624 0
M  V30 10184 H 980.187 -3.2892 -2.69614 0
M  V30 10185 N 978.502 0.731368 -1.39602 0
M  V30 10186 C 979.434 1.85575 -1.34516 0
M  V30 10187 C 980.447 1.60818 -0.253287 0
M  V30 10188 O 981.636 1.70984 -0.512505 0
M  V30 10189 C 978.736 3.21673 -1.06676 0
M  V30 10190 C 977.909 3.73757 -2.27211 0
M  V30 10191 C 976.968 4.88426 -1.95773 0
M  V30 10192 O 975.994 5.01898 -2.68491 0
M  V30 10193 N 977.196 5.73065 -0.926083 0
M  V30 10194 H 979.961 1.90442 -2.31413 0
M  V30 10195 H 977.522 0.912258 -1.33752 0
M  V30 10196 H 979.514 3.95959 -0.836577 0
M  V30 10197 H 978.084 3.12052 -0.185003 0
M  V30 10198 H 977.304 2.90781 -2.66158 0
M  V30 10199 H 978.592 4.05289 -3.07601 0
M  V30 10200 H 977.99 5.64774 -0.323497 0
M  V30 10201 H 976.547 6.47403 -0.755795 0
M  V30 10202 N 979.98 1.24838 0.961938 0
M  V30 10203 C 980.91 1.07053 2.07514 0
M  V30 10204 C 981.891 -0.0182465 1.7009 0
M  V30 10205 O 983.076 0.149915 1.9362 0
M  V30 10206 C 980.206 0.680693 3.40564 0
M  V30 10207 C 979.16 1.71889 3.91967 0
M  V30 10208 C 978.486 1.18395 5.21428 0
M  V30 10209 C 979.786 3.1161 4.19161 0
M  V30 10210 H 981.48 2.00167 2.22651 0
M  V30 10211 H 979.026 0.963799 1.0699 0
M  V30 10212 H 980.979 0.54324 4.17884 0
M  V30 10213 H 979.703 -0.28615 3.25344 0
M  V30 10214 H 978.362 1.84465 3.16809 0
M  V30 10215 H 978.01 0.207543 5.02572 0
M  V30 10216 H 977.71 1.87778 5.56788 0
M  V30 10217 H 979.234 1.05873 6.01351 0
M  V30 10218 H 980.648 3.0223 4.87165 0
M  V30 10219 H 979.045 3.78398 4.65763 0
M  V30 10220 H 980.115 3.59218 3.25715 0
M  V30 10221 N 981.458 -1.16348 1.06306 0
M  V30 10222 C 982.706 -1.86512 0.778311 0
M  V30 10223 C 983.027 -1.82107 -0.697273 0
M  V30 10224 O 982.297 -1.2547 -1.50446 0
M  V30 10225 H 980.877 -0.690529 0.284919 0
M  V30 10226 H 983.539 -1.41092 1.34458 0
M  V30 10227 H 982.635 -2.91947 1.10333 0
M  V30 10228 N 982.937 -0.845659 -1.3299 0
M  V30 10229 C 983.9 -0.288905 -2.27372 0
M  V30 10230 C 984.9 0.546263 -1.51237 0
M  V30 10231 O 986.09 0.359072 -1.70459 0
M  V30 10232 C 983.222 0.59224 -3.35716 0
M  V30 10233 H 984.415 -1.12181 -2.78128 0
M  V30 10234 H 981.968 -0.619276 -1.43508 0
M  V30 10235 H 982.703 1.44732 -2.90212 0
M  V30 10236 H 982.488 -0.00543255 -3.921 0
M  V30 10237 H 983.978 0.974848 -4.06062 0
M  V30 10238 N 984.415 1.45619 -0.602734 0
M  V30 10239 C 985.662 2.02272 -0.0960337 0
M  V30 10240 C 985.99 1.47177 1.27159 0
M  V30 10241 O 985.245 0.634593 1.85125 0
M  V30 10242 C 985.544 3.574 -0.00157909 0
M  V30 10243 C 985.21 4.31626 -1.30422 0
M  V30 10244 C 983.872 4.51622 -1.66106 0
M  V30 10245 C 986.224 4.74091 -2.16535 0
M  V30 10246 C 983.552 5.11338 -2.87663 0
M  V30 10247 C 985.904 5.35151 -3.37336 0
M  V30 10248 C 984.568 5.53371 -3.73278 0
M  V30 10249 H 983.838 0.740166 -0.0351412 0
M  V30 10250 H 986.485 1.74744 -0.783382 0
M  V30 10251 H 984.79 3.84179 0.769008 0
M  V30 10252 H 986.487 3.98934 0.406549 0
M  V30 10253 H 983.077 4.16372 -1.01647 0
M  V30 10254 H 987.261 4.5838 -1.90266 0
M  V30 10255 H 982.517 5.23634 -3.15622 0
M  V30 10256 H 986.691 5.67011 -4.04316 0
M  V30 10257 H 984.318 5.99412 -4.67556 0
M  V30 10258 N 985.893 0.34162 1.53853 0
M  V30 10259 C 987.123 -0.256557 2.05001 0
M  V30 10260 C 987.531 -1.44916 1.21639 0
M  V30 10261 O 986.874 -1.8207 0.244138 0
M  V30 10262 C 986.936 -0.737109 3.51862 0
M  V30 10263 C 986.6 0.335584 4.55766 0
M  V30 10264 C 987.597 1.17765 5.06387 0
M  V30 10265 C 985.282 0.488958 4.99914 0
M  V30 10266 C 987.276 2.15865 5.99734 0
M  V30 10267 C 984.963 1.47336 5.93073 0
M  V30 10268 C 985.961 2.30666 6.4287 0
M  V30 10269 O 985.649 3.2743 7.34197 0
M  V30 10270 H 985.381 -0.0536867 0.673865 0
M  V30 10271 H 987.935 0.49123 1.99439 0
M  V30 10272 H 986.165 -1.53611 3.54881 0
M  V30 10273 H 987.854 -1.25562 3.85991 0
M  V30 10274 H 988.62 1.07023 4.73044 0
M  V30 10275 H 984.499 -0.149807 4.60757 0
M  V30 10276 H 988.043 2.80945 6.38526 0
M  V30 10277 H 983.94 1.58134 6.25831 0
M  V30 10278 H 984.708 3.22879 7.52125 0
M  V30 10279 N 987.371 -1.57444 0.0701946 0
M  V30 10280 C 988.782 -1.80875 -0.462709 0
M  V30 10281 C 989.133 -0.983975 -1.69742 0
M  V30 10282 O 988.258 -0.206027 -2.15417 0
M  V30 10283 C 988.853 -3.28062 -0.84623 0
M  V30 10284 C 987.412 -3.52345 -1.32401 0
M  V30 10285 C 986.559 -2.7558 -0.308399 0
M  V30 10286 H 989.51 -1.55917 0.295907 0
M  V30 10287 H 989.531 -3.40023 -1.70776 0
M  V30 10288 H 989.043 -3.88064 0.0526033 0
M  V30 10289 H 987.144 -2.97645 -2.24139 0
M  V30 10290 H 987.257 -4.6104 -1.30304 0
M  V30 10291 H 985.621 -2.4229 -0.785337 0
M  V30 10292 H 986.404 -3.38319 0.582679 0
M  V30 10293 N 988.849 0.203349 -1.56283 0
M  V30 10294 C 990.096 0.92501 -1.80138 0
M  V30 10295 C 990.424 1.83598 -0.64204 0
M  V30 10296 O 989.679 1.92119 0.372658 0
M  V30 10297 C 989.978 1.78016 -3.09912 0
M  V30 10298 C 989.644 1.02088 -4.39191 0
M  V30 10299 C 988.306 0.811208 -4.74313 0
M  V30 10300 C 990.658 0.486037 -5.18929 0
M  V30 10301 C 987.986 0.0550856 -5.86674 0
M  V30 10302 C 990.338 -0.256833 -6.32078 0
M  V30 10303 C 989.002 -0.477594 -6.65789 0
M  V30 10304 H 988.272 0.338485 -0.659173 0
M  V30 10305 H 990.919 0.191923 -1.90536 0
M  V30 10306 H 989.224 2.58167 -2.94715 0
M  V30 10307 H 990.921 2.341 -3.25574 0
M  V30 10308 H 987.511 1.1943 -4.11624 0
M  V30 10309 H 991.695 0.635446 -4.92215 0
M  V30 10310 H 986.951 -0.126006 -6.1127 0
M  V30 10311 H 991.125 -0.678683 -6.93085 0
M  V30 10312 H 988.752 -1.0654 -7.52697 0
M  V30 10313 N 990.327 1.50405 0.470755 0
M  V30 10314 C 991.26 1.63933 1.58749 0
M  V30 10315 C 992.238 0.487444 1.55122 0
M  V30 10316 O 993.422 0.706992 1.74739 0
M  V30 10317 C 990.549 1.62222 2.97324 0
M  V30 10318 C 989.595 2.82975 3.19104 0
M  V30 10319 S 990.428 4.44272 2.98969 0
M  V30 10320 C 991.584 4.45254 4.39886 0
M  V30 10321 H 991.817 2.58396 1.47034 0
M  V30 10322 H 989.35 1.39672 0.658115 0
M  V30 10323 H 991.308 1.6192 3.77217 0
M  V30 10324 H 989.969 0.689944 3.06429 0
M  V30 10325 H 989.162 2.78083 4.2034 0
M  V30 10326 H 988.764 2.80846 2.46984 0
M  V30 10327 H 991.056 4.18837 5.32524 0
M  V30 10328 H 991.999 5.4687 4.49821 0
M  V30 10329 H 992.407 3.74958 4.2198 0
M  V30 10330 N 991.805 -0.723954 1.39988 0
M  V30 10331 C 993.221 -1.03095 1.21834 0
M  V30 10332 C 993.421 -2.01309 0.0876647 0
M  V30 10333 O 992.477 -2.46277 -0.55714 0
M  V30 10334 C 993.79 -1.58267 2.5568 0
M  V30 10335 C 995.338 -1.70293 2.6262 0
M  V30 10336 C 995.813 -2.28872 3.96713 0
M  V30 10337 N 997.304 -2.36269 3.98411 0
M  V30 10338 C 998.039 -2.82557 4.98948 0
M  V30 10339 N 997.535 -3.28661 6.0988 0
M  V30 10340 N 999.328 -2.81866 4.86321 0
M  V30 10341 H 991.479 -0.0727891 2.12275 0
M  V30 10342 H 993.742 -0.0949029 0.943238 0
M  V30 10343 H 993.448 -0.935642 3.39026 0
M  V30 10344 H 993.322 -2.56914 2.76179 0
M  V30 10345 H 995.709 -2.34115 1.7965 0
M  V30 10346 H 995.79 -0.70268 2.45959 0
M  V30 10347 H 995.434 -1.65675 4.80119 0
M  V30 10348 H 995.364 -3.29595 4.107 0
M  V30 10349 H 997.855 -2.03697 3.18302 0
M  V30 10350 H 998.168 -3.62524 6.82493 0
M  V30 10351 H 996.513 -3.26641 6.13458 0
M  V30 10352 H 999.704 -2.45179 3.98754 0
M  V30 10353 H 999.877 -3.17626 5.64817 0
M  V30 10354 N 993.283 -1.25346 -0.955304 0
M  V30 10355 C 994.231 -1.05461 -2.07318 0
M  V30 10356 C 995.225 0.0142699 -1.69394 0
M  V30 10357 O 996.431 -0.141292 -1.79445 0
M  V30 10358 H 992.806 -0.324095 -0.678577 0
M  V30 10359 H 994.777 -2.00231 -2.21247 0
M  V30 10360 C 993.526 -0.689329 -3.40798 0
M  V30 10361 H 992.849 -1.50362 -3.70447 0
M  V30 10362 H 994.289 -0.589883 -4.19877 0
M  V30 10363 C 992.748 0.604556 -3.31431 0
M  V30 10364 O 993.278 1.64686 -3.6639 0
M  V30 10365 N 991.484 0.589927 -2.84549 0
M  V30 10366 H 991.031 -0.258647 -2.56298 0
M  V30 10367 H 990.989 1.4558 -2.78664 0
M  V30 10368 N 994.761 1.15782 -1.06922 0
M  V30 10369 C 995.711 2.18373 -0.655537 0
M  V30 10370 C 996.695 1.57745 0.317084 0
M  V30 10371 O 997.887 1.76511 0.131509 0
M  V30 10372 C 995.016 3.43263 -0.0502314 0
M  V30 10373 C 994.102 4.10954 -1.04773 0
M  V30 10374 N 994.493 4.542 -2.22567 0
M  V30 10375 C 992.791 4.3723 -0.880087 0
M  V30 10376 C 993.492 5.06641 -2.85815 0
M  V30 10377 N 992.468 4.99917 -2.13505 0
M  V30 10378 H 996.27 2.49533 -1.55276 0
M  V30 10379 H 993.784 1.32303 -0.941793 0
M  V30 10380 H 995.781 4.16063 0.264003 0
M  V30 10381 H 994.441 3.13588 0.842167 0
M  V30 10382 H 995.452 4.47727 -2.60309 0
M  V30 10383 H 992.129 4.17481 -0.0402148 0
M  V30 10384 H 993.519 5.50092 -3.85808 0
M  V30 10385 N 996.239 0.8527 1.3254 0
M  V30 10386 C 997.187 0.284659 2.30852 0
M  V30 10387 C 998.181 -0.5909 1.5876 0
M  V30 10388 O 999.387 -0.478922 1.73512 0
M  V30 10389 H 995.762 0.0733452 0.748415 0
M  V30 10390 H 997.733 1.1281 2.76254 0
M  V30 10391 C 996.482 -0.51379 3.43883 0
M  V30 10392 H 995.805 0.150644 3.99516 0
M  V30 10393 H 997.245 -0.876866 4.14834 0
M  V30 10394 C 995.704 -1.69823 2.90967 0
M  V30 10395 O 996.234 -2.79727 2.88298 0
M  V30 10396 N 994.44 -1.52465 2.47392 0
M  V30 10397 H 993.987 -0.630599 2.49762 0
M  V30 10398 H 993.945 -2.31859 2.12341 0
M  V30 10399 N 997.718 -1.45297 0.610449 0
M  V30 10400 C 998.943 -2.07101 0.111414 0
M  V30 10401 C 999.368 -1.45161 -1.19625 0
M  V30 10402 O 998.726 -0.545368 -1.72903 0
M  V30 10403 C 998.774 -3.60598 -0.0117372 0
M  V30 10404 O 997.878 -3.98512 -1.06122 0
M  V30 10405 H 997.219 -0.659709 0.075364 0
M  V30 10406 H 999.749 -1.86504 0.841269 0
M  V30 10407 H 999.759 -4.07464 -0.209028 0
M  V30 10408 H 998.434 -4.05067 0.943076 0
M  V30 10409 H 997.011 -3.63312 -0.840158 0
M  V30 10410 N 999.196 -0.349774 -1.5367 0
M  V30 10411 C 1000.13 0.496338 -2.28164 0
M  V30 10412 C 1001.11 1.09737 -1.29968 0
M  V30 10413 O 1002.29 1.11759 -1.58819 0
M  V30 10414 C 999.422 1.64428 -3.0591 0
M  V30 10415 C 998.376 1.17127 -4.11661 0
M  V30 10416 C 997.702 2.40822 -4.77398 0
M  V30 10417 C 999.002 0.267293 -5.21616 0
M  V30 10418 H 1000.7 -0.125117 -2.99138 0
M  V30 10419 H 998.242 -0.0616152 -1.43868 0
M  V30 10420 H 1000.19 2.2427 -3.56765 0
M  V30 10421 H 998.919 2.29272 -2.32598 0
M  V30 10422 H 997.578 0.595634 -3.61729 0
M  V30 10423 H 997.226 3.04088 -4.00674 0
M  V30 10424 H 996.926 2.09852 -5.48849 0
M  V30 10425 H 998.45 3.01378 -5.3104 0
M  V30 10426 H 999.864 0.772734 -5.68068 0
M  V30 10427 H 998.261 0.0491991 -6.0008 0
M  V30 10428 H 999.331 -0.694892 -4.79895 0
M  V30 10429 N 1000.67 1.57404 -0.0785433 0
M  V30 10430 C 1001.6 2.16131 0.883726 0
M  V30 10431 C 1002.58 1.09015 1.30575 0
M  V30 10432 O 1003.77 1.3708 1.37559 0
M  V30 10433 C 1000.9 2.72836 2.1489 0
M  V30 10434 C 999.854 3.85178 1.86605 0
M  V30 10435 C 999.18 4.28516 3.1981 0
M  V30 10436 C 1000.48 5.09118 1.16601 0
M  V30 10437 H 1002.17 2.9679 0.394484 0
M  V30 10438 H 999.72 1.42763 0.188304 0
M  V30 10439 H 1001.67 3.12567 2.8263 0
M  V30 10440 H 1000.4 1.89408 2.66068 0
M  V30 10441 H 999.056 3.45962 1.21268 0
M  V30 10442 H 998.704 3.42 3.68843 0
M  V30 10443 H 998.404 5.04249 3.01674 0
M  V30 10444 H 999.928 4.70868 3.88737 0
M  V30 10445 H 1001.34 5.46123 1.74422 0
M  V30 10446 H 999.739 5.90173 1.087 0
M  V30 10447 H 1000.81 4.8468 0.146138 0
M  V30 10448 N 1002.15 -0.195058 1.56388 0
M  V30 10449 C 1003.38 -0.935745 1.85091 0
M  V30 10450 C 1003.8 -1.76061 0.662118 0
M  V30 10451 O 1003.16 -1.77076 -0.389083 0
M  V30 10452 C 1003.21 -1.80764 3.1202 0
M  V30 10453 O 1002.31 -2.90643 2.92575 0
M  V30 10454 H 1001.65 -0.26351 0.609474 0
M  V30 10455 H 1004.18 -0.200362 2.03617 0
M  V30 10456 H 1004.19 -2.21229 3.42815 0
M  V30 10457 H 1002.87 -1.20157 3.98165 0
M  V30 10458 H 1001.44 -2.53934 2.73079 0
M  V30 10459 N 1003.63 -1.50653 -0.462772 0
M  V30 10460 C 1004.56 -1.73056 -1.5676 0
M  V30 10461 C 1005.54 -0.579699 -1.59917 0
M  V30 10462 O 1006.73 -0.819729 -1.76051 0
M  V30 10463 C 1003.86 -1.83234 -2.9503 0
M  V30 10464 C 1002.81 -2.98488 -3.06739 0
M  V30 10465 C 1002.14 -2.93818 -4.46738 0
M  V30 10466 C 1003.44 -4.38869 -2.83181 0
M  V30 10467 H 1005.13 -2.65562 -1.38265 0
M  V30 10468 H 1002.68 -1.27792 -0.663722 0
M  V30 10469 H 1004.63 -1.97491 -3.72257 0
M  V30 10470 H 1003.35 -0.873558 -3.14701 0
M  V30 10471 H 1002.01 -2.83895 -2.31946 0
M  V30 10472 H 1001.66 -1.95769 -4.63339 0
M  V30 10473 H 1001.36 -3.71197 -4.55507 0
M  V30 10474 H 1002.88 -3.10135 -5.25974 0
M  V30 10475 H 1004.3 -4.53945 -3.50153 0
M  V30 10476 H 1002.69 -5.17762 -3.03386 0
M  V30 10477 H 1003.76 -4.50663 -1.78972 0
M  V30 10478 N 1005.11 0.71652 -1.4037 0
M  V30 10479 C 1006.52 1.29562 -1.34427 0
M  V30 10480 C 1006.87 1.96192 -0.0173106 0
M  V30 10481 O 1006 1.97488 0.884719 0
M  V30 10482 C 1006.59 2.35601 -2.4347 0
M  V30 10483 C 1005.15 2.89138 -2.4099 0
M  V30 10484 C 1004.3 1.62915 -2.24397 0
M  V30 10485 H 1007.25 0.512715 -1.5019 0
M  V30 10486 H 1007.27 3.16422 -2.11323 0
M  V30 10487 H 1006.78 1.87077 -3.40035 0
M  V30 10488 H 1004.88 3.41894 -1.4812 0
M  V30 10489 H 1004.99 3.40995 -3.3654 0
M  V30 10490 H 1003.36 1.87947 -1.71896 0
M  V30 10491 H 1004.14 1.16417 -3.22958 0
M  V30 10492 N 1006.59 1.25851 0.948643 0
M  V30 10493 C 1007.52 1.02549 2.04979 0
M  V30 10494 C 1008.53 -0.0115923 1.62796 0
M  V30 10495 O 1009.72 0.227643 1.77042 0
M  V30 10496 C 1006.82 0.529486 3.34738 0
M  V30 10497 C 1005.99 1.6341 4.05729 0
M  V30 10498 C 1005.05 1.13743 5.1376 0
M  V30 10499 O 1004.08 1.83303 5.38877 0
M  V30 10500 N 1005.28 -0.0181151 5.80497 0
M  V30 10501 H 1008.05 1.97365 2.25537 0
M  V30 10502 H 1005.61 1.17137 1.11761 0
M  V30 10503 H 1007.6 0.181566 4.04293 0
M  V30 10504 H 1006.17 -0.324893 3.10907 0
M  V30 10505 H 1005.39 2.15331 3.30191 0
M  V30 10506 H 1006.68 2.37603 4.49914 0
M  V30 10507 H 1006.07 -0.599198 5.62518 0
M  V30 10508 H 1004.63 -0.307019 6.51077 0
M  V30 10509 N 1008.06 -1.15214 1.07534 0
M  V30 10510 C 1008.97 -2.23636 0.708818 0
M  V30 10511 C 1009.99 -1.7172 -0.280759 0
M  V30 10512 O 1011.17 -2.01 -0.126927 0
M  V30 10513 C 1008.23 -3.46512 0.114167 0
M  V30 10514 C 1007.29 -4.13409 1.15722 0
M  V30 10515 C 1006.53 -5.30419 0.59085 0
M  V30 10516 O 1006.75 -5.67314 -0.592512 0
M  V30 10517 O 1005.68 -5.86871 1.33663 0
M  V30 10518 H 1009.51 -2.57322 1.61305 0
M  V30 10519 H 1007.09 -1.22972 0.848422 0
M  V30 10520 H 1008.98 -4.20851 -0.215091 0
M  V30 10521 H 1007.65 -3.1457 -0.763356 0
M  V30 10522 H 1006.56 -3.40984 1.53886 0
M  V30 10523 H 1007.89 -4.49435 2.00671 0
M  V30 10524 N 1009.54 -0.859717 -1.32086 0
M  V30 10525 C 1010.95 -0.519529 -1.79326 0
M  V30 10526 C 1011.3 0.96295 -1.70944 0
M  V30 10527 O 1010.43 1.75139 -1.27104 0
M  V30 10528 C 1011.02 -0.936267 -3.25606 0
M  V30 10529 C 1009.58 -0.647899 -3.70782 0
M  V30 10530 C 1008.73 -1.13323 -2.53087 0
M  V30 10531 H 1011.68 -1.04643 -1.19312 0
M  V30 10532 H 1011.7 -0.254714 -3.79646 0
M  V30 10533 H 1011.21 -2.01527 -3.31675 0
M  V30 10534 H 1009.32 0.420172 -3.70223 0
M  V30 10535 H 1009.43 -1.21774 -4.63366 0
M  V30 10536 H 1007.79 -0.553325 -2.48617 0
M  V30 10537 H 1008.58 -2.21945 -2.61907 0
M  V30 10538 N 1011.02 1.44971 -0.618145 0
M  V30 10539 C 1012.25 2.06228 -0.123985 0
M  V30 10540 C 1012.66 1.46166 1.20134 0
M  V30 10541 O 1012 0.574099 1.74499 0
M  V30 10542 C 1012.06 3.59413 0.0789098 0
M  V30 10543 C 1011.73 4.41869 -1.16624 0
M  V30 10544 C 1012.72 4.76177 -2.0869 0
M  V30 10545 C 1010.41 4.82453 -1.39802 0
M  V30 10546 C 1012.4 5.49938 -3.22254 0
M  V30 10547 C 1010.09 5.55965 -2.53665 0
M  V30 10548 C 1011.09 5.89626 -3.44718 0
M  V30 10549 O 1010.78 6.61644 -4.56598 0
M  V30 10550 H 1010.51 0.672274 -0.0708822 0
M  V30 10551 H 1013.06 1.87038 -0.848868 0
M  V30 10552 H 1011.29 3.77043 0.8588 0
M  V30 10553 H 1012.98 4.02478 0.52599 0
M  V30 10554 H 1013.75 4.45372 -1.92012 0
M  V30 10555 H 1009.63 4.55681 -0.698245 0
M  V30 10556 H 1013.17 5.76129 -3.93347 0
M  V30 10557 H 1009.07 5.86185 -2.70291 0
M  V30 10558 H 1009.84 6.80103 -4.55414 0
M  V30 10559 N 1012.5 0.357919 1.53482 0
M  V30 10560 C 1013.72 -0.237769 2.06033 0
M  V30 10561 C 1014.15 -1.42292 1.23023 0
M  V30 10562 O 1013.51 -1.79604 0.247427 0
M  V30 10563 C 1013.55 -0.616806 3.55286 0
M  V30 10564 O 1012.66 -1.71503 3.75047 0
M  V30 10565 H 1012 -0.0364322 0.663 0
M  V30 10566 H 1014.53 0.516301 1.97979 0
M  V30 10567 H 1014.54 -0.88996 3.98175 0
M  V30 10568 H 1013.21 0.249825 4.15149 0
M  V30 10569 H 1011.79 -1.43803 3.44057 0
M  V30 10570 N 1013.98 -1.5736 0.0868897 0
M  V30 10571 C 1015.22 -1.94054 -0.578741 0
M  V30 10572 C 1015.55 -0.968047 -1.68698 0
M  V30 10573 O 1014.81 0.0137824 -1.95695 0
M  V30 10574 C 1015.11 -3.37316 -1.18123 0
M  V30 10575 C 1014.77 -4.50467 -0.197607 0
M  V30 10576 C 1013.43 -4.81145 0.072952 0
M  V30 10577 C 1015.79 -5.19036 0.474473 0
M  V30 10578 C 1013.11 -5.77723 1.02242 0
M  V30 10579 C 1015.47 -6.16632 1.41236 0
M  V30 10580 C 1014.13 -6.45719 1.69124 0
M  V30 10581 H 1013.4 -0.710093 -0.211776 0
M  V30 10582 H 1016.05 -1.90822 0.160978 0
M  V30 10583 H 1014.35 -3.37085 -1.99701 0
M  V30 10584 H 1016.05 -3.63003 -1.7038 0
M  V30 10585 H 1012.64 -4.2655 -0.418669 0
M  V30 10586 H 1016.82 -4.95518 0.278581 0
M  V30 10587 H 1012.08 -5.98578 1.24557 0
M  V30 10588 H 1016.25 -6.68862 1.939 0
M  V30 10589 H 1013.88 -7.20365 2.42855 0
M  V30 10590 N 1015.45 0.186762 -1.56489 0
M  V30 10591 C 1016.68 0.925916 -1.85584 0
M  V30 10592 C 1017.1 1.75708 -0.671446 0
M  V30 10593 O 1016.46 1.7728 0.379687 0
M  V30 10594 C 1016.51 1.79107 -3.12975 0
M  V30 10595 O 1015.61 2.89088 -2.94112 0
M  V30 10596 H 1014.96 0.260275 -0.610863 0
M  V30 10597 H 1017.49 0.189561 -2.0372 0
M  V30 10598 H 1017.5 2.19408 -3.43983 0
M  V30 10599 H 1016.17 1.18044 -3.98796 0
M  V30 10600 H 1014.75 2.52482 -2.74422 0
M  V30 10601 N 1016.93 1.50896 0.454776 0
M  V30 10602 C 1017.84 1.73762 1.5762 0
M  V30 10603 C 1018.86 0.621206 1.62533 0
M  V30 10604 O 1020.03 0.901449 1.801 0
M  V30 10605 C 1017.1 1.84183 2.9373 0
M  V30 10606 C 1016.16 3.07982 2.99075 0
M  V30 10607 C 1015.39 3.17896 4.28693 0
M  V30 10608 O 1015.62 2.34184 5.20109 0
M  V30 10609 O 1014.55 4.10749 4.39964 0
M  V30 10610 H 1018.38 2.68856 1.41245 0
M  V30 10611 H 1015.96 1.35187 0.635984 0
M  V30 10612 H 1017.84 1.93123 3.74542 0
M  V30 10613 H 1016.52 0.922742 3.10269 0
M  V30 10614 H 1015.43 3.04531 2.17282 0
M  V30 10615 H 1016.76 3.99523 2.87476 0
M  V30 10616 N 1018.41 -0.709066 1.40748 0
M  V30 10617 C 1019.82 -1.28847 1.35112 0
M  V30 10618 C 1020.17 -1.9618 0.0277149 0
M  V30 10619 O 1019.3 -1.97955 -0.874233 0
M  V30 10620 C 1019.89 -2.34306 2.44716 0
M  V30 10621 C 1018.45 -2.87856 2.4252 0
M  V30 10622 C 1017.6 -1.61723 2.25257 0
M  V30 10623 H 1020.55 -0.504742 1.50459 0
M  V30 10624 H 1020.57 -3.15297 2.12998 0
M  V30 10625 H 1020.08 -1.85271 3.41022 0
M  V30 10626 H 1018.18 -3.41103 1.49931 0
M  V30 10627 H 1018.3 -3.39205 3.38344 0
M  V30 10628 H 1016.66 -1.87032 1.7289 0
M  V30 10629 H 1017.44 -1.14703 3.23571 0
M  V30 10630 N 1019.89 -1.26353 -0.941956 0
M  V30 10631 C 1020.85 -1.07904 -2.02211 0
M  V30 10632 C 1021.85 -0.0276283 -1.60776 0
M  V30 10633 O 1023.04 -0.270965 -1.7208 0
M  V30 10634 C 1020.17 -0.641084 -3.34818 0
M  V30 10635 H 1021.37 -2.03804 -2.20009 0
M  V30 10636 H 1018.92 -1.08939 -1.12081 0
M  V30 10637 H 1019.66 0.319943 -3.22718 0
M  V30 10638 H 1019.44 -1.40027 -3.66244 0
M  V30 10639 H 1020.93 -0.533826 -4.14174 0
M  V30 10640 N 1021.37 1.14642 -1.08144 0
M  V30 10641 C 1022.3 2.19283 -0.6669 0
M  V30 10642 C 1023.31 1.60292 0.284668 0
M  V30 10643 O 1024.5 1.78352 0.0727383 0
M  V30 10644 C 1021.6 3.38877 0.0398572 0
M  V30 10645 C 1020.77 4.274 -0.929929 0
M  V30 10646 C 1019.83 5.25562 -0.258991 0
M  V30 10647 O 1018.86 5.61999 -0.902563 0
M  V30 10648 N 1020.06 5.71958 0.992177 0
M  V30 10649 H 1022.83 2.55464 -1.5671 0
M  V30 10650 H 1020.39 1.29836 -0.96717 0
M  V30 10651 H 1022.38 4.01605 0.499583 0
M  V30 10652 H 1020.95 3.01043 0.842118 0
M  V30 10653 H 1020.17 3.61649 -1.56857 0
M  V30 10654 H 1021.46 4.83411 -1.58717 0
M  V30 10655 H 1020.86 5.44481 1.53484 0
M  V30 10656 H 1019.41 6.36687 1.39544 0
M  V30 10657 N 1022.85 0.866709 1.31628 0
M  V30 10658 C 1023.78 0.277328 2.27516 0
M  V30 10659 C 1024.79 -0.557786 1.52946 0
M  V30 10660 O 1025.98 -0.38031 1.74402 0
M  V30 10661 C 1023.08 -0.625742 3.33073 0
M  V30 10662 C 1022.25 0.176204 4.37045 0
M  V30 10663 C 1021.31 -0.654497 5.22114 0
M  V30 10664 O 1020.34 -0.0836961 5.69138 0
M  V30 10665 N 1021.54 -1.96708 5.46156 0
M  V30 10666 H 1024.3 1.10133 2.78731 0
M  V30 10667 H 1021.87 0.72787 1.44616 0
M  V30 10668 H 1023.86 -1.18709 3.86898 0
M  V30 10669 H 1022.43 -1.35042 2.81926 0
M  V30 10670 H 1021.65 0.918999 3.83338 0
M  V30 10671 H 1022.94 0.726594 5.03585 0
M  V30 10672 H 1022.33 -2.454 5.09701 0
M  V30 10673 H 1020.89 -2.47629 6.02929 0
M  V30 10674 N 1024.32 -1.44642 0.625825 0
M  V30 10675 C 1025.29 -2.29085 -0.072526 0
M  V30 10676 C 1026.29 -1.40755 -0.777467 0
M  V30 10677 O 1027.48 -1.62684 -0.622861 0
M  V30 10678 C 1024.61 -3.22212 -1.1132 0
M  V30 10679 H 1025.8 -2.92317 0.670124 0
M  V30 10680 H 1023.35 -1.51466 0.38571 0
M  V30 10681 H 1024.09 -2.63819 -1.88601 0
M  V30 10682 H 1023.87 -3.87299 -0.611709 0
M  V30 10683 H 1025.36 -3.8566 -1.60175 0
M  V30 10684 N 1025.8 -0.366053 -1.5329 0
M  V30 10685 C 1026.73 0.523781 -2.22108 0
M  V30 10686 C 1027.71 1.08262 -1.21318 0
M  V30 10687 O 1028.9 1.13866 -1.50222 0
M  V30 10688 C 1026.02 1.72273 -2.91616 0
M  V30 10689 C 1025.07 1.29129 -4.06482 0
M  V30 10690 S 1025.9 0.292195 -5.34702 0
M  V30 10691 C 1027.06 1.49746 -6.07723 0
M  V30 10692 H 1027.29 -0.0606687 -2.97238 0
M  V30 10693 H 1024.82 -0.15016 -1.53668 0
M  V30 10694 H 1026.78 2.41045 -3.32277 0
M  V30 10695 H 1025.44 2.27843 -2.16209 0
M  V30 10696 H 1024.64 2.18583 -4.54134 0
M  V30 10697 H 1024.24 0.682783 -3.67715 0
M  V30 10698 H 1026.53 2.4284 -6.32483 0
M  V30 10699 H 1027.47 1.06232 -7.00086 0
M  V30 10700 H 1027.88 1.70373 -5.38176 0
M  V30 10701 N 1027.28 1.57312 -0.0952337 0
M  V30 10702 C 1028.7 1.57445 0.261416 0
M  V30 10703 C 1028.9 1.10639 1.68408 0
M  V30 10704 O 1027.95 0.782912 2.40056 0
M  V30 10705 C 1029.26 3.00659 0.0497206 0
M  V30 10706 C 1030.81 3.1278 0.117459 0
M  V30 10707 C 1031.29 4.57952 -0.0662441 0
M  V30 10708 N 1032.78 4.63199 -0.0114146 0
M  V30 10709 C 1033.51 5.73255 -0.128799 0
M  V30 10710 N 1033.01 6.92146 -0.301026 0
M  V30 10711 N 1034.8 5.62056 -0.0700599 0
M  V30 10712 H 1026.95 1.86045 -1.02475 0
M  V30 10713 H 1029.22 0.858726 -0.401614 0
M  V30 10714 H 1028.92 3.39102 -0.932888 0
M  V30 10715 H 1028.8 3.68792 0.791975 0
M  V30 10716 H 1031.18 2.74209 1.09057 0
M  V30 10717 H 1031.26 2.47238 -0.656288 0
M  V30 10718 H 1030.91 4.97217 -1.03623 0
M  V30 10719 H 1030.84 5.21555 0.727198 0
M  V30 10720 H 1033.33 3.77712 0.119154 0
M  V30 10721 H 1033.64 7.71855 -0.382104 0
M  V30 10722 H 1031.99 6.94184 -0.336695 0
M  V30 10723 H 1035.18 4.68057 0.0633587 0
M  V30 10724 H 1035.35 6.4779 -0.164991 0
M  V30 10725 N 1028.76 -0.17846 1.56586 0
M  V30 10726 C 1029.7 -1.22104 1.95855 0
M  V30 10727 C 1030.67 -1.44366 0.821447 0
M  V30 10728 O 1031.86 -1.57224 1.08098 0
M  V30 10729 C 1029 -2.55701 2.31757 0
M  V30 10730 C 1028.11 -2.40879 3.5861 0
M  V30 10731 C 1027.25 -3.67293 3.83757 0
M  V30 10732 C 1026.29 -3.47373 5.03982 0
M  V30 10733 N 1025.42 -4.65839 5.25298 0
M  V30 10734 H 1030.26 -0.879168 2.84736 0
M  V30 10735 H 1027.8 -0.422721 1.40895 0
M  V30 10736 H 1029.76 -3.33556 2.50592 0
M  V30 10737 H 1028.39 -2.87898 1.45995 0
M  V30 10738 H 1027.44 -1.54236 3.47729 0
M  V30 10739 H 1028.75 -2.22102 4.46623 0
M  V30 10740 H 1027.91 -4.53584 4.02922 0
M  V30 10741 H 1026.65 -3.89041 2.94107 0
M  V30 10742 H 1025.65 -2.59467 4.84723 0
M  V30 10743 H 1026.88 -3.27055 5.95157 0
M  V30 10744 H 1024.82 -4.8782 4.38598 0
M  V30 10745 H 1024.74 -4.4995 6.0752 0
M  V30 10746 H 1026.01 -5.53435 5.48936 0
M  V30 10747 N 1030.24 -1.51135 -0.446768 0
M  V30 10748 C 1031.2 -1.71187 -1.52406 0
M  V30 10749 C 1032.2 -0.582037 -1.49897 0
M  V30 10750 O 1033.39 -0.849452 -1.52085 0
M  V30 10751 C 1030.52 -1.75962 -2.91976 0
M  V30 10752 H 1031.71 -2.67324 -1.35934 0
M  V30 10753 H 1029.27 -1.40982 -0.674813 0
M  V30 10754 H 1030 -0.816065 -3.13864 0
M  V30 10755 H 1029.79 -2.58065 -2.95203 0
M  V30 10756 H 1031.28 -1.93347 -3.70144 0
M  V30 10757 N 1031.71 0.701592 -1.41122 0
M  V30 10758 C 1032.64 1.82815 -1.45262 0
M  V30 10759 C 1033.62 1.67215 -0.311939 0
M  V30 10760 O 1034.81 1.87038 -0.522538 0
M  V30 10761 C 1031.94 3.20899 -1.32819 0
M  V30 10762 C 1030.89 3.51194 -2.44636 0
M  V30 10763 C 1030.22 4.8857 -2.17263 0
M  V30 10764 C 1031.52 3.50777 -3.86979 0
M  V30 10765 H 1033.21 1.79608 -2.39544 0
M  V30 10766 H 1030.76 0.862693 -1.15298 0
M  V30 10767 H 1032.71 3.99417 -1.34329 0
M  V30 10768 H 1031.44 3.24717 -0.350191 0
M  V30 10769 H 1030.1 2.75024 -2.42399 0
M  V30 10770 H 1029.74 4.89007 -1.17819 0
M  V30 10771 H 1029.44 5.09805 -2.92186 0
M  V30 10772 H 1030.97 5.69405 -2.20478 0
M  V30 10773 H 1032.38 4.19309 -3.90964 0
M  V30 10774 H 1030.78 3.83542 -4.61536 0
M  V30 10775 H 1031.85 2.49873 -4.15562 0
M  V30 10776 N 1033.19 1.2685 0.935242 0
M  V30 10777 C 1034.42 1.15538 1.71635 0
M  V30 10778 C 1034.83 -0.288698 1.8658 0
M  V30 10779 O 1034.19 -1.19721 1.37743 0
M  V30 10780 C 1034.24 1.8259 3.11999 0
M  V30 10781 O 1033.96 3.21355 2.97763 0
M  V30 10782 C 1035.46 1.77307 4.06297 0
M  V30 10783 H 1032.68 0.402055 0.537208 0
M  V30 10784 H 1035.23 1.67582 1.17203 0
M  V30 10785 H 1033.38 1.3447 3.63313 0
M  V30 10786 H 1033.8 3.54626 3.86446 0
M  V30 10787 H 1035.27 2.28851 5.02326 0
M  V30 10788 H 1035.75 0.740823 4.32907 0
M  V30 10789 H 1036.35 2.25007 3.60904 0
M  V30 10790 N 1034.67 -1.14067 1.0875 0
M  V30 10791 C 1035.6 -2.21385 0.74236 0
M  V30 10792 C 1036.58 -1.67833 -0.276805 0
M  V30 10793 O 1037.77 -1.93647 -0.1464 0
M  V30 10794 C 1034.9 -3.46956 0.154644 0
M  V30 10795 C 1033.85 -4.13555 1.10255 0
M  V30 10796 C 1033.18 -5.3337 0.376877 0
M  V30 10797 C 1034.48 -4.6169 2.44213 0
M  V30 10798 H 1036.17 -2.50512 1.63964 0
M  V30 10799 H 1033.72 -1.20408 0.789807 0
M  V30 10800 H 1035.67 -4.21284 -0.0988419 0
M  V30 10801 H 1034.39 -3.17203 -0.777789 0
M  V30 10802 H 1033.05 -3.41186 1.34119 0
M  V30 10803 H 1032.7 -4.99879 -0.559472 0
M  V30 10804 H 1032.4 -5.78875 1.00884 0
M  V30 10805 H 1033.92 -6.10458 0.131527 0
M  V30 10806 H 1035.34 -5.27475 2.24595 0
M  V30 10807 H 1033.74 -5.17909 3.03134 0
M  V30 10808 H 1034.81 -3.76574 3.05483 0
M  V30 10809 N 1036.15 -0.873678 -1.31166 0
M  V30 10810 C 1037.56 -0.566109 -1.49223 0
M  V30 10811 C 1037.76 0.898889 -1.80339 0
M  V30 10812 O 1036.82 1.68084 -1.88425 0
M  V30 10813 C 1038.13 -1.46952 -2.62346 0
M  V30 10814 C 1039.68 -1.47195 -2.76229 0
M  V30 10815 C 1040.16 -2.36102 -3.92454 0
M  V30 10816 N 1041.65 -2.34003 -3.99746 0
M  V30 10817 C 1042.38 -2.99513 -4.88958 0
M  V30 10818 N 1041.88 -3.74206 -5.83045 0
M  V30 10819 N 1043.67 -2.88802 -4.82234 0
M  V30 10820 H 1035.82 -1.82156 -1.09239 0
M  V30 10821 H 1038.09 -0.779086 -0.54012 0
M  V30 10822 H 1037.79 -2.51213 -2.4614 0
M  V30 10823 H 1037.67 -1.17077 -3.5857 0
M  V30 10824 H 1040.05 -0.436902 -2.91848 0
M  V30 10825 H 1040.13 -1.81095 -1.80661 0
M  V30 10826 H 1039.78 -3.39685 -3.77593 0
M  V30 10827 H 1039.71 -1.99524 -4.87337 0
M  V30 10828 H 1042.2 -1.79713 -3.32433 0
M  V30 10829 H 1042.51 -4.21312 -6.47855 0
M  V30 10830 H 1040.86 -3.78314 -5.83012 0
M  V30 10831 H 1044.05 -2.29984 -4.07707 0
M  V30 10832 H 1044.22 -3.40136 -5.51554 0
M  V30 10833 N 1037.63 1.44308 -0.633487 0
M  V30 10834 C 1038.86 2.06085 -0.145852 0
M  V30 10835 C 1039.26 1.47432 1.18577 0
M  V30 10836 O 1038.61 0.592575 1.7388 0
M  V30 10837 C 1038.67 3.59477 0.0407848 0
M  V30 10838 C 1038.33 4.40607 -1.21304 0
M  V30 10839 C 1039.33 4.73937 -2.13728 0
M  V30 10840 C 1037.02 4.80943 -1.44911 0
M  V30 10841 C 1039.01 5.46489 -3.28068 0
M  V30 10842 C 1036.7 5.53243 -2.59548 0
M  V30 10843 C 1037.69 5.85936 -3.50953 0
M  V30 10844 O 1037.38 6.56764 -4.6359 0
M  V30 10845 H 1037.11 0.671484 -0.0780085 0
M  V30 10846 H 1039.67 1.86128 -0.868658 0
M  V30 10847 H 1037.9 3.77933 0.818761 0
M  V30 10848 H 1039.59 4.03013 0.483273 0
M  V30 10849 H 1040.35 4.43311 -1.96725 0
M  V30 10850 H 1036.23 4.54915 -0.746537 0
M  V30 10851 H 1039.78 5.71924 -3.99435 0
M  V30 10852 H 1035.67 5.83285 -2.76493 0
M  V30 10853 H 1036.44 6.75234 -4.62602 0
M  V30 10854 N 1039.1 0.374177 1.53094 0
M  V30 10855 C 1040.07 -0.455999 2.24618 0
M  V30 10856 C 1041.07 -1.00269 1.25709 0
M  V30 10857 O 1042.26 -0.887077 1.49922 0
M  V30 10858 C 1039.39 -1.63822 2.98957 0
M  V30 10859 H 1040.58 0.169986 2.99418 0
M  V30 10860 H 1038.14 0.126015 1.55791 0
M  V30 10861 H 1038.87 -2.30205 2.28421 0
M  V30 10862 H 1038.66 -1.25308 3.71538 0
M  V30 10863 H 1040.15 -2.22633 3.53305 0
M  V30 10864 N 1040.58 -1.57259 0.103575 0
M  V30 10865 C 1041.51 -2.17509 -0.84923 0
M  V30 10866 C 1042.49 -1.11079 -1.28824 0
M  V30 10867 O 1043.68 -1.39252 -1.35361 0
M  V30 10868 C 1040.81 -2.76221 -2.10522 0
M  V30 10869 C 1039.76 -3.88098 -1.80454 0
M  V30 10870 C 1039.09 -4.33549 -3.12952 0
M  V30 10871 C 1040.39 -5.10909 -1.08486 0
M  V30 10872 H 1042.08 -2.9738 -0.347217 0
M  V30 10873 H 1039.63 -1.43045 -0.165568 0
M  V30 10874 H 1041.58 -3.17024 -2.77621 0
M  V30 10875 H 1040.31 -1.93617 -2.63021 0
M  V30 10876 H 1038.96 -3.47847 -1.15749 0
M  V30 10877 H 1038.61 -3.47825 -3.63355 0
M  V30 10878 H 1038.31 -5.08984 -2.93614 0
M  V30 10879 H 1039.84 -4.76992 -3.81196 0
M  V30 10880 H 1041.25 -5.48828 -1.65711 0
M  V30 10881 H 1039.65 -5.91828 -0.992973 0
M  V30 10882 H 1040.72 -4.84851 -0.0690108 0
M  V30 10883 N 1042.06 0.170153 -1.56679 0
M  V30 10884 C 1042.99 1.21285 -1.9953 0
M  V30 10885 C 1043.97 1.46104 -0.871071 0
M  V30 10886 O 1045.16 1.57419 -1.13724 0
M  V30 10887 C 1042.29 2.5515 -2.35618 0
M  V30 10888 C 1041.24 2.44898 -3.51011 0
M  V30 10889 C 1040.57 3.83263 -3.72845 0
M  V30 10890 C 1041.87 1.95271 -4.84424 0
M  V30 10891 H 1043.56 0.856646 -2.86883 0
M  V30 10892 H 1041.11 0.410634 -1.38021 0
M  V30 10893 H 1043.06 3.28299 -2.64193 0
M  V30 10894 H 1041.78 2.92561 -1.45175 0
M  V30 10895 H 1040.44 1.74203 -3.22566 0
M  V30 10896 H 1040.09 4.18069 -2.79691 0
M  V30 10897 H 1039.79 3.77272 -4.50488 0
M  V30 10898 H 1041.31 4.57996 -4.03822 0
M  V30 10899 H 1042.73 2.58195 -5.11867 0
M  V30 10900 H 1041.13 2.00225 -5.65712 0
M  V30 10901 H 1042.2 0.90709 -4.7634 0
M  V30 10902 N 1043.54 1.5137 0.438746 0
M  V30 10903 C 1044.95 1.56462 1.01866 0
M  V30 10904 C 1045.3 0.387244 1.9234 0
M  V30 10905 O 1044.43 -0.496131 2.10636 0
M  V30 10906 C 1045.02 2.83557 1.85421 0
M  V30 10907 C 1043.58 2.91224 2.38464 0
M  V30 10908 C 1042.73 2.51109 1.17641 0
M  V30 10909 H 1045.68 1.57167 0.220072 0
M  V30 10910 H 1045.7 2.6724 2.70857 0
M  V30 10911 H 1045.21 3.69229 1.19546 0
M  V30 10912 H 1043.31 2.09979 3.07798 0
M  V30 10913 H 1043.42 3.94844 2.71358 0
M  V30 10914 H 1041.79 2.04276 1.5213 0
M  V30 10915 H 1042.57 3.39125 0.533785 0
M  V30 10916 N 1045.02 -0.694098 1.41492 0
M  V30 10917 C 1045.97 -1.80016 1.39923 0
M  V30 10918 C 1046.95 -1.58561 0.273377 0
M  V30 10919 O 1048.14 -1.69368 0.514157 0
M  V30 10920 C 1045.27 -3.18333 1.28526 0
M  V30 10921 C 1044.36 -3.45478 2.45979 0
M  V30 10922 N 1044.75 -3.43313 3.71443 0
M  V30 10923 C 1043.05 -3.76033 2.39824 0
M  V30 10924 C 1043.75 -3.69404 4.4935 0
M  V30 10925 N 1042.72 -3.89221 3.79484 0
M  V30 10926 H 1046.53 -1.76707 2.34844 0
M  V30 10927 H 1044.04 -0.894148 1.35568 0
M  V30 10928 H 1046.04 -3.97567 1.25484 0
M  V30 10929 H 1044.7 -3.22852 0.345904 0
M  V30 10930 H 1045.71 -3.2366 4.04308 0
M  V30 10931 H 1042.38 -3.87913 1.54368 0
M  V30 10932 H 1043.77 -3.73854 5.58285 0
M  V30 10933 N 1046.49 -1.27344 -0.928501 0
M  V30 10934 C 1047.42 -1.12517 -2.04602 0
M  V30 10935 C 1048.41 -0.0268563 -1.70079 0
M  V30 10936 O 1049.59 -0.201197 -1.93155 0
M  V30 10937 C 1046.72 -0.770749 -3.3864 0
M  V30 10938 C 1045.67 -1.8222 -3.87272 0
M  V30 10939 C 1045 -1.32178 -5.18105 0
M  V30 10940 C 1046.3 -3.22614 -4.10752 0
M  V30 10941 H 1047.99 -2.06 -2.17265 0
M  V30 10942 H 1045.54 -0.991827 -1.04397 0
M  V30 10943 H 1047.49 -0.653843 -4.16297 0
M  V30 10944 H 1046.22 0.19979 -3.25988 0
M  V30 10945 H 1044.88 -1.928 -3.11807 0
M  V30 10946 H 1044.52 -0.340719 -5.01845 0
M  V30 10947 H 1044.22 -2.02474 -5.51614 0
M  V30 10948 H 1045.75 -1.2178 -5.98333 0
M  V30 10949 H 1047.16 -3.1504 -4.78981 0
M  V30 10950 H 1045.56 -3.90614 -4.55566 0
M  V30 10951 H 1046.63 -3.67727 -3.16077 0
M  V30 10952 N 1047.97 1.13488 -1.09353 0
M  V30 10953 C 1049.2 1.88319 -0.849681 0
M  V30 10954 C 1049.61 1.79347 0.602616 0
M  V30 10955 O 1048.95 1.15744 1.4265 0
M  V30 10956 C 1049.02 3.38698 -1.20514 0
M  V30 10957 C 1048.68 3.71452 -2.66219 0
M  V30 10958 C 1049.68 3.70755 -3.64467 0
M  V30 10959 C 1047.36 4.01132 -3.02321 0
M  V30 10960 C 1049.36 3.9928 -4.96845 0
M  V30 10961 C 1047.04 4.29318 -4.3489 0
M  V30 10962 C 1048.04 4.28376 -5.31961 0
M  V30 10963 O 1047.73 4.55872 -6.62145 0
M  V30 10964 H 1047.46 0.603053 -0.305455 0
M  V30 10965 H 1050.01 1.44592 -1.45884 0
M  V30 10966 H 1048.24 3.82925 -0.539022 0
M  V30 10967 H 1049.93 3.94852 -0.940552 0
M  V30 10968 H 1050.7 3.47901 -3.3792 0
M  V30 10969 H 1046.58 4.01013 -2.27398 0
M  V30 10970 H 1050.12 3.9846 -5.72604 0
M  V30 10971 H 1046.02 4.51644 -4.61181 0
M  V30 10972 H 1046.79 4.73544 -6.67607 0
M  V30 10973 N 1049.45 0.880621 1.30701 0
M  V30 10974 C 1050.68 0.511682 2.00473 0
M  V30 10975 C 1051.09 -0.898684 1.6604 0
M  V30 10976 O 1050.45 -1.59035 0.895218 0
M  V30 10977 C 1050.5 0.671723 3.55204 0
M  V30 10978 O 1050.22 2.02656 3.8841 0
M  V30 10979 C 1051.72 0.3052 4.42248 0
M  V30 10980 H 1048.94 0.198231 0.64105 0
M  V30 10981 H 1051.49 1.18472 1.66687 0
M  V30 10982 H 1049.64 0.0461066 3.87373 0
M  V30 10983 H 1050.06 2.04202 4.83117 0
M  V30 10984 H 1051.53 0.468095 5.50012 0
M  V30 10985 H 1052.01 -0.756456 4.32637 0
M  V30 10986 H 1052.61 0.906959 4.15517 0
M  V30 10987 N 1050.93 -1.4397 0.641131 0
M  V30 10988 C 1051.86 -2.33458 -0.04446 0
M  V30 10989 C 1052.84 -1.48781 -0.824507 0
M  V30 10990 O 1054.03 -1.77477 -0.788397 0
M  V30 10991 C 1051.16 -3.31989 -1.01984 0
M  V30 10992 C 1050.11 -4.2656 -0.350745 0
M  V30 10993 C 1049.44 -5.15036 -1.43673 0
M  V30 10994 C 1050.74 -5.16897 0.749299 0
M  V30 10995 H 1052.43 -2.91034 0.702832 0
M  V30 10996 H 1049.98 -1.39942 0.339435 0
M  V30 10997 H 1051.93 -3.93483 -1.50828 0
M  V30 10998 H 1050.65 -2.72643 -1.79815 0
M  V30 10999 H 1049.31 -3.66413 0.117139 0
M  V30 11000 H 1048.96 -4.52037 -2.20617 0
M  V30 11001 H 1048.66 -5.79125 -0.994358 0
M  V30 11002 H 1050.18 -5.79403 -1.92678 0
M  V30 11003 H 1051.6 -5.7227 0.343534 0
M  V30 11004 H 1049.99 -5.89643 1.11541 0
M  V30 11005 H 1051.06 -4.5731 1.61232 0
M  V30 11006 N 1052.41 -0.382291 -1.52893 0
M  V30 11007 C 1053.65 0.202133 -2.01489 0
M  V30 11008 C 1053.98 1.47399 -1.26901 0
M  V30 11009 O 1053.24 1.92439 -0.355771 0
M  V30 11010 C 1053.54 0.523437 -3.53546 0
M  V30 11011 C 1053.2 -0.656042 -4.46102 0
M  V30 11012 C 1051.86 -0.979633 -4.71123 0
M  V30 11013 C 1054.22 -1.44545 -5.00756 0
M  V30 11014 C 1051.54 -2.0943 -5.48047 0
M  V30 11015 C 1053.9 -2.55066 -5.78899 0
M  V30 11016 C 1052.56 -2.87942 -6.02201 0
M  V30 11017 H 1051.83 0.0739659 -0.737299 0
M  V30 11018 H 1054.48 -0.518196 -1.84356 0
M  V30 11019 H 1052.78 1.325 -3.68715 0
M  V30 11020 H 1054.48 0.988148 -3.88634 0
M  V30 11021 H 1051.07 -0.393818 -4.26787 0
M  V30 11022 H 1055.25 -1.20869 -4.81357 0
M  V30 11023 H 1050.51 -2.3528 -5.64317 0
M  V30 11024 H 1054.68 -3.1664 -6.20252 0
M  V30 11025 H 1052.31 -3.74435 -6.61591 0
M  V30 11026 N 1053.89 1.57202 -0.111913 0
M  V30 11027 C 1054.84 2.11487 0.851897 0
M  V30 11028 C 1055.82 1.03392 1.23284 0
M  V30 11029 O 1057.01 1.29638 1.20511 0
M  V30 11030 C 1054.14 2.71219 2.10464 0
M  V30 11031 C 1053.23 3.86384 1.74838 0
M  V30 11032 N 1053.62 4.93727 1.09852 0
M  V30 11033 C 1051.92 3.96435 2.04341 0
M  V30 11034 C 1052.62 5.74184 0.93209 0
M  V30 11035 N 1051.59 5.23771 1.45482 0
M  V30 11036 H 1055.39 2.91859 0.345791 0
M  V30 11037 H 1052.91 1.62146 0.0907816 0
M  V30 11038 H 1054.91 3.08449 2.80472 0
M  V30 11039 H 1053.57 1.92308 2.61625 0
M  V30 11040 H 1054.58 5.12244 0.763334 0
M  V30 11041 H 1051.25 3.28556 2.57599 0
M  V30 11042 H 1052.64 6.7057 0.422542 0
M  V30 11043 N 1055.36 -0.161842 1.56767 0
M  V30 11044 C 1056.3 -1.22499 1.93718 0
M  V30 11045 C 1057.31 -1.39975 0.831314 0
M  V30 11046 O 1058.5 -1.3981 1.10975 0
M  V30 11047 C 1055.6 -2.59222 2.18306 0
M  V30 11048 C 1054.77 -2.6292 3.4956 0
M  V30 11049 C 1053.83 -3.81074 3.62863 0
M  V30 11050 O 1052.86 -3.66633 4.35395 0
M  V30 11051 N 1054.06 -4.97923 2.98418 0
M  V30 11052 H 1056.82 -0.911043 2.85517 0
M  V30 11053 H 1054.38 -0.351533 1.58038 0
M  V30 11054 H 1056.38 -3.36749 2.24461 0
M  V30 11055 H 1054.95 -2.82969 1.32844 0
M  V30 11056 H 1054.17 -1.71418 3.54978 0
M  V30 11057 H 1055.45 -2.62409 4.35911 0
M  V30 11058 H 1054.85 -5.12557 2.39378 0
M  V30 11059 H 1053.41 -5.73277 3.10155 0
M  V30 11060 N 1056.84 -1.516 -0.430713 0
M  V30 11061 C 1057.8 -1.72794 -1.50582 0
M  V30 11062 C 1058.8 -0.597903 -1.49271 0
M  V30 11063 O 1059.99 -0.865535 -1.51176 0
M  V30 11064 C 1057.13 -1.79049 -2.90093 0
M  V30 11065 H 1058.32 -2.68751 -1.33091 0
M  V30 11066 H 1055.87 -1.4169 -0.659822 0
M  V30 11067 H 1056.61 -0.849309 -3.12981 0
M  V30 11068 H 1056.39 -2.61181 -2.92449 0
M  V30 11069 H 1057.88 -1.97262 -3.68072 0
M  V30 11070 N 1058.32 0.686584 -1.41858 0
M  V30 11071 C 1059.27 1.79271 -1.40875 0
M  V30 11072 C 1060.25 1.58413 -0.281782 0
M  V30 11073 O 1061.45 1.69093 -0.523132 0
M  V30 11074 C 1058.57 3.17647 -1.30213 0
M  V30 11075 C 1057.66 3.44168 -2.47808 0
M  V30 11076 N 1058.05 3.41339 -3.73258 0
M  V30 11077 C 1056.35 3.74755 -2.41815 0
M  V30 11078 C 1057.05 3.67016 -4.51303 0
M  V30 11079 N 1056.03 3.87203 -3.81543 0
M  V30 11080 H 1059.83 1.75459 -2.35778 0
M  V30 11081 H 1057.34 0.886946 -1.36041 0
M  V30 11082 H 1059.34 3.96896 -1.2759 0
M  V30 11083 H 1058 3.22664 -0.363021 0
M  V30 11084 H 1059.01 3.21511 -4.06018 0
M  V30 11085 H 1055.69 3.87089 -1.56423 0
M  V30 11086 H 1057.08 3.70888 -5.6026 0
M  V30 11087 N 1059.8 1.27835 0.921735 0
M  V30 11088 C 1061.04 1.14692 1.67253 0
M  V30 11089 C 1061.38 -0.305384 1.91784 0
M  V30 11090 O 1060.65 -1.22286 1.51249 0
M  V30 11091 C 1060.93 1.93743 3.03539 0
M  V30 11092 C 1060.79 3.46991 2.86212 0
M  V30 11093 C 1062.11 1.74658 4.03959 0
M  V30 11094 H 1059.23 0.418021 0.606983 0
M  V30 11095 H 1061.87 1.5706 1.06922 0
M  V30 11096 H 1060.02 1.57738 3.55037 0
M  V30 11097 H 1061.69 3.92858 2.41785 0
M  V30 11098 H 1059.93 3.73029 2.21432 0
M  V30 11099 H 1060.6 3.97551 3.82958 0
M  V30 11100 H 1063.08 2.06063 3.61493 0
M  V30 11101 H 1061.96 2.32353 4.97296 0
M  V30 11102 H 1062.22 0.696019 4.36587 0
M  V30 11103 N 1061.28 -1.12907 1.09954 0
M  V30 11104 C 1062.24 -2.16673 0.747364 0
M  V30 11105 C 1063.24 -1.59208 -0.225741 0
M  V30 11106 O 1064.43 -1.742 -0.00322482 0
M  V30 11107 C 1061.56 -3.40735 0.106169 0
M  V30 11108 H 1062.75 -2.49341 1.6664 0
M  V30 11109 H 1060.31 -1.27828 0.899421 0
M  V30 11110 H 1061.04 -3.13661 -0.82384 0
M  V30 11111 H 1060.83 -3.83717 0.806434 0
M  V30 11112 H 1062.32 -4.17414 -0.12464 0
M  V30 11113 N 1062.75 -0.88754 -1.30232 0
M  V30 11114 C 1064 -0.506277 -1.95656 0
M  V30 11115 C 1064.32 0.948191 -1.70395 0
M  V30 11116 O 1063.59 1.66701 -1.02895 0
M  V30 11117 H 1062.17 -0.184235 -0.723924 0
M  V30 11118 H 1064.83 -1.13118 -1.58715 0
M  V30 11119 H 1063.93 -0.678673 -3.04632 0
M  V30 11120 N 1064.23 1.43628 -0.648757 0
M  V30 11121 C 1065.14 2.34554 0.0463037 0
M  V30 11122 C 1066.16 1.53629 0.816952 0
M  V30 11123 O 1067.33 1.86297 0.765212 0
M  V30 11124 C 1064.4 3.3185 1.00381 0
M  V30 11125 C 1063.46 4.2868 0.230589 0
M  V30 11126 C 1062.69 5.21328 1.14249 0
M  V30 11127 O 1062.92 5.18298 2.38166 0
M  V30 11128 O 1061.85 5.98726 0.617296 0
M  V30 11129 H 1065.68 2.95475 -0.702008 0
M  V30 11130 H 1063.26 1.43694 -0.408942 0
M  V30 11131 H 1065.14 3.91692 1.5542 0
M  V30 11132 H 1063.82 2.73439 1.73243 0
M  V30 11133 H 1062.73 3.72332 -0.363282 0
M  V30 11134 H 1064.06 4.90061 -0.458368 0
M  V30 11135 N 1065.71 0.390394 1.52688 0
M  V30 11136 C 1066.94 -0.191485 2.06012 0
M  V30 11137 C 1067.35 -1.40422 1.26202 0
M  V30 11138 O 1066.71 -1.79866 0.308963 0
M  V30 11139 C 1066.76 -0.560521 3.57128 0
M  V30 11140 O 1066.48 0.60404 4.33916 0
M  V30 11141 C 1067.98 -1.19814 4.26801 0
M  V30 11142 H 1065.2 -0.0286311 0.670389 0
M  V30 11143 H 1067.75 0.555939 1.96798 0
M  V30 11144 H 1065.9 -1.25784 3.66411 0
M  V30 11145 H 1066.32 0.300467 5.23639 0
M  V30 11146 H 1067.79 -1.40672 5.33775 0
M  V30 11147 H 1068.27 -2.16582 3.82085 0
M  V30 11148 H 1068.87 -0.541558 4.21838 0
M  V30 11149 N 1067.19 -1.57141 0.120249 0
M  V30 11150 C 1068.43 -1.95527 -0.538245 0
M  V30 11151 C 1068.77 -1.00373 -1.6625 0
M  V30 11152 O 1068.04 -0.0411734 -1.94456 0
M  V30 11153 C 1068.33 -3.43843 -1.06976 0
M  V30 11154 C 1068.18 -4.49771 0.0511596 0
M  V30 11155 C 1069.5 -3.94035 -1.96022 0
M  V30 11156 H 1066.62 -0.710958 -0.194183 0
M  V30 11157 H 1069.26 -1.88986 0.196061 0
M  V30 11158 H 1067.41 -3.49548 -1.69553 0
M  V30 11159 H 1069.08 -4.56163 0.686503 0
M  V30 11160 H 1067.32 -4.27882 0.714127 0
M  V30 11161 H 1067.99 -5.50812 -0.361995 0
M  V30 11162 H 1070.47 -3.9064 -1.43315 0
M  V30 11163 H 1069.35 -4.98329 -2.3013 0
M  V30 11164 H 1069.61 -3.34803 -2.8872 0
M  V30 11165 N 1068.67 0.153526 -1.5685 0
M  V30 11166 C 1069.63 1.17362 -1.96873 0
M  V30 11167 C 1070.63 1.36219 -0.854456 0
M  V30 11168 O 1071.82 1.33322 -1.1212 0
M  V30 11169 C 1068.95 2.53523 -2.27901 0
M  V30 11170 H 1070.14 0.830432 -2.88173 0
M  V30 11171 H 1067.7 0.396633 -1.51184 0
M  V30 11172 H 1068.43 2.92824 -1.39371 0
M  V30 11173 H 1068.22 2.41198 -3.09137 0
M  V30 11174 H 1069.71 3.27006 -2.59725 0
M  V30 11175 N 1070.14 1.51827 0.422667 0
M  V30 11176 C 1071.56 1.40328 0.760275 0
M  V30 11177 C 1071.76 0.497119 1.95272 0
M  V30 11178 O 1070.82 -0.0422083 2.52465 0
M  V30 11179 C 1072.13 2.82622 1.02689 0
M  V30 11180 C 1073.68 2.91874 1.13044 0
M  V30 11181 C 1074.15 4.35107 1.4299 0
M  V30 11182 N 1075.64 4.3828 1.49883 0
M  V30 11183 C 1076.38 5.46153 1.74655 0
M  V30 11184 N 1075.87 6.64165 1.9712 0
M  V30 11185 N 1077.67 5.33651 1.76558 0
M  V30 11186 H 1069.82 2.09285 -0.362455 0
M  V30 11187 H 1072.08 0.94273 -0.0998161 0
M  V30 11188 H 1071.79 3.50991 0.223226 0
M  V30 11189 H 1071.66 3.22844 1.95068 0
M  V30 11190 H 1074.05 2.23694 1.92471 0
M  V30 11191 H 1074.13 2.55128 0.185326 0
M  V30 11192 H 1073.77 5.03841 0.640848 0
M  V30 11193 H 1073.7 4.69377 2.38731 0
M  V30 11194 H 1076.19 3.53206 1.34366 0
M  V30 11195 H 1076.51 7.42165 2.15434 0
M  V30 11196 H 1074.85 6.67255 1.94413 0
M  V30 11197 H 1078.04 4.40436 1.58536 0
M  V30 11198 H 1078.22 6.17798 1.95525 0
M  V30 11199 N 1071.62 -0.679052 1.4222 0
M  V30 11200 C 1073.03 -1.25953 1.37815 0
M  V30 11201 C 1073.38 -1.96077 0.0693215 0
M  V30 11202 O 1072.51 -1.99765 -0.832047 0
M  V30 11203 C 1073.1 -2.29063 2.49631 0
M  V30 11204 C 1071.66 -2.82647 2.48571 0
M  V30 11205 C 1070.81 -1.56909 2.28637 0
M  V30 11206 H 1073.76 -0.472714 1.51496 0
M  V30 11207 H 1073.78 -3.10708 2.19638 0
M  V30 11208 H 1073.29 -1.77996 3.44876 0
M  V30 11209 H 1071.4 -3.37846 1.57132 0
M  V30 11210 H 1071.51 -3.31952 3.45463 0
M  V30 11211 H 1069.87 -1.83323 1.76819 0
M  V30 11212 H 1070.66 -1.07814 3.25931 0
M  V30 11213 N 1073.1 -1.28322 -0.914942 0
M  V30 11214 C 1074.03 -1.14681 -2.03398 0
M  V30 11215 C 1075.01 -0.0448939 -1.70041 0
M  V30 11216 O 1076.2 -0.221672 -1.92931 0
M  V30 11217 C 1073.33 -0.806623 -3.37803 0
M  V30 11218 C 1072.28 -1.86318 -3.85318 0
M  V30 11219 C 1071.61 -1.37665 -5.16674 0
M  V30 11220 C 1072.91 -3.26953 -4.07307 0
M  V30 11221 H 1074.6 -2.08293 -2.15068 0
M  V30 11222 H 1072.15 -1.00284 -1.03339 0
M  V30 11223 H 1074.1 -0.69796 -4.1558 0
M  V30 11224 H 1072.82 0.165203 -3.26182 0
M  V30 11225 H 1071.48 -1.96096 -3.09745 0
M  V30 11226 H 1071.13 -0.393927 -5.01455 0
M  V30 11227 H 1070.83 -2.08313 -5.49435 0
M  V30 11228 H 1072.35 -1.28119 -5.97007 0
M  V30 11229 H 1073.77 -3.20102 -4.75613 0
M  V30 11230 H 1072.17 -3.95424 -4.51398 0
M  V30 11231 H 1073.24 -3.71059 -3.12159 0
M  V30 11232 N 1074.58 1.12322 -1.10551 0
M  V30 11233 C 1075.83 1.83858 -0.848674 0
M  V30 11234 C 1076.15 1.84159 0.62575 0
M  V30 11235 O 1075.41 1.28341 1.4774 0
M  V30 11236 C 1075.71 3.31177 -1.34375 0
M  V30 11237 C 1075.37 3.51046 -2.8298 0
M  V30 11238 C 1074.04 3.56177 -3.23561 0
M  V30 11239 C 1076.39 3.58061 -3.78737 0
M  V30 11240 C 1073.72 3.65868 -4.58647 0
M  V30 11241 C 1076.07 3.69283 -5.13627 0
M  V30 11242 C 1074.73 3.7267 -5.53781 0
M  V30 11243 H 1074 0.672784 -0.310552 0
M  V30 11244 H 1076.65 1.3253 -1.38232 0
M  V30 11245 H 1074.95 3.84937 -0.730144 0
M  V30 11246 H 1076.65 3.84998 -1.12148 0
M  V30 11247 H 1073.24 3.47716 -2.50582 0
M  V30 11248 H 1077.42 3.53366 -3.48491 0
M  V30 11249 H 1072.68 3.66763 -4.89178 0
M  V30 11250 H 1076.85 3.73654 -5.8767 0
M  V30 11251 H 1074.48 3.79932 -6.58449 0
M  V30 11252 N 1076.06 0.894434 1.2976 0
M  V30 11253 C 1076.99 0.3847 2.30309 0
M  V30 11254 C 1077.97 -0.537486 1.61385 0
M  V30 11255 O 1079.15 -0.449332 1.8893 0
M  V30 11256 C 1076.28 -0.393311 3.45066 0
M  V30 11257 C 1075.24 0.437968 4.25753 0
M  V30 11258 C 1074.56 -0.467221 5.32655 0
M  V30 11259 C 1075.86 1.6851 4.9437 0
M  V30 11260 H 1077.56 1.22496 2.73194 0
M  V30 11261 H 1075.1 0.590471 1.31337 0
M  V30 11262 H 1077.06 -0.760614 4.14479 0
M  V30 11263 H 1075.78 -1.2673 3.0101 0
M  V30 11264 H 1074.44 0.787533 3.58041 0
M  V30 11265 H 1074.09 -1.33919 4.84845 0
M  V30 11266 H 1073.79 0.0852482 5.87538 0
M  V30 11267 H 1075.31 -0.830833 6.04921 0
M  V30 11268 H 1076.72 1.38784 5.56248 0
M  V30 11269 H 1075.12 2.17849 5.59162 0
M  V30 11270 H 1076.19 2.42412 4.19958 0
M  V30 11271 N 1077.53 -1.43282 0.656365 0
M  V30 11272 C 1078.44 -2.34576 -0.033864 0
M  V30 11273 C 1079.46 -1.5406 -0.808793 0
M  V30 11274 O 1080.64 -1.867 -0.755322 0
M  V30 11275 C 1077.7 -3.32378 -0.986197 0
M  V30 11276 C 1076.76 -4.28797 -0.207851 0
M  V30 11277 C 1076 -5.21927 -1.11482 0
M  V30 11278 O 1076.22 -5.19554 -2.35414 0
M  V30 11279 O 1075.15 -5.99045 -0.585536 0
M  V30 11280 H 1078.98 -2.95099 0.717668 0
M  V30 11281 H 1076.56 -1.43475 0.416556 0
M  V30 11282 H 1078.45 -3.9251 -1.53341 0
M  V30 11283 H 1077.12 -2.74354 -1.7179 0
M  V30 11284 H 1076.03 -3.72134 0.383022 0
M  V30 11285 H 1077.36 -4.89811 0.48435 0
M  V30 11286 N 1079.01 -0.398486 -1.52479 0
M  V30 11287 C 1080.26 0.180752 -2.01692 0
M  V30 11288 C 1080.59 1.46044 -1.28457 0
M  V30 11289 O 1079.84 1.92051 -0.376162 0
M  V30 11290 C 1080.14 0.485909 -3.54081 0
M  V30 11291 C 1079.81 -0.703321 -4.45381 0
M  V30 11292 C 1078.47 -1.02955 -4.70057 0
M  V30 11293 C 1080.82 -1.49848 -4.99194 0
M  V30 11294 C 1078.15 -2.15231 -5.45795 0
M  V30 11295 C 1080.5 -2.61192 -5.76161 0
M  V30 11296 C 1079.17 -2.94313 -5.99113 0
M  V30 11297 H 1078.44 0.0661417 -0.738042 0
M  V30 11298 H 1081.08 -0.53772 -1.83796 0
M  V30 11299 H 1079.39 1.28582 -3.701 0
M  V30 11300 H 1081.09 0.946872 -3.89661 0
M  V30 11301 H 1077.68 -0.439062 -4.26345 0
M  V30 11302 H 1081.86 -1.25968 -4.80048 0
M  V30 11303 H 1077.12 -2.41252 -5.61789 0
M  V30 11304 H 1081.29 -3.23201 -6.16858 0
M  V30 11305 H 1078.92 -3.81431 -6.57583 0
M  V30 11306 N 1080.49 1.57075 -0.12858 0
M  V30 11307 C 1081.9 1.82468 0.39526 0
M  V30 11308 C 1082.25 1.0463 1.65973 0
M  V30 11309 O 1081.38 0.285835 2.14504 0
M  V30 11310 C 1081.97 3.30976 0.723889 0
M  V30 11311 C 1080.53 3.57016 1.19232 0
M  V30 11312 C 1079.68 2.76534 0.205907 0
M  V30 11313 H 1082.63 1.54711 -0.353571 0
M  V30 11314 H 1082.65 3.46127 1.58039 0
M  V30 11315 H 1082.16 3.87602 -0.196595 0
M  V30 11316 H 1080.26 3.05758 2.12938 0
M  V30 11317 H 1080.38 4.65558 1.13103 0
M  V30 11318 H 1078.74 2.45038 0.694872 0
M  V30 11319 H 1079.52 3.35923 -0.707842 0
M  V30 11320 N 1081.97 -0.145205 1.5693 0
M  V30 11321 C 1082.92 -1.17923 1.98401 0
M  V30 11322 C 1083.89 -1.42591 0.851885 0
M  V30 11323 O 1085.07 -1.54896 1.11409 0
M  V30 11324 C 1082.21 -2.50727 2.37128 0
M  V30 11325 C 1081.32 -2.33218 3.63639 0
M  V30 11326 C 1080.46 -3.5907 3.91462 0
M  V30 11327 C 1079.5 -3.36605 5.11237 0
M  V30 11328 N 1078.64 -4.54592 5.35061 0
M  V30 11329 H 1083.48 -0.818573 2.86537 0
M  V30 11330 H 1081.01 -0.392739 1.4176 0
M  V30 11331 H 1082.97 -3.28165 2.57611 0
M  V30 11332 H 1081.6 -2.84736 1.52069 0
M  V30 11333 H 1080.65 -1.46826 3.50922 0
M  V30 11334 H 1081.96 -2.12579 4.51234 0
M  V30 11335 H 1081.12 -4.44936 4.12453 0
M  V30 11336 H 1079.86 -3.82715 3.02293 0
M  V30 11337 H 1078.86 -2.49127 4.90118 0
M  V30 11338 H 1080.09 -3.14357 6.01961 0
M  V30 11339 H 1078.03 -4.78406 4.48847 0
M  V30 11340 H 1077.95 -4.36962 6.16928 0
M  V30 11341 H 1079.22 -5.41666 5.60551 0
M  V30 11342 N 1083.45 -1.52049 -0.414609 0
M  V30 11343 C 1084.72 -1.56397 -1.17471 0
M  V30 11344 C 1085.1 -0.34171 -2.08316 0
M  V30 11345 O 1084.45 0.6718 -2.18401 0
M  V30 11346 C 1084.66 -2.88983 -1.95678 0
M  V30 11347 C 1086.01 -3.41781 -2.51935 0
M  V30 11348 O 1087.03 -2.90686 -2.05865 0
M  V30 11349 O 1085.89 -4.30989 -3.36022 0
M  V30 11350 H 1082.99 -0.62974 -0.536056 0
M  V30 11351 H 1085.53 -1.64374 -0.421834 0
M  V30 11352 H 1084.31 -3.69392 -1.29094 0
M  V30 11353 H 1083.93 -2.84274 -2.77983 0
M  V30 11354 N 1084.93 0.6715 -1.42579 0
M  V30 11355 C 1086.15 1.46471 -1.46836 0
M  V30 11356 C 1086.58 1.87921 -0.0820658 0
M  V30 11357 O 1085.93 1.5621 0.920217 0
M  V30 11358 C 1085.98 2.68796 -2.40377 0
M  V30 11359 O 1085.09 3.67188 -1.87741 0
M  V30 11360 H 1084.43 0.439901 -0.497376 0
M  V30 11361 H 1086.96 0.823342 -1.87303 0
M  V30 11362 H 1086.97 3.16828 -2.57068 0
M  V30 11363 H 1085.64 2.37967 -3.41093 0
M  V30 11364 H 1084.22 3.26237 -1.80621 0
M  V30 11365 N 1086.4 1.28806 0.908124 0
M  V30 11366 C 1087.63 1.19271 1.69674 0
M  V30 11367 C 1088.05 -0.244403 1.86505 0
M  V30 11368 O 1087.41 -1.17668 1.37927 0
M  V30 11369 C 1087.46 1.9023 3.06341 0
M  V30 11370 O 1086.56 1.2136 3.94139 0
M  V30 11371 H 1085.9 0.413738 0.519343 0
M  V30 11372 H 1088.43 1.70227 1.13508 0
M  V30 11373 H 1088.44 1.98356 3.56537 0
M  V30 11374 H 1087.12 2.94762 2.93408 0
M  V30 11375 H 1085.7 1.21435 3.52573 0
M  V30 11376 N 1087.88 -1.11734 1.11145 0
M  V30 11377 C 1089.11 -1.87215 0.880811 0
M  V30 11378 C 1089.52 -1.80016 -0.569195 0
M  V30 11379 O 1088.88 -1.17926 -1.39283 0
M  V30 11380 C 1088.93 -3.36146 1.32998 0
M  V30 11381 O 1088.65 -3.43187 2.72313 0
M  V30 11382 C 1090.15 -4.28542 1.1343 0
M  V30 11383 H 1087.37 -0.592123 0.315645 0
M  V30 11384 H 1089.92 -1.41335 1.478 0
M  V30 11385 H 1088.07 -3.79542 0.776308 0
M  V30 11386 H 1088.49 -4.359 2.91705 0
M  V30 11387 H 1089.96 -5.31295 1.49764 0
M  V30 11388 H 1090.44 -4.39138 0.0735859 0
M  V30 11389 H 1091.04 -3.90935 1.67481 0
M  V30 11390 N 1089.36 -0.901303 -1.29284 0
M  V30 11391 C 1090.61 -0.538241 -1.96149 0
M  V30 11392 C 1090.96 0.905804 -1.69744 0
M  V30 11393 O 1090.25 1.63383 -1.00083 0
M  V30 11394 C 1090.45 -0.768828 -3.49033 0
M  V30 11395 C 1090.28 -2.23373 -3.903 0
M  V30 11396 C 1089.05 -2.88148 -4.15089 0
M  V30 11397 C 1091.24 -3.20907 -4.01899 0
M  V30 11398 N 1089.23 -4.25065 -4.42937 0
M  V30 11399 C 1090.6 -4.42948 -4.33817 0
M  V30 11400 C 1092.65 -3.16475 -3.8438 0
M  V30 11401 C 1091.36 -5.6112 -4.50041 0
M  V30 11402 C 1093.38 -4.33934 -4.01815 0
M  V30 11403 C 1092.74 -5.54745 -4.34093 0
M  V30 11404 H 1088.84 -0.246593 -0.742102 0
M  V30 11405 H 1091.43 -1.16245 -1.5619 0
M  V30 11406 H 1089.6 -0.17399 -3.8801 0
M  V30 11407 H 1091.33 -0.37104 -4.02996 0
M  V30 11408 H 1088.08 -2.38935 -4.0891 0
M  V30 11409 H 1088.51 -4.95822 -4.60966 0
M  V30 11410 H 1093.15 -2.2416 -3.58486 0
M  V30 11411 H 1090.87 -6.53925 -4.74771 0
M  V30 11412 H 1094.45 -4.31993 -3.89709 0
M  V30 11413 H 1093.33 -6.4412 -4.47302 0
M  V30 11414 N 1090.84 1.42931 -0.663954 0
M  V30 11415 C 1092.07 2.06028 -0.189808 0
M  V30 11416 C 1092.48 1.49827 1.14879 0
M  V30 11417 O 1091.84 0.633778 1.71142 0
M  V30 11418 C 1091.89 3.61349 -0.104343 0
M  V30 11419 O 1091.61 4.15463 -1.39004 0
M  V30 11420 C 1093.11 4.4154 0.394599 0
M  V30 11421 H 1090.33 0.664259 -0.0948744 0
M  V30 11422 H 1092.87 1.83255 -0.907632 0
M  V30 11423 H 1091.03 3.83271 0.564103 0
M  V30 11424 H 1091.44 5.09233 -1.25626 0
M  V30 11425 H 1092.92 5.50525 0.403329 0
M  V30 11426 H 1093.39 4.1534 1.4279 0
M  V30 11427 H 1094 4.24612 -0.241729 0
M  V30 11428 N 1092.32 0.406567 1.52266 0
M  V30 11429 C 1093.56 -0.170305 2.02084 0
M  V30 11430 C 1093.89 -1.45008 1.29176 0
M  V30 11431 O 1093.17 -1.90399 0.39731 0
M  V30 11432 C 1093.45 -0.420627 3.57635 0
M  V30 11433 C 1093.31 0.87564 4.41194 0
M  V30 11434 C 1094.62 -1.20387 4.23314 0
M  V30 11435 H 1091.74 -0.0604219 0.734519 0
M  V30 11436 H 1094.39 0.539529 1.82179 0
M  V30 11437 H 1092.54 -1.0253 3.74726 0
M  V30 11438 H 1094.21 1.51192 4.35819 0
M  V30 11439 H 1092.45 1.48718 4.07511 0
M  V30 11440 H 1093.12 0.654916 5.48101 0
M  V30 11441 H 1095.6 -0.691972 4.10306 0
M  V30 11442 H 1094.47 -1.34776 5.32096 0
M  V30 11443 H 1094.73 -2.2238 3.82099 0
M  V30 11444 N 1093.79 -1.57004 0.136909 0
M  V30 11445 C 1095.07 -1.87375 -0.561233 0
M  V30 11446 C 1095.45 -1.04117 -1.83638 0
M  V30 11447 O 1094.8 -0.125103 -2.28157 0
M  V30 11448 C 1095.01 -3.38829 -0.836426 0
M  V30 11449 C 1096.36 -4.07826 -1.18164 0
M  V30 11450 O 1097.38 -3.4395 -0.92611 0
M  V30 11451 O 1096.24 -5.20614 -1.66204 0
M  V30 11452 H 1093.33 -0.776287 -0.285145 0
M  V30 11453 H 1095.88 -1.68818 0.172761 0
M  V30 11454 H 1094.65 -3.91244 0.066442 0
M  V30 11455 H 1094.28 -3.62879 -1.62496 0
M  V30 11456 N 1095.27 0.136881 -1.57004 0
M  V30 11457 C 1096.22 1.17411 -1.95445 0
M  V30 11458 C 1097.21 1.38019 -0.827015 0
M  V30 11459 O 1098.4 1.39412 -1.09057 0
M  V30 11460 C 1095.53 2.50525 -2.34717 0
M  V30 11461 C 1094.61 2.33467 -3.54054 0
M  V30 11462 N 1095 1.86184 -4.70286 0
M  V30 11463 C 1093.3 2.64185 -3.59336 0
M  V30 11464 C 1094 1.82411 -5.5236 0
M  V30 11465 N 1092.98 2.26098 -4.94349 0
M  V30 11466 H 1096.78 0.8008 -2.8278 0
M  V30 11467 H 1094.3 0.344831 -1.58697 0
M  V30 11468 H 1096.29 3.2552 -2.60465 0
M  V30 11469 H 1094.95 2.8863 -1.48738 0
M  V30 11470 H 1095.96 1.55998 -4.93847 0
M  V30 11471 H 1092.64 3.06096 -2.83922 0
M  V30 11472 H 1094.03 1.4726 -6.55564 0
M  V30 11473 N 1096.75 1.52266 0.40654 0
M  V30 11474 C 1097.68 1.72025 1.51459 0
M  V30 11475 C 1098.7 0.600667 1.51314 0
M  V30 11476 O 1099.88 0.875894 1.55532 0
M  V30 11477 C 1096.98 1.7479 2.90348 0
M  V30 11478 C 1096.16 3.03826 3.14656 0
M  V30 11479 C 1095.22 2.98369 4.33431 0
M  V30 11480 O 1094.24 3.7227 4.30586 0
M  V30 11481 N 1095.44 2.16338 5.38682 0
M  V30 11482 H 1098.21 2.67622 1.34903 0
M  V30 11483 H 1095.77 1.50536 0.595867 0
M  V30 11484 H 1097.76 1.68667 3.67877 0
M  V30 11485 H 1096.33 0.86656 3.00349 0
M  V30 11486 H 1095.55 3.23577 2.25148 0
M  V30 11487 H 1096.84 3.89182 3.27742 0
M  V30 11488 H 1096.24 1.55731 5.43842 0
M  V30 11489 H 1094.8 2.1607 6.14945 0
M  V30 11490 N 1098.23 -0.663929 1.42933 0
M  V30 11491 C 1099.16 -1.78899 1.50058 0
M  V30 11492 C 1100.14 -1.66329 0.356164 0
M  V30 11493 O 1101.32 -1.85587 0.571944 0
M  V30 11494 C 1098.45 -3.17265 1.41281 0
M  V30 11495 C 1097.41 -3.44584 2.53861 0
M  V30 11496 C 1096.73 -4.82638 2.3014 0
M  V30 11497 C 1098.03 -3.40394 3.96143 0
M  V30 11498 H 1099.73 -1.73194 2.44222 0
M  V30 11499 H 1097.27 -0.83182 1.17545 0
M  V30 11500 H 1099.23 -3.95715 1.44872 0
M  V30 11501 H 1097.95 -3.23675 0.43616 0
M  V30 11502 H 1096.61 -2.685 2.49606 0
M  V30 11503 H 1096.26 -4.85711 1.30743 0
M  V30 11504 H 1095.96 -5.01879 3.056 0
M  V30 11505 H 1097.48 -5.63359 2.35497 0
M  V30 11506 H 1098.9 -4.08796 4.01943 0
M  V30 11507 H 1097.29 -3.7117 4.71543 0
M  V30 11508 H 1098.36 -2.38767 4.22041 0
M  V30 11509 N 1099.71 -1.29285 -0.901281 0
M  V30 11510 C 1100.64 -1.16832 -2.0217 0
M  V30 11511 C 1101.62 -0.0629265 -1.69984 0
M  V30 11512 O 1102.8 -0.242123 -1.92685 0
M  V30 11513 C 1099.93 -0.842406 -3.36929 0
M  V30 11514 C 1098.89 -1.90394 -3.8332 0
M  V30 11515 C 1098.21 -1.43138 -5.15185 0
M  V30 11516 C 1099.51 -3.31254 -4.03817 0
M  V30 11517 H 1101.21 -2.10562 -2.12847 0
M  V30 11518 H 1098.75 -1.01375 -1.0227 0
M  V30 11519 H 1100.71 -0.741999 -4.14816 0
M  V30 11520 H 1099.43 0.130598 -3.26339 0
M  V30 11521 H 1098.09 -1.99371 -3.07647 0
M  V30 11522 H 1097.74 -0.447091 -5.01009 0
M  V30 11523 H 1097.44 -2.14129 -5.47195 0
M  V30 11524 H 1098.96 -1.34444 -5.95615 0
M  V30 11525 H 1100.37 -3.25129 -4.72191 0
M  V30 11526 H 1098.77 -4.00189 -4.47178 0
M  V30 11527 H 1099.84 -3.74349 -3.08206 0
M  V30 11528 N 1101.18 1.11143 -1.11736 0
M  V30 11529 C 1102.43 1.8341 -0.879329 0
M  V30 11530 C 1102.79 1.83174 0.588657 0
M  V30 11531 O 1102.08 1.27609 1.42922 0
M  V30 11532 C 1102.27 3.29733 -1.3788 0
M  V30 11533 C 1102.1 3.44222 -2.89381 0
M  V30 11534 C 1100.87 3.57065 -3.57537 0
M  V30 11535 C 1103.07 3.38246 -3.8742 0
M  V30 11536 N 1101.05 3.60056 -4.97225 0
M  V30 11537 C 1102.42 3.47894 -5.13196 0
M  V30 11538 C 1104.48 3.21797 -3.79935 0
M  V30 11539 C 1103.18 3.4279 -6.32367 0
M  V30 11540 C 1105.21 3.18011 -4.98621 0
M  V30 11541 C 1104.57 3.28234 -6.23251 0
M  V30 11542 H 1100.67 0.686248 -0.374951 0
M  V30 11543 H 1103.25 1.32962 -1.42229 0
M  V30 11544 H 1101.42 3.78691 -0.86298 0
M  V30 11545 H 1103.15 3.89924 -1.08359 0
M  V30 11546 H 1099.91 3.59759 -3.08011 0
M  V30 11547 H 1100.33 3.65181 -5.70063 0
M  V30 11548 H 1104.98 3.12777 -2.84482 0
M  V30 11549 H 1102.69 3.50577 -7.28094 0
M  V30 11550 H 1106.28 3.06446 -4.94552 0
M  V30 11551 H 1105.16 3.25297 -7.13549 0
M  V30 11552 N 1102.66 0.908147 1.28804 0
M  V30 11553 C 1103.91 0.53734 1.94826 0
M  V30 11554 C 1104.23 -0.920962 1.71882 0
M  V30 11555 O 1103.5 -1.65043 1.05534 0
M  V30 11556 H 1102.08 0.195729 0.720902 0
M  V30 11557 H 1104.74 1.15628 1.56895 0
M  V30 11558 H 1103.84 0.727052 3.03513 0
M  V30 11559 N 1104.14 -1.42577 0.671525 0
M  V30 11560 C 1105.05 -2.34598 -0.00898225 0
M  V30 11561 C 1106.07 -1.54909 -0.792407 0
M  V30 11562 O 1107.24 -1.87491 -0.735477 0
M  V30 11563 C 1104.31 -3.33405 -0.950888 0
M  V30 11564 C 1103.37 -4.28993 -0.16236 0
M  V30 11565 C 1102.6 -5.2308 -1.0594 0
M  V30 11566 O 1102.82 -5.22022 -2.2989 0
M  V30 11567 O 1101.76 -5.99632 -0.521966 0
M  V30 11568 H 1105.58 -2.94321 0.748927 0
M  V30 11569 H 1103.17 -1.43025 0.43175 0
M  V30 11570 H 1105.05 -3.94115 -1.49169 0
M  V30 11571 H 1103.73 -2.7616 -1.68871 0
M  V30 11572 H 1102.63 -3.71707 0.42247 0
M  V30 11573 H 1103.97 -4.8927 0.536274 0
M  V30 11574 N 1105.62 -0.414636 -1.52048 0
M  V30 11575 C 1106.58 0.396285 -2.25748 0
M  V30 11576 C 1107.58 0.969003 -1.28324 0
M  V30 11577 O 1108.77 0.847016 -1.52221 0
M  V30 11578 C 1105.9 1.55838 -3.03195 0
M  V30 11579 H 1107.1 -0.249311 -2.98862 0
M  V30 11580 H 1104.65 -0.167276 -1.55402 0
M  V30 11581 H 1105.38 2.24068 -2.34444 0
M  V30 11582 H 1105.17 1.15414 -3.74729 0
M  V30 11583 H 1106.66 2.13187 -3.59084 0
M  V30 11584 N 1107.1 1.56929 -0.145233 0
M  V30 11585 C 1108.03 2.19685 0.791263 0
M  V30 11586 C 1109.01 1.14455 1.25833 0
M  V30 11587 O 1110.19 1.42791 1.31622 0
M  V30 11588 C 1107.32 2.81705 2.03124 0
M  V30 11589 C 1106.28 3.92746 1.70101 0
M  V30 11590 C 1105.6 4.41694 3.01347 0
M  V30 11591 C 1106.9 5.13606 0.949025 0
M  V30 11592 H 1108.6 2.98196 0.26825 0
M  V30 11593 H 1106.14 1.43434 0.127584 0
M  V30 11594 H 1108.1 3.24273 2.69119 0
M  V30 11595 H 1106.82 2.00523 2.57795 0
M  V30 11596 H 1105.48 3.50794 1.06486 0
M  V30 11597 H 1105.13 3.57336 3.54006 0
M  V30 11598 H 1104.83 5.1659 2.80016 0
M  V30 11599 H 1106.35 4.86931 3.68416 0
M  V30 11600 H 1107.76 5.53029 1.51102 0
M  V30 11601 H 1106.16 5.94252 0.835711 0
M  V30 11602 H 1107.23 4.84863 -0.0595631 0
M  V30 11603 N 1108.58 -0.128553 1.57075 0
M  V30 11604 C 1109.51 -1.15953 2.02675 0
M  V30 11605 C 1110.49 -1.43743 0.909501 0
M  V30 11606 O 1111.67 -1.54348 1.17857 0
M  V30 11607 C 1108.8 -2.48813 2.423 0
M  V30 11608 C 1107.76 -2.35506 3.57381 0
M  V30 11609 C 1107.08 -3.73243 3.82875 0
M  V30 11610 C 1108.38 -1.82359 4.89431 0
M  V30 11611 H 1110.08 -0.780283 2.89054 0
M  V30 11612 H 1107.62 -0.373896 1.39061 0
M  V30 11613 H 1109.57 -3.21179 2.72804 0
M  V30 11614 H 1108.3 -2.88609 1.52881 0
M  V30 11615 H 1106.96 -1.6559 3.27071 0
M  V30 11616 H 1106.61 -4.10507 2.90677 0
M  V30 11617 H 1106.31 -3.65195 4.60333 0
M  V30 11618 H 1107.83 -4.47128 4.15823 0
M  V30 11619 H 1109.24 -2.44533 5.18533 0
M  V30 11620 H 1107.64 -1.85156 5.70822 0
M  V30 11621 H 1108.71 -0.780478 4.78578 0
M  V30 11622 N 1110.05 -1.5248 -0.398459 0
M  V30 11623 C 1111.3 -1.66287 -1.14155 0
M  V30 11624 C 1111.62 -0.40429 -1.91376 0
M  V30 11625 O 1112.82 -0.422341 -2.68195 0
M  V30 11626 C 1111.28 -2.93831 -2.07825 0
M  V30 11627 C 1110.89 -4.26836 -1.3607 0
M  V30 11628 C 1112.63 -3.17004 -2.82327 0
M  V30 11629 C 1110.54 -5.45495 -2.28451 0
M  V30 11630 H 1109.47 -0.619478 -0.42984 0
M  V30 11631 H 1112.12 -1.78972 -0.405112 0
M  V30 11632 H 1110.5 -2.7487 -2.85065 0
M  V30 11633 H 1111.67 -4.56317 -0.641205 0
M  V30 11634 H 1109.99 -4.0985 -0.735659 0
M  V30 11635 H 1112.59 -4.02834 -3.51609 0
M  V30 11636 H 1112.93 -2.3168 -3.45876 0
M  V30 11637 H 1113.46 -3.36487 -2.12183 0
M  V30 11638 H 1110.2 -6.33198 -1.69532 0
M  V30 11639 H 1109.72 -5.20338 -2.98343 0
M  V30 11640 H 1111.4 -5.78996 -2.88743 0
M  V30 11641 N 1111.53 0.65634 -1.43283 0
M  V30 11642 C 1112.76 1.44408 -1.48168 0
M  V30 11643 C 1113.17 1.88542 -0.0986016 0
M  V30 11644 O 1112.53 1.59298 0.890527 0
M  V30 11645 C 1112.58 2.68111 -2.42484 0
M  V30 11646 O 1112.3 2.25824 -3.75413 0
M  V30 11647 C 1113.8 3.61499 -2.56579 0
M  V30 11648 H 1111.02 0.443731 -0.503333 0
M  V30 11649 H 1113.57 0.804917 -1.87993 0
M  V30 11650 H 1111.72 3.28175 -2.05863 0
M  V30 11651 H 1112.14 3.05839 -4.26102 0
M  V30 11652 H 1113.61 4.44972 -3.26655 0
M  V30 11653 H 1114.09 4.08639 -1.60969 0
M  V30 11654 H 1114.69 3.07319 -2.93998 0
M  V30 11655 N 1113.01 1.29761 0.894412 0
M  V30 11656 C 1114.42 1.16275 1.46072 0
M  V30 11657 C 1114.77 -0.240123 1.94725 0
M  V30 11658 O 1113.9 -1.13606 1.84181 0
M  V30 11659 C 1114.49 2.10471 2.65494 0
M  V30 11660 C 1113.05 2.00992 3.18244 0
M  V30 11661 C 1112.2 2.01094 1.90936 0
M  V30 11662 H 1115.15 1.42169 0.705243 0
M  V30 11663 H 1115.17 1.68003 3.41402 0
M  V30 11664 H 1114.68 3.12566 2.30053 0
M  V30 11665 H 1112.78 1.02005 3.58365 0
M  V30 11666 H 1112.9 2.88916 3.82184 0
M  V30 11667 H 1111.26 1.45764 2.08866 0
M  V30 11668 H 1112.04 3.04902 1.57764 0
M  V30 11669 N 1114.49 -1.10549 1.12324 0
M  V30 11670 C 1115.73 -1.82755 0.879117 0
M  V30 11671 C 1116.07 -1.84905 -0.593604 0
M  V30 11672 O 1115.34 -1.30884 -1.43873 0
M  V30 11673 C 1115.62 -3.29481 1.45308 0
M  V30 11674 C 1115.48 -3.3567 2.99408 0
M  V30 11675 C 1116.8 -4.25828 1.11167 0
M  V30 11676 H 1113.92 -0.663513 0.32081 0
M  V30 11677 H 1116.56 -1.29572 1.38965 0
M  V30 11678 H 1114.71 -3.74902 1.01887 0
M  V30 11679 H 1116.38 -2.98739 3.515 0
M  V30 11680 H 1114.62 -2.75606 3.34998 0
M  V30 11681 H 1115.29 -4.38983 3.34661 0
M  V30 11682 H 1117.77 -3.88635 1.48667 0
M  V30 11683 H 1116.65 -5.26857 1.53991 0
M  V30 11684 H 1116.91 -4.42094 0.0237046 0
M  V30 11685 N 1115.97 -0.914965 -1.28321 0
M  V30 11686 C 1116.9 -0.421292 -2.29668 0
M  V30 11687 C 1117.88 0.511743 -1.6222 0
M  V30 11688 O 1119.06 0.419218 -1.89621 0
M  V30 11689 C 1116.19 0.338364 -3.45648 0
M  V30 11690 C 1115.15 -0.505646 -4.25003 0
M  V30 11691 C 1114.47 0.382421 -5.33331 0
M  V30 11692 C 1115.77 -1.76354 -4.91626 0
M  V30 11693 H 1117.47 -1.26826 -2.71211 0
M  V30 11694 H 1115.01 -0.611291 -1.30381 0
M  V30 11695 H 1116.96 0.694578 -4.15636 0
M  V30 11696 H 1115.69 1.21925 -3.02988 0
M  V30 11697 H 1114.35 -0.844395 -3.56743 0
M  V30 11698 H 1114 1.26189 -4.86914 0
M  V30 11699 H 1113.7 -0.17871 -5.87328 0
M  V30 11700 H 1115.22 0.73449 -6.06166 0
M  V30 11701 H 1116.63 -1.47616 -5.5397 0
M  V30 11702 H 1115.03 -2.26717 -5.55625 0
M  V30 11703 H 1116.1 -2.49063 -4.16048 0
M  V30 11704 N 1117.44 1.42219 -0.679077 0
M  V30 11705 C 1118.38 2.29172 0.035583 0
M  V30 11706 C 1119.39 1.43909 0.761183 0
M  V30 11707 O 1120.58 1.67584 0.61463 0
M  V30 11708 C 1117.68 3.21426 1.07419 0
M  V30 11709 C 1116.85 4.35364 0.421547 0
M  V30 11710 C 1115.91 5.08307 1.36051 0
M  V30 11711 O 1114.94 5.62678 0.859186 0
M  V30 11712 N 1116.14 5.14222 2.69362 0
M  V30 11713 H 1118.9 2.91147 -0.710865 0
M  V30 11714 H 1116.46 1.53192 -0.523821 0
M  V30 11715 H 1118.46 3.67091 1.70371 0
M  V30 11716 H 1117.03 2.60873 1.72233 0
M  V30 11717 H 1116.25 3.9229 -0.387559 0
M  V30 11718 H 1117.53 5.08789 -0.0329421 0
M  V30 11719 H 1116.93 4.71467 3.12627 0
M  V30 11720 H 1115.49 5.63519 3.27551 0
M  V30 11721 N 1118.92 0.422693 1.51826 0
M  V30 11722 C 1119.88 -0.384307 2.25955 0
M  V30 11723 C 1120.88 -0.962184 1.28836 0
M  V30 11724 O 1122.07 -0.838931 1.52668 0
M  V30 11725 C 1119.21 -1.54228 3.04018 0
M  V30 11726 H 1120.4 0.265157 2.98726 0
M  V30 11727 H 1117.95 0.175515 1.55311 0
M  V30 11728 H 1118.69 -2.22822 2.35629 0
M  V30 11729 H 1118.47 -1.13425 3.75336 0
M  V30 11730 H 1119.96 -2.1128 3.60209 0
M  V30 11731 N 1120.4 -1.5685 0.153553 0
M  V30 11732 C 1121.65 -1.95946 -0.494936 0
M  V30 11733 C 1121.97 -1.03975 -1.64967 0
M  V30 11734 O 1121.24 -0.102572 -1.95631 0
M  V30 11735 H 1119.82 -0.723516 -0.185833 0
M  V30 11736 H 1122.48 -1.93531 0.230585 0
M  V30 11737 H 1121.58 -2.99823 -0.866743 0
M  V30 11738 N 1121.88 0.120221 -1.57141 0
M  V30 11739 C 1122.82 1.14751 -2.00252 0
M  V30 11740 C 1123.79 1.41217 -0.874462 0
M  V30 11741 O 1124.98 1.53104 -1.13859 0
M  V30 11742 C 1122.12 2.46923 -2.41087 0
M  V30 11743 C 1121.23 2.27403 -3.67303 0
M  V30 11744 C 1120.37 3.52797 -3.97125 0
M  V30 11745 C 1119.41 3.28429 -5.16528 0
M  V30 11746 N 1118.54 4.46022 -5.42226 0
M  V30 11747 H 1123.38 0.772884 -2.87803 0
M  V30 11748 H 1120.92 0.370137 -1.42367 0
M  V30 11749 H 1122.88 3.24025 -2.62799 0
M  V30 11750 H 1121.51 2.82281 -1.5658 0
M  V30 11751 H 1120.56 1.41224 -3.53214 0
M  V30 11752 H 1121.87 2.05373 -4.54558 0
M  V30 11753 H 1121.03 4.38318 -4.19479 0
M  V30 11754 H 1119.77 3.77857 -3.08343 0
M  V30 11755 H 1118.77 2.41299 -4.94019 0
M  V30 11756 H 1120 3.0474 -6.06886 0
M  V30 11757 H 1117.94 4.71205 -4.56401 0
M  V30 11758 H 1117.86 4.27092 -6.23802 0
M  V30 11759 H 1119.13 5.3268 -5.69098 0
M  V30 11760 N 1123.36 1.52689 0.390367 0
M  V30 11761 C 1124.32 1.76726 1.45947 0
M  V30 11762 C 1125.32 0.637269 1.47633 0
M  V30 11763 O 1126.51 0.905312 1.48828 0
M  V30 11764 C 1123.64 1.86678 2.85244 0
M  V30 11765 H 1124.83 2.72185 1.25918 0
M  V30 11766 H 1122.39 1.4339 0.622023 0
M  V30 11767 H 1123.12 0.931991 3.10619 0
M  V30 11768 H 1122.91 2.68843 2.85422 0
M  V30 11769 H 1124.4 2.06952 3.62713 0
M  V30 11770 N 1124.83 -0.648732 1.43629 0
M  V30 11771 C 1125.74 -1.79046 1.51591 0
M  V30 11772 C 1126.76 -1.69276 0.402697 0
M  V30 11773 O 1127.94 -1.90366 0.657484 0
M  V30 11774 C 1125 -3.15347 1.44073 0
M  V30 11775 C 1124.06 -3.3688 2.66102 0
M  V30 11776 C 1123.3 -4.66679 2.58933 0
M  V30 11777 O 1123.52 -5.46328 1.63956 0
M  V30 11778 O 1122.45 -4.9003 3.49506 0
M  V30 11779 H 1126.28 -1.75283 2.48011 0
M  V30 11780 H 1123.86 -0.807774 1.2568 0
M  V30 11781 H 1125.75 -3.96633 1.42339 0
M  V30 11782 H 1124.42 -3.19691 0.50789 0
M  V30 11783 H 1123.33 -2.55341 2.73407 0
M  V30 11784 H 1124.66 -3.37386 3.58373 0
M  V30 11785 N 1126.31 -1.30234 -0.887518 0
M  V30 11786 C 1127.56 -1.19086 -1.64153 0
M  V30 11787 C 1127.89 0.254428 -1.92526 0
M  V30 11788 O 1127.17 1.18233 -1.54438 0
M  V30 11789 C 1127.45 -2.01723 -2.98295 0
M  V30 11790 C 1127.3 -3.54458 -2.76911 0
M  V30 11791 C 1128.62 -1.85307 -3.99186 0
M  V30 11792 H 1125.74 -0.433967 -0.595686 0
M  V30 11793 H 1128.38 -1.59839 -1.0272 0
M  V30 11794 H 1126.53 -1.67096 -3.5073 0
M  V30 11795 H 1128.2 -3.99131 -2.31284 0
M  V30 11796 H 1126.45 -3.78768 -2.11464 0
M  V30 11797 H 1127.12 -4.07565 -3.72283 0
M  V30 11798 H 1129.59 -2.15575 -3.55903 0
M  V30 11799 H 1128.47 -2.45456 -4.90961 0
M  V30 11800 H 1128.73 -0.811528 -4.34588 0
M  V30 11801 N 1127.79 1.09952 -1.12909 0
M  V30 11802 C 1129.02 1.8579 -0.910483 0
M  V30 11803 C 1129.43 1.80898 0.540484 0
M  V30 11804 O 1128.79 1.20126 1.3739 0
M  V30 11805 C 1128.84 3.33987 -1.38329 0
M  V30 11806 O 1128.56 3.38811 -2.77739 0
M  V30 11807 C 1130.06 4.26683 -1.20234 0
M  V30 11808 H 1127.28 0.587026 -0.325025 0
M  V30 11809 H 1129.83 1.38965 -1.5003 0
M  V30 11810 H 1127.98 3.78259 -0.836592 0
M  V30 11811 H 1128.4 4.31204 -2.98603 0
M  V30 11812 H 1129.87 5.28846 -1.58197 0
M  V30 11813 H 1130.35 4.38966 -0.14344 0
M  V30 11814 H 1130.95 3.88221 -1.73679 0
M  V30 11815 N 1129.27 0.921757 1.27833 0
M  V30 11816 C 1130.52 0.557974 1.94245 0
M  V30 11817 C 1130.84 -0.90268 1.72849 0
M  V30 11818 O 1130.11 -1.63915 1.07279 0
M  V30 11819 H 1128.69 0.203364 0.718785 0
M  V30 11820 H 1131.35 1.17286 1.5566 0
M  V30 11821 H 1130.45 0.759202 3.02725 0
M  V30 11822 N 1130.75 -1.41857 0.686609 0
M  V30 11823 C 1131.98 -2.05401 0.222238 0
M  V30 11824 C 1132.38 -1.51731 -1.13023 0
M  V30 11825 O 1131.73 -0.656701 -1.71561 0
M  V30 11826 C 1131.79 -3.59381 0.0926608 0
M  V30 11827 C 1131.45 -4.35801 1.37573 0
M  V30 11828 C 1132.45 -4.65678 2.31171 0
M  V30 11829 C 1130.14 -4.75233 1.62661 0
M  V30 11830 C 1132.13 -5.33936 3.48125 0
M  V30 11831 C 1129.82 -5.43229 2.79902 0
M  V30 11832 C 1130.81 -5.72507 3.72458 0
M  V30 11833 O 1130.5 -6.39106 4.87646 0
M  V30 11834 H 1130.23 -0.668126 0.102876 0
M  V30 11835 H 1132.79 -1.82775 0.93714 0
M  V30 11836 H 1131.02 -3.80711 -0.67793 0
M  V30 11837 H 1132.71 -4.04529 -0.333364 0
M  V30 11838 H 1133.47 -4.35704 2.13042 0
M  V30 11839 H 1129.35 -4.51831 0.914862 0
M  V30 11840 H 1132.9 -5.56706 4.20386 0
M  V30 11841 H 1128.79 -5.72621 2.97951 0
M  V30 11842 H 1129.56 -6.576 4.87344 0
M  V30 11843 N 1132.22 -0.430739 -1.51599 0
M  V30 11844 C 1133.47 0.137929 -2.0203 0
M  V30 11845 C 1133.8 1.43287 -1.31526 0
M  V30 11846 O 1133.05 1.9121 -0.416814 0
M  V30 11847 C 1133.35 0.410694 -3.55032 0
M  V30 11848 C 1133.02 -0.797634 -4.43789 0
M  V30 11849 C 1131.68 -1.12902 -4.67768 0
M  V30 11850 C 1134.03 -1.60403 -4.95904 0
M  V30 11851 C 1131.36 -2.2676 -5.41107 0
M  V30 11852 C 1133.71 -2.73354 -5.70491 0
M  V30 11853 C 1132.38 -3.06955 -5.92735 0
M  V30 11854 H 1131.65 0.0504718 -0.739279 0
M  V30 11855 H 1134.29 -0.576585 -1.82614 0
M  V30 11856 H 1132.6 1.20703 -3.72744 0
M  V30 11857 H 1134.3 0.864006 -3.91581 0
M  V30 11858 H 1130.89 -0.529397 -4.25318 0
M  V30 11859 H 1135.07 -1.36122 -4.77268 0
M  V30 11860 H 1130.33 -2.53114 -5.56546 0
M  V30 11861 H 1134.5 -3.36213 -6.09864 0
M  V30 11862 H 1132.13 -3.95293 -6.49344 0
M  V30 11863 N 1133.7 1.56767 -0.161869 0
M  V30 11864 C 1135.11 1.83265 0.356466 0
M  V30 11865 C 1135.46 1.08127 1.63716 0
M  V30 11866 O 1134.59 0.33127 2.13849 0
M  V30 11867 C 1135.18 3.32437 0.653521 0
M  V30 11868 C 1133.74 3.59465 1.11633 0
M  V30 11869 C 1132.89 2.76909 0.147204 0
M  V30 11870 H 1135.84 1.53926 -0.386308 0
M  V30 11871 H 1135.86 3.49401 1.50662 0
M  V30 11872 H 1135.37 3.87098 -0.278766 0
M  V30 11873 H 1133.48 3.10206 2.06404 0
M  V30 11874 H 1133.59 4.67853 1.03202 0
M  V30 11875 H 1131.95 2.46457 0.642739 0
M  V30 11876 H 1132.74 3.34346 -0.778938 0
M  V30 11877 N 1135.18 -0.111886 1.57202 0
M  V30 11878 C 1136.11 -1.13796 2.03894 0
M  V30 11879 C 1137.09 -1.4277 0.924696 0
M  V30 11880 O 1138.28 -1.53089 1.19488 0
M  V30 11881 C 1135.41 -2.46229 2.44925 0
M  V30 11882 C 1134.36 -2.31702 3.59859 0
M  V30 11883 C 1133.69 -3.69161 3.86813 0
M  V30 11884 C 1134.99 -1.77158 4.91337 0
M  V30 11885 H 1136.68 -0.749581 2.89865 0
M  V30 11886 H 1134.23 -0.359126 1.3945 0
M  V30 11887 H 1136.18 -3.18267 2.76195 0
M  V30 11888 H 1134.9 -2.86971 1.55933 0
M  V30 11889 H 1133.56 -1.62112 3.28809 0
M  V30 11890 H 1133.21 -4.07401 2.95015 0
M  V30 11891 H 1132.91 -3.60292 4.6418 0
M  V30 11892 H 1134.43 -4.42693 4.20542 0
M  V30 11893 H 1135.85 -2.3902 5.21097 0
M  V30 11894 H 1134.25 -1.79091 5.72753 0
M  V30 11895 H 1135.32 -0.729675 4.79379 0
M  V30 11896 N 1136.66 -1.52894 -0.382264 0
M  V30 11897 C 1137.91 -1.67933 -1.1244 0
M  V30 11898 C 1138.23 -0.425166 -1.90309 0
M  V30 11899 O 1137.5 0.560557 -1.87709 0
M  V30 11900 H 1136.08 -0.619047 -0.418079 0
M  V30 11901 H 1138.74 -1.90031 -0.432928 0
M  V30 11902 H 1137.84 -2.53285 -1.82355 0
M  V30 11903 N 1138.14 0.641106 -1.43971 0
M  V30 11904 C 1139.37 1.42829 -1.49692 0
M  V30 11905 C 1139.78 1.88427 -0.118594 0
M  V30 11906 O 1139.14 1.60234 0.873581 0
M  V30 11907 C 1139.19 2.65524 -2.45314 0
M  V30 11908 O 1138.91 2.2183 -3.77787 0
M  V30 11909 C 1140.41 3.58758 -2.60399 0
M  V30 11910 H 1137.63 0.438367 -0.508011 0
M  V30 11911 H 1140.17 0.784933 -1.88836 0
M  V30 11912 H 1138.33 3.25973 -2.09332 0
M  V30 11913 H 1138.74 3.01303 -4.29321 0
M  V30 11914 H 1140.22 4.41483 -3.31357 0
M  V30 11915 H 1140.69 4.06909 -1.65294 0
M  V30 11916 H 1141.3 3.04184 -2.97241 0
M  V30 11917 N 1139.62 1.30703 0.880598 0
M  V30 11918 C 1140.86 1.20965 1.63521 0
M  V30 11919 C 1141.22 -0.232404 1.90991 0
M  V30 11920 O 1140.51 -1.16272 1.52287 0
M  V30 11921 C 1140.7 1.97628 2.97789 0
M  V30 11922 C 1140.53 3.49141 2.83427 0
M  V30 11923 C 1139.3 4.18496 2.83177 0
M  V30 11924 C 1141.5 4.44291 2.59056 0
M  V30 11925 N 1139.48 5.56239 2.59752 0
M  V30 11926 C 1140.85 5.69627 2.44795 0
M  V30 11927 C 1142.91 4.33837 2.44316 0
M  V30 11928 C 1141.61 6.85694 2.17293 0
M  V30 11929 C 1143.64 5.49675 2.182 0
M  V30 11930 C 1143 6.73995 2.04719 0
M  V30 11931 H 1139.1 0.497719 0.603158 0
M  V30 11932 H 1141.68 1.64765 1.03733 0
M  V30 11933 H 1139.85 1.56212 3.55601 0
M  V30 11934 H 1141.59 1.79996 3.62468 0
M  V30 11935 H 1138.34 3.70368 2.95168 0
M  V30 11936 H 1138.76 6.28735 2.5104 0
M  V30 11937 H 1143.41 3.38396 2.53471 0
M  V30 11938 H 1141.12 7.81171 2.06875 0
M  V30 11939 H 1144.71 5.43497 2.0761 0
M  V30 11940 H 1143.59 7.62116 1.84794 0
M  V30 11941 N 1141.09 -1.09351 1.1349 0
M  V30 11942 C 1142.32 -1.85036 0.918989 0
M  V30 11943 C 1142.73 -1.8146 -0.535638 0
M  V30 11944 O 1142.07 -1.20958 -1.38256 0
M  V30 11945 C 1142.14 -3.33992 1.33001 0
M  V30 11946 C 1141.8 -3.61315 2.79822 0
M  V30 11947 C 1142.8 -3.56973 3.77976 0
M  V30 11948 C 1140.48 -3.89636 3.17001 0
M  V30 11949 C 1142.48 -3.80564 5.11321 0
M  V30 11950 C 1140.16 -4.12882 4.50524 0
M  V30 11951 C 1141.16 -4.08338 5.47494 0
M  V30 11952 O 1140.85 -4.30983 6.78608 0
M  V30 11953 H 1140.58 -0.591301 0.327627 0
M  V30 11954 H 1143.14 -1.39078 1.5115 0
M  V30 11955 H 1141.37 -3.8066 0.68077 0
M  V30 11956 H 1143.05 -3.9109 1.08645 0
M  V30 11957 H 1143.82 -3.3512 3.50599 0
M  V30 11958 H 1139.7 -3.92297 2.42124 0
M  V30 11959 H 1143.24 -3.76933 5.86998 0
M  V30 11960 H 1139.14 -4.34216 4.77626 0
M  V30 11961 H 1139.91 -4.4844 6.84722 0
M  V30 11962 N 1142.57 -0.928524 -1.27343 0
M  V30 11963 C 1143.85 -0.487758 -1.89421 0
M  V30 11964 C 1144.23 1.03418 -1.84032 0
M  V30 11965 O 1143.58 1.8887 -1.2861 0
M  V30 11966 C 1143.79 -1.03478 -3.33307 0
M  V30 11967 C 1145.13 -1.09577 -4.10217 0
M  V30 11968 O 1146.16 -0.984463 -3.42326 0
M  V30 11969 O 1145.02 -1.2673 -5.31603 0
M  V30 11970 H 1142.11 -0.157018 -0.811957 0
M  V30 11971 H 1144.66 -1.02027 -1.35605 0
M  V30 11972 H 1143.43 -2.07861 -3.31526 0
M  V30 11973 H 1143.05 -0.483967 -3.94644 0
M  V30 11974 N 1144.05 1.41491 -0.694123 0
M  V30 11975 C 1144.98 2.33462 -0.0422169 0
M  V30 11976 C 1145.96 1.51739 0.76872 0
M  V30 11977 O 1147.15 1.8028 0.721985 0
M  V30 11978 C 1144.28 3.35545 0.895925 0
M  V30 11979 C 1143.23 4.27568 0.192188 0
M  V30 11980 C 1142.56 5.20014 1.24459 0
M  V30 11981 C 1143.86 5.1376 -0.940626 0
M  V30 11982 H 1145.55 2.88225 -0.810363 0
M  V30 11983 H 1143.1 1.38586 -0.39114 0
M  V30 11984 H 1145.05 3.9881 1.36121 0
M  V30 11985 H 1143.77 2.79129 1.69572 0
M  V30 11986 H 1142.43 3.65726 -0.25305 0
M  V30 11987 H 1142.08 4.59913 2.03687 0
M  V30 11988 H 1141.78 5.82417 0.778734 0
M  V30 11989 H 1143.3 5.86155 1.71041 0
M  V30 11990 H 1144.72 5.70601 -0.555692 0
M  V30 11991 H 1143.11 5.85097 -1.33349 0
M  V30 11992 H 1144.18 4.51011 -1.78093 0
M  V30 11993 N 1145.53 0.438773 1.51369 0
M  V30 11994 C 1146.46 -0.407771 2.25543 0
M  V30 11995 C 1147.47 -0.985065 1.29616 0
M  V30 11996 O 1148.66 -0.878961 1.55359 0
M  V30 11997 C 1145.76 -1.58257 2.9968 0
M  V30 11998 C 1144.93 -1.12389 4.22714 0
M  V30 11999 C 1143.99 -2.16897 4.79418 0
M  V30 12000 O 1143.02 -1.76273 5.41218 0
M  V30 12001 N 1144.22 -3.49396 4.63576 0
M  V30 12002 H 1146.99 0.227963 2.98832 0
M  V30 12003 H 1144.55 0.267741 1.59671 0
M  V30 12004 H 1146.54 -2.27796 3.34501 0
M  V30 12005 H 1145.11 -2.12362 2.29393 0
M  V30 12006 H 1144.33 -0.255509 3.93371 0
M  V30 12007 H 1145.62 -0.794848 5.02553 0
M  V30 12008 H 1145.02 -3.85132 4.14355 0
M  V30 12009 H 1143.57 -4.14826 5.02755 0
M  V30 12010 N 1147.01 -1.56678 0.170181 0
M  V30 12011 C 1148.23 -2.01223 -0.481362 0
M  V30 12012 C 1148.65 -1.05039 -1.56883 0
M  V30 12013 O 1148.01 -0.0510751 -1.82429 0
M  V30 12014 C 1148.06 -3.45588 -1.06073 0
M  V30 12015 O 1147.78 -4.38097 -0.0166754 0
M  V30 12016 C 1149.28 -4.05527 -1.79061 0
M  V30 12017 H 1146.5 -0.659574 -0.1233 0
M  V30 12018 H 1149.04 -2.02689 0.271576 0
M  V30 12019 H 1147.2 -3.449 -1.76417 0
M  V30 12020 H 1147.61 -5.22615 -0.444276 0
M  V30 12021 H 1149.09 -5.08467 -2.1486 0
M  V30 12022 H 1149.56 -3.47554 -2.68519 0
M  V30 12023 H 1150.17 -4.09914 -1.13361 0
M  V30 12024 N 1148.48 0.103547 -1.57259 0
M  V30 12025 C 1149.73 0.809774 -1.85931 0
M  V30 12026 C 1150.06 1.78791 -0.758122 0
M  V30 12027 O 1149.34 1.93079 0.234682 0
M  V30 12028 C 1149.62 1.54601 -3.25224 0
M  V30 12029 C 1149.47 0.586439 -4.45961 0
M  V30 12030 C 1150.79 2.4986 -3.62296 0
M  V30 12031 H 1147.91 0.29293 -0.676285 0
M  V30 12032 H 1150.55 0.0736065 -1.89857 0
M  V30 12033 H 1148.7 2.17355 -3.22008 0
M  V30 12034 H 1150.38 -0.0334441 -4.61288 0
M  V30 12035 H 1148.62 -0.10085 -4.33683 0
M  V30 12036 H 1149.29 1.13855 -5.40131 0
M  V30 12037 H 1151.77 1.97203 -3.66402 0
M  V30 12038 H 1150.64 2.98396 -4.60707 0
M  V30 12039 H 1150.9 3.33233 -2.90531 0
M  V30 12040 N 1149.96 1.53094 0.37415 0
M  V30 12041 C 1151.37 1.60641 0.951381 0
M  V30 12042 C 1151.72 0.468474 1.90525 0
M  V30 12043 O 1150.85 -0.406347 2.12551 0
M  V30 12044 C 1151.44 2.91166 1.73228 0
M  V30 12045 C 1150 3.01077 2.25898 0
M  V30 12046 C 1149.15 2.55873 1.06885 0
M  V30 12047 H 1152.1 1.57959 0.153214 0
M  V30 12048 H 1152.12 2.78487 2.59278 0
M  V30 12049 H 1151.63 3.73968 1.03778 0
M  V30 12050 H 1149.73 2.22844 2.98615 0
M  V30 12051 H 1149.85 4.05998 2.54367 0
M  V30 12052 H 1148.21 2.10544 1.43329 0
M  V30 12053 H 1148.99 3.41084 0.38947 0
M  V30 12054 N 1151.44 -0.633461 1.44309 0
M  V30 12055 C 1152.69 -1.39513 1.47187 0
M  V30 12056 C 1153.02 -1.93926 0.103186 0
M  V30 12057 O 1152.29 -1.73512 -0.878853 0
M  V30 12058 C 1152.58 -2.56213 2.53036 0
M  V30 12059 C 1152.43 -2.07164 3.99253 0
M  V30 12060 C 1153.75 -3.58403 2.55412 0
M  V30 12061 H 1150.87 -0.505936 0.535908 0
M  V30 12062 H 1153.51 -0.716445 1.75975 0
M  V30 12063 H 1151.66 -3.14111 2.28619 0
M  V30 12064 H 1153.33 -1.54115 4.34795 0
M  V30 12065 H 1151.57 -1.38367 4.11141 0
M  V30 12066 H 1152.25 -2.91172 4.6896 0
M  V30 12067 H 1154.72 -3.103 2.77224 0
M  V30 12068 H 1153.6 -4.37581 3.31382 0
M  V30 12069 H 1153.86 -4.12316 1.59523 0
M  V30 12070 N 1152.92 -1.31168 -0.873655 0
M  V30 12071 C 1153.83 -1.20458 -2.01313 0
M  V30 12072 C 1154.84 -0.122074 -1.73571 0
M  V30 12073 O 1156.02 -0.339176 -1.98523 0
M  V30 12074 C 1153.09 -0.90876 -3.34578 0
M  V30 12075 C 1152.15 -2.07779 -3.75668 0
M  V30 12076 C 1151.38 -1.79599 -5.02573 0
M  V30 12077 O 1151.6 -0.729338 -5.65718 0
M  V30 12078 O 1150.54 -2.65169 -5.40341 0
M  V30 12079 H 1154.36 -2.16207 -2.13279 0
M  V30 12080 H 1151.95 -1.10871 -1.00139 0
M  V30 12081 H 1153.83 -0.759469 -4.145 0
M  V30 12082 H 1152.5 0.0187249 -3.23695 0
M  V30 12083 H 1151.41 -2.28247 -2.96402 0
M  V30 12084 H 1152.74 -2.9874 -3.91172 0
M  V30 12085 N 1154.4 1.08748 -1.14068 0
M  V30 12086 C 1155.36 2.1375 -0.827266 0
M  V30 12087 C 1156.36 1.59936 0.166496 0
M  V30 12088 O 1157.55 1.74092 -0.0614305 0
M  V30 12089 C 1154.68 3.40106 -0.232557 0
M  V30 12090 H 1155.87 2.42985 -1.7578 0
M  V30 12091 H 1153.43 1.24402 -0.946244 0
M  V30 12092 H 1154.16 3.16503 0.706859 0
M  V30 12093 H 1153.95 3.8046 -0.948293 0
M  V30 12094 H 1155.44 4.17589 -0.0303662 0
M  V30 12095 N 1155.87 0.935264 1.26849 0
M  V30 12096 C 1156.8 0.457776 2.28969 0
M  V30 12097 C 1157.79 -0.48587 1.63013 0
M  V30 12098 O 1158.97 -0.388998 1.90264 0
M  V30 12099 C 1156.1 -0.283332 3.46142 0
M  V30 12100 C 1155.05 0.573196 4.24144 0
M  V30 12101 C 1154.38 -0.297525 5.33872 0
M  V30 12102 C 1155.68 1.84153 4.88759 0
M  V30 12103 H 1157.37 1.31125 2.69159 0
M  V30 12104 H 1154.92 0.631956 1.29392 0
M  V30 12105 H 1156.87 -0.628366 4.16689 0
M  V30 12106 H 1155.6 -1.1709 3.04889 0
M  V30 12107 H 1154.26 0.901043 3.55354 0
M  V30 12108 H 1153.9 -1.18427 4.8886 0
M  V30 12109 H 1153.6 0.272126 5.8697 0
M  V30 12110 H 1155.13 -0.637961 6.07258 0
M  V30 12111 H 1156.54 1.5641 5.51551 0
M  V30 12112 H 1154.94 2.35528 5.51948 0
M  V30 12113 H 1156.01 2.5565 4.12033 0
M  V30 12114 N 1157.35 -1.41121 0.701616 0
M  V30 12115 C 1158.6 -2.00733 0.234682 0
M  V30 12116 C 1158.92 -1.55869 -1.17174 0
M  V30 12117 O 1158.19 -0.791965 -1.79178 0
M  V30 12118 H 1156.77 -0.742288 0.0837745 0
M  V30 12119 H 1159.43 -1.7266 0.904127 0
M  V30 12120 H 1158.53 -3.11041 0.256831 0
M  V30 12121 N 1158.83 -0.446794 -1.51134 0
M  V30 12122 C 1160.06 0.117242 -2.07068 0
M  V30 12123 C 1160.48 1.34877 -1.3111 0
M  V30 12124 O 1159.84 1.77856 -0.35172 0
M  V30 12125 C 1159.89 0.408616 -3.58277 0
M  V30 12126 O 1158.99 1.49345 -3.84408 0
M  V30 12127 H 1158.33 -0.00228458 -0.663996 0
M  V30 12128 H 1160.86 -0.63085 -1.94632 0
M  V30 12129 H 1160.87 0.656298 -4.02687 0
M  V30 12130 H 1159.55 -0.491444 -4.12986 0
M  V30 12131 H 1158.12 1.23499 -3.51856 0
M  V30 12132 N 1160.31 1.56586 -0.178487 0
M  V30 12133 C 1161.24 2.21313 0.744486 0
M  V30 12134 C 1162.22 1.17098 1.23377 0
M  V30 12135 O 1163.4 1.45551 1.28563 0
M  V30 12136 C 1160.53 2.8595 1.97103 0
M  V30 12137 C 1159.49 3.96266 1.61732 0
M  V30 12138 C 1158.81 4.47987 2.91911 0
M  V30 12139 C 1160.11 5.15503 0.839868 0
M  V30 12140 H 1161.81 2.98698 0.204938 0
M  V30 12141 H 1159.35 1.43672 0.0971306 0
M  V30 12142 H 1161.31 3.29909 2.6218 0
M  V30 12143 H 1160.03 2.05946 2.53484 0
M  V30 12144 H 1158.69 3.52974 0.990208 0
M  V30 12145 H 1158.34 3.64765 3.46346 0
M  V30 12146 H 1158.04 5.22413 2.68995 0
M  V30 12147 H 1159.56 4.94637 3.58004 0
M  V30 12148 H 1160.98 5.5611 1.39337 0
M  V30 12149 H 1159.37 5.95891 0.709473 0
M  V30 12150 H 1160.44 4.84628 -0.162396 0
M  V30 12151 N 1161.79 -0.095206 1.57312 0
M  V30 12152 C 1163.2 -0.649733 1.7503 0
M  V30 12153 C 1163.55 -1.7912 0.800652 0
M  V30 12154 O 1162.67 -2.1639 -0.0208831 0
M  V30 12155 C 1163.27 -1.18541 3.17386 0
M  V30 12156 C 1161.83 -1.686 3.36528 0
M  V30 12157 C 1160.97 -0.595531 2.7083 0
M  V30 12158 H 1163.93 0.130863 1.5816 0
M  V30 12159 H 1163.95 -2.05473 3.20252 0
M  V30 12160 H 1163.46 -0.35441 3.86478 0
M  V30 12161 H 1161.56 -2.541 2.72514 0
M  V30 12162 H 1161.67 -1.77907 4.44844 0
M  V30 12163 H 1160.04 -1.03495 2.32725 0
M  V30 12164 H 1160.82 0.224883 3.42563 0
M  V30 12165 N 1163.26 -1.53291 -0.366026 0
M  V30 12166 C 1164.68 -1.61144 -0.942849 0
M  V30 12167 C 1165.03 -0.478571 -1.90274 0
M  V30 12168 O 1164.15 0.395069 -2.12763 0
M  V30 12169 C 1164.75 -2.92081 -1.71681 0
M  V30 12170 C 1163.31 -3.0227 -2.24298 0
M  V30 12171 C 1162.45 -2.56436 -1.05526 0
M  V30 12172 H 1165.4 -1.58038 -0.144835 0
M  V30 12173 H 1165.42 -2.79858 -2.57798 0
M  V30 12174 H 1164.94 -3.74513 -1.01793 0
M  V30 12175 H 1163.04 -2.24425 -2.97429 0
M  V30 12176 H 1163.15 -4.07341 -2.5221 0
M  V30 12177 H 1161.51 -2.11301 -1.42211 0
M  V30 12178 H 1162.3 -3.41285 -0.371376 0
M  V30 12179 N 1164.74 0.6258 -1.44643 0
M  V30 12180 C 1166.15 1.20751 -1.42394 0
M  V30 12181 C 1166.5 1.95685 -0.142047 0
M  V30 12182 O 1165.63 2.02715 0.757332 0
M  V30 12183 C 1166.22 2.1964 -2.57961 0
M  V30 12184 C 1164.78 2.73227 -2.5889 0
M  V30 12185 C 1163.93 1.48315 -2.34303 0
M  V30 12186 H 1166.88 0.416162 -1.53146 0
M  V30 12187 H 1166.9 3.02342 -2.31019 0
M  V30 12188 H 1166.41 1.65073 -3.51244 0
M  V30 12189 H 1164.52 3.31782 -1.69563 0
M  V30 12190 H 1164.63 3.18902 -3.57545 0
M  V30 12191 H 1162.99 1.76634 -1.83501 0
M  V30 12192 H 1163.78 0.956427 -3.29708 0
M  V30 12193 N 1166.22 1.31629 0.866686 0
M  V30 12194 C 1167.63 1.19347 1.43573 0
M  V30 12195 C 1167.98 -0.198765 1.95191 0
M  V30 12196 O 1167.11 -1.09674 1.86549 0
M  V30 12197 C 1167.7 2.16055 2.6097 0
M  V30 12198 C 1166.26 2.07697 3.13909 0
M  V30 12199 C 1165.41 2.05099 1.86627 0
M  V30 12200 H 1168.36 1.43633 0.674929 0
M  V30 12201 H 1168.38 1.75207 3.37761 0
M  V30 12202 H 1167.89 3.17375 2.23371 0
M  V30 12203 H 1165.99 1.09583 3.56121 0
M  V30 12204 H 1166.11 2.96958 3.75969 0
M  V30 12205 H 1164.47 1.50162 2.05727 0
M  V30 12206 H 1165.25 3.0818 1.51261 0
M  V30 12207 N 1167.7 -1.08142 1.14644 0
M  V30 12208 C 1168.66 -2.13308 0.83859 0
M  V30 12209 C 1169.66 -1.60022 -0.158012 0
M  V30 12210 O 1170.85 -1.74057 0.0706621 0
M  V30 12211 C 1167.98 -3.39978 0.250591 0
M  V30 12212 H 1169.18 -2.42049 1.77066 0
M  V30 12213 H 1166.73 -1.23899 0.952828 0
M  V30 12214 H 1167.47 -3.16873 -0.690064 0
M  V30 12215 H 1167.25 -3.79952 0.968456 0
M  V30 12216 H 1168.74 -4.17567 0.0525115 0
M  V30 12217 N 1169.18 -0.941978 -1.26351 0
M  V30 12218 C 1170.14 -0.456768 -2.24602 0
M  V30 12219 C 1171.14 0.432574 -1.54872 0
M  V30 12220 O 1172.33 0.23164 -1.72653 0
M  V30 12221 C 1169.46 0.341583 -3.39184 0
M  V30 12222 H 1170.66 -1.32503 -2.69041 0
M  V30 12223 H 1168.21 -0.724021 -1.38519 0
M  V30 12224 H 1168.94 1.22806 -3.00149 0
M  V30 12225 H 1168.73 -0.296268 -3.90979 0
M  V30 12226 H 1170.22 0.670955 -4.12175 0
M  V30 12227 N 1170.66 1.40747 -0.709091 0
M  V30 12228 C 1172.07 1.83955 -0.318968 0
M  V30 12229 C 1172.42 1.59304 1.14527 0
M  V30 12230 O 1171.54 1.07052 1.88066 0
M  V30 12231 C 1172.14 3.33934 -0.572147 0
M  V30 12232 C 1170.7 3.75661 -0.235802 0
M  V30 12233 C 1169.84 2.64024 -0.847743 0
M  V30 12234 H 1172.79 1.30107 -0.908734 0
M  V30 12235 H 1172.82 3.80143 0.164752 0
M  V30 12236 H 1172.33 3.51844 -1.63791 0
M  V30 12237 H 1170.43 3.63348 0.825164 0
M  V30 12238 H 1170.54 4.73955 -0.700263 0
M  V30 12239 H 1168.91 2.53197 -0.276283 0
M  V30 12240 H 1169.69 2.84748 -1.91765 0
M  V30 12241 N 1172.13 0.454803 1.50895 0
M  V30 12242 C 1173.55 0.108037 1.59234 0
M  V30 12243 C 1173.75 -1.38416 1.46435 0
M  V30 12244 O 1172.81 -2.15586 1.31449 0
M  V30 12245 C 1174.12 0.643721 2.93729 0
M  V30 12246 C 1175.67 0.605703 3.07083 0
M  V30 12247 C 1176.14 1.11865 4.44128 0
M  V30 12248 N 1177.63 1.07738 4.50496 0
M  V30 12249 C 1178.37 1.44495 5.54895 0
M  V30 12250 N 1177.86 1.88624 6.66628 0
M  V30 12251 N 1179.66 1.36201 5.45349 0
M  V30 12252 H 1171.81 1.4255 1.57459 0
M  V30 12253 H 1174.07 0.588504 0.743214 0
M  V30 12254 H 1173.78 1.68844 3.0852 0
M  V30 12255 H 1173.65 0.0782404 3.77119 0
M  V30 12256 H 1176.04 -0.430065 2.91949 0
M  V30 12257 H 1176.12 1.2078 2.2549 0
M  V30 12258 H 1175.76 2.15297 4.6001 0
M  V30 12259 H 1175.69 0.492933 5.24288 0
M  V30 12260 H 1178.18 0.753526 3.70311 0
M  V30 12261 H 1178.5 2.14863 7.4233 0
M  V30 12262 H 1176.84 1.92564 6.6779 0
M  V30 12263 H 1180.03 1.01579 4.56946 0
M  V30 12264 H 1180.21 1.65175 6.26595 0
M  V30 12265 N 1173.61 -1.56489 0.186789 0
M  V30 12266 C 1174.52 -2.22304 -0.749543 0
M  V30 12267 C 1175.54 -1.21949 -1.24115 0
M  V30 12268 O 1176.71 -1.5466 -1.29005 0
M  V30 12269 C 1173.78 -2.863 -1.95533 0
M  V30 12270 C 1172.84 -4.01901 -1.5091 0
M  V30 12271 C 1172.07 -4.62837 -2.6574 0
M  V30 12272 O 1172.3 -4.22681 -3.8301 0
M  V30 12273 O 1171.23 -5.52446 -2.38929 0
M  V30 12274 H 1175.06 -3.02909 -0.21908 0
M  V30 12275 H 1172.64 -1.49341 -0.0421249 0
M  V30 12276 H 1174.52 -3.2682 -2.6602 0
M  V30 12277 H 1173.2 -2.08681 -2.47455 0
M  V30 12278 H 1172.1 -3.66021 -0.773261 0
M  V30 12279 H 1173.44 -4.8116 -1.03663 0
M  V30 12280 N 1175.09 0.086862 -1.5736 0
M  V30 12281 C 1176.5 0.640442 -1.75372 0
M  V30 12282 C 1176.85 1.78693 -0.81014 0
M  V30 12283 O 1175.98 2.16398 0.00940712 0
M  V30 12284 C 1176.57 1.16856 -3.1801 0
M  V30 12285 C 1175.13 1.66813 -3.37417 0
M  V30 12286 C 1174.28 0.58116 -2.71142 0
M  V30 12287 H 1177.23 -0.139249 -1.58088 0
M  V30 12288 H 1177.25 2.03772 -3.21337 0
M  V30 12289 H 1176.76 0.333909 -3.86661 0
M  V30 12290 H 1174.86 2.52652 -2.73858 0
M  V30 12291 H 1174.98 1.75545 -4.45781 0
M  V30 12292 H 1173.34 1.0226 -2.3327 0
M  V30 12293 H 1174.12 -0.243047 -3.42439 0
M  V30 12294 N 1176.57 1.53483 0.357892 0
M  V30 12295 C 1177.53 1.79782 1.42166 0
M  V30 12296 C 1178.53 0.668441 1.46248 0
M  V30 12297 O 1179.72 0.936677 1.46874 0
M  V30 12298 C 1176.85 1.92686 2.8122 0
M  V30 12299 H 1178.05 2.74794 1.20117 0
M  V30 12300 H 1175.6 1.44677 0.591468 0
M  V30 12301 H 1176.33 0.997669 3.08573 0
M  V30 12302 H 1176.12 2.74837 2.79655 0
M  V30 12303 H 1177.61 2.14599 3.58242 0
M  V30 12304 N 1178.05 -0.61812 1.44973 0
M  V30 12305 C 1179.29 -1.37343 1.47715 0
M  V30 12306 C 1179.61 -1.95239 0.118784 0
M  V30 12307 O 1180.81 -2.7149 0.0237981 0
M  V30 12308 C 1179.27 -2.48732 2.60116 0
M  V30 12309 C 1178.88 -1.97294 4.02218 0
M  V30 12310 C 1180.62 -3.25831 2.72093 0
M  V30 12311 C 1178.53 -3.06102 5.06019 0
M  V30 12312 H 1177.46 -0.516175 0.549617 0
M  V30 12313 H 1180.11 -0.663617 1.7108 0
M  V30 12314 H 1178.49 -3.2235 2.30014 0
M  V30 12315 H 1179.67 -1.30455 4.41948 0
M  V30 12316 H 1177.98 -1.32972 3.94598 0
M  V30 12317 H 1180.58 -4.06968 3.46815 0
M  V30 12318 H 1180.92 -3.76156 1.7836 0
M  V30 12319 H 1181.45 -2.59309 3.01668 0
M  V30 12320 H 1178.19 -2.60706 6.01426 0
M  V30 12321 H 1177.71 -3.71541 4.70869 0
M  V30 12322 H 1179.39 -3.70662 5.30301 0
M  V30 12323 N 1179.52 -1.32087 -0.859693 0
M  V30 12324 C 1180.47 -1.17188 -1.95578 0
M  V30 12325 C 1181.46 -0.0801302 -1.607 0
M  V30 12326 O 1182.65 -0.306118 -1.74333 0
M  V30 12327 C 1179.78 -0.891916 -3.31511 0
M  V30 12328 C 1178.86 -2.02513 -3.72625 0
M  V30 12329 N 1179.26 -3.27321 -3.85609 0
M  V30 12330 C 1177.55 -1.92717 -4.02214 0
M  V30 12331 C 1178.25 -4.01513 -4.20906 0
M  V30 12332 N 1177.23 -3.29767 -4.32151 0
M  V30 12333 H 1181.03 -2.11816 -2.03743 0
M  V30 12334 H 1178.55 -1.23794 -1.05114 0
M  V30 12335 H 1180.54 -0.766143 -4.098 0
M  V30 12336 H 1179.2 0.0460349 -3.24667 0
M  V30 12337 H 1180.21 -3.62317 -3.70063 0
M  V30 12338 H 1176.89 -1.06452 -4.03701 0
M  V30 12339 H 1178.28 -5.09116 -4.38463 0
M  V30 12340 N 1181 1.07532 -1.15215 0
M  V30 12341 C 1182.23 1.84356 -0.950139 0
M  V30 12342 C 1182.65 1.81429 0.496502 0
M  V30 12343 O 1182.01 1.20589 1.35381 0
M  V30 12344 C 1182.06 3.29425 -1.46669 0
M  V30 12345 O 1181.16 4.07008 -0.664674 0
M  V30 12346 H 1180.5 0.570921 -0.339036 0
M  V30 12347 H 1183.03 1.35665 -1.53154 0
M  V30 12348 H 1183.04 3.8026 -1.47873 0
M  V30 12349 H 1181.72 3.3087 -2.51988 0
M  V30 12350 H 1180.29 3.65841 -0.72211 0
M  V30 12351 N 1182.48 0.948665 1.2585 0
M  V30 12352 C 1183.39 0.470525 2.29833 0
M  V30 12353 C 1184.41 -0.45919 1.67832 0
M  V30 12354 O 1185.58 -0.336893 1.98562 0
M  V30 12355 C 1182.65 -0.249635 3.458 0
M  V30 12356 C 1181.71 0.717559 4.23261 0
M  V30 12357 C 1180.94 0.0316724 5.33691 0
M  V30 12358 O 1181.16 -1.18384 5.5798 0
M  V30 12359 O 1180.1 0.71418 5.97648 0
M  V30 12360 H 1183.92 1.33447 2.72811 0
M  V30 12361 H 1181.51 0.714864 1.31187 0
M  V30 12362 H 1183.39 -0.654993 4.16279 0
M  V30 12363 H 1182.07 -1.08885 3.04837 0
M  V30 12364 H 1180.97 1.17301 3.55234 0
M  V30 12365 H 1182.31 1.52461 4.67992 0
M  V30 12366 N 1183.96 -1.40369 0.716545 0
M  V30 12367 C 1185.21 -2.00473 0.255959 0
M  V30 12368 C 1185.53 -1.57104 -1.15514 0
M  V30 12369 O 1184.8 -0.810925 -1.78328 0
M  V30 12370 H 1183.38 -0.741357 0.0916427 0
M  V30 12371 H 1186.04 -1.71692 0.922389 0
M  V30 12372 H 1185.14 -3.10752 0.289806 0
M  V30 12373 N 1185.44 -0.462799 -1.50652 0
M  V30 12374 C 1186.37 0.371837 -2.26164 0
M  V30 12375 C 1187.38 0.96432 -1.31167 0
M  V30 12376 O 1188.57 0.854134 -1.56738 0
M  V30 12377 C 1185.67 1.53469 -3.0216 0
M  V30 12378 C 1184.84 1.0565 -4.24449 0
M  V30 12379 C 1183.9 2.09243 -4.82808 0
M  V30 12380 O 1182.93 1.67641 -5.43953 0
M  V30 12381 N 1184.13 3.41976 -4.69076 0
M  V30 12382 H 1186.9 -0.275476 -2.98431 0
M  V30 12383 H 1184.46 -0.293109 -1.59225 0
M  V30 12384 H 1186.45 2.22446 -3.38083 0
M  V30 12385 H 1185.02 2.08685 -2.32743 0
M  V30 12386 H 1184.24 0.192895 -3.93728 0
M  V30 12387 H 1185.53 0.714796 -5.03754 0
M  V30 12388 H 1184.92 3.78491 -4.20429 0
M  V30 12389 H 1183.48 4.06775 -5.09291 0
M  V30 12390 N 1186.91 1.56388 -0.195085 0
M  V30 12391 C 1188.16 1.98634 0.437717 0
M  V30 12392 C 1188.52 1.07985 1.59239 0
M  V30 12393 O 1187.81 0.124261 1.91197 0
M  V30 12394 C 1188 3.44651 0.946051 0
M  V30 12395 C 1187.83 4.49423 -0.157828 0
M  V30 12396 C 1186.6 5.01538 -0.615457 0
M  V30 12397 C 1188.8 5.05132 -0.966773 0
M  V30 12398 N 1186.78 5.89974 -1.69716 0
M  V30 12399 C 1188.15 5.90238 -1.89788 0
M  V30 12400 C 1190.21 4.87565 -1.00919 0
M  V30 12401 C 1188.91 6.59655 -2.86788 0
M  V30 12402 C 1190.94 5.57722 -1.96724 0
M  V30 12403 C 1190.3 6.42574 -2.88579 0
M  V30 12404 H 1186.4 0.77152 0.127594 0
M  V30 12405 H 1188.98 1.92363 -0.300777 0
M  V30 12406 H 1187.15 3.51423 1.65399 0
M  V30 12407 H 1188.88 3.73863 1.54946 0
M  V30 12408 H 1185.64 4.73139 -0.208806 0
M  V30 12409 H 1186.06 6.38896 -2.23921 0
M  V30 12410 H 1190.71 4.2164 -0.313023 0
M  V30 12411 H 1188.42 7.24779 -3.57381 0
M  V30 12412 H 1192.01 5.46106 -2.00647 0
M  V30 12413 H 1190.89 6.95906 -3.61503 0
M  V30 12414 N 1188.39 -0.0785156 1.57404 0
M  V30 12415 C 1189.64 -0.780092 1.87196 0
M  V30 12416 C 1189.97 -1.77562 0.78647 0
M  V30 12417 O 1189.25 -1.93428 -0.203935 0
M  V30 12418 C 1189.53 -1.49408 3.27642 0
M  V30 12419 C 1189.38 -0.515416 4.46837 0
M  V30 12420 C 1190.7 -2.44064 3.66225 0
M  V30 12421 H 1187.82 -0.282134 0.680859 0
M  V30 12422 H 1190.46 -0.0433926 1.8995 0
M  V30 12423 H 1188.61 -2.12205 3.25425 0
M  V30 12424 H 1190.28 0.106827 4.61176 0
M  V30 12425 H 1188.53 0.169832 4.33467 0
M  V30 12426 H 1189.2 -1.05247 5.41874 0
M  V30 12427 H 1191.67 -1.91349 3.69493 0
M  V30 12428 H 1190.55 -2.91029 4.65396 0
M  V30 12429 H 1190.81 -3.28569 2.95796 0
M  V30 12430 N 1189.87 -1.5367 -0.349747 0
M  V30 12431 C 1191.1 -1.74547 -1.11089 0
M  V30 12432 C 1191.51 -0.481741 -1.82551 0
M  V30 12433 O 1190.87 0.546272 -1.74132 0
M  V30 12434 C 1190.92 -2.92148 -2.12913 0
M  V30 12435 O 1190.64 -4.13633 -1.44358 0
M  V30 12436 C 1192.14 -3.25027 -3.01451 0
M  V30 12437 H 1189.36 -0.583376 -0.331532 0
M  V30 12438 H 1191.91 -2.00473 -0.403841 0
M  V30 12439 H 1190.06 -2.68572 -2.79192 0
M  V30 12440 H 1190.48 -4.79601 -2.12329 0
M  V30 12441 H 1191.95 -4.10679 -3.68845 0
M  V30 12442 H 1192.43 -2.41064 -3.67131 0
M  V30 12443 H 1193.03 -3.50586 -2.40768 0
M  V30 12444 N 1191.35 0.610423 -1.45298 0
M  V30 12445 C 1192.28 1.73207 -1.56594 0
M  V30 12446 C 1193.26 1.64893 -0.417651 0
M  V30 12447 O 1194.44 1.83336 -0.64043 0
M  V30 12448 C 1191.57 3.11803 -1.52959 0
M  V30 12449 C 1190.53 3.34925 -2.66475 0
M  V30 12450 C 1189.85 4.73764 -2.47894 0
M  V30 12451 C 1191.15 3.25456 -4.08504 0
M  V30 12452 H 1192.85 1.6401 -2.50482 0
M  V30 12453 H 1190.39 0.787621 -1.20551 0
M  V30 12454 H 1192.35 3.90065 -1.59458 0
M  V30 12455 H 1191.07 3.21833 -0.55599 0
M  V30 12456 H 1189.73 2.59051 -2.59399 0
M  V30 12457 H 1189.38 4.80524 -1.4868 0
M  V30 12458 H 1189.08 4.90191 -3.24016 0
M  V30 12459 H 1190.6 5.54231 -2.56243 0
M  V30 12460 H 1192.02 3.93597 -4.16839 0
M  V30 12461 H 1190.41 3.53414 -4.84994 0
M  V30 12462 H 1191.48 2.22939 -4.30612 0
M  V30 12463 N 1192.83 1.32541 0.852676 0
M  V30 12464 C 1194.24 1.20863 1.42299 0
M  V30 12465 C 1194.59 -0.178051 1.9539 0
M  V30 12466 O 1193.71 -1.07689 1.87702 0
M  V30 12467 C 1194.31 2.18811 2.58664 0
M  V30 12468 C 1192.87 2.11015 3.11689 0
M  V30 12469 C 1192.01 2.07067 1.84441 0
M  V30 12470 H 1194.97 1.44341 0.659657 0
M  V30 12471 H 1194.99 1.78779 3.35884 0
M  V30 12472 H 1194.5 3.19726 2.19993 0
M  V30 12473 H 1192.6 1.13354 3.54939 0
M  V30 12474 H 1192.71 3.00929 3.72799 0
M  V30 12475 H 1191.08 1.52335 2.04123 0
M  V30 12476 H 1191.86 3.09767 1.47984 0
M  V30 12477 N 1194.3 -1.0692 1.15784 0
M  V30 12478 C 1195.27 -2.12407 0.861167 0
M  V30 12479 C 1196.27 -1.6018 -0.141031 0
M  V30 12480 O 1197.46 -1.73972 0.0891192 0
M  V30 12481 C 1194.59 -3.39693 0.286636 0
M  V30 12482 H 1195.78 -2.40157 1.79623 0
M  V30 12483 H 1193.34 -1.22881 0.965916 0
M  V30 12484 H 1194.07 -3.17587 -0.656417 0
M  V30 12485 H 1193.86 -3.78903 1.0087 0
M  V30 12486 H 1195.35 -4.17488 0.0967971 0
M  V30 12487 N 1195.78 -0.955326 -1.25345 0
M  V30 12488 C 1197.19 -0.651118 -1.74978 0
M  V30 12489 C 1197.54 0.833495 -1.77616 0
M  V30 12490 O 1196.67 1.65228 -1.39745 0
M  V30 12491 C 1197.26 -1.17521 -3.17764 0
M  V30 12492 C 1195.82 -0.921151 -3.64954 0
M  V30 12493 C 1194.97 -1.31784 -2.43984 0
M  V30 12494 H 1197.92 -1.13205 -1.11222 0
M  V30 12495 H 1197.94 -0.535625 -3.76711 0
M  V30 12496 H 1197.45 -2.25575 -3.15813 0
M  V30 12497 H 1195.56 0.144392 -3.7232 0
M  V30 12498 H 1195.67 -1.5581 -4.53056 0
M  V30 12499 H 1194.03 -0.736219 -2.43828 0
M  V30 12500 H 1194.82 -2.40761 -2.44723 0
M  V30 12501 N 1197.26 1.39987 -0.723979 0
M  V30 12502 C 1198.19 2.3332 -0.0917282 0
M  V30 12503 C 1199.17 1.53335 0.736361 0
M  V30 12504 O 1200.36 1.81771 0.683582 0
M  V30 12505 C 1197.49 3.3737 0.824549 0
M  V30 12506 C 1196.44 4.2788 0.101452 0
M  V30 12507 C 1195.77 5.22536 1.13401 0
M  V30 12508 C 1197.07 5.11649 -1.04939 0
M  V30 12509 H 1198.76 2.86441 -0.871318 0
M  V30 12510 H 1196.31 1.37725 -0.420448 0
M  V30 12511 H 1198.26 4.01607 1.27631 0
M  V30 12512 H 1196.98 2.82663 1.63613 0
M  V30 12513 H 1195.64 3.65107 -0.330569 0
M  V30 12514 H 1195.29 4.64131 1.93886 0
M  V30 12515 H 1194.99 5.83938 0.65502 0
M  V30 12516 H 1196.52 5.89651 1.58569 0
M  V30 12517 H 1197.93 5.69293 -0.6766 0
M  V30 12518 H 1196.33 5.82137 -1.45729 0
M  V30 12519 H 1197.4 4.47132 -1.8762 0
M  V30 12520 N 1198.74 0.470782 1.50404 0
M  V30 12521 C 1200.02 -0.145879 1.95055 0
M  V30 12522 C 1200.4 -1.57004 1.41114 0
M  V30 12523 O 1199.74 -2.20152 0.612006 0
M  V30 12524 C 1199.95 -0.0895071 3.48885 0
M  V30 12525 C 1201.3 -0.278548 4.23685 0
M  V30 12526 O 1202.33 -0.166105 3.55812 0
M  V30 12527 O 1201.19 -0.505606 5.44156 0
M  V30 12528 H 1198.28 -0.111838 0.819403 0
M  V30 12529 H 1200.83 0.531162 1.61173 0
M  V30 12530 H 1199.6 0.904836 3.80695 0
M  V30 12531 H 1199.22 -0.808019 3.89303 0
M  V30 12532 N 1200.22 -1.56282 0.203376 0
M  V30 12533 C 1201.45 -2.02198 -0.438572 0
M  V30 12534 C 1201.86 -1.08343 -1.54619 0
M  V30 12535 O 1201.22 -0.0897594 -1.82279 0
M  V30 12536 C 1201.27 -3.4776 -0.987184 0
M  V30 12537 O 1200.99 -4.38034 0.0762552 0
M  V30 12538 C 1202.49 -4.09234 -1.70419 0
M  V30 12539 H 1199.71 -0.662041 -0.109282 0
M  V30 12540 H 1202.25 -2.02067 0.314509 0
M  V30 12541 H 1200.41 -3.48564 -1.69061 0
M  V30 12542 H 1200.82 -5.2344 -0.333322 0
M  V30 12543 H 1202.3 -5.1291 -2.04027 0
M  V30 12544 H 1202.77 -3.53172 -2.61087 0
M  V30 12545 H 1203.38 -4.12226 -1.04641 0
M  V30 12546 N 1201.7 0.070167 -1.57444 0
M  V30 12547 C 1202.94 0.767842 -1.86513 0
M  V30 12548 C 1203.26 1.78659 -0.796257 0
M  V30 12549 O 1204.46 2.53395 -0.974845 0
M  V30 12550 C 1202.92 1.41654 -3.30851 0
M  V30 12551 C 1202.53 0.436273 -4.45871 0
M  V30 12552 C 1204.27 2.09649 -3.69117 0
M  V30 12553 C 1202.18 1.09098 -5.8125 0
M  V30 12554 H 1201.11 0.290519 -0.695784 0
M  V30 12555 H 1203.76 0.0211697 -1.83488 0
M  V30 12556 H 1202.14 2.21153 -3.28493 0
M  V30 12557 H 1203.32 -0.329022 -4.59624 0
M  V30 12558 H 1201.63 -0.139314 -4.16167 0
M  V30 12559 H 1204.23 2.59411 -4.67558 0
M  V30 12560 H 1204.57 2.89663 -2.99 0
M  V30 12561 H 1205.1 1.36979 -3.73472 0
M  V30 12562 H 1201.84 0.331128 -6.54663 0
M  V30 12563 H 1201.36 1.8271 -5.71294 0
M  V30 12564 H 1203.04 1.61034 -6.2664 0
M  V30 12565 N 1203.17 1.53854 0.341593 0
M  V30 12566 C 1204.12 1.8268 1.43982 0
M  V30 12567 C 1205.12 0.697415 1.54378 0
M  V30 12568 O 1206.32 0.880785 1.56978 0
M  V30 12569 H 1202.7 0.578788 0.480113 0
M  V30 12570 H 1204.67 2.74556 1.16884 0
M  V30 12571 C 1203.42 2.05496 2.80476 0
M  V30 12572 H 1202.74 2.91852 2.73244 0
M  V30 12573 H 1204.18 2.2963 3.56435 0
M  V30 12574 C 1202.64 0.841061 3.26233 0
M  V30 12575 O 1203.17 0.0414376 4.01679 0
M  V30 12576 N 1201.37 0.657736 2.83059 0
M  V30 12577 H 1200.92 1.30962 2.21826 0
M  V30 12578 H 1200.88 -0.153003 3.14027 0
M  V30 12579 N 1204.65 -0.602709 1.4562 0
M  V30 12580 C 1205.9 -1.36359 1.50113 0
M  V30 12581 C 1206.23 -1.93663 0.144297 0
M  V30 12582 O 1205.51 -1.75337 -0.841851 0
M  V30 12583 C 1205.79 -2.50788 2.58413 0
M  V30 12584 C 1205.64 -1.98649 4.03557 0
M  V30 12585 C 1206.96 -3.52905 2.62957 0
M  V30 12586 H 1204.08 -0.494455 0.54652 0
M  V30 12587 H 1206.72 -0.678957 1.77455 0
M  V30 12588 H 1204.87 -3.09191 2.3523 0
M  V30 12589 H 1206.54 -1.44857 4.37966 0
M  V30 12590 H 1204.79 -1.29615 4.13984 0
M  V30 12591 H 1205.46 -2.81159 4.7503 0
M  V30 12592 H 1207.93 -3.0435 2.83743 0
M  V30 12593 H 1206.81 -4.30454 3.40589 0
M  V30 12594 H 1207.07 -4.0884 1.68233 0
M  V30 12595 N 1206.13 -1.32992 -0.845635 0
M  V30 12596 C 1207.08 -1.19256 -1.94325 0
M  V30 12597 C 1208.06 -0.0971701 -1.60606 0
M  V30 12598 O 1209.26 -0.324591 -1.73998 0
M  V30 12599 C 1206.38 -0.927027 -3.30547 0
M  V30 12600 C 1205.47 -2.06454 -3.70456 0
M  V30 12601 N 1205.86 -3.31393 -3.82116 0
M  V30 12602 C 1204.16 -1.96972 -4.00147 0
M  V30 12603 C 1204.86 -4.05955 -4.16624 0
M  V30 12604 N 1203.84 -3.34332 -4.28629 0
M  V30 12605 H 1207.64 -2.13965 -2.01485 0
M  V30 12606 H 1205.15 -1.24901 -1.03795 0
M  V30 12607 H 1207.15 -0.809565 -4.08964 0
M  V30 12608 H 1205.81 0.011597 -3.24698 0
M  V30 12609 H 1206.82 -3.66222 -3.662 0
M  V30 12610 H 1203.5 -1.10728 -4.02549 0
M  V30 12611 H 1204.89 -5.13738 -4.33039 0
M  V30 12612 N 1207.61 1.06304 -1.1635 0
M  V30 12613 C 1208.54 2.15745 -0.893103 0
M  V30 12614 C 1209.52 1.69341 0.160531 0
M  V30 12615 O 1210.7 1.94196 0.0126526 0
M  V30 12616 C 1207.83 3.45066 -0.393287 0
M  V30 12617 C 1206.79 4.04978 -1.38482 0
M  V30 12618 C 1206.11 5.29507 -0.743409 0
M  V30 12619 C 1207.41 4.4377 -2.75438 0
M  V30 12620 H 1209.11 2.38622 -1.80831 0
M  V30 12621 H 1206.65 1.14681 -0.870878 0
M  V30 12622 H 1208.61 4.20964 -0.191607 0
M  V30 12623 H 1207.33 3.21808 0.557426 0
M  V30 12624 H 1205.99 3.31136 -1.57304 0
M  V30 12625 H 1205.64 5.02545 0.213787 0
M  V30 12626 H 1205.34 5.7055 -1.40521 0
M  V30 12627 H 1206.86 6.08102 -0.551746 0
M  V30 12628 H 1208.28 5.1075 -2.60398 0
M  V30 12629 H 1206.67 4.95797 -3.38091 0
M  V30 12630 H 1207.74 3.54636 -3.30699 0
M  V30 12631 N 1209.09 0.96196 1.24836 0
M  V30 12632 C 1210.5 0.667561 1.44968 0
M  V30 12633 C 1210.7 -0.772521 1.86103 0
M  V30 12634 O 1209.76 -1.54704 1.99557 0
M  V30 12635 C 1211.07 1.64675 2.516 0
M  V30 12636 C 1212.62 1.65874 2.65433 0
M  V30 12637 C 1213.09 2.62576 3.75257 0
M  V30 12638 N 1214.58 2.60984 3.82677 0
M  V30 12639 C 1215.32 3.32484 4.67163 0
M  V30 12640 N 1214.82 4.13482 5.55882 0
M  V30 12641 N 1216.61 3.21336 4.61193 0
M  V30 12642 H 1208.76 1.89248 0.964307 0
M  V30 12643 H 1211.02 0.814443 0.485167 0
M  V30 12644 H 1210.73 2.67572 2.2825 0
M  V30 12645 H 1210.6 1.415 3.49653 0
M  V30 12646 H 1212.99 0.636912 2.88145 0
M  V30 12647 H 1213.07 1.9311 1.67756 0
M  V30 12648 H 1212.71 3.6489 3.53295 0
M  V30 12649 H 1212.64 2.32622 4.72435 0
M  V30 12650 H 1215.14 2.02187 3.19263 0
M  V30 12651 H 1215.45 4.6494 6.17293 0
M  V30 12652 H 1213.79 4.17578 5.55566 0
M  V30 12653 H 1216.98 2.57524 3.90895 0
M  V30 12654 H 1217.16 3.77323 5.26812 0
M  V30 12655 N 1210.56 -1.39601 0.731392 0
M  V30 12656 C 1211.53 -2.28992 0.0976037 0
M  V30 12657 C 1212.53 -1.46135 -0.670917 0
M  V30 12658 O 1213.72 -1.66856 -0.50047 0
M  V30 12659 C 1210.85 -3.29582 -0.871124 0
M  V30 12660 H 1212.04 -2.86541 0.885112 0
M  V30 12661 H 1209.59 -1.48188 0.497002 0
M  V30 12662 H 1210.33 -2.77082 -1.68512 0
M  V30 12663 H 1210.11 -3.9077 -0.322735 0
M  V30 12664 H 1211.6 -3.96479 -1.31126 0
M  V30 12665 N 1212.04 -0.478751 -1.50152 0
M  V30 12666 C 1213.29 0.0734397 -2.01967 0
M  V30 12667 C 1213.61 1.39523 -1.36229 0
M  V30 12668 O 1212.88 1.89141 -0.510149 0
M  V30 12669 H 1211.46 0.0301305 -0.746392 0
M  V30 12670 H 1214.12 -0.630921 -1.84406 0
M  V30 12671 H 1213.22 0.21937 -3.11328 0
M  V30 12672 N 1213.52 1.56172 -0.211661 0
M  V30 12673 C 1214.75 2.02135 0.427222 0
M  V30 12674 C 1215.16 1.09084 1.54587 0
M  V30 12675 O 1214.5 0.090906 1.83475 0
M  V30 12676 C 1214.56 3.44459 1.029 0
M  V30 12677 C 1214.23 4.56976 0.0470243 0
M  V30 12678 C 1215.22 5.14466 -0.749724 0
M  V30 12679 C 1212.91 5.02253 -0.0688634 0
M  V30 12680 C 1214.9 6.15696 -1.64916 0
M  V30 12681 C 1212.59 6.03323 -0.971844 0
M  V30 12682 C 1213.59 6.5992 -1.76055 0
M  V30 12683 O 1213.28 7.59024 -2.64837 0
M  V30 12684 H 1213.01 0.667008 0.109894 0
M  V30 12685 H 1215.56 2.02851 -0.322595 0
M  V30 12686 H 1213.79 3.4078 1.82772 0
M  V30 12687 H 1215.48 3.74128 1.57425 0
M  V30 12688 H 1216.25 4.80342 -0.670588 0
M  V30 12689 H 1212.13 4.57886 0.534889 0
M  V30 12690 H 1215.67 6.59798 -2.26521 0
M  V30 12691 H 1211.57 6.36869 -1.05203 0
M  V30 12692 H 1212.34 7.76508 -2.58801 0
M  V30 12693 N 1215 -0.0618163 1.57479 0
M  V30 12694 C 1216.25 -0.75794 1.86918 0
M  V30 12695 C 1216.56 -1.78234 0.80572 0
M  V30 12696 O 1217.77 -2.52874 0.98827 0
M  V30 12697 C 1216.22 -1.39898 3.31597 0
M  V30 12698 C 1215.83 -0.412621 4.46096 0
M  V30 12699 C 1217.57 -2.07688 3.70224 0
M  V30 12700 C 1215.48 -1.06014 5.8182 0
M  V30 12701 H 1214.41 -0.286825 0.697314 0
M  V30 12702 H 1217.06 -0.0114386 1.83496 0
M  V30 12703 H 1215.44 -2.19408 3.29661 0
M  V30 12704 H 1216.62 0.353392 4.59443 0
M  V30 12705 H 1214.93 0.161383 4.16087 0
M  V30 12706 H 1217.53 -2.56928 4.68927 0
M  V30 12707 H 1217.87 -2.88073 3.00532 0
M  V30 12708 H 1218.41 -1.34996 3.74194 0
M  V30 12709 H 1215.15 -0.296405 6.5483 0
M  V30 12710 H 1214.67 -1.79677 5.72255 0
M  V30 12711 H 1216.34 -1.57708 6.27485 0
M  V30 12712 N 1216.48 -1.54033 -0.333429 0
M  V30 12713 C 1217.73 -1.70979 -1.07 0
M  V30 12714 C 1218.04 -0.485095 -1.89489 0
M  V30 12715 O 1219.24 -0.535712 -2.66162 0
M  V30 12716 C 1217.7 -3.02382 -1.95175 0
M  V30 12717 C 1217.31 -4.32223 -1.17844 0
M  V30 12718 C 1219.05 -3.28693 -2.68628 0
M  V30 12719 C 1216.96 -5.54693 -2.05109 0
M  V30 12720 H 1215.89 -0.637152 -0.403179 0
M  V30 12721 H 1218.54 -1.80529 -0.328839 0
M  V30 12722 H 1216.92 -2.86714 -2.73151 0
M  V30 12723 H 1218.1 -4.58626 -0.447089 0
M  V30 12724 H 1216.41 -4.12601 -0.561166 0
M  V30 12725 H 1219.01 -4.17385 -3.34207 0
M  V30 12726 H 1219.35 -2.46141 -3.35738 0
M  V30 12727 H 1219.88 -3.45183 -1.9772 0
M  V30 12728 H 1216.62 -6.39818 -1.42523 0
M  V30 12729 H 1216.14 -5.32524 -2.76005 0
M  V30 12730 H 1217.82 -5.90722 -2.63926 0
M  V30 12731 N 1217.95 0.594978 -1.45938 0
M  V30 12732 C 1219.37 1.17703 -1.44924 0
M  V30 12733 C 1219.72 1.9534 -0.183522 0
M  V30 12734 O 1218.84 2.04276 0.714163 0
M  V30 12735 C 1219.44 2.14119 -2.62561 0
M  V30 12736 C 1218 2.67674 -2.64627 0
M  V30 12737 C 1217.14 1.43312 -2.37397 0
M  V30 12738 H 1220.09 0.383583 -1.53995 0
M  V30 12739 H 1220.11 2.97374 -2.3738 0
M  V30 12740 H 1219.63 1.57586 -3.54667 0
M  V30 12741 H 1217.73 3.28111 -1.76562 0
M  V30 12742 H 1217.84 3.11246 -3.64229 0
M  V30 12743 H 1216.2 1.72702 -1.87206 0
M  V30 12744 H 1216.99 0.886276 -3.31663 0
M  V30 12745 N 1219.43 1.33438 0.838571 0
M  V30 12746 C 1220.36 1.26344 1.96365 0
M  V30 12747 C 1221.34 0.143956 1.6949 0
M  V30 12748 O 1222.53 0.333779 1.9131 0
M  V30 12749 C 1219.66 1.0022 3.32526 0
M  V30 12750 C 1218.61 2.08466 3.73799 0
M  V30 12751 C 1217.94 1.67555 5.07769 0
M  V30 12752 C 1219.24 3.50144 3.87552 0
M  V30 12753 H 1220.93 2.20478 2.02558 0
M  V30 12754 H 1218.48 1.06139 0.973168 0
M  V30 12755 H 1220.43 0.939068 4.10803 0
M  V30 12756 H 1219.16 0.0252514 3.2659 0
M  V30 12757 H 1217.81 2.13822 2.97785 0
M  V30 12758 H 1217.46 0.685619 4.98305 0
M  V30 12759 H 1217.16 2.39993 5.36356 0
M  V30 12760 H 1218.69 1.62708 5.88522 0
M  V30 12761 H 1220.1 3.47287 4.56141 0
M  V30 12762 H 1218.5 4.21069 4.27575 0
M  V30 12763 H 1219.57 3.88628 2.89994 0
M  V30 12764 N 1220.91 -1.05686 1.16912 0
M  V30 12765 C 1221.84 -2.1329 0.839044 0
M  V30 12766 C 1222.86 -1.62047 -0.156392 0
M  V30 12767 O 1224.04 -1.78366 0.0692192 0
M  V30 12768 C 1221.14 -3.38122 0.229558 0
M  V30 12769 C 1220.32 -4.18659 1.26662 0
M  V30 12770 C 1219.38 -5.21842 0.675811 0
M  V30 12771 O 1218.4 -5.53049 1.3463 0
M  V30 12772 N 1219.6 -5.78034 -0.534532 0
M  V30 12773 H 1222.37 -2.42203 1.76515 0
M  V30 12774 H 1219.93 -1.2174 1.06729 0
M  V30 12775 H 1221.92 -4.04305 -0.178868 0
M  V30 12776 H 1220.49 -3.06783 -0.60023 0
M  V30 12777 H 1219.71 -3.4804 1.85099 0
M  V30 12778 H 1221 -4.6927 1.9663 0
M  V30 12779 H 1220.4 -5.54955 -1.09731 0
M  V30 12780 H 1218.96 -6.45763 -0.885087 0
M  V30 12781 N 1222.39 -0.968567 -1.24324 0
M  V30 12782 C 1223.64 -0.629682 -1.9204 0
M  V30 12783 C 1223.96 0.837906 -1.7608 0
M  V30 12784 O 1223.23 1.5982 -1.13289 0
M  V30 12785 H 1221.81 -0.229901 -0.710742 0
M  V30 12786 H 1224.47 -1.22982 -1.512 0
M  V30 12787 H 1223.57 -0.871034 -2.99699 0
M  V30 12788 N 1223.87 1.39211 -0.738786 0
M  V30 12789 C 1225.28 1.83237 -0.357916 0
M  V30 12790 C 1225.63 1.61698 1.11123 0
M  V30 12791 O 1224.75 1.11017 1.85753 0
M  V30 12792 C 1225.35 3.32645 -0.64285 0
M  V30 12793 C 1223.91 3.75076 -0.315432 0
M  V30 12794 C 1223.05 2.62166 -0.903556 0
M  V30 12795 H 1226.01 1.2815 -0.936127 0
M  V30 12796 H 1226.03 3.80407 0.0840812 0
M  V30 12797 H 1225.54 3.4829 -1.71218 0
M  V30 12798 H 1223.64 3.65017 0.747907 0
M  V30 12799 H 1223.75 4.72363 -0.800638 0
M  V30 12800 H 1222.12 2.52554 -0.329927 0
M  V30 12801 H 1222.9 2.80616 -1.97761 0
M  V30 12802 N 1225.34 0.486708 1.49896 0
M  V30 12803 C 1226.59 -0.0627279 2.02003 0
M  V30 12804 C 1226.91 -1.38799 1.36967 0
M  V30 12805 O 1226.18 -1.88868 0.520173 0
M  V30 12806 H 1224.76 -0.0261718 0.746541 0
M  V30 12807 H 1227.43 0.640692 1.84068 0
M  V30 12808 H 1226.52 -0.202856 3.1144 0
M  V30 12809 N 1226.82 -1.56058 0.219941 0
M  V30 12810 C 1227.75 -2.2321 -0.685547 0
M  V30 12811 C 1228.73 -1.20328 -1.20229 0
M  V30 12812 O 1229.92 -1.48909 -1.24659 0
M  V30 12813 C 1227.05 -2.91076 -1.89452 0
M  V30 12814 C 1226 -4.00415 -1.51169 0
M  V30 12815 C 1225.33 -4.55569 -2.79931 0
M  V30 12816 C 1226.63 -5.17549 -0.702896 0
M  V30 12817 H 1228.32 -2.99136 -0.125671 0
M  V30 12818 H 1225.87 -1.43879 -0.0590043 0
M  V30 12819 H 1227.82 -3.36744 -2.53341 0
M  V30 12820 H 1226.55 -2.12594 -2.47934 0
M  V30 12821 H 1225.21 -3.55475 -0.896275 0
M  V30 12822 H 1224.85 -3.73819 -3.36553 0
M  V30 12823 H 1224.55 -5.29361 -2.55049 0
M  V30 12824 H 1226.08 -5.03955 -3.44764 0
M  V30 12825 H 1227.49 -5.59608 -1.24544 0
M  V30 12826 H 1225.89 -5.97563 -0.551234 0
M  V30 12827 H 1226.96 -4.84027 0.29083 0
M  V30 12828 N 1228.3 0.053464 -1.57509 0
M  V30 12829 C 1229.53 0.761533 -1.92375 0
M  V30 12830 C 1229.94 1.70179 -0.817585 0
M  V30 12831 O 1229.3 1.81313 0.207843 0
M  V30 12832 C 1229.35 1.53954 -3.27078 0
M  V30 12833 O 1229.07 0.637054 -4.33443 0
M  V30 12834 C 1230.57 2.34697 -3.76075 0
M  V30 12835 H 1227.79 0.215483 -0.635459 0
M  V30 12836 H 1230.34 0.0182624 -2.04492 0
M  V30 12837 H 1228.49 2.23492 -3.16434 0
M  V30 12838 H 1228.91 1.18006 -5.11053 0
M  V30 12839 H 1230.38 2.84716 -4.72906 0
M  V30 12840 H 1230.86 3.15041 -3.06016 0
M  V30 12841 H 1231.46 1.70281 -3.89724 0
M  V30 12842 N 1229.78 1.54207 0.325255 0
M  V30 12843 C 1231.01 1.76293 1.08298 0
M  V30 12844 C 1231.42 0.510722 1.81761 0
M  V30 12845 O 1230.78 -0.5185 1.7498 0
M  V30 12846 C 1230.83 2.95498 2.08238 0
M  V30 12847 O 1230.55 4.15877 1.37759 0
M  V30 12848 C 1232.05 3.29781 2.96242 0
M  V30 12849 H 1229.27 0.588576 0.322209 0
M  V30 12850 H 1231.82 2.0109 0.371896 0
M  V30 12851 H 1229.97 2.72979 2.74884 0
M  V30 12852 H 1230.39 4.82918 2.04672 0
M  V30 12853 H 1231.86 4.16495 3.62265 0
M  V30 12854 H 1232.34 2.46874 3.63249 0
M  V30 12855 H 1232.94 3.54372 2.3516 0
M  V30 12856 N 1231.26 -0.58723 1.46251 0
M  V30 12857 C 1232.49 -1.37174 1.5489 0
M  V30 12858 C 1232.9 -1.87857 0.188445 0
M  V30 12859 O 1232.26 -1.63365 -0.813509 0
M  V30 12860 C 1232.31 -2.56237 2.55 0
M  V30 12861 O 1232.03 -2.07655 3.8576 0
M  V30 12862 C 1233.53 -3.48846 2.73535 0
M  V30 12863 H 1230.75 -0.419211 0.523931 0
M  V30 12864 H 1233.29 -0.714307 1.91619 0
M  V30 12865 H 1231.45 -3.1798 2.21287 0
M  V30 12866 H 1231.86 -2.85161 4.40208 0
M  V30 12867 H 1233.34 -4.2888 3.47514 0
M  V30 12868 H 1233.81 -4.00493 1.80282 0
M  V30 12869 H 1234.42 -2.92942 3.08326 0
M  V30 12870 N 1232.74 -1.33881 -0.831482 0
M  V30 12871 C 1233.65 -1.26802 -1.97379 0
M  V30 12872 C 1234.66 -0.177233 -1.73095 0
M  V30 12873 O 1235.84 -0.402163 -1.97344 0
M  V30 12874 C 1232.9 -1.01474 -3.31517 0
M  V30 12875 C 1231.96 -2.19626 -3.68867 0
M  V30 12876 C 1231.2 -1.95497 -4.96605 0
M  V30 12877 O 1231.42 -0.908948 -5.63111 0
M  V30 12878 O 1230.35 -2.82226 -5.31632 0
M  V30 12879 H 1234.18 -2.22883 -2.06293 0
M  V30 12880 H 1231.76 -1.14001 -0.965613 0
M  V30 12881 H 1233.65 -0.890954 -4.11874 0
M  V30 12882 H 1232.32 -0.0842656 -3.2359 0
M  V30 12883 H 1231.23 -2.37561 -2.88991 0
M  V30 12884 H 1232.56 -3.11034 -3.81469 0
M  V30 12885 N 1234.21 1.05064 -1.1747 0
M  V30 12886 C 1235.44 1.82299 -0.98903 0
M  V30 12887 C 1235.86 1.82441 0.457907 0
M  V30 12888 O 1235.22 1.23433 1.32793 0
M  V30 12889 C 1235.27 3.26239 -1.53624 0
M  V30 12890 O 1234.37 4.05507 -0.750857 0
M  V30 12891 H 1233.71 0.563601 -0.35107 0
M  V30 12892 H 1236.24 1.32386 -1.55997 0
M  V30 12893 H 1236.25 3.77038 -1.55906 0
M  V30 12894 H 1234.93 3.25451 -2.58949 0
M  V30 12895 H 1233.51 3.64227 -0.799548 0
M  V30 12896 N 1235.69 0.975146 1.23809 0
M  V30 12897 C 1237.11 0.682899 1.44252 0
M  V30 12898 C 1237.31 -0.752739 1.86912 0
M  V30 12899 O 1236.36 -1.52579 2.01186 0
M  V30 12900 C 1237.68 1.67335 2.49839 0
M  V30 12901 C 1239.22 1.6868 2.63659 0
M  V30 12902 C 1239.7 2.66542 3.72451 0
M  V30 12903 N 1241.19 2.65028 3.79887 0
M  V30 12904 C 1241.93 3.37421 4.63611 0
M  V30 12905 N 1241.42 4.19355 5.51465 0
M  V30 12906 N 1243.21 3.2621 4.57759 0
M  V30 12907 H 1235.37 1.9026 0.94418 0
M  V30 12908 H 1237.63 0.819543 0.476502 0
M  V30 12909 H 1237.33 2.69978 2.25399 0
M  V30 12910 H 1237.21 1.45201 3.48133 0
M  V30 12911 H 1239.6 0.667438 2.87453 0
M  V30 12912 H 1239.68 1.94878 1.65699 0
M  V30 12913 H 1239.32 3.68617 3.49405 0
M  V30 12914 H 1239.25 2.3762 4.69941 0
M  V30 12915 H 1241.74 2.05562 3.171 0
M  V30 12916 H 1242.05 4.71461 6.12327 0
M  V30 12917 H 1240.4 4.23447 5.51106 0
M  V30 12918 H 1243.59 2.61656 3.88142 0
M  V30 12919 H 1243.76 3.82889 5.22781 0
M  V30 12920 N 1237.17 -1.38817 0.746158 0
M  V30 12921 C 1238.1 -2.29081 0.0737986 0
M  V30 12922 C 1239.11 -1.47377 -0.691656 0
M  V30 12923 O 1240.3 -1.70326 -0.533973 0
M  V30 12924 C 1237.4 -3.26185 -0.919607 0
M  V30 12925 C 1236.58 -4.36879 -0.213349 0
M  V30 12926 C 1235.64 -5.1422 -1.11644 0
M  V30 12927 O 1234.66 -5.66137 -0.589747 0
M  V30 12928 N 1235.86 -5.26488 -2.44521 0
M  V30 12929 H 1238.63 -2.87424 0.848966 0
M  V30 12930 H 1236.19 -1.50518 0.596314 0
M  V30 12931 H 1238.18 -3.74802 -1.52662 0
M  V30 12932 H 1236.75 -2.68793 -1.5959 0
M  V30 12933 H 1235.97 -3.89994 0.574285 0
M  V30 12934 H 1237.26 -5.08053 0.275655 0
M  V30 12935 H 1236.66 -4.85846 -2.89777 0
M  V30 12936 H 1235.21 -5.78505 -3.00291 0
M  V30 12937 N 1238.65 -0.49465 -1.49636 0
M  V30 12938 C 1239.58 0.323781 -2.26902 0
M  V30 12939 C 1240.59 0.936281 -1.33183 0
M  V30 12940 O 1241.78 0.820695 -1.58514 0
M  V30 12941 C 1238.88 1.47025 -3.05347 0
M  V30 12942 C 1238.05 0.966228 -4.26594 0
M  V30 12943 C 1237.11 1.98955 -4.87138 0
M  V30 12944 O 1236.14 1.56065 -5.47387 0
M  V30 12945 N 1237.34 3.3195 -4.76224 0
M  V30 12946 H 1240.11 -0.338716 -2.9778 0
M  V30 12947 H 1237.67 -0.326817 -1.58567 0
M  V30 12948 H 1239.66 2.15225 -3.42725 0
M  V30 12949 H 1238.23 2.03702 -2.37117 0
M  V30 12950 H 1237.45 0.109336 -3.94048 0
M  V30 12951 H 1238.74 0.607781 -5.05157 0
M  V30 12952 H 1238.14 3.69488 -4.28363 0
M  V30 12953 H 1236.69 3.95881 -5.17805 0
M  V30 12954 N 1240.13 1.55939 -0.228214 0
M  V30 12955 C 1241.54 1.84612 0.278417 0
M  V30 12956 C 1241.89 1.14973 1.58983 0
M  V30 12957 O 1241.01 0.421673 2.12252 0
M  V30 12958 C 1241.61 3.3491 0.511935 0
M  V30 12959 C 1240.17 3.63876 0.962861 0
M  V30 12960 C 1239.31 2.77284 0.0296246 0
M  V30 12961 H 1242.26 1.52149 -0.451245 0
M  V30 12962 H 1242.29 3.55477 1.35707 0
M  V30 12963 H 1241.8 3.85567 -0.442697 0
M  V30 12964 H 1239.9 3.18682 1.93062 0
M  V30 12965 H 1240.01 4.71809 0.832659 0
M  V30 12966 H 1238.38 2.48961 0.53763 0
M  V30 12967 H 1239.16 3.30742 -0.920044 0
M  V30 12968 N 1241.6 -0.0451101 1.57535 0
M  V30 12969 C 1242.54 -1.08327 2.00849 0
M  V30 12970 C 1243.52 -1.36083 0.889957 0
M  V30 12971 O 1244.7 -1.49009 1.15449 0
M  V30 12972 C 1241.83 -2.42171 2.36793 0
M  V30 12973 C 1240.87 -2.30378 3.58926 0
M  V30 12974 S 1241.71 -1.67244 5.08714 0
M  V30 12975 C 1242.86 -3.02611 5.47885 0
M  V30 12976 H 1243.09 -0.714274 2.88592 0
M  V30 12977 H 1240.63 -0.254561 1.52287 0
M  V30 12978 H 1242.59 -3.1915 2.58174 0
M  V30 12979 H 1241.25 -2.76224 1.49531 0
M  V30 12980 H 1240.44 -3.29146 3.81679 0
M  V30 12981 H 1240.04 -1.6154 3.37314 0
M  V30 12982 H 1242.33 -3.98941 5.47587 0
M  V30 12983 H 1243.28 -2.84609 6.48385 0
M  V30 12984 H 1243.68 -3.04445 4.75367 0
M  V30 12985 N 1243.08 -1.54377 -0.317073 0
M  V30 12986 C 1244.05 -1.83488 -1.37349 0
M  V30 12987 C 1245.05 -0.706981 -1.44424 0
M  V30 12988 O 1246.24 -0.975289 -1.44339 0
M  V30 12989 C 1243.37 -2.00074 -2.76013 0
M  V30 12990 H 1244.56 -2.77883 -1.12789 0
M  V30 12991 H 1242.11 -1.46194 -0.552902 0
M  V30 12992 H 1242.85 -1.07913 -3.05819 0
M  V30 12993 H 1242.63 -2.82155 -2.7227 0
M  V30 12994 H 1244.12 -2.24022 -3.52426 0
M  V30 12995 N 1244.56 0.579466 -1.4656 0
M  V30 12996 C 1245.49 1.69846 -1.60233 0
M  V30 12997 C 1246.47 1.6397 -0.452533 0
M  V30 12998 O 1247.66 1.81936 -0.679174 0
M  V30 12999 C 1244.79 3.08488 -1.59538 0
M  V30 13000 C 1243.74 3.29197 -2.7352 0
M  V30 13001 C 1243.07 4.684 -2.57887 0
M  V30 13002 C 1244.37 3.16718 -4.15315 0
M  V30 13003 H 1246.06 1.5866 -2.53904 0
M  V30 13004 H 1243.61 0.761873 -1.22194 0
M  V30 13005 H 1245.56 3.86595 -1.67696 0
M  V30 13006 H 1244.28 3.20581 -0.62413 0
M  V30 13007 H 1242.94 2.53491 -2.64836 0
M  V30 13008 H 1242.59 4.77262 -1.58839 0
M  V30 13009 H 1242.29 4.83208 -3.34341 0
M  V30 13010 H 1243.81 5.48671 -2.67942 0
M  V30 13011 H 1245.23 3.84666 -4.25094 0
M  V30 13012 H 1243.63 3.43047 -4.92381 0
M  V30 13013 H 1244.7 2.13755 -4.35244 0
M  V30 13014 N 1246.04 1.3432 0.824371 0
M  V30 13015 C 1247 1.25672 1.91675 0
M  V30 13016 C 1248 0.172269 1.59875 0
M  V30 13017 O 1249.19 0.424794 1.68941 0
M  V30 13018 C 1246.32 0.939928 3.27686 0
M  V30 13019 H 1247.52 2.22785 2.00766 0
M  V30 13020 H 1245.07 1.18587 1.01817 0
M  V30 13021 H 1245.8 -0.0280898 3.24288 0
M  V30 13022 H 1245.59 1.72432 3.5215 0
M  V30 13023 H 1247.08 0.904553 4.07686 0
M  V30 13024 N 1247.52 -1.0444 1.18026 0
M  V30 13025 C 1248.76 -1.77838 0.974756 0
M  V30 13026 C 1249.1 -1.87792 -0.494755 0
M  V30 13027 O 1248.37 -1.38327 -1.36733 0
M  V30 13028 C 1248.65 -3.21315 1.62569 0
M  V30 13029 C 1248.51 -3.19327 3.16781 0
M  V30 13030 C 1249.83 -4.19337 1.33583 0
M  V30 13031 H 1246.94 -0.645575 0.35553 0
M  V30 13032 H 1249.59 -1.22023 1.45638 0
M  V30 13033 H 1247.74 -3.68974 1.21617 0
M  V30 13034 H 1249.41 -2.79687 3.66842 0
M  V30 13035 H 1247.65 -2.57461 3.49137 0
M  V30 13036 H 1248.32 -4.20626 3.5746 0
M  V30 13037 H 1250.8 -3.80208 1.69059 0
M  V30 13038 H 1249.67 -5.17953 1.81702 0
M  V30 13039 H 1249.94 -4.41346 0.258016 0
M  V30 13040 N 1248.99 -0.981699 -1.2329 0
M  V30 13041 C 1249.96 -0.527992 -2.23036 0
M  V30 13042 C 1250.96 0.383083 -1.5617 0
M  V30 13043 O 1252.15 0.176595 -1.73303 0
M  V30 13044 C 1249.28 0.233501 -3.40099 0
M  V30 13045 H 1250.47 -1.40995 -2.64689 0
M  V30 13046 H 1248.03 -0.767724 -1.36146 0
M  V30 13047 H 1248.76 1.13194 -3.03904 0
M  V30 13048 H 1248.55 -0.420505 -3.89839 0
M  V30 13049 H 1250.04 0.539485 -4.14101 0
M  V30 13050 N 1250.47 1.3842 -0.753509 0
M  V30 13051 C 1251.4 2.33073 -0.141198 0
M  V30 13052 C 1252.38 1.54863 0.70367 0
M  V30 13053 O 1253.57 1.8318 0.644872 0
M  V30 13054 C 1250.7 3.39043 0.752802 0
M  V30 13055 C 1249.65 4.27999 0.0106692 0
M  V30 13056 C 1248.98 5.24824 1.02291 0
M  V30 13057 C 1250.28 5.09308 -1.15768 0
M  V30 13058 H 1251.97 2.84528 -0.93188 0
M  V30 13059 H 1249.52 1.36802 -0.449567 0
M  V30 13060 H 1251.47 4.04224 1.19083 0
M  V30 13061 H 1250.2 2.8607 1.57581 0
M  V30 13062 H 1248.85 3.64323 -0.407939 0
M  V30 13063 H 1248.5 4.68139 1.83998 0
M  V30 13064 H 1248.2 5.85196 0.53101 0
M  V30 13065 H 1249.73 5.92882 1.46026 0
M  V30 13066 H 1251.14 5.6773 -0.797203 0
M  V30 13067 H 1249.54 5.78914 -1.58044 0
M  V30 13068 H 1250.61 4.43051 -1.97062 0
M  V30 13069 N 1251.95 0.502579 1.49372 0
M  V30 13070 C 1253.18 -0.0381429 2.06865 0
M  V30 13071 C 1253.59 -1.30674 1.36271 0
M  V30 13072 O 1252.95 -1.77078 0.441532 0
M  V30 13073 C 1253 -0.294068 3.60302 0
M  V30 13074 O 1252.72 0.924244 4.2824 0
M  V30 13075 C 1254.22 -0.878253 4.34513 0
M  V30 13076 H 1251.44 0.0211756 0.670666 0
M  V30 13077 H 1253.99 0.700387 1.92132 0
M  V30 13078 H 1252.14 -0.982583 3.74732 0
M  V30 13079 H 1252.56 0.688062 5.19967 0
M  V30 13080 H 1254.03 -1.0069 5.42739 0
M  V30 13081 H 1254.51 -1.87643 3.97098 0
M  V30 13082 H 1255.11 -0.227157 4.24693 0
M  V30 13083 N 1253.43 -1.55816 0.23648 0
M  V30 13084 C 1254.38 -2.20938 -0.66745 0
M  V30 13085 C 1255.35 -1.16982 -1.17917 0
M  V30 13086 O 1256.53 -1.45392 -1.23555 0
M  V30 13087 C 1253.67 -2.90469 -1.86337 0
M  V30 13088 C 1252.78 -4.09056 -1.38915 0
M  V30 13089 C 1251.92 -4.6633 -2.54382 0
M  V30 13090 C 1250.96 -5.77187 -2.0377 0
M  V30 13091 N 1250.09 -6.28688 -3.12564 0
M  V30 13092 H 1254.93 -2.97814 -0.105411 0
M  V30 13093 H 1252.47 -1.47045 -0.0402712 0
M  V30 13094 H 1254.43 -3.28975 -2.56576 0
M  V30 13095 H 1253.06 -2.16086 -2.39806 0
M  V30 13096 H 1252.11 -3.75934 -0.581173 0
M  V30 13097 H 1253.42 -4.89115 -0.978152 0
M  V30 13098 H 1252.58 -5.07355 -3.32679 0
M  V30 13099 H 1251.32 -3.85464 -2.98778 0
M  V30 13100 H 1250.32 -5.35648 -1.23939 0
M  V30 13101 H 1251.55 -6.59896 -1.60355 0
M  V30 13102 H 1249.49 -5.50731 -3.56414 0
M  V30 13103 H 1249.41 -7.03911 -2.75762 0
M  V30 13104 H 1250.68 -6.74371 -3.90952 0
M  V30 13105 N 1254.91 0.036755 -1.57557 0
M  V30 13106 C 1256.15 0.727665 -1.88546 0
M  V30 13107 C 1256.48 1.76304 -0.833179 0
M  V30 13108 O 1255.75 1.9544 0.13414 0
M  V30 13109 H 1254.33 0.271744 -0.695819 0
M  V30 13110 H 1256.99 0.00452915 -1.94899 0
M  V30 13111 H 1256.08 1.22205 -2.8718 0
M  V30 13112 N 1256.39 1.54543 0.308881 0
M  V30 13113 C 1257.63 1.73107 1.043 0
M  V30 13114 C 1257.95 0.515481 1.88063 0
M  V30 13115 O 1257.22 -0.47036 1.90169 0
M  V30 13116 H 1255.8 0.638289 0.388068 0
M  V30 13117 H 1258.47 1.9188 0.341769 0
M  V30 13118 H 1257.56 2.61697 1.70063 0
M  V30 13119 N 1257.86 -0.571685 1.46866 0
M  V30 13120 C 1258.77 -1.70758 1.60869 0
M  V30 13121 C 1259.79 -1.66903 0.49186 0
M  V30 13122 O 1260.97 -1.86613 0.757468 0
M  V30 13123 C 1258.03 -3.07267 1.60586 0
M  V30 13124 C 1257.09 -3.22301 2.83585 0
M  V30 13125 C 1256.32 -4.52298 2.83306 0
M  V30 13126 O 1256.55 -5.36869 1.92685 0
M  V30 13127 O 1255.48 -4.70814 3.7499 0
M  V30 13128 H 1259.31 -1.6189 2.56954 0
M  V30 13129 H 1256.89 -0.740018 1.29785 0
M  V30 13130 H 1258.77 -3.8853 1.63163 0
M  V30 13131 H 1257.45 -3.16549 0.676637 0
M  V30 13132 H 1256.36 -2.4049 2.86558 0
M  V30 13133 H 1257.69 -3.17916 3.75753 0
M  V30 13134 N 1259.34 -1.34755 -0.817236 0
M  V30 13135 C 1260.3 -1.26687 -1.91006 0
M  V30 13136 C 1261.3 -0.180745 -1.59781 0
M  V30 13137 O 1262.49 -0.433748 -1.68714 0
M  V30 13138 C 1259.63 -0.957293 -3.27183 0
M  V30 13139 H 1260.82 -2.23846 -1.99582 0
M  V30 13140 H 1258.37 -1.19125 -1.01187 0
M  V30 13141 H 1259.11 0.0108917 -3.24298 0
M  V30 13142 H 1258.89 -1.74297 -3.5123 0
M  V30 13143 H 1260.38 -0.926161 -4.072 0
M  V30 13144 N 1260.82 1.03812 -1.18578 0
M  V30 13145 C 1262.24 1.29271 -0.936011 0
M  V30 13146 C 1262.44 1.97551 0.396965 0
M  V30 13147 O 1261.49 2.25769 1.13069 0
M  V30 13148 C 1262.8 2.1489 -2.1034 0
M  V30 13149 C 1264.35 2.28228 -2.14198 0
M  V30 13150 C 1264.83 3.17214 -3.30362 0
M  V30 13151 N 1266.32 3.24802 -3.30239 0
M  V30 13152 C 1267.05 3.9382 -4.16765 0
M  V30 13153 N 1266.55 4.65147 -5.1343 0
M  V30 13154 N 1268.34 3.90125 -4.04671 0
M  V30 13155 H 1260.49 0.579011 -2.04356 0
M  V30 13156 H 1262.76 0.318021 -0.893066 0
M  V30 13157 H 1262.46 1.72029 -3.06755 0
M  V30 13158 H 1262.34 3.15576 -2.06619 0
M  V30 13159 H 1264.72 2.70324 -1.18359 0
M  V30 13160 H 1264.8 1.27124 -2.21976 0
M  V30 13161 H 1264.45 2.75829 -4.26475 0
M  V30 13162 H 1264.38 4.18356 -3.19821 0
M  V30 13163 H 1266.87 2.73994 -2.60261 0
M  V30 13164 H 1267.18 5.15414 -5.7582 0
M  V30 13165 H 1265.53 4.64043 -5.17387 0
M  V30 13166 H 1268.72 3.33536 -3.28438 0
M  V30 13167 H 1268.89 4.43641 -4.7232 0
M  V30 13168 N 1262.3 0.988223 1.22768 0
M  V30 13169 C 1263.55 0.660154 1.91014 0
M  V30 13170 C 1263.87 -0.809788 1.77391 0
M  V30 13171 O 1263.14 -1.57998 1.15817 0
M  V30 13172 H 1261.72 0.24118 0.706995 0
M  V30 13173 H 1264.38 1.25372 1.49224 0
M  V30 13174 H 1263.47 0.918603 2.98275 0
M  V30 13175 N 1263.78 -1.38018 0.760839 0
M  V30 13176 C 1264.69 -2.34181 0.140232 0
M  V30 13177 C 1265.7 -1.59635 -0.692287 0
M  V30 13178 O 1266.88 -1.91788 -0.614752 0
M  V30 13179 C 1263.94 -3.38778 -0.73693 0
M  V30 13180 C 1263 -4.29157 0.110792 0
M  V30 13181 C 1262.24 -5.28758 -0.724599 0
M  V30 13182 O 1262.46 -5.35585 -1.96226 0
M  V30 13183 O 1261.39 -6.01738 -0.139565 0
M  V30 13184 H 1265.22 -2.88962 0.934588 0
M  V30 13185 H 1262.8 -1.3999 0.521835 0
M  V30 13186 H 1264.69 -4.02804 -1.23803 0
M  V30 13187 H 1263.36 -2.86341 -1.50966 0
M  V30 13188 H 1262.27 -3.68268 0.658007 0
M  V30 13189 H 1263.6 -4.84869 0.846346 0
M  V30 13190 N 1265.25 -0.510493 -1.49103 0
M  V30 13191 C 1266.18 0.251999 -2.32136 0
M  V30 13192 C 1267.16 0.953613 -1.40855 0
M  V30 13193 O 1268.35 0.943178 -1.69758 0
M  V30 13194 C 1265.48 1.31118 -3.21598 0
M  V30 13195 C 1264.43 0.72888 -4.21748 0
M  V30 13196 C 1263.76 1.88928 -5.0021 0
M  V30 13197 C 1265.06 -0.286425 -5.21514 0
M  V30 13198 H 1266.75 -0.441102 -2.96133 0
M  V30 13199 H 1264.3 -0.213577 -1.42407 0
M  V30 13200 H 1266.25 1.8524 -3.78503 0
M  V30 13201 H 1264.98 2.0336 -2.55563 0
M  V30 13202 H 1263.64 0.209336 -3.66002 0
M  V30 13203 H 1263.28 2.59961 -4.30615 0
M  V30 13204 H 1262.98 1.50568 -5.67981 0
M  V30 13205 H 1264.51 2.43465 -5.59962 0
M  V30 13206 H 1265.92 0.166997 -5.73057 0
M  V30 13207 H 1264.32 -0.586361 -5.97228 0
M  V30 13208 H 1265.39 -1.19904 -4.69842 0
M  V30 13209 N 1266.73 1.55688 -0.24474 0
M  V30 13210 C 1267.98 1.98891 0.380603 0
M  V30 13211 C 1268.31 1.13283 1.58105 0
M  V30 13212 O 1267.56 0.183141 1.94841 0
M  V30 13213 C 1267.86 3.47487 0.835923 0
M  V30 13214 C 1267.53 4.5017 -0.256528 0
M  V30 13215 C 1266.19 4.7797 -0.556573 0
M  V30 13216 C 1268.54 5.1163 -0.994174 0
M  V30 13217 C 1265.87 5.64508 -1.59838 0
M  V30 13218 C 1268.22 5.99297 -2.02548 0
M  V30 13219 C 1266.88 6.25432 -2.3322 0
M  V30 13220 H 1266.15 0.727794 0.139273 0
M  V30 13221 H 1268.8 1.88235 -0.352113 0
M  V30 13222 H 1267.11 3.55464 1.64781 0
M  V30 13223 H 1268.8 3.78301 1.33001 0
M  V30 13224 H 1265.39 4.28598 -0.0125284 0
M  V30 13225 H 1269.58 4.90202 -0.775617 0
M  V30 13226 H 1264.83 5.83012 -1.84138 0
M  V30 13227 H 1269.01 6.45964 -2.60198 0
M  V30 13228 H 1266.63 6.92282 -3.14085 0
M  V30 13229 N 1268.21 -0.0283989 1.57574 0
M  V30 13230 C 1269.46 -0.714661 1.90432 0
M  V30 13231 C 1269.81 -1.72929 0.843409 0
M  V30 13232 O 1269.1 -1.91029 -0.147815 0
M  V30 13233 C 1269.3 -1.4247 3.27776 0
M  V30 13234 C 1269.13 -0.480353 4.47127 0
M  V30 13235 C 1267.9 -0.101157 5.05199 0
M  V30 13236 C 1270.09 0.241526 5.13733 0
M  V30 13237 N 1268.08 0.844371 6.08065 0
M  V30 13238 C 1269.45 1.04269 6.11169 0
M  V30 13239 C 1271.5 0.308398 4.96944 0
M  V30 13240 C 1270.21 1.90459 6.93627 0
M  V30 13241 C 1272.23 1.15742 5.79964 0
M  V30 13242 C 1271.59 1.94651 6.76971 0
M  V30 13243 H 1267.69 -0.23559 0.745668 0
M  V30 13244 H 1270.28 0.0252703 1.94684 0
M  V30 13245 H 1268.45 -2.13509 3.24451 0
M  V30 13246 H 1270.18 -2.0634 3.48146 0
M  V30 13247 H 1266.93 -0.463482 4.71327 0
M  V30 13248 H 1267.36 1.31166 6.64172 0
M  V30 13249 H 1272 -0.287369 4.21822 0
M  V30 13250 H 1269.72 2.51115 7.68093 0
M  V30 13251 H 1273.3 1.2127 5.69021 0
M  V30 13252 H 1272.18 2.59286 7.40095 0
M  V30 13253 N 1269.69 -1.54705 -0.300681 0
M  V30 13254 C 1270.96 -1.6468 -1.05546 0
M  V30 13255 C 1271.34 -0.495292 -2.05207 0
M  V30 13256 O 1270.69 0.507944 -2.22783 0
M  V30 13257 C 1270.9 -3.02702 -1.73703 0
M  V30 13258 C 1272.25 -3.59527 -2.25888 0
M  V30 13259 O 1273.27 -3.05156 -1.83735 0
M  V30 13260 O 1272.13 -4.54727 -3.03126 0
M  V30 13261 H 1269.23 -0.667769 -0.487867 0
M  V30 13262 H 1271.77 -1.6705 -0.298743 0
M  V30 13263 H 1270.55 -3.7795 -1.01338 0
M  V30 13264 H 1270.17 -3.0411 -2.5613 0
M  V30 13265 N 1271.17 0.563888 -1.47167 0
M  V30 13266 C 1272.44 1.32454 -1.43928 0
M  V30 13267 C 1272.82 2.10683 -0.13267 0
M  V30 13268 O 1272.17 2.1063 0.885845 0
M  V30 13269 C 1272.38 2.2347 -2.68071 0
M  V30 13270 C 1273.73 2.84702 -3.15008 0
M  V30 13271 O 1274.75 2.33775 -2.68752 0
M  V30 13272 O 1273.61 3.77251 -3.95404 0
M  V30 13273 H 1270.71 0.596074 -0.573258 0
M  V30 13274 H 1273.25 0.583345 -1.59359 0
M  V30 13275 H 1272.02 1.6522 -3.54708 0
M  V30 13276 H 1271.65 3.04897 -2.55193 0
M  V30 13277 N 1272.64 1.35187 0.810078 0
M  V30 13278 C 1273.89 1.28011 1.56389 0
M  V30 13279 C 1274.21 -0.14622 1.94451 0
M  V30 13280 O 1273.48 -1.08185 1.63318 0
M  V30 13281 H 1272.06 0.470837 0.579932 0
M  V30 13282 H 1274.73 1.69249 0.966476 0
M  V30 13283 H 1273.82 1.89362 2.4809 0
M  V30 13284 N 1274.12 -1.03182 1.19127 0
M  V30 13285 C 1275.03 -2.14875 0.94159 0
M  V30 13286 C 1276.05 -1.73727 -0.0973872 0
M  V30 13287 O 1277.22 -2.01214 0.0865775 0
M  V30 13288 C 1274.29 -3.43356 0.480366 0
M  V30 13289 C 1273.35 -3.98835 1.58838 0
M  V30 13290 C 1272.58 -5.21183 1.14907 0
M  V30 13291 O 1272.81 -5.70399 0.0114141 0
M  V30 13292 O 1271.74 -5.69423 1.95042 0
M  V30 13293 H 1275.57 -2.38799 1.8764 0
M  V30 13294 H 1273.15 -1.13299 0.973841 0
M  V30 13295 H 1275.03 -4.20763 0.231658 0
M  V30 13296 H 1273.71 -3.20884 -0.426041 0
M  V30 13297 H 1272.62 -3.22776 1.8912 0
M  V30 13298 H 1273.95 -4.25665 2.47123 0
M  V30 13299 N 1275.6 -0.99472 -1.22242 0
M  V30 13300 C 1276.83 -0.689809 -1.95592 0
M  V30 13301 C 1277.25 0.739321 -1.72961 0
M  V30 13302 O 1276.61 1.50563 -1.00997 0
M  V30 13303 C 1276.66 -1.00367 -3.46351 0
M  V30 13304 O 1275.76 -0.103326 -4.12271 0
M  V30 13305 H 1275.1 -0.257997 -0.611828 0
M  V30 13306 H 1277.63 -1.33219 -1.55286 0
M  V30 13307 H 1277.64 -0.946259 -3.96875 0
M  V30 13308 H 1276.32 -2.04504 -3.62148 0
M  V30 13309 H 1274.89 -0.216374 -3.72272 0
M  V30 13310 N 1277.08 1.37613 -0.768148 0
M  V30 13311 C 1278.01 2.3291 -0.165911 0
M  V30 13312 C 1278.99 1.556 0.687205 0
M  V30 13313 O 1280.17 1.83854 0.625407 0
M  V30 13314 C 1277.3 3.39822 0.7168 0
M  V30 13315 C 1276.26 4.27986 -0.0347264 0
M  V30 13316 C 1275.58 5.2588 0.967192 0
M  V30 13317 C 1276.88 5.08052 -1.21164 0
M  V30 13318 H 1278.58 2.83524 -0.962006 0
M  V30 13319 H 1276.12 1.36318 -0.464051 0
M  V30 13320 H 1278.08 4.05464 1.14789 0
M  V30 13321 H 1276.8 2.87725 1.54538 0
M  V30 13322 H 1275.46 3.6387 -0.446557 0
M  V30 13323 H 1275.11 4.70064 1.79022 0
M  V30 13324 H 1274.81 5.85726 0.468913 0
M  V30 13325 H 1276.33 5.94397 1.3973 0
M  V30 13326 H 1277.75 5.66853 -0.857373 0
M  V30 13327 H 1276.14 5.77206 -1.64176 0
M  V30 13328 H 1277.21 4.40936 -2.0175 0
M  V30 13329 N 1278.56 0.518393 1.4883 0
M  V30 13330 C 1279.47 -0.254811 2.33212 0
M  V30 13331 C 1280.48 -0.950401 1.45751 0
M  V30 13332 O 1281.66 -0.927932 1.78749 0
M  V30 13333 C 1278.72 -1.29509 3.21603 0
M  V30 13334 C 1277.78 -0.611086 4.24928 0
M  V30 13335 C 1277.02 -1.6018 5.09095 0
M  V30 13336 O 1277.24 -2.83336 4.95052 0
M  V30 13337 O 1276.17 -1.14756 5.90859 0
M  V30 13338 H 1280 0.436329 3.00549 0
M  V30 13339 H 1277.59 0.27947 1.46763 0
M  V30 13340 H 1279.47 -1.89654 3.7631 0
M  V30 13341 H 1278.14 -1.96884 2.5694 0
M  V30 13342 H 1277.05 0.0305638 3.74088 0
M  V30 13343 H 1278.38 0.0205249 4.92196 0
M  V30 13344 N 1280.03 -1.55556 0.252993 0
M  V30 13345 C 1281.28 -1.99385 -0.370599 0
M  V30 13346 C 1281.61 -1.14101 -1.57145 0
M  V30 13347 O 1280.89 -0.205828 -1.93408 0
M  V30 13348 C 1281.17 -3.51672 -0.774503 0
M  V30 13349 C 1281.02 -4.47719 0.432159 0
M  V30 13350 C 1282.34 -4.0923 -1.61923 0
M  V30 13351 H 1279.46 -0.724858 -0.133231 0
M  V30 13352 H 1282.1 -1.86644 0.355522 0
M  V30 13353 H 1280.25 -3.62661 -1.39318 0
M  V30 13354 H 1281.93 -4.48704 1.07063 0
M  V30 13355 H 1280.17 -4.2029 1.07419 0
M  V30 13356 H 1280.84 -5.51898 0.106123 0
M  V30 13357 H 1283.32 -4.01381 -1.09693 0
M  V30 13358 H 1282.19 -5.16039 -1.87068 0
M  V30 13359 H 1282.45 -3.58067 -2.59307 0
M  V30 13360 N 1281.51 0.0200419 -1.57587 0
M  V30 13361 C 1282.44 1.01715 -2.10181 0
M  V30 13362 C 1283.42 1.37136 -1.00636 0
M  V30 13363 O 1284.61 1.45862 -1.2821 0
M  V30 13364 C 1281.74 2.31531 -2.58865 0
M  V30 13365 C 1280.69 2.10327 -3.72755 0
M  V30 13366 C 1280.02 3.45981 -4.07678 0
M  V30 13367 C 1281.32 1.4821 -5.0083 0
M  V30 13368 H 1283.01 0.579307 -2.93742 0
M  V30 13369 H 1280.56 0.277211 -1.41307 0
M  V30 13370 H 1282.51 3.01623 -2.94281 0
M  V30 13371 H 1281.24 2.77392 -1.72399 0
M  V30 13372 H 1279.89 1.42665 -3.37701 0
M  V30 13373 H 1279.54 3.89508 -3.18265 0
M  V30 13374 H 1279.24 3.32616 -4.84397 0
M  V30 13375 H 1280.77 4.17421 -4.45637 0
M  V30 13376 H 1282.18 2.08232 -5.34146 0
M  V30 13377 H 1280.58 1.45393 -5.82221 0
M  V30 13378 H 1281.65 0.448942 -4.82817 0
M  V30 13379 N 1282.99 1.54862 0.292472 0
M  V30 13380 C 1283.9 1.89472 1.38339 0
M  V30 13381 C 1284.92 0.789783 1.55043 0
M  V30 13382 O 1286.09 1.08705 1.69544 0
M  V30 13383 C 1283.16 2.14244 2.72581 0
M  V30 13384 C 1282.22 3.37913 2.64789 0
M  V30 13385 C 1281.45 3.61494 3.92629 0
M  V30 13386 O 1281.67 2.87931 4.92394 0
M  V30 13387 O 1280.61 4.55019 3.94007 0
M  V30 13388 H 1284.43 2.82298 1.11989 0
M  V30 13389 H 1282.02 1.41161 0.489291 0
M  V30 13390 H 1283.9 2.31689 3.51991 0
M  V30 13391 H 1282.58 1.24603 2.98757 0
M  V30 13392 H 1281.48 3.25823 1.83821 0
M  V30 13393 H 1282.82 4.27711 2.43565 0
M  V30 13394 N 1284.47 -0.556076 1.47464 0
M  V30 13395 C 1285.88 -0.882115 1.33007 0
M  V30 13396 C 1286.08 -1.9892 0.321407 0
M  V30 13397 O 1285.14 -2.51088 -0.266668 0
M  V30 13398 C 1286.45 -1.27428 2.72365 0
M  V30 13399 C 1288 -1.38564 2.80658 0
M  V30 13400 C 1288.48 -1.81136 4.20659 0
M  V30 13401 N 1289.97 -1.88284 4.23206 0
M  V30 13402 C 1290.7 -2.22555 5.28447 0
M  V30 13403 N 1290.2 -2.55432 6.43993 0
M  V30 13404 N 1291.99 -2.23339 5.15826 0
M  V30 13405 H 1284.14 0.17481 2.11679 0
M  V30 13406 H 1286.41 0.0155421 0.947873 0
M  V30 13407 H 1286.11 -0.53463 3.47613 0
M  V30 13408 H 1285.99 -2.23019 3.04208 0
M  V30 13409 H 1288.37 -2.1161 2.05682 0
M  V30 13410 H 1288.45 -0.411588 2.52467 0
M  V30 13411 H 1288.1 -1.08659 4.96141 0
M  V30 13412 H 1288.03 -2.79546 4.46275 0
M  V30 13413 H 1290.52 -1.65259 3.3985 0
M  V30 13414 H 1290.83 -2.80612 7.20053 0
M  V30 13415 H 1289.18 -2.5301 6.47311 0
M  V30 13416 H 1292.37 -1.97094 4.24584 0
M  V30 13417 H 1292.54 -2.49717 5.97951 0
M  V30 13418 N 1285.95 -1.35615 -0.802897 0
M  V30 13419 C 1287.2 -1.28839 -1.55708 0
M  V30 13420 C 1287.52 0.135906 -1.94526 0
M  V30 13421 O 1286.79 1.07317 -1.6389 0
M  V30 13422 H 1285.37 -0.473906 -0.577427 0
M  V30 13423 H 1288.03 -1.69759 -0.957487 0
M  V30 13424 H 1287.12 -1.90675 -2.47082 0
M  V30 13425 N 1287.43 1.02549 -1.19673 0
M  V30 13426 C 1288.39 2.09064 -0.939407 0
M  V30 13427 C 1289.39 1.60593 0.0814837 0
M  V30 13428 O 1290.58 1.73521 -0.153626 0
M  V30 13429 C 1287.71 3.38395 -0.412513 0
M  V30 13430 H 1288.9 2.33325 -1.88413 0
M  V30 13431 H 1286.46 1.19211 -1.01086 0
M  V30 13432 H 1287.19 3.19805 0.538094 0
M  V30 13433 H 1286.98 3.74898 -1.14863 0
M  V30 13434 H 1288.47 4.16841 -0.251678 0
M  V30 13435 N 1288.9 1.00119 1.21713 0
M  V30 13436 C 1290.13 0.699416 1.94401 0
M  V30 13437 C 1290.54 -0.741376 1.7407 0
M  V30 13438 O 1289.88 -1.51286 1.04203 0
M  V30 13439 C 1289.95 0.935875 3.47105 0
M  V30 13440 C 1289.61 2.36276 3.91181 0
M  V30 13441 C 1290.61 3.34276 3.9819 0
M  V30 13442 C 1288.29 2.6994 4.23601 0
M  V30 13443 C 1290.29 4.6401 4.37005 0
M  V30 13444 C 1287.97 3.99891 4.62094 0
M  V30 13445 C 1288.97 4.96737 4.68766 0
M  V30 13446 O 1288.66 6.24364 5.06384 0
M  V30 13447 H 1288.39 0.257233 0.625146 0
M  V30 13448 H 1290.95 1.34098 1.55585 0
M  V30 13449 H 1289.18 0.237133 3.85972 0
M  V30 13450 H 1290.86 0.628075 4.01011 0
M  V30 13451 H 1291.63 3.09603 3.73324 0
M  V30 13452 H 1287.51 1.95257 4.17607 0
M  V30 13453 H 1291.05 5.39601 4.42128 0
M  V30 13454 H 1286.95 4.2435 4.86412 0
M  V30 13455 H 1287.72 6.28424 5.24429 0
M  V30 13456 N 1290.38 -1.37203 0.775435 0
M  V30 13457 C 1291.61 -2.03868 0.352927 0
M  V30 13458 C 1292.02 -1.58482 -1.0261 0
M  V30 13459 O 1291.38 -0.767772 -1.65564 0
M  V30 13460 C 1291.43 -3.59378 0.39116 0
M  V30 13461 O 1291.15 -4.03103 1.71579 0
M  V30 13462 C 1292.65 -4.4328 -0.0424808 0
M  V30 13463 H 1289.87 -0.654619 0.14736 0
M  V30 13464 H 1292.42 -1.75463 1.05039 0
M  V30 13465 H 1290.57 -3.86542 -0.257752 0
M  V30 13466 H 1290.99 -4.9764 1.65695 0
M  V30 13467 H 1292.46 -5.51989 0.0354215 0
M  V30 13468 H 1292.94 -4.25374 -1.09333 0
M  V30 13469 H 1293.54 -4.21349 0.578384 0
M  V30 13470 N 1291.86 -0.526279 -1.48553 0
M  V30 13471 C 1292.79 0.275579 -2.27537 0
M  V30 13472 C 1293.8 0.90782 -1.35139 0
M  V30 13473 O 1294.99 0.786887 -1.6022 0
M  V30 13474 C 1292.09 1.40515 -3.08397 0
M  V30 13475 C 1291.27 0.875523 -4.28548 0
M  V30 13476 C 1290.33 1.88577 -4.91249 0
M  V30 13477 O 1289.35 1.44419 -5.50574 0
M  V30 13478 N 1290.55 3.21774 -4.83158 0
M  V30 13479 H 1293.32 -0.401803 -2.96994 0
M  V30 13480 H 1290.88 -0.360378 -1.57838 0
M  V30 13481 H 1292.87 2.07907 -3.47213 0
M  V30 13482 H 1291.44 1.98626 -2.41384 0
M  V30 13483 H 1290.66 0.025728 -3.94192 0
M  V30 13484 H 1291.95 0.500493 -5.06332 0
M  V30 13485 H 1291.35 3.60319 -4.36104 0
M  V30 13486 H 1289.9 3.84808 -5.26085 0
M  V30 13487 N 1293.34 1.5542 -0.261239 0
M  V30 13488 C 1294.58 1.99579 0.36002 0
M  V30 13489 C 1294.92 1.14933 1.56538 0
M  V30 13490 O 1294.19 0.216082 1.93296 0
M  V30 13491 C 1294.47 3.52078 0.755842 0
M  V30 13492 C 1294.33 4.47484 -0.455896 0
M  V30 13493 C 1295.65 4.10083 1.5975 0
M  V30 13494 H 1292.77 0.725554 0.129385 0
M  V30 13495 H 1295.41 1.86453 -0.365415 0
M  V30 13496 H 1293.56 3.63394 1.37393 0
M  V30 13497 H 1295.23 4.4813 -1.09441 0
M  V30 13498 H 1293.47 4.19714 -1.09646 0
M  V30 13499 H 1294.14 5.51834 -0.13539 0
M  V30 13500 H 1296.62 4.01957 1.07562 0
M  V30 13501 H 1295.5 5.17024 1.84329 0
M  V30 13502 H 1295.76 3.59438 2.57404 0
M  V30 13503 N 1294.82 -0.0116844 1.57596 0
M  V30 13504 C 1296.06 -0.698089 1.89234 0
M  V30 13505 C 1296.38 -1.75581 0.862016 0
M  V30 13506 O 1297.58 -2.49602 1.06822 0
M  V30 13507 C 1296.04 -1.29277 3.3588 0
M  V30 13508 C 1295.65 -0.27049 4.47183 0
M  V30 13509 C 1297.39 -1.95805 3.76644 0
M  V30 13510 C 1295.3 -0.874502 5.84899 0
M  V30 13511 H 1294.23 -0.264495 0.706087 0
M  V30 13512 H 1296.88 0.0469451 1.8344 0
M  V30 13513 H 1295.26 -2.08809 3.36474 0
M  V30 13514 H 1296.44 0.499381 4.58086 0
M  V30 13515 H 1294.75 0.293676 4.15363 0
M  V30 13516 H 1297.35 -2.41879 4.76863 0
M  V30 13517 H 1297.69 -2.78366 3.09545 0
M  V30 13518 H 1298.22 -1.23023 3.78299 0
M  V30 13519 H 1294.96 -0.0879263 6.55441 0
M  V30 13520 H 1294.48 -1.61381 5.77682 0
M  V30 13521 H 1296.16 -1.37665 6.32185 0
M  V30 13522 N 1296.29 -1.55015 -0.284256 0
M  V30 13523 C 1297.54 -1.7509 -1.01733 0
M  V30 13524 C 1297.87 -0.545803 -1.86685 0
M  V30 13525 O 1297.12 0.471951 -1.89924 0
M  V30 13526 C 1297.42 -3.00246 -1.93874 0
M  V30 13527 C 1297.09 -4.33295 -1.24764 0
M  V30 13528 C 1295.75 -4.69459 -1.0565 0
M  V30 13529 C 1298.1 -5.15704 -0.754939 0
M  V30 13530 C 1295.43 -5.85596 -0.35976 0
M  V30 13531 C 1297.78 -6.32559 -0.0718473 0
M  V30 13532 C 1296.45 -6.67371 0.131104 0
M  V30 13533 H 1295.72 -0.6407 -0.372269 0
M  V30 13534 H 1298.36 -1.89282 -0.290638 0
M  V30 13535 H 1296.67 -2.80907 -2.73127 0
M  V30 13536 H 1298.37 -3.12974 -2.50696 0
M  V30 13537 H 1294.96 -4.04865 -1.4065 0
M  V30 13538 H 1299.14 -4.8825 -0.89027 0
M  V30 13539 H 1294.4 -6.11099 -0.19169 0
M  V30 13540 H 1298.57 -6.95675 0.317743 0
M  V30 13541 H 1296.2 -7.57215 0.672977 0
M  V30 13542 N 1297.77 0.548248 -1.47757 0
M  V30 13543 C 1298.7 1.66409 -1.63799 0
M  V30 13544 C 1299.68 1.62973 -0.487211 0
M  V30 13545 O 1300.87 1.80455 -0.717612 0
M  V30 13546 C 1298 3.05035 -1.66046 0
M  V30 13547 C 1296.95 3.23322 -2.80441 0
M  V30 13548 C 1296.28 4.62824 -2.67765 0
M  V30 13549 C 1297.58 3.07837 -4.2194 0
M  V30 13550 H 1299.27 1.53239 -2.57212 0
M  V30 13551 H 1296.82 0.735783 -1.23783 0
M  V30 13552 H 1298.77 3.82951 -1.75859 0
M  V30 13553 H 1297.49 3.19185 -0.69199 0
M  V30 13554 H 1296.15 2.47816 -2.70153 0
M  V30 13555 H 1295.8 4.73786 -1.68927 0
M  V30 13556 H 1295.5 4.76007 -3.44515 0
M  V30 13557 H 1297.03 5.42864 -2.7952 0
M  V30 13558 H 1298.44 3.75563 -4.33157 0
M  V30 13559 H 1296.84 3.32525 -4.99547 0
M  V30 13560 H 1297.91 2.04474 -4.3968 0
M  V30 13561 N 1299.25 1.36039 0.795694 0
M  V30 13562 C 1300.21 1.29709 1.88966 0
M  V30 13563 C 1301.21 0.206142 1.59473 0
M  V30 13564 O 1302.4 0.460534 1.68002 0
M  V30 13565 C 1299.53 1.00922 3.25619 0
M  V30 13566 H 1300.73 2.26993 1.95995 0
M  V30 13567 H 1298.28 1.2072 0.992791 0
M  V30 13568 H 1299.02 0.0407027 3.24274 0
M  V30 13569 H 1298.8 1.79863 3.48413 0
M  V30 13570 H 1300.29 0.990826 4.05675 0
M  V30 13571 N 1300.73 -1.01913 1.20215 0
M  V30 13572 C 1302.14 -1.27766 0.956459 0
M  V30 13573 C 1302.34 -1.98158 -0.365486 0
M  V30 13574 O 1301.4 -2.27539 -1.09463 0
M  V30 13575 C 1302.71 -2.11516 2.13732 0
M  V30 13576 C 1304.26 -2.24792 2.17802 0
M  V30 13577 C 1304.74 -3.11919 3.35367 0
M  V30 13578 N 1306.23 -3.19507 3.35364 0
M  V30 13579 C 1306.96 -3.8714 4.22978 0
M  V30 13580 N 1306.46 -4.5692 5.20765 0
M  V30 13581 N 1308.25 -3.83638 4.10827 0
M  V30 13582 H 1300.4 -0.546426 2.05251 0
M  V30 13583 H 1302.67 -0.303772 0.898012 0
M  V30 13584 H 1302.37 -1.67127 3.09453 0
M  V30 13585 H 1302.25 -3.12249 2.11614 0
M  V30 13586 H 1304.63 -2.68407 1.22645 0
M  V30 13587 H 1304.71 -1.23576 2.2397 0
M  V30 13588 H 1304.36 -2.6901 4.30809 0
M  V30 13589 H 1304.29 -4.13215 3.26436 0
M  V30 13590 H 1306.78 -2.69819 2.64587 0
M  V30 13591 H 1307.09 -5.06188 5.83947 0
M  V30 13592 H 1305.44 -4.55753 5.24704 0
M  V30 13593 H 1308.63 -3.28268 3.33703 0
M  V30 13594 H 1308.8 -4.36071 4.79318 0
M  V30 13595 N 1302.21 -1.00763 -1.2118 0
M  V30 13596 C 1303.15 -0.563428 -2.25673 0
M  V30 13597 C 1304.15 0.393342 -1.6477 0
M  V30 13598 O 1305.35 0.264246 -1.7805 0
M  V30 13599 H 1301.73 -0.163862 -0.73393 0
M  V30 13600 H 1303.7 -1.45585 -2.60476 0
M  V30 13601 C 1302.45 0.0915599 -3.47579 0
M  V30 13602 H 1301.77 -0.635628 -3.94715 0
M  V30 13603 H 1303.21 0.36561 -4.22421 0
M  V30 13604 C 1301.67 1.33159 -3.09468 0
M  V30 13605 O 1302.2 2.42571 -3.20191 0
M  V30 13606 N 1300.41 1.21231 -2.64105 0
M  V30 13607 H 1299.95 0.322021 -2.55579 0
M  V30 13608 H 1299.91 2.04301 -2.38974 0
M  V30 13609 N 1303.68 1.3679 -0.7827 0
M  V30 13610 C 1304.63 2.32019 -0.164358 0
M  V30 13611 C 1305.63 1.55476 0.672571 0
M  V30 13612 O 1306.83 1.7079 0.568406 0
M  V30 13613 H 1303.21 0.751214 -0.0343697 0
M  V30 13614 H 1305.18 2.81741 -0.983077 0
M  V30 13615 C 1303.93 3.4075 0.691727 0
M  V30 13616 H 1303.25 3.99759 0.0570885 0
M  V30 13617 H 1304.69 4.09719 1.09117 0
M  V30 13618 C 1303.15 2.81753 1.84708 0
M  V30 13619 O 1303.68 2.73378 2.94325 0
M  V30 13620 N 1301.89 2.39138 1.6511 0
M  V30 13621 H 1301.43 2.46149 0.759487 0
M  V30 13622 H 1301.39 2.0001 2.42576 0
M  V30 13623 N 1305.16 0.53415 1.48272 0
M  V30 13624 C 1306.39 0.00574475 2.06899 0
M  V30 13625 C 1306.81 -1.27754 1.39012 0
M  V30 13626 O 1306.16 -1.76102 0.478993 0
M  V30 13627 C 1306.21 -0.217576 3.60845 0
M  V30 13628 O 1305.93 1.01487 4.26183 0
M  V30 13629 C 1307.44 -0.785888 4.36278 0
M  V30 13630 H 1304.66 0.0353967 0.670066 0
M  V30 13631 H 1307.2 0.740984 1.90603 0
M  V30 13632 H 1305.35 -0.902875 3.76732 0
M  V30 13633 H 1305.77 0.7982 5.18391 0
M  V30 13634 H 1307.24 -0.891551 5.44753 0
M  V30 13635 H 1307.72 -1.79178 4.00989 0
M  V30 13636 H 1308.33 -0.137022 4.25079 0
M  V30 13637 N 1306.64 -1.55279 0.269478 0
M  V30 13638 C 1307.89 -1.98649 -0.349522 0
M  V30 13639 C 1308.2 -1.16125 -1.57399 0
M  V30 13640 O 1309.41 -1.49612 -2.26558 0
M  V30 13641 C 1307.86 -3.53547 -0.673224 0
M  V30 13642 C 1307.47 -4.44841 0.531119 0
M  V30 13643 C 1309.22 -4.05519 -1.25516 0
M  V30 13644 C 1307.12 -5.91119 0.182317 0
M  V30 13645 H 1306.05 -0.74193 -0.13437 0
M  V30 13646 H 1308.7 -1.79664 0.373246 0
M  V30 13647 H 1307.09 -3.68311 -1.45474 0
M  V30 13648 H 1308.26 -4.41843 1.3081 0
M  V30 13649 H 1306.58 -4.03472 1.02952 0
M  V30 13650 H 1309.17 -5.12347 -1.52984 0
M  V30 13651 H 1309.52 -3.54215 -2.18718 0
M  V30 13652 H 1310.05 -3.94172 -0.536059 0
M  V30 13653 H 1306.79 -6.46507 1.08206 0
M  V30 13654 H 1306.31 -5.97199 -0.558008 0
M  V30 13655 H 1307.99 -6.466 -0.227484 0
M  V30 13656 N 1308.12 0.00332656 -1.576 0
M  V30 13657 C 1309.36 0.68989 -1.90705 0
M  V30 13658 C 1309.7 1.73608 -0.870291 0
M  V30 13659 O 1308.97 1.94181 0.111416 0
M  V30 13660 C 1309.26 1.33605 -3.34397 0
M  V30 13661 C 1309.11 0.301638 -4.48787 0
M  V30 13662 C 1310.43 2.26313 -3.77453 0
M  V30 13663 H 1307.55 0.249328 -0.693545 0
M  V30 13664 H 1310.19 -0.0472847 -1.89941 0
M  V30 13665 H 1308.34 1.96437 -3.35179 0
M  V30 13666 H 1310.01 -0.326738 -4.60141 0
M  V30 13667 H 1308.25 -0.376451 -4.32163 0
M  V30 13668 H 1308.92 0.792741 -5.46278 0
M  V30 13669 H 1311.4 1.73502 -3.78201 0
M  V30 13670 H 1310.28 2.68492 -4.78752 0
M  V30 13671 H 1310.54 3.14082 -3.11135 0
M  V30 13672 N 1309.6 1.55164 0.276031 0
M  V30 13673 C 1310.54 1.88623 1.36104 0
M  V30 13674 C 1311.54 0.762265 1.51281 0
M  V30 13675 O 1312.74 0.946573 1.53101 0
M  V30 13676 H 1309.12 0.59863 0.455133 0
M  V30 13677 H 1311.09 2.79266 1.05134 0
M  V30 13678 C 1309.84 2.17207 2.71508 0
M  V30 13679 H 1309.16 3.03179 2.6062 0
M  V30 13680 H 1310.6 2.44541 3.46375 0
M  V30 13681 C 1309.06 0.978671 3.22372 0
M  V30 13682 O 1309.59 0.211766 4.01141 0
M  V30 13683 N 1307.8 0.777199 2.80014 0
M  V30 13684 H 1307.34 1.40252 2.16072 0
M  V30 13685 H 1307.3 -0.0196754 3.14394 0
M  V30 13686 N 1311.07 -0.540404 1.48045 0
M  V30 13687 C 1311.98 -1.67308 1.64455 0
M  V30 13688 C 1313 -1.65823 0.527152 0
M  V30 13689 O 1314.18 -1.84964 0.796881 0
M  V30 13690 C 1311.24 -3.03792 1.67068 0
M  V30 13691 C 1310.3 -3.16213 2.90358 0
M  V30 13692 C 1309.54 -4.46187 2.92837 0
M  V30 13693 O 1309.76 -5.32662 2.04029 0
M  V30 13694 O 1308.69 -4.62754 3.84892 0
M  V30 13695 H 1312.52 -1.56403 2.6033 0
M  V30 13696 H 1310.1 -0.712323 1.31325 0
M  V30 13697 H 1311.99 -3.84982 1.71368 0
M  V30 13698 H 1310.66 -3.15043 0.74363 0
M  V30 13699 H 1309.57 -2.34357 2.91595 0
M  V30 13700 H 1310.9 -3.09874 3.82412 0
M  V30 13701 N 1312.55 -1.36459 -0.788468 0
M  V30 13702 C 1313.48 -1.33545 -1.91541 0
M  V30 13703 C 1314.46 -0.206762 -1.68839 0
M  V30 13704 O 1315.65 -0.404553 -1.89939 0
M  V30 13705 C 1312.78 -1.12492 -3.28577 0
M  V30 13706 C 1311.73 -2.22196 -3.65805 0
M  V30 13707 C 1311.06 -1.86285 -5.01201 0
M  V30 13708 C 1312.36 -3.64286 -3.7429 0
M  V30 13709 H 1314.05 -2.27844 -1.94236 0
M  V30 13710 H 1311.6 -1.09677 -0.933105 0
M  V30 13711 H 1313.55 -1.09089 -4.07035 0
M  V30 13712 H 1312.28 -0.146446 -3.26272 0
M  V30 13713 H 1310.93 -2.24727 -2.89644 0
M  V30 13714 H 1310.58 -0.87009 -4.95417 0
M  V30 13715 H 1310.28 -2.59734 -5.27079 0
M  V30 13716 H 1311.81 -1.84439 -5.82078 0
M  V30 13717 H 1313.22 -3.63977 -4.42937 0
M  V30 13718 H 1311.62 -4.36648 -4.11653 0
M  V30 13719 H 1312.69 -3.99123 -2.75371 0
M  V30 13720 N 1314.03 1.01274 -1.20754 0
M  V30 13721 C 1315.28 1.75191 -1.02156 0
M  V30 13722 C 1315.61 1.89038 0.444791 0
M  V30 13723 O 1314.88 1.41903 1.33018 0
M  V30 13724 C 1315.17 3.16892 -1.71031 0
M  V30 13725 C 1315.02 3.10816 -3.25136 0
M  V30 13726 C 1316.34 4.15648 -1.44654 0
M  V30 13727 H 1313.46 0.635922 -0.372521 0
M  V30 13728 H 1316.1 1.18119 -1.48822 0
M  V30 13729 H 1314.25 3.6562 -1.31357 0
M  V30 13730 H 1315.92 2.69863 -3.74128 0
M  V30 13731 H 1314.17 2.48113 -3.5584 0
M  V30 13732 H 1314.84 4.11001 -3.68487 0
M  V30 13733 H 1317.31 3.75592 -1.7908 0
M  V30 13734 H 1316.19 5.12954 -1.95371 0
M  V30 13735 H 1316.45 4.40507 -0.37494 0
M  V30 13736 N 1315.51 1.01404 1.20644 0
M  V30 13737 C 1316.93 0.728446 1.42006 0
M  V30 13738 C 1317.13 -0.692894 1.89212 0
M  V30 13739 O 1316.18 -1.46101 2.05939 0
M  V30 13740 C 1317.49 1.75198 2.44389 0
M  V30 13741 C 1319.04 1.76983 2.58159 0
M  V30 13742 C 1319.52 2.78256 3.63782 0
M  V30 13743 N 1321.01 2.7698 3.71263 0
M  V30 13744 C 1321.74 3.51999 4.52641 0
M  V30 13745 N 1321.24 4.36687 5.37844 0
M  V30 13746 N 1323.03 3.40608 4.47149 0
M  V30 13747 H 1315.18 1.93168 0.883172 0
M  V30 13748 H 1317.45 0.834287 0.450187 0
M  V30 13749 H 1317.15 2.77013 2.16695 0
M  V30 13750 H 1317.03 1.56203 3.43337 0
M  V30 13751 H 1319.41 0.758551 2.85184 0
M  V30 13752 H 1319.49 2.00051 1.59415 0
M  V30 13753 H 1319.14 3.79546 3.37501 0
M  V30 13754 H 1319.07 2.5245 4.62143 0
M  V30 13755 H 1321.56 2.15546 3.104 0
M  V30 13756 H 1321.87 4.90703 5.97018 0
M  V30 13757 H 1320.22 4.40766 5.37355 0
M  V30 13758 H 1323.41 2.73872 3.79621 0
M  V30 13759 H 1323.58 3.99327 5.10335 0
M  V30 13760 N 1316.99 -1.36373 0.789944 0
M  V30 13761 C 1318.23 -1.99523 0.363119 0
M  V30 13762 C 1318.57 -1.6255 -1.0626 0
M  V30 13763 O 1317.84 -0.880551 -1.73426 0
M  V30 13764 C 1318.12 -3.56215 0.527526 0
M  V30 13765 C 1317.98 -4.0304 1.99697 0
M  V30 13766 C 1319.3 -4.40063 -0.0571079 0
M  V30 13767 H 1316.42 -0.724824 0.133412 0
M  V30 13768 H 1319.06 -1.61778 0.996381 0
M  V30 13769 H 1317.21 -3.88498 -0.0115636 0
M  V30 13770 H 1318.88 -3.81241 2.59717 0
M  V30 13771 H 1317.12 -3.54561 2.49939 0
M  V30 13772 H 1317.79 -5.12001 2.06297 0
M  V30 13773 H 1320.27 -4.14143 0.403082 0
M  V30 13774 H 1319.15 -5.4883 0.0879494 0
M  V30 13775 H 1319.41 -4.26901 -1.14926 0
M  V30 13776 N 1318.47 -0.542005 -1.47987 0
M  V30 13777 C 1319.69 -0.016717 -2.06893 0
M  V30 13778 C 1320.11 1.27015 -1.39687 0
M  V30 13779 O 1319.47 1.75845 -0.488326 0
M  V30 13780 C 1319.52 0.198437 -3.60955 0
M  V30 13781 O 1319.24 -1.03746 -4.25639 0
M  V30 13782 C 1320.74 0.762741 -4.36689 0
M  V30 13783 H 1317.96 -0.0389497 -0.669869 0
M  V30 13784 H 1320.5 -0.751082 -1.90208 0
M  V30 13785 H 1318.66 0.882884 -3.77205 0
M  V30 13786 H 1319.07 -0.82568 -5.1796 0
M  V30 13787 H 1320.55 0.862649 -5.45218 0
M  V30 13788 H 1321.02 1.77049 -4.01933 0
M  V30 13789 H 1321.63 0.114478 -4.25146 0
M  V30 13790 N 1319.94 1.55134 -0.277709 0
M  V30 13791 C 1321.17 2.04519 0.344472 0
M  V30 13792 C 1321.59 1.15466 1.4849 0
M  V30 13793 O 1320.95 0.153798 1.80646 0
M  V30 13794 C 1321 3.51602 0.800527 0
M  V30 13795 O 1320.1 3.65632 1.90754 0
M  V30 13796 H 1319.44 0.660212 0.0708226 0
M  V30 13797 H 1321.97 2.00393 -0.412764 0
M  V30 13798 H 1321.98 3.93015 1.09559 0
M  V30 13799 H 1320.66 4.15886 -0.033838 0
M  V30 13800 H 1319.24 3.36122 1.61481 0
M  V30 13801 N 1321.42 0.00503138 1.57599 0
M  V30 13802 C 1322.33 -1.00097 2.12174 0
M  V30 13803 C 1323.35 -1.37353 1.06818 0
M  V30 13804 O 1324.52 -1.45984 1.38747 0
M  V30 13805 C 1321.59 -2.27252 2.61835 0
M  V30 13806 C 1320.65 -1.96262 3.81811 0
M  V30 13807 C 1319.88 -3.17355 4.29094 0
M  V30 13808 O 1320.11 -4.2921 3.75679 0
M  V30 13809 O 1319.04 -3.01059 5.21198 0
M  V30 13810 H 1322.87 -0.567024 2.9836 0
M  V30 13811 H 1320.45 -0.214109 1.47858 0
M  V30 13812 H 1322.33 -3.01944 2.93952 0
M  V30 13813 H 1321.01 -2.69875 1.78744 0
M  V30 13814 H 1319.91 -1.19031 3.54658 0
M  V30 13815 H 1321.25 -1.58473 4.65991 0
M  V30 13816 N 1322.9 -1.55308 -0.267798 0
M  V30 13817 C 1324.15 -1.75811 -0.996734 0
M  V30 13818 C 1324.47 -0.565161 -1.8663 0
M  V30 13819 O 1323.74 0.419775 -1.9135 0
M  V30 13820 H 1322.32 -0.648353 -0.371008 0
M  V30 13821 H 1324.98 -1.92719 -0.290775 0
M  V30 13822 H 1324.08 -2.66113 -1.63064 0
M  V30 13823 N 1324.38 0.532545 -1.4833 0
M  V30 13824 C 1325.34 1.61955 -1.62183 0
M  V30 13825 C 1326.34 1.52982 -0.495281 0
M  V30 13826 O 1327.53 1.56698 -0.761005 0
M  V30 13827 C 1324.66 3.0157 -1.58961 0
M  V30 13828 H 1325.86 1.51013 -2.59105 0
M  V30 13829 H 1323.41 0.754405 -1.36888 0
M  V30 13830 H 1324.14 3.18021 -0.635069 0
M  V30 13831 H 1323.93 3.09491 -2.40744 0
M  V30 13832 H 1325.42 3.80604 -1.71843 0
M  V30 13833 N 1325.86 1.36875 0.78122 0
M  V30 13834 C 1327.1 1.31299 1.53639 0
M  V30 13835 C 1327.42 -0.104942 1.94717 0
M  V30 13836 O 1326.69 -1.04696 1.65576 0
M  V30 13837 H 1325.27 0.483032 0.569815 0
M  V30 13838 H 1327.94 1.71261 0.930359 0
M  V30 13839 H 1327.03 1.94581 2.44018 0
M  V30 13840 N 1327.33 -1.00632 1.21289 0
M  V30 13841 C 1328.26 -2.11238 0.995021 0
M  V30 13842 C 1329.24 -1.69914 -0.0795537 0
M  V30 13843 O 1330.43 -1.94035 0.0800152 0
M  V30 13844 C 1327.56 -3.42797 0.557475 0
M  V30 13845 C 1326.51 -3.97909 1.57646 0
M  V30 13846 C 1325.84 -5.25357 0.995197 0
M  V30 13847 C 1327.14 -4.30123 2.96297 0
M  V30 13848 H 1328.83 -2.29722 1.9201 0
M  V30 13849 H 1326.38 -1.10395 0.924602 0
M  V30 13850 H 1328.33 -4.19571 0.392236 0
M  V30 13851 H 1327.06 -3.24101 -0.403253 0
M  V30 13852 H 1325.72 -3.23254 1.72924 0
M  V30 13853 H 1325.36 -5.02993 0.026227 0
M  V30 13854 H 1325.06 -5.63196 1.67583 0
M  V30 13855 H 1326.59 -6.04777 0.841251 0
M  V30 13856 H 1328 -4.97744 2.8447 0
M  V30 13857 H 1326.4 -4.79101 3.61361 0
M  V30 13858 H 1327.47 -3.38454 3.47242 0
M  V30 13859 N 1328.81 -1.02043 -1.20104 0
M  V30 13860 C 1329.74 -0.552093 -2.22451 0
M  V30 13861 C 1330.76 0.367547 -1.58597 0
M  V30 13862 O 1331.95 0.165285 -1.77733 0
M  V30 13863 C 1329.05 0.215833 -3.38212 0
M  V30 13864 C 1328.22 -0.70666 -4.31654 0
M  V30 13865 C 1327.28 0.0143628 -5.26198 0
M  V30 13866 O 1326.3 -0.609413 -5.65928 0
M  V30 13867 N 1327.51 1.28794 -5.66032 0
M  V30 13868 H 1330.27 -1.43229 -2.6326 0
M  V30 13869 H 1327.83 -0.89842 -1.34685 0
M  V30 13870 H 1329.82 0.707523 -3.98467 0
M  V30 13871 H 1328.39 0.997358 -2.96263 0
M  V30 13872 H 1327.61 -1.37859 -3.69308 0
M  V30 13873 H 1328.9 -1.33392 -4.91003 0
M  V30 13874 H 1328.3 1.8156 -5.35773 0
M  V30 13875 H 1326.86 1.72429 -6.28579 0
M  V30 13876 N 1330.29 1.35952 -0.797165 0
M  V30 13877 C 1331.22 2.32506 -0.215277 0
M  V30 13878 C 1332.2 1.57023 0.654046 0
M  V30 13879 O 1333.39 1.85139 0.586268 0
M  V30 13880 C 1330.52 3.41266 0.644557 0
M  V30 13881 C 1329.47 4.27816 -0.125501 0
M  V30 13882 C 1328.8 5.27813 0.855428 0
M  V30 13883 C 1330.1 5.05367 -1.31913 0
M  V30 13884 H 1331.79 2.8142 -1.02193 0
M  V30 13885 H 1329.34 1.35303 -0.492862 0
M  V30 13886 H 1331.29 4.07808 1.06163 0
M  V30 13887 H 1330.01 2.90938 1.484 0
M  V30 13888 H 1328.67 3.62841 -0.523639 0
M  V30 13889 H 1328.32 4.73755 1.69011 0
M  V30 13890 H 1328.02 5.86589 0.344566 0
M  V30 13891 H 1329.54 5.97227 1.2709 0
M  V30 13892 H 1330.96 5.64907 -0.977418 0
M  V30 13893 H 1329.36 5.73593 -1.76382 0
M  V30 13894 H 1330.43 4.36558 -2.11057 0
M  V30 13895 N 1331.77 0.549846 1.47697 0
M  V30 13896 C 1332.7 -0.239345 2.27947 0
M  V30 13897 C 1333.71 -0.886206 1.36566 0
M  V30 13898 O 1334.9 -0.761298 1.61451 0
M  V30 13899 C 1332 -1.35591 3.10593 0
M  V30 13900 C 1331.18 -0.807234 4.29887 0
M  V30 13901 C 1330.23 -1.80738 4.94187 0
M  V30 13902 O 1329.26 -1.35641 5.52802 0
M  V30 13903 N 1330.46 -3.14046 4.88216 0
M  V30 13904 H 1333.23 0.449001 2.96318 0
M  V30 13905 H 1330.79 0.385443 1.57245 0
M  V30 13906 H 1332.78 -2.02356 3.50477 0
M  V30 13907 H 1331.35 -1.94761 2.44514 0
M  V30 13908 H 1330.57 0.0369877 3.94183 0
M  V30 13909 H 1331.86 -0.419877 5.07065 0
M  V30 13910 H 1331.26 -3.53335 4.41781 0
M  V30 13911 H 1329.81 -3.7639 5.32141 0
M  V30 13912 N 1333.25 -1.54984 0.285932 0
M  V30 13913 C 1334.19 -2.2295 -0.596822 0
M  V30 13914 C 1335.16 -1.20674 -1.14136 0
M  V30 13915 O 1336.35 -1.49249 -1.18867 0
M  V30 13916 C 1333.49 -2.9625 -1.77002 0
M  V30 13917 C 1332.6 -4.13268 -1.25831 0
M  V30 13918 C 1331.74 -4.74187 -2.39417 0
M  V30 13919 C 1330.78 -5.83377 -1.85304 0
M  V30 13920 N 1329.91 -6.38313 -2.92405 0
M  V30 13921 H 1334.75 -2.97998 -0.0106104 0
M  V30 13922 H 1332.29 -1.47099 0.00653041 0
M  V30 13923 H 1334.25 -3.36971 -2.4598 0
M  V30 13924 H 1332.88 -2.23606 -2.3281 0
M  V30 13925 H 1331.93 -3.77593 -0.461278 0
M  V30 13926 H 1333.24 -4.91979 -0.822049 0
M  V30 13927 H 1332.4 -5.17683 -3.16369 0
M  V30 13928 H 1331.13 -3.94775 -2.86364 0
M  V30 13929 H 1330.14 -5.3932 -1.06835 0
M  V30 13930 H 1331.36 -6.64664 -1.3928 0
M  V30 13931 H 1329.31 -5.61791 -3.38713 0
M  V30 13932 H 1329.23 -7.12328 -2.53228 0
M  V30 13933 H 1330.5 -6.86468 -3.69299 0
M  V30 13934 N 1334.72 -0.0133892 -1.57594 0
M  V30 13935 C 1335.97 0.669624 -1.91426 0
M  V30 13936 C 1336.3 1.72675 -0.888656 0
M  V30 13937 O 1335.58 1.94288 0.0908138 0
M  V30 13938 C 1335.86 1.30051 -3.35796 0
M  V30 13939 C 1335.71 0.254021 -4.49082 0
M  V30 13940 C 1337.03 2.22297 -3.79832 0
M  V30 13941 H 1334.15 0.241958 -0.69615 0
M  V30 13942 H 1336.79 -0.0674278 -1.8988 0
M  V30 13943 H 1334.94 1.92871 -3.37243 0
M  V30 13944 H 1336.62 -0.375524 -4.59769 0
M  V30 13945 H 1334.86 -0.422267 -4.3174 0
M  V30 13946 H 1335.53 0.734756 -5.47088 0
M  V30 13947 H 1338.01 1.69481 -3.8002 0
M  V30 13948 H 1336.88 2.634 -4.81572 0
M  V30 13949 H 1337.14 3.10764 -3.14449 0
M  V30 13950 N 1336.2 1.55448 0.259558 0
M  V30 13951 C 1337.43 1.80727 1.00723 0
M  V30 13952 C 1337.85 0.587354 1.79431 0
M  V30 13953 O 1337.2 -0.443819 1.77021 0
M  V30 13954 C 1337.25 3.04064 1.95517 0
M  V30 13955 O 1336.97 4.21346 1.19996 0
M  V30 13956 C 1338.48 3.42049 2.81988 0
M  V30 13957 H 1335.7 0.601713 0.296956 0
M  V30 13958 H 1338.24 2.02486 0.286273 0
M  V30 13959 H 1336.39 2.84392 2.63058 0
M  V30 13960 H 1336.81 4.91164 1.84006 0
M  V30 13961 H 1338.28 4.31485 3.44274 0
M  V30 13962 H 1338.76 2.62059 3.52451 0
M  V30 13963 H 1339.37 3.64027 2.19918 0
M  V30 13964 N 1337.68 -0.524672 1.4861 0
M  V30 13965 C 1338.93 -1.28211 1.5713 0
M  V30 13966 C 1339.26 -1.92626 0.246751 0
M  V30 13967 O 1338.53 -1.79553 -0.747725 0
M  V30 13968 C 1338.82 -2.36737 2.71344 0
M  V30 13969 C 1338.67 -1.76978 4.1352 0
M  V30 13970 C 1339.99 -3.3847 2.81294 0
M  V30 13971 H 1337.11 -0.46479 0.571961 0
M  V30 13972 H 1339.75 -0.583937 1.80804 0
M  V30 13973 H 1337.9 -2.96287 2.51289 0
M  V30 13974 H 1339.57 -1.21438 4.45029 0
M  V30 13975 H 1337.82 -1.07488 4.20272 0
M  V30 13976 H 1338.49 -2.55583 4.89266 0
M  V30 13977 H 1340.96 -2.88882 2.99477 0
M  V30 13978 H 1339.84 -4.11795 3.62928 0
M  V30 13979 H 1340.1 -3.99347 1.89669 0
M  V30 13980 N 1339.16 -1.37287 -0.77395 0
M  V30 13981 C 1340.09 -1.35569 -1.90114 0
M  V30 13982 C 1341.07 -0.224658 -1.6861 0
M  V30 13983 O 1342.25 -0.424676 -1.895 0
M  V30 13984 C 1339.38 -1.15971 -3.27365 0
M  V30 13985 C 1338.34 -2.26063 -3.63427 0
M  V30 13986 C 1337.66 -1.9159 -4.99197 0
M  V30 13987 C 1338.96 -3.68236 -3.70405 0
M  V30 13988 H 1340.66 -2.29891 -1.91808 0
M  V30 13989 H 1338.2 -1.10661 -0.92142 0
M  V30 13990 H 1340.16 -1.134 -4.05855 0
M  V30 13991 H 1338.88 -0.181043 -3.26098 0
M  V30 13992 H 1337.54 -2.27786 -2.87244 0
M  V30 13993 H 1337.19 -0.922586 -4.94467 0
M  V30 13994 H 1336.89 -2.65309 -5.24294 0
M  V30 13995 H 1338.41 -1.90602 -5.80089 0
M  V30 13996 H 1339.83 -3.68655 -4.39052 0
M  V30 13997 H 1338.22 -4.4099 -4.06999 0
M  V30 13998 H 1339.29 -4.02021 -2.71122 0
M  V30 13999 N 1340.64 0.999871 -1.21821 0
M  V30 14000 C 1341.88 1.73497 -1.0365 0
M  V30 14001 C 1342.21 1.90194 0.430271 0
M  V30 14002 O 1341.48 1.45655 1.31002 0
M  V30 14003 H 1340.06 0.642804 -0.380541 0
M  V30 14004 H 1342.72 1.20461 -1.53216 0
M  V30 14005 H 1341.81 2.73215 -1.50864 0
M  V30 14006 N 1342.11 1.02678 1.19562 0
M  V30 14007 C 1343.36 0.723086 1.89471 0
M  V30 14008 C 1343.69 -0.746269 1.79289 0
M  V30 14009 O 1342.97 -1.54322 1.18384 0
M  V30 14010 C 1343.25 1.17224 3.40486 0
M  V30 14011 C 1343.1 2.70266 3.5955 0
M  V30 14012 C 1344.42 0.751397 4.33638 0
M  V30 14013 H 1341.54 0.264155 0.688034 0
M  V30 14014 H 1344.18 1.27633 1.40747 0
M  V30 14015 H 1342.33 0.701544 3.82113 0
M  V30 14016 H 1344.01 3.25266 3.27108 0
M  V30 14017 H 1342.25 3.10758 3.02675 0
M  V30 14018 H 1342.92 2.96748 4.65451 0
M  V30 14019 H 1345.4 1.15621 3.99714 0
M  V30 14020 H 1344.27 1.09358 5.37896 0
M  V30 14021 H 1344.53 -0.346367 4.40741 0
M  V30 14022 N 1343.59 -1.35528 0.804364 0
M  V30 14023 C 1344.56 -2.28153 0.21885 0
M  V30 14024 C 1345.56 -1.49486 -0.592511 0
M  V30 14025 O 1346.75 -1.69274 -0.411319 0
M  V30 14026 C 1343.88 -3.33736 -0.695195 0
M  V30 14027 H 1345.07 -2.81446 1.03576 0
M  V30 14028 H 1342.62 -1.45345 0.574854 0
M  V30 14029 H 1343.36 -2.85625 -1.53587 0
M  V30 14030 H 1343.14 -3.91931 -0.115143 0
M  V30 14031 H 1344.63 -4.02872 -1.09925 0
M  V30 14032 N 1345.07 -0.557671 -1.47404 0
M  V30 14033 C 1346.3 -0.0386599 -2.06864 0
M  V30 14034 C 1346.71 1.25527 -1.41027 0
M  V30 14035 O 1346.07 1.75318 -0.506949 0
M  V30 14036 C 1346.12 0.160141 -3.61145 0
M  V30 14037 O 1345.84 -1.08255 -4.24515 0
M  V30 14038 C 1347.34 0.716381 -4.37473 0
M  V30 14039 H 1344.56 -0.0460523 -0.669418 0
M  V30 14040 H 1347.11 -0.771214 -1.894 0
M  V30 14041 H 1345.26 0.842826 -3.78121 0
M  V30 14042 H 1345.68 -0.88057 -5.17055 0
M  V30 14043 H 1347.15 0.804773 -5.46102 0
M  V30 14044 H 1347.63 1.72776 -4.03788 0
M  V30 14045 H 1348.23 0.0693787 -4.25243 0
M  V30 14046 N 1346.55 1.54831 -0.294147 0
M  V30 14047 C 1347.51 2.21946 0.572061 0
M  V30 14048 C 1348.51 1.20331 1.06663 0
M  V30 14049 O 1349.7 1.45112 0.963757 0
M  V30 14050 C 1346.83 2.90044 1.7913 0
M  V30 14051 H 1348.03 2.99897 -0.0142234 0
M  V30 14052 H 1345.58 1.56235 -0.0449187 0
M  V30 14053 H 1346.32 2.16154 2.4176 0
M  V30 14054 H 1346.1 3.64527 1.44439 0
M  V30 14055 H 1347.59 3.41263 2.40684 0
M  V30 14056 N 1348.03 0.0217466 1.57585 0
M  V30 14057 C 1349.44 -0.51811 1.79367 0
M  V30 14058 C 1349.79 -1.72688 0.931313 0
M  V30 14059 O 1348.91 -2.15949 0.139687 0
M  V30 14060 C 1349.51 -0.946711 3.25304 0
M  V30 14061 C 1348.07 -1.43173 3.48107 0
M  V30 14062 C 1347.22 -0.392996 2.74501 0
M  V30 14063 H 1350.17 0.247822 1.56753 0
M  V30 14064 H 1350.19 -1.81152 3.34611 0
M  V30 14065 H 1349.7 -0.0667536 3.88043 0
M  V30 14066 H 1347.8 -2.33186 2.90612 0
M  V30 14067 H 1347.91 -1.44419 4.56815 0
M  V30 14068 H 1346.28 -0.859471 2.39761 0
M  V30 14069 H 1347.06 0.478368 3.39951 0
M  V30 14070 N 1349.51 -1.55583 -0.251311 0
M  V30 14071 C 1350.44 -1.86388 -1.33387 0
M  V30 14072 C 1351.45 -0.749829 -1.44504 0
M  V30 14073 O 1352.64 -1.0279 -1.45933 0
M  V30 14074 C 1349.74 -2.0311 -2.71293 0
M  V30 14075 C 1348.91 -3.33937 -2.82498 0
M  V30 14076 C 1347.97 -3.40455 -4.01219 0
M  V30 14077 O 1347 -4.13695 -3.90954 0
M  V30 14078 N 1348.2 -2.69427 -5.14188 0
M  V30 14079 H 1350.96 -2.79834 -1.07298 0
M  V30 14080 H 1348.53 -1.55766 -0.441418 0
M  V30 14081 H 1350.52 -2.04817 -3.49045 0
M  V30 14082 H 1349.09 -1.16429 -2.90109 0
M  V30 14083 H 1348.31 -3.44584 -1.91456 0
M  V30 14084 H 1349.6 -4.20176 -2.86931 0
M  V30 14085 H 1348.99 -2.09647 -5.25419 0
M  V30 14086 H 1347.55 -2.76832 -5.90091 0
M  V30 14087 N 1350.98 0.516783 -1.48886 0
M  V30 14088 C 1351.92 1.63632 -1.60491 0
M  V30 14089 C 1352.93 1.55301 -0.488424 0
M  V30 14090 O 1354.12 1.6152 -0.75983 0
M  V30 14091 C 1351.22 3.02351 -1.53093 0
M  V30 14092 C 1350.39 3.36028 -2.80006 0
M  V30 14093 C 1349.45 4.54087 -2.65879 0
M  V30 14094 O 1348.48 4.56652 -3.3979 0
M  V30 14095 N 1349.68 5.53058 -1.76372 0
M  V30 14096 H 1352.44 1.54109 -2.57042 0
M  V30 14097 H 1350 0.704338 -1.45776 0
M  V30 14098 H 1352 3.79225 -1.41318 0
M  V30 14099 H 1350.57 3.05881 -0.644637 0
M  V30 14100 H 1349.79 2.48204 -3.06249 0
M  V30 14101 H 1351.07 3.5532 -3.64177 0
M  V30 14102 H 1350.47 5.53773 -1.1555 0
M  V30 14103 H 1349.03 6.29097 -1.70529 0
M  V30 14104 N 1352.46 1.37696 0.766659 0
M  V30 14105 C 1353.71 1.33382 1.52765 0
M  V30 14106 C 1354.04 -0.0800569 1.94035 0
M  V30 14107 O 1353.32 -1.03848 1.64456 0
M  V30 14108 C 1353.6 2.2776 2.78922 0
M  V30 14109 C 1353.45 3.77949 2.43874 0
M  V30 14110 C 1354.77 2.20494 3.80881 0
M  V30 14111 H 1351.89 0.485836 0.554195 0
M  V30 14112 H 1354.53 1.68438 0.879119 0
M  V30 14113 H 1352.68 1.97994 3.34261 0
M  V30 14114 H 1354.35 4.18333 1.9441 0
M  V30 14115 H 1352.6 3.96269 1.76503 0
M  V30 14116 H 1353.27 4.39428 3.34077 0
M  V30 14117 H 1355.74 2.46742 3.35048 0
M  V30 14118 H 1354.62 2.88663 4.66867 0
M  V30 14119 H 1354.88 1.19951 4.25516 0
M  V30 14120 N 1353.94 -0.993397 1.22349 0
M  V30 14121 C 1354.87 -2.10171 1.01737 0
M  V30 14122 C 1355.85 -1.69989 -0.0615276 0
M  V30 14123 O 1357.04 -1.93939 0.100591 0
M  V30 14124 C 1354.17 -3.42186 0.593801 0
M  V30 14125 C 1353.12 -3.96215 1.61858 0
M  V30 14126 C 1352.45 -5.24272 1.05086 0
M  V30 14127 C 1353.75 -4.26956 3.00842 0
M  V30 14128 H 1355.44 -2.27673 1.94436 0
M  V30 14129 H 1352.99 -1.09408 0.936258 0
M  V30 14130 H 1354.94 -4.19131 0.436715 0
M  V30 14131 H 1353.66 -3.2451 -0.368855 0
M  V30 14132 H 1352.32 -3.21401 1.76343 0
M  V30 14133 H 1351.97 -5.02937 0.0795747 0
M  V30 14134 H 1351.67 -5.61387 1.73547 0
M  V30 14135 H 1353.19 -6.03851 0.905349 0
M  V30 14136 H 1354.61 -4.94699 2.89734 0
M  V30 14137 H 1353 -4.75242 3.66422 0
M  V30 14138 H 1354.07 -3.34752 3.50812 0
M  V30 14139 N 1355.42 -1.03311 -1.19015 0
M  V30 14140 C 1356.64 -0.751686 -1.93299 0
M  V30 14141 C 1357.07 0.68392 -1.75226 0
M  V30 14142 O 1356.43 1.47274 -1.05736 0
M  V30 14143 C 1356.47 -1.11335 -3.42982 0
M  V30 14144 O 1355.58 -0.234434 -4.11733 0
M  V30 14145 H 1354.92 -0.277331 -0.60331 0
M  V30 14146 H 1357.45 -1.38092 -1.5097 0
M  V30 14147 H 1357.46 -1.07204 -3.93664 0
M  V30 14148 H 1356.13 -2.15922 -3.55458 0
M  V30 14149 H 1354.71 -0.3347 -3.71395 0
M  V30 14150 N 1356.9 1.35099 -0.81154 0
M  V30 14151 C 1357.84 2.31618 -0.213536 0
M  V30 14152 C 1358.84 1.56868 0.63944 0
M  V30 14153 O 1360.04 1.71957 0.532051 0
M  V30 14154 H 1356.42 0.750316 -0.0502963 0
M  V30 14155 H 1358.39 2.79593 -1.04262 0
M  V30 14156 C 1357.14 3.4214 0.619293 0
M  V30 14157 H 1356.46 3.9979 -0.0277192 0
M  V30 14158 H 1357.9 4.11941 1.00401 0
M  V30 14159 C 1356.36 2.85607 1.7869 0
M  V30 14160 O 1356.89 2.7956 2.8846 0
M  V30 14161 N 1355.1 2.42587 1.6 0
M  V30 14162 H 1354.64 2.47705 0.707105 0
M  V30 14163 H 1354.6 2.0511 2.38279 0
M  V30 14164 N 1358.37 0.56548 1.47106 0
M  V30 14165 C 1359.62 0.0444375 2.02051 0
M  V30 14166 C 1359.94 -1.31344 1.44131 0
M  V30 14167 O 1359.21 -1.85845 0.619556 0
M  V30 14168 H 1357.79 0.0134375 0.746879 0
M  V30 14169 H 1360.45 0.737362 1.80413 0
M  V30 14170 H 1359.55 -0.0374834 3.12077 0
M  V30 14171 N 1359.85 -1.54672 0.302354 0
M  V30 14172 C 1361.1 -2.00463 -0.306978 0
M  V30 14173 C 1361.43 -1.19043 -1.53435 0
M  V30 14174 O 1360.71 -0.267255 -1.92655 0
M  V30 14175 C 1360.99 -3.53958 -0.662229 0
M  V30 14176 C 1360.84 -4.46118 0.574378 0
M  V30 14177 C 1362.16 -4.14174 -1.48821 0
M  V30 14178 H 1359.28 -0.728729 -0.110102 0
M  V30 14179 H 1361.92 -1.85419 0.414722 0
M  V30 14180 H 1360.07 -3.66909 -1.2771 0
M  V30 14181 H 1361.74 -4.45071 1.21284 0
M  V30 14182 H 1359.99 -4.1666 1.20736 0
M  V30 14183 H 1360.66 -5.51281 0.281651 0
M  V30 14184 H 1363.13 -4.04668 -0.968674 0
M  V30 14185 H 1362.01 -5.2173 -1.70556 0
M  V30 14186 H 1362.27 -3.66136 -2.47784 0
M  V30 14187 N 1361.33 -0.0301034 -1.57571 0
M  V30 14188 C 1362.74 0.508591 -1.79639 0
M  V30 14189 C 1363.09 1.72191 -0.940458 0
M  V30 14190 O 1362.22 2.15872 -0.151138 0
M  V30 14191 C 1362.81 0.929446 -3.25802 0
M  V30 14192 C 1361.37 1.41325 -3.48861 0
M  V30 14193 C 1360.52 0.378433 -2.74706 0
M  V30 14194 H 1363.47 -0.256131 -1.56619 0
M  V30 14195 H 1363.49 1.79374 -3.35567 0
M  V30 14196 H 1363 0.0461738 -3.88073 0
M  V30 14197 H 1361.1 2.31641 -2.91844 0
M  V30 14198 H 1361.22 1.41995 -4.57574 0
M  V30 14199 H 1359.58 0.846744 -2.40213 0
M  V30 14200 H 1360.36 -0.49639 -3.39692 0
M  V30 14201 N 1362.81 1.55714 0.243056 0
M  V30 14202 C 1364.05 1.77989 0.971993 0
M  V30 14203 C 1364.39 0.596038 1.84827 0
M  V30 14204 O 1363.66 -0.40554 1.90225 0
M  V30 14205 C 1363.95 3.10178 1.82925 0
M  V30 14206 C 1363.8 4.38974 0.9809 0
M  V30 14207 C 1365.12 3.38628 2.81103 0
M  V30 14208 H 1362.24 0.64754 0.35194 0
M  V30 14209 H 1364.88 1.88449 0.242237 0
M  V30 14210 H 1363.03 3.01392 2.45143 0
M  V30 14211 H 1364.7 4.59756 0.377113 0
M  V30 14212 H 1362.94 4.3286 0.285414 0
M  V30 14213 H 1363.61 5.27858 1.61461 0
M  V30 14214 H 1366.09 3.47403 2.29021 0
M  V30 14215 H 1364.97 4.32331 3.38203 0
M  V30 14216 H 1365.23 2.5973 3.57761 0
M  V30 14217 N 1364.29 -0.50888 1.49158 0
M  V30 14218 C 1365.51 -1.29245 1.62205 0
M  V30 14219 C 1365.94 -1.85845 0.29041 0
M  V30 14220 O 1365.29 -1.6547 -0.740906 0
M  V30 14221 C 1365.34 -2.40415 2.68762 0
M  V30 14222 O 1364.45 -3.44048 2.27387 0
M  V30 14223 H 1363.79 -0.381898 0.543185 0
M  V30 14224 H 1366.32 -0.610076 1.95293 0
M  V30 14225 H 1366.33 -2.86295 2.90688 0
M  V30 14226 H 1365 -1.98584 3.65427 0
M  V30 14227 H 1363.58 -3.04141 2.1576 0
M  V30 14228 N 1365.76 -1.381 -0.759346 0
M  V30 14229 C 1366.71 -1.34972 -1.89434 0
M  V30 14230 C 1367.71 -0.236499 -1.67741 0
M  V30 14231 O 1368.91 -0.405218 -1.7538 0
M  V30 14232 H 1365.29 -0.420922 -0.62316 0
M  V30 14233 H 1367.26 -2.3076 -1.89189 0
M  V30 14234 C 1366.01 -1.18594 -3.2685 0
M  V30 14235 H 1365.33 -2.03514 -3.44125 0
M  V30 14236 H 1366.77 -1.20458 -4.06529 0
M  V30 14237 C 1365.23 0.107562 -3.36728 0
M  V30 14238 O 1365.76 1.08668 -3.86722 0
M  V30 14239 N 1363.97 0.162455 -2.90146 0
M  V30 14240 H 1363.51 -0.634985 -2.49651 0
M  V30 14241 H 1363.47 1.02751 -2.97136 0
M  V30 14242 N 1367.24 0.986894 -1.22875 0
M  V30 14243 C 1368.49 1.72729 -1.05693 0
M  V30 14244 C 1368.82 1.90191 0.407121 0
M  V30 14245 O 1368.07 1.44667 1.31796 0
M  V30 14246 C 1368.37 3.13283 -1.72012 0
M  V30 14247 C 1368.04 3.15719 -3.2192 0
M  V30 14248 C 1366.7 3.1609 -3.62823 0
M  V30 14249 C 1369.05 3.11539 -4.17843 0
M  V30 14250 C 1366.38 3.09991 -4.98119 0
M  V30 14251 C 1368.73 3.06982 -5.53123 0
M  V30 14252 C 1367.4 3.05672 -5.93397 0
M  V30 14253 H 1366.67 0.63206 -0.386758 0
M  V30 14254 H 1369.31 1.15538 -1.52719 0
M  V30 14255 H 1367.62 3.7382 -1.17327 0
M  V30 14256 H 1369.31 3.69326 -1.56203 0
M  V30 14257 H 1365.9 3.16183 -2.89355 0
M  V30 14258 H 1370.09 3.10397 -3.87256 0
M  V30 14259 H 1365.34 3.07326 -5.28546 0
M  V30 14260 H 1369.52 3.02705 -6.27171 0
M  V30 14261 H 1367.15 3.00701 -6.982 0
M  V30 14262 N 1368.72 1.0394 1.18466 0
M  V30 14263 C 1369.95 0.762014 1.92356 0
M  V30 14264 C 1370.36 -0.680652 1.76104 0
M  V30 14265 O 1369.72 -1.46385 1.08985 0
M  V30 14266 C 1369.77 1.11717 3.43805 0
M  V30 14267 O 1369.49 2.50319 3.59544 0
M  V30 14268 C 1370.99 0.864099 4.34797 0
M  V30 14269 H 1368.21 0.277999 0.610702 0
M  V30 14270 H 1370.76 1.38672 1.503 0
M  V30 14271 H 1368.91 0.537445 3.83654 0
M  V30 14272 H 1369.33 2.63875 4.53288 0
M  V30 14273 H 1370.8 1.16247 5.39621 0
M  V30 14274 H 1371.28 -0.20117 4.38739 0
M  V30 14275 H 1371.88 1.42706 4.00643 0
M  V30 14276 N 1370.2 -1.34667 0.818693 0
M  V30 14277 C 1371.43 -2.02348 0.417002 0
M  V30 14278 C 1371.84 -1.61813 -0.980464 0
M  V30 14279 O 1371.18 -0.817232 -1.64521 0
M  V30 14280 C 1371.24 -3.56861 0.434779 0
M  V30 14281 C 1370.91 -4.20704 1.78485 0
M  V30 14282 C 1371.9 -4.41524 2.74504 0
M  V30 14283 C 1369.59 -4.57566 2.07217 0
M  V30 14284 C 1371.58 -4.98324 3.97431 0
M  V30 14285 C 1369.27 -5.14078 3.30405 0
M  V30 14286 C 1370.27 -5.344 4.2533 0
M  V30 14287 O 1369.95 -5.89717 5.46342 0
M  V30 14288 H 1369.69 -0.655279 0.16609 0
M  V30 14289 H 1372.24 -1.73011 1.10708 0
M  V30 14290 H 1370.47 -3.8544 -0.311973 0
M  V30 14291 H 1372.16 -4.05864 0.0537258 0
M  V30 14292 H 1372.93 -4.13414 2.53601 0
M  V30 14293 H 1368.8 -4.41054 1.34135 0
M  V30 14294 H 1372.35 -5.14102 4.71534 0
M  V30 14295 H 1368.25 -5.41616 3.51174 0
M  V30 14296 H 1369.01 -6.08155 5.47804 0
M  V30 14297 N 1371.68 -0.573274 -1.46804 0
M  V30 14298 C 1372.9 -0.0586717 -2.07317 0
M  V30 14299 C 1373.33 1.2328 -1.42069 0
M  V30 14300 O 1372.68 1.74235 -0.501188 0
M  V30 14301 C 1372.73 0.103503 -3.60451 0
M  V30 14302 O 1371.84 1.16229 -3.95682 0
M  V30 14303 H 1371.18 -0.0585504 -0.661414 0
M  V30 14304 H 1373.71 -0.793532 -1.88585 0
M  V30 14305 H 1373.72 0.312658 -4.068 0
M  V30 14306 H 1372.39 -0.839684 -4.07335 0
M  V30 14307 H 1370.97 0.932347 -3.61056 0
M  V30 14308 N 1373.15 1.5451 -0.310553 0
M  V30 14309 C 1374.57 1.85829 0.180166 0
M  V30 14310 C 1374.92 1.23239 1.52665 0
M  V30 14311 O 1374.04 0.53359 2.09718 0
M  V30 14312 C 1374.64 3.37153 0.333687 0
M  V30 14313 C 1373.2 3.68469 0.768625 0
M  V30 14314 C 1372.34 2.77051 -0.117399 0
M  V30 14315 H 1375.29 1.49544 -0.531262 0
M  V30 14316 H 1375.31 3.62171 1.16673 0
M  V30 14317 H 1374.83 3.82678 -0.646455 0
M  V30 14318 H 1372.93 3.28467 1.75898 0
M  V30 14319 H 1373.04 4.75559 0.581392 0
M  V30 14320 H 1371.4 2.51461 0.404905 0
M  V30 14321 H 1372.19 3.254 -1.09407 0
M  V30 14322 N 1374.63 0.0384594 1.57553 0
M  V30 14323 C 1375.91 -0.677308 1.83499 0
M  V30 14324 C 1376.29 -1.89789 0.924294 0
M  V30 14325 O 1375.64 -2.28493 -0.0178185 0
M  V30 14326 C 1375.85 -1.04667 3.32935 0
M  V30 14327 C 1377.2 -1.43436 3.99639 0
M  V30 14328 O 1378.22 -1.13938 3.37486 0
M  V30 14329 O 1377.08 -1.98435 5.09201 0
M  V30 14330 H 1374.17 -0.333131 0.756936 0
M  V30 14331 H 1376.72 0.066854 1.69568 0
M  V30 14332 H 1375.49 -0.178349 3.90893 0
M  V30 14333 H 1375.11 -1.8487 3.52007 0
M  V30 14334 N 1376.11 -1.55841 -0.234795 0
M  V30 14335 C 1377.34 -1.82307 -0.978355 0
M  V30 14336 C 1377.75 -0.615825 -1.78474 0
M  V30 14337 O 1377.11 0.4156 -1.77705 0
M  V30 14338 C 1377.16 -3.07136 -1.90655 0
M  V30 14339 O 1376.88 -4.23202 -1.13278 0
M  V30 14340 C 1378.38 -3.46492 -2.76511 0
M  V30 14341 H 1375.6 -0.606361 -0.287345 0
M  V30 14342 H 1378.15 -2.02916 -0.254023 0
M  V30 14343 H 1376.3 -2.88542 -2.58501 0
M  V30 14344 H 1376.72 -4.94029 -1.76168 0
M  V30 14345 H 1378.19 -4.36908 -3.37366 0
M  V30 14346 H 1378.67 -2.67633 -3.48238 0
M  V30 14347 H 1379.27 -3.6748 -2.14099 0
M  V30 14348 N 1377.59 0.500963 -1.49426 0
M  V30 14349 C 1378.54 1.6025 -1.66098 0
M  V30 14350 C 1379.51 1.58318 -0.502453 0
M  V30 14351 O 1380.69 1.76304 -0.729482 0
M  V30 14352 C 1377.83 2.98396 -1.73361 0
M  V30 14353 C 1376.94 3.10343 -3.00518 0
M  V30 14354 C 1376.08 4.39222 -2.9876 0
M  V30 14355 C 1375.12 4.44803 -4.20496 0
M  V30 14356 N 1374.26 5.6511 -4.16648 0
M  V30 14357 H 1379.1 1.45342 -2.60153 0
M  V30 14358 H 1376.63 0.707147 -1.28988 0
M  V30 14359 H 1378.59 3.78467 -1.75553 0
M  V30 14360 H 1377.22 3.12007 -0.827718 0
M  V30 14361 H 1376.27 2.23336 -3.07937 0
M  V30 14362 H 1377.58 3.10327 -3.90511 0
M  V30 14363 H 1376.74 5.27613 -2.99515 0
M  V30 14364 H 1375.48 4.41804 -2.06545 0
M  V30 14365 H 1374.48 3.54814 -4.19985 0
M  V30 14366 H 1375.71 4.43937 -5.13903 0
M  V30 14367 H 1373.65 5.68533 -3.2727 0
M  V30 14368 H 1373.57 5.6671 -5.00376 0
M  V30 14369 H 1374.84 6.55708 -4.21506 0
M  V30 14370 N 1379.07 1.38501 0.752011 0
M  V30 14371 C 1380.31 1.34995 1.51341 0
M  V30 14372 C 1380.65 -0.0594724 1.94109 0
M  V30 14373 O 1379.92 -1.02098 1.65548 0
M  V30 14374 C 1380.2 2.30705 2.76491 0
M  V30 14375 C 1380.06 3.80515 2.39851 0
M  V30 14376 C 1381.38 2.24521 3.78521 0
M  V30 14377 H 1378.5 0.491687 0.549011 0
M  V30 14378 H 1381.14 1.69361 0.861205 0
M  V30 14379 H 1379.29 2.01529 3.32142 0
M  V30 14380 H 1380.96 4.20371 1.89962 0
M  V30 14381 H 1379.2 3.98119 1.7229 0
M  V30 14382 H 1379.87 4.42946 3.29397 0
M  V30 14383 H 1382.35 2.50282 3.32413 0
M  V30 14384 H 1381.23 2.93598 4.63779 0
M  V30 14385 H 1381.49 1.24457 4.2422 0
M  V30 14386 N 1380.55 -0.980364 1.23396 0
M  V30 14387 C 1381.48 -2.0908 1.0396 0
M  V30 14388 C 1382.46 -1.70044 -0.0434946 0
M  V30 14389 O 1383.64 -1.93822 0.121155 0
M  V30 14390 C 1380.77 -3.41537 0.630061 0
M  V30 14391 C 1379.73 -3.94476 1.66051 0
M  V30 14392 C 1379.05 -5.23128 1.10641 0
M  V30 14393 C 1380.35 -4.23741 3.05354 0
M  V30 14394 H 1382.05 -2.25598 1.9684 0
M  V30 14395 H 1379.59 -1.08409 0.94781 0
M  V30 14396 H 1381.54 -4.18644 0.481145 0
M  V30 14397 H 1380.27 -3.24883 -0.334416 0
M  V30 14398 H 1378.93 -3.19513 1.79742 0
M  V30 14399 H 1378.58 -5.02824 0.132913 0
M  V30 14400 H 1378.28 -5.59515 1.79492 0
M  V30 14401 H 1379.8 -6.02857 0.969344 0
M  V30 14402 H 1381.21 -4.91598 2.94964 0
M  V30 14403 H 1379.61 -4.71329 3.71442 0
M  V30 14404 H 1380.68 -3.31012 3.54343 0
M  V30 14405 N 1382.02 -1.04567 -1.17913 0
M  V30 14406 C 1383.3 -0.666082 -1.8391 0
M  V30 14407 C 1383.68 0.854062 -1.93052 0
M  V30 14408 O 1383.03 1.75752 -1.46026 0
M  V30 14409 C 1383.24 -1.34776 -3.21926 0
M  V30 14410 C 1384.59 -1.48177 -3.97905 0
M  V30 14411 O 1385.61 -1.30627 -3.31384 0
M  V30 14412 O 1384.47 -1.76822 -5.17104 0
M  V30 14413 H 1381.56 -0.233694 -0.793294 0
M  V30 14414 H 1384.11 -1.14487 -1.25263 0
M  V30 14415 H 1382.88 -2.38514 -3.10204 0
M  V30 14416 H 1382.5 -0.857914 -3.88234 0
M  V30 14417 N 1383.5 1.34231 -0.825823 0
M  V30 14418 C 1384.75 1.97454 -0.411661 0
M  V30 14419 C 1385.06 1.66193 1.03147 0
M  V30 14420 O 1386.27 2.22929 1.54968 0
M  V30 14421 C 1384.73 3.53318 -0.685145 0
M  V30 14422 C 1384.33 3.9347 -2.14208 0
M  V30 14423 C 1386.08 4.23158 -0.337291 0
M  V30 14424 C 1383.98 5.42258 -2.3603 0
M  V30 14425 H 1382.91 0.738889 -0.150196 0
M  V30 14426 H 1385.57 1.53033 -1.01258 0
M  V30 14427 H 1383.95 3.95998 -0.0140178 0
M  V30 14428 H 1385.12 3.61888 -2.85261 0
M  V30 14429 H 1383.44 3.36575 -2.45165 0
M  V30 14430 H 1386.03 5.32558 -0.47813 0
M  V30 14431 H 1386.38 4.10053 0.718499 0
M  V30 14432 H 1386.91 3.85965 -0.963113 0
M  V30 14433 H 1383.65 5.60352 -3.40126 0
M  V30 14434 H 1383.17 5.75345 -1.69524 0
M  V30 14435 H 1384.85 6.08976 -2.18533 0
M  V30 14436 N 1384.98 0.581051 1.46498 0
M  V30 14437 C 1386.22 0.0686577 2.04285 0
M  V30 14438 C 1386.58 -1.2666 1.44296 0
M  V30 14439 O 1387.78 -1.86813 1.93273 0
M  V30 14440 C 1386.06 0.0021308 3.574 0
M  V30 14441 S 1387.61 -0.452928 4.36456 0
M  V30 14442 H 1384.43 0.0366686 0.710054 0
M  V30 14443 H 1387.03 0.773174 1.79561 0
M  V30 14444 H 1385.74 0.977908 3.98579 0
M  V30 14445 H 1385.27 -0.725207 3.86658 0
M  V30 14446 H 1387.28 -1.708 4.65877 0
M  V30 14447 N 1386.46 -1.54343 0.318742 0
M  V30 14448 C 1387.7 -2.00777 -0.285699 0
M  V30 14449 C 1388.04 -1.20664 -1.52164 0
M  V30 14450 O 1387.31 -0.287674 -1.92361 0
M  V30 14451 C 1387.59 -3.54641 -0.624649 0
M  V30 14452 C 1387.45 -4.45483 0.621663 0
M  V30 14453 C 1388.77 -4.15729 -1.4442 0
M  V30 14454 H 1385.89 -0.729856 -0.102367 0
M  V30 14455 H 1388.53 -1.84968 0.434364 0
M  V30 14456 H 1386.68 -3.68243 -1.23811 0
M  V30 14457 H 1388.35 -4.43759 1.25998 0
M  V30 14458 H 1386.59 -4.15356 1.25148 0
M  V30 14459 H 1387.26 -5.50951 0.340106 0
M  V30 14460 H 1389.74 -4.05672 -0.925699 0
M  V30 14461 H 1388.62 -5.23509 -1.65013 0
M  V30 14462 H 1388.88 -3.68743 -2.43887 0
M  V30 14463 N 1387.94 -0.0468143 -1.5753 0
M  V30 14464 C 1389.16 0.641161 -1.97241 0
M  V30 14465 C 1389.59 1.6384 -0.92401 0
M  V30 14466 O 1388.94 1.80946 0.113229 0
M  V30 14467 C 1388.99 1.30832 -3.36029 0
M  V30 14468 O 1388.1 2.42394 -3.33645 0
M  V30 14469 H 1387.44 0.167035 -0.642647 0
M  V30 14470 H 1389.97 -0.113921 -2.04283 0
M  V30 14471 H 1389.98 1.66102 -3.72658 0
M  V30 14472 H 1388.65 0.57744 -4.11872 0
M  V30 14473 H 1387.23 2.09104 -3.08756 0
M  V30 14474 N 1389.41 1.55964 0.226527 0
M  V30 14475 C 1390.34 1.95028 1.284 0
M  V30 14476 C 1391.33 0.817833 1.49149 0
M  V30 14477 O 1392.51 1.07975 1.61416 0
M  V30 14478 C 1389.64 2.26266 2.63478 0
M  V30 14479 C 1388.59 3.41954 2.57393 0
M  V30 14480 C 1387.92 3.58786 3.96456 0
M  V30 14481 C 1389.22 4.77069 2.12608 0
M  V30 14482 H 1390.91 2.83608 0.959513 0
M  V30 14483 H 1388.46 1.36451 0.460125 0
M  V30 14484 H 1390.41 2.52186 3.3761 0
M  V30 14485 H 1389.14 1.34533 2.97604 0
M  V30 14486 H 1387.8 3.16076 1.85719 0
M  V30 14487 H 1387.44 2.64437 4.27881 0
M  V30 14488 H 1387.14 4.36595 3.93267 0
M  V30 14489 H 1388.67 3.87048 4.72256 0
M  V30 14490 H 1390.08 5.02226 2.76481 0
M  V30 14491 H 1388.48 5.58126 2.2049 0
M  V30 14492 H 1389.55 4.7276 1.07823 0
M  V30 14493 N 1390.89 -0.493031 1.4969 0
M  V30 14494 C 1391.82 -1.60215 1.69863 0
M  V30 14495 C 1392.8 -1.61053 0.547362 0
M  V30 14496 O 1393.99 -1.77667 0.784093 0
M  V30 14497 C 1391.12 -2.98662 1.77252 0
M  V30 14498 C 1390.07 -3.1269 2.92248 0
M  V30 14499 C 1389.4 -4.52567 2.84758 0
M  V30 14500 C 1390.7 -2.91965 4.33074 0
M  V30 14501 H 1392.39 -1.43587 2.62723 0
M  V30 14502 H 1389.94 -0.689334 1.26429 0
M  V30 14503 H 1391.89 -3.7616 1.89951 0
M  V30 14504 H 1390.62 -3.16397 0.809976 0
M  V30 14505 H 1389.27 -2.37619 2.79164 0
M  V30 14506 H 1388.92 -4.6719 1.86394 0
M  V30 14507 H 1388.62 -4.62893 3.61944 0
M  V30 14508 H 1390.15 -5.32116 2.99475 0
M  V30 14509 H 1391.56 -3.59228 4.46798 0
M  V30 14510 H 1389.96 -3.13756 5.11544 0
M  V30 14511 H 1391.03 -1.88015 4.46966 0
M  V30 14512 N 1392.37 -1.38898 -0.744656 0
M  V30 14513 C 1393.3 -1.31228 -1.86693 0
M  V30 14514 C 1394.28 -0.187667 -1.61513 0
M  V30 14515 O 1395.47 -0.366497 -1.84903 0
M  V30 14516 C 1392.59 -1.03541 -3.22486 0
M  V30 14517 C 1391.64 -2.18061 -3.6654 0
M  V30 14518 S 1392.47 -3.80271 -3.77033 0
M  V30 14519 C 1393.63 -3.5479 -5.15631 0
M  V30 14520 H 1393.86 -2.26211 -1.92914 0
M  V30 14521 H 1391.39 -1.24839 -0.908544 0
M  V30 14522 H 1393.35 -0.882504 -4.00902 0
M  V30 14523 H 1392.01 -0.102611 -3.13932 0
M  V30 14524 H 1391.21 -1.94257 -4.65059 0
M  V30 14525 H 1390.81 -2.29505 -2.95302 0
M  V30 14526 H 1393.1 -3.11457 -6.01665 0
M  V30 14527 H 1394.04 -4.52735 -5.4446 0
M  V30 14528 H 1394.45 -2.89103 -4.8485 0
M  V30 14529 N 1393.85 0.973806 -1.23914 0
M  V30 14530 C 1395.1 1.71259 -1.07307 0
M  V30 14531 C 1395.42 1.91064 0.389831 0
M  V30 14532 O 1394.69 1.48401 1.27883 0
M  V30 14533 H 1393.27 0.634588 -0.39409 0
M  V30 14534 H 1395.93 1.17184 -1.55737 0
M  V30 14535 H 1395.03 2.69953 -1.56626 0
M  V30 14536 N 1395.33 1.05191 1.17357 0
M  V30 14537 C 1396.24 0.663617 2.25018 0
M  V30 14538 C 1397.25 -0.315299 1.71119 0
M  V30 14539 O 1398.43 -0.167398 2.00703 0
M  V30 14540 C 1395.49 0.0443307 3.46672 0
M  V30 14541 C 1394.55 1.07369 4.15656 0
M  V30 14542 C 1393.79 0.483864 5.31502 0
M  V30 14543 O 1394.01 -0.706692 5.66005 0
M  V30 14544 O 1392.94 1.21812 5.89445 0
M  V30 14545 H 1396.77 1.56088 2.60519 0
M  V30 14546 H 1394.36 0.823474 1.24657 0
M  V30 14547 H 1396.24 -0.299839 4.20332 0
M  V30 14548 H 1394.91 -0.826579 3.12969 0
M  V30 14549 H 1393.82 1.46985 3.44015 0
M  V30 14550 H 1395.15 1.91575 4.53387 0
M  V30 14551 N 1396.8 -1.33791 0.83293 0
M  V30 14552 C 1397.74 -2.28148 0.219336 0
M  V30 14553 C 1398.75 -1.51477 -0.596529 0
M  V30 14554 O 1399.94 -1.73377 -0.424571 0
M  V30 14555 C 1397.04 -3.31373 -0.710305 0
M  V30 14556 C 1396.21 -4.37352 0.0649215 0
M  V30 14557 C 1395.27 -5.20279 -0.78716 0
M  V30 14558 O 1394.3 -5.68741 -0.228511 0
M  V30 14559 N 1395.5 -5.40973 -2.10544 0
M  V30 14560 H 1398.26 -2.81443 1.03004 0
M  V30 14561 H 1395.82 -1.46421 0.690831 0
M  V30 14562 H 1397.82 -3.83752 -1.28517 0
M  V30 14563 H 1396.39 -2.78398 -1.42173 0
M  V30 14564 H 1395.61 -3.85553 0.821144 0
M  V30 14565 H 1396.89 -5.05271 0.598199 0
M  V30 14566 H 1396.29 -5.03291 -2.58292 0
M  V30 14567 H 1394.85 -5.96432 -2.62893 0
M  V30 14568 N 1398.28 -0.588812 -1.46187 0
M  V30 14569 C 1399.53 -0.076728 -2.02355 0
M  V30 14570 C 1399.86 1.28557 -1.45956 0
M  V30 14571 O 1399.11 1.85722 -0.616899 0
M  V30 14572 C 1399.41 0.0325249 -3.57385 0
M  V30 14573 C 1399.08 -1.26298 -4.32851 0
M  V30 14574 C 1397.74 -1.61789 -4.53186 0
M  V30 14575 C 1400.09 -2.12001 -4.76136 0
M  V30 14576 C 1397.42 -2.82771 -5.1406 0
M  V30 14577 C 1399.77 -3.32214 -5.38346 0
M  V30 14578 C 1398.44 -3.6798 -5.56908 0
M  V30 14579 H 1397.71 -0.0280768 -0.740468 0
M  V30 14580 H 1400.35 -0.766671 -1.75483 0
M  V30 14581 H 1398.66 0.805632 -3.83428 0
M  V30 14582 H 1400.35 0.444597 -3.98528 0
M  V30 14583 H 1396.94 -0.976692 -4.17323 0
M  V30 14584 H 1401.13 -1.85884 -4.60175 0
M  V30 14585 H 1396.38 -3.10611 -5.26622 0
M  V30 14586 H 1400.56 -3.98888 -5.70843 0
M  V30 14587 H 1398.19 -4.61815 -6.03846 0
M  V30 14588 N 1399.76 1.54172 -0.326923 0
M  V30 14589 C 1400.69 2.27402 0.530154 0
M  V30 14590 C 1401.67 1.28325 1.11655 0
M  V30 14591 O 1402.86 1.57142 1.14105 0
M  V30 14592 C 1399.99 3.03435 1.68951 0
M  V30 14593 C 1398.94 4.09877 1.23226 0
M  V30 14594 C 1398.27 4.7377 2.47882 0
M  V30 14595 C 1399.57 5.21161 0.344698 0
M  V30 14596 H 1401.26 2.99291 -0.0806959 0
M  V30 14597 H 1398.81 1.43944 -0.0402511 0
M  V30 14598 H 1400.76 3.53396 2.29541 0
M  V30 14599 H 1399.48 2.29169 2.327 0
M  V30 14600 H 1398.14 3.60805 0.649267 0
M  V30 14601 H 1397.79 3.96116 3.10002 0
M  V30 14602 H 1397.49 5.45674 2.17977 0
M  V30 14603 H 1399.01 5.26507 3.09229 0
M  V30 14604 H 1400.43 5.66859 0.856979 0
M  V30 14605 H 1398.83 5.99941 0.138276 0
M  V30 14606 H 1399.9 4.80874 -0.623575 0
M  V30 14607 N 1401.24 0.0551678 1.57503 0
M  V30 14608 C 1402.48 -0.618636 1.93134 0
M  V30 14609 C 1402.82 -1.70258 0.934125 0
M  V30 14610 O 1402.09 -1.9446 -0.0392699 0
M  V30 14611 C 1402.38 -1.21103 3.39126 0
M  V30 14612 C 1402.23 -0.134865 4.49598 0
M  V30 14613 C 1403.55 -2.12148 3.85592 0
M  V30 14614 H 1400.67 -0.223416 0.702321 0
M  V30 14615 H 1403.31 0.117748 1.89635 0
M  V30 14616 H 1401.46 -1.83862 3.42238 0
M  V30 14617 H 1403.13 0.497292 4.58612 0
M  V30 14618 H 1401.37 0.536587 4.30469 0
M  V30 14619 H 1402.04 -0.589447 5.48844 0
M  V30 14620 H 1404.52 -1.59346 3.8438 0
M  V30 14621 H 1403.4 -2.50539 4.88387 0
M  V30 14622 H 1403.66 -3.02318 3.22578 0
M  V30 14623 N 1402.72 -1.56081 -0.218252 0
M  V30 14624 C 1403.94 -1.83681 -0.963119 0
M  V30 14625 C 1404.37 -0.635909 -1.77025 0
M  V30 14626 O 1403.72 0.415327 -1.76479 0
M  V30 14627 C 1403.77 -3.09302 -1.85376 0
M  V30 14628 O 1402.88 -2.88228 -2.94955 0
M  V30 14629 H 1402.22 -0.605495 -0.272529 0
M  V30 14630 H 1404.75 -2.03297 -0.230567 0
M  V30 14631 H 1404.76 -3.39493 -2.26294 0
M  V30 14632 H 1403.43 -3.96337 -1.26054 0
M  V30 14633 H 1402.01 -2.69279 -2.57959 0
M  V30 14634 N 1404.2 0.485086 -1.49949 0
M  V30 14635 C 1405.44 1.23721 -1.61445 0
M  V30 14636 C 1405.8 1.89975 -0.304479 0
M  V30 14637 O 1405.09 1.78489 0.696567 0
M  V30 14638 C 1405.28 2.31573 -2.72229 0
M  V30 14639 C 1405.11 1.75898 -4.13872 0
M  V30 14640 C 1403.88 1.5649 -4.80457 0
M  V30 14641 C 1406.08 1.26181 -4.98581 0
M  V30 14642 N 1404.06 0.959112 -6.06361 0
M  V30 14643 C 1405.43 0.778367 -6.15095 0
M  V30 14644 C 1407.49 1.14903 -4.8446 0
M  V30 14645 C 1406.19 0.19329 -7.1904 0
M  V30 14646 C 1408.22 0.57791 -5.8857 0
M  V30 14647 C 1407.58 0.104777 -7.04322 0
M  V30 14648 H 1403.68 0.442115 -0.645026 0
M  V30 14649 H 1406.26 0.541572 -1.87016 0
M  V30 14650 H 1404.43 2.9858 -2.48404 0
M  V30 14651 H 1406.17 2.98607 -2.73159 0
M  V30 14652 H 1402.92 1.81316 -4.37517 0
M  V30 14653 H 1403.34 0.675032 -6.73626 0
M  V30 14654 H 1407.99 1.50079 -3.95267 0
M  V30 14655 H 1405.7 -0.170697 -8.0792 0
M  V30 14656 H 1409.29 0.493211 -5.79706 0
M  V30 14657 H 1408.17 -0.330245 -7.83504 0
M  V30 14658 N 1405.67 1.39291 0.737279 0
M  V30 14659 C 1406.91 1.37821 1.50946 0
M  V30 14660 C 1407.28 -0.0269225 1.91981 0
M  V30 14661 O 1408.48 -0.16661 2.68283 0
M  V30 14662 C 1406.75 2.32145 2.71741 0
M  V30 14663 S 1408.31 2.48842 3.61418 0
M  V30 14664 H 1405.13 0.48878 0.516348 0
M  V30 14665 H 1407.73 1.75367 0.864096 0
M  V30 14666 H 1406.43 3.33103 2.39731 0
M  V30 14667 H 1405.96 1.95806 3.41209 0
M  V30 14668 H 1407.98 1.72464 4.65264 0
M  V30 14669 O 1407.19 -0.878324 1.35528 0
M  V30 14670 H 1407.88 -1.51613 1.20554 0
M  V30 END ATOM
M  V30 BEGIN BOND
M  V30 END BOND
M  V30 END CTAB
M  END
$$$$
