drugbank_target|Q9GZZ6 Neuronal acetylcholine receptor subunit alpha-10 (DB00184; DB00202; DB00898; DB01090; DB01116; DB05069; DB05137; DB05740; DB14783)
 OpenBabel12092119313D

  0  0  0     0  0            999 V3000
M  V30 BEGIN CTAB
M  V30 COUNTS 7026 7116 0 0 0
M  V30 BEGIN ATOM
M  V30 1 H -0.908 1.98254 -0.117106 0
M  V30 2 N 0 1.576 0 0
M  V30 3 C 0.933 2.03868 1.02534 0
M  V30 4 C 1.911 0.928543 1.3348 0
M  V30 5 O 3.095 1.19667 1.45644 0
M  V30 6 C 0.222 2.43627 2.35294 0
M  V30 7 C -0.732 3.65373 2.2001 0
M  V30 8 S 0.101 5.13292 1.52614 0
M  V30 9 C 1.257 5.56322 2.86805 0
M  V30 10 H 1.49 2.90518 0.631377 0
M  V30 11 H -0.977 1.52953 0.210867 0
M  V30 12 H 0.981 2.67203 3.11629 0
M  V30 13 H -0.358 1.57376 2.7183 0
M  V30 14 H -1.165 3.90944 3.18086 0
M  V30 15 H -1.563 3.418 1.51819 0
M  V30 16 H 0.729 5.58782 3.83104 0
M  V30 17 H 1.672 6.56266 2.65933 0
M  V30 18 H 2.08 4.83886 2.90714 0
M  V30 19 N 1.4781 -0.272755 1.55222 0
M  V30 20 C 2.7261 -1.00234 1.75492 0
M  V30 21 C 3.0471 -1.8681 0.5592 0
M  V30 22 O 2.3171 -1.91215 -0.425882 0
M  V30 23 H 0.8971 -0.373076 0.647166 0
M  V30 24 H 3.5591 -0.296926 1.92625 0
M  V30 25 H 2.6551 -1.63913 2.65592 0
M  V30 26 N 2.9562 -1.48159 -0.537278 0
M  V30 27 C 3.8862 -1.65029 -1.6519 0
M  V30 28 C 4.8672 -0.499281 -1.62607 0
M  V30 29 O 6.0522 -0.730972 -1.79918 0
M  V30 30 C 3.1822 -1.68303 -3.03795 0
M  V30 31 C 2.1362 -2.8283 -3.21234 0
M  V30 32 C 1.4622 -2.71189 -4.60826 0
M  V30 33 C 2.7622 -4.24211 -3.04701 0
M  V30 34 H 4.4562 -2.58341 -1.51328 0
M  V30 35 H 2.0022 -1.24325 -0.726585 0
M  V30 36 H 3.9552 -1.78693 -3.81637 0
M  V30 37 H 2.6792 -0.715635 -3.18663 0
M  V30 38 H 1.3382 -2.71983 -2.45807 0
M  V30 39 H 0.9862 -1.72435 -4.7252 0
M  V30 40 H 0.6862 -3.48035 -4.7344 0
M  V30 41 H 2.2102 -2.83537 -5.40777 0
M  V30 42 H 3.6242 -4.3593 -3.72341 0
M  V30 43 H 2.0212 -5.01998 -3.28813 0
M  V30 44 H 3.0912 -4.41184 -2.01209 0
M  V30 45 N 4.4343 0.785586 -1.36625 0
M  V30 46 C 5.8503 1.08419 -1.17122 0
M  V30 47 C 6.0503 2.015 0.00208491 0
M  V30 48 O 5.1063 2.43551 0.666278 0
M  V30 49 C 6.4193 1.69498 -2.48377 0
M  V30 50 C 7.9673 1.81821 -2.54775 0
M  V30 51 C 8.4423 2.46315 -3.86126 0
M  V30 52 N 9.9333 2.53779 -3.87492 0
M  V30 53 C 10.6683 3.045 -4.85868 0
M  V30 54 N 10.1643 3.55499 -5.94637 0
M  V30 55 N 11.9573 3.03247 -4.73284 0
M  V30 56 H 4.1083 0.167264 -2.1174 0
M  V30 57 H 6.3713 0.13682 -0.938075 0
M  V30 58 H 6.0773 1.08571 -3.34522 0
M  V30 59 H 5.9513 2.6896 -2.64462 0
M  V30 60 H 8.3383 2.41884 -1.69045 0
M  V30 61 H 8.4193 0.811532 -2.42586 0
M  V30 62 H 8.0633 1.86895 -4.72263 0
M  V30 63 H 7.9933 3.47561 -3.95612 0
M  V30 64 H 10.4843 2.17672 -3.08913 0
M  V30 65 H 10.7973 3.92562 -6.65669 0
M  V30 66 H 9.1423 3.5364 -5.98301 0
M  V30 67 H 12.3333 2.62696 -3.87438 0
M  V30 68 H 12.5063 3.42467 -5.50109 0
M  V30 69 N 5.9124 1.20967 1.01018 0
M  V30 70 C 7.1374 1.0503 1.78839 0
M  V30 71 C 7.5624 -0.395752 1.8389 0
M  V30 72 O 6.9204 -1.28529 1.27867 0
M  V30 73 C 6.9684 1.64602 3.2084 0
M  V30 74 O 6.0724 0.887988 4.02726 0
M  V30 75 H 5.4134 0.369987 0.551367 0
M  V30 76 H 7.9434 1.60399 1.27018 0
M  V30 77 H 7.9534 1.68607 3.71532 0
M  V30 78 H 6.6284 2.69841 3.16479 0
M  V30 79 H 5.2054 0.922648 3.61305 0
M  V30 80 N 7.3905 -1.2043 1.01659 0
M  V30 81 C 8.3405 -2.21076 0.557623 0
M  V30 82 C 9.3245 -1.56176 -0.387029 0
M  V30 83 O 10.5165 -1.7575 -0.209996 0
M  V30 84 C 7.6455 -3.43146 -0.102707 0
M  V30 85 C 6.7315 -4.15213 0.863652 0
M  V30 86 N 7.1225 -4.63662 2.02117 0
M  V30 87 C 5.4205 -4.40716 0.684472 0
M  V30 88 C 6.1215 -5.18868 2.62966 0
M  V30 89 N 5.0975 -5.0893 1.91027 0
M  V30 90 H 8.8995 -2.56201 1.44008 0
M  V30 91 H 6.4135 -1.36366 0.881931 0
M  V30 92 H 8.4105 -4.14475 -0.449054 0
M  V30 93 H 7.0705 -3.09526 -0.981003 0
M  V30 94 H 8.0815 -4.58877 2.40109 0
M  V30 95 H 4.7585 -4.17245 -0.14577 0
M  V30 96 H 6.1485 -5.6673 3.60924 0
M  V30 97 N 8.8686 -0.792821 -1.36206 0
M  V30 98 C 9.8186 -0.166598 -2.27391 0
M  V30 99 C 10.8026 0.651479 -1.47121 0
M  V30 100 O 11.9946 0.510994 -1.69463 0
M  V30 101 C 9.1236 0.695033 -3.36191 0
M  V30 102 C 8.2096 -0.132019 -4.23894 0
M  V30 103 N 8.6006 -1.18822 -4.91645 0
M  V30 104 C 6.8986 0.0885952 -4.45912 0
M  V30 105 C 7.5996 -1.69198 -5.56549 0
M  V30 106 N 6.5756 -1.00065 -5.34311 0
M  V30 107 H 10.3776 -0.974947 -2.77258 0
M  V30 108 H 7.8916 -0.632616 -1.49572 0
M  V30 109 H 9.8886 1.1596 -4.00448 0
M  V30 110 H 8.5486 1.50189 -2.87877 0
M  V30 111 H 9.5596 -1.57069 -4.93507 0
M  V30 112 H 6.2366 0.865688 -4.08426 0
M  V30 113 H 7.6266 -2.57395 -6.20643 0
M  V30 114 N 10.3467 1.47872 -0.545128 0
M  V30 115 C 11.2767 2.32661 0.197793 0
M  V30 116 C 12.2577 1.43041 0.920504 0
M  V30 117 O 13.4427 1.71912 0.90333 0
M  V30 118 C 10.5727 3.24569 1.23582 0
M  V30 119 C 9.5267 4.23333 0.630323 0
M  V30 120 C 8.8527 5.0448 1.77211 0
M  V30 121 C 10.1527 5.20704 -0.407974 0
M  V30 122 H 11.8467 2.95024 -0.510045 0
M  V30 123 H 9.3927 1.4187 -0.246731 0
M  V30 124 H 11.3457 3.8272 1.76362 0
M  V30 125 H 10.0697 2.60236 1.97344 0
M  V30 126 H 8.7287 3.6639 0.123922 0
M  V30 127 H 8.3767 4.36561 2.49847 0
M  V30 128 H 8.0767 5.71339 1.37281 0
M  V30 129 H 9.6007 5.65487 2.3034 0
M  V30 130 H 11.0147 5.7329 0.033305 0
M  V30 131 H 9.4117 5.95699 -0.725486 0
M  V30 132 H 10.4817 4.66917 -1.30828 0
M  V30 133 N 11.8248 0.280983 1.55075 0
M  V30 134 C 13.0498 -0.340154 2.04592 0
M  V30 135 C 13.4748 -1.48246 1.15779 0
M  V30 136 O 12.8328 -1.80614 0.15761 0
M  V30 137 C 12.8808 -0.793104 3.5177 0
M  V30 138 O 11.9848 -1.89981 3.66034 0
M  V30 139 H 11.3258 -0.0694289 0.66036 0
M  V30 140 H 13.8558 0.416993 2.00306 0
M  V30 141 H 13.8658 -1.08729 3.93245 0
M  V30 142 H 12.5408 0.0426163 4.15878 0
M  V30 143 H 11.1178 -1.60771 3.36463 0
M  V30 144 N 13.3029 -1.57598 0.00835791 0
M  V30 145 C 14.2329 -2.1198 -0.979113 0
M  V30 146 C 15.2139 -1.03091 -1.35301 0
M  V30 147 O 16.3989 -1.30818 -1.43528 0
M  V30 148 C 13.5289 -2.62995 -2.26828 0
M  V30 149 C 12.4829 -3.76485 -2.03576 0
M  V30 150 C 11.8089 -4.13846 -3.38579 0
M  V30 151 C 13.1089 -5.0342 -1.39161 0
M  V30 152 H 14.8029 -2.94738 -0.526281 0
M  V30 153 H 12.3489 -1.41783 -0.251704 0
M  V30 154 H 14.3019 -2.99669 -2.96271 0
M  V30 155 H 13.0259 -1.7737 -2.7424 0
M  V30 156 H 11.6849 -3.40217 -1.36557 0
M  V30 157 H 11.3329 -3.25232 -3.83709 0
M  V30 158 H 11.0329 -4.90312 -3.23834 0
M  V30 159 H 12.5569 -4.53086 -4.09323 0
M  V30 160 H 13.9709 -5.37812 -1.98573 0
M  V30 161 H 12.3679 -5.84746 -1.34878 0
M  V30 162 H 13.4379 -4.83548 -0.361868 0
M  V30 163 N 14.781 0.264519 -1.55364 0
M  V30 164 C 16.029 0.993021 -1.76021 0
M  V30 165 C 16.35 1.86511 -0.569099 0
M  V30 166 O 15.62 1.91438 0.415735 0
M  V30 167 H 14.2 0.369639 -0.649135 0
M  V30 168 H 16.862 0.286707 -1.9278 0
M  V30 169 H 15.958 1.62502 -2.66457 0
M  V30 170 N 16.2591 1.48442 0.529413 0
M  V30 171 C 17.1891 1.65902 1.64313 0
M  V30 172 C 18.1701 0.507897 1.6234 0
M  V30 173 O 19.3551 0.740503 1.79528 0
M  V30 174 C 16.4851 1.69911 3.02898 0
M  V30 175 C 15.4391 2.8453 3.19729 0
M  V30 176 C 14.7651 2.73629 4.59381 0
M  V30 177 C 16.0651 4.25821 3.02447 0
M  V30 178 H 17.7591 2.5914 1.49955 0
M  V30 179 H 15.3051 1.24709 0.719982 0
M  V30 180 H 17.2581 1.80715 3.80684 0
M  V30 181 H 15.9821 0.732524 3.18279 0
M  V30 182 H 14.6411 2.73283 2.44361 0
M  V30 183 H 14.2891 1.74938 4.71599 0
M  V30 184 H 13.9891 3.50541 4.71588 0
M  V30 185 H 15.5131 2.86401 5.39265 0
M  V30 186 H 16.9271 4.37898 3.70024 0
M  V30 187 H 15.3241 5.03735 3.26146 0
M  V30 188 H 16.3941 4.42244 1.98867 0
M  V30 189 N 17.7372 -0.778329 1.37039 0
M  V30 190 C 18.6672 -1.90546 1.34962 0
M  V30 191 C 19.6482 -1.68681 0.219274 0
M  V30 192 O 20.8332 -1.89634 0.418624 0
M  V30 193 C 17.9632 -3.27734 1.14925 0
M  V30 194 C 16.9172 -3.64147 2.24902 0
M  V30 195 C 16.2432 -4.99806 1.89996 0
M  V30 196 C 17.5432 -3.71579 3.67051 0
M  V30 197 H 19.2372 -1.92541 2.29277 0
M  V30 198 H 16.7832 -0.924948 1.10366 0
M  V30 199 H 18.7362 -4.06215 1.12104 0
M  V30 200 H 17.4602 -3.26154 0.170631 0
M  V30 201 H 16.1192 -2.8797 2.26868 0
M  V30 202 H 15.7672 -4.94759 0.906796 0
M  V30 203 H 15.4672 -5.25139 2.63634 0
M  V30 204 H 16.9912 -5.80694 1.88749 0
M  V30 205 H 18.4052 -4.40227 3.67251 0
M  V30 206 H 16.8022 -4.08405 4.39688 0
M  V30 207 H 17.8722 -2.72404 4.01154 0
M  V30 208 N 19.2153 -1.21501 -1.00376 0
M  V30 209 C 20.1453 -0.999478 -2.11028 0
M  V30 210 C 21.1263 0.0759671 -1.6993 0
M  V30 211 O 22.3113 -0.0841106 -1.94018 0
M  V30 212 C 19.4413 -0.564709 -3.42678 0
M  V30 213 C 18.3953 -1.58486 -3.97576 0
M  V30 214 C 17.7213 -1.00628 -5.25146 0
M  V30 215 C 19.0213 -2.97204 -4.29496 0
M  V30 216 H 20.7153 -1.92495 -2.29317 0
M  V30 217 H 18.2613 -0.92693 -1.102 0
M  V30 218 H 20.2143 -0.401091 -4.19487 0
M  V30 219 H 18.9383 0.396411 -3.24185 0
M  V30 220 H 17.5973 -1.73606 -3.22888 0
M  V30 221 H 17.2453 -0.0368439 -5.02987 0
M  V30 222 H 16.9453 -1.68771 -5.62841 0
M  V30 223 H 18.4693 -0.854015 -6.04598 0
M  V30 224 H 19.8833 -2.8552 -4.97143 0
M  V30 225 H 18.2803 -3.62372 -4.78338 0
M  V30 226 H 19.3503 -3.47956 -3.3772 0
M  V30 227 N 20.6934 1.19889 -1.02296 0
M  V30 228 C 21.6234 2.25141 -0.619174 0
M  V30 229 C 22.6044 1.66051 0.368915 0
M  V30 230 O 23.7894 1.92546 0.252941 0
M  V30 231 C 20.9194 3.4728 0.0368783 0
M  V30 232 C 19.8734 4.19005 -0.872865 0
M  V30 233 C 19.1994 5.34637 -0.0822402 0
M  V30 234 C 20.4994 4.74452 -2.18387 0
M  V30 235 H 22.1934 2.59171 -1.49903 0
M  V30 236 H 19.7394 1.24579 -0.722222 0
M  V30 237 H 21.6924 4.20098 0.330958 0
M  V30 238 H 20.4164 3.12433 0.95149 0
M  V30 239 H 19.0754 3.48061 -1.15105 0
M  V30 240 H 18.7234 4.96034 0.83422 0
M  V30 241 H 18.4234 5.83557 -0.688149 0
M  V30 242 H 19.9474 6.10255 0.205238 0
M  V30 243 H 21.3614 5.39055 -1.95172 0
M  V30 244 H 19.7584 5.33834 -2.74119 0
M  V30 245 H 20.8284 3.92844 -2.84257 0
M  V30 246 N 22.1715 0.800033 1.35784 0
M  V30 247 C 23.4185 0.377342 1.98953 0
M  V30 248 C 23.7465 -1.05378 1.6348 0
M  V30 249 O 23.0015 -1.74459 0.886707 0
M  V30 250 C 23.3005 0.500276 3.53881 0
M  V30 251 C 22.9665 1.89375 4.09204 0
M  V30 252 C 21.6285 2.27499 4.24025 0
M  V30 253 C 23.9805 2.8057 4.39238 0
M  V30 254 C 21.3085 3.562 4.66195 0
M  V30 255 C 23.6605 4.0871 4.82844 0
M  V30 256 C 22.3245 4.46843 4.95871 0
M  V30 257 H 21.5945 0.138079 0.728021 0
M  V30 258 H 24.2415 1.01955 1.62103 0
M  V30 259 H 22.5465 -0.225405 3.91151 0
M  V30 260 H 24.2435 0.154097 4.00704 0
M  V30 261 H 20.8335 1.58753 3.98115 0
M  V30 262 H 25.0175 2.52367 4.27346 0
M  V30 263 H 20.2735 3.85602 4.74469 0
M  V30 264 H 24.4475 4.79481 5.05046 0
M  V30 265 H 22.0745 5.46623 5.28306 0
M  V30 266 N 23.6496 -1.47581 0.552962 0
M  V30 267 C 24.5796 -2.32762 -0.185451 0
M  V30 268 C 25.5606 -1.43527 -0.912905 0
M  V30 269 O 26.7456 -1.72388 -0.894201 0
M  V30 270 C 23.8756 -3.25219 -1.21859 0
M  V30 271 C 22.8296 -4.23661 -0.607864 0
M  V30 272 C 22.1556 -5.05413 -1.74533 0
M  V30 273 C 23.4556 -5.20481 0.435582 0
M  V30 274 H 25.1496 -2.94749 0.525684 0
M  V30 275 H 22.6956 -1.41738 0.254251 0
M  V30 276 H 24.6486 -3.8365 -1.7433 0
M  V30 277 H 23.3726 -2.61279 -1.95961 0
M  V30 278 H 22.0316 -3.66451 -0.104489 0
M  V30 279 H 21.6796 -4.3788 -2.47529 0
M  V30 280 H 21.3796 -5.72059 -1.34249 0
M  V30 281 H 22.9036 -5.66701 -2.27338 0
M  V30 282 H 24.3176 -5.733 -0.00290157 0
M  V30 283 H 22.7146 -5.95305 0.757067 0
M  V30 284 H 23.7846 -4.66217 1.33303 0
M  V30 285 N 25.1277 -0.289203 -1.54924 0
M  V30 286 C 26.0577 0.58549 -2.2604 0
M  V30 287 C 27.0387 1.14753 -1.25562 0
M  V30 288 O 28.2237 1.17906 -1.54311 0
M  V30 289 C 25.3537 1.76305 -2.99222 0
M  V30 290 C 24.3077 1.33191 -4.06748 0
M  V30 291 C 23.6337 2.5937 -4.6758 0
M  V30 292 C 24.9337 0.471775 -5.20165 0
M  V30 293 H 26.6277 -0.00763532 -2.99399 0
M  V30 294 H 24.1737 -0.00511229 -1.43999 0
M  V30 295 H 26.1267 2.38097 -3.47689 0
M  V30 296 H 24.8507 2.38223 -2.23422 0
M  V30 297 H 23.5097 0.737121 -3.59113 0
M  V30 298 H 23.1577 3.19576 -3.88433 0
M  V30 299 H 22.8577 2.31228 -5.40192 0
M  V30 300 H 24.3817 3.21985 -5.18804 0
M  V30 301 H 25.7957 0.995056 -5.64599 0
M  V30 302 H 24.1927 0.284639 -5.99425 0
M  V30 303 H 25.2627 -0.506041 -4.82252 0
M  V30 304 N 26.6058 1.57591 -0.0167156 0
M  V30 305 C 28.0168 1.79201 0.523834 0
M  V30 306 C 28.3678 0.925796 1.72984 0
M  V30 307 O 27.4928 0.132792 2.15992 0
M  V30 308 C 28.0878 3.25 0.957091 0
M  V30 309 C 26.6468 3.47648 1.44283 0
M  V30 310 C 25.7938 2.74374 0.401757 0
M  V30 311 H 28.7448 1.56831 -0.242816 0
M  V30 312 H 28.7658 3.34031 1.82219 0
M  V30 313 H 28.2778 3.88019 0.0791415 0
M  V30 314 H 26.3788 2.89866 2.34113 0
M  V30 315 H 26.4918 4.56352 1.45877 0
M  V30 316 H 24.8558 2.39485 0.867121 0
M  V30 317 H 25.6388 3.40102 -0.467513 0
M  V30 318 N 28.0839 -0.256276 1.55502 0
M  V30 319 C 29.0469 -1.30047 1.88734 0
M  V30 320 C 30.0469 -1.4154 0.763086 0
M  V30 321 O 31.2369 -1.40403 1.03115 0
M  V30 322 C 28.3689 -2.67953 2.10747 0
M  V30 323 H 29.5619 -1.01802 2.82093 0
M  V30 324 H 27.1149 -0.495134 1.4825 0
M  V30 325 H 27.8499 -3.01351 1.19825 0
M  V30 326 H 27.6349 -2.60993 2.92617 0
M  V30 327 H 29.1249 -3.43368 2.37673 0
M  V30 328 N 29.562 -1.4872 -0.521534 0
M  V30 329 C 30.472 -1.66569 -1.65203 0
M  V30 330 C 31.488 -0.548197 -1.65139 0
M  V30 331 O 32.664 -0.820339 -1.83936 0
M  V30 332 C 29.729 -1.70917 -3.01642 0
M  V30 333 C 28.79 -2.94356 -3.12495 0
M  V30 334 C 28.023 -2.98487 -4.42426 0
M  V30 335 O 28.246 -2.10786 -5.30024 0
M  V30 336 O 27.18 -3.90746 -4.57822 0
M  V30 337 H 31.006 -2.62298 -1.5308 0
M  V30 338 H 28.591 -1.3222 -0.695565 0
M  V30 339 H 30.473 -1.7625 -3.82771 0
M  V30 340 H 29.148 -0.783633 -3.14071 0
M  V30 341 H 28.055 -2.94552 -2.3063 0
M  V30 342 H 29.388 -3.86322 -3.04986 0
M  V30 343 N 31.0401 0.771051 -1.3745 0
M  V30 344 C 32.2801 1.54264 -1.34096 0
M  V30 345 C 32.6441 1.91858 0.0737639 0
M  V30 346 O 33.8451 2.67797 0.23203 0
M  V30 347 C 32.1161 2.77326 -2.25445 0
M  V30 348 S 33.6751 3.67383 -2.39948 0
M  V30 349 H 30.4931 0.528122 -0.476034 0
M  V30 350 H 33.0951 0.906633 -1.73206 0
M  V30 351 H 31.7991 2.47788 -3.27153 0
M  V30 352 H 31.3301 3.45886 -1.87421 0
M  V30 353 H 33.3451 4.69334 -1.61059 0
M  V30 354 N 32.5182 1.22032 0.997298 0
M  V30 355 C 33.4482 1.01065 2.10495 0
M  V30 356 C 34.4292 -0.0669542 1.69968 0
M  V30 357 O 35.6142 0.0943987 1.9397 0
M  V30 358 C 32.7442 0.582874 3.42374 0
M  V30 359 C 31.6982 1.60592 3.96729 0
M  V30 360 C 31.0242 1.03412 5.24605 0
M  V30 361 C 32.3242 2.99478 4.27914 0
M  V30 362 H 34.0182 1.93708 2.28292 0
M  V30 363 H 31.5642 0.932761 1.09707 0
M  V30 364 H 33.5172 0.423332 4.19268 0
M  V30 365 H 32.2412 -0.379213 3.24391 0
M  V30 366 H 30.9002 1.75316 3.21963 0
M  V30 367 H 30.5482 0.063518 5.0296 0
M  V30 368 H 30.2482 1.71754 5.61938 0
M  V30 369 H 31.7722 0.886066 6.04137 0
M  V30 370 H 33.1862 2.88153 4.95622 0
M  V30 371 H 31.5832 3.64903 4.76409 0
M  V30 372 H 32.6532 3.49742 3.3587 0
M  V30 373 N 33.9963 -1.19345 1.0293 0
M  V30 374 C 35.2443 -1.88665 0.724574 0
M  V30 375 C 35.5653 -1.80036 -0.749144 0
M  V30 376 O 34.8353 -1.2111 -1.53978 0
M  V30 377 H 33.4153 -0.698406 0.265025 0
M  V30 378 H 36.0773 -1.44885 1.30362 0
M  V30 379 H 35.1733 -2.94987 1.01926 0
M  V30 380 N 35.4744 -0.807222 -1.35358 0
M  V30 381 C 36.4374 -0.223665 -2.28106 0
M  V30 382 C 37.4374 0.589354 -1.4961 0
M  V30 383 O 38.6274 0.407745 -1.69361 0
M  V30 384 C 35.7594 0.688149 -3.33882 0
M  V30 385 H 36.9524 -1.04169 -2.81227 0
M  V30 386 H 34.5054 -0.577921 -1.45223 0
M  V30 387 H 35.2404 1.52984 -2.85948 0
M  V30 388 H 35.0254 0.10687 -3.91954 0
M  V30 389 H 36.5154 1.09075 -4.03104 0
M  V30 390 N 36.9525 1.47285 -0.560781 0
M  V30 391 C 37.8625 2.33846 0.187954 0
M  V30 392 C 38.8785 1.48412 0.908293 0
M  V30 393 O 40.0545 1.81332 0.876388 0
M  V30 394 C 37.1195 3.25178 1.2025 0
M  V30 395 C 36.1805 4.26504 0.489208 0
M  V30 396 C 35.4135 5.13472 1.45542 0
M  V30 397 O 35.6365 5.02959 2.6905 0
M  V30 398 O 34.5705 5.93902 0.977963 0
M  V30 399 H 38.3965 2.99177 -0.522177 0
M  V30 400 H 35.9815 1.45903 -0.321364 0
M  V30 401 H 37.8635 3.81584 1.78805 0
M  V30 402 H 36.5385 2.6247 1.89449 0
M  V30 403 H 35.4455 3.73847 -0.137627 0
M  V30 404 H 36.7785 4.91935 -0.161399 0
M  V30 405 N 38.4306 0.297415 1.54768 0
M  V30 406 C 39.6786 -0.312295 1.99673 0
M  V30 407 C 39.9996 -1.54686 1.18732 0
M  V30 408 O 39.2696 -1.93854 0.282382 0
M  V30 409 H 37.8496 -0.118381 0.73756 0
M  V30 410 H 40.5116 0.407915 1.90583 0
M  V30 411 H 39.6076 -0.586813 3.06534 0
M  V30 412 N 39.9087 -1.5758 0.0250728 0
M  V30 413 C 41.3247 -1.56124 -0.331282 0
M  V30 414 C 41.5247 -1.03029 -1.73169 0
M  V30 415 O 40.5807 -0.675215 -2.43305 0
M  V30 416 C 41.8937 -3.00139 -0.183584 0
M  V30 417 C 43.4417 -3.11946 -0.256654 0
M  V30 418 C 43.9167 -4.57793 -0.137792 0
M  V30 419 N 45.4077 -4.6279 -0.194904 0
M  V30 420 C 46.1427 -5.7326 -0.126655 0
M  V30 421 N 45.6387 -6.928 -0.00755288 0
M  V30 422 N 47.4317 -5.61811 -0.180348 0
M  V30 423 H 39.5827 -1.90424 0.94087 0
M  V30 424 H 41.8457 -0.875761 0.362968 0
M  V30 425 H 41.5517 -3.4292 0.780927 0
M  V30 426 H 41.4257 -3.64899 -0.955448 0
M  V30 427 H 43.8127 -2.69079 -1.21162 0
M  V30 428 H 43.8937 -2.49915 0.545517 0
M  V30 429 H 43.5377 -5.01339 0.813739 0
M  V30 430 H 43.4677 -5.17798 -0.958775 0
M  V30 431 H 45.9587 -3.76807 -0.287267 0
M  V30 432 H 46.2717 -7.72791 0.0379428 0
M  V30 433 H 44.6167 -6.94995 0.0271731 0
M  V30 434 H 47.8077 -4.6731 -0.271767 0
M  V30 435 H 47.9807 -6.47882 -0.123697 0
M  V30 436 N 41.3868 0.248026 -1.55636 0
M  V30 437 C 42.3168 1.31079 -1.93237 0
M  V30 438 C 43.2978 1.50264 -0.797174 0
M  V30 439 O 44.4828 1.62891 -1.05737 0
M  V30 440 C 41.6128 2.66575 -2.22609 0
M  V30 441 C 40.5668 2.62087 -3.3837 0
M  V30 442 C 39.8928 4.01369 -3.53281 0
M  V30 443 C 41.1928 2.19171 -4.7409 0
M  V30 444 H 42.8868 0.998556 -2.82257 0
M  V30 445 H 40.4328 0.47891 -1.35803 0
M  V30 446 H 42.3858 3.41057 -2.47503 0
M  V30 447 H 41.1098 2.99432 -1.30414 0
M  V30 448 H 39.7688 1.90063 -3.13483 0
M  V30 449 H 39.4168 4.31489 -2.58508 0
M  V30 450 H 39.1168 3.99254 -4.31127 0
M  V30 451 H 40.6408 4.77552 -3.80495 0
M  V30 452 H 42.0548 2.83384 -4.98363 0
M  V30 453 H 40.4518 2.2817 -5.5503 0
M  V30 454 H 41.5218 1.14336 -4.71227 0
M  V30 455 N 42.8649 1.48995 0.513639 0
M  V30 456 C 43.8279 1.64229 1.59879 0
M  V30 457 C 44.8279 0.514696 1.5234 0
M  V30 458 O 46.0179 0.78087 1.55718 0
M  V30 459 C 43.1499 1.62783 2.99524 0
M  V30 460 H 44.3429 2.61004 1.47705 0
M  V30 461 H 41.8959 1.37837 0.736936 0
M  V30 462 H 42.6309 0.675461 3.17188 0
M  V30 463 H 42.4159 2.4466 3.06404 0
M  V30 464 H 43.9059 1.76669 3.78388 0
M  V30 465 N 44.343 -0.763751 1.37857 0
M  V30 466 C 45.273 -1.89103 1.36975 0
M  V30 467 C 46.254 -1.68439 0.237152 0
M  V30 468 O 47.439 -1.8918 0.438713 0
M  V30 469 C 44.569 -3.26496 1.18395 0
M  V30 470 C 43.523 -3.61741 2.28751 0
M  V30 471 C 42.849 -4.97762 1.95286 0
M  V30 472 C 44.149 -3.67665 3.70972 0
M  V30 473 H 45.843 -1.90099 2.31307 0
M  V30 474 H 43.389 -0.91319 1.11341 0
M  V30 475 H 45.342 -4.05003 1.16406 0
M  V30 476 H 44.066 -3.25955 0.205215 0
M  V30 477 H 42.725 -2.85547 2.29909 0
M  V30 478 H 42.373 -4.93769 0.959221 0
M  V30 479 H 42.073 -5.22313 2.69189 0
M  V30 480 H 43.597 -5.7866 1.94898 0
M  V30 481 H 45.011 -4.36307 3.719 0
M  V30 482 H 43.408 -4.03718 4.43995 0
M  V30 483 H 44.478 -2.68134 4.0402 0
M  V30 484 N 45.8211 -1.22559 -0.990812 0
M  V30 485 C 46.7681 -0.997519 -2.0813 0
M  V30 486 C 47.7381 0.0814702 -1.659 0
M  V30 487 O 48.9231 -0.0685424 -1.90677 0
M  V30 488 C 46.0631 -0.583615 -3.40129 0
M  V30 489 C 45.1761 -1.7336 -3.9569 0
M  V30 490 C 44.3111 -1.26748 -5.15857 0
M  V30 491 C 43.3501 -2.38888 -5.63559 0
M  V30 492 N 42.4871 -1.93308 -6.74964 0
M  V30 493 H 47.3271 -1.93099 -2.26973 0
M  V30 494 H 44.8641 -0.962114 -1.11273 0
M  V30 495 H 46.8221 -0.324801 -4.15934 0
M  V30 496 H 45.4521 0.312845 -3.2128 0
M  V30 497 H 44.5041 -2.10669 -3.16738 0
M  V30 498 H 45.8161 -2.57704 -4.27071 0
M  V30 499 H 44.9701 -0.966173 -5.98957 0
M  V30 500 H 43.7091 -0.394272 -4.86104 0
M  V30 501 H 42.7141 -2.69805 -4.79046 0
M  V30 502 H 43.9391 -3.26728 -5.95336 0
M  V30 503 H 41.8851 -1.08352 -6.4699 0
M  V30 504 H 41.8021 -2.71217 -7.05675 0
M  V30 505 H 43.0701 -1.66252 -7.61564 0
M  V30 506 N 47.2992 1.18797 -1.03562 0
M  V30 507 C 48.2292 2.24472 -0.643019 0
M  V30 508 C 49.2102 1.66433 0.351283 0
M  V30 509 O 50.3952 1.92803 0.232505 0
M  V30 510 C 47.5252 3.473 4.24935e-05 0
M  V30 511 C 46.4792 4.18055 -0.917257 0
M  V30 512 C 45.8052 5.34519 -0.138941 0
M  V30 513 C 47.1052 4.72109 -2.23407 0
M  V30 514 H 48.7992 2.57566 -1.52643 0
M  V30 515 H 46.3452 1.23806 -0.735394 0
M  V30 516 H 48.2982 4.20426 0.286383 0
M  V30 517 H 47.0222 3.13424 0.918299 0
M  V30 518 H 45.6812 3.46821 -1.1879 0
M  V30 519 H 45.3292 4.96891 0.781562 0
M  V30 520 H 45.0292 5.82794 -0.750005 0
M  V30 521 H 46.5532 6.10438 0.1405 0
M  V30 522 H 47.9672 5.36955 -2.00879 0
M  V30 523 H 46.3642 5.30897 -2.79765 0
M  V30 524 H 47.4342 3.89807 -2.88407 0
M  V30 525 N 48.7773 0.814389 1.34928 0
M  V30 526 C 50.0243 0.398423 1.98542 0
M  V30 527 C 50.3523 -1.03638 1.64589 0
M  V30 528 O 49.6073 -1.73509 0.90516 0
M  V30 529 C 49.9063 0.537781 3.53331 0
M  V30 530 C 49.5723 1.93704 4.07172 0
M  V30 531 C 48.2343 2.31984 4.21589 0
M  V30 532 C 50.5863 2.85213 4.36237 0
M  V30 533 C 47.9143 3.61125 4.62391 0
M  V30 534 C 50.2663 4.13809 4.78482 0
M  V30 535 C 48.9303 4.52077 4.91104 0
M  V30 536 H 48.2003 0.145793 0.726516 0
M  V30 537 H 50.8473 1.03669 1.61012 0
M  V30 538 H 49.1523 -0.183906 3.91368 0
M  V30 539 H 50.8493 0.196588 4.00518 0
M  V30 540 H 47.4393 1.62966 3.96409 0
M  V30 541 H 51.6233 2.56885 4.24645 0
M  V30 542 H 46.8793 3.90612 4.70353 0
M  V30 543 H 51.0533 4.84811 4.99932 0
M  V30 544 H 48.6803 5.52196 5.22478 0
M  V30 545 N 50.2554 -1.46986 0.568584 0
M  V30 546 C 51.6714 -1.57946 0.229189 0
M  V30 547 C 51.8714 -1.56567 -1.26843 0
M  V30 548 O 50.9274 -1.47511 -2.04931 0
M  V30 549 C 52.2404 -2.87963 0.865909 0
M  V30 550 C 53.7884 -3.01568 0.838188 0
M  V30 551 C 54.2634 -4.34301 1.45419 0
M  V30 552 N 55.7544 -4.40965 1.41788 0
M  V30 553 C 56.4894 -5.42256 1.86403 0
M  V30 554 N 55.9854 -6.50297 2.38926 0
M  V30 555 N 57.7784 -5.3337 1.77405 0
M  V30 556 H 49.9294 -1.46126 1.54146 0
M  V30 557 H 52.1924 -0.696156 0.643484 0
M  V30 558 H 51.8984 -2.94742 1.91886 0
M  V30 559 H 51.7724 -3.75423 0.365687 0
M  V30 560 H 54.1594 -2.94379 -0.206106 0
M  V30 561 H 54.2404 -2.1562 1.37629 0
M  V30 562 H 53.8844 -4.42247 2.49761 0
M  V30 563 H 53.8144 -5.19 0.891435 0
M  V30 564 H 56.3054 -3.63484 1.03381 0
M  V30 565 H 56.6184 -7.23777 2.70863 0
M  V30 566 H 54.9634 -6.51155 2.42944 0
M  V30 567 H 58.1544 -4.47865 1.3614 0
M  V30 568 H 58.3274 -6.12169 2.12492 0
M  V30 569 N 51.7335 -0.305618 -1.54608 0
M  V30 570 C 53.0105 0.355652 -1.92339 0
M  V30 571 C 53.3905 1.71324 -1.23335 0
M  V30 572 O 52.7385 2.25473 -0.370702 0
M  V30 573 C 52.9485 0.46572 -3.45879 0
M  V30 574 C 54.2965 0.734426 -4.182 0
M  V30 575 O 55.3205 0.54935 -3.51938 0
M  V30 576 O 54.1795 1.09024 -5.35515 0
M  V30 577 H 51.2735 0.199666 -0.802535 0
M  V30 578 H 53.8195 -0.354017 -1.65966 0
M  V30 579 H 52.5915 -0.488461 -3.88239 0
M  V30 580 H 52.2145 1.22367 -3.78301 0
M  V30 581 N 53.2116 1.57565 -0.0334293 0
M  V30 582 C 54.1416 2.13511 0.945265 0
M  V30 583 C 55.1226 1.05231 1.33643 0
M  V30 584 O 56.3076 1.33084 1.41429 0
M  V30 585 C 53.4376 2.6657 2.22616 0
M  V30 586 C 52.3916 3.79676 1.97561 0
M  V30 587 C 51.7176 4.1918 3.31952 0
M  V30 588 C 53.0176 5.0557 1.31135 0
M  V30 589 H 54.7116 2.95538 0.479325 0
M  V30 590 H 52.2576 1.42166 0.229115 0
M  V30 591 H 54.2106 3.04344 2.91466 0
M  V30 592 H 52.9346 1.8171 2.71384 0
M  V30 593 H 51.5936 3.42347 1.31127 0
M  V30 594 H 51.2416 3.31296 3.78487 0
M  V30 595 H 50.9416 4.95402 3.15992 0
M  V30 596 H 52.4656 4.59541 4.02063 0
M  V30 597 H 53.8796 5.40903 1.89992 0
M  V30 598 H 52.2766 5.86818 1.25559 0
M  V30 599 H 53.3466 4.84062 0.284894 0
M  V30 600 N 54.6897 -0.239769 1.55765 0
M  V30 601 C 55.9367 -0.966801 1.7793 0
M  V30 602 C 56.2647 -1.85046 0.599015 0
M  V30 603 O 55.5197 -1.91197 -0.417395 0
M  V30 604 C 55.8187 -1.852 3.05672 0
M  V30 605 C 55.4847 -1.1231 4.36689 0
M  V30 606 C 54.1467 -0.921689 4.72291 0
M  V30 607 C 56.4987 -0.607019 5.17653 0
M  V30 608 C 53.8267 -0.191996 5.86386 0
M  V30 609 C 56.1787 0.109241 6.32506 0
M  V30 610 C 54.8427 0.322073 6.66723 0
M  V30 611 H 54.1127 -0.353778 0.651093 0
M  V30 612 H 56.7597 -0.23634 1.90036 0
M  V30 613 H 55.0647 -2.64975 2.8861 0
M  V30 614 H 56.7617 -2.41635 3.20021 0
M  V30 615 H 53.3517 -1.29004 4.08725 0
M  V30 616 H 57.5357 -0.750153 4.90598 0
M  V30 617 H 52.7917 -0.0166949 6.11398 0
M  V30 618 H 56.9657 0.516737 6.9448 0
M  V30 619 H 54.5927 0.88944 7.54979 0
M  V30 620 N 56.1678 -1.49265 -0.50573 0
M  V30 621 C 57.1308 -1.65075 -1.59006 0
M  V30 622 C 58.1308 -0.522768 -1.52065 0
M  V30 623 O 59.3208 -0.789117 -1.55302 0
M  V30 624 C 56.4528 -1.64369 -2.98656 0
M  V30 625 H 57.6458 -2.61784 -1.46319 0
M  V30 626 H 55.1988 -1.38226 -0.729616 0
M  V30 627 H 55.9338 -0.692272 -3.16825 0
M  V30 628 H 55.7188 -2.46282 -3.05103 0
M  V30 629 H 57.2088 -1.78674 -3.77446 0
M  V30 630 N 57.6459 0.756429 -1.3826 0
M  V30 631 C 58.5939 1.89149 -1.35372 0
M  V30 632 C 59.5879 1.67691 -0.24004 0
M  V30 633 O 60.7939 1.75294 -0.408919 0
M  V30 634 H 57.1689 0.622271 -0.422236 0
M  V30 635 H 59.1399 1.88701 -2.31159 0
M  V30 636 C 57.8889 3.26599 -1.19284 0
M  V30 637 H 57.2119 3.43695 -2.0424 0
M  V30 638 H 58.6519 4.06274 -1.21316 0
M  V30 639 C 57.1109 3.3675 0.100454 0
M  V30 640 O 57.6409 3.86951 1.07851 0
M  V30 641 N 55.8469 2.90179 0.15633 0
M  V30 642 H 55.3939 2.49517 -0.640253 0
M  V30 643 H 55.3519 2.97352 1.02123 0
M  V30 644 N 59.124 1.23083 0.984299 0
M  V30 645 C 60.354 1.08556 1.75781 0
M  V30 646 C 60.762 -0.366171 1.85623 0
M  V30 647 O 60.105 -1.26524 1.33182 0
M  V30 648 C 60.167 1.63208 3.20318 0
M  V30 649 C 59.831 3.11922 3.33997 0
M  V30 650 C 60.828 4.09259 3.2063 0
M  V30 651 C 58.513 3.51552 3.58771 0
M  V30 652 C 60.507 5.4421 3.31835 0
M  V30 653 C 58.194 4.86649 3.69616 0
M  V30 654 C 59.192 5.82787 3.56157 0
M  V30 655 O 58.88 7.15431 3.66626 0
M  V30 656 H 58.612 0.380713 0.5586 0
M  V30 657 H 61.166 1.63321 1.2456 0
M  V30 658 H 59.396 1.0286 3.72769 0
M  V30 659 H 61.085 1.44216 3.79416 0
M  V30 660 H 61.851 3.79984 3.01392 0
M  V30 661 H 57.73 2.77239 3.6832 0
M  V30 662 H 61.274 6.1923 3.21247 0
M  V30 663 H 57.171 5.15601 3.88363 0
M  V30 664 H 57.939 7.23127 3.83445 0
M  V30 665 N 60.6021 -1.18246 1.0419 0
M  V30 666 C 61.8301 -1.92195 0.766072 0
M  V30 667 C 62.2451 -1.76247 -0.676933 0
M  V30 668 O 61.6021 -1.09293 -1.46155 0
M  V30 669 C 61.6531 -3.43568 1.12442 0
M  V30 670 O 61.3741 -3.59015 2.51078 0
M  V30 671 C 62.8751 -4.34613 0.873275 0
M  V30 672 H 60.0951 -0.610114 0.279288 0
M  V30 673 H 62.6391 -1.50007 1.38989 0
M  V30 674 H 60.7941 -3.8354 0.545542 0
M  V30 675 H 61.2081 -4.5273 2.64831 0
M  V30 676 H 62.6821 -5.39374 1.17385 0
M  V30 677 H 63.1591 -4.38781 -0.191909 0
M  V30 678 H 63.7651 -4.00341 1.43551 0
M  V30 679 N 62.0802 -0.821533 -1.34494 0
M  V30 680 C 63.3052 -0.420873 -2.03085 0
M  V30 681 C 63.7302 0.964915 -1.61465 0
M  V30 682 O 63.0882 1.62763 -0.798607 0
M  V30 683 C 63.1362 -0.529414 -3.56693 0
M  V30 684 O 62.2402 0.451302 -4.09923 0
M  V30 685 H 61.5812 -0.173489 -0.640935 0
M  V30 686 H 64.1112 -1.11157 -1.71771 0
M  V30 687 H 64.1212 -0.404671 -4.05988 0
M  V30 688 H 62.7962 -1.54014 -3.86332 0
M  V30 689 H 61.3732 0.285558 -3.71805 0
M  V30 690 N 63.5583 1.46682 -0.576371 0
M  V30 691 C 64.5213 2.28707 0.150239 0
M  V30 692 C 65.5213 1.38035 0.824794 0
M  V30 693 O 66.7113 1.60476 0.677719 0
M  V30 694 C 63.8433 3.18248 1.22192 0
M  V30 695 H 65.0363 2.94423 -0.570521 0
M  V30 696 H 62.5893 1.52688 -0.334078 0
M  V30 697 H 63.3243 2.57265 1.97447 0
M  V30 698 H 63.1093 3.85 0.742812 0
M  V30 699 H 64.5993 3.80001 1.73172 0
M  V30 700 N 65.0364 0.313813 1.54444 0
M  V30 701 C 65.9664 -0.549454 2.26943 0
M  V30 702 C 66.9474 -1.12741 1.27372 0
M  V30 703 O 68.1324 -1.15436 1.56167 0
M  V30 704 C 65.2624 -1.71523 3.01989 0
M  V30 705 C 64.2164 -1.26703 4.08816 0
M  V30 706 C 63.5424 -2.51898 4.71647 0
M  V30 707 C 64.8424 -0.388962 5.2085 0
M  V30 708 H 66.5364 0.0552661 2.99349 0
M  V30 709 H 64.0824 0.0280207 1.43973 0
M  V30 710 H 66.0354 -2.32535 3.51433 0
M  V30 711 H 64.7594 -2.34639 2.27183 0
M  V30 712 H 63.4184 -0.679896 3.6024 0
M  V30 713 H 63.0664 -3.13356 3.93468 0
M  V30 714 H 62.7664 -2.22605 5.43802 0
M  V30 715 H 64.2904 -3.1369 5.23861 0
M  V30 716 H 65.7044 -0.905107 5.6611 0
M  V30 717 H 64.1014 -0.18924 5.99802 0
M  V30 718 H 65.1714 0.582699 4.81386 0
M  V30 719 N 66.5145 -1.57545 0.0417849 0
M  V30 720 C 67.9305 -1.56467 -0.314704 0
M  V30 721 C 68.1305 -1.04859 -1.72066 0
M  V30 722 O 67.1865 -0.700983 -2.42575 0
M  V30 723 C 68.4995 -3.00317 -0.15174 0
M  V30 724 C 70.0475 -3.12201 -0.223553 0
M  V30 725 C 70.5225 -4.57913 -0.0892295 0
M  V30 726 N 72.0135 -4.6297 -0.145808 0
M  V30 727 C 72.7485 -5.73362 -0.0658459 0
M  V30 728 N 72.2445 -6.92769 0.0659282 0
M  V30 729 N 74.0375 -5.6197 -0.12075 0
M  V30 730 H 66.1885 -1.89416 0.961014 0
M  V30 731 H 68.4515 -0.871862 0.372237 0
M  V30 732 H 68.1575 -3.42073 0.817254 0
M  V30 733 H 68.0315 -3.65892 -0.916692 0
M  V30 734 H 70.4185 -2.70349 -1.18301 0
M  V30 735 H 70.4995 -2.49323 0.571994 0
M  V30 736 H 70.1435 -5.00448 0.866867 0
M  V30 737 H 70.0735 -5.18786 -0.903802 0
M  V30 738 H 72.5645 -3.7709 -0.247286 0
M  V30 739 H 72.8775 -7.72707 0.119905 0
M  V30 740 H 71.2225 -6.94927 0.100885 0
M  V30 741 H 74.4135 -4.67572 -0.222187 0
M  V30 742 H 74.5865 -6.47977 -0.0549735 0
M  V30 743 N 67.9926 0.231505 -1.5589 0
M  V30 744 C 69.4036 0.799327 -1.68724 0
M  V30 745 C 69.7546 1.85398 -0.642022 0
M  V30 746 O 68.8796 2.1539 0.208784 0
M  V30 747 C 69.4746 1.45664 -3.05888 0
M  V30 748 C 68.0336 1.97197 -3.20609 0
M  V30 749 C 67.1806 0.828552 -2.64632 0
M  V30 750 H 70.1316 0.00702616 -1.58698 0
M  V30 751 H 70.1526 2.32517 -3.01191 0
M  V30 752 H 69.6646 0.688808 -3.81939 0
M  V30 753 H 67.7656 2.76813 -2.4941 0
M  V30 754 H 67.8786 2.15878 -4.27707 0
M  V30 755 H 66.2426 1.23321 -2.22854 0
M  V30 756 H 67.0256 0.0735544 -3.43221 0
M  V30 757 N 69.4707 1.49531 0.497807 0
M  V30 758 C 70.7167 1.59415 1.25358 0
M  V30 759 C 71.0497 0.281422 1.9215 0
M  V30 760 O 70.3247 -0.715249 1.80871 0
M  V30 761 C 70.6077 2.75566 2.3181 0
M  V30 762 C 70.4607 4.16642 1.69498 0
M  V30 763 C 71.7797 2.87347 3.33346 0
M  V30 764 H 68.8987 0.580244 0.454408 0
M  V30 765 H 71.5407 1.81827 0.551262 0
M  V30 766 H 69.6907 2.56587 2.91711 0
M  V30 767 H 71.3627 4.47145 1.13399 0
M  V30 768 H 69.6057 4.22141 0.998978 0
M  V30 769 H 70.2767 4.93792 2.46725 0
M  V30 770 H 72.7527 3.04634 2.83438 0
M  V30 771 H 71.6287 3.70289 4.05188 0
M  V30 772 H 71.8897 1.96834 3.95865 0
M  V30 773 N 70.9488 -0.749086 1.3866 0
M  V30 774 C 71.9118 -1.84457 1.36045 0
M  V30 775 C 72.9118 -1.58682 0.260122 0
M  V30 776 O 74.1018 -1.66343 0.517261 0
M  V30 777 C 71.2338 -3.22008 1.11911 0
M  V30 778 H 72.4268 -1.88182 2.33512 0
M  V30 779 H 69.9798 -0.951266 1.24019 0
M  V30 780 H 70.7148 -3.2395 0.150686 0
M  V30 781 H 70.4998 -3.42111 1.91579 0
M  V30 782 H 71.9898 -4.0208 1.12788 0
M  V30 783 N 72.4269 -1.23603 -0.977757 0
M  V30 784 C 73.7039 -0.977897 -1.69401 0
M  V30 785 C 74.0839 0.502738 -2.05026 0
M  V30 786 O 73.4319 1.47459 -1.74551 0
M  V30 787 C 73.6419 -1.89077 -2.93345 0
M  V30 788 C 74.9899 -2.15579 -3.65802 0
M  V30 789 O 76.0139 -1.86648 -3.03383 0
M  V30 790 O 74.8729 -2.64658 -4.78141 0
M  V30 791 H 71.9669 -0.369025 -0.740101 0
M  V30 792 H 74.5129 -1.34657 -1.03274 0
M  V30 793 H 73.2849 -2.89158 -2.63634 0
M  V30 794 H 72.9079 -1.52463 -3.67207 0
M  V30 795 N 73.905 1.17692 -1.04816 0
M  V30 796 C 75.133 1.91786 -0.776254 0
M  V30 797 C 75.548 1.76604 0.667577 0
M  V30 798 O 74.905 1.10067 1.45573 0
M  V30 799 C 74.956 3.42967 -1.14263 0
M  V30 800 O 74.677 3.57678 -2.52978 0
M  V30 801 C 76.178 4.34144 -0.896311 0
M  V30 802 H 73.398 0.608624 -0.282519 0
M  V30 803 H 75.942 1.49268 -1.39783 0
M  V30 804 H 74.097 3.83245 -0.565874 0
M  V30 805 H 74.511 4.51319 -2.67229 0
M  V30 806 H 75.985 5.38744 -1.20244 0
M  V30 807 H 76.462 4.38876 0.168636 0
M  V30 808 H 77.068 3.99574 -1.45672 0
M  V30 809 N 75.3831 0.828654 1.34056 0
M  V30 810 C 76.6601 0.341809 1.9259 0
M  V30 811 C 77.0401 -1.17158 1.75605 0
M  V30 812 O 76.3881 -1.98132 1.13824 0
M  V30 813 C 76.5981 0.777453 3.4023 0
M  V30 814 C 77.9461 0.779579 4.17382 0
M  V30 815 O 78.9701 0.7204 3.48839 0
M  V30 816 O 77.8291 0.857996 5.39723 0
M  V30 817 H 74.9231 0.0946085 0.821571 0
M  V30 818 H 77.4691 0.913827 1.42994 0
M  V30 819 H 76.2411 1.8196 3.46419 0
M  V30 820 H 75.8641 0.181444 3.97186 0
M  V30 821 N 76.8612 -1.46375 0.584142 0
M  V30 822 C 77.7932 -2.28443 -0.186119 0
M  V30 823 C 78.8062 -1.38596 -0.854115 0
M  V30 824 O 79.9952 -1.63183 -0.723438 0
M  V30 825 C 77.0952 -3.13671 -1.28311 0
M  V30 826 C 76.2682 -4.31652 -0.706758 0
M  V30 827 C 75.3272 -4.98267 -1.69163 0
M  V30 828 O 74.3532 -5.55815 -1.22712 0
M  V30 829 N 75.5552 -4.95408 -3.02575 0
M  V30 830 H 78.3202 -2.9519 0.517986 0
M  V30 831 H 75.8812 -1.56303 0.42201 0
M  V30 832 H 77.8732 -3.55101 -1.94128 0
M  V30 833 H 76.4432 -2.48989 -1.89005 0
M  V30 834 H 75.6632 -3.93989 0.128908 0
M  V30 835 H 76.9512 -5.07906 -0.301506 0
M  V30 836 H 76.3492 -4.49902 -3.42936 0
M  V30 837 H 74.9062 -5.40774 -3.63877 0
M  V30 838 N 78.3393 -0.321999 -1.54275 0
M  V30 839 C 79.5673 0.283052 -2.04955 0
M  V30 840 C 79.9823 1.45904 -1.19823 0
M  V30 841 O 79.3393 1.81063 -0.228545 0
M  V30 842 C 79.3903 0.719028 -3.54277 0
M  V30 843 O 79.1113 -0.410175 -4.36176 0
M  V30 844 C 80.6123 1.38705 -4.21041 0
M  V30 845 H 77.8323 0.0584616 -0.668448 0
M  V30 846 H 80.3763 -0.467734 -1.99079 0
M  V30 847 H 78.5313 1.41979 -3.60445 0
M  V30 848 H 78.9453 -0.0669416 -5.24457 0
M  V30 849 H 80.4193 1.64306 -5.2698 0
M  V30 850 H 80.8963 2.33385 -3.72059 0
M  V30 851 H 81.5023 0.728906 -4.19007 0
M  V30 852 N 79.8174 1.5752 -0.0501392 0
M  V30 853 C 80.7474 2.14502 0.922566 0
M  V30 854 C 81.7284 1.06642 1.3252 0
M  V30 855 O 82.9134 1.34577 1.4001 0
M  V30 856 C 80.0434 2.68916 2.19776 0
M  V30 857 C 78.9974 3.8175 1.93523 0
M  V30 858 C 78.3234 4.22677 3.27487 0
M  V30 859 C 79.6234 5.06932 1.25765 0
M  V30 860 H 81.3174 2.9603 0.447952 0
M  V30 861 H 78.8634 1.42401 0.214024 0
M  V30 862 H 80.8164 3.07419 2.88222 0
M  V30 863 H 79.5404 1.84578 2.69441 0
M  V30 864 H 78.1994 3.43718 1.27489 0
M  V30 865 H 77.8474 3.35291 3.74952 0
M  V30 866 H 77.5474 4.98725 3.1072 0
M  V30 867 H 79.0714 4.63779 3.97166 0
M  V30 868 H 80.4854 5.42888 1.84244 0
M  V30 869 H 78.8824 5.88116 1.19328 0
M  V30 870 H 79.9524 4.84337 0.233536 0
M  V30 871 N 81.2955 -0.223234 1.56011 0
M  V30 872 C 82.2435 -1.29627 1.93131 0
M  V30 873 C 83.2375 -1.48608 0.813146 0
M  V30 874 O 84.4435 -1.49802 0.997966 0
M  V30 875 H 80.8185 -0.434563 0.613726 0
M  V30 876 H 82.7895 -0.955995 2.82672 0
M  V30 877 C 81.5385 -2.63983 2.26292 0
M  V30 878 H 80.8615 -2.50185 3.11846 0
M  V30 879 H 82.3015 -3.3788 2.56151 0
M  V30 880 C 80.7605 -3.18866 1.08747 0
M  V30 881 O 81.2905 -4.00192 0.347727 0
M  V30 882 N 79.4965 -2.77217 0.871743 0
M  V30 883 H 79.0435 -2.1119 1.47501 0
M  V30 884 H 79.0015 -3.1428 0.0869905 0
M  V30 885 N 82.7736 -1.49793 -0.48987 0
M  V30 886 C 84.0196 -1.60078 -1.24511 0
M  V30 887 C 84.3526 -0.291608 -1.91998 0
M  V30 888 O 83.6276 0.705647 -1.81248 0
M  V30 889 C 83.9106 -2.76791 -2.30345 0
M  V30 890 C 83.7636 -4.17535 -1.67286 0
M  V30 891 C 85.0826 -2.89111 -3.31817 0
M  V30 892 H 82.2016 -0.582645 -0.451324 0
M  V30 893 H 84.8436 -1.82117 -0.541612 0
M  V30 894 H 82.9936 -2.5813 -2.90346 0
M  V30 895 H 84.6656 -4.4774 -1.11026 0
M  V30 896 H 82.9086 -4.22665 -0.976577 0
M  V30 897 H 83.5796 -4.95094 -2.44103 0
M  V30 898 H 86.0556 -3.06133 -2.81819 0
M  V30 899 H 84.9316 -3.72433 -4.03219 0
M  V30 900 H 85.1926 -1.9893 -3.94815 0
M  V30 901 N 84.2517 0.741722 -1.39055 0
M  V30 902 C 85.4797 1.53098 -1.39171 0
M  V30 903 C 85.8947 1.88794 0.0155099 0
M  V30 904 O 85.2517 1.53626 0.985159 0
M  V30 905 C 85.3027 2.82274 -2.2584 0
M  V30 906 O 85.0237 2.48097 -3.61081 0
M  V30 907 C 86.5247 3.76343 -2.34266 0
M  V30 908 H 83.7447 0.473335 -0.4756 0
M  V30 909 H 86.2887 0.917045 -1.82785 0
M  V30 910 H 84.4437 3.40015 -1.85656 0
M  V30 911 H 84.8577 3.31029 -4.06842 0
M  V30 912 H 86.3317 4.63898 -2.9917 0
M  V30 913 H 86.8087 4.17619 -1.35982 0
M  V30 914 H 87.4147 3.24523 -2.74891 0
M  V30 915 N 85.7298 1.2412 0.971189 0
M  V30 916 C 86.6598 1.05508 2.08304 0
M  V30 917 C 87.6408 -0.0308864 1.70072 0
M  V30 918 O 88.8258 0.135521 1.93727 0
M  V30 919 C 85.9558 0.655365 3.4106 0
M  V30 920 C 84.9098 1.68971 3.93234 0
M  V30 921 C 84.2358 1.14516 5.22293 0
M  V30 922 C 85.5358 3.08487 4.21465 0
M  V30 923 H 87.2298 1.98507 2.24132 0
M  V30 924 H 84.7758 0.955821 1.07704 0
M  V30 925 H 86.7288 0.51217 4.18276 0
M  V30 926 H 85.4528 -0.31032 3.25122 0
M  V30 927 H 84.1118 1.82106 3.18171 0
M  V30 928 H 83.7598 0.170189 5.02712 0
M  V30 929 H 83.4598 1.83635 5.58168 0
M  V30 930 H 84.9838 1.01401 6.02121 0
M  V30 931 H 86.3978 2.98601 4.89398 0
M  V30 932 H 84.7948 3.74926 4.68562 0
M  V30 933 H 85.8648 3.56787 3.28376 0
M  V30 934 N 87.2079 -1.17134 1.05439 0
M  V30 935 C 88.1179 -2.24878 0.668365 0
M  V30 936 C 89.1339 -1.71186 -0.311687 0
M  V30 937 O 90.3099 -2.00738 -0.163161 0
M  V30 938 C 87.3749 -3.46662 0.051648 0
M  V30 939 C 86.4359 -4.15429 1.08246 0
M  V30 940 C 85.6689 -5.31399 0.495082 0
M  V30 941 O 85.8919 -5.66153 -0.694743 0
M  V30 942 O 84.8259 -5.89187 1.23056 0
M  V30 943 H 88.6519 -2.60189 1.56637 0
M  V30 944 H 86.2369 -1.24482 0.826104 0
M  V30 945 H 88.1189 -4.20394 -0.290966 0
M  V30 946 H 86.7939 -3.13142 -0.819971 0
M  V30 947 H 85.7009 -3.43704 1.47711 0
M  V30 948 H 87.0339 -4.52982 1.92532 0
M  V30 949 N 88.686 -0.835752 -1.33615 0
M  V30 950 C 89.932 -0.430596 -1.98176 0
M  V30 951 C 90.265 1.00684 -1.66061 0
M  V30 952 O 89.54 1.70339 -0.938877 0
M  V30 953 C 89.823 -0.648065 -3.5422 0
M  V30 954 C 89.676 -2.13255 -3.96033 0
M  V30 955 C 90.995 -0.0922113 -4.40003 0
M  V30 956 H 88.114 -0.157924 -0.719881 0
M  V30 957 H 90.756 -1.05069 -1.58305 0
M  V30 958 H 88.906 -0.120237 -3.88314 0
M  V30 959 H 90.578 -2.725 -3.72211 0
M  V30 960 H 88.821 -2.61823 -3.45878 0
M  V30 961 H 89.492 -2.23547 -5.04708 0
M  V30 962 H 91.968 -0.543343 -4.12537 0
M  V30 963 H 90.844 -0.274083 -5.48215 0
M  V30 964 H 91.105 1.00378 -4.30554 0
M  V30 965 N 90.1641 1.46063 -0.591896 0
M  V30 966 C 91.3921 2.06717 -0.0868936 0
M  V30 967 C 91.8071 1.43916 1.22203 0
M  V30 968 O 91.1641 0.547698 1.74088 0
M  V30 969 C 91.2151 3.6142 0.0758725 0
M  V30 970 O 90.9361 4.21874 -1.18126 0
M  V30 971 C 92.4371 4.39025 0.61416 0
M  V30 972 H 89.6571 0.668162 -0.0616518 0
M  V30 973 H 92.2011 1.8755 -0.815175 0
M  V30 974 H 90.3561 3.79983 0.754413 0
M  V30 975 H 90.7701 5.14861 -1.00092 0
M  V30 976 H 92.2441 5.4783 0.677193 0
M  V30 977 H 92.7211 4.07708 1.63312 0
M  V30 978 H 93.3271 4.2529 -0.0298142 0
M  V30 979 N 91.6422 0.330177 1.54103 0
M  V30 980 C 92.5722 -0.525353 2.27513 0
M  V30 981 C 93.5532 -1.11383 1.2856 0
M  V30 982 O 94.7382 -1.13773 1.57383 0
M  V30 983 C 91.8682 -1.6831 3.03791 0
M  V30 984 C 90.8222 -1.2236 4.10137 0
M  V30 985 C 90.1482 -2.46882 4.74293 0
M  V30 986 C 91.4482 -0.333697 5.21233 0
M  V30 987 H 93.1422 0.087013 2.99274 0
M  V30 988 H 90.6882 0.0432893 1.43935 0
M  V30 989 H 92.6412 -2.28795 3.5388 0
M  V30 990 H 91.3652 -2.32216 2.29659 0
M  V30 991 H 90.0242 -0.64165 3.60941 0
M  V30 992 H 89.6722 -3.09165 3.96769 0
M  V30 993 H 89.3722 -2.16825 5.46133 0
M  V30 994 H 90.8962 -3.08117 5.27159 0
M  V30 995 H 92.3102 -0.845013 5.67038 0
M  V30 996 H 90.7072 -0.125612 5.99969 0
M  V30 997 H 91.7772 0.633724 4.80741 0
M  V30 998 N 93.1203 -1.57491 0.0584922 0
M  V30 999 C 94.3453 -1.97711 -0.62652 0
M  V30 1000 C 94.7703 -0.936132 -1.63151 0
M  V30 1001 O 94.1283 0.099811 -1.81025 0
M  V30 1002 C 94.1763 -3.36989 -1.28338 0
M  V30 1003 O 93.2803 -3.35433 -2.39913 0
M  V30 1004 H 92.6213 -0.643868 -0.162266 0
M  V30 1005 H 95.1513 -2.04193 0.129064 0
M  V30 1006 H 95.1613 -3.73879 -1.63335 0
M  V30 1007 H 93.8363 -4.12289 -0.546889 0
M  V30 1008 H 92.4133 -3.10298 -2.06809 0
M  V30 1009 N 94.5984 0.214957 -1.56127 0
M  V30 1010 C 95.5304 1.29004 -1.89448 0
M  V30 1011 C 96.5434 1.42716 -0.783326 0
M  V30 1012 O 97.7324 1.43496 -1.06166 0
M  V30 1013 C 94.8324 2.66482 -2.09381 0
M  V30 1014 C 94.0054 2.74633 -3.40434 0
M  V30 1015 C 93.0644 3.9317 -3.49719 0
M  V30 1016 O 92.0904 3.812 -4.227 0
M  V30 1017 N 93.2924 5.07765 -2.81346 0
M  V30 1018 H 96.0574 1.00743 -2.82261 0
M  V30 1019 H 93.6184 0.40497 -1.56753 0
M  V30 1020 H 95.6104 3.44173 -2.12901 0
M  V30 1021 H 94.1804 2.87314 -1.23163 0
M  V30 1022 H 93.4004 1.83368 -3.48955 0
M  V30 1023 H 94.6884 2.77054 -4.26754 0
M  V30 1024 H 94.0864 5.20386 -2.21843 0
M  V30 1025 H 92.6434 5.83474 -2.90519 0
M  V30 1026 N 96.0765 1.50051 0.48192 0
M  V30 1027 C 97.3255 1.59741 1.23149 0
M  V30 1028 C 97.6385 0.298163 1.93314 0
M  V30 1029 O 98.8445 0.273835 2.70116 0
M  V30 1030 C 97.3005 2.81926 2.23708 0
M  V30 1031 C 96.9085 4.18685 1.59396 0
M  V30 1032 C 98.6525 3.00956 2.99375 0
M  V30 1033 C 96.5595 5.3207 2.58178 0
M  V30 1034 H 95.4895 0.594838 0.46334 0
M  V30 1035 H 98.1405 1.76467 0.503169 0
M  V30 1036 H 96.5225 2.58736 2.99786 0
M  V30 1037 H 97.6965 4.52088 0.891811 0
M  V30 1038 H 96.0115 4.05171 0.960503 0
M  V30 1039 H 98.6085 3.82836 3.73283 0
M  V30 1040 H 98.9515 2.12258 3.58123 0
M  V30 1041 H 99.4845 3.24277 2.30411 0
M  V30 1042 H 96.2235 6.22888 2.04184 0
M  V30 1043 H 95.7435 5.03098 3.26577 0
M  V30 1044 H 97.4225 5.62196 3.20225 0
M  V30 1045 N 97.5546 -0.734337 1.39446 0
M  V30 1046 C 98.8036 -1.48937 1.36017 0
M  V30 1047 C 99.1166 -1.95557 -0.0409005 0
M  V30 1048 O 100.323 -2.70779 -0.19778 0
M  V30 1049 C 98.7786 -2.69125 2.38955 0
M  V30 1050 C 98.3866 -2.29452 3.8478 0
M  V30 1051 C 100.131 -3.46944 2.44603 0
M  V30 1052 C 98.0376 -3.46366 4.79358 0
M  V30 1053 H 96.9676 -0.559296 0.505672 0
M  V30 1054 H 99.6186 -0.800983 1.65095 0
M  V30 1055 H 98.0006 -3.40041 2.02948 0
M  V30 1056 H 99.1746 -1.66077 4.29831 0
M  V30 1057 H 97.4896 -1.64723 3.82433 0
M  V30 1058 H 100.087 -4.33907 3.12456 0
M  V30 1059 H 100.43 -3.89454 1.47076 0
M  V30 1060 H 100.963 -2.83056 2.79507 0
M  V30 1061 H 97.7016 -3.08905 5.78151 0
M  V30 1062 H 97.2216 -4.08719 4.38986 0
M  V30 1063 H 98.9006 -4.12691 4.98292 0
M  V30 1064 N 99.0327 -1.24633 -0.964593 0
M  V30 1065 C 100.31 -0.995809 -1.68354 0
M  V30 1066 C 100.69 0.480964 -2.05548 0
M  V30 1067 O 100.038 1.45599 -1.76105 0
M  V30 1068 C 100.248 -1.92177 -2.91323 0
M  V30 1069 C 101.596 -2.19446 -3.63495 0
M  V30 1070 O 102.62 -1.89855 -3.01386 0
M  V30 1071 O 101.479 -2.69714 -4.75307 0
M  V30 1072 H 98.5727 -0.376854 -0.736146 0
M  V30 1073 H 101.119 -1.35745 -1.0184 0
M  V30 1074 H 99.8907 -2.91938 -2.60553 0
M  V30 1075 H 99.5137 -1.56349 -3.65569 0
M  V30 1076 N 100.511 1.16574 -1.06058 0
M  V30 1077 C 101.444 2.19798 -0.61352 0
M  V30 1078 C 102.422 1.58509 0.362453 0
M  V30 1079 O 103.606 1.86527 0.271994 0
M  V30 1080 C 100.733 3.3855 0.100915 0
M  V30 1081 C 99.7788 4.18317 -0.831438 0
M  V30 1082 S 100.612 4.82375 -2.32539 0
M  V30 1083 C 101.768 6.04508 -1.62238 0
M  V30 1084 H 102.001 2.5738 -1.48805 0
M  V30 1085 H 99.5338 1.27327 -0.873338 0
M  V30 1086 H 101.492 4.07358 0.506898 0
M  V30 1087 H 100.153 2.99338 0.951604 0
M  V30 1088 H 99.3458 5.03232 -0.278071 0
M  V30 1089 H 98.9478 3.5499 -1.17719 0
M  V30 1090 H 101.24 6.71133 -0.926622 0
M  V30 1091 H 102.183 6.64389 -2.44934 0
M  V30 1092 H 102.591 5.53559 -1.106 0
M  V30 1093 N 101.989 0.842826 1.3317 0
M  V30 1094 C 103.266 0.362216 1.92217 0
M  V30 1095 C 103.646 -1.15289 1.76838 0
M  V30 1096 O 102.994 -1.96914 1.15919 0
M  V30 1097 C 103.204 0.813495 3.39387 0
M  V30 1098 C 104.552 0.823804 4.16532 0
M  V30 1099 O 105.576 0.757358 3.48055 0
M  V30 1100 O 104.435 0.915193 5.38782 0
M  V30 1101 H 101.529 0.103317 0.820521 0
M  V30 1102 H 104.075 0.928942 1.42017 0
M  V30 1103 H 102.847 1.85624 3.4447 0
M  V30 1104 H 102.47 0.223561 3.96971 0
M  V30 1105 N 103.467 -1.45747 0.599634 0
M  V30 1106 C 104.377 -2.34262 -0.125888 0
M  V30 1107 C 105.393 -1.50768 -0.868625 0
M  V30 1108 O 106.569 -1.83592 -0.828003 0
M  V30 1109 C 103.634 -3.28252 -1.11587 0
M  V30 1110 C 102.695 -4.27651 -0.375956 0
M  V30 1111 C 101.928 -5.1715 -1.31877 0
M  V30 1112 O 102.151 -5.09916 -2.55621 0
M  V30 1113 O 101.085 -5.96286 -0.820157 0
M  V30 1114 H 104.911 -2.97688 0.601315 0
M  V30 1115 H 102.496 -1.44999 0.359934 0
M  V30 1116 H 104.378 -3.86191 -1.68626 0
M  V30 1117 H 103.053 -2.67401 -1.82424 0
M  V30 1118 H 101.96 -3.7335 0.236698 0
M  V30 1119 H 103.293 -4.91334 0.29177 0
M  V30 1120 N 104.945 -0.338344 -1.53925 0
M  V30 1121 C 106.361 0.0137736 -1.59594 0
M  V30 1122 C 106.561 1.49186 -1.35447 0
M  V30 1123 O 105.617 2.24987 -1.14616 0
M  V30 1124 C 106.93 -0.41773 -2.97784 0
M  V30 1125 C 108.478 -0.369633 -3.1081 0
M  V30 1126 C 108.953 -0.776524 -4.51369 0
M  V30 1127 N 110.444 -0.730506 -4.57403 0
M  V30 1128 C 111.179 -1.01736 -5.64303 0
M  V30 1129 N 110.675 -1.3721 -6.79077 0
M  V30 1130 N 112.468 -0.941942 -5.54151 0
M  V30 1131 H 104.619 -1.3012 -1.67876 0
M  V30 1132 H 106.882 -0.530082 -0.78595 0
M  V30 1133 H 106.588 -1.44811 -3.20504 0
M  V30 1134 H 106.462 0.209729 -3.76616 0
M  V30 1135 H 108.849 0.651568 -2.87817 0
M  V30 1136 H 108.93 -1.03223 -2.34049 0
M  V30 1137 H 108.574 -1.79571 -4.75096 0
M  V30 1138 H 108.504 -0.0914649 -5.26521 0
M  V30 1139 H 110.995 -0.468783 -3.74981 0
M  V30 1140 H 111.308 -1.57597 -7.5656 0
M  V30 1141 H 109.653 -1.4105 -6.80536 0
M  V30 1142 H 112.844 -0.664184 -4.63364 0
M  V30 1143 H 113.017 -1.16884 -6.37371 0
M  V30 1144 N 106.423 1.57458 -0.0668435 0
M  V30 1145 C 107.371 2.13639 0.919851 0
M  V30 1146 C 108.365 1.07204 1.31163 0
M  V30 1147 O 109.571 1.25591 1.28945 0
M  V30 1148 H 105.946 0.683048 0.314562 0
M  V30 1149 H 107.917 2.95415 0.421047 0
M  V30 1150 C 106.666 2.70892 2.17975 0
M  V30 1151 H 105.989 3.5246 1.88711 0
M  V30 1152 H 107.429 3.13803 2.85138 0
M  V30 1153 C 105.888 1.65414 2.93496 0
M  V30 1154 O 106.418 1.07619 3.87015 0
M  V30 1155 N 104.624 1.36564 2.56512 0
M  V30 1156 H 104.171 1.83751 1.80536 0
M  V30 1157 H 104.129 0.66223 3.07347 0
M  V30 1158 N 107.901 -0.206675 1.56239 0
M  V30 1159 C 108.833 -1.27997 1.9013 0
M  V30 1160 C 109.846 -1.42299 0.790883 0
M  V30 1161 O 111.035 -1.42931 1.06925 0
M  V30 1162 C 108.135 -2.65368 2.10792 0
M  V30 1163 C 107.308 -2.72824 3.41886 0
M  V30 1164 C 106.367 -3.9131 3.51799 0
M  V30 1165 O 105.393 -3.78953 4.24716 0
M  V30 1166 N 106.595 -5.06265 2.84035 0
M  V30 1167 H 109.36 -0.992444 2.82791 0
M  V30 1168 H 106.921 -0.396652 1.56966 0
M  V30 1169 H 108.913 -3.43039 2.14724 0
M  V30 1170 H 107.483 -2.86657 1.24685 0
M  V30 1171 H 106.703 -1.81515 3.49923 0
M  V30 1172 H 107.991 -2.74786 4.28217 0
M  V30 1173 H 107.389 -5.19203 2.246 0
M  V30 1174 H 105.946 -5.81925 2.93609 0
M  V30 1175 N 109.379 -1.50304 -0.473955 0
M  V30 1176 C 110.625 -1.61389 -1.22806 0
M  V30 1177 C 110.958 -0.311955 -1.91678 0
M  V30 1178 O 110.233 0.686384 -1.81986 0
M  V30 1179 C 110.516 -2.79219 -2.27396 0
M  V30 1180 C 110.369 -4.19286 -1.62848 0
M  V30 1181 C 111.688 -2.92614 -3.28732 0
M  V30 1182 H 108.807 -0.587399 -0.445119 0
M  V30 1183 H 111.449 -1.82681 -0.522265 0
M  V30 1184 H 109.599 -2.61195 -2.87592 0
M  V30 1185 H 111.271 -4.48892 -1.06271 0
M  V30 1186 H 109.514 -4.23677 -0.931693 0
M  V30 1187 H 110.185 -4.97655 -2.38838 0
M  V30 1188 H 112.661 -3.09105 -2.78556 0
M  V30 1189 H 111.537 -3.76688 -3.99246 0
M  V30 1190 H 111.798 -2.03107 -3.92683 0
M  V30 1191 N 110.857 0.726932 -1.39834 0
M  V30 1192 C 111.787 1.85405 -1.41941 0
M  V30 1193 C 112.768 1.67751 -0.281728 0
M  V30 1194 O 113.953 1.8795 -0.488717 0
M  V30 1195 C 111.083 3.23243 -1.2701 0
M  V30 1196 C 110.037 3.55549 -2.38262 0
M  V30 1197 C 109.363 4.9241 -2.08415 0
M  V30 1198 C 110.663 3.577 -3.80589 0
M  V30 1199 H 112.357 1.83899 -2.36266 0
M  V30 1200 H 109.903 0.883349 -1.13723 0
M  V30 1201 H 111.856 4.01775 -1.27103 0
M  V30 1202 H 110.58 3.25296 -0.291564 0
M  V30 1203 H 109.239 2.79351 -2.37399 0
M  V30 1204 H 108.887 4.91052 -1.0898 0
M  V30 1205 H 108.587 5.14992 -2.82943 0
M  V30 1206 H 110.111 5.73289 -2.10171 0
M  V30 1207 H 111.525 4.26293 -3.83337 0
M  V30 1208 H 109.922 3.91804 -4.54543 0
M  V30 1209 H 110.992 2.57328 -4.10987 0
M  V30 1210 N 112.336 1.25143 0.95797 0
M  V30 1211 C 113.564 1.12424 1.73691 0
M  V30 1212 C 113.979 -0.322304 1.86029 0
M  V30 1213 O 113.336 -1.22186 1.35561 0
M  V30 1214 C 113.387 1.76933 3.15241 0
M  V30 1215 O 113.108 3.15932 3.03511 0
M  V30 1216 C 114.609 1.6995 4.09429 0
M  V30 1217 H 111.829 0.3923 0.544373 0
M  V30 1218 H 114.373 1.6544 1.20207 0
M  V30 1219 H 112.528 1.27895 3.6568 0
M  V30 1220 H 112.942 3.47598 3.9278 0
M  V30 1221 H 114.416 2.19753 5.06372 0
M  V30 1222 H 114.893 0.662619 4.34173 0
M  V30 1223 H 115.499 2.18461 3.64904 0
M  V30 1224 N 113.814 -1.1601 1.06675 0
M  V30 1225 C 114.744 -2.22688 0.702307 0
M  V30 1226 C 115.725 -1.67306 -0.307032 0
M  V30 1227 O 116.91 -1.93352 -0.181305 0
M  V30 1228 C 114.04 -3.47178 0.092038 0
M  V30 1229 C 112.994 -4.15477 1.02777 0
M  V30 1230 C 112.32 -5.33963 0.28061 0
M  V30 1231 C 113.62 -4.66019 2.35846 0
M  V30 1232 H 115.314 -2.53429 1.59419 0
M  V30 1233 H 112.86 -1.21813 0.767961 0
M  V30 1234 H 114.813 -4.21037 -0.174814 0
M  V30 1235 H 113.537 -3.15749 -0.834877 0
M  V30 1236 H 112.196 -3.43549 1.27944 0
M  V30 1237 H 111.844 -4.98788 -0.649545 0
M  V30 1238 H 111.544 -5.806 0.904258 0
M  V30 1239 H 113.068 -6.10596 0.021396 0
M  V30 1240 H 114.482 -5.3144 2.15045 0
M  V30 1241 H 112.879 -5.23293 2.93743 0
M  V30 1242 H 113.949 -3.82023 2.98641 0
M  V30 1243 N 115.292 -0.849877 -1.32721 0
M  V30 1244 C 116.522 -0.46408 -2.0132 0
M  V30 1245 C 116.93 0.94246 -1.64056 0
M  V30 1246 O 116.273 1.6257 -0.855379 0
M  V30 1247 C 116.335 -0.517887 -3.5575 0
M  V30 1248 C 115.999 -1.88248 -4.16427 0
M  V30 1249 C 116.996 -2.84726 -4.35002 0
M  V30 1250 C 114.681 -2.17832 -4.52609 0
M  V30 1251 C 116.675 -4.08945 -4.8892 0
M  V30 1252 C 114.362 -3.42304 -5.06232 0
M  V30 1253 C 115.36 -4.37677 -5.24335 0
M  V30 1254 O 115.048 -5.59946 -5.76815 0
M  V30 1255 H 114.78 -0.181327 -0.651227 0
M  V30 1256 H 117.334 -1.14713 -1.70382 0
M  V30 1257 H 115.564 0.221997 -3.86062 0
M  V30 1258 H 117.253 -0.148366 -4.05629 0
M  V30 1259 H 118.019 -2.63174 -4.07388 0
M  V30 1260 H 113.898 -1.44385 -4.37806 0
M  V30 1261 H 117.442 -4.83396 -5.02966 0
M  V30 1262 H 113.339 -3.63709 -5.33278 0
M  V30 1263 H 114.107 -5.61838 -5.95214 0
M  V30 1264 N 116.77 1.45427 -0.607355 0
M  V30 1265 C 117.7 2.3329 0.0989352 0
M  V30 1266 C 118.681 1.46816 0.859007 0
M  V30 1267 O 119.866 1.75588 0.829604 0
M  V30 1268 C 116.996 3.29518 1.09705 0
M  V30 1269 C 115.95 4.25626 0.450206 0
M  V30 1270 C 115.276 5.11542 1.55655 0
M  V30 1271 C 116.576 5.18505 -0.628455 0
M  V30 1272 H 118.27 2.92595 -0.634716 0
M  V30 1273 H 115.816 1.40696 -0.306681 0
M  V30 1274 H 117.769 3.89855 1.59971 0
M  V30 1275 H 116.493 2.68372 1.86129 0
M  V30 1276 H 115.152 3.66586 -0.0315886 0
M  V30 1277 H 114.8 4.46765 2.31107 0
M  V30 1278 H 114.5 5.76647 1.12925 0
M  V30 1279 H 116.024 5.74748 2.06148 0
M  V30 1280 H 117.438 5.72916 -0.209877 0
M  V30 1281 H 115.835 5.92085 -0.977489 0
M  V30 1282 H 116.905 4.60948 -1.50514 0
M  V30 1283 N 118.248 0.346503 1.53744 0
M  V30 1284 C 119.494 -0.242135 2.01954 0
M  V30 1285 C 119.849 -1.47962 1.22984 0
M  V30 1286 O 119.142 -1.89077 0.309924 0
M  V30 1287 C 119.336 -0.605809 3.52228 0
M  V30 1288 C 119.165 0.594882 4.45748 0
M  V30 1289 C 117.935 1.1011 4.93157 0
M  V30 1290 C 120.133 1.45425 4.93311 0
M  V30 1291 N 118.115 2.26381 5.70636 0
M  V30 1292 C 119.486 2.46383 5.68942 0
M  V30 1293 C 121.541 1.47935 4.75415 0
M  V30 1294 C 120.244 3.49684 6.28581 0
M  V30 1295 C 122.27 2.50119 5.35905 0
M  V30 1296 C 121.632 3.49803 6.11406 0
M  V30 1297 H 117.731 -0.0518296 0.780281 0
M  V30 1298 H 120.315 0.486736 1.88518 0
M  V30 1299 H 118.486 -1.30378 3.65864 0
M  V30 1300 H 120.218 -1.17789 3.87179 0
M  V30 1301 H 116.973 0.668721 4.68855 0
M  V30 1302 H 117.397 2.85094 6.14044 0
M  V30 1303 H 122.039 0.722274 4.16585 0
M  V30 1304 H 119.757 4.26285 6.86518 0
M  V30 1305 H 123.343 2.52892 5.23963 0
M  V30 1306 H 122.223 4.27576 6.5738 0
M  V30 1307 N 119.726 -1.57421 0.075193 0
M  V30 1308 C 120.975 -1.92794 -0.592731 0
M  V30 1309 C 121.288 -0.957478 -1.70563 0
M  V30 1310 O 122.494 -1.20417 -2.43335 0
M  V30 1311 C 120.95 -3.42495 -1.10569 0
M  V30 1312 C 120.558 -4.47994 -0.0236121 0
M  V30 1313 C 122.302 -3.86864 -1.74748 0
M  V30 1314 C 120.209 -5.88829 -0.550803 0
M  V30 1315 H 119.139 -0.719591 -0.225177 0
M  V30 1316 H 121.79 -1.82902 0.147978 0
M  V30 1317 H 120.172 -3.47471 -1.89947 0
M  V30 1318 H 121.346 -4.54637 0.751099 0
M  V30 1319 H 119.661 -4.13113 0.522159 0
M  V30 1320 H 122.258 -4.8947 -2.15229 0
M  V30 1321 H 122.601 -3.24417 -2.60882 0
M  V30 1322 H 123.134 -3.84504 -1.01986 0
M  V30 1323 H 119.873 -6.54929 0.273457 0
M  V30 1324 H 119.393 -5.85698 -1.29296 0
M  V30 1325 H 121.072 -6.38811 -1.02613 0
M  V30 1326 N 121.204 0.198386 -1.56346 0
M  V30 1327 C 122.62 0.549085 -1.49857 0
M  V30 1328 C 122.82 1.86016 -0.774611 0
M  V30 1329 O 121.876 2.50416 -0.323776 0
M  V30 1330 C 123.189 0.606868 -2.94512 0
M  V30 1331 C 124.737 0.695925 -3.05165 0
M  V30 1332 C 125.212 0.784848 -4.51225 0
M  V30 1333 N 126.703 0.848463 -4.55363 0
M  V30 1334 C 127.438 0.937378 -5.65686 0
M  V30 1335 N 126.934 0.9888 -6.85707 0
M  V30 1336 N 128.727 0.974312 -5.53592 0
M  V30 1337 H 120.878 -0.661655 -2.01831 0
M  V30 1338 H 123.141 -0.235261 -0.918344 0
M  V30 1339 H 122.847 -0.28732 -3.50524 0
M  V30 1340 H 122.721 1.46268 -3.47686 0
M  V30 1341 H 125.108 1.58055 -2.49204 0
M  V30 1342 H 125.189 -0.186022 -2.55123 0
M  V30 1343 H 124.833 -0.0954072 -5.0781 0
M  V30 1344 H 124.763 1.68255 -4.98997 0
M  V30 1345 H 127.254 0.818103 -3.68938 0
M  V30 1346 H 127.567 1.05707 -7.65536 0
M  V30 1347 H 125.912 0.957534 -6.88372 0
M  V30 1348 H 129.103 0.930954 -4.58749 0
M  V30 1349 H 129.276 1.04015 -6.39597 0
M  V30 1350 N 122.682 1.50554 0.465978 0
M  V30 1351 C 123.614 1.65949 1.58093 0
M  V30 1352 C 124.627 0.540827 1.53554 0
M  V30 1353 O 125.816 0.814187 1.5885 0
M  V30 1354 C 122.916 1.63261 2.96983 0
M  V30 1355 C 122.089 2.91245 3.26336 0
M  V30 1356 C 121.148 2.8113 4.44806 0
M  V30 1357 O 120.174 3.55086 4.44862 0
M  V30 1358 N 121.376 1.95032 5.46756 0
M  V30 1359 H 124.141 2.62122 1.45301 0
M  V30 1360 H 121.702 1.48082 0.65448 0
M  V30 1361 H 123.694 1.54101 3.74212 0
M  V30 1362 H 122.264 0.748032 3.03518 0
M  V30 1363 H 121.484 3.14493 2.37672 0
M  V30 1364 H 122.772 3.76022 3.42761 0
M  V30 1365 H 122.17 1.3427 5.49534 0
M  V30 1366 H 120.727 1.91772 6.2295 0
M  V30 1367 N 124.16 -0.719506 1.40217 0
M  V30 1368 C 125.07 -1.86378 1.42479 0
M  V30 1369 C 126.086 -1.71073 0.317834 0
M  V30 1370 O 127.262 -1.93406 0.561794 0
M  V30 1371 C 124.327 -3.22136 1.28178 0
M  V30 1372 C 123.388 -3.49723 2.48982 0
M  V30 1373 C 122.621 -4.79004 2.35353 0
M  V30 1374 O 122.844 -5.53821 1.36524 0
M  V30 1375 O 121.778 -5.06839 3.2465 0
M  V30 1376 H 125.604 -1.87425 2.38968 0
M  V30 1377 H 123.189 -0.869405 1.21498 0
M  V30 1378 H 125.071 -4.03234 1.22395 0
M  V30 1379 H 123.746 -3.21825 0.347934 0
M  V30 1380 H 122.653 -2.6865 2.60342 0
M  V30 1381 H 123.986 -3.54828 3.41113 0
M  V30 1382 N 125.638 -1.25649 -0.95132 0
M  V30 1383 C 126.884 -1.11766 -1.69941 0
M  V30 1384 C 127.239 0.33735 -1.89419 0
M  V30 1385 O 126.532 1.24491 -1.45645 0
M  V30 1386 C 126.726 -1.80909 -3.08231 0
M  V30 1387 C 126.555 -3.32984 -3.02245 0
M  V30 1388 C 125.325 -4.02247 -3.05819 0
M  V30 1389 C 127.523 -4.29332 -2.83157 0
M  V30 1390 N 125.505 -5.41072 -2.90024 0
M  V30 1391 C 126.876 -5.55265 -2.75828 0
M  V30 1392 C 128.931 -4.19707 -2.67863 0
M  V30 1393 C 127.634 -6.72671 -2.54767 0
M  V30 1394 C 129.66 -5.36809 -2.48173 0
M  V30 1395 C 129.022 -6.61683 -2.41567 0
M  V30 1396 H 125.121 -0.463708 -0.629682 0
M  V30 1397 H 127.705 -1.58796 -1.12659 0
M  V30 1398 H 125.876 -1.36369 -3.63673 0
M  V30 1399 H 127.608 -1.59739 -3.71841 0
M  V30 1400 H 124.363 -3.53531 -3.15139 0
M  V30 1401 H 124.787 -6.13938 -2.85323 0
M  V30 1402 H 129.429 -3.23907 -2.71743 0
M  V30 1403 H 127.147 -7.68577 -2.49629 0
M  V30 1404 H 130.733 -5.31224 -2.37259 0
M  V30 1405 H 129.613 -7.50768 -2.26531 0
M  V30 1406 N 127.117 1.15442 -1.07289 0
M  V30 1407 C 128.345 1.90096 -0.81676 0
M  V30 1408 C 128.76 1.7798 0.629966 0
M  V30 1409 O 128.117 1.1313 1.43206 0
M  V30 1410 C 128.168 3.40466 -1.21512 0
M  V30 1411 O 127.889 3.52232 -2.60508 0
M  V30 1412 C 129.39 4.32145 -0.988198 0
M  V30 1413 H 126.61 0.602495 -0.295366 0
M  V30 1414 H 129.154 1.4627 -1.42918 0
M  V30 1415 H 127.309 3.81958 -0.647039 0
M  V30 1416 H 127.723 4.45549 -2.76742 0
M  V30 1417 H 129.197 5.36072 -1.31645 0
M  V30 1418 H 129.674 4.39135 0.0755063 0
M  V30 1419 H 130.28 3.96395 -1.54115 0
M  V30 1420 N 128.595 0.856903 1.32268 0
M  V30 1421 C 129.872 0.382583 1.91822 0
M  V30 1422 C 130.252 -1.13407 1.78051 0
M  V30 1423 O 129.6 -1.95673 1.18001 0
M  V30 1424 C 129.81 0.849446 3.38505 0
M  V30 1425 C 131.158 0.867936 4.15634 0
M  V30 1426 O 132.182 0.794232 3.47232 0
M  V30 1427 O 131.041 0.972286 5.37781 0
M  V30 1428 H 128.135 0.112014 0.819379 0
M  V30 1429 H 130.681 0.943952 1.41024 0
M  V30 1430 H 129.453 1.89267 3.42482 0
M  V30 1431 H 129.076 0.265652 3.96712 0
M  V30 1432 N 130.073 -1.45103 0.615059 0
M  V30 1433 C 131.036 -2.29025 -0.0895485 0
M  V30 1434 C 132.036 -1.40174 -0.787906 0
M  V30 1435 O 133.226 -1.62217 -0.634933 0
M  V30 1436 C 130.358 -3.21376 -1.13711 0
M  V30 1437 H 131.551 -2.92807 0.648382 0
M  V30 1438 H 129.104 -1.51749 0.374444 0
M  V30 1439 H 129.839 -2.6241 -1.90556 0
M  V30 1440 H 129.624 -3.86834 -0.640475 0
M  V30 1441 H 131.114 -3.84459 -1.63036 0
M  V30 1442 N 131.551 -0.354651 -1.53558 0
M  V30 1443 C 132.781 0.239167 -2.05211 0
M  V30 1444 C 133.189 1.43879 -1.22863 0
M  V30 1445 O 132.532 1.81857 -0.259565 0
M  V30 1446 C 132.594 0.707251 -3.52474 0
M  V30 1447 C 132.258 -0.374212 -4.55465 0
M  V30 1448 C 133.255 -1.22054 -5.0537 0
M  V30 1449 C 130.94 -0.531323 -4.99482 0
M  V30 1450 C 132.934 -2.20942 -5.97882 0
M  V30 1451 C 130.621 -1.52358 -5.91802 0
M  V30 1452 C 131.619 -2.36108 -6.40892 0
M  V30 1453 O 131.307 -3.33643 -7.31394 0
M  V30 1454 H 131.039 0.0479716 -0.674296 0
M  V30 1455 H 133.593 -0.508121 -1.99016 0
M  V30 1456 H 131.823 1.50596 -3.56171 0
M  V30 1457 H 133.512 1.22285 -3.87042 0
M  V30 1458 H 134.278 -1.1103 -4.7212 0
M  V30 1459 H 130.157 0.110738 -4.60867 0
M  V30 1460 H 133.701 -2.86348 -6.36121 0
M  V30 1461 H 129.598 -1.63434 -6.24467 0
M  V30 1462 H 130.366 -3.29244 -7.4936 0
M  V30 1463 N 133.029 1.57378 -0.0835403 0
M  V30 1464 C 133.959 2.1641 0.87686 0
M  V30 1465 C 134.94 1.09429 1.30228 0
M  V30 1466 O 136.125 1.37516 1.37124 0
M  V30 1467 C 133.255 2.73517 2.14022 0
M  V30 1468 C 132.209 3.85769 1.85381 0
M  V30 1469 C 131.535 4.29529 3.18448 0
M  V30 1470 C 132.835 5.09486 1.14984 0
M  V30 1471 H 134.529 2.96914 0.385059 0
M  V30 1472 H 132.075 1.42823 0.18377 0
M  V30 1473 H 134.028 3.13463 2.81636 0
M  V30 1474 H 132.752 1.90252 2.65465 0
M  V30 1475 H 131.411 3.46345 1.20169 0
M  V30 1476 H 131.059 3.43169 3.67755 0
M  V30 1477 H 130.759 5.05204 3.00071 0
M  V30 1478 H 132.283 4.72099 3.8724 0
M  V30 1479 H 133.697 5.46674 1.72687 0
M  V30 1480 H 132.094 5.90515 1.06826 0
M  V30 1481 H 133.164 4.84724 0.130749 0
M  V30 1482 N 134.507 -0.190092 1.56449 0
M  V30 1483 C 135.923 -0.54113 1.50146 0
M  V30 1484 C 136.123 -1.85603 0.784465 0
M  V30 1485 O 135.179 -2.5024 0.337051 0
M  V30 1486 C 136.492 -0.591241 2.9483 0
M  V30 1487 C 138.04 -0.679732 3.0553 0
M  V30 1488 C 138.515 -0.760908 4.51635 0
M  V30 1489 N 140.006 -0.824302 4.55806 0
M  V30 1490 C 140.741 -0.907365 5.66175 0
M  V30 1491 N 140.237 -0.952422 6.86222 0
M  V30 1492 N 142.03 -0.94494 5.541 0
M  V30 1493 H 134.181 0.67235 2.01478 0
M  V30 1494 H 136.444 0.240127 0.917084 0
M  V30 1495 H 136.15 0.305905 3.50367 0
M  V30 1496 H 136.024 -1.44422 3.48457 0
M  V30 1497 H 138.411 -1.56731 2.50039 0
M  V30 1498 H 138.492 0.199549 2.5502 0
M  V30 1499 H 138.136 0.122336 5.07753 0
M  V30 1500 H 138.066 -1.65606 4.99882 0
M  V30 1501 H 140.557 -0.798526 3.69367 0
M  V30 1502 H 140.87 -1.01645 7.66086 0
M  V30 1503 H 139.215 -0.921014 6.8887 0
M  V30 1504 H 142.406 -0.906612 4.59236 0
M  V30 1505 H 142.579 -1.00622 6.4014 0
M  V30 1506 N 135.985 -1.50799 -0.457987 0
M  V30 1507 C 137.231 -1.63648 -1.20792 0
M  V30 1508 C 137.586 -0.338662 -1.89396 0
M  V30 1509 O 136.879 0.664291 -1.79716 0
M  V30 1510 C 137.073 -2.76358 -2.2663 0
M  V30 1511 C 136.902 -4.16974 -1.68411 0
M  V30 1512 C 135.672 -4.83199 -1.47807 0
M  V30 1513 C 137.87 -5.00774 -1.17176 0
M  V30 1514 N 135.852 -6.07991 -0.849692 0
M  V30 1515 C 137.223 -6.16397 -0.667403 0
M  V30 1516 C 139.278 -4.86452 -1.06155 0
M  V30 1517 C 137.981 -7.19272 -0.0636908 0
M  V30 1518 C 140.007 -5.89515 -0.471759 0
M  V30 1519 C 139.369 -7.04397 0.0221557 0
M  V30 1520 H 135.468 -0.652888 -0.43042 0
M  V30 1521 H 138.052 -1.87962 -0.507785 0
M  V30 1522 H 136.223 -2.53744 -2.94056 0
M  V30 1523 H 137.955 -2.78496 -2.93636 0
M  V30 1524 H 134.71 -4.40714 -1.73403 0
M  V30 1525 H 135.134 -6.74733 -0.553537 0
M  V30 1526 H 139.776 -3.97907 -1.42932 0
M  V30 1527 H 137.494 -8.07481 0.316253 0
M  V30 1528 H 141.08 -5.805 -0.388671 0
M  V30 1529 H 139.96 -7.82782 0.471375 0
M  V30 1530 N 137.463 0.71206 -1.40597 0
M  V30 1531 C 138.74 1.46536 -1.29563 0
M  V30 1532 C 139.12 2.10931 0.0844217 0
M  V30 1533 O 138.468 2.00418 1.0975 0
M  V30 1534 C 138.678 2.49821 -2.43701 0
M  V30 1535 C 140.026 3.15551 -2.841 0
M  V30 1536 O 141.05 2.60142 -2.4332 0
M  V30 1537 O 139.909 4.15867 -3.54566 0
M  V30 1538 H 137.003 0.651801 -0.509004 0
M  V30 1539 H 139.549 0.743935 -1.52524 0
M  V30 1540 H 138.321 2.00778 -3.35863 0
M  V30 1541 H 137.944 3.29495 -2.22528 0
M  V30 1542 N 138.941 1.26152 0.944643 0
M  V30 1543 C 140.352 1.10454 1.50522 0
M  V30 1544 C 140.703 -0.31635 1.93633 0
M  V30 1545 O 139.828 -1.20746 1.79581 0
M  V30 1546 C 140.423 1.99891 2.73549 0
M  V30 1547 C 138.982 1.88348 3.25886 0
M  V30 1548 C 138.129 1.93447 1.9868 0
M  V30 1549 H 141.08 1.39292 0.760489 0
M  V30 1550 H 141.101 1.54477 3.47732 0
M  V30 1551 H 140.613 3.03297 2.42141 0
M  V30 1552 H 138.714 0.878636 3.62092 0
M  V30 1553 H 138.827 2.73696 3.93227 0
M  V30 1554 H 137.191 1.37456 2.14425 0
M  V30 1555 H 137.974 2.98476 1.69607 0
M  V30 1556 N 140.419 -1.14872 1.07899 0
M  V30 1557 C 141.367 -2.21857 0.698727 0
M  V30 1558 C 142.361 -1.66845 -0.293086 0
M  V30 1559 O 143.567 -1.79321 -0.156204 0
M  V30 1560 H 139.942 -0.722691 0.207899 0
M  V30 1561 H 141.913 -2.51205 1.61054 0
M  V30 1562 C 140.662 -3.47498 0.11858 0
M  V30 1563 H 139.985 -3.90154 0.872914 0
M  V30 1564 H 141.425 -4.23858 -0.109759 0
M  V30 1565 C 139.884 -3.16947 -1.1422 0
M  V30 1566 O 140.414 -3.3426 -2.22785 0
M  V30 1567 N 138.62 -2.70946 -1.05055 0
M  V30 1568 H 138.167 -2.57058 -0.167038 0
M  V30 1569 H 138.125 -2.50879 -1.89491 0
M  V30 1570 N 141.898 -0.863906 -1.31812 0
M  V30 1571 C 142.861 -0.320212 -2.26952 0
M  V30 1572 C 143.861 0.525369 -1.51975 0
M  V30 1573 O 145.051 0.335547 -1.70938 0
M  V30 1574 C 142.183 0.545919 -3.365 0
M  V30 1575 H 143.376 -1.16004 -2.76556 0
M  V30 1576 H 140.929 -0.638995 -1.42641 0
M  V30 1577 H 141.664 1.40718 -2.92179 0
M  V30 1578 H 141.449 -0.0594674 -3.92055 0
M  V30 1579 H 142.939 0.918796 -4.07367 0
M  V30 1580 N 143.376 1.44774 -0.622745 0
M  V30 1581 C 144.606 2.06187 -0.130532 0
M  V30 1582 C 145.014 1.46547 1.19669 0
M  V30 1583 O 144.357 0.579636 1.74316 0
M  V30 1584 C 144.419 3.59437 0.0674983 0
M  V30 1585 C 144.083 4.41496 -1.18026 0
M  V30 1586 C 145.08 4.75512 -2.102 0
M  V30 1587 C 142.765 4.82007 -1.41333 0
M  V30 1588 C 144.759 5.48912 -3.23998 0
M  V30 1589 C 142.446 5.55157 -2.55429 0
M  V30 1590 C 143.444 5.88528 -3.46589 0
M  V30 1591 O 143.132 6.60191 -4.58697 0
M  V30 1592 H 142.864 0.672045 -0.0730162 0
M  V30 1593 H 145.418 1.86768 -0.854802 0
M  V30 1594 H 143.648 3.77314 0.846825 0
M  V30 1595 H 145.337 4.02642 0.513209 0
M  V30 1596 H 146.103 4.4476 -1.93425 0
M  V30 1597 H 141.982 4.55457 -0.712709 0
M  V30 1598 H 145.526 5.74877 -3.95174 0
M  V30 1599 H 141.423 5.85324 -2.72151 0
M  V30 1600 H 142.191 6.78654 -4.57571 0
M  V30 1601 N 144.854 0.36279 1.53368 0
M  V30 1602 C 146.102 -0.227326 2.00817 0
M  V30 1603 C 146.423 -1.49511 1.25186 0
M  V30 1604 O 145.693 -1.92482 0.364348 0
M  V30 1605 H 144.273 -0.0869923 0.741917 0
M  V30 1606 H 146.935 0.488381 1.88682 0
M  V30 1607 H 146.031 -0.456273 3.08747 0
M  V30 1608 N 146.332 -1.57332 0.0918853 0
M  V30 1609 C 147.58 -1.93853 -0.571446 0
M  V30 1610 C 147.901 -0.974212 -1.6892 0
M  V30 1611 O 147.171 -0.0257254 -1.95883 0
M  V30 1612 H 145.751 -0.715666 -0.214082 0
M  V30 1613 H 148.413 -1.94287 0.154464 0
M  V30 1614 H 147.509 -2.96191 -0.983729 0
M  V30 1615 N 147.81 0.181792 -1.56548 0
M  V30 1616 C 148.74 1.22765 -1.98623 0
M  V30 1617 C 149.721 1.46747 -0.860189 0
M  V30 1618 O 150.906 1.58259 -1.12551 0
M  V30 1619 C 148.036 2.56894 -2.33715 0
M  V30 1620 C 146.99 2.475 -3.49182 0
M  V30 1621 C 146.316 3.86023 -3.69986 0
M  V30 1622 C 147.616 1.98866 -4.82959 0
M  V30 1623 H 149.31 0.877942 -2.86239 0
M  V30 1624 H 146.856 0.42088 -1.37712 0
M  V30 1625 H 148.809 3.30253 -2.61746 0
M  V30 1626 H 147.533 2.93632 -1.42997 0
M  V30 1627 H 146.192 1.76596 -3.21262 0
M  V30 1628 H 145.84 4.20136 -2.76576 0
M  V30 1629 H 145.54 3.80609 -4.47672 0
M  V30 1630 H 147.064 4.60984 -4.00407 0
M  V30 1631 H 148.478 2.61992 -5.09934 0
M  V30 1632 H 146.875 2.04424 -5.64208 0
M  V30 1633 H 147.945 0.942465 -4.75653 0
M  V30 1634 N 149.288 1.51039 0.449983 0
M  V30 1635 C 150.565 1.53612 1.21089 0
M  V30 1636 C 150.945 0.292997 2.09057 0
M  V30 1637 O 150.293 -0.72259 2.16774 0
M  V30 1638 C 150.503 2.84337 2.0237 0
M  V30 1639 C 151.851 3.35807 2.59843 0
M  V30 1640 O 152.875 2.85802 2.12593 0
M  V30 1641 O 151.734 4.23029 3.45989 0
M  V30 1642 H 148.828 0.617057 0.550608 0
M  V30 1643 H 151.374 1.63344 0.460082 0
M  V30 1644 H 150.146 3.66278 1.37681 0
M  V30 1645 H 149.769 2.77708 2.84542 0
M  V30 1646 N 150.766 -0.704594 1.40972 0
M  V30 1647 C 151.729 -1.80035 1.41845 0
M  V30 1648 C 152.729 -1.57774 0.310474 0
M  V30 1649 O 153.919 -1.64613 0.56992 0
M  V30 1650 C 151.051 -3.18284 1.22098 0
M  V30 1651 H 152.244 -1.80658 2.3938 0
M  V30 1652 H 149.797 -0.911329 1.26982 0
M  V30 1653 H 150.532 -3.23306 0.253672 0
M  V30 1654 H 150.317 -3.35843 2.02366 0
M  V30 1655 H 151.807 -3.98289 1.25522 0
M  V30 1656 N 152.244 -1.26651 -0.937939 0
M  V30 1657 C 153.493 -1.11775 -1.67897 0
M  V30 1658 C 153.806 0.33794 -1.92659 0
M  V30 1659 O 155.012 0.607434 -2.64618 0
M  V30 1660 C 153.468 -1.9523 -3.02346 0
M  V30 1661 C 153.076 -3.45393 -2.8532 0
M  V30 1662 C 154.82 -1.88972 -3.80118 0
M  V30 1663 C 152.727 -4.21083 -4.15263 0
M  V30 1664 H 151.657 -0.414696 -0.629717 0
M  V30 1665 H 154.308 -1.50988 -1.04283 0
M  V30 1666 H 152.69 -1.48853 -3.66959 0
M  V30 1667 H 153.864 -3.99561 -2.29537 0
M  V30 1668 H 152.179 -3.52921 -2.20988 0
M  V30 1669 H 154.776 -2.42805 -4.76392 0
M  V30 1670 H 155.119 -0.86113 -4.07296 0
M  V30 1671 H 155.652 -2.33189 -3.22285 0
M  V30 1672 H 152.391 -5.24425 -3.93267 0
M  V30 1673 H 151.911 -3.71695 -4.70747 0
M  V30 1674 H 153.59 -4.29706 -4.83696 0
M  V30 1675 N 153.722 1.14298 -1.08507 0
M  V30 1676 C 155.138 1.37347 -0.812901 0
M  V30 1677 C 155.338 1.93052 0.577325 0
M  V30 1678 O 154.394 2.14389 1.33393 0
M  V30 1679 C 155.707 2.33359 -1.89642 0
M  V30 1680 C 157.255 2.46996 -1.92255 0
M  V30 1681 C 157.73 3.46309 -2.99724 0
M  V30 1682 N 159.221 3.53853 -2.98902 0
M  V30 1683 C 159.956 4.3055 -3.787 0
M  V30 1684 N 159.452 5.10482 -4.6838 0
M  V30 1685 N 161.245 4.25757 -3.66998 0
M  V30 1686 H 153.396 0.764867 -1.9815 0
M  V30 1687 H 155.659 0.398966 -0.859959 0
M  V30 1688 H 155.365 1.99565 -2.89597 0
M  V30 1689 H 155.239 3.33274 -1.76659 0
M  V30 1690 H 157.626 2.80081 -0.929445 0
M  V30 1691 H 157.707 1.47039 -2.09316 0
M  V30 1692 H 157.351 3.13957 -3.99241 0
M  V30 1693 H 157.281 4.46049 -2.79907 0
M  V30 1694 H 159.772 2.96812 -2.33904 0
M  V30 1695 H 160.085 5.66284 -5.25873 0
M  V30 1696 H 158.43 5.09747 -4.72422 0
M  V30 1697 H 161.621 3.62383 -2.96304 0
M  V30 1698 H 161.794 4.85279 -4.29427 0
M  V30 1699 N 155.201 0.870884 1.31352 0
M  V30 1700 C 156.45 0.478408 1.95944 0
M  V30 1701 C 156.763 -0.974493 1.69597 0
M  V30 1702 O 157.969 -1.47316 2.28058 0
M  V30 1703 C 156.425 0.804609 3.50791 0
M  V30 1704 C 156.033 2.27433 3.85977 0
M  V30 1705 C 157.777 0.480648 4.2177 0
M  V30 1706 C 155.684 2.5429 5.33939 0
M  V30 1707 H 154.614 0.175175 0.733369 0
M  V30 1708 H 157.265 1.06391 1.4951 0
M  V30 1709 H 155.647 0.148347 3.95722 0
M  V30 1710 H 156.821 2.97373 3.52002 0
M  V30 1711 H 155.136 2.56442 3.28065 0
M  V30 1712 H 157.733 0.658519 5.30629 0
M  V30 1713 H 158.076 -0.578979 4.12254 0
M  V30 1714 H 158.609 1.09349 3.82476 0
M  V30 1715 H 155.348 3.58939 5.48491 0
M  V30 1716 H 154.868 1.88945 5.69263 0
M  V30 1717 H 156.547 2.39066 6.01212 0
M  V30 1718 N 156.679 -1.44442 0.630414 0
M  V30 1719 C 158.09 -1.85434 0.217063 0
M  V30 1720 C 158.441 -1.52748 -1.23136 0
M  V30 1721 O 157.566 -0.965205 -1.93682 0
M  V30 1722 C 158.161 -3.36581 0.387168 0
M  V30 1723 C 156.72 -3.76389 0.0283297 0
M  V30 1724 C 155.867 -2.68296 0.700889 0
M  V30 1725 H 158.818 -1.34919 0.83562 0
M  V30 1726 H 158.839 -3.78657 -0.374086 0
M  V30 1727 H 158.351 -3.60339 1.44144 0
M  V30 1728 H 156.452 -3.58246 -1.02423 0
M  V30 1729 H 156.565 -4.77095 0.437892 0
M  V30 1730 H 154.929 -2.54335 0.136267 0
M  V30 1731 H 155.712 -2.94887 1.75774 0
M  V30 1732 N 158.157 -0.370918 -1.53173 0
M  V30 1733 C 159.382 0.220293 -2.06227 0
M  V30 1734 C 159.807 1.41243 -1.24225 0
M  V30 1735 O 159.165 1.79387 -0.262645 0
M  V30 1736 C 159.213 0.586663 -3.55796 0
M  V30 1737 O 158.317 1.68317 -3.76488 0
M  V30 1738 H 157.658 0.0308099 -0.663285 0
M  V30 1739 H 160.188 -0.533068 -1.97534 0
M  V30 1740 H 160.198 0.85617 -3.98916 0
M  V30 1741 H 158.873 -0.285013 -4.14922 0
M  V30 1742 H 157.45 1.40881 -3.45264 0
M  V30 1743 N 159.635 1.57281 -0.100228 0
M  V30 1744 C 160.86 1.99302 0.573881 0
M  V30 1745 C 161.285 0.979059 1.60611 0
M  V30 1746 O 160.643 -0.0517803 1.81226 0
M  V30 1747 C 160.691 3.40274 1.19358 0
M  V30 1748 O 159.795 3.41676 2.30935 0
M  V30 1749 H 159.136 0.647944 0.145138 0
M  V30 1750 H 161.666 2.03779 -0.183156 0
M  V30 1751 H 161.676 3.78078 1.53365 0
M  V30 1752 H 160.351 4.13594 0.437385 0
M  V30 1753 H 158.928 3.15672 1.98509 0
M  V30 1754 N 161.113 -0.173488 1.56642 0
M  V30 1755 C 162.043 -1.2171 1.99271 0
M  V30 1756 C 163.024 -1.46289 0.867959 0
M  V30 1757 O 164.209 -1.5766 1.13388 0
M  V30 1758 C 161.339 -2.55651 2.35074 0
M  V30 1759 C 160.293 -2.45645 3.50489 0
M  V30 1760 C 159.619 -3.84056 3.72028 0
M  V30 1761 C 160.919 -1.96302 4.84007 0
M  V30 1762 H 162.613 -0.86275 2.867 0
M  V30 1763 H 160.159 -0.413571 1.37933 0
M  V30 1764 H 162.112 -3.2886 2.63494 0
M  V30 1765 H 160.836 -2.92869 1.44552 0
M  V30 1766 H 159.495 -1.7489 3.22194 0
M  V30 1767 H 159.143 -4.18664 2.788 0
M  V30 1768 H 158.843 -3.7823 4.49684 0
M  V30 1769 H 160.367 -4.58854 4.02846 0
M  V30 1770 H 161.781 -2.59284 5.11317 0
M  V30 1771 H 160.178 -2.01429 5.65284 0
M  V30 1772 H 161.248 -0.917226 4.76146 0
M  V30 1773 N 162.591 -1.51276 -0.441967 0
M  V30 1774 C 163.837 -1.63958 -1.19355 0
M  V30 1775 C 164.17 -0.352543 -1.90973 0
M  V30 1776 O 163.445 0.647627 -1.83401 0
M  V30 1777 C 163.728 -2.83979 -2.21422 0
M  V30 1778 C 163.581 -4.22646 -1.53918 0
M  V30 1779 C 164.9 -2.99521 -3.22451 0
M  V30 1780 H 162.019 -0.596709 -0.432559 0
M  V30 1781 H 164.661 -1.83748 -0.483398 0
M  V30 1782 H 162.811 -2.67237 -2.81987 0
M  V30 1783 H 164.483 -4.51045 -0.967256 0
M  V30 1784 H 162.726 -4.25558 -0.841615 0
M  V30 1785 H 163.397 -5.02609 -2.28229 0
M  V30 1786 H 165.873 -3.14944 -2.71937 0
M  V30 1787 H 164.749 -3.85072 -3.91166 0
M  V30 1788 H 165.01 -2.11391 -3.88287 0
M  V30 1789 N 164.069 0.697108 -1.41344 0
M  V30 1790 C 165.315 1.45796 -1.41828 0
M  V30 1791 C 165.67 1.92382 -0.0261743 0
M  V30 1792 O 164.963 1.66522 0.947688 0
M  V30 1793 C 165.157 2.68553 -2.35826 0
M  V30 1794 C 164.986 2.33975 -3.84039 0
M  V30 1795 C 163.756 2.24414 -4.52732 0
M  V30 1796 C 165.954 1.97048 -4.75054 0
M  V30 1797 N 163.936 1.82705 -5.86082 0
M  V30 1798 C 165.307 1.66086 -5.9734 0
M  V30 1799 C 167.362 1.83845 -4.62715 0
M  V30 1800 C 166.065 1.23246 -7.08663 0
M  V30 1801 C 168.091 1.4241 -5.73998 0
M  V30 1802 C 167.453 1.12357 -6.95381 0
M  V30 1803 H 163.552 0.530859 -0.574206 0
M  V30 1804 H 166.136 0.806674 -1.77203 0
M  V30 1805 H 164.307 3.31404 -2.02549 0
M  V30 1806 H 166.039 3.35015 -2.2704 0
M  V30 1807 H 162.794 2.4276 -4.0665 0
M  V30 1808 H 163.218 1.64337 -6.56751 0
M  V30 1809 H 167.86 2.05734 -3.69369 0
M  V30 1810 H 165.578 1.00102 -8.01876 0
M  V30 1811 H 169.164 1.32746 -5.66454 0
M  V30 1812 H 168.044 0.807795 -7.80028 0
M  V30 1813 N 165.547 1.27147 0.931209 0
M  V30 1814 C 166.963 1.04475 1.20653 0
M  V30 1815 C 167.163 -0.223885 2.00252 0
M  V30 1816 O 166.219 -0.930332 2.34736 0
M  V30 1817 C 167.532 2.28209 1.95809 0
M  V30 1818 C 169.08 2.33211 2.08762 0
M  V30 1819 C 169.555 3.56665 2.87323 0
M  V30 1820 N 171.046 3.57201 2.94892 0
M  V30 1821 C 171.781 4.49395 3.56134 0
M  V30 1822 N 171.277 5.51889 4.18796 0
M  V30 1823 N 173.07 4.37026 3.53504 0
M  V30 1824 H 165.221 2.08612 0.399333 0
M  V30 1825 H 167.484 0.917312 0.239253 0
M  V30 1826 H 167.19 3.20538 1.44736 0
M  V30 1827 H 167.064 2.33247 2.96438 0
M  V30 1828 H 169.451 1.41391 2.59023 0
M  V30 1829 H 169.532 2.32178 1.07364 0
M  V30 1830 H 169.176 4.4882 2.37746 0
M  V30 1831 H 169.106 3.54948 3.88998 0
M  V30 1832 H 171.597 2.83074 2.50354 0
M  V30 1833 H 171.91 6.18409 4.63454 0
M  V30 1834 H 170.255 5.55735 4.17353 0
M  V30 1835 H 173.446 3.56166 3.03749 0
M  V30 1836 H 173.619 5.09067 4.00942 0
M  V30 1837 N 167.025 -1.13721 1.09112 0
M  V30 1838 C 168.436 -1.6648 0.845068 0
M  V30 1839 C 168.787 -1.85911 -0.62701 0
M  V30 1840 O 167.912 -1.57556 -1.48341 0
M  V30 1841 C 168.507 -3.02413 1.52748 0
M  V30 1842 C 167.066 -3.52176 1.32849 0
M  V30 1843 C 166.213 -2.27492 1.58564 0
M  V30 1844 H 169.164 -0.976872 1.25072 0
M  V30 1845 H 169.185 -3.68223 0.958752 0
M  V30 1846 H 168.697 -2.88238 2.59885 0
M  V30 1847 H 166.798 -3.7156 0.278137 0
M  V30 1848 H 166.911 -4.32499 2.0611 0
M  V30 1849 H 165.275 -2.33923 1.00758 0
M  V30 1850 H 166.058 -2.15886 2.66924 0
M  V30 1851 N 168.503 -0.877838 -1.30888 0
M  V30 1852 C 169.78 -0.413052 -1.91189 0
M  V30 1853 C 170.16 1.1056 -1.79832 0
M  V30 1854 O 169.508 1.93771 -1.21099 0
M  V30 1855 C 169.718 -0.903191 -3.3711 0
M  V30 1856 C 171.066 -0.93395 -4.14201 0
M  V30 1857 O 172.09 -0.849373 -3.45925 0
M  V30 1858 O 170.949 -1.05772 -5.36167 0
M  V30 1859 H 168.043 -0.125035 -0.817493 0
M  V30 1860 H 170.589 -0.966269 -1.39504 0
M  V30 1861 H 169.361 -1.94692 -3.39427 0
M  V30 1862 H 168.984 -0.328732 -3.96239 0
M  V30 1863 N 169.982 1.44106 -0.638065 0
M  V30 1864 C 171.231 2.01194 -0.142744 0
M  V30 1865 C 171.544 1.50835 1.24532 0
M  V30 1866 O 172.75 2.00096 1.83504 0
M  V30 1867 C 171.206 3.59319 -0.20442 0
M  V30 1868 C 170.814 4.18674 -1.59423 0
M  V30 1869 C 172.558 4.23854 0.234079 0
M  V30 1870 C 170.465 5.69045 -1.61065 0
M  V30 1871 H 169.395 0.752367 -0.0495998 0
M  V30 1872 H 172.046 1.65246 -0.797881 0
M  V30 1873 H 170.428 3.92598 0.517946 0
M  V30 1874 H 171.602 3.96921 -2.34074 0
M  V30 1875 H 169.917 3.66453 -1.97741 0
M  V30 1876 H 172.514 5.34155 0.241443 0
M  V30 1877 H 172.857 3.96688 1.2627 0
M  V30 1878 H 173.39 3.95403 -0.436025 0
M  V30 1879 H 170.129 6.00956 -2.61787 0
M  V30 1880 H 169.649 5.929 -0.90718 0
M  V30 1881 H 171.328 6.32809 -1.34766 0
M  V30 1882 N 171.46 0.379036 1.52974 0
M  V30 1883 C 172.706 -0.206727 2.01744 0
M  V30 1884 C 173.039 -1.47314 1.26539 0
M  V30 1885 O 172.314 -1.91084 0.362903 0
M  V30 1886 C 172.597 -0.485066 3.56818 0
M  V30 1887 C 172.45 0.795919 4.42702 0
M  V30 1888 C 173.769 -1.28003 4.21074 0
M  V30 1889 H 170.888 -0.0736607 0.73331 0
M  V30 1890 H 173.53 0.506581 1.83122 0
M  V30 1891 H 171.68 -1.09272 3.72816 0
M  V30 1892 H 173.352 1.43307 4.38476 0
M  V30 1893 H 171.595 1.41344 4.10127 0
M  V30 1894 H 172.266 0.555947 5.49193 0
M  V30 1895 H 174.742 -0.765867 4.08991 0
M  V30 1896 H 173.618 -1.44352 5.29579 0
M  V30 1897 H 173.879 -2.29236 3.78026 0
M  V30 1898 N 172.938 -1.57226 0.108567 0
M  V30 1899 C 173.868 -2.17778 -0.84232 0
M  V30 1900 C 174.849 -1.11487 -1.2847 0
M  V30 1901 O 176.034 -1.39681 -1.34918 0
M  V30 1902 C 173.164 -2.76888 -2.09644 0
M  V30 1903 C 172.118 -3.88669 -1.79221 0
M  V30 1904 C 171.444 -4.34541 -3.11574 0
M  V30 1905 C 172.744 -5.11251 -1.06864 0
M  V30 1906 H 174.438 -2.97489 -0.337774 0
M  V30 1907 H 171.984 -1.43097 -0.161025 0
M  V30 1908 H 173.937 -3.17904 -2.76614 0
M  V30 1909 H 172.661 -1.94451 -2.62405 0
M  V30 1910 H 171.32 -3.48213 -1.14644 0
M  V30 1911 H 170.968 -3.48977 -3.62249 0
M  V30 1912 H 170.668 -5.09914 -2.91996 0
M  V30 1913 H 172.192 -4.782 -3.7968 0
M  V30 1914 H 173.606 -5.49352 -1.63968 0
M  V30 1915 H 172.003 -5.9214 -0.974178 0
M  V30 1916 H 173.073 -4.8487 -0.0536168 0
M  V30 1917 N 174.416 0.165178 -1.56732 0
M  V30 1918 C 175.646 0.894919 -1.86212 0
M  V30 1919 C 176.054 1.76066 -0.692627 0
M  V30 1920 O 175.397 1.80387 0.347303 0
M  V30 1921 C 175.459 1.8174 -3.10179 0
M  V30 1922 C 175.123 1.13064 -4.42793 0
M  V30 1923 C 176.12 0.493169 -5.17556 0
M  V30 1924 C 173.805 1.12556 -4.89527 0
M  V30 1925 C 175.799 -0.140209 -6.37246 0
M  V30 1926 C 173.486 0.488366 -6.09145 0
M  V30 1927 C 174.484 -0.143411 -6.82849 0
M  V30 1928 O 174.172 -0.77055 -8.00199 0
M  V30 1929 H 173.904 0.265114 -0.621844 0
M  V30 1930 H 176.458 0.168242 -2.0471 0
M  V30 1931 H 174.688 2.58455 -2.87642 0
M  V30 1932 H 176.377 2.4175 -3.26055 0
M  V30 1933 H 177.143 0.489023 -4.82528 0
M  V30 1934 H 173.022 1.60672 -4.32094 0
M  V30 1935 H 176.566 -0.633932 -6.94714 0
M  V30 1936 H 172.463 0.490116 -6.43637 0
M  V30 1937 H 173.231 -0.670408 -8.1575 0
M  V30 1938 N 175.894 1.51508 0.433938 0
M  V30 1939 C 176.842 1.73646 1.54757 0
M  V30 1940 C 177.836 0.602854 1.5831 0
M  V30 1941 O 179.042 0.784318 1.62014 0
M  V30 1942 H 175.417 0.548718 0.51421 0
M  V30 1943 H 177.388 2.66991 1.33261 0
M  V30 1944 C 176.137 1.88172 2.92381 0
M  V30 1945 H 175.46 2.74808 2.90381 0
M  V30 1946 H 176.9 2.07672 3.6966 0
M  V30 1947 C 175.359 0.64239 3.30719 0
M  V30 1948 O 175.889 -0.201362 4.01195 0
M  V30 1949 N 174.095 0.485489 2.86516 0
M  V30 1950 H 173.642 1.17318 2.29334 0
M  V30 1951 H 173.6 -0.342482 3.12529 0
M  V30 1952 N 177.372 -0.689602 1.41712 0
M  V30 1953 C 178.319 -1.80345 1.44029 0
M  V30 1954 C 179.289 -1.63478 0.293948 0
M  V30 1955 O 180.474 -1.84244 0.495869 0
M  V30 1956 C 177.614 -3.18272 1.33405 0
M  V30 1957 C 176.727 -3.46529 2.57956 0
M  V30 1958 C 175.862 -4.74103 2.39582 0
M  V30 1959 C 174.901 -4.95347 3.5958 0
M  V30 1960 N 174.038 -6.14151 3.40239 0
M  V30 1961 H 178.878 -1.77698 2.39222 0
M  V30 1962 H 176.415 -0.867688 1.18784 0
M  V30 1963 H 178.373 -3.97956 1.25246 0
M  V30 1964 H 177.003 -3.2008 0.418164 0
M  V30 1965 H 176.055 -2.61207 2.76542 0
M  V30 1966 H 177.367 -3.58126 3.47199 0
M  V30 1967 H 176.521 -5.61853 2.28924 0
M  V30 1968 H 175.26 -4.64763 1.47805 0
M  V30 1969 H 174.265 -4.06044 3.70686 0
M  V30 1970 H 175.49 -5.06542 4.52318 0
M  V30 1971 H 173.436 -6.06013 2.51167 0
M  V30 1972 H 173.353 -6.26543 4.23061 0
M  V30 1973 H 174.621 -7.04619 3.33365 0
M  V30 1974 N 178.85 -1.27639 -0.924453 0
M  V30 1975 C 179.813 -1.10681 -2.00705 0
M  V30 1976 C 180.813 -0.0497823 -1.60723 0
M  V30 1977 O 182.003 -0.294654 -1.7169 0
M  V30 1978 C 179.135 -0.687164 -3.33902 0
M  V30 1979 H 180.328 -2.06817 -2.17179 0
M  V30 1980 H 177.881 -1.10473 -1.10569 0
M  V30 1981 H 178.616 0.275439 -3.23128 0
M  V30 1982 H 178.401 -1.45061 -3.6428 0
M  V30 1983 H 179.891 -0.590853 -4.13399 0
M  V30 1984 N 180.328 1.1314 -1.09713 0
M  V30 1985 C 181.605 1.80762 -0.747302 0
M  V30 1986 C 181.985 1.96663 0.767265 0
M  V30 1987 O 181.333 1.53706 1.69076 0
M  V30 1988 C 181.543 3.15606 -1.48975 0
M  V30 1989 C 182.891 3.90914 -1.65746 0
M  V30 1990 O 183.915 3.25239 -1.45251 0
M  V30 1991 O 182.774 5.08718 -1.9967 0
M  V30 1992 H 179.868 0.782103 -0.268782 0
M  V30 1993 H 182.414 1.20041 -1.19951 0
M  V30 1994 H 181.186 2.99278 -2.52088 0
M  V30 1995 H 180.809 3.84029 -1.02991 0
M  V30 1996 N 181.806 0.884767 1.30421 0
M  V30 1997 C 182.769 0.356277 2.26414 0
M  V30 1998 C 183.769 -0.501124 1.52792 0
M  V30 1999 O 184.959 -0.30831 1.7145 0
M  V30 2000 C 182.091 -0.492316 3.37326 0
M  V30 2001 H 183.284 1.20389 2.74675 0
M  V30 2002 H 180.837 0.661607 1.41607 0
M  V30 2003 H 181.572 -1.36052 2.94381 0
M  V30 2004 H 181.357 0.121832 3.91911 0
M  V30 2005 H 182.847 -0.853871 4.08777 0
M  V30 2006 N 183.284 -1.43765 0.645699 0
M  V30 2007 C 184.216 -2.29027 -0.0890605 0
M  V30 2008 C 185.229 -1.42093 -0.794563 0
M  V30 2009 O 186.418 -1.66104 -0.653575 0
M  V30 2010 C 183.518 -3.18831 -1.14891 0
M  V30 2011 C 182.691 -4.34261 -0.523043 0
M  V30 2012 C 181.75 -5.04994 -1.47878 0
M  V30 2013 O 180.776 -5.6052 -0.990277 0
M  V30 2014 N 181.978 -5.07795 -2.81291 0
M  V30 2015 H 184.743 -2.92727 0.64272 0
M  V30 2016 H 182.304 -1.54373 0.487924 0
M  V30 2017 H 184.296 -3.63015 -1.78892 0
M  V30 2018 H 182.866 -2.56782 -1.78275 0
M  V30 2019 H 182.086 -3.93088 0.295896 0
M  V30 2020 H 183.374 -5.08728 -0.0858147 0
M  V30 2021 H 182.772 -4.64042 -3.23546 0
M  V30 2022 H 181.329 -5.55721 -3.40614 0
M  V30 2023 N 184.763 -0.387143 -1.52771 0
M  V30 2024 C 186.174 0.0873634 -1.86495 0
M  V30 2025 C 186.525 1.46336 -1.30691 0
M  V30 2026 O 185.65 2.068 -0.637409 0
M  V30 2027 C 186.245 0.165305 -3.38396 0
M  V30 2028 C 184.804 0.584101 -3.7184 0
M  V30 2029 C 183.951 -0.255279 -2.76122 0
M  V30 2030 H 186.902 -0.605104 -1.46711 0
M  V30 2031 H 186.923 0.984848 -3.67534 0
M  V30 2032 H 186.435 -0.836301 -3.78982 0
M  V30 2033 H 184.536 1.59315 -3.36823 0
M  V30 2034 H 184.649 0.343749 -4.77865 0
M  V30 2035 H 183.013 0.279126 -2.53166 0
M  V30 2036 H 183.796 -1.25482 -3.19545 0
M  V30 2037 N 186.241 1.57166 -0.116904 0
M  V30 2038 C 187.652 1.82169 0.408809 0
M  V30 2039 C 188.003 1.03393 1.66746 0
M  V30 2040 O 187.128 0.269886 2.1471 0
M  V30 2041 C 187.723 3.30429 0.748466 0
M  V30 2042 C 186.282 3.5612 1.21882 0
M  V30 2043 C 185.429 2.76374 0.226452 0
M  V30 2044 H 188.38 1.5497 -0.342063 0
M  V30 2045 H 188.401 3.44943 1.60607 0
M  V30 2046 H 187.913 3.87737 -0.167784 0
M  V30 2047 H 186.014 3.04168 2.15204 0
M  V30 2048 H 186.127 4.64705 1.16559 0
M  V30 2049 H 184.491 2.44515 0.713063 0
M  V30 2050 H 185.274 3.3644 -0.682859 0
M  V30 2051 N 187.719 -0.156864 1.56817 0
M  V30 2052 C 188.967 -0.869404 1.82444 0
M  V30 2053 C 189.288 -1.82147 0.69623 0
M  V30 2054 O 188.558 -1.93847 -0.28287 0
M  V30 2055 H 187.138 -0.324043 0.673056 0
M  V30 2056 H 189.8 -0.153224 1.94297 0
M  V30 2057 H 188.896 -1.43761 2.77019 0
M  V30 2058 N 189.197 -1.51736 -0.425897 0
M  V30 2059 C 190.422 -1.69082 -1.20108 0
M  V30 2060 C 190.847 -0.392398 -1.83962 0
M  V30 2061 O 190.205 0.64858 -1.69302 0
M  V30 2062 C 190.253 -2.81604 -2.25237 0
M  V30 2063 O 189.357 -2.46004 -3.30992 0
M  V30 2064 H 188.698 -0.563408 -0.35138 0
M  V30 2065 H 191.228 -1.98358 -0.501512 0
M  V30 2066 H 191.238 -3.06025 -2.69838 0
M  V30 2067 H 189.913 -3.75817 -1.78142 0
M  V30 2068 H 188.49 -2.32195 -2.91787 0
M  V30 2069 N 190.675 0.682077 -1.42076 0
M  V30 2070 C 191.638 1.77756 -1.44691 0
M  V30 2071 C 192.638 1.5726 -0.335535 0
M  V30 2072 O 193.828 1.63686 -0.596037 0
M  V30 2073 C 190.96 3.16301 -1.27146 0
M  V30 2074 H 192.153 1.76826 -2.42224 0
M  V30 2075 H 189.706 0.891012 -1.28416 0
M  V30 2076 H 190.441 3.22862 -0.305075 0
M  V30 2077 H 190.226 3.32581 -2.07683 0
M  V30 2078 H 191.716 3.96241 -1.31843 0
M  V30 2079 N 192.153 1.28127 0.917671 0
M  V30 2080 C 193.378 1.18007 1.70555 0
M  V30 2081 C 193.803 -0.258257 1.86319 0
M  V30 2082 O 193.161 -1.1869 1.37049 0
M  V30 2083 C 193.209 1.87948 3.07746 0
M  V30 2084 O 192.313 1.18427 3.9503 0
M  V30 2085 H 191.654 0.409867 0.522403 0
M  V30 2086 H 194.184 1.69379 1.1477 0
M  V30 2087 H 194.194 1.95701 3.58001 0
M  V30 2088 H 192.869 2.92573 2.95591 0
M  V30 2089 H 191.446 1.18811 3.53466 0
M  V30 2090 N 193.631 -1.12557 1.10312 0
M  V30 2091 C 194.859 -1.87864 0.866873 0
M  V30 2092 C 195.274 -1.79588 -0.582557 0
M  V30 2093 O 194.631 -1.16887 -1.40156 0
M  V30 2094 C 194.682 -3.37125 1.30496 0
M  V30 2095 O 194.403 -3.45201 2.69755 0
M  V30 2096 C 195.904 -4.29373 1.10243 0
M  V30 2097 H 193.124 -0.594452 0.311236 0
M  V30 2098 H 195.668 -1.42429 1.46745 0
M  V30 2099 H 193.823 -3.80109 0.748081 0
M  V30 2100 H 194.237 -4.38056 2.88457 0
M  V30 2101 H 195.711 -5.32394 1.45811 0
M  V30 2102 H 196.188 -4.39181 0.0409492 0
M  V30 2103 H 196.794 -3.92169 1.64571 0
M  V30 2104 N 195.109 -0.891671 -1.2995 0
M  V30 2105 C 196.057 -0.353066 -2.29905 0
M  V30 2106 C 197.051 0.543509 -1.60444 0
M  V30 2107 O 198.257 0.4272 -1.74857 0
M  V30 2108 H 194.632 -0.095531 -0.745907 0
M  V30 2109 H 196.603 -1.20961 -2.72784 0
M  V30 2110 C 195.352 0.411475 -3.45257 0
M  V30 2111 H 194.675 -0.269182 -3.98893 0
M  V30 2112 H 196.115 0.753328 -4.17254 0
M  V30 2113 C 194.574 1.6111 -2.9588 0
M  V30 2114 O 195.104 2.71045 -2.96475 0
M  V30 2115 N 193.31 1.45054 -2.51809 0
M  V30 2116 H 192.857 0.556175 -2.51524 0
M  V30 2117 H 192.815 2.25453 -2.1913 0
M  V30 2118 N 196.587 1.43421 -0.653314 0
M  V30 2119 C 197.833 2.02111 -0.166992 0
M  V30 2120 C 198.166 1.51423 1.21592 0
M  V30 2121 O 197.441 0.707389 1.8118 0
M  V30 2122 C 197.724 3.5966 -0.177948 0
M  V30 2123 C 197.577 4.20579 -1.59478 0
M  V30 2124 C 198.896 4.37413 0.4856 0
M  V30 2125 H 196.015 0.734374 -0.0621557 0
M  V30 2126 H 198.657 1.70717 -0.834016 0
M  V30 2127 H 196.807 3.86537 0.390032 0
M  V30 2128 H 198.479 4.04732 -2.21336 0
M  V30 2129 H 196.722 3.77226 -2.14204 0
M  V30 2130 H 197.393 5.29665 -1.5543 0
M  V30 2131 H 199.869 4.161 0.00234528 0
M  V30 2132 H 198.745 5.47075 0.447207 0
M  V30 2133 H 199.006 4.13672 1.55974 0
M  V30 2134 N 198.065 0.39524 1.52563 0
M  V30 2135 C 199.311 -0.185318 2.01952 0
M  V30 2136 C 199.644 -1.45964 1.28095 0
M  V30 2137 O 198.919 -1.90689 0.38315 0
M  V30 2138 C 199.202 -0.447193 3.57312 0
M  V30 2139 C 199.055 0.842828 4.41833 0
M  V30 2140 C 200.374 -1.23529 4.22408 0
M  V30 2141 H 197.493 -0.0658788 0.73405 0
M  V30 2142 H 200.135 0.525975 1.82575 0
M  V30 2143 H 198.285 -1.05312 3.73954 0
M  V30 2144 H 199.957 1.4795 4.36931 0
M  V30 2145 H 198.2 1.45686 4.08605 0
M  V30 2146 H 198.871 0.614165 5.48573 0
M  V30 2147 H 201.347 -0.722445 4.0978 0
M  V30 2148 H 200.223 -1.38727 5.3108 0
M  V30 2149 H 200.484 -2.25213 3.80436 0
M  V30 2150 N 199.544 -1.57102 0.125237 0
M  V30 2151 C 200.474 -2.18659 -0.819174 0
M  V30 2152 C 201.455 -1.12843 -1.27281 0
M  V30 2153 O 202.64 -1.41104 -1.33429 0
M  V30 2154 C 199.77 -2.79096 -2.06695 0
M  V30 2155 C 198.724 -3.90548 -1.75088 0
M  V30 2156 C 198.05 -4.37821 -3.06948 0
M  V30 2157 C 199.35 -5.12356 -1.01435 0
M  V30 2158 H 201.044 -2.9783 -0.306202 0
M  V30 2159 H 198.59 -1.4326 -0.145839 0
M  V30 2160 H 200.543 -3.2082 -2.73226 0
M  V30 2161 H 199.267 -1.97223 -2.60328 0
M  V30 2162 H 197.926 -3.49409 -1.10944 0
M  V30 2163 H 197.574 -3.52799 -3.58527 0
M  V30 2164 H 197.274 -5.12982 -2.86571 0
M  V30 2165 H 198.798 -4.822 -3.74587 0
M  V30 2166 H 200.212 -5.5106 -1.58132 0
M  V30 2167 H 198.609 -5.9314 -0.911319 0
M  V30 2168 H 199.679 -4.849 -0.00218681 0
M  V30 2169 N 201.022 0.148545 -1.56898 0
M  V30 2170 C 202.438 0.501131 -1.51528 0
M  V30 2171 C 202.638 1.83458 -0.833399 0
M  V30 2172 O 201.694 2.49259 -0.40328 0
M  V30 2173 C 203.007 0.512864 -2.96294 0
M  V30 2174 C 204.555 0.598487 -3.07225 0
M  V30 2175 C 205.03 0.640897 -4.53494 0
M  V30 2176 N 206.521 0.703163 -4.57832 0
M  V30 2177 C 207.256 0.756935 -5.68382 0
M  V30 2178 N 206.752 0.770147 -6.88506 0
M  V30 2179 N 208.545 0.797698 -5.56411 0
M  V30 2180 H 200.696 -0.725532 -1.99624 0
M  V30 2181 H 202.959 -0.264358 -0.910395 0
M  V30 2182 H 202.665 -0.398691 -3.49433 0
M  V30 2183 H 202.539 1.35133 -3.52163 0
M  V30 2184 H 204.926 1.50046 -2.54106 0
M  V30 2185 H 205.007 -0.267093 -2.54402 0
M  V30 2186 H 204.651 -0.256915 -5.0725 0
M  V30 2187 H 204.581 1.52295 -5.04097 0
M  V30 2188 H 207.072 0.700314 -3.71354 0
M  V30 2189 H 207.385 0.812983 -7.68512 0
M  V30 2190 H 205.73 0.738049 -6.9107 0
M  V30 2191 H 208.921 0.784535 -4.61479 0
M  V30 2192 H 209.094 0.83614 -6.42583 0
M  V30 2193 N 202.5 1.5196 0.417844 0
M  V30 2194 C 203.45 1.7106 1.5074 0
M  V30 2195 C 204.434 0.564487 1.50673 0
M  V30 2196 O 205.626 0.821206 1.56797 0
M  V30 2197 C 202.755 1.85677 2.88754 0
M  V30 2198 C 201.841 3.06133 2.93502 0
M  V30 2199 N 202.232 4.28987 2.67962 0
M  V30 2200 C 200.53 3.05787 3.24669 0
M  V30 2201 C 201.231 5.10395 2.79055 0
M  V30 2202 N 200.207 4.45455 3.11561 0
M  V30 2203 H 204.009 2.63696 1.29775 0
M  V30 2204 H 201.523 1.49873 0.625436 0
M  V30 2205 H 203.52 1.97475 3.67164 0
M  V30 2206 H 202.18 0.942348 3.10725 0
M  V30 2207 H 203.191 4.57607 2.4252 0
M  V30 2208 H 199.868 2.2405 3.52289 0
M  V30 2209 H 201.258 6.18247 2.63097 0
M  V30 2210 N 203.978 -0.674533 1.42435 0
M  V30 2211 C 205.255 -1.4305 1.33402 0
M  V30 2212 C 205.635 -2.11081 -0.0284674 0
M  V30 2213 O 204.983 -2.03257 -1.04397 0
M  V30 2214 C 205.193 -2.43272 2.50239 0
M  V30 2215 C 206.541 -3.07907 2.92367 0
M  V30 2216 O 207.565 -2.53599 2.50132 0
M  V30 2217 O 206.424 -4.0632 3.65467 0
M  V30 2218 H 203.518 -0.638076 0.526106 0
M  V30 2219 H 206.064 -0.703235 1.54443 0
M  V30 2220 H 204.836 -1.91803 3.41068 0
M  V30 2221 H 204.459 -3.23479 2.31186 0
M  V30 2222 N 205.456 -1.28612 -0.910864 0
M  V30 2223 C 206.704 -1.15705 -1.65701 0
M  V30 2224 C 207.025 0.29416 -1.92769 0
M  V30 2225 O 206.295 1.20331 -1.54588 0
M  V30 2226 H 204.875 -0.425216 -0.614167 0
M  V30 2227 H 207.537 -1.61381 -1.0928 0
M  V30 2228 H 206.633 -1.6988 -2.61815 0
M  V30 2229 N 206.934 1.1197 -1.10907 0
M  V30 2230 C 207.897 2.16031 -0.765707 0
M  V30 2231 C 208.897 1.59393 0.212235 0
M  V30 2232 O 210.087 1.74196 -0.0115441 0
M  V30 2233 C 207.219 3.40632 -0.135053 0
M  V30 2234 H 208.412 2.47919 -1.68748 0
M  V30 2235 H 205.965 1.27061 -0.910226 0
M  V30 2236 H 206.7 3.14348 0.797218 0
M  V30 2237 H 206.485 3.8302 -0.838937 0
M  V30 2238 H 207.975 4.17505 0.0892469 0
M  V30 2239 N 208.412 0.89855 1.29475 0
M  V30 2240 C 209.658 0.524658 1.95896 0
M  V30 2241 C 209.991 -0.926468 1.70676 0
M  V30 2242 O 209.266 -1.65665 1.01908 0
M  V30 2243 C 209.549 0.81633 3.50725 0
M  V30 2244 C 209.402 2.31907 3.85408 0
M  V30 2245 C 210.721 0.302038 4.39062 0
M  V30 2246 H 207.84 0.19209 0.711527 0
M  V30 2247 H 210.482 1.12502 1.53112 0
M  V30 2248 H 208.632 0.305369 3.87298 0
M  V30 2249 H 210.304 2.89949 3.58786 0
M  V30 2250 H 208.547 2.78027 3.32992 0
M  V30 2251 H 209.218 2.47373 4.93468 0
M  V30 2252 H 211.694 0.739551 4.09475 0
M  V30 2253 H 210.57 0.535331 5.46283 0
M  V30 2254 H 210.831 -0.797216 4.34853 0
M  V30 2255 N 209.89 -1.43072 0.660911 0
M  V30 2256 C 211.306 -1.56169 0.329173 0
M  V30 2257 C 211.506 -1.64317 -1.16629 0
M  V30 2258 O 210.562 -1.60245 -1.95135 0
M  V30 2259 C 211.875 -2.81873 1.04729 0
M  V30 2260 C 213.423 -2.95627 1.02828 0
M  V30 2261 C 213.898 -4.24174 1.72744 0
M  V30 2262 N 215.389 -4.31055 1.69545 0
M  V30 2263 C 216.124 -5.29304 2.20511 0
M  V30 2264 N 215.62 -6.33786 2.79799 0
M  V30 2265 N 217.413 -5.21008 2.10966 0
M  V30 2266 H 209.564 -1.36027 1.63127 0
M  V30 2267 H 211.827 -0.653823 0.686454 0
M  V30 2268 H 211.533 -2.81942 2.10242 0
M  V30 2269 H 211.407 -3.72338 0.603702 0
M  V30 2270 H 213.794 -2.95094 -0.0184742 0
M  V30 2271 H 213.875 -2.06431 1.51063 0
M  V30 2272 H 213.519 -4.25467 2.7738 0
M  V30 2273 H 213.449 -5.1228 1.2197 0
M  V30 2274 H 215.94 -3.56174 1.26288 0
M  V30 2275 H 216.253 -7.05086 3.16344 0
M  V30 2276 H 214.598 -6.34387 2.83863 0
M  V30 2277 H 217.789 -4.38301 1.64347 0
M  V30 2278 H 217.962 -5.97416 2.50993 0
M  V30 2279 N 211.368 -0.403325 -1.52352 0
M  V30 2280 C 212.614 0.167015 -2.02713 0
M  V30 2281 C 212.969 1.43296 -1.28391 0
M  V30 2282 O 212.262 1.87796 -0.379885 0
M  V30 2283 C 212.456 0.474665 -3.54234 0
M  V30 2284 C 212.285 -0.759909 -4.43233 0
M  V30 2285 C 211.055 -1.28338 -4.88731 0
M  V30 2286 C 213.253 -1.63634 -4.87574 0
M  V30 2287 N 211.235 -2.47404 -5.6184 0
M  V30 2288 C 212.606 -2.67329 -5.59406 0
M  V30 2289 C 214.661 -1.65478 -4.69597 0
M  V30 2290 C 213.364 -3.72773 -6.15169 0
M  V30 2291 C 215.39 -2.69837 -5.26253 0
M  V30 2292 C 214.752 -3.72253 -5.98002 0
M  V30 2293 H 210.851 0.0228343 -0.781667 0
M  V30 2294 H 213.435 -0.556368 -1.86581 0
M  V30 2295 H 211.606 1.16709 -3.7045 0
M  V30 2296 H 213.338 1.03338 -3.91284 0
M  V30 2297 H 210.093 -0.842273 -4.6605 0
M  V30 2298 H 210.517 -3.07688 -6.0304 0
M  V30 2299 H 215.159 -0.876389 -4.13617 0
M  V30 2300 H 212.877 -4.51471 -6.70223 0
M  V30 2301 H 216.463 -2.72164 -5.14216 0
M  V30 2302 H 215.343 -4.51679 -6.41058 0
M  V30 2303 N 212.846 1.57033 -0.133567 0
M  V30 2304 C 214.123 1.87256 0.56522 0
M  V30 2305 C 214.503 1.03726 1.83859 0
M  V30 2306 O 213.851 0.120247 2.28183 0
M  V30 2307 C 214.061 3.3865 0.843636 0
M  V30 2308 C 215.409 4.07574 1.19032 0
M  V30 2309 O 216.433 3.43752 0.933429 0
M  V30 2310 O 215.292 5.20259 1.67312 0
M  V30 2311 H 212.386 0.775678 0.286796 0
M  V30 2312 H 214.932 1.68855 -0.169168 0
M  V30 2313 H 213.704 3.91257 -0.0581149 0
M  V30 2314 H 213.327 3.62532 1.63268 0
M  V30 2315 N 214.325 -0.140222 1.56975 0
M  V30 2316 C 215.288 -1.15689 1.97861 0
M  V30 2317 C 216.288 -1.3549 0.865974 0
M  V30 2318 O 217.478 -1.32367 1.13246 0
M  V30 2319 C 214.61 -2.51582 2.30042 0
M  V30 2320 H 215.803 -0.805971 2.88867 0
M  V30 2321 H 213.356 -0.383801 1.51515 0
M  V30 2322 H 214.091 -2.91632 1.41849 0
M  V30 2323 H 213.876 -2.38569 3.11171 0
M  V30 2324 H 215.366 -3.24792 2.62488 0
M  V30 2325 N 215.803 -1.52179 -0.40978 0
M  V30 2326 C 217.214 -1.58377 -0.988615 0
M  V30 2327 C 217.565 -0.423879 -1.91566 0
M  V30 2328 O 216.69 0.455844 -2.11544 0
M  V30 2329 C 217.285 -2.87044 -1.79976 0
M  V30 2330 C 215.844 -2.95722 -2.32863 0
M  V30 2331 C 214.991 -2.53309 -1.12828 0
M  V30 2332 H 217.942 -1.57558 -0.190039 0
M  V30 2333 H 217.963 -2.7236 -2.65707 0
M  V30 2334 H 217.475 -3.71444 -1.12478 0
M  V30 2335 H 215.576 -2.15814 -3.03735 0
M  V30 2336 H 215.689 -3.99951 -2.63773 0
M  V30 2337 H 214.053 -2.07142 -1.48204 0
M  V30 2338 H 214.836 -3.40082 -0.46897 0
M  V30 2339 N 217.281 0.66697 -1.42791 0
M  V30 2340 C 218.244 1.76211 -1.46568 0
M  V30 2341 C 219.244 1.56896 -0.352196 0
M  V30 2342 O 220.434 1.63044 -0.613364 0
M  V30 2343 C 217.566 3.14935 -1.30494 0
M  V30 2344 H 218.759 1.74247 -2.44086 0
M  V30 2345 H 216.312 0.877342 -1.29354 0
M  V30 2346 H 217.047 3.2252 -0.339301 0
M  V30 2347 H 216.832 3.30359 -2.11199 0
M  V30 2348 H 218.322 3.94821 -1.36038 0
M  V30 2349 N 218.759 1.29093 0.90403 0
M  V30 2350 C 220.008 1.16187 1.64874 0
M  V30 2351 C 220.321 -0.286742 1.93487 0
M  V30 2352 O 221.527 -0.537062 2.66135 0
M  V30 2353 C 219.983 2.03177 2.97064 0
M  V30 2354 C 219.591 3.52836 2.76062 0
M  V30 2355 C 221.335 1.98984 3.74974 0
M  V30 2356 C 219.242 4.31945 4.03952 0
M  V30 2357 H 218.172 0.431246 0.618501 0
M  V30 2358 H 220.823 1.53699 1.00243 0
M  V30 2359 H 219.205 1.5853 3.62883 0
M  V30 2360 H 220.379 4.05507 2.18863 0
M  V30 2361 H 218.694 3.58656 2.11553 0
M  V30 2362 H 221.291 2.55351 4.69787 0
M  V30 2363 H 221.634 0.968815 4.0487 0
M  V30 2364 H 222.167 2.41652 3.15989 0
M  V30 2365 H 218.906 5.34667 3.79225 0
M  V30 2366 H 218.426 3.84045 4.60727 0
M  V30 2367 H 220.105 4.42379 4.72133 0
M  V30 2368 N 220.237 -1.11381 1.11499 0
M  V30 2369 C 221.465 -1.86934 0.88675 0
M  V30 2370 C 221.88 -1.80195 -0.563476 0
M  V30 2371 O 221.237 -1.18367 -1.38908 0
M  V30 2372 C 221.288 -3.35722 1.34064 0
M  V30 2373 O 221.009 -3.4232 2.73401 0
M  V30 2374 C 222.51 -4.2818 1.14791 0
M  V30 2375 H 219.73 -0.591117 0.317523 0
M  V30 2376 H 222.274 -1.40865 1.48248 0
M  V30 2377 H 220.429 -3.79294 0.788355 0
M  V30 2378 H 220.843 -4.34971 2.93087 0
M  V30 2379 H 222.317 -5.30817 1.5145 0
M  V30 2380 H 222.794 -4.39113 0.0875279 0
M  V30 2381 H 223.4 -3.90402 1.68721 0
M  V30 2382 N 221.715 -0.905404 -1.28997 0
M  V30 2383 C 223.131 -0.60233 -1.47798 0
M  V30 2384 C 223.331 0.854645 -1.82478 0
M  V30 2385 O 222.387 1.63439 -1.92468 0
M  V30 2386 C 223.7 -1.53306 -2.58685 0
M  V30 2387 C 225.248 -1.53887 -2.72558 0
M  V30 2388 C 225.723 -2.45602 -3.86579 0
M  V30 2389 N 227.214 -2.43681 -3.93921 0
M  V30 2390 C 227.949 -3.11347 -4.81509 0
M  V30 2391 N 227.445 -3.88313 -5.73746 0
M  V30 2392 N 229.238 -3.00476 -4.75048 0
M  V30 2393 H 221.389 -1.84765 -1.04764 0
M  V30 2394 H 223.652 -0.792025 -0.520961 0
M  V30 2395 H 223.358 -2.57141 -2.39941 0
M  V30 2396 H 223.232 -1.25787 -3.55609 0
M  V30 2397 H 225.619 -0.507941 -2.90696 0
M  V30 2398 H 225.7 -1.85447 -1.76191 0
M  V30 2399 H 225.344 -3.48792 -3.69197 0
M  V30 2400 H 225.274 -2.11349 -4.82327 0
M  V30 2401 H 227.765 -1.87767 -3.27951 0
M  V30 2402 H 228.078 -4.36985 -6.37389 0
M  V30 2403 H 226.423 -3.92419 -5.73614 0
M  V30 2404 H 229.614 -2.39858 -4.01977 0
M  V30 2405 H 229.787 -3.53485 -5.43095 0
M  V30 2406 N 223.193 1.4272 -0.668489 0
M  V30 2407 C 224.418 2.06484 -0.194758 0
M  V30 2408 C 224.843 1.49862 1.13679 0
M  V30 2409 O 224.201 0.614582 1.70565 0
M  V30 2410 C 224.249 3.60353 -0.133546 0
M  V30 2411 O 223.353 4.02464 0.899806 0
M  V30 2412 H 222.694 0.656137 -0.10188 0
M  V30 2413 H 225.224 1.82964 -0.915722 0
M  V30 2414 H 225.234 4.07976 0.0447041 0
M  V30 2415 H 223.909 4.00938 -1.1055 0
M  V30 2416 H 222.486 3.66402 0.693109 0
M  V30 2417 N 224.671 0.411399 1.52136 0
M  V30 2418 C 225.896 -0.165538 2.06738 0
M  V30 2419 C 226.321 -1.379 1.27926 0
M  V30 2420 O 225.679 -1.78628 0.310114 0
M  V30 2421 C 225.727 -0.492124 3.57226 0
M  V30 2422 O 224.831 -1.58276 3.80818 0
M  V30 2423 H 224.172 -0.0132132 0.663869 0
M  V30 2424 H 226.702 0.585253 1.96051 0
M  V30 2425 H 226.712 -0.750104 4.01045 0
M  V30 2426 H 225.387 0.394922 4.14021 0
M  V30 2427 H 223.964 -1.31677 3.48877 0
M  V30 2428 N 226.149 -1.5696 0.141893 0
M  V30 2429 C 227.389 -1.9785 -0.513304 0
M  V30 2430 C 227.753 -1.02467 -1.62371 0
M  V30 2431 O 228.954 -1.32382 -2.33941 0
M  V30 2432 C 227.225 -3.42797 -1.01118 0
M  V30 2433 S 228.784 -4.05709 -1.67169 0
M  V30 2434 H 225.602 -0.691318 -0.166135 0
M  V30 2435 H 228.204 -1.94114 0.232398 0
M  V30 2436 H 226.908 -4.0995 -0.192179 0
M  V30 2437 H 226.439 -3.50235 -1.79162 0
M  V30 2438 H 228.454 -3.98342 -2.95868 0
M  V30 2439 N 227.627 0.131896 -1.57047 0
M  V30 2440 C 229.043 0.485031 -1.52051 0
M  V30 2441 C 229.243 1.82563 -0.85281 0
M  V30 2442 O 228.299 2.48817 -0.429694 0
M  V30 2443 C 229.612 0.481409 -2.96821 0
M  V30 2444 C 231.16 0.565868 -3.07842 0
M  V30 2445 C 231.635 0.592762 -4.54148 0
M  V30 2446 N 233.126 0.654564 -4.58552 0
M  V30 2447 C 233.861 0.696608 -5.69153 0
M  V30 2448 N 233.357 0.697078 -6.89284 0
M  V30 2449 N 235.15 0.738639 -5.57226 0
M  V30 2450 H 227.301 -0.746664 -1.98843 0
M  V30 2451 H 229.564 -0.273999 -0.90754 0
M  V30 2452 H 229.27 -0.435731 -3.4899 0
M  V30 2453 H 229.144 1.3139 -3.53577 0
M  V30 2454 H 231.531 1.47343 -2.55684 0
M  V30 2455 H 231.612 -0.29406 -2.54104 0
M  V30 2456 H 231.256 -0.310701 -5.06949 0
M  V30 2457 H 231.186 1.46939 -5.05684 0
M  V30 2458 H 233.677 0.660887 -3.72076 0
M  V30 2459 H 233.99 0.731426 -7.69331 0
M  V30 2460 H 232.335 0.66471 -6.91814 0
M  V30 2461 H 235.526 0.735545 -4.62285 0
M  V30 2462 H 235.699 0.767938 -6.43434 0
M  V30 2463 N 229.106 1.52395 0.401703 0
M  V30 2464 C 230.352 1.67065 1.14966 0
M  V30 2465 C 230.685 0.403052 1.89971 0
M  V30 2466 O 229.96 -0.598774 1.85054 0
M  V30 2467 C 230.243 2.8975 2.13815 0
M  V30 2468 C 230.096 4.26578 1.42658 0
M  V30 2469 C 231.415 3.07965 3.14397 0
M  V30 2470 H 228.534 0.607968 0.416587 0
M  V30 2471 H 231.176 1.84965 0.434511 0
M  V30 2472 H 229.326 2.74619 2.74803 0
M  V30 2473 H 230.998 4.53451 0.847329 0
M  V30 2474 H 229.241 4.27639 0.72849 0
M  V30 2475 H 229.912 5.08483 2.14823 0
M  V30 2476 H 232.388 3.22043 2.63491 0
M  V30 2477 H 231.264 3.95308 3.80819 0
M  V30 2478 H 231.525 2.21611 3.82545 0
M  V30 2479 N 230.584 -0.659388 1.43143 0
M  V30 2480 C 231.861 -1.41627 1.34912 0
M  V30 2481 C 232.241 -2.11099 -0.00607785 0
M  V30 2482 O 231.589 -2.04353 -1.02236 0
M  V30 2483 C 231.799 -2.40604 2.52805 0
M  V30 2484 C 233.147 -3.04789 2.95616 0
M  V30 2485 O 234.171 -2.50932 2.52807 0
M  V30 2486 O 233.03 -4.02421 3.69756 0
M  V30 2487 H 230.124 -0.63246 0.532844 0
M  V30 2488 H 232.67 -0.686814 1.5518 0
M  V30 2489 H 231.442 -1.88174 3.43083 0
M  V30 2490 H 231.065 -3.21009 2.34604 0
M  V30 2491 N 232.062 -1.29571 -0.897171 0
M  V30 2492 C 233.308 -1.17863 -1.65034 0
M  V30 2493 C 233.641 0.268729 -1.92332 0
M  V30 2494 O 232.916 1.19378 -1.53555 0
M  V30 2495 C 233.199 -1.995 -2.99786 0
M  V30 2496 C 233.052 -3.5239 -2.79538 0
M  V30 2497 C 234.371 -1.82335 -4.00552 0
M  V30 2498 H 231.49 -0.429528 -0.598895 0
M  V30 2499 H 234.132 -1.59072 -1.03905 0
M  V30 2500 H 232.282 -1.64485 -3.51962 0
M  V30 2501 H 233.954 -3.97401 -2.34244 0
M  V30 2502 H 232.197 -3.77187 -2.14273 0
M  V30 2503 H 232.868 -4.04787 -3.75302 0
M  V30 2504 H 235.344 -2.12924 -3.57495 0
M  V30 2505 H 234.22 -2.41801 -4.92771 0
M  V30 2506 H 234.481 -0.779209 -4.35179 0
M  V30 2507 N 233.54 1.10788 -1.12088 0
M  V30 2508 C 234.503 2.15207 -0.788577 0
M  V30 2509 C 235.503 1.59609 0.195317 0
M  V30 2510 O 236.693 1.74174 -0.0300193 0
M  V30 2511 C 233.825 3.4047 -0.171174 0
M  V30 2512 H 235.018 2.46116 -1.71368 0
M  V30 2513 H 232.571 1.26089 -0.923652 0
M  V30 2514 H 233.306 3.15176 0.763832 0
M  V30 2515 H 233.091 3.82109 -0.879514 0
M  V30 2516 H 234.581 4.17576 0.04496 0
M  V30 2517 N 235.018 0.912232 1.28515 0
M  V30 2518 C 235.981 0.404223 2.25607 0
M  V30 2519 C 236.981 -0.468602 1.53821 0
M  V30 2520 O 238.171 -0.271873 1.72065 0
M  V30 2521 C 235.303 -0.420653 3.38295 0
M  V30 2522 H 236.496 1.26188 2.7206 0
M  V30 2523 H 234.049 0.691495 1.40171 0
M  V30 2524 H 234.784 -1.29777 2.97201 0
M  V30 2525 H 234.569 0.204935 3.91564 0
M  V30 2526 H 236.059 -0.766971 4.10496 0
M  V30 2527 N 236.496 -1.42363 0.676048 0
M  V30 2528 C 237.743 -2.01522 0.19883 0
M  V30 2529 C 238.071 -1.53456 -1.19505 0
M  V30 2530 O 237.326 -0.727967 -1.81657 0
M  V30 2531 C 237.625 -3.56929 0.183431 0
M  V30 2532 C 237.291 -4.24431 1.52215 0
M  V30 2533 C 235.953 -4.42585 1.8887 0
M  V30 2534 C 238.305 -4.62459 2.40377 0
M  V30 2535 C 235.633 -4.96039 3.13309 0
M  V30 2536 C 237.985 -5.17294 3.64129 0
M  V30 2537 C 236.649 -5.33661 4.00951 0
M  V30 2538 H 235.919 -0.737419 0.0727571 0
M  V30 2539 H 238.566 -1.70531 0.871281 0
M  V30 2540 H 236.871 -3.87594 -0.572532 0
M  V30 2541 H 238.568 -4.00486 -0.203035 0
M  V30 2542 H 235.158 -4.10661 1.22701 0
M  V30 2543 H 239.342 -4.48105 2.13343 0
M  V30 2544 H 234.598 -5.06896 3.41857 0
M  V30 2545 H 238.772 -5.45704 4.32644 0
M  V30 2546 H 236.399 -5.74845 4.9745 0
M  V30 2547 N 237.974 -0.419461 -1.51915 0
M  V30 2548 C 239.385 0.0477853 -1.86639 0
M  V30 2549 C 239.736 1.43531 -1.33766 0
M  V30 2550 O 238.861 2.05401 -0.68113 0
M  V30 2551 C 239.456 0.0934885 -3.38671 0
M  V30 2552 C 238.015 0.505097 -3.72996 0
M  V30 2553 C 237.162 -0.313792 -2.75519 0
M  V30 2554 H 240.113 -0.636088 -1.45395 0
M  V30 2555 H 240.134 0.906667 -3.6954 0
M  V30 2556 H 239.646 -0.916501 -3.77123 0
M  V30 2557 H 237.747 1.52135 -3.40126 0
M  V30 2558 H 237.86 0.242309 -4.78487 0
M  V30 2559 H 236.224 0.225363 -2.53701 0
M  V30 2560 H 237.007 -1.32232 -3.16812 0
M  V30 2561 N 239.452 1.56882 -0.150215 0
M  V30 2562 C 240.699 1.96228 0.500093 0
M  V30 2563 C 241.027 1.03522 1.64661 0
M  V30 2564 O 240.282 0.0650683 1.95592 0
M  V30 2565 C 240.581 3.41801 1.04437 0
M  V30 2566 C 240.247 4.50897 0.0159671 0
M  V30 2567 C 238.909 4.8046 -0.266731 0
M  V30 2568 C 241.261 5.16703 -0.683192 0
M  V30 2569 C 238.589 5.73135 -1.25434 0
M  V30 2570 C 240.941 6.10441 -1.65964 0
M  V30 2571 C 239.605 6.38382 -1.95 0
M  V30 2572 H 238.875 0.718048 0.182997 0
M  V30 2573 H 241.522 1.90019 -0.237724 0
M  V30 2574 H 239.827 3.44857 1.85959 0
M  V30 2575 H 241.524 3.69573 1.55618 0
M  V30 2576 H 238.114 4.27891 0.246485 0
M  V30 2577 H 242.298 4.93993 -0.477983 0
M  V30 2578 H 237.554 5.93074 -1.48571 0
M  V30 2579 H 241.728 6.60507 -2.20689 0
M  V30 2580 H 239.355 7.09996 -2.71679 0
M  V30 2581 N 240.93 -0.123565 1.57115 0
M  V30 2582 C 242.207 -0.862196 1.75572 0
M  V30 2583 C 242.587 -1.98279 0.724475 0
M  V30 2584 O 241.935 -2.27102 -0.252407 0
M  V30 2585 C 242.145 -1.38309 3.20424 0
M  V30 2586 C 243.493 -1.83724 3.82793 0
M  V30 2587 O 244.517 -1.47999 3.23998 0
M  V30 2588 O 243.376 -2.49685 4.86127 0
M  V30 2589 H 240.47 -0.409113 0.718718 0
M  V30 2590 H 243.016 -0.107661 1.69358 0
M  V30 2591 H 241.788 -0.578889 3.86994 0
M  V30 2592 H 241.411 -2.20046 3.31158 0
M  V30 2593 N 242.408 -1.52605 -0.393616 0
M  V30 2594 C 243.371 -1.76415 -1.46323 0
M  V30 2595 C 244.371 -0.634126 -1.47768 0
M  V30 2596 O 245.561 -0.902142 -1.4902 0
M  V30 2597 C 242.693 -1.8607 -2.85641 0
M  V30 2598 H 243.886 -2.71916 -1.26498 0
M  V30 2599 H 241.439 -1.43257 -0.625073 0
M  V30 2600 H 242.174 -0.925378 -3.10817 0
M  V30 2601 H 241.959 -2.68235 -2.85993 0
M  V30 2602 H 243.449 -2.06179 -3.63153 0
M  V30 2603 N 243.887 0.651787 -1.4349 0
M  V30 2604 C 244.819 1.77725 -1.44729 0
M  V30 2605 C 245.832 1.59141 -0.343231 0
M  V30 2606 O 247.021 1.67835 -0.607751 0
M  V30 2607 C 244.121 3.15172 -1.24579 0
M  V30 2608 C 243.294 3.60402 -2.47849 0
M  V30 2609 C 242.353 4.76656 -2.22902 0
M  V30 2610 O 241.379 4.86022 -2.96263 0
M  V30 2611 N 242.581 5.66958 -1.24656 0
M  V30 2612 H 245.346 1.77141 -2.41746 0
M  V30 2613 H 242.907 0.835678 -1.38665 0
M  V30 2614 H 244.899 3.90634 -1.0577 0
M  V30 2615 H 243.469 3.1052 -0.360015 0
M  V30 2616 H 242.689 2.75369 -2.82073 0
M  V30 2617 H 243.977 3.87368 -3.29884 0
M  V30 2618 H 243.375 5.62065 -0.640265 0
M  V30 2619 H 241.932 6.42135 -1.1183 0
M  V30 2620 N 245.365 1.30045 0.890287 0
M  V30 2621 C 246.315 1.12592 1.9826 0
M  V30 2622 C 247.299 0.0426021 1.60844 0
M  V30 2623 O 248.491 0.265346 1.75 0
M  V30 2624 C 245.62 0.814301 3.33503 0
M  V30 2625 C 244.706 1.93761 3.7725 0
M  V30 2626 N 245.097 3.18232 3.93143 0
M  V30 2627 C 243.395 1.83277 4.06602 0
M  V30 2628 C 244.096 3.9158 4.30163 0
M  V30 2629 N 243.072 3.19591 4.3973 0
M  V30 2630 H 246.874 2.07003 2.08631 0
M  V30 2631 H 244.388 1.21307 1.07974 0
M  V30 2632 H 246.385 0.67029 4.11476 0
M  V30 2633 H 245.045 -0.121797 3.24471 0
M  V30 2634 H 246.056 3.53581 3.78419 0
M  V30 2635 H 242.733 0.97001 4.06075 0
M  V30 2636 H 244.123 4.98744 4.50226 0
M  V30 2637 N 246.843 -1.10192 1.12674 0
M  V30 2638 C 248.083 -1.83825 0.893736 0
M  V30 2639 C 248.447 -1.83341 -0.570082 0
M  V30 2640 O 249.648 -2.52553 -0.920354 0
M  V30 2641 C 247.919 -3.26405 1.45582 0
M  V30 2642 S 249.478 -4.17136 1.36171 0
M  V30 2643 H 246.296 -0.633732 0.322342 0
M  V30 2644 H 248.898 -1.32581 1.43675 0
M  V30 2645 H 247.602 -3.24329 2.51473 0
M  V30 2646 H 247.133 -3.82721 0.910405 0
M  V30 2647 H 249.148 -4.95069 0.334863 0
M  V30 2648 N 248.321 -0.919034 -1.28029 0
M  V30 2649 C 249.569 -0.553838 -1.94363 0
M  V30 2650 C 249.89 0.906357 -1.72656 0
M  V30 2651 O 249.16 1.64143 -1.0693 0
M  V30 2652 H 247.74 -0.201834 -0.719216 0
M  V30 2653 H 250.402 -1.16954 -1.55909 0
M  V30 2654 H 249.498 -0.752758 -3.02886 0
M  V30 2655 N 249.799 1.42003 -0.683588 0
M  V30 2656 C 250.729 2.33487 -0.024866 0
M  V30 2657 C 251.71 1.51163 0.779975 0
M  V30 2658 O 252.895 1.79739 0.735362 0
M  V30 2659 C 250.025 3.3487 0.920836 0
M  V30 2660 C 248.979 4.27414 0.223958 0
M  V30 2661 C 248.305 5.19074 1.2832 0
M  V30 2662 C 249.605 5.14445 -0.90242 0
M  V30 2663 H 251.299 2.88819 -0.788921 0
M  V30 2664 H 248.845 1.38873 -0.38083 0
M  V30 2665 H 250.798 3.97787 1.39081 0
M  V30 2666 H 249.522 2.77861 1.71642 0
M  V30 2667 H 248.181 3.65904 -0.225864 0
M  V30 2668 H 247.829 4.58387 2.071 0
M  V30 2669 H 247.529 5.81822 0.821995 0
M  V30 2670 H 249.053 5.84867 1.75392 0
M  V30 2671 H 250.467 5.70998 -0.513272 0
M  V30 2672 H 248.864 5.86072 -1.28997 0
M  V30 2673 H 249.934 4.52322 -1.74737 0
M  V30 2674 N 251.277 0.427512 1.51691 0
M  V30 2675 C 252.505 -0.141191 2.06418 0
M  V30 2676 C 252.92 -1.37303 1.29589 0
M  V30 2677 O 252.277 -1.79059 0.352732 0
M  V30 2678 C 252.328 -0.473266 3.58389 0
M  V30 2679 O 252.049 0.709673 4.32314 0
M  V30 2680 C 253.55 -1.09371 4.29596 0
M  V30 2681 H 250.77 -0.0122747 0.670888 0
M  V30 2682 H 253.314 0.603764 1.95384 0
M  V30 2683 H 251.469 -1.16812 3.69369 0
M  V30 2684 H 251.883 0.42807 5.2275 0
M  V30 2685 H 253.357 -1.27613 5.37046 0
M  V30 2686 H 253.834 -2.072 3.87253 0
M  V30 2687 H 254.44 -0.43853 4.23033 0
M  V30 2688 N 252.755 -1.56801 0.158532 0
M  V30 2689 C 254.002 -1.9649 -0.489679 0
M  V30 2690 C 254.33 -1.04394 -1.6411 0
M  V30 2691 O 253.585 -0.0754401 -1.95555 0
M  V30 2692 C 253.884 -3.4235 -1.02623 0
M  V30 2693 C 253.55 -4.50899 0.00794526 0
M  V30 2694 C 252.212 -4.80312 0.292207 0
M  V30 2695 C 254.564 -5.16333 0.710584 0
M  V30 2696 C 251.892 -5.72461 1.28472 0
M  V30 2697 C 254.244 -6.09553 1.69199 0
M  V30 2698 C 252.908 -6.37339 1.98383 0
M  V30 2699 H 252.178 -0.719009 -0.179186 0
M  V30 2700 H 254.825 -1.8989 0.247798 0
M  V30 2701 H 253.13 -3.45838 -1.84128 0
M  V30 2702 H 254.827 -3.70393 -1.53656 0
M  V30 2703 H 251.417 -4.28015 -0.22379 0
M  V30 2704 H 255.601 -4.93732 0.504174 0
M  V30 2705 H 250.857 -5.92278 1.51714 0
M  V30 2706 H 255.031 -6.59327 2.24189 0
M  V30 2707 H 252.658 -7.08546 2.7544 0
M  V30 2708 N 254.233 0.115231 -1.57178 0
M  V30 2709 C 255.481 0.820727 -1.84685 0
M  V30 2710 C 255.802 1.80237 -0.744279 0
M  V30 2711 O 255.072 1.94529 0.231375 0
M  V30 2712 H 253.652 0.306084 -0.681411 0
M  V30 2713 H 256.314 0.101656 -1.94635 0
M  V30 2714 H 255.41 1.36366 -2.80733 0
M  V30 2715 N 255.711 1.52812 0.385517 0
M  V30 2716 C 256.936 1.72207 1.15583 0
M  V30 2717 C 257.361 0.441034 1.82857 0
M  V30 2718 O 256.719 -0.603465 1.70962 0
M  V30 2719 C 256.767 2.87476 2.17692 0
M  V30 2720 O 255.871 2.54693 3.24354 0
M  V30 2721 H 255.212 0.572526 0.336319 0
M  V30 2722 H 257.742 1.99618 0.448744 0
M  V30 2723 H 257.752 3.13072 2.6163 0
M  V30 2724 H 256.427 3.80408 1.68115 0
M  V30 2725 H 255.004 2.3985 2.85529 0
M  V30 2726 N 257.189 -0.644168 1.43834 0
M  V30 2727 C 258.435 -1.40431 1.47141 0
M  V30 2728 C 258.79 -1.92153 0.0975577 0
M  V30 2729 O 258.083 -1.69924 -0.885232 0
M  V30 2730 C 258.277 -2.59615 2.45631 0
M  V30 2731 C 258.106 -2.1956 3.92458 0
M  V30 2732 C 256.876 -2.07456 4.60749 0
M  V30 2733 C 259.074 -1.79281 4.8204 0
M  V30 2734 N 257.056 -1.60827 5.92459 0
M  V30 2735 C 258.427 -1.43801 6.03093 0
M  V30 2736 C 260.482 -1.66545 4.6922 0
M  V30 2737 C 259.185 -0.968599 7.12749 0
M  V30 2738 C 261.211 -1.21008 5.78888 0
M  V30 2739 C 260.573 -0.864711 6.99072 0
M  V30 2740 H 256.672 -0.509182 0.593513 0
M  V30 2741 H 259.256 -0.740351 1.80075 0
M  V30 2742 H 257.427 -3.23658 2.1471 0
M  V30 2743 H 259.159 -3.26357 2.39318 0
M  V30 2744 H 255.914 -2.275 4.1538 0
M  V30 2745 H 256.338 -1.39848 6.62398 0
M  V30 2746 H 260.98 -1.91883 3.7675 0
M  V30 2747 H 258.698 -0.702715 8.05039 0
M  V30 2748 H 262.284 -1.11631 5.7099 0
M  V30 2749 H 261.164 -0.517736 7.82489 0
M  V30 2750 N 258.668 -1.30515 -0.883378 0
M  V30 2751 C 259.896 -1.22359 -1.66841 0
M  V30 2752 C 260.311 0.213296 -1.87591 0
M  V30 2753 O 259.668 1.14075 -1.42454 0
M  V30 2754 C 259.719 -1.95011 -3.04389 0
M  V30 2755 O 259.44 -3.3309 -2.84575 0
M  V30 2756 C 260.941 -1.93532 -3.98824 0
M  V30 2757 H 258.161 -0.423371 -0.520575 0
M  V30 2758 H 260.705 -1.72167 -1.10357 0
M  V30 2759 H 258.86 -1.48997 -3.57601 0
M  V30 2760 H 259.274 -3.69907 -3.71846 0
M  V30 2761 H 260.748 -2.48902 -4.92699 0
M  V30 2762 H 261.225 -0.914627 -4.29571 0
M  V30 2763 H 261.831 -2.39364 -3.51547 0
M  V30 2764 N 260.146 1.09593 -1.13257 0
M  V30 2765 C 261.096 2.14345 -0.777179 0
M  V30 2766 C 262.08 1.59277 0.227966 0
M  V30 2767 O 263.272 1.76971 0.0321413 0
M  V30 2768 C 260.401 3.42439 -0.242991 0
M  V30 2769 C 259.487 4.04419 -1.27694 0
M  V30 2770 N 259.878 4.40979 -2.47732 0
M  V30 2771 C 258.176 4.31596 -1.12432 0
M  V30 2772 C 258.877 4.89784 -3.13826 0
M  V30 2773 N 257.853 4.87133 -2.41252 0
M  V30 2774 H 261.655 2.40415 -1.69049 0
M  V30 2775 H 259.169 1.26803 -1.01463 0
M  V30 2776 H 261.166 4.16889 0.0298496 0
M  V30 2777 H 259.826 3.17824 0.66467 0
M  V30 2778 H 260.837 4.32396 -2.85051 0
M  V30 2779 H 257.514 4.16595 -0.274684 0
M  V30 2780 H 258.904 5.2755 -4.16102 0
M  V30 2781 N 261.624 0.925811 1.2754 0
M  V30 2782 C 262.872 0.564138 1.94067 0
M  V30 2783 C 263.193 -0.897188 1.73134 0
M  V30 2784 O 262.463 -1.63573 1.07799 0
M  V30 2785 H 261.043 0.205645 0.718136 0
M  V30 2786 H 263.705 1.1778 1.55287 0
M  V30 2787 H 262.801 0.76881 3.02483 0
M  V30 2788 N 263.102 -1.41638 0.69111 0
M  V30 2789 C 264.35 -2.00902 0.219758 0
M  V30 2790 C 264.671 -1.54994 -1.18329 0
M  V30 2791 O 263.941 -0.778628 -1.79762 0
M  V30 2792 H 262.521 -0.74289 0.0782558 0
M  V30 2793 H 265.183 -1.73327 0.891271 0
M  V30 2794 H 264.279 -3.11224 0.233708 0
M  V30 2795 N 264.58 -0.43555 -1.51462 0
M  V30 2796 C 265.53 0.394701 -2.24558 0
M  V30 2797 C 266.514 0.99157 -1.26715 0
M  V30 2798 O 267.706 0.910007 -1.51815 0
M  V30 2799 C 264.835 1.4963 -3.08975 0
M  V30 2800 C 263.921 0.908912 -4.14246 0
M  V30 2801 N 264.312 0.0505335 -5.05775 0
M  V30 2802 C 262.61 1.17668 -4.30198 0
M  V30 2803 C 263.311 -0.279161 -5.8103 0
M  V30 2804 N 262.287 0.336767 -5.42556 0
M  V30 2805 H 266.089 -0.267106 -2.92684 0
M  V30 2806 H 263.603 -0.247518 -1.60503 0
M  V30 2807 H 265.6 2.10394 -3.59917 0
M  V30 2808 H 264.26 2.16046 -2.42393 0
M  V30 2809 H 265.271 -0.31577 -5.16936 0
M  V30 2810 H 261.948 1.83847 -3.74842 0
M  V30 2811 H 263.338 -0.977553 -6.64751 0
M  V30 2812 N 266.058 1.56714 -0.166846 0
M  V30 2813 C 266.99 2.14914 0.796537 0
M  V30 2814 C 268.003 1.10357 1.19688 0
M  V30 2815 O 269.192 1.37561 1.13751 0
M  V30 2816 C 266.292 2.67326 2.08303 0
M  V30 2817 C 265.465 3.96493 1.84696 0
M  V30 2818 C 264.524 4.34014 2.97521 0
M  V30 2819 O 263.55 5.01973 2.6835 0
M  V30 2820 N 264.752 3.95208 4.25196 0
M  V30 2821 H 267.517 2.98205 0.299006 0
M  V30 2822 H 265.078 1.61892 0.0160839 0
M  V30 2823 H 267.07 2.89428 2.82867 0
M  V30 2824 H 265.64 1.88649 2.4926 0
M  V30 2825 H 264.86 3.82814 0.940602 0
M  V30 2826 H 266.148 4.8086 1.66285 0
M  V30 2827 H 265.546 3.40487 4.51758 0
M  V30 2828 H 264.103 4.2232 4.96477 0
M  V30 2829 N 267.536 -0.106894 1.57237 0
M  V30 2830 C 268.466 -1.13148 2.04254 0
M  V30 2831 C 269.447 -1.42476 0.929224 0
M  V30 2832 O 270.632 -1.52709 1.19973 0
M  V30 2833 C 267.762 -2.4545 2.45706 0
M  V30 2834 C 266.716 -2.30558 3.60592 0
M  V30 2835 C 266.042 -3.67931 3.87983 0
M  V30 2836 C 267.342 -1.75597 4.91897 0
M  V30 2837 H 269.036 -0.740374 2.90101 0
M  V30 2838 H 266.582 -0.354696 1.39563 0
M  V30 2839 H 268.535 -3.17389 2.77205 0
M  V30 2840 H 267.259 -2.86475 1.56843 0
M  V30 2841 H 265.918 -1.61067 3.29322 0
M  V30 2842 H 265.566 -4.06462 2.96306 0
M  V30 2843 H 265.266 -3.58817 4.65322 0
M  V30 2844 H 266.79 -4.41356 4.21945 0
M  V30 2845 H 268.204 -2.37364 5.21854 0
M  V30 2846 H 266.601 -1.77272 5.73319 0
M  V30 2847 H 267.671 -0.714451 4.79608 0
M  V30 2848 N 269.014 -1.53014 -0.377408 0
M  V30 2849 C 270.291 -1.59215 -1.13622 0
M  V30 2850 C 270.671 -0.392407 -2.07421 0
M  V30 2851 O 270.019 0.618342 -2.19975 0
M  V30 2852 C 270.229 -2.93669 -1.88573 0
M  V30 2853 C 271.577 -3.47822 -2.43526 0
M  V30 2854 O 272.601 -2.9562 -1.98715 0
M  V30 2855 O 271.46 -4.39055 -3.25412 0
M  V30 2856 H 268.554 -0.642625 -0.52054 0
M  V30 2857 H 271.1 -1.65353 -0.381625 0
M  V30 2858 H 269.872 -3.7243 -1.20048 0
M  V30 2859 H 269.495 -2.90968 -2.70968 0
M  V30 2860 N 270.492 0.636531 -1.44174 0
M  V30 2861 C 271.738 1.39826 -1.4689 0
M  V30 2862 C 272.071 1.93947 -0.0990585 0
M  V30 2863 O 271.346 1.73325 0.882544 0
M  V30 2864 C 271.629 2.56751 -2.5249 0
M  V30 2865 C 271.482 2.08014 -3.98811 0
M  V30 2866 C 272.801 3.58946 -2.54649 0
M  V30 2867 H 269.92 0.507075 -0.53483 0
M  V30 2868 H 272.562 0.720188 -1.75822 0
M  V30 2869 H 270.712 3.14597 -2.2795 0
M  V30 2870 H 272.384 1.5504 -4.34466 0
M  V30 2871 H 270.627 1.39242 -4.10846 0
M  V30 2872 H 271.298 2.92169 -4.68339 0
M  V30 2873 H 273.774 3.1089 -2.76563 0
M  V30 2874 H 272.65 4.38286 -3.3045 0
M  V30 2875 H 272.911 4.12655 -1.58646 0
M  V30 2876 N 271.97 1.30982 0.876444 0
M  V30 2877 C 273.386 1.09498 1.16113 0
M  V30 2878 C 273.586 -0.13875 2.01022 0
M  V30 2879 O 272.642 -0.829935 2.38471 0
M  V30 2880 C 273.955 2.36308 1.85954 0
M  V30 2881 C 275.503 2.41856 1.98683 0
M  V30 2882 C 275.978 3.6853 2.71937 0
M  V30 2883 N 277.469 3.69387 2.79477 0
M  V30 2884 C 278.204 4.64096 3.36753 0
M  V30 2885 N 277.7 5.69155 3.95012 0
M  V30 2886 N 279.493 4.51626 3.3465 0
M  V30 2887 H 271.644 2.10118 0.310494 0
M  V30 2888 H 273.907 0.926634 0.200131 0
M  V30 2889 H 273.613 3.26388 1.31011 0
M  V30 2890 H 273.487 2.4561 2.86278 0
M  V30 2891 H 275.874 1.52249 2.52793 0
M  V30 2892 H 275.955 2.36523 0.9742 0
M  V30 2893 H 275.599 4.58499 2.18496 0
M  V30 2894 H 275.529 3.71127 3.73593 0
M  V30 2895 H 278.02 2.93438 2.38123 0
M  V30 2896 H 278.333 6.3751 4.36808 0
M  V30 2897 H 276.678 5.72937 3.93406 0
M  V30 2898 H 279.869 3.68728 2.8837 0
M  V30 2899 H 280.042 5.25614 3.7899 0
M  V30 2900 N 273.449 -1.08991 1.13837 0
M  V30 2901 C 274.86 -1.62746 0.914917 0
M  V30 2902 C 275.211 -1.88403 -0.547594 0
M  V30 2903 O 274.336 -1.63706 -1.41525 0
M  V30 2904 C 274.931 -2.95662 1.65437 0
M  V30 2905 C 273.49 -3.46225 1.47666 0
M  V30 2906 C 272.637 -2.20562 1.6807 0
M  V30 2907 H 275.588 -0.922946 1.29102 0
M  V30 2908 H 275.609 -3.63825 1.11407 0
M  V30 2909 H 275.121 -2.76956 2.71877 0
M  V30 2910 H 273.222 -3.70046 0.435478 0
M  V30 2911 H 273.335 -4.23368 2.24268 0
M  V30 2912 H 271.699 -2.29439 1.10589 0
M  V30 2913 H 272.482 -2.0437 2.7584 0
M  V30 2914 N 274.927 -0.932562 -1.27047 0
M  V30 2915 C 276.343 -0.633544 -1.46487 0
M  V30 2916 C 276.543 0.815746 -1.84249 0
M  V30 2917 O 275.599 1.59319 -1.95892 0
M  V30 2918 C 276.912 -1.58758 -2.55375 0
M  V30 2919 C 278.46 -1.59634 -2.69232 0
M  V30 2920 C 278.935 -2.53747 -3.81283 0
M  V30 2921 N 280.426 -2.51982 -3.88664 0
M  V30 2922 C 281.161 -3.21491 -4.74796 0
M  V30 2923 N 280.657 -4.00395 -5.65381 0
M  V30 2924 N 282.45 -3.10485 -4.68568 0
M  V30 2925 H 274.601 -1.86946 -1.00821 0
M  V30 2926 H 276.864 -0.802897 -0.504044 0
M  V30 2927 H 276.57 -2.62172 -2.34432 0
M  V30 2928 H 276.444 -1.33301 -3.52861 0
M  V30 2929 H 278.831 -0.569488 -2.89553 0
M  V30 2930 H 278.912 -1.89142 -1.72218 0
M  V30 2931 H 278.556 -3.56545 -3.61715 0
M  V30 2932 H 278.486 -2.21532 -4.77735 0
M  V30 2933 H 280.977 -1.94681 -3.23895 0
M  V30 2934 H 281.29 -4.50406 -6.27976 0
M  V30 2935 H 279.635 -4.04498 -5.65161 0
M  V30 2936 H 282.826 -2.48331 -3.96799 0
M  V30 2937 H 282.999 -3.64925 -5.35475 0
M  V30 2938 N 276.405 1.4127 -0.698611 0
M  V30 2939 C 277.653 2.00782 -0.230409 0
M  V30 2940 C 277.974 1.5562 1.17505 0
M  V30 2941 O 277.244 0.78815 1.79346 0
M  V30 2942 H 275.824 0.742464 -0.0821944 0
M  V30 2943 H 278.486 1.72852 -0.90045 0
M  V30 2944 H 277.582 3.11095 -0.25021 0
M  V30 2945 N 277.883 0.443576 1.51229 0
M  V30 2946 C 278.846 -0.353132 2.26463 0
M  V30 2947 C 279.846 -0.944338 1.3015 0
M  V30 2948 O 281.036 -0.817813 1.5381 0
M  V30 2949 C 278.168 -1.50023 3.06114 0
M  V30 2950 H 279.361 0.3063 2.98332 0
M  V30 2951 H 276.914 0.196902 1.55055 0
M  V30 2952 H 277.649 -2.19553 2.38677 0
M  V30 2953 H 277.434 -1.08241 3.76864 0
M  V30 2954 H 278.924 -2.06296 3.63087 0
M  V30 2955 N 279.361 -1.56624 0.175154 0
M  V30 2956 C 280.324 -2.16934 -0.739738 0
M  V30 2957 C 281.324 -1.11842 -1.15533 0
M  V30 2958 O 282.514 -1.37335 -1.07167 0
M  V30 2959 C 279.646 -2.75531 -2.00738 0
M  V30 2960 H 280.839 -2.99131 -0.214639 0
M  V30 2961 H 278.392 -1.56123 -0.0744197 0
M  V30 2962 H 279.127 -1.97078 -2.57548 0
M  V30 2963 H 278.912 -3.52444 -1.71831 0
M  V30 2964 H 280.402 -3.21904 -2.66021 0
M  V30 2965 N 280.839 0.0985539 -1.57292 0
M  V30 2966 C 281.802 1.10402 -2.00858 0
M  V30 2967 C 282.802 1.33146 -0.901593 0
M  V30 2968 O 283.992 1.29318 -1.16716 0
M  V30 2969 C 281.124 2.45394 -2.36632 0
M  V30 2970 H 282.317 0.729099 -2.90902 0
M  V30 2971 H 279.87 0.343495 -1.52479 0
M  V30 2972 H 280.605 2.87769 -1.49531 0
M  V30 2973 H 280.39 2.30235 -3.17387 0
M  V30 2974 H 281.88 3.17718 -2.71007 0
M  V30 2975 N 282.317 1.53212 0.369288 0
M  V30 2976 C 283.542 1.73423 1.1375 0
M  V30 2977 C 283.967 0.460404 1.82378 0
M  V30 2978 O 283.325 -0.585298 1.71592 0
M  V30 2979 C 283.373 2.89769 2.1463 0
M  V30 2980 O 282.477 2.58119 3.21634 0
M  V30 2981 H 281.818 0.576061 0.330227 0
M  V30 2982 H 284.348 2.00083 0.427547 0
M  V30 2983 H 284.358 3.15829 2.58294 0
M  V30 2984 H 283.033 3.8217 1.64071 0
M  V30 2985 H 281.61 2.42864 2.82969 0
M  V30 2986 N 283.795 -0.628877 1.44509 0
M  V30 2987 C 284.725 -1.75187 1.54376 0
M  V30 2988 C 285.706 -1.65411 0.396618 0
M  V30 2989 O 286.891 -1.84137 0.617031 0
M  V30 2990 C 284.021 -3.13725 1.48976 0
M  V30 2991 C 282.975 -3.38291 2.62189 0
M  V30 2992 C 282.301 -4.76883 2.41841 0
M  V30 2993 C 283.601 -3.30632 4.04326 0
M  V30 2994 H 285.295 -1.67187 2.48373 0
M  V30 2995 H 282.841 -0.802909 1.19538 0
M  V30 2996 H 284.794 -3.92064 1.54478 0
M  V30 2997 H 283.518 -3.22515 0.514961 0
M  V30 2998 H 282.177 -2.62334 2.56079 0
M  V30 2999 H 281.825 -4.82378 1.42548 0
M  V30 3000 H 281.525 -4.94278 3.17747 0
M  V30 3001 H 283.049 -5.57449 2.49165 0
M  V30 3002 H 284.463 -3.98873 4.11793 0
M  V30 3003 H 282.86 -3.59561 4.80454 0
M  V30 3004 H 283.93 -2.28404 4.27738 0
M  V30 3005 N 285.273 -1.31445 -0.869486 0
M  V30 3006 C 286.236 -1.19094 -1.9583 0
M  V30 3007 C 287.236 -0.117906 -1.60367 0
M  V30 3008 O 288.426 -0.367208 -1.70286 0
M  V30 3009 C 285.558 -0.828165 -3.30688 0
M  V30 3010 H 286.751 -2.15842 -2.08212 0
M  V30 3011 H 284.304 -1.15063 -1.05784 0
M  V30 3012 H 285.039 0.138142 -3.24006 0
M  V30 3013 H 284.824 -1.6038 -3.578 0
M  V30 3014 H 286.314 -0.765658 -4.10521 0
M  V30 3015 N 286.751 1.08385 -1.14413 0
M  V30 3016 C 288.028 1.77429 -0.823297 0
M  V30 3017 C 288.408 1.9974 0.683163 0
M  V30 3018 O 287.756 1.60739 1.62405 0
M  V30 3019 C 287.966 3.09004 -1.62227 0
M  V30 3020 C 289.314 3.83532 -1.82177 0
M  V30 3021 O 290.338 3.18786 -1.58915 0
M  V30 3022 O 289.197 4.99792 -2.21067 0
M  V30 3023 H 286.291 0.769999 -0.301712 0
M  V30 3024 H 288.837 1.14846 -1.24934 0
M  V30 3025 H 287.609 2.88316 -2.64555 0
M  V30 3026 H 287.232 3.79316 -1.19187 0
M  V30 3027 N 288.23 0.939286 1.26551 0
M  V30 3028 C 289.477 0.585847 1.9384 0
M  V30 3029 C 289.805 -0.874784 1.73718 0
M  V30 3030 O 289.06 -1.64092 1.06642 0
M  V30 3031 C 289.359 0.872106 3.46596 0
M  V30 3032 C 289.025 2.31632 3.86856 0
M  V30 3033 C 287.687 2.71111 3.97558 0
M  V30 3034 C 290.039 3.25494 4.07066 0
M  V30 3035 C 287.367 4.03553 4.25866 0
M  V30 3036 C 289.719 4.57531 4.36862 0
M  V30 3037 C 288.383 4.96828 4.45778 0
M  V30 3038 H 287.653 0.214377 0.709312 0
M  V30 3039 H 290.3 1.18544 1.50398 0
M  V30 3040 H 288.605 0.18996 3.91339 0
M  V30 3041 H 290.302 0.577442 3.96821 0
M  V30 3042 H 286.892 2.00008 3.79071 0
M  V30 3043 H 291.076 2.9619 3.98227 0
M  V30 3044 H 286.332 4.33665 4.30981 0
M  V30 3045 H 290.506 5.30254 4.51446 0
M  V30 3046 H 288.133 5.99482 4.67468 0
M  V30 3047 N 289.708 -1.40897 0.706093 0
M  V30 3048 C 290.954 -2.01352 0.241889 0
M  V30 3049 C 291.287 -1.55832 -1.15888 0
M  V30 3050 O 290.562 -0.774145 -1.7843 0
M  V30 3051 C 290.845 -3.58752 0.311311 0
M  V30 3052 C 290.698 -4.1437 1.74978 0
M  V30 3053 C 292.017 -4.38914 -0.322922 0
M  V30 3054 H 289.136 -0.731562 0.0893687 0
M  V30 3055 H 291.778 -1.67504 0.896802 0
M  V30 3056 H 289.928 -3.87718 -0.246302 0
M  V30 3057 H 291.6 -3.96239 2.36205 0
M  V30 3058 H 289.843 -3.69016 2.28057 0
M  V30 3059 H 290.514 -5.23532 1.74981 0
M  V30 3060 H 292.99 -4.15822 0.152089 0
M  V30 3061 H 291.866 -5.48358 -0.243855 0
M  V30 3062 H 292.127 -4.19176 -1.40513 0
M  V30 3063 N 291.186 -0.45159 -1.50991 0
M  V30 3064 C 292.096 0.358431 -2.31846 0
M  V30 3065 C 293.112 1.01438 -1.41373 0
M  V30 3066 O 294.288 1.00663 -1.74439 0
M  V30 3067 C 291.353 1.43704 -3.15515 0
M  V30 3068 C 290.414 0.799742 -4.21785 0
M  V30 3069 C 289.647 1.82696 -5.01456 0
M  V30 3070 O 289.87 3.05105 -4.81941 0
M  V30 3071 O 288.804 1.40958 -5.85162 0
M  V30 3072 H 292.63 -0.302032 -3.02194 0
M  V30 3073 H 290.215 -0.213825 -1.47862 0
M  V30 3074 H 292.097 2.06227 -3.67489 0
M  V30 3075 H 290.772 2.08133 -2.47916 0
M  V30 3076 H 289.679 0.136084 -3.73852 0
M  V30 3077 H 291.012 0.198718 -4.91799 0
M  V30 3078 N 292.664 1.56529 -0.183458 0
M  V30 3079 C 293.612 2.19873 0.758845 0
M  V30 3080 C 294.606 1.16638 1.22849 0
M  V30 3081 O 295.812 1.3481 1.19274 0
M  V30 3082 H 292.187 0.7045 0.263029 0
M  V30 3083 H 294.158 2.97724 0.200755 0
M  V30 3084 C 292.907 2.86314 1.9728 0
M  V30 3085 H 292.23 3.65487 1.62047 0
M  V30 3086 H 293.67 3.3409 2.61075 0
M  V30 3087 C 292.129 1.86729 2.80418 0
M  V30 3088 O 292.659 1.36031 3.77966 0
M  V30 3089 N 290.865 1.55216 2.45675 0
M  V30 3090 H 290.412 1.96636 1.66409 0
M  V30 3091 H 290.37 0.888388 3.01588 0
M  V30 3092 N 294.142 -0.090211 1.57342 0
M  V30 3093 C 295.388 -0.793982 1.86611 0
M  V30 3094 C 295.721 -1.78142 0.773252 0
M  V30 3095 O 294.996 -1.93271 -0.218304 0
M  V30 3096 C 295.279 -1.51839 3.26523 0
M  V30 3097 C 295.132 -0.548609 4.46442 0
M  V30 3098 C 296.451 -2.46779 3.64401 0
M  V30 3099 H 293.57 -0.287186 0.678744 0
M  V30 3100 H 296.212 -0.0575076 1.89913 0
M  V30 3101 H 294.362 -2.14617 3.23839 0
M  V30 3102 H 296.034 0.0725513 4.61243 0
M  V30 3103 H 294.277 0.137614 4.33582 0
M  V30 3104 H 294.948 -1.09271 5.41076 0
M  V30 3105 H 297.424 -1.94089 3.68061 0
M  V30 3106 H 296.3 -2.94479 4.63221 0
M  V30 3107 H 296.561 -3.30758 2.93346 0
M  V30 3108 N 295.62 -1.53406 -0.361157 0
M  V30 3109 C 296.53 -1.83122 -1.4664 0
M  V30 3110 C 297.546 -0.719943 -1.58407 0
M  V30 3111 O 298.722 -1.01046 -1.74218 0
M  V30 3112 C 295.787 -2.01891 -2.81853 0
M  V30 3113 C 294.848 -3.25784 -2.79577 0
M  V30 3114 C 294.081 -3.43648 -4.0834 0
M  V30 3115 O 294.304 -2.65714 -5.0473 0
M  V30 3116 O 293.238 -4.37018 -4.13883 0
M  V30 3117 H 297.064 -2.7703 -1.24451 0
M  V30 3118 H 294.649 -1.38841 -0.551678 0
M  V30 3119 H 296.531 -2.15782 -3.61962 0
M  V30 3120 H 295.206 -1.11173 -3.0401 0
M  V30 3121 H 294.113 -3.17312 -1.98151 0
M  V30 3122 H 295.446 -4.16439 -2.62373 0
M  V30 3123 N 297.098 0.621204 -1.44841 0
M  V30 3124 C 298.344 1.38073 -1.49357 0
M  V30 3125 C 298.699 1.91973 -0.128115 0
M  V30 3126 O 297.992 1.71311 0.858087 0
M  V30 3127 C 298.186 2.55675 -2.4973 0
M  V30 3128 C 298.015 2.13289 -3.95901 0
M  V30 3129 C 296.785 2.001 -4.63991 0
M  V30 3130 C 298.983 1.7159 -4.84831 0
M  V30 3131 N 296.965 1.51381 -5.94943 0
M  V30 3132 C 298.336 1.34188 -6.05304 0
M  V30 3133 C 300.391 1.59059 -4.7181 0
M  V30 3134 C 299.094 0.855085 -7.14199 0
M  V30 3135 C 301.12 1.11784 -5.8074 0
M  V30 3136 C 300.482 0.753385 -7.0036 0
M  V30 3137 H 296.581 0.499675 -0.601539 0
M  V30 3138 H 299.165 0.711609 -1.8123 0
M  V30 3139 H 297.336 3.20201 -2.19832 0
M  V30 3140 H 299.068 3.22509 -2.4448 0
M  V30 3141 H 295.823 2.20863 -4.18947 0
M  V30 3142 H 296.247 1.29293 -6.64539 0
M  V30 3143 H 300.889 1.85865 -3.79755 0
M  V30 3144 H 298.607 0.574552 -8.06055 0
M  V30 3145 H 302.193 1.02533 -5.72694 0
M  V30 3146 H 301.073 0.393183 -7.83214 0
M  V30 3147 N 298.576 1.31904 0.862503 0
M  V30 3148 C 299.992 1.10724 1.14945 0
M  V30 3149 C 300.192 -0.117421 2.01158 0
M  V30 3150 O 299.248 -0.804595 2.39338 0
M  V30 3151 C 300.561 2.38267 1.83437 0
M  V30 3152 C 302.109 2.43949 1.96106 0
M  V30 3153 C 302.584 3.71394 2.68013 0
M  V30 3154 N 304.075 3.72331 2.75543 0
M  V30 3155 C 304.81 4.67641 3.31812 0
M  V30 3156 N 304.306 5.73313 3.88953 0
M  V30 3157 N 306.099 4.5515 3.29841 0
M  V30 3158 H 298.25 2.10436 0.288191 0
M  V30 3159 H 300.513 0.928705 0.190292 0
M  V30 3160 H 300.219 3.27759 1.27542 0
M  V30 3161 H 300.093 2.48633 2.83657 0
M  V30 3162 H 302.48 1.54922 2.51164 0
M  V30 3163 H 302.561 2.37543 0.949059 0
M  V30 3164 H 302.205 4.60791 2.13621 0
M  V30 3165 H 302.135 3.75069 3.69636 0
M  V30 3166 H 304.626 2.95947 2.34997 0
M  V30 3167 H 304.939 6.42107 4.30022 0
M  V30 3168 H 303.284 5.77077 3.87308 0
M  V30 3169 H 306.475 3.71766 2.84443 0
M  V30 3170 H 306.648 5.29604 3.73394 0
M  V30 3171 N 300.054 -1.07777 1.14986 0
M  V30 3172 C 301.3 -1.80557 0.923422 0
M  V30 3173 C 301.633 -1.86298 -0.548337 0
M  V30 3174 O 300.908 -1.34354 -1.40639 0
M  V30 3175 C 301.191 -3.25839 1.53299 0
M  V30 3176 C 301.044 -3.28269 3.07505 0
M  V30 3177 C 302.363 -4.22991 1.21518 0
M  V30 3178 H 299.482 -0.655493 0.336894 0
M  V30 3179 H 302.124 -1.26144 1.42083 0
M  V30 3180 H 300.274 -3.72306 1.10999 0
M  V30 3181 H 301.946 -2.90079 3.58681 0
M  V30 3182 H 300.189 -2.67355 3.4162 0
M  V30 3183 H 300.86 -4.30691 3.45266 0
M  V30 3184 H 303.336 -3.84894 1.581 0
M  V30 3185 H 302.212 -5.22945 1.66793 0
M  V30 3186 H 302.473 -4.41904 0.131505 0
M  V30 3187 N 301.532 -0.945985 -1.26051 0
M  V30 3188 C 302.462 -0.477172 -2.28572 0
M  V30 3189 C 303.443 0.472032 -1.63419 0
M  V30 3190 O 304.628 0.372853 -1.90587 0
M  V30 3191 C 301.758 0.253975 -3.4637 0
M  V30 3192 C 300.712 -0.609135 -4.23643 0
M  V30 3193 C 300.038 0.252252 -5.34105 0
M  V30 3194 C 301.338 -1.8829 -4.8718 0
M  V30 3195 H 303.032 -1.33402 -2.68038 0
M  V30 3196 H 300.578 -0.642904 -1.28852 0
M  V30 3197 H 302.531 0.593016 -4.17207 0
M  V30 3198 H 301.255 1.145 -3.05871 0
M  V30 3199 H 299.914 -0.931138 -3.54578 0
M  V30 3200 H 299.562 1.14278 -4.89846 0
M  V30 3201 H 299.262 -0.32188 -5.86718 0
M  V30 3202 H 300.786 0.586454 -6.07777 0
M  V30 3203 H 302.2 -1.61081 -5.50205 0
M  V30 3204 H 300.597 -2.40199 -5.49931 0
M  V30 3205 H 301.667 -2.59134 -4.09851 0
M  V30 3206 N 303.011 1.40521 -0.713556 0
M  V30 3207 C 304.259 2.00527 -0.251692 0
M  V30 3208 C 304.58 1.56857 1.15848 0
M  V30 3209 O 303.85 0.807127 1.785 0
M  V30 3210 H 302.43 0.741551 -0.0900646 0
M  V30 3211 H 305.092 1.71887 -0.918733 0
M  V30 3212 H 304.188 3.10813 -0.283192 0
M  V30 3213 N 304.489 0.459591 1.5075 0
M  V30 3214 C 305.422 -0.386257 2.24907 0
M  V30 3215 C 306.4 -1.006 1.27744 0
M  V30 3216 O 307.584 -1.04416 1.56938 0
M  V30 3217 C 304.711 -1.54021 3.01654 0
M  V30 3218 C 303.757 -1.03898 4.13651 0
M  V30 3219 S 304.59 0.0370501 5.35487 0
M  V30 3220 C 305.746 -1.12105 6.15779 0
M  V30 3221 H 305.979 0.243272 2.96303 0
M  V30 3222 H 303.512 0.244339 1.52454 0
M  V30 3223 H 305.47 -2.20163 3.46466 0
M  V30 3224 H 304.131 -2.14121 2.29806 0
M  V30 3225 H 303.324 -1.90254 4.66711 0
M  V30 3226 H 302.926 -0.45545 3.71216 0
M  V30 3227 H 305.218 -2.03501 6.46215 0
M  V30 3228 H 306.161 -0.62995 7.05292 0
M  V30 3229 H 306.569 -1.36967 5.47631 0
M  V30 3230 N 305.967 -1.56429 0.191757 0
M  V30 3231 C 307.378 -1.83912 -0.321428 0
M  V30 3232 C 307.729 -1.11231 -1.61623 0
M  V30 3233 O 306.854 -0.37202 -2.13178 0
M  V30 3234 C 307.449 -3.33624 -0.589961 0
M  V30 3235 C 306.008 -3.6153 -1.04753 0
M  V30 3236 C 305.155 -2.7714 -0.0943327 0
M  V30 3237 H 308.106 -1.53161 0.415612 0
M  V30 3238 H 308.127 -3.52213 -1.43966 0
M  V30 3239 H 307.639 -3.86495 0.352588 0
M  V30 3240 H 305.74 -3.14089 -2.00447 0
M  V30 3241 H 305.853 -4.69737 -0.942549 0
M  V30 3242 H 304.217 -2.47638 -0.595589 0
M  V30 3243 H 305 -3.32799 0.842601 0
M  V30 3244 N 307.445 0.0818655 -1.57387 0
M  V30 3245 C 308.408 1.08265 -2.02018 0
M  V30 3246 C 309.408 1.32183 -0.915664 0
M  V30 3247 O 310.598 1.28073 -1.18081 0
M  V30 3248 C 307.73 2.42871 -2.39221 0
M  V30 3249 H 308.923 0.698204 -2.91659 0
M  V30 3250 H 306.476 0.327303 -1.52835 0
M  V30 3251 H 307.211 2.86167 -1.52575 0
M  V30 3252 H 306.996 2.26855 -3.19811 0
M  V30 3253 H 308.486 3.14826 -2.74362 0
M  V30 3254 N 308.923 1.53595 0.353017 0
M  V30 3255 C 310.339 1.43648 0.695516 0
M  V30 3256 C 310.539 0.585617 1.92802 0
M  V30 3257 O 309.595 0.0729223 2.52395 0
M  V30 3258 C 310.908 2.8701 0.896991 0
M  V30 3259 C 312.456 2.96723 0.996209 0
M  V30 3260 C 312.931 4.41173 1.23007 0
M  V30 3261 N 314.422 4.44657 1.29749 0
M  V30 3262 C 315.157 5.53547 1.49577 0
M  V30 3263 N 314.653 6.72461 1.66639 0
M  V30 3264 N 316.446 5.41145 1.52048 0
M  V30 3265 H 308.597 2.07415 -0.457481 0
M  V30 3266 H 310.86 0.9372 -0.142687 0
M  V30 3267 H 310.566 3.51644 0.0629938 0
M  V30 3268 H 310.44 3.31401 1.80148 0
M  V30 3269 H 312.827 2.32235 1.82074 0
M  V30 3270 H 312.908 2.55707 0.0688331 0
M  V30 3271 H 312.552 5.06238 0.410505 0
M  V30 3272 H 312.482 4.79772 2.17086 0
M  V30 3273 H 314.973 3.58963 1.18126 0
M  V30 3274 H 315.286 7.51214 1.81378 0
M  V30 3275 H 313.631 6.75423 1.63794 0
M  V30 3276 H 316.822 4.47205 1.38294 0
M  V30 3277 H 316.995 6.26068 1.67159 0
M  V30 3278 N 310.401 -0.613514 1.45168 0
M  V30 3279 C 311.817 -0.933629 1.29443 0
M  V30 3280 C 312.017 -2.00028 0.243101 0
M  V30 3281 O 311.073 -2.49848 -0.364992 0
M  V30 3282 C 312.386 -1.38018 2.67155 0
M  V30 3283 C 313.934 -1.49471 2.75004 0
M  V30 3284 C 314.409 -1.97503 4.13227 0
M  V30 3285 N 315.9 -2.04746 4.15491 0
M  V30 3286 C 316.635 -2.43121 5.19307 0
M  V30 3287 N 316.131 -2.80506 6.33473 0
M  V30 3288 N 317.924 -2.43408 5.06664 0
M  V30 3289 H 310.075 0.0916097 2.12202 0
M  V30 3290 H 312.338 -0.0216655 0.947752 0
M  V30 3291 H 312.044 -0.670625 3.45247 0
M  V30 3292 H 311.918 -2.34784 2.95222 0
M  V30 3293 H 314.305 -2.19519 1.9722 0
M  V30 3294 H 314.386 -0.510342 2.50657 0
M  V30 3295 H 314.03 -1.28045 4.91495 0
M  V30 3296 H 313.96 -2.96843 4.34962 0
M  V30 3297 H 316.451 -1.78468 3.33103 0
M  V30 3298 H 316.764 -3.08652 7.08487 0
M  V30 3299 H 315.109 -2.78216 6.36884 0
M  V30 3300 H 318.3 -2.13604 4.16523 0
M  V30 3301 H 318.473 -2.72989 5.87691 0
M  V30 3302 N 311.879 -1.3236 -0.855495 0
M  V30 3303 C 313.295 -1.11332 -1.14356 0
M  V30 3304 C 313.495 0.106751 -2.01217 0
M  V30 3305 O 312.551 0.791891 -2.39761 0
M  V30 3306 C 313.864 -2.39237 -1.82171 0
M  V30 3307 C 315.412 -2.44986 -1.9481 0
M  V30 3308 C 315.887 -3.7281 -2.66039 0
M  V30 3309 N 317.378 -3.73787 -2.73565 0
M  V30 3310 C 318.113 -4.69394 -3.29327 0
M  V30 3311 N 317.609 -5.75367 -3.85907 0
M  V30 3312 N 319.402 -4.56893 -3.27423 0
M  V30 3313 H 311.553 -2.10586 -0.277027 0
M  V30 3314 H 313.816 -0.929701 -0.185364 0
M  V30 3315 H 313.522 -3.28431 -1.25802 0
M  V30 3316 H 313.396 -2.50134 -2.82335 0
M  V30 3317 H 315.783 -1.56252 -2.50338 0
M  V30 3318 H 315.864 -2.38043 -0.936448 0
M  V30 3319 H 315.508 -4.61918 -2.11174 0
M  V30 3320 H 315.438 -3.77024 -3.67642 0
M  V30 3321 H 317.929 -2.97189 -2.33424 0
M  V30 3322 H 318.242 -6.44378 -4.26611 0
M  V30 3323 H 316.587 -5.79123 -3.84242 0
M  V30 3324 H 319.778 -3.73269 -2.82467 0
M  V30 3325 H 319.951 -5.31577 -3.7058 0
M  V30 3326 N 313.357 1.07166 -1.15556 0
M  V30 3327 C 314.603 1.80065 -0.932984 0
M  V30 3328 C 314.936 1.86586 0.53845 0
M  V30 3329 O 314.211 1.35098 1.39924 0
M  V30 3330 C 314.494 3.25022 -1.55025 0
M  V30 3331 C 314.347 3.26634 -3.09242 0
M  V30 3332 C 315.666 4.22341 -1.2376 0
M  V30 3333 H 312.785 0.653697 -0.340366 0
M  V30 3334 H 315.427 1.25389 -1.4275 0
M  V30 3335 H 313.577 3.71712 -1.12972 0
M  V30 3336 H 315.249 2.88173 -3.60214 0
M  V30 3337 H 313.492 2.65539 -3.43033 0
M  V30 3338 H 314.163 4.28854 -3.47546 0
M  V30 3339 H 316.639 3.8405 -1.60139 0
M  V30 3340 H 315.515 5.22053 -1.69564 0
M  V30 3341 H 315.776 4.41828 -0.154938 0
M  V30 3342 N 314.835 0.952656 1.25548 0
M  V30 3343 C 315.765 0.489287 2.28316 0
M  V30 3344 C 316.746 -0.463359 1.63667 0
M  V30 3345 O 317.931 -0.36274 1.90782 0
M  V30 3346 C 315.061 -0.235603 3.465 0
M  V30 3347 C 314.015 0.631593 4.23314 0
M  V30 3348 C 313.341 -0.223923 5.34231 0
M  V30 3349 C 314.641 1.90871 4.86174 0
M  V30 3350 H 316.335 1.34822 2.67326 0
M  V30 3351 H 313.881 0.649728 1.28509 0
M  V30 3352 H 315.834 -0.570882 4.17515 0
M  V30 3353 H 314.558 -1.12877 3.06474 0
M  V30 3354 H 313.217 0.949929 3.54079 0
M  V30 3355 H 312.865 -1.11678 4.90446 0
M  V30 3356 H 312.565 0.35299 5.86539 0
M  V30 3357 H 314.089 -0.554214 6.0808 0
M  V30 3358 H 315.503 1.63997 5.49343 0
M  V30 3359 H 313.9 2.43112 5.4865 0
M  V30 3360 H 314.97 2.61304 4.08471 0
M  V30 3361 N 316.313 -1.40141 0.720998 0
M  V30 3362 C 317.541 -2.05096 0.272656 0
M  V30 3363 C 317.956 -1.54334 -1.0875 0
M  V30 3364 O 317.313 -0.702211 -1.6845 0
M  V30 3365 C 317.364 -3.60636 0.249835 0
M  V30 3366 O 317.085 -4.09526 1.55629 0
M  V30 3367 C 318.586 -4.42772 -0.216396 0
M  V30 3368 H 315.806 -0.659897 0.121558 0
M  V30 3369 H 318.35 -1.79449 0.980723 0
M  V30 3370 H 316.505 -3.85232 -0.409237 0
M  V30 3371 H 316.919 -5.03758 1.4604 0
M  V30 3372 H 318.393 -5.51702 -0.181212 0
M  V30 3373 H 318.87 -4.20756 -1.25941 0
M  V30 3374 H 319.476 -4.23294 0.412596 0
M  V30 3375 N 317.792 -0.46758 -1.50504 0
M  V30 3376 C 319.022 0.086288 -2.0642 0
M  V30 3377 C 319.43 1.34369 -1.33197 0
M  V30 3378 O 318.773 1.79431 -0.393747 0
M  V30 3379 C 318.835 0.443846 -3.5675 0
M  V30 3380 C 318.499 -0.711035 -4.51435 0
M  V30 3381 C 319.496 -1.59205 -4.94924 0
M  V30 3382 C 317.181 -0.900363 -4.94165 0
M  V30 3383 C 319.175 -2.64683 -5.79846 0
M  V30 3384 C 316.862 -1.95837 -5.7887 0
M  V30 3385 C 317.86 -2.82997 -6.21612 0
M  V30 3386 O 317.548 -3.86977 -7.0463 0
M  V30 3387 H 317.28 -0.00217814 -0.675996 0
M  V30 3388 H 319.834 -0.654346 -1.94698 0
M  V30 3389 H 318.064 1.23762 -3.6636 0
M  V30 3390 H 319.753 0.932386 -3.95046 0
M  V30 3391 H 320.519 -1.45745 -4.62583 0
M  V30 3392 H 316.398 -0.231427 -4.60419 0
M  V30 3393 H 319.942 -3.32745 -6.13128 0
M  V30 3394 H 315.839 -2.09305 -6.10624 0
M  V30 3395 H 316.607 -3.83923 -7.22873 0
M  V30 3396 N 319.27 1.56325 -0.20005 0
M  V30 3397 C 320.518 1.97329 0.436547 0
M  V30 3398 C 320.839 1.08826 1.61808 0
M  V30 3399 O 320.109 0.160604 1.95241 0
M  V30 3400 H 318.689 0.728714 0.164272 0
M  V30 3401 H 321.351 1.92761 -0.287937 0
M  V30 3402 H 320.447 3.02264 0.777353 0
M  V30 3403 N 320.748 -0.0735177 1.57428 0
M  V30 3404 C 321.988 -0.778363 1.89 0
M  V30 3405 C 322.352 -1.7483 0.793634 0
M  V30 3406 O 323.553 -2.49811 0.992367 0
M  V30 3407 C 321.824 -1.46929 3.25802 0
M  V30 3408 S 323.383 -2.20943 3.79117 0
M  V30 3409 H 320.201 -0.258874 0.662197 0
M  V30 3410 H 322.803 -0.0345338 1.95469 0
M  V30 3411 H 321.507 -0.749532 4.03497 0
M  V30 3412 H 321.038 -2.25258 3.22525 0
M  V30 3413 H 323.053 -3.47435 3.54265 0
M  V30 3414 N 322.226 -1.5378 -0.344866 0
M  V30 3415 C 323.466 -1.72677 -1.09371 0
M  V30 3416 C 323.83 -0.479084 -1.85927 0
M  V30 3417 O 325.031 -0.54505 -2.63216 0
M  V30 3418 C 323.302 -2.95457 -2.01097 0
M  V30 3419 S 324.861 -3.35158 -2.83222 0
M  V30 3420 H 321.679 -0.607402 -0.369573 0
M  V30 3421 H 324.281 -1.91922 -0.372307 0
M  V30 3422 H 322.985 -3.84437 -1.43655 0
M  V30 3423 H 322.516 -2.78673 -2.77678 0
M  V30 3424 H 324.531 -2.88789 -4.03504 0
M  V30 3425 N 323.704 0.605807 -1.45491 0
M  V30 3426 C 324.929 1.39625 -1.53361 0
M  V30 3427 C 325.354 1.87351 -0.167645 0
M  V30 3428 O 324.712 1.60243 0.848051 0
M  V30 3429 C 324.76 2.57559 -2.5238 0
M  V30 3430 O 323.864 3.58248 -2.04285 0
M  V30 3431 H 323.205 0.416771 -0.516912 0
M  V30 3432 H 325.735 0.737103 -1.90861 0
M  V30 3433 H 325.745 3.0478 -2.71244 0
M  V30 3434 H 324.42 2.22171 -3.51586 0
M  V30 3435 H 322.997 3.17664 -1.95305 0
M  V30 3436 N 325.182 1.32811 0.848464 0
M  V30 3437 C 326.092 1.24278 1.98978 0
M  V30 3438 C 327.108 0.155176 1.73307 0
M  V30 3439 O 328.284 0.376999 1.9784 0
M  V30 3440 C 325.349 0.972444 3.32783 0
M  V30 3441 C 324.41 2.14911 3.71634 0
M  V30 3442 C 323.643 1.89157 4.99054 0
M  V30 3443 O 323.866 0.837165 5.64223 0
M  V30 3444 O 322.8 2.75433 5.35183 0
M  V30 3445 H 326.626 2.20238 2.09115 0
M  V30 3446 H 324.211 1.12762 0.980052 0
M  V30 3447 H 326.093 0.838432 4.12975 0
M  V30 3448 H 324.768 0.043051 3.23671 0
M  V30 3449 H 323.675 2.33862 2.91992 0
M  V30 3450 H 325.008 3.06151 3.85399 0
M  V30 3451 N 326.66 -1.06551 1.16123 0
M  V30 3452 C 328.071 -1.60768 0.949232 0
M  V30 3453 C 328.422 -1.89523 -0.507508 0
M  V30 3454 O 327.547 -1.66671 -1.38021 0
M  V30 3455 C 328.142 -2.92086 1.71671 0
M  V30 3456 C 326.701 -3.43015 1.54977 0
M  V30 3457 C 325.848 -2.16947 1.72711 0
M  V30 3458 H 328.799 -0.895354 1.31031 0
M  V30 3459 H 328.82 -3.6138 1.19099 0
M  V30 3460 H 328.332 -2.71127 2.7769 0
M  V30 3461 H 326.433 -3.69039 0.513873 0
M  V30 3462 H 326.546 -4.18516 2.33198 0
M  V30 3463 H 324.91 -2.27041 1.15431 0
M  V30 3464 H 325.693 -1.98473 2.80113 0
M  V30 3465 N 328.138 -0.959301 -1.25041 0
M  V30 3466 C 329.368 -0.63303 -1.96663 0
M  V30 3467 C 329.776 0.800031 -1.71453 0
M  V30 3468 O 329.119 1.54736 -0.99008 0
M  V30 3469 C 329.181 -0.817523 -3.50081 0
M  V30 3470 C 328.845 -2.22863 -3.98975 0
M  V30 3471 C 329.842 -3.20569 -4.09306 0
M  V30 3472 C 327.527 -2.55407 -4.32519 0
M  V30 3473 C 329.521 -4.4891 -4.52503 0
M  V30 3474 C 327.208 -3.83976 -4.754 0
M  V30 3475 C 328.206 -4.8054 -4.85356 0
M  V30 3476 O 327.894 -6.06817 -5.27284 0
M  V30 3477 H 327.626 -0.235866 -0.633516 0
M  V30 3478 H 330.18 -1.2874 -1.60047 0
M  V30 3479 H 328.41 -0.105992 -3.86555 0
M  V30 3480 H 330.099 -0.491604 -4.02912 0
M  V30 3481 H 330.865 -2.96753 -3.83618 0
M  V30 3482 H 326.744 -1.8097 -4.23994 0
M  V30 3483 H 330.288 -5.24283 -4.60188 0
M  V30 3484 H 326.185 -4.07596 -5.00535 0
M  V30 3485 H 326.953 -6.10262 -5.45457 0
M  V30 3486 N 329.616 1.39756 -0.72842 0
M  V30 3487 C 331.027 1.83498 -0.344289 0
M  V30 3488 C 331.378 1.60868 1.12321 0
M  V30 3489 O 330.503 1.09634 1.86573 0
M  V30 3490 C 331.098 3.33114 -0.618112 0
M  V30 3491 C 329.657 3.753 -0.287549 0
M  V30 3492 C 328.804 2.62831 -0.884048 0
M  V30 3493 H 331.755 1.28842 -0.926578 0
M  V30 3494 H 331.776 3.80334 0.112349 0
M  V30 3495 H 331.288 3.49553 -1.68625 0
M  V30 3496 H 329.389 3.64451 0.775012 0
M  V30 3497 H 329.502 4.72945 -0.765512 0
M  V30 3498 H 327.866 2.52792 -0.311149 0
M  V30 3499 H 328.649 2.82078 -1.95671 0
M  V30 3500 N 331.094 0.475555 1.50254 0
M  V30 3501 C 332.371 -0.139685 1.95101 0
M  V30 3502 C 332.751 -1.56555 1.41611 0
M  V30 3503 O 332.099 -2.19956 0.618993 0
M  V30 3504 C 332.309 -0.0784298 3.48912 0
M  V30 3505 C 333.657 -0.265095 4.23772 0
M  V30 3506 O 334.681 -0.154808 3.55863 0
M  V30 3507 O 333.54 -0.488327 5.44314 0
M  V30 3508 H 330.634 -0.109236 0.819754 0
M  V30 3509 H 333.18 0.536276 1.61004 0
M  V30 3510 H 331.952 0.916918 3.80405 0
M  V30 3511 H 331.575 -0.795655 3.89558 0
M  V30 3512 N 332.573 -1.56217 0.208337 0
M  V30 3513 C 333.819 -1.98242 -0.427552 0
M  V30 3514 C 334.152 -1.09554 -1.60348 0
M  V30 3515 O 333.427 -0.15035 -1.93918 0
M  V30 3516 C 333.71 -3.4931 -0.874907 0
M  V30 3517 C 333.563 -4.48773 0.303751 0
M  V30 3518 C 334.882 -4.04424 -1.73577 0
M  V30 3519 H 332.001 -0.720744 -0.153936 0
M  V30 3520 H 334.643 -1.87586 0.30192 0
M  V30 3521 H 332.793 -3.58522 -1.49648 0
M  V30 3522 H 334.465 -4.51586 0.941682 0
M  V30 3523 H 332.708 -4.23194 0.953375 0
M  V30 3524 H 333.379 -5.51976 -0.0519883 0
M  V30 3525 H 335.855 -3.98075 -1.21143 0
M  V30 3526 H 334.731 -5.1047 -2.01771 0
M  V30 3527 H 334.992 -3.50494 -2.69456 0
M  V30 3528 N 334.051 0.0651679 -1.57465 0
M  V30 3529 C 335.279 0.775808 -1.91804 0
M  V30 3530 C 335.694 1.70782 -0.804916 0
M  V30 3531 O 335.051 1.81153 0.221311 0
M  V30 3532 C 335.102 1.56381 -3.25925 0
M  V30 3533 O 334.823 0.669248 -4.32958 0
M  V30 3534 C 336.324 2.37485 -3.7432 0
M  V30 3535 H 333.544 0.2202 -0.63384 0
M  V30 3536 H 336.088 0.0334587 -2.04473 0
M  V30 3537 H 334.243 2.25837 -3.14764 0
M  V30 3538 H 334.657 1.21801 -5.10162 0
M  V30 3539 H 336.131 2.88223 -4.70778 0
M  V30 3540 H 336.608 3.17307 -3.03666 0
M  V30 3541 H 337.214 1.73173 -3.88447 0
M  V30 3542 N 335.529 1.53961 0.336706 0
M  V30 3543 C 336.776 1.71536 1.07618 0
M  V30 3544 C 337.104 0.482125 1.8843 0
M  V30 3545 O 336.359 -0.536142 1.88213 0
M  V30 3546 C 336.658 2.93493 2.03953 0
M  V30 3547 C 336.324 4.28811 1.39399 0
M  V30 3548 C 334.986 4.65602 1.21523 0
M  V30 3549 C 337.338 5.12844 0.929541 0
M  V30 3550 C 334.666 5.84037 0.558312 0
M  V30 3551 C 337.018 6.31951 0.286505 0
M  V30 3552 C 335.682 6.67432 0.0954869 0
M  V30 3553 H 334.952 0.627696 0.393801 0
M  V30 3554 H 337.599 1.88186 0.354715 0
M  V30 3555 H 335.904 2.71475 2.82504 0
M  V30 3556 H 337.601 3.04285 2.61174 0
M  V30 3557 H 334.191 3.99858 1.54311 0
M  V30 3558 H 338.375 4.84947 1.05548 0
M  V30 3559 H 333.631 6.10097 0.398995 0
M  V30 3560 H 337.805 6.96352 -0.0814376 0
M  V30 3561 H 335.432 7.59063 -0.415579 0
M  V30 3562 N 337.007 -0.598083 1.45811 0
M  V30 3563 C 338.235 -1.38322 1.53866 0
M  V30 3564 C 338.65 -1.87992 0.174479 0
M  V30 3565 O 338.007 -1.62756 -0.825627 0
M  V30 3566 C 338.058 -2.58125 2.53089 0
M  V30 3567 O 337.779 -2.10516 3.84206 0
M  V30 3568 C 339.28 -3.50869 2.70935 0
M  V30 3569 H 336.5 -0.423093 0.520801 0
M  V30 3570 H 339.044 -0.728527 1.91083 0
M  V30 3571 H 337.199 -3.19615 2.18917 0
M  V30 3572 H 337.613 -2.88425 4.38077 0
M  V30 3573 H 339.087 -4.31451 3.44317 0
M  V30 3574 H 339.564 -4.01822 1.77301 0
M  V30 3575 H 340.17 -2.95225 3.06141 0
M  V30 3576 N 338.485 -1.33259 -0.841409 0
M  V30 3577 C 339.415 -1.25926 -1.96634 0
M  V30 3578 C 340.396 -0.140349 -1.6952 0
M  V30 3579 O 341.581 -0.329707 -1.91381 0
M  V30 3580 C 338.711 -0.99512 -3.32738 0
M  V30 3581 C 337.665 -2.0767 -3.74242 0
M  V30 3582 C 336.991 -1.66474 -5.08125 0
M  V30 3583 C 338.291 -3.49318 -3.88297 0
M  V30 3584 H 339.985 -2.20046 -2.03027 0
M  V30 3585 H 337.531 -1.05931 -0.975425 0
M  V30 3586 H 339.484 -0.930323 -4.11002 0
M  V30 3587 H 338.208 -0.0183004 -3.26595 0
M  V30 3588 H 336.867 -2.13187 -2.98239 0
M  V30 3589 H 336.515 -0.675012 -4.9845 0
M  V30 3590 H 336.215 -2.3885 -5.36865 0
M  V30 3591 H 337.739 -1.61455 -5.88867 0
M  V30 3592 H 339.153 -3.46316 -4.56879 0
M  V30 3593 H 337.55 -4.20158 -4.28471 0
M  V30 3594 H 338.62 -3.8801 -2.9082 0
M  V30 3595 N 339.963 1.05934 -1.16686 0
M  V30 3596 C 340.893 2.1546 -0.899949 0
M  V30 3597 C 341.874 1.69391 0.155154 0
M  V30 3598 O 343.059 1.94199 0.00648693 0
M  V30 3599 C 340.189 3.44939 -0.404241 0
M  V30 3600 C 339.143 4.04536 -1.39767 0
M  V30 3601 C 338.469 5.29268 -0.760216 0
M  V30 3602 C 339.769 4.42893 -2.76845 0
M  V30 3603 H 341.463 2.38046 -1.81588 0
M  V30 3604 H 339.009 1.14404 -0.874514 0
M  V30 3605 H 340.962 4.20901 -0.204971 0
M  V30 3606 H 339.686 3.21983 0.547206 0
M  V30 3607 H 338.345 3.30635 -1.58355 0
M  V30 3608 H 337.993 5.02611 0.197831 0
M  V30 3609 H 337.693 5.70101 -1.42332 0
M  V30 3610 H 339.217 6.07924 -0.57105 0
M  V30 3611 H 340.631 5.09921 -2.62019 0
M  V30 3612 H 339.028 4.94721 -3.39663 0
M  V30 3613 H 340.098 3.53584 -3.31823 0
M  V30 3614 N 341.441 0.965919 1.2453 0
M  V30 3615 C 342.371 0.513476 2.27784 0
M  V30 3616 C 343.352 -0.445974 1.6415 0
M  V30 3617 O 344.537 -0.342485 1.91156 0
M  V30 3618 C 341.667 -0.198839 3.4673 0
M  V30 3619 C 340.621 0.676456 4.2262 0
M  V30 3620 C 339.947 -0.167248 5.34438 0
M  V30 3621 C 341.247 1.96017 4.84123 0
M  V30 3622 H 342.941 1.3765 2.65881 0
M  V30 3623 H 340.487 0.663321 1.27813 0
M  V30 3624 H 342.44 -0.526567 4.18097 0
M  V30 3625 H 341.164 -1.0962 3.07654 0
M  V30 3626 H 339.823 0.98743 3.53052 0
M  V30 3627 H 339.471 -1.0647 4.91603 0
M  V30 3628 H 339.171 0.415181 5.86131 0
M  V30 3629 H 340.695 -0.489688 6.08633 0
M  V30 3630 H 342.109 1.69814 5.47573 0
M  V30 3631 H 340.506 2.48918 5.4604 0
M  V30 3632 H 341.576 2.65622 4.05676 0
M  V30 3633 N 342.919 -1.39368 0.735821 0
M  V30 3634 C 344.335 -1.54204 0.411492 0
M  V30 3635 C 344.535 -1.70268 -1.07755 0
M  V30 3636 O 343.591 -1.70364 -1.86366 0
M  V30 3637 C 344.904 -2.75925 1.19523 0
M  V30 3638 C 346.452 -2.89761 1.18354 0
M  V30 3639 C 346.927 -4.14421 1.94986 0
M  V30 3640 N 348.418 -4.21462 1.92156 0
M  V30 3641 C 349.153 -5.16871 2.48258 0
M  V30 3642 N 348.649 -6.18063 3.13001 0
M  V30 3643 N 350.442 -5.09093 2.38287 0
M  V30 3644 H 342.593 -1.27189 1.70108 0
M  V30 3645 H 344.856 -0.616517 0.720147 0
M  V30 3646 H 344.562 -2.70401 2.24892 0
M  V30 3647 H 344.436 -3.68614 0.800222 0
M  V30 3648 H 346.823 -2.94777 0.137975 0
M  V30 3649 H 346.904 -1.98133 1.61793 0
M  V30 3650 H 346.548 -4.10166 2.99543 0
M  V30 3651 H 346.478 -5.05095 1.48953 0
M  V30 3652 H 348.969 -3.48979 1.44991 0
M  V30 3653 H 349.282 -6.87326 3.53275 0
M  V30 3654 H 347.627 -6.18448 3.17091 0
M  V30 3655 H 350.818 -4.28973 1.8735 0
M  V30 3656 H 350.991 -5.83272 2.82308 0
M  V30 3657 N 344.397 -0.483516 -1.5 0
M  V30 3658 C 345.813 -0.138404 -1.58999 0
M  V30 3659 C 346.013 1.35597 -1.4905 0
M  V30 3660 O 345.069 2.13039 -1.35539 0
M  V30 3661 C 346.382 -0.699658 -2.92447 0
M  V30 3662 C 347.93 -0.664195 -3.05872 0
M  V30 3663 C 348.405 -1.20321 -4.41913 0
M  V30 3664 N 349.896 -1.16315 -4.48358 0
M  V30 3665 C 350.631 -1.55058 -5.52037 0
M  V30 3666 N 350.127 -2.01311 -6.62907 0
M  V30 3667 N 351.92 -1.46584 -5.42651 0
M  V30 3668 H 344.071 -1.45529 -1.5471 0
M  V30 3669 H 346.334 -0.60258 -0.731848 0
M  V30 3670 H 346.04 -1.747 -3.05242 0
M  V30 3671 H 345.914 -0.150194 -3.76901 0
M  V30 3672 H 348.301 0.374272 -2.92717 0
M  V30 3673 H 348.382 -1.25061 -2.23144 0
M  V30 3674 H 348.026 -2.24037 -4.55818 0
M  V30 3675 H 347.956 -0.592896 -5.23252 0
M  V30 3676 H 350.447 -0.824058 -3.68806 0
M  V30 3677 H 350.76 -2.2899 -7.38095 0
M  V30 3678 H 349.105 -2.05273 -6.63994 0
M  V30 3679 H 352.296 -1.10281 -4.54924 0
M  V30 3680 H 352.469 -1.77103 -6.23329 0
M  V30 3681 N 345.875 1.56104 -0.216619 0
M  V30 3682 C 347.291 1.58995 0.13886 0
M  V30 3683 C 347.491 1.23333 1.59346 0
M  V30 3684 O 346.547 0.966234 2.33281 0
M  V30 3685 C 347.86 3.00143 -0.182968 0
M  V30 3686 C 349.408 3.12751 -0.124807 0
M  V30 3687 C 349.883 4.56068 -0.420241 0
M  V30 3688 N 351.374 4.61723 -0.369634 0
M  V30 3689 C 352.109 5.70542 -0.571789 0
M  V30 3690 N 351.605 6.87744 -0.835453 0
M  V30 3691 N 353.398 5.59831 -0.504563 0
M  V30 3692 H 345.549 1.77562 -1.16557 0
M  V30 3693 H 347.812 0.825091 -0.466828 0
M  V30 3694 H 347.518 3.30871 -1.19237 0
M  V30 3695 H 347.392 3.73813 0.504367 0
M  V30 3696 H 349.779 2.81822 0.875223 0
M  V30 3697 H 349.86 2.41421 -0.845544 0
M  V30 3698 H 349.504 4.87713 -1.41769 0
M  V30 3699 H 349.434 5.25617 0.321631 0
M  V30 3700 H 351.925 3.77502 -0.173338 0
M  V30 3701 H 352.238 7.66587 -0.977938 0
M  V30 3702 H 350.583 6.895 -0.872592 0
M  V30 3703 H 353.774 4.67145 -0.298842 0
M  V30 3704 H 353.947 6.44573 -0.665519 0
M  V30 3705 N 347.353 -0.0568162 1.57498 0
M  V30 3706 C 348.316 -1.05038 2.03715 0
M  V30 3707 C 349.316 -1.30709 0.936577 0
M  V30 3708 O 350.506 -1.26178 1.20103 0
M  V30 3709 C 347.638 -2.39034 2.43055 0
M  V30 3710 H 348.831 -0.651715 2.92733 0
M  V30 3711 H 346.384 -0.302947 1.53336 0
M  V30 3712 H 347.119 -2.83703 1.57108 0
M  V30 3713 H 346.904 -2.21739 3.2338 0
M  V30 3714 H 348.394 -3.10421 2.79336 0
M  V30 3715 N 348.832 -1.54138 -0.328536 0
M  V30 3716 C 349.795 -1.82462 -1.38709 0
M  V30 3717 C 350.795 -0.696229 -1.44946 0
M  V30 3718 O 351.985 -0.964535 -1.4506 0
M  V30 3719 C 349.117 -1.98018 -2.77492 0
M  V30 3720 H 350.31 -2.77037 -1.14851 0
M  V30 3721 H 347.863 -1.45779 -0.563751 0
M  V30 3722 H 348.598 -1.05637 -3.06613 0
M  V30 3723 H 348.383 -2.80124 -2.74359 0
M  V30 3724 H 349.873 -2.21396 -3.54081 0
M  V30 3725 N 350.31 0.590341 -1.46126 0
M  V30 3726 C 351.273 1.68194 -1.55703 0
M  V30 3727 C 352.273 1.54808 -0.434868 0
M  V30 3728 O 353.463 1.59564 -0.698928 0
M  V30 3729 C 350.595 3.07575 -1.47005 0
M  V30 3730 H 351.788 1.61064 -2.52979 0
M  V30 3731 H 349.341 0.807541 -1.33823 0
M  V30 3732 H 350.076 3.20268 -0.509785 0
M  V30 3733 H 349.861 3.187 -2.28414 0
M  V30 3734 H 351.351 3.87055 -1.56776 0
M  V30 3735 N 351.788 1.33704 0.83433 0
M  V30 3736 C 353.018 1.28281 1.6195 0
M  V30 3737 C 353.426 -0.147603 1.88623 0
M  V30 3738 O 352.769 -1.1016 1.47005 0
M  V30 3739 C 352.831 1.99386 2.99141 0
M  V30 3740 C 352.495 3.48681 2.95416 0
M  V30 3741 C 353.492 4.438 2.70809 0
M  V30 3742 C 351.177 3.90925 3.15409 0
M  V30 3743 C 353.171 5.79138 2.66229 0
M  V30 3744 C 350.858 5.26366 3.10454 0
M  V30 3745 C 351.856 6.20284 2.85895 0
M  V30 3746 O 351.544 7.53245 2.80852 0
M  V30 3747 H 351.276 0.44315 0.510484 0
M  V30 3748 H 353.83 1.76711 1.04702 0
M  V30 3749 H 352.06 1.45554 3.58261 0
M  V30 3750 H 353.749 1.87403 3.60049 0
M  V30 3751 H 354.515 4.12485 2.5511 0
M  V30 3752 H 350.394 3.18229 3.33543 0
M  V30 3753 H 353.938 6.52416 2.4698 0
M  V30 3754 H 349.835 5.57304 3.25703 0
M  V30 3755 H 350.603 7.62846 2.96661 0
M  V30 3756 N 353.266 -1.05314 1.17247 0
M  V30 3757 C 354.512 -1.78557 0.961513 0
M  V30 3758 C 354.845 -1.87419 -0.508697 0
M  V30 3759 O 354.12 -1.37307 -1.37757 0
M  V30 3760 C 354.403 -3.22514 1.60176 0
M  V30 3761 C 354.256 -3.21673 3.14399 0
M  V30 3762 C 355.575 -4.20318 1.30463 0
M  V30 3763 H 352.694 -0.6482 0.350723 0
M  V30 3764 H 355.336 -1.23102 1.44727 0
M  V30 3765 H 353.486 -3.69867 1.18871 0
M  V30 3766 H 355.158 -2.82405 3.64753 0
M  V30 3767 H 353.401 -2.60048 3.47214 0
M  V30 3768 H 354.072 -4.23271 3.54324 0
M  V30 3769 H 356.548 -3.81454 1.66229 0
M  V30 3770 H 355.424 -5.19289 1.77848 0
M  V30 3771 H 355.685 -4.41526 0.22521 0
M  V30 3772 N 354.744 -0.972509 -1.24016 0
M  V30 3773 C 355.984 -0.644951 -1.93958 0
M  V30 3774 C 356.348 0.80559 -1.74282 0
M  V30 3775 O 357.549 1.2436 -2.38302 0
M  V30 3776 C 355.82 -1.01521 -3.42678 0
M  V30 3777 S 357.379 -0.802927 -4.31391 0
M  V30 3778 H 354.197 -0.236452 -0.670531 0
M  V30 3779 H 356.799 -1.25048 -1.50277 0
M  V30 3780 H 355.503 -2.06769 -3.54506 0
M  V30 3781 H 355.034 -0.400648 -3.91355 0
M  V30 3782 H 357.049 0.317256 -4.95185 0
M  V30 3783 N 356.222 1.38976 -0.743202 0
M  V30 3784 C 357.17 2.32394 -0.0978389 0
M  V30 3785 C 358.164 1.53486 0.716824 0
M  V30 3786 O 359.37 1.69092 0.617088 0
M  V30 3787 H 355.745 0.75189 -0.0128402 0
M  V30 3788 H 357.716 2.84441 -0.901981 0
M  V30 3789 C 356.465 3.38629 0.789036 0
M  V30 3790 H 355.788 3.99432 0.171559 0
M  V30 3791 H 357.228 4.06426 1.20807 0
M  V30 3792 C 355.687 2.76347 1.92702 0
M  V30 3793 O 356.217 2.64836 3.02034 0
M  V30 3794 N 354.423 2.34311 1.71891 0
M  V30 3795 H 353.97 2.43873 0.829675 0
M  V30 3796 H 353.928 1.9298 2.48205 0
M  V30 3797 N 357.7 0.491464 1.49741 0
M  V30 3798 C 358.63 -0.28154 2.31796 0
M  V30 3799 C 359.611 -0.971473 1.3963 0
M  V30 3800 O 360.796 -0.964719 1.68543 0
M  V30 3801 C 357.926 -1.35203 3.19902 0
M  V30 3802 C 356.88 -0.782529 4.20786 0
M  V30 3803 C 356.206 -1.95283 4.97764 0
M  V30 3804 C 357.506 0.21999 5.21837 0
M  V30 3805 H 359.2 0.403355 2.96671 0
M  V30 3806 H 356.746 0.195425 1.42668 0
M  V30 3807 H 358.699 -1.90045 3.76113 0
M  V30 3808 H 357.423 -2.06598 2.52953 0
M  V30 3809 H 356.082 -0.255928 3.65706 0
M  V30 3810 H 355.73 -2.65423 4.2727 0
M  V30 3811 H 355.43 -1.57789 5.66018 0
M  V30 3812 H 356.954 -2.50577 5.56816 0
M  V30 3813 H 358.368 -0.23996 5.72798 0
M  V30 3814 H 356.765 0.51026 5.97927 0
M  V30 3815 H 357.835 1.13911 4.7133 0
M  V30 3816 N 359.178 -1.55987 0.224894 0
M  V30 3817 C 360.108 -2.23426 -0.678457 0
M  V30 3818 C 361.089 -1.20709 -1.19847 0
M  V30 3819 O 362.274 -1.49304 -1.24186 0
M  V30 3820 C 359.404 -2.91676 -1.88527 0
M  V30 3821 C 358.358 -4.00893 -1.49896 0
M  V30 3822 C 357.684 -4.56455 -2.78483 0
M  V30 3823 C 358.984 -5.17769 -0.686461 0
M  V30 3824 H 360.678 -2.99175 -0.116173 0
M  V30 3825 H 358.224 -1.43897 -0.054436 0
M  V30 3826 H 360.177 -3.37547 -2.5227 0
M  V30 3827 H 358.901 -2.1338 -2.47258 0
M  V30 3828 H 357.56 -3.55758 -0.884985 0
M  V30 3829 H 357.208 -3.74886 -3.35365 0
M  V30 3830 H 356.908 -5.30169 -2.53368 0
M  V30 3831 H 358.432 -5.05047 -3.43162 0
M  V30 3832 H 359.846 -5.60001 -1.22767 0
M  V30 3833 H 358.243 -5.97735 -0.532259 0
M  V30 3834 H 359.313 -4.83932 0.306196 0
M  V30 3835 N 360.656 0.0484629 -1.57525 0
M  V30 3836 C 361.586 1.0549 -2.08313 0
M  V30 3837 C 362.567 1.38929 -0.981463 0
M  V30 3838 O 363.752 1.48151 -1.25558 0
M  V30 3839 C 360.882 2.36162 -2.54646 0
M  V30 3840 C 359.836 2.17016 -3.68901 0
M  V30 3841 C 359.162 3.53278 -4.01371 0
M  V30 3842 C 360.462 1.57219 -4.98076 0
M  V30 3843 H 362.156 0.632195 -2.92649 0
M  V30 3844 H 359.702 0.302654 -1.40784 0
M  V30 3845 H 361.655 3.06882 -2.88793 0
M  V30 3846 H 360.379 2.80456 -1.67368 0
M  V30 3847 H 359.038 1.48733 -3.35073 0
M  V30 3848 H 358.686 3.95185 -3.11188 0
M  V30 3849 H 358.386 3.41299 -4.78318 0
M  V30 3850 H 359.91 4.25391 -4.38035 0
M  V30 3851 H 361.324 2.17832 -5.30304 0
M  V30 3852 H 359.721 1.55871 -5.79503 0
M  V30 3853 H 360.791 0.535956 -4.81929 0
M  V30 3854 N 362.134 1.5431 0.320358 0
M  V30 3855 C 363.545 1.63872 0.894594 0
M  V30 3856 C 363.896 0.534847 1.88769 0
M  V30 3857 O 363.021 -0.331732 2.13842 0
M  V30 3858 C 363.616 2.97049 1.62934 0
M  V30 3859 C 362.175 3.08796 2.15226 0
M  V30 3860 C 361.322 2.59456 0.978671 0
M  V30 3861 H 364.273 1.58398 0.0978544 0
M  V30 3862 H 364.294 2.87388 2.49376 0
M  V30 3863 H 363.806 3.7737 0.906302 0
M  V30 3864 H 361.907 2.33156 2.90636 0
M  V30 3865 H 362.02 4.14649 2.40006 0
M  V30 3866 H 360.384 2.1543 1.35875 0
M  V30 3867 H 361.167 3.42237 0.269895 0
M  V30 3868 N 363.613 -0.582584 1.46437 0
M  V30 3869 C 364.853 -1.35184 1.53312 0
M  V30 3870 C 365.217 -1.9115 0.180508 0
M  V30 3871 O 366.418 -2.68514 0.124017 0
M  V30 3872 C 364.689 -2.45089 2.60127 0
M  V30 3873 S 366.248 -3.32439 2.86408 0
M  V30 3874 H 363.066 -0.460559 0.54167 0
M  V30 3875 H 365.668 -0.669709 1.83671 0
M  V30 3876 H 364.372 -2.02366 3.57038 0
M  V30 3877 H 363.903 -3.18074 2.315 0
M  V30 3878 H 365.918 -4.43924 2.21688 0
M  V30 3879 N 365.091 -1.34144 -0.827227 0
M  V30 3880 C 366.337 -1.26446 -1.58554 0
M  V30 3881 C 366.67 0.1664 -1.93486 0
M  V30 3882 O 365.945 1.1107 -1.59667 0
M  V30 3883 C 366.228 -2.15111 -2.8879 0
M  V30 3884 C 366.081 -3.66712 -2.60465 0
M  V30 3885 C 367.4 -2.03311 -3.90324 0
M  V30 3886 H 364.519 -0.46067 -0.575284 0
M  V30 3887 H 367.161 -1.64356 -0.953269 0
M  V30 3888 H 365.311 -1.8291 -3.42748 0
M  V30 3889 H 366.983 -4.09259 -2.1285 0
M  V30 3890 H 365.226 -3.88014 -1.93978 0
M  V30 3891 H 365.897 -4.24112 -3.53317 0
M  V30 3892 H 368.373 -2.31574 -3.45706 0
M  V30 3893 H 367.249 -2.67582 -4.79261 0
M  V30 3894 H 367.51 -1.00879 -4.30437 0
M  V30 3895 N 366.569 1.04691 -1.17803 0
M  V30 3896 C 367.499 2.14494 -0.92275 0
M  V30 3897 C 368.48 1.69546 0.137179 0
M  V30 3898 O 369.665 1.94195 -0.0141108 0
M  V30 3899 C 366.795 3.44491 -0.440803 0
M  V30 3900 C 365.749 4.03031 -1.4405 0
M  V30 3901 C 365.075 5.28432 -0.81631 0
M  V30 3902 C 366.375 4.39932 -2.81527 0
M  V30 3903 H 368.069 2.36107 -1.84103 0
M  V30 3904 H 365.615 1.1347 -0.886599 0
M  V30 3905 H 367.568 4.2066 -0.249602 0
M  V30 3906 H 366.292 3.22546 0.513025 0
M  V30 3907 H 364.951 3.28937 -1.61853 0
M  V30 3908 H 364.599 5.02792 0.144511 0
M  V30 3909 H 364.299 5.68559 -1.48371 0
M  V30 3910 H 365.823 6.07284 -0.635496 0
M  V30 3911 H 367.237 5.07113 -2.67412 0
M  V30 3912 H 365.634 4.9109 -3.44892 0
M  V30 3913 H 366.704 3.50045 -3.35554 0
M  V30 3914 N 368.047 0.979072 1.23499 0
M  V30 3915 C 369.296 0.642751 1.91185 0
M  V30 3916 C 369.609 -0.827253 1.77245 0
M  V30 3917 O 370.815 -1.27458 2.39722 0
M  V30 3918 C 369.271 1.09901 3.42709 0
M  V30 3919 C 368.879 2.59327 3.65313 0
M  V30 3920 C 370.623 0.836371 4.16179 0
M  V30 3921 C 368.53 2.98627 5.10467 0
M  V30 3922 H 367.46 0.236698 0.715884 0
M  V30 3923 H 370.111 1.1868 1.39955 0
M  V30 3924 H 368.493 0.48319 3.93041 0
M  V30 3925 H 369.667 3.26136 3.25533 0
M  V30 3926 H 367.982 2.83323 3.05151 0
M  V30 3927 H 370.579 1.10586 5.23139 0
M  V30 3928 H 370.922 -0.227509 4.15678 0
M  V30 3929 H 371.455 1.41371 3.71832 0
M  V30 3930 H 368.194 4.04133 5.16098 0
M  V30 3931 H 367.714 2.3651 5.51201 0
M  V30 3932 H 369.393 2.89159 5.78788 0
M  V30 3933 N 369.525 -1.3858 0.750561 0
M  V30 3934 C 370.75 -2.04997 0.314812 0
M  V30 3935 C 371.175 -1.56235 -1.04749 0
M  V30 3936 O 370.533 -0.712981 -1.66692 0
M  V30 3937 C 370.581 -3.58961 0.343415 0
M  V30 3938 O 369.685 -4.07025 -0.663628 0
M  V30 3939 H 369.026 -0.649081 0.139962 0
M  V30 3940 H 371.556 -1.77313 1.02084 0
M  V30 3941 H 371.566 -4.07542 0.193233 0
M  V30 3942 H 370.241 -3.93811 1.33738 0
M  V30 3943 H 368.818 -3.6982 -0.478307 0
M  V30 3944 N 371.003 -0.499398 -1.49478 0
M  V30 3945 C 371.933 0.269244 -2.31943 0
M  V30 3946 C 372.914 0.964054 -1.40143 0
M  V30 3947 O 374.099 0.955767 -1.69052 0
M  V30 3948 C 371.229 1.33504 -3.20615 0
M  V30 3949 C 370.183 0.760202 -4.21195 0
M  V30 3950 C 369.509 1.9264 -4.98792 0
M  V30 3951 C 370.809 -0.247661 -5.21712 0
M  V30 3952 H 372.503 -0.419082 -2.96452 0
M  V30 3953 H 370.049 -0.202988 -1.42562 0
M  V30 3954 H 372.002 1.88048 -3.77115 0
M  V30 3955 H 370.726 2.05253 -2.54045 0
M  V30 3956 H 369.385 0.23653 -3.65836 0
M  V30 3957 H 369.033 2.63154 -4.28671 0
M  V30 3958 H 368.733 1.54785 -5.66847 0
M  V30 3959 H 370.257 2.4762 -5.58137 0
M  V30 3960 H 371.671 0.209579 -5.72917 0
M  V30 3961 H 370.068 -0.541962 -5.97648 0
M  V30 3962 H 371.138 -1.16409 -4.7072 0
M  V30 3963 N 372.481 1.55866 -0.233164 0
M  V30 3964 C 373.411 2.23783 0.666599 0
M  V30 3965 C 374.392 1.21343 1.19205 0
M  V30 3966 O 375.577 1.4996 1.23392 0
M  V30 3967 C 372.707 2.92671 1.86978 0
M  V30 3968 C 371.661 4.01682 1.47768 0
M  V30 3969 C 370.987 4.57926 2.76058 0
M  V30 3970 C 372.287 5.18126 0.658993 0
M  V30 3971 H 373.981 2.99232 0.100306 0
M  V30 3972 H 371.527 1.43924 0.046804 0
M  V30 3973 H 373.48 3.3888 2.50476 0
M  V30 3974 H 372.204 2.14688 2.46123 0
M  V30 3975 H 370.863 3.56222 0.866106 0
M  V30 3976 H 370.511 3.76659 3.33372 0
M  V30 3977 H 370.211 5.31505 2.50552 0
M  V30 3978 H 371.735 5.06859 3.40479 0
M  V30 3979 H 373.149 5.60644 1.19795 0
M  V30 3980 H 371.546 5.98009 0.500552 0
M  V30 3981 H 372.616 4.83763 -0.331856 0
M  V30 3982 N 373.959 -0.0401083 1.57549 0
M  V30 3983 C 374.922 -1.02871 2.04817 0
M  V30 3984 C 375.922 -1.29708 0.950388 0
M  V30 3985 O 377.112 -1.24897 1.21435 0
M  V30 3986 C 374.244 -2.36443 2.45576 0
M  V30 3987 H 375.437 -0.620631 2.93408 0
M  V30 3988 H 372.99 -0.286667 1.53649 0
M  V30 3989 H 373.725 -2.82021 1.60108 0
M  V30 3990 H 373.51 -2.18296 3.25713 0
M  V30 3991 H 375 -3.07441 2.82612 0
M  V30 3992 N 375.437 -1.54477 -0.31217 0
M  V30 3993 C 376.848 -1.64344 -0.885891 0
M  V30 3994 C 377.199 -0.54485 -1.88483 0
M  V30 3995 O 376.324 0.320387 -2.14015 0
M  V30 3996 C 376.919 -2.97908 -1.61357 0
M  V30 3997 C 375.478 -3.09933 -2.13585 0
M  V30 3998 C 374.625 -2.59971 -0.964897 0
M  V30 3999 H 377.576 -1.58448 -0.0894528 0
M  V30 4000 H 377.597 -2.88706 -2.47848 0
M  V30 4001 H 377.109 -3.77845 -0.886277 0
M  V30 4002 H 375.21 -2.34694 -2.89395 0
M  V30 4003 H 375.323 -4.15916 -2.37804 0
M  V30 4004 H 373.687 -2.16147 -1.34731 0
M  V30 4005 H 374.47 -3.42376 -0.251742 0
M  V30 4006 N 376.915 0.57481 -1.46744 0
M  V30 4007 C 377.845 1.69337 -1.60771 0
M  V30 4008 C 378.826 1.63825 -0.457736 0
M  V30 4009 O 380.011 1.8172 -0.684947 0
M  V30 4010 C 377.141 3.0798 -1.60517 0
M  V30 4011 C 376.095 3.28327 -2.74564 0
M  V30 4012 C 375.421 4.67578 -2.59373 0
M  V30 4013 C 376.721 3.15398 -4.16319 0
M  V30 4014 H 378.415 1.57853 -2.54407 0
M  V30 4015 H 375.961 0.75799 -1.22436 0
M  V30 4016 H 377.914 3.86061 -1.68923 0
M  V30 4017 H 376.638 3.20381 -0.634305 0
M  V30 4018 H 375.297 2.52649 -2.65639 0
M  V30 4019 H 374.945 4.76755 -1.60353 0
M  V30 4020 H 374.645 4.82144 -3.35873 0
M  V30 4021 H 376.169 5.47817 -2.69682 0
M  V30 4022 H 377.583 3.83315 -4.26313 0
M  V30 4023 H 375.98 3.41482 -4.93468 0
M  V30 4024 H 377.05 2.12372 -4.3592 0
M  V30 4025 N 378.394 1.34581 0.820102 0
M  V30 4026 C 379.357 1.2628 1.91275 0
M  V30 4027 C 380.357 0.177344 1.59819 0
M  V30 4028 O 381.547 0.430156 1.68806 0
M  V30 4029 C 378.679 0.950327 3.27386 0
M  V30 4030 H 379.872 2.23421 2.00057 0
M  V30 4031 H 377.425 1.1891 1.0144 0
M  V30 4032 H 378.16 -0.0177938 3.24295 0
M  V30 4033 H 377.945 1.73549 3.51601 0
M  V30 4034 H 379.435 0.917492 4.07396 0
M  V30 4035 N 379.872 -1.04064 1.18357 0
M  V30 4036 C 381.119 -1.77265 0.978947 0
M  V30 4037 C 381.447 -1.88189 -0.491428 0
M  V30 4038 O 380.702 -1.38653 -1.38108 0
M  V30 4039 C 381.001 -3.20634 1.57888 0
M  V30 4040 C 380.667 -3.29743 3.07539 0
M  V30 4041 C 379.329 -3.31937 3.48384 0
M  V30 4042 C 381.681 -3.29841 4.03552 0
M  V30 4043 C 379.009 -3.3187 4.83818 0
M  V30 4044 C 381.361 -3.31313 5.38901 0
M  V30 4045 C 380.025 -3.31799 5.79194 0
M  V30 4046 H 379.295 -0.648659 0.358222 0
M  V30 4047 H 381.942 -1.22225 1.47422 0
M  V30 4048 H 380.247 -3.78675 1.00561 0
M  V30 4049 H 381.944 -3.75917 1.39598 0
M  V30 4050 H 378.534 -3.28757 2.74986 0
M  V30 4051 H 382.718 -3.27337 3.73047 0
M  V30 4052 H 377.974 -3.30562 5.14333 0
M  V30 4053 H 382.148 -3.30338 6.13066 0
M  V30 4054 H 379.775 -3.315 6.84114 0
M  V30 4055 N 381.35 -0.985608 -1.22978 0
M  V30 4056 C 382.3 -0.50118 -2.22423 0
M  V30 4057 C 383.284 0.426649 -1.5514 0
M  V30 4058 O 384.476 0.254656 -1.75159 0
M  V30 4059 C 381.605 0.190003 -3.42774 0
M  V30 4060 C 380.691 -0.757703 -4.17276 0
M  V30 4061 N 381.082 -1.90251 -4.68656 0
M  V30 4062 C 379.38 -0.57209 -4.42316 0
M  V30 4063 C 380.081 -2.49676 -5.25392 0
M  V30 4064 N 379.057 -1.78013 -5.13627 0
M  V30 4065 H 382.859 -1.37441 -2.59783 0
M  V30 4066 H 380.373 -0.846941 -1.38567 0
M  V30 4067 H 382.37 0.55439 -4.13197 0
M  V30 4068 H 381.03 1.05946 -3.06929 0
M  V30 4069 H 382.041 -2.28354 -4.64839 0
M  V30 4070 H 378.718 0.251909 -4.16739 0
M  V30 4071 H 380.108 -3.46384 -5.75732 0
M  V30 4072 N 382.828 1.3818 -0.7579 0
M  V30 4073 C 383.758 2.33027 -0.148597 0
M  V30 4074 C 384.739 1.55085 0.69875 0
M  V30 4075 O 385.924 1.83384 0.639053 0
M  V30 4076 C 383.054 3.3928 0.742034 0
M  V30 4077 C 382.008 4.28 -0.00291946 0
M  V30 4078 C 381.334 5.25146 1.00625 0
M  V30 4079 C 382.634 5.08938 -1.17385 0
M  V30 4080 H 384.328 2.84231 -0.940909 0
M  V30 4081 H 381.874 1.36659 -0.453908 0
M  V30 4082 H 383.827 4.046 1.17799 0
M  V30 4083 H 382.551 2.86569 1.56671 0
M  V30 4084 H 381.21 3.64192 -0.419504 0
M  V30 4085 H 380.858 4.68721 1.8251 0
M  V30 4086 H 380.558 5.85361 0.512428 0
M  V30 4087 H 382.082 5.93342 1.44143 0
M  V30 4088 H 383.496 5.67474 -0.815224 0
M  V30 4089 H 381.893 5.7841 -1.59882 0
M  V30 4090 H 382.963 4.42424 -1.98468 0
M  V30 4091 N 384.306 0.507319 1.49211 0
M  V30 4092 C 385.717 0.0611118 1.866 0
M  V30 4093 C 386.068 -1.35488 1.41907 0
M  V30 4094 O 385.193 -2.0108 0.799726 0
M  V30 4095 C 385.788 0.104125 3.3864 0
M  V30 4096 C 384.347 -0.28677 3.75306 0
M  V30 4097 C 383.494 0.473893 2.73221 0
M  V30 4098 H 386.445 0.719775 1.41439 0
M  V30 4099 H 386.466 -0.689672 3.74198 0
M  V30 4100 H 385.978 1.13482 3.71138 0
M  V30 4101 H 384.079 -1.32046 3.48417 0
M  V30 4102 H 384.192 0.0370745 4.79086 0
M  V30 4103 H 382.556 -0.0770644 2.54583 0
M  V30 4104 H 383.339 1.50478 3.08563 0
M  V30 4105 N 385.784 -1.5574 0.241426 0
M  V30 4106 C 386.747 -2.19877 -0.647063 0
M  V30 4107 C 387.747 -1.16642 -1.10686 0
M  V30 4108 O 388.937 -1.41757 -1.01245 0
M  V30 4109 C 386.069 -2.83797 -1.88871 0
M  V30 4110 H 387.262 -2.99772 -0.087574 0
M  V30 4111 H 384.815 -1.56298 -0.00813574 0
M  V30 4112 H 385.55 -2.07824 -2.48957 0
M  V30 4113 H 385.335 -3.59414 -1.56728 0
M  V30 4114 H 386.825 -3.32898 -2.52129 0
M  V30 4115 N 387.262 0.0317525 -1.57568 0
M  V30 4116 C 388.539 0.758366 -1.803 0
M  V30 4117 C 388.919 1.93718 -0.838845 0
M  V30 4118 O 388.267 2.28187 0.119571 0
M  V30 4119 C 388.477 1.19392 -3.27943 0
M  V30 4120 C 389.825 1.61094 -3.92854 0
M  V30 4121 O 390.849 1.28857 -3.32076 0
M  V30 4122 O 389.708 2.20918 -4.99858 0
M  V30 4123 H 386.802 0.366514 -0.741348 0
M  V30 4124 H 389.348 0.00873765 -1.69698 0
M  V30 4125 H 388.12 0.352275 -3.89711 0
M  V30 4126 H 387.743 2.00365 -3.43424 0
M  V30 4127 N 388.74 1.54641 0.303973 0
M  V30 4128 C 389.965 1.78092 1.06292 0
M  V30 4129 C 390.39 0.537342 1.80262 0
M  V30 4130 O 389.748 -0.511993 1.7392 0
M  V30 4131 C 389.796 2.98612 2.02147 0
M  V30 4132 O 388.9 2.71528 3.10397 0
M  V30 4133 H 388.241 0.589548 0.305497 0
M  V30 4134 H 390.771 2.01716 0.3423 0
M  V30 4135 H 390.781 3.265 2.44667 0
M  V30 4136 H 389.456 3.88785 1.47714 0
M  V30 4137 H 388.033 2.54648 2.72413 0
M  V30 4138 N 390.218 -0.567019 1.47046 0
M  V30 4139 C 391.466 -1.322 1.52864 0
M  V30 4140 C 391.787 -1.94088 0.188388 0
M  V30 4141 O 391.057 -1.7941 -0.786693 0
M  V30 4142 H 389.637 -0.490894 0.563056 0
M  V30 4143 H 392.299 -0.662879 1.83281 0
M  V30 4144 H 391.395 -2.12062 2.2899 0
M  V30 4145 N 391.696 -1.35014 -0.812953 0
M  V30 4146 C 392.606 -1.2951 -1.95613 0
M  V30 4147 C 393.622 -0.20107 -1.72834 0
M  V30 4148 O 394.798 -0.42932 -1.96771 0
M  V30 4149 C 391.863 -1.06033 -3.30088 0
M  V30 4150 C 390.924 -2.24688 -3.65805 0
M  V30 4151 C 390.157 -2.02322 -4.93864 0
M  V30 4152 O 390.38 -0.986464 -5.61805 0
M  V30 4153 O 389.314 -2.89525 -5.27692 0
M  V30 4154 H 393.14 -2.25705 -2.03202 0
M  V30 4155 H 390.725 -1.15321 -0.949811 0
M  V30 4156 H 392.607 -0.94763 -4.10607 0
M  V30 4157 H 391.282 -0.128852 -3.23443 0
M  V30 4158 H 390.189 -2.41521 -2.85689 0
M  V30 4159 H 391.522 -3.16261 -3.77147 0
M  V30 4160 N 393.175 1.03435 -1.18907 0
M  V30 4161 C 394.122 2.11591 -0.921837 0
M  V30 4162 C 395.092 1.65499 0.141226 0
M  V30 4163 O 396.277 1.908 0.000242829 0
M  V30 4164 C 393.417 3.42012 -0.460616 0
M  V30 4165 C 392.53 4.01682 -1.58982 0
M  V30 4166 C 391.665 5.20091 -1.08069 0
M  V30 4167 C 390.704 5.71805 -2.18416 0
M  V30 4168 N 389.841 6.81494 -1.68849 0
M  V30 4169 H 394.681 2.33787 -1.8479 0
M  V30 4170 H 392.218 1.1467 -0.921373 0
M  V30 4171 H 394.176 4.16834 -0.174642 0
M  V30 4172 H 392.806 3.19944 0.428467 0
M  V30 4173 H 391.858 3.24127 -1.99113 0
M  V30 4174 H 393.17 4.36084 -2.4214 0
M  V30 4175 H 392.324 6.02051 -0.749615 0
M  V30 4176 H 391.063 4.87209 -0.218771 0
M  V30 4177 H 390.068 4.88461 -2.5236 0
M  V30 4178 H 391.293 6.06728 -3.05054 0
M  V30 4179 H 389.239 6.50475 -0.849572 0
M  V30 4180 H 389.156 7.14994 -2.45601 0
M  V30 4181 H 390.424 7.67063 -1.38689 0
M  V30 4182 N 394.653 0.992116 1.22453 0
M  V30 4183 C 395.899 0.668523 1.91464 0
M  V30 4184 C 396.232 -0.797313 1.77078 0
M  V30 4185 O 395.507 -1.5765 1.13916 0
M  V30 4186 C 395.79 1.07424 3.43703 0
M  V30 4187 C 395.643 2.59857 3.67143 0
M  V30 4188 C 396.962 0.626891 4.35612 0
M  V30 4189 H 394.081 0.244341 0.695318 0
M  V30 4190 H 396.723 1.2355 1.44345 0
M  V30 4191 H 394.873 0.591816 3.83966 0
M  V30 4192 H 396.545 3.15764 3.3629 0
M  V30 4193 H 394.788 3.01961 3.11451 0
M  V30 4194 H 395.459 2.83296 4.73759 0
M  V30 4195 H 397.935 1.04125 4.02861 0
M  V30 4196 H 396.811 0.939076 5.40807 0
M  V30 4197 H 397.072 -0.472457 4.39568 0
M  V30 4198 N 396.131 -1.37776 0.765217 0
M  V30 4199 C 397.356 -2.04651 0.336537 0
M  V30 4200 C 397.781 -1.57337 -1.03086 0
M  V30 4201 O 397.139 -0.730621 -1.65927 0
M  V30 4202 C 397.187 -3.58577 0.381468 0
M  V30 4203 O 396.291 -4.07706 -0.62042 0
M  V30 4204 H 395.632 -0.64756 0.146838 0
M  V30 4205 H 398.162 -1.76221 1.03959 0
M  V30 4206 H 398.172 -4.07314 0.236448 0
M  V30 4207 H 396.847 -3.9237 1.37907 0
M  V30 4208 H 395.424 -3.70306 -0.439056 0
M  V30 4209 N 397.609 -0.515225 -1.4894 0
M  V30 4210 C 398.539 0.244628 -2.32215 0
M  V30 4211 C 399.52 0.949136 -1.41157 0
M  V30 4212 O 400.705 0.937783 -1.70057 0
M  V30 4213 C 397.835 1.30096 -3.22013 0
M  V30 4214 C 396.789 0.715486 -4.21977 0
M  V30 4215 C 396.115 1.87339 -5.00808 0
M  V30 4216 C 397.415 -0.302982 -5.2142 0
M  V30 4217 H 399.109 -0.450501 -2.95991 0
M  V30 4218 H 396.655 -0.218098 -1.42339 0
M  V30 4219 H 398.608 1.84037 -3.79089 0
M  V30 4220 H 397.332 2.02547 -2.56207 0
M  V30 4221 H 395.991 0.197715 -3.66066 0
M  V30 4222 H 395.639 2.58592 -4.31438 0
M  V30 4223 H 395.339 1.48764 -5.68457 0
M  V30 4224 H 396.863 2.41686 -5.60732 0
M  V30 4225 H 398.277 0.148802 -5.73107 0
M  V30 4226 H 396.674 -0.60532 -5.97039 0
M  V30 4227 H 397.744 -1.21395 -4.69459 0
M  V30 4228 N 399.087 1.5561 -0.249682 0
M  V30 4229 C 400.335 1.98618 0.373548 0
M  V30 4230 C 400.656 1.13919 1.58264 0
M  V30 4231 O 399.926 0.222637 1.94631 0
M  V30 4232 H 398.506 0.733571 0.141006 0
M  V30 4233 H 401.168 1.91748 -0.349117 0
M  V30 4234 H 400.264 3.04584 0.680796 0
M  V30 4235 N 400.565 -0.0233959 1.57583 0
M  V30 4236 C 401.811 -0.714119 1.89811 0
M  V30 4237 C 402.144 -1.74702 0.848113 0
M  V30 4238 O 401.419 -1.94023 -0.136135 0
M  V30 4239 C 401.702 -1.37853 3.32669 0
M  V30 4240 C 401.555 -0.358764 4.48367 0
M  V30 4241 C 402.874 -2.31101 3.7454 0
M  V30 4242 H 399.993 -0.25814 0.690314 0
M  V30 4243 H 402.635 0.0230927 1.89986 0
M  V30 4244 H 400.785 -2.00689 3.3265 0
M  V30 4245 H 402.457 0.268115 4.6052 0
M  V30 4246 H 400.7 0.321387 4.32608 0
M  V30 4247 H 401.371 -0.862242 5.45224 0
M  V30 4248 H 403.847 -1.78304 3.75961 0
M  V30 4249 H 402.723 -2.74567 4.75294 0
M  V30 4250 H 402.984 -3.18018 3.0711 0
M  V30 4251 N 402.043 -1.548 -0.295768 0
M  V30 4252 C 403.271 -1.78327 -1.04914 0
M  V30 4253 C 403.686 -0.545316 -1.80753 0
M  V30 4254 O 403.043 0.485013 -1.75937 0
M  V30 4255 C 403.094 -2.99418 -2.02561 0
M  V30 4256 O 402.815 -4.18431 -1.29798 0
M  V30 4257 C 404.316 -3.35375 -2.89895 0
M  V30 4258 H 401.536 -0.594618 -0.310918 0
M  V30 4259 H 404.08 -2.01763 -0.333454 0
M  V30 4260 H 402.235 -2.78175 -2.69624 0
M  V30 4261 H 402.649 -4.86736 -1.95419 0
M  V30 4262 H 404.123 -4.23332 -3.54251 0
M  V30 4263 H 404.6 -2.53761 -3.58472 0
M  V30 4264 H 405.206 -3.58796 -2.28355 0
M  V30 4265 N 403.521 0.559213 -1.47345 0
M  V30 4266 C 404.767 1.31843 -1.54095 0
M  V30 4267 C 405.1 1.93149 -0.201726 0
M  V30 4268 O 404.375 1.77759 0.789428 0
M  V30 4269 C 404.658 2.43006 -2.65744 0
M  V30 4270 C 404.511 1.86581 -4.09277 0
M  V30 4271 C 405.83 3.44943 -2.73318 0
M  V30 4272 H 402.949 0.478012 -0.560957 0
M  V30 4273 H 405.591 0.625977 -1.79392 0
M  V30 4274 H 403.741 3.02072 -2.44305 0
M  V30 4275 H 405.413 1.31792 -4.42073 0
M  V30 4276 H 403.656 1.17268 -4.17649 0
M  V30 4277 H 404.327 2.66933 -4.83168 0
M  V30 4278 H 406.803 2.95793 -2.92653 0
M  V30 4279 H 405.679 4.20153 -3.53218 0
M  V30 4280 H 405.94 4.03665 -1.80296 0
M  V30 4281 N 404.999 1.35443 0.805782 0
M  V30 4282 C 405.929 1.31095 1.93226 0
M  V30 4283 C 406.91 0.185244 1.69088 0
M  V30 4284 O 408.095 0.380332 1.90439 0
M  V30 4285 C 405.225 1.08299 3.29983 0
M  V30 4286 C 404.179 2.17519 3.68605 0
M  V30 4287 C 403.505 1.79887 5.03532 0
M  V30 4288 C 404.805 3.5949 3.78898 0
M  V30 4289 H 406.499 2.25352 1.97122 0
M  V30 4290 H 404.045 1.0848 0.946996 0
M  V30 4291 H 405.998 1.03897 4.08391 0
M  V30 4292 H 404.722 0.104885 3.26432 0
M  V30 4293 H 403.381 2.2102 2.92482 0
M  V30 4294 H 403.029 0.80693 4.96485 0
M  V30 4295 H 402.729 2.53001 5.30344 0
M  V30 4296 H 404.253 1.77011 5.84379 0
M  V30 4297 H 405.667 3.58307 4.47536 0
M  V30 4298 H 404.064 4.31371 4.1718 0
M  V30 4299 H 405.134 3.95584 2.80431 0
M  V30 4300 N 406.477 -1.02803 1.19454 0
M  V30 4301 C 407.407 -2.12999 0.956758 0
M  V30 4302 C 408.388 -1.69743 -0.110188 0
M  V30 4303 O 409.573 -1.94148 0.0450038 0
M  V30 4304 C 406.703 -3.43746 0.495553 0
M  V30 4305 C 405.657 -4.00688 1.50443 0
M  V30 4306 C 404.983 -5.27067 0.900275 0
M  V30 4307 C 406.283 -4.35397 2.8849 0
M  V30 4308 H 407.977 -2.33148 1.87836 0
M  V30 4309 H 405.523 -1.12045 0.904539 0
M  V30 4310 H 407.476 -4.2021 0.316493 0
M  V30 4311 H 406.2 -3.23321 -0.461646 0
M  V30 4312 H 404.859 -3.2632 1.67065 0
M  V30 4313 H 404.507 -5.02959 -0.064503 0
M  V30 4314 H 404.207 -5.66127 1.57397 0
M  V30 4315 H 405.731 -6.06196 0.73203 0
M  V30 4316 H 407.145 -5.02795 2.75446 0
M  V30 4317 H 405.542 -4.85541 3.52661 0
M  V30 4318 H 406.612 -3.44662 3.41081 0
M  V30 4319 N 407.956 -0.998596 -1.21925 0
M  V30 4320 C 408.919 -0.558679 -2.22287 0
M  V30 4321 C 409.919 0.361525 -1.56683 0
M  V30 4322 O 411.109 0.152695 -1.73529 0
M  V30 4323 C 408.241 0.18661 -3.40389 0
M  V30 4324 H 409.434 -1.4463 -2.62721 0
M  V30 4325 H 406.987 -0.786413 -1.35075 0
M  V30 4326 H 407.722 1.08996 -3.05435 0
M  V30 4327 H 407.507 -0.474188 -3.89222 0
M  V30 4328 H 408.997 0.482367 -4.14805 0
M  V30 4329 N 409.434 1.37368 -0.772513 0
M  V30 4330 C 410.364 2.32856 -0.173304 0
M  V30 4331 C 411.345 1.55818 0.682262 0
M  V30 4332 O 412.53 1.84052 0.619566 0
M  V30 4333 C 409.66 3.40048 0.706007 0
M  V30 4334 C 408.614 4.27973 -0.0483144 0
M  V30 4335 C 407.94 5.26184 0.950491 0
M  V30 4336 C 409.24 5.07665 -1.22776 0
M  V30 4337 H 410.934 2.83217 -0.971002 0
M  V30 4338 H 408.48 1.3617 -0.468377 0
M  V30 4339 H 410.433 4.05827 1.13501 0
M  V30 4340 H 409.157 2.88214 1.53623 0
M  V30 4341 H 407.816 3.63726 -0.458107 0
M  V30 4342 H 407.464 4.7063 1.77529 0
M  V30 4343 H 407.164 5.85872 0.450314 0
M  V30 4344 H 408.688 5.94838 1.37842 0
M  V30 4345 H 410.102 5.66578 -0.875366 0
M  V30 4346 H 408.499 5.76681 -1.66007 0
M  V30 4347 H 409.569 4.40294 -2.03149 0
M  V30 4348 N 410.912 0.523116 1.48665 0
M  V30 4349 C 412.14 -0.0096312 2.06898 0
M  V30 4350 C 412.555 -1.28784 1.38059 0
M  V30 4351 O 411.912 -1.76453 0.465893 0
M  V30 4352 C 411.963 -0.244386 3.60673 0
M  V30 4353 O 411.684 0.983172 4.26925 0
M  V30 4354 C 413.185 -0.818289 4.35682 0
M  V30 4355 H 410.405 0.0304161 0.67031 0
M  V30 4356 H 412.949 0.726799 1.91149 0
M  V30 4357 H 411.104 -0.930847 3.76051 0
M  V30 4358 H 411.518 0.759653 5.1897 0
M  V30 4359 H 412.992 -0.93201 5.44075 0
M  V30 4360 H 413.469 -1.82153 3.99646 0
M  V30 4361 H 414.075 -0.168609 4.24966 0
M  V30 4362 N 412.39 -1.55475 0.257931 0
M  V30 4363 C 413.636 -1.99502 -0.364266 0
M  V30 4364 C 413.969 -1.146 -1.56782 0
M  V30 4365 O 413.244 -0.211968 -1.93342 0
M  V30 4366 C 413.527 -3.51917 -0.763333 0
M  V30 4367 C 413.38 -4.4758 0.446371 0
M  V30 4368 C 414.699 -4.09742 -1.60623 0
M  V30 4369 H 411.818 -0.725277 -0.130929 0
M  V30 4370 H 414.46 -1.8653 0.361446 0
M  V30 4371 H 412.61 -3.63101 -1.38166 0
M  V30 4372 H 414.282 -4.48362 1.08487 0
M  V30 4373 H 412.525 -4.19947 1.08753 0
M  V30 4374 H 413.196 -5.51862 0.123645 0
M  V30 4375 H 415.672 -4.01727 -1.08418 0
M  V30 4376 H 414.548 -5.16631 -1.85429 0
M  V30 4377 H 414.809 -3.58889 -2.58169 0
M  V30 4378 N 413.868 0.0150385 -1.57593 0
M  V30 4379 C 415.115 0.703001 -1.89906 0
M  V30 4380 C 415.443 1.74604 -0.856944 0
M  V30 4381 O 414.698 1.95197 0.140287 0
M  V30 4382 C 414.997 1.39686 -3.28972 0
M  V30 4383 C 414.663 0.488457 -4.48246 0
M  V30 4384 C 413.325 0.2383 -4.8061 0
M  V30 4385 C 415.677 -0.137881 -5.21018 0
M  V30 4386 C 413.005 -0.646738 -5.83125 0
M  V30 4387 C 415.357 -1.0107 -6.24474 0
M  V30 4388 C 414.021 -1.27019 -6.55303 0
M  V30 4389 H 413.291 0.257246 -0.694914 0
M  V30 4390 H 415.938 -0.037259 -1.91464 0
M  V30 4391 H 414.243 2.21079 -3.23468 0
M  V30 4392 H 415.94 1.93495 -3.51227 0
M  V30 4393 H 412.53 0.693593 -4.22951 0
M  V30 4394 H 416.714 0.0423953 -4.96282 0
M  V30 4395 H 411.97 -0.855937 -6.05379 0
M  V30 4396 H 416.144 -1.50247 -6.79999 0
M  V30 4397 H 413.771 -1.95769 -7.3456 0
M  V30 4398 N 415.346 1.54954 0.287554 0
M  V30 4399 C 416.278 1.83224 1.37701 0
M  V30 4400 C 417.291 0.715898 1.46215 0
M  V30 4401 O 418.48 0.993565 1.48292 0
M  V30 4402 C 415.58 1.96723 2.75959 0
M  V30 4403 C 414.753 3.27253 2.90215 0
M  V30 4404 C 413.812 3.30998 4.09056 0
M  V30 4405 O 412.838 4.04457 4.00503 0
M  V30 4406 N 414.04 2.57353 5.20336 0
M  V30 4407 H 416.805 2.77254 1.138 0
M  V30 4408 H 414.366 1.54694 0.477652 0
M  V30 4409 H 416.358 1.96615 3.5373 0
M  V30 4410 H 414.928 1.09626 2.92747 0
M  V30 4411 H 414.148 3.40022 1.99447 0
M  V30 4412 H 415.436 4.13365 2.96659 0
M  V30 4413 H 414.834 1.97327 5.30169 0
M  V30 4414 H 413.391 2.62984 5.96391 0
M  V30 4415 N 416.824 -0.551391 1.4764 0
M  V30 4416 C 417.754 -1.66757 1.63445 0
M  V30 4417 C 418.735 -1.63077 0.483742 0
M  V30 4418 O 419.92 -1.80607 0.71377 0
M  V30 4419 C 417.05 -3.05387 1.65396 0
M  V30 4420 C 416.004 -3.23918 2.79752 0
M  V30 4421 C 415.33 -4.63393 2.66779 0
M  V30 4422 C 416.63 -3.08735 4.21284 0
M  V30 4423 H 418.324 -1.53786 2.56886 0
M  V30 4424 H 415.87 -0.738415 1.23626 0
M  V30 4425 H 417.823 -3.83325 1.75043 0
M  V30 4426 H 416.547 -3.19332 0.685195 0
M  V30 4427 H 415.206 -2.48391 2.69625 0
M  V30 4428 H 414.854 -4.74144 1.67918 0
M  V30 4429 H 414.554 -4.7674 3.43501 0
M  V30 4430 H 416.078 -5.43458 2.78364 0
M  V30 4431 H 417.492 -3.76484 4.32357 0
M  V30 4432 H 415.889 -3.33588 4.98838 0
M  V30 4433 H 416.959 -2.0541 4.39243 0
M  V30 4434 N 418.302 -1.35869 -0.798587 0
M  V30 4435 C 419.232 -1.32118 -1.92528 0
M  V30 4436 C 420.213 -0.194209 -1.68988 0
M  V30 4437 O 421.398 -0.390426 -1.90235 0
M  V30 4438 C 418.528 -1.10047 -3.29404 0
M  V30 4439 C 417.482 -2.19471 -3.67446 0
M  V30 4440 C 416.808 -1.82555 -5.02571 0
M  V30 4441 C 418.108 -3.61495 -3.76987 0
M  V30 4442 H 419.802 -2.26394 -1.95924 0
M  V30 4443 H 417.348 -1.08981 -0.94123 0
M  V30 4444 H 419.301 -1.06061 -4.07835 0
M  V30 4445 H 418.025 -0.122195 -3.26371 0
M  V30 4446 H 416.684 -2.22568 -2.91306 0
M  V30 4447 H 416.332 -0.833249 -4.9605 0
M  V30 4448 H 416.032 -2.5581 -5.28995 0
M  V30 4449 H 417.556 -1.80108 -5.83432 0
M  V30 4450 H 418.97 -3.60676 -4.4563 0
M  V30 4451 H 417.367 -4.33577 -4.14887 0
M  V30 4452 H 418.437 -3.97065 -2.78329 0
M  V30 4453 N 419.78 1.02168 -1.19998 0
M  V30 4454 C 420.71 2.12488 -0.96804 0
M  V30 4455 C 421.691 1.69799 0.101185 0
M  V30 4456 O 422.876 1.94121 -0.0552993 0
M  V30 4457 C 420.006 3.43479 -0.513776 0
M  V30 4458 C 418.96 3.99884 -1.52566 0
M  V30 4459 C 418.286 5.26582 -0.928214 0
M  V30 4460 C 419.586 4.33861 -2.90795 0
M  V30 4461 H 421.28 2.32149 -1.89069 0
M  V30 4462 H 418.826 1.11564 -0.910468 0
M  V30 4463 H 420.779 4.20036 -0.338774 0
M  V30 4464 H 419.503 3.23561 0.444493 0
M  V30 4465 H 418.162 3.25429 -1.68794 0
M  V30 4466 H 417.81 5.02986 0.0378289 0
M  V30 4467 H 417.51 5.65284 -1.60397 0
M  V30 4468 H 419.034 6.05799 -0.764167 0
M  V30 4469 H 420.448 5.01327 -2.78109 0
M  V30 4470 H 418.845 4.83664 -3.55231 0
M  V30 4471 H 419.915 3.42848 -3.42904 0
M  V30 4472 N 421.258 1.00505 1.21394 0
M  V30 4473 C 422.221 0.570459 2.21987 0
M  V30 4474 C 423.221 -0.353211 1.56873 0
M  V30 4475 O 424.411 -0.14349 1.73608 0
M  V30 4476 C 421.543 -0.168555 3.40483 0
M  V30 4477 H 422.736 1.46021 2.6195 0
M  V30 4478 H 420.289 0.793565 1.34656 0
M  V30 4479 H 421.024 -1.07374 3.06009 0
M  V30 4480 H 420.809 0.494823 3.88965 0
M  V30 4481 H 422.299 -0.460362 4.15055 0
M  V30 4482 N 422.737 -1.36956 0.779787 0
M  V30 4483 C 423.647 -2.33965 0.172491 0
M  V30 4484 C 424.663 -1.60574 -0.670222 0
M  V30 4485 O 425.839 -1.92617 -0.588263 0
M  V30 4486 C 422.904 -3.39761 -0.690173 0
M  V30 4487 C 421.965 -4.28964 0.169924 0
M  V30 4488 C 421.198 -5.29707 -0.651662 0
M  V30 4489 O 421.421 -5.38238 -1.88827 0
M  V30 4490 O 420.355 -6.01873 -0.0566264 0
M  V30 4491 H 424.181 -2.87647 0.974321 0
M  V30 4492 H 421.766 -1.39258 0.541078 0
M  V30 4493 H 423.648 -4.04471 -1.1824 0
M  V30 4494 H 422.323 -2.88394 -1.47006 0
M  V30 4495 H 421.23 -3.67326 0.708696 0
M  V30 4496 H 422.563 -4.83656 0.913085 0
M  V30 4497 N 424.215 -0.530993 -1.48385 0
M  V30 4498 C 425.44 0.000729535 -2.074 0
M  V30 4499 C 425.865 1.27298 -1.3848 0
M  V30 4500 O 425.223 1.75599 -0.451081 0
M  V30 4501 C 425.271 0.206697 -3.60007 0
M  V30 4502 O 424.375 1.27514 -3.92191 0
M  V30 4503 H 423.716 -0.039583 -0.662819 0
M  V30 4504 H 426.246 -0.739194 -1.9078 0
M  V30 4505 H 426.256 0.42904 -4.05738 0
M  V30 4506 H 424.931 -0.722675 -4.09573 0
M  V30 4507 H 423.508 1.03537 -3.58238 0
M  V30 4508 N 425.693 1.55336 -0.266172 0
M  V30 4509 C 426.626 2.18256 0.666296 0
M  V30 4510 C 427.604 1.14064 1.1588 0
M  V30 4511 O 428.788 1.42546 1.23341 0
M  V30 4512 C 425.915 2.79867 1.90768 0
M  V30 4513 C 424.961 3.97283 1.55141 0
M  V30 4514 S 425.794 5.31694 0.637313 0
M  V30 4515 C 426.95 5.96769 1.88727 0
M  V30 4516 H 427.183 2.97008 0.131647 0
M  V30 4517 H 424.716 1.54317 -0.0504869 0
M  V30 4518 H 426.674 3.15996 2.62025 0
M  V30 4519 H 425.335 2.01025 2.41346 0
M  V30 4520 H 424.528 4.3905 2.4749 0
M  V30 4521 H 424.13 3.6253 0.919113 0
M  V30 4522 H 426.422 6.15458 2.83227 0
M  V30 4523 H 427.365 6.91752 1.51276 0
M  V30 4524 H 427.773 5.26034 2.04814 0
M  V30 4525 N 427.171 -0.0066808 1.57599 0
M  V30 4526 C 428.582 -0.550379 1.78403 0
M  V30 4527 C 428.933 -1.74339 0.900014 0
M  V30 4528 O 428.058 -2.16166 0.100713 0
M  V30 4529 C 428.653 -1.00523 3.23544 0
M  V30 4530 C 427.212 -1.49428 3.45468 0
M  V30 4531 C 426.359 -0.442444 2.73748 0
M  V30 4532 H 429.31 0.219508 1.57175 0
M  V30 4533 H 429.331 -1.87157 3.31289 0
M  V30 4534 H 428.843 -0.136735 3.87859 0
M  V30 4535 H 426.944 -2.3839 2.86358 0
M  V30 4536 H 427.057 -1.52635 4.54136 0
M  V30 4537 H 425.421 -0.902578 2.38171 0
M  V30 4538 H 426.204 0.416973 3.40758 0
M  V30 4539 N 428.649 -1.55105 -0.279332 0
M  V30 4540 C 430.06 -1.66186 -0.850832 0
M  V30 4541 C 430.411 -0.584707 -1.87285 0
M  V30 4542 O 429.536 0.274919 -2.14647 0
M  V30 4543 C 430.131 -3.01264 -1.55001 0
M  V30 4544 C 428.69 -3.14394 -2.06963 0
M  V30 4545 C 427.837 -2.61959 -0.909536 0
M  V30 4546 H 430.788 -1.58602 -0.0558235 0
M  V30 4547 H 430.809 -2.93899 -2.41669 0
M  V30 4548 H 430.321 -3.7964 -0.805931 0
M  V30 4549 H 428.422 -2.4078 -2.84352 0
M  V30 4550 H 428.535 -4.20867 -2.28928 0
M  V30 4551 H 426.899 -2.18957 -1.30116 0
M  V30 4552 H 427.682 -3.42833 -0.179062 0
M  V30 4553 N 430.127 0.543554 -1.4793 0
M  V30 4554 C 431.09 1.63156 -1.60975 0
M  V30 4555 C 432.09 1.53346 -0.483899 0
M  V30 4556 O 433.28 1.5726 -0.749339 0
M  V30 4557 C 430.412 3.02743 -1.56716 0
M  V30 4558 H 431.605 1.52934 -2.57975 0
M  V30 4559 H 429.158 0.764557 -1.36324 0
M  V30 4560 H 429.893 3.18484 -0.611418 0
M  V30 4561 H 429.678 3.11272 -2.38438 0
M  V30 4562 H 431.168 3.81871 -1.6901 0
M  V30 4563 N 431.605 1.3629 0.791371 0
M  V30 4564 C 432.515 1.32606 1.93527 0
M  V30 4565 C 433.531 0.228541 1.72493 0
M  V30 4566 O 434.707 0.460571 1.96063 0
M  V30 4567 C 431.772 1.11271 3.28359 0
M  V30 4568 C 430.833 2.3048 3.62185 0
M  V30 4569 C 430.066 2.10154 4.90583 0
M  V30 4570 O 430.289 1.07572 5.60165 0
M  V30 4571 O 429.223 2.97884 5.23019 0
M  V30 4572 H 433.049 2.28909 1.99585 0
M  V30 4573 H 430.634 1.16818 0.931344 0
M  V30 4574 H 432.516 1.01283 4.09047 0
M  V30 4575 H 431.191 0.180292 3.23198 0
M  V30 4576 H 430.098 2.46036 2.81811 0
M  V30 4577 H 431.431 3.22221 3.72068 0
M  V30 4578 N 433.083 -1.0153 1.20538 0
M  V30 4579 C 434.308 -1.79283 1.04271 0
M  V30 4580 C 434.733 -1.8372 -0.403544 0
M  V30 4581 O 434.091 -1.27321 -1.2907 0
M  V30 4582 C 434.139 -3.21535 1.63241 0
M  V30 4583 O 433.243 -4.03099 0.870908 0
M  V30 4584 H 432.584 -0.55293 0.367647 0
M  V30 4585 H 435.114 -1.27696 1.59859 0
M  V30 4586 H 435.124 -3.72243 1.6703 0
M  V30 4587 H 433.799 -3.1762 2.68497 0
M  V30 4588 H 432.376 -3.61693 0.907323 0
M  V30 4589 N 434.561 -1.01147 -1.20859 0
M  V30 4590 C 435.807 -0.698899 -1.90377 0
M  V30 4591 C 436.14 0.76904 -1.78324 0
M  V30 4592 O 435.415 1.55817 -1.16409 0
M  V30 4593 C 435.698 -1.12878 -3.41951 0
M  V30 4594 C 435.551 -2.65665 -3.62963 0
M  V30 4595 C 436.87 -0.696114 -4.3456 0
M  V30 4596 H 433.989 -0.255372 -0.691342 0
M  V30 4597 H 436.631 -1.25831 -1.42361 0
M  V30 4598 H 434.781 -0.652827 -3.82976 0
M  V30 4599 H 436.453 -3.21074 -3.31224 0
M  V30 4600 H 434.696 -3.06878 -3.06608 0
M  V30 4601 H 435.367 -2.90797 -4.69192 0
M  V30 4602 H 437.843 -1.10521 -4.01154 0
M  V30 4603 H 436.719 -1.025 -5.39245 0
M  V30 4604 H 436.98 0.402465 -4.40264 0
M  V30 4605 N 436.039 1.36541 -0.78704 0
M  V30 4606 C 437.45 1.81873 -0.421807 0
M  V30 4607 C 437.801 1.65487 1.05397 0
M  V30 4608 O 436.926 1.17448 1.81755 0
M  V30 4609 C 437.521 3.30192 -0.758841 0
M  V30 4610 C 436.08 3.73743 -0.446468 0
M  V30 4611 C 435.227 2.58844 -0.994728 0
M  V30 4612 H 438.178 1.24796 -0.98039 0
M  V30 4613 H 438.199 3.80468 -0.0490648 0
M  V30 4614 H 437.711 3.42087 -1.83299 0
M  V30 4615 H 435.812 3.6741 0.619739 0
M  V30 4616 H 435.925 4.69272 -0.965415 0
M  V30 4617 H 434.289 2.51245 -0.418087 0
M  V30 4618 H 435.072 2.73525 -2.07458 0
M  V30 4619 N 437.518 0.538854 1.48102 0
M  V30 4620 C 438.448 -0.207654 2.32575 0
M  V30 4621 C 439.429 -0.926559 1.4265 0
M  V30 4622 O 440.614 -0.91061 1.71527 0
M  V30 4623 C 437.744 -1.24957 3.24042 0
M  V30 4624 C 436.698 -0.648263 4.23062 0
M  V30 4625 C 436.024 -1.79348 5.03725 0
M  V30 4626 C 437.324 0.385897 5.20872 0
M  V30 4627 H 439.018 0.497534 2.95237 0
M  V30 4628 H 436.564 0.240715 1.41974 0
M  V30 4629 H 438.517 -1.77983 3.81969 0
M  V30 4630 H 437.241 -1.98446 2.59397 0
M  V30 4631 H 435.9 -0.139452 3.66335 0
M  V30 4632 H 435.548 -2.51696 4.35498 0
M  V30 4633 H 435.248 -1.39702 5.70751 0
M  V30 4634 H 436.772 -2.32735 5.64506 0
M  V30 4635 H 438.186 -0.057607 5.73271 0
M  V30 4636 H 436.583 0.700227 5.96001 0
M  V30 4637 H 437.653 1.28848 4.67468 0
M  V30 4638 N 438.996 -1.55193 0.274407 0
M  V30 4639 C 440.245 -1.98758 -0.343213 0
M  V30 4640 C 440.558 -1.16624 -1.5703 0
M  V30 4641 O 441.764 -1.5033 -2.26082 0
M  V30 4642 C 440.22 -3.53759 -0.661996 0
M  V30 4643 C 439.828 -4.4467 0.54524 0
M  V30 4644 C 441.572 -4.05916 -1.24228 0
M  V30 4645 C 439.479 -5.91058 0.201084 0
M  V30 4646 H 438.409 -0.742353 -0.132014 0
M  V30 4647 H 441.06 -1.79545 0.378948 0
M  V30 4648 H 439.442 -3.68772 -1.44304 0
M  V30 4649 H 440.616 -4.41426 1.32212 0
M  V30 4650 H 438.931 -4.03143 1.04232 0
M  V30 4651 H 441.528 -5.12831 -1.51357 0
M  V30 4652 H 441.871 -3.54908 -2.17592 0
M  V30 4653 H 442.404 -3.9434 -0.523542 0
M  V30 4654 H 439.143 -6.46161 1.10258 0
M  V30 4655 H 438.663 -5.97373 -0.539045 0
M  V30 4656 H 440.342 -6.46669 -0.206954 0
M  V30 4657 N 440.474 -0.00167713 -1.576 0
M  V30 4658 C 441.722 0.681471 -1.90264 0
M  V30 4659 C 442.043 1.7422 -0.875924 0
M  V30 4660 O 441.313 1.95709 0.0864412 0
M  V30 4661 H 439.893 0.254696 -0.702239 0
M  V30 4662 H 442.555 -0.0429996 -1.94853 0
M  V30 4663 H 441.651 1.15166 -2.90075 0
M  V30 4664 N 441.952 1.55251 0.271103 0
M  V30 4665 C 442.899 1.88261 1.33516 0
M  V30 4666 C 443.869 0.734296 1.48988 0
M  V30 4667 O 445.054 0.985741 1.63364 0
M  V30 4668 C 442.194 2.16168 2.69008 0
M  V30 4669 C 441.307 3.43678 2.61743 0
M  V30 4670 C 440.442 3.61276 3.89427 0
M  V30 4671 C 439.481 4.82472 3.7668 0
M  V30 4672 N 438.618 4.96717 4.96202 0
M  V30 4673 H 443.458 2.79015 1.04665 0
M  V30 4674 H 440.995 1.38137 0.505618 0
M  V30 4675 H 442.953 2.30349 3.47844 0
M  V30 4676 H 441.583 1.28646 2.96057 0
M  V30 4677 H 440.635 3.37959 1.74607 0
M  V30 4678 H 441.947 4.3265 2.48224 0
M  V30 4679 H 441.101 3.75284 4.76704 0
M  V30 4680 H 439.84 2.70492 4.05814 0
M  V30 4681 H 438.845 4.68465 2.87786 0
M  V30 4682 H 440.07 5.74692 3.61809 0
M  V30 4683 H 438.016 4.08865 5.12997 0
M  V30 4684 H 437.933 5.79738 4.85222 0
M  V30 4685 H 439.201 5.15113 5.85046 0
M  V30 4686 N 443.43 -0.535701 1.48216 0
M  V30 4687 C 444.66 -1.3148 1.59363 0
M  V30 4688 C 445.068 -1.8753 0.250844 0
M  V30 4689 O 444.411 -1.66821 -0.769174 0
M  V30 4690 C 444.473 -2.50731 2.57632 0
M  V30 4691 C 444.137 -2.15811 4.02833 0
M  V30 4692 C 445.134 -1.71822 4.90686 0
M  V30 4693 C 442.819 -2.26509 4.48329 0
M  V30 4694 C 444.813 -1.3899 6.22062 0
M  V30 4695 C 442.5 -1.93289 5.79726 0
M  V30 4696 C 443.498 -1.49599 6.66415 0
M  V30 4697 O 443.186 -1.16812 7.95368 0
M  V30 4698 H 442.918 -0.406315 0.540263 0
M  V30 4699 H 445.472 -0.653569 1.94725 0
M  V30 4700 H 443.702 -3.19817 2.1738 0
M  V30 4701 H 445.391 -3.12797 2.58675 0
M  V30 4702 H 446.157 -1.63031 4.56778 0
M  V30 4703 H 442.036 -2.59471 3.81045 0
M  V30 4704 H 445.58 -1.04816 6.89681 0
M  V30 4705 H 441.477 -2.01718 6.13172 0
M  V30 4706 H 442.245 -1.30259 8.08069 0
M  V30 4707 N 444.908 -1.36708 -0.784132 0
M  V30 4708 C 446.138 -1.34203 -1.57077 0
M  V30 4709 C 446.546 0.0774945 -1.89041 0
M  V30 4710 O 445.889 1.04628 -1.50992 0
M  V30 4711 C 445.951 -2.10351 -2.91535 0
M  V30 4712 C 445.615 -3.59405 -2.82272 0
M  V30 4713 C 446.612 -4.53545 -2.54151 0
M  V30 4714 C 444.297 -4.02362 -3.00683 0
M  V30 4715 C 446.291 -5.8862 -2.44551 0
M  V30 4716 C 443.978 -5.37526 -2.90704 0
M  V30 4717 C 444.976 -6.30468 -2.62677 0
M  V30 4718 O 444.664 -7.63149 -2.52702 0
M  V30 4719 H 444.396 -0.461791 -0.493685 0
M  V30 4720 H 446.95 -1.80475 -0.980712 0
M  V30 4721 H 445.18 -1.5875 -3.52612 0
M  V30 4722 H 446.869 -2.00636 -3.52845 0
M  V30 4723 H 447.635 -4.21669 -2.39625 0
M  V30 4724 H 443.514 -3.30389 -3.21503 0
M  V30 4725 H 447.058 -6.61133 -2.22596 0
M  V30 4726 H 442.955 -5.69008 -3.04795 0
M  V30 4727 H 443.723 -7.73331 -2.68144 0
M  V30 4728 N 446.386 1.0089 -1.21074 0
M  V30 4729 C 447.319 2.09279 -0.909806 0
M  V30 4730 C 448.297 1.61986 0.141145 0
M  V30 4731 O 449.481 1.88495 0.0130332 0
M  V30 4732 C 446.608 3.36723 -0.365374 0
M  V30 4733 C 445.654 4.02919 -1.39852 0
M  V30 4734 S 446.487 4.45835 -2.96633 0
M  V30 4735 C 447.643 5.76471 -2.43786 0
M  V30 4736 H 447.876 2.34484 -1.82769 0
M  V30 4737 H 445.409 1.14115 -1.04006 0
M  V30 4738 H 447.367 4.10459 -0.0578203 0
M  V30 4739 H 446.028 3.09577 0.531136 0
M  V30 4740 H 445.221 4.94634 -0.967117 0
M  V30 4741 H 444.823 3.35441 -1.65395 0
M  V30 4742 H 447.115 6.52027 -1.84029 0
M  V30 4743 H 448.058 6.24418 -3.33928 0
M  V30 4744 H 448.466 5.33104 -1.85636 0
M  V30 4745 N 447.864 1.01787 1.20321 0
M  V30 4746 C 448.827 0.593972 2.2137 0
M  V30 4747 C 449.827 -0.336553 1.57239 0
M  V30 4748 O 451.017 -0.125069 1.7375 0
M  V30 4749 C 448.149 -0.132433 3.40643 0
M  V30 4750 H 449.342 1.48791 2.60387 0
M  V30 4751 H 446.895 0.807803 1.33807 0
M  V30 4752 H 447.63 -1.04123 3.0713 0
M  V30 4753 H 447.415 0.53605 3.88418 0
M  V30 4754 H 448.905 -0.416314 4.1552 0
M  V30 4755 N 449.342 -1.36122 0.79427 0
M  V30 4756 C 450.57 -2.03362 0.380989 0
M  V30 4757 C 450.985 -1.59881 -1.00416 0
M  V30 4758 O 450.342 -0.790515 -1.6449 0
M  V30 4759 C 450.393 -3.58804 0.440649 0
M  V30 4760 O 450.114 -4.007 1.77118 0
M  V30 4761 C 451.615 -4.43296 0.0186117 0
M  V30 4762 H 448.835 -0.652526 0.156367 0
M  V30 4763 H 451.379 -1.73998 1.07447 0
M  V30 4764 H 449.534 -3.8686 -0.204458 0
M  V30 4765 H 449.948 -4.95309 1.72538 0
M  V30 4766 H 451.422 -5.51887 0.111488 0
M  V30 4767 H 451.899 -4.2684 -1.03461 0
M  V30 4768 H 452.505 -4.20512 0.636395 0
M  V30 4769 N 450.82 -0.546701 -1.47814 0
M  V30 4770 C 451.753 0.254472 -2.26777 0
M  V30 4771 C 452.731 0.929809 -1.33392 0
M  V30 4772 O 453.915 0.950889 -1.62759 0
M  V30 4773 C 451.042 1.36171 -3.10121 0
M  V30 4774 C 450.088 0.796038 -4.19005 0
M  V30 4775 S 450.921 -0.349191 -5.3436 0
M  V30 4776 C 452.077 0.760122 -6.21267 0
M  V30 4777 H 452.31 -0.415612 -2.94381 0
M  V30 4778 H 449.843 -0.332809 -1.5077 0
M  V30 4779 H 451.801 1.99588 -3.58713 0
M  V30 4780 H 450.462 2.00359 -2.41899 0
M  V30 4781 H 449.655 1.62719 -4.7701 0
M  V30 4782 H 449.257 0.238246 -3.7324 0
M  V30 4783 H 451.549 1.65479 -6.5698 0
M  V30 4784 H 452.492 0.217673 -7.07765 0
M  V30 4785 H 452.9 1.04806 -5.54685 0
M  V30 4786 N 452.299 1.55045 -0.282633 0
M  V30 4787 C 453.527 2.04168 0.33512 0
M  V30 4788 C 453.942 1.16071 1.48906 0
M  V30 4789 O 453.299 0.182391 1.81586 0
M  V30 4790 C 453.35 3.52332 0.808957 0
M  V30 4791 O 453.071 4.37078 -0.299038 0
M  V30 4792 C 454.572 4.17375 1.49375 0
M  V30 4793 H 451.792 0.666744 0.0754543 0
M  V30 4794 H 454.336 2.00205 -0.416918 0
M  V30 4795 H 452.491 3.56715 1.51106 0
M  V30 4796 H 452.905 5.24458 0.0665514 0
M  V30 4797 H 454.379 5.22627 1.77664 0
M  V30 4798 H 454.856 3.65999 2.42778 0
M  V30 4799 H 455.462 4.17016 0.835305 0
M  V30 4800 N 453.777 0.010035 1.57597 0
M  V30 4801 C 454.71 -1.01234 2.04516 0
M  V30 4802 C 455.688 -1.32886 0.937024 0
M  V30 4803 O 456.872 -1.44879 1.20592 0
M  V30 4804 C 453.999 -2.33738 2.45121 0
M  V30 4805 C 453.045 -2.17679 3.66767 0
M  V30 4806 S 453.878 -1.49343 5.14254 0
M  V30 4807 C 455.034 -2.83256 5.58137 0
M  V30 4808 H 455.267 -0.612866 2.90914 0
M  V30 4809 H 452.8 -0.201124 1.53084 0
M  V30 4810 H 454.758 -3.09922 2.69182 0
M  V30 4811 H 453.419 -2.70823 1.59103 0
M  V30 4812 H 452.612 -3.1559 3.92962 0
M  V30 4813 H 452.214 -1.4964 3.42759 0
M  V30 4814 H 454.506 -3.79538 5.6121 0
M  V30 4815 H 455.449 -2.61749 6.57946 0
M  V30 4816 H 455.857 -2.87627 4.85727 0
M  V30 4817 N 455.255 -1.55392 -0.262866 0
M  V30 4818 C 456.501 -1.76737 -0.99458 0
M  V30 4819 C 456.834 -0.572453 -1.85571 0
M  V30 4820 O 456.109 0.429732 -1.89693 0
M  V30 4821 C 456.392 -3.07824 -1.8686 0
M  V30 4822 C 456.245 -4.3769 -1.03672 0
M  V30 4823 C 457.564 -3.35021 -2.85393 0
M  V30 4824 H 454.683 -0.643005 -0.360157 0
M  V30 4825 H 457.325 -1.88126 -0.266216 0
M  V30 4826 H 455.475 -2.98245 -2.48962 0
M  V30 4827 H 457.147 -4.59238 -0.43563 0
M  V30 4828 H 455.39 -4.32461 -0.340513 0
M  V30 4829 H 456.061 -5.25759 -1.6817 0
M  V30 4830 H 458.537 -3.44458 -2.33426 0
M  V30 4831 H 457.413 -4.27989 -3.43681 0
M  V30 4832 H 457.674 -2.55153 -3.61039 0
M  V30 4833 N 456.733 0.527833 -1.48498 0
M  V30 4834 C 457.961 1.30823 -1.6029 0
M  V30 4835 C 458.376 1.86945 -0.263974 0
M  V30 4836 O 457.733 1.6651 0.747034 0
M  V30 4837 C 457.784 2.45756 -2.65116 0
M  V30 4838 O 457.505 1.91946 -3.93813 0
M  V30 4839 C 459.006 3.37543 -2.87367 0
M  V30 4840 H 456.226 0.397763 -0.540394 0
M  V30 4841 H 458.77 0.636529 -1.94341 0
M  V30 4842 H 456.925 3.08806 -2.33917 0
M  V30 4843 H 457.339 2.67195 -4.51339 0
M  V30 4844 H 458.813 4.14532 -3.6451 0
M  V30 4845 H 459.29 3.92905 -1.9627 0
M  V30 4846 H 459.896 2.80283 -3.19878 0
M  V30 4847 N 458.211 1.37122 0.776871 0
M  V30 4848 C 459.458 1.32047 1.53524 0
M  V30 4849 C 459.786 -0.0965631 1.9426 0
M  V30 4850 O 459.041 -1.06866 1.63945 0
M  V30 4851 C 459.34 2.20068 2.81611 0
M  V30 4852 C 459.006 3.68423 2.59953 0
M  V30 4853 C 457.668 4.08854 2.53755 0
M  V30 4854 C 460.02 4.62431 2.40431 0
M  V30 4855 C 457.348 5.41417 2.26018 0
M  V30 4856 C 459.7 5.95225 2.14219 0
M  V30 4857 C 458.364 6.34767 2.06462 0
M  V30 4858 H 457.634 0.483196 0.561785 0
M  V30 4859 H 460.281 1.69284 0.895268 0
M  V30 4860 H 458.586 1.75809 3.50141 0
M  V30 4861 H 460.283 2.13458 3.39465 0
M  V30 4862 H 456.873 3.36354 2.65638 0
M  V30 4863 H 461.057 4.32057 2.44213 0
M  V30 4864 H 456.313 5.71022 2.18504 0
M  V30 4865 H 460.487 6.67626 1.98112 0
M  V30 4866 H 458.114 7.37413 1.84733 0
M  V30 4867 N 459.689 -1.00246 1.21608 0
M  V30 4868 C 460.914 -1.78167 1.06167 0
M  V30 4869 C 461.339 -1.84138 -0.384035 0
M  V30 4870 O 460.697 -1.28683 -1.27712 0
M  V30 4871 C 460.745 -3.19786 1.66642 0
M  V30 4872 O 459.849 -4.02153 0.913613 0
M  V30 4873 H 459.19 -0.549 0.37349 0
M  V30 4874 H 461.72 -1.25994 1.61204 0
M  V30 4875 H 461.73 -3.70451 1.70969 0
M  V30 4876 H 460.405 -3.14754 2.7185 0
M  V30 4877 H 458.982 -3.60711 0.945635 0
M  V30 4878 N 461.167 -1.02423 -1.1978 0
M  V30 4879 C 462.395 -0.737456 -1.93311 0
M  V30 4880 C 462.81 0.703023 -1.75223 0
M  V30 4881 O 462.167 1.47761 -1.07112 0
M  V30 4882 C 462.218 -1.0733 -3.45199 0
M  V30 4883 O 461.939 -2.4572 -3.62702 0
M  V30 4884 C 463.44 -0.80866 -4.35862 0
M  V30 4885 H 460.66 -0.2702 -0.614193 0
M  V30 4886 H 463.204 -1.36747 -1.52054 0
M  V30 4887 H 461.359 -0.488545 -3.84307 0
M  V30 4888 H 461.773 -2.58081 -4.56612 0
M  V30 4889 H 463.247 -1.09365 -5.41057 0
M  V30 4890 H 463.724 0.257025 -4.38447 0
M  V30 4891 H 464.33 -1.37592 -4.02428 0
M  V30 4892 N 462.645 1.35699 -0.801477 0
M  V30 4893 C 463.608 2.28199 -0.213994 0
M  V30 4894 C 464.608 1.49359 0.595691 0
M  V30 4895 O 465.798 1.69186 0.414921 0
M  V30 4896 C 462.93 3.33587 0.702297 0
M  V30 4897 H 464.123 2.81666 -1.02976 0
M  V30 4898 H 461.676 1.45467 -0.571759 0
M  V30 4899 H 462.411 2.85297 1.54195 0
M  V30 4900 H 462.196 3.91906 0.123484 0
M  V30 4901 H 463.686 4.02638 1.10783 0
M  V30 4902 N 464.123 0.554532 1.47522 0
M  V30 4903 C 465.053 -0.182974 2.32782 0
M  V30 4904 C 466.034 -0.911377 1.43624 0
M  V30 4905 O 467.219 -0.892366 1.72483 0
M  V30 4906 C 464.349 -1.21513 3.25349 0
M  V30 4907 C 463.303 -0.603355 4.23726 0
M  V30 4908 C 462.629 -1.73995 5.05598 0
M  V30 4909 C 463.929 0.441121 5.20434 0
M  V30 4910 H 465.623 0.52882 2.94693 0
M  V30 4911 H 463.169 0.255759 1.41711 0
M  V30 4912 H 465.122 -1.73922 3.83835 0
M  V30 4913 H 463.846 -1.95683 2.61487 0
M  V30 4914 H 462.505 -0.10059 3.66462 0
M  V30 4915 H 462.153 -2.47063 4.38143 0
M  V30 4916 H 461.853 -1.3364 5.72201 0
M  V30 4917 H 463.377 -2.26735 5.66942 0
M  V30 4918 H 464.791 0.00319931 5.733 0
M  V30 4919 H 463.188 0.763402 5.95224 0
M  V30 4920 H 464.258 1.33799 4.66075 0
M  V30 4921 N 465.601 -1.54893 0.290851 0
M  V30 4922 C 466.829 -2.04343 -0.324288 0
M  V30 4923 C 467.244 -1.16859 -1.48289 0
M  V30 4924 O 466.601 -0.192018 -1.81487 0
M  V30 4925 C 466.652 -3.52756 -0.79026 0
M  V30 4926 O 466.373 -4.36913 0.322213 0
M  V30 4927 C 467.874 -4.18161 -1.4716 0
M  V30 4928 H 465.094 -0.667135 -0.0719173 0
M  V30 4929 H 467.638 -1.99981 0.427529 0
M  V30 4930 H 465.793 -3.57511 -1.49213 0
M  V30 4931 H 466.207 -5.24486 -0.0387372 0
M  V30 4932 H 467.681 -5.23562 -1.7489 0
M  V30 4933 H 468.158 -3.67282 -2.40834 0
M  V30 4934 H 468.764 -4.17454 -0.813178 0
M  V30 4935 N 467.08 -0.0183926 -1.57589 0
M  V30 4936 C 468.329 0.66185 -1.90532 0
M  V30 4937 C 468.642 1.73904 -0.895366 0
M  V30 4938 O 469.848 2.47518 -1.11566 0
M  V30 4939 C 468.304 1.22844 -3.38286 0
M  V30 4940 C 467.912 0.185103 -4.47617 0
M  V30 4941 C 469.656 1.88581 -3.80312 0
M  V30 4942 C 467.563 0.762723 -5.86461 0
M  V30 4943 H 466.493 0.250972 -0.711006 0
M  V30 4944 H 469.144 -0.0819435 -1.83317 0
M  V30 4945 H 467.526 2.0235 -3.40398 0
M  V30 4946 H 468.7 -0.58671 -4.5705 0
M  V30 4947 H 467.015 -0.372889 -4.14727 0
M  V30 4948 H 469.612 2.32735 -4.81392 0
M  V30 4949 H 469.955 2.72408 -3.14801 0
M  V30 4950 H 470.488 1.15782 -3.80578 0
M  V30 4951 H 467.227 -0.0371713 -6.55489 0
M  V30 4952 H 466.747 1.50327 -5.80656 0
M  V30 4953 H 468.426 1.25576 -6.34697 0
M  V30 4954 N 468.558 1.5553 0.254621 0
M  V30 4955 C 469.488 1.9268 1.31897 0
M  V30 4956 C 470.469 0.790797 1.506 0
M  V30 4957 O 471.654 1.05045 1.63337 0
M  V30 4958 C 468.784 2.21477 2.67517 0
M  V30 4959 C 467.738 3.37256 2.63519 0
M  V30 4960 C 467.064 3.51576 4.02862 0
M  V30 4961 C 468.364 4.73157 2.21179 0
M  V30 4962 H 470.058 2.81832 1.01051 0
M  V30 4963 H 467.604 1.35599 0.484662 0
M  V30 4964 H 469.557 2.46055 3.42104 0
M  V30 4965 H 468.281 1.29144 2.99982 0
M  V30 4966 H 466.94 3.12675 1.9139 0
M  V30 4967 H 466.588 2.56676 4.32581 0
M  V30 4968 H 466.288 4.2943 4.01078 0
M  V30 4969 H 467.812 3.78467 4.79161 0
M  V30 4970 H 469.226 4.97158 2.85494 0
M  V30 4971 H 467.623 5.54058 2.30521 0
M  V30 4972 H 468.693 4.70739 1.16332 0
M  V30 4973 N 470.036 -0.519951 1.48776 0
M  V30 4974 C 471.285 -1.27175 1.56555 0
M  V30 4975 C 471.598 -1.9401 0.248869 0
M  V30 4976 O 472.804 -2.70725 0.205004 0
M  V30 4977 C 471.26 -2.30811 2.76142 0
M  V30 4978 C 470.868 -1.7 4.14493 0
M  V30 4979 C 472.612 -3.06937 2.9324 0
M  V30 4980 C 470.519 -2.71635 5.25327 0
M  V30 4981 H 469.449 -0.478329 0.582853 0
M  V30 4982 H 472.1 -0.547916 1.75129 0
M  V30 4983 H 470.482 -3.06274 2.51023 0
M  V30 4984 H 471.656 -1.00658 4.49672 0
M  V30 4985 H 469.971 -1.06331 4.02595 0
M  V30 4986 H 472.568 -3.82905 3.73213 0
M  V30 4987 H 472.911 -3.63409 2.03075 0
M  V30 4988 H 473.444 -2.38589 3.18308 0
M  V30 4989 H 470.183 -2.1997 6.1749 0
M  V30 4990 H 469.703 -3.39275 4.94624 0
M  V30 4991 H 471.382 -3.34429 5.53865 0
M  V30 4992 N 471.514 -1.37532 -0.769588 0
M  V30 4993 C 472.447 -1.27839 -1.8903 0
M  V30 4994 C 473.425 -0.158504 -1.61826 0
M  V30 4995 O 474.609 -0.333086 -1.85534 0
M  V30 4996 C 471.736 -0.977072 -3.24301 0
M  V30 4997 C 470.782 -2.11414 -3.70414 0
M  V30 4998 S 471.615 -3.73409 -3.83831 0
M  V30 4999 C 472.771 -3.45432 -5.21946 0
M  V30 5000 H 473.004 -2.22694 -1.96963 0
M  V30 5001 H 470.537 -1.2318 -0.930914 0
M  V30 5002 H 472.495 -0.810049 -4.02428 0
M  V30 5003 H 471.156 -0.0459701 -3.14066 0
M  V30 5004 H 470.349 -1.85837 -4.68488 0
M  V30 5005 H 469.951 -2.24141 -2.99394 0
M  V30 5006 H 472.243 -3.00554 -6.07185 0
M  V30 5007 H 473.186 -4.42841 -5.52537 0
M  V30 5008 H 473.594 -2.80311 -4.89986 0
M  V30 5009 N 472.992 0.995999 -1.22138 0
M  V30 5010 C 473.94 2.10673 -0.985876 0
M  V30 5011 C 474.934 1.69255 0.0699553 0
M  V30 5012 O 476.14 1.79812 -0.0822176 0
M  V30 5013 H 472.515 0.688865 -0.30161 0
M  V30 5014 H 474.486 2.27711 -1.92848 0
M  V30 5015 C 473.235 3.42881 -0.576909 0
M  V30 5016 H 472.558 3.75191 -1.38101 0
M  V30 5017 H 473.998 4.21589 -0.451518 0
M  V30 5018 C 472.457 3.29265 0.713196 0
M  V30 5019 O 472.987 3.60777 1.76643 0
M  V30 5020 N 471.193 2.82456 0.683162 0
M  V30 5021 H 470.74 2.5701 -0.174242 0
M  V30 5022 H 470.698 2.73727 1.54663 0
M  V30 5023 N 474.47 1.03057 1.19235 0
M  V30 5024 C 475.4 0.633497 2.24742 0
M  V30 5025 C 476.381 -0.358335 1.66283 0
M  V30 5026 O 477.566 -0.240676 1.92703 0
M  V30 5027 C 474.696 -0.0147648 3.47297 0
M  V30 5028 C 473.65 0.899527 4.18441 0
M  V30 5029 C 472.976 0.116281 5.34574 0
M  V30 5030 C 474.276 2.21404 4.73051 0
M  V30 5031 H 475.97 1.5155 2.58211 0
M  V30 5032 H 473.516 0.73014 1.24117 0
M  V30 5033 H 475.469 -0.304202 4.20301 0
M  V30 5034 H 474.193 -0.931577 3.13032 0
M  V30 5035 H 472.852 1.17319 3.47321 0
M  V30 5036 H 472.5 -0.802619 4.96555 0
M  V30 5037 H 472.2 0.725293 5.83107 0
M  V30 5038 H 473.724 -0.166376 6.10373 0
M  V30 5039 H 475.138 1.98601 5.37802 0
M  V30 5040 H 473.535 2.77512 5.32078 0
M  V30 5041 H 474.605 2.86752 3.91026 0
M  V30 5042 N 475.948 -1.35272 0.808662 0
M  V30 5043 C 476.898 -2.27181 0.193124 0
M  V30 5044 C 477.882 -1.47871 -0.634265 0
M  V30 5045 O 479.074 -1.70048 -0.491182 0
M  V30 5046 C 476.203 -3.36979 -0.655751 0
M  V30 5047 C 475.289 -4.23712 0.181481 0
M  V30 5048 N 475.68 -4.90225 1.24551 0
M  V30 5049 C 473.978 -4.45985 -0.0365493 0
M  V30 5050 C 474.679 -5.54537 1.75682 0
M  V30 5051 N 473.655 -5.33107 1.06294 0
M  V30 5052 H 477.457 -2.76101 1.00724 0
M  V30 5053 H 474.971 -1.48823 0.650029 0
M  V30 5054 H 476.968 -4.01774 -1.11279 0
M  V30 5055 H 475.628 -2.89611 -1.46819 0
M  V30 5056 H 476.639 -4.91641 1.62818 0
M  V30 5057 H 473.316 -4.09409 -0.817964 0
M  V30 5058 H 474.706 -6.17597 2.64621 0
M  V30 5059 N 477.426 -0.562348 -1.47226 0
M  V30 5060 C 478.656 -0.0451619 -2.06551 0
M  V30 5061 C 479.064 1.25626 -1.41473 0
M  V30 5062 O 478.407 1.76563 -0.507061 0
M  V30 5063 C 478.469 0.216068 -3.5885 0
M  V30 5064 C 478.133 -0.996691 -4.45999 0
M  V30 5065 C 479.13 -1.90358 -4.83797 0
M  V30 5066 C 476.815 -1.21281 -4.87438 0
M  V30 5067 C 478.809 -3.01023 -5.6184 0
M  V30 5068 C 476.496 -2.32255 -5.65244 0
M  V30 5069 C 477.494 -3.21956 -6.02356 0
M  V30 5070 O 477.182 -4.31005 -6.78594 0
M  V30 5071 H 476.914 -0.0451646 -0.67449 0
M  V30 5072 H 479.468 -0.776842 -1.90143 0
M  V30 5073 H 477.698 1.00212 -3.7349 0
M  V30 5074 H 479.387 0.679264 -4.00176 0
M  V30 5075 H 480.153 -1.74868 -4.52378 0
M  V30 5076 H 476.032 -0.523767 -4.58015 0
M  V30 5077 H 479.576 -3.71064 -5.90726 0
M  V30 5078 H 475.473 -2.47715 -5.96077 0
M  V30 5079 H 476.241 -4.29118 -6.96994 0
M  V30 5080 N 478.904 1.54736 -0.299062 0
M  V30 5081 C 480.144 2.0201 0.31168 0
M  V30 5082 C 480.508 1.18281 1.5124 0
M  V30 5083 O 481.709 1.55243 2.19438 0
M  V30 5084 C 479.98 3.5123 0.661227 0
M  V30 5085 S 481.539 4.20467 1.2551 0
M  V30 5086 H 478.357 0.704523 0.0957517 0
M  V30 5087 H 480.959 1.90791 -0.426482 0
M  V30 5088 H 479.663 4.09804 -0.221171 0
M  V30 5089 H 479.194 3.66481 1.43023 0
M  V30 5090 H 481.209 4.26083 2.54298 0
M  V30 5091 N 480.382 0.0267497 1.57577 0
M  V30 5092 C 481.63 -0.651116 1.91324 0
M  V30 5093 C 481.951 -1.72804 0.90353 0
M  V30 5094 O 481.221 -1.95822 -0.0552946 0
M  V30 5095 H 479.801 -0.243491 0.706202 0
M  V30 5096 H 482.463 0.0739935 1.94759 0
M  V30 5097 H 481.559 -1.10536 2.9187 0
M  V30 5098 N 481.861 -1.55662 -0.24637 0
M  V30 5099 C 483.272 -1.67953 -0.81539 0
M  V30 5100 C 483.623 -0.624302 -1.86002 0
M  V30 5101 O 482.748 0.229328 -2.15181 0
M  V30 5102 C 483.343 -3.04484 -1.48576 0
M  V30 5103 C 481.902 -3.18713 -2.00248 0
M  V30 5104 C 481.049 -2.6383 -0.853766 0
M  V30 5105 H 484 -1.58685 -0.0221692 0
M  V30 5106 H 484.021 -2.98959 -2.3538 0
M  V30 5107 H 483.533 -3.81264 -0.725222 0
M  V30 5108 H 481.634 -2.46757 -2.79181 0
M  V30 5109 H 481.747 -4.25628 -2.1995 0
M  V30 5110 H 480.111 -2.21667 -1.25442 0
M  V30 5111 H 480.894 -3.43135 -0.106302 0
M  V30 5112 N 483.339 0.512053 -1.4905 0
M  V30 5113 C 484.564 1.2959 -1.6193 0
M  V30 5114 C 484.989 1.85906 -0.286454 0
M  V30 5115 O 484.347 1.65312 0.744426 0
M  V30 5116 C 484.395 2.40987 -2.68249 0
M  V30 5117 O 483.499 3.44531 -2.26654 0
M  V30 5118 H 482.84 0.383053 -0.542371 0
M  V30 5119 H 485.37 0.614231 -1.95162 0
M  V30 5120 H 485.38 2.86913 -2.90078 0
M  V30 5121 H 484.055 1.99361 -3.65004 0
M  V30 5122 H 482.632 3.046 -2.15112 0
M  V30 5123 N 484.817 1.37938 0.762283 0
M  V30 5124 C 486.063 1.33866 1.52341 0
M  V30 5125 C 486.396 -0.0738961 1.94059 0
M  V30 5126 O 485.671 -1.03326 1.64785 0
M  V30 5127 C 485.954 2.28644 2.78197 0
M  V30 5128 C 485.807 3.78722 2.42672 0
M  V30 5129 C 487.126 2.21702 3.80179 0
M  V30 5130 H 484.245 0.487593 0.55265 0
M  V30 5131 H 486.887 1.68717 0.873767 0
M  V30 5132 H 485.037 1.99055 3.33631 0
M  V30 5133 H 486.709 4.18948 1.93081 0
M  V30 5134 H 484.952 3.96827 1.75244 0
M  V30 5135 H 485.623 4.40486 3.3268 0
M  V30 5136 H 488.099 2.47805 3.34263 0
M  V30 5137 H 486.975 2.90143 4.65949 0
M  V30 5138 H 487.236 1.21301 4.25133 0
M  V30 5139 N 486.295 -0.989507 1.22664 0
M  V30 5140 C 487.711 -1.25395 0.987331 0
M  V30 5141 C 487.911 -1.9899 -0.317056 0
M  V30 5142 O 486.967 -2.30141 -1.03882 0
M  V30 5143 C 488.28 -2.06242 2.18826 0
M  V30 5144 C 489.828 -2.19413 2.23219 0
M  V30 5145 C 490.303 -3.03648 3.42873 0
M  V30 5146 N 491.794 -3.11234 3.43056 0
M  V30 5147 C 492.529 -3.7671 4.32293 0
M  V30 5148 N 492.025 -4.44085 5.31752 0
M  V30 5149 N 493.818 -3.73505 4.2006 0
M  V30 5150 H 485.969 -0.496212 2.06522 0
M  V30 5151 H 488.232 -0.281784 0.905153 0
M  V30 5152 H 487.938 -1.59531 3.13437 0
M  V30 5153 H 487.812 -3.06996 2.19165 0
M  V30 5154 H 490.199 -2.65336 1.29154 0
M  V30 5155 H 490.28 -1.18078 2.26917 0
M  V30 5156 H 489.924 -2.58424 4.37241 0
M  V30 5157 H 489.854 -4.05132 3.36416 0
M  V30 5158 H 492.345 -2.63287 2.71088 0
M  V30 5159 H 492.658 -4.91797 5.96117 0
M  V30 5160 H 491.003 -4.42822 5.35662 0
M  V30 5161 H 494.194 -3.20033 3.41609 0
M  V30 5162 H 494.367 -4.24253 4.8981 0
M  V30 5163 N 487.773 -1.03688 -1.18687 0
M  V30 5164 C 489.184 -0.766488 -1.70241 0
M  V30 5165 C 489.535 0.713052 -1.82784 0
M  V30 5166 O 488.66 1.55529 -1.50465 0
M  V30 5167 C 489.255 -1.38475 -3.09209 0
M  V30 5168 C 487.814 -1.16276 -3.5799 0
M  V30 5169 C 486.961 -1.4778 -2.34641 0
M  V30 5170 H 489.912 -1.20378 -1.03415 0
M  V30 5171 H 489.933 -0.785939 -3.72295 0
M  V30 5172 H 489.445 -2.46157 -3.00048 0
M  V30 5173 H 487.546 -0.104508 -3.72453 0
M  V30 5174 H 487.659 -1.8571 -4.41643 0
M  V30 5175 H 486.023 -0.897366 -2.38368 0
M  V30 5176 H 486.806 -2.56562 -2.28102 0
M  V30 5177 N 489.251 1.34841 -0.815825 0
M  V30 5178 C 490.497 1.98793 -0.401129 0
M  V30 5179 C 490.83 1.64548 1.03139 0
M  V30 5180 O 490.105 0.913487 1.71714 0
M  V30 5181 C 490.388 3.55143 -0.595409 0
M  V30 5182 C 490.241 3.99155 -2.07352 0
M  V30 5183 C 491.56 4.40092 -0.0268823 0
M  V30 5184 H 488.679 0.722146 -0.14722 0
M  V30 5185 H 491.321 1.59847 -1.02707 0
M  V30 5186 H 489.471 3.8845 -0.0625779 0
M  V30 5187 H 491.143 3.76216 -2.66945 0
M  V30 5188 H 489.386 3.49726 -2.56659 0
M  V30 5189 H 490.057 5.07971 -2.1603 0
M  V30 5190 H 492.533 4.13298 -0.482042 0
M  V30 5191 H 491.409 5.48562 -0.19267 0
M  V30 5192 H 491.67 4.29016 1.06759 0
M  V30 5193 N 490.729 0.570148 1.46925 0
M  V30 5194 C 492.14 0.1402 1.86173 0
M  V30 5195 C 492.491 -1.29347 1.47526 0
M  V30 5196 O 491.616 -1.97508 0.884292 0
M  V30 5197 C 492.211 0.247661 3.37894 0
M  V30 5198 C 490.77 -0.127332 3.76185 0
M  V30 5199 C 489.917 0.589349 2.70965 0
M  V30 5200 H 492.868 0.779117 1.38259 0
M  V30 5201 H 492.889 -0.530341 3.76786 0
M  V30 5202 H 492.401 1.29121 3.65991 0
M  V30 5203 H 490.502 -1.17149 3.53704 0
M  V30 5204 H 490.615 0.240238 4.78497 0
M  V30 5205 H 488.979 0.0309824 2.54681 0
M  V30 5206 H 489.762 1.6343 3.01903 0
M  V30 5207 N 492.207 -1.54576 0.307264 0
M  V30 5208 C 493.17 -2.22423 -0.553224 0
M  V30 5209 C 494.17 -1.21231 -1.05639 0
M  V30 5210 O 495.36 -1.45923 -0.951419 0
M  V30 5211 C 492.492 -2.91552 -1.76664 0
M  V30 5212 H 493.685 -2.99874 0.0396484 0
M  V30 5213 H 491.238 -1.56192 0.0581629 0
M  V30 5214 H 491.973 -2.18196 -2.39918 0
M  V30 5215 H 491.758 -3.65738 -1.41343 0
M  V30 5216 H 493.248 -3.43292 -2.37783 0
M  V30 5217 N 493.685 -0.035106 -1.57561 0
M  V30 5218 C 494.931 0.637362 -1.93156 0
M  V30 5219 C 495.286 1.69391 -0.912392 0
M  V30 5220 O 494.579 1.91469 0.070735 0
M  V30 5221 C 494.773 1.29149 -3.3325 0
M  V30 5222 C 494.602 0.29983 -4.48699 0
M  V30 5223 C 493.372 -0.102454 -5.05196 0
M  V30 5224 C 495.57 -0.448297 -5.12342 0
M  V30 5225 N 493.552 -1.08866 -6.0417 0
M  V30 5226 C 494.923 -1.28807 -6.06472 0
M  V30 5227 C 496.978 -0.508351 -4.95298 0
M  V30 5228 C 495.681 -2.18248 -6.85391 0
M  V30 5229 C 497.707 -1.39013 -5.7483 0
M  V30 5230 C 497.069 -2.21766 -6.6858 0
M  V30 5231 H 493.168 0.205358 -0.754554 0
M  V30 5232 H 495.752 -0.103682 -1.94424 0
M  V30 5233 H 493.923 2.00264 -3.3279 0
M  V30 5234 H 495.655 1.92147 -3.56177 0
M  V30 5235 H 492.41 0.273223 -4.72811 0
M  V30 5236 H 492.834 -1.57817 -6.58348 0
M  V30 5237 H 497.476 0.117197 -4.22638 0
M  V30 5238 H 495.194 -2.81855 -7.57353 0
M  V30 5239 H 498.78 -1.44096 -5.63673 0
M  V30 5240 H 497.66 -2.88892 -7.29048 0
M  V30 5241 N 495.163 1.55791 0.238111 0
M  V30 5242 C 496.126 1.90239 1.27835 0
M  V30 5243 C 497.126 0.779552 1.4064 0
M  V30 5244 O 498.316 1.04747 1.3919 0
M  V30 5245 C 495.448 2.13859 2.65475 0
M  V30 5246 H 496.641 2.83262 0.985034 0
M  V30 5247 H 494.194 1.48818 0.477799 0
M  V30 5248 H 494.929 1.23334 2.99932 0
M  V30 5249 H 494.714 2.95643 2.57561 0
M  V30 5250 H 496.204 2.41664 3.40571 0
M  V30 5251 N 496.642 -0.504142 1.49319 0
M  V30 5252 C 498.058 -0.835039 1.36012 0
M  V30 5253 C 498.258 -1.97674 0.390808 0
M  V30 5254 O 497.314 -2.51867 -0.178655 0
M  V30 5255 C 498.627 -1.17821 2.76656 0
M  V30 5256 C 500.175 -1.2866 2.85334 0
M  V30 5257 C 500.65 -1.66307 4.26739 0
M  V30 5258 N 502.141 -1.73362 4.29534 0
M  V30 5259 C 502.876 -2.0393 5.35911 0
M  V30 5260 N 502.372 -2.32744 6.52535 0
M  V30 5261 N 504.165 -2.05155 5.23324 0
M  V30 5262 H 496.316 0.248764 2.10938 0
M  V30 5263 H 498.579 0.0486962 0.946748 0
M  V30 5264 H 498.285 -0.412682 3.4927 0
M  V30 5265 H 498.159 -2.12239 3.11825 0
M  V30 5266 H 500.546 -2.04285 2.1296 0
M  V30 5267 H 500.627 -0.323004 2.53752 0
M  V30 5268 H 500.271 -0.91234 4.99639 0
M  V30 5269 H 500.201 -2.63761 4.55782 0
M  V30 5270 H 502.692 -1.53268 3.45424 0
M  V30 5271 H 503.005 -2.55248 7.2943 0
M  V30 5272 H 501.35 -2.30207 6.55767 0
M  V30 5273 H 504.541 -1.82119 4.3122 0
M  V30 5274 H 504.714 -2.28644 6.06322 0
M  V30 5275 N 498.12 -1.38341 -0.754957 0
M  V30 5276 C 499.083 -1.35262 -1.85032 0
M  V30 5277 C 500.083 -0.253393 -1.58791 0
M  V30 5278 O 501.273 -0.510205 -1.66561 0
M  V30 5279 C 498.405 -1.10544 -3.22479 0
M  V30 5280 H 499.598 -2.32712 -1.8917 0
M  V30 5281 H 497.151 -1.23614 -0.956515 0
M  V30 5282 H 497.886 -0.136952 -3.24011 0
M  V30 5283 H 497.671 -1.90127 -3.4292 0
M  V30 5284 H 499.161 -1.11082 -4.02555 0
M  V30 5285 N 499.598 0.982988 -1.23187 0
M  V30 5286 C 500.528 2.09301 -1.03515 0
M  V30 5287 C 501.509 1.70035 0.0471136 0
M  V30 5288 O 502.694 1.93847 -0.117029 0
M  V30 5289 C 499.824 3.4167 -0.622791 0
M  V30 5290 C 498.778 3.94828 -1.65211 0
M  V30 5291 C 498.104 5.23362 -1.09527 0
M  V30 5292 C 499.404 4.2439 -3.04451 0
M  V30 5293 H 501.098 2.26016 -1.96359 0
M  V30 5294 H 498.644 1.08611 -0.945501 0
M  V30 5295 H 500.597 4.18746 -0.472233 0
M  V30 5296 H 499.321 3.24811 0.341329 0
M  V30 5297 H 497.98 3.19895 -1.79061 0
M  V30 5298 H 497.628 5.02852 -0.122211 0
M  V30 5299 H 497.328 5.59895 -1.783 0
M  V30 5300 H 498.852 6.03062 -0.956511 0
M  V30 5301 H 500.266 4.92225 -2.93917 0
M  V30 5302 H 498.663 4.72118 -3.70438 0
M  V30 5303 H 499.733 3.31765 -3.53638 0
M  V30 5304 N 501.076 1.04316 1.18135 0
M  V30 5305 C 502.006 0.657299 2.24058 0
M  V30 5306 C 502.987 -0.340678 1.66654 0
M  V30 5307 O 504.172 -0.220223 1.92947 0
M  V30 5308 C 501.302 0.0220715 3.47293 0
M  V30 5309 C 500.256 0.943857 4.17463 0
M  V30 5310 C 499.582 0.172973 5.3442 0
M  V30 5311 C 500.882 2.26409 4.70677 0
M  V30 5312 H 502.576 1.5428 2.56589 0
M  V30 5313 H 500.122 0.743263 1.23335 0
M  V30 5314 H 502.075 -0.259607 4.206 0
M  V30 5315 H 500.799 -0.898323 3.14003 0
M  V30 5316 H 499.458 1.20996 3.46057 0
M  V30 5317 H 499.106 -0.749907 4.97379 0
M  V30 5318 H 498.806 0.787098 5.82304 0
M  V30 5319 H 500.33 -0.101628 6.10515 0
M  V30 5320 H 501.744 2.04294 5.35665 0
M  V30 5321 H 500.141 2.8314 5.29105 0
M  V30 5322 H 501.211 2.90883 3.87962 0
M  V30 5323 N 502.554 -1.34406 0.822964 0
M  V30 5324 C 503.484 -2.32052 0.259608 0
M  V30 5325 C 504.465 -1.58243 -0.623961 0
M  V30 5326 O 505.65 -1.86224 -0.55083 0
M  V30 5327 C 502.78 -3.42434 -0.579314 0
M  V30 5328 C 501.734 -4.27499 0.20712 0
M  V30 5329 C 501.06 -5.29349 -0.754547 0
M  V30 5330 C 502.36 -5.02758 1.41533 0
M  V30 5331 H 504.054 -2.79418 1.07545 0
M  V30 5332 H 501.6 -1.34338 0.518593 0
M  V30 5333 H 503.553 -4.0976 -0.983612 0
M  V30 5334 H 502.277 -2.93717 -1.4282 0
M  V30 5335 H 500.936 -3.61776 0.592787 0
M  V30 5336 H 500.584 -4.76895 -1.59939 0
M  V30 5337 H 500.284 -5.8714 -0.232561 0
M  V30 5338 H 501.808 -5.99544 -1.1567 0
M  V30 5339 H 503.222 -5.62938 1.08504 0
M  V30 5340 H 501.619 -5.70123 1.87296 0
M  V30 5341 H 502.689 -4.32451 2.1935 0
M  V30 5342 N 504.032 -0.577932 -1.46621 0
M  V30 5343 C 505.28 -0.061566 -2.02006 0
M  V30 5344 C 505.601 1.30117 -1.4524 0
M  V30 5345 O 504.871 1.85313 -0.63529 0
M  V30 5346 H 503.451 -0.0197692 -0.746738 0
M  V30 5347 H 506.113 -0.752631 -1.79782 0
M  V30 5348 H 505.209 0.0110238 -3.12098 0
M  V30 5349 N 505.51 1.54411 -0.315457 0
M  V30 5350 C 506.46 2.20772 0.569549 0
M  V30 5351 C 507.444 1.18551 1.08787 0
M  V30 5352 O 508.636 1.44213 1.02624 0
M  V30 5353 C 505.765 2.96293 1.73394 0
M  V30 5354 C 504.851 4.05844 1.2309 0
M  V30 5355 N 505.242 5.03822 0.446927 0
M  V30 5356 C 503.54 4.19648 1.51035 0
M  V30 5357 C 504.241 5.8143 0.17725 0
M  V30 5358 N 503.217 5.38245 0.761118 0
M  V30 5359 H 507.019 2.93877 -0.0368076 0
M  V30 5360 H 504.533 1.61949 -0.120915 0
M  V30 5361 H 506.53 3.42313 2.37965 0
M  V30 5362 H 505.19 2.24708 2.34386 0
M  V30 5363 H 506.201 5.17821 0.0905027 0
M  V30 5364 H 502.878 3.59274 2.1267 0
M  V30 5365 H 504.268 6.70369 -0.45335 0
M  V30 5366 N 506.988 0.0434614 1.5754 0
M  V30 5367 C 507.918 -0.931651 2.14109 0
M  V30 5368 C 508.899 -1.32971 1.06079 0
M  V30 5369 O 510.084 -1.40579 1.33982 0
M  V30 5370 C 507.214 -2.20914 2.67982 0
M  V30 5371 C 506.168 -1.95139 3.80926 0
M  V30 5372 C 505.494 -3.29276 4.21285 0
M  V30 5373 C 506.794 -1.27913 5.06395 0
M  V30 5374 H 508.488 -0.460497 2.95837 0
M  V30 5375 H 506.034 -0.220058 1.42309 0
M  V30 5376 H 507.987 -2.89522 3.06194 0
M  V30 5377 H 506.711 -2.70221 1.83434 0
M  V30 5378 H 505.37 -1.28945 3.43175 0
M  V30 5379 H 505.018 -3.76369 3.33699 0
M  V30 5380 H 504.718 -3.12831 4.97404 0
M  V30 5381 H 506.242 -3.99129 4.62091 0
M  V30 5382 H 507.656 -1.86544 5.42102 0
M  V30 5383 H 506.053 -1.2182 5.87605 0
M  V30 5384 H 507.123 -0.254066 4.84234 0
M  V30 5385 N 508.466 -1.55915 -0.229846 0
M  V30 5386 C 509.429 -1.90914 -1.26824 0
M  V30 5387 C 510.429 -0.786999 -1.40225 0
M  V30 5388 O 511.619 -1.05484 -1.38632 0
M  V30 5389 C 508.751 -2.15264 -2.64337 0
M  V30 5390 H 509.944 -2.8378 -0.969998 0
M  V30 5391 H 507.497 -1.49069 -0.4699 0
M  V30 5392 H 508.232 -1.24923 -2.99274 0
M  V30 5393 H 508.017 -2.97005 -2.55989 0
M  V30 5394 H 509.507 -2.43467 -3.39284 0
M  V30 5395 N 509.944 0.496216 -1.49584 0
M  V30 5396 C 511.36 0.827814 -1.36453 0
M  V30 5397 C 511.56 1.97464 -0.401285 0
M  V30 5398 O 510.616 2.51958 0.165296 0
M  V30 5399 C 511.929 1.16352 -2.77277 0
M  V30 5400 C 513.477 1.27145 -2.86013 0
M  V30 5401 C 513.952 1.64042 -4.27615 0
M  V30 5402 N 515.443 1.71082 -4.30448 0
M  V30 5403 C 516.178 2.01085 -5.36984 0
M  V30 5404 N 515.674 2.2928 -6.5376 0
M  V30 5405 N 517.467 2.02376 -5.24405 0
M  V30 5406 H 509.618 -0.259947 -2.10803 0
M  V30 5407 H 511.881 -0.0537163 -0.946477 0
M  V30 5408 H 511.587 0.394153 -3.49484 0
M  V30 5409 H 511.461 2.10582 -3.12946 0
M  V30 5410 H 513.848 2.03152 -2.1404 0
M  V30 5411 H 513.929 0.309542 -2.5392 0
M  V30 5412 H 513.573 0.88583 -5.00115 0
M  V30 5413 H 513.503 2.6134 -4.57175 0
M  V30 5414 H 515.994 1.51434 -3.46232 0
M  V30 5415 H 516.307 2.51376 -7.30774 0
M  V30 5416 H 514.652 2.26726 -6.56978 0
M  V30 5417 H 517.843 1.79829 -4.32179 0
M  V30 5418 H 518.016 2.25425 -6.07526 0
M  V30 5419 N 511.423 1.38739 0.74761 0
M  V30 5420 C 512.671 1.35007 1.50391 0
M  V30 5421 C 512.992 -0.0574274 1.94915 0
M  V30 5422 O 512.262 -1.00628 1.6808 0
M  V30 5423 H 510.842 0.496784 0.557866 0
M  V30 5424 H 513.504 1.73479 0.888319 0
M  V30 5425 H 512.6 2.00474 2.392 0
M  V30 5426 N 512.901 -0.976442 1.23707 0
M  V30 5427 C 513.831 -2.08749 1.04624 0
M  V30 5428 C 514.812 -1.70057 -0.0380956 0
M  V30 5429 O 515.997 -1.93782 0.127308 0
M  V30 5430 C 513.127 -3.41335 0.640902 0
M  V30 5431 C 512.081 -3.93947 1.67302 0
M  V30 5432 C 511.407 -5.22774 1.12301 0
M  V30 5433 C 512.707 -4.22769 3.06697 0
M  V30 5434 H 514.401 -2.24972 1.97555 0
M  V30 5435 H 511.947 -1.08108 0.951247 0
M  V30 5436 H 513.9 -4.18489 0.494434 0
M  V30 5437 H 512.624 -3.24988 -0.324099 0
M  V30 5438 H 511.283 -3.18941 1.80755 0
M  V30 5439 H 510.931 -5.0278 0.148877 0
M  V30 5440 H 510.631 -5.58942 1.81267 0
M  V30 5441 H 512.155 -6.02546 0.988479 0
M  V30 5442 H 513.569 -4.90659 2.96524 0
M  V30 5443 H 511.966 -4.70147 3.72937 0
M  V30 5444 H 513.036 -3.29885 3.55392 0
M  V30 5445 N 514.379 -1.04941 -1.1758 0
M  V30 5446 C 515.619 -0.766996 -1.89464 0
M  V30 5447 C 515.983 0.693123 -1.79053 0
M  V30 5448 O 517.184 1.08953 -2.45729 0
M  V30 5449 C 515.455 -1.23108 -3.35528 0
M  V30 5450 S 517.014 -1.07565 -4.25412 0
M  V30 5451 H 513.832 -0.278616 -0.654136 0
M  V30 5452 H 516.434 -1.34352 -1.4202 0
M  V30 5453 H 515.138 -2.28896 -3.40639 0
M  V30 5454 H 514.669 -0.648724 -3.88014 0
M  V30 5455 H 516.684 0.00169467 -4.962 0
M  V30 5456 N 515.857 1.33968 -0.830081 0
M  V30 5457 C 517.103 1.98357 -0.422191 0
M  V30 5458 C 517.436 1.65633 1.01387 0
M  V30 5459 O 516.711 0.931648 1.70735 0
M  V30 5460 C 516.994 3.54492 -0.633043 0
M  V30 5461 C 516.847 3.96934 -2.11574 0
M  V30 5462 C 518.166 4.40039 -0.0735584 0
M  V30 5463 H 515.285 0.720544 -0.154871 0
M  V30 5464 H 517.927 1.58749 -1.04397 0
M  V30 5465 H 516.077 3.88361 -0.103775 0
M  V30 5466 H 517.749 3.73363 -2.7092 0
M  V30 5467 H 515.992 3.46984 -2.60354 0
M  V30 5468 H 516.663 5.05651 -2.21406 0
M  V30 5469 H 519.139 4.12764 -0.52585 0
M  V30 5470 H 518.015 5.48327 -0.250841 0
M  V30 5471 H 518.276 4.30124 1.02202 0
M  V30 5472 N 517.335 0.585699 1.46312 0
M  V30 5473 C 518.751 0.247607 1.57668 0
M  V30 5474 C 518.951 -1.25007 1.58037 0
M  V30 5475 O 518.007 -2.03196 1.49893 0
M  V30 5476 C 519.32 0.899456 2.86933 0
M  V30 5477 C 520.868 0.873326 3.00569 0
M  V30 5478 C 521.343 1.50477 4.32574 0
M  V30 5479 N 522.834 1.46925 4.3928 0
M  V30 5480 C 523.569 1.92719 5.40044 0
M  V30 5481 N 523.065 2.46499 6.47464 0
M  V30 5482 N 524.858 1.83617 5.31264 0
M  V30 5483 H 517.009 1.55841 1.44317 0
M  V30 5484 H 519.272 0.651564 0.688599 0
M  V30 5485 H 518.978 1.95313 2.92482 0
M  V30 5486 H 518.852 0.409476 3.74971 0
M  V30 5487 H 521.239 -0.171736 2.946 0
M  V30 5488 H 521.32 1.40136 2.13999 0
M  V30 5489 H 520.964 2.54905 4.39302 0
M  V30 5490 H 520.894 0.951944 5.17924 0
M  V30 5491 H 523.385 1.07616 3.62253 0
M  V30 5492 H 523.698 2.79291 7.20567 0
M  V30 5493 H 522.043 2.50526 6.48276 0
M  V30 5494 H 525.234 1.41358 4.46246 0
M  V30 5495 H 525.407 2.19622 6.09648 0
M  V30 5496 N 518.813 -1.54241 0.323641 0
M  V30 5497 C 519.723 -2.28033 -0.551205 0
M  V30 5498 C 520.739 -1.32388 -1.12913 0
M  V30 5499 O 521.915 -1.65403 -1.14908 0
M  V30 5500 C 518.98 -3.02382 -1.69606 0
M  V30 5501 C 518.041 -4.13612 -1.14993 0
M  V30 5502 C 517.274 -4.84407 -2.24022 0
M  V30 5503 O 517.497 -4.54716 -3.44368 0
M  V30 5504 O 516.431 -5.71312 -1.89436 0
M  V30 5505 H 520.257 -3.03662 0.048066 0
M  V30 5506 H 517.842 -1.49133 0.0893289 0
M  V30 5507 H 519.724 -3.48941 -2.36259 0
M  V30 5508 H 518.399 -2.29628 -2.28151 0
M  V30 5509 H 517.306 -3.71402 -0.448484 0
M  V30 5510 H 518.639 -4.8841 -0.609608 0
M  V30 5511 N 520.291 -0.0518155 -1.57515 0
M  V30 5512 C 521.707 0.304735 -1.56664 0
M  V30 5513 C 521.907 1.71395 -1.05953 0
M  V30 5514 O 520.963 2.42123 -0.716414 0
M  V30 5515 C 522.276 0.132614 -3.00407 0
M  V30 5516 C 523.824 0.20367 -3.12337 0
M  V30 5517 C 524.299 0.0600706 -4.57961 0
M  V30 5518 N 525.79 0.116326 -4.63054 0
M  V30 5519 C 526.525 0.0293363 -5.73392 0
M  V30 5520 N 526.021 -0.110038 -6.92713 0
M  V30 5521 N 527.814 0.0849651 -5.62036 0
M  V30 5522 H 519.965 -0.973056 -1.888 0
M  V30 5523 H 522.228 -0.377781 -0.869474 0
M  V30 5524 H 521.934 -0.839019 -3.41546 0
M  V30 5525 H 521.808 0.893376 -3.66468 0
M  V30 5526 H 524.195 1.16578 -2.71097 0
M  V30 5527 H 524.276 -0.587857 -2.48954 0
M  V30 5528 H 523.92 -0.898715 -4.99886 0
M  V30 5529 H 523.85 0.87075 -5.19351 0
M  V30 5530 H 526.341 0.22327 -3.7724 0
M  V30 5531 H 526.654 -0.169104 -7.72615 0
M  V30 5532 H 524.999 -0.145132 -6.94848 0
M  V30 5533 H 528.19 0.192411 -4.67704 0
M  V30 5534 H 528.363 0.0137131 -6.47999 0
M  V30 5535 N 521.769 1.56035 0.221574 0
M  V30 5536 C 523.017 1.78693 0.944102 0
M  V30 5537 C 523.338 0.620317 1.8487 0
M  V30 5538 O 522.608 -0.362784 1.92512 0
M  V30 5539 H 521.188 0.659082 0.351597 0
M  V30 5540 H 523.85 1.93497 0.233435 0
M  V30 5541 H 522.946 2.70837 1.55093 0
M  V30 5542 N 523.247 -0.488276 1.49845 0
M  V30 5543 C 524.157 -1.61451 1.70207 0
M  V30 5544 C 525.173 -1.63877 0.584846 0
M  V30 5545 O 526.349 -1.82063 0.861107 0
M  V30 5546 C 523.414 -2.9776 1.77594 0
M  V30 5547 C 522.475 -3.05861 3.01243 0
M  V30 5548 C 521.708 -4.35668 3.08268 0
M  V30 5549 O 521.931 -5.25197 2.22541 0
M  V30 5550 O 520.865 -4.49005 4.00847 0
M  V30 5551 H 524.691 -1.47199 2.65643 0
M  V30 5552 H 522.276 -0.665939 1.33737 0
M  V30 5553 H 524.158 -3.7875 1.84732 0
M  V30 5554 H 522.833 -3.12248 0.8534 0
M  V30 5555 H 521.74 -2.24012 2.99616 0
M  V30 5556 H 523.073 -2.96304 3.9302 0
M  V30 5557 N 524.725 -1.39134 -0.740242 0
M  V30 5558 C 526.136 -1.32208 -1.31825 0
M  V30 5559 C 526.487 0.0159919 -1.96193 0
M  V30 5560 O 525.612 0.918111 -1.95958 0
M  V30 5561 C 526.207 -2.39436 -2.39699 0
M  V30 5562 C 524.766 -2.36048 -2.93187 0
M  V30 5563 C 523.913 -2.21599 -1.66701 0
M  V30 5564 H 526.864 -1.49298 -0.538133 0
M  V30 5565 H 526.885 -2.05922 -3.19963 0
M  V30 5566 H 526.397 -3.36811 -1.92821 0
M  V30 5567 H 524.498 -1.42295 -3.44359 0
M  V30 5568 H 524.611 -3.30704 -3.46658 0
M  V30 5569 H 522.975 -1.68681 -1.90837 0
M  V30 5570 H 523.758 -3.20936 -1.21882 0
M  V30 5571 N 526.204 0.969867 -1.24223 0
M  V30 5572 C 527.444 1.72754 -1.0925 0
M  V30 5573 C 527.808 1.88541 0.362787 0
M  V30 5574 O 529.009 2.61217 0.633969 0
M  V30 5575 C 527.28 3.08204 -1.80957 0
M  V30 5576 S 528.839 3.99418 -1.81688 0
M  V30 5577 H 525.657 0.593981 -0.390778 0
M  V30 5578 H 528.259 1.15792 -1.5752 0
M  V30 5579 H 526.963 2.94372 -2.85961 0
M  V30 5580 H 526.494 3.70232 -1.33012 0
M  V30 5581 H 528.509 4.8828 -0.883001 0
M  V30 5582 N 527.682 1.05563 1.17022 0
M  V30 5583 C 528.93 0.76642 1.87004 0
M  V30 5584 C 529.251 -0.708854 1.8166 0
M  V30 5585 O 528.521 -1.51242 1.2451 0
M  V30 5586 H 527.101 0.280516 0.692329 0
M  V30 5587 H 529.763 1.33557 1.41945 0
M  V30 5588 H 528.859 1.08472 2.92644 0
M  V30 5589 N 529.16 -1.33526 0.837174 0
M  V30 5590 C 530.092 -2.28077 0.226579 0
M  V30 5591 C 531.105 -1.51666 -0.591717 0
M  V30 5592 O 532.294 -1.73511 -0.419064 0
M  V30 5593 C 529.394 -3.31597 -0.69978 0
M  V30 5594 C 528.567 -4.37329 0.0788067 0
M  V30 5595 C 527.626 -5.20526 -0.770637 0
M  V30 5596 O 526.652 -5.68811 -0.210453 0
M  V30 5597 N 527.854 -5.41639 -2.08825 0
M  V30 5598 H 530.619 -2.81115 1.03897 0
M  V30 5599 H 528.18 -1.46201 0.695476 0
M  V30 5600 H 530.172 -3.84158 -1.27298 0
M  V30 5601 H 528.742 -2.78848 -1.41288 0
M  V30 5602 H 527.962 -3.8529 0.833381 0
M  V30 5603 H 529.25 -5.05079 0.614238 0
M  V30 5604 H 528.648 -5.04108 -2.56693 0
M  V30 5605 H 527.205 -5.97263 -2.60998 0
M  V30 5606 N 530.638 -0.59345 -1.46 0
M  V30 5607 C 531.863 -0.0872365 -2.07216 0
M  V30 5608 C 532.288 1.2131 -1.43755 0
M  V30 5609 O 531.646 1.73528 -0.525152 0
M  V30 5610 C 531.694 0.0538197 -3.6056 0
M  V30 5611 O 530.798 1.10765 -3.97247 0
M  V30 5612 H 530.139 -0.0676598 -0.660544 0
M  V30 5613 H 532.669 -0.819445 -1.87473 0
M  V30 5614 H 532.679 0.256567 -4.07193 0
M  V30 5615 H 531.354 -0.895739 -4.0614 0
M  V30 5616 H 529.931 0.882501 -3.62307 0
M  V30 5617 N 532.116 1.54067 -0.331816 0
M  V30 5618 C 533.532 1.59587 0.0205388 0
M  V30 5619 C 533.732 1.34813 1.49759 0
M  V30 5620 O 532.788 1.13661 2.25471 0
M  V30 5621 C 534.101 2.97959 -0.405103 0
M  V30 5622 C 535.649 3.10964 -0.356454 0
M  V30 5623 C 536.124 4.51694 -0.757384 0
M  V30 5624 N 537.615 4.57709 -0.71111 0
M  V30 5625 C 538.35 5.64729 -0.993427 0
M  V30 5626 N 537.846 6.79652 -1.3433 0
M  V30 5627 N 539.639 5.54546 -0.918442 0
M  V30 5628 H 531.79 1.68426 -1.29407 0
M  V30 5629 H 534.053 0.78819 -0.526745 0
M  V30 5630 H 533.759 3.21115 -1.43451 0
M  V30 5631 H 533.633 3.76524 0.225692 0
M  V30 5632 H 536.02 2.87538 0.663763 0
M  V30 5633 H 536.101 2.34484 -1.02229 0
M  V30 5634 H 535.745 4.75853 -1.77555 0
M  V30 5635 H 535.675 5.26555 -0.0691444 0
M  V30 5636 H 538.166 3.75176 -0.452883 0
M  V30 5637 H 538.479 7.57221 -1.54388 0
M  V30 5638 H 536.824 6.81128 -1.38164 0
M  V30 5639 H 540.015 4.63641 -0.644536 0
M  V30 5640 H 540.188 6.37861 -1.14181 0
M  V30 5641 N 533.594 0.0601682 1.57485 0
M  V30 5642 C 535.005 -0.474217 1.80577 0
M  V30 5643 C 535.356 -1.70365 0.973147 0
M  V30 5644 O 534.481 -2.15544 0.192306 0
M  V30 5645 C 535.076 -0.867102 3.27516 0
M  V30 5646 C 533.635 -1.34642 3.51495 0
M  V30 5647 C 532.782 -0.32594 2.75378 0
M  V30 5648 H 535.733 0.285973 1.56102 0
M  V30 5649 H 535.754 -1.72938 3.38929 0
M  V30 5650 H 535.266 0.0278927 3.8809 0
M  V30 5651 H 533.367 -2.2603 2.96212 0
M  V30 5652 H 533.48 -1.33237 4.60201 0
M  V30 5653 H 531.844 -0.800749 2.41785 0
M  V30 5654 H 532.627 0.561125 3.38683 0
M  V30 5655 N 535.072 -1.5615 -0.213296 0
M  V30 5656 C 536.483 -1.69645 -0.779582 0
M  V30 5657 C 536.834 -0.663615 -1.84636 0
M  V30 5658 O 535.959 0.183633 -2.15619 0
M  V30 5659 C 536.554 -3.07567 -1.42084 0
M  V30 5660 C 535.113 -3.22889 -1.93442 0
M  V30 5661 C 534.26 -2.65581 -0.797612 0
M  V30 5662 H 537.211 -1.58696 0.0114951 0
M  V30 5663 H 537.232 -3.03884 -2.28986 0
M  V30 5664 H 536.744 -3.82716 -0.644187 0
M  V30 5665 H 534.845 -2.52623 -2.73884 0
M  V30 5666 H 534.958 -4.30197 -2.10872 0
M  V30 5667 H 533.322 -2.24278 -1.20712 0
M  V30 5668 H 534.105 -3.43284 -0.033494 0
M  V30 5669 N 536.55 0.480323 -1.50102 0
M  V30 5670 C 537.46 1.60547 -1.71061 0
M  V30 5671 C 538.476 1.63564 -0.593529 0
M  V30 5672 O 539.652 1.81604 -0.870751 0
M  V30 5673 C 536.717 2.96814 -1.79171 0
M  V30 5674 C 535.778 3.04259 -3.02861 0
M  V30 5675 C 535.011 4.34027 -3.10574 0
M  V30 5676 O 535.234 5.24009 -2.25323 0
M  V30 5677 O 534.168 4.46873 -4.03223 0
M  V30 5678 H 537.994 1.45788 -2.6642 0
M  V30 5679 H 535.579 0.658838 -1.34088 0
M  V30 5680 H 537.461 3.77765 -1.86738 0
M  V30 5681 H 536.136 3.11791 -0.869947 0
M  V30 5682 H 535.043 2.22419 -3.008 0
M  V30 5683 H 536.376 2.94216 -3.94586 0
M  V30 5684 N 538.028 1.39524 0.732853 0
M  V30 5685 C 538.958 1.41153 1.86005 0
M  V30 5686 C 539.939 0.274614 1.67869 0
M  V30 5687 O 541.124 0.480745 1.88155 0
M  V30 5688 C 538.254 1.25638 3.23778 0
M  V30 5689 C 537.208 2.36752 3.56556 0
M  V30 5690 C 536.534 2.06326 4.93289 0
M  V30 5691 C 537.834 3.79069 3.5931 0
M  V30 5692 H 539.528 2.35484 1.84899 0
M  V30 5693 H 537.074 1.13348 0.888162 0
M  V30 5694 H 539.027 1.25398 4.0231 0
M  V30 5695 H 537.751 0.277772 3.25417 0
M  V30 5696 H 536.41 2.36213 2.80355 0
M  V30 5697 H 536.058 1.06897 4.9151 0
M  V30 5698 H 535.758 2.80757 5.16187 0
M  V30 5699 H 537.282 2.07739 5.74175 0
M  V30 5700 H 538.696 3.81526 4.27914 0
M  V30 5701 H 537.093 4.52878 3.93728 0
M  V30 5702 H 538.163 4.09893 2.59068 0
M  V30 5703 N 539.506 -0.963266 1.24736 0
M  V30 5704 C 540.731 -1.74699 1.11781 0
M  V30 5705 C 541.156 -1.85267 -0.325258 0
M  V30 5706 O 540.514 -1.32681 -1.23553 0
M  V30 5707 C 540.562 -3.14322 1.76731 0
M  V30 5708 O 539.666 -3.99043 1.04109 0
M  V30 5709 H 539.007 -0.53684 0.390767 0
M  V30 5710 H 541.537 -1.20801 1.65131 0
M  V30 5711 H 541.547 -3.64824 1.82668 0
M  V30 5712 H 540.222 -3.05946 2.81726 0
M  V30 5713 H 538.799 -3.5752 1.05991 0
M  V30 5714 N 540.985 -1.06182 -1.16461 0
M  V30 5715 C 542.396 -0.802426 -1.68576 0
M  V30 5716 C 542.747 0.67412 -1.84255 0
M  V30 5717 O 541.872 1.52303 -1.5373 0
M  V30 5718 C 542.467 -1.45002 -3.06202 0
M  V30 5719 C 541.026 -1.23843 -3.55443 0
M  V30 5720 C 540.173 -1.52724 -2.31454 0
M  V30 5721 H 543.124 -1.22545 -1.00839 0
M  V30 5722 H 543.145 -0.864731 -3.70544 0
M  V30 5723 H 542.657 -2.52466 -2.94759 0
M  V30 5724 H 540.758 -0.183487 -3.72148 0
M  V30 5725 H 540.871 -1.95036 -4.37604 0
M  V30 5726 H 539.235 -0.947726 -2.36411 0
M  V30 5727 H 540.018 -2.61343 -2.22609 0
M  V30 5728 N 542.463 1.3308 -0.844243 0
M  V30 5729 C 543.688 2.02341 -0.455282 0
M  V30 5730 C 544.113 1.6308 0.93737 0
M  V30 5731 O 543.471 0.826118 1.61385 0
M  V30 5732 C 543.519 3.55743 -0.58988 0
M  V30 5733 O 542.623 4.1063 0.38166 0
M  V30 5734 H 541.964 0.637898 -0.184343 0
M  V30 5735 H 544.494 1.6986 -1.14056 0
M  V30 5736 H 544.504 4.05243 -0.473522 0
M  V30 5737 H 543.179 3.83662 -1.60549 0
M  V30 5738 H 541.756 3.72236 0.22241 0
M  V30 5739 N 543.941 0.601185 1.45683 0
M  V30 5740 C 545.352 0.179659 1.85834 0
M  V30 5741 C 545.703 -1.26189 1.50236 0
M  V30 5742 O 544.828 -1.95587 0.925987 0
M  V30 5743 C 545.423 0.319277 3.37292 0
M  V30 5744 C 543.982 -0.0475092 3.7637 0
M  V30 5745 C 543.129 0.646692 2.69654 0
M  V30 5746 H 546.08 0.808268 1.36575 0
M  V30 5747 H 546.101 -0.4503 3.77826 0
M  V30 5748 H 545.613 1.36855 3.6317 0
M  V30 5749 H 543.714 -1.0962 3.5611 0
M  V30 5750 H 543.827 0.34168 4.7788 0
M  V30 5751 H 542.191 0.0849971 2.54558 0
M  V30 5752 H 542.974 1.69797 2.98369 0
M  V30 5753 N 545.419 -1.53889 0.339982 0
M  V30 5754 C 546.351 -2.22435 -0.55275 0
M  V30 5755 C 547.364 -1.22975 -1.06681 0
M  V30 5756 O 548.553 -1.49351 -0.977575 0
M  V30 5757 C 545.653 -2.8882 -1.77302 0
M  V30 5758 C 544.826 -4.14563 -1.39486 0
M  V30 5759 C 543.885 -4.64391 -2.47442 0
M  V30 5760 O 542.911 -5.28687 -2.10899 0
M  V30 5761 N 544.113 -4.40015 -3.78639 0
M  V30 5762 H 546.878 -2.9968 0.0342669 0
M  V30 5763 H 544.439 -1.61068 0.16394 0
M  V30 5764 H 546.431 -3.19072 -2.48948 0
M  V30 5765 H 545.001 -2.15182 -2.26749 0
M  V30 5766 H 544.221 -3.90896 -0.509321 0
M  V30 5767 H 545.509 -4.96362 -1.11813 0
M  V30 5768 H 544.907 -3.88586 -4.11118 0
M  V30 5769 H 543.464 -4.74881 -4.46465 0
M  V30 5770 N 546.897 -0.0685191 -1.57451 0
M  V30 5771 C 548.122 0.613919 -1.98106 0
M  V30 5772 C 548.547 1.62551 -0.946501 0
M  V30 5773 O 547.905 1.81085 0.0882824 0
M  V30 5774 C 547.953 1.26189 -3.378 0
M  V30 5775 O 547.057 2.37773 -3.36954 0
M  V30 5776 H 546.398 0.158163 -0.644888 0
M  V30 5777 H 548.928 -0.142063 -2.04106 0
M  V30 5778 H 548.938 1.60951 -3.74912 0
M  V30 5779 H 547.613 0.520625 -4.12629 0
M  V30 5780 H 546.19 2.04829 -3.11608 0
M  V30 5781 N 548.375 1.56261 0.205012 0
M  V30 5782 C 549.786 1.70056 0.770574 0
M  V30 5783 C 550.137 0.673398 1.84282 0
M  V30 5784 O 549.262 -0.172196 2.15714 0
M  V30 5785 C 549.857 3.08316 1.40451 0
M  V30 5786 C 548.416 3.2391 1.91727 0
M  V30 5787 C 547.563 2.66001 0.783516 0
M  V30 5788 H 550.514 1.58688 -0.019911 0
M  V30 5789 H 550.535 3.05094 2.27371 0
M  V30 5790 H 550.047 3.83053 0.623882 0
M  V30 5791 H 548.148 2.54072 2.7254 0
M  V30 5792 H 548.261 4.3131 2.08588 0
M  V30 5793 H 546.625 2.24915 1.19521 0
M  V30 5794 H 547.408 3.43297 0.0152883 0
M  V30 5795 N 549.853 -0.472356 1.50355 0
M  V30 5796 C 550.763 -1.59637 1.7191 0
M  V30 5797 C 551.779 -1.63247 0.602195 0
M  V30 5798 O 552.955 -1.81139 0.880369 0
M  V30 5799 C 550.02 -2.9586 1.80742 0
M  V30 5800 C 549.081 -3.02649 3.04471 0
M  V30 5801 C 548.314 -4.32374 3.12872 0
M  V30 5802 O 548.537 -5.22807 2.28099 0
M  V30 5803 O 547.471 -4.44728 4.05587 0
M  V30 5804 H 551.297 -1.44373 2.67189 0
M  V30 5805 H 548.882 -0.651717 1.34436 0
M  V30 5806 H 550.764 -3.7677 1.88739 0
M  V30 5807 H 549.439 -3.11325 0.88647 0
M  V30 5808 H 548.346 -2.20821 3.01975 0
M  V30 5809 H 549.679 -2.92119 3.9614 0
M  V30 5810 N 551.331 -1.39911 -0.725443 0
M  V30 5811 C 552.579 -1.37382 -1.48224 0
M  V30 5812 C 552.9 0.0264107 -1.94982 0
M  V30 5813 O 552.17 0.979408 -1.6966 0
M  V30 5814 H 550.75 -0.505596 -0.549892 0
M  V30 5815 H 553.412 -1.7487 -0.860608 0
M  V30 5816 H 552.508 -2.04254 -2.3598 0
M  V30 5817 N 552.809 0.956637 -1.25245 0
M  V30 5818 C 554.057 1.69764 -1.09657 0
M  V30 5819 C 554.378 1.91583 0.363464 0
M  V30 5820 O 553.648 1.50149 1.25825 0
M  V30 5821 H 552.228 0.629097 -0.402798 0
M  V30 5822 H 554.89 1.15026 -1.57337 0
M  V30 5823 H 553.986 2.67769 -1.60331 0
M  V30 5824 N 554.287 1.06798 1.15896 0
M  V30 5825 C 555.25 0.687328 2.18651 0
M  V30 5826 C 556.25 -0.269559 1.58524 0
M  V30 5827 O 557.44 -0.0512627 1.74125 0
M  V30 5828 C 554.572 0.0121642 3.40898 0
M  V30 5829 H 555.765 1.59701 2.53842 0
M  V30 5830 H 553.318 0.863828 1.3026 0
M  V30 5831 H 554.053 -0.910025 3.1127 0
M  V30 5832 H 553.838 0.700309 3.85795 0
M  V30 5833 H 555.328 -0.239703 4.16911 0
M  V30 5834 N 555.766 -1.3263 0.851289 0
M  V30 5835 C 557.014 -1.96978 0.452128 0
M  V30 5836 C 557.335 -1.67715 -0.99482 0
M  V30 5837 O 556.605 -0.98259 -1.69476 0
M  V30 5838 H 555.185 -0.72873 0.164202 0
M  V30 5839 H 557.847 -1.61774 1.08698 0
M  V30 5840 H 556.943 -3.06387 0.594407 0
M  V30 5841 N 557.244 -0.608902 -1.45362 0
M  V30 5842 C 558.655 -0.189511 -1.85736 0
M  V30 5843 C 559.006 1.2539 -1.50903 0
M  V30 5844 O 558.131 1.95094 -0.936347 0
M  V30 5845 C 558.726 -0.33716 -3.37118 0
M  V30 5846 C 557.285 0.0275487 -3.7639 0
M  V30 5847 C 556.432 -0.660983 -2.69307 0
M  V30 5848 H 559.383 -0.815499 -1.36144 0
M  V30 5849 H 559.404 0.430257 -3.7806 0
M  V30 5850 H 558.916 -1.38779 -3.62439 0
M  V30 5851 H 557.017 1.0773 -3.56686 0
M  V30 5852 H 557.13 -0.367018 -4.77692 0
M  V30 5853 H 555.494 -0.0984958 -2.54509 0
M  V30 5854 H 556.277 -1.71377 -2.97464 0
M  V30 5855 N 558.722 1.53707 -0.348139 0
M  V30 5856 C 560.133 1.86213 0.134797 0
M  V30 5857 C 560.484 1.26925 1.49614 0
M  V30 5858 O 559.609 0.584573 2.08355 0
M  V30 5859 C 560.204 3.37866 0.251371 0
M  V30 5860 C 558.763 3.70233 0.678543 0
M  V30 5861 C 557.91 2.76683 -0.184925 0
M  V30 5862 H 560.861 1.48204 -0.567571 0
M  V30 5863 H 560.882 3.64908 1.07806 0
M  V30 5864 H 560.394 3.80988 -0.739581 0
M  V30 5865 H 558.495 3.32659 1.67835 0
M  V30 5866 H 558.608 4.76836 0.465251 0
M  V30 5867 H 556.972 2.52374 0.343465 0
M  V30 5868 H 557.755 3.22635 -1.1731 0
M  V30 5869 N 560.2 0.0768682 1.57412 0
M  V30 5870 C 561.163 -0.873949 2.11884 0
M  V30 5871 C 562.163 -1.22301 1.04398 0
M  V30 5872 O 563.353 -1.15545 1.30365 0
M  V30 5873 C 560.485 -2.17575 2.62438 0
M  V30 5874 H 561.678 -0.401278 2.97203 0
M  V30 5875 H 559.231 -0.171904 1.55352 0
M  V30 5876 H 559.966 -2.69368 1.80587 0
M  V30 5877 H 559.751 -1.93534 3.41009 0
M  V30 5878 H 561.241 -2.85631 3.04639 0
M  V30 5879 N 561.678 -1.56367 -0.196722 0
M  V30 5880 C 562.926 -1.80172 -0.915554 0
M  V30 5881 C 563.247 -0.649649 -1.8386 0
M  V30 5882 O 562.517 0.332111 -1.93064 0
M  V30 5883 H 561.097 -0.664592 -0.341067 0
M  V30 5884 H 563.759 -1.93844 -0.202622 0
M  V30 5885 H 562.855 -2.7327 -1.50764 0
M  V30 5886 N 563.156 0.464375 -1.50603 0
M  V30 5887 C 564.567 1.04507 -1.5471 0
M  V30 5888 C 564.918 1.9297 -0.354542 0
M  V30 5889 O 564.043 2.09763 0.531812 0
M  V30 5890 C 564.638 1.90207 -2.80369 0
M  V30 5891 C 563.197 2.43373 -2.87135 0
M  V30 5892 C 562.344 1.21886 -2.49076 0
M  V30 5893 H 565.295 0.246716 -1.56771 0
M  V30 5894 H 565.316 2.75353 -2.62604 0
M  V30 5895 H 564.828 1.25796 -3.67147 0
M  V30 5896 H 562.929 3.11318 -2.04724 0
M  V30 5897 H 563.042 2.7802 -3.90181 0
M  V30 5898 H 561.406 1.55575 -2.01664 0
M  V30 5899 H 562.189 0.591268 -3.3817 0
M  V30 5900 N 564.634 1.40294 0.718013 0
M  V30 5901 C 565.874 1.39888 1.49032 0
M  V30 5902 C 566.238 -0.000462935 1.92 0
M  V30 5903 O 567.439 -0.129622 2.68487 0
M  V30 5904 C 565.71 2.35868 2.68516 0
M  V30 5905 S 567.269 2.53799 3.57954 0
M  V30 5906 H 564.087 0.495849 0.509563 0
M  V30 5907 H 566.689 1.76541 0.839846 0
M  V30 5908 H 565.393 3.36375 2.35117 0
M  V30 5909 H 564.924 2.0049 3.38478 0
M  V30 5910 H 566.939 1.78859 4.62843 0
M  V30 5911 N 566.112 -0.949982 1.2575 0
M  V30 5912 C 567.062 -2.03297 1.03221 0
M  V30 5913 C 568.046 -1.60867 -0.0324751 0
M  V30 5914 O 569.238 -1.76047 0.183423 0
M  V30 5915 C 566.367 -3.36938 0.657841 0
M  V30 5916 C 565.453 -3.85878 1.75952 0
M  V30 5917 N 565.844 -4.0756 2.99547 0
M  V30 5918 C 564.142 -4.14709 1.64111 0
M  V30 5919 C 564.843 -4.47961 3.71087 0
M  V30 5920 N 563.819 -4.5416 2.98731 0
M  V30 5921 H 567.621 -2.1806 1.97045 0
M  V30 5922 H 565.135 -1.13516 1.16138 0
M  V30 5923 H 567.132 -4.14155 0.477614 0
M  V30 5924 H 565.792 -3.2355 -0.273025 0
M  V30 5925 H 566.803 -3.94501 3.35544 0
M  V30 5926 H 563.48 -4.10158 0.779527 0
M  V30 5927 H 564.87 -4.73002 4.77199 0
M  V30 5928 N 567.59 -1.07411 -1.15328 0
M  V30 5929 C 568.5 -0.706438 -2.23711 0
M  V30 5930 C 569.516 0.282586 -1.7169 0
M  V30 5931 O 570.692 0.129066 -2.00986 0
M  V30 5932 C 567.757 -0.11048 -3.46524 0
M  V30 5933 C 566.818 -1.15282 -4.13532 0
M  V30 5934 C 566.051 -0.585205 -5.30482 0
M  V30 5935 O 566.274 0.598549 -5.67251 0
M  V30 5936 O 565.208 -1.33039 -5.87013 0
M  V30 5937 H 569.034 -1.61031 -2.57493 0
M  V30 5938 H 566.619 -0.847113 -1.23062 0
M  V30 5939 H 568.501 0.21957 -4.20828 0
M  V30 5940 H 567.176 0.766703 -3.14489 0
M  V30 5941 H 566.083 -1.53523 -3.41147 0
M  V30 5942 H 567.416 -2.00192 -4.49649 0
M  V30 5943 N 569.068 1.32177 -0.85831 0
M  V30 5944 C 570.479 1.79381 -0.517621 0
M  V30 5945 C 570.83 1.70841 0.964769 0
M  V30 5946 O 569.955 1.26917 1.75274 0
M  V30 5947 C 570.55 3.25706 -0.932801 0
M  V30 5948 C 569.109 3.70851 -0.643953 0
M  V30 5949 C 568.256 2.53208 -1.13054 0
M  V30 5950 H 571.207 1.19424 -1.04516 0
M  V30 5951 H 571.228 3.79673 -0.250674 0
M  V30 5952 H 570.74 3.31889 -2.01174 0
M  V30 5953 H 568.841 3.70178 0.424112 0
M  V30 5954 H 568.954 4.63495 -1.21281 0
M  V30 5955 H 567.318 2.48676 -0.550679 0
M  V30 5956 H 568.101 2.62143 -2.21666 0
M  V30 5957 N 570.547 0.616602 1.45037 0
M  V30 5958 C 571.963 0.280994 1.57107 0
M  V30 5959 C 572.163 -1.21627 1.60653 0
M  V30 5960 O 571.219 -1.9997 1.54169 0
M  V30 5961 C 572.532 0.960116 2.8496 0
M  V30 5962 C 574.08 0.936884 2.98649 0
M  V30 5963 C 574.555 1.59619 4.29285 0
M  V30 5964 N 576.046 1.5621 4.36065 0
M  V30 5965 C 576.781 2.04131 5.35834 0
M  V30 5966 N 576.277 2.60177 6.4209 0
M  V30 5967 N 578.07 1.94845 5.27249 0
M  V30 5968 H 570.221 1.58867 1.40979 0
M  V30 5969 H 572.484 0.666024 0.674623 0
M  V30 5970 H 572.19 2.01473 2.88273 0
M  V30 5971 H 572.064 0.488921 3.74018 0
M  V30 5972 H 574.451 -0.109209 2.94898 0
M  V30 5973 H 574.532 1.44643 2.10979 0
M  V30 5974 H 574.176 2.64166 4.33796 0
M  V30 5975 H 574.106 1.06159 5.15789 0
M  V30 5976 H 576.597 1.15276 3.59889 0
M  V30 5977 H 576.91 2.94513 7.1448 0
M  V30 5978 H 575.255 2.64221 6.42816 0
M  V30 5979 H 578.446 1.50792 4.43147 0
M  V30 5980 H 578.619 2.32504 6.04852 0
M  V30 5981 N 572.025 -1.5352 0.356285 0
M  V30 5982 C 573.265 -2.03027 -0.23649 0
M  V30 5983 C 573.629 -1.23813 -1.46746 0
M  V30 5984 O 574.83 -1.63281 -2.13525 0
M  V30 5985 C 573.101 -3.53442 -0.530415 0
M  V30 5986 S 574.66 -4.24836 -1.09819 0
M  V30 5987 H 571.478 -0.707591 -0.0695378 0
M  V30 5988 H 574.08 -1.89077 0.496999 0
M  V30 5989 H 572.784 -4.087 0.373114 0
M  V30 5990 H 572.315 -3.71536 -1.29323 0
M  V30 5991 H 574.33 -4.35228 -2.38309 0
M  V30 5992 N 573.503 -0.0852151 -1.57369 0
M  V30 5993 C 574.433 0.874556 -2.16503 0
M  V30 5994 C 575.414 1.30111 -1.09568 0
M  V30 5995 O 576.599 1.36977 -1.37662 0
M  V30 5996 C 573.729 2.13731 -2.73745 0
M  V30 5997 C 572.683 1.84971 -3.85966 0
M  V30 5998 C 572.009 3.17991 -4.29867 0
M  V30 5999 C 573.309 1.14442 -5.09608 0
M  V30 6000 H 575.003 0.381899 -2.96954 0
M  V30 6001 H 572.549 0.18225 -1.42842 0
M  V30 6002 H 574.502 2.81302 -3.13763 0
M  V30 6003 H 573.226 2.65263 -1.90534 0
M  V30 6004 H 571.885 1.19801 -3.46473 0
M  V30 6005 H 571.533 3.6739 -3.4356 0
M  V30 6006 H 571.233 2.99534 -5.05523 0
M  V30 6007 H 572.757 3.86737 -4.72511 0
M  V30 6008 H 574.171 1.72105 -5.46857 0
M  V30 6009 H 572.568 1.06197 -5.90629 0
M  V30 6010 H 573.638 0.12559 -4.84737 0
M  V30 6011 N 574.981 1.5647 0.188427 0
M  V30 6012 C 576.221 1.82803 0.914469 0
M  V30 6013 C 576.585 0.663681 1.80165 0
M  V30 6014 O 577.786 0.807059 2.56398 0
M  V30 6015 C 576.057 3.14187 1.70357 0
M  V30 6016 S 577.616 3.61947 2.48072 0
M  V30 6017 H 574.434 0.641497 0.306599 0
M  V30 6018 H 577.036 1.94694 0.177361 0
M  V30 6019 H 575.74 3.96937 1.04255 0
M  V30 6020 H 575.271 3.05192 2.48237 0
M  V30 6021 H 577.286 3.27913 3.72407 0
M  V30 6022 N 576.459 -0.456382 1.50847 0
M  V30 6023 C 577.875 -0.791345 1.386 0
M  V30 6024 C 578.075 -1.9633 0.453498 0
M  V30 6025 O 577.131 -2.52308 -0.0984353 0
M  V30 6026 C 578.444 -1.08959 2.80265 0
M  V30 6027 C 579.992 -1.19517 2.89283 0
M  V30 6028 C 580.467 -1.52647 4.31814 0
M  V30 6029 N 581.958 -1.59609 4.34832 0
M  V30 6030 C 582.693 -1.86777 5.42127 0
M  V30 6031 N 582.189 -2.11866 6.59609 0
M  V30 6032 N 583.982 -1.88402 5.29586 0
M  V30 6033 H 576.133 0.315746 2.1004 0
M  V30 6034 H 578.396 0.0787916 0.94472 0
M  V30 6035 H 578.102 -0.301355 3.50407 0
M  V30 6036 H 577.976 -2.02211 3.18419 0
M  V30 6037 H 580.363 -1.97406 2.19351 0
M  V30 6038 H 580.444 -0.242111 2.54652 0
M  V30 6039 H 580.088 -0.752922 5.02288 0
M  V30 6040 H 580.018 -2.49127 4.63943 0
M  V30 6041 H 582.509 -1.42201 3.50125 0
M  V30 6042 H 582.822 -2.31912 7.37182 0
M  V30 6043 H 581.167 -2.09228 6.62758 0
M  V30 6044 H 584.358 -1.68307 4.36795 0
M  V30 6045 H 584.531 -2.09238 6.13289 0
M  V30 6046 N 577.937 -1.40673 -0.710563 0
M  V30 6047 C 578.869 -1.37256 -1.83558 0
M  V30 6048 C 579.882 -0.277133 -1.60424 0
M  V30 6049 O 581.071 -0.537831 -1.70205 0
M  V30 6050 C 578.171 -1.1144 -3.20054 0
M  V30 6051 C 577.344 -2.32734 -3.70342 0
M  V30 6052 C 576.403 -2.03002 -4.85465 0
M  V30 6053 O 575.429 -2.75912 -4.97857 0
M  V30 6054 N 576.631 -1.01105 -5.71627 0
M  V30 6055 H 579.396 -2.34215 -1.86985 0
M  V30 6056 H 576.957 -1.35091 -0.892301 0
M  V30 6057 H 578.949 -0.895265 -3.94673 0
M  V30 6058 H 577.519 -0.231307 -3.11743 0
M  V30 6059 H 576.739 -2.70446 -2.86798 0
M  V30 6060 H 578.027 -3.13584 -4.00678 0
M  V30 6061 H 577.425 -0.407303 -5.64232 0
M  V30 6062 H 575.982 -0.85182 -6.4621 0
M  V30 6063 N 579.415 0.9433 -1.26252 0
M  V30 6064 C 580.325 2.07532 -1.09397 0
M  V30 6065 C 581.341 1.73977 -0.0280449 0
M  V30 6066 O 582.517 2.00067 -0.231337 0
M  V30 6067 C 579.582 3.39002 -0.726523 0
M  V30 6068 C 578.643 3.86353 -1.87163 0
M  V30 6069 C 577.876 5.11549 -1.52162 0
M  V30 6070 O 578.099 5.68834 -0.422385 0
M  V30 6071 O 577.033 5.53889 -2.35565 0
M  V30 6072 H 580.859 2.24658 -2.04359 0
M  V30 6073 H 578.444 1.05988 -1.05295 0
M  V30 6074 H 580.326 4.18 -0.534236 0
M  V30 6075 H 579.001 3.2312 0.193721 0
M  V30 6076 H 577.908 3.0831 -2.11886 0
M  V30 6077 H 579.241 4.06752 -2.77152 0
M  V30 6078 N 580.893 1.08022 1.14757 0
M  V30 6079 C 581.856 0.71048 2.1791 0
M  V30 6080 C 582.856 -0.252731 1.58801 0
M  V30 6081 O 584.046 -0.0327915 1.74169 0
M  V30 6082 C 581.178 0.0483203 3.40866 0
M  V30 6083 H 582.371 1.62384 2.52134 0
M  V30 6084 H 579.924 0.877595 1.29337 0
M  V30 6085 H 580.659 -0.876959 3.12218 0
M  V30 6086 H 580.444 0.741189 3.85031 0
M  V30 6087 H 581.934 -0.195471 4.17142 0
M  V30 6088 N 582.371 -1.3172 0.865308 0
M  V30 6089 C 583.301 -2.31109 0.333302 0
M  V30 6090 C 584.282 -1.60148 -0.573301 0
M  V30 6091 O 585.467 -1.87882 -0.491305 0
M  V30 6092 C 582.597 -3.44104 -0.470078 0
M  V30 6093 C 581.551 -4.26623 0.343021 0
M  V30 6094 C 580.877 -5.31482 -0.585756 0
M  V30 6095 C 582.177 -4.98001 1.57456 0
M  V30 6096 H 583.871 -2.75855 1.1638 0
M  V30 6097 H 581.417 -1.3262 0.561069 0
M  V30 6098 H 583.37 -4.12682 -0.852752 0
M  V30 6099 H 582.094 -2.98112 -1.33404 0
M  V30 6100 H 580.753 -3.59707 0.707583 0
M  V30 6101 H 580.401 -4.81741 -1.44686 0
M  V30 6102 H 580.101 -5.87582 -0.0456494 0
M  V30 6103 H 581.625 -6.0292 -0.965375 0
M  V30 6104 H 583.039 -5.59201 1.26359 0
M  V30 6105 H 581.436 -5.63876 2.05339 0
M  V30 6106 H 582.506 -4.25253 2.32997 0
M  V30 6107 N 583.85 -0.624285 -1.44708 0
M  V30 6108 C 584.779 0.0717025 -2.3339 0
M  V30 6109 C 585.76 0.841814 -1.47809 0
M  V30 6110 O 586.946 0.809056 -1.76544 0
M  V30 6111 C 584.076 1.05852 -3.30776 0
M  V30 6112 C 583.029 0.400503 -4.26122 0
M  V30 6113 C 582.356 1.49674 -5.13324 0
M  V30 6114 C 583.656 -0.688924 -5.17737 0
M  V30 6115 H 585.35 -0.668819 -2.91834 0
M  V30 6116 H 582.896 -0.32308 -1.40329 0
M  V30 6117 H 584.849 1.5541 -3.91696 0
M  V30 6118 H 583.572 1.82984 -2.70526 0
M  V30 6119 H 582.231 -0.0743687 -3.66525 0
M  V30 6120 H 581.88 2.25877 -4.49431 0
M  V30 6121 H 581.58 1.06188 -5.77926 0
M  V30 6122 H 583.104 1.99427 -5.77115 0
M  V30 6123 H 584.518 -0.276724 -5.72632 0
M  V30 6124 H 582.915 -1.04652 -5.90904 0
M  V30 6125 H 583.985 -1.55884 -4.5916 0
M  V30 6126 N 585.328 1.53329 -0.364422 0
M  V30 6127 C 586.278 2.22472 0.499024 0
M  V30 6128 C 587.262 1.21952 1.0496 0
M  V30 6129 O 588.454 1.47405 0.979836 0
M  V30 6130 C 585.583 3.01659 1.6388 0
M  V30 6131 C 584.669 4.09555 1.10116 0
M  V30 6132 N 585.06 5.04988 0.286414 0
M  V30 6133 C 583.358 4.2424 1.37608 0
M  V30 6134 C 584.059 5.81699 -0.00781682 0
M  V30 6135 N 583.035 5.40394 0.589494 0
M  V30 6136 H 586.837 2.93611 -0.130284 0
M  V30 6137 H 584.351 1.61483 -0.172377 0
M  V30 6138 H 586.348 3.4971 2.26954 0
M  V30 6139 H 585.008 2.32051 2.27118 0
M  V30 6140 H 586.019 5.17847 -0.0742839 0
M  V30 6141 H 582.696 3.65858 2.01133 0
M  V30 6142 H 584.086 6.68587 -0.666394 0
M  V30 6143 N 586.806 0.0935595 1.57322 0
M  V30 6144 C 587.756 -0.876521 2.10478 0
M  V30 6145 C 588.74 -1.24482 1.01946 0
M  V30 6146 O 589.932 -1.22016 1.28223 0
M  V30 6147 C 587.061 -2.13615 2.68745 0
M  V30 6148 C 586.147 -1.79335 3.84317 0
M  V30 6149 N 586.538 -1.15606 4.92411 0
M  V30 6150 C 584.836 -2.08954 3.94023 0
M  V30 6151 C 585.537 -0.999036 5.73057 0
M  V30 6152 N 584.513 -1.51585 5.22037 0
M  V30 6153 H 588.315 -0.379829 2.91435 0
M  V30 6154 H 585.829 -0.109699 1.62029 0
M  V30 6155 H 587.826 -2.84053 3.05155 0
M  V30 6156 H 586.486 -2.63851 1.89242 0
M  V30 6157 H 587.497 -0.823063 5.11318 0
M  V30 6158 H 584.174 -2.61416 3.25527 0
M  V30 6159 H 585.564 -0.500772 6.70031 0
M  V30 6160 N 588.284 -1.56567 -0.180126 0
M  V30 6161 C 589.53 -1.81761 -0.899497 0
M  V30 6162 C 589.863 -0.670015 -1.82276 0
M  V30 6163 O 589.138 0.328575 -1.91705 0
M  V30 6164 C 589.421 -3.17296 -1.7028 0
M  V30 6165 C 589.274 -4.4257 -0.803255 0
M  V30 6166 C 590.593 -3.49678 -2.67233 0
M  V30 6167 H 587.712 -0.661192 -0.325567 0
M  V30 6168 H 590.354 -1.89272 -0.16612 0
M  V30 6169 H 588.504 -3.11023 -2.32802 0
M  V30 6170 H 590.176 -4.60902 -0.191585 0
M  V30 6171 H 588.419 -4.33658 -0.110796 0
M  V30 6172 H 589.09 -5.33935 -1.40064 0
M  V30 6173 H 591.566 -3.56347 -2.14839 0
M  V30 6174 H 590.442 -4.45605 -3.20511 0
M  V30 6175 H 590.703 -2.73932 -3.47007 0
M  V30 6176 N 589.762 0.448376 -1.51087 0
M  V30 6177 C 590.725 1.52588 -1.71025 0
M  V30 6178 C 591.725 1.49958 -0.580442 0
M  V30 6179 O 592.915 1.52176 -0.847833 0
M  V30 6180 C 590.047 2.92163 -1.75652 0
M  V30 6181 H 591.24 1.36218 -2.67179 0
M  V30 6182 H 588.793 0.676313 -1.4091 0
M  V30 6183 H 589.528 3.13951 -0.812724 0
M  V30 6184 H 589.313 2.95478 -2.57751 0
M  V30 6185 H 590.803 3.70349 -1.92953 0
M  V30 6186 N 591.24 1.41047 0.703093 0
M  V30 6187 C 592.468 1.4334 1.49202 0
M  V30 6188 C 592.883 0.0365596 1.88765 0
M  V30 6189 O 592.24 -0.942419 1.56284 0
M  V30 6190 C 592.291 2.33538 2.75939 0
M  V30 6191 O 592.012 3.67786 2.38045 0
M  V30 6192 C 593.513 2.44555 3.6974 0
M  V30 6193 H 590.733 0.488472 0.460039 0
M  V30 6194 H 593.277 1.85245 0.86629 0
M  V30 6195 H 591.432 1.94962 3.34766 0
M  V30 6196 H 591.846 4.15816 3.19683 0
M  V30 6197 H 593.32 3.11849 4.55471 0
M  V30 6198 H 593.797 1.47447 4.1371 0
M  V30 6199 H 594.403 2.83735 3.16819 0
M  V30 6200 N 592.718 -0.936591 1.26751 0
M  V30 6201 C 593.967 -1.67778 1.11953 0
M  V30 6202 C 594.28 -1.92694 -0.33589 0
M  V30 6203 O 595.486 -2.64682 -0.604618 0
M  V30 6204 C 593.942 -3.02138 1.95551 0
M  V30 6205 C 593.55 -2.84953 3.45696 0
M  V30 6206 C 595.294 -3.79917 1.89377 0
M  V30 6207 C 593.201 -4.14814 4.21525 0
M  V30 6208 H 592.131 -0.629275 0.415366 0
M  V30 6209 H 594.782 -1.04122 1.51099 0
M  V30 6210 H 593.164 -3.668 1.49243 0
M  V30 6211 H 594.338 -2.29112 3.99805 0
M  V30 6212 H 592.653 -2.20612 3.53156 0
M  V30 6213 H 595.25 -4.76134 2.43312 0
M  V30 6214 H 595.593 -4.07204 0.865464 0
M  V30 6215 H 596.126 -3.22037 2.33532 0
M  V30 6216 H 592.865 -3.92709 5.24843 0
M  V30 6217 H 592.385 -4.70352 3.72195 0
M  V30 6218 H 594.064 -4.83239 4.3022 0
M  V30 6219 N 594.196 -1.08629 -1.14182 0
M  V30 6220 C 595.159 -0.722027 -2.1753 0
M  V30 6221 C 596.159 0.244305 -1.58933 0
M  V30 6222 O 597.349 0.0235545 -1.74184 0
M  V30 6223 C 594.481 -0.0663966 -3.40835 0
M  V30 6224 H 595.674 -1.63719 -2.51269 0
M  V30 6225 H 593.227 -0.884442 -1.28869 0
M  V30 6226 H 593.962 0.860389 -3.12678 0
M  V30 6227 H 593.747 -0.761598 -3.84632 0
M  V30 6228 H 595.237 0.173346 -4.1724 0
M  V30 6229 N 595.674 1.31259 -0.872281 0
M  V30 6230 C 596.622 2.30404 -0.318897 0
M  V30 6231 C 597.616 1.5962 0.567267 0
M  V30 6232 O 598.822 1.74204 0.453111 0
M  V30 6233 H 595.197 0.747243 -0.0844474 0
M  V30 6234 H 597.168 2.74549 -1.16899 0
M  V30 6235 C 595.917 3.44608 0.462683 0
M  V30 6236 H 595.24 3.99248 -0.209936 0
M  V30 6237 H 596.68 4.1609 0.815187 0
M  V30 6238 C 595.139 2.93456 1.65485 0
M  V30 6239 O 595.669 2.92418 2.75417 0
M  V30 6240 N 593.875 2.49628 1.48776 0
M  V30 6241 H 593.422 2.50671 0.593452 0
M  V30 6242 H 593.38 2.15759 2.28682 0
M  V30 6243 N 597.152 0.631951 1.44375 0
M  V30 6244 C 598.38 0.143867 2.06399 0
M  V30 6245 C 598.795 -1.18188 1.47231 0
M  V30 6246 O 598.152 -1.72511 0.595498 0
M  V30 6247 C 598.203 0.0238253 3.61492 0
M  V30 6248 O 597.924 1.29715 4.18456 0
M  V30 6249 C 599.425 -0.492856 4.40552 0
M  V30 6250 H 596.645 0.0800542 0.666207 0
M  V30 6251 H 599.189 0.866586 1.85231 0
M  V30 6252 H 597.344 -0.649338 3.81919 0
M  V30 6253 H 597.758 1.14252 5.11905 0
M  V30 6254 H 599.232 -0.525861 5.49489 0
M  V30 6255 H 599.709 -1.52006 4.12057 0
M  V30 6256 H 600.315 0.147085 4.25046 0
M  V30 6257 N 598.631 -1.53133 0.372548 0
M  V30 6258 C 599.878 -2.01356 -0.214959 0
M  V30 6259 C 600.206 -1.2596 -1.48204 0
M  V30 6260 O 599.461 -0.343511 -1.92662 0
M  V30 6261 C 599.76 -3.53206 -0.545938 0
M  V30 6262 C 599.426 -4.46511 0.627624 0
M  V30 6263 C 598.088 -4.71737 0.949615 0
M  V30 6264 C 600.44 -5.01666 1.41353 0
M  V30 6265 C 597.768 -5.4937 2.05936 0
M  V30 6266 C 600.12 -5.80511 2.51375 0
M  V30 6267 C 598.784 -6.04022 2.84101 0
M  V30 6268 H 598.054 -0.736813 -0.078659 0
M  V30 6269 H 600.701 -1.84682 0.506447 0
M  V30 6270 H 599.006 -3.67864 -1.34845 0
M  V30 6271 H 600.703 -3.87997 -1.01287 0
M  V30 6272 H 597.293 -4.27029 0.366635 0
M  V30 6273 H 601.477 -4.82117 1.17802 0
M  V30 6274 H 596.733 -5.65803 2.31682 0
M  V30 6275 H 600.907 -6.22255 3.12684 0
M  V30 6276 H 598.534 -6.63962 3.70214 0
M  V30 6277 N 600.109 -0.101901 -1.5727 0
M  V30 6278 C 601.525 0.254739 -1.57554 0
M  V30 6279 C 601.725 1.67937 -1.11352 0
M  V30 6280 O 600.781 2.39722 -0.793081 0
M  V30 6281 C 602.094 0.036975 -3.00677 0
M  V30 6282 C 603.642 0.104199 -3.12827 0
M  V30 6283 C 604.117 -0.0856565 -4.5792 0
M  V30 6284 N 605.608 -0.0310498 -4.6319 0
M  V30 6285 C 606.343 -0.153099 -5.73196 0
M  V30 6286 N 605.839 -0.330364 -6.92012 0
M  V30 6287 N 607.632 -0.0938854 -5.62022 0
M  V30 6288 H 599.783 -1.03263 -1.85609 0
M  V30 6289 H 602.046 -0.405251 -0.857016 0
M  V30 6290 H 601.752 -0.947254 -3.38703 0
M  V30 6291 H 601.626 0.776335 -3.69124 0
M  V30 6292 H 604.013 1.07894 -2.74669 0
M  V30 6293 H 604.094 -0.666762 -2.46957 0
M  V30 6294 H 603.738 -1.05729 -4.96773 0
M  V30 6295 H 603.668 0.705082 -5.21858 0
M  V30 6296 H 606.159 0.103141 -3.77759 0
M  V30 6297 H 606.472 -0.41482 -7.71686 0
M  V30 6298 H 604.817 -0.366119 -6.94035 0
M  V30 6299 H 608.008 0.0435168 -4.6808 0
M  V30 6300 H 608.181 -0.19245 -6.47714 0
M  V30 6301 N 601.587 1.56661 0.17182 0
M  V30 6302 C 602.812 1.86459 0.908165 0
M  V30 6303 C 603.237 0.688181 1.75059 0
M  V30 6304 O 602.595 -0.362753 1.77634 0
M  V30 6305 C 602.643 3.14669 1.76112 0
M  V30 6306 O 601.747 2.96858 2.86268 0
M  V30 6307 H 601.088 0.613318 0.254434 0
M  V30 6308 H 603.618 2.03892 0.170113 0
M  V30 6309 H 603.628 3.46061 2.16115 0
M  V30 6310 H 602.303 3.99905 1.14233 0
M  V30 6311 H 600.88 2.76819 2.49852 0
M  V30 6312 N 603.065 -0.440357 1.51323 0
M  V30 6313 C 604.015 -1.53263 1.68803 0
M  V30 6314 C 604.999 -1.51494 0.542057 0
M  V30 6315 O 606.191 -1.57999 0.797839 0
M  V30 6316 C 603.32 -2.91479 1.8137 0
M  V30 6317 C 602.406 -2.98015 3.01742 0
M  V30 6318 N 602.797 -2.743 4.24962 0
M  V30 6319 C 601.095 -3.29173 3.00934 0
M  V30 6320 C 601.796 -2.86601 5.06197 0
M  V30 6321 N 600.772 -3.1814 4.40781 0
M  V30 6322 H 604.574 -1.33675 2.61741 0
M  V30 6323 H 602.088 -0.647616 1.48929 0
M  V30 6324 H 604.085 -3.70055 1.92002 0
M  V30 6325 H 602.745 -3.12089 0.896117 0
M  V30 6326 H 603.756 -2.49287 4.53957 0
M  V30 6327 H 600.433 -3.55577 2.18796 0
M  V30 6328 H 601.823 -2.72246 6.14274 0
M  V30 6329 N 604.543 -1.41418 -0.695603 0
M  V30 6330 C 605.959 -1.23887 -1.00619 0
M  V30 6331 C 606.159 -0.128206 -2.01092 0
M  V30 6332 O 605.215 0.507408 -2.47349 0
M  V30 6333 C 606.528 -2.58816 -1.53083 0
M  V30 6334 C 608.076 -2.65998 -1.64967 0
M  V30 6335 C 608.551 -4.01244 -2.20833 0
M  V30 6336 N 610.042 -4.0309 -2.28194 0
M  V30 6337 C 610.777 -5.04539 -2.72448 0
M  V30 6338 N 610.273 -6.16378 -3.16306 0
M  V30 6339 N 612.066 -4.91901 -2.72011 0
M  V30 6340 H 604.217 -2.12379 -0.0300061 0
M  V30 6341 H 606.48 -0.944958 -0.0758797 0
M  V30 6342 H 606.186 -3.40842 -0.867147 0
M  V30 6343 H 606.06 -2.81299 -2.51298 0
M  V30 6344 H 608.447 -1.84331 -2.30448 0
M  V30 6345 H 608.528 -2.47325 -0.652982 0
M  V30 6346 H 608.172 -4.83359 -1.55968 0
M  V30 6347 H 608.102 -4.17257 -3.21254 0
M  V30 6348 H 610.593 -3.22341 -1.97242 0
M  V30 6349 H 610.906 -6.89658 -3.487 0
M  V30 6350 H 609.251 -6.19914 -3.14215 0
M  V30 6351 H 612.442 -4.03613 -2.37095 0
M  V30 6352 H 612.615 -5.71102 -3.06181 0
M  V30 6353 N 606.021 0.929856 -1.27246 0
M  V30 6354 C 606.984 2.01172 -1.09829 0
M  V30 6355 C 607.984 1.60743 -0.0429687 0
M  V30 6356 O 609.174 1.71813 -0.287373 0
M  V30 6357 C 606.306 3.34191 -0.673003 0
M  V30 6358 H 607.499 2.18054 -2.05895 0
M  V30 6359 H 605.052 1.11036 -1.10003 0
M  V30 6360 H 605.787 3.23009 0.289134 0
M  V30 6361 H 605.572 3.64892 -1.43515 0
M  V30 6362 H 607.062 4.13646 -0.573323 0
M  V30 6363 N 607.499 1.09233 1.13605 0
M  V30 6364 C 608.462 0.733553 2.17144 0
M  V30 6365 C 609.462 -0.235873 1.59061 0
M  V30 6366 O 610.652 -0.0143167 1.74194 0
M  V30 6367 C 607.784 0.084471 3.40795 0
M  V30 6368 H 608.977 1.65049 2.50397 0
M  V30 6369 H 606.53 0.891264 1.28399 0
M  V30 6370 H 607.265 -0.843795 3.1313 0
M  V30 6371 H 607.05 0.781985 3.84223 0
M  V30 6372 H 608.54 -0.151216 4.17326 0
M  V30 6373 N 608.977 -1.30795 0.87923 0
M  V30 6374 C 609.909 -2.27241 0.299025 0
M  V30 6375 C 610.922 -1.53472 -0.543166 0
M  V30 6376 O 612.111 -1.74756 -0.363651 0
M  V30 6377 C 609.211 -3.33655 -0.593931 0
M  V30 6378 C 608.384 -4.36857 0.2179 0
M  V30 6379 C 607.443 -5.22715 -0.604646 0
M  V30 6380 O 606.469 -5.69192 -0.0293838 0
M  V30 6381 N 607.671 -5.48008 -1.91488 0
M  V30 6382 H 610.436 -2.77667 1.12788 0
M  V30 6383 H 607.997 -1.43914 0.741637 0
M  V30 6384 H 609.989 -3.88013 -1.15012 0
M  V30 6385 H 608.559 -2.83202 -1.32346 0
M  V30 6386 H 607.779 -3.82444 0.955536 0
M  V30 6387 H 609.067 -5.02869 0.774614 0
M  V30 6388 H 608.465 -5.1202 -2.40525 0
M  V30 6389 H 607.022 -6.05264 -2.41864 0
M  V30 6390 N 610.455 -0.639598 -1.44038 0
M  V30 6391 C 611.871 -0.305953 -1.5664 0
M  V30 6392 C 612.071 1.19055 -1.62567 0
M  V30 6393 O 611.127 1.97492 -1.57331 0
M  V30 6394 C 612.44 -1.00533 -2.83397 0
M  V30 6395 C 613.988 -0.984278 -2.97121 0
M  V30 6396 C 614.463 -1.66428 -4.26691 0
M  V30 6397 N 615.954 -1.63127 -4.33525 0
M  V30 6398 C 616.689 -2.12629 -5.32519 0
M  V30 6399 N 616.185 -2.70359 -6.3787 0
M  V30 6400 N 617.978 -2.03208 -5.24083 0
M  V30 6401 H 610.129 -1.6109 -1.38434 0
M  V30 6402 H 612.392 -0.676672 -0.663942 0
M  V30 6403 H 612.098 -2.06034 -2.85032 0
M  V30 6404 H 611.972 -0.548362 -3.73193 0
M  V30 6405 H 614.359 0.0622792 -2.95034 0
M  V30 6406 H 614.44 -1.47981 -2.08651 0
M  V30 6407 H 614.084 -2.71034 -4.29538 0
M  V30 6408 H 614.014 -1.14351 -5.14034 0
M  V30 6409 H 616.505 -1.20987 -3.58009 0
M  V30 6410 H 616.818 -3.05842 -7.09704 0
M  V30 6411 H 615.163 -2.74414 -6.38531 0
M  V30 6412 H 618.354 -1.57823 -4.40692 0
M  V30 6413 H 618.527 -2.42097 -6.01077 0
M  V30 6414 N 611.933 1.52934 -0.380664 0
M  V30 6415 C 613.173 2.03378 0.204161 0
M  V30 6416 C 613.537 1.26132 1.44758 0
M  V30 6417 O 614.738 1.66657 2.109 0
M  V30 6418 C 613.009 3.54241 0.474118 0
M  V30 6419 S 614.568 4.26529 1.03046 0
M  V30 6420 H 611.386 0.708608 0.0582719 0
M  V30 6421 H 613.988 1.88263 -0.527017 0
M  V30 6422 H 612.692 4.08055 -0.438088 0
M  V30 6423 H 612.223 3.73547 1.23396 0
M  V30 6424 H 614.238 4.38964 2.31354 0
M  V30 6425 N 613.412 0.11024 1.57214 0
M  V30 6426 C 614.362 -0.854147 2.11396 0
M  V30 6427 C 615.346 -1.23394 1.03261 0
M  V30 6428 O 616.538 -1.20649 1.2951 0
M  V30 6429 C 613.667 -2.10752 2.70995 0
M  V30 6430 C 612.753 -1.75249 3.86198 0
M  V30 6431 N 613.144 -1.10377 4.9361 0
M  V30 6432 C 611.442 -2.04763 3.96217 0
M  V30 6433 C 612.143 -0.938199 5.74084 0
M  V30 6434 N 611.119 -1.46039 5.23616 0
M  V30 6435 H 614.921 -0.348897 2.91822 0
M  V30 6436 H 612.435 -0.0925071 1.62136 0
M  V30 6437 H 614.432 -2.80801 3.0815 0
M  V30 6438 H 613.092 -2.61829 1.9203 0
M  V30 6439 H 614.103 -0.768785 5.12162 0
M  V30 6440 H 610.78 -2.57948 3.28282 0
M  V30 6441 H 612.17 -0.429678 6.70525 0
M  V30 6442 N 614.89 -1.56749 -0.16351 0
M  V30 6443 C 615.8 -2.00255 -1.2221 0
M  V30 6444 C 616.816 -0.915194 -1.47987 0
M  V30 6445 O 617.992 -1.22342 -1.59982 0
M  V30 6446 C 615.057 -2.36035 -2.53946 0
M  V30 6447 C 614.118 -3.58637 -2.35962 0
M  V30 6448 C 613.351 -3.92701 -3.61416 0
M  V30 6449 O 613.574 -3.27632 -4.66919 0
M  V30 6450 O 612.508 -4.86019 -3.55062 0
M  V30 6451 H 616.334 -2.90586 -0.882794 0
M  V30 6452 H 613.919 -1.44721 -0.370978 0
M  V30 6453 H 615.801 -2.59982 -3.31643 0
M  V30 6454 H 614.476 -1.48863 -2.8744 0
M  V30 6455 H 613.383 -3.39898 -1.5627 0
M  V30 6456 H 614.716 -4.46374 -2.0739 0
M  V30 6457 N 616.368 0.432326 -1.51554 0
M  V30 6458 C 617.645 1.19288 -1.55015 0
M  V30 6459 C 618.025 2.08701 -0.317375 0
M  V30 6460 O 617.373 2.17602 0.697243 0
M  V30 6461 C 617.583 1.99037 -2.86679 0
M  V30 6462 C 618.931 2.55907 -3.38817 0
M  V30 6463 O 619.955 2.09243 -2.88263 0
M  V30 6464 O 618.814 3.41029 -4.27038 0
M  V30 6465 H 615.908 0.543369 -0.623441 0
M  V30 6466 H 618.454 0.440988 -1.6387 0
M  V30 6467 H 617.226 1.33397 -3.6786 0
M  V30 6468 H 616.849 2.81281 -2.8101 0
M  V30 6469 N 617.846 1.41785 0.688094 0
M  V30 6470 C 619.092 1.42753 1.4489 0
M  V30 6471 C 619.447 0.0384235 1.92362 0
M  V30 6472 O 618.74 -0.937066 1.67122 0
M  V30 6473 C 618.934 2.37532 2.67046 0
M  V30 6474 C 618.763 3.85521 2.31525 0
M  V30 6475 C 617.533 4.54152 2.21527 0
M  V30 6476 C 619.731 4.76299 1.94019 0
M  V30 6477 N 617.713 5.87233 1.78969 0
M  V30 6478 C 619.084 5.98386 1.62279 0
M  V30 6479 C 621.139 4.63877 1.80895 0
M  V30 6480 C 619.842 7.09433 1.18732 0
M  V30 6481 C 621.868 5.74893 1.38752 0
M  V30 6482 C 621.23 6.96083 1.07927 0
M  V30 6483 H 617.329 0.577575 0.527192 0
M  V30 6484 H 619.913 1.77713 0.795375 0
M  V30 6485 H 618.084 2.04656 3.30107 0
M  V30 6486 H 619.816 2.29169 3.33562 0
M  V30 6487 H 616.571 4.08188 2.40166 0
M  V30 6488 H 616.995 6.57785 1.60151 0
M  V30 6489 H 621.637 3.70671 2.03378 0
M  V30 6490 H 619.355 8.02497 0.949937 0
M  V30 6491 H 622.941 5.67287 1.29136 0
M  V30 6492 H 621.821 7.80527 0.758111 0
M  V30 6493 N 619.324 -0.923095 1.27737 0
M  V30 6494 C 620.271 -2.02432 1.1086 0
M  V30 6495 C 621.241 -1.66098 0.00835195 0
M  V30 6496 O 622.426 -1.90027 0.171542 0
M  V30 6497 C 619.566 -3.36476 0.766671 0
M  V30 6498 C 618.679 -3.85737 1.94501 0
M  V30 6499 C 617.814 -5.08249 1.54455 0
M  V30 6500 C 616.853 -5.49818 2.6901 0
M  V30 6501 N 615.99 -6.63524 2.29521 0
M  V30 6502 H 620.83 -2.16201 2.05089 0
M  V30 6503 H 618.367 -1.05909 1.02087 0
M  V30 6504 H 620.325 -4.13569 0.549223 0
M  V30 6505 H 618.955 -3.22502 -0.13867 0
M  V30 6506 H 618.007 -3.04883 2.27487 0
M  V30 6507 H 619.319 -4.12513 2.80419 0
M  V30 6508 H 618.473 -5.92857 1.28862 0
M  V30 6509 H 617.212 -4.83261 0.656534 0
M  V30 6510 H 616.217 -4.63757 2.95313 0
M  V30 6511 H 617.442 -5.76799 3.5844 0
M  V30 6512 H 615.388 -6.40185 1.43177 0
M  V30 6513 H 615.305 -6.89978 3.08977 0
M  V30 6514 H 616.573 -7.51461 2.07187 0
M  V30 6515 N 620.802 -1.09834 -1.13024 0
M  V30 6516 C 622.218 -0.828875 -1.36388 0
M  V30 6517 C 622.418 0.554756 -1.93713 0
M  V30 6518 O 621.474 1.30882 -2.15931 0
M  V30 6519 C 622.787 -1.92352 -2.3113 0
M  V30 6520 C 624.335 -1.95124 -2.44735 0
M  V30 6521 C 624.81 -3.03745 -3.42787 0
M  V30 6522 N 626.301 -3.03012 -3.5034 0
M  V30 6523 C 627.036 -3.83699 -4.26101 0
M  V30 6524 N 626.532 -4.74306 -5.04981 0
M  V30 6525 N 628.325 -3.71942 -4.21445 0
M  V30 6526 H 620.476 -1.99029 -0.74169 0
M  V30 6527 H 622.739 -0.864557 -0.388903 0
M  V30 6528 H 622.445 -2.91906 -1.96172 0
M  V30 6529 H 622.319 -1.80536 -3.3119 0
M  V30 6530 H 624.706 -0.962069 -2.78977 0
M  V30 6531 H 624.787 -2.11018 -1.44586 0
M  V30 6532 H 624.431 -4.02878 -3.09276 0
M  V30 6533 H 624.361 -2.85094 -4.42752 0
M  V30 6534 H 626.852 -2.37352 -2.94062 0
M  V30 6535 H 627.165 -5.32446 -5.60108 0
M  V30 6536 H 625.51 -4.78339 -5.04199 0
M  V30 6537 H 628.701 -3.00513 -3.589 0
M  V30 6538 H 628.874 -4.35062 -4.80235 0
M  V30 6539 N 622.28 1.30327 -0.886154 0
M  V30 6540 C 623.21 2.30549 -0.370028 0
M  V30 6541 C 624.191 1.61039 0.547751 0
M  V30 6542 O 625.376 1.8864 0.461353 0
M  V30 6543 C 622.506 3.44808 0.415275 0
M  V30 6544 C 621.46 4.26024 -0.41085 0
M  V30 6545 C 620.786 5.32347 0.501128 0
M  V30 6546 C 622.086 4.95433 -1.65359 0
M  V30 6547 H 623.78 2.73969 -1.20754 0
M  V30 6548 H 621.326 1.3171 -0.582097 0
M  V30 6549 H 623.279 4.13986 0.78699 0
M  V30 6550 H 622.003 3.00197 1.28644 0
M  V30 6551 H 620.662 3.58535 -0.764719 0
M  V30 6552 H 620.31 4.83982 1.37004 0
M  V30 6553 H 620.01 5.87581 -0.0478356 0
M  V30 6554 H 621.534 6.0438 0.869333 0
M  V30 6555 H 622.948 5.5712 -1.35239 0
M  V30 6556 H 621.345 5.60537 -2.14284 0
M  V30 6557 H 622.415 4.21493 -2.39733 0
M  V30 6558 N 623.758 0.647228 1.43697 0
M  V30 6559 C 624.721 -0.0385101 2.29168 0
M  V30 6560 C 625.721 -0.756487 1.41894 0
M  V30 6561 O 626.911 -0.598641 1.63591 0
M  V30 6562 C 624.043 -1.06524 3.23829 0
M  V30 6563 H 625.236 0.713445 2.9129 0
M  V30 6564 H 622.789 0.408153 1.50877 0
M  V30 6565 H 623.524 -1.84664 2.66589 0
M  V30 6566 H 623.309 -0.554147 3.88164 0
M  V30 6567 H 624.799 -1.54432 3.87996 0
M  V30 6568 N 625.236 -1.5273 0.388769 0
M  V30 6569 C 626.652 -1.59553 0.0387049 0
M  V30 6570 C 626.852 -1.40278 -1.44652 0
M  V30 6571 O 625.908 -1.21951 -2.21098 0
M  V30 6572 C 627.221 -2.9625 0.515409 0
M  V30 6573 C 628.769 -3.09426 0.471621 0
M  V30 6574 C 629.244 -4.48572 0.924505 0
M  V30 6575 N 630.735 -4.54754 0.880496 0
M  V30 6576 C 631.47 -5.60653 1.20234 0
M  V30 6577 N 630.966 -6.74198 1.59463 0
M  V30 6578 N 632.759 -5.50755 1.12363 0
M  V30 6579 H 624.91 -1.63508 1.35569 0
M  V30 6580 H 627.173 -0.768097 0.555636 0
M  V30 6581 H 626.879 -3.15569 1.5527 0
M  V30 6582 H 626.753 -3.77102 -0.085792 0
M  V30 6583 H 629.14 -2.89804 -0.556588 0
M  V30 6584 H 629.221 -2.30528 1.10862 0
M  V30 6585 H 628.865 -4.68936 1.95094 0
M  V30 6586 H 628.795 -5.25935 0.264524 0
M  V30 6587 H 631.286 -3.73237 0.591815 0
M  V30 6588 H 631.599 -7.5097 1.82385 0
M  V30 6589 H 629.944 -6.75531 1.63349 0
M  V30 6590 H 633.135 -4.6093 0.816169 0
M  V30 6591 H 633.308 -6.33184 1.37777 0
M  V30 6592 N 626.714 -0.118576 -1.57153 0
M  V30 6593 C 627.96 0.540326 -1.95469 0
M  V30 6594 C 628.293 1.66356 -1.00196 0
M  V30 6595 O 627.568 1.94461 -0.039104 0
M  V30 6596 C 627.851 1.07342 -3.43729 0
M  V30 6597 C 627.704 -0.0463732 -4.49776 0
M  V30 6598 C 629.023 1.96442 -3.93826 0
M  V30 6599 H 626.142 0.19494 -0.710751 0
M  V30 6600 H 628.784 -0.19405 -1.89006 0
M  V30 6601 H 626.934 1.69925 -3.49368 0
M  V30 6602 H 628.606 -0.681648 -4.56236 0
M  V30 6603 H 626.849 -0.709574 -4.27957 0
M  V30 6604 H 627.52 0.367856 -5.50773 0
M  V30 6605 H 629.996 1.43731 -3.90488 0
M  V30 6606 H 628.872 2.3066 -4.98084 0
M  V30 6607 H 629.133 2.89077 -3.34495 0
M  V30 6608 N 628.193 1.56834 0.155195 0
M  V30 6609 C 629.126 1.9278 1.22111 0
M  V30 6610 C 630.104 0.792588 1.41975 0
M  V30 6611 O 631.288 1.04743 1.5672 0
M  V30 6612 C 628.415 2.19273 2.58142 0
M  V30 6613 C 627.461 3.41932 2.54921 0
M  V30 6614 S 628.294 4.95769 2.02418 0
M  V30 6615 C 629.45 5.25375 3.40194 0
M  V30 6616 H 629.683 2.82889 0.914393 0
M  V30 6617 H 627.216 1.50133 0.360461 0
M  V30 6618 H 629.174 2.35217 3.36427 0
M  V30 6619 H 627.835 1.29843 2.86007 0
M  V30 6620 H 627.028 3.57721 3.55038 0
M  V30 6621 H 626.63 3.25188 1.8474 0
M  V30 6622 H 628.922 5.1834 4.36268 0
M  V30 6623 H 629.865 6.26889 3.29266 0
M  V30 6624 H 630.273 4.52906 3.36951 0
M  V30 6625 N 629.671 -0.424282 1.51781 0
M  V30 6626 C 630.948 -1.18464 1.55646 0
M  V30 6627 C 631.328 -2.08529 0.328438 0
M  V30 6628 O 630.676 -2.17969 -0.685693 0
M  V30 6629 C 630.886 -1.97514 2.87731 0
M  V30 6630 C 632.234 -2.54106 3.40169 0
M  V30 6631 O 633.258 -2.07711 2.89369 0
M  V30 6632 O 632.117 -3.38759 4.28841 0
M  V30 6633 H 629.211 -0.540055 0.626314 0
M  V30 6634 H 631.757 -0.432291 1.64102 0
M  V30 6635 H 630.529 -1.31444 3.68562 0
M  V30 6636 H 630.152 -2.79787 2.82498 0
M  V30 6637 N 631.149 -1.42148 -0.680565 0
M  V30 6638 C 632.565 -1.24947 -0.992995 0
M  V30 6639 C 632.765 -0.149527 -2.00944 0
M  V30 6640 O 631.821 0.481145 -2.47873 0
M  V30 6641 C 633.134 -2.60426 -1.5033 0
M  V30 6642 C 634.682 -2.67733 -1.62137 0
M  V30 6643 C 635.157 -4.03564 -2.16565 0
M  V30 6644 N 636.648 -4.05488 -2.23905 0
M  V30 6645 C 637.383 -5.07401 -2.67081 0
M  V30 6646 N 636.879 -6.19698 -3.09751 0
M  V30 6647 N 638.672 -4.94758 -2.66778 0
M  V30 6648 H 630.823 -2.12399 -0.0074788 0
M  V30 6649 H 633.086 -0.94571 -0.0658529 0
M  V30 6650 H 632.792 -3.41743 -0.830947 0
M  V30 6651 H 632.666 -2.83949 -2.483 0
M  V30 6652 H 635.053 -1.86765 -2.2848 0
M  V30 6653 H 635.134 -2.48004 -0.626713 0
M  V30 6654 H 634.778 -4.84987 -1.50833 0
M  V30 6655 H 634.708 -4.20641 -3.1681 0
M  V30 6656 H 637.199 -3.24415 -1.93812 0
M  V30 6657 H 637.512 -6.93318 -3.41365 0
M  V30 6658 H 635.857 -6.23212 -3.07623 0
M  V30 6659 H 639.048 -4.06105 -2.32801 0
M  V30 6660 H 639.221 -5.74317 -3.00107 0
M  V30 6661 N 632.627 0.916307 -1.28225 0
M  V30 6662 C 633.874 1.66518 -1.1523 0
M  V30 6663 C 634.202 1.92178 0.299632 0
M  V30 6664 O 633.457 1.51842 1.2346 0
M  V30 6665 C 633.756 3.03125 -1.8934 0
M  V30 6666 C 633.422 2.97135 -3.39148 0
M  V30 6667 C 632.084 2.95208 -3.80007 0
M  V30 6668 C 634.436 2.87574 -4.34685 0
M  V30 6669 C 631.764 2.81518 -5.14747 0
M  V30 6670 C 634.116 2.75424 -5.69495 0
M  V30 6671 C 632.78 2.71854 -6.09632 0
M  V30 6672 H 632.05 0.609334 -0.421655 0
M  V30 6673 H 634.697 1.06776 -1.58969 0
M  V30 6674 H 633.002 3.66639 -1.38143 0
M  V30 6675 H 634.699 3.59968 -1.76704 0
M  V30 6676 H 631.289 2.99428 -3.06661 0
M  V30 6677 H 635.473 2.88152 -4.04082 0
M  V30 6678 H 630.729 2.77148 -5.44976 0
M  V30 6679 H 634.903 2.66993 -6.43185 0
M  V30 6680 H 632.53 2.61003 -7.1399 0
M  V30 6681 N 634.105 1.10431 1.1244 0
M  V30 6682 C 635.352 0.846717 1.83948 0
M  V30 6683 C 635.68 -0.627709 1.84093 0
M  V30 6684 O 634.935 -1.47876 1.28184 0
M  V30 6685 C 635.234 1.34022 3.3132 0
M  V30 6686 C 634.9 2.82606 3.51347 0
M  V30 6687 C 633.562 3.23182 3.56521 0
M  V30 6688 C 635.914 3.78356 3.58464 0
M  V30 6689 C 633.242 4.58258 3.66356 0
M  V30 6690 C 635.594 5.13234 3.69829 0
M  V30 6691 C 634.258 5.53384 3.73259 0
M  V30 6692 H 633.528 0.309836 0.673114 0
M  V30 6693 H 636.175 1.38091 1.32677 0
M  V30 6694 H 634.48 0.726047 3.85014 0
M  V30 6695 H 636.177 1.11739 3.85118 0
M  V30 6696 H 632.767 2.50212 3.47983 0
M  V30 6697 H 636.951 3.48115 3.53737 0
M  V30 6698 H 632.207 4.88787 3.67284 0
M  V30 6699 H 636.381 5.87272 3.74279 0
M  V30 6700 H 634.008 6.58045 3.80633 0
M  V30 6701 N 635.583 -1.29855 0.893053 0
M  V30 6702 C 636.513 -2.3035 0.382249 0
M  V30 6703 C 637.494 -1.61328 -0.539203 0
M  V30 6704 O 638.679 -1.88882 -0.451342 0
M  V30 6705 C 635.809 -3.45024 -0.396983 0
M  V30 6706 C 634.763 -4.258 0.433437 0
M  V30 6707 C 634.089 -5.32605 -0.472889 0
M  V30 6708 C 635.389 -4.94549 1.67984 0
M  V30 6709 H 637.083 -2.73325 1.22205 0
M  V30 6710 H 634.629 -1.314 0.589073 0
M  V30 6711 H 636.582 -4.14398 -0.765024 0
M  V30 6712 H 635.306 -3.00875 -1.2705 0
M  V30 6713 H 633.965 -3.58125 0.783723 0
M  V30 6714 H 633.613 -4.84702 -1.34435 0
M  V30 6715 H 633.313 -5.87547 0.0789958 0
M  V30 6716 H 634.837 -6.04832 -0.837269 0
M  V30 6717 H 636.251 -5.56395 1.38192 0
M  V30 6718 H 634.648 -5.59393 2.17254 0
M  V30 6719 H 635.718 -4.20215 2.41965 0
M  V30 6720 N 637.061 -0.65484 -1.43351 0
M  V30 6721 C 638.024 0.0263562 -2.29185 0
M  V30 6722 C 639.024 0.748951 -1.42293 0
M  V30 6723 O 640.214 0.589957 -1.63906 0
M  V30 6724 C 637.346 1.04806 -3.2439 0
M  V30 6725 H 638.539 -0.728883 -2.90908 0
M  V30 6726 H 636.092 -0.416149 -1.50658 0
M  V30 6727 H 636.827 1.83247 -2.67565 0
M  V30 6728 H 636.612 0.533554 -3.88453 0
M  V30 6729 H 638.102 1.52372 -3.88809 0
M  V30 6730 N 638.539 1.52521 -0.396863 0
M  V30 6731 C 639.788 2.00857 0.184184 0
M  V30 6732 C 640.101 1.28733 1.47265 0
M  V30 6733 O 641.307 1.67821 2.13421 0
M  V30 6734 C 639.763 3.57901 0.378787 0
M  V30 6735 C 639.371 4.38931 -0.896873 0
M  V30 6736 C 641.115 4.14504 0.915789 0
M  V30 6737 C 639.022 5.87591 -0.670133 0
M  V30 6738 H 637.952 0.750496 0.0726055 0
M  V30 6739 H 640.603 1.75965 -0.520425 0
M  V30 6740 H 638.985 3.79072 1.14543 0
M  V30 6741 H 640.159 4.29524 -1.66872 0
M  V30 6742 H 638.474 3.93586 -1.35938 0
M  V30 6743 H 641.071 5.23236 1.10126 0
M  V30 6744 H 641.414 3.71076 1.88701 0
M  V30 6745 H 641.947 3.97253 0.208523 0
M  V30 6746 H 638.686 6.35355 -1.61257 0
M  V30 6747 H 638.206 5.99767 0.0626368 0
M  V30 6748 H 639.885 6.46268 -0.307577 0
M  V30 6749 N 640.017 0.126909 1.57088 0
M  V30 6750 C 641.264 -0.529168 1.95464 0
M  V30 6751 C 641.592 -1.6618 1.01067 0
M  V30 6752 O 640.847 -1.95667 0.0360254 0
M  V30 6753 C 641.146 -1.095 3.40212 0
M  V30 6754 C 640.812 -0.0829015 4.50824 0
M  V30 6755 C 639.474 0.195377 4.80803 0
M  V30 6756 C 641.826 0.606411 5.1766 0
M  V30 6757 C 639.154 1.16912 5.74933 0
M  V30 6758 C 641.506 1.56884 6.12838 0
M  V30 6759 C 640.17 1.85502 6.41206 0
M  V30 6760 H 639.44 -0.193636 0.715252 0
M  V30 6761 H 642.087 0.209489 1.90351 0
M  V30 6762 H 640.392 -1.91058 3.42059 0
M  V30 6763 H 642.089 -1.61087 3.67222 0
M  V30 6764 H 638.679 -0.309979 4.27478 0
M  V30 6765 H 642.863 0.404597 4.94648 0
M  V30 6766 H 638.119 1.3975 5.95214 0
M  V30 6767 H 642.293 2.10859 6.6371 0
M  V30 6768 H 639.92 2.61109 7.13951 0
M  V30 6769 N 641.495 -1.56914 -0.146875 0
M  V30 6770 C 642.742 -1.83356 -0.859467 0
M  V30 6771 C 643.07 -0.707811 -1.81164 0
M  V30 6772 O 642.325 0.303155 -1.93338 0
M  V30 6773 C 642.624 -3.16128 -1.66727 0
M  V30 6774 C 642.29 -4.42586 -0.861881 0
M  V30 6775 C 640.952 -4.76929 -0.639687 0
M  V30 6776 C 643.304 -5.20344 -0.298643 0
M  V30 6777 C 640.632 -5.86491 0.156451 0
M  V30 6778 C 642.984 -6.30742 0.484536 0
M  V30 6779 C 641.648 -6.63635 0.717306 0
M  V30 6780 H 640.918 -0.670947 -0.314501 0
M  V30 6781 H 643.565 -1.91104 -0.123108 0
M  V30 6782 H 641.87 -3.03831 -2.47374 0
M  V30 6783 H 643.567 -3.33802 -2.2221 0
M  V30 6784 H 640.157 -4.15662 -1.04513 0
M  V30 6785 H 644.341 -4.94186 -0.457585 0
M  V30 6786 H 639.597 -6.10419 0.346292 0
M  V30 6787 H 643.771 -6.90188 0.928105 0
M  V30 6788 H 641.398 -7.48367 1.33607 0
M  V30 6789 N 642.974 0.416227 -1.52004 0
M  V30 6790 C 644.199 1.19029 -1.69843 0
M  V30 6791 C 644.624 1.83708 -0.404103 0
M  V30 6792 O 643.982 1.69711 0.637787 0
M  V30 6793 C 644.03 2.23439 -2.83032 0
M  V30 6794 O 643.134 3.29419 -2.48106 0
M  V30 6795 H 642.475 0.347785 -0.565634 0
M  V30 6796 H 645.005 0.488871 -1.98674 0
M  V30 6797 H 645.015 2.67884 -3.07737 0
M  V30 6798 H 643.69 1.75745 -3.76944 0
M  V30 6799 H 642.267 2.90303 -2.34048 0
M  V30 6800 N 644.452 1.42507 0.673017 0
M  V30 6801 C 645.385 1.40557 1.79774 0
M  V30 6802 C 646.363 0.269606 1.60349 0
M  V30 6803 O 647.547 0.460105 1.82798 0
M  V30 6804 C 644.674 1.19815 3.168 0
M  V30 6805 C 643.72 2.36429 3.5497 0
M  V30 6806 S 644.553 3.98963 3.57196 0
M  V30 6807 C 645.709 3.80567 4.9691 0
M  V30 6808 H 645.942 2.35734 1.81154 0
M  V30 6809 H 643.475 1.293 0.843846 0
M  V30 6810 H 645.433 1.08535 3.95892 0
M  V30 6811 H 644.094 0.262215 3.13004 0
M  V30 6812 H 643.287 2.17669 4.54573 0
M  V30 6813 H 642.889 2.44233 2.83242 0
M  V30 6814 H 645.181 3.41668 5.85038 0
M  V30 6815 H 646.124 4.79852 5.20718 0
M  V30 6816 H 646.532 3.13399 4.69512 0
M  V30 6817 N 645.93 -0.909495 1.28709 0
M  V30 6818 C 646.893 -1.99399 1.13016 0
M  V30 6819 C 647.893 -1.60654 0.068536 0
M  V30 6820 O 649.083 -1.71334 0.314671 0
M  V30 6821 C 646.215 -3.33078 0.726085 0
M  V30 6822 H 647.408 -2.14751 2.09338 0
M  V30 6823 H 644.961 -1.09272 1.11756 0
M  V30 6824 H 645.696 -3.23428 -0.23771 0
M  V30 6825 H 645.481 -3.62562 1.49302 0
M  V30 6826 H 646.971 -4.12681 0.639058 0
M  V30 6827 N 647.408 -1.11026 -1.11852 0
M  V30 6828 C 648.338 -0.786812 -2.19844 0
M  V30 6829 C 649.319 0.242935 -1.68356 0
M  V30 6830 O 650.504 0.107355 -1.93903 0
M  V30 6831 C 647.634 -0.224516 -3.46574 0
M  V30 6832 C 646.588 -1.18564 -4.1125 0
M  V30 6833 C 645.914 -0.484261 -5.32503 0
M  V30 6834 C 647.214 -2.53465 -4.56676 0
M  V30 6835 H 648.908 -1.68978 -2.47158 0
M  V30 6836 H 646.454 -0.813906 -1.18792 0
M  V30 6837 H 648.407 0.0139435 -4.21398 0
M  V30 6838 H 647.131 0.713722 -3.18706 0
M  V30 6839 H 645.79 -1.40966 -3.38414 0
M  V30 6840 H 645.438 0.458646 -5.00905 0
M  V30 6841 H 645.138 -1.12526 -5.76725 0
M  V30 6842 H 646.662 -0.254492 -6.10069 0
M  V30 6843 H 648.076 -2.35177 -5.22843 0
M  V30 6844 H 646.473 -3.13507 -5.11697 0
M  V30 6845 H 647.543 -3.13008 -3.70343 0
M  V30 6846 N 648.886 1.2938 -0.899927 0
M  V30 6847 C 650.132 1.9584 -0.526742 0
M  V30 6848 C 650.465 1.70774 0.924651 0
M  V30 6849 O 649.74 1.02084 1.65557 0
M  V30 6850 C 650.023 3.50638 -0.820062 0
M  V30 6851 C 649.876 3.85161 -2.32317 0
M  V30 6852 C 651.195 4.3903 -0.30671 0
M  V30 6853 H 648.314 0.711322 -0.192848 0
M  V30 6854 H 650.956 1.52992 -1.12665 0
M  V30 6855 H 649.106 3.87265 -0.309491 0
M  V30 6856 H 650.778 3.58477 -2.9033 0
M  V30 6857 H 649.021 3.32696 -2.78381 0
M  V30 6858 H 649.692 4.93204 -2.47898 0
M  V30 6859 H 652.168 4.09396 -0.743908 0
M  V30 6860 H 651.044 5.46226 -0.541144 0
M  V30 6861 H 651.305 4.34937 0.792588 0
M  V30 6862 N 650.364 0.662433 1.43002 0
M  V30 6863 C 651.297 -0.073459 2.28082 0
M  V30 6864 C 652.275 -0.820869 1.40358 0
M  V30 6865 O 653.459 -0.818545 1.698 0
M  V30 6866 C 650.586 -1.11097 3.19961 0
M  V30 6867 C 649.632 -0.460557 4.24006 0
M  V30 6868 S 650.465 0.772717 5.29896 0
M  V30 6869 C 651.621 -0.264028 6.25343 0
M  V30 6870 H 651.854 0.648227 2.90147 0
M  V30 6871 H 649.387 0.451566 1.47649 0
M  V30 6872 H 651.345 -1.70452 3.73439 0
M  V30 6873 H 650.006 -1.80503 2.57056 0
M  V30 6874 H 649.199 -1.24299 4.88432 0
M  V30 6875 H 648.801 0.0591038 3.73953 0
M  V30 6876 H 651.093 -1.12748 6.68052 0
M  V30 6877 H 652.036 0.345443 7.07257 0
M  V30 6878 H 652.444 -0.603964 5.6126 0
M  V30 6879 N 651.842 -1.52309 0.404946 0
M  V30 6880 C 653.067 -2.06666 -0.1743 0
M  V30 6881 C 653.492 -1.27341 -1.38441 0
M  V30 6882 O 652.85 -0.302539 -1.78758 0
M  V30 6883 C 652.898 -3.57014 -0.507262 0
M  V30 6884 O 652.002 -3.80144 -1.59889 0
M  V30 6885 H 651.343 -0.663807 -0.0160273 0
M  V30 6886 H 653.873 -1.96297 0.576937 0
M  V30 6887 H 653.883 -4.00724 -0.767098 0
M  V30 6888 H 652.558 -4.14184 0.377368 0
M  V30 6889 H 651.135 -3.48316 -1.33155 0
M  V30 6890 N 653.32 -0.135238 -1.57019 0
M  V30 6891 C 654.25 0.805235 -2.19176 0
M  V30 6892 C 655.231 1.2656 -1.13651 0
M  V30 6893 O 656.416 1.32528 -1.4195 0
M  V30 6894 C 653.546 2.04914 -2.80406 0
M  V30 6895 C 652.5 1.72598 -3.91655 0
M  V30 6896 C 651.826 3.04154 -4.39766 0
M  V30 6897 C 653.126 0.981709 -5.12991 0
M  V30 6898 H 654.82 0.287232 -2.98019 0
M  V30 6899 H 652.366 0.136714 -1.4335 0
M  V30 6900 H 654.319 2.71178 -3.22553 0
M  V30 6901 H 653.043 2.59067 -1.98877 0
M  V30 6902 H 651.702 1.08717 -3.50109 0
M  V30 6903 H 651.35 3.56274 -3.55075 0
M  V30 6904 H 651.05 2.83299 -5.14796 0
M  V30 6905 H 652.574 3.71509 -4.84576 0
M  V30 6906 H 653.988 1.5462 -5.52056 0
M  V30 6907 H 652.385 0.873533 -5.93708 0
M  V30 6908 H 653.455 -0.0286887 -4.84892 0
M  V30 6909 N 654.798 1.5699 0.138552 0
M  V30 6910 C 655.728 2.01933 1.17241 0
M  V30 6911 C 656.709 0.90033 1.44319 0
M  V30 6912 O 657.894 1.16872 1.55095 0
M  V30 6913 C 655.024 2.40711 2.50351 0
M  V30 6914 C 653.978 3.55874 2.37776 0
M  V30 6915 C 653.304 3.80491 3.75674 0
M  V30 6916 C 654.604 4.8826 1.85472 0
M  V30 6917 H 656.298 2.88551 0.798672 0
M  V30 6918 H 653.844 1.3882 0.382743 0
M  V30 6919 H 655.797 2.70754 3.22909 0
M  V30 6920 H 654.521 1.5104 2.89576 0
M  V30 6921 H 653.18 3.2601 1.67669 0
M  V30 6922 H 652.828 2.88057 4.12349 0
M  V30 6923 H 652.528 4.57998 3.68119 0
M  V30 6924 H 654.052 4.12967 4.49767 0
M  V30 6925 H 655.466 5.16965 2.4783 0
M  V30 6926 H 653.863 5.69631 1.88787 0
M  V30 6927 H 654.933 4.78071 0.810935 0
M  V30 6928 N 656.276 -0.40816 1.52223 0
M  V30 6929 C 657.522 -1.15673 1.66576 0
M  V30 6930 C 657.855 -1.90141 0.394996 0
M  V30 6931 O 657.13 -1.84798 -0.606613 0
M  V30 6932 C 657.413 -2.15042 2.88841 0
M  V30 6933 C 657.266 -1.44465 4.25969 0
M  V30 6934 C 658.585 -3.15699 3.0663 0
M  V30 6935 H 655.704 -0.41916 0.606196 0
M  V30 6936 H 658.346 -0.442348 1.84779 0
M  V30 6937 H 656.496 -2.75964 2.73452 0
M  V30 6938 H 658.168 -0.866544 4.53088 0
M  V30 6939 H 656.411 -0.746612 4.27327 0
M  V30 6940 H 657.082 -2.16976 5.07568 0
M  V30 6941 H 659.558 -2.64854 3.20923 0
M  V30 6942 H 658.434 -3.82491 3.9369 0
M  V30 6943 H 658.695 -3.83481 2.19987 0
M  V30 6944 N 657.755 -1.42862 -0.66545 0
M  V30 6945 C 658.685 -1.49867 -1.79059 0
M  V30 6946 C 659.666 -0.354394 -1.66367 0
M  V30 6947 O 660.851 -0.569969 -1.85647 0
M  V30 6948 C 657.981 -1.40943 -3.17415 0
M  V30 6949 C 656.935 -2.53495 -3.44854 0
M  V30 6950 C 656.261 -2.29626 -4.82883 0
M  V30 6951 C 657.561 -3.95781 -3.40815 0
M  V30 6952 H 659.255 -2.44037 -1.73453 0
M  V30 6953 H 656.801 -1.17456 -0.833071 0
M  V30 6954 H 658.754 -1.4445 -3.95869 0
M  V30 6955 H 657.478 -0.432716 -3.23721 0
M  V30 6956 H 656.137 -2.4932 -2.68766 0
M  V30 6957 H 655.785 -1.30226 -4.8585 0
M  V30 6958 H 655.485 -3.05065 -5.02204 0
M  V30 6959 H 657.009 -2.34897 -5.63609 0
M  V30 6960 H 658.423 -4.01508 -4.09224 0
M  V30 6961 H 656.82 -4.71148 -3.71672 0
M  V30 6962 H 657.89 -4.21786 -2.39216 0
M  V30 6963 N 659.233 0.902656 -1.29189 0
M  V30 6964 C 660.479 1.65532 -1.17163 0
M  V30 6965 C 660.812 1.92216 0.276879 0
M  V30 6966 O 660.087 1.53048 1.20027 0
M  V30 6967 C 660.37 3.00629 -1.98228 0
M  V30 6968 C 660.223 2.81029 -3.51202 0
M  V30 6969 C 661.542 4.01321 -1.80635 0
M  V30 6970 H 658.661 0.60071 -0.426985 0
M  V30 6971 H 661.303 1.04578 -1.5863 0
M  V30 6972 H 659.453 3.52656 -1.62991 0
M  V30 6973 H 661.125 2.35927 -3.96404 0
M  V30 6974 H 659.368 2.1587 -3.76275 0
M  V30 6975 H 660.039 3.77014 -4.03192 0
M  V30 6976 H 662.515 3.58394 -2.11406 0
M  V30 6977 H 661.391 4.93792 -2.3971 0
M  V30 6978 H 661.652 4.35505 -0.760754 0
M  V30 6979 N 660.711 1.11618 1.11262 0
M  V30 6980 C 661.643 0.734015 2.17129 0
M  V30 6981 C 662.656 -0.235243 1.61091 0
M  V30 6982 O 663.845 -0.0178597 1.78491 0
M  V30 6983 C 660.945 0.0643682 3.38839 0
M  V30 6984 C 660.118 1.06092 4.24339 0
M  V30 6985 C 659.177 0.420482 5.24517 0
M  V30 6986 O 658.203 1.07495 5.58957 0
M  V30 6987 N 659.405 -0.815828 5.74739 0
M  V30 6988 H 662.17 1.64492 2.50524 0
M  V30 6989 H 659.731 1.00664 1.26801 0
M  V30 6990 H 661.723 -0.375851 4.02951 0
M  V30 6991 H 660.293 -0.749147 3.03491 0
M  V30 6992 H 659.513 1.67903 3.56654 0
M  V30 6993 H 660.801 1.73507 4.78302 0
M  V30 6994 H 660.199 -1.36668 5.48943 0
M  V30 6995 H 658.756 -1.199 6.40677 0
M  V30 6996 N 662.189 -1.289 0.906776 0
M  V30 6997 C 663.152 -2.25777 0.394656 0
M  V30 6998 C 664.152 -1.53621 -0.475119 0
M  V30 6999 O 665.342 -1.71949 -0.279165 0
M  V30 7000 C 662.474 -3.38113 -0.43499 0
M  V30 7001 H 663.667 -2.72592 1.25033 0
M  V30 7002 H 661.22 -1.40463 0.685547 0
M  V30 7003 H 661.955 -2.96648 -1.31036 0
M  V30 7004 H 661.74 -3.91647 0.188334 0
M  V30 7005 H 663.23 -4.10168 -0.784365 0
M  V30 7006 N 663.667 -0.670007 -1.42649 0
M  V30 7007 C 664.597 -0.00258501 -2.335 0
M  V30 7008 C 665.578 0.794364 -1.50412 0
M  V30 7009 O 666.763 0.75248 -1.79029 0
M  V30 7010 C 663.893 0.952748 -3.33976 0
M  V30 7011 C 662.847 0.264733 -4.2718 0
M  V30 7012 C 662.173 1.33267 -5.17826 0
M  V30 7013 C 663.473 -0.853289 -5.15283 0
M  V30 7014 H 665.167 -0.761326 -2.89559 0
M  V30 7015 H 662.713 -0.367561 -1.3923 0
M  V30 7016 H 664.666 1.4287 -3.96442 0
M  V30 7017 H 663.39 1.74285 -2.7621 0
M  V30 7018 H 662.049 -0.190938 -3.66102 0
M  V30 7019 H 661.697 2.11464 -4.5639 0
M  V30 7020 H 661.397 0.877476 -5.81011 0
M  V30 7021 H 662.921 1.80965 -5.83167 0
M  V30 7022 H 664.335 -0.458763 -5.71462 0
M  V30 7023 H 662.732 -1.23398 -5.87276 0
M  V30 7024 H 663.802 -1.70412 -4.53969 0
M  V30 7025 O 665.184 1.51659 -0.55515 0
M  V30 7026 H 665.875 1.9363 -0.0521056 0
M  V30 END ATOM
M  V30 BEGIN BOND
M  V30 END BOND
M  V30 END CTAB
M  END
$$$$
