drugbank_target|P01375 Tumor necrosis factor (DB00005; DB00051; DB00065; DB00608; DB00668; DB00852; DB01041; DB01296; DB01407; DB01411; DB01427; DB04956; DB05017; DB05207; DB05218; DB05303; DB05412; DB05470; DB05513; DB05744; DB05758; DB05767; DB05869; DB05879; DB05968; DB05992; DB06444; DB06495; DB06674; DB08904; DB08910; DB09221; DB10770; DB10772; DB11752; DB11967; DB12140; DB13751)
 OpenBabel12092119373D

  0  0  0     0  0            999 V3000
M  V30 BEGIN CTAB
M  V30 COUNTS 3632 3671 0 0 0
M  V30 BEGIN ATOM
M  V30 1 H -0.908 1.98254 -0.117106 0
M  V30 2 N 0 1.576 0 0
M  V30 3 C 0.933 2.03868 1.02534 0
M  V30 4 C 1.911 0.928543 1.3348 0
M  V30 5 O 3.095 1.19667 1.45644 0
M  V30 6 C 0.222 2.43627 2.35294 0
M  V30 7 C -0.732 3.65373 2.2001 0
M  V30 8 S 0.101 5.13292 1.52614 0
M  V30 9 C 1.257 5.56322 2.86805 0
M  V30 10 H 1.49 2.90518 0.631377 0
M  V30 11 H -0.977 1.52953 0.210867 0
M  V30 12 H 0.981 2.67203 3.11629 0
M  V30 13 H -0.358 1.57376 2.7183 0
M  V30 14 H -1.165 3.90944 3.18086 0
M  V30 15 H -1.563 3.418 1.51819 0
M  V30 16 H 0.729 5.58782 3.83104 0
M  V30 17 H 1.672 6.56266 2.65933 0
M  V30 18 H 2.08 4.83886 2.90714 0
M  V30 19 N 1.4781 -0.272755 1.55222 0
M  V30 20 C 2.7031 -1.02683 1.80197 0
M  V30 21 C 3.1281 -1.79142 0.573551 0
M  V30 22 O 2.4861 -1.74917 -0.476849 0
M  V30 23 C 2.5341 -1.9609 3.02624 0
M  V30 24 O 1.6381 -3.04863 2.77727 0
M  V30 25 H 0.9791 -0.293557 0.595584 0
M  V30 26 H 3.5091 -0.30159 2.02365 0
M  V30 27 H 3.5191 -2.38039 3.31363 0
M  V30 28 H 2.1941 -1.39851 3.91682 0
M  V30 29 H 0.7711 -2.67228 2.60084 0
M  V30 30 N 2.9562 -1.48159 -0.537278 0
M  V30 31 C 4.1842 -1.59454 -1.31841 0
M  V30 32 C 4.5992 -0.252065 -1.8711 0
M  V30 33 O 3.9562 0.757621 -1.66031 0
M  V30 34 C 4.0072 -2.63546 -2.47439 0
M  V30 35 O 3.7282 -3.92583 -1.94449 0
M  V30 36 C 5.2292 -2.85212 -3.39366 0
M  V30 37 H 2.4492 -0.53785 -0.401196 0
M  V30 38 H 4.9932 -1.93932 -0.648891 0
M  V30 39 H 3.1482 -2.31946 -3.1029 0
M  V30 40 H 3.5622 -4.49629 -2.70063 0
M  V30 41 H 5.0362 -3.61863 -4.16844 0
M  V30 42 H 5.5132 -1.93765 -3.94147 0
M  V30 43 H 6.1192 -3.18086 -2.82314 0
M  V30 44 N 4.4343 0.785586 -1.36625 0
M  V30 45 C 5.3443 1.92964 -1.33425 0
M  V30 46 C 6.3603 1.72394 -0.235851 0
M  V30 47 O 7.5363 1.95866 -0.468878 0
M  V30 48 C 4.6013 3.27884 -1.12662 0
M  V30 49 C 3.6623 3.61204 -2.32013 0
M  V30 50 C 2.8953 4.89687 -2.12231 0
M  V30 51 O 3.1183 5.59704 -1.09945 0
M  V30 52 O 2.0523 5.21752 -3.00098 0
M  V30 53 H 5.8783 1.98613 -2.29753 0
M  V30 54 H 3.4633 0.926384 -1.17211 0
M  V30 55 H 5.3453 4.08614 -1.03016 0
M  V30 56 H 4.0203 3.23118 -0.193991 0
M  V30 57 H 2.9273 2.80765 -2.47228 0
M  V30 58 H 4.2603 3.70698 -3.23796 0
M  V30 59 N 5.9124 1.20967 1.01018 0
M  V30 60 C 7.1374 1.0503 1.78839 0
M  V30 61 C 7.5624 -0.395752 1.8389 0
M  V30 62 O 6.9204 -1.28529 1.27867 0
M  V30 63 C 6.9684 1.64602 3.2084 0
M  V30 64 O 6.0724 0.887988 4.02726 0
M  V30 65 H 5.4134 0.369987 0.551367 0
M  V30 66 H 7.9434 1.60399 1.27018 0
M  V30 67 H 7.9534 1.68607 3.71532 0
M  V30 68 H 6.6284 2.69841 3.16479 0
M  V30 69 H 5.2054 0.922648 3.61305 0
M  V30 70 N 7.3905 -1.2043 1.01659 0
M  V30 71 C 8.3235 -2.21924 0.531521 0
M  V30 72 C 9.3015 -1.57054 -0.421032 0
M  V30 73 O 10.4855 -1.85389 -0.341035 0
M  V30 74 C 7.6125 -3.37942 -0.226496 0
M  V30 75 C 6.6585 -4.21115 0.67561 0
M  V30 76 S 7.4915 -4.90674 2.14475 0
M  V30 77 C 8.6475 -6.10113 1.3969 0
M  V30 78 H 8.8805 -2.62725 1.3915 0
M  V30 79 H 6.4135 -1.30481 0.825479 0
M  V30 80 H 8.3715 -4.05196 -0.657738 0
M  V30 81 H 7.0325 -2.956 -1.06205 0
M  V30 82 H 6.2255 -5.03918 0.091108 0
M  V30 83 H 5.8275 -3.59115 1.04463 0
M  V30 84 H 8.1195 -6.7411 0.676897 0
M  V30 85 H 9.0625 -6.73022 2.20107 0
M  V30 86 H 9.4705 -5.57283 0.899786 0
M  V30 87 N 8.8686 -0.792821 -1.36206 0
M  V30 88 C 10.1176 -0.363353 -1.984 0
M  V30 89 C 10.4306 1.07172 -1.63626 0
M  V30 90 O 11.6366 1.60362 -2.19081 0
M  V30 91 C 10.0926 -0.59872 -3.54885 0
M  V30 92 C 9.7006 -2.04543 -3.9858 0
M  V30 93 C 11.4446 -0.233926 -4.23855 0
M  V30 94 C 9.3516 -2.22727 -5.47856 0
M  V30 95 H 8.2816 -0.13212 -0.742334 0
M  V30 96 H 10.9326 -0.974935 -1.55458 0
M  V30 97 H 9.3146 0.0826222 -3.95914 0
M  V30 98 H 10.4886 -2.76345 -3.68741 0
M  V30 99 H 8.8036 -2.36879 -3.42458 0
M  V30 100 H 11.4006 -0.348027 -5.33566 0
M  V30 101 H 11.7436 0.818351 -4.08177 0
M  V30 102 H 12.2766 -0.868639 -3.882 0
M  V30 103 H 9.0156 -3.2635 -5.68486 0
M  V30 104 H 8.5356 -1.55434 -5.7931 0
M  V30 105 H 10.2146 -2.03607 -6.14128 0
M  V30 106 N 10.3467 1.47872 -0.545128 0
M  V30 107 C 11.7627 1.5829 -0.204032 0
M  V30 108 C 11.9627 1.54529 1.29317 0
M  V30 109 O 11.0187 1.44232 2.07252 0
M  V30 110 C 12.3317 2.89304 -0.819987 0
M  V30 111 C 13.8797 3.02864 -0.790105 0
M  V30 112 C 14.3547 4.3656 -1.38491 0
M  V30 113 N 15.8457 4.43165 -1.34755 0
M  V30 114 C 16.5807 5.45153 -1.77753 0
M  V30 115 N 16.0767 6.54016 -2.2855 0
M  V30 116 N 17.8697 5.36125 -1.68897 0
M  V30 117 H 10.0207 1.4856 -1.51802 0
M  V30 118 H 12.2837 0.706305 -0.632327 0
M  V30 119 H 11.9897 2.97757 -1.87173 0
M  V30 120 H 11.8637 3.75957 -0.305915 0
M  V30 121 H 14.2507 2.94014 0.252913 0
M  V30 122 H 14.3317 2.17782 -1.34181 0
M  V30 123 H 13.9757 4.46164 -2.42693 0
M  V30 124 H 13.9057 5.20353 -0.808754 0
M  V30 125 H 16.3967 3.65083 -0.975855 0
M  V30 126 H 16.7097 7.27994 -2.59314 0
M  V30 127 H 15.0547 6.54938 -2.32553 0
M  V30 128 H 18.2457 4.49975 -1.28998 0
M  V30 129 H 18.4187 6.15472 -2.02726 0
M  V30 130 N 11.8248 0.280983 1.55075 0
M  V30 131 C 13.1018 -0.386207 1.91749 0
M  V30 132 C 13.4818 -1.73264 1.20594 0
M  V30 133 O 12.8298 -2.26034 0.334784 0
M  V30 134 C 13.0398 -0.520687 3.45094 0
M  V30 135 C 14.3878 -0.800865 4.16979 0
M  V30 136 O 15.4118 -0.605271 3.5102 0
M  V30 137 O 14.2708 -1.1753 5.33712 0
M  V30 138 H 11.3648 -0.212408 0.799257 0
M  V30 139 H 13.9108 0.327568 1.66509 0
M  V30 140 H 12.6828 0.426633 3.88967 0
M  V30 141 H 12.3058 -1.2837 3.76307 0
M  V30 142 N 13.3029 -1.57598 0.00835791 0
M  V30 143 C 14.5489 -1.91211 -0.675732 0
M  V30 144 C 14.8819 -0.883139 -1.72958 0
M  V30 145 O 14.1569 0.097016 -1.94258 0
M  V30 146 C 14.4399 -3.35379 -1.31123 0
M  V30 147 C 14.2929 -4.48999 -0.268356 0
M  V30 148 C 15.6119 -3.7912 -2.23508 0
M  V30 149 H 12.7309 -0.695374 -0.244179 0
M  V30 150 H 15.3729 -1.89901 0.0613655 0
M  V30 151 H 13.5229 -3.36626 -1.93946 0
M  V30 152 H 15.1949 -4.59887 0.360844 0
M  V30 153 H 13.4379 -4.31873 0.408482 0
M  V30 154 H 14.1089 -5.46851 -0.752218 0
M  V30 155 H 16.5849 -3.79477 -1.70693 0
M  V30 156 H 15.4609 -4.80729 -2.64936 0
M  V30 157 H 15.7219 -3.13455 -3.11766 0
M  V30 158 N 14.781 0.264519 -1.55364 0
M  V30 159 C 15.691 1.34902 -1.91934 0
M  V30 160 C 16.707 1.53595 -0.817593 0
M  V30 161 O 17.883 1.67558 -1.11742 0
M  V30 162 C 14.948 2.68676 -2.19121 0
M  V30 163 C 14.009 2.58657 -3.4263 0
M  V30 164 C 13.242 3.86051 -3.68511 0
M  V30 165 O 13.465 4.87126 -2.96757 0
M  V30 166 O 12.399 3.85744 -4.62045 0
M  V30 167 H 16.225 1.06883 -2.8427 0
M  V30 168 H 13.81 0.463775 -1.42019 0
M  V30 169 H 15.692 3.47759 -2.37995 0
M  V30 170 H 14.367 2.96463 -1.29966 0
M  V30 171 H 13.274 1.7792 -3.29082 0
M  V30 172 H 14.607 2.35818 -4.32031 0
M  V30 173 N 16.2591 1.48442 0.529413 0
M  V30 174 C 17.1891 1.65902 1.64313 0
M  V30 175 C 18.1701 0.507897 1.6234 0
M  V30 176 O 19.3551 0.740503 1.79528 0
M  V30 177 C 16.4851 1.69911 3.02898 0
M  V30 178 C 15.4391 2.8453 3.19729 0
M  V30 179 C 14.7651 2.73629 4.59381 0
M  V30 180 C 16.0651 4.25821 3.02447 0
M  V30 181 H 17.7591 2.5914 1.49955 0
M  V30 182 H 15.3051 1.24709 0.719982 0
M  V30 183 H 17.2581 1.80715 3.80684 0
M  V30 184 H 15.9821 0.732524 3.18279 0
M  V30 185 H 14.6411 2.73283 2.44361 0
M  V30 186 H 14.2891 1.74938 4.71599 0
M  V30 187 H 13.9891 3.50541 4.71588 0
M  V30 188 H 15.5131 2.86401 5.39265 0
M  V30 189 H 16.9271 4.37898 3.70024 0
M  V30 190 H 15.3241 5.03735 3.26146 0
M  V30 191 H 16.3941 4.42244 1.98867 0
M  V30 192 N 17.7372 -0.778329 1.37039 0
M  V30 193 C 18.7002 -1.87301 1.32102 0
M  V30 194 C 19.7002 -1.59198 0.226405 0
M  V30 195 O 20.8902 -1.67403 0.481861 0
M  V30 196 C 18.0222 -3.24309 1.05055 0
M  V30 197 H 19.2152 -1.93093 2.29467 0
M  V30 198 H 16.7682 -0.977358 1.21973 0
M  V30 199 H 17.5032 -3.24196 0.0819373 0
M  V30 200 H 17.2882 -3.46098 1.84279 0
M  V30 201 H 18.7782 -4.04382 1.04234 0
M  V30 202 N 19.2153 -1.21501 -1.00376 0
M  V30 203 C 20.1253 -0.991447 -2.12621 0
M  V30 204 C 21.1413 0.0568446 -1.73907 0
M  V30 205 O 22.3173 -0.13348 -2.00957 0
M  V30 206 C 19.3823 -0.560312 -3.42142 0
M  V30 207 C 18.4433 -1.68096 -3.95022 0
M  V30 208 C 17.6763 -1.2703 -5.18362 0
M  V30 209 O 17.8993 -0.144438 -5.70217 0
M  V30 210 O 16.8333 -2.08269 -5.64719 0
M  V30 211 H 20.6593 -1.93158 -2.34358 0
M  V30 212 H 18.2443 -0.999999 -1.10997 0
M  V30 213 H 20.1263 -0.329724 -4.20108 0
M  V30 214 H 18.8013 0.351089 -3.2179 0
M  V30 215 H 17.7083 -1.96597 -3.18278 0
M  V30 216 H 19.0413 -2.56983 -4.19786 0
M  V30 217 N 20.6934 1.19889 -1.02296 0
M  V30 218 C 21.6034 2.26571 -0.608508 0
M  V30 219 C 22.6194 1.70299 0.356964 0
M  V30 220 O 23.7954 2.00235 0.216326 0
M  V30 221 C 20.8604 3.46677 0.0402814 0
M  V30 222 C 19.9214 4.18153 -0.97194 0
M  V30 223 C 19.1544 5.32525 -0.354016 0
M  V30 224 O 19.3774 5.64112 0.844604 0
M  V30 225 O 18.3114 5.92242 -1.07391 0
M  V30 226 H 22.1374 2.64251 -1.49684 0
M  V30 227 H 19.7224 1.26629 -0.792809 0
M  V30 228 H 21.6044 4.19475 0.402324 0
M  V30 229 H 20.2794 3.10858 0.902707 0
M  V30 230 H 19.1864 3.47499 -1.38546 0
M  V30 231 H 20.5194 4.57927 -1.80454 0
M  V30 232 N 22.1715 0.800033 1.35784 0
M  V30 233 C 23.1345 0.211565 2.28221 0
M  V30 234 C 24.1345 -0.59728 1.49296 0
M  V30 235 O 25.3245 -0.416721 1.69142 0
M  V30 236 C 22.4565 -0.705846 3.33513 0
M  V30 237 H 23.6495 1.02677 2.81776 0
M  V30 238 H 21.2025 0.570211 1.45528 0
M  V30 239 H 21.9375 -1.54498 2.85133 0
M  V30 240 H 21.7225 -0.127655 3.91892 0
M  V30 241 H 23.2125 -1.11211 4.02519 0
M  V30 242 N 23.6496 -1.47581 0.552962 0
M  V30 243 C 24.5796 -2.32762 -0.185451 0
M  V30 244 C 25.5606 -1.43527 -0.912905 0
M  V30 245 O 26.7456 -1.72388 -0.894201 0
M  V30 246 C 23.8756 -3.25219 -1.21859 0
M  V30 247 C 22.8296 -4.23661 -0.607864 0
M  V30 248 C 22.1556 -5.05413 -1.74533 0
M  V30 249 C 23.4556 -5.20481 0.435582 0
M  V30 250 H 25.1496 -2.94749 0.525684 0
M  V30 251 H 22.6956 -1.41738 0.254251 0
M  V30 252 H 24.6486 -3.8365 -1.7433 0
M  V30 253 H 23.3726 -2.61279 -1.95961 0
M  V30 254 H 22.0316 -3.66451 -0.104489 0
M  V30 255 H 21.6796 -4.3788 -2.47529 0
M  V30 256 H 21.3796 -5.72059 -1.34249 0
M  V30 257 H 22.9036 -5.66701 -2.27338 0
M  V30 258 H 24.3176 -5.733 -0.00290157 0
M  V30 259 H 22.7146 -5.95305 0.757067 0
M  V30 260 H 23.7846 -4.66217 1.33303 0
M  V30 261 N 25.1277 -0.289203 -1.54924 0
M  V30 262 C 26.5387 0.205791 -1.85562 0
M  V30 263 C 26.8897 1.54351 -1.2112 0
M  V30 264 O 26.0147 2.10435 -0.504601 0
M  V30 265 C 26.6097 0.380177 -3.3666 0
M  V30 266 C 25.1687 0.819395 -3.67373 0
M  V30 267 C 24.3157 -0.079159 -2.77187 0
M  V30 268 H 27.2667 -0.510577 -1.50262 0
M  V30 269 H 27.2877 1.21659 -3.60526 0
M  V30 270 H 26.7997 -0.593589 -3.83534 0
M  V30 271 H 24.9007 1.80413 -3.26009 0
M  V30 272 H 25.0137 0.646957 -4.74712 0
M  V30 273 H 23.3777 0.439565 -2.50878 0
M  V30 274 H 24.1607 -1.04906 -3.26878 0
M  V30 275 N 26.6058 1.57591 -0.0167156 0
M  V30 276 C 27.5528 2.09462 0.969251 0
M  V30 277 C 28.5228 0.99381 1.33089 0
M  V30 278 O 29.7078 1.26726 1.42636 0
M  V30 279 C 26.8478 2.61622 2.25051 0
M  V30 280 C 25.9608 3.85666 1.94642 0
M  V30 281 C 25.0958 4.26266 3.16972 0
M  V30 282 C 24.1348 5.43101 2.82326 0
M  V30 283 N 23.2718 5.78915 3.97243 0
M  V30 284 H 28.1118 2.93428 0.519997 0
M  V30 285 H 25.6488 1.45044 0.245087 0
M  V30 286 H 27.6068 2.89949 2.99976 0
M  V30 287 H 26.2368 1.80505 2.67615 0
M  V30 288 H 25.2888 3.64145 1.10013 0
M  V30 289 H 26.6008 4.70678 1.65117 0
M  V30 290 H 25.7548 4.55963 4.00228 0
M  V30 291 H 24.4938 3.39996 3.49648 0
M  V30 292 H 23.4988 5.1311 1.97479 0
M  V30 293 H 24.7238 6.3106 2.50879 0
M  V30 294 H 22.6698 4.95602 4.29785 0
M  V30 295 H 22.5868 6.58539 3.71299 0
M  V30 296 H 23.8548 6.13212 4.81239 0
M  V30 297 N 28.0839 -0.256276 1.55502 0
M  V30 298 C 29.0309 -1.31714 1.89526 0
M  V30 299 C 30.0009 -1.4828 0.748479 0
M  V30 300 O 31.1859 -1.62416 1.00128 0
M  V30 301 C 28.3259 -2.66933 2.18725 0
M  V30 302 C 27.4389 -2.58452 3.4616 0
M  V30 303 C 26.5739 -3.85961 3.64976 0
M  V30 304 C 25.6129 -3.72059 4.86044 0
M  V30 305 N 24.7499 -4.9144 5.01429 0
M  V30 306 H 29.5899 -1.01998 2.80001 0
M  V30 307 H 27.1269 -0.492413 1.38613 0
M  V30 308 H 29.0849 -3.4563 2.33657 0
M  V30 309 H 27.7149 -2.94816 1.31466 0
M  V30 310 H 26.7669 -1.71374 3.3961 0
M  V30 311 H 28.0789 -2.44085 4.34999 0
M  V30 312 H 27.2329 -4.73101 3.79816 0
M  V30 313 H 25.9719 -4.03215 2.74353 0
M  V30 314 H 24.9769 -2.83302 4.7119 0
M  V30 315 H 26.2019 -3.56309 5.78118 0
M  V30 316 H 24.1479 -5.09072 4.13741 0
M  V30 317 H 24.0649 -4.79668 5.84341 0
M  V30 318 H 25.3329 -5.80104 5.20672 0
M  V30 319 N 29.562 -1.4872 -0.521534 0
M  V30 320 C 30.79 -1.60843 -1.30142 0
M  V30 321 C 31.205 -0.271897 -1.86832 0
M  V30 322 O 30.562 0.739969 -1.66825 0
M  V30 323 C 30.613 -2.66155 -2.4463 0
M  V30 324 O 30.334 -3.94623 -1.90275 0
M  V30 325 C 31.835 -2.88795 -3.36322 0
M  V30 326 H 29.055 -0.542075 -0.395468 0
M  V30 327 H 31.599 -1.94609 -0.628285 0
M  V30 328 H 29.754 -2.35224 -3.07812 0
M  V30 329 H 30.168 -4.52468 -2.65279 0
M  V30 330 H 31.642 -3.66264 -4.12983 0
M  V30 331 H 32.119 -1.97934 -3.9207 0
M  V30 332 H 32.725 -3.21063 -2.78924 0
M  V30 333 N 31.0401 0.771051 -1.3745 0
M  V30 334 C 32.2881 1.52661 -1.32435 0
M  V30 335 C 32.6091 1.9479 0.0905024 0
M  V30 336 O 31.8791 1.66348 1.03466 0
M  V30 337 H 30.4591 0.566218 -0.487244 0
M  V30 338 H 33.1211 0.917636 -1.71946 0
M  V30 339 H 32.2171 2.42568 -1.96385 0
M  V30 340 N 32.5182 1.22032 0.997298 0
M  V30 341 C 33.7662 1.04016 1.73278 0
M  V30 342 C 34.0872 -0.426255 1.90284 0
M  V30 343 O 33.3572 -1.30694 1.45931 0
M  V30 344 H 31.9372 0.381897 0.642 0
M  V30 345 H 34.5992 1.5347 1.20137 0
M  V30 346 H 33.6952 1.51441 2.72896 0
M  V30 347 N 33.9963 -1.19345 1.0293 0
M  V30 348 C 35.4073 -1.70725 0.755633 0
M  V30 349 C 35.7583 -1.82326 -0.724676 0
M  V30 350 O 34.8833 -1.49471 -1.56484 0
M  V30 351 C 35.4783 -3.10084 1.36503 0
M  V30 352 C 34.0373 -3.58723 1.13994 0
M  V30 353 C 33.1843 -2.35577 1.46283 0
M  V30 354 H 36.1353 -1.0418 1.19718 0
M  V30 355 H 36.1563 -3.72787 0.762217 0
M  V30 356 H 35.6683 -3.01609 2.44241 0
M  V30 357 H 33.7693 -3.72512 0.0807901 0
M  V30 358 H 33.8823 -4.42816 1.82894 0
M  V30 359 H 32.2463 -2.38935 0.88217 0
M  V30 360 H 33.0293 -2.29731 2.55105 0
M  V30 361 N 35.4744 -0.807222 -1.35358 0
M  V30 362 C 36.4064 -0.175717 -2.28525 0
M  V30 363 C 37.4194 0.625354 -1.5031 0
M  V30 364 O 38.6084 0.457611 -1.72535 0
M  V30 365 C 35.7084 0.773471 -3.29956 0
M  V30 366 C 34.8814 0.0186296 -4.37396 0
M  V30 367 C 33.9404 0.886395 -5.18681 0
M  V30 368 O 32.9664 0.337106 -5.68201 0
M  V30 369 N 34.1684 2.20839 -5.36852 0
M  V30 370 H 36.9334 -0.976091 -2.83359 0
M  V30 371 H 34.4944 -0.662737 -1.47714 0
M  V30 372 H 36.4864 1.35824 -3.81227 0
M  V30 373 H 35.0564 1.47465 -2.75632 0
M  V30 374 H 34.2764 -0.747349 -3.87051 0
M  V30 375 H 35.5644 -0.501577 -5.06322 0
M  V30 376 H 34.9624 2.67858 -4.98265 0
M  V30 377 H 33.5194 2.74237 -5.91301 0
M  V30 378 N 36.9525 1.47285 -0.560781 0
M  V30 379 C 38.2005 2.02064 -0.0379868 0
M  V30 380 C 38.5215 1.43711 1.31803 0
M  V30 381 O 37.7915 0.61362 1.86042 0
M  V30 382 H 36.3715 0.746918 -0.0110531 0
M  V30 383 H 39.0335 1.80648 -0.731598 0
M  V30 384 H 38.1295 3.12064 0.0474463 0
M  V30 385 N 38.4306 0.297415 1.54768 0
M  V30 386 C 39.6556 -0.318435 2.04941 0
M  V30 387 C 40.0806 -1.4701 1.17345 0
M  V30 388 O 39.4386 -1.80436 0.176758 0
M  V30 389 C 39.4866 -0.755749 3.52592 0
M  V30 390 O 38.5906 -1.86088 3.68028 0
M  V30 391 H 37.9316 -0.062421 0.661059 0
M  V30 392 H 40.4616 0.438215 1.99852 0
M  V30 393 H 40.4716 -1.04552 3.94376 0
M  V30 394 H 39.1466 0.0867233 4.1581 0
M  V30 395 H 37.7236 -1.57193 3.38149 0
M  V30 396 N 39.9087 -1.5758 0.0250728 0
M  V30 397 C 41.3247 -1.56124 -0.331282 0
M  V30 398 C 41.5247 -1.03029 -1.73169 0
M  V30 399 O 40.5807 -0.675215 -2.43305 0
M  V30 400 C 41.8937 -3.00139 -0.183584 0
M  V30 401 C 43.4417 -3.11946 -0.256654 0
M  V30 402 C 43.9167 -4.57793 -0.137792 0
M  V30 403 N 45.4077 -4.6279 -0.194904 0
M  V30 404 C 46.1427 -5.7326 -0.126655 0
M  V30 405 N 45.6387 -6.928 -0.00755288 0
M  V30 406 N 47.4317 -5.61811 -0.180348 0
M  V30 407 H 39.5827 -1.90424 0.94087 0
M  V30 408 H 41.8457 -0.875761 0.362968 0
M  V30 409 H 41.5517 -3.4292 0.780927 0
M  V30 410 H 41.4257 -3.64899 -0.955448 0
M  V30 411 H 43.8127 -2.69079 -1.21162 0
M  V30 412 H 43.8937 -2.49915 0.545517 0
M  V30 413 H 43.5377 -5.01339 0.813739 0
M  V30 414 H 43.4677 -5.17798 -0.958775 0
M  V30 415 H 45.9587 -3.76807 -0.287267 0
M  V30 416 H 46.2717 -7.72791 0.0379428 0
M  V30 417 H 44.6167 -6.94995 0.0271731 0
M  V30 418 H 47.8077 -4.6731 -0.271767 0
M  V30 419 H 47.9807 -6.47882 -0.123697 0
M  V30 420 N 41.3868 0.248026 -1.55636 0
M  V30 421 C 42.8028 0.596483 -1.48035 0
M  V30 422 C 43.0028 1.88386 -0.715039 0
M  V30 423 O 42.0588 2.51319 -0.243944 0
M  V30 424 C 43.3718 0.700258 -2.92433 0
M  V30 425 C 44.9198 0.792659 -3.02797 0
M  V30 426 C 45.3948 0.928005 -4.485 0
M  V30 427 N 46.8858 0.992903 -4.52433 0
M  V30 428 C 47.6208 1.11687 -5.62418 0
M  V30 429 N 47.1168 1.20645 -6.82214 0
M  V30 430 N 48.9098 1.14994 -5.50212 0
M  V30 431 H 41.0608 -0.597109 -2.03834 0
M  V30 432 H 43.3238 -0.205925 -0.925364 0
M  V30 433 H 43.0298 -0.175658 -3.51261 0
M  V30 434 H 42.9038 1.57255 -3.42857 0
M  V30 435 H 45.2908 1.65903 -2.4405 0
M  V30 436 H 45.3718 -0.104762 -2.55585 0
M  V30 437 H 45.0158 0.0661971 -5.07857 0
M  V30 438 H 44.9458 1.84045 -4.93391 0
M  V30 439 H 47.4368 0.935064 -3.66149 0
M  V30 440 H 47.7498 1.30008 -7.61786 0
M  V30 441 H 46.0948 1.17605 -6.84977 0
M  V30 442 H 49.2858 1.07643 -4.55555 0
M  V30 443 H 49.4588 1.24311 -6.35965 0
M  V30 444 N 42.8649 1.48995 0.513639 0
M  V30 445 C 44.1049 1.59452 1.27885 0
M  V30 446 C 44.4689 0.269479 1.90099 0
M  V30 447 O 45.6699 0.249139 2.67643 0
M  V30 448 C 43.9409 2.71277 2.32688 0
M  V30 449 S 45.4999 3.01604 3.18717 0
M  V30 450 H 42.3179 0.562565 0.434789 0
M  V30 451 H 44.9199 1.86595 0.583301 0
M  V30 452 H 43.6239 3.66089 1.8549 0
M  V30 453 H 43.1549 2.46086 3.06929 0
M  V30 454 H 45.1699 2.42155 4.331 0
M  V30 455 N 44.343 -0.763751 1.37857 0
M  V30 456 C 45.273 -1.89103 1.36975 0
M  V30 457 C 46.254 -1.68439 0.237152 0
M  V30 458 O 47.439 -1.8918 0.438713 0
M  V30 459 C 44.569 -3.26496 1.18395 0
M  V30 460 C 43.523 -3.61741 2.28751 0
M  V30 461 C 42.849 -4.97762 1.95286 0
M  V30 462 C 44.149 -3.67665 3.70972 0
M  V30 463 H 45.843 -1.90099 2.31307 0
M  V30 464 H 43.389 -0.91319 1.11341 0
M  V30 465 H 45.342 -4.05003 1.16406 0
M  V30 466 H 44.066 -3.25955 0.205215 0
M  V30 467 H 42.725 -2.85547 2.29909 0
M  V30 468 H 42.373 -4.93769 0.959221 0
M  V30 469 H 42.073 -5.22313 2.69189 0
M  V30 470 H 43.597 -5.7866 1.94898 0
M  V30 471 H 45.011 -4.36307 3.719 0
M  V30 472 H 43.408 -4.03718 4.43995 0
M  V30 473 H 44.478 -2.68134 4.0402 0
M  V30 474 N 45.8211 -1.22559 -0.990812 0
M  V30 475 C 47.0681 -1.05141 -1.73065 0
M  V30 476 C 47.3961 0.413191 -1.9006 0
M  V30 477 O 46.6511 1.32257 -1.44245 0
M  V30 478 C 46.9501 -1.71011 -3.13831 0
M  V30 479 C 46.6161 -3.20911 -3.16745 0
M  V30 480 C 45.2781 -3.61812 -3.17247 0
M  V30 481 C 47.6301 -4.16846 -3.12872 0
M  V30 482 C 44.9581 -4.97127 -3.1158 0
M  V30 483 C 47.3101 -5.5214 -3.08746 0
M  V30 484 C 45.9741 -5.92419 -3.07565 0
M  V30 485 H 45.2441 -0.384738 -0.633291 0
M  V30 486 H 47.8911 -1.5235 -1.16025 0
M  V30 487 H 46.1961 -1.16133 -3.74193 0
M  V30 488 H 47.8931 -1.55023 -3.69823 0
M  V30 489 H 44.4831 -2.88344 -3.17105 0
M  V30 490 H 48.6671 -3.86263 -3.11632 0
M  V30 491 H 43.9231 -5.27562 -3.09012 0
M  V30 492 H 48.0971 -6.26201 -3.04705 0
M  V30 493 H 45.7241 -6.97236 -3.02929 0
M  V30 494 N 47.2992 1.18797 -1.03562 0
M  V30 495 C 48.2292 2.24472 -0.643019 0
M  V30 496 C 49.2102 1.66433 0.351283 0
M  V30 497 O 50.3952 1.92803 0.232505 0
M  V30 498 C 47.5252 3.473 4.24935e-05 0
M  V30 499 C 46.4792 4.18055 -0.917257 0
M  V30 500 C 45.8052 5.34519 -0.138941 0
M  V30 501 C 47.1052 4.72109 -2.23407 0
M  V30 502 H 48.7992 2.57566 -1.52643 0
M  V30 503 H 46.3452 1.23806 -0.735394 0
M  V30 504 H 48.2982 4.20426 0.286383 0
M  V30 505 H 47.0222 3.13424 0.918299 0
M  V30 506 H 45.6812 3.46821 -1.1879 0
M  V30 507 H 45.3292 4.96891 0.781562 0
M  V30 508 H 45.0292 5.82794 -0.750005 0
M  V30 509 H 46.5532 6.10438 0.1405 0
M  V30 510 H 47.9672 5.36955 -2.00879 0
M  V30 511 H 46.3642 5.30897 -2.79765 0
M  V30 512 H 47.4342 3.89807 -2.88407 0
M  V30 513 N 48.7773 0.814389 1.34928 0
M  V30 514 C 50.0023 0.410097 2.03305 0
M  V30 515 C 50.4273 -0.973464 1.60951 0
M  V30 516 O 49.7853 -1.63185 0.789964 0
M  V30 517 C 49.8333 0.51049 3.56968 0
M  V30 518 O 48.9373 -0.473035 4.09678 0
M  V30 519 H 48.2783 0.170088 0.641846 0
M  V30 520 H 50.8083 1.10244 1.72358 0
M  V30 521 H 50.8183 0.383135 4.06197 0
M  V30 522 H 49.4933 1.51963 3.87144 0
M  V30 523 H 48.0703 -0.305272 3.71648 0
M  V30 524 N 50.2554 -1.46986 0.568584 0
M  V30 525 C 51.1854 -2.32946 -0.160753 0
M  V30 526 C 52.1664 -1.44487 -0.897631 0
M  V30 527 O 53.3514 -1.73327 -0.875867 0
M  V30 528 C 50.4814 -3.26494 -1.18403 0
M  V30 529 C 49.4354 -4.24282 -0.562895 0
M  V30 530 C 48.7614 -5.07236 -1.69163 0
M  V30 531 C 50.0614 -5.19989 0.490761 0
M  V30 532 H 51.7554 -2.94175 0.556916 0
M  V30 533 H 49.3014 -1.4146 0.26927 0
M  V30 534 H 51.2544 -3.85477 -1.70251 0
M  V30 535 H 49.9784 -2.63343 -1.93179 0
M  V30 536 H 48.6374 -3.66541 -0.0656164 0
M  V30 537 H 48.2854 -4.4048 -2.42871 0
M  V30 538 H 47.9854 -5.7345 -1.28174 0
M  V30 539 H 49.5094 -5.6908 -2.21314 0
M  V30 540 H 50.9234 -5.73271 0.0579047 0
M  V30 541 H 49.3204 -5.94469 0.820165 0
M  V30 542 H 50.3904 -4.64777 1.3824 0
M  V30 543 N 51.7335 -0.305618 -1.54608 0
M  V30 544 C 52.9805 0.302298 -2.00231 0
M  V30 545 C 53.3085 1.5354 -1.19398 0
M  V30 546 O 52.5635 1.93973 -0.259423 0
M  V30 547 C 52.8625 0.698983 -3.50498 0
M  V30 548 C 52.5285 -0.432903 -4.48817 0
M  V30 549 C 51.1905 -0.743622 -4.75419 0
M  V30 550 C 53.5425 -1.19409 -5.07337 0
M  V30 551 C 50.8705 -1.81857 -5.57804 0
M  V30 552 C 53.2225 -2.25899 -5.90891 0
M  V30 553 C 51.8865 -2.57572 -6.15803 0
M  V30 554 H 51.1565 0.110619 -0.732697 0
M  V30 555 H 53.8035 -0.425674 -1.86709 0
M  V30 556 H 52.1085 1.50711 -3.61654 0
M  V30 557 H 53.8055 1.1806 -3.83227 0
M  V30 558 H 50.3955 -0.18063 -4.28219 0
M  V30 559 H 54.5795 -0.967295 -4.86782 0
M  V30 560 H 49.8355 -2.06864 -5.75341 0
M  V30 561 H 54.0095 -2.85335 -6.35261 0
M  V30 562 H 51.6365 -3.40998 -6.7943 0
M  V30 563 N 53.2116 1.57565 -0.0334293 0
M  V30 564 C 54.4366 1.96689 0.657895 0
M  V30 565 C 54.8616 0.910057 1.64619 0
M  V30 566 O 54.2196 -0.128598 1.80843 0
M  V30 567 C 54.2676 3.34905 1.33683 0
M  V30 568 O 53.3716 3.31574 2.45219 0
M  V30 569 H 52.7126 0.641205 0.172489 0
M  V30 570 H 55.2426 2.04372 -0.0965621 0
M  V30 571 H 55.2526 3.71234 1.69262 0
M  V30 572 H 53.9276 4.11366 0.612411 0
M  V30 573 H 52.5046 3.06968 2.11719 0
M  V30 574 N 54.6897 -0.239769 1.55765 0
M  V30 575 C 55.9367 -0.966801 1.7793 0
M  V30 576 C 56.2647 -1.85046 0.599015 0
M  V30 577 O 55.5197 -1.91197 -0.417395 0
M  V30 578 C 55.8187 -1.852 3.05672 0
M  V30 579 C 55.4847 -1.1231 4.36689 0
M  V30 580 C 54.1467 -0.921689 4.72291 0
M  V30 581 C 56.4987 -0.607019 5.17653 0
M  V30 582 C 53.8267 -0.191996 5.86386 0
M  V30 583 C 56.1787 0.109241 6.32506 0
M  V30 584 C 54.8427 0.322073 6.66723 0
M  V30 585 H 54.1127 -0.353778 0.651093 0
M  V30 586 H 56.7597 -0.23634 1.90036 0
M  V30 587 H 55.0647 -2.64975 2.8861 0
M  V30 588 H 56.7617 -2.41635 3.20021 0
M  V30 589 H 53.3517 -1.29004 4.08725 0
M  V30 590 H 57.5357 -0.750153 4.90598 0
M  V30 591 H 52.7917 -0.0166949 6.11398 0
M  V30 592 H 56.9657 0.516737 6.9448 0
M  V30 593 H 54.5927 0.88944 7.54979 0
M  V30 594 N 56.1678 -1.49265 -0.50573 0
M  V30 595 C 57.0978 -1.68495 -1.61653 0
M  V30 596 C 58.0788 -0.53366 -1.61512 0
M  V30 597 O 59.2638 -0.76897 -1.78327 0
M  V30 598 C 56.3938 -1.74709 -3.00157 0
M  V30 599 C 55.3478 -2.89581 -3.15162 0
M  V30 600 C 54.6738 -2.80903 -4.5497 0
M  V30 601 C 55.9738 -4.30578 -2.95634 0
M  V30 602 H 57.6678 -2.61493 -1.45814 0
M  V30 603 H 55.2138 -1.25838 -0.70005 0
M  V30 604 H 57.1668 -1.86748 -3.77761 0
M  V30 605 H 55.8908 -0.783067 -3.17074 0
M  V30 606 H 54.5498 -2.77136 -2.39982 0
M  V30 607 H 54.1978 -1.82419 -4.68756 0
M  V30 608 H 53.8978 -3.57999 -4.65951 0
M  V30 609 H 55.4218 -2.94944 -5.34641 0
M  V30 610 H 56.8358 -4.4373 -3.63011 0
M  V30 611 H 55.2328 -5.0886 -3.18091 0
M  V30 612 H 56.3028 -4.45352 -1.91806 0
M  V30 613 N 57.6459 0.756429 -1.3826 0
M  V30 614 C 58.8949 1.51082 -1.3363 0
M  V30 615 C 59.2079 1.95467 0.0720068 0
M  V30 616 O 60.4139 2.7043 0.240834 0
M  V30 617 C 58.8699 2.72893 -2.34644 0
M  V30 618 C 58.4779 2.35544 -3.81081 0
M  V30 619 C 60.2219 3.50791 -2.39052 0
M  V30 620 C 58.1289 3.53948 -4.73787 0
M  V30 621 H 57.0589 0.56727 -0.49671 0
M  V30 622 H 59.7099 0.827147 -1.638 0
M  V30 623 H 58.0919 3.43227 -1.97513 0
M  V30 624 H 59.2659 1.72894 -4.27135 0
M  V30 625 H 57.5809 1.70786 -3.79764 0
M  V30 626 H 60.1779 4.38823 -3.05513 0
M  V30 627 H 60.5209 3.91745 -1.40861 0
M  V30 628 H 61.0539 2.87467 -2.74968 0
M  V30 629 H 57.7929 3.18064 -5.73163 0
M  V30 630 H 57.3129 4.15651 -4.32428 0
M  V30 631 H 58.9919 4.20566 -4.91663 0
M  V30 632 N 59.124 1.23083 0.984299 0
M  V30 633 C 60.37 1.06214 1.72761 0
M  V30 634 C 60.703 -0.400584 1.90024 0
M  V30 635 O 59.978 -1.29672 1.44967 0
M  V30 636 C 60.261 1.78375 3.12817 0
M  V30 637 C 60.114 3.32296 3.03149 0
M  V30 638 C 61.433 1.54309 4.12161 0
M  V30 639 H 58.552 0.387251 0.627061 0
M  V30 640 H 61.194 1.51536 1.14616 0
M  V30 641 H 59.344 1.39848 3.62457 0
M  V30 642 H 61.016 3.8032 2.61064 0
M  V30 643 H 59.259 3.6153 2.39747 0
M  V30 644 H 59.93 3.77972 4.02295 0
M  V30 645 H 62.406 1.87791 3.71314 0
M  V30 646 H 61.282 2.07281 5.08258 0
M  V30 647 H 61.543 0.477572 4.39513 0
M  V30 648 N 60.6021 -1.18246 1.0419 0
M  V30 649 C 61.5651 -2.20128 0.638452 0
M  V30 650 C 62.5651 -1.57885 -0.304805 0
M  V30 651 O 63.7551 -1.73967 -0.0900369 0
M  V30 652 C 60.8871 -3.4084 -0.0637751 0
M  V30 653 H 62.0801 -2.57336 1.54007 0
M  V30 654 H 59.6331 -1.32152 0.834598 0
M  V30 655 H 60.3681 -3.09166 -0.979136 0
M  V30 656 H 60.1531 -3.8726 0.614198 0
M  V30 657 H 61.6431 -4.16274 -0.332512 0
M  V30 658 N 62.0802 -0.821533 -1.34494 0
M  V30 659 C 63.3282 -0.408139 -1.97936 0
M  V30 660 C 63.6492 1.03193 -1.65457 0
M  V30 661 O 62.9192 1.71622 -0.944595 0
M  V30 662 H 61.4992 -0.147928 -0.732206 0
M  V30 663 H 64.1612 -1.05067 -1.64155 0
M  V30 664 H 63.2572 -0.52601 -3.07635 0
M  V30 665 N 63.5583 1.46682 -0.576371 0
M  V30 666 C 64.5213 2.28707 0.150239 0
M  V30 667 C 65.5213 1.38035 0.824794 0
M  V30 668 O 66.7113 1.60476 0.677719 0
M  V30 669 C 63.8433 3.18248 1.22192 0
M  V30 670 H 65.0363 2.94423 -0.570521 0
M  V30 671 H 62.5893 1.52688 -0.334078 0
M  V30 672 H 63.3243 2.57265 1.97447 0
M  V30 673 H 63.1093 3.85 0.742812 0
M  V30 674 H 64.5993 3.80001 1.73172 0
M  V30 675 N 65.0364 0.313813 1.54444 0
M  V30 676 C 66.2644 -0.293918 2.04802 0
M  V30 677 C 66.6794 -1.46537 1.19047 0
M  V30 678 O 66.0364 -1.81182 0.218939 0
M  V30 679 C 66.0874 -0.737806 3.53891 0
M  V30 680 O 65.8084 0.387038 4.36387 0
M  V30 681 C 67.3094 -1.40936 4.203 0
M  V30 682 H 64.5294 -0.0620057 0.668129 0
M  V30 683 H 67.0734 0.457169 1.99324 0
M  V30 684 H 65.2284 -1.43889 3.59687 0
M  V30 685 H 65.6424 0.0391274 5.24485 0
M  V30 686 H 67.1164 -1.67099 5.26101 0
M  V30 687 H 67.5934 -2.35355 3.70816 0
M  V30 688 H 68.1994 -0.751117 4.18615 0
M  V30 689 N 66.5145 -1.57545 0.0417849 0
M  V30 690 C 67.7425 -1.96624 -0.643928 0
M  V30 691 C 68.1575 -0.918897 -1.64929 0
M  V30 692 O 67.5145 0.0979323 -1.82237 0
M  V30 693 C 67.5655 -3.35781 -1.33914 0
M  V30 694 O 67.2865 -4.365 -0.374048 0
M  V30 695 C 68.7875 -3.89566 -2.1155 0
M  V30 696 H 66.0075 -0.647316 -0.176702 0
M  V30 697 H 68.5515 -2.04229 0.105304 0
M  V30 698 H 66.7065 -3.29357 -2.03968 0
M  V30 699 H 67.1205 -5.17248 -0.869179 0
M  V30 700 H 68.5945 -4.89242 -2.55628 0
M  V30 701 H 69.0715 -3.24488 -2.9598 0
M  V30 702 H 69.6775 -3.99298 -1.46427 0
M  V30 703 N 67.9926 0.231505 -1.5589 0
M  V30 704 C 68.9226 1.29022 -1.94617 0
M  V30 705 C 69.9036 1.4941 -0.813067 0
M  V30 706 O 71.0886 1.6176 -1.07459 0
M  V30 707 C 68.2186 2.64199 -2.25424 0
M  V30 708 C 67.1726 2.58484 -3.41131 0
M  V30 709 C 66.4986 3.97599 -3.57518 0
M  V30 710 C 67.7986 2.1413 -4.76388 0
M  V30 711 H 69.4926 0.968563 -2.83301 0
M  V30 712 H 67.0386 0.464479 -1.36303 0
M  V30 713 H 68.9916 3.38413 -2.51107 0
M  V30 714 H 67.7156 2.98032 -1.33583 0
M  V30 715 H 66.3746 1.86727 -3.15481 0
M  V30 716 H 66.0226 4.28723 -2.6307 0
M  V30 717 H 65.7226 3.94659 -4.35337 0
M  V30 718 H 67.2466 4.7349 -3.85538 0
M  V30 719 H 68.6606 2.78083 -5.01341 0
M  V30 720 H 67.0576 2.2227 -5.57419 0
M  V30 721 H 68.1276 1.09331 -4.72414 0
M  V30 722 N 69.4707 1.49531 0.497807 0
M  V30 723 C 70.7177 1.59179 1.25173 0
M  V30 724 C 71.0457 0.279932 1.92475 0
M  V30 725 O 70.3007 -0.732383 1.81479 0
M  V30 726 C 70.5997 2.70252 2.33878 0
M  V30 727 C 70.2657 4.11644 1.84012 0
M  V30 728 C 68.9277 4.50121 1.70132 0
M  V30 729 C 71.2797 5.00121 1.46725 0
M  V30 730 C 68.6077 5.74845 1.17348 0
M  V30 731 C 70.9597 6.25366 0.95392 0
M  V30 732 C 69.6237 6.6267 0.801538 0
M  V30 733 H 68.8937 0.582478 0.45804 0
M  V30 734 H 71.5407 1.83373 0.551948 0
M  V30 735 H 69.8457 2.40041 3.09657 0
M  V30 736 H 71.5427 2.74925 2.9192 0
M  V30 737 H 68.1327 3.81274 1.95775 0
M  V30 738 H 72.3167 4.71048 1.56294 0
M  V30 739 H 67.5727 6.02444 1.04264 0
M  V30 740 H 71.7467 6.93301 0.656225 0
M  V30 741 H 69.3737 7.59197 0.390351 0
M  V30 742 N 70.9488 -0.749086 1.3866 0
M  V30 743 C 72.1888 -1.52112 1.36534 0
M  V30 744 C 72.5528 -1.91951 -0.0432316 0
M  V30 745 O 73.7538 -2.68132 -0.189396 0
M  V30 746 C 72.0248 -2.73704 2.29828 0
M  V30 747 S 73.5838 -3.63519 2.45763 0
M  V30 748 H 70.4018 -0.520482 0.484375 0
M  V30 749 H 73.0038 -0.878963 1.74627 0
M  V30 750 H 71.7078 -2.42552 3.31054 0
M  V30 751 H 71.2388 -3.4286 1.929 0
M  V30 752 H 73.2538 -4.66712 1.68505 0
M  V30 753 N 72.4269 -1.23603 -0.977757 0
M  V30 754 C 73.3569 -1.04401 -2.0886 0
M  V30 755 C 74.3379 0.0399052 -1.70053 0
M  V30 756 O 75.5229 -0.125246 -1.93796 0
M  V30 757 C 72.6529 -0.637269 -3.41403 0
M  V30 758 C 71.6069 -1.66883 -3.94124 0
M  V30 759 C 70.9329 -1.11745 -5.22893 0
M  V30 760 C 72.2329 -3.06247 -4.23096 0
M  V30 761 H 73.9269 -1.97316 -2.25182 0
M  V30 762 H 71.4729 -0.950096 -1.08209 0
M  V30 763 H 73.4259 -0.48998 -4.18542 0
M  V30 764 H 72.1499 0.327557 -3.24953 0
M  V30 765 H 70.8089 -1.80416 -3.19133 0
M  V30 766 H 70.4569 -0.143527 -5.02795 0
M  V30 767 H 70.1569 -1.80672 -5.59134 0
M  V30 768 H 71.6809 -0.982067 -6.02651 0
M  V30 769 H 73.0949 -2.96001 -4.90975 0
M  V30 770 H 71.4919 -3.72436 -4.70544 0
M  V30 771 H 72.5619 -3.55041 -3.30263 0
M  V30 772 N 73.905 1.17692 -1.04816 0
M  V30 773 C 74.835 2.23777 -0.666791 0
M  V30 774 C 75.816 1.66796 0.33361 0
M  V30 775 O 77.001 1.93039 0.212042 0
M  V30 776 C 74.131 3.47281 -0.0367933 0
M  V30 777 C 73.085 4.17059 -0.961546 0
M  V30 778 C 72.411 5.34342 -0.195626 0
M  V30 779 C 73.711 4.69713 -2.28402 0
M  V30 780 H 75.405 2.55933 -1.55367 0
M  V30 781 H 72.951 1.23019 -0.748484 0
M  V30 782 H 74.904 4.20706 0.241775 0
M  V30 783 H 73.628 3.14381 0.885004 0
M  V30 784 H 72.287 3.45541 -1.22462 0
M  V30 785 H 71.935 4.97692 0.728816 0
M  V30 786 H 71.635 5.81966 -0.811775 0
M  V30 787 H 73.159 6.10553 0.0757473 0
M  V30 788 H 74.573 5.34794 -2.06563 0
M  V30 789 H 72.97 5.279 -2.8538 0
M  V30 790 H 74.04 3.86726 -2.92525 0
M  V30 791 N 75.3831 0.828654 1.34056 0
M  V30 792 C 76.3331 0.226828 2.26869 0
M  V30 793 C 77.3171 -0.612243 1.48796 0
M  V30 794 O 78.5091 -0.465884 1.70759 0
M  V30 795 C 75.6381 -0.605654 3.37915 0
M  V30 796 C 74.7241 0.244361 4.23395 0
M  V30 797 N 75.1151 1.31815 4.88322 0
M  V30 798 C 73.4131 0.0296616 4.4599 0
M  V30 799 C 74.1141 1.83895 5.51867 0
M  V30 800 N 73.0901 1.14196 5.3147 0
M  V30 801 H 76.8921 1.04811 2.74576 0
M  V30 802 H 74.4061 0.67205 1.47842 0
M  V30 803 H 76.4031 -1.05302 4.03382 0
M  V30 804 H 75.0631 -1.42504 2.91758 0
M  V30 805 H 76.0741 1.70099 4.8917 0
M  V30 806 H 72.7511 -0.757097 4.10578 0
M  V30 807 H 74.1411 2.7376 6.136 0
M  V30 808 N 76.8612 -1.46375 0.584142 0
M  V30 809 C 78.1082 -2.02378 0.0702675 0
M  V30 810 C 78.4362 -1.45545 -1.29023 0
M  V30 811 O 77.6912 -0.610967 -1.85918 0
M  V30 812 C 77.9902 -3.57373 -0.0439342 0
M  V30 813 C 77.6562 -4.33252 1.24915 0
M  V30 814 C 76.3182 -4.53701 1.60341 0
M  V30 815 C 78.6702 -4.7681 2.1048 0
M  V30 816 C 75.9982 -5.1496 2.81128 0
M  V30 817 C 78.3502 -5.39404 3.30494 0
M  V30 818 C 77.0142 -5.5808 3.66201 0
M  V30 819 H 76.2842 -0.740554 0.0257127 0
M  V30 820 H 78.9312 -1.75727 0.761065 0
M  V30 821 H 77.2362 -3.83169 -0.817869 0
M  V30 822 H 78.9332 -3.98384 -0.457318 0
M  V30 823 H 75.5232 -4.17633 0.963364 0
M  V30 824 H 79.7072 -4.60766 1.84414 0
M  V30 825 H 74.9632 -5.27611 3.08928 0
M  V30 826 H 79.1372 -5.72114 3.97063 0
M  V30 827 H 76.7642 -6.05318 4.59885 0
M  V30 828 N 78.3393 -0.321999 -1.54275 0
M  V30 829 C 79.5873 0.280489 -2.00144 0
M  V30 830 C 79.9083 1.52777 -1.21178 0
M  V30 831 O 79.1783 1.9338 -0.313187 0
M  V30 832 H 77.7583 0.106632 -0.73935 0
M  V30 833 H 80.4203 -0.438184 -1.8991 0
M  V30 834 H 79.5163 0.537972 -3.07428 0
M  V30 835 N 79.8174 1.5752 -0.0501392 0
M  V30 836 C 81.0634 1.92936 0.624798 0
M  V30 837 C 81.3964 0.928685 1.70555 0
M  V30 838 O 80.6714 -0.0454779 1.94447 0
M  V30 839 C 80.9544 3.38737 1.22185 0
M  V30 840 C 80.8074 4.49552 0.149218 0
M  V30 841 C 82.1264 3.84913 2.13378 0
M  V30 842 H 79.2454 0.701604 0.225657 0
M  V30 843 H 81.8874 1.89671 -0.111693 0
M  V30 844 H 80.0374 3.4165 1.84953 0
M  V30 845 H 81.7094 4.58768 -0.482648 0
M  V30 846 H 79.9524 4.30638 -0.522841 0
M  V30 847 H 80.6234 5.48653 0.606966 0
M  V30 848 H 83.0994 3.8387 1.60572 0
M  V30 849 H 81.9754 4.87584 2.52097 0
M  V30 850 H 82.2364 3.21611 3.03346 0
M  V30 851 N 81.2955 -0.223234 1.56011 0
M  V30 852 C 82.5445 -0.945912 1.78144 0
M  V30 853 C 82.8575 -1.85567 0.618396 0
M  V30 854 O 84.0635 -2.61688 0.723318 0
M  V30 855 C 82.5195 -1.73216 3.15475 0
M  V30 856 C 82.1275 -0.868619 4.39499 0
M  V30 857 C 83.8715 -2.44615 3.46935 0
M  V30 858 C 81.7785 -1.65212 5.67855 0
M  V30 859 H 80.7085 -0.356929 0.664167 0
M  V30 860 H 83.3595 -0.199845 1.82409 0
M  V30 861 H 81.7415 -2.52107 3.05382 0
M  V30 862 H 82.9155 -0.120366 4.60643 0
M  V30 863 H 81.2305 -0.26683 4.15544 0
M  V30 864 H 83.8275 -3.03732 4.40058 0
M  V30 865 H 84.1705 -3.17417 2.69355 0
M  V30 866 H 84.7035 -1.72715 3.58349 0
M  V30 867 H 81.4425 -0.967407 6.48322 0
M  V30 868 H 80.9625 -2.37503 5.50774 0
M  V30 869 H 82.6415 -2.21322 6.07968 0
M  V30 870 N 82.7736 -1.49793 -0.48987 0
M  V30 871 C 84.0216 -1.59525 -1.24081 0
M  V30 872 C 84.3426 -0.288953 -1.92847 0
M  V30 873 O 83.6126 0.692436 -1.83254 0
M  V30 874 H 82.1926 -0.587796 -0.460983 0
M  V30 875 H 84.8546 -1.86477 -0.566778 0
M  V30 876 H 83.9506 -2.39696 -1.99881 0
M  V30 877 N 84.2517 0.741722 -1.39055 0
M  V30 878 C 85.6627 1.31966 -1.32068 0
M  V30 879 C 86.0137 1.96192 0.0180797 0
M  V30 880 O 85.1387 1.95861 0.920196 0
M  V30 881 C 85.7337 2.39954 -2.39181 0
M  V30 882 C 84.2927 2.93438 -2.35735 0
M  V30 883 C 83.4397 1.66936 -2.21422 0
M  V30 884 H 86.3907 0.539721 -1.4924 0
M  V30 885 H 86.4117 3.20182 -2.05581 0
M  V30 886 H 85.9237 1.9318 -3.36605 0
M  V30 887 H 84.0247 3.4451 -1.41929 0
M  V30 888 H 84.1377 3.4701 -3.30335 0
M  V30 889 H 82.5017 1.91016 -1.68478 0
M  V30 890 H 83.2847 1.22224 -3.20806 0
M  V30 891 N 85.7298 1.2412 0.971189 0
M  V30 892 C 86.6618 0.988349 2.06795 0
M  V30 893 C 87.6748 -0.0409541 1.62748 0
M  V30 894 O 88.8638 0.195673 1.77424 0
M  V30 895 C 85.9638 0.469023 3.35639 0
M  V30 896 C 85.1368 1.56065 4.08611 0
M  V30 897 C 84.1958 1.04458 5.15728 0
M  V30 898 O 83.2218 1.73553 5.42096 0
M  V30 899 N 84.4238 -0.122817 5.8037 0
M  V30 900 H 87.1888 1.93265 2.29061 0
M  V30 901 H 84.7498 1.15102 1.13856 0
M  V30 902 H 86.7418 0.108613 4.04554 0
M  V30 903 H 85.3118 -0.380919 3.1027 0
M  V30 904 H 84.5318 2.09341 3.34021 0
M  V30 905 H 85.8198 2.29449 4.54126 0
M  V30 906 H 85.2178 -0.700563 5.61345 0
M  V30 907 H 83.7748 -0.424404 6.50417 0
M  V30 908 N 87.2079 -1.17134 1.05439 0
M  V30 909 C 88.6239 -1.39454 0.776201 0
M  V30 910 C 88.8239 -1.91454 -0.628307 0
M  V30 911 O 87.8799 -2.10777 -1.39031 0
M  V30 912 C 89.1929 -2.38305 1.83388 0
M  V30 913 C 90.7409 -2.52006 1.85639 0
M  V30 914 C 91.2159 -3.54133 2.90437 0
M  V30 915 N 92.7069 -3.61653 2.89415 0
M  V30 916 C 93.4419 -4.4044 3.67152 0
M  V30 917 N 92.9379 -5.22721 4.54681 0
M  V30 918 N 94.7309 -4.35337 3.55581 0
M  V30 919 H 86.8819 -0.817134 1.96053 0
M  V30 920 H 89.1449 -0.421626 0.849079 0
M  V30 921 H 88.8509 -2.07173 2.84204 0
M  V30 922 H 88.7249 -3.37841 1.67761 0
M  V30 923 H 91.1119 -2.82447 0.85486 0
M  V30 924 H 91.1929 -1.52537 2.05344 0
M  V30 925 H 90.8369 -3.24431 3.90777 0
M  V30 926 H 90.7669 -4.53313 2.67983 0
M  V30 927 H 93.2579 -3.02909 2.25952 0
M  V30 928 H 93.5709 -5.80027 5.10674 0
M  V30 929 H 91.9159 -5.22093 4.58741 0
M  V30 930 H 95.1069 -3.70112 2.86592 0
M  V30 931 H 95.2799 -4.96494 4.1641 0
M  V30 932 N 88.686 -0.835752 -1.33615 0
M  V30 933 C 89.596 -0.269088 -2.33052 0
M  V30 934 C 90.612 0.603251 -1.63208 0
M  V30 935 O 91.788 0.508112 -1.94885 0
M  V30 936 C 88.853 0.549091 -3.42324 0
M  V30 937 C 87.914 -0.347156 -4.27894 0
M  V30 938 C 87.147 0.43207 -5.31948 0
M  V30 939 O 87.37 1.66409 -5.45586 0
M  V30 940 O 86.304 -0.192298 -6.01593 0
M  V30 941 H 90.13 -1.09243 -2.83372 0
M  V30 942 H 87.715 -0.598198 -1.36901 0
M  V30 943 H 89.597 1.01414 -4.09015 0
M  V30 944 H 88.272 1.34955 -2.94226 0
M  V30 945 H 87.179 -0.859979 -3.64081 0
M  V30 946 H 88.512 -1.1123 -4.79467 0
M  V30 947 N 90.1641 1.46063 -0.591896 0
M  V30 948 C 91.0741 2.34192 0.13831 0
M  V30 949 C 92.0901 1.50305 0.876608 0
M  V30 950 O 93.2661 1.8315 0.837728 0
M  V30 951 C 90.3311 3.27656 1.13326 0
M  V30 952 C 89.3921 4.27445 0.39863 0
M  V30 953 C 88.6251 5.16443 1.34618 0
M  V30 954 O 88.8481 5.08553 2.58321 0
M  V30 955 O 87.7821 5.95843 0.851768 0
M  V30 956 H 91.6081 2.98002 -0.58552 0
M  V30 957 H 89.1931 1.45188 -0.352239 0
M  V30 958 H 91.0751 3.85291 1.70671 0
M  V30 959 H 89.7501 2.6643 1.83839 0
M  V30 960 H 88.6571 3.73471 -0.216895 0
M  V30 961 H 89.9901 4.91482 -0.265709 0
M  V30 962 N 91.6422 0.330177 1.54103 0
M  V30 963 C 92.8892 -0.270405 2.00686 0
M  V30 964 C 93.2172 -1.51621 1.21825 0
M  V30 965 O 92.4722 -1.93536 0.29025 0
M  V30 966 C 92.7712 -0.643134 3.51566 0
M  V30 967 C 92.4372 0.504251 4.48072 0
M  V30 968 C 91.0992 0.819163 4.74176 0
M  V30 969 C 93.4512 1.27465 5.05373 0
M  V30 970 C 90.7792 1.90708 5.5484 0
M  V30 971 C 93.1312 2.35271 5.87223 0
M  V30 972 C 91.7952 2.67336 6.11627 0
M  V30 973 H 91.0652 -0.0989482 0.734364 0
M  V30 974 H 93.7122 0.455324 1.86008 0
M  V30 975 H 92.0172 -1.44938 3.64006 0
M  V30 976 H 93.7142 -1.11949 3.85056 0
M  V30 977 H 90.3042 0.248733 4.27878 0
M  V30 978 H 94.4882 1.04462 4.85182 0
M  V30 979 H 89.7442 2.15991 5.71977 0
M  V30 980 H 93.9182 2.95405 6.30641 0
M  V30 981 H 91.5452 3.51763 6.73919 0
M  V30 982 N 93.1203 -1.57491 0.0584922 0
M  V30 983 C 94.5313 -1.80526 -0.476138 0
M  V30 984 C 94.8823 -0.971334 -1.70469 0
M  V30 985 O 94.0073 -0.190012 -2.15564 0
M  V30 986 C 94.6023 -3.27424 -0.870587 0
M  V30 987 C 93.1613 -3.51351 -1.35015 0
M  V30 988 C 92.3083 -2.75343 -0.32887 0
M  V30 989 H 95.2593 -1.56133 0.284312 0
M  V30 990 H 95.2803 -3.38745 -1.73299 0
M  V30 991 H 94.7923 -3.88093 0.0237627 0
M  V30 992 H 92.8933 -2.95971 -2.26345 0
M  V30 993 H 93.0063 -4.60059 -1.33726 0
M  V30 994 H 91.3703 -2.417 -0.803321 0
M  V30 995 H 92.1533 -3.38743 0.557521 0
M  V30 996 N 94.5984 0.214957 -1.56127 0
M  V30 997 C 96.0144 0.564948 -1.49267 0
M  V30 998 C 96.2144 1.86827 -0.754838 0
M  V30 999 O 95.2704 2.50745 -0.297198 0
M  V30 1000 C 96.5834 0.638071 -2.93852 0
M  V30 1001 C 98.1314 0.728253 -3.0441 0
M  V30 1002 C 98.6064 0.832663 -4.50367 0
M  V30 1003 N 100.097 0.896712 -4.54437 0
M  V30 1004 C 100.832 0.997324 -5.6466 0
M  V30 1005 N 100.328 1.06147 -6.8462 0
M  V30 1006 N 102.121 1.03297 -5.52527 0
M  V30 1007 H 94.2724 -0.640211 -2.02522 0
M  V30 1008 H 96.5354 -0.225507 -0.920788 0
M  V30 1009 H 96.2414 -0.250126 -3.50809 0
M  V30 1010 H 96.1154 1.49947 -3.46115 0
M  V30 1011 H 98.5024 1.60689 -2.47514 0
M  V30 1012 H 98.5834 -0.158952 -2.55306 0
M  V30 1013 H 98.2274 -0.0415417 -5.07883 0
M  V30 1014 H 98.1574 1.73538 -4.97184 0
M  V30 1015 H 100.648 0.857188 -3.6805 0
M  V30 1016 H 100.961 1.1382 -7.64372 0
M  V30 1017 H 99.3064 1.03049 -6.87318 0
M  V30 1018 H 102.497 0.979558 -4.57736 0
M  V30 1019 H 102.67 1.10793 -6.38458 0
M  V30 1020 N 96.0765 1.50051 0.48192 0
M  V30 1021 C 97.3535 1.51009 1.2432 0
M  V30 1022 C 97.7335 0.248587 2.09631 0
M  V30 1023 O 97.0815 -0.768409 2.15192 0
M  V30 1024 C 97.2915 2.79981 2.08355 0
M  V30 1025 C 98.6395 3.3022 2.66908 0
M  V30 1026 O 99.6635 2.81228 2.18607 0
M  V30 1027 O 98.5225 4.15595 3.54884 0
M  V30 1028 H 95.6165 0.605239 0.563573 0
M  V30 1029 H 98.1625 1.62332 0.494627 0
M  V30 1030 H 96.9345 3.63275 1.45419 0
M  V30 1031 H 96.5575 2.7161 2.90368 0
M  V30 1032 N 97.5546 -0.734337 1.39446 0
M  V30 1033 C 98.4846 -1.86155 1.40955 0
M  V30 1034 C 99.4656 -1.67898 0.272827 0
M  V30 1035 O 100.651 -1.88207 0.478743 0
M  V30 1036 C 97.7806 -3.23912 1.25294 0
M  V30 1037 C 96.7346 -3.56808 2.36373 0
M  V30 1038 C 96.0606 -4.93508 2.058 0
M  V30 1039 C 97.3606 -3.59713 3.78687 0
M  V30 1040 H 99.0546 -1.8515 2.35287 0
M  V30 1041 H 96.6006 -0.889367 1.13253 0
M  V30 1042 H 98.5536 -4.02443 1.2497 0
M  V30 1043 H 97.2776 -3.25446 0.274308 0
M  V30 1044 H 95.9366 -2.80606 2.35914 0
M  V30 1045 H 95.5846 -4.91623 1.06374 0
M  V30 1046 H 95.2846 -5.16486 2.80208 0
M  V30 1047 H 96.8086 -5.74396 2.07128 0
M  V30 1048 H 98.2226 -4.2832 3.81071 0
M  V30 1049 H 96.6196 -3.94209 4.52459 0
M  V30 1050 H 97.6896 -2.59504 4.09617 0
M  V30 1051 N 99.0327 -1.24633 -0.964593 0
M  V30 1052 C 100.258 -1.11596 -1.74818 0
M  V30 1053 C 100.683 0.32723 -1.85232 0
M  V30 1054 O 100.041 1.23695 -1.32549 0
M  V30 1055 C 100.089 -1.76397 -3.1451 0
M  V30 1056 O 99.1927 -1.03685 -3.99153 0
M  V30 1057 H 98.5337 -0.390196 -0.537255 0
M  V30 1058 H 101.064 -1.65002 -1.20977 0
M  V30 1059 H 101.074 -1.8228 -3.65018 0
M  V30 1060 H 99.7487 -2.81401 -3.06246 0
M  V30 1061 H 98.3257 -1.05611 -3.57632 0
M  V30 1062 N 100.511 1.16574 -1.06058 0
M  V30 1063 C 101.441 2.23057 -0.690488 0
M  V30 1064 C 102.422 1.67141 0.315901 0
M  V30 1065 O 103.607 1.93253 0.191556 0
M  V30 1066 C 100.737 3.47222 -0.073625 0
M  V30 1067 C 99.6908 4.16016 -1.00573 0
M  V30 1068 C 99.0168 5.34104 -0.252289 0
M  V30 1069 C 100.317 4.67264 -2.33371 0
M  V30 1070 H 102.011 2.54271 -1.58072 0
M  V30 1071 H 99.5568 1.22218 -0.76149 0
M  V30 1072 H 101.51 4.20939 0.19714 0
M  V30 1073 H 100.234 3.15302 0.85161 0
M  V30 1074 H 98.8928 3.44223 -1.2612 0
M  V30 1075 H 98.5408 4.98437 0.675988 0
M  V30 1076 H 98.2408 5.81072 -0.873455 0
M  V30 1077 H 99.7648 6.10599 0.0109857 0
M  V30 1078 H 101.179 5.32573 -2.12223 0
M  V30 1079 H 99.5758 5.24843 -2.90963 0
M  V30 1080 H 100.646 3.83602 -2.96611 0
M  V30 1081 N 101.989 0.842826 1.3317 0
M  V30 1082 C 103.238 0.436738 1.96915 0
M  V30 1083 C 103.551 -1.01025 1.67491 0
M  V30 1084 O 104.757 -1.5212 2.24881 0
M  V30 1085 C 103.213 0.730021 3.52418 0
M  V30 1086 C 102.821 2.19195 3.90714 0
M  V30 1087 C 104.565 0.391076 4.22695 0
M  V30 1088 C 102.472 2.42907 5.39212 0
M  V30 1089 H 101.402 0.15958 0.736919 0
M  V30 1090 H 104.053 1.03196 1.51733 0
M  V30 1091 H 102.435 0.0643755 3.95948 0
M  V30 1092 H 103.609 2.8984 3.58231 0
M  V30 1093 H 101.924 2.49425 3.33431 0
M  V30 1094 H 104.521 0.545817 5.31907 0
M  V30 1095 H 104.864 -0.666294 4.10933 0
M  V30 1096 H 105.397 1.01212 3.84709 0
M  V30 1097 H 102.136 3.47224 5.55982 0
M  V30 1098 H 101.656 1.76827 5.73142 0
M  V30 1099 H 103.335 2.2626 6.06148 0
M  V30 1100 N 103.467 -1.45747 0.599634 0
M  V30 1101 C 104.692 -2.07178 0.0960198 0
M  V30 1102 C 105.117 -1.44268 -1.207 0
M  V30 1103 O 104.475 -0.532503 -1.73303 0
M  V30 1104 C 104.523 -3.60579 -0.0385348 0
M  V30 1105 O 103.627 -3.97713 -1.0908 0
M  V30 1106 H 102.968 -0.660251 0.0704593 0
M  V30 1107 H 105.498 -1.87124 0.827385 0
M  V30 1108 H 105.508 -4.07298 -0.239304 0
M  V30 1109 H 104.183 -4.05756 0.912947 0
M  V30 1110 H 102.76 -3.62678 -0.867135 0
M  V30 1111 N 104.945 -0.338344 -1.53925 0
M  V30 1112 C 106.356 0.146651 -1.86123 0
M  V30 1113 C 106.707 1.5042 -1.2597 0
M  V30 1114 O 105.832 2.08723 -0.571294 0
M  V30 1115 C 106.427 0.272879 -3.37699 0
M  V30 1116 C 104.986 0.702103 -3.69794 0
M  V30 1117 C 104.133 -0.167304 -2.76795 0
M  V30 1118 H 107.084 -0.558123 -1.48562 0
M  V30 1119 H 107.105 1.10128 -3.64214 0
M  V30 1120 H 106.617 -0.715307 -3.81451 0
M  V30 1121 H 104.718 1.6995 -3.31584 0
M  V30 1122 H 104.831 0.495604 -4.7653 0
M  V30 1123 H 103.195 0.359527 -2.5215 0
M  V30 1124 H 103.978 -1.15253 -3.23375 0
M  V30 1125 N 106.423 1.57458 -0.0668435 0
M  V30 1126 C 107.353 2.15468 0.899764 0
M  V30 1127 C 108.334 1.08042 1.31381 0
M  V30 1128 O 109.519 1.36054 1.38574 0
M  V30 1129 C 106.649 2.71232 2.16911 0
M  V30 1130 C 105.603 3.83781 1.89463 0
M  V30 1131 C 104.929 4.26127 3.22986 0
M  V30 1132 C 106.229 5.08238 1.20381 0
M  V30 1133 H 107.923 2.96488 0.416529 0
M  V30 1134 H 105.469 1.4262 0.198908 0
M  V30 1135 H 107.422 3.10458 2.84945 0
M  V30 1136 H 106.146 1.87426 2.67468 0
M  V30 1137 H 104.805 3.45051 1.23836 0
M  V30 1138 H 104.453 3.39249 3.71374 0
M  V30 1139 H 104.153 5.01993 3.05413 0
M  V30 1140 H 105.677 4.67966 3.92225 0
M  V30 1141 H 107.091 5.44811 1.78475 0
M  V30 1142 H 105.488 5.89349 1.13083 0
M  V30 1143 H 106.558 4.84558 0.182153 0
M  V30 1144 N 107.901 -0.206675 1.56239 0
M  V30 1145 C 108.864 -1.23976 1.92776 0
M  V30 1146 C 109.864 -1.39041 0.807729 0
M  V30 1147 O 111.054 -1.37051 1.0753 0
M  V30 1148 C 108.186 -2.61112 2.19165 0
M  V30 1149 H 109.379 -0.927764 2.85189 0
M  V30 1150 H 106.932 -0.447718 1.4975 0
M  V30 1151 H 107.667 -2.97386 1.29352 0
M  V30 1152 H 107.452 -2.51552 3.00772 0
M  V30 1153 H 108.942 -3.35633 2.48476 0
M  V30 1154 N 109.379 -1.50304 -0.473955 0
M  V30 1155 C 110.311 -1.65109 -1.58971 0
M  V30 1156 C 111.324 -0.532676 -1.53839 0
M  V30 1157 O 112.513 -0.805751 -1.59279 0
M  V30 1158 C 109.613 -1.61684 -2.97845 0
M  V30 1159 C 108.786 -2.8951 -3.27876 0
M  V30 1160 C 107.845 -2.78768 -4.4629 0
M  V30 1161 O 106.871 -3.52722 -4.46739 0
M  V30 1162 N 108.073 -1.9213 -5.47783 0
M  V30 1163 H 110.838 -2.61347 -1.46689 0
M  V30 1164 H 108.399 -1.47732 -0.662324 0
M  V30 1165 H 110.391 -1.52114 -3.75024 0
M  V30 1166 H 108.961 -0.731925 -3.03911 0
M  V30 1167 H 108.181 -3.13228 -2.39336 0
M  V30 1168 H 109.469 -3.74199 -3.4475 0
M  V30 1169 H 108.867 -1.31353 -5.50239 0
M  V30 1170 H 107.424 -1.88466 -6.23958 0
M  V30 1171 N 110.857 0.726932 -1.39834 0
M  V30 1172 C 111.82 1.82269 -1.38962 0
M  V30 1173 C 112.82 1.58248 -0.285334 0
M  V30 1174 O 114.01 1.65499 -0.54366 0
M  V30 1175 C 111.142 3.20186 -1.17019 0
M  V30 1176 H 112.335 1.84443 -2.36476 0
M  V30 1177 H 109.888 0.931416 -1.25516 0
M  V30 1178 H 110.623 3.23669 -0.202204 0
M  V30 1179 H 110.408 3.3902 -1.96998 0
M  V30 1180 H 111.898 4.00235 -1.1917 0
M  V30 1181 N 112.336 1.25143 0.95797 0
M  V30 1182 C 113.582 1.09855 1.70469 0
M  V30 1183 C 113.915 -0.360187 1.90831 0
M  V30 1184 O 113.19 -1.26568 1.47685 0
M  V30 1185 C 113.473 1.8497 3.08963 0
M  V30 1186 C 113.326 3.38652 2.96032 0
M  V30 1187 C 114.645 1.63016 4.08795 0
M  V30 1188 H 111.764 0.400465 0.618706 0
M  V30 1189 H 114.406 1.53933 1.11376 0
M  V30 1190 H 112.556 1.47505 3.59409 0
M  V30 1191 H 114.228 3.85772 2.52938 0
M  V30 1192 H 112.471 3.66534 2.32025 0
M  V30 1193 H 113.142 3.8642 3.94187 0
M  V30 1194 H 115.618 1.95625 3.67247 0
M  V30 1195 H 114.494 2.18015 5.03747 0
M  V30 1196 H 114.755 0.570692 4.38401 0
M  V30 1197 N 113.814 -1.1601 1.06675 0
M  V30 1198 C 115.23 -1.38622 0.790948 0
M  V30 1199 C 115.43 -1.92109 -0.607965 0
M  V30 1200 O 114.486 -2.12239 -1.36787 0
M  V30 1201 C 115.799 -2.36347 1.85905 0
M  V30 1202 C 117.347 -2.50023 1.88301 0
M  V30 1203 C 117.822 -3.51033 2.94176 0
M  V30 1204 N 119.313 -3.58563 2.93235 0
M  V30 1205 C 120.048 -4.36521 3.71803 0
M  V30 1206 N 119.544 -5.17869 4.602 0
M  V30 1207 N 121.337 -4.31541 3.60178 0
M  V30 1208 H 113.488 -0.796294 1.96908 0
M  V30 1209 H 115.751 -0.412597 0.853503 0
M  V30 1210 H 115.457 -2.04147 2.86386 0
M  V30 1211 H 115.331 -3.36042 1.71334 0
M  V30 1212 H 117.718 -2.81524 0.884769 0
M  V30 1213 H 117.799 -1.5035 2.06951 0
M  V30 1214 H 117.443 -3.20268 3.94196 0
M  V30 1215 H 117.373 -4.50445 2.72776 0
M  V30 1216 H 119.864 -3.00496 2.29152 0
M  V30 1217 H 120.177 -5.74578 5.16797 0
M  V30 1218 H 118.522 -5.17199 4.64253 0
M  V30 1219 H 121.713 -3.67051 2.90502 0
M  V30 1220 H 121.886 -4.9205 4.21653 0
M  V30 1221 N 115.292 -0.849877 -1.32721 0
M  V30 1222 C 116.517 -0.463856 -2.02146 0
M  V30 1223 C 116.942 0.930449 -1.63476 0
M  V30 1224 O 116.3 1.61033 -0.832952 0
M  V30 1225 C 116.348 -0.604955 -3.55489 0
M  V30 1226 O 115.452 0.36425 -4.10788 0
M  V30 1227 H 114.793 -0.187046 -0.637111 0
M  V30 1228 H 117.323 -1.14775 -1.69375 0
M  V30 1229 H 117.333 -0.490696 -4.05038 0
M  V30 1230 H 116.008 -1.62174 -3.82978 0
M  V30 1231 H 114.585 0.206628 -3.72327 0
M  V30 1232 N 116.77 1.45427 -0.607355 0
M  V30 1233 C 117.995 2.07124 -0.107006 0
M  V30 1234 C 118.42 1.44906 1.19933 0
M  V30 1235 O 117.778 0.541687 1.73019 0
M  V30 1236 C 117.826 3.60595 0.0194119 0
M  V30 1237 O 116.93 3.98285 1.0697 0
M  V30 1238 H 116.271 0.659868 -0.0739597 0
M  V30 1239 H 118.801 1.86683 -0.837297 0
M  V30 1240 H 118.811 4.07419 0.2177 0
M  V30 1241 H 117.486 4.05266 -0.934453 0
M  V30 1242 H 116.063 3.63133 0.847889 0
M  V30 1243 N 118.248 0.346503 1.53744 0
M  V30 1244 C 119.473 -0.253074 2.0585 0
M  V30 1245 C 119.898 -1.43202 1.21962 0
M  V30 1246 O 119.256 -1.79783 0.234073 0
M  V30 1247 C 119.304 -0.643193 3.54817 0
M  V30 1248 O 118.408 -1.74286 3.73762 0
M  V30 1249 H 117.749 -0.0413583 0.662711 0
M  V30 1250 H 120.279 0.501574 1.98357 0
M  V30 1251 H 120.289 -0.919526 3.97503 0
M  V30 1252 H 118.964 0.218966 4.15323 0
M  V30 1253 H 117.541 -1.46356 3.42979 0
M  V30 1254 N 119.726 -1.57421 0.075193 0
M  V30 1255 C 121.142 -1.57099 -0.281444 0
M  V30 1256 C 121.342 -1.08486 -1.69803 0
M  V30 1257 O 120.398 -0.752279 -2.41033 0
M  V30 1258 C 121.711 -3.00571 -0.0880041 0
M  V30 1259 C 123.259 -3.12605 -0.157281 0
M  V30 1260 C 123.734 -4.57999 0.0079207 0
M  V30 1261 N 125.225 -4.63176 -0.0475725 0
M  V30 1262 C 125.96 -5.73373 0.0557876 0
M  V30 1263 N 125.456 -6.92473 0.21286 0
M  V30 1264 N 127.249 -5.621 -0.00152098 0
M  V30 1265 H 119.4 -1.87335 1.00098 0
M  V30 1266 H 121.663 -0.86377 0.390646 0
M  V30 1267 H 121.369 -3.40262 0.889629 0
M  V30 1268 H 121.243 -3.67754 -0.838875 0
M  V30 1269 H 123.63 -2.72798 -1.1254 0
M  V30 1270 H 123.711 -2.48053 0.62475 0
M  V30 1271 H 123.355 -4.98496 0.972824 0
M  V30 1272 H 123.285 -5.20586 -0.793556 0
M  V30 1273 H 125.776 -3.7753 -0.167244 0
M  V30 1274 H 126.089 -7.72279 0.283781 0
M  V30 1275 H 124.434 -6.94556 0.248267 0
M  V30 1276 H 127.625 -4.67938 -0.122958 0
M  V30 1277 H 127.798 -6.47948 0.0824844 0
M  V30 1278 N 121.204 0.198386 -1.56346 0
M  V30 1279 C 122.432 0.935572 -1.84539 0
M  V30 1280 C 122.847 1.76989 -0.657281 0
M  V30 1281 O 122.204 1.78626 0.374043 0
M  V30 1282 C 122.255 1.8344 -3.11499 0
M  V30 1283 O 121.976 1.03377 -4.25728 0
M  V30 1284 C 123.477 2.68355 -3.52846 0
M  V30 1285 H 120.697 0.273126 -0.612897 0
M  V30 1286 H 123.241 0.20663 -2.03453 0
M  V30 1287 H 121.396 2.51701 -2.94492 0
M  V30 1288 H 121.81 1.64599 -4.98003 0
M  V30 1289 H 123.284 3.27085 -4.44657 0
M  V30 1290 H 123.761 3.41901 -2.75681 0
M  V30 1291 H 124.367 2.05471 -3.72373 0
M  V30 1292 N 122.682 1.50554 0.465978 0
M  V30 1293 C 124.093 1.54599 1.04671 0
M  V30 1294 C 124.444 0.352488 1.93008 0
M  V30 1295 O 123.569 -0.534044 2.09707 0
M  V30 1296 C 124.164 2.80166 1.90505 0
M  V30 1297 C 122.723 2.86876 2.43678 0
M  V30 1298 C 121.87 2.48947 1.22151 0
M  V30 1299 H 124.821 1.56744 0.248384 0
M  V30 1300 H 124.842 2.62311 2.75633 0
M  V30 1301 H 124.354 3.67013 1.26186 0
M  V30 1302 H 122.455 2.04393 3.11536 0
M  V30 1303 H 122.568 3.89885 2.78436 0
M  V30 1304 H 120.932 2.01498 1.5579 0
M  V30 1305 H 121.715 3.38107 0.594866 0
M  V30 1306 N 124.16 -0.719506 1.40217 0
M  V30 1307 C 125.385 -1.51371 1.4178 0
M  V30 1308 C 125.81 -1.88091 0.0182355 0
M  V30 1309 O 125.168 -1.52997 -0.972707 0
M  V30 1310 C 125.216 -2.768 2.31115 0
M  V30 1311 O 124.32 -3.73349 1.7517 0
M  V30 1312 H 123.661 -0.456529 0.482159 0
M  V30 1313 H 126.191 -0.88644 1.844 0
M  V30 1314 H 126.201 -3.25371 2.46167 0
M  V30 1315 H 124.876 -2.49407 3.3282 0
M  V30 1316 H 123.453 -3.32179 1.69444 0
M  V30 1317 N 125.638 -1.25649 -0.95132 0
M  V30 1318 C 126.915 -1.01361 -1.67288 0
M  V30 1319 C 127.295 0.459135 -2.06046 0
M  V30 1320 O 126.643 1.43723 -1.7764 0
M  V30 1321 C 126.853 -1.95256 -2.89268 0
M  V30 1322 C 128.201 -2.23289 -3.61147 0
M  V30 1323 O 129.225 -1.93041 -2.99355 0
M  V30 1324 O 128.084 -2.74741 -4.72419 0
M  V30 1325 H 125.178 -0.38464 -0.732107 0
M  V30 1326 H 127.724 -1.36817 -1.00395 0
M  V30 1327 H 126.496 -2.94685 -2.57442 0
M  V30 1328 H 126.119 -1.60218 -3.6389 0
M  V30 1329 N 127.117 1.15442 -1.07289 0
M  V30 1330 C 128.064 2.20161 -0.692653 0
M  V30 1331 C 129.034 1.63073 0.31564 0
M  V30 1332 O 130.219 1.89725 0.202235 0
M  V30 1333 C 127.359 3.44967 -0.0959509 0
M  V30 1334 C 126.472 4.16256 -1.15564 0
M  V30 1335 C 125.607 5.28609 -0.524011 0
M  V30 1336 C 124.646 5.91715 -1.56653 0
M  V30 1337 N 123.783 6.9554 -0.957531 0
M  V30 1338 H 128.623 2.52037 -1.59002 0
M  V30 1339 H 126.16 1.2378 -0.794798 0
M  V30 1340 H 128.118 4.16341 0.267628 0
M  V30 1341 H 126.748 3.1361 0.764772 0
M  V30 1342 H 125.8 3.43385 -1.6368 0
M  V30 1343 H 127.112 4.59268 -1.94613 0
M  V30 1344 H 126.266 6.06604 -0.108032 0
M  V30 1345 H 125.005 4.86787 0.29825 0
M  V30 1346 H 124.01 5.12433 -1.9923 0
M  V30 1347 H 125.235 6.35614 -2.39107 0
M  V30 1348 H 123.181 6.55814 -0.156162 0
M  V30 1349 H 123.098 7.36977 -1.68526 0
M  V30 1350 H 124.366 7.77435 -0.567032 0
M  V30 1351 N 128.595 0.856903 1.32268 0
M  V30 1352 C 130.006 0.515711 1.79436 0
M  V30 1353 C 130.357 -0.966586 1.70738 0
M  V30 1354 O 129.482 -1.75409 1.26731 0
M  V30 1355 C 130.077 0.929335 3.25805 0
M  V30 1356 C 128.636 0.640006 3.70919 0
M  V30 1357 C 127.783 1.12784 2.53328 0
M  V30 1358 H 130.734 1.04389 1.19535 0
M  V30 1359 H 130.755 0.246633 3.797 0
M  V30 1360 H 130.267 2.00821 3.32103 0
M  V30 1361 H 128.368 -0.428051 3.70133 0
M  V30 1362 H 128.481 1.20788 4.63624 0
M  V30 1363 H 126.845 0.548033 2.48734 0
M  V30 1364 H 127.628 2.21387 2.62379 0
M  V30 1365 N 130.073 -1.45103 0.615059 0
M  V30 1366 C 131.319 -2.02483 0.113347 0
M  V30 1367 C 131.652 -1.48146 -1.25564 0
M  V30 1368 O 130.927 -0.659104 -1.82992 0
M  V30 1369 C 131.21 -3.60005 0.0825278 0
M  V30 1370 C 131.063 -4.2466 1.48271 0
M  V30 1371 C 132.382 -4.35972 -0.601401 0
M  V30 1372 H 129.501 -0.735764 0.0426632 0
M  V30 1373 H 132.143 -1.72868 0.788461 0
M  V30 1374 H 130.293 -3.85367 -0.492378 0
M  V30 1375 H 131.965 -4.10458 2.10527 0
M  V30 1376 H 130.208 -3.82772 2.04127 0
M  V30 1377 H 130.879 -5.336 1.41332 0
M  V30 1378 H 133.355 -4.15947 -0.112666 0
M  V30 1379 H 132.231 -5.45697 -0.592097 0
M  V30 1380 H 132.492 -4.09391 -1.66887 0
M  V30 1381 N 131.551 -0.354651 -1.53558 0
M  V30 1382 C 132.514 0.484566 -2.24019 0
M  V30 1383 C 133.514 1.01861 -1.24422 0
M  V30 1384 O 134.704 0.906097 -1.4878 0
M  V30 1385 C 131.836 1.67615 -2.96847 0
M  V30 1386 H 133.029 -0.131843 -2.9961 0
M  V30 1387 H 130.582 -0.106165 -1.55939 0
M  V30 1388 H 131.317 2.33095 -2.25471 0
M  V30 1389 H 131.102 1.30029 -3.69912 0
M  V30 1390 H 132.592 2.27114 -3.50441 0
M  V30 1391 N 133.029 1.57378 -0.0835403 0
M  V30 1392 C 133.979 2.09916 0.889905 0
M  V30 1393 C 134.963 1.01151 1.25129 0
M  V30 1394 O 136.155 1.27443 1.2283 0
M  V30 1395 C 133.284 2.67379 2.15322 0
M  V30 1396 C 132.37 3.83167 1.81779 0
M  V30 1397 N 132.761 4.91665 1.18739 0
M  V30 1398 C 131.059 3.92685 2.11459 0
M  V30 1399 C 131.76 5.72409 1.0355 0
M  V30 1400 N 130.736 5.21062 1.54906 0
M  V30 1401 H 134.538 2.91188 0.398378 0
M  V30 1402 H 132.052 1.61956 0.120013 0
M  V30 1403 H 134.049 3.0334 2.8599 0
M  V30 1404 H 132.709 1.87558 2.65051 0
M  V30 1405 H 133.72 5.10784 0.855604 0
M  V30 1406 H 130.397 3.23856 2.63483 0
M  V30 1407 H 131.787 6.69699 0.543425 0
M  V30 1408 N 134.507 -0.190092 1.56449 0
M  V30 1409 C 135.753 -0.911052 1.81184 0
M  V30 1410 C 136.086 -1.82699 0.658396 0
M  V30 1411 O 135.361 -1.91491 -0.340775 0
M  V30 1412 C 135.644 -1.72297 3.16205 0
M  V30 1413 C 135.497 -0.831419 4.42049 0
M  V30 1414 C 136.816 -2.69454 3.47969 0
M  V30 1415 H 133.935 -0.32977 0.659106 0
M  V30 1416 H 136.577 -0.178169 1.89163 0
M  V30 1417 H 134.727 -2.34778 3.09534 0
M  V30 1418 H 136.399 -0.220929 4.60771 0
M  V30 1419 H 134.642 -0.138406 4.33579 0
M  V30 1420 H 135.313 -1.43461 5.33032 0
M  V30 1421 H 137.789 -2.17104 3.54972 0
M  V30 1422 H 136.665 -3.23342 4.43555 0
M  V30 1423 H 136.926 -3.48744 2.71717 0
M  V30 1424 N 135.985 -1.50799 -0.457987 0
M  V30 1425 C 137.231 -1.62683 -1.21088 0
M  V30 1426 C 137.564 -0.332268 -1.91336 0
M  V30 1427 O 136.839 0.667043 -1.82704 0
M  V30 1428 C 137.122 -2.81615 -2.24422 0
M  V30 1429 C 136.975 -4.20989 -1.58392 0
M  V30 1430 C 138.294 -2.96085 -3.2561 0
M  V30 1431 H 135.413 -0.592087 -0.438864 0
M  V30 1432 H 138.055 -1.83225 -0.50286 0
M  V30 1433 H 136.205 -2.64231 -2.84806 0
M  V30 1434 H 137.877 -4.49994 -1.01504 0
M  V30 1435 H 136.12 -4.24641 -0.886704 0
M  V30 1436 H 136.791 -5.0016 -2.33547 0
M  V30 1437 H 139.267 -3.12042 -2.75262 0
M  V30 1438 H 138.143 -3.80902 -3.95228 0
M  V30 1439 H 138.404 -2.0726 -3.90507 0
M  V30 1440 N 137.463 0.71206 -1.40597 0
M  V30 1441 C 138.426 1.80785 -1.40888 0
M  V30 1442 C 139.426 1.57937 -0.302103 0
M  V30 1443 O 140.616 1.64913 -0.561182 0
M  V30 1444 C 137.748 3.18927 -1.20409 0
M  V30 1445 H 138.941 1.81924 -2.38419 0
M  V30 1446 H 136.494 0.91805 -1.26497 0
M  V30 1447 H 137.229 3.23436 -0.236522 0
M  V30 1448 H 137.014 3.36911 -2.00582 0
M  V30 1449 H 138.504 3.98949 -1.23408 0
M  V30 1450 N 138.941 1.26152 0.944643 0
M  V30 1451 C 139.889 1.07215 2.06417 0
M  V30 1452 C 140.883 9.2007e-05 1.694 0
M  V30 1453 O 142.089 0.1565 1.79318 0
M  V30 1454 H 138.464 0.329837 0.675805 0
M  V30 1455 H 140.435 2.02099 2.19541 0
M  V30 1456 C 139.184 0.718197 3.40202 0
M  V30 1457 H 138.507 1.53497 3.69159 0
M  V30 1458 H 139.947 0.625459 4.19361 0
M  V30 1459 C 138.406 -0.576435 3.31932 0
M  V30 1460 O 138.936 -1.61574 3.67773 0
M  V30 1461 N 137.142 -0.565781 2.85039 0
M  V30 1462 H 136.689 0.280367 2.5607 0
M  V30 1463 H 136.647 -1.43213 2.79888 0
M  V30 1464 N 140.419 -1.14872 1.07899 0
M  V30 1465 C 141.83 -1.67367 0.827363 0
M  V30 1466 C 142.181 -1.85236 -0.646693 0
M  V30 1467 O 141.306 -1.55974 -1.50004 0
M  V30 1468 C 141.901 -3.04016 1.49532 0
M  V30 1469 C 140.46 -3.53566 1.29106 0
M  V30 1470 C 139.607 -2.29161 1.56143 0
M  V30 1471 H 142.558 -0.990083 1.24028 0
M  V30 1472 H 142.579 -3.69219 0.919643 0
M  V30 1473 H 142.091 -2.90978 2.56814 0
M  V30 1474 H 140.192 -3.71835 0.238713 0
M  V30 1475 H 140.305 -4.34661 2.01511 0
M  V30 1476 H 138.669 -2.34978 0.982717 0
M  V30 1477 H 139.452 -2.18705 2.64619 0
M  V30 1478 N 141.898 -0.863906 -1.31812 0
M  V30 1479 C 142.83 -0.272485 -2.27575 0
M  V30 1480 C 143.843 0.56104 -1.52827 0
M  V30 1481 O 145.032 0.384021 -1.7432 0
M  V30 1482 C 142.132 0.63283 -3.32939 0
M  V30 1483 C 141.305 -0.166902 -4.37081 0
M  V30 1484 C 140.364 0.665608 -5.21973 0
M  V30 1485 O 139.39 0.0958091 -5.69119 0
M  V30 1486 N 140.592 1.9787 -5.45736 0
M  V30 1487 H 143.357 -1.0954 -2.78964 0
M  V30 1488 H 140.918 -0.724791 -1.4477 0
M  V30 1489 H 142.91 1.19532 -3.86645 0
M  V30 1490 H 141.48 1.35642 -2.81638 0
M  V30 1491 H 140.7 -0.910838 -3.83533 0
M  V30 1492 H 141.988 -0.715874 -5.03739 0
M  V30 1493 H 141.386 2.46484 -5.09178 0
M  V30 1494 H 139.943 2.48911 -6.024 0
M  V30 1495 N 143.376 1.44774 -0.622745 0
M  V30 1496 C 144.339 2.29069 0.0774015 0
M  V30 1497 C 145.339 1.4059 0.780461 0
M  V30 1498 O 146.529 1.62551 0.626322 0
M  V30 1499 C 143.661 3.21974 1.12006 0
M  V30 1500 H 144.854 2.92459 -0.663901 0
M  V30 1501 H 142.407 1.51548 -0.382486 0
M  V30 1502 H 143.142 2.63417 1.89162 0
M  V30 1503 H 142.927 3.87168 0.619951 0
M  V30 1504 H 144.417 3.85318 1.60995 0
M  V30 1505 N 144.854 0.36279 1.53368 0
M  V30 1506 C 145.764 -0.492994 2.29362 0
M  V30 1507 C 146.78 -1.09507 1.35219 0
M  V30 1508 O 147.956 -1.10662 1.68273 0
M  V30 1509 C 145.021 -1.61855 3.066 0
M  V30 1510 C 144.082 -1.04429 4.16405 0
M  V30 1511 C 143.315 -2.11621 4.89951 0
M  V30 1512 O 143.538 -3.32684 4.63333 0
M  V30 1513 O 142.472 -1.74835 5.75948 0
M  V30 1514 H 146.298 0.125331 3.03441 0
M  V30 1515 H 143.883 0.127253 1.48857 0
M  V30 1516 H 145.765 -2.27302 3.54841 0
M  V30 1517 H 144.44 -2.22233 2.3536 0
M  V30 1518 H 143.347 -0.353819 3.72423 0
M  V30 1519 H 144.68 -0.485113 4.89804 0
M  V30 1520 N 146.332 -1.57332 0.0918853 0
M  V30 1521 C 147.58 -1.93853 -0.571446 0
M  V30 1522 C 147.901 -0.974212 -1.6892 0
M  V30 1523 O 147.171 -0.0257254 -1.95883 0
M  V30 1524 H 145.751 -0.715666 -0.214082 0
M  V30 1525 H 148.413 -1.94287 0.154464 0
M  V30 1526 H 147.509 -2.96191 -0.983729 0
M  V30 1527 N 147.81 0.181792 -1.56548 0
M  V30 1528 C 148.742 1.24956 -1.92142 0
M  V30 1529 C 149.755 1.41022 -0.813422 0
M  V30 1530 O 150.944 1.41212 -1.09186 0
M  V30 1531 C 148.044 2.61981 -2.14987 0
M  V30 1532 C 147.217 2.6735 -3.46183 0
M  V30 1533 C 146.276 3.85664 -3.5798 0
M  V30 1534 O 145.302 3.72148 -4.30691 0
M  V30 1535 N 146.504 5.01683 -2.92053 0
M  V30 1536 H 149.269 0.947329 -2.84334 0
M  V30 1537 H 146.83 0.371629 -1.57577 0
M  V30 1538 H 148.822 3.3958 -2.20154 0
M  V30 1539 H 147.392 2.84637 -1.2923 0
M  V30 1540 H 146.612 1.75925 -3.52766 0
M  V30 1541 H 147.9 2.67939 -4.32534 0
M  V30 1542 H 147.298 5.15564 -2.32832 0
M  V30 1543 H 145.855 5.77181 -3.0283 0
M  V30 1544 N 149.288 1.51039 0.449983 0
M  V30 1545 C 150.218 1.74379 1.55288 0
M  V30 1546 C 151.199 0.593236 1.5942 0
M  V30 1547 O 152.384 0.834625 1.7535 0
M  V30 1548 C 149.514 1.85728 2.93466 0
M  V30 1549 C 148.468 3.01078 3.04197 0
M  V30 1550 C 147.794 2.97595 4.44231 0
M  V30 1551 C 149.094 4.41254 2.7945 0
M  V30 1552 H 150.788 2.66725 1.36008 0
M  V30 1553 H 148.334 1.2835 0.652864 0
M  V30 1554 H 150.287 2.0064 3.70569 0
M  V30 1555 H 149.011 0.900207 3.13949 0
M  V30 1556 H 147.67 2.85851 2.29531 0
M  V30 1557 H 147.318 1.99691 4.61663 0
M  V30 1558 H 147.018 3.75046 4.52343 0
M  V30 1559 H 148.542 3.14583 5.23326 0
M  V30 1560 H 149.956 4.56897 3.46292 0
M  V30 1561 H 148.353 5.20315 2.98985 0
M  V30 1562 H 149.423 4.52164 1.75144 0
M  V30 1563 N 150.766 -0.704594 1.40972 0
M  V30 1564 C 151.698 -1.82974 1.38033 0
M  V30 1565 C 152.711 -1.60305 0.283931 0
M  V30 1566 O 153.9 -1.69975 0.545042 0
M  V30 1567 C 151 -3.19578 1.12795 0
M  V30 1568 C 150.173 -3.69352 2.34302 0
M  V30 1569 C 149.232 -4.84601 2.05058 0
M  V30 1570 O 148.258 -4.96682 2.7802 0
M  V30 1571 N 149.46 -5.71194 1.03528 0
M  V30 1572 H 152.225 -1.85991 2.35005 0
M  V30 1573 H 149.786 -0.886567 1.35468 0
M  V30 1574 H 151.778 -3.9429 0.911987 0
M  V30 1575 H 150.348 -3.11642 0.24452 0
M  V30 1576 H 149.568 -2.85649 2.71659 0
M  V30 1577 H 150.856 -3.99345 3.1528 0
M  V30 1578 H 150.254 -5.64054 0.431217 0
M  V30 1579 H 148.811 -6.45843 0.879205 0
M  V30 1580 N 152.244 -1.26651 -0.937939 0
M  V30 1581 C 153.49 -1.13562 -1.68746 0
M  V30 1582 C 153.845 0.317241 -1.89767 0
M  V30 1583 O 153.138 1.22939 -1.46957 0
M  V30 1584 C 153.332 -1.84168 -3.06295 0
M  V30 1585 C 153.161 -3.36171 -2.98696 0
M  V30 1586 C 151.931 -4.05468 -3.01535 0
M  V30 1587 C 154.129 -4.32312 -2.78588 0
M  V30 1588 N 152.111 -5.44118 -2.84269 0
M  V30 1589 C 153.482 -5.58159 -2.69924 0
M  V30 1590 C 155.537 -4.22524 -2.63396 0
M  V30 1591 C 154.24 -6.75335 -2.47618 0
M  V30 1592 C 156.266 -5.39411 -2.42466 0
M  V30 1593 C 155.628 -6.64208 -2.34536 0
M  V30 1594 H 151.727 -0.470361 -0.624728 0
M  V30 1595 H 154.311 -1.59982 -1.10968 0
M  V30 1596 H 152.482 -1.40219 -3.62206 0
M  V30 1597 H 154.214 -1.63674 -3.70126 0
M  V30 1598 H 150.969 -3.56854 -3.11372 0
M  V30 1599 H 151.393 -6.1693 -2.78795 0
M  V30 1600 H 156.035 -3.26771 -2.68292 0
M  V30 1601 H 153.753 -7.71182 -2.41463 0
M  V30 1602 H 157.339 -5.33711 -2.31611 0
M  V30 1603 H 156.219 -7.53129 -2.18555 0
M  V30 1604 N 153.722 1.14298 -1.08507 0
M  V30 1605 C 154.652 2.21542 -0.737646 0
M  V30 1606 C 155.633 1.67773 0.280377 0
M  V30 1607 O 156.818 1.93616 0.150521 0
M  V30 1608 C 153.948 3.46988 -0.147259 0
M  V30 1609 C 152.902 4.13789 -1.09374 0
M  V30 1610 C 152.228 5.33449 -0.365524 0
M  V30 1611 C 153.528 4.62208 -2.4323 0
M  V30 1612 H 155.222 2.5086 -1.6343 0
M  V30 1613 H 152.768 1.20576 -0.787243 0
M  V30 1614 H 154.721 4.21262 0.107808 0
M  V30 1615 H 153.445 3.17037 0.784538 0
M  V30 1616 H 152.104 3.4147 -1.33393 0
M  V30 1617 H 151.752 4.99759 0.57011 0
M  V30 1618 H 151.452 5.79088 -0.996512 0
M  V30 1619 H 152.976 6.10485 -0.118534 0
M  V30 1620 H 154.39 5.27952 -2.23472 0
M  V30 1621 H 152.787 5.18553 -3.02031 0
M  V30 1622 H 153.857 3.77224 -3.04681 0
M  V30 1623 N 155.201 0.870884 1.31352 0
M  V30 1624 C 156.149 0.316445 2.30437 0
M  V30 1625 C 157.143 -0.568965 1.59559 0
M  V30 1626 O 158.349 -0.454964 1.74155 0
M  V30 1627 H 154.724 0.0836521 0.747333 0
M  V30 1628 H 156.695 1.16606 2.74673 0
M  V30 1629 C 155.444 -0.46635 3.44558 0
M  V30 1630 H 154.767 0.205687 3.99271 0
M  V30 1631 H 156.207 -0.819614 4.16003 0
M  V30 1632 C 154.666 -1.65797 2.9328 0
M  V30 1633 O 155.196 -2.75728 2.92125 0
M  V30 1634 N 153.402 -1.49041 2.4947 0
M  V30 1635 H 152.949 -0.59612 2.50608 0
M  V30 1636 H 152.907 -2.28911 2.15516 0
M  V30 1637 N 156.679 -1.44442 0.630414 0
M  V30 1638 C 158.095 -1.56832 0.295973 0
M  V30 1639 C 158.295 -1.61806 -1.20088 0
M  V30 1640 O 157.351 -1.5607 -1.9849 0
M  V30 1641 C 158.664 -2.84031 0.987264 0
M  V30 1642 C 160.212 -2.97742 0.96534 0
M  V30 1643 C 160.687 -4.27743 1.63708 0
M  V30 1644 N 162.178 -4.34555 1.60364 0
M  V30 1645 C 162.913 -5.33862 2.09234 0
M  V30 1646 N 162.409 -6.39578 2.66292 0
M  V30 1647 N 164.202 -5.25366 1.99867 0
M  V30 1648 H 156.353 -1.39457 1.60205 0
M  V30 1649 H 158.616 -0.668237 0.672431 0
M  V30 1650 H 158.322 -2.86338 2.04215 0
M  V30 1651 H 158.196 -3.73534 0.524588 0
M  V30 1652 H 160.583 -2.94989 -0.0810639 0
M  V30 1653 H 160.664 -2.09589 1.4665 0
M  V30 1654 H 160.308 -4.31255 2.68293 0
M  V30 1655 H 160.238 -5.14752 1.11076 0
M  V30 1656 H 162.729 -3.58772 1.18705 0
M  V30 1657 H 163.042 -7.11637 3.01317 0
M  V30 1658 H 161.387 -6.40265 2.70343 0
M  V30 1659 H 164.578 -4.41688 1.55013 0
M  V30 1660 H 164.751 -6.02606 2.38265 0
M  V30 1661 N 158.157 -0.370918 -1.53173 0
M  V30 1662 C 159.573 -0.0200818 -1.59587 0
M  V30 1663 C 159.773 1.46279 -1.38581 0
M  V30 1664 O 158.829 2.22506 -1.19363 0
M  V30 1665 C 160.142 -0.4808 -2.96831 0
M  V30 1666 C 161.69 -0.435477 -3.09956 0
M  V30 1667 C 162.165 -0.872092 -4.4962 0
M  V30 1668 N 163.656 -0.827364 -4.55751 0
M  V30 1669 C 164.391 -1.13683 -5.62018 0
M  V30 1670 N 163.887 -1.51584 -6.76014 0
M  V30 1671 N 165.68 -1.05927 -5.52029 0
M  V30 1672 H 157.831 -1.33652 -1.65079 0
M  V30 1673 H 160.094 -0.546634 -0.774529 0
M  V30 1674 H 159.8 -1.51577 -3.1736 0
M  V30 1675 H 159.674 0.129796 -3.76977 0
M  V30 1676 H 162.061 0.590371 -2.89134 0
M  V30 1677 H 162.142 -1.08164 -2.31806 0
M  V30 1678 H 161.786 -1.89608 -4.71181 0
M  V30 1679 H 161.716 -0.203127 -5.26208 0
M  V30 1680 H 164.207 -0.548216 -3.73902 0
M  V30 1681 H 164.52 -1.73609 -7.53047 0
M  V30 1682 H 162.865 -1.55454 -6.77391 0
M  V30 1683 H 166.056 -0.762321 -4.61851 0
M  V30 1684 H 166.229 -1.30378 -6.34749 0
M  V30 1685 N 159.635 1.57281 -0.100228 0
M  V30 1686 C 160.598 2.13158 0.842398 0
M  V30 1687 C 161.598 1.06202 1.20738 0
M  V30 1688 O 162.788 1.32066 1.13597 0
M  V30 1689 C 159.92 2.65639 2.13655 0
M  V30 1690 H 161.113 2.97766 0.357114 0
M  V30 1691 H 158.666 1.5559 0.148823 0
M  V30 1692 H 159.401 1.84566 2.66657 0
M  V30 1693 H 159.186 3.43844 1.88451 0
M  V30 1694 H 160.676 3.08846 2.81077 0
M  V30 1695 N 161.113 -0.173488 1.56642 0
M  V30 1696 C 162.061 -1.23417 1.97157 0
M  V30 1697 C 163.055 -1.45946 0.860013 0
M  V30 1698 O 164.261 -1.46551 1.04512 0
M  V30 1699 H 160.636 -0.414818 0.62724 0
M  V30 1700 H 162.607 -0.865582 2.8557 0
M  V30 1701 C 161.356 -2.5665 2.34576 0
M  V30 1702 H 160.679 -2.40137 3.19647 0
M  V30 1703 H 162.119 -3.2956 2.6677 0
M  V30 1704 C 160.578 -3.15245 1.18836 0
M  V30 1705 O 161.108 -3.98883 0.474869 0
M  V30 1706 N 159.314 -2.74303 0.959497 0
M  V30 1707 H 158.861 -2.0639 1.54146 0
M  V30 1708 H 158.819 -3.13844 0.186932 0
M  V30 1709 N 162.591 -1.51276 -0.441967 0
M  V30 1710 C 163.554 -1.7167 -1.51862 0
M  V30 1711 C 164.554 -0.586793 -1.49711 0
M  V30 1712 O 165.744 -0.854276 -1.51815 0
M  V30 1713 C 162.876 -1.76889 -2.91416 0
M  V30 1714 H 164.069 -2.67754 -1.35084 0
M  V30 1715 H 161.622 -1.41196 -0.670333 0
M  V30 1716 H 162.357 -0.826026 -3.13604 0
M  V30 1717 H 162.142 -2.59001 -2.94382 0
M  V30 1718 H 163.632 -1.94522 -3.69528 0
M  V30 1719 N 164.069 0.697108 -1.41344 0
M  V30 1720 C 164.999 1.82353 -1.45841 0
M  V30 1721 C 165.98 1.67115 -0.317247 0
M  V30 1722 O 167.165 1.86871 -0.528474 0
M  V30 1723 C 164.295 3.20476 -1.33838 0
M  V30 1724 C 163.249 3.50415 -2.4575 0
M  V30 1725 C 162.575 4.87878 -2.18813 0
M  V30 1726 C 163.875 3.49546 -3.88091 0
M  V30 1727 H 165.569 1.78846 -2.40113 0
M  V30 1728 H 163.115 0.859028 -1.15571 0
M  V30 1729 H 165.068 3.98988 -1.35596 0
M  V30 1730 H 163.792 3.24604 -0.360498 0
M  V30 1731 H 162.451 2.74253 -2.43271 0
M  V30 1732 H 162.099 4.8863 -1.19371 0
M  V30 1733 H 161.799 5.08875 -2.93803 0
M  V30 1734 H 163.323 5.68702 -2.22284 0
M  V30 1735 H 164.737 4.18066 -3.92293 0
M  V30 1736 H 163.134 3.82075 -4.62751 0
M  V30 1737 H 164.204 2.48552 -4.16353 0
M  V30 1738 N 165.547 1.27147 0.931209 0
M  V30 1739 C 166.477 1.12081 2.04842 0
M  V30 1740 C 167.458 0.0232364 1.70084 0
M  V30 1741 O 168.643 0.197085 1.93197 0
M  V30 1742 C 165.773 0.76354 3.38803 0
M  V30 1743 C 164.727 1.81396 3.87659 0
M  V30 1744 C 164.053 1.31075 5.18385 0
M  V30 1745 C 165.353 3.21739 4.11438 0
M  V30 1746 H 167.047 2.05537 2.17703 0
M  V30 1747 H 164.593 0.989603 1.04608 0
M  V30 1748 H 166.546 0.644982 4.16435 0
M  V30 1749 H 165.27 -0.206727 3.25945 0
M  V30 1750 H 163.929 1.92136 3.12217 0
M  V30 1751 H 163.577 0.330037 5.01916 0
M  V30 1752 H 163.277 2.013 5.52044 0
M  V30 1753 H 164.801 1.20506 5.98591 0
M  V30 1754 H 166.215 3.14019 4.79651 0
M  V30 1755 H 164.612 3.89644 4.56397 0
M  V30 1756 H 165.682 3.67054 3.16859 0
M  V30 1757 N 167.025 -1.13721 1.09112 0
M  V30 1758 C 167.988 -2.17222 0.731241 0
M  V30 1759 C 168.988 -1.59035 -0.237566 0
M  V30 1760 O 170.178 -1.74192 -0.0161704 0
M  V30 1761 C 167.31 -3.40804 0.0808443 0
M  V30 1762 H 168.503 -2.50573 1.64783 0
M  V30 1763 H 166.056 -1.28493 0.889897 0
M  V30 1764 H 166.791 -3.1304 -0.847127 0
M  V30 1765 H 166.576 -3.84306 0.777896 0
M  V30 1766 H 168.066 -4.1731 -0.155657 0
M  V30 1767 N 168.503 -0.877838 -1.30888 0
M  V30 1768 C 169.451 -0.328662 -2.30266 0
M  V30 1769 C 170.445 0.560496 -1.59859 0
M  V30 1770 O 171.651 0.445722 -1.74394 0
M  V30 1771 H 168.026 -0.0876142 -0.746879 0
M  V30 1772 H 169.997 -1.18061 -2.74051 0
M  V30 1773 C 168.746 0.448071 -3.44801 0
M  V30 1774 H 168.069 -0.226859 -3.99156 0
M  V30 1775 H 169.509 0.797541 -4.16432 0
M  V30 1776 C 167.968 1.64239 -2.94155 0
M  V30 1777 O 168.498 2.74175 -2.93583 0
M  V30 1778 N 166.704 1.47716 -2.50256 0
M  V30 1779 H 166.251 0.582821 -2.5092 0
M  V30 1780 H 166.209 2.27765 -2.16727 0
M  V30 1781 N 169.982 1.44106 -0.638065 0
M  V30 1782 C 171.23 2.01579 -0.145043 0
M  V30 1783 C 171.551 1.50496 1.24 0
M  V30 1784 O 170.821 0.711374 1.82527 0
M  V30 1785 H 169.401 0.745282 -0.05063 0
M  V30 1786 H 172.063 1.76516 -0.826327 0
M  V30 1787 H 171.159 3.11877 -0.118039 0
M  V30 1788 N 171.46 0.379036 1.52974 0
M  V30 1789 C 172.706 -0.206727 2.01744 0
M  V30 1790 C 173.039 -1.47314 1.26539 0
M  V30 1791 O 172.314 -1.91084 0.362903 0
M  V30 1792 C 172.597 -0.485066 3.56818 0
M  V30 1793 C 172.45 0.795919 4.42702 0
M  V30 1794 C 173.769 -1.28003 4.21074 0
M  V30 1795 H 170.888 -0.0736607 0.73331 0
M  V30 1796 H 173.53 0.506581 1.83122 0
M  V30 1797 H 171.68 -1.09272 3.72816 0
M  V30 1798 H 173.352 1.43307 4.38476 0
M  V30 1799 H 171.595 1.41344 4.10127 0
M  V30 1800 H 172.266 0.555947 5.49193 0
M  V30 1801 H 174.742 -0.765867 4.08991 0
M  V30 1802 H 173.618 -1.44352 5.29579 0
M  V30 1803 H 173.879 -2.29236 3.78026 0
M  V30 1804 N 172.938 -1.57226 0.108567 0
M  V30 1805 C 173.848 -2.18292 -0.859401 0
M  V30 1806 C 174.864 -1.15612 -1.30038 0
M  V30 1807 O 176.04 -1.48039 -1.36552 0
M  V30 1808 C 173.105 -2.762 -2.09558 0
M  V30 1809 C 172.166 -3.93881 -1.70752 0
M  V30 1810 C 171.399 -4.49018 -2.88477 0
M  V30 1811 O 171.622 -4.03068 -4.036 0
M  V30 1812 O 170.556 -5.39852 -2.66164 0
M  V30 1813 H 174.382 -3.01441 -0.369769 0
M  V30 1814 H 171.967 -1.48945 -0.1165 0
M  V30 1815 H 173.849 -3.13156 -2.81978 0
M  V30 1816 H 172.524 -1.96089 -2.57548 0
M  V30 1817 H 171.431 -3.61713 -0.954714 0
M  V30 1818 H 172.764 -4.75396 -1.27513 0
M  V30 1819 N 174.416 0.165178 -1.56732 0
M  V30 1820 C 175.346 1.20651 -1.99914 0
M  V30 1821 C 176.327 1.45827 -0.875705 0
M  V30 1822 O 177.512 1.57057 -1.14223 0
M  V30 1823 C 174.642 2.54401 -2.36427 0
M  V30 1824 C 173.596 2.43782 -3.51787 0
M  V30 1825 C 172.922 3.82078 -3.7406 0
M  V30 1826 C 174.222 1.93732 -4.85041 0
M  V30 1827 H 175.916 0.847534 -2.87154 0
M  V30 1828 H 173.462 0.40625 -1.38151 0
M  V30 1829 H 175.415 3.27458 -2.65234 0
M  V30 1830 H 174.139 2.92098 -1.46103 0
M  V30 1831 H 172.798 1.73178 -3.23117 0
M  V30 1832 H 172.446 4.17179 -2.81017 0
M  V30 1833 H 172.146 3.7584 -4.51684 0
M  V30 1834 H 173.67 4.56712 -4.05274 0
M  V30 1835 H 175.084 2.56569 -5.12684 0
M  V30 1836 H 173.481 1.98428 -5.66345 0
M  V30 1837 H 174.551 0.891962 -4.76626 0
M  V30 1838 N 175.894 1.51508 0.433938 0
M  V30 1839 C 177.31 1.39759 0.770682 0
M  V30 1840 C 177.51 0.482594 1.95636 0
M  V30 1841 O 176.566 -0.0609691 2.52426 0
M  V30 1842 C 177.879 2.81851 1.04787 0
M  V30 1843 C 179.427 2.91025 1.1521 0
M  V30 1844 C 179.902 4.34032 1.46219 0
M  V30 1845 N 181.393 4.37154 1.53136 0
M  V30 1846 C 182.128 5.4484 1.78709 0
M  V30 1847 N 181.624 6.62682 2.02051 0
M  V30 1848 N 183.417 5.32324 1.80519 0
M  V30 1849 H 175.568 2.09548 -0.346892 0
M  V30 1850 H 177.831 0.943446 -0.0928074 0
M  V30 1851 H 177.537 3.50815 0.249304 0
M  V30 1852 H 177.411 3.21386 1.97461 0
M  V30 1853 H 179.798 2.22257 1.94128 0
M  V30 1854 H 179.879 2.54983 0.204281 0
M  V30 1855 H 179.523 5.03351 0.678274 0
M  V30 1856 H 179.453 4.6759 2.42212 0
M  V30 1857 H 181.944 3.52197 1.36987 0
M  V30 1858 H 182.257 7.40543 2.20943 0
M  V30 1859 H 180.602 6.65791 1.99366 0
M  V30 1860 H 183.793 4.39246 1.61805 0
M  V30 1861 H 183.966 6.16328 2.00111 0
M  V30 1862 N 177.372 -0.689602 1.41712 0
M  V30 1863 C 178.649 -1.44457 1.31877 0
M  V30 1864 C 179.029 -2.11039 -0.0508537 0
M  V30 1865 O 178.377 -2.02138 -1.06547 0
M  V30 1866 C 178.587 -2.45913 2.47645 0
M  V30 1867 C 179.935 -3.10991 2.89084 0
M  V30 1868 O 180.959 -2.56238 2.47428 0
M  V30 1869 O 179.818 -4.10174 3.61137 0
M  V30 1870 H 176.912 -0.64362 0.519309 0
M  V30 1871 H 179.458 -0.719576 1.53689 0
M  V30 1872 H 178.23 -1.95409 3.39015 0
M  V30 1873 H 177.853 -3.25913 2.27742 0
M  V30 1874 N 178.85 -1.27639 -0.924453 0
M  V30 1875 C 179.798 -1.10485 -2.04685 0
M  V30 1876 C 180.792 -0.0270421 -1.69378 0
M  V30 1877 O 181.998 -0.185008 -1.79047 0
M  V30 1878 H 178.373 -0.340546 -0.670472 0
M  V30 1879 H 180.344 -2.05566 -2.16298 0
M  V30 1880 C 179.093 -0.772229 -3.39016 0
M  V30 1881 H 178.416 -1.59351 -3.66671 0
M  V30 1882 H 179.856 -0.692097 -4.18313 0
M  V30 1883 C 178.315 0.523554 -3.32807 0
M  V30 1884 O 178.845 1.55702 -3.70297 0
M  V30 1885 N 177.051 0.520363 -2.85903 0
M  V30 1886 H 176.598 -0.32107 -2.55591 0
M  V30 1887 H 176.556 1.38742 -2.82131 0
M  V30 1888 N 180.328 1.1314 -1.09713 0
M  V30 1889 C 181.26 2.18343 -0.697056 0
M  V30 1890 C 182.273 1.60669 0.262551 0
M  V30 1891 O 183.462 1.78435 0.0481527 0
M  V30 1892 C 180.562 3.38899 -0.00684728 0
M  V30 1893 C 179.735 4.26078 -0.988741 0
M  V30 1894 C 178.794 5.25155 -0.331394 0
M  V30 1895 O 177.82 5.60701 -0.979926 0
M  V30 1896 N 179.022 5.73271 0.913261 0
M  V30 1897 H 181.787 2.5328 -1.60216 0
M  V30 1898 H 179.348 1.28491 -0.984971 0
M  V30 1899 H 181.34 4.02255 0.444191 0
M  V30 1900 H 179.91 3.02175 0.800551 0
M  V30 1901 H 179.13 3.59453 -1.61826 0
M  V30 1902 H 180.418 4.81178 -1.65364 0
M  V30 1903 H 179.816 5.46544 1.45966 0
M  V30 1904 H 178.373 6.3855 1.30757 0
M  V30 1905 N 181.806 0.884767 1.30421 0
M  V30 1906 C 182.736 0.367574 2.30589 0
M  V30 1907 C 183.717 -0.549464 1.60981 0
M  V30 1908 O 184.902 -0.46336 1.88591 0
M  V30 1909 C 182.032 -0.418944 3.44764 0
M  V30 1910 C 180.986 0.406316 4.26067 0
M  V30 1911 C 180.312 -0.506793 5.32293 0
M  V30 1912 C 181.612 1.64832 4.95608 0
M  V30 1913 H 183.306 1.20462 2.74097 0
M  V30 1914 H 180.852 0.580695 1.31772 0
M  V30 1915 H 182.805 -0.791395 4.13902 0
M  V30 1916 H 181.529 -1.28964 3.0006 0
M  V30 1917 H 180.188 0.760903 3.58617 0
M  V30 1918 H 179.836 -1.37519 4.83836 0
M  V30 1919 H 179.536 0.0415828 5.87585 0
M  V30 1920 H 181.06 -0.875764 6.04287 0
M  V30 1921 H 182.474 1.34646 5.57264 0
M  V30 1922 H 180.871 2.13688 5.60765 0
M  V30 1923 H 181.941 2.39284 4.21748 0
M  V30 1924 N 183.284 -1.43765 0.645699 0
M  V30 1925 C 184.53 -2.02197 0.156271 0
M  V30 1926 C 184.863 -1.50776 -1.22393 0
M  V30 1927 O 184.138 -0.697771 -1.81553 0
M  V30 1928 C 184.421 -3.59749 0.158872 0
M  V30 1929 C 184.274 -4.21419 1.57245 0
M  V30 1930 C 185.593 -4.37149 -0.50879 0
M  V30 1931 H 182.712 -0.734694 0.0582602 0
M  V30 1932 H 185.354 -1.71157 0.824951 0
M  V30 1933 H 183.504 -3.86325 -0.410525 0
M  V30 1934 H 185.176 -4.059 2.19186 0
M  V30 1935 H 183.419 -3.78356 2.122 0
M  V30 1936 H 184.09 -5.30482 1.52619 0
M  V30 1937 H 186.566 -4.16093 -0.024412 0
M  V30 1938 H 185.442 -5.4683 -0.476213 0
M  V30 1939 H 185.703 -4.12839 -1.58165 0
M  V30 1940 N 184.763 -0.387143 -1.52771 0
M  V30 1941 C 186.009 0.196025 -2.0185 0
M  V30 1942 C 186.342 1.46641 -1.27319 0
M  V30 1943 O 185.617 1.90889 -0.373032 0
M  V30 1944 C 185.9 0.466136 -3.5707 0
M  V30 1945 C 185.753 -0.819385 -4.42274 0
M  V30 1946 C 187.072 1.25768 -4.21747 0
M  V30 1947 H 184.191 0.0697708 -0.73369 0
M  V30 1948 H 186.833 -0.516286 -1.82851 0
M  V30 1949 H 184.983 1.07293 -3.7339 0
M  V30 1950 H 186.655 -1.4563 -4.37709 0
M  V30 1951 H 184.898 -1.43517 -4.09372 0
M  V30 1952 H 185.569 -0.585065 -5.48891 0
M  V30 1953 H 188.045 0.744167 -4.09391 0
M  V30 1954 H 186.921 1.41541 -5.30337 0
M  V30 1955 H 187.182 2.27228 -3.79236 0
M  V30 1956 N 186.241 1.57166 -0.116904 0
M  V30 1957 C 187.652 1.82169 0.408809 0
M  V30 1958 C 188.003 1.03393 1.66746 0
M  V30 1959 O 187.128 0.269886 2.1471 0
M  V30 1960 C 187.723 3.30429 0.748466 0
M  V30 1961 C 186.282 3.5612 1.21882 0
M  V30 1962 C 185.429 2.76374 0.226452 0
M  V30 1963 H 188.38 1.5497 -0.342063 0
M  V30 1964 H 188.401 3.44943 1.60607 0
M  V30 1965 H 187.913 3.87737 -0.167784 0
M  V30 1966 H 186.014 3.04168 2.15204 0
M  V30 1967 H 186.127 4.64705 1.16559 0
M  V30 1968 H 184.491 2.44515 0.713063 0
M  V30 1969 H 185.274 3.3644 -0.682859 0
M  V30 1970 N 187.719 -0.156864 1.56817 0
M  V30 1971 C 188.944 -0.890331 1.87318 0
M  V30 1972 C 189.369 -1.74394 0.704855 0
M  V30 1973 O 188.727 -1.77972 -0.345786 0
M  V30 1974 C 188.775 -1.73102 3.16336 0
M  V30 1975 O 187.879 -2.83422 2.99576 0
M  V30 1976 H 187.22 -0.24857 0.615718 0
M  V30 1977 H 189.75 -0.150649 2.04045 0
M  V30 1978 H 189.76 -2.12803 3.48107 0
M  V30 1979 H 188.435 -1.10412 4.00976 0
M  V30 1980 H 187.012 -2.47199 2.7919 0
M  V30 1981 N 189.197 -1.51736 -0.425897 0
M  V30 1982 C 190.107 -1.76738 -1.54275 0
M  V30 1983 C 191.123 -0.65211 -1.61318 0
M  V30 1984 O 192.299 -0.935654 -1.78346 0
M  V30 1985 C 189.364 -1.89755 -2.90162 0
M  V30 1986 C 188.425 -3.13633 -2.93143 0
M  V30 1987 C 187.658 -3.2602 -4.22548 0
M  V30 1988 O 187.881 -2.44067 -5.15546 0
M  V30 1989 O 186.815 -4.19071 -4.32046 0
M  V30 1990 H 190.641 -2.71502 -1.36089 0
M  V30 1991 H 188.226 -1.36376 -0.610069 0
M  V30 1992 H 190.108 -2.00236 -3.70788 0
M  V30 1993 H 188.783 -0.981785 -3.08452 0
M  V30 1994 H 187.69 -3.08622 -2.11431 0
M  V30 1995 H 189.023 -4.04936 -2.798 0
M  V30 1996 N 190.675 0.682077 -1.42076 0
M  V30 1997 C 191.923 1.4393 -1.41876 0
M  V30 1998 C 192.244 1.94971 -0.0335599 0
M  V30 1999 O 191.514 1.72591 0.926773 0
M  V30 2000 H 190.094 0.534085 -0.522267 0
M  V30 2001 H 192.756 0.806427 -1.77434 0
M  V30 2002 H 191.852 2.29588 -2.11414 0
M  V30 2003 N 192.153 1.28127 0.917671 0
M  V30 2004 C 193.083 1.14248 2.03641 0
M  V30 2005 C 194.064 0.0412748 1.7005 0
M  V30 2006 O 195.249 0.217566 1.92977 0
M  V30 2007 C 192.379 0.799431 3.37974 0
M  V30 2008 C 191.333 1.85497 3.85713 0
M  V30 2009 C 190.659 1.36565 5.16966 0
M  V30 2010 C 191.959 3.26085 4.08002 0
M  V30 2011 H 193.653 2.07835 2.15511 0
M  V30 2012 H 191.199 1.00064 1.03553 0
M  V30 2013 H 193.152 0.689114 4.15727 0
M  V30 2014 H 191.876 -0.172145 3.26146 0
M  V30 2015 H 190.535 1.95437 3.10161 0
M  V30 2016 H 190.183 0.383253 5.01538 0
M  V30 2017 H 189.883 2.07143 5.49878 0
M  V30 2018 H 191.407 1.26848 5.97279 0
M  V30 2019 H 192.821 3.19089 4.76293 0
M  V30 2020 H 191.218 3.94462 4.52238 0
M  V30 2021 H 192.288 3.70394 3.12948 0
M  V30 2022 N 193.631 -1.12557 1.10312 0
M  V30 2023 C 194.861 -1.87592 0.865617 0
M  V30 2024 C 195.269 -1.79851 -0.587389 0
M  V30 2025 O 194.612 -1.16949 -1.41664 0
M  V30 2026 C 194.674 -3.37665 1.23381 0
M  V30 2027 C 194.338 -3.69181 2.69359 0
M  V30 2028 C 195.335 -3.67652 3.67597 0
M  V30 2029 C 193.02 -3.98555 3.05711 0
M  V30 2030 C 195.014 -3.95053 5.00212 0
M  V30 2031 C 192.701 -4.25616 4.38514 0
M  V30 2032 C 193.699 -4.23851 5.35574 0
M  V30 2033 O 193.387 -4.50242 6.65986 0
M  V30 2034 H 193.119 -0.600442 0.310557 0
M  V30 2035 H 195.673 -1.4335 1.47105 0
M  V30 2036 H 193.903 -3.82454 0.571467 0
M  V30 2037 H 195.592 -3.94041 0.973994 0
M  V30 2038 H 196.358 -3.45024 3.40857 0
M  V30 2039 H 192.237 -3.99071 2.30789 0
M  V30 2040 H 195.781 -3.93591 5.75962 0
M  V30 2041 H 191.678 -4.47718 4.64994 0
M  V30 2042 H 192.446 -4.67867 6.71597 0
M  V30 2043 N 195.109 -0.891671 -1.2995 0
M  V30 2044 C 196.039 -0.379797 -2.30391 0
M  V30 2045 C 197.02 0.540919 -1.6127 0
M  V30 2046 O 198.205 0.453352 -1.88834 0
M  V30 2047 C 195.335 0.400654 -3.44981 0
M  V30 2048 C 194.289 -0.428905 -4.25846 0
M  V30 2049 C 193.615 0.478557 -5.32554 0
M  V30 2050 C 194.915 -1.67458 -4.94727 0
M  V30 2051 H 196.609 -1.21914 -2.73454 0
M  V30 2052 H 194.155 -0.587675 -1.31462 0
M  V30 2053 H 196.108 0.769434 -4.14316 0
M  V30 2054 H 194.832 1.27371 -3.0074 0
M  V30 2055 H 193.491 -0.779911 -3.58208 0
M  V30 2056 H 193.139 1.34951 -4.84559 0
M  V30 2057 H 192.839 -0.0727433 -5.87555 0
M  V30 2058 H 194.363 0.843705 -6.04743 0
M  V30 2059 H 195.777 -1.376 -5.56542 0
M  V30 2060 H 194.174 -2.16659 -5.59624 0
M  V30 2061 H 195.244 -2.41518 -4.20473 0
M  V30 2062 N 196.587 1.43421 -0.653314 0
M  V30 2063 C 197.836 2.01032 -0.164076 0
M  V30 2064 C 198.149 1.52147 1.22926 0
M  V30 2065 O 199.355 2.02031 1.81371 0
M  V30 2066 C 197.811 3.59082 -0.24252 0
M  V30 2067 C 197.419 4.1696 -1.63855 0
M  V30 2068 C 199.163 4.24079 0.18911 0
M  V30 2069 C 197.07 5.67304 -1.67092 0
M  V30 2070 H 196 0.751798 -0.0575769 0
M  V30 2071 H 198.651 1.6439 -0.815362 0
M  V30 2072 H 197.033 3.93125 0.476276 0
M  V30 2073 H 198.207 3.94416 -2.38271 0
M  V30 2074 H 196.522 3.64335 -2.01616 0
M  V30 2075 H 199.119 5.34381 0.184775 0
M  V30 2076 H 199.462 3.98005 1.22056 0
M  V30 2077 H 199.995 3.94918 -0.477938 0
M  V30 2078 H 196.734 5.98145 -2.68146 0
M  V30 2079 H 196.254 5.91904 -0.970014 0
M  V30 2080 H 197.933 6.31344 -1.4147 0
M  V30 2081 N 198.065 0.39524 1.52563 0
M  V30 2082 C 199.295 -0.184675 2.05773 0
M  V30 2083 C 199.703 -1.40571 1.26635 0
M  V30 2084 O 199.046 -1.81105 0.30769 0
M  V30 2085 C 199.108 -0.613551 3.54226 0
M  V30 2086 C 198.772 0.49484 4.54313 0
M  V30 2087 C 199.769 1.3541 5.01956 0
M  V30 2088 C 197.454 0.663565 4.97898 0
M  V30 2089 C 199.448 2.36716 5.91814 0
M  V30 2090 C 197.135 1.67996 5.87555 0
M  V30 2091 C 198.133 2.53017 6.34406 0
M  V30 2092 O 197.821 3.52917 7.22291 0
M  V30 2093 H 197.553 -0.030077 0.675331 0
M  V30 2094 H 200.107 0.560708 1.97599 0
M  V30 2095 H 198.337 -1.411 3.60038 0
M  V30 2096 H 200.026 -1.11981 3.90148 0
M  V30 2097 H 200.792 1.23509 4.6901 0
M  V30 2098 H 196.671 0.0114913 4.60999 0
M  V30 2099 H 200.215 3.03113 6.28306 0
M  V30 2100 H 196.112 1.79933 6.19915 0
M  V30 2101 H 196.88 3.48996 7.40367 0
M  V30 2102 N 199.544 -1.57102 0.125237 0
M  V30 2103 C 200.769 -2.0019 -0.542101 0
M  V30 2104 C 201.194 -1.00449 -1.59034 0
M  V30 2105 O 200.552 0.0229423 -1.81285 0
M  V30 2106 C 200.6 -3.42129 -1.13929 0
M  V30 2107 O 199.704 -3.45307 -2.2547 0
M  V30 2108 H 199.045 -0.650171 -0.134812 0
M  V30 2109 H 201.575 -2.03461 0.215553 0
M  V30 2110 H 201.585 -3.80471 -1.4733 0
M  V30 2111 H 200.26 -4.14237 -0.371531 0
M  V30 2112 H 198.837 -3.1879 -1.93462 0
M  V30 2113 N 201.022 0.148545 -1.56898 0
M  V30 2114 C 201.954 1.20852 -1.9475 0
M  V30 2115 C 202.967 1.39265 -0.843152 0
M  V30 2116 O 204.156 1.38864 -1.12156 0
M  V30 2117 C 201.256 2.57362 -2.20495 0
M  V30 2118 C 200.429 2.59947 -3.51776 0
M  V30 2119 C 199.488 3.77984 -3.6608 0
M  V30 2120 O 198.514 3.62929 -4.38487 0
M  V30 2121 N 199.716 4.95375 -3.02629 0
M  V30 2122 H 202.481 0.886804 -2.86279 0
M  V30 2123 H 200.042 0.338121 -1.5833 0
M  V30 2124 H 202.034 3.34833 -2.27307 0
M  V30 2125 H 200.604 2.81832 -1.35238 0
M  V30 2126 H 199.824 1.68403 -3.56419 0
M  V30 2127 H 201.112 2.58704 -4.38121 0
M  V30 2128 H 200.51 5.10509 -2.43715 0
M  V30 2129 H 199.067 5.70627 -3.15004 0
M  V30 2130 N 202.5 1.5196 0.417844 0
M  V30 2131 C 203.746 1.65836 1.16732 0
M  V30 2132 C 204.079 0.382881 1.90388 0
M  V30 2133 O 203.354 -0.618368 1.84408 0
M  V30 2134 C 203.637 2.87466 2.16876 0
M  V30 2135 C 203.49 4.25041 1.47174 0
M  V30 2136 C 204.809 3.04613 3.17646 0
M  V30 2137 H 201.928 0.603515 0.423011 0
M  V30 2138 H 204.57 1.84494 0.454105 0
M  V30 2139 H 202.72 2.71689 2.777 0
M  V30 2140 H 204.392 4.52527 0.895376 0
M  V30 2141 H 202.635 4.26843 0.773806 0
M  V30 2142 H 203.306 5.06176 2.20204 0
M  V30 2143 H 205.782 3.1923 2.66892 0
M  V30 2144 H 204.658 3.91247 3.8499 0
M  V30 2145 H 204.919 2.17541 3.84874 0
M  V30 2146 N 203.978 -0.674533 1.42435 0
M  V30 2147 C 204.908 -1.80009 1.48724 0
M  V30 2148 C 205.889 -1.6659 0.343793 0
M  V30 2149 O 207.074 -1.86007 0.558137 0
M  V30 2150 C 204.204 -3.18306 1.38919 0
M  V30 2151 C 203.158 -3.46461 2.51294 0
M  V30 2152 C 202.484 -4.84335 2.26547 0
M  V30 2153 C 203.784 -3.43328 3.93603 0
M  V30 2154 H 205.478 -1.75004 2.42928 0
M  V30 2155 H 203.024 -0.840533 1.16923 0
M  V30 2156 H 204.977 -3.9678 1.41927 0
M  V30 2157 H 203.701 -3.2399 0.412094 0
M  V30 2158 H 202.36 -2.70348 2.47604 0
M  V30 2159 H 202.008 -4.86669 1.2713 0
M  V30 2160 H 201.708 -5.04136 3.01861 0
M  V30 2161 H 203.232 -5.65094 2.31304 0
M  V30 2162 H 204.646 -4.11772 3.98894 0
M  V30 2163 H 203.043 -3.74664 4.68771 0
M  V30 2164 H 204.113 -2.41897 4.20255 0
M  V30 2165 N 205.456 -1.28612 -0.910864 0
M  V30 2166 C 206.703 -1.15934 -1.66029 0
M  V30 2167 C 207.031 0.291483 -1.92303 0
M  V30 2168 O 206.286 1.22816 -1.52364 0
M  V30 2169 C 206.585 -1.90624 -3.0232 0
M  V30 2170 C 206.251 -3.40405 -2.95695 0
M  V30 2171 C 204.913 -3.81255 -2.93595 0
M  V30 2172 C 207.265 -4.359 -2.85728 0
M  V30 2173 C 204.593 -5.15936 -2.79334 0
M  V30 2174 C 206.945 -5.70657 -2.73007 0
M  V30 2175 C 205.609 -6.10779 -2.69267 0
M  V30 2176 H 204.879 -0.424234 -0.607541 0
M  V30 2177 H 207.526 -1.5942 -1.06101 0
M  V30 2178 H 205.831 -1.39696 -3.6605 0
M  V30 2179 H 207.528 -1.78228 -3.59215 0
M  V30 2180 H 204.118 -3.07927 -2.98125 0
M  V30 2181 H 208.302 -4.053 -2.86436 0
M  V30 2182 H 203.558 -5.46146 -2.74835 0
M  V30 2183 H 207.732 -6.44311 -2.64264 0
M  V30 2184 H 205.359 -7.1509 -2.57974 0
M  V30 2185 N 206.934 1.1197 -1.10907 0
M  V30 2186 C 207.881 2.17846 -0.762345 0
M  V30 2187 C 208.851 1.63995 0.263599 0
M  V30 2188 O 210.036 1.90273 0.141773 0
M  V30 2189 C 207.176 3.44487 -0.205651 0
M  V30 2190 C 206.289 4.12369 -1.28748 0
M  V30 2191 C 205.424 5.26674 -0.691919 0
M  V30 2192 C 204.463 5.86431 -1.75399 0
M  V30 2193 N 203.6 6.92142 -1.17833 0
M  V30 2194 H 208.44 2.46851 -1.6694 0
M  V30 2195 H 205.977 1.21188 -0.833776 0
M  V30 2196 H 207.935 4.16981 0.135037 0
M  V30 2197 H 206.565 3.15884 0.664613 0
M  V30 2198 H 205.617 3.38003 -1.74522 0
M  V30 2199 H 206.929 4.52844 -2.09125 0
M  V30 2200 H 206.083 6.05953 -0.300963 0
M  V30 2201 H 204.822 4.8749 0.143232 0
M  V30 2202 H 203.827 5.05835 -2.15432 0
M  V30 2203 H 205.052 6.27685 -2.59208 0
M  V30 2204 H 202.998 6.54985 -0.364725 0
M  V30 2205 H 202.915 7.31242 -1.91887 0
M  V30 2206 H 204.183 7.75237 -0.81408 0
M  V30 2207 N 208.412 0.89855 1.29475 0
M  V30 2208 C 209.66 0.522847 1.9522 0
M  V30 2209 C 209.981 -0.93371 1.71192 0
M  V30 2210 O 209.251 -1.65823 1.04305 0
M  V30 2211 H 207.831 0.190366 0.722336 0
M  V30 2212 H 210.493 1.14459 1.5775 0
M  V30 2213 H 209.589 0.704476 3.04045 0
M  V30 2214 N 209.89 -1.43072 0.660911 0
M  V30 2215 C 210.822 -2.29108 -0.0647641 0
M  V30 2216 C 211.835 -1.42928 -0.779448 0
M  V30 2217 O 213.024 -1.66788 -0.635921 0
M  V30 2218 C 210.124 -3.20032 -1.11503 0
M  V30 2219 C 209.297 -4.34792 -0.476955 0
M  V30 2220 C 208.356 -5.06534 -1.42513 0
M  V30 2221 O 207.382 -5.61538 -0.930771 0
M  V30 2222 N 208.584 -5.1075 -2.75889 0
M  V30 2223 H 211.349 -2.92029 0.673731 0
M  V30 2224 H 208.91 -1.53846 0.50427 0
M  V30 2225 H 210.902 -3.64892 -1.75032 0
M  V30 2226 H 209.472 -2.58658 -1.75541 0
M  V30 2227 H 208.692 -3.92752 0.337572 0
M  V30 2228 H 209.98 -5.0879 -0.0318525 0
M  V30 2229 H 209.378 -4.67447 -3.18606 0
M  V30 2230 H 207.935 -5.59302 -3.347 0
M  V30 2231 N 211.368 -0.403325 -1.52352 0
M  V30 2232 C 212.616 0.174003 -2.0135 0
M  V30 2233 C 212.937 1.46139 -1.29106 0
M  V30 2234 O 212.207 1.91448 -0.415253 0
M  V30 2235 H 210.787 0.0672911 -0.743963 0
M  V30 2236 H 213.449 -0.538235 -1.87321 0
M  V30 2237 H 212.545 0.374254 -3.09848 0
M  V30 2238 N 212.846 1.57033 -0.133567 0
M  V30 2239 C 214.086 1.97575 0.523789 0
M  V30 2240 C 214.45 1.01605 1.62912 0
M  V30 2241 O 215.651 1.3114 2.3464 0
M  V30 2242 C 213.922 3.42256 1.02935 0
M  V30 2243 S 215.481 4.04817 1.69319 0
M  V30 2244 H 212.299 0.690427 0.169799 0
M  V30 2245 H 214.901 1.94234 -0.222101 0
M  V30 2246 H 213.605 4.09842 0.213917 0
M  V30 2247 H 213.136 3.4928 1.81017 0
M  V30 2248 H 215.151 3.96767 2.97977 0
M  V30 2249 N 214.325 -0.140222 1.56975 0
M  V30 2250 C 215.736 -0.699596 1.73097 0
M  V30 2251 C 216.087 -1.8134 0.749022 0
M  V30 2252 O 215.212 -2.16241 -0.0828503 0
M  V30 2253 C 215.807 -1.27582 3.1386 0
M  V30 2254 C 214.366 -1.78169 3.31561 0
M  V30 2255 C 213.513 -0.672855 2.69013 0
M  V30 2256 H 216.464 0.0855115 1.58469 0
M  V30 2257 H 216.485 -2.14561 3.14235 0
M  V30 2258 H 215.997 -0.464955 3.85305 0
M  V30 2259 H 214.098 -2.61801 2.65124 0
M  V30 2260 H 214.211 -1.90574 4.39566 0
M  V30 2261 H 212.575 -1.10118 2.29665 0
M  V30 2262 H 213.358 0.126679 3.43066 0
M  V30 2263 N 215.803 -1.52179 -0.40978 0
M  V30 2264 C 217.028 -1.70347 -1.18308 0
M  V30 2265 C 217.453 -0.411887 -1.83535 0
M  V30 2266 O 216.811 0.630587 -1.6998 0
M  V30 2267 C 216.859 -2.83977 -2.22238 0
M  V30 2268 O 215.963 -2.495 -3.28365 0
M  V30 2269 H 215.304 -0.567103 -0.345384 0
M  V30 2270 H 217.834 -1.98879 -0.480445 0
M  V30 2271 H 217.844 -3.0887 -2.66577 0
M  V30 2272 H 216.519 -3.77685 -1.74146 0
M  V30 2273 H 215.096 -2.35277 -2.89308 0
M  V30 2274 N 217.281 0.66697 -1.42791 0
M  V30 2275 C 218.509 1.45505 -1.47091 0
M  V30 2276 C 218.924 1.8861 -0.0845873 0
M  V30 2277 O 218.281 1.58632 0.90234 0
M  V30 2278 C 218.332 2.69906 -2.40485 0
M  V30 2279 O 218.053 2.28608 -3.73725 0
M  V30 2280 C 219.554 3.63396 -2.53886 0
M  V30 2281 H 216.774 0.447459 -0.500022 0
M  V30 2282 H 219.318 0.818866 -1.8739 0
M  V30 2283 H 217.473 3.29696 -2.03419 0
M  V30 2284 H 217.887 3.08997 -4.23817 0
M  V30 2285 H 219.361 4.47387 -3.2334 0
M  V30 2286 H 219.838 4.09824 -1.57927 0
M  V30 2287 H 220.444 3.09495 -2.91706 0
M  V30 2288 N 218.759 1.29093 0.90403 0
M  V30 2289 C 219.709 1.10482 1.99443 0
M  V30 2290 C 220.693 0.0255401 1.6088 0
M  V30 2291 O 221.885 0.24677 1.75271 0
M  V30 2292 C 219.014 0.778882 3.34348 0
M  V30 2293 C 218.1 1.89749 3.79284 0
M  V30 2294 N 218.491 3.14045 3.96497 0
M  V30 2295 C 216.789 1.78955 4.08523 0
M  V30 2296 C 217.49 3.86996 4.34292 0
M  V30 2297 N 216.466 3.14909 4.43095 0
M  V30 2298 H 220.268 2.04778 2.10815 0
M  V30 2299 H 217.782 1.20155 1.09255 0
M  V30 2300 H 219.779 0.62661 4.12164 0
M  V30 2301 H 218.439 -0.156205 3.24324 0
M  V30 2302 H 219.45 3.49548 3.82148 0
M  V30 2303 H 216.127 0.926886 4.07081 0
M  V30 2304 H 217.517 4.93941 4.55491 0
M  V30 2305 N 220.237 -1.11381 1.11499 0
M  V30 2306 C 221.483 -1.83403 0.865512 0
M  V30 2307 C 221.816 -1.84459 -0.607329 0
M  V30 2308 O 221.091 -1.29811 -1.44842 0
M  V30 2309 C 221.374 -3.30552 1.42855 0
M  V30 2310 C 221.227 -3.37886 2.96906 0
M  V30 2311 C 222.546 -4.26643 1.08 0
M  V30 2312 H 219.665 -0.665879 0.31587 0
M  V30 2313 H 222.307 -1.30601 1.37998 0
M  V30 2314 H 220.457 -3.75648 0.990985 0
M  V30 2315 H 222.129 -3.01343 3.49271 0
M  V30 2316 H 220.372 -2.78088 3.32941 0
M  V30 2317 H 221.043 -4.41458 3.31389 0
M  V30 2318 H 223.519 -3.89729 1.45775 0
M  V30 2319 H 222.395 -5.27986 1.50072 0
M  V30 2320 H 222.656 -4.42099 -0.00915037 0
M  V30 2321 N 221.715 -0.905404 -1.28997 0
M  V30 2322 C 222.645 -0.404212 -2.29975 0
M  V30 2323 C 223.626 0.523784 -1.61835 0
M  V30 2324 O 224.811 0.433298 -1.89304 0
M  V30 2325 C 221.941 0.364042 -3.45387 0
M  V30 2326 C 220.895 -0.474048 -4.25367 0
M  V30 2327 C 220.221 0.422045 -5.33032 0
M  V30 2328 C 221.521 -1.72696 -4.92923 0
M  V30 2329 H 223.215 -1.24807 -2.72146 0
M  V30 2330 H 220.761 -0.601585 -1.30832 0
M  V30 2331 H 222.714 0.725447 -4.15109 0
M  V30 2332 H 221.438 1.24174 -3.02074 0
M  V30 2333 H 220.097 -0.81786 -3.57361 0
M  V30 2334 H 219.745 1.29804 -4.85963 0
M  V30 2335 H 219.445 -0.135057 -5.87445 0
M  V30 2336 H 220.969 0.779517 -6.05604 0
M  V30 2337 H 222.383 -1.43495 -5.55051 0
M  V30 2338 H 220.78 -2.22582 -5.57295 0
M  V30 2339 H 221.85 -2.45964 -4.17887 0
M  V30 2340 N 223.193 1.4272 -0.668489 0
M  V30 2341 C 224.123 2.335 -0.000100175 0
M  V30 2342 C 225.104 1.50328 0.795964 0
M  V30 2343 O 226.289 1.78949 0.754385 0
M  V30 2344 C 223.419 3.33874 0.956302 0
M  V30 2345 C 222.373 4.27152 0.269278 0
M  V30 2346 C 221.699 5.17684 1.33818 0
M  V30 2347 C 222.999 5.15373 -0.847805 0
M  V30 2348 H 224.693 2.89639 -0.758244 0
M  V30 2349 H 222.239 1.39269 -0.366079 0
M  V30 2350 H 224.192 3.9629 1.43292 0
M  V30 2351 H 222.916 2.76025 1.74579 0
M  V30 2352 H 221.575 3.66123 -0.187042 0
M  V30 2353 H 221.223 4.56165 2.1195 0
M  V30 2354 H 220.923 5.80918 0.883659 0
M  V30 2355 H 222.447 5.82974 1.81586 0
M  V30 2356 H 223.861 5.7151 -0.452681 0
M  V30 2357 H 222.258 5.87407 -1.22773 0
M  V30 2358 H 223.328 4.5415 -1.69929 0
M  V30 2359 N 224.671 0.411399 1.52136 0
M  V30 2360 C 225.899 -0.163076 2.06256 0
M  V30 2361 C 226.314 -1.3867 1.28125 0
M  V30 2362 O 225.671 -1.79423 0.333721 0
M  V30 2363 C 225.722 -0.511252 3.57867 0
M  V30 2364 O 225.443 0.66378 4.33042 0
M  V30 2365 C 226.944 -1.13921 4.28412 0
M  V30 2366 H 224.164 -0.0193897 0.67072 0
M  V30 2367 H 226.708 0.583007 1.96013 0
M  V30 2368 H 224.863 -1.20723 3.6811 0
M  V30 2369 H 225.277 0.372601 5.23175 0
M  V30 2370 H 226.751 -1.33302 5.35663 0
M  V30 2371 H 227.228 -2.11296 3.85033 0
M  V30 2372 H 227.834 -0.483373 4.22544 0
M  V30 2373 N 226.149 -1.5696 0.141893 0
M  V30 2374 C 227.099 -2.13074 -0.811383 0
M  V30 2375 C 228.083 -1.05726 -1.21288 0
M  V30 2376 O 229.275 -1.31914 -1.18015 0
M  V30 2377 C 226.404 -2.75186 -2.0525 0
M  V30 2378 C 225.49 -3.8965 -1.67432 0
M  V30 2379 N 225.881 -4.95733 -1.0041 0
M  V30 2380 C 224.179 -4.00262 -1.96739 0
M  V30 2381 C 224.88 -5.75858 -0.822345 0
M  V30 2382 N 223.856 -5.26452 -1.3546 0
M  V30 2383 H 227.658 -2.92465 -0.290031 0
M  V30 2384 H 225.172 -1.6229 -0.0598218 0
M  V30 2385 H 227.169 -3.13745 -2.74535 0
M  V30 2386 H 225.829 -1.97266 -2.57907 0
M  V30 2387 H 226.84 -5.13607 -0.665441 0
M  V30 2388 H 223.517 -3.33412 -2.51282 0
M  V30 2389 H 224.907 -6.71254 -0.294496 0
M  V30 2390 N 227.627 0.131896 -1.57047 0
M  V30 2391 C 228.855 0.856461 -1.88341 0
M  V30 2392 C 229.27 1.74042 -0.731757 0
M  V30 2393 O 228.627 1.80051 0.297945 0
M  V30 2394 C 228.678 1.70064 -3.18999 0
M  V30 2395 O 228.399 0.852278 -4.2973 0
M  V30 2396 C 229.9 2.53148 -3.63911 0
M  V30 2397 H 227.12 0.246885 -0.62393 0
M  V30 2398 H 229.664 0.120152 -2.04147 0
M  V30 2399 H 227.819 2.38984 -3.04902 0
M  V30 2400 H 228.233 1.43329 -5.04537 0
M  V30 2401 H 229.707 3.07931 -4.58129 0
M  V30 2402 H 230.184 3.29901 -2.89935 0
M  V30 2403 H 230.79 1.89492 -3.80753 0
M  V30 2404 N 229.106 1.52395 0.401703 0
M  V30 2405 C 230.355 1.66044 1.14509 0
M  V30 2406 C 230.668 0.400216 1.91462 0
M  V30 2407 O 231.874 0.416632 2.68284 0
M  V30 2408 C 230.33 2.93388 2.0845 0
M  V30 2409 C 229.938 4.26545 1.36978 0
M  V30 2410 C 231.682 3.16402 2.83001 0
M  V30 2411 C 229.589 5.45007 2.29611 0
M  V30 2412 H 228.519 0.618562 0.431158 0
M  V30 2413 H 231.17 1.78886 0.40892 0
M  V30 2414 H 229.552 2.74263 2.8565 0
M  V30 2415 H 230.726 4.56179 0.650916 0
M  V30 2416 H 229.041 4.09692 0.74438 0
M  V30 2417 H 231.638 4.02085 3.52465 0
M  V30 2418 H 231.981 2.30943 3.46368 0
M  V30 2419 H 232.514 3.36034 2.12898 0
M  V30 2420 H 229.253 6.32835 1.70879 0
M  V30 2421 H 228.773 5.19702 2.9945 0
M  V30 2422 H 230.452 5.7838 2.89974 0
M  V30 2423 N 230.584 -0.659388 1.43143 0
M  V30 2424 C 231.809 -1.45221 1.48073 0
M  V30 2425 C 232.234 -1.87845 0.097995 0
M  V30 2426 O 231.592 -1.56985 -0.90694 0
M  V30 2427 C 231.64 -2.66748 2.42647 0
M  V30 2428 O 230.744 -3.65583 1.90848 0
M  V30 2429 H 230.085 -0.435669 0.501088 0
M  V30 2430 H 232.615 -0.807432 1.87994 0
M  V30 2431 H 232.625 -3.14637 2.59745 0
M  V30 2432 H 231.3 -2.35067 3.43098 0
M  V30 2433 H 229.877 -3.24693 1.83381 0
M  V30 2434 N 232.062 -1.29571 -0.897171 0
M  V30 2435 C 233.478 -1.07637 -1.17841 0
M  V30 2436 C 233.678 0.170713 -2.00776 0
M  V30 2437 O 232.734 0.867768 -2.3712 0
M  V30 2438 C 234.047 -2.3332 -1.8969 0
M  V30 2439 C 235.595 -2.38664 -2.02505 0
M  V30 2440 C 236.07 -3.64157 -2.77765 0
M  V30 2441 N 237.561 -3.64894 -2.85318 0
M  V30 2442 C 238.296 -4.58679 -3.44094 0
M  V30 2443 N 237.792 -5.62799 -4.04017 0
M  V30 2444 N 239.585 -4.46245 -3.41793 0
M  V30 2445 H 231.736 -2.09598 -0.343883 0
M  V30 2446 H 233.999 -0.923333 -0.214848 0
M  V30 2447 H 233.705 -3.24262 -1.36187 0
M  V30 2448 H 233.579 -2.41025 -2.9015 0
M  V30 2449 H 235.966 -1.48208 -2.55183 0
M  V30 2450 H 236.047 -2.34943 -1.01171 0
M  V30 2451 H 235.691 -4.54965 -2.25763 0
M  V30 2452 H 235.621 -3.65137 -3.7945 0
M  V30 2453 H 238.112 -2.89613 -2.42761 0
M  V30 2454 H 238.425 -6.3048 -4.46895 0
M  V30 2455 H 236.77 -5.66605 -4.02472 0
M  V30 2456 H 239.961 -3.64094 -2.94199 0
M  V30 2457 H 240.134 -5.19518 -3.87304 0
M  V30 2458 N 233.54 1.10788 -1.12088 0
M  V30 2459 C 234.789 1.82036 -0.868659 0
M  V30 2460 C 235.102 1.85929 0.607426 0
M  V30 2461 O 236.308 2.53346 0.97613 0
M  V30 2462 C 234.764 3.26951 -1.50435 0
M  V30 2463 C 234.372 3.31367 -3.01496 0
M  V30 2464 C 236.116 4.03053 -1.33225 0
M  V30 2465 C 234.023 4.7072 -3.58017 0
M  V30 2466 H 232.953 0.682108 -0.321318 0
M  V30 2467 H 235.604 1.24618 -1.34694 0
M  V30 2468 H 233.986 3.84343 -0.953735 0
M  V30 2469 H 235.16 2.83819 -3.6302 0
M  V30 2470 H 233.475 2.6875 -3.18061 0
M  V30 2471 H 236.072 5.05981 -1.72878 0
M  V30 2472 H 236.415 4.15387 -0.275529 0
M  V30 2473 H 236.948 3.52066 -1.85188 0
M  V30 2474 H 233.687 4.63585 -4.63432 0
M  V30 2475 H 233.207 5.1865 -3.01268 0
M  V30 2476 H 234.886 5.39685 -3.56859 0
M  V30 2477 N 235.018 0.912232 1.28515 0
M  V30 2478 C 235.981 0.404223 2.25607 0
M  V30 2479 C 236.981 -0.468602 1.53821 0
M  V30 2480 O 238.171 -0.271873 1.72065 0
M  V30 2481 C 235.303 -0.420653 3.38295 0
M  V30 2482 H 236.496 1.26188 2.7206 0
M  V30 2483 H 234.049 0.691495 1.40171 0
M  V30 2484 H 234.784 -1.29777 2.97201 0
M  V30 2485 H 234.569 0.204935 3.91564 0
M  V30 2486 H 236.059 -0.766971 4.10496 0
M  V30 2487 N 236.496 -1.42363 0.676048 0
M  V30 2488 C 237.742 -2.0182 0.199125 0
M  V30 2489 C 238.075 -1.53339 -1.19168 0
M  V30 2490 O 237.35 -0.736124 -1.80032 0
M  V30 2491 C 237.633 -3.59331 0.235144 0
M  V30 2492 C 237.486 -4.17989 1.66149 0
M  V30 2493 C 238.805 -4.3813 -0.41595 0
M  V30 2494 H 235.924 -0.733293 0.0738311 0
M  V30 2495 H 238.566 -1.69368 0.86107 0
M  V30 2496 H 236.716 -3.87109 -0.328487 0
M  V30 2497 H 238.388 -4.0116 2.27747 0
M  V30 2498 H 236.631 -3.7377 2.20178 0
M  V30 2499 H 237.302 -5.27126 1.63837 0
M  V30 2500 H 239.778 -4.16051 0.0638529 0
M  V30 2501 H 238.654 -5.47717 -0.360115 0
M  V30 2502 H 238.915 -4.16101 -1.49373 0
M  V30 2503 N 237.974 -0.419461 -1.51915 0
M  V30 2504 C 239.199 0.154572 -2.06823 0
M  V30 2505 C 239.624 1.3722 -1.28656 0
M  V30 2506 O 238.982 1.78461 -0.319583 0
M  V30 2507 C 239.03 0.473172 -3.57482 0
M  V30 2508 O 238.134 1.56255 -3.81652 0
M  V30 2509 H 237.475 0.0096924 -0.663929 0
M  V30 2510 H 240.005 -0.595642 -1.95738 0
M  V30 2511 H 240.015 0.728825 -4.01438 0
M  V30 2512 H 238.69 -0.416873 -4.13805 0
M  V30 2513 H 237.267 1.29825 -3.49571 0
M  V30 2514 N 239.452 1.56882 -0.150215 0
M  V30 2515 C 240.682 2.00302 0.506213 0
M  V30 2516 C 241.09 1.02934 1.58749 0
M  V30 2517 O 240.433 0.0188384 1.8369 0
M  V30 2518 C 240.495 3.40156 1.16337 0
M  V30 2519 C 240.159 4.56439 0.226311 0
M  V30 2520 C 241.156 5.17012 -0.547265 0
M  V30 2521 C 238.841 5.02136 0.128279 0
M  V30 2522 C 240.835 6.21693 -1.40629 0
M  V30 2523 C 238.522 6.06672 -0.734345 0
M  V30 2524 C 239.52 6.6632 -1.50023 0
M  V30 2525 O 239.208 7.68831 -2.34848 0
M  V30 2526 H 238.94 0.662182 0.135984 0
M  V30 2527 H 241.494 2.03961 -0.242746 0
M  V30 2528 H 239.724 3.33346 1.96004 0
M  V30 2529 H 241.413 3.67663 1.71985 0
M  V30 2530 H 242.179 4.82603 -0.48158 0
M  V30 2531 H 238.058 4.55435 0.714157 0
M  V30 2532 H 241.602 6.68179 -2.00455 0
M  V30 2533 H 237.499 6.40507 -0.801309 0
M  V30 2534 H 238.267 7.86065 -2.28131 0
M  V30 2535 N 240.93 -0.123565 1.57115 0
M  V30 2536 C 241.862 -1.17739 1.96648 0
M  V30 2537 C 242.875 -1.37906 0.865201 0
M  V30 2538 O 244.064 -1.37062 1.14351 0
M  V30 2539 C 241.164 -2.53821 2.24562 0
M  V30 2540 C 240.337 -2.54317 3.55867 0
M  V30 2541 C 239.396 -3.72112 3.72047 0
M  V30 2542 O 238.422 -3.55907 4.44206 0
M  V30 2543 N 239.624 -4.90498 3.10471 0
M  V30 2544 H 242.389 -0.841147 2.87654 0
M  V30 2545 H 239.95 -0.31289 1.58848 0
M  V30 2546 H 241.942 -3.31175 2.32606 0
M  V30 2547 H 240.512 -2.79645 1.39705 0
M  V30 2548 H 239.732 -1.62711 3.59053 0
M  V30 2549 H 241.02 -2.51701 4.42181 0
M  V30 2550 H 240.418 -5.06567 2.51806 0
M  V30 2551 H 238.975 -5.65544 3.24043 0
M  V30 2552 N 242.408 -1.52605 -0.393616 0
M  V30 2553 C 243.636 -1.71294 -1.16043 0
M  V30 2554 C 244.051 -0.429259 -1.83855 0
M  V30 2555 O 243.408 0.595921 -1.72496 0
M  V30 2556 C 243.459 -2.8593 -2.21193 0
M  V30 2557 O 243.18 -4.09329 -1.56146 0
M  V30 2558 C 244.681 -3.16259 -3.10636 0
M  V30 2559 H 241.901 -0.573641 -0.348104 0
M  V30 2560 H 244.445 -1.99234 -0.461092 0
M  V30 2561 H 242.6 -2.60465 -2.86769 0
M  V30 2562 H 243.014 -4.73323 -2.25978 0
M  V30 2563 H 244.488 -3.99946 -3.80456 0
M  V30 2564 H 244.965 -2.3045 -3.73884 0
M  V30 2565 H 245.571 -3.43547 -2.50711 0
M  V30 2566 N 243.887 0.651787 -1.4349 0
M  V30 2567 C 244.834 1.76462 -1.4876 0
M  V30 2568 C 245.804 1.62641 -0.337189 0
M  V30 2569 O 246.989 1.82864 -0.544544 0
M  V30 2570 C 244.129 3.14623 -1.41796 0
M  V30 2571 C 243.242 3.39568 -2.67053 0
M  V30 2572 C 242.377 4.67585 -2.52068 0
M  V30 2573 C 241.416 4.85639 -3.72587 0
M  V30 2574 N 240.553 6.04915 -3.56402 0
M  V30 2575 H 245.393 1.71293 -2.43849 0
M  V30 2576 H 242.93 0.835889 -1.21043 0
M  V30 2577 H 244.888 3.94496 -1.35753 0
M  V30 2578 H 243.518 3.18859 -0.50288 0
M  V30 2579 H 242.57 2.53783 -2.8337 0
M  V30 2580 H 243.882 3.48795 -3.56572 0
M  V30 2581 H 243.036 5.55586 -2.4374 0
M  V30 2582 H 241.775 4.60681 -1.60075 0
M  V30 2583 H 240.78 3.96073 -3.81321 0
M  V30 2584 H 242.005 4.94372 -4.65589 0
M  V30 2585 H 239.951 5.9914 -2.67146 0
M  V30 2586 H 239.868 6.15106 -4.39524 0
M  V30 2587 H 241.136 6.95533 -3.51929 0
M  V30 2588 N 245.365 1.30045 0.890287 0
M  V30 2589 C 246.611 1.18737 1.64406 0
M  V30 2590 C 246.944 -0.258525 1.92472 0
M  V30 2591 O 246.219 -1.18562 1.54186 0
M  V30 2592 C 246.502 2.01087 2.98724 0
M  V30 2593 C 246.355 3.53867 2.77665 0
M  V30 2594 C 247.674 1.84457 3.9958 0
M  V30 2595 H 244.793 0.432698 0.596608 0
M  V30 2596 H 247.435 1.5962 1.0306 0
M  V30 2597 H 245.585 1.66349 3.51084 0
M  V30 2598 H 247.257 3.98637 2.32133 0
M  V30 2599 H 245.5 3.78318 2.12269 0
M  V30 2600 H 246.171 4.06772 3.7315 0
M  V30 2601 H 248.647 2.14817 3.56361 0
M  V30 2602 H 247.523 2.44411 4.91482 0
M  V30 2603 H 247.784 0.802276 4.3476 0
M  V30 2604 N 246.843 -1.10192 1.12674 0
M  V30 2605 C 247.791 -2.18694 0.792196 0
M  V30 2606 C 248.785 -1.67938 -0.222058 0
M  V30 2607 O 249.991 -1.79822 -0.0800074 0
M  V30 2608 H 246.366 -0.713223 0.238364 0
M  V30 2609 H 248.337 -2.44149 1.71564 0
M  V30 2610 C 247.086 -3.46682 0.265859 0
M  V30 2611 H 246.409 -3.86101 1.03761 0
M  V30 2612 H 247.849 -4.23942 0.0701128 0
M  V30 2613 C 246.308 -3.21506 -1.00675 0
M  V30 2614 O 246.838 -3.43408 -2.08408 0
M  V30 2615 N 245.044 -2.75158 -0.934692 0
M  V30 2616 H 244.591 -2.57535 -0.0578604 0
M  V30 2617 H 244.549 -2.58691 -1.7868 0
M  V30 2618 N 248.321 -0.919034 -1.28029 0
M  V30 2619 C 249.251 -0.428581 -2.29533 0
M  V30 2620 C 250.232 0.50659 -1.62381 0
M  V30 2621 O 251.417 0.413195 -1.89753 0
M  V30 2622 C 248.547 0.327388 -3.45753 0
M  V30 2623 C 247.501 -0.519137 -4.2484 0
M  V30 2624 C 246.827 0.365486 -5.33449 0
M  V30 2625 C 248.127 -1.77914 -4.91064 0
M  V30 2626 H 249.821 -1.27687 -2.70807 0
M  V30 2627 H 247.367 -0.615428 -1.30186 0
M  V30 2628 H 249.32 0.681378 -4.15855 0
M  V30 2629 H 248.044 1.20963 -3.03374 0
M  V30 2630 H 246.703 -0.855717 -3.56473 0
M  V30 2631 H 246.351 1.24642 -4.87312 0
M  V30 2632 H 246.051 -0.197356 -5.87268 0
M  V30 2633 H 247.575 0.715241 -6.06396 0
M  V30 2634 H 248.989 -1.49374 -5.53498 0
M  V30 2635 H 247.386 -2.2848 -5.54903 0
M  V30 2636 H 248.456 -2.50382 -4.15255 0
M  V30 2637 N 249.799 1.42003 -0.683588 0
M  V30 2638 C 250.729 2.33487 -0.024866 0
M  V30 2639 C 251.71 1.51163 0.779975 0
M  V30 2640 O 252.895 1.79739 0.735362 0
M  V30 2641 C 250.025 3.3487 0.920836 0
M  V30 2642 C 248.979 4.27414 0.223958 0
M  V30 2643 C 248.305 5.19074 1.2832 0
M  V30 2644 C 249.605 5.14445 -0.90242 0
M  V30 2645 H 251.299 2.88819 -0.788921 0
M  V30 2646 H 248.845 1.38873 -0.38083 0
M  V30 2647 H 250.798 3.97787 1.39081 0
M  V30 2648 H 249.522 2.77861 1.71642 0
M  V30 2649 H 248.181 3.65904 -0.225864 0
M  V30 2650 H 247.829 4.58387 2.071 0
M  V30 2651 H 247.529 5.81822 0.821995 0
M  V30 2652 H 249.053 5.84867 1.75392 0
M  V30 2653 H 250.467 5.70998 -0.513272 0
M  V30 2654 H 248.864 5.86072 -1.28997 0
M  V30 2655 H 249.934 4.52322 -1.74737 0
M  V30 2656 N 251.277 0.427512 1.51691 0
M  V30 2657 C 252.502 -0.143601 2.06902 0
M  V30 2658 C 252.927 -1.36536 1.29382 0
M  V30 2659 O 252.285 -1.78289 0.329043 0
M  V30 2660 C 252.333 -0.454207 3.57728 0
M  V30 2661 O 251.437 -1.54228 3.82475 0
M  V30 2662 H 250.778 -0.00617128 0.663971 0
M  V30 2663 H 253.308 0.606014 1.95419 0
M  V30 2664 H 253.318 -0.707525 4.01818 0
M  V30 2665 H 251.993 0.438812 4.13579 0
M  V30 2666 H 250.57 -1.2797 3.50254 0
M  V30 2667 N 252.755 -1.56801 0.158532 0
M  V30 2668 C 253.718 -2.16138 -0.762705 0
M  V30 2669 C 254.718 -1.1061 -1.16713 0
M  V30 2670 O 255.908 -1.36191 -1.08617 0
M  V30 2671 C 253.04 -2.73386 -2.03649 0
M  V30 2672 H 254.233 -2.98886 -0.246354 0
M  V30 2673 H 251.786 -1.56035 -0.0909744 0
M  V30 2674 H 252.521 -1.94335 -2.59623 0
M  V30 2675 H 252.306 -3.50601 -1.75559 0
M  V30 2676 H 253.796 -3.19065 -2.6942 0
M  V30 2677 N 254.233 0.115231 -1.57178 0
M  V30 2678 C 255.482 0.820945 -1.84237 0
M  V30 2679 C 255.795 1.80866 -0.744761 0
M  V30 2680 O 257.001 2.56083 -0.901871 0
M  V30 2681 C 255.457 1.51072 -3.26658 0
M  V30 2682 C 255.065 0.563795 -4.44438 0
M  V30 2683 C 256.809 2.20134 -3.62962 0
M  V30 2684 C 254.716 1.25701 -5.77887 0
M  V30 2685 H 253.646 0.310328 -0.687177 0
M  V30 2686 H 256.297 0.0737134 -1.83352 0
M  V30 2687 H 254.679 2.30471 -3.22024 0
M  V30 2688 H 255.853 -0.197247 -4.60378 0
M  V30 2689 H 254.168 -0.0200638 -4.16395 0
M  V30 2690 H 256.765 2.72696 -4.59936 0
M  V30 2691 H 257.108 2.98107 -2.90582 0
M  V30 2692 H 257.641 1.47619 -3.69396 0
M  V30 2693 H 254.38 0.518493 -6.53446 0
M  V30 2694 H 253.9 1.98997 -5.65827 0
M  V30 2695 H 255.579 1.78915 -6.2177 0
M  V30 2696 N 255.711 1.52812 0.385517 0
M  V30 2697 C 256.658 1.77838 1.47113 0
M  V30 2698 C 257.628 0.621757 1.54024 0
M  V30 2699 O 258.813 0.861846 1.70226 0
M  V30 2700 C 255.953 1.95618 2.84302 0
M  V30 2701 C 255.066 3.23316 2.86515 0
M  V30 2702 C 254.201 3.31394 4.15152 0
M  V30 2703 C 253.24 4.53201 4.1143 0
M  V30 2704 N 252.377 4.58542 5.3168 0
M  V30 2705 H 257.217 2.70482 1.25073 0
M  V30 2706 H 254.754 1.34006 0.606692 0
M  V30 2707 H 256.712 2.03912 3.63972 0
M  V30 2708 H 255.342 1.06331 3.04784 0
M  V30 2709 H 254.394 3.24076 1.99195 0
M  V30 2710 H 255.706 4.13045 2.79634 0
M  V30 2711 H 254.86 3.3889 5.03228 0
M  V30 2712 H 253.599 2.39645 4.24761 0
M  V30 2713 H 252.604 4.45827 3.21742 0
M  V30 2714 H 253.829 5.46271 4.03442 0
M  V30 2715 H 251.775 3.69686 5.41912 0
M  V30 2716 H 251.692 5.42148 5.26889 0
M  V30 2717 H 252.96 4.70296 6.21644 0
M  V30 2718 N 257.189 -0.644168 1.43834 0
M  V30 2719 C 258.414 -1.43642 1.49605 0
M  V30 2720 C 258.839 -1.8773 0.117913 0
M  V30 2721 O 258.197 -1.57938 -0.890239 0
M  V30 2722 C 258.245 -2.6416 2.45463 0
M  V30 2723 O 257.349 -3.63538 1.94714 0
M  V30 2724 H 256.69 -0.430329 0.50568 0
M  V30 2725 H 259.22 -0.787448 1.8884 0
M  V30 2726 H 259.23 -3.11864 2.63068 0
M  V30 2727 H 257.905 -2.31414 3.45572 0
M  V30 2728 H 256.482 -3.2273 1.86814 0
M  V30 2729 N 258.668 -1.30515 -0.883378 0
M  V30 2730 C 260.079 -1.17509 -1.45081 0
M  V30 2731 C 260.43 0.223605 -1.94922 0
M  V30 2732 O 259.555 1.12041 -1.85137 0
M  V30 2733 C 260.15 -2.12715 -2.63701 0
M  V30 2734 C 258.709 -2.03682 -3.16529 0
M  V30 2735 C 257.856 -2.02706 -1.89224 0
M  V30 2736 H 260.807 -1.42762 -0.693165 0
M  V30 2737 H 260.828 -1.70891 -3.39965 0
M  V30 2738 H 260.34 -3.14505 -2.27395 0
M  V30 2739 H 258.441 -1.05039 -3.57488 0
M  V30 2740 H 258.554 -2.92146 -3.7972 0
M  V30 2741 H 256.918 -1.4753 -2.07622 0
M  V30 2742 H 257.701 -3.06229 -1.55174 0
M  V30 2743 N 260.146 1.09593 -1.13257 0
M  V30 2744 C 261.386 1.83349 -0.903472 0
M  V30 2745 C 261.75 1.83641 0.560351 0
M  V30 2746 O 262.951 2.53037 0.906947 0
M  V30 2747 C 261.222 3.25629 -1.47311 0
M  V30 2748 S 262.781 4.16408 -1.38382 0
M  V30 2749 H 259.599 0.632014 -0.325699 0
M  V30 2750 H 262.201 1.31817 -1.44376 0
M  V30 2751 H 260.905 3.22991 -2.53189 0
M  V30 2752 H 260.436 3.82233 -0.930689 0
M  V30 2753 H 262.451 4.94884 -0.361113 0
M  V30 2754 N 261.624 0.925811 1.2754 0
M  V30 2755 C 262.556 0.380753 2.26015 0
M  V30 2756 C 263.569 -0.487485 1.5533 0
M  V30 2757 O 264.758 -0.300413 1.75954 0
M  V30 2758 C 261.858 -0.473259 3.35579 0
M  V30 2759 C 261.031 0.375249 4.35787 0
M  V30 2760 C 260.09 -0.415809 5.24555 0
M  V30 2761 O 259.116 0.175834 5.68928 0
M  V30 2762 N 260.318 -1.71607 5.54555 0
M  V30 2763 H 263.083 1.22725 2.73421 0
M  V30 2764 H 260.644 0.793037 1.41147 0
M  V30 2765 H 262.636 -1.00949 3.91907 0
M  V30 2766 H 261.206 -1.2205 2.87789 0
M  V30 2767 H 260.426 1.09279 3.7875 0
M  V30 2768 H 261.714 0.955399 4.99749 0
M  V30 2769 H 261.112 -2.2191 5.20358 0
M  V30 2770 H 259.669 -2.19887 6.1359 0
M  V30 2771 N 263.102 -1.41638 0.69111 0
M  V30 2772 C 264.518 -1.55435 0.362224 0
M  V30 2773 C 264.718 -1.66754 -1.13117 0
M  V30 2774 O 263.774 -1.64348 -1.91692 0
M  V30 2775 C 265.087 -2.79588 1.10684 0
M  V30 2776 C 266.635 -2.9338 1.09075 0
M  V30 2777 C 267.11 -4.20414 1.81703 0
M  V30 2778 N 268.601 -4.27362 1.7865 0
M  V30 2779 C 269.336 -5.24507 2.31689 0
M  V30 2780 N 268.832 -6.27708 2.93179 0
M  V30 2781 N 270.625 -5.16416 2.2197 0
M  V30 2782 H 262.776 -1.32536 1.65976 0
M  V30 2783 H 265.039 -0.639115 0.700168 0
M  V30 2784 H 264.745 -2.77419 2.16175 0
M  V30 2785 H 264.619 -3.70973 0.682545 0
M  V30 2786 H 267.006 -2.95067 0.0441238 0
M  V30 2787 H 267.087 -2.0318 1.55407 0
M  V30 2788 H 266.731 -4.19488 2.86343 0
M  V30 2789 H 266.661 -5.09578 1.32808 0
M  V30 2790 H 269.152 -3.53415 1.33815 0
M  V30 2791 H 269.465 -6.98217 3.31229 0
M  V30 2792 H 267.81 -6.28223 2.97255 0
M  V30 2793 H 271.001 -4.34716 1.73607 0
M  V30 2794 H 271.174 -5.91958 2.63609 0
M  V30 2795 N 264.58 -0.43555 -1.51462 0
M  V30 2796 C 265.49 0.383001 -2.31453 0
M  V30 2797 C 266.506 1.02931 -1.4029 0
M  V30 2798 O 267.682 1.02507 -1.73362 0
M  V30 2799 C 264.747 1.47043 -3.13973 0
M  V30 2800 C 263.808 0.844433 -4.20913 0
M  V30 2801 C 263.041 1.88004 -4.9949 0
M  V30 2802 O 263.264 3.10199 -4.78678 0
M  V30 2803 O 262.198 1.47157 -5.83634 0
M  V30 2804 H 266.024 -0.269964 -3.02498 0
M  V30 2805 H 263.609 -0.19813 -1.4808 0
M  V30 2806 H 265.491 2.10113 -3.65281 0
M  V30 2807 H 264.166 2.10751 -2.45695 0
M  V30 2808 H 263.073 0.175729 -3.73687 0
M  V30 2809 H 264.406 0.250869 -4.9156 0
M  V30 2810 N 266.058 1.56714 -0.166846 0
M  V30 2811 C 267.286 2.0112 0.485644 0
M  V30 2812 C 267.701 1.04705 1.57106 0
M  V30 2813 O 267.058 0.0471923 1.82439 0
M  V30 2814 C 267.109 3.45361 1.06808 0
M  V30 2815 O 266.83 4.38092 0.0259995 0
M  V30 2816 C 268.331 4.05145 1.79924 0
M  V30 2817 H 265.551 0.65931 0.124704 0
M  V30 2818 H 268.095 2.02746 -0.267262 0
M  V30 2819 H 266.25 3.44524 1.7715 0
M  V30 2820 H 266.664 5.22519 0.455398 0
M  V30 2821 H 268.138 5.08009 2.15942 0
M  V30 2822 H 268.615 3.46982 2.69258 0
M  V30 2823 H 269.221 4.09672 1.14234 0
M  V30 2824 N 267.536 -0.106894 1.57237 0
M  V30 2825 C 268.947 -0.662723 1.74542 0
M  V30 2826 C 269.298 -1.7971 0.787319 0
M  V30 2827 O 268.423 -2.16368 -0.0369636 0
M  V30 2828 C 269.018 -1.20896 3.16496 0
M  V30 2829 C 267.577 -1.71096 3.35266 0
M  V30 2830 C 266.724 -0.615642 2.7038 0
M  V30 2831 H 269.675 0.119106 1.58252 0
M  V30 2832 H 269.696 -2.07847 3.18716 0
M  V30 2833 H 269.208 -0.383122 3.86204 0
M  V30 2834 H 267.309 -2.56119 2.70618 0
M  V30 2835 H 267.422 -1.81208 4.43509 0
M  V30 2836 H 265.786 -1.05222 2.31949 0
M  V30 2837 H 266.569 0.199419 3.4272 0
M  V30 2838 N 269.014 -1.53014 -0.377408 0
M  V30 2839 C 269.924 -1.81557 -1.48574 0
M  V30 2840 C 270.94 -0.703102 -1.59162 0
M  V30 2841 O 272.116 -0.99192 -1.75279 0
M  V30 2842 C 269.181 -1.9889 -2.83978 0
M  V30 2843 C 268.242 -3.22801 -2.83016 0
M  V30 2844 C 267.475 -3.39298 -4.11962 0
M  V30 2845 O 267.698 -2.60345 -5.0752 0
M  V30 2846 O 266.632 -4.32604 -4.18494 0
M  V30 2847 H 270.458 -2.75695 -1.27382 0
M  V30 2848 H 268.043 -1.38248 -0.566373 0
M  V30 2849 H 269.925 -2.11931 -3.6423 0
M  V30 2850 H 268.6 -1.07942 -3.05172 0
M  V30 2851 H 267.507 -3.15193 -2.01505 0
M  V30 2852 H 268.84 -4.13632 -2.66775 0
M  V30 2853 N 270.492 0.636531 -1.44174 0
M  V30 2854 C 271.74 1.39343 -1.46383 0
M  V30 2855 C 272.061 1.94766 -0.0955715 0
M  V30 2856 O 271.331 1.75452 0.871395 0
M  V30 2857 H 269.911 0.517199 -0.538994 0
M  V30 2858 H 272.573 0.74957 -1.7991 0
M  V30 2859 H 271.669 2.22746 -2.18611 0
M  V30 2860 N 271.97 1.30982 0.876444 0
M  V30 2861 C 272.933 1.18054 1.96459 0
M  V30 2862 C 273.933 0.109399 1.60427 0
M  V30 2863 O 275.123 0.358173 1.70478 0
M  V30 2864 C 272.255 0.810616 3.31122 0
M  V30 2865 H 273.448 2.14735 2.09354 0
M  V30 2866 H 271.001 1.145 1.06392 0
M  V30 2867 H 271.736 -0.155322 3.23928 0
M  V30 2868 H 271.521 1.58481 3.58645 0
M  V30 2869 H 273.011 0.743876 4.10921 0
M  V30 2870 N 273.449 -1.08991 1.13837 0
M  V30 2871 C 274.359 -2.19301 0.833333 0
M  V30 2872 C 275.375 -1.73026 -0.183847 0
M  V30 2873 O 276.551 -2.01395 -0.0138092 0
M  V30 2874 C 273.616 -3.45323 0.308651 0
M  V30 2875 C 272.677 -4.06255 1.38764 0
M  V30 2876 C 271.91 -5.26262 0.887896 0
M  V30 2877 O 272.133 -5.69747 -0.27287 0
M  V30 2878 O 271.067 -5.78435 1.66421 0
M  V30 2879 H 274.893 -2.47854 1.75506 0
M  V30 2880 H 272.478 -1.18012 0.916166 0
M  V30 2881 H 274.36 -4.21394 0.0216739 0
M  V30 2882 H 273.035 -3.18362 -0.585431 0
M  V30 2883 H 271.942 -3.318 1.72799 0
M  V30 2884 H 273.275 -4.37452 2.25602 0
M  V30 2885 N 274.927 -0.932562 -1.27047 0
M  V30 2886 C 275.89 -0.440064 -2.24936 0
M  V30 2887 C 276.89 0.444071 -1.54547 0
M  V30 2888 O 278.08 0.244465 -1.72476 0
M  V30 2889 C 275.212 0.36678 -3.38921 0
M  V30 2890 H 276.405 -1.305 -2.70018 0
M  V30 2891 H 273.958 -0.713707 -1.39054 0
M  V30 2892 H 274.693 1.25033 -2.99228 0
M  V30 2893 H 274.478 -0.267204 -3.91188 0
M  V30 2894 H 275.968 0.701567 -4.11665 0
M  V30 2895 N 276.405 1.4127 -0.698611 0
M  V30 2896 C 277.352 2.30773 -0.0352094 0
M  V30 2897 C 278.322 1.47273 0.768111 0
M  V30 2898 O 279.507 1.76053 0.735524 0
M  V30 2899 C 276.647 3.33346 0.893 0
M  V30 2900 C 275.76 4.31924 0.0809695 0
M  V30 2901 C 274.895 5.21566 1.0071 0
M  V30 2902 C 273.934 6.11811 0.188155 0
M  V30 2903 N 273.071 6.93926 1.06825 0
M  V30 2904 H 277.911 2.86943 -0.804207 0
M  V30 2905 H 275.448 1.4132 -0.408294 0
M  V30 2906 H 277.406 3.91368 1.44523 0
M  V30 2907 H 276.036 2.78719 1.62836 0
M  V30 2908 H 275.088 3.75825 -0.588224 0
M  V30 2909 H 276.4 4.95716 -0.553801 0
M  V30 2910 H 275.554 5.84437 1.62845 0
M  V30 2911 H 274.293 4.58008 1.67572 0
M  V30 2912 H 273.298 5.47986 -0.446254 0
M  V30 2913 H 274.523 6.77425 -0.476716 0
M  V30 2914 H 272.469 6.32973 1.72283 0
M  V30 2915 H 272.386 7.54416 0.489123 0
M  V30 2916 H 273.654 7.61262 1.67632 0
M  V30 2917 N 277.883 0.443576 1.51229 0
M  V30 2918 C 279.294 -0.0180867 1.86691 0
M  V30 2919 C 279.645 -1.41384 1.36033 0
M  V30 2920 O 278.77 -2.04291 0.713722 0
M  V30 2921 C 279.365 -0.039597 3.38777 0
M  V30 2922 C 277.924 -0.445692 3.73752 0
M  V30 2923 C 277.071 0.357584 2.74985 0
M  V30 2924 H 280.022 0.659138 1.44364 0
M  V30 2925 H 280.043 -0.847761 3.70936 0
M  V30 2926 H 279.555 0.976382 3.75617 0
M  V30 2927 H 277.656 -1.46704 3.42503 0
M  V30 2928 H 277.769 -0.166155 4.78812 0
M  V30 2929 H 276.133 -0.184973 2.54027 0
M  V30 2930 H 276.916 1.37256 3.14668 0
M  V30 2931 N 279.361 -1.56624 0.175154 0
M  V30 2932 C 280.607 -1.98061 -0.462976 0
M  V30 2933 C 280.962 -1.05949 -1.60601 0
M  V30 2934 O 280.255 -0.0999027 -1.91339 0
M  V30 2935 C 280.449 -3.43419 -0.989864 0
M  V30 2936 C 280.278 -4.49587 0.100583 0
M  V30 2937 C 279.048 -5.02281 0.551539 0
M  V30 2938 C 281.246 -5.06322 0.902369 0
M  V30 2939 N 279.228 -5.92088 1.62189 0
M  V30 2940 C 280.599 -5.92607 1.82256 0
M  V30 2941 C 282.654 -4.88811 0.947019 0
M  V30 2942 C 281.357 -6.63254 2.78364 0
M  V30 2943 C 283.383 -5.60182 1.89606 0
M  V30 2944 C 282.745 -6.46197 2.80372 0
M  V30 2945 H 278.844 -0.769833 -0.137409 0
M  V30 2946 H 281.428 -1.9273 0.276256 0
M  V30 2947 H 279.599 -3.49288 -1.6986 0
M  V30 2948 H 281.331 -3.7186 -1.59694 0
M  V30 2949 H 278.086 -4.73367 0.148537 0
M  V30 2950 H 278.51 -6.41696 2.15767 0
M  V30 2951 H 283.152 -4.22004 0.259304 0
M  V30 2952 H 280.87 -7.29271 3.48122 0
M  V30 2953 H 284.456 -5.48617 1.93676 0
M  V30 2954 H 283.336 -7.00453 3.52612 0
M  V30 2955 N 280.839 0.0985539 -1.57292 0
M  V30 2956 C 282.069 0.815135 -1.8984 0
M  V30 2957 C 282.477 1.7297 -0.766679 0
M  V30 2958 O 281.82 1.81698 0.270483 0
M  V30 2959 C 281.882 1.6842 -3.17608 0
M  V30 2960 C 281.546 0.94182 -4.4719 0
M  V30 2961 C 282.543 0.273212 -5.19182 0
M  V30 2962 C 280.228 0.916927 -4.9386 0
M  V30 2963 C 282.222 -0.410361 -6.36078 0
M  V30 2964 C 279.909 0.229567 -6.10669 0
M  V30 2965 C 280.907 -0.432902 -6.81627 0
M  V30 2966 O 280.595 -1.10925 -7.9621 0
M  V30 2967 H 280.327 0.238501 -0.632529 0
M  V30 2968 H 282.881 0.0812659 -2.05239 0
M  V30 2969 H 281.111 2.46022 -2.98345 0
M  V30 2970 H 282.8 2.27704 -3.36015 0
M  V30 2971 H 283.566 0.283927 -4.84168 0
M  V30 2972 H 279.445 1.42201 -4.3852 0
M  V30 2973 H 282.989 -0.928013 -6.914 0
M  V30 2974 H 278.886 0.216686 -6.45136 0
M  V30 2975 H 279.654 -1.01579 -8.12172 0
M  V30 2976 N 282.317 1.53212 0.369288 0
M  V30 2977 C 283.227 1.82342 1.47609 0
M  V30 2978 C 284.243 0.711532 1.58787 0
M  V30 2979 O 285.419 1.0012 1.74751 0
M  V30 2980 C 282.484 2.00393 2.8292 0
M  V30 2981 C 281.545 3.24297 2.81301 0
M  V30 2982 C 280.778 3.41478 4.10157 0
M  V30 2983 O 281.001 2.63033 5.06132 0
M  V30 2984 O 279.935 4.34817 4.16194 0
M  V30 2985 H 283.761 2.76366 1.25918 0
M  V30 2986 H 281.346 1.38547 0.559034 0
M  V30 2987 H 283.228 2.13859 3.63101 0
M  V30 2988 H 281.903 1.09559 3.04596 0
M  V30 2989 H 280.81 3.16257 1.99831 0
M  V30 2990 H 282.143 4.15041 2.64578 0
M  V30 2991 N 283.795 -0.628877 1.44509 0
M  V30 2992 C 285.206 -1.21054 1.42137 0
M  V30 2993 C 285.557 -1.95715 0.137881 0
M  V30 2994 O 284.682 -2.02554 -0.761645 0
M  V30 2995 C 285.277 -2.20189 2.57493 0
M  V30 2996 C 283.836 -2.73777 2.58308 0
M  V30 2997 C 282.983 -1.48813 2.33987 0
M  V30 2998 H 285.934 -0.41942 1.53057 0
M  V30 2999 H 285.955 -3.02833 2.30375 0
M  V30 3000 H 285.467 -1.6582 3.50892 0
M  V30 3001 H 283.568 -3.32142 1.68856 0
M  V30 3002 H 283.681 -3.19662 3.56865 0
M  V30 3003 H 282.045 -1.77024 1.83124 0
M  V30 3004 H 282.828 -0.963442 3.29504 0
M  V30 3005 N 285.273 -1.31445 -0.869486 0
M  V30 3006 C 286.522 -1.20517 -1.61736 0
M  V30 3007 C 286.835 0.235341 -1.94179 0
M  V30 3008 O 288.041 0.466312 -2.67465 0
M  V30 3009 C 286.497 -2.10982 -2.91573 0
M  V30 3010 C 286.105 -3.60032 -2.66611 0
M  V30 3011 C 287.849 -2.08856 -3.69567 0
M  V30 3012 C 285.756 -4.42503 -3.92358 0
M  V30 3013 H 284.686 -0.447493 -0.606849 0
M  V30 3014 H 287.337 -1.56303 -0.96133 0
M  V30 3015 H 285.719 -1.68095 -3.58553 0
M  V30 3016 H 286.893 -4.11167 -2.08035 0
M  V30 3017 H 285.208 -3.64139 -2.0197 0
M  V30 3018 H 287.805 -2.67716 -4.62852 0
M  V30 3019 H 288.148 -1.07582 -4.02159 0
M  V30 3020 H 288.681 -2.49945 -3.09471 0
M  V30 3021 H 285.42 -5.44533 -3.64916 0
M  V30 3022 H 284.94 -3.96125 -4.50383 0
M  V30 3023 H 286.619 -4.54741 -4.60238 0
M  V30 3024 N 286.751 1.08385 -1.14413 0
M  V30 3025 C 287.981 1.8425 -0.934644 0
M  V30 3026 C 288.389 1.81907 0.520234 0
M  V30 3027 O 287.732 1.22126 1.37226 0
M  V30 3028 C 287.794 3.32853 -1.35828 0
M  V30 3029 C 287.458 3.5893 -2.82875 0
M  V30 3030 C 288.455 3.53756 -3.80989 0
M  V30 3031 C 286.14 3.86934 -3.20293 0
M  V30 3032 C 288.134 3.76216 -5.14529 0
M  V30 3033 C 285.821 4.09047 -4.54008 0
M  V30 3034 C 286.819 4.03682 -5.50936 0
M  V30 3035 O 286.507 4.25214 -6.82238 0
M  V30 3036 H 286.239 0.588502 -0.332628 0
M  V30 3037 H 288.793 1.37792 -1.52324 0
M  V30 3038 H 287.023 3.8007 -0.713019 0
M  V30 3039 H 288.712 3.90154 -1.11957 0
M  V30 3040 H 289.478 3.32135 -3.53428 0
M  V30 3041 H 285.357 3.9023 -2.45442 0
M  V30 3042 H 288.901 3.71943 -5.90173 0
M  V30 3043 H 284.798 4.30151 -4.8129 0
M  V30 3044 H 285.566 4.42619 -6.88499 0
M  V30 3045 N 288.23 0.939286 1.26551 0
M  V30 3046 C 289.16 0.465044 2.28822 0
M  V30 3047 C 290.141 -0.480692 1.63167 0
M  V30 3048 O 291.326 -0.382955 1.90387 0
M  V30 3049 C 288.456 -0.27234 3.46231 0
M  V30 3050 C 287.41 0.58666 4.2396 0
M  V30 3051 C 286.736 -0.280573 5.33963 0
M  V30 3052 C 288.036 1.85704 4.88171 0
M  V30 3053 H 289.73 1.31979 2.68741 0
M  V30 3054 H 287.276 0.636061 1.29191 0
M  V30 3055 H 289.229 -0.615133 4.16886 0
M  V30 3056 H 287.953 -1.16121 3.0526 0
M  V30 3057 H 286.612 0.91232 3.55067 0
M  V30 3058 H 286.26 -1.16874 4.89234 0
M  V30 3059 H 285.96 0.29076 5.8688 0
M  V30 3060 H 287.484 -0.618678 6.07458 0
M  V30 3061 H 288.898 1.58161 5.51052 0
M  V30 3062 H 287.295 2.37279 5.51197 0
M  V30 3063 H 288.365 2.56957 4.11219 0
M  V30 3064 N 289.708 -1.40897 0.706093 0
M  V30 3065 C 290.956 -2.00657 0.241054 0
M  V30 3066 C 291.277 -1.56241 -1.16678 0
M  V30 3067 O 290.547 -0.79765 -1.78926 0
M  V30 3068 H 289.127 -0.742018 0.0861308 0
M  V30 3069 H 291.789 -1.72372 0.909604 0
M  V30 3070 H 290.885 -3.10958 0.266705 0
M  V30 3071 N 291.186 -0.45159 -1.50991 0
M  V30 3072 C 292.434 0.109857 -2.01801 0
M  V30 3073 C 292.755 1.41958 -1.3369 0
M  V30 3074 O 292.025 1.9003 -0.475951 0
M  V30 3075 H 290.605 0.0435884 -0.745727 0
M  V30 3076 H 293.267 -0.597557 -1.85514 0
M  V30 3077 H 292.363 0.275489 -3.10882 0
M  V30 3078 N 292.664 1.56529 -0.183458 0
M  V30 3079 C 293.91 1.97537 0.459036 0
M  V30 3080 C 294.243 1.06989 1.62071 0
M  V30 3081 O 293.518 0.11948 1.94133 0
M  V30 3082 C 293.801 3.47874 0.930368 0
M  V30 3083 C 293.654 4.492 -0.232317 0
M  V30 3084 C 294.973 4.01612 1.79989 0
M  V30 3085 H 292.092 0.718204 0.165383 0
M  V30 3086 H 294.734 1.88042 -0.272038 0
M  V30 3087 H 292.884 3.56095 1.55333 0
M  V30 3088 H 294.556 4.53027 -0.86972 0
M  V30 3089 H 292.799 4.24657 -0.885928 0
M  V30 3090 H 293.47 5.51823 0.139796 0
M  V30 3091 H 295.946 3.96097 1.27461 0
M  V30 3092 H 294.822 5.07195 2.09867 0
M  V30 3093 H 295.083 3.46163 2.74998 0
M  V30 3094 N 294.142 -0.090211 1.57342 0
M  V30 3095 C 295.389 -0.792807 1.86335 0
M  V30 3096 C 295.717 -1.78494 0.772662 0
M  V30 3097 O 294.972 -1.94305 -0.233258 0
M  V30 3098 C 295.271 -1.55222 3.21933 0
M  V30 3099 C 294.937 -0.701765 4.45406 0
M  V30 3100 C 293.599 -0.467334 4.78925 0
M  V30 3101 C 295.951 -0.11086 5.21082 0
M  V30 3102 C 293.279 0.367785 5.85546 0
M  V30 3103 C 295.631 0.711609 6.28585 0
M  V30 3104 C 294.295 0.956086 6.60617 0
M  V30 3105 H 293.565 -0.290109 0.681849 0
M  V30 3106 H 296.212 -0.0541332 1.91423 0
M  V30 3107 H 294.517 -2.3626 3.12551 0
M  V30 3108 H 296.214 -2.10032 3.41595 0
M  V30 3109 H 292.804 -0.894598 4.1916 0
M  V30 3110 H 296.988 -0.279129 4.95514 0
M  V30 3111 H 292.244 0.566128 6.08773 0
M  V30 3112 H 296.418 1.17632 6.86393 0
M  V30 3113 H 294.045 1.60499 7.43064 0
M  V30 3114 N 295.62 -1.53406 -0.361157 0
M  V30 3115 C 296.552 -1.76446 -1.46286 0
M  V30 3116 C 297.565 -0.645322 -1.49464 0
M  V30 3117 O 298.754 -0.921681 -1.52864 0
M  V30 3118 C 295.854 -1.83332 -2.85031 0
M  V30 3119 C 295.027 -3.13033 -3.05498 0
M  V30 3120 C 294.086 -3.11104 -4.24383 0
M  V30 3121 O 293.112 -3.84888 -4.19344 0
M  V30 3122 N 294.314 -2.32234 -5.32022 0
M  V30 3123 H 297.079 -2.71508 -1.26899 0
M  V30 3124 H 294.64 -1.52238 -0.550915 0
M  V30 3125 H 296.632 -1.79514 -3.62708 0
M  V30 3126 H 295.202 -0.955342 -2.97644 0
M  V30 3127 H 294.422 -3.30119 -2.15442 0
M  V30 3128 H 295.71 -3.9874 -3.16044 0
M  V30 3129 H 295.108 -1.71807 -5.38979 0
M  V30 3130 H 293.665 -2.3423 -6.08259 0
M  V30 3131 N 297.098 0.621204 -1.44841 0
M  V30 3132 C 298.028 1.74366 -1.55303 0
M  V30 3133 C 299.009 1.65199 -0.405385 0
M  V30 3134 O 300.194 1.83807 -0.626787 0
M  V30 3135 C 297.324 3.12931 -1.50637 0
M  V30 3136 C 296.278 3.36896 -2.63979 0
M  V30 3137 C 295.604 4.75594 -2.44366 0
M  V30 3138 C 296.904 3.28483 -4.06074 0
M  V30 3139 H 298.598 1.65867 -2.49256 0
M  V30 3140 H 296.144 0.796558 -1.19962 0
M  V30 3141 H 298.097 3.9124 -1.56555 0
M  V30 3142 H 296.821 3.22237 -0.532057 0
M  V30 3143 H 295.48 2.60972 -2.57467 0
M  V30 3144 H 295.128 4.81616 -1.45105 0
M  V30 3145 H 294.828 4.92586 -3.20364 0
M  V30 3146 H 296.352 5.5612 -2.52117 0
M  V30 3147 H 297.766 3.96684 -4.13902 0
M  V30 3148 H 296.163 3.57008 -4.82354 0
M  V30 3149 H 297.233 2.26133 -4.28943 0
M  V30 3150 N 298.576 1.31904 0.862503 0
M  V30 3151 C 299.486 1.22161 2.00285 0
M  V30 3152 C 300.502 0.136785 1.73462 0
M  V30 3153 O 301.678 0.355994 1.98229 0
M  V30 3154 C 298.743 0.937093 3.33796 0
M  V30 3155 C 297.804 2.10957 3.73893 0
M  V30 3156 C 297.037 1.83853 5.01033 0
M  V30 3157 O 297.26 0.777274 5.65079 0
M  V30 3158 O 296.194 2.69741 5.38074 0
M  V30 3159 H 300.02 2.18008 2.11439 0
M  V30 3160 H 297.605 1.11716 0.991957 0
M  V30 3161 H 299.487 0.794583 4.13841 0
M  V30 3162 H 298.162 0.00871894 3.23699 0
M  V30 3163 H 297.069 2.30752 2.94456 0
M  V30 3164 H 298.402 3.02046 3.88625 0
M  V30 3165 N 300.054 -1.07777 1.14986 0
M  V30 3166 C 301.001 -2.14867 0.842672 0
M  V30 3167 C 301.971 -1.6486 -0.202552 0
M  V30 3168 O 303.156 -1.90668 -0.0710568 0
M  V30 3169 C 300.296 -3.43486 0.333363 0
M  V30 3170 C 299.409 -4.07306 1.43965 0
M  V30 3171 C 298.544 -5.23744 0.886914 0
M  V30 3172 C 297.583 -5.79517 1.97043 0
M  V30 3173 N 296.72 -6.87291 1.4344 0
M  V30 3174 H 301.56 -2.40485 1.75986 0
M  V30 3175 H 299.097 -1.1801 0.878179 0
M  V30 3176 H 301.055 -4.17195 0.0198163 0
M  V30 3177 H 299.685 -3.18133 -0.546916 0
M  V30 3178 H 298.737 -3.31293 1.86946 0
M  V30 3179 H 300.049 -4.44771 2.25788 0
M  V30 3180 H 299.203 -6.04419 0.525651 0
M  V30 3181 H 297.942 -4.87685 0.0377957 0
M  V30 3182 H 296.947 -4.97491 2.34057 0
M  V30 3183 H 298.172 -6.17632 2.82325 0
M  V30 3184 H 296.118 -6.5318 0.607567 0
M  V30 3185 H 296.035 -7.23617 2.18895 0
M  V30 3186 H 297.303 -7.71682 1.10124 0
M  V30 3187 N 301.532 -0.945985 -1.26051 0
M  V30 3188 C 302.78 -0.594941 -1.93145 0
M  V30 3189 C 303.101 0.86953 -1.7454 0
M  V30 3190 O 302.371 1.61838 -1.10387 0
M  V30 3191 H 300.951 -0.217044 -0.714773 0
M  V30 3192 H 303.613 -1.20235 -1.53393 0
M  V30 3193 H 302.709 -0.816835 -3.01221 0
M  V30 3194 N 303.011 1.40521 -0.713556 0
M  V30 3195 C 304.288 1.94775 -0.17943 0
M  V30 3196 C 304.668 1.65184 1.31444 0
M  V30 3197 O 304.016 0.968429 2.06963 0
M  V30 3198 C 304.226 3.45543 -0.489986 0
M  V30 3199 C 305.574 4.22442 -0.427536 0
M  V30 3200 O 306.598 3.53644 -0.425929 0
M  V30 3201 O 305.457 5.4501 -0.403292 0
M  V30 3202 H 302.551 0.826606 -0.0255192 0
M  V30 3203 H 305.097 1.5014 -0.790949 0
M  V30 3204 H 303.869 3.60432 -1.5233 0
M  V30 3205 H 303.492 3.97311 0.151598 0
M  V30 3206 N 304.489 0.459591 1.5075 0
M  V30 3207 C 305.905 0.113092 1.59199 0
M  V30 3208 C 306.105 -1.37951 1.46874 0
M  V30 3209 O 305.161 -2.15168 1.32132 0
M  V30 3210 C 306.474 0.653043 2.93523 0
M  V30 3211 C 308.022 0.615449 3.0689 0
M  V30 3212 C 308.497 1.13275 4.43771 0
M  V30 3213 N 309.988 1.09167 4.50152 0
M  V30 3214 C 310.723 1.46256 5.54434 0
M  V30 3215 N 310.219 1.90739 6.66026 0
M  V30 3216 N 312.012 1.37932 5.44914 0
M  V30 3217 H 304.163 1.43049 1.57005 0
M  V30 3218 H 306.426 0.590861 0.741341 0
M  V30 3219 H 306.132 1.69822 3.07983 0
M  V30 3220 H 306.006 0.0902132 3.77092 0
M  V30 3221 H 308.393 -0.420793 2.92084 0
M  V30 3222 H 308.474 1.21495 2.25106 0
M  V30 3223 H 308.118 2.16757 4.59324 0
M  V30 3224 H 308.048 0.509576 5.24129 0
M  V30 3225 H 310.539 0.76528 3.7007 0
M  V30 3226 H 310.852 2.17218 7.41644 0
M  V30 3227 H 309.197 1.94683 6.67176 0
M  V30 3228 H 312.388 1.0303 4.56621 0
M  V30 3229 H 312.561 1.67164 6.26067 0
M  V30 3230 N 305.967 -1.56429 0.191757 0
M  V30 3231 C 306.897 -2.21937 -0.725696 0
M  V30 3232 C 307.878 -1.1814 -1.2238 0
M  V30 3233 O 309.063 -1.46636 -1.27325 0
M  V30 3234 C 306.193 -2.87611 -1.94672 0
M  V30 3235 C 305.147 -3.97623 -1.58366 0
M  V30 3236 C 304.473 -4.50446 -2.88102 0
M  V30 3237 C 305.773 -5.16197 -0.796133 0
M  V30 3238 H 307.467 -2.98861 -0.179606 0
M  V30 3239 H 305.013 -1.43749 -0.0849464 0
M  V30 3240 H 306.966 -3.3212 -2.59373 0
M  V30 3241 H 305.69 -2.08087 -2.51728 0
M  V30 3242 H 304.349 -3.53801 -0.960247 0
M  V30 3243 H 303.997 -3.67688 -3.43241 0
M  V30 3244 H 303.697 -5.24675 -2.64556 0
M  V30 3245 H 305.221 -4.97654 -3.53798 0
M  V30 3246 H 306.635 -5.57271 -1.34618 0
M  V30 3247 H 305.032 -5.96471 -0.658928 0
M  V30 3248 H 306.102 -4.84473 0.203478 0
M  V30 3249 N 307.445 0.0818655 -1.57387 0
M  V30 3250 C 308.67 0.799946 -1.91352 0
M  V30 3251 C 309.095 1.70833 -0.787258 0
M  V30 3252 O 308.453 1.79419 0.26048 0
M  V30 3253 C 308.501 1.57812 -3.24234 0
M  V30 3254 O 307.605 2.68806 -3.12757 0
M  V30 3255 H 306.946 0.21891 -0.626877 0
M  V30 3256 H 309.476 0.0531256 -2.04531 0
M  V30 3257 H 309.486 1.95952 -3.57864 0
M  V30 3258 H 308.161 0.911548 -4.05788 0
M  V30 3259 H 306.738 2.33597 -2.90666 0
M  V30 3260 N 308.923 1.53595 0.353017 0
M  V30 3261 C 309.886 1.80232 1.41594 0
M  V30 3262 C 310.886 0.673081 1.46035 0
M  V30 3263 O 312.076 0.941335 1.46576 0
M  V30 3264 C 309.208 1.93578 2.80607 0
M  V30 3265 H 310.401 2.75174 1.19244 0
M  V30 3266 H 307.954 1.44864 0.586872 0
M  V30 3267 H 308.689 1.00746 3.08254 0
M  V30 3268 H 308.474 2.75724 2.78781 0
M  V30 3269 H 309.964 2.15735 3.57558 0
M  V30 3270 N 310.401 -0.613514 1.45168 0
M  V30 3271 C 311.311 -1.75296 1.55912 0
M  V30 3272 C 312.327 -1.68244 0.443856 0
M  V30 3273 O 313.503 -1.88706 0.70371 0
M  V30 3274 C 310.568 -3.1174 1.5172 0
M  V30 3275 C 309.629 -3.30291 2.74238 0
M  V30 3276 C 308.862 -4.60226 2.70236 0
M  V30 3277 O 309.085 -5.42168 1.77229 0
M  V30 3278 O 308.019 -4.81361 3.61352 0
M  V30 3279 H 311.845 -1.69183 2.52212 0
M  V30 3280 H 309.43 -0.776886 1.27612 0
M  V30 3281 H 311.312 -3.93044 1.51968 0
M  V30 3282 H 309.987 -3.18357 0.585697 0
M  V30 3283 H 308.894 -2.48598 2.79553 0
M  V30 3284 H 310.227 -3.28547 3.66494 0
M  V30 3285 N 311.879 -1.3236 -0.855495 0
M  V30 3286 C 313.128 -1.22226 -1.60448 0
M  V30 3287 C 313.441 0.214733 -1.94418 0
M  V30 3288 O 314.647 0.437917 -2.67945 0
M  V30 3289 C 313.103 -2.14063 -2.89318 0
M  V30 3290 C 312.711 -3.62839 -2.62777 0
M  V30 3291 C 314.455 -2.12764 -3.67331 0
M  V30 3292 C 312.362 -4.4664 -3.87643 0
M  V30 3293 H 311.292 -0.453904 -0.602069 0
M  V30 3294 H 313.943 -1.57314 -0.944698 0
M  V30 3295 H 312.325 -1.71889 -3.5675 0
M  V30 3296 H 313.499 -4.1335 -2.03662 0
M  V30 3297 H 311.814 -3.66261 -1.98096 0
M  V30 3298 H 314.411 -2.72611 -4.59987 0
M  V30 3299 H 314.754 -1.11841 -4.00995 0
M  V30 3300 H 315.287 -2.53214 -3.06802 0
M  V30 3301 H 312.026 -5.48373 -3.5912 0
M  V30 3302 H 311.546 -4.0088 -4.46156 0
M  V30 3303 H 313.225 -4.59597 -4.55389 0
M  V30 3304 N 313.357 1.07166 -1.15556 0
M  V30 3305 C 314.305 2.16517 -0.8499 0
M  V30 3306 C 315.299 1.68468 0.177454 0
M  V30 3307 O 316.505 1.79971 0.0323026 0
M  V30 3308 H 312.88 0.706652 -0.25719 0
M  V30 3309 H 314.851 2.39514 -1.77976 0
M  V30 3310 C 313.6 3.45855 -0.357682 0
M  V30 3311 H 312.923 3.83214 -1.13961 0
M  V30 3312 H 314.363 4.23607 -0.182489 0
M  V30 3313 C 312.822 3.24062 0.921152 0
M  V30 3314 O 313.352 3.48813 1.9923 0
M  V30 3315 N 311.558 2.77539 0.86141 0
M  V30 3316 H 311.105 2.57598 -0.0104408 0
M  V30 3317 H 311.063 2.63337 1.71758 0
M  V30 3318 N 314.835 0.952656 1.25548 0
M  V30 3319 C 316.251 0.656769 1.4546 0
M  V30 3320 C 316.451 -0.78633 1.85524 0
M  V30 3321 O 315.507 -1.56183 1.98402 0
M  V30 3322 C 316.82 1.62801 2.52817 0
M  V30 3323 C 318.368 1.63897 2.66659 0
M  V30 3324 C 318.843 2.5978 3.77198 0
M  V30 3325 N 320.334 2.58133 3.84606 0
M  V30 3326 C 321.069 3.29003 4.69621 0
M  V30 3327 N 320.565 4.09339 5.58939 0
M  V30 3328 N 322.358 3.179 4.63569 0
M  V30 3329 H 314.509 1.88526 0.978344 0
M  V30 3330 H 316.772 0.810815 0.491206 0
M  V30 3331 H 316.478 2.65869 2.30232 0
M  V30 3332 H 316.352 1.38898 3.50695 0
M  V30 3333 H 318.739 0.615481 2.8861 0
M  V30 3334 H 318.82 1.91858 1.69187 0
M  V30 3335 H 318.464 3.62254 3.55997 0
M  V30 3336 H 318.394 2.29105 4.7415 0
M  V30 3337 H 320.885 1.99809 3.20757 0
M  V30 3338 H 321.198 4.6034 6.20731 0
M  V30 3339 H 319.543 4.13438 5.58654 0
M  V30 3340 H 322.734 2.54612 3.92798 0
M  V30 3341 H 322.907 3.73398 5.29602 0
M  V30 3342 N 316.313 -1.40141 0.720998 0
M  V30 3343 C 317.724 -1.83678 0.334553 0
M  V30 3344 C 318.075 -1.6027 -1.13173 0
M  V30 3345 O 317.2 -1.08643 -1.87152 0
M  V30 3346 C 317.795 -3.33437 0.600437 0
M  V30 3347 C 316.354 -3.75447 0.267642 0
M  V30 3348 C 315.501 -2.63296 0.870097 0
M  V30 3349 H 318.452 -1.29331 0.919732 0
M  V30 3350 H 318.473 -3.80269 -0.132517 0
M  V30 3351 H 317.985 -3.50442 1.66768 0
M  V30 3352 H 316.086 -3.64035 -0.794329 0
M  V30 3353 H 316.199 -4.73344 0.74042 0
M  V30 3354 H 314.563 -2.52954 0.297739 0
M  V30 3355 H 315.346 -2.83112 1.94172 0
M  V30 3356 N 317.792 -0.46758 -1.50504 0
M  V30 3357 C 319.069 0.15003 -1.95024 0
M  V30 3358 C 319.449 1.57304 -1.40779 0
M  V30 3359 O 318.797 2.20281 -0.607319 0
M  V30 3360 C 319.007 0.0969324 -3.48865 0
M  V30 3361 C 320.355 0.287565 -4.23625 0
M  V30 3362 O 321.379 0.173678 -3.55776 0
M  V30 3363 O 320.238 0.517186 -5.44047 0
M  V30 3364 H 317.332 0.113582 -0.819163 0
M  V30 3365 H 319.878 -0.52773 -1.61286 0
M  V30 3366 H 318.65 -0.896732 -3.80886 0
M  V30 3367 H 318.273 0.816303 -3.8913 0
M  V30 3368 N 319.27 1.56325 -0.20005 0
M  V30 3369 C 320.5 2.01811 0.442232 0
M  V30 3370 C 320.908 1.07932 1.55394 0
M  V30 3371 O 320.251 0.0772685 1.83537 0
M  V30 3372 C 320.313 3.43685 1.05457 0
M  V30 3373 C 319.977 4.56928 0.0809833 0
M  V30 3374 C 320.974 5.15009 -0.711471 0
M  V30 3375 C 318.659 5.0229 -0.0315364 0
M  V30 3376 C 320.653 6.16904 -1.60336 0
M  V30 3377 C 318.34 6.04028 -0.926981 0
M  V30 3378 C 319.338 6.6121 -1.71146 0
M  V30 3379 O 319.026 7.60971 -2.59189 0
M  V30 3380 H 318.758 0.666173 0.114848 0
M  V30 3381 H 321.312 2.03085 -0.307511 0
M  V30 3382 H 319.542 3.39413 1.85299 0
M  V30 3383 H 321.231 3.72948 1.60201 0
M  V30 3384 H 321.997 4.80827 -0.634873 0
M  V30 3385 H 317.876 4.57476 0.568902 0
M  V30 3386 H 321.42 6.61464 -2.21611 0
M  V30 3387 H 317.317 6.37634 -1.00468 0
M  V30 3388 H 318.085 7.7841 -2.53023 0
M  V30 3389 N 320.748 -0.0735177 1.57428 0
M  V30 3390 C 321.678 -1.0879 2.06608 0
M  V30 3391 C 322.659 -1.40473 0.959237 0
M  V30 3392 O 323.844 -1.5013 1.23185 0
M  V30 3393 C 320.974 -2.40183 2.50857 0
M  V30 3394 C 319.928 -2.22858 3.65402 0
M  V30 3395 C 319.254 -3.59619 3.957 0
M  V30 3396 C 320.554 -1.65123 4.95511 0
M  V30 3397 H 322.248 -0.678673 2.91607 0
M  V30 3398 H 319.794 -0.325013 1.40284 0
M  V30 3399 H 321.747 -3.11437 2.83874 0
M  V30 3400 H 320.471 -2.83083 1.62885 0
M  V30 3401 H 319.13 -1.54045 3.32664 0
M  V30 3402 H 318.778 -4.00086 3.04861 0
M  V30 3403 H 318.478 -3.48866 4.72828 0
M  V30 3404 H 320.002 -4.32306 4.31212 0
M  V30 3405 H 321.416 -2.26241 5.26771 0
M  V30 3406 H 319.813 -1.65071 5.7695 0
M  V30 3407 H 320.883 -0.612559 4.81015 0
M  V30 3408 N 322.226 -1.5378 -0.344866 0
M  V30 3409 C 323.503 -1.61589 -1.10219 0
M  V30 3410 C 323.883 -0.436316 -2.06542 0
M  V30 3411 O 323.231 0.571543 -2.21237 0
M  V30 3412 C 323.441 -2.97602 -1.82301 0
M  V30 3413 C 324.789 -3.5291 -2.36093 0
M  V30 3414 O 325.813 -2.99768 -1.924 0
M  V30 3415 O 324.672 -4.45859 -3.16026 0
M  V30 3416 H 321.766 -0.653522 -0.506792 0
M  V30 3417 H 324.312 -1.66126 -0.346465 0
M  V30 3418 H 323.084 -3.74893 -1.12121 0
M  V30 3419 H 322.707 -2.9665 -2.64735 0
M  V30 3420 N 323.704 0.605807 -1.45491 0
M  V30 3421 C 324.951 1.36476 -1.49601 0
M  V30 3422 C 325.279 1.94007 -0.138452 0
M  V30 3423 O 324.534 1.75638 0.863114 0
M  V30 3424 C 324.833 2.53012 -2.52428 0
M  V30 3425 C 324.499 2.13617 -3.97087 0
M  V30 3426 C 323.161 2.02587 -4.36477 0
M  V30 3427 C 325.513 1.82899 -4.88055 0
M  V30 3428 C 322.841 1.59064 -5.64726 0
M  V30 3429 C 325.193 1.40861 -6.16718 0
M  V30 3430 C 323.857 1.28391 -6.55036 0
M  V30 3431 H 323.127 0.499402 -0.547429 0
M  V30 3432 H 325.774 0.684546 -1.78847 0
M  V30 3433 H 324.079 3.26379 -2.16758 0
M  V30 3434 H 325.776 3.1124 -2.52845 0
M  V30 3435 H 322.366 2.23129 -3.65939 0
M  V30 3436 H 326.55 1.90317 -4.58359 0
M  V30 3437 H 321.806 1.48034 -5.93208 0
M  V30 3438 H 325.98 1.16138 -6.86648 0
M  V30 3439 H 323.607 0.944403 -7.54311 0
M  V30 3440 N 325.182 1.32811 0.848464 0
M  V30 3441 C 326.145 1.22194 1.9391 0
M  V30 3442 C 327.145 0.143404 1.60159 0
M  V30 3443 O 328.335 0.394253 1.6968 0
M  V30 3444 C 325.467 0.88067 3.29328 0
M  V30 3445 H 326.66 2.19127 2.04752 0
M  V30 3446 H 324.213 1.16731 1.0394 0
M  V30 3447 H 324.948 -0.0865776 3.24184 0
M  V30 3448 H 324.733 1.66052 3.55203 0
M  V30 3449 H 326.223 0.830871 4.09251 0
M  V30 3450 N 326.66 -1.06551 1.16123 0
M  V30 3451 C 327.57 -2.17484 0.879662 0
M  V30 3452 C 328.586 -1.73377 -0.147104 0
M  V30 3453 O 329.762 -2.01379 0.0289128 0
M  V30 3454 C 326.827 -3.44591 0.381829 0
M  V30 3455 C 325.888 -4.0322 1.4735 0
M  V30 3456 C 325.121 -5.24261 0.999324 0
M  V30 3457 O 325.344 -5.70198 -0.151957 0
M  V30 3458 O 324.278 -5.74775 1.78653 0
M  V30 3459 H 328.104 -2.44075 1.80724 0
M  V30 3460 H 325.689 -1.16042 0.940992 0
M  V30 3461 H 327.571 -4.21254 0.111053 0
M  V30 3462 H 326.246 -3.19532 -0.51777 0
M  V30 3463 H 325.153 -3.2806 1.79798 0
M  V30 3464 H 326.486 -4.32568 2.34831 0
M  V30 3465 N 328.138 -0.959301 -1.25041 0
M  V30 3466 C 329.363 -0.633507 -1.97488 0
M  V30 3467 C 329.788 0.788555 -1.70773 0
M  V30 3468 O 329.146 1.53394 -0.966431 0
M  V30 3469 C 329.194 -0.904057 -3.49083 0
M  V30 3470 O 328.298 0.0147939 -4.12397 0
M  V30 3471 H 327.639 -0.240368 -0.618966 0
M  V30 3472 H 330.169 -1.28717 -1.59038 0
M  V30 3473 H 330.179 -0.832203 -3.99423 0
M  V30 3474 H 328.854 -1.94048 -3.67856 0
M  V30 3475 H 327.431 -0.109664 -3.72739 0
M  V30 3476 N 329.616 1.39756 -0.72842 0
M  V30 3477 C 330.864 2.00248 -0.272946 0
M  V30 3478 C 331.185 1.58077 1.14178 0
M  V30 3479 O 330.455 0.826014 1.77634 0
M  V30 3480 H 329.035 0.740554 -0.0979247 0
M  V30 3481 H 331.697 1.70903 -0.936912 0
M  V30 3482 H 330.793 3.10495 -0.316142 0
M  V30 3483 N 331.094 0.475555 1.50254 0
M  V30 3484 C 332.026 -0.352649 2.26471 0
M  V30 3485 C 333.039 -0.953165 1.3198 0
M  V30 3486 O 334.228 -0.840815 1.57457 0
M  V30 3487 C 331.328 -1.50902 3.0345 0
M  V30 3488 C 330.501 -1.02047 4.25329 0
M  V30 3489 C 329.56 -2.05142 4.84565 0
M  V30 3490 O 328.586 -1.63023 5.45355 0
M  V30 3491 N 329.788 -3.37987 4.71959 0
M  V30 3492 H 332.553 0.300767 2.98187 0
M  V30 3493 H 330.114 0.306598 1.5897 0
M  V30 3494 H 332.106 -2.19572 3.39956 0
M  V30 3495 H 330.676 -2.06705 2.34504 0
M  V30 3496 H 329.896 -0.159507 3.93877 0
M  V30 3497 H 331.184 -0.672061 5.04342 0
M  V30 3498 H 330.582 -3.74913 4.23623 0
M  V30 3499 H 329.139 -4.02443 5.12721 0
M  V30 3500 N 332.573 -1.56217 0.208337 0
M  V30 3501 C 333.819 -1.98242 -0.427552 0
M  V30 3502 C 334.152 -1.09554 -1.60348 0
M  V30 3503 O 333.427 -0.15035 -1.93918 0
M  V30 3504 C 333.71 -3.4931 -0.874907 0
M  V30 3505 C 333.563 -4.48773 0.303751 0
M  V30 3506 C 334.882 -4.04424 -1.73577 0
M  V30 3507 H 332.001 -0.720744 -0.153936 0
M  V30 3508 H 334.643 -1.87586 0.30192 0
M  V30 3509 H 332.793 -3.58522 -1.49648 0
M  V30 3510 H 334.465 -4.51586 0.941682 0
M  V30 3511 H 332.708 -4.23194 0.953375 0
M  V30 3512 H 333.379 -5.51976 -0.0519883 0
M  V30 3513 H 335.855 -3.98075 -1.21143 0
M  V30 3514 H 334.731 -5.1047 -2.01771 0
M  V30 3515 H 334.992 -3.50494 -2.69456 0
M  V30 3516 N 334.051 0.0651679 -1.57465 0
M  V30 3517 C 335.281 0.774683 -1.91526 0
M  V30 3518 C 335.689 1.71305 -0.803196 0
M  V30 3519 O 335.032 1.82231 0.231881 0
M  V30 3520 C 335.094 1.61645 -3.21109 0
M  V30 3521 C 334.758 0.846753 -4.49087 0
M  V30 3522 C 335.755 0.163024 -5.19644 0
M  V30 3523 C 333.44 0.811966 -4.95694 0
M  V30 3524 C 335.434 -0.54519 -6.35064 0
M  V30 3525 C 333.121 0.0999836 -6.11018 0
M  V30 3526 C 334.119 -0.577388 -6.80555 0
M  V30 3527 O 333.807 -1.27789 -7.93678 0
M  V30 3528 H 333.539 0.225031 -0.637446 0
M  V30 3529 H 336.093 0.0377134 -2.05365 0
M  V30 3530 H 334.323 2.39638 -3.03497 0
M  V30 3531 H 336.012 2.20525 -3.40769 0
M  V30 3532 H 336.778 0.181163 -4.84662 0
M  V30 3533 H 332.657 1.32867 -4.41438 0
M  V30 3534 H 336.201 -1.07446 -6.89276 0
M  V30 3535 H 332.098 0.0797945 -6.45451 0
M  V30 3536 H 332.866 -1.18784 -8.09835 0
M  V30 3537 N 335.529 1.53961 0.336706 0
M  V30 3538 C 336.776 1.71536 1.07618 0
M  V30 3539 C 337.104 0.482125 1.8843 0
M  V30 3540 O 336.359 -0.536142 1.88213 0
M  V30 3541 C 336.658 2.93493 2.03953 0
M  V30 3542 C 336.324 4.28811 1.39399 0
M  V30 3543 C 334.986 4.65602 1.21523 0
M  V30 3544 C 337.338 5.12844 0.929541 0
M  V30 3545 C 334.666 5.84037 0.558312 0
M  V30 3546 C 337.018 6.31951 0.286505 0
M  V30 3547 C 335.682 6.67432 0.0954869 0
M  V30 3548 H 334.952 0.627696 0.393801 0
M  V30 3549 H 337.599 1.88186 0.354715 0
M  V30 3550 H 335.904 2.71475 2.82504 0
M  V30 3551 H 337.601 3.04285 2.61174 0
M  V30 3552 H 334.191 3.99858 1.54311 0
M  V30 3553 H 338.375 4.84947 1.05548 0
M  V30 3554 H 333.631 6.10097 0.398995 0
M  V30 3555 H 337.805 6.96352 -0.0814376 0
M  V30 3556 H 335.432 7.59063 -0.415579 0
M  V30 3557 N 337.007 -0.598083 1.45811 0
M  V30 3558 C 338.255 -1.35413 1.50026 0
M  V30 3559 C 338.576 -1.94444 0.147177 0
M  V30 3560 O 337.846 -1.77701 -0.824571 0
M  V30 3561 H 336.426 -0.502727 0.552517 0
M  V30 3562 H 339.088 -0.701606 1.81834 0
M  V30 3563 H 338.184 -2.16871 2.2444 0
M  V30 3564 N 338.485 -1.33259 -0.841409 0
M  V30 3565 C 339.734 -1.23921 -1.59143 0
M  V30 3566 C 340.047 0.1941 -1.94635 0
M  V30 3567 O 341.253 0.409474 -2.68394 0
M  V30 3568 C 339.709 -2.17119 -2.87032 0
M  V30 3569 C 339.317 -3.65606 -2.58914 0
M  V30 3570 C 341.061 -2.16648 -3.65053 0
M  V30 3571 C 338.968 -4.50726 -3.82884 0
M  V30 3572 H 337.898 -0.460264 -0.597221 0
M  V30 3573 H 340.549 -1.58307 -0.927959 0
M  V30 3574 H 338.931 -1.75663 -3.54906 0
M  V30 3575 H 340.105 -4.15487 -1.99267 0
M  V30 3576 H 338.42 -3.68341 -1.942 0
M  V30 3577 H 341.017 -2.77474 -4.57069 0
M  V30 3578 H 341.36 -1.16088 -3.99787 0
M  V30 3579 H 341.893 -2.56453 -3.041 0
M  V30 3580 H 338.632 -5.52151 -3.53283 0
M  V30 3581 H 338.152 -4.0559 -4.41879 0
M  V30 3582 H 339.831 -4.64401 -4.50489 0
M  V30 3583 N 339.963 1.05934 -1.16686 0
M  V30 3584 C 341.212 1.78188 -0.945085 0
M  V30 3585 C 341.525 1.88338 0.528021 0
M  V30 3586 O 342.731 2.57258 0.867799 0
M  V30 3587 C 341.187 3.20277 -1.64167 0
M  V30 3588 C 340.795 3.18281 -3.15279 0
M  V30 3589 C 342.539 3.97039 -1.502 0
M  V30 3590 C 340.446 4.55112 -3.7766 0
M  V30 3591 H 339.376 0.667866 -0.349959 0
M  V30 3592 H 342.027 1.18794 -1.39858 0
M  V30 3593 H 340.409 3.79952 -1.11589 0
M  V30 3594 H 341.583 2.68167 -3.74731 0
M  V30 3595 H 339.898 2.55018 -3.29173 0
M  V30 3596 H 342.495 4.98194 -1.94183 0
M  V30 3597 H 342.838 4.13845 -0.451461 0
M  V30 3598 H 343.371 3.43894 -1.99954 0
M  V30 3599 H 340.11 4.43512 -4.82677 0
M  V30 3600 H 339.63 5.05406 -3.22994 0
M  V30 3601 H 341.309 5.24064 -3.79428 0
M  V30 3602 N 341.441 0.965919 1.2453 0
M  V30 3603 C 342.404 0.499547 2.2369 0
M  V30 3604 C 343.404 -0.40294 1.5567 0
M  V30 3605 O 344.594 -0.19865 1.73064 0
M  V30 3606 C 341.726 -0.276792 3.39774 0
M  V30 3607 H 342.919 1.37613 2.66463 0
M  V30 3608 H 340.472 0.750324 1.37112 0
M  V30 3609 H 341.207 -1.17055 3.02438 0
M  V30 3610 H 340.992 0.370826 3.90343 0
M  V30 3611 H 342.482 -0.592175 4.1338 0
M  V30 3612 N 342.919 -1.39368 0.735821 0
M  V30 3613 C 343.849 -2.33234 0.111506 0
M  V30 3614 C 344.83 -1.53954 -0.723334 0
M  V30 3615 O 346.015 -1.82344 -0.668147 0
M  V30 3616 C 343.145 -3.38057 -0.795917 0
M  V30 3617 C 342.099 -4.2795 -0.065172 0
M  V30 3618 C 341.425 -5.23479 -1.08967 0
M  V30 3619 C 342.725 -5.10741 1.09273 0
M  V30 3620 H 344.419 -2.85692 0.895571 0
M  V30 3621 H 341.965 -1.37364 0.432109 0
M  V30 3622 H 343.918 -4.02675 -1.24221 0
M  V30 3623 H 342.642 -2.8404 -1.61211 0
M  V30 3624 H 341.301 -3.64813 0.361511 0
M  V30 3625 H 340.949 -4.65758 -1.89944 0
M  V30 3626 H 340.649 -5.84472 -0.605489 0
M  V30 3627 H 342.173 -5.90974 -1.53565 0
M  V30 3628 H 343.587 -5.68699 0.724841 0
M  V30 3629 H 341.984 -5.8088 1.50659 0
M  V30 3630 H 343.054 -4.45525 1.91404 0
M  V30 3631 O 344.436 -0.625292 -1.48904 0
M  V30 3632 H 345.127 -0.142374 -1.93176 0
M  V30 END ATOM
M  V30 BEGIN BOND
M  V30 END BOND
M  V30 END CTAB
M  END
$$$$
