drugbank_target|O15269 Serine palmitoyltransferase 1 (DB00114; DB00133)
 OpenBabel12092119323D

  0  0  0     0  0            999 V3000
M  V30 BEGIN CTAB
M  V30 COUNTS 7478 7549 0 0 0
M  V30 BEGIN ATOM
M  V30 1 H -0.908 1.98254 -0.117106 0
M  V30 2 N 0 1.576 0 0
M  V30 3 C 0.933 2.03868 1.02534 0
M  V30 4 C 1.911 0.928543 1.3348 0
M  V30 5 O 3.095 1.19667 1.45644 0
M  V30 6 C 0.222 2.43627 2.35294 0
M  V30 7 C -0.732 3.65373 2.2001 0
M  V30 8 S 0.101 5.13292 1.52614 0
M  V30 9 C 1.257 5.56322 2.86805 0
M  V30 10 H 1.49 2.90518 0.631377 0
M  V30 11 H -0.977 1.52953 0.210867 0
M  V30 12 H 0.981 2.67203 3.11629 0
M  V30 13 H -0.358 1.57376 2.7183 0
M  V30 14 H -1.165 3.90944 3.18086 0
M  V30 15 H -1.563 3.418 1.51819 0
M  V30 16 H 0.729 5.58782 3.83104 0
M  V30 17 H 1.672 6.56266 2.65933 0
M  V30 18 H 2.08 4.83886 2.90714 0
M  V30 19 N 1.4781 -0.272755 1.55222 0
M  V30 20 C 2.4411 -1.32041 1.87344 0
M  V30 21 C 3.4411 -1.42342 0.74803 0
M  V30 22 O 4.6311 -1.41488 1.0162 0
M  V30 23 C 1.7631 -2.70173 2.07893 0
M  V30 24 H 2.9561 -1.04789 2.80997 0
M  V30 25 H 0.5091 -0.51083 1.47717 0
M  V30 26 H 1.2441 -3.02605 1.16622 0
M  V30 27 H 1.0291 -2.64082 2.89833 0
M  V30 28 H 2.5191 -3.45869 2.34017 0
M  V30 29 N 2.9562 -1.48159 -0.537278 0
M  V30 30 C 4.1842 -1.59454 -1.31841 0
M  V30 31 C 4.5992 -0.252065 -1.8711 0
M  V30 32 O 3.9562 0.757621 -1.66031 0
M  V30 33 C 4.0072 -2.63546 -2.47439 0
M  V30 34 O 3.7282 -3.92583 -1.94449 0
M  V30 35 C 5.2292 -2.85212 -3.39366 0
M  V30 36 H 2.4492 -0.53785 -0.401196 0
M  V30 37 H 4.9932 -1.93932 -0.648891 0
M  V30 38 H 3.1482 -2.31946 -3.1029 0
M  V30 39 H 3.5622 -4.49629 -2.70063 0
M  V30 40 H 5.0362 -3.61863 -4.16844 0
M  V30 41 H 5.5132 -1.93765 -3.94147 0
M  V30 42 H 6.1192 -3.18086 -2.82314 0
M  V30 43 N 4.4343 0.785586 -1.36625 0
M  V30 44 C 5.3973 1.87999 -1.31107 0
M  V30 45 C 6.3973 1.59316 -0.217959 0
M  V30 46 O 7.5873 1.67656 -0.472977 0
M  V30 47 C 4.7193 3.24861 -1.03334 0
M  V30 48 H 5.9123 1.94307 -2.2844 0
M  V30 49 H 3.4653 0.983813 -1.21453 0
M  V30 50 H 4.2003 3.24235 -0.0647432 0
M  V30 51 H 3.9853 3.4707 -1.82441 0
M  V30 52 H 5.4753 4.04929 -1.02088 0
M  V30 53 N 5.9124 1.20967 1.01018 0
M  V30 54 C 7.1404 1.04956 1.78303 0
M  V30 55 C 7.5554 -0.400915 1.84494 0
M  V30 56 O 6.9124 -1.27826 1.30257 0
M  V30 57 C 6.9634 1.63403 3.22462 0
M  V30 58 O 6.6844 3.02775 3.16637 0
M  V30 59 C 8.1854 1.52432 4.16268 0
M  V30 60 H 5.4054 0.368858 0.560522 0
M  V30 61 H 7.9494 1.60193 1.27116 0
M  V30 62 H 6.1044 1.1227 3.70775 0
M  V30 63 H 6.5184 3.30626 4.07169 0
M  V30 64 H 7.9924 1.98078 5.15237 0
M  V30 65 H 8.4694 0.477875 4.36592 0
M  V30 66 H 9.0754 2.02787 3.73841 0
M  V30 67 N 7.3905 -1.2043 1.01659 0
M  V30 68 C 8.3005 -2.2689 0.596484 0
M  V30 69 C 9.3165 -1.70107 -0.36599 0
M  V30 70 O 10.4925 -2.00117 -0.226942 0
M  V30 71 C 7.5575 -3.4665 -0.0586659 0
M  V30 72 C 6.6185 -4.18662 0.949751 0
M  V30 73 C 5.8515 -5.32705 0.32577 0
M  V30 74 O 6.0745 -5.63656 -0.874509 0
M  V30 75 O 5.0085 -5.92803 1.04249 0
M  V30 76 H 8.8345 -2.65041 1.4828 0
M  V30 77 H 6.4195 -1.27048 0.786082 0
M  V30 78 H 8.3015 -4.19256 -0.424564 0
M  V30 79 H 6.9765 -3.10375 -0.91918 0
M  V30 80 H 5.8835 -3.48229 1.36702 0
M  V30 81 H 7.2165 -4.58878 1.78023 0
M  V30 82 N 8.8686 -0.792821 -1.36206 0
M  V30 83 C 9.8006 -0.151469 -2.28699 0
M  V30 84 C 10.8136 0.641262 -1.49638 0
M  V30 85 O 12.0026 0.475885 -1.72039 0
M  V30 86 C 9.1026 0.808424 -3.29117 0
M  V30 87 C 8.2756 0.0650202 -4.37352 0
M  V30 88 C 7.3346 0.941358 -5.17711 0
M  V30 89 O 6.3606 0.397352 -5.67811 0
M  V30 90 N 7.5626 2.2652 -5.3448 0
M  V30 91 H 10.3276 -0.945982 -2.84379 0
M  V30 92 H 7.8886 -0.647032 -1.48409 0
M  V30 93 H 9.8806 1.3986 -3.79765 0
M  V30 94 H 8.4506 1.5038 -2.74052 0
M  V30 95 H 7.6706 -0.706255 -3.87822 0
M  V30 96 H 8.9586 -0.447847 -5.06825 0
M  V30 97 H 8.3566 2.73128 -4.95396 0
M  V30 98 H 6.9136 2.80493 -5.88359 0
M  V30 99 N 10.3467 1.47872 -0.545128 0
M  V30 100 C 11.5927 2.03385 -0.0247951 0
M  V30 101 C 11.9477 1.41325 1.30556 0
M  V30 102 O 11.2407 0.5552 1.8338 0
M  V30 103 C 11.4347 3.57131 0.13867 0
M  V30 104 C 11.2637 4.34097 -1.17429 0
M  V30 105 C 10.0337 4.74458 -1.73831 0
M  V30 106 C 12.2317 4.6998 -2.08861 0
M  V30 107 N 10.2137 5.3602 -2.99258 0
M  V30 108 C 11.5847 5.31719 -3.18866 0
M  V30 109 C 13.6397 4.5191 -2.09003 0
M  V30 110 C 12.3427 5.77295 -4.29096 0
M  V30 111 C 14.3687 4.98477 -3.18237 0
M  V30 112 C 13.7307 5.60253 -4.26961 0
M  V30 113 H 9.8297 0.780339 -0.050943 0
M  V30 114 H 12.4137 1.80507 -0.729753 0
M  V30 115 H 10.5847 3.79802 0.812733 0
M  V30 116 H 12.3167 3.99282 0.659976 0
M  V30 117 H 9.0717 4.56037 -1.2778 0
M  V30 118 H 9.4957 5.71355 -3.63157 0
M  V30 119 H 14.1377 4.03516 -1.26234 0
M  V30 120 H 11.8557 6.24687 -5.12633 0
M  V30 121 H 15.4417 4.86274 -3.1942 0
M  V30 122 H 14.3217 5.95631 -5.10091 0
M  V30 123 N 11.8248 0.280983 1.55075 0
M  V30 124 C 13.0708 -0.33461 2.00021 0
M  V30 125 C 13.4038 -1.55063 1.16915 0
M  V30 126 O 12.6788 -1.93006 0.240646 0
M  V30 127 C 12.9618 -0.711007 3.53011 0
M  V30 128 C 12.8148 0.512766 4.46868 0
M  V30 129 C 14.1338 -1.54522 4.12081 0
M  V30 130 H 11.2528 -0.120147 0.727141 0
M  V30 131 H 13.8948 0.389097 1.85973 0
M  V30 132 H 12.0448 -1.32761 3.65112 0
M  V30 133 H 13.7168 1.15131 4.46702 0
M  V30 134 H 11.9598 1.14975 4.18286 0
M  V30 135 H 12.6308 0.205556 5.51617 0
M  V30 136 H 15.1068 -1.02442 4.03293 0
M  V30 137 H 13.9828 -1.77739 5.19327 0
M  V30 138 H 14.2438 -2.52813 3.62682 0
M  V30 139 N 13.3029 -1.57598 0.00835791 0
M  V30 140 C 14.2329 -2.1198 -0.979113 0
M  V30 141 C 15.2139 -1.03091 -1.35301 0
M  V30 142 O 16.3989 -1.30818 -1.43528 0
M  V30 143 C 13.5289 -2.62995 -2.26828 0
M  V30 144 C 12.4829 -3.76485 -2.03576 0
M  V30 145 C 11.8089 -4.13846 -3.38579 0
M  V30 146 C 13.1089 -5.0342 -1.39161 0
M  V30 147 H 14.8029 -2.94738 -0.526281 0
M  V30 148 H 12.3489 -1.41783 -0.251704 0
M  V30 149 H 14.3019 -2.99669 -2.96271 0
M  V30 150 H 13.0259 -1.7737 -2.7424 0
M  V30 151 H 11.6849 -3.40217 -1.36557 0
M  V30 152 H 11.3329 -3.25232 -3.83709 0
M  V30 153 H 11.0329 -4.90312 -3.23834 0
M  V30 154 H 12.5569 -4.53086 -4.09323 0
M  V30 155 H 13.9709 -5.37812 -1.98573 0
M  V30 156 H 12.3679 -5.84746 -1.34878 0
M  V30 157 H 13.4379 -4.83548 -0.361868 0
M  V30 158 N 14.781 0.264519 -1.55364 0
M  V30 159 C 16.027 0.99646 -1.76631 0
M  V30 160 C 16.36 1.85632 -0.570478 0
M  V30 161 O 15.635 1.89647 0.43175 0
M  V30 162 C 15.918 1.87187 -3.07625 0
M  V30 163 C 15.771 1.04138 -4.37579 0
M  V30 164 C 17.09 2.85749 -3.34717 0
M  V30 165 H 14.209 0.360841 -0.642622 0
M  V30 166 H 16.851 0.268218 -1.88097 0
M  V30 167 H 15.001 2.49279 -2.9798 0
M  V30 168 H 16.673 0.440517 -4.59192 0
M  V30 169 H 14.916 0.345115 -4.32425 0
M  V30 170 H 15.587 1.68729 -5.2558 0
M  V30 171 H 18.063 2.33793 -3.4421 0
M  V30 172 H 16.939 3.44136 -4.27623 0
M  V30 173 H 17.2 3.61311 -2.54768 0
M  V30 174 N 16.2591 1.48442 0.529413 0
M  V30 175 C 17.1691 1.6569 1.66084 0
M  V30 176 C 18.1851 0.539432 1.65427 0
M  V30 177 O 19.3611 0.810572 1.84368 0
M  V30 178 C 16.4261 1.69315 3.02545 0
M  V30 179 C 15.4871 2.92694 3.14052 0
M  V30 180 C 14.7201 2.96137 4.44003 0
M  V30 181 O 14.9431 2.07973 5.31134 0
M  V30 182 O 13.8771 3.88312 4.59888 0
M  V30 183 H 17.7031 2.61483 1.54469 0
M  V30 184 H 15.2881 1.3185 0.702567 0
M  V30 185 H 17.1701 1.74217 3.83701 0
M  V30 186 H 15.8451 0.766966 3.14483 0
M  V30 187 H 14.7521 2.93324 2.32189 0
M  V30 188 H 16.0851 3.84699 3.0703 0
M  V30 189 N 17.7372 -0.778329 1.37039 0
M  V30 190 C 18.6702 -1.8984 1.26633 0
M  V30 191 C 19.6482 -1.61923 0.148197 0
M  V30 192 O 20.8322 -1.85742 0.321265 0
M  V30 193 C 17.9592 -3.24916 0.956403 0
M  V30 194 C 17.0052 -3.71752 2.09051 0
M  V30 195 S 17.8382 -3.86201 3.70957 0
M  V30 196 C 18.9942 -5.24135 3.42101 0
M  V30 197 H 19.2272 -1.98377 2.21436 0
M  V30 198 H 16.7602 -0.938738 1.22585 0
M  V30 199 H 18.7182 -4.02936 0.784409 0
M  V30 200 H 17.3792 -3.14089 0.0259713 0
M  V30 201 H 16.5722 -4.69661 1.8285 0
M  V30 202 H 16.1742 -3.00815 2.2223 0
M  V30 203 H 18.4662 -6.09086 2.96682 0
M  V30 204 H 19.4092 -5.55346 4.39314 0
M  V30 205 H 19.8172 -4.91761 2.77185 0
M  V30 206 N 19.2153 -1.21501 -1.00376 0
M  V30 207 C 20.4613 -1.03452 -1.74429 0
M  V30 208 C 20.7943 0.430764 -1.89362 0
M  V30 209 O 20.0693 1.31962 -1.42886 0
M  V30 210 C 20.3523 -1.73375 -3.15615 0
M  V30 211 C 20.2053 -3.27431 -3.08397 0
M  V30 212 C 21.5243 -1.47732 -4.14564 0
M  V30 213 H 18.6433 -0.377226 -0.633143 0
M  V30 214 H 21.2853 -1.49693 -1.17013 0
M  V30 215 H 19.4353 -1.34064 -3.64636 0
M  V30 216 H 21.1073 -3.76119 -2.67081 0
M  V30 217 H 19.3503 -3.5767 -2.45468 0
M  V30 218 H 20.0213 -3.71524 -4.08258 0
M  V30 219 H 22.4973 -1.8186 -3.74254 0
M  V30 220 H 21.3733 -1.99169 -5.11491 0
M  V30 221 H 21.6343 -0.407589 -4.40217 0
M  V30 222 N 20.6934 1.19889 -1.02296 0
M  V30 223 C 21.6254 2.22334 -0.556787 0
M  V30 224 C 22.6384 1.58674 0.364199 0
M  V30 225 O 23.8274 1.77768 0.161533 0
M  V30 226 C 20.9274 3.38257 0.208694 0
M  V30 227 C 20.1004 4.31504 -0.71577 0
M  V30 228 C 19.1594 5.262 0.00325597 0
M  V30 229 O 18.1854 5.65798 -0.621357 0
M  V30 230 N 19.3874 5.66303 1.27599 0
M  V30 231 H 22.1524 2.62957 -1.43784 0
M  V30 232 H 19.7134 1.34495 -0.901261 0
M  V30 233 H 21.7054 3.98616 0.699111 0
M  V30 234 H 20.2754 2.96472 0.991102 0
M  V30 235 H 19.4954 3.69016 -1.38638 0
M  V30 236 H 20.7834 4.9072 -1.34428 0
M  V30 237 H 20.1814 5.36155 1.80429 0
M  V30 238 H 18.7384 6.28942 1.71102 0
M  V30 239 N 22.1715 0.800033 1.35784 0
M  V30 240 C 23.1345 0.211565 2.28221 0
M  V30 241 C 24.1345 -0.59728 1.49296 0
M  V30 242 O 25.3245 -0.416721 1.69142 0
M  V30 243 C 22.4565 -0.705846 3.33513 0
M  V30 244 H 23.6495 1.02677 2.81776 0
M  V30 245 H 21.2025 0.570211 1.45528 0
M  V30 246 H 21.9375 -1.54498 2.85133 0
M  V30 247 H 21.7225 -0.127655 3.91892 0
M  V30 248 H 23.2125 -1.11211 4.02519 0
M  V30 249 N 23.6496 -1.47581 0.552962 0
M  V30 250 C 24.5796 -2.32762 -0.185451 0
M  V30 251 C 25.5606 -1.43527 -0.912905 0
M  V30 252 O 26.7456 -1.72388 -0.894201 0
M  V30 253 C 23.8756 -3.25219 -1.21859 0
M  V30 254 C 22.8296 -4.23661 -0.607864 0
M  V30 255 C 22.1556 -5.05413 -1.74533 0
M  V30 256 C 23.4556 -5.20481 0.435582 0
M  V30 257 H 25.1496 -2.94749 0.525684 0
M  V30 258 H 22.6956 -1.41738 0.254251 0
M  V30 259 H 24.6486 -3.8365 -1.7433 0
M  V30 260 H 23.3726 -2.61279 -1.95961 0
M  V30 261 H 22.0316 -3.66451 -0.104489 0
M  V30 262 H 21.6796 -4.3788 -2.47529 0
M  V30 263 H 21.3796 -5.72059 -1.34249 0
M  V30 264 H 22.9036 -5.66701 -2.27338 0
M  V30 265 H 24.3176 -5.733 -0.00290157 0
M  V30 266 H 22.7146 -5.95305 0.757067 0
M  V30 267 H 23.7846 -4.66217 1.33303 0
M  V30 268 N 25.1277 -0.289203 -1.54924 0
M  V30 269 C 26.3577 0.325989 -2.04012 0
M  V30 270 C 26.7657 1.48961 -1.1665 0
M  V30 271 O 26.1087 1.82794 -0.1822 0
M  V30 272 C 26.1707 0.856112 -3.49158 0
M  V30 273 C 25.8347 -0.180697 -4.56643 0
M  V30 274 C 26.8317 -1.0051 -5.10092 0
M  V30 275 C 24.5167 -0.318998 -5.01286 0
M  V30 276 C 26.5107 -1.95385 -6.06715 0
M  V30 277 C 24.1977 -1.27121 -5.97732 0
M  V30 278 C 25.1957 -2.08713 -6.50329 0
M  V30 279 O 24.8837 -3.02322 -7.44887 0
M  V30 280 H 24.6157 0.0765276 -0.671654 0
M  V30 281 H 27.1697 -0.423254 -2.00992 0
M  V30 282 H 25.3997 1.65567 -3.49463 0
M  V30 283 H 27.0887 1.38591 -3.81507 0
M  V30 284 H 27.8547 -0.90906 -4.76404 0
M  V30 285 H 23.7337 0.306108 -4.59983 0
M  V30 286 H 27.2777 -2.59111 -6.47694 0
M  V30 287 H 23.1747 -1.36801 -6.30837 0
M  V30 288 H 23.9427 -2.97165 -7.6265 0
M  V30 289 N 26.6058 1.57591 -0.0167156 0
M  V30 290 C 27.5158 2.1291 0.98521 0
M  V30 291 C 28.5318 1.07834 1.36557 0
M  V30 292 O 29.7078 1.39826 1.44951 0
M  V30 293 C 26.7728 2.63512 2.25305 0
M  V30 294 C 25.8338 3.83256 1.93426 0
M  V30 295 C 25.0668 4.31435 3.14165 0
M  V30 296 O 25.2898 3.78851 4.26413 0
M  V30 297 O 24.2238 5.23416 2.97186 0
M  V30 298 H 28.0498 2.98772 0.544888 0
M  V30 299 H 25.6348 1.48012 0.203141 0
M  V30 300 H 27.5168 2.96183 2.99756 0
M  V30 301 H 26.1918 1.8074 2.68542 0
M  V30 302 H 25.0988 3.55531 1.16398 0
M  V30 303 H 26.4318 4.67153 1.55013 0
M  V30 304 N 28.0839 -0.256276 1.55502 0
M  V30 305 C 29.0469 -1.30047 1.88734 0
M  V30 306 C 30.0469 -1.4154 0.763086 0
M  V30 307 O 31.2369 -1.40403 1.03115 0
M  V30 308 C 28.3689 -2.67953 2.10747 0
M  V30 309 H 29.5619 -1.01802 2.82093 0
M  V30 310 H 27.1149 -0.495134 1.4825 0
M  V30 311 H 27.8499 -3.01351 1.19825 0
M  V30 312 H 27.6349 -2.60993 2.92617 0
M  V30 313 H 29.1249 -3.43368 2.37673 0
M  V30 314 N 29.562 -1.4872 -0.521534 0
M  V30 315 C 30.973 -1.50607 -1.10337 0
M  V30 316 C 31.324 -0.280612 -1.94183 0
M  V30 317 O 30.449 0.611507 -2.0758 0
M  V30 318 C 31.044 -2.72903 -2.00772 0
M  V30 319 C 29.603 -2.77634 -2.54158 0
M  V30 320 C 28.75 -2.44241 -1.31307 0
M  V30 321 H 31.701 -1.55714 -0.306388 0
M  V30 322 H 31.722 -2.519 -2.85178 0
M  V30 323 H 31.234 -3.62077 -1.39721 0
M  V30 324 H 29.335 -1.92689 -3.18907 0
M  V30 325 H 29.448 -3.79283 -2.92714 0
M  V30 326 H 27.812 -1.95577 -1.63161 0
M  V30 327 H 28.595 -3.35666 -0.719943 0
M  V30 328 N 31.0401 0.771051 -1.3745 0
M  V30 329 C 32.0031 1.86598 -1.33093 0
M  V30 330 C 33.0031 1.59076 -0.234845 0
M  V30 331 O 34.1931 1.67145 -0.490732 0
M  V30 332 C 31.3251 3.23747 -1.06773 0
M  V30 333 H 32.5181 1.91873 -2.30488 0
M  V30 334 H 30.0711 0.970876 -1.2249 0
M  V30 335 H 30.8061 3.24148 -0.099129 0
M  V30 336 H 30.5911 3.45115 -1.86112 0
M  V30 337 H 32.0811 4.03824 -1.06377 0
M  V30 338 N 32.5182 1.22032 0.997298 0
M  V30 339 C 33.7482 1.06686 1.76923 0
M  V30 340 C 34.1562 -0.385838 1.85224 0
M  V30 341 O 33.4992 -1.27929 1.31833 0
M  V30 342 C 33.5612 1.59802 3.22031 0
M  V30 343 C 33.2252 3.08362 3.37286 0
M  V30 344 C 34.2222 4.05835 3.24952 0
M  V30 345 C 31.9072 3.47727 3.6248 0
M  V30 346 C 33.9012 5.4066 3.37588 0
M  V30 347 C 31.5882 4.82701 3.74757 0
M  V30 348 C 32.5862 5.78977 3.62319 0
M  V30 349 O 32.2742 7.11502 3.74193 0
M  V30 350 H 32.0062 0.374767 0.562606 0
M  V30 351 H 34.5602 1.61991 1.26286 0
M  V30 352 H 32.7902 0.989003 3.73839 0
M  V30 353 H 34.4792 1.40184 3.80924 0
M  V30 354 H 35.2452 3.76766 3.05405 0
M  V30 355 H 31.1242 2.73317 3.7124 0
M  V30 356 H 34.6682 6.15788 3.27796 0
M  V30 357 H 30.5652 5.11453 3.9381 0
M  V30 358 H 31.3332 7.19019 3.91093 0
M  V30 359 N 33.9963 -1.19345 1.0293 0
M  V30 360 C 34.9463 -2.20472 0.58104 0
M  V30 361 C 35.9303 -1.56578 -0.370442 0
M  V30 362 O 37.1223 -1.75963 -0.191344 0
M  V30 363 C 34.2513 -3.43236 -0.066306 0
M  V30 364 C 33.3373 -4.14274 0.907642 0
M  V30 365 N 33.7283 -4.61492 2.07023 0
M  V30 366 C 32.0263 -4.39966 0.731177 0
M  V30 367 C 32.7273 -5.1605 2.68454 0
M  V30 368 N 31.7033 -5.06875 1.96414 0
M  V30 369 H 35.5053 -2.54659 1.46717 0
M  V30 370 H 33.0193 -1.35423 0.896345 0
M  V30 371 H 35.0163 -4.14927 -0.405068 0
M  V30 372 H 33.6763 -3.10549 -0.948118 0
M  V30 373 H 34.6873 -4.56304 2.44963 0
M  V30 374 H 31.3643 -4.17377 -0.101507 0
M  V30 375 H 32.7543 -5.6287 3.66915 0
M  V30 376 N 35.4744 -0.807222 -1.35358 0
M  V30 377 C 36.4044 -0.232509 -2.3234 0
M  V30 378 C 37.3854 0.642386 -1.57504 0
M  V30 379 O 38.5704 0.572526 -1.85569 0
M  V30 380 C 35.7004 0.619238 -3.41735 0
M  V30 381 C 34.6544 -0.157215 -4.27711 0
M  V30 382 C 33.9804 0.816273 -5.28433 0
M  V30 383 C 35.2804 -1.35656 -5.04376 0
M  V30 384 H 36.9744 -1.04276 -2.80654 0
M  V30 385 H 34.5204 -0.50288 -1.34934 0
M  V30 386 H 36.4734 1.03137 -4.08584 0
M  V30 387 H 35.1974 1.46239 -2.92031 0
M  V30 388 H 33.8564 -0.550525 -3.62443 0
M  V30 389 H 33.5044 1.65494 -4.74996 0
M  V30 390 H 33.2044 0.301067 -5.86828 0
M  V30 391 H 34.7284 1.22659 -5.98153 0
M  V30 392 H 36.1424 -1.01927 -5.64166 0
M  V30 393 H 34.5394 -1.8063 -5.7227 0
M  V30 394 H 35.6094 -2.14288 -4.34981 0
M  V30 395 N 36.9525 1.47285 -0.560781 0
M  V30 396 C 38.2015 2.01668 -0.035895 0
M  V30 397 C 38.5145 1.44021 1.32353 0
M  V30 398 O 39.7205 1.90088 1.93853 0
M  V30 399 C 38.1765 3.59897 -0.0136659 0
M  V30 400 C 37.7845 4.26536 -1.37006 0
M  V30 401 C 39.5285 4.22017 0.458425 0
M  V30 402 C 37.4355 5.76782 -1.30675 0
M  V30 403 H 36.3655 0.753938 -0.00964879 0
M  V30 404 H 39.0165 1.69243 -0.709166 0
M  V30 405 H 37.3985 3.89301 0.725325 0
M  V30 406 H 38.5725 4.0877 -2.12705 0
M  V30 407 H 36.8875 3.76419 -1.78038 0
M  V30 408 H 39.4845 5.32124 0.524247 0
M  V30 409 H 39.8275 3.89437 1.4712 0
M  V30 410 H 40.3605 3.97159 -0.225818 0
M  V30 411 H 37.0995 6.13988 -2.29564 0
M  V30 412 H 36.6195 5.96875 -0.591622 0
M  V30 413 H 38.2985 6.39063 -1.01033 0
M  V30 414 N 38.4306 0.297415 1.54768 0
M  V30 415 C 39.3606 -0.573494 2.26348 0
M  V30 416 C 40.3416 -1.14085 1.26169 0
M  V30 417 O 41.5266 -1.17086 1.54934 0
M  V30 418 C 38.6566 -1.74716 3.00153 0
M  V30 419 C 37.6106 -1.31032 4.07449 0
M  V30 420 C 36.9366 -2.56887 4.68949 0
M  V30 421 C 38.2366 -0.444183 5.20408 0
M  V30 422 H 39.9306 0.0235131 2.99391 0
M  V30 423 H 37.4766 0.0127488 1.43994 0
M  V30 424 H 39.4296 -2.3625 3.48947 0
M  V30 425 H 38.1536 -2.37035 2.24682 0
M  V30 426 H 36.8126 -0.718066 3.59499 0
M  V30 427 H 36.4606 -3.17512 3.90122 0
M  V30 428 H 36.1606 -2.2836 5.41411 0
M  V30 429 H 37.6846 -3.19229 5.20505 0
M  V30 430 H 39.0986 -0.9651 5.65118 0
M  V30 431 H 37.4956 -0.252846 5.99567 0
M  V30 432 H 38.5656 0.531609 4.81977 0
M  V30 433 N 39.9087 -1.5758 0.0250728 0
M  V30 434 C 40.8187 -2.1343 -0.973905 0
M  V30 435 C 41.8347 -1.08556 -1.35984 0
M  V30 436 O 43.0107 -1.40592 -1.44207 0
M  V30 437 C 40.0757 -2.64703 -2.23904 0
M  V30 438 C 39.1367 -3.84276 -1.91391 0
M  V30 439 C 38.3697 -4.33095 -3.11873 0
M  V30 440 O 38.5927 -3.81107 -4.24398 0
M  V30 441 O 37.5267 -5.24984 -2.94406 0
M  V30 442 H 41.3527 -2.99057 -0.529036 0
M  V30 443 H 38.9377 -1.48118 -0.195288 0
M  V30 444 H 40.8197 -2.97769 -2.98181 0
M  V30 445 H 39.4947 -1.82161 -2.6758 0
M  V30 446 H 38.4017 -3.56143 -1.14511 0
M  V30 447 H 39.7347 -4.67968 -1.52534 0
M  V30 448 N 41.3868 0.248026 -1.55636 0
M  V30 449 C 42.6348 0.974295 -1.77065 0
M  V30 450 C 42.9558 1.85897 -0.588849 0
M  V30 451 O 42.2258 1.91868 0.395407 0
M  V30 452 H 40.8058 0.362733 -0.653019 0
M  V30 453 H 43.4678 0.266244 -1.93073 0
M  V30 454 H 42.5638 1.59667 -2.68166 0
M  V30 455 N 42.8649 1.48995 0.513639 0
M  V30 456 C 44.1139 1.57093 1.2651 0
M  V30 457 C 44.4269 0.257091 1.93903 0
M  V30 458 O 45.6329 0.216478 2.70636 0
M  V30 459 C 44.0889 2.77118 2.29638 0
M  V30 460 C 43.6969 4.15209 1.68241 0
M  V30 461 C 45.4409 2.94538 3.05692 0
M  V30 462 C 43.3479 5.26474 2.69406 0
M  V30 463 H 42.2779 0.584876 0.475854 0
M  V30 464 H 44.9289 1.7536 0.540487 0
M  V30 465 H 43.3109 2.52319 3.05207 0
M  V30 466 H 44.4849 4.50094 0.987505 0
M  V30 467 H 42.7999 4.03042 1.04623 0
M  V30 468 H 45.3969 3.74832 3.8132 0
M  V30 469 H 45.7399 2.04614 3.62545 0
M  V30 470 H 46.2729 3.19316 2.37238 0
M  V30 471 H 43.0119 6.18417 2.17351 0
M  V30 472 H 42.5319 4.96058 3.37175 0
M  V30 473 H 44.2109 5.55277 3.32078 0
M  V30 474 N 44.343 -0.763751 1.37857 0
M  V30 475 C 45.273 -1.89103 1.36975 0
M  V30 476 C 46.254 -1.68439 0.237152 0
M  V30 477 O 47.439 -1.8918 0.438713 0
M  V30 478 C 44.569 -3.26496 1.18395 0
M  V30 479 C 43.523 -3.61741 2.28751 0
M  V30 480 C 42.849 -4.97762 1.95286 0
M  V30 481 C 44.149 -3.67665 3.70972 0
M  V30 482 H 45.843 -1.90099 2.31307 0
M  V30 483 H 43.389 -0.91319 1.11341 0
M  V30 484 H 45.342 -4.05003 1.16406 0
M  V30 485 H 44.066 -3.25955 0.205215 0
M  V30 486 H 42.725 -2.85547 2.29909 0
M  V30 487 H 42.373 -4.93769 0.959221 0
M  V30 488 H 42.073 -5.22313 2.69189 0
M  V30 489 H 43.597 -5.7866 1.94898 0
M  V30 490 H 45.011 -4.36307 3.719 0
M  V30 491 H 43.408 -4.03718 4.43995 0
M  V30 492 H 44.478 -2.68134 4.0402 0
M  V30 493 N 45.8211 -1.22559 -0.990812 0
M  V30 494 C 47.0701 -1.04553 -1.72486 0
M  V30 495 C 47.3831 0.419349 -1.91052 0
M  V30 496 O 48.5891 0.719121 -2.61803 0
M  V30 497 C 47.0451 -1.82231 -3.10355 0
M  V30 498 C 46.6531 -3.32981 -2.99713 0
M  V30 499 C 48.3971 -1.7268 -3.87791 0
M  V30 500 C 46.3041 -4.03091 -4.32748 0
M  V30 501 H 45.2341 -0.387614 -0.646739 0
M  V30 502 H 47.8851 -1.46429 -1.10593 0
M  V30 503 H 46.2671 -1.33155 -3.72942 0
M  V30 504 H 47.4411 -3.89466 -2.46278 0
M  V30 505 H 45.7561 -3.43231 -2.35758 0
M  V30 506 H 48.3531 -2.22381 -4.86262 0
M  V30 507 H 48.6961 -0.687607 -4.10582 0
M  V30 508 H 49.2291 -2.1931 -3.31885 0
M  V30 509 H 45.9681 -5.07273 -4.15156 0
M  V30 510 H 45.4881 -3.51394 -4.86089 0
M  V30 511 H 47.1671 -4.08804 -5.01486 0
M  V30 512 N 47.2992 1.18797 -1.03562 0
M  V30 513 C 48.2292 2.24472 -0.643019 0
M  V30 514 C 49.2102 1.66433 0.351283 0
M  V30 515 O 50.3952 1.92803 0.232505 0
M  V30 516 C 47.5252 3.473 4.24935e-05 0
M  V30 517 C 46.4792 4.18055 -0.917257 0
M  V30 518 C 45.8052 5.34519 -0.138941 0
M  V30 519 C 47.1052 4.72109 -2.23407 0
M  V30 520 H 48.7992 2.57566 -1.52643 0
M  V30 521 H 46.3452 1.23806 -0.735394 0
M  V30 522 H 48.2982 4.20426 0.286383 0
M  V30 523 H 47.0222 3.13424 0.918299 0
M  V30 524 H 45.6812 3.46821 -1.1879 0
M  V30 525 H 45.3292 4.96891 0.781562 0
M  V30 526 H 45.0292 5.82794 -0.750005 0
M  V30 527 H 46.5532 6.10438 0.1405 0
M  V30 528 H 47.9672 5.36955 -2.00879 0
M  V30 529 H 46.3642 5.30897 -2.79765 0
M  V30 530 H 47.4342 3.89807 -2.88407 0
M  V30 531 N 48.7773 0.814389 1.34928 0
M  V30 532 C 50.0233 0.408167 1.99263 0
M  V30 533 C 50.3783 -1.0154 1.63424 0
M  V30 534 O 49.6713 -1.69607 0.891289 0
M  V30 535 C 49.8653 0.537781 3.53331 0
M  V30 536 C 49.6943 1.9724 4.04137 0
M  V30 537 C 48.4643 2.60245 4.33129 0
M  V30 538 C 50.6623 2.93801 4.2212 0
M  V30 539 N 48.6443 3.95036 4.69914 0
M  V30 540 C 50.0153 4.1348 4.6199 0
M  V30 541 C 52.0703 2.9053 4.04348 0
M  V30 542 C 50.7733 5.3033 4.85945 0
M  V30 543 C 52.7993 4.06589 4.29464 0
M  V30 544 C 52.1613 5.25017 4.69613 0
M  V30 545 H 48.2603 0.197289 0.756704 0
M  V30 546 H 50.8443 1.05728 1.63492 0
M  V30 547 H 49.0153 -0.0813868 3.88315 0
M  V30 548 H 50.7473 0.105389 4.04563 0
M  V30 549 H 47.5023 2.11545 4.23728 0
M  V30 550 H 47.9263 4.64455 4.92555 0
M  V30 551 H 52.5683 2.00115 3.72443 0
M  V30 552 H 50.2863 6.21309 5.16721 0
M  V30 553 H 53.8723 4.05447 4.17257 0
M  V30 554 H 52.7523 6.1333 4.88667 0
M  V30 555 N 50.2554 -1.46986 0.568584 0
M  V30 556 C 51.5044 -2.01646 0.0465894 0
M  V30 557 C 51.8174 -1.44721 -1.31587 0
M  V30 558 O 53.0234 -1.91113 -1.92842 0
M  V30 559 C 51.4794 -3.59885 0.032752 0
M  V30 560 C 51.0874 -4.25804 1.39266 0
M  V30 561 C 52.8314 -4.22255 -0.436038 0
M  V30 562 C 50.7384 -5.76081 1.33732 0
M  V30 563 H 49.6684 -0.753876 0.013647 0
M  V30 564 H 52.3194 -1.68864 0.718131 0
M  V30 565 H 50.7014 -3.8968 -0.704669 0
M  V30 566 H 51.8754 -4.07637 2.1487 0
M  V30 567 H 50.1904 -3.7547 1.80032 0
M  V30 568 H 52.7874 -5.32394 -0.49602 0
M  V30 569 H 53.1304 -3.90212 -1.45053 0
M  V30 570 H 53.6634 -3.97033 0.246877 0
M  V30 571 H 50.4024 -6.12761 2.32817 0
M  V30 572 H 49.9224 -5.96553 0.623267 0
M  V30 573 H 51.6014 -6.38518 1.0442 0
M  V30 574 N 51.7335 -0.305618 -1.54608 0
M  V30 575 C 52.9825 0.303098 -1.9941 0
M  V30 576 C 53.2955 1.54648 -1.19764 0
M  V30 577 O 54.5015 2.23007 -1.54855 0
M  V30 578 C 52.9575 0.590588 -3.55021 0
M  V30 579 C 52.5655 -0.634719 -4.43481 0
M  V30 580 C 54.3095 1.16025 -4.08336 0
M  V30 581 C 52.2165 -0.320126 -5.90533 0
M  V30 582 H 51.1465 0.117031 -0.744862 0
M  V30 583 H 53.7975 -0.415045 -1.78745 0
M  V30 584 H 52.1795 1.36845 -3.71604 0
M  V30 585 H 53.3535 -1.41079 -4.38672 0
M  V30 586 H 51.6685 -1.12333 -4.00962 0
M  V30 587 H 54.2655 1.40994 -5.15776 0
M  V30 588 H 54.6085 2.10397 -3.5922 0
M  V30 589 H 55.1415 0.443985 -3.95315 0
M  V30 590 H 51.8805 -1.23254 -6.43808 0
M  V30 591 H 51.4005 0.418579 -5.98338 0
M  V30 592 H 53.0795 0.0766241 -6.46955 0
M  V30 593 N 53.2116 1.57565 -0.0334293 0
M  V30 594 C 54.6276 1.56297 0.322997 0
M  V30 595 C 54.8276 1.03945 1.7262 0
M  V30 596 O 53.8836 0.688109 2.42943 0
M  V30 597 C 55.1966 3.00232 0.167664 0
M  V30 598 C 56.7446 3.12078 0.240107 0
M  V30 599 C 57.2196 4.57859 0.113513 0
M  V30 600 N 58.7106 4.62887 0.170359 0
M  V30 601 C 59.4456 5.73319 0.0962517 0
M  V30 602 N 58.9416 6.92794 -0.0291881 0
M  V30 603 N 60.7346 5.61898 0.150551 0
M  V30 604 H 52.8856 1.89923 -0.950956 0
M  V30 605 H 55.1486 0.873824 -0.367608 0
M  V30 606 H 54.8546 3.42501 -0.799102 0
M  V30 607 H 54.7286 3.654 0.936083 0
M  V30 608 H 57.1156 2.69718 1.19733 0
M  V30 609 H 57.1966 2.49623 -0.558763 0
M  V30 610 H 56.8406 5.009 -0.840314 0
M  V30 611 H 56.7706 5.18299 0.931302 0
M  V30 612 H 59.2616 3.76954 0.26728 0
M  V30 613 H 59.5746 7.7276 -0.0789252 0
M  V30 614 H 57.9196 6.94971 -0.0640299 0
M  V30 615 H 61.1106 4.67448 0.246981 0
M  V30 616 H 61.2836 6.47938 0.0893365 0
M  V30 617 N 54.6897 -0.239769 1.55765 0
M  V30 618 C 55.6197 -1.30052 1.9393 0
M  V30 619 C 56.6007 -1.49839 0.805132 0
M  V30 620 O 57.7857 -1.62328 1.06599 0
M  V30 621 C 54.9157 -2.65391 2.2402 0
M  V30 622 C 53.8697 -2.60289 3.39755 0
M  V30 623 C 53.1957 -3.99489 3.55405 0
M  V30 624 C 54.4957 -2.16654 4.75246 0
M  V30 625 H 56.1897 -0.983573 2.82783 0
M  V30 626 H 53.7357 -0.471701 1.36055 0
M  V30 627 H 55.6887 -3.3974 2.49308 0
M  V30 628 H 54.4127 -2.98736 1.32 0
M  V30 629 H 53.0717 -1.88398 3.14487 0
M  V30 630 H 52.7197 -4.30112 2.60793 0
M  V30 631 H 52.4197 -3.96962 4.33238 0
M  V30 632 H 53.9437 -4.75528 3.83022 0
M  V30 633 H 55.3577 -2.80737 4.99859 0
M  V30 634 H 53.7547 -2.25223 5.56232 0
M  V30 635 H 54.8247 -1.11835 4.71827 0
M  V30 636 N 56.1678 -1.49265 -0.50573 0
M  V30 637 C 57.0978 -1.68495 -1.61653 0
M  V30 638 C 58.0788 -0.53366 -1.61512 0
M  V30 639 O 59.2638 -0.76897 -1.78327 0
M  V30 640 C 56.3938 -1.74709 -3.00157 0
M  V30 641 C 55.3478 -2.89581 -3.15162 0
M  V30 642 C 54.6738 -2.80903 -4.5497 0
M  V30 643 C 55.9738 -4.30578 -2.95634 0
M  V30 644 H 57.6678 -2.61493 -1.45814 0
M  V30 645 H 55.2138 -1.25838 -0.70005 0
M  V30 646 H 57.1668 -1.86748 -3.77761 0
M  V30 647 H 55.8908 -0.783067 -3.17074 0
M  V30 648 H 54.5498 -2.77136 -2.39982 0
M  V30 649 H 54.1978 -1.82419 -4.68756 0
M  V30 650 H 53.8978 -3.57999 -4.65951 0
M  V30 651 H 55.4218 -2.94944 -5.34641 0
M  V30 652 H 56.8358 -4.4373 -3.63011 0
M  V30 653 H 55.2328 -5.0886 -3.18091 0
M  V30 654 H 56.3028 -4.45352 -1.91806 0
M  V30 655 N 57.6459 0.756429 -1.3826 0
M  V30 656 C 58.8929 1.51547 -1.34312 0
M  V30 657 C 59.2209 1.94382 0.0677144 0
M  V30 658 O 58.4759 1.65514 1.04421 0
M  V30 659 C 58.7749 2.78313 -2.24224 0
M  V30 660 C 58.4409 2.54455 -3.72241 0
M  V30 661 C 57.1029 2.47657 -4.12576 0
M  V30 662 C 59.4549 2.3354 -4.65949 0
M  V30 663 C 56.7829 2.17956 -5.44713 0
M  V30 664 C 59.1349 2.05359 -5.9834 0
M  V30 665 C 57.7989 1.97016 -6.37762 0
M  V30 666 H 57.0689 0.55455 -0.491482 0
M  V30 667 H 59.7159 0.870039 -1.70595 0
M  V30 668 H 58.0209 3.47492 -1.80987 0
M  V30 669 H 59.7179 3.36259 -2.18474 0
M  V30 670 H 56.3079 2.60616 -3.40261 0
M  V30 671 H 60.4919 2.37772 -4.35635 0
M  V30 672 H 55.7479 2.10003 -5.74203 0
M  V30 673 H 59.9219 1.88179 -6.70494 0
M  V30 674 H 57.5489 1.73766 -7.40074 0
M  V30 675 N 59.124 1.23083 0.984299 0
M  V30 676 C 60.349 1.088 1.76571 0
M  V30 677 C 60.774 -0.356657 1.84688 0
M  V30 678 O 60.132 -1.25788 1.30565 0
M  V30 679 C 60.18 1.71371 3.17277 0
M  V30 680 O 59.284 0.973213 4.00752 0
M  V30 681 H 58.625 0.381599 0.543395 0
M  V30 682 H 61.155 1.63057 1.23587 0
M  V30 683 H 61.165 1.76449 3.67872 0
M  V30 684 H 59.84 2.76493 3.10684 0
M  V30 685 H 58.417 0.999078 3.59267 0
M  V30 686 N 60.6021 -1.18246 1.0419 0
M  V30 687 C 61.5491 -2.2192 0.634037 0
M  V30 688 C 62.5191 -1.62179 -0.358765 0
M  V30 689 O 63.7041 -1.89122 -0.252466 0
M  V30 690 C 60.8441 -3.451 0.00445535 0
M  V30 691 C 59.9571 -4.19174 1.04487 0
M  V30 692 C 59.0921 -5.29813 0.383676 0
M  V30 693 C 58.1311 -5.9566 1.4091 0
M  V30 694 N 57.2681 -6.97834 0.772784 0
M  V30 695 H 62.1081 -2.56164 1.52263 0
M  V30 696 H 59.6451 -1.25843 0.761701 0
M  V30 697 H 61.6031 -4.15485 -0.377919 0
M  V30 698 H 60.2331 -3.11472 -0.847652 0
M  V30 699 H 59.2851 -3.47604 1.54518 0
M  V30 700 H 60.5971 -4.64267 1.82368 0
M  V30 701 H 59.7511 -6.06677 -0.0528366 0
M  V30 702 H 58.4901 -4.85825 -0.427208 0
M  V30 703 H 57.4951 -5.17535 1.85574 0
M  V30 704 H 58.7201 -6.4173 2.22171 0
M  V30 705 H 56.6661 -6.55998 -0.0177708 0
M  V30 706 H 56.5831 -7.41186 1.48928 0
M  V30 707 H 57.8511 -7.78665 0.36071 0
M  V30 708 N 62.0802 -0.821533 -1.34494 0
M  V30 709 C 63.3082 -0.421884 -2.02553 0
M  V30 710 C 63.7232 0.971745 -1.61872 0
M  V30 711 O 63.0802 1.62864 -0.823496 0
M  V30 712 C 63.1312 -0.51285 -3.57844 0
M  V30 713 O 62.8522 -1.85155 -3.97051 0
M  V30 714 C 64.3532 -0.107921 -4.43169 0
M  V30 715 H 61.5732 -0.169482 -0.649243 0
M  V30 716 H 64.1172 -1.1093 -1.71798 0
M  V30 717 H 62.2722 0.126474 -3.87193 0
M  V30 718 H 62.6862 -1.82482 -4.91732 0
M  V30 719 H 64.1602 -0.222657 -5.51551 0
M  V30 720 H 64.6372 0.948401 -4.28838 0
M  V30 721 H 65.2432 -0.720989 -4.19144 0
M  V30 722 N 63.5583 1.46682 -0.576371 0
M  V30 723 C 64.7883 2.06498 -0.0648694 0
M  V30 724 C 65.1963 1.42665 1.24271 0
M  V30 725 O 64.5393 0.523886 1.76071 0
M  V30 726 C 64.6013 3.5904 0.181816 0
M  V30 727 C 64.2653 4.45028 -1.0392 0
M  V30 728 C 65.2623 4.81959 -1.94966 0
M  V30 729 C 62.9473 4.86259 -1.25927 0
M  V30 730 C 64.9413 5.58942 -3.06371 0
M  V30 731 C 62.6283 5.63002 -2.37638 0
M  V30 732 C 63.6263 5.99257 -3.2769 0
M  V30 733 O 63.3143 6.7445 -4.37461 0
M  V30 734 H 63.0463 0.674028 -0.0515987 0
M  V30 735 H 65.6003 1.89393 -0.794951 0
M  V30 736 H 63.8303 3.74429 0.966436 0
M  V30 737 H 65.5193 4.00806 0.641047 0
M  V30 738 H 66.2853 4.50689 -1.79177 0
M  V30 739 H 62.1643 4.57494 -0.567448 0
M  V30 740 H 65.7083 5.87158 -3.76684 0
M  V30 741 H 61.6053 5.93686 -2.53392 0
M  V30 742 H 62.3733 6.92867 -4.35749 0
M  V30 743 N 65.0364 0.313813 1.54444 0
M  V30 744 C 65.9834 -0.55655 2.23989 0
M  V30 745 C 66.9534 -1.11943 1.22711 0
M  V30 746 O 68.1384 -1.16158 1.51367 0
M  V30 747 C 65.2784 -1.71635 2.99392 0
M  V30 748 C 64.3914 -1.18364 4.15468 0
M  V30 749 C 63.5264 -2.30834 4.78424 0
M  V30 750 C 62.5654 -1.74762 5.86622 0
M  V30 751 N 61.7024 -2.80855 6.43479 0
M  V30 752 H 66.5424 0.0430893 2.97969 0
M  V30 753 H 64.0794 0.0330359 1.47063 0
M  V30 754 H 66.0374 -2.39868 3.41349 0
M  V30 755 H 64.6674 -2.28742 2.27765 0
M  V30 756 H 63.7194 -0.393163 3.78363 0
M  V30 757 H 65.0314 -0.733262 4.93381 0
M  V30 758 H 64.1854 -3.0699 5.23299 0
M  V30 759 H 62.9244 -2.79204 3.99871 0
M  V30 760 H 61.9294 -0.970995 5.41158 0
M  V30 761 H 63.1544 -1.2728 6.67066 0
M  V30 762 H 61.1004 -3.28535 5.67804 0
M  V30 763 H 61.0174 -2.40351 7.16776 0
M  V30 764 H 62.2854 -3.5687 6.93011 0
M  V30 765 N 66.5145 -1.57545 0.0417849 0
M  V30 766 C 67.4445 -2.14009 -0.933929 0
M  V30 767 C 68.4255 -1.05938 -1.33083 0
M  V30 768 O 69.6105 -1.33833 -1.40721 0
M  V30 769 C 66.7405 -2.67747 -2.21199 0
M  V30 770 C 65.6945 -3.80718 -1.95544 0
M  V30 771 C 65.0205 -4.20935 -3.29724 0
M  V30 772 C 66.3205 -5.06258 -1.28452 0
M  V30 773 H 68.0145 -2.95788 -0.463645 0
M  V30 774 H 65.5605 -1.42285 -0.221573 0
M  V30 775 H 67.5135 -3.05886 -2.89848 0
M  V30 776 H 66.2375 -1.83147 -2.70416 0
M  V30 777 H 64.8965 -3.43037 -1.2931 0
M  V30 778 H 64.5445 -3.33298 -3.76724 0
M  V30 779 H 64.2445 -4.9707 -3.13361 0
M  V30 780 H 65.7685 -4.61666 -3.9962 0
M  V30 781 H 67.1825 -5.41903 -1.8712 0
M  V30 782 H 65.5795 -5.87475 -1.22445 0
M  V30 783 H 66.6495 -4.84207 -0.259219 0
M  V30 784 N 67.9926 0.231505 -1.5589 0
M  V30 785 C 68.9246 1.31006 -1.8807 0
M  V30 786 C 69.9376 1.43539 -0.768145 0
M  V30 787 O 71.1266 1.44614 -1.04638 0
M  V30 788 C 68.2266 2.68688 -2.06543 0
M  V30 789 C 67.3996 2.78228 -3.37502 0
M  V30 790 C 66.4586 3.96857 -3.4553 0
M  V30 791 O 65.4846 3.85662 -4.18633 0
M  V30 792 N 66.6866 5.1072 -2.75944 0
M  V30 793 H 69.4516 1.03731 -2.81176 0
M  V30 794 H 67.0126 0.421573 -1.56315 0
M  V30 795 H 69.0046 3.46412 -2.09239 0
M  V30 796 H 67.5746 2.88605 -1.20109 0
M  V30 797 H 66.7946 1.87059 -3.46991 0
M  V30 798 H 68.0826 2.81564 -4.23791 0
M  V30 799 H 67.4806 5.2271 -2.16311 0
M  V30 800 H 66.0376 5.86523 -2.84314 0
M  V30 801 N 69.4707 1.49531 0.497807 0
M  V30 802 C 70.3807 1.69176 1.62532 0
M  V30 803 C 71.3967 0.5744 1.64246 0
M  V30 804 O 72.5727 0.849497 1.82608 0
M  V30 805 C 69.6377 1.75695 2.98885 0
M  V30 806 C 68.6987 2.9929 3.07773 0
M  V30 807 C 67.9317 3.05488 4.37622 0
M  V30 808 O 68.1547 2.19192 5.26603 0
M  V30 809 O 67.0887 3.9798 4.51548 0
M  V30 810 H 70.9147 2.647 1.48887 0
M  V30 811 H 68.4997 1.3331 0.674441 0
M  V30 812 H 70.3817 1.82317 3.79919 0
M  V30 813 H 69.0567 0.8335 3.12785 0
M  V30 814 H 67.9637 2.98183 2.25915 0
M  V30 815 H 69.2967 3.91125 2.98801 0
M  V30 816 N 70.9488 -0.749086 1.3866 0
M  V30 817 C 72.3648 -1.05276 1.19955 0
M  V30 818 C 72.5648 -2.01435 0.05134 0
M  V30 819 O 71.6208 -2.45232 -0.60147 0
M  V30 820 C 72.9338 -1.62853 2.52783 0
M  V30 821 C 74.4818 -1.75002 2.59506 0
M  V30 822 C 74.9568 -2.35991 3.92521 0
M  V30 823 N 76.4478 -2.43416 3.94085 0
M  V30 824 C 77.1828 -2.91511 4.9377 0
M  V30 825 N 76.6788 -3.39608 6.03853 0
M  V30 826 N 78.4718 -2.90592 4.81157 0
M  V30 827 H 70.6228 -0.111066 2.12109 0
M  V30 828 H 72.8858 -0.111901 0.941373 0
M  V30 829 H 72.5918 -0.99664 3.37283 0
M  V30 830 H 72.4658 -2.61854 2.715 0
M  V30 831 H 74.8528 -2.37317 1.75398 0
M  V30 832 H 74.9338 -0.74693 2.44652 0
M  V30 833 H 74.5778 -1.74308 4.77053 0
M  V30 834 H 74.5078 -3.3695 4.04688 0
M  V30 835 H 76.9988 -2.09405 3.14576 0
M  V30 836 H 77.3118 -3.74775 6.75843 0
M  V30 837 H 75.6568 -3.37653 6.07466 0
M  V30 838 H 78.8478 -2.52332 3.94267 0
M  V30 839 H 79.0208 -3.27762 5.58996 0
M  V30 840 N 72.4269 -1.23603 -0.977757 0
M  V30 841 C 73.6519 -1.09735 -1.75991 0
M  V30 842 C 74.0769 0.346858 -1.84874 0
M  V30 843 O 73.4349 1.25093 -1.3123 0
M  V30 844 C 73.4829 -1.73051 -3.16363 0
M  V30 845 O 72.5869 -0.994452 -4.0023 0
M  V30 846 H 71.9279 -0.384476 -0.541364 0
M  V30 847 H 74.4579 -1.6371 -1.2272 0
M  V30 848 H 74.4679 -1.78398 -3.66931 0
M  V30 849 H 73.1429 -2.78137 -3.09213 0
M  V30 850 H 71.7199 -1.01812 -3.58732 0
M  V30 851 N 73.905 1.17692 -1.04816 0
M  V30 852 C 75.182 1.83768 -0.669963 0
M  V30 853 C 75.562 1.93232 0.849986 0
M  V30 854 O 74.91 1.46397 1.75443 0
M  V30 855 C 75.12 3.21641 -1.35455 0
M  V30 856 C 76.468 3.97592 -1.49017 0
M  V30 857 O 77.492 3.31107 -1.31326 0
M  V30 858 O 76.351 5.16729 -1.77914 0
M  V30 859 H 73.445 0.792799 -0.235368 0
M  V30 860 H 75.991 1.25021 -1.14751 0
M  V30 861 H 74.763 3.097 -2.39168 0
M  V30 862 H 74.386 3.88052 -0.866107 0
M  V30 863 N 75.3831 0.828654 1.34056 0
M  V30 864 C 76.3131 0.269443 2.3194 0
M  V30 865 C 77.2941 -0.617247 1.58506 0
M  V30 866 O 78.4791 -0.542931 1.86456 0
M  V30 867 C 75.6091 -0.564793 3.42677 0
M  V30 868 C 74.5631 0.225241 4.27407 0
M  V30 869 C 73.8891 -0.7321 5.29664 0
M  V30 870 C 75.1891 1.43663 5.02154 0
M  V30 871 H 76.8831 1.08728 2.7896 0
M  V30 872 H 74.4291 0.524283 1.34117 0
M  V30 873 H 76.3821 -0.966233 4.10173 0
M  V30 874 H 75.1061 -1.41574 2.9432 0
M  V30 875 H 73.7651 0.608117 3.61521 0
M  V30 876 H 73.4131 -1.57916 4.77568 0
M  V30 877 H 73.1131 -0.20767 5.87233 0
M  V30 878 H 74.6371 -1.13128 6.00029 0
M  V30 879 H 76.0511 1.1089 5.62473 0
M  V30 880 H 74.4481 1.89711 5.69324 0
M  V30 881 H 75.5181 2.21181 4.31517 0
M  V30 882 N 76.8612 -1.46375 0.584142 0
M  V30 883 C 78.0892 -2.06761 0.0759296 0
M  V30 884 C 78.5042 -1.43266 -1.22965 0
M  V30 885 O 77.8612 -0.538458 -1.74376 0
M  V30 886 C 77.9122 -3.61375 -0.0950384 0
M  V30 887 O 77.6332 -4.22495 1.15887 0
M  V30 888 C 79.1342 -4.38693 -0.637434 0
M  V30 889 H 76.3542 -0.668479 0.0581075 0
M  V30 890 H 78.8982 -1.8798 0.805218 0
M  V30 891 H 77.0532 -3.79578 -0.774554 0
M  V30 892 H 77.4672 -5.15385 0.973598 0
M  V30 893 H 78.9412 -5.47464 -0.706237 0
M  V30 894 H 79.4182 -4.06836 -1.65472 0
M  V30 895 H 80.0242 -4.25299 0.00725967 0
M  V30 896 N 78.3393 -0.321999 -1.54275 0
M  V30 897 C 79.5853 0.281461 -2.00837 0
M  V30 898 C 79.9183 1.51909 -1.20985 0
M  V30 899 O 79.1933 1.923 -0.291733 0
M  V30 900 C 79.4763 0.617162 -3.54772 0
M  V30 901 C 79.3293 -0.631064 -4.45351 0
M  V30 902 C 80.6483 1.43542 -4.16033 0
M  V30 903 H 77.7673 0.100826 -0.730071 0
M  V30 904 H 80.4093 -0.438268 -1.84876 0
M  V30 905 H 78.5593 1.23034 -3.68504 0
M  V30 906 H 80.2313 -1.26934 -4.43492 0
M  V30 907 H 78.4743 -1.26025 -4.15091 0
M  V30 908 H 79.1453 -0.351735 -5.50878 0
M  V30 909 H 81.6213 0.917134 -4.05867 0
M  V30 910 H 80.4973 1.63907 -5.23856 0
M  V30 911 H 80.7583 2.43108 -3.69257 0
M  V30 912 N 79.8174 1.5752 -0.0501392 0
M  V30 913 C 80.7644 2.1147 0.924603 0
M  V30 914 C 81.7344 1.02182 1.30951 0
M  V30 915 O 82.9194 1.29723 1.39916 0
M  V30 916 C 80.0594 2.66337 2.19451 0
M  V30 917 C 79.1724 3.89708 1.86418 0
M  V30 918 C 78.3074 4.32893 3.07859 0
M  V30 919 C 77.3464 5.48967 2.70742 0
M  V30 920 N 76.4834 5.87211 3.84874 0
M  V30 921 H 81.3234 2.94465 0.457639 0
M  V30 922 H 78.8604 1.45531 0.214266 0
M  V30 923 H 80.8184 2.96247 2.93758 0
M  V30 924 H 79.4484 1.86141 2.63726 0
M  V30 925 H 78.5004 3.66396 1.02264 0
M  V30 926 H 79.8124 4.74074 1.55096 0
M  V30 927 H 78.9664 4.6435 3.90466 0
M  V30 928 H 77.7054 3.47336 3.42358 0
M  V30 929 H 76.7104 5.17183 1.86551 0
M  V30 930 H 77.9354 6.3624 2.37436 0
M  V30 931 H 75.8814 5.04607 4.19175 0
M  V30 932 H 75.7984 6.66266 3.57247 0
M  V30 933 H 77.0664 6.23282 4.68123 0
M  V30 934 N 81.2955 -0.223234 1.56011 0
M  V30 935 C 82.2055 -1.29766 1.95443 0
M  V30 936 C 83.2215 -1.51373 0.858028 0
M  V30 937 O 84.3975 -1.64536 1.16146 0
M  V30 938 C 81.4625 -2.62772 2.26167 0
M  V30 939 C 80.5235 -2.49482 3.49367 0
M  V30 940 C 79.7565 -3.76145 3.78616 0
M  V30 941 O 79.9795 -4.79087 3.09568 0
M  V30 942 O 78.9135 -3.73358 4.72109 0
M  V30 943 H 82.7395 -0.99309 2.87004 0
M  V30 944 H 80.3245 -0.425958 1.43199 0
M  V30 945 H 82.2065 -3.41327 2.47131 0
M  V30 946 H 80.8815 -2.92913 1.37781 0
M  V30 947 H 79.7885 -1.69133 3.33684 0
M  V30 948 H 81.1215 -2.2428 4.38131 0
M  V30 949 N 82.7736 -1.49793 -0.48987 0
M  V30 950 C 83.7206 -1.67281 -1.59014 0
M  V30 951 C 84.6906 -0.514177 -1.57941 0
M  V30 952 O 85.8756 -0.742533 -1.75759 0
M  V30 953 C 83.0156 -1.75569 -2.97102 0
M  V30 954 C 82.1286 -3.0281 -3.08107 0
M  V30 955 C 81.2636 -3.02008 -4.36995 0
M  V30 956 C 80.3026 -4.23782 -4.41673 0
M  V30 957 N 79.4396 -4.20826 -5.62005 0
M  V30 958 H 84.2796 -2.61224 -1.43409 0
M  V30 959 H 81.8166 -1.29508 -0.697565 0
M  V30 960 H 83.7746 -1.78354 -3.77155 0
M  V30 961 H 82.4046 -0.850827 -3.11385 0
M  V30 962 H 81.4566 -3.09584 -2.21047 0
M  V30 963 H 82.7686 -3.92801 -3.07423 0
M  V30 964 H 81.9226 -3.03418 -5.25378 0
M  V30 965 H 80.6616 -2.09815 -4.4026 0
M  V30 966 H 79.6666 -4.22604 -3.5169 0
M  V30 967 H 80.8916 -5.17181 -4.40115 0
M  V30 968 H 78.8376 -3.31476 -5.66091 0
M  V30 969 H 78.7546 -5.04564 -5.62984 0
M  V30 970 H 80.0226 -4.26355 -6.52565 0
M  V30 971 N 84.2517 0.741722 -1.39055 0
M  V30 972 C 85.1617 1.88621 -1.39496 0
M  V30 973 C 86.1777 1.71557 -0.290578 0
M  V30 974 O 87.3537 1.94275 -0.530954 0
M  V30 975 C 84.4187 3.24134 -1.23037 0
M  V30 976 C 83.4797 3.5364 -2.43387 0
M  V30 977 C 82.7127 4.82687 -2.27703 0
M  V30 978 O 82.9357 5.55922 -1.27696 0
M  V30 979 O 81.8697 5.1194 -3.16545 0
M  V30 980 H 85.6957 1.91203 -2.35956 0
M  V30 981 H 83.2807 0.888625 -1.20099 0
M  V30 982 H 85.1627 4.0513 -1.15964 0
M  V30 983 H 83.8377 3.22337 -0.296691 0
M  V30 984 H 82.7447 2.72758 -2.56035 0
M  V30 985 H 84.0777 3.60209 -3.35425 0
M  V30 986 N 85.7298 1.2412 0.971189 0
M  V30 987 C 86.6398 1.04747 2.09917 0
M  V30 988 C 87.6558 -0.0107162 1.73997 0
M  V30 989 O 88.8318 0.186714 2.00533 0
M  V30 990 C 85.8968 0.650828 3.40537 0
M  V30 991 C 84.9578 1.7851 3.90426 0
M  V30 992 C 84.1908 1.40729 5.14812 0
M  V30 993 O 84.4138 0.29557 5.69634 0
M  V30 994 O 83.3478 2.23168 5.58999 0
M  V30 995 H 87.1738 1.99304 2.29154 0
M  V30 996 H 84.7588 1.02908 1.08307 0
M  V30 997 H 86.6408 0.440992 4.19086 0
M  V30 998 H 85.3158 -0.265649 3.22608 0
M  V30 999 H 84.2228 2.04966 3.12953 0
M  V30 1000 H 85.5558 2.68023 4.12825 0
M  V30 1001 N 87.2079 -1.17134 1.05439 0
M  V30 1002 C 88.1379 -2.2342 0.678649 0
M  V30 1003 C 89.1189 -1.66971 -0.32476 0
M  V30 1004 O 90.3039 -1.93149 -0.201802 0
M  V30 1005 C 87.4339 -3.47256 0.0552099 0
M  V30 1006 C 86.3879 -4.16543 0.98365 0
M  V30 1007 C 85.7139 -5.34231 0.223961 0
M  V30 1008 C 87.0139 -4.68495 2.3089 0
M  V30 1009 H 88.7079 -2.55105 1.56722 0
M  V30 1010 H 86.2539 -1.2262 0.754998 0
M  V30 1011 H 88.2069 -4.20828 -0.21946 0
M  V30 1012 H 86.9309 -3.14846 -0.868319 0
M  V30 1013 H 85.5899 -3.44887 1.24293 0
M  V30 1014 H 85.2379 -4.98071 -0.702412 0
M  V30 1015 H 84.9379 -5.81527 0.842627 0
M  V30 1016 H 86.4619 -6.10585 -0.0433671 0
M  V30 1017 H 87.8759 -5.33691 2.09396 0
M  V30 1018 H 86.2729 -5.26379 2.88176 0
M  V30 1019 H 87.3429 -3.85169 2.94572 0
M  V30 1020 N 88.686 -0.835752 -1.33615 0
M  V30 1021 C 89.935 -0.426289 -1.97144 0
M  V30 1022 C 90.248 1.01912 -1.66953 0
M  V30 1023 O 91.454 1.53311 -2.24072 0
M  V30 1024 C 89.91 -0.711321 -3.52801 0
M  V30 1025 C 89.518 -2.1712 -3.91871 0
M  V30 1026 C 91.262 -0.368654 -4.22896 0
M  V30 1027 C 89.169 -2.40044 -5.40493 0
M  V30 1028 H 88.099 -0.15567 -0.737755 0
M  V30 1029 H 90.75 -1.0239 -1.52278 0
M  V30 1030 H 89.132 -0.0433766 -3.95976 0
M  V30 1031 H 90.306 -2.87936 -3.59763 0
M  V30 1032 H 88.621 -2.47654 -3.34749 0
M  V30 1033 H 91.218 -0.517601 -5.32189 0
M  V30 1034 H 91.561 0.688078 -4.10574 0
M  V30 1035 H 92.094 -0.991702 -3.8524 0
M  V30 1036 H 88.833 -3.44271 -5.57815 0
M  V30 1037 H 88.353 -1.73785 -5.74072 0
M  V30 1038 H 90.032 -2.23042 -6.0734 0
M  V30 1039 N 90.1641 1.46063 -0.591896 0
M  V30 1040 C 91.0741 2.34192 0.13831 0
M  V30 1041 C 92.0901 1.50305 0.876608 0
M  V30 1042 O 93.2661 1.8315 0.837728 0
M  V30 1043 C 90.3311 3.27656 1.13326 0
M  V30 1044 C 89.3921 4.27445 0.39863 0
M  V30 1045 C 88.6251 5.16443 1.34618 0
M  V30 1046 O 88.8481 5.08553 2.58321 0
M  V30 1047 O 87.7821 5.95843 0.851768 0
M  V30 1048 H 91.6081 2.98002 -0.58552 0
M  V30 1049 H 89.1931 1.45188 -0.352239 0
M  V30 1050 H 91.0751 3.85291 1.70671 0
M  V30 1051 H 89.7501 2.6643 1.83839 0
M  V30 1052 H 88.6571 3.73471 -0.216895 0
M  V30 1053 H 89.9901 4.91482 -0.265709 0
M  V30 1054 N 91.6422 0.330177 1.54103 0
M  V30 1055 C 92.5522 -0.541534 2.28264 0
M  V30 1056 C 93.5682 -1.12351 1.32866 0
M  V30 1057 O 94.7442 -1.14206 1.65888 0
M  V30 1058 C 91.8092 -1.68322 3.03098 0
M  V30 1059 C 90.8702 -1.13238 4.14096 0
M  V30 1060 C 90.1032 -2.21966 4.85352 0
M  V30 1061 O 90.3262 -3.42437 4.56172 0
M  V30 1062 O 89.2602 -1.87013 5.7211 0
M  V30 1063 H 93.0862 0.060938 3.03639 0
M  V30 1064 H 90.6712 0.09565 1.49093 0
M  V30 1065 H 92.5532 -2.34777 3.49939 0
M  V30 1066 H 91.2282 -2.27176 2.30593 0
M  V30 1067 H 90.1352 -0.432736 3.71589 0
M  V30 1068 H 91.4682 -0.588898 4.88664 0
M  V30 1069 N 93.1203 -1.57491 0.0584922 0
M  V30 1070 C 94.3663 -1.94081 -0.608617 0
M  V30 1071 C 94.7213 -0.937438 -1.68017 0
M  V30 1072 O 94.0143 0.0423034 -1.91553 0
M  V30 1073 C 94.2083 -3.3513 -1.24188 0
M  V30 1074 C 94.0373 -4.49095 -0.233187 0
M  V30 1075 C 92.8073 -5.04988 0.177439 0
M  V30 1076 C 95.0053 -5.1162 0.524306 0
M  V30 1077 N 92.9873 -6.02487 1.17823 0
M  V30 1078 C 94.3583 -6.04493 1.37796 0
M  V30 1079 C 96.4133 -4.94489 0.581822 0
M  V30 1080 C 95.1163 -6.82075 2.28399 0
M  V30 1081 C 97.1423 -5.72703 1.47531 0
M  V30 1082 C 96.5043 -6.65214 2.31667 0
M  V30 1083 H 92.6033 -0.75752 -0.194134 0
M  V30 1084 H 95.1873 -1.94248 0.132533 0
M  V30 1085 H 93.3583 -3.35726 -1.95302 0
M  V30 1086 H 95.0903 -3.5899 -1.86838 0
M  V30 1087 H 91.8453 -4.73165 -0.203004 0
M  V30 1088 H 92.2693 -6.55933 1.67573 0
M  V30 1089 H 96.9113 -4.22765 -0.054443 0
M  V30 1090 H 94.6293 -7.53085 2.93067 0
M  V30 1091 H 98.2153 -5.61472 1.52448 0
M  V30 1092 H 97.0953 -7.24679 2.99683 0
M  V30 1093 N 94.5984 0.214957 -1.56127 0
M  V30 1094 C 95.5304 1.29004 -1.89448 0
M  V30 1095 C 96.5434 1.42716 -0.783326 0
M  V30 1096 O 97.7324 1.43496 -1.06166 0
M  V30 1097 C 94.8324 2.66482 -2.09381 0
M  V30 1098 C 94.0054 2.74633 -3.40434 0
M  V30 1099 C 93.0644 3.9317 -3.49719 0
M  V30 1100 O 92.0904 3.812 -4.227 0
M  V30 1101 N 93.2924 5.07765 -2.81346 0
M  V30 1102 H 96.0574 1.00743 -2.82261 0
M  V30 1103 H 93.6184 0.40497 -1.56753 0
M  V30 1104 H 95.6104 3.44173 -2.12901 0
M  V30 1105 H 94.1804 2.87314 -1.23163 0
M  V30 1106 H 93.4004 1.83368 -3.48955 0
M  V30 1107 H 94.6884 2.77054 -4.26754 0
M  V30 1108 H 94.0864 5.20386 -2.21843 0
M  V30 1109 H 92.6434 5.83474 -2.90519 0
M  V30 1110 N 96.0765 1.50051 0.48192 0
M  V30 1111 C 97.4875 1.5348 1.06305 0
M  V30 1112 C 97.8385 0.331997 1.93371 0
M  V30 1113 O 96.9635 -0.556256 2.09129 0
M  V30 1114 C 97.5585 2.7813 1.93466 0
M  V30 1115 C 96.1175 2.84275 2.46707 0
M  V30 1116 C 95.2645 2.47637 1.24785 0
M  V30 1117 H 98.2155 1.56472 0.264995 0
M  V30 1118 H 98.2365 2.59372 2.78399 0
M  V30 1119 H 97.7485 3.65654 1.30072 0
M  V30 1120 H 95.8495 2.01077 3.13686 0
M  V30 1121 H 95.9625 3.8691 2.82555 0
M  V30 1122 H 94.3265 1.99835 1.57918 0
M  V30 1123 H 95.1095 3.37457 0.630694 0
M  V30 1124 N 97.5546 -0.734337 1.39446 0
M  V30 1125 C 98.4646 -1.87879 1.40495 0
M  V30 1126 C 99.4806 -1.714 0.299672 0
M  V30 1127 O 100.657 -1.93991 0.541249 0
M  V30 1128 C 97.7216 -3.23477 1.24754 0
M  V30 1129 C 96.7826 -3.52344 2.45259 0
M  V30 1130 C 96.0156 -4.81473 2.30259 0
M  V30 1131 O 96.2386 -5.55237 1.30643 0
M  V30 1132 O 95.1726 -5.10254 3.19256 0
M  V30 1133 H 98.9986 -1.89949 2.36966 0
M  V30 1134 H 96.5836 -0.882243 1.20569 0
M  V30 1135 H 98.4656 -4.04509 1.18111 0
M  V30 1136 H 97.1406 -3.22176 0.313781 0
M  V30 1137 H 96.0476 -2.71396 2.57478 0
M  V30 1138 H 97.3806 -3.58426 3.37331 0
M  V30 1139 N 99.0327 -1.24633 -0.964593 0
M  V30 1140 C 100.444 -1.08045 -1.5226 0
M  V30 1141 C 100.795 0.347116 -1.93105 0
M  V30 1142 O 99.9197 1.23588 -1.77637 0
M  V30 1143 C 100.515 -1.95514 -2.76695 0
M  V30 1144 C 99.0737 -1.8314 -3.28841 0
M  V30 1145 C 98.2207 -1.90262 -2.01732 0
M  V30 1146 H 101.172 -1.38064 -0.782553 0
M  V30 1147 H 101.193 -1.48925 -3.50145 0
M  V30 1148 H 100.705 -2.99407 -2.46936 0
M  V30 1149 H 98.8057 -0.82092 -3.63444 0
M  V30 1150 H 98.9187 -2.67406 -3.97531 0
M  V30 1151 H 97.2827 -1.34027 -2.16584 0
M  V30 1152 H 98.0657 -2.9574 -1.74334 0
M  V30 1153 N 100.511 1.16574 -1.06058 0
M  V30 1154 C 101.441 2.23057 -0.690488 0
M  V30 1155 C 102.422 1.67141 0.315901 0
M  V30 1156 O 103.607 1.93253 0.191556 0
M  V30 1157 C 100.737 3.47222 -0.073625 0
M  V30 1158 C 99.6908 4.16016 -1.00573 0
M  V30 1159 C 99.0168 5.34104 -0.252289 0
M  V30 1160 C 100.317 4.67264 -2.33371 0
M  V30 1161 H 102.011 2.54271 -1.58072 0
M  V30 1162 H 99.5568 1.22218 -0.76149 0
M  V30 1163 H 101.51 4.20939 0.19714 0
M  V30 1164 H 100.234 3.15302 0.85161 0
M  V30 1165 H 98.8928 3.44223 -1.2612 0
M  V30 1166 H 98.5408 4.98437 0.675988 0
M  V30 1167 H 98.2408 5.81072 -0.873455 0
M  V30 1168 H 99.7648 6.10599 0.0109857 0
M  V30 1169 H 101.179 5.32573 -2.12223 0
M  V30 1170 H 99.5758 5.24843 -2.90963 0
M  V30 1171 H 100.646 3.83602 -2.96611 0
M  V30 1172 N 101.989 0.842826 1.3317 0
M  V30 1173 C 103.235 0.441099 1.97945 0
M  V30 1174 C 103.568 -0.998024 1.66593 0
M  V30 1175 O 102.843 -1.69839 0.947898 0
M  V30 1176 C 103.126 0.666841 3.53872 0
M  V30 1177 C 102.979 2.15352 3.94897 0
M  V30 1178 C 104.298 0.115544 4.39948 0
M  V30 1179 H 101.417 0.161739 0.719034 0
M  V30 1180 H 104.059 1.05907 1.57746 0
M  V30 1181 H 102.209 0.140828 3.88245 0
M  V30 1182 H 103.881 2.7447 3.70761 0
M  V30 1183 H 102.124 2.63653 3.44484 0
M  V30 1184 H 102.795 2.26221 5.03516 0
M  V30 1185 H 105.271 0.565213 4.12243 0
M  V30 1186 H 104.147 0.303152 5.48062 0
M  V30 1187 H 104.408 -0.980935 4.3108 0
M  V30 1188 N 103.467 -1.45747 0.599634 0
M  V30 1189 C 104.878 -1.85853 0.177681 0
M  V30 1190 C 105.229 -1.50102 -1.26348 0
M  V30 1191 O 104.354 -0.923905 -1.95686 0
M  V30 1192 C 104.949 -3.37326 0.315688 0
M  V30 1193 C 103.508 -3.76365 -0.0515144 0
M  V30 1194 C 102.655 -2.69722 0.643822 0
M  V30 1195 H 105.606 -1.36661 0.806814 0
M  V30 1196 H 105.627 -3.77778 -0.454321 0
M  V30 1197 H 105.139 -3.63315 1.36468 0
M  V30 1198 H 103.24 -3.55993 -1.09999 0
M  V30 1199 H 103.353 -4.77916 0.336594 0
M  V30 1200 H 101.717 -2.54567 0.0822881 0
M  V30 1201 H 102.5 -2.98549 1.6948 0
M  V30 1202 N 104.945 -0.338344 -1.53925 0
M  V30 1203 C 106.356 0.146651 -1.86123 0
M  V30 1204 C 106.707 1.5042 -1.2597 0
M  V30 1205 O 105.832 2.08723 -0.571294 0
M  V30 1206 C 106.427 0.272879 -3.37699 0
M  V30 1207 C 104.986 0.702103 -3.69794 0
M  V30 1208 C 104.133 -0.167304 -2.76795 0
M  V30 1209 H 107.084 -0.558123 -1.48562 0
M  V30 1210 H 107.105 1.10128 -3.64214 0
M  V30 1211 H 106.617 -0.715307 -3.81451 0
M  V30 1212 H 104.718 1.6995 -3.31584 0
M  V30 1213 H 104.831 0.495604 -4.7653 0
M  V30 1214 H 103.195 0.359527 -2.5215 0
M  V30 1215 H 103.978 -1.15253 -3.23375 0
M  V30 1216 N 106.423 1.57458 -0.0668435 0
M  V30 1217 C 107.669 1.93587 0.6043 0
M  V30 1218 C 108.002 0.946722 1.69561 0
M  V30 1219 O 107.277 -0.0248516 1.94484 0
M  V30 1220 C 107.56 3.40014 1.18585 0
M  V30 1221 C 107.413 4.49685 0.101529 0
M  V30 1222 C 108.732 3.87154 2.09284 0
M  V30 1223 H 105.851 0.703958 0.218202 0
M  V30 1224 H 108.493 1.89542 -0.131804 0
M  V30 1225 H 106.643 3.43592 1.81319 0
M  V30 1226 H 108.315 4.5823 -0.531279 0
M  V30 1227 H 106.558 4.30059 -0.568487 0
M  V30 1228 H 107.229 5.49266 0.54874 0
M  V30 1229 H 109.705 3.85551 1.56491 0
M  V30 1230 H 108.581 4.90231 2.46911 0
M  V30 1231 H 108.842 3.2481 2.99918 0
M  V30 1232 N 107.901 -0.206675 1.56239 0
M  V30 1233 C 109.312 -0.772383 1.69974 0
M  V30 1234 C 109.663 -1.84353 0.671436 0
M  V30 1235 O 108.788 -2.15695 -0.174491 0
M  V30 1236 C 109.383 -1.40779 3.08167 0
M  V30 1237 C 107.942 -1.92072 3.23706 0
M  V30 1238 C 107.089 -0.786347 2.65917 0
M  V30 1239 H 110.04 0.0182223 1.5869 0
M  V30 1240 H 110.061 -2.27696 3.04852 0
M  V30 1241 H 109.573 -0.627958 3.82986 0
M  V30 1242 H 107.674 -2.7281 2.53782 0
M  V30 1243 H 107.787 -2.09046 4.31087 0
M  V30 1244 H 106.151 -1.1976 2.24788 0
M  V30 1245 H 106.934 -0.0189416 3.43295 0
M  V30 1246 N 109.379 -1.50304 -0.473955 0
M  V30 1247 C 110.326 -1.68959 -1.57231 0
M  V30 1248 C 111.296 -0.530899 -1.57387 0
M  V30 1249 O 112.481 -0.761133 -1.74961 0
M  V30 1250 C 109.621 -1.7871 -2.95223 0
M  V30 1251 C 108.734 -3.06061 -3.04878 0
M  V30 1252 C 107.869 -3.06626 -4.33767 0
M  V30 1253 C 106.908 -4.28443 -4.37154 0
M  V30 1254 N 106.045 -4.26763 -5.5751 0
M  V30 1255 H 110.885 -2.6273 -1.40631 0
M  V30 1256 H 108.422 -1.30241 -0.683789 0
M  V30 1257 H 110.38 -1.82344 -3.75242 0
M  V30 1258 H 109.01 -0.883806 -3.10465 0
M  V30 1259 H 108.062 -3.11911 -2.17751 0
M  V30 1260 H 109.374 -3.96039 -3.0324 0
M  V30 1261 H 108.528 -3.08973 -5.22131 0
M  V30 1262 H 107.267 -2.14473 -4.3801 0
M  V30 1263 H 106.272 -4.2631 -3.47188 0
M  V30 1264 H 107.497 -5.2182 -4.34605 0
M  V30 1265 H 105.443 -3.37462 -5.62544 0
M  V30 1266 H 105.36 -5.10507 -5.57601 0
M  V30 1267 H 106.628 -4.33253 -6.48006 0
M  V30 1268 N 110.857 0.726932 -1.39834 0
M  V30 1269 C 112.134 1.47902 -1.28001 0
M  V30 1270 C 112.514 2.1083 0.106789 0
M  V30 1271 O 111.862 1.99242 1.11869 0
M  V30 1272 C 112.072 2.52392 -2.41038 0
M  V30 1273 C 113.42 3.18546 -2.80737 0
M  V30 1274 O 114.444 2.62708 -2.40547 0
M  V30 1275 O 113.303 4.19604 -3.50135 0
M  V30 1276 H 110.397 0.657163 -0.502062 0
M  V30 1277 H 112.943 0.760071 -1.51727 0
M  V30 1278 H 111.715 2.04329 -3.33715 0
M  V30 1279 H 111.338 3.31837 -2.19021 0
M  V30 1280 N 112.336 1.25143 0.95797 0
M  V30 1281 C 113.286 1.01924 2.0395 0
M  V30 1282 C 114.27 -0.0427175 1.60843 0
M  V30 1283 O 115.462 0.17221 1.7616 0
M  V30 1284 C 112.591 0.636373 3.3735 0
M  V30 1285 C 111.677 1.73492 3.8699 0
M  V30 1286 N 112.068 2.96945 4.0946 0
M  V30 1287 C 110.366 1.61467 4.15746 0
M  V30 1288 C 111.067 3.68228 4.50315 0
M  V30 1289 N 110.043 2.95833 4.56053 0
M  V30 1290 H 113.845 1.95653 2.19311 0
M  V30 1291 H 111.359 1.15413 1.14253 0
M  V30 1292 H 113.356 0.451233 4.14451 0
M  V30 1293 H 112.016 -0.293621 3.2337 0
M  V30 1294 H 113.027 3.33025 3.96629 0
M  V30 1295 H 109.704 0.753394 4.10646 0
M  V30 1296 H 111.094 4.74178 4.76031 0
M  V30 1297 N 113.814 -1.1601 1.06675 0
M  V30 1298 C 115.225 -1.68235 0.809565 0
M  V30 1299 C 115.576 -1.8454 -0.666303 0
M  V30 1300 O 114.701 -1.54374 -1.5165 0
M  V30 1301 C 115.296 -3.05585 1.46299 0
M  V30 1302 C 113.855 -3.54915 1.25349 0
M  V30 1303 C 113.002 -2.30804 1.53703 0
M  V30 1304 H 115.953 -1.00318 1.22971 0
M  V30 1305 H 115.974 -3.70174 0.880431 0
M  V30 1306 H 115.486 -2.93686 2.53713 0
M  V30 1307 H 113.587 -3.72067 0.199261 0
M  V30 1308 H 113.7 -4.36774 1.9689 0
M  V30 1309 H 112.064 -2.36007 0.957739 0
M  V30 1310 H 112.847 -2.21499 2.62284 0
M  V30 1311 N 115.292 -0.849877 -1.32721 0
M  V30 1312 C 116.255 -0.296122 -2.27279 0
M  V30 1313 C 117.255 0.541458 -1.5141 0
M  V30 1314 O 118.445 0.353658 -1.70572 0
M  V30 1315 C 115.577 0.581579 -3.35902 0
M  V30 1316 H 116.77 -1.13064 -2.77771 0
M  V30 1317 H 114.323 -0.62383 -1.43311 0
M  V30 1318 H 115.058 1.43809 -2.9067 0
M  V30 1319 H 114.843 -0.0178814 -3.92096 0
M  V30 1320 H 116.333 0.961951 -4.0637 0
M  V30 1321 N 116.77 1.45427 -0.607355 0
M  V30 1322 C 117.7 2.3329 0.0989352 0
M  V30 1323 C 118.681 1.46816 0.859007 0
M  V30 1324 O 119.866 1.75588 0.829604 0
M  V30 1325 C 116.996 3.29518 1.09705 0
M  V30 1326 C 115.95 4.25626 0.450206 0
M  V30 1327 C 115.276 5.11542 1.55655 0
M  V30 1328 C 116.576 5.18505 -0.628455 0
M  V30 1329 H 118.27 2.92595 -0.634716 0
M  V30 1330 H 115.816 1.40696 -0.306681 0
M  V30 1331 H 117.769 3.89855 1.59971 0
M  V30 1332 H 116.493 2.68372 1.86129 0
M  V30 1333 H 115.152 3.66586 -0.0315886 0
M  V30 1334 H 114.8 4.46765 2.31107 0
M  V30 1335 H 114.5 5.76647 1.12925 0
M  V30 1336 H 116.024 5.74748 2.06148 0
M  V30 1337 H 117.438 5.72916 -0.209877 0
M  V30 1338 H 115.835 5.92085 -0.977489 0
M  V30 1339 H 116.905 4.60948 -1.50514 0
M  V30 1340 N 118.248 0.346503 1.53744 0
M  V30 1341 C 119.196 -0.52422 2.26616 0
M  V30 1342 C 120.19 -1.09948 1.28871 0
M  V30 1343 O 121.396 -1.04488 1.46568 0
M  V30 1344 H 117.771 -0.187743 0.728187 0
M  V30 1345 H 119.742 0.11239 2.98188 0
M  V30 1346 C 118.491 -1.66186 3.05414 0
M  V30 1347 H 117.814 -1.22848 3.80458 0
M  V30 1348 H 119.254 -2.24622 3.59612 0
M  V30 1349 C 117.713 -2.59302 2.1509 0
M  V30 1350 O 118.243 -3.61628 1.74895 0
M  V30 1351 N 116.449 -2.28055 1.8011 0
M  V30 1352 H 115.996 -1.44883 2.12994 0
M  V30 1353 H 115.954 -2.90615 1.19958 0
M  V30 1354 N 119.726 -1.57421 0.075193 0
M  V30 1355 C 120.956 -1.97659 -0.601203 0
M  V30 1356 C 121.364 -0.952427 -1.63479 0
M  V30 1357 O 120.707 0.0688241 -1.83571 0
M  V30 1358 C 120.769 -3.34218 -1.32434 0
M  V30 1359 C 120.433 -4.5484 -0.443826 0
M  V30 1360 C 121.43 -5.19034 0.299969 0
M  V30 1361 C 119.115 -5.00952 -0.367709 0
M  V30 1362 C 121.109 -6.27695 1.10807 0
M  V30 1363 C 118.796 -6.09484 0.444058 0
M  V30 1364 C 119.794 -6.72719 1.18061 0
M  V30 1365 O 119.482 -7.79161 1.97898 0
M  V30 1366 H 119.214 -0.65494 -0.167422 0
M  V30 1367 H 121.768 -2.04886 0.145157 0
M  V30 1368 H 119.998 -3.23615 -2.11685 0
M  V30 1369 H 121.687 -3.59038 -1.89331 0
M  V30 1370 H 122.453 -4.84351 0.250776 0
M  V30 1371 H 118.332 -4.51509 -0.930638 0
M  V30 1372 H 121.876 -6.76982 1.68347 0
M  V30 1373 H 117.773 -6.43601 0.494803 0
M  V30 1374 H 118.541 -7.96055 1.90367 0
M  V30 1375 N 121.204 0.198386 -1.56346 0
M  V30 1376 C 122.152 1.26538 -1.95169 0
M  V30 1377 C 123.146 1.47295 -0.836685 0
M  V30 1378 O 124.352 1.48195 -1.02167 0
M  V30 1379 H 120.727 0.424744 -0.620561 0
M  V30 1380 H 122.698 0.910904 -2.84157 0
M  V30 1381 C 121.447 2.6035 -2.30463 0
M  V30 1382 H 120.77 2.45192 -3.15786 0
M  V30 1383 H 122.21 3.33762 -2.61494 0
M  V30 1384 C 120.669 3.17096 -1.13806 0
M  V30 1385 O 121.199 3.99588 -0.41135 0
M  V30 1386 N 119.405 2.75795 -0.915736 0
M  V30 1387 H 118.952 2.08816 -1.50843 0
M  V30 1388 H 118.91 3.14101 -0.136979 0
M  V30 1389 N 122.682 1.50554 0.465978 0
M  V30 1390 C 123.931 1.61038 1.21448 0
M  V30 1391 C 124.244 0.31865 1.92987 0
M  V30 1392 O 125.45 0.302469 2.6981 0
M  V30 1393 C 123.906 2.84283 2.20706 0
M  V30 1394 C 123.514 4.20352 1.54946 0
M  V30 1395 C 125.258 3.04115 2.96166 0
M  V30 1396 C 123.165 5.34778 2.5252 0
M  V30 1397 H 122.095 0.599718 0.457005 0
M  V30 1398 H 124.746 1.7699 0.484424 0
M  V30 1399 H 123.128 2.61901 2.97025 0
M  V30 1400 H 124.302 4.53008 0.843811 0
M  V30 1401 H 122.617 4.06167 0.917475 0
M  V30 1402 H 125.214 3.86774 3.69202 0
M  V30 1403 H 125.557 2.16045 3.55852 0
M  V30 1404 H 126.09 3.26702 2.26959 0
M  V30 1405 H 122.829 6.25018 1.97566 0
M  V30 1406 H 122.349 5.06534 3.21222 0
M  V30 1407 H 124.028 5.65561 3.14245 0
M  V30 1408 N 124.16 -0.719506 1.40217 0
M  V30 1409 C 125.406 -1.48152 1.38488 0
M  V30 1410 C 125.739 -1.94195 -0.0141867 0
M  V30 1411 O 125.014 -1.67884 -0.982096 0
M  V30 1412 C 125.297 -2.71035 2.37091 0
M  V30 1413 C 125.15 -2.30912 3.86005 0
M  V30 1414 C 126.469 -3.73182 2.33288 0
M  V30 1415 H 123.588 -0.537395 0.504357 0
M  V30 1416 H 126.23 -0.821472 1.71324 0
M  V30 1417 H 124.38 -3.27352 2.0922 0
M  V30 1418 H 126.052 -1.80107 4.24687 0
M  V30 1419 H 124.295 -1.62958 4.02029 0
M  V30 1420 H 124.966 -3.18978 4.50508 0
M  V30 1421 H 127.442 -3.26485 2.57966 0
M  V30 1422 H 126.318 -4.56806 3.04334 0
M  V30 1423 H 126.579 -4.21202 1.34317 0
M  V30 1424 N 125.638 -1.25649 -0.95132 0
M  V30 1425 C 126.863 -1.13443 -1.73624 0
M  V30 1426 C 127.288 0.307565 -1.85568 0
M  V30 1427 O 126.646 1.22282 -1.33854 0
M  V30 1428 C 126.694 -1.79723 -3.12621 0
M  V30 1429 O 125.798 -1.07912 -3.98031 0
M  V30 1430 H 125.139 -0.395872 -0.533086 0
M  V30 1431 H 127.669 -1.66276 -1.1922 0
M  V30 1432 H 127.679 -1.86141 -3.63064 0
M  V30 1433 H 126.354 -2.84633 -3.03244 0
M  V30 1434 H 124.931 -1.09398 -3.56492 0
M  V30 1435 N 127.117 1.15442 -1.07289 0
M  V30 1436 C 128.365 1.85845 -0.794096 0
M  V30 1437 C 128.686 1.82692 0.681809 0
M  V30 1438 O 127.956 1.26741 1.49377 0
M  V30 1439 H 126.536 0.688089 -0.290763 0
M  V30 1440 H 129.198 1.39947 -1.3565 0
M  V30 1441 H 128.294 2.91001 -1.12804 0
M  V30 1442 N 128.595 0.856903 1.32268 0
M  V30 1443 C 130.006 0.515711 1.79436 0
M  V30 1444 C 130.357 -0.966586 1.70738 0
M  V30 1445 O 129.482 -1.75409 1.26731 0
M  V30 1446 C 130.077 0.929335 3.25805 0
M  V30 1447 C 128.636 0.640006 3.70919 0
M  V30 1448 C 127.783 1.12784 2.53328 0
M  V30 1449 H 130.734 1.04389 1.19535 0
M  V30 1450 H 130.755 0.246633 3.797 0
M  V30 1451 H 130.267 2.00821 3.32103 0
M  V30 1452 H 128.368 -0.428051 3.70133 0
M  V30 1453 H 128.481 1.20788 4.63624 0
M  V30 1454 H 126.845 0.548033 2.48734 0
M  V30 1455 H 127.628 2.21387 2.62379 0
M  V30 1456 N 130.073 -1.45103 0.615059 0
M  V30 1457 C 131.484 -1.85654 0.197383 0
M  V30 1458 C 131.835 -1.51433 -1.24749 0
M  V30 1459 O 130.96 -0.944608 -1.94695 0
M  V30 1460 C 131.555 -3.36972 0.351448 0
M  V30 1461 C 130.114 -3.76398 -0.011593 0
M  V30 1462 C 129.261 -2.69024 0.672394 0
M  V30 1463 H 132.212 -1.35797 0.821263 0
M  V30 1464 H 132.233 -3.78239 -0.414227 0
M  V30 1465 H 131.745 -3.61847 1.40314 0
M  V30 1466 H 129.846 -3.5714 -1.06217 0
M  V30 1467 H 129.959 -4.77532 0.387265 0
M  V30 1468 H 128.323 -2.54465 0.109284 0
M  V30 1469 H 129.106 -2.96735 1.72636 0
M  V30 1470 N 131.551 -0.354651 -1.53558 0
M  V30 1471 C 132.776 0.242153 -2.05981 0
M  V30 1472 C 133.201 1.42553 -1.2272 0
M  V30 1473 O 132.559 1.79656 -0.243604 0
M  V30 1474 C 132.607 0.624367 -3.55154 0
M  V30 1475 O 131.711 1.72301 -3.74681 0
M  V30 1476 H 131.052 0.0378432 -0.662921 0
M  V30 1477 H 133.582 -0.512087 -1.98088 0
M  V30 1478 H 133.592 0.898433 -3.97985 0
M  V30 1479 H 132.267 -0.240989 -4.15201 0
M  V30 1480 H 130.844 1.44535 -3.4375 0
M  V30 1481 N 133.029 1.57378 -0.0835403 0
M  V30 1482 C 133.979 2.09916 0.889905 0
M  V30 1483 C 134.963 1.01151 1.25129 0
M  V30 1484 O 136.155 1.27443 1.2283 0
M  V30 1485 C 133.284 2.67379 2.15322 0
M  V30 1486 C 132.37 3.83167 1.81779 0
M  V30 1487 N 132.761 4.91665 1.18739 0
M  V30 1488 C 131.059 3.92685 2.11459 0
M  V30 1489 C 131.76 5.72409 1.0355 0
M  V30 1490 N 130.736 5.21062 1.54906 0
M  V30 1491 H 134.538 2.91188 0.398378 0
M  V30 1492 H 132.052 1.61956 0.120013 0
M  V30 1493 H 134.049 3.0334 2.8599 0
M  V30 1494 H 132.709 1.87558 2.65051 0
M  V30 1495 H 133.72 5.10784 0.855604 0
M  V30 1496 H 130.397 3.23856 2.63483 0
M  V30 1497 H 131.787 6.69699 0.543425 0
M  V30 1498 N 134.507 -0.190092 1.56449 0
M  V30 1499 C 135.454 -1.23557 1.94942 0
M  V30 1500 C 136.424 -1.44972 0.810696 0
M  V30 1501 O 137.609 -1.58023 1.06927 0
M  V30 1502 C 134.749 -2.57416 2.2985 0
M  V30 1503 C 133.862 -2.43537 3.5681 0
M  V30 1504 C 132.997 -3.70134 3.81017 0
M  V30 1505 C 132.036 -3.51109 5.01387 0
M  V30 1506 N 131.173 -4.6973 5.21822 0
M  V30 1507 H 136.013 -0.900304 2.84075 0
M  V30 1508 H 133.55 -0.43318 1.40577 0
M  V30 1509 H 135.508 -3.35409 2.48106 0
M  V30 1510 H 134.138 -2.88975 1.43852 0
M  V30 1511 H 133.19 -1.56816 3.46573 0
M  V30 1512 H 134.502 -2.25415 4.4496 0
M  V30 1513 H 133.656 -4.56566 3.9954 0
M  V30 1514 H 132.395 -3.91215 2.91207 0
M  V30 1515 H 131.4 -2.63063 4.82782 0
M  V30 1516 H 132.625 -3.31468 5.9271 0
M  V30 1517 H 130.571 -4.91065 4.34961 0
M  V30 1518 H 130.488 -4.54452 6.0416 0
M  V30 1519 H 131.756 -5.57499 5.44808 0
M  V30 1520 N 135.985 -1.50799 -0.457987 0
M  V30 1521 C 137.213 -1.66218 -1.23203 0
M  V30 1522 C 137.628 -0.350894 -1.85511 0
M  V30 1523 O 136.985 0.668546 -1.69814 0
M  V30 1524 C 137.036 -2.76291 -2.33121 0
M  V30 1525 O 136.757 -4.02338 -1.73366 0
M  V30 1526 C 138.258 -3.028 -3.2377 0
M  V30 1527 H 135.478 -0.558361 -0.372121 0
M  V30 1528 H 138.022 -1.97099 -0.545179 0
M  V30 1529 H 136.177 -2.48068 -2.97558 0
M  V30 1530 H 136.591 -4.63312 -2.4585 0
M  V30 1531 H 138.065 -3.8345 -3.97077 0
M  V30 1532 H 138.542 -2.14385 -3.83322 0
M  V30 1533 H 139.148 -3.32604 -2.65056 0
M  V30 1534 N 137.463 0.71206 -1.40597 0
M  V30 1535 C 138.709 1.47416 -1.39271 0
M  V30 1536 C 139.042 1.942 0.00388791 0
M  V30 1537 O 138.317 1.68403 0.973179 0
M  V30 1538 C 138.6 2.69774 -2.38525 0
M  V30 1539 C 138.453 2.28861 -3.87224 0
M  V30 1540 C 139.772 3.71939 -2.35264 0
M  V30 1541 H 136.891 0.534713 -0.5072 0
M  V30 1542 H 139.533 0.812375 -1.71757 0
M  V30 1543 H 137.683 3.26238 -2.10953 0
M  V30 1544 H 139.355 1.77852 -4.25636 0
M  V30 1545 H 137.598 1.60824 -4.02887 0
M  V30 1546 H 138.269 3.16584 -4.52193 0
M  V30 1547 H 140.745 3.25113 -2.59694 0
M  V30 1548 H 139.621 4.55186 -3.06753 0
M  V30 1549 H 139.882 4.20484 -1.36549 0
M  V30 1550 N 138.941 1.26152 0.944643 0
M  V30 1551 C 140.187 1.11657 1.69294 0
M  V30 1552 C 140.52 -0.339926 1.91202 0
M  V30 1553 O 139.795 -1.24994 1.49019 0
M  V30 1554 C 140.078 1.88236 3.06984 0
M  V30 1555 C 139.931 3.41772 2.92424 0
M  V30 1556 C 141.25 1.67343 4.07043 0
M  V30 1557 H 138.369 0.407004 0.614424 0
M  V30 1558 H 141.011 1.55106 1.09737 0
M  V30 1559 H 139.161 1.51308 3.57824 0
M  V30 1560 H 140.833 3.88433 2.48832 0
M  V30 1561 H 139.076 3.68974 2.28124 0
M  V30 1562 H 139.747 3.90579 3.90067 0
M  V30 1563 H 142.223 1.99509 3.65151 0
M  V30 1564 H 141.099 2.23346 5.01406 0
M  V30 1565 H 141.36 0.617158 4.37771 0
M  V30 1566 N 140.419 -1.14872 1.07899 0
M  V30 1567 C 141.367 -2.21857 0.698727 0
M  V30 1568 C 142.361 -1.66845 -0.293086 0
M  V30 1569 O 143.567 -1.79321 -0.156204 0
M  V30 1570 H 139.942 -0.722691 0.207899 0
M  V30 1571 H 141.913 -2.51205 1.61054 0
M  V30 1572 C 140.662 -3.47498 0.11858 0
M  V30 1573 H 139.985 -3.90154 0.872914 0
M  V30 1574 H 141.425 -4.23858 -0.109759 0
M  V30 1575 C 139.884 -3.16947 -1.1422 0
M  V30 1576 O 140.414 -3.3426 -2.22785 0
M  V30 1577 N 138.62 -2.70946 -1.05055 0
M  V30 1578 H 138.167 -2.57058 -0.167038 0
M  V30 1579 H 138.125 -2.50879 -1.89491 0
M  V30 1580 N 141.898 -0.863906 -1.31812 0
M  V30 1581 C 143.146 -0.470904 -1.96537 0
M  V30 1582 C 143.467 0.978771 -1.68657 0
M  V30 1583 O 142.737 1.6853 -0.998717 0
M  V30 1584 H 141.317 -0.171148 -0.72713 0
M  V30 1585 H 143.979 -1.10236 -1.60729 0
M  V30 1586 H 143.075 -0.623616 -3.05806 0
M  V30 1587 N 143.376 1.44774 -0.622745 0
M  V30 1588 C 144.323 2.30635 0.0871679 0
M  V30 1589 C 145.293 1.42994 0.845097 0
M  V30 1590 O 146.478 1.71907 0.827812 0
M  V30 1591 C 143.618 3.28144 1.06844 0
M  V30 1592 C 142.731 4.30888 0.309809 0
M  V30 1593 C 141.866 5.15494 1.28215 0
M  V30 1594 C 140.905 6.09953 0.512198 0
M  V30 1595 N 140.042 6.87287 1.43458 0
M  V30 1596 H 144.882 2.90803 -0.650974 0
M  V30 1597 H 142.419 1.43286 -0.33281 0
M  V30 1598 H 144.377 3.83157 1.65066 0
M  V30 1599 H 143.007 2.69695 1.77382 0
M  V30 1600 H 142.059 3.78414 -0.388181 0
M  V30 1601 H 143.371 4.97955 -0.290254 0
M  V30 1602 H 142.525 5.74983 1.93596 0
M  V30 1603 H 141.264 4.48481 1.91614 0
M  V30 1604 H 140.269 5.49581 -0.155151 0
M  V30 1605 H 141.494 6.78999 -0.116958 0
M  V30 1606 H 139.44 6.2295 2.05594 0
M  V30 1607 H 139.357 7.50763 0.888335 0
M  V30 1608 H 140.625 7.51306 2.07749 0
M  V30 1609 N 144.854 0.36279 1.53368 0
M  V30 1610 C 145.764 -0.492994 2.29362 0
M  V30 1611 C 146.78 -1.09507 1.35219 0
M  V30 1612 O 147.956 -1.10662 1.68273 0
M  V30 1613 C 145.021 -1.61855 3.066 0
M  V30 1614 C 144.082 -1.04429 4.16405 0
M  V30 1615 C 143.315 -2.11621 4.89951 0
M  V30 1616 O 143.538 -3.32684 4.63333 0
M  V30 1617 O 142.472 -1.74835 5.75948 0
M  V30 1618 H 146.298 0.125331 3.03441 0
M  V30 1619 H 143.883 0.127253 1.48857 0
M  V30 1620 H 145.765 -2.27302 3.54841 0
M  V30 1621 H 144.44 -2.22233 2.3536 0
M  V30 1622 H 143.347 -0.353819 3.72423 0
M  V30 1623 H 144.68 -0.485113 4.89804 0
M  V30 1624 N 146.332 -1.57332 0.0918853 0
M  V30 1625 C 147.572 -1.96117 -0.575988 0
M  V30 1626 C 147.936 -0.972499 -1.65549 0
M  V30 1627 O 149.137 -1.24872 -2.38034 0
M  V30 1628 C 147.408 -3.39407 -1.11973 0
M  V30 1629 S 148.967 -4.00185 -1.79992 0
M  V30 1630 H 145.785 -0.685682 -0.188045 0
M  V30 1631 H 148.387 -1.94755 0.170525 0
M  V30 1632 H 147.091 -4.09131 -0.322504 0
M  V30 1633 H 146.622 -3.44358 -1.90214 0
M  V30 1634 H 148.637 -3.88728 -3.08391 0
M  V30 1635 N 147.81 0.181792 -1.56548 0
M  V30 1636 C 149.059 0.898348 -1.8059 0
M  V30 1637 C 149.372 1.83862 -0.667379 0
M  V30 1638 O 150.578 2.59678 -0.792446 0
M  V30 1639 C 149.034 1.64791 -3.19956 0
M  V30 1640 C 148.642 0.751789 -4.41647 0
M  V30 1641 C 150.386 2.35331 -3.53298 0
M  V30 1642 C 148.293 1.50098 -5.72035 0
M  V30 1643 H 147.223 0.339194 -0.673397 0
M  V30 1644 H 149.874 0.151413 -1.82874 0
M  V30 1645 H 148.256 2.43921 -3.11959 0
M  V30 1646 H 149.43 -0.0018076 -4.608 0
M  V30 1647 H 147.745 0.156562 -4.16106 0
M  V30 1648 H 150.342 2.91958 -4.47956 0
M  V30 1649 H 150.685 3.10164 -2.77676 0
M  V30 1650 H 151.218 1.63154 -3.62803 0
M  V30 1651 H 147.957 0.795175 -6.50659 0
M  V30 1652 H 147.477 2.22817 -5.56878 0
M  V30 1653 H 149.156 2.05125 -6.13622 0
M  V30 1654 N 149.288 1.51039 0.449983 0
M  V30 1655 C 150.236 1.71995 1.5659 0
M  V30 1656 C 151.23 0.586029 1.5894 0
M  V30 1657 O 152.436 0.76709 1.62837 0
M  V30 1658 H 148.811 0.543233 0.520001 0
M  V30 1659 H 150.782 2.65562 1.36085 0
M  V30 1660 C 149.531 1.8506 2.9436 0
M  V30 1661 H 148.854 2.71712 2.93279 0
M  V30 1662 H 150.294 2.0374 3.71842 0
M  V30 1663 C 148.753 0.607277 3.31382 0
M  V30 1664 O 149.283 -0.243903 4.00959 0
M  V30 1665 N 147.489 0.455073 2.87015 0
M  V30 1666 H 147.036 1.14879 2.30566 0
M  V30 1667 H 146.994 -0.375611 3.12148 0
M  V30 1668 N 150.766 -0.704594 1.40972 0
M  V30 1669 C 152.013 -1.46458 1.39844 0
M  V30 1670 C 152.341 -1.94499 0.00447594 0
M  V30 1671 O 151.596 -1.69275 -0.982057 0
M  V30 1672 C 151.895 -2.698 2.34399 0
M  V30 1673 C 151.561 -2.40464 3.81429 0
M  V30 1674 C 150.223 -2.32174 4.21484 0
M  V30 1675 C 152.575 -2.16086 4.74296 0
M  V30 1676 C 149.903 -1.97589 5.52427 0
M  V30 1677 C 152.255 -1.83011 6.05549 0
M  V30 1678 C 150.919 -1.7321 6.44635 0
M  V30 1679 H 150.189 -0.535927 0.511725 0
M  V30 1680 H 152.836 -0.806124 1.73706 0
M  V30 1681 H 151.141 -3.40536 1.93759 0
M  V30 1682 H 152.838 -3.27919 2.30804 0
M  V30 1683 H 149.428 -2.47808 3.49699 0
M  V30 1684 H 153.612 -2.2144 4.4416 0
M  V30 1685 H 148.868 -1.88547 5.81601 0
M  V30 1686 H 153.042 -1.63164 6.77016 0
M  V30 1687 H 150.669 -1.46179 7.46013 0
M  V30 1688 N 152.244 -1.26651 -0.937939 0
M  V30 1689 C 153.207 -1.08546 -2.01867 0
M  V30 1690 C 154.207 -0.0327327 -1.60767 0
M  V30 1691 O 155.397 -0.276427 -1.71993 0
M  V30 1692 C 152.529 -0.651711 -3.34613 0
M  V30 1693 H 153.722 -2.04502 -2.1936 0
M  V30 1694 H 151.275 -1.09294 -1.11734 0
M  V30 1695 H 152.01 0.309696 -3.22818 0
M  V30 1696 H 151.795 -1.41189 -3.65798 0
M  V30 1697 H 153.285 -0.546973 -4.14002 0
M  V30 1698 N 153.722 1.14298 -1.08507 0
M  V30 1699 C 154.947 1.8976 -0.837001 0
M  V30 1700 C 155.372 1.78097 0.605228 0
M  V30 1701 O 154.73 1.12188 1.4242 0
M  V30 1702 C 154.778 3.37685 -1.26495 0
M  V30 1703 O 153.882 4.10281 -0.417514 0
M  V30 1704 H 153.223 0.590365 -0.303917 0
M  V30 1705 H 155.753 1.44672 -1.44676 0
M  V30 1706 H 155.763 3.88501 -1.24625 0
M  V30 1707 H 154.438 3.45492 -2.31534 0
M  V30 1708 H 153.015 3.69536 -0.499722 0
M  V30 1709 N 155.201 0.870884 1.31352 0
M  V30 1710 C 156.448 0.482273 1.96673 0
M  V30 1711 C 156.776 -0.965638 1.68836 0
M  V30 1712 O 156.031 -1.69514 0.977937 0
M  V30 1713 C 156.33 0.687157 3.50732 0
M  V30 1714 C 155.996 2.108 3.9859 0
M  V30 1715 C 154.658 2.49656 4.1137 0
M  V30 1716 C 157.01 3.03459 4.23748 0
M  V30 1717 C 154.338 3.80412 4.46659 0
M  V30 1718 C 156.69 4.3373 4.60501 0
M  V30 1719 C 155.354 4.725 4.71487 0
M  V30 1720 H 154.624 0.176476 0.719679 0
M  V30 1721 H 157.271 1.10405 1.56471 0
M  V30 1722 H 155.576 -0.0177476 3.91796 0
M  V30 1723 H 157.273 0.366284 3.99324 0
M  V30 1724 H 153.863 1.79633 3.8914 0
M  V30 1725 H 158.047 2.74665 4.13368 0
M  V30 1726 H 153.303 4.1021 4.53362 0
M  V30 1727 H 157.477 5.05578 4.78919 0
M  V30 1728 H 155.104 5.73859 4.98588 0
M  V30 1729 N 156.679 -1.44442 0.630414 0
M  V30 1730 C 157.627 -2.32437 -0.0871428 0
M  V30 1731 C 158.621 -1.47304 -0.836525 0
M  V30 1732 O 159.827 -1.63653 -0.749506 0
M  V30 1733 H 156.202 -0.750533 -0.0469495 0
M  V30 1734 H 158.173 -2.90709 0.673096 0
M  V30 1735 C 156.922 -3.31288 -1.05563 0
M  V30 1736 H 156.245 -3.96805 -0.488426 0
M  V30 1737 H 157.685 -3.9554 -1.52721 0
M  V30 1738 C 156.144 -2.6016 -2.14052 0
M  V30 1739 O 156.674 -2.39997 -3.22124 0
M  V30 1740 N 154.88 -2.19911 -1.89967 0
M  V30 1741 H 154.427 -2.36509 -1.02085 0
M  V30 1742 H 154.385 -1.72646 -2.62756 0
M  V30 1743 N 158.157 -0.370918 -1.53173 0
M  V30 1744 C 159.404 0.217102 -2.01333 0
M  V30 1745 C 159.732 1.48338 -1.25802 0
M  V30 1746 O 158.987 1.92698 -0.34146 0
M  V30 1747 C 159.286 0.549696 -3.53147 0
M  V30 1748 C 158.952 -0.622872 -4.46577 0
M  V30 1749 C 157.614 -0.944595 -4.71838 0
M  V30 1750 C 159.966 -1.40819 -5.01816 0
M  V30 1751 C 157.294 -2.05351 -5.49589 0
M  V30 1752 C 159.646 -2.50757 -5.80778 0
M  V30 1753 C 158.31 -2.83458 -6.04324 0
M  V30 1754 H 157.58 0.0794431 -0.736729 0
M  V30 1755 H 160.227 -0.504481 -1.84736 0
M  V30 1756 H 158.532 1.35237 -3.6772 0
M  V30 1757 H 160.229 1.017 -3.87889 0
M  V30 1758 H 156.819 -0.36209 -4.27068 0
M  V30 1759 H 161.003 -1.17289 -4.82242 0
M  V30 1760 H 156.259 -2.3108 -5.6605 0
M  V30 1761 H 160.433 -3.12022 -6.22588 0
M  V30 1762 H 158.06 -3.69508 -6.64355 0
M  V30 1763 N 159.635 1.57281 -0.100228 0
M  V30 1764 C 160.565 2.17328 0.853857 0
M  V30 1765 C 161.546 1.10804 1.2906 0
M  V30 1766 O 162.731 1.38963 1.35657 0
M  V30 1767 C 159.861 2.75772 2.11109 0
M  V30 1768 C 158.815 3.87713 1.81279 0
M  V30 1769 C 158.141 4.32882 3.13874 0
M  V30 1770 C 159.441 5.10677 1.09574 0
M  V30 1771 H 161.135 2.97305 0.353545 0
M  V30 1772 H 158.681 1.43009 0.168612 0
M  V30 1773 H 160.634 3.16433 2.78296 0
M  V30 1774 H 159.358 1.93057 2.63432 0
M  V30 1775 H 158.017 3.476 1.16489 0
M  V30 1776 H 157.665 3.47051 3.64095 0
M  V30 1777 H 157.365 5.08358 2.94696 0
M  V30 1778 H 158.889 4.7618 3.82211 0
M  V30 1779 H 160.303 5.48474 1.66879 0
M  V30 1780 H 158.7 5.91615 1.00557 0
M  V30 1781 H 159.77 4.84835 0.0793299 0
M  V30 1782 N 161.113 -0.173488 1.56642 0
M  V30 1783 C 162.361 -0.888706 1.81512 0
M  V30 1784 C 162.682 -1.82875 0.676872 0
M  V30 1785 O 161.952 -1.93536 -0.303414 0
M  V30 1786 H 160.532 -0.331164 0.669582 0
M  V30 1787 H 163.194 -0.173823 1.94123 0
M  V30 1788 H 162.29 -1.46691 2.75478 0
M  V30 1789 N 162.591 -1.51276 -0.441967 0
M  V30 1790 C 163.521 -1.752 -1.54361 0
M  V30 1791 C 164.502 -0.601682 -1.59103 0
M  V30 1792 O 165.687 -0.843913 -1.74905 0
M  V30 1793 C 162.817 -1.87282 -2.92477 0
M  V30 1794 C 161.771 -3.02687 -3.02596 0
M  V30 1795 C 161.097 -2.99947 -4.42647 0
M  V30 1796 C 162.397 -4.4273 -2.77106 0
M  V30 1797 H 164.091 -2.67442 -1.34592 0
M  V30 1798 H 161.637 -1.28694 -0.646048 0
M  V30 1799 H 163.59 -2.02602 -3.695 0
M  V30 1800 H 162.314 -0.916844 -3.13467 0
M  V30 1801 H 160.973 -2.87065 -2.28012 0
M  V30 1802 H 160.621 -2.02136 -4.60597 0
M  V30 1803 H 160.321 -3.77439 -4.50348 0
M  V30 1804 H 161.845 -3.17354 -5.2165 0
M  V30 1805 H 163.259 -4.58727 -3.43864 0
M  V30 1806 H 161.656 -5.21893 -2.96222 0
M  V30 1807 H 162.726 -4.53087 -1.72744 0
M  V30 1808 N 164.069 0.697108 -1.41344 0
M  V30 1809 C 164.999 1.82353 -1.45841 0
M  V30 1810 C 165.98 1.67115 -0.317247 0
M  V30 1811 O 167.165 1.86871 -0.528474 0
M  V30 1812 C 164.295 3.20476 -1.33838 0
M  V30 1813 C 163.249 3.50415 -2.4575 0
M  V30 1814 C 162.575 4.87878 -2.18813 0
M  V30 1815 C 163.875 3.49546 -3.88091 0
M  V30 1816 H 165.569 1.78846 -2.40113 0
M  V30 1817 H 163.115 0.859028 -1.15571 0
M  V30 1818 H 165.068 3.98988 -1.35596 0
M  V30 1819 H 163.792 3.24604 -0.360498 0
M  V30 1820 H 162.451 2.74253 -2.43271 0
M  V30 1821 H 162.099 4.8863 -1.19371 0
M  V30 1822 H 161.799 5.08875 -2.93803 0
M  V30 1823 H 163.323 5.68702 -2.22284 0
M  V30 1824 H 164.737 4.18066 -3.92293 0
M  V30 1825 H 163.134 3.82075 -4.62751 0
M  V30 1826 H 164.204 2.48552 -4.16353 0
M  V30 1827 N 165.547 1.27147 0.931209 0
M  V30 1828 C 166.824 1.0401 1.65654 0
M  V30 1829 C 167.204 -0.426297 2.06751 0
M  V30 1830 O 166.552 -1.40879 1.79904 0
M  V30 1831 C 166.762 1.99834 2.86125 0
M  V30 1832 C 168.11 2.29007 3.57549 0
M  V30 1833 O 169.134 1.97779 2.96246 0
M  V30 1834 O 167.993 2.82222 4.67989 0
M  V30 1835 H 165.087 0.396239 0.725895 0
M  V30 1836 H 167.633 1.38397 0.982056 0
M  V30 1837 H 166.405 2.98744 2.52721 0
M  V30 1838 H 166.028 1.65987 3.61295 0
M  V30 1839 N 167.025 -1.13721 1.09112 0
M  V30 1840 C 167.973 -2.21103 0.722219 0
M  V30 1841 C 168.967 -1.67147 -0.275374 0
M  V30 1842 O 170.173 -1.79477 -0.137176 0
M  V30 1843 H 166.548 -0.720445 0.215553 0
M  V30 1844 H 168.519 -2.49483 1.63709 0
M  V30 1845 C 167.268 -3.47352 0.15543 0
M  V30 1846 H 166.591 -3.89206 0.914246 0
M  V30 1847 H 168.031 -4.2395 -0.0647967 0
M  V30 1848 C 166.49 -3.1814 -1.10852 0
M  V30 1849 O 167.02 -3.36604 -2.19227 0
M  V30 1850 N 165.226 -2.72045 -1.02176 0
M  V30 1851 H 164.773 -2.57221 -0.139764 0
M  V30 1852 H 164.731 -2.52875 -1.8682 0
M  V30 1853 N 168.503 -0.877838 -1.30888 0
M  V30 1854 C 169.914 -0.544193 -1.78593 0
M  V30 1855 C 170.265 0.939301 -1.72254 0
M  V30 1856 O 169.39 1.7337 -1.29505 0
M  V30 1857 C 169.985 -0.98105 -3.24285 0
M  V30 1858 C 168.544 -0.698935 -3.69854 0
M  V30 1859 C 167.691 -1.168 -2.51502 0
M  V30 1860 H 170.642 -1.06278 -1.17859 0
M  V30 1861 H 170.663 -0.307009 -3.79259 0
M  V30 1862 H 170.175 -2.06079 -3.28866 0
M  V30 1863 H 168.276 0.369112 -3.70767 0
M  V30 1864 H 168.389 -1.28148 -4.61644 0
M  V30 1865 H 166.753 -0.587535 -2.47831 0
M  V30 1866 H 167.536 -2.25533 -2.58824 0
M  V30 1867 N 169.982 1.44106 -0.638065 0
M  V30 1868 C 171.398 1.56672 -0.304286 0
M  V30 1869 C 171.598 1.6244 1.19228 0
M  V30 1870 O 170.654 1.57121 1.9766 0
M  V30 1871 C 171.967 2.83503 -1.00231 0
M  V30 1872 C 173.515 2.97226 -0.981116 0
M  V30 1873 C 173.99 4.26868 -1.65974 0
M  V30 1874 N 175.481 4.33698 -1.62666 0
M  V30 1875 C 176.216 5.32745 -2.12063 0
M  V30 1876 N 175.712 6.38157 -2.6968 0
M  V30 1877 N 177.505 5.24299 -2.02651 0
M  V30 1878 H 169.656 1.38605 -1.60942 0
M  V30 1879 H 171.919 0.664661 -0.675965 0
M  V30 1880 H 171.625 2.85251 -2.0573 0
M  V30 1881 H 171.499 3.73251 -0.54439 0
M  V30 1882 H 173.886 2.95027 0.0654188 0
M  V30 1883 H 173.967 2.08808 -1.47759 0
M  V30 1884 H 173.611 4.29826 -2.70576 0
M  V30 1885 H 173.541 5.14156 -1.13804 0
M  V30 1886 H 176.032 3.58138 -1.20606 0
M  V30 1887 H 176.345 7.10029 -3.05087 0
M  V30 1888 H 174.69 6.38823 -2.73734 0
M  V30 1889 H 177.881 4.4086 -1.57353 0
M  V30 1890 H 178.054 6.01334 -2.41457 0
M  V30 1891 N 171.46 0.379036 1.52974 0
M  V30 1892 C 172.706 -0.206727 2.01744 0
M  V30 1893 C 173.039 -1.47314 1.26539 0
M  V30 1894 O 172.314 -1.91084 0.362903 0
M  V30 1895 C 172.597 -0.485066 3.56818 0
M  V30 1896 C 172.45 0.795919 4.42702 0
M  V30 1897 C 173.769 -1.28003 4.21074 0
M  V30 1898 H 170.888 -0.0736607 0.73331 0
M  V30 1899 H 173.53 0.506581 1.83122 0
M  V30 1900 H 171.68 -1.09272 3.72816 0
M  V30 1901 H 173.352 1.43307 4.38476 0
M  V30 1902 H 171.595 1.41344 4.10127 0
M  V30 1903 H 172.266 0.555947 5.49193 0
M  V30 1904 H 174.742 -0.765867 4.08991 0
M  V30 1905 H 173.618 -1.44352 5.29579 0
M  V30 1906 H 173.879 -2.29236 3.78026 0
M  V30 1907 N 172.938 -1.57226 0.108567 0
M  V30 1908 C 173.885 -2.14756 -0.845481 0
M  V30 1909 C 174.855 -1.06971 -1.27068 0
M  V30 1910 O 176.04 -1.34827 -1.35005 0
M  V30 1911 C 173.18 -2.74298 -2.09415 0
M  V30 1912 C 172.293 -3.96358 -1.71826 0
M  V30 1913 C 171.428 -4.44021 -2.9158 0
M  V30 1914 C 170.467 -5.58637 -2.50181 0
M  V30 1915 N 169.604 -6.01091 -3.62814 0
M  V30 1916 H 174.444 -2.95961 -0.348035 0
M  V30 1917 H 171.981 -1.46226 -0.160106 0
M  V30 1918 H 173.939 -3.06945 -2.82561 0
M  V30 1919 H 172.569 -1.95801 -2.56636 0
M  V30 1920 H 171.621 -3.69939 -0.885947 0
M  V30 1921 H 172.933 -4.79504 -1.37394 0
M  V30 1922 H 172.087 -4.78522 -3.72963 0
M  V30 1923 H 170.826 -3.59803 -3.29231 0
M  V30 1924 H 169.831 -5.23751 -1.67228 0
M  V30 1925 H 171.056 -6.44613 -2.13659 0
M  V30 1926 H 169.002 -5.19817 -4.00158 0
M  V30 1927 H 168.919 -6.79066 -3.32273 0
M  V30 1928 H 170.187 -6.40227 -4.44668 0
M  V30 1929 N 174.416 0.165178 -1.56732 0
M  V30 1930 C 175.379 1.18822 -1.95995 0
M  V30 1931 C 176.379 1.3685 -0.84431 0
M  V30 1932 O 177.569 1.34152 -1.11126 0
M  V30 1933 C 174.701 2.5521 -2.26011 0
M  V30 1934 H 175.894 0.851825 -2.87548 0
M  V30 1935 H 173.447 0.407857 -1.50885 0
M  V30 1936 H 174.182 2.93852 -1.37191 0
M  V30 1937 H 173.967 2.43489 -3.07336 0
M  V30 1938 H 175.457 3.28927 -2.57288 0
M  V30 1939 N 175.894 1.51508 0.433938 0
M  V30 1940 C 176.857 1.72473 1.50949 0
M  V30 1941 C 177.857 0.594725 1.49398 0
M  V30 1942 O 179.047 0.862315 1.5136 0
M  V30 1943 C 176.179 1.78431 2.90474 0
M  V30 1944 H 177.372 2.68467 1.33662 0
M  V30 1945 H 174.925 1.41549 0.662836 0
M  V30 1946 H 175.66 0.842645 3.13161 0
M  V30 1947 H 175.445 2.60558 2.93005 0
M  V30 1948 H 176.935 1.96479 3.68491 0
M  V30 1949 N 177.372 -0.689602 1.41712 0
M  V30 1950 C 178.335 -1.78521 1.43746 0
M  V30 1951 C 179.335 -1.57436 0.327191 0
M  V30 1952 O 180.525 -1.64 0.587348 0
M  V30 1953 C 177.657 -3.16971 1.25467 0
M  V30 1954 H 178.85 -1.78108 2.41283 0
M  V30 1955 H 176.403 -0.89781 1.27942 0
M  V30 1956 H 177.138 -3.23019 0.287948 0
M  V30 1957 H 176.923 -3.33678 2.05917 0
M  V30 1958 H 178.413 -3.96935 1.2974 0
M  V30 1959 N 178.85 -1.27639 -0.924453 0
M  V30 1960 C 179.78 -1.13166 -2.04244 0
M  V30 1961 C 180.761 -0.032256 -1.70069 0
M  V30 1962 O 181.946 -0.207328 -1.9309 0
M  V30 1963 C 179.076 -0.781496 -3.38393 0
M  V30 1964 C 178.03 -1.83449 -3.86692 0
M  V30 1965 C 177.356 -1.33822 -5.17683 0
M  V30 1966 C 178.656 -3.23917 -4.09726 0
M  V30 1967 H 180.35 -2.06689 -2.1661 0
M  V30 1968 H 177.896 -0.995136 -1.04082 0
M  V30 1969 H 179.849 -0.667057 -4.16087 0
M  V30 1970 H 178.573 0.189439 -3.2605 0
M  V30 1971 H 177.232 -1.93789 -3.11193 0
M  V30 1972 H 176.88 -0.35665 -5.01734 0
M  V30 1973 H 176.58 -2.04224 -5.50968 0
M  V30 1974 H 178.104 -1.23679 -5.97943 0
M  V30 1975 H 179.518 -3.16559 -4.77978 0
M  V30 1976 H 177.915 -3.92059 -4.54324 0
M  V30 1977 H 178.985 -3.68729 -3.14908 0
M  V30 1978 N 180.328 1.1314 -1.09713 0
M  V30 1979 C 181.291 2.16831 -0.742751 0
M  V30 1980 C 182.291 1.59159 0.229129 0
M  V30 1981 O 183.481 1.74199 0.00693237 0
M  V30 1982 C 180.613 3.40756 -0.0989168 0
M  V30 1983 H 181.806 2.49695 -1.66109 0
M  V30 1984 H 179.359 1.2802 -0.896699 0
M  V30 1985 H 180.094 3.13485 0.830514 0
M  V30 1986 H 179.879 3.83888 -0.798265 0
M  V30 1987 H 181.369 4.17386 0.133524 0
M  V30 1988 N 181.806 0.884767 1.30421 0
M  V30 1989 C 183.031 0.517288 2.00845 0
M  V30 1990 C 183.456 -0.886779 1.65885 0
M  V30 1991 O 182.814 -1.58768 0.875354 0
M  V30 1992 C 182.862 0.698994 3.5376 0
M  V30 1993 O 181.966 -0.255208 4.1161 0
M  V30 1994 H 181.307 0.203872 0.631927 0
M  V30 1995 H 183.837 1.19225 1.66272 0
M  V30 1996 H 183.847 0.597912 4.03595 0
M  V30 1997 H 182.522 1.72271 3.78544 0
M  V30 1998 H 181.099 -0.10784 3.72744 0
M  V30 1999 N 183.284 -1.43765 0.645699 0
M  V30 2000 C 184.214 -2.33471 -0.0370477 0
M  V30 2001 C 185.195 -1.49042 -0.819779 0
M  V30 2002 O 186.38 -1.77726 -0.782758 0
M  V30 2003 C 183.51 -3.32311 -1.0093 0
M  V30 2004 C 182.464 -4.2667 -0.337201 0
M  V30 2005 C 181.79 -5.1549 -1.42037 0
M  V30 2006 C 183.09 -5.16657 0.765706 0
M  V30 2007 H 184.784 -2.90809 0.712069 0
M  V30 2008 H 182.33 -1.39834 0.343876 0
M  V30 2009 H 184.283 -3.9396 -1.49578 0
M  V30 2010 H 183.007 -2.73213 -1.78948 0
M  V30 2011 H 181.666 -3.66374 0.128771 0
M  V30 2012 H 181.314 -4.52735 -2.1918 0
M  V30 2013 H 181.014 -5.79438 -0.975966 0
M  V30 2014 H 182.538 -5.80012 -1.90838 0
M  V30 2015 H 183.952 -5.72158 0.361702 0
M  V30 2016 H 182.349 -5.89286 1.13413 0
M  V30 2017 H 183.419 -4.56796 1.62683 0
M  V30 2018 N 184.763 -0.387143 -1.52771 0
M  V30 2019 C 185.71 0.449048 -2.26389 0
M  V30 2020 C 186.68 1.05961 -1.27912 0
M  V30 2021 O 187.865 1.08804 -1.56737 0
M  V30 2022 C 185.005 1.57155 -3.0724 0
M  V30 2023 C 184.118 0.984066 -4.20643 0
M  V30 2024 C 183.253 2.07745 -4.88892 0
M  V30 2025 C 182.292 1.46574 -5.94292 0
M  V30 2026 N 181.429 2.49834 -6.56146 0
M  V30 2027 H 186.269 -0.185205 -2.97424 0
M  V30 2028 H 183.806 -0.103164 -1.46738 0
M  V30 2029 H 185.764 2.23309 -3.52405 0
M  V30 2030 H 184.394 2.17615 -2.38419 0
M  V30 2031 H 183.446 0.212193 -3.79808 0
M  V30 2032 H 184.758 0.497029 -4.96318 0
M  V30 2033 H 183.912 2.81673 -5.3735 0
M  V30 2034 H 182.651 2.59807 -4.12737 0
M  V30 2035 H 181.656 0.711696 -5.45174 0
M  V30 2036 H 182.881 0.953088 -6.72379 0
M  V30 2037 H 180.827 3.0107 -5.82832 0
M  V30 2038 H 180.744 2.05879 -7.27427 0
M  V30 2039 H 182.012 3.23399 -7.09249 0
M  V30 2040 N 186.241 1.57166 -0.116904 0
M  V30 2041 C 187.188 2.15202 0.83408 0
M  V30 2042 C 188.158 1.07644 1.26499 0
M  V30 2043 O 189.343 1.35541 1.34288 0
M  V30 2044 C 186.483 2.75405 2.07957 0
M  V30 2045 C 185.596 3.97264 1.69721 0
M  V30 2046 C 184.731 4.45561 2.89221 0
M  V30 2047 C 183.77 5.59956 2.47215 0
M  V30 2048 N 182.907 6.03006 3.59622 0
M  V30 2049 H 187.747 2.96141 0.332335 0
M  V30 2050 H 185.284 1.46309 0.152349 0
M  V30 2051 H 187.242 3.08439 2.80929 0
M  V30 2052 H 185.872 1.97159 2.55594 0
M  V30 2053 H 184.924 3.70404 0.866316 0
M  V30 2054 H 186.236 4.80226 1.34849 0
M  V30 2055 H 185.39 4.80493 3.7042 0
M  V30 2056 H 184.129 3.61544 3.27318 0
M  V30 2057 H 183.134 5.2463 1.64448 0
M  V30 2058 H 184.359 6.45738 2.10238 0
M  V30 2059 H 182.305 5.21931 3.97396 0
M  V30 2060 H 182.222 6.80819 3.28667 0
M  V30 2061 H 183.49 6.42576 4.41267 0
M  V30 2062 N 187.719 -0.156864 1.56817 0
M  V30 2063 C 188.949 -0.885031 1.86684 0
M  V30 2064 C 189.357 -1.75696 0.701954 0
M  V30 2065 O 188.7 -1.80569 -0.337732 0
M  V30 2066 C 188.762 -1.80092 3.11138 0
M  V30 2067 C 188.426 -1.10714 4.43386 0
M  V30 2068 C 189.423 -0.465714 5.1781 0
M  V30 2069 C 187.108 -1.09959 4.90117 0
M  V30 2070 C 189.102 0.174002 6.37162 0
M  V30 2071 C 186.789 -0.456055 6.09396 0
M  V30 2072 C 187.787 0.179622 6.82764 0
M  V30 2073 O 187.475 0.812975 7.99779 0
M  V30 2074 H 187.207 -0.261813 0.623242 0
M  V30 2075 H 189.761 -0.157383 2.04796 0
M  V30 2076 H 187.991 -2.56926 2.89009 0
M  V30 2077 H 189.68 -2.40018 3.27332 0
M  V30 2078 H 190.446 -0.463427 4.82781 0
M  V30 2079 H 186.325 -1.58378 4.3294 0
M  V30 2080 H 189.869 0.670765 6.94368 0
M  V30 2081 H 185.766 -0.455975 6.43888 0
M  V30 2082 H 186.534 0.71366 8.15383 0
M  V30 2083 N 189.197 -1.51736 -0.425897 0
M  V30 2084 C 190.445 -1.64644 -1.17204 0
M  V30 2085 C 190.766 -0.370486 -1.91448 0
M  V30 2086 O 190.036 0.614088 -1.86026 0
M  V30 2087 H 188.616 -0.606819 -0.435638 0
M  V30 2088 H 191.278 -1.88713 -0.487177 0
M  V30 2089 H 190.374 -2.47958 -1.89534 0
M  V30 2090 N 190.675 0.682077 -1.42076 0
M  V30 2091 C 191.921 1.44428 -1.42367 0
M  V30 2092 C 192.254 1.94164 -0.0373056 0
M  V30 2093 O 191.529 1.70429 0.937239 0
M  V30 2094 C 191.812 2.64654 -2.44194 0
M  V30 2095 C 191.665 2.20596 -3.91991 0
M  V30 2096 C 192.984 3.66865 -2.431 0
M  V30 2097 H 190.103 0.523834 -0.518428 0
M  V30 2098 H 192.745 0.77576 -1.73442 0
M  V30 2099 H 190.895 3.2169 -2.17826 0
M  V30 2100 H 192.567 1.68783 -4.29313 0
M  V30 2101 H 190.81 1.52242 -4.06208 0
M  V30 2102 H 191.481 3.06921 -4.58807 0
M  V30 2103 H 193.957 3.19531 -2.66532 0
M  V30 2104 H 192.833 4.48577 -3.16339 0
M  V30 2105 H 193.094 4.17493 -1.45437 0
M  V30 2106 N 192.153 1.28127 0.917671 0
M  V30 2107 C 193.401 1.14825 1.66312 0
M  V30 2108 C 193.722 -0.304379 1.9261 0
M  V30 2109 O 192.992 -1.21149 1.53947 0
M  V30 2110 H 191.572 0.421953 0.616413 0
M  V30 2111 H 194.234 1.608 1.10134 0
M  V30 2112 H 193.33 1.68489 2.62712 0
M  V30 2113 N 193.631 -1.12557 1.10312 0
M  V30 2114 C 194.859 -1.87864 0.866873 0
M  V30 2115 C 195.274 -1.79588 -0.582557 0
M  V30 2116 O 194.631 -1.16887 -1.40156 0
M  V30 2117 C 194.682 -3.37125 1.30496 0
M  V30 2118 O 194.403 -3.45201 2.69755 0
M  V30 2119 C 195.904 -4.29373 1.10243 0
M  V30 2120 H 193.124 -0.594452 0.311236 0
M  V30 2121 H 195.668 -1.42429 1.46745 0
M  V30 2122 H 193.823 -3.80109 0.748081 0
M  V30 2123 H 194.237 -4.38056 2.88457 0
M  V30 2124 H 195.711 -5.32394 1.45811 0
M  V30 2125 H 196.188 -4.39181 0.0409492 0
M  V30 2126 H 196.794 -3.92169 1.64571 0
M  V30 2127 N 195.109 -0.891671 -1.2995 0
M  V30 2128 C 196.349 -0.520296 -1.97667 0
M  V30 2129 C 196.713 0.914797 -1.68806 0
M  V30 2130 O 197.914 1.39263 -2.29911 0
M  V30 2131 C 196.185 -0.795222 -3.48441 0
M  V30 2132 S 197.744 -0.526953 -4.35624 0
M  V30 2133 H 194.562 -0.19333 -0.684211 0
M  V30 2134 H 197.164 -1.15238 -1.57926 0
M  V30 2135 H 195.868 -1.83805 -3.66938 0
M  V30 2136 H 195.399 -0.15095 -3.9311 0
M  V30 2137 H 197.414 0.631533 -4.92165 0
M  V30 2138 N 196.587 1.43421 -0.653314 0
M  V30 2139 C 197.835 2.01414 -0.166415 0
M  V30 2140 C 198.156 1.51803 1.22397 0
M  V30 2141 O 197.426 0.730693 1.81763 0
M  V30 2142 H 196.006 0.744703 -0.0585319 0
M  V30 2143 H 198.668 1.75629 -0.845003 0
M  V30 2144 H 197.764 3.11734 -0.151111 0
M  V30 2145 N 198.065 0.39524 1.52563 0
M  V30 2146 C 199.476 -0.0774719 1.86539 0
M  V30 2147 C 199.827 -1.45641 1.31466 0
M  V30 2148 O 198.952 -2.06459 0.648367 0
M  V30 2149 C 199.547 -0.147356 3.38479 0
M  V30 2150 C 198.106 -0.564373 3.72145 0
M  V30 2151 C 197.253 0.269919 2.75983 0
M  V30 2152 H 200.204 0.612876 1.46388 0
M  V30 2153 H 200.225 -0.965343 3.68051 0
M  V30 2154 H 199.737 0.856387 3.78534 0
M  V30 2155 H 197.838 -1.57527 3.37663 0
M  V30 2156 H 197.951 -0.318402 4.78041 0
M  V30 2157 H 196.315 -0.265696 2.5331 0
M  V30 2158 H 197.098 1.27175 3.18875 0
M  V30 2159 N 199.544 -1.57102 0.125237 0
M  V30 2160 C 200.96 -1.57915 -0.231322 0
M  V30 2161 C 201.16 -1.13833 -1.66266 0
M  V30 2162 O 200.216 -0.828581 -2.38518 0
M  V30 2163 C 201.529 -3.00699 0.00766489 0
M  V30 2164 C 203.077 -3.12947 -0.0577483 0
M  V30 2165 C 203.552 -4.57742 0.153626 0
M  V30 2166 N 205.043 -4.63092 0.0998073 0
M  V30 2167 C 205.778 -5.72905 0.238174 0
M  V30 2168 N 205.274 -6.91445 0.433057 0
M  V30 2169 N 207.067 -5.6182 0.177308 0
M  V30 2170 H 199.218 -1.84055 1.06007 0
M  V30 2171 H 201.481 -0.850905 0.417929 0
M  V30 2172 H 201.187 -3.3726 0.997431 0
M  V30 2173 H 201.061 -3.70236 -0.721452 0
M  V30 2174 H 203.448 -2.7624 -1.03804 0
M  V30 2175 H 203.529 -2.4594 0.70335 0
M  V30 2176 H 203.173 -4.95149 1.13092 0
M  V30 2177 H 203.103 -5.22848 -0.627534 0
M  V30 2178 H 205.594 -3.77871 -0.047051 0
M  V30 2179 H 205.907 -7.70985 0.529332 0
M  V30 2180 H 204.252 -6.93415 0.469109 0
M  V30 2181 H 207.443 -4.68093 0.0259748 0
M  V30 2182 H 207.616 -6.47357 0.288582 0
M  V30 2183 N 201.022 0.148545 -1.56898 0
M  V30 2184 C 202.27 0.859717 -1.82902 0
M  V30 2185 C 202.591 1.81775 -0.70588 0
M  V30 2186 O 201.861 1.93994 0.272586 0
M  V30 2187 H 200.441 0.320469 -0.674766 0
M  V30 2188 H 203.103 0.142918 -1.94375 0
M  V30 2189 H 202.199 1.4229 -2.77777 0
M  V30 2190 N 202.5 1.5196 0.417844 0
M  V30 2191 C 203.747 1.65591 1.16559 0
M  V30 2192 C 204.075 0.381565 1.90721 0
M  V30 2193 O 203.33 -0.635156 1.85106 0
M  V30 2194 C 203.629 2.82269 2.19223 0
M  V30 2195 C 203.295 4.20819 1.61933 0
M  V30 2196 C 201.957 4.58506 1.46033 0
M  V30 2197 C 204.309 5.07196 1.20008 0
M  V30 2198 C 201.637 5.80257 0.867113 0
M  V30 2199 C 203.989 6.29544 0.621086 0
M  V30 2200 C 202.653 6.65987 0.449144 0
M  V30 2201 H 201.923 0.605939 0.42652 0
M  V30 2202 H 204.57 1.86041 0.45397 0
M  V30 2203 H 202.875 2.56118 2.96498 0
M  V30 2204 H 204.572 2.90012 2.76936 0
M  V30 2205 H 201.162 3.91116 1.7529 0
M  V30 2206 H 205.346 4.7867 1.31105 0
M  V30 2207 H 200.602 6.07124 0.721833 0
M  V30 2208 H 204.776 6.95805 0.287798 0
M  V30 2209 H 202.403 7.60199 -0.012632 0
M  V30 2210 N 203.978 -0.674533 1.42435 0
M  V30 2211 C 205.208 -1.46071 1.46105 0
M  V30 2212 C 205.616 -1.89067 0.0709605 0
M  V30 2213 O 204.959 -1.58731 -0.924677 0
M  V30 2214 C 205.021 -2.74145 2.32561 0
M  V30 2215 C 204.685 -2.53224 3.8043 0
M  V30 2216 C 205.682 -2.17809 4.72075 0
M  V30 2217 C 203.367 -2.6821 4.24698 0
M  V30 2218 C 205.361 -1.97648 6.05982 0
M  V30 2219 C 203.048 -2.47665 5.58664 0
M  V30 2220 C 204.046 -2.12437 6.49122 0
M  V30 2221 O 203.734 -1.9209 7.80613 0
M  V30 2222 H 203.466 -0.455959 0.499076 0
M  V30 2223 H 206.02 -0.836193 1.87609 0
M  V30 2224 H 204.25 -3.3908 1.85908 0
M  V30 2225 H 205.939 -3.36028 2.27683 0
M  V30 2226 H 206.705 -2.05826 4.39159 0
M  V30 2227 H 202.584 -2.94609 3.54579 0
M  V30 2228 H 206.128 -1.70075 6.7655 0
M  V30 2229 H 202.025 -2.59244 5.91154 0
M  V30 2230 H 202.793 -2.06686 7.91974 0
M  V30 2231 N 205.456 -1.28612 -0.910864 0
M  V30 2232 C 206.704 -1.15705 -1.65701 0
M  V30 2233 C 207.025 0.29416 -1.92769 0
M  V30 2234 O 206.295 1.20331 -1.54588 0
M  V30 2235 H 204.875 -0.425216 -0.614167 0
M  V30 2236 H 207.537 -1.61381 -1.0928 0
M  V30 2237 H 206.633 -1.6988 -2.61815 0
M  V30 2238 N 206.934 1.1197 -1.10907 0
M  V30 2239 C 208.162 1.87402 -0.876824 0
M  V30 2240 C 208.577 1.79894 0.573025 0
M  V30 2241 O 207.934 1.17629 1.39534 0
M  V30 2242 C 207.985 3.36428 -1.32282 0
M  V30 2243 O 207.706 3.43765 -2.71582 0
M  V30 2244 C 209.207 4.28783 -1.12518 0
M  V30 2245 H 206.427 0.592793 -0.314384 0
M  V30 2246 H 208.971 1.41649 -1.47499 0
M  V30 2247 H 207.126 3.79706 -0.768229 0
M  V30 2248 H 207.54 4.3652 -2.90776 0
M  V30 2249 H 209.014 5.31613 -1.48633 0
M  V30 2250 H 209.491 4.39153 -0.0642394 0
M  V30 2251 H 210.097 3.91291 -1.66648 0
M  V30 2252 N 208.412 0.89855 1.29475 0
M  V30 2253 C 209.659 0.523882 1.95606 0
M  V30 2254 C 209.987 -0.929608 1.70847 0
M  V30 2255 O 209.242 -1.67401 1.01367 0
M  V30 2256 C 209.541 0.761398 3.49195 0
M  V30 2257 C 209.207 2.19207 3.94029 0
M  V30 2258 C 207.869 2.58326 4.05982 0
M  V30 2259 C 210.221 3.12379 4.17216 0
M  V30 2260 C 207.549 3.898 4.38489 0
M  V30 2261 C 209.901 4.43401 4.51197 0
M  V30 2262 C 208.565 4.82394 4.61359 0
M  V30 2263 H 207.835 0.191702 0.715773 0
M  V30 2264 H 210.482 1.13699 1.54094 0
M  V30 2265 H 208.787 0.0653622 3.91745 0
M  V30 2266 H 210.484 0.450904 3.98457 0
M  V30 2267 H 207.074 1.87846 3.85242 0
M  V30 2268 H 211.258 2.83371 4.07449 0
M  V30 2269 H 206.514 4.19734 4.44559 0
M  V30 2270 H 210.688 5.15623 4.68087 0
M  V30 2271 H 208.315 5.84306 4.86303 0
M  V30 2272 N 209.89 -1.43072 0.660911 0
M  V30 2273 C 211.167 -1.95307 0.107017 0
M  V30 2274 C 211.547 -1.60192 -1.37484 0
M  V30 2275 O 210.895 -0.890949 -2.10415 0
M  V30 2276 C 211.105 -3.47124 0.361402 0
M  V30 2277 C 212.453 -4.23738 0.270455 0
M  V30 2278 O 213.477 -3.54981 0.294382 0
M  V30 2279 O 212.336 -5.46131 0.200737 0
M  V30 2280 H 209.43 -0.826984 -0.00517729 0
M  V30 2281 H 211.976 -1.52972 0.734681 0
M  V30 2282 H 210.748 -3.65837 1.38848 0
M  V30 2283 H 210.371 -3.96475 -0.298953 0
M  V30 2284 N 211.368 -0.403325 -1.52352 0
M  V30 2285 C 212.614 0.174605 -2.02047 0
M  V30 2286 C 212.947 1.45282 -1.28867 0
M  V30 2287 O 212.222 1.90483 -0.393257 0
M  V30 2288 C 212.505 0.428238 -3.57545 0
M  V30 2289 C 212.358 -0.866248 -4.4138 0
M  V30 2290 C 213.677 1.21287 -4.23057 0
M  V30 2291 H 210.796 0.0619851 -0.734389 0
M  V30 2292 H 213.438 -0.53565 -1.82293 0
M  V30 2293 H 211.588 1.03327 -3.74507 0
M  V30 2294 H 213.26 -1.50265 -4.3614 0
M  V30 2295 H 211.503 -1.47851 -4.07827 0
M  V30 2296 H 212.174 -0.643249 -5.48239 0
M  V30 2297 H 214.65 0.700703 -4.10158 0
M  V30 2298 H 213.526 1.35909 -5.31808 0
M  V30 2299 H 213.787 2.23193 -3.81625 0
M  V30 2300 N 212.846 1.57033 -0.133567 0
M  V30 2301 C 213.796 2.12641 0.822671 0
M  V30 2302 C 214.78 1.05081 1.21847 0
M  V30 2303 O 215.972 1.31287 1.18713 0
M  V30 2304 C 213.101 2.74094 2.06706 0
M  V30 2305 C 212.187 3.88757 1.69497 0
M  V30 2306 N 212.578 4.95194 1.03037 0
M  V30 2307 C 210.876 3.99213 1.98859 0
M  V30 2308 C 211.577 5.75414 0.852873 0
M  V30 2309 N 210.553 5.25726 1.3825 0
M  V30 2310 H 214.355 2.92308 0.305537 0
M  V30 2311 H 211.869 1.62256 0.0684276 0
M  V30 2312 H 213.866 3.12285 2.76195 0
M  V30 2313 H 212.526 1.95896 2.5895 0
M  V30 2314 H 213.537 5.13247 0.692669 0
M  V30 2315 H 210.214 3.32075 2.53047 0
M  V30 2316 H 211.604 6.71089 0.330091 0
M  V30 2317 N 214.325 -0.140222 1.56975 0
M  V30 2318 C 215.255 -1.17456 2.01808 0
M  V30 2319 C 216.236 -1.44415 0.898794 0
M  V30 2320 O 217.421 -1.5522 1.16707 0
M  V30 2321 C 214.551 -2.50607 2.40444 0
M  V30 2322 C 213.505 -2.38155 3.55621 0
M  V30 2323 C 212.831 -3.76078 3.80091 0
M  V30 2324 C 214.131 -1.85991 4.88062 0
M  V30 2325 H 215.825 -0.801743 2.88466 0
M  V30 2326 H 213.371 -0.38422 1.38779 0
M  V30 2327 H 215.324 -3.23197 2.7041 0
M  V30 2328 H 214.048 -2.89737 1.50732 0
M  V30 2329 H 212.707 -1.68016 3.25832 0
M  V30 2330 H 212.355 -4.12656 2.87618 0
M  V30 2331 H 212.055 -3.68606 4.57606 0
M  V30 2332 H 213.579 -4.50206 4.12488 0
M  V30 2333 H 214.993 -2.4838 5.16701 0
M  V30 2334 H 213.39 -1.89393 5.6943 0
M  V30 2335 H 214.46 -0.816023 4.77984 0
M  V30 2336 N 215.803 -1.52179 -0.40978 0
M  V30 2337 C 217.08 -1.56769 -1.16974 0
M  V30 2338 C 217.46 -0.348322 -2.08206 0
M  V30 2339 O 216.808 0.664862 -2.18613 0
M  V30 2340 C 217.018 -2.89603 -1.9476 0
M  V30 2341 C 218.366 -3.42579 -2.50849 0
M  V30 2342 O 219.39 -2.91338 -2.04941 0
M  V30 2343 O 218.249 -4.32054 -3.34652 0
M  V30 2344 H 215.343 -0.631439 -0.534054 0
M  V30 2345 H 217.889 -1.64507 -0.416613 0
M  V30 2346 H 216.661 -3.698 -1.27921 0
M  V30 2347 H 216.284 -2.85155 -2.77079 0
M  V30 2348 N 217.281 0.66697 -1.42791 0
M  V30 2349 C 218.211 1.79218 -1.49677 0
M  V30 2350 C 219.192 1.66405 -0.352623 0
M  V30 2351 O 220.377 1.85708 -0.567993 0
M  V30 2352 C 217.507 3.17565 -1.40605 0
M  V30 2353 C 216.461 3.45124 -2.53127 0
M  V30 2354 C 215.787 4.83127 -2.29112 0
M  V30 2355 C 217.087 3.41236 -3.95418 0
M  V30 2356 H 218.781 1.73713 -2.43853 0
M  V30 2357 H 216.327 0.83432 -1.17367 0
M  V30 2358 H 218.28 3.96022 -1.44029 0
M  V30 2359 H 217.004 3.23767 -0.429271 0
M  V30 2360 H 215.663 2.69031 -2.49034 0
M  V30 2361 H 215.311 4.85988 -1.29709 0
M  V30 2362 H 215.011 5.02528 -3.04531 0
M  V30 2363 H 216.535 5.63859 -2.34297 0
M  V30 2364 H 217.949 4.09651 -4.01073 0
M  V30 2365 H 216.346 3.72173 -4.70752 0
M  V30 2366 H 217.416 2.39665 -4.21532 0
M  V30 2367 N 218.759 1.29093 0.90403 0
M  V30 2368 C 219.669 1.15727 2.0407 0
M  V30 2369 C 220.685 0.0815308 1.73809 0
M  V30 2370 O 221.861 0.292749 1.99261 0
M  V30 2371 C 218.926 0.830424 3.36608 0
M  V30 2372 C 217.987 1.98955 3.80415 0
M  V30 2373 C 217.22 1.6782 5.06628 0
M  V30 2374 O 217.443 0.597105 5.67266 0
M  V30 2375 O 216.377 2.52486 5.46383 0
M  V30 2376 H 220.203 2.11171 2.18267 0
M  V30 2377 H 217.788 1.08504 1.027 0
M  V30 2378 H 219.67 0.662521 4.16159 0
M  V30 2379 H 218.345 -0.0942678 3.23563 0
M  V30 2380 H 217.252 2.21267 3.01648 0
M  V30 2381 H 218.585 2.89529 3.98037 0
M  V30 2382 N 220.237 -1.11381 1.11499 0
M  V30 2383 C 221.514 -1.7955 0.775965 0
M  V30 2384 C 221.894 -1.97859 -0.73588 0
M  V30 2385 O 221.242 -1.56376 -1.66609 0
M  V30 2386 C 221.452 -3.13196 1.53977 0
M  V30 2387 C 222.8 -3.88227 1.71944 0
M  V30 2388 O 223.824 -3.22887 1.50407 0
M  V30 2389 O 222.683 -5.05477 2.07738 0
M  V30 2390 H 219.777 -0.777728 0.28119 0
M  V30 2391 H 222.323 -1.18118 1.21845 0
M  V30 2392 H 221.095 -2.95229 2.56818 0
M  V30 2393 H 220.718 -3.82342 1.09088 0
M  V30 2394 N 221.715 -0.905404 -1.28997 0
M  V30 2395 C 223.131 -0.60233 -1.47798 0
M  V30 2396 C 223.331 0.854645 -1.82478 0
M  V30 2397 O 222.387 1.63439 -1.92468 0
M  V30 2398 C 223.7 -1.53306 -2.58685 0
M  V30 2399 C 225.248 -1.53887 -2.72558 0
M  V30 2400 C 225.723 -2.45602 -3.86579 0
M  V30 2401 N 227.214 -2.43681 -3.93921 0
M  V30 2402 C 227.949 -3.11347 -4.81509 0
M  V30 2403 N 227.445 -3.88313 -5.73746 0
M  V30 2404 N 229.238 -3.00476 -4.75048 0
M  V30 2405 H 221.389 -1.84765 -1.04764 0
M  V30 2406 H 223.652 -0.792025 -0.520961 0
M  V30 2407 H 223.358 -2.57141 -2.39941 0
M  V30 2408 H 223.232 -1.25787 -3.55609 0
M  V30 2409 H 225.619 -0.507941 -2.90696 0
M  V30 2410 H 225.7 -1.85447 -1.76191 0
M  V30 2411 H 225.344 -3.48792 -3.69197 0
M  V30 2412 H 225.274 -2.11349 -4.82327 0
M  V30 2413 H 227.765 -1.87767 -3.27951 0
M  V30 2414 H 228.078 -4.36985 -6.37389 0
M  V30 2415 H 226.423 -3.92419 -5.73614 0
M  V30 2416 H 229.614 -2.39858 -4.01977 0
M  V30 2417 H 229.787 -3.53485 -5.43095 0
M  V30 2418 N 223.193 1.4272 -0.668489 0
M  V30 2419 C 224.123 2.335 -0.000100175 0
M  V30 2420 C 225.104 1.50328 0.795964 0
M  V30 2421 O 226.289 1.78949 0.754385 0
M  V30 2422 C 223.419 3.33874 0.956302 0
M  V30 2423 C 222.373 4.27152 0.269278 0
M  V30 2424 C 221.699 5.17684 1.33818 0
M  V30 2425 C 222.999 5.15373 -0.847805 0
M  V30 2426 H 224.693 2.89639 -0.758244 0
M  V30 2427 H 222.239 1.39269 -0.366079 0
M  V30 2428 H 224.192 3.9629 1.43292 0
M  V30 2429 H 222.916 2.76025 1.74579 0
M  V30 2430 H 221.575 3.66123 -0.187042 0
M  V30 2431 H 221.223 4.56165 2.1195 0
M  V30 2432 H 220.923 5.80918 0.883659 0
M  V30 2433 H 222.447 5.82974 1.81586 0
M  V30 2434 H 223.861 5.7151 -0.452681 0
M  V30 2435 H 222.258 5.87407 -1.22773 0
M  V30 2436 H 223.328 4.5415 -1.69929 0
M  V30 2437 N 224.671 0.411399 1.52136 0
M  V30 2438 C 225.634 -0.401089 2.25663 0
M  V30 2439 C 226.634 -0.971732 1.28117 0
M  V30 2440 O 227.824 -0.850254 1.52041 0
M  V30 2441 C 224.956 -1.56483 3.02863 0
M  V30 2442 H 226.149 0.24295 2.98914 0
M  V30 2443 H 223.702 0.163968 1.55438 0
M  V30 2444 H 224.437 -2.24567 2.33967 0
M  V30 2445 H 224.222 -1.16211 3.74483 0
M  V30 2446 H 225.712 -2.13951 3.58629 0
M  V30 2447 N 226.149 -1.5696 0.141893 0
M  V30 2448 C 227.096 -2.16501 -0.799737 0
M  V30 2449 C 228.066 -1.09643 -1.24771 0
M  V30 2450 O 229.251 -1.3766 -1.32115 0
M  V30 2451 C 226.391 -2.78679 -2.03549 0
M  V30 2452 C 225.504 -3.99914 -1.6338 0
M  V30 2453 C 224.639 -4.50106 -2.82096 0
M  V30 2454 C 223.678 -5.63819 -2.38275 0
M  V30 2455 N 222.815 -6.08651 -3.49983 0
M  V30 2456 H 227.655 -2.96632 -0.285179 0
M  V30 2457 H 225.192 -1.46533 -0.129053 0
M  V30 2458 H 227.15 -3.1287 -2.75986 0
M  V30 2459 H 225.78 -2.012 -2.52425 0
M  V30 2460 H 224.832 -3.71735 -0.807279 0
M  V30 2461 H 226.144 -4.82311 -1.27192 0
M  V30 2462 H 225.298 -4.86325 -3.62729 0
M  V30 2463 H 224.037 -3.66706 -3.21525 0
M  V30 2464 H 223.042 -5.2718 -1.56081 0
M  V30 2465 H 224.267 -6.49 -1.99938 0
M  V30 2466 H 222.213 -5.28188 -3.89042 0
M  V30 2467 H 222.13 -6.85961 -3.17794 0
M  V30 2468 H 223.398 -6.49515 -4.30988 0
M  V30 2469 N 227.627 0.131896 -1.57047 0
M  V30 2470 C 228.874 0.841932 -1.84168 0
M  V30 2471 C 229.202 1.8048 -0.725066 0
M  V30 2472 O 228.457 1.93618 0.284692 0
M  V30 2473 C 228.756 1.63703 -3.17704 0
M  V30 2474 C 228.422 0.81961 -4.43388 0
M  V30 2475 C 227.084 0.594148 -4.77518 0
M  V30 2476 C 229.436 0.248977 -5.20605 0
M  V30 2477 C 226.764 -0.212409 -5.86315 0
M  V30 2478 C 229.116 -0.544701 -6.30251 0
M  V30 2479 C 227.78 -0.780599 -6.6292 0
M  V30 2480 H 227.05 0.308085 -0.673917 0
M  V30 2481 H 229.697 0.104867 -1.91213 0
M  V30 2482 H 228.002 2.44464 -3.06177 0
M  V30 2483 H 229.699 2.19015 -3.35907 0
M  V30 2484 H 226.289 1.00542 -4.16641 0
M  V30 2485 H 230.473 0.410408 -4.946 0
M  V30 2486 H 225.729 -0.404524 -6.1006 0
M  V30 2487 H 229.903 -0.993922 -6.89271 0
M  V30 2488 H 227.53 -1.40742 -7.47058 0
M  V30 2489 N 229.106 1.52395 0.401703 0
M  V30 2490 C 230.039 1.70999 1.51111 0
M  V30 2491 C 231.017 0.55765 1.52738 0
M  V30 2492 O 232.201 0.785912 1.71335 0
M  V30 2493 C 229.328 1.75607 2.8962 0
M  V30 2494 C 228.374 2.97227 3.05873 0
M  V30 2495 S 229.207 4.57439 2.78405 0
M  V30 2496 C 230.363 4.64844 4.19131 0
M  V30 2497 H 230.596 2.6483 1.35102 0
M  V30 2498 H 228.129 1.42527 0.593762 0
M  V30 2499 H 230.087 1.78947 3.69443 0
M  V30 2500 H 228.748 0.828914 3.02965 0
M  V30 2501 H 227.941 2.96955 4.07227 0
M  V30 2502 H 227.543 2.91813 2.33925 0
M  V30 2503 H 229.835 4.42677 5.12877 0
M  V30 2504 H 230.778 5.66807 4.24424 0
M  V30 2505 H 231.186 3.93804 4.04448 0
M  V30 2506 N 230.584 -0.659388 1.43143 0
M  V30 2507 C 231.531 -1.77249 1.47822 0
M  V30 2508 C 232.501 -1.62818 0.328558 0
M  V30 2509 O 233.686 -1.83151 0.534838 0
M  V30 2510 C 230.826 -3.15371 1.40126 0
M  V30 2511 C 229.939 -3.4098 2.65249 0
M  V30 2512 C 229.074 -4.68915 2.49584 0
M  V30 2513 C 228.113 -4.87608 3.70006 0
M  V30 2514 N 227.25 -6.06796 3.53189 0
M  V30 2515 H 232.09 -1.72584 2.42938 0
M  V30 2516 H 229.627 -0.842297 1.20598 0
M  V30 2517 H 231.585 -3.9521 1.33659 0
M  V30 2518 H 230.215 -3.19121 0.485964 0
M  V30 2519 H 229.267 -2.55282 2.8202 0
M  V30 2520 H 230.579 -3.50681 3.54717 0
M  V30 2521 H 229.733 -5.56871 2.4079 0
M  V30 2522 H 228.472 -4.61524 1.5763 0
M  V30 2523 H 227.477 -3.9809 3.79215 0
M  V30 2524 H 228.702 -4.96834 4.62961 0
M  V30 2525 H 226.648 -6.00549 2.63965 0
M  V30 2526 H 226.565 -6.17428 4.36255 0
M  V30 2527 H 227.833 -6.9739 3.48236 0
M  V30 2528 N 232.062 -1.29571 -0.897171 0
M  V30 2529 C 233.29 -1.20583 -1.68129 0
M  V30 2530 C 233.705 0.233181 -1.87354 0
M  V30 2531 O 233.062 1.15579 -1.41236 0
M  V30 2532 C 233.113 -1.91772 -3.06441 0
M  V30 2533 O 232.834 -3.30053 -2.88091 0
M  V30 2534 C 234.335 -1.89291 -4.00854 0
M  V30 2535 H 231.555 -0.417826 -0.525036 0
M  V30 2536 H 234.099 -1.70987 -1.12177 0
M  V30 2537 H 232.254 -1.45196 -3.59161 0
M  V30 2538 H 232.668 -3.65942 -3.75748 0
M  V30 2539 H 234.142 -2.43662 -4.95311 0
M  V30 2540 H 234.619 -0.869014 -4.30517 0
M  V30 2541 H 235.225 -2.35622 -3.54066 0
M  V30 2542 N 233.54 1.10788 -1.12088 0
M  V30 2543 C 234.45 2.20599 -0.798338 0
M  V30 2544 C 235.466 1.72712 0.21135 0
M  V30 2545 O 236.642 2.01348 0.0458477 0
M  V30 2546 C 233.707 3.45771 -0.253674 0
M  V30 2547 C 232.768 4.08411 -1.32283 0
M  V30 2548 C 232.001 5.27608 -0.80406 0
M  V30 2549 O 232.224 5.69241 0.363478 0
M  V30 2550 O 231.158 5.8101 -1.57198 0
M  V30 2551 H 234.984 2.50614 -1.7154 0
M  V30 2552 H 232.569 1.19454 -0.897275 0
M  V30 2553 H 234.451 4.21376 0.0453691 0
M  V30 2554 H 233.126 3.1739 0.636005 0
M  V30 2555 H 232.033 3.34507 -1.67499 0
M  V30 2556 H 233.366 4.40986 -2.18614 0
M  V30 2557 N 235.018 0.912232 1.28515 0
M  V30 2558 C 235.928 0.404506 2.31086 0
M  V30 2559 C 236.944 -0.50707 1.66448 0
M  V30 2560 O 238.12 -0.393624 1.97516 0
M  V30 2561 C 235.185 -0.348572 3.44943 0
M  V30 2562 C 234.246 0.59604 4.25142 0
M  V30 2563 C 233.479 -0.121194 5.33562 0
M  V30 2564 O 233.702 -1.34317 5.5436 0
M  V30 2565 O 232.636 0.542716 5.99448 0
M  V30 2566 H 236.462 1.25579 2.76521 0
M  V30 2567 H 234.047 0.676998 1.33181 0
M  V30 2568 H 235.929 -0.77395 4.14232 0
M  V30 2569 H 234.604 -1.17571 3.01594 0
M  V30 2570 H 233.511 1.07079 3.58448 0
M  V30 2571 H 234.844 1.38995 4.72167 0
M  V30 2572 N 236.496 -1.42363 0.676048 0
M  V30 2573 C 237.459 -2.29199 0.00766941 0
M  V30 2574 C 238.459 -1.43389 -0.727745 0
M  V30 2575 O 239.649 -1.64764 -0.56556 0
M  V30 2576 C 236.781 -3.2591 -0.999785 0
M  V30 2577 H 237.974 -2.89794 0.771988 0
M  V30 2578 H 235.527 -1.50024 0.438468 0
M  V30 2579 H 236.262 -2.70256 -1.79255 0
M  V30 2580 H 236.047 -3.89202 -0.475829 0
M  V30 2581 H 237.537 -3.91028 -1.46583 0
M  V30 2582 N 237.974 -0.419461 -1.51915 0
M  V30 2583 C 239.223 0.154346 -2.01109 0
M  V30 2584 C 239.536 1.45338 -1.30905 0
M  V30 2585 O 240.742 2.10906 -1.7097 0
M  V30 2586 C 239.198 0.325615 -3.58424 0
M  V30 2587 C 238.806 -0.961934 -4.37551 0
M  V30 2588 C 240.55 0.854155 -4.15818 0
M  V30 2589 C 238.457 -0.757287 -5.86531 0
M  V30 2590 H 237.387 0.0614563 -0.751491 0
M  V30 2591 H 240.038 -0.54649 -1.75173 0
M  V30 2592 H 238.42 1.08903 -3.80731 0
M  V30 2593 H 239.594 -1.7323 -4.26999 0
M  V30 2594 H 237.909 -1.41766 -3.91524 0
M  V30 2595 H 240.506 1.02346 -5.24814 0
M  V30 2596 H 240.849 1.83172 -3.73837 0
M  V30 2597 H 241.382 0.149528 -3.97519 0
M  V30 2598 H 238.121 -1.70671 -6.32892 0
M  V30 2599 H 237.641 -0.0264061 -5.99794 0
M  V30 2600 H 239.32 -0.403482 -6.45741 0
M  V30 2601 N 239.452 1.56882 -0.150215 0
M  V30 2602 C 240.701 1.95403 0.500071 0
M  V30 2603 C 241.014 1.03777 1.658 0
M  V30 2604 O 242.22 1.31889 2.37313 0
M  V30 2605 C 240.676 3.4738 0.941018 0
M  V30 2606 C 240.284 4.47596 -0.190158 0
M  V30 2607 C 242.028 3.9476 1.56091 0
M  V30 2608 C 239.935 5.90787 0.269237 0
M  V30 2609 H 238.865 0.729515 0.190588 0
M  V30 2610 H 241.516 1.81988 -0.235074 0
M  V30 2611 H 239.898 3.56138 1.73152 0
M  V30 2612 H 241.072 4.50536 -0.967157 0
M  V30 2613 H 239.387 4.10151 -0.718666 0
M  V30 2614 H 241.984 4.99181 1.9163 0
M  V30 2615 H 242.327 3.36494 2.45107 0
M  V30 2616 H 242.86 3.88932 0.835249 0
M  V30 2617 H 239.599 6.52879 -0.585621 0
M  V30 2618 H 239.119 5.912 1.01204 0
M  V30 2619 H 240.798 6.42979 0.720176 0
M  V30 2620 N 240.93 -0.123565 1.57115 0
M  V30 2621 C 242.16 -0.845233 1.88519 0
M  V30 2622 C 242.568 -1.74168 0.739064 0
M  V30 2623 O 241.911 -1.81244 -0.299355 0
M  V30 2624 C 241.973 -1.73452 3.14888 0
M  V30 2625 C 241.637 -1.01285 4.45635 0
M  V30 2626 C 242.634 -0.355774 5.18681 0
M  V30 2627 C 240.319 -0.99538 4.92339 0
M  V30 2628 C 242.313 0.309114 6.3665 0
M  V30 2629 C 240 -0.32669 6.10226 0
M  V30 2630 C 240.998 0.324406 6.82229 0
M  V30 2631 O 240.686 0.982437 7.97874 0
M  V30 2632 H 240.418 -0.248534 0.628655 0
M  V30 2633 H 242.972 -0.113907 2.05084 0
M  V30 2634 H 241.202 -2.50737 2.94394 0
M  V30 2635 H 242.891 -2.33021 3.32349 0
M  V30 2636 H 243.657 -0.360918 4.83655 0
M  V30 2637 H 239.536 -1.49159 4.36202 0
M  V30 2638 H 243.08 0.8179 6.92789 0
M  V30 2639 H 238.977 -0.319294 6.4471 0
M  V30 2640 H 239.745 0.886454 8.13686 0
M  V30 2641 N 242.408 -1.52605 -0.393616 0
M  V30 2642 C 243.633 -1.71592 -1.16495 0
M  V30 2643 C 244.058 -0.43133 -1.83088 0
M  V30 2644 O 243.416 0.612523 -1.7064 0
M  V30 2645 C 243.464 -2.86318 -2.19213 0
M  V30 2646 O 242.568 -2.52969 -3.257 0
M  V30 2647 H 241.909 -0.570734 -0.33935 0
M  V30 2648 H 244.439 -1.99377 -0.459324 0
M  V30 2649 H 244.449 -3.1168 -2.63286 0
M  V30 2650 H 243.124 -3.79511 -1.7013 0
M  V30 2651 H 241.701 -2.38332 -2.86797 0
M  V30 2652 N 243.887 0.651787 -1.4349 0
M  V30 2653 C 245.117 1.43728 -1.48411 0
M  V30 2654 C 245.525 1.8893 -0.10103 0
M  V30 2655 O 244.868 1.60182 0.899307 0
M  V30 2656 C 244.93 2.70411 -2.36893 0
M  V30 2657 C 244.594 2.4714 -3.8441 0
M  V30 2658 C 245.591 2.10271 -4.75481 0
M  V30 2659 C 243.276 2.6142 -4.28912 0
M  V30 2660 C 245.27 1.87982 -6.0905 0
M  V30 2661 C 242.957 2.38746 -5.62533 0
M  V30 2662 C 243.955 2.02083 -6.5242 0
M  V30 2663 O 243.643 1.79647 -7.8357 0
M  V30 2664 H 243.375 0.447962 -0.506267 0
M  V30 2665 H 245.929 0.80624 -1.88915 0
M  V30 2666 H 244.159 3.36079 -1.91278 0
M  V30 2667 H 245.848 3.32364 -2.33 0
M  V30 2668 H 246.614 1.98814 -4.42378 0
M  V30 2669 H 242.493 2.88931 -3.59222 0
M  V30 2670 H 246.037 1.5929 -6.7917 0
M  V30 2671 H 241.934 2.49806 -5.95203 0
M  V30 2672 H 242.702 1.9406 -7.95162 0
M  V30 2673 N 245.365 1.30045 0.890287 0
M  V30 2674 C 246.613 1.18327 1.63839 0
M  V30 2675 C 246.934 -0.263455 1.93212 0
M  V30 2676 O 246.204 -1.17856 1.56482 0
M  V30 2677 H 244.784 0.434933 0.607324 0
M  V30 2678 H 247.446 1.631 1.06698 0
M  V30 2679 H 246.542 1.74024 2.59079 0
M  V30 2680 N 246.843 -1.10192 1.12674 0
M  V30 2681 C 248.09 -1.82205 0.883606 0
M  V30 2682 C 248.418 -1.8532 -0.590492 0
M  V30 2683 O 247.673 -1.31137 -1.45264 0
M  V30 2684 C 247.972 -3.28552 1.4067 0
M  V30 2685 C 247.638 -3.45582 2.89627 0
M  V30 2686 C 246.3 -3.49937 3.30299 0
M  V30 2687 C 248.652 -3.50768 3.85501 0
M  V30 2688 C 245.98 -3.57049 4.65546 0
M  V30 2689 C 248.332 -3.59414 5.20581 0
M  V30 2690 C 246.996 -3.62034 5.60792 0
M  V30 2691 H 246.266 -0.666735 0.323334 0
M  V30 2692 H 248.913 -1.29868 1.40736 0
M  V30 2693 H 247.218 -3.83473 0.80347 0
M  V30 2694 H 248.915 -3.82788 1.19475 0
M  V30 2695 H 245.505 -3.42871 2.57172 0
M  V30 2696 H 249.689 -3.46651 3.55171 0
M  V30 2697 H 244.945 -3.57361 4.96088 0
M  V30 2698 H 249.119 -3.62371 5.94693 0
M  V30 2699 H 246.746 -3.67298 6.6558 0
M  V30 2700 N 248.321 -0.919034 -1.28029 0
M  V30 2701 C 249.284 -0.416182 -2.2539 0
M  V30 2702 C 250.284 0.460438 -1.54067 0
M  V30 2703 O 251.474 0.262744 -1.72207 0
M  V30 2704 C 248.606 0.402707 -3.38513 0
M  V30 2705 H 249.799 -1.27629 -2.71387 0
M  V30 2706 H 247.352 -0.698919 -1.39803 0
M  V30 2707 H 248.087 1.282 -2.97885 0
M  V30 2708 H 247.872 -0.225698 -3.9145 0
M  V30 2709 H 249.362 0.745191 -4.10897 0
M  V30 2710 N 249.799 1.42003 -0.683588 0
M  V30 2711 C 251.027 2.05746 -0.218182 0
M  V30 2712 C 251.442 1.51396 1.12804 0
M  V30 2713 O 250.799 0.657303 1.70252 0
M  V30 2714 C 250.85 3.61171 -0.154131 0
M  V30 2715 O 250.571 4.13508 -1.44716 0
M  V30 2716 C 252.072 4.42042 0.333713 0
M  V30 2717 H 249.292 0.662888 -0.10402 0
M  V30 2718 H 251.836 1.81987 -0.9328 0
M  V30 2719 H 249.991 3.84012 0.511231 0
M  V30 2720 H 250.405 5.07453 -1.32632 0
M  V30 2721 H 251.879 5.51028 0.327423 0
M  V30 2722 H 252.356 4.17269 1.37053 0
M  V30 2723 H 252.962 4.24239 -0.300222 0
M  V30 2724 N 251.277 0.427512 1.51691 0
M  V30 2725 C 252.526 -0.143679 2.01188 0
M  V30 2726 C 252.839 -1.44642 1.31674 0
M  V30 2727 O 254.045 -2.09997 1.72086 0
M  V30 2728 C 252.501 -0.306602 3.58592 0
M  V30 2729 C 252.109 0.985125 4.37035 0
M  V30 2730 C 253.853 -0.832091 4.16265 0
M  V30 2731 C 251.76 0.788382 5.86122 0
M  V30 2732 H 250.69 -0.0574701 0.751807 0
M  V30 2733 H 253.341 0.555772 1.74881 0
M  V30 2734 H 251.723 -1.06882 3.81303 0
M  V30 2735 H 252.897 1.75492 4.26074 0
M  V30 2736 H 251.212 1.4384 3.90767 0
M  V30 2737 H 253.809 -0.995617 5.25349 0
M  V30 2738 H 254.152 -1.81186 3.74803 0
M  V30 2739 H 254.685 -0.128444 3.97593 0
M  V30 2740 H 251.424 1.74025 6.31978 0
M  V30 2741 H 250.944 0.0582143 5.99772 0
M  V30 2742 H 252.623 0.437722 6.45518 0
M  V30 2743 N 252.755 -1.56801 0.158532 0
M  V30 2744 C 253.718 -2.16138 -0.762705 0
M  V30 2745 C 254.718 -1.1061 -1.16713 0
M  V30 2746 O 255.908 -1.36191 -1.08617 0
M  V30 2747 C 253.04 -2.73386 -2.03649 0
M  V30 2748 H 254.233 -2.98886 -0.246354 0
M  V30 2749 H 251.786 -1.56035 -0.0909744 0
M  V30 2750 H 252.521 -1.94335 -2.59623 0
M  V30 2751 H 252.306 -3.50601 -1.75559 0
M  V30 2752 H 253.796 -3.19065 -2.6942 0
M  V30 2753 N 254.233 0.115231 -1.57178 0
M  V30 2754 C 255.458 0.840354 -1.89612 0
M  V30 2755 C 255.883 1.72464 -0.750845 0
M  V30 2756 O 255.241 1.78826 0.298478 0
M  V30 2757 C 255.289 1.64654 -3.20814 0
M  V30 2758 O 254.393 2.7538 -3.06985 0
M  V30 2759 H 253.734 0.232158 -0.622092 0
M  V30 2760 H 256.264 0.0964977 -2.04372 0
M  V30 2761 H 256.274 2.03499 -3.53627 0
M  V30 2762 H 254.949 0.997416 -4.03763 0
M  V30 2763 H 253.526 2.3971 -2.85646 0
M  V30 2764 N 255.711 1.52812 0.385517 0
M  V30 2765 C 256.674 1.77188 1.45386 0
M  V30 2766 C 257.674 0.641953 1.4743 0
M  V30 2767 O 258.864 0.910033 1.4854 0
M  V30 2768 C 255.996 1.87582 2.8465 0
M  V30 2769 H 257.189 2.72583 1.25054 0
M  V30 2770 H 254.742 1.43586 0.617467 0
M  V30 2771 H 255.477 0.941849 3.10322 0
M  V30 2772 H 255.262 2.69748 2.84567 0
M  V30 2773 H 256.752 2.08102 3.62054 0
M  V30 2774 N 257.189 -0.644168 1.43834 0
M  V30 2775 C 258.438 -1.39985 1.45214 0
M  V30 2776 C 258.751 -1.95421 0.0835494 0
M  V30 2777 O 259.957 -2.71488 -0.0251748 0
M  V30 2778 C 258.413 -2.53384 2.55587 0
M  V30 2779 C 258.021 -2.04517 3.98594 0
M  V30 2780 C 259.765 -3.30685 2.66172 0
M  V30 2781 C 257.672 -3.1518 5.00416 0
M  V30 2782 H 256.602 -0.526005 0.540218 0
M  V30 2783 H 259.253 -0.694367 1.69855 0
M  V30 2784 H 257.635 -3.26446 2.24163 0
M  V30 2785 H 258.809 -1.38405 4.39523 0
M  V30 2786 H 257.124 -1.40068 3.92135 0
M  V30 2787 H 259.721 -4.13158 3.39418 0
M  V30 2788 H 260.064 -3.79312 1.71546 0
M  V30 2789 H 260.597 -2.64708 2.96942 0
M  V30 2790 H 257.336 -2.71511 5.96625 0
M  V30 2791 H 256.856 -3.79974 4.64091 0
M  V30 2792 H 258.535 -3.80166 5.23529 0
M  V30 2793 N 258.668 -1.30515 -0.883378 0
M  V30 2794 C 260.079 -1.17509 -1.45081 0
M  V30 2795 C 260.43 0.223605 -1.94922 0
M  V30 2796 O 259.555 1.12041 -1.85137 0
M  V30 2797 C 260.15 -2.12715 -2.63701 0
M  V30 2798 C 258.709 -2.03682 -3.16529 0
M  V30 2799 C 257.856 -2.02706 -1.89224 0
M  V30 2800 H 260.807 -1.42762 -0.693165 0
M  V30 2801 H 260.828 -1.70891 -3.39965 0
M  V30 2802 H 260.34 -3.14505 -2.27395 0
M  V30 2803 H 258.441 -1.05039 -3.57488 0
M  V30 2804 H 258.554 -2.92146 -3.7972 0
M  V30 2805 H 256.918 -1.4753 -2.07622 0
M  V30 2806 H 257.701 -3.06229 -1.55174 0
M  V30 2807 N 260.146 1.09593 -1.13257 0
M  V30 2808 C 261.109 2.14359 -0.811358 0
M  V30 2809 C 262.109 1.59808 0.178377 0
M  V30 2810 O 263.299 1.74132 -0.0484911 0
M  V30 2811 C 260.431 3.40269 -0.207276 0
M  V30 2812 H 261.624 2.44284 -1.73969 0
M  V30 2813 H 259.177 1.25102 -0.936973 0
M  V30 2814 H 259.912 3.15969 0.73036 0
M  V30 2815 H 259.697 3.81154 -0.919992 0
M  V30 2816 H 261.187 4.176 0.000667944 0
M  V30 2817 N 261.624 0.925811 1.2754 0
M  V30 2818 C 262.854 0.580666 1.98272 0
M  V30 2819 C 263.262 -0.845207 1.69272 0
M  V30 2820 O 262.605 -1.57306 0.948707 0
M  V30 2821 C 262.667 0.724418 3.52126 0
M  V30 2822 C 262.331 2.12206 4.04744 0
M  V30 2823 C 263.328 3.09604 4.17662 0
M  V30 2824 C 261.013 2.4385 4.39138 0
M  V30 2825 C 263.007 4.36755 4.64246 0
M  V30 2826 C 260.694 3.71237 4.85414 0
M  V30 2827 C 261.692 4.67503 4.97926 0
M  V30 2828 O 261.38 5.92624 5.43187 0
M  V30 2829 H 261.112 0.218987 0.639547 0
M  V30 2830 H 263.666 1.24452 1.63404 0
M  V30 2831 H 261.896 0.0034663 3.867 0
M  V30 2832 H 263.585 0.384607 4.04074 0
M  V30 2833 H 264.351 2.86478 3.91351 0
M  V30 2834 H 260.23 1.69665 4.28643 0
M  V30 2835 H 263.774 5.11898 4.73927 0
M  V30 2836 H 259.671 3.94182 5.11166 0
M  V30 2837 H 260.439 5.95585 5.61445 0
M  V30 2838 N 263.102 -1.41638 0.69111 0
M  V30 2839 C 264.327 -2.06148 0.227583 0
M  V30 2840 C 264.752 -1.51652 -1.11281 0
M  V30 2841 O 264.11 -0.64164 -1.69566 0
M  V30 2842 C 264.158 -3.60095 0.190858 0
M  V30 2843 O 263.262 -4.03845 -0.835664 0
M  V30 2844 H 262.603 -0.654434 0.112306 0
M  V30 2845 H 265.133 -1.81484 0.944714 0
M  V30 2846 H 265.143 -4.07995 0.020207 0
M  V30 2847 H 263.818 -3.99129 1.16915 0
M  V30 2848 H 262.395 -3.67458 -0.63473 0
M  V30 2849 N 264.58 -0.43555 -1.51462 0
M  V30 2850 C 265.527 0.376797 -2.27703 0
M  V30 2851 C 266.497 1.01838 -1.31219 0
M  V30 2852 O 267.682 1.03762 -1.60119 0
M  V30 2853 C 264.822 1.47301 -3.12084 0
M  V30 2854 C 263.935 0.849744 -4.2356 0
M  V30 2855 C 263.07 1.92086 -4.95254 0
M  V30 2856 C 262.109 1.27593 -5.98654 0
M  V30 2857 N 261.246 2.28833 -6.63762 0
M  V30 2858 H 266.086 -0.279734 -2.96684 0
M  V30 2859 H 263.623 -0.149795 -1.46335 0
M  V30 2860 H 265.581 2.11984 -3.59331 0
M  V30 2861 H 264.211 2.0992 -2.45221 0
M  V30 2862 H 263.263 0.0912529 -3.80291 0
M  V30 2863 H 264.575 0.338878 -4.97648 0
M  V30 2864 H 263.729 2.64435 -5.46039 0
M  V30 2865 H 262.468 2.46545 -4.20793 0
M  V30 2866 H 261.473 0.537893 -5.47162 0
M  V30 2867 H 262.698 0.738693 -6.7507 0
M  V30 2868 H 260.644 2.82375 -5.92115 0
M  V30 2869 H 260.561 1.82632 -7.33608 0
M  V30 2870 H 261.829 3.00671 -7.19178 0
M  V30 2871 N 266.058 1.56714 -0.166846 0
M  V30 2872 C 267.474 1.58473 0.189372 0
M  V30 2873 C 267.674 1.18201 1.63189 0
M  V30 2874 O 266.73 0.891528 2.36237 0
M  V30 2875 C 268.043 3.00573 -0.0873872 0
M  V30 2876 C 269.591 3.1299 -0.0252443 0
M  V30 2877 C 270.066 4.57174 -0.274934 0
M  V30 2878 N 271.557 4.62665 -0.222553 0
M  V30 2879 C 272.292 5.72072 -0.389985 0
M  V30 2880 N 271.788 6.90054 -0.616229 0
M  V30 2881 N 273.581 5.61153 -0.326202 0
M  V30 2882 H 265.732 1.8118 -1.10849 0
M  V30 2883 H 267.995 0.839525 -0.440342 0
M  V30 2884 H 267.701 3.34497 -1.0865 0
M  V30 2885 H 267.575 3.72019 0.623037 0
M  V30 2886 H 269.962 2.78895 0.96444 0
M  V30 2887 H 270.043 2.43989 -0.768309 0
M  V30 2888 H 269.687 4.91976 -1.26181 0
M  V30 2889 H 269.617 5.24328 0.48869 0
M  V30 2890 H 272.108 3.77863 -0.0531512 0
M  V30 2891 H 272.421 7.69311 -0.733559 0
M  V30 2892 H 270.766 6.91927 -0.652791 0
M  V30 2893 H 273.957 4.67859 -0.150072 0
M  V30 2894 H 274.13 6.46364 -0.460116 0
M  V30 2895 N 267.536 -0.106894 1.57237 0
M  V30 2896 C 268.784 -0.810921 1.85117 0
M  V30 2897 C 269.105 -1.7984 0.753827 0
M  V30 2898 O 268.375 -1.94649 -0.221056 0
M  V30 2899 H 266.955 -0.302466 0.683025 0
M  V30 2900 H 269.617 -0.0913324 1.94686 0
M  V30 2901 H 268.713 -1.34875 2.81452 0
M  V30 2902 N 269.014 -1.53014 -0.377408 0
M  V30 2903 C 270.291 -1.59215 -1.13622 0
M  V30 2904 C 270.671 -0.392407 -2.07421 0
M  V30 2905 O 270.019 0.618342 -2.19975 0
M  V30 2906 C 270.229 -2.93669 -1.88573 0
M  V30 2907 C 271.577 -3.47822 -2.43526 0
M  V30 2908 O 272.601 -2.9562 -1.98715 0
M  V30 2909 O 271.46 -4.39055 -3.25412 0
M  V30 2910 H 268.554 -0.642625 -0.52054 0
M  V30 2911 H 271.1 -1.65353 -0.381625 0
M  V30 2912 H 269.872 -3.7243 -1.20048 0
M  V30 2913 H 269.495 -2.90968 -2.70968 0
M  V30 2914 N 270.492 0.636531 -1.44174 0
M  V30 2915 C 271.741 1.39213 -1.45954 0
M  V30 2916 C 272.054 1.95374 -0.0939119 0
M  V30 2917 O 273.26 2.71498 0.0107767 0
M  V30 2918 C 271.716 2.52025 -2.56927 0
M  V30 2919 C 271.324 2.024 -3.99673 0
M  V30 2920 C 273.068 3.29269 -2.67922 0
M  V30 2921 C 270.975 3.12521 -5.0208 0
M  V30 2922 H 269.905 0.523132 -0.542999 0
M  V30 2923 H 272.556 0.685349 -1.70221 0
M  V30 2924 H 270.938 3.25253 -2.25891 0
M  V30 2925 H 272.112 1.36073 -4.40251 0
M  V30 2926 H 270.427 1.37987 -3.92872 0
M  V30 2927 H 273.024 4.11352 -3.41605 0
M  V30 2928 H 273.367 3.78397 -1.73555 0
M  V30 2929 H 273.9 2.63129 -2.98342 0
M  V30 2930 H 270.639 2.68343 -5.98057 0
M  V30 2931 H 270.159 3.77507 -4.66099 0
M  V30 2932 H 271.838 3.77385 -5.25538 0
M  V30 2933 N 271.97 1.30982 0.876444 0
M  V30 2934 C 273.216 1.20474 1.63138 0
M  V30 2935 C 273.549 -0.238096 1.92735 0
M  V30 2936 O 272.824 -1.1692 1.55435 0
M  V30 2937 C 273.107 2.04244 2.96574 0
M  V30 2938 C 272.96 3.56793 2.73896 0
M  V30 2939 C 274.279 1.88684 3.97601 0
M  V30 2940 H 271.398 0.439001 0.591985 0
M  V30 2941 H 274.04 1.60704 1.01361 0
M  V30 2942 H 272.19 1.70063 3.493 0
M  V30 2943 H 273.862 4.01077 2.27892 0
M  V30 2944 H 272.105 3.80548 2.08245 0
M  V30 2945 H 272.776 4.10706 3.68815 0
M  V30 2946 H 275.252 2.18584 3.54062 0
M  V30 2947 H 274.128 2.4961 4.88862 0
M  V30 2948 H 274.389 0.848343 4.33884 0
M  V30 2949 N 273.449 -1.08991 1.13837 0
M  V30 2950 C 274.696 -1.81258 0.902882 0
M  V30 2951 C 275.024 -1.85936 -0.570803 0
M  V30 2952 O 274.279 -1.3267 -1.43865 0
M  V30 2953 C 274.578 -3.27042 1.44147 0
M  V30 2954 C 274.244 -3.4249 2.93276 0
M  V30 2955 C 272.906 -3.46414 3.33992 0
M  V30 2956 C 275.258 -3.4666 3.892 0
M  V30 2957 C 272.586 -3.52091 4.69307 0
M  V30 2958 C 274.938 -3.53872 5.24364 0
M  V30 2959 C 273.602 -3.56066 5.646 0
M  V30 2960 H 272.872 -0.663268 0.330388 0
M  V30 2961 H 275.519 -1.28368 1.42105 0
M  V30 2962 H 273.824 -3.82599 0.844097 0
M  V30 2963 H 275.521 -3.81499 1.23528 0
M  V30 2964 H 272.111 -3.40124 2.60794 0
M  V30 2965 H 276.295 -3.42865 3.58828 0
M  V30 2966 H 271.551 -3.52079 4.9985 0
M  V30 2967 H 275.725 -3.56043 5.98503 0
M  V30 2968 H 273.352 -3.60218 6.69438 0
M  V30 2969 N 274.927 -0.932562 -1.27047 0
M  V30 2970 C 276.173 -0.576412 -1.94436 0
M  V30 2971 C 276.506 0.880891 -1.73072 0
M  V30 2972 O 275.781 1.62905 -1.06264 0
M  V30 2973 C 276.064 -0.909031 -3.48437 0
M  V30 2974 C 275.917 -2.42044 -3.79123 0
M  V30 2975 C 277.236 -0.418341 -4.38107 0
M  V30 2976 H 274.355 -0.210888 -0.706184 0
M  V30 2977 H 276.997 -1.16522 -1.50075 0
M  V30 2978 H 275.147 -0.407947 -3.86352 0
M  V30 2979 H 276.819 -2.99359 -3.50973 0
M  V30 2980 H 275.062 -2.86758 -3.25503 0
M  V30 2981 H 275.733 -2.6037 -4.86736 0
M  V30 2982 H 278.209 -0.847856 -4.0737 0
M  V30 2983 H 277.085 -0.679981 -5.44672 0
M  V30 2984 H 277.346 0.681642 -4.36814 0
M  V30 2985 N 276.405 1.4127 -0.698611 0
M  V30 2986 C 277.682 1.94955 -0.158762 0
M  V30 2987 C 278.062 1.63781 1.33188 0
M  V30 2988 O 277.41 0.946423 2.07979 0
M  V30 2989 C 277.62 3.46044 -0.453309 0
M  V30 2990 C 278.968 4.22872 -0.382707 0
M  V30 2991 O 279.992 3.54076 -0.388396 0
M  V30 2992 O 278.851 5.45407 -0.345463 0
M  V30 2993 H 275.945 0.82683 -0.0167505 0
M  V30 2994 H 278.491 1.50971 -0.77498 0
M  V30 2995 H 277.263 3.62028 -1.48498 0
M  V30 2996 H 276.886 3.97128 0.19373 0
M  V30 2997 N 277.883 0.443576 1.51229 0
M  V30 2998 C 279.299 0.0962001 1.5931 0
M  V30 2999 C 279.499 -1.39501 1.45402 0
M  V30 3000 O 278.555 -2.16557 1.29843 0
M  V30 3001 C 279.868 0.621875 2.94199 0
M  V30 3002 C 281.416 0.582865 3.07525 0
M  V30 3003 C 281.891 1.08562 4.44948 0
M  V30 3004 N 283.382 1.04387 4.51284 0
M  V30 3005 C 284.117 1.40368 5.55954 0
M  V30 3006 N 283.613 1.83664 6.68011 0
M  V30 3007 N 285.406 1.32145 5.46346 0
M  V30 3008 H 277.557 1.41376 1.58514 0
M  V30 3009 H 279.82 0.582965 0.747567 0
M  V30 3010 H 279.526 1.66546 3.09767 0
M  V30 3011 H 279.4 0.0502125 3.77167 0
M  V30 3012 H 281.787 -0.451749 2.91622 0
M  V30 3013 H 281.868 1.191 2.26382 0
M  V30 3014 H 281.512 2.11873 4.61598 0
M  V30 3015 H 281.442 0.453956 5.2464 0
M  V30 3016 H 283.933 0.725986 3.70861 0
M  V30 3017 H 284.246 2.0934 7.43906 0
M  V30 3018 H 282.591 1.87596 6.69203 0
M  V30 3019 H 285.782 0.981808 4.57688 0
M  V30 3020 H 285.955 1.60514 6.27805 0
M  V30 3021 N 279.361 -1.56624 0.175154 0
M  V30 3022 C 280.324 -2.16934 -0.739738 0
M  V30 3023 C 281.324 -1.11842 -1.15533 0
M  V30 3024 O 282.514 -1.37335 -1.07167 0
M  V30 3025 C 279.646 -2.75531 -2.00738 0
M  V30 3026 H 280.839 -2.99131 -0.214639 0
M  V30 3027 H 278.392 -1.56123 -0.0744197 0
M  V30 3028 H 279.127 -1.97078 -2.57548 0
M  V30 3029 H 278.912 -3.52444 -1.71831 0
M  V30 3030 H 280.402 -3.21904 -2.66021 0
M  V30 3031 N 280.839 0.0985539 -1.57292 0
M  V30 3032 C 281.802 1.10402 -2.00858 0
M  V30 3033 C 282.802 1.33146 -0.901593 0
M  V30 3034 O 283.992 1.29318 -1.16716 0
M  V30 3035 C 281.124 2.45394 -2.36632 0
M  V30 3036 H 282.317 0.729099 -2.90902 0
M  V30 3037 H 279.87 0.343495 -1.52479 0
M  V30 3038 H 280.605 2.87769 -1.49531 0
M  V30 3039 H 280.39 2.30235 -3.17387 0
M  V30 3040 H 281.88 3.17718 -2.71007 0
M  V30 3041 N 282.317 1.53212 0.369288 0
M  V30 3042 C 283.557 1.70915 1.12105 0
M  V30 3043 C 283.921 0.449444 1.86665 0
M  V30 3044 O 285.122 0.503105 2.6405 0
M  V30 3045 C 283.393 2.9222 2.05772 0
M  V30 3046 S 284.952 3.30609 2.88519 0
M  V30 3047 H 281.77 0.601445 0.379189 0
M  V30 3048 H 284.372 1.91306 0.402794 0
M  V30 3049 H 283.076 3.82103 1.49752 0
M  V30 3050 H 282.607 2.7422 2.82076 0
M  V30 3051 H 284.622 2.82333 4.08047 0
M  V30 3052 N 283.795 -0.628877 1.44509 0
M  V30 3053 C 285.042 -1.38839 1.47411 0
M  V30 3054 C 285.37 -1.94202 0.10757 0
M  V30 3055 O 284.625 -1.74243 -0.890947 0
M  V30 3056 C 284.924 -2.56995 2.48371 0
M  V30 3057 C 284.59 -2.19908 3.93639 0
M  V30 3058 C 283.252 -2.09506 4.33198 0
M  V30 3059 C 285.604 -1.9064 4.85083 0
M  V30 3060 C 282.932 -1.68028 5.62124 0
M  V30 3061 C 285.284 -1.50655 6.14399 0
M  V30 3062 C 283.948 -1.38796 6.5291 0
M  V30 3063 H 283.218 -0.508048 0.539414 0
M  V30 3064 H 285.865 -0.712913 1.77735 0
M  V30 3065 H 284.17 -3.29786 2.11538 0
M  V30 3066 H 285.867 -3.15223 2.47861 0
M  V30 3067 H 282.457 -2.28922 3.62343 0
M  V30 3068 H 286.641 -1.97585 4.55273 0
M  V30 3069 H 281.897 -1.57452 5.90778 0
M  V30 3070 H 286.071 -1.27048 6.84713 0
M  V30 3071 H 283.698 -1.06429 7.52713 0
M  V30 3072 N 285.273 -1.31445 -0.869486 0
M  V30 3073 C 286.236 -1.19094 -1.9583 0
M  V30 3074 C 287.236 -0.117906 -1.60367 0
M  V30 3075 O 288.426 -0.367208 -1.70286 0
M  V30 3076 C 285.558 -0.828165 -3.30688 0
M  V30 3077 H 286.751 -2.15842 -2.08212 0
M  V30 3078 H 284.304 -1.15063 -1.05784 0
M  V30 3079 H 285.039 0.138142 -3.24006 0
M  V30 3080 H 284.824 -1.6038 -3.578 0
M  V30 3081 H 286.314 -0.765658 -4.10521 0
M  V30 3082 N 286.751 1.08385 -1.14413 0
M  V30 3083 C 288 1.80153 -0.907076 0
M  V30 3084 C 288.313 1.87176 0.567851 0
M  V30 3085 O 289.519 2.55359 0.922172 0
M  V30 3086 C 287.975 3.23687 -1.57336 0
M  V30 3087 C 287.583 3.24897 -3.08457 0
M  V30 3088 C 289.327 4.00136 -1.41744 0
M  V30 3089 C 287.234 4.6302 -3.67921 0
M  V30 3090 H 286.164 0.675139 -0.335714 0
M  V30 3091 H 288.815 1.21733 -1.37307 0
M  V30 3092 H 287.197 3.82234 -1.03505 0
M  V30 3093 H 288.371 2.76055 -3.68958 0
M  V30 3094 H 286.686 2.61943 -3.2369 0
M  V30 3095 H 289.283 5.02201 -1.83572 0
M  V30 3096 H 289.626 4.14709 -0.363576 0
M  V30 3097 H 290.159 3.48058 -1.92614 0
M  V30 3098 H 286.898 4.5365 -4.73161 0
M  V30 3099 H 286.418 5.12143 -3.12201 0
M  V30 3100 H 288.097 5.31994 -3.68227 0
M  V30 3101 N 288.23 0.939286 1.26551 0
M  V30 3102 C 289.162 0.404704 2.25599 0
M  V30 3103 C 290.175 -0.470983 1.55838 0
M  V30 3104 O 291.364 -0.281734 1.76263 0
M  V30 3105 C 288.464 -0.43764 3.36062 0
M  V30 3106 C 287.637 0.421449 4.35365 0
M  V30 3107 C 286.696 -0.36015 5.24966 0
M  V30 3108 O 285.722 0.236167 5.6871 0
M  V30 3109 N 286.924 -1.65715 5.56344 0
M  V30 3110 H 289.689 1.25618 2.72103 0
M  V30 3111 H 287.25 0.807963 1.40298 0
M  V30 3112 H 289.242 -0.967866 3.92956 0
M  V30 3113 H 287.812 -1.18991 2.89067 0
M  V30 3114 H 287.032 1.1329 3.7757 0
M  V30 3115 H 288.32 1.00835 4.98708 0
M  V30 3116 H 287.718 -2.16378 5.22682 0
M  V30 3117 H 286.275 -2.13366 6.15888 0
M  V30 3118 N 289.708 -1.40897 0.706093 0
M  V30 3119 C 290.655 -2.30751 0.0474474 0
M  V30 3120 C 291.625 -1.47678 -0.76029 0
M  V30 3121 O 292.81 -1.76441 -0.726177 0
M  V30 3122 C 289.95 -3.33815 -0.875309 0
M  V30 3123 C 289.063 -4.31961 -0.0580623 0
M  V30 3124 C 288.198 -5.22093 -0.979425 0
M  V30 3125 C 287.237 -6.11902 -0.155706 0
M  V30 3126 N 286.374 -6.94482 -1.03144 0
M  V30 3127 H 291.214 -2.86513 0.819413 0
M  V30 3128 H 288.751 -1.41102 0.415783 0
M  V30 3129 H 290.709 -3.92129 -1.42446 0
M  V30 3130 H 289.339 -2.79579 -1.61356 0
M  V30 3131 H 288.391 -3.75507 0.608147 0
M  V30 3132 H 289.703 -4.95415 0.580082 0
M  V30 3133 H 288.857 -5.85292 -1.59744 0
M  V30 3134 H 287.596 -4.5889 -1.65141 0
M  V30 3135 H 286.601 -5.47742 0.475309 0
M  V30 3136 H 287.826 -6.77162 0.512635 0
M  V30 3137 H 285.772 -6.33877 -1.68924 0
M  V30 3138 H 285.689 -7.54665 -0.449108 0
M  V30 3139 H 286.957 -7.6214 -1.63593 0
M  V30 3140 N 291.186 -0.45159 -1.50991 0
M  V30 3141 C 292.434 0.109857 -2.01801 0
M  V30 3142 C 292.755 1.41958 -1.3369 0
M  V30 3143 O 292.025 1.9003 -0.475951 0
M  V30 3144 H 290.605 0.0435884 -0.745727 0
M  V30 3145 H 293.267 -0.597557 -1.85514 0
M  V30 3146 H 292.363 0.275489 -3.10882 0
M  V30 3147 N 292.664 1.56529 -0.183458 0
M  V30 3148 C 293.594 2.21549 0.737456 0
M  V30 3149 C 294.575 1.17489 1.23005 0
M  V30 3150 O 295.76 1.45959 1.281 0
M  V30 3151 C 292.89 2.86575 1.96194 0
M  V30 3152 C 291.844 3.96778 1.60473 0
M  V30 3153 C 291.17 4.48911 2.90487 0
M  V30 3154 C 292.47 5.15767 0.823497 0
M  V30 3155 H 294.164 2.98761 0.195453 0
M  V30 3156 H 291.71 1.43702 0.0925686 0
M  V30 3157 H 293.663 3.30739 2.61131 0
M  V30 3158 H 292.387 2.06749 2.52828 0
M  V30 3159 H 291.046 3.53286 0.978997 0
M  V30 3160 H 290.694 3.65862 3.45186 0
M  V30 3161 H 290.394 5.23265 2.67335 0
M  V30 3162 H 291.918 4.95771 3.56432 0
M  V30 3163 H 293.332 5.56549 1.37571 0
M  V30 3164 H 291.729 5.96114 0.690551 0
M  V30 3165 H 292.799 4.84574 -0.177782 0
M  V30 3166 N 294.142 -0.090211 1.57342 0
M  V30 3167 C 295.074 -1.13541 1.99101 0
M  V30 3168 C 296.087 -1.3604 0.894258 0
M  V30 3169 O 297.276 -1.34606 1.17233 0
M  V30 3170 C 294.376 -2.49001 2.29895 0
M  V30 3171 C 293.549 -2.46712 3.61182 0
M  V30 3172 C 292.608 -3.64136 3.79857 0
M  V30 3173 O 291.634 -3.46405 4.51655 0
M  V30 3174 N 292.836 -4.83802 3.20806 0
M  V30 3175 H 295.601 -0.779942 2.89373 0
M  V30 3176 H 293.162 -0.279125 1.59476 0
M  V30 3177 H 295.154 -3.26166 2.39578 0
M  V30 3178 H 293.724 -2.76619 1.45605 0
M  V30 3179 H 292.944 -1.55058 3.62423 0
M  V30 3180 H 294.232 -2.42265 4.4742 0
M  V30 3181 H 293.63 -5.01112 2.62494 0
M  V30 3182 H 292.187 -5.58543 3.35966 0
M  V30 3183 N 295.62 -1.53406 -0.361157 0
M  V30 3184 C 296.583 -1.79479 -1.42548 0
M  V30 3185 C 297.583 -0.665327 -1.4639 0
M  V30 3186 O 298.773 -0.933549 -1.47073 0
M  V30 3187 C 295.905 -1.92087 -2.8163 0
M  V30 3188 H 297.098 -2.74538 -1.20701 0
M  V30 3189 H 294.651 -1.4455 -0.594546 0
M  V30 3190 H 295.386 -0.991099 -3.08784 0
M  V30 3191 H 295.171 -2.74241 -2.80239 0
M  V30 3192 H 296.661 -2.13836 -3.58697 0
M  V30 3193 N 297.098 0.621204 -1.44841 0
M  V30 3194 C 298.323 1.41244 -1.51871 0
M  V30 3195 C 298.748 1.87519 -0.147764 0
M  V30 3196 O 298.106 1.59334 0.865 0
M  V30 3197 C 298.154 2.60221 -2.49634 0
M  V30 3198 O 297.258 3.60395 -2.00473 0
M  V30 3199 H 296.599 0.42223 -0.512463 0
M  V30 3200 H 299.129 0.757305 -1.90069 0
M  V30 3201 H 299.139 3.0764 -2.67996 0
M  V30 3202 H 297.814 2.25887 -3.4921 0
M  V30 3203 H 296.391 3.19717 -1.91925 0
M  V30 3204 N 298.576 1.31904 0.862503 0
M  V30 3205 C 299.992 1.10724 1.14945 0
M  V30 3206 C 300.192 -0.117421 2.01158 0
M  V30 3207 O 299.248 -0.804595 2.39338 0
M  V30 3208 C 300.561 2.38267 1.83437 0
M  V30 3209 C 302.109 2.43949 1.96106 0
M  V30 3210 C 302.584 3.71394 2.68013 0
M  V30 3211 N 304.075 3.72331 2.75543 0
M  V30 3212 C 304.81 4.67641 3.31812 0
M  V30 3213 N 304.306 5.73313 3.88953 0
M  V30 3214 N 306.099 4.5515 3.29841 0
M  V30 3215 H 298.25 2.10436 0.288191 0
M  V30 3216 H 300.513 0.928705 0.190292 0
M  V30 3217 H 300.219 3.27759 1.27542 0
M  V30 3218 H 300.093 2.48633 2.83657 0
M  V30 3219 H 302.48 1.54922 2.51164 0
M  V30 3220 H 302.561 2.37543 0.949059 0
M  V30 3221 H 302.205 4.60791 2.13621 0
M  V30 3222 H 302.135 3.75069 3.69636 0
M  V30 3223 H 304.626 2.95947 2.34997 0
M  V30 3224 H 304.939 6.42107 4.30022 0
M  V30 3225 H 303.284 5.77077 3.87308 0
M  V30 3226 H 306.475 3.71766 2.84443 0
M  V30 3227 H 306.648 5.29604 3.73394 0
M  V30 3228 N 300.054 -1.07777 1.14986 0
M  V30 3229 C 301.279 -1.84558 0.946213 0
M  V30 3230 C 301.704 -1.81323 -0.500362 0
M  V30 3231 O 301.062 -1.20301 -1.35637 0
M  V30 3232 C 301.11 -3.29736 1.45968 0
M  V30 3233 O 300.214 -4.07149 0.65601 0
M  V30 3234 H 299.555 -0.571641 0.33782 0
M  V30 3235 H 302.085 -1.35991 1.52865 0
M  V30 3236 H 302.095 -3.80574 1.47063 0
M  V30 3237 H 300.77 -3.31406 2.51283 0
M  V30 3238 H 299.347 -3.65994 0.714322 0
M  V30 3239 N 301.532 -0.945985 -1.26051 0
M  V30 3240 C 302.809 -0.513816 -1.88731 0
M  V30 3241 C 303.189 1.00872 -1.8544 0
M  V30 3242 O 302.537 1.8708 -1.312 0
M  V30 3243 C 302.747 -1.08062 -3.31849 0
M  V30 3244 C 304.095 -1.1522 -4.08668 0
M  V30 3245 O 305.119 -1.03155 -3.40936 0
M  V30 3246 O 303.978 -1.34044 -5.29806 0
M  V30 3247 H 301.072 -0.168193 -0.809716 0
M  V30 3248 H 303.618 -1.03886 -1.34186 0
M  V30 3249 H 302.39 -2.1241 -3.2863 0
M  V30 3250 H 302.013 -0.538307 -3.93939 0
M  V30 3251 N 303.011 1.40521 -0.713556 0
M  V30 3252 C 304.26 2.00155 -0.249192 0
M  V30 3253 C 304.573 1.57224 1.16362 0
M  V30 3254 O 305.779 2.09542 1.72639 0
M  V30 3255 C 304.235 3.5773 -0.3946 0
M  V30 3256 C 303.843 4.09635 -1.81392 0
M  V30 3257 C 305.587 4.24499 0.00907364 0
M  V30 3258 C 303.494 5.59707 -1.91003 0
M  V30 3259 H 302.424 0.74868 -0.0894114 0
M  V30 3260 H 305.075 1.60784 -0.884352 0
M  V30 3261 H 303.457 3.94792 0.30911 0
M  V30 3262 H 304.631 3.83955 -2.54785 0
M  V30 3263 H 302.946 3.55456 -2.16888 0
M  V30 3264 H 305.543 5.34683 -0.0420404 0
M  V30 3265 H 305.886 4.02824 1.05065 0
M  V30 3266 H 306.419 3.92536 -0.645007 0
M  V30 3267 H 303.158 5.86234 -2.93275 0
M  V30 3268 H 302.678 5.87258 -1.22019 0
M  V30 3269 H 304.357 6.24776 -1.6812 0
M  V30 3270 N 304.489 0.459591 1.5075 0
M  V30 3271 C 305.436 -0.340524 2.28274 0
M  V30 3272 C 306.406 -0.997371 1.32822 0
M  V30 3273 O 307.591 -1.01202 1.61749 0
M  V30 3274 C 304.731 -1.42317 3.14388 0
M  V30 3275 C 303.844 -0.782251 4.24859 0
M  V30 3276 C 302.979 -1.84182 4.98247 0
M  V30 3277 C 302.018 -1.18053 6.00608 0
M  V30 3278 N 301.155 -2.18244 6.67319 0
M  V30 3279 H 305.995 0.326899 2.96202 0
M  V30 3280 H 303.532 0.173057 1.46078 0
M  V30 3281 H 305.49 -2.06241 3.62658 0
M  V30 3282 H 304.12 -2.05992 2.4853 0
M  V30 3283 H 303.172 -0.0307404 3.80388 0
M  V30 3284 H 304.484 -0.259663 4.98124 0
M  V30 3285 H 303.638 -2.55714 5.50177 0
M  V30 3286 H 302.377 -2.39819 4.24662 0
M  V30 3287 H 301.382 -0.450776 5.47949 0
M  V30 3288 H 302.607 -0.631202 6.7616 0
M  V30 3289 H 300.553 -2.72919 5.96533 0
M  V30 3290 H 300.47 -1.70938 7.36421 0
M  V30 3291 H 301.738 -2.89191 7.23871 0
M  V30 3292 N 305.967 -1.56429 0.191757 0
M  V30 3293 C 306.897 -2.21937 -0.725696 0
M  V30 3294 C 307.878 -1.1814 -1.2238 0
M  V30 3295 O 309.063 -1.46636 -1.27325 0
M  V30 3296 C 306.193 -2.87611 -1.94672 0
M  V30 3297 C 305.147 -3.97623 -1.58366 0
M  V30 3298 C 304.473 -4.50446 -2.88102 0
M  V30 3299 C 305.773 -5.16197 -0.796133 0
M  V30 3300 H 307.467 -2.98861 -0.179606 0
M  V30 3301 H 305.013 -1.43749 -0.0849464 0
M  V30 3302 H 306.966 -3.3212 -2.59373 0
M  V30 3303 H 305.69 -2.08087 -2.51728 0
M  V30 3304 H 304.349 -3.53801 -0.960247 0
M  V30 3305 H 303.997 -3.67688 -3.43241 0
M  V30 3306 H 303.697 -5.24675 -2.64556 0
M  V30 3307 H 305.221 -4.97654 -3.53798 0
M  V30 3308 H 306.635 -5.57271 -1.34618 0
M  V30 3309 H 305.032 -5.96471 -0.658928 0
M  V30 3310 H 306.102 -4.84473 0.203478 0
M  V30 3311 N 307.445 0.0818655 -1.57387 0
M  V30 3312 C 308.692 0.782914 -1.86753 0
M  V30 3313 C 309.02 1.78082 -0.782118 0
M  V30 3314 O 308.275 1.94426 0.22295 0
M  V30 3315 C 308.574 1.53513 -3.22752 0
M  V30 3316 C 308.24 0.678134 -4.45771 0
M  V30 3317 C 306.902 0.441929 -4.79166 0
M  V30 3318 C 309.254 0.0832243 -5.21134 0
M  V30 3319 C 306.582 -0.398833 -5.85343 0
M  V30 3320 C 308.934 -0.744935 -6.28199 0
M  V30 3321 C 307.598 -0.991107 -6.60101 0
M  V30 3322 H 306.868 0.286489 -0.683378 0
M  V30 3323 H 309.515 0.0439808 -1.91449 0
M  V30 3324 H 307.82 2.34599 -3.138 0
M  V30 3325 H 309.517 2.08218 -3.42705 0
M  V30 3326 H 306.107 0.872357 -4.19628 0
M  V30 3327 H 310.291 0.252847 -4.95655 0
M  V30 3328 H 305.547 -0.598405 -6.08465 0
M  V30 3329 H 309.721 -1.21271 -6.8576 0
M  V30 3330 H 307.348 -1.64437 -7.42202 0
M  V30 3331 N 308.923 1.53595 0.353017 0
M  V30 3332 C 309.87 1.80919 1.43308 0
M  V30 3333 C 310.84 0.654288 1.5267 0
M  V30 3334 O 312.025 0.897759 1.6836 0
M  V30 3335 C 309.165 2.01605 2.80089 0
M  V30 3336 C 308.278 3.29321 2.79593 0
M  V30 3337 C 307.413 3.40125 4.0803 0
M  V30 3338 C 306.452 4.61826 4.01725 0
M  V30 3339 N 305.589 4.69716 5.21834 0
M  V30 3340 H 310.429 2.73074 1.19308 0
M  V30 3341 H 307.966 1.35263 0.578131 0
M  V30 3342 H 309.924 2.11586 3.59565 0
M  V30 3343 H 308.554 1.12772 3.0246 0
M  V30 3344 H 307.606 3.28229 1.92276 0
M  V30 3345 H 308.918 4.18884 2.70809 0
M  V30 3346 H 308.072 3.49488 4.95927 0
M  V30 3347 H 306.811 2.48601 4.19582 0
M  V30 3348 H 305.816 4.52552 3.12213 0
M  V30 3349 H 307.041 5.54705 3.91764 0
M  V30 3350 H 304.987 3.81097 5.33948 0
M  V30 3351 H 304.904 5.53202 5.1527 0
M  V30 3352 H 306.172 4.83376 6.11529 0
M  V30 3353 N 310.401 -0.613514 1.45168 0
M  V30 3354 C 311.351 -1.71871 1.49815 0
M  V30 3355 C 312.335 -1.56774 0.362021 0
M  V30 3356 O 313.527 -1.66212 0.608493 0
M  V30 3357 C 310.656 -3.1061 1.46207 0
M  V30 3358 C 309.742 -3.31114 2.64999 0
M  V30 3359 N 310.133 -3.21904 3.90143 0
M  V30 3360 C 308.431 -3.61966 2.6057 0
M  V30 3361 C 309.132 -3.43577 4.69393 0
M  V30 3362 N 308.108 -3.67287 4.00751 0
M  V30 3363 H 311.91 -1.63235 2.444 0
M  V30 3364 H 309.424 -0.816577 1.40377 0
M  V30 3365 H 311.421 -3.8989 1.4762 0
M  V30 3366 H 310.081 -3.20399 0.52673 0
M  V30 3367 H 311.092 -3.00436 4.21852 0
M  V30 3368 H 307.769 -3.78629 1.75916 0
M  V30 3369 H 309.159 -3.41901 5.78406 0
M  V30 3370 N 311.879 -1.3236 -0.855495 0
M  V30 3371 C 312.827 -1.2118 -1.9854 0
M  V30 3372 C 313.821 -0.116788 -1.68997 0
M  V30 3373 O 315.027 -0.279657 -1.77814 0
M  V30 3374 H 311.402 -0.375608 -0.651477 0
M  V30 3375 H 313.373 -2.16743 -2.05098 0
M  V30 3376 C 312.122 -0.950849 -3.34446 0
M  V30 3377 H 311.445 -1.78563 -3.57708 0
M  V30 3378 H 312.885 -0.912863 -4.14057 0
M  V30 3379 C 311.344 0.346404 -3.35114 0
M  V30 3380 O 311.874 1.35855 -3.7803 0
M  V30 3381 N 310.08 0.36808 -2.88259 0
M  V30 3382 H 309.627 -0.456102 -2.5353 0
M  V30 3383 H 309.585 1.23591 -2.89089 0
M  V30 3384 N 313.357 1.07166 -1.15556 0
M  V30 3385 C 314.634 1.76546 -0.842069 0
M  V30 3386 C 315.014 2.00453 0.661939 0
M  V30 3387 O 314.362 1.62452 1.60691 0
M  V30 3388 C 314.572 3.07266 -1.65495 0
M  V30 3389 C 315.92 3.81578 -1.86234 0
M  V30 3390 O 316.944 3.17083 -1.62287 0
M  V30 3391 O 315.803 4.97419 -2.26355 0
M  V30 3392 H 312.897 0.766756 -0.309862 0
M  V30 3393 H 315.443 1.13514 -1.26145 0
M  V30 3394 H 314.215 2.85494 -2.67598 0
M  V30 3395 H 313.838 3.7803 -1.23203 0
M  V30 3396 N 314.835 0.952656 1.25548 0
M  V30 3397 C 315.768 0.415525 2.24385 0
M  V30 3398 C 316.746 -0.502046 1.54655 0
M  V30 3399 O 317.93 -0.436875 1.83368 0
M  V30 3400 C 315.057 -0.401734 3.36309 0
M  V30 3401 C 314.103 0.455949 4.24056 0
M  V30 3402 S 314.936 1.88698 5.01152 0
M  V30 3403 C 316.092 1.07809 6.16545 0
M  V30 3404 H 316.325 1.25315 2.69599 0
M  V30 3405 H 313.858 0.756587 1.34592 0
M  V30 3406 H 315.816 -0.867329 4.01233 0
M  V30 3407 H 314.477 -1.21416 2.89684 0
M  V30 3408 H 313.67 -0.170776 5.03711 0
M  V30 3409 H 313.272 0.856675 3.64056 0
M  V30 3410 H 315.564 0.325816 6.76716 0
M  V30 3411 H 316.507 1.84849 6.83547 0
M  V30 3412 H 316.915 0.60909 5.61204 0
M  V30 3413 N 316.313 -1.40141 0.720998 0
M  V30 3414 C 317.276 -2.29058 0.0805834 0
M  V30 3415 C 318.276 -1.45632 -0.681758 0
M  V30 3416 O 319.466 -1.6648 -0.512856 0
M  V30 3417 C 316.598 -3.28925 -0.895593 0
M  V30 3418 H 317.791 -2.87191 0.863793 0
M  V30 3419 H 315.344 -1.48553 0.485975 0
M  V30 3420 H 316.079 -2.75822 -1.70566 0
M  V30 3421 H 315.864 -3.90519 -0.351766 0
M  V30 3422 H 317.354 -3.95494 -1.34069 0
M  V30 3423 N 317.792 -0.46758 -1.50504 0
M  V30 3424 C 319.069 0.15003 -1.95024 0
M  V30 3425 C 319.449 1.57304 -1.40779 0
M  V30 3426 O 318.797 2.20281 -0.607319 0
M  V30 3427 C 319.007 0.0969324 -3.48865 0
M  V30 3428 C 320.355 0.287565 -4.23625 0
M  V30 3429 O 321.379 0.173678 -3.55776 0
M  V30 3430 O 320.238 0.517186 -5.44047 0
M  V30 3431 H 317.332 0.113582 -0.819163 0
M  V30 3432 H 319.878 -0.52773 -1.61286 0
M  V30 3433 H 318.65 -0.896732 -3.80886 0
M  V30 3434 H 318.273 0.816303 -3.8913 0
M  V30 3435 N 319.27 1.56325 -0.20005 0
M  V30 3436 C 320.2 2.22318 0.713916 0
M  V30 3437 C 321.181 1.18788 1.21752 0
M  V30 3438 O 322.366 1.47309 1.26545 0
M  V30 3439 C 319.496 2.88639 1.93144 0
M  V30 3440 C 318.45 3.98457 1.56255 0
M  V30 3441 C 317.776 4.51967 2.85709 0
M  V30 3442 C 319.076 5.16612 0.768747 0
M  V30 3443 H 320.77 2.98952 0.163755 0
M  V30 3444 H 318.316 1.43792 0.0773219 0
M  V30 3445 H 320.269 3.33491 2.57608 0
M  V30 3446 H 318.993 2.09419 2.50621 0
M  V30 3447 H 317.652 3.54305 0.941471 0
M  V30 3448 H 317.3 3.69503 3.41287 0
M  V30 3449 H 317 5.26071 2.6177 0
M  V30 3450 H 318.524 4.99523 3.51154 0
M  V30 3451 H 319.938 5.57977 1.3166 0
M  V30 3452 H 318.335 5.96812 0.627286 0
M  V30 3453 H 319.405 4.84358 -0.229168 0
M  V30 3454 N 320.748 -0.0735177 1.57428 0
M  V30 3455 C 321.658 -1.10547 2.06922 0
M  V30 3456 C 322.674 -1.42506 0.998402 0
M  V30 3457 O 323.85 -1.52717 1.31299 0
M  V30 3458 C 320.915 -2.40019 2.50184 0
M  V30 3459 C 319.976 -2.15046 3.71556 0
M  V30 3460 C 319.209 -3.38345 4.12745 0
M  V30 3461 O 319.432 -4.47399 3.53822 0
M  V30 3462 O 318.366 -3.2666 5.05546 0
M  V30 3463 H 322.192 -0.715013 2.95163 0
M  V30 3464 H 319.777 -0.287531 1.46607 0
M  V30 3465 H 321.659 -3.16218 2.78539 0
M  V30 3466 H 320.334 -2.78447 1.65072 0
M  V30 3467 H 319.241 -1.36558 3.48285 0
M  V30 3468 H 320.574 -1.81499 4.57514 0
M  V30 3469 N 322.226 -1.5378 -0.344866 0
M  V30 3470 C 323.642 -1.44015 -0.687888 0
M  V30 3471 C 323.842 -0.595834 -1.92489 0
M  V30 3472 O 322.898 -0.0863064 -2.52352 0
M  V30 3473 C 324.211 -2.87481 -0.881758 0
M  V30 3474 C 325.759 -2.97247 -0.980459 0
M  V30 3475 C 326.234 -4.41819 -1.20665 0
M  V30 3476 N 327.725 -4.45339 -1.27389 0
M  V30 3477 C 328.46 -5.54333 -1.46639 0
M  V30 3478 N 327.956 -6.73335 -1.63071 0
M  V30 3479 N 329.749 -5.41944 -1.49176 0
M  V30 3480 H 321.9 -2.07169 0.468475 0
M  V30 3481 H 324.163 -0.93643 0.147655 0
M  V30 3482 H 323.869 -3.51672 -0.0443444 0
M  V30 3483 H 323.743 -3.32352 -1.78388 0
M  V30 3484 H 326.13 -2.33197 -1.8084 0
M  V30 3485 H 326.211 -2.5574 -0.0552713 0
M  V30 3486 H 325.855 -5.06449 -0.383652 0
M  V30 3487 H 325.785 -4.80917 -2.14539 0
M  V30 3488 H 328.276 -3.59585 -1.1622 0
M  V30 3489 H 328.589 -7.52165 -1.77391 0
M  V30 3490 H 326.934 -6.76282 -1.60209 0
M  V30 3491 H 330.125 -4.47932 -1.3592 0
M  V30 3492 H 330.298 -6.26946 -1.63837 0
M  V30 3493 N 323.704 0.605807 -1.45491 0
M  V30 3494 C 324.634 1.72709 -1.57143 0
M  V30 3495 C 325.615 1.6476 -0.422884 0
M  V30 3496 O 326.8 1.83132 -0.646247 0
M  V30 3497 C 323.93 3.11316 -1.53948 0
M  V30 3498 C 322.884 3.34077 -2.67537 0
M  V30 3499 C 322.21 4.72975 -2.49397 0
M  V30 3500 C 323.51 3.24158 -4.09535 0
M  V30 3501 H 325.204 1.63214 -2.51001 0
M  V30 3502 H 322.75 0.78379 -1.208 0
M  V30 3503 H 324.703 3.89557 -1.60696 0
M  V30 3504 H 323.427 3.21655 -0.566205 0
M  V30 3505 H 322.086 2.58227 -2.6022 0
M  V30 3506 H 321.734 4.8005 -1.50205 0
M  V30 3507 H 321.434 4.8916 -3.25571 0
M  V30 3508 H 322.958 5.53414 -2.58002 0
M  V30 3509 H 324.372 3.92271 -4.18086 0
M  V30 3510 H 322.769 3.51872 -4.86113 0
M  V30 3511 H 323.839 2.2157 -4.31317 0
M  V30 3512 N 325.182 1.32811 0.848464 0
M  V30 3513 C 326.112 1.24882 1.97299 0
M  V30 3514 C 327.093 0.131357 1.69592 0
M  V30 3515 O 328.278 0.319553 1.91553 0
M  V30 3516 C 325.408 0.97746 3.33261 0
M  V30 3517 C 324.362 2.05682 3.75338 0
M  V30 3518 C 323.688 1.63777 5.09 0
M  V30 3519 C 324.988 3.47254 3.90144 0
M  V30 3520 H 326.682 2.18966 2.04191 0
M  V30 3521 H 324.228 1.05413 0.981029 0
M  V30 3522 H 326.181 0.908513 4.1149 0
M  V30 3523 H 324.905 0.000980011 3.266 0
M  V30 3524 H 323.564 2.11603 2.99366 0
M  V30 3525 H 323.212 0.648569 4.98801 0
M  V30 3526 H 322.912 2.36 5.38124 0
M  V30 3527 H 324.436 1.5833 5.89715 0
M  V30 3528 H 325.85 3.43888 4.58709 0
M  V30 3529 H 324.247 4.1788 4.30693 0
M  V30 3530 H 325.317 3.86462 2.92874 0
M  V30 3531 N 326.66 -1.06551 1.16123 0
M  V30 3532 C 327.607 -2.13961 0.865414 0
M  V30 3533 C 328.577 -1.65066 -0.185055 0
M  V30 3534 O 329.762 -1.90732 -0.05083 0
M  V30 3535 C 326.902 -3.43113 0.369776 0
M  V30 3536 C 326.015 -4.05756 1.48276 0
M  V30 3537 C 325.15 -5.22773 0.942414 0
M  V30 3538 C 324.189 -5.77395 2.03179 0
M  V30 3539 N 323.326 -6.85731 1.50721 0
M  V30 3540 H 328.166 -2.38605 1.78527 0
M  V30 3541 H 325.703 -1.17072 0.890646 0
M  V30 3542 H 327.661 -4.17151 0.0640643 0
M  V30 3543 H 326.291 -3.18695 -0.513143 0
M  V30 3544 H 325.343 -3.29292 1.9045 0
M  V30 3545 H 326.655 -4.42351 2.30493 0
M  V30 3546 H 325.809 -6.03827 0.589729 0
M  V30 3547 H 324.548 -4.87618 0.0895191 0
M  V30 3548 H 323.553 -4.94981 2.3932 0
M  V30 3549 H 324.778 -6.14603 2.8886 0
M  V30 3550 H 322.724 -6.52499 0.676811 0
M  V30 3551 H 322.641 -7.21254 2.26557 0
M  V30 3552 H 323.909 -7.7047 1.18303 0
M  V30 3553 N 328.138 -0.959301 -1.25041 0
M  V30 3554 C 329.048 -0.489994 -2.29426 0
M  V30 3555 C 330.064 0.444944 -1.68215 0
M  V30 3556 O 331.24 0.320046 -1.98841 0
M  V30 3557 C 328.305 0.220309 -3.45999 0
M  V30 3558 C 327.366 -0.753418 -4.22637 0
M  V30 3559 C 326.599 -0.076918 -5.33645 0
M  V30 3560 O 326.822 1.13649 -5.58963 0
M  V30 3561 O 325.756 -0.764824 -5.97021 0
M  V30 3562 H 329.582 -1.35755 -2.71669 0
M  V30 3563 H 327.167 -0.725961 -1.30576 0
M  V30 3564 H 329.049 0.619677 -4.16819 0
M  V30 3565 H 327.724 1.06296 -3.0575 0
M  V30 3566 H 326.631 -1.20308 -3.54227 0
M  V30 3567 H 327.964 -1.56423 -4.66683 0
M  V30 3568 N 329.616 1.39756 -0.72842 0
M  V30 3569 C 330.548 2.29157 -0.0446202 0
M  V30 3570 C 331.561 1.46484 0.710367 0
M  V30 3571 O 332.75 1.69632 0.55562 0
M  V30 3572 C 329.85 3.24987 0.961071 0
M  V30 3573 C 329.023 4.36572 0.268967 0
M  V30 3574 C 328.082 5.12756 1.18184 0
M  V30 3575 O 327.108 5.6534 0.661794 0
M  V30 3576 N 328.31 5.23331 2.51206 0
M  V30 3577 H 331.075 2.88482 -0.812295 0
M  V30 3578 H 328.636 1.51265 -0.577098 0
M  V30 3579 H 330.628 3.72827 1.57423 0
M  V30 3580 H 329.198 2.66739 1.63 0
M  V30 3581 H 328.418 3.90694 -0.524574 0
M  V30 3582 H 329.706 5.08363 -0.210934 0
M  V30 3583 H 329.104 4.82116 2.9594 0
M  V30 3584 H 327.661 5.74634 3.07634 0
M  V30 3585 N 331.094 0.475555 1.50254 0
M  V30 3586 C 332.004 -0.321501 2.32387 0
M  V30 3587 C 333.02 -0.991755 1.42969 0
M  V30 3588 O 334.196 -0.978747 1.76018 0
M  V30 3589 C 331.261 -1.38667 3.17762 0
M  V30 3590 C 330.322 -0.732538 4.23004 0
M  V30 3591 C 329.555 -1.74695 5.04299 0
M  V30 3592 O 329.778 -2.97399 4.86734 0
M  V30 3593 O 328.712 -1.31631 5.8733 0
M  V30 3594 H 332.538 0.350071 3.01676 0
M  V30 3595 H 330.123 0.237321 1.47503 0
M  V30 3596 H 332.005 -2.00354 3.70724 0
M  V30 3597 H 330.68 -2.04163 2.51196 0
M  V30 3598 H 329.587 -0.0765902 3.74022 0
M  V30 3599 H 330.92 -0.120452 4.92053 0
M  V30 3600 N 332.573 -1.56217 0.208337 0
M  V30 3601 C 333.822 -1.97124 -0.427204 0
M  V30 3602 C 334.135 -1.09859 -1.61835 0
M  V30 3603 O 335.341 -1.40606 -2.32255 0
M  V30 3604 C 333.797 -3.50633 -0.811442 0
M  V30 3605 C 333.405 -4.46582 0.35615 0
M  V30 3606 C 335.149 -4.00282 -1.41332 0
M  V30 3607 C 333.056 -5.91379 -0.0497852 0
M  V30 3608 H 331.986 -0.736086 -0.163381 0
M  V30 3609 H 334.637 -1.8099 0.302456 0
M  V30 3610 H 333.019 -3.62319 -1.59815 0
M  V30 3611 H 334.193 -4.46636 1.1337 0
M  V30 3612 H 332.508 -4.07202 0.870396 0
M  V30 3613 H 335.105 -5.0595 -1.72972 0
M  V30 3614 H 335.448 -3.45359 -2.32449 0
M  V30 3615 H 335.981 -3.91764 -0.690323 0
M  V30 3616 H 332.72 -6.50255 0.827529 0
M  V30 3617 H 332.24 -5.94549 -0.791926 0
M  V30 3618 H 333.919 -6.45209 -0.481042 0
M  V30 3619 N 334.051 0.0651679 -1.57465 0
M  V30 3620 C 334.961 1.09448 -2.07505 0
M  V30 3621 C 335.977 1.41974 -1.00595 0
M  V30 3622 O 337.153 1.52018 -1.32107 0
M  V30 3623 C 334.218 2.38689 -2.51453 0
M  V30 3624 C 333.279 2.13073 -3.72691 0
M  V30 3625 C 332.512 3.36152 -4.14533 0
M  V30 3626 O 332.735 4.45517 -3.56189 0
M  V30 3627 O 331.669 3.23974 -5.07272 0
M  V30 3628 H 335.495 0.69935 -2.95538 0
M  V30 3629 H 333.08 0.279752 -1.46757 0
M  V30 3630 H 334.962 3.14736 -2.80212 0
M  V30 3631 H 333.637 2.77568 -1.66546 0
M  V30 3632 H 332.544 1.34709 -3.49005 0
M  V30 3633 H 333.877 1.79071 -4.5847 0
M  V30 3634 N 335.529 1.53961 0.336706 0
M  V30 3635 C 336.806 1.62171 1.09361 0
M  V30 3636 C 337.186 0.447263 2.06307 0
M  V30 3637 O 336.534 -0.559802 2.21537 0
M  V30 3638 C 336.744 2.98565 1.80721 0
M  V30 3639 C 338.092 3.54157 2.34218 0
M  V30 3640 O 339.116 3.00784 1.90807 0
M  V30 3641 O 337.975 4.47528 3.13657 0
M  V30 3642 H 335.069 0.6562 0.503319 0
M  V30 3643 H 337.615 1.66307 0.33765 0
M  V30 3644 H 336.387 3.75482 1.10132 0
M  V30 3645 H 336.01 2.9805 2.63158 0
M  V30 3646 N 337.007 -0.598083 1.45811 0
M  V30 3647 C 337.939 -1.72231 1.51225 0
M  V30 3648 C 338.952 -1.57757 0.402059 0
M  V30 3649 O 340.141 -1.65464 0.669624 0
M  V30 3650 C 337.241 -3.10331 1.3619 0
M  V30 3651 C 336.414 -3.50955 2.61054 0
M  V30 3652 C 335.473 -4.68055 2.40439 0
M  V30 3653 O 334.499 -4.74691 3.14097 0
M  V30 3654 N 335.701 -5.61941 1.45612 0
M  V30 3655 H 338.466 -1.68046 2.48154 0
M  V30 3656 H 336.027 -0.783637 1.41671 0
M  V30 3657 H 338.019 -3.86439 1.20195 0
M  V30 3658 H 336.589 -3.0897 0.475015 0
M  V30 3659 H 335.809 -2.64711 2.92099 0
M  V30 3660 H 337.097 -3.74858 3.44034 0
M  V30 3661 H 336.495 -5.59301 0.848431 0
M  V30 3662 H 335.052 -6.37542 1.35585 0
M  V30 3663 N 338.485 -1.33259 -0.841409 0
M  V30 3664 C 339.432 -1.23302 -1.95103 0
M  V30 3665 C 340.402 -0.112204 -1.65721 0
M  V30 3666 O 341.587 -0.290038 -1.88583 0
M  V30 3667 C 338.727 -0.975583 -3.31023 0
M  V30 3668 C 337.84 -2.18243 -3.72819 0
M  V30 3669 C 336.975 -1.85936 -4.97595 0
M  V30 3670 C 336.014 -3.02866 -5.3192 0
M  V30 3671 N 335.151 -2.70565 -6.47873 0
M  V30 3672 H 339.991 -2.18207 -2.02952 0
M  V30 3673 H 337.528 -1.0851 -0.993173 0
M  V30 3674 H 339.486 -0.80677 -4.09325 0
M  V30 3675 H 338.116 -0.0632755 -3.22738 0
M  V30 3676 H 337.168 -2.46107 -2.90061 0
M  V30 3677 H 338.48 -3.05666 -3.94169 0
M  V30 3678 H 337.634 -1.65684 -5.83638 0
M  V30 3679 H 336.373 -0.957452 -4.78209 0
M  V30 3680 H 335.378 -3.23736 -4.44382 0
M  V30 3681 H 336.603 -3.93809 -5.53255 0
M  V30 3682 H 334.549 -1.8293 -6.29978 0
M  V30 3683 H 334.466 -3.51519 -6.69306 0
M  V30 3684 H 335.734 -2.53774 -7.37034 0
M  V30 3685 N 339.963 1.05934 -1.16686 0
M  V30 3686 C 340.911 2.15603 -0.872817 0
M  V30 3687 C 341.905 1.68647 0.159576 0
M  V30 3688 O 343.111 1.79995 0.0132125 0
M  V30 3689 H 339.486 0.703885 -0.264671 0
M  V30 3690 H 341.457 2.37613 -1.80507 0
M  V30 3691 C 340.206 3.45457 -0.394344 0
M  V30 3692 H 339.529 3.81984 -1.18019 0
M  V30 3693 H 340.969 4.2339 -0.227408 0
M  V30 3694 C 339.428 3.25021 0.88673 0
M  V30 3695 O 339.958 3.50906 1.95519 0
M  V30 3696 N 338.164 2.78437 0.831925 0
M  V30 3697 H 337.711 2.57572 -0.0377619 0
M  V30 3698 H 337.669 2.65144 1.68956 0
M  V30 3699 N 341.441 0.965919 1.2453 0
M  V30 3700 C 342.852 0.665929 1.7442 0
M  V30 3701 C 343.203 -0.818407 1.78316 0
M  V30 3702 O 342.328 -1.64037 1.41141 0
M  V30 3703 C 342.923 1.20211 3.16757 0
M  V30 3704 C 341.482 0.952059 3.6416 0
M  V30 3705 C 340.629 1.33848 2.42858 0
M  V30 3706 H 343.58 1.14144 1.10258 0
M  V30 3707 H 343.601 0.567544 3.76244 0
M  V30 3708 H 343.113 2.28244 3.13889 0
M  V30 3709 H 341.214 -0.112821 3.72429 0
M  V30 3710 H 341.327 1.59645 4.51719 0
M  V30 3711 H 339.691 0.756864 2.43195 0
M  V30 3712 H 340.474 2.42827 2.42673 0
M  V30 3713 N 342.919 -1.39368 0.735821 0
M  V30 3714 C 344.335 -1.54204 0.411492 0
M  V30 3715 C 344.535 -1.70268 -1.07755 0
M  V30 3716 O 343.591 -1.70364 -1.86366 0
M  V30 3717 C 344.904 -2.75925 1.19523 0
M  V30 3718 C 346.452 -2.89761 1.18354 0
M  V30 3719 C 346.927 -4.14421 1.94986 0
M  V30 3720 N 348.418 -4.21462 1.92156 0
M  V30 3721 C 349.153 -5.16871 2.48258 0
M  V30 3722 N 348.649 -6.18063 3.13001 0
M  V30 3723 N 350.442 -5.09093 2.38287 0
M  V30 3724 H 342.593 -1.27189 1.70108 0
M  V30 3725 H 344.856 -0.616517 0.720147 0
M  V30 3726 H 344.562 -2.70401 2.24892 0
M  V30 3727 H 344.436 -3.68614 0.800222 0
M  V30 3728 H 346.823 -2.94777 0.137975 0
M  V30 3729 H 346.904 -1.98133 1.61793 0
M  V30 3730 H 346.548 -4.10166 2.99543 0
M  V30 3731 H 346.478 -5.05095 1.48953 0
M  V30 3732 H 348.969 -3.48979 1.44991 0
M  V30 3733 H 349.282 -6.87326 3.53275 0
M  V30 3734 H 347.627 -6.18448 3.17091 0
M  V30 3735 H 350.818 -4.28973 1.8735 0
M  V30 3736 H 350.991 -5.83272 2.82308 0
M  V30 3737 N 344.397 -0.483516 -1.5 0
M  V30 3738 C 345.344 0.304164 -2.28787 0
M  V30 3739 C 346.314 0.976114 -1.34392 0
M  V30 3740 O 347.499 0.986156 -1.63339 0
M  V30 3741 C 344.639 1.37298 -3.16612 0
M  V30 3742 C 343.752 0.714561 -4.26049 0
M  V30 3743 C 342.887 1.76232 -5.01114 0
M  V30 3744 C 341.926 1.08483 -6.0241 0
M  V30 3745 N 341.063 2.076 -6.70706 0
M  V30 3746 H 345.903 -0.373981 -2.95644 0
M  V30 3747 H 343.44 -0.196275 -1.45785 0
M  V30 3748 H 345.398 2.00445 -3.65893 0
M  V30 3749 H 344.028 2.02012 -2.51776 0
M  V30 3750 H 343.08 -0.0297798 -3.80388 0
M  V30 3751 H 344.392 0.180383 -4.98474 0
M  V30 3752 H 343.546 2.46929 -5.54176 0
M  V30 3753 H 342.285 2.33033 -4.28424 0
M  V30 3754 H 341.29 0.363545 -5.48597 0
M  V30 3755 H 342.515 0.523551 -6.77079 0
M  V30 3756 H 340.461 2.63394 -6.00799 0
M  V30 3757 H 340.378 1.59201 -7.39047 0
M  V30 3758 H 341.646 2.77639 -7.2838 0
M  V30 3759 N 345.875 1.56104 -0.216619 0
M  V30 3760 C 346.838 2.18819 0.681962 0
M  V30 3761 C 347.838 1.14866 1.12528 0
M  V30 3762 O 349.028 1.40128 1.03488 0
M  V30 3763 C 346.16 2.80756 1.93362 0
M  V30 3764 H 347.353 2.99595 0.135254 0
M  V30 3765 H 344.906 1.56265 0.0330003 0
M  V30 3766 H 345.641 2.03837 2.52232 0
M  V30 3767 H 345.426 3.56876 1.62426 0
M  V30 3768 H 346.916 3.28844 2.57393 0
M  V30 3769 N 347.353 -0.0568162 1.57498 0
M  V30 3770 C 348.769 -0.411933 1.54192 0
M  V30 3771 C 348.969 -1.78287 0.938942 0
M  V30 3772 O 348.025 -2.46483 0.547919 0
M  V30 3773 C 349.338 -0.339244 2.9878 0
M  V30 3774 C 350.886 -0.418348 3.10192 0
M  V30 3775 C 351.361 -0.375407 4.56459 0
M  V30 3776 N 352.852 -0.435038 4.61153 0
M  V30 3777 C 353.587 -0.424265 5.71828 0
M  V30 3778 N 353.083 -0.367418 6.91825 0
M  V30 3779 N 354.876 -0.471938 5.60115 0
M  V30 3780 H 347.027 0.840684 1.95055 0
M  V30 3781 H 349.29 0.316987 0.893433 0
M  V30 3782 H 348.996 0.601742 3.46514 0
M  V30 3783 H 348.87 -1.14371 3.59443 0
M  V30 3784 H 351.257 -1.34976 2.62422 0
M  V30 3785 H 351.338 0.414962 2.52412 0
M  V30 3786 H 350.982 0.552219 5.04889 0
M  V30 3787 H 350.912 -1.22645 5.12119 0
M  V30 3788 H 353.403 -0.482612 3.74806 0
M  V30 3789 H 353.716 -0.363535 7.71944 0
M  V30 3790 H 352.061 -0.333879 6.94198 0
M  V30 3791 H 355.252 -0.514145 4.65268 0
M  V30 3792 H 355.425 -0.460073 6.46365 0
M  V30 3793 N 348.832 -1.54138 -0.328536 0
M  V30 3794 C 350.078 -1.7236 -1.06865 0
M  V30 3795 C 350.411 -0.493231 -1.87832 0
M  V30 3796 O 349.686 0.5098 -1.877 0
M  V30 3797 C 349.969 -2.99621 -1.99747 0
M  V30 3798 C 349.822 -4.32899 -1.22143 0
M  V30 3799 C 351.141 -3.22615 -2.99345 0
M  V30 3800 H 348.26 -0.627151 -0.387105 0
M  V30 3801 H 350.902 -1.86827 -0.345767 0
M  V30 3802 H 349.052 -2.87418 -2.61387 0
M  V30 3803 H 350.724 -4.56978 -0.630017 0
M  V30 3804 H 348.967 -4.30628 -0.523628 0
M  V30 3805 H 349.638 -5.18154 -1.90318 0
M  V30 3806 H 352.114 -3.34248 -2.47826 0
M  V30 3807 H 350.99 -4.13027 -3.61524 0
M  V30 3808 H 351.251 -2.3961 -3.71536 0
M  V30 3809 N 350.31 0.590341 -1.46126 0
M  V30 3810 C 351.538 1.37504 -1.54597 0
M  V30 3811 C 351.953 1.87897 -0.184447 0
M  V30 3812 O 351.31 1.63192 0.816984 0
M  V30 3813 C 351.361 2.56779 -2.54454 0
M  V30 3814 O 351.082 2.08476 -3.85317 0
M  V30 3815 C 352.583 3.49427 -2.72792 0
M  V30 3816 H 349.803 0.420325 -0.523037 0
M  V30 3817 H 352.347 0.718383 -1.91467 0
M  V30 3818 H 350.502 3.1845 -2.20609 0
M  V30 3819 H 350.916 2.86097 -4.396 0
M  V30 3820 H 352.39 4.29619 -3.466 0
M  V30 3821 H 352.867 4.00876 -1.79429 0
M  V30 3822 H 353.473 2.93598 -3.07702 0
M  V30 3823 N 351.788 1.33704 0.83433 0
M  V30 3824 C 353.204 1.13137 1.12571 0
M  V30 3825 C 353.404 -0.0747261 2.01361 0
M  V30 3826 O 352.46 -0.753647 2.4099 0
M  V30 3827 C 353.773 2.42105 1.78342 0
M  V30 3828 C 355.321 2.48054 1.90888 0
M  V30 3829 C 355.796 3.76995 2.60075 0
M  V30 3830 N 357.287 3.78092 2.67584 0
M  V30 3831 C 358.022 4.74574 3.21818 0
M  V30 3832 N 357.518 5.81434 3.76705 0
M  V30 3833 N 359.311 4.62044 3.20112 0
M  V30 3834 H 351.462 2.11 0.243489 0
M  V30 3835 H 353.725 0.932532 0.17055 0
M  V30 3836 H 353.431 3.30391 1.20561 0
M  V30 3837 H 353.305 2.54594 2.7832 0
M  V30 3838 H 355.692 1.60215 2.47821 0
M  V30 3839 H 355.773 2.39502 0.898459 0
M  V30 3840 H 355.417 4.65219 2.03799 0
M  V30 3841 H 355.347 3.82825 3.61597 0
M  V30 3842 H 357.838 3.00865 2.28667 0
M  V30 3843 H 358.151 6.51084 4.16305 0
M  V30 3844 H 356.496 5.85163 3.7498 0
M  V30 3845 H 359.687 3.77716 2.76493 0
M  V30 3846 H 359.86 5.37406 3.62076 0
M  V30 3847 N 353.266 -1.05314 1.17247 0
M  V30 3848 C 354.682 -1.30452 0.919473 0
M  V30 3849 C 354.882 -1.9703 -0.42209 0
M  V30 3850 O 353.938 -2.24311 -1.15935 0
M  V30 3851 C 355.251 -2.17551 2.07586 0
M  V30 3852 C 356.799 -2.30937 2.11275 0
M  V30 3853 C 357.274 -3.21396 3.26296 0
M  V30 3854 N 358.765 -3.28981 3.26076 0
M  V30 3855 C 359.5 -3.99095 4.11716 0
M  V30 3856 N 358.996 -4.71648 5.07465 0
M  V30 3857 N 360.789 -3.95247 3.9967 0
M  V30 3858 H 352.94 -0.604988 2.03602 0
M  V30 3859 H 355.203 -0.329368 0.888944 0
M  V30 3860 H 354.909 -1.75921 3.0454 0
M  V30 3861 H 354.783 -3.18182 2.02584 0
M  V30 3862 H 357.17 -2.71809 1.14907 0
M  V30 3863 H 357.251 -1.2994 2.20339 0
M  V30 3864 H 356.895 -2.81238 4.22927 0
M  V30 3865 H 356.825 -4.22395 3.14467 0
M  V30 3866 H 359.316 -2.77286 2.5675 0
M  V30 3867 H 359.629 -5.22705 5.6921 0
M  V30 3868 H 357.974 -4.70594 5.11435 0
M  V30 3869 H 361.165 -3.37691 3.24164 0
M  V30 3870 H 361.338 -4.4962 4.66632 0
M  V30 3871 N 354.744 -0.972509 -1.24016 0
M  V30 3872 C 355.991 -0.637034 -1.92219 0
M  V30 3873 C 356.319 0.828418 -1.75976 0
M  V30 3874 O 355.574 1.61206 -1.10955 0
M  V30 3875 C 355.873 -0.963694 -3.44162 0
M  V30 3876 C 355.539 -2.41807 -3.80579 0
M  V30 3877 C 354.201 -2.81556 -3.9023 0
M  V30 3878 C 356.553 -3.36172 -3.98293 0
M  V30 3879 C 353.881 -4.14702 -4.15017 0
M  V30 3880 C 356.233 -4.68952 -4.24578 0
M  V30 3881 C 354.897 -5.08472 -4.32449 0
M  V30 3882 H 354.167 -0.233107 -0.703379 0
M  V30 3883 H 356.814 -1.2249 -1.47202 0
M  V30 3884 H 355.119 -0.29365 -3.90698 0
M  V30 3885 H 356.816 -0.682449 -3.9515 0
M  V30 3886 H 353.406 -2.09988 -3.73635 0
M  V30 3887 H 357.59 -3.06644 -3.90234 0
M  V30 3888 H 352.846 -4.4494 -4.19331 0
M  V30 3889 H 357.02 -5.42037 -4.37229 0
M  V30 3890 H 354.647 -6.11665 -4.51409 0
M  V30 3891 N 356.222 1.38976 -0.743202 0
M  V30 3892 C 357.471 1.99581 -0.291592 0
M  V30 3893 C 357.784 1.59656 1.13001 0
M  V30 3894 O 358.99 2.13157 1.68156 0
M  V30 3895 C 357.446 3.56813 -0.470391 0
M  V30 3896 C 357.054 4.05695 -1.90041 0
M  V30 3897 C 358.798 4.24423 -0.0809709 0
M  V30 3898 C 356.705 5.5553 -2.02832 0
M  V30 3899 H 355.635 0.746615 -0.105272 0
M  V30 3900 H 358.286 1.58872 -0.918258 0
M  V30 3901 H 356.668 3.95359 0.225299 0
M  V30 3902 H 357.842 3.78464 -2.62872 0
M  V30 3903 H 356.157 3.50775 -2.24379 0
M  V30 3904 H 358.754 5.34474 -0.155445 0
M  V30 3905 H 359.097 4.04962 0.96497 0
M  V30 3906 H 359.63 3.9108 -0.728124 0
M  V30 3907 H 356.369 5.79881 -3.05643 0
M  V30 3908 H 355.889 5.84537 -1.34448 0
M  V30 3909 H 357.568 6.21069 -1.81335 0
M  V30 3910 N 357.7 0.491464 1.49741 0
M  V30 3911 C 358.946 -0.0565092 2.02721 0
M  V30 3912 C 359.279 -1.37522 1.37118 0
M  V30 3913 O 358.554 -1.87866 0.503645 0
M  V30 3914 C 358.837 -0.219051 3.59433 0
M  V30 3915 C 358.69 1.12211 4.35579 0
M  V30 3916 C 360.009 -0.964157 4.29409 0
M  V30 3917 H 357.128 -0.0190627 0.736753 0
M  V30 3918 H 359.77 0.641021 1.7886 0
M  V30 3919 H 357.92 -0.813165 3.79895 0
M  V30 3920 H 359.592 1.75437 4.26637 0
M  V30 3921 H 357.835 1.71377 3.98513 0
M  V30 3922 H 358.506 0.961794 5.43556 0
M  V30 3923 H 360.982 -0.460378 4.13545 0
M  V30 3924 H 359.858 -1.04671 5.38828 0
M  V30 3925 H 360.119 -2.00563 3.93988 0
M  V30 3926 N 359.178 -1.55987 0.224894 0
M  V30 3927 C 360.424 -1.98684 -0.406502 0
M  V30 3928 C 360.757 -1.11248 -1.59177 0
M  V30 3929 O 360.032 -0.170909 -1.93748 0
M  V30 3930 C 360.315 -3.50218 -0.837808 0
M  V30 3931 C 360.168 -4.48426 0.351332 0
M  V30 3932 C 361.487 -4.06243 -1.69278 0
M  V30 3933 H 358.606 -0.722337 -0.146283 0
M  V30 3934 H 361.248 -1.87255 0.321799 0
M  V30 3935 H 359.398 -3.60089 -1.45837 0
M  V30 3936 H 361.07 -4.50562 0.989526 0
M  V30 3937 H 359.313 -4.22159 0.998207 0
M  V30 3938 H 359.984 -5.52 0.00655905 0
M  V30 3939 H 362.46 -3.99337 -1.16914 0
M  V30 3940 H 361.336 -5.12581 -1.96346 0
M  V30 3941 H 361.597 -3.53332 -2.65723 0
M  V30 3942 N 360.656 0.0484629 -1.57525 0
M  V30 3943 C 361.566 1.07241 -2.08654 0
M  V30 3944 C 362.582 1.409 -1.02095 0
M  V30 3945 O 363.758 1.50609 -1.33712 0
M  V30 3946 C 360.823 2.36008 -2.5397 0
M  V30 3947 C 359.884 2.09108 -3.7493 0
M  V30 3948 C 359.117 3.31736 -4.18075 0
M  V30 3949 O 359.34 4.41714 -3.60895 0
M  V30 3950 O 358.274 3.18576 -5.10679 0
M  V30 3951 H 362.1 0.667965 -2.96263 0
M  V30 3952 H 359.685 0.26417 -1.47046 0
M  V30 3953 H 361.567 3.11747 -2.83535 0
M  V30 3954 H 360.242 2.75786 -1.69481 0
M  V30 3955 H 359.149 1.31 -3.50414 0
M  V30 3956 H 360.482 1.74198 -4.60343 0
M  V30 3957 N 362.134 1.5431 0.320358 0
M  V30 3958 C 363.382 1.72327 1.05583 0
M  V30 3959 C 363.703 0.50149 1.88441 0
M  V30 3960 O 362.973 -0.48448 1.89815 0
M  V30 3961 H 361.553 0.635387 0.3928 0
M  V30 3962 H 364.215 1.91621 0.356019 0
M  V30 3963 H 363.311 2.60426 1.72003 0
M  V30 3964 N 363.613 -0.582584 1.46437 0
M  V30 3965 C 364.543 -1.70187 1.59871 0
M  V30 3966 C 365.524 -1.64066 0.449042 0
M  V30 3967 O 366.709 -1.82081 0.6753 0
M  V30 3968 C 363.839 -3.08827 1.58881 0
M  V30 3969 C 362.793 -3.29779 2.72819 0
M  V30 3970 C 362.119 -4.68947 2.5689 0
M  V30 3971 C 363.419 -3.17601 4.1464 0
M  V30 3972 H 365.113 -1.592 2.53566 0
M  V30 3973 H 362.659 -0.764472 1.22032 0
M  V30 3974 H 364.612 -3.86951 1.66873 0
M  V30 3975 H 363.336 -3.20713 0.617306 0
M  V30 3976 H 361.995 -2.54054 2.64296 0
M  V30 3977 H 361.643 -4.77599 1.57823 0
M  V30 3978 H 361.343 -4.83919 3.33312 0
M  V30 3979 H 362.867 -5.4924 2.66773 0
M  V30 3980 H 364.281 -3.8557 4.24274 0
M  V30 3981 H 362.678 -3.44094 4.9165 0
M  V30 3982 H 363.748 -2.14681 4.34788 0
M  V30 3983 N 365.091 -1.34144 -0.827227 0
M  V30 3984 C 366.321 -1.29138 -1.61267 0
M  V30 3985 C 366.729 0.137597 -1.88699 0
M  V30 3986 O 366.072 1.09379 -1.47587 0
M  V30 3987 C 366.134 -2.0097 -2.9808 0
M  V30 3988 C 365.798 -3.50242 -2.93563 0
M  V30 3989 C 366.795 -4.4523 -2.68452 0
M  V30 3990 C 364.48 -3.92592 -3.13331 0
M  V30 3991 C 366.474 -5.80542 -2.63154 0
M  V30 3992 C 364.161 -5.28005 -3.07658 0
M  V30 3993 C 365.159 -6.21792 -2.82602 0
M  V30 3994 O 364.847 -7.54723 -2.76853 0
M  V30 3995 H 364.579 -0.445851 -0.508127 0
M  V30 3996 H 367.133 -1.77263 -1.03763 0
M  V30 3997 H 365.363 -1.47451 -3.57484 0
M  V30 3998 H 367.052 -1.89309 -3.5905 0
M  V30 3999 H 367.818 -4.13832 -2.52919 0
M  V30 4000 H 363.697 -3.19994 -3.31851 0
M  V30 4001 H 367.241 -6.53717 -2.43516 0
M  V30 4002 H 363.138 -5.59023 -3.22743 0
M  V30 4003 H 363.906 -7.64409 -2.92611 0
M  V30 4004 N 366.569 1.04691 -1.17803 0
M  V30 4005 C 367.502 2.12068 -0.842765 0
M  V30 4006 C 368.48 1.61455 0.192608 0
M  V30 4007 O 369.664 1.88359 0.072995 0
M  V30 4008 C 366.791 3.37715 -0.258063 0
M  V30 4009 C 365.837 4.07164 -1.26962 0
M  V30 4010 S 366.67 4.55047 -2.82299 0
M  V30 4011 C 367.826 5.83935 -2.25323 0
M  V30 4012 H 368.059 2.4018 -1.75217 0
M  V30 4013 H 365.592 1.17366 -1.00323 0
M  V30 4014 H 367.55 4.10435 0.0727935 0
M  V30 4015 H 366.211 3.0773 0.629357 0
M  V30 4016 H 365.404 4.9746 -0.809263 0
M  V30 4017 H 365.006 3.40533 -1.54639 0
M  V30 4018 H 367.298 6.57552 -1.63192 0
M  V30 4019 H 368.241 6.34725 -3.13894 0
M  V30 4020 H 368.649 5.3874 -1.68582 0
M  V30 4021 N 368.047 0.979072 1.23499 0
M  V30 4022 C 368.995 0.510604 2.26926 0
M  V30 4023 C 369.989 -0.431691 1.63807 0
M  V30 4024 O 371.195 -0.30573 1.77385 0
M  V30 4025 H 367.57 0.146688 0.737554 0
M  V30 4026 H 369.541 1.39466 2.63803 0
M  V30 4027 C 368.29 -0.172658 3.47271 0
M  V30 4028 H 367.613 0.543331 3.96091 0
M  V30 4029 H 369.053 -0.464101 4.21452 0
M  V30 4030 C 367.512 -1.40345 3.06276 0
M  V30 4031 O 368.042 -2.49978 3.14442 0
M  V30 4032 N 366.248 -1.27362 2.61203 0
M  V30 4033 H 365.795 -0.381584 2.54758 0
M  V30 4034 H 365.753 -2.09822 2.34141 0
M  V30 4035 N 369.525 -1.3858 0.750561 0
M  V30 4036 C 370.753 -2.04471 0.316098 0
M  V30 4037 C 371.168 -1.56606 -1.05452 0
M  V30 4038 O 370.525 -0.737784 -1.66922 0
M  V30 4039 C 370.576 -3.60025 0.326275 0
M  V30 4040 O 370.297 -4.06133 1.6428 0
M  V30 4041 C 371.798 -4.43131 -0.122429 0
M  V30 4042 H 369.018 -0.65717 0.135528 0
M  V30 4043 H 371.562 -1.77329 1.01857 0
M  V30 4044 H 369.717 -3.86014 -0.327431 0
M  V30 4045 H 370.131 -5.00547 1.56693 0
M  V30 4046 H 371.605 -5.51963 -0.0641473 0
M  V30 4047 H 372.082 -4.23333 -1.16988 0
M  V30 4048 H 372.688 -4.22323 0.50229 0
M  V30 4049 N 371.003 -0.499398 -1.49478 0
M  V30 4050 C 372.251 0.0455996 -2.02049 0
M  V30 4051 C 372.572 1.37633 -1.38138 0
M  V30 4052 O 371.842 1.8842 -0.536166 0
M  V30 4053 H 370.422 0.0198416 -0.746736 0
M  V30 4054 H 373.084 -0.656274 -1.83519 0
M  V30 4055 H 372.18 0.176445 -3.11601 0
M  V30 4056 N 372.481 1.55866 -0.233164 0
M  V30 4057 C 373.709 2.02998 0.399905 0
M  V30 4058 C 374.124 1.11274 1.52524 0
M  V30 4059 O 373.481 0.124528 1.82075 0
M  V30 4060 C 373.532 3.4958 0.920639 0
M  V30 4061 O 373.253 4.37808 -0.159834 0
M  V30 4062 C 374.754 4.12411 1.62578 0
M  V30 4063 H 371.974 0.664006 0.0966281 0
M  V30 4064 H 374.518 2.0143 -0.353013 0
M  V30 4065 H 372.673 3.51727 1.62379 0
M  V30 4066 H 373.087 5.23981 0.23337 0
M  V30 4067 H 374.561 5.16711 1.94201 0
M  V30 4068 H 375.038 3.5809 2.54299 0
M  V30 4069 H 375.644 4.14148 0.967553 0
M  V30 4070 N 373.959 -0.0401083 1.57549 0
M  V30 4071 C 375.208 -0.732108 1.87944 0
M  V30 4072 C 375.521 -1.77107 0.830206 0
M  V30 4073 O 376.727 -2.51488 1.02302 0
M  V30 4074 C 375.183 -1.35315 3.33494 0
M  V30 4075 C 374.791 -0.351105 4.46622 0
M  V30 4076 C 376.535 -2.02566 3.73051 0
M  V30 4077 C 374.442 -0.979859 5.83226 0
M  V30 4078 H 373.372 -0.277188 0.701201 0
M  V30 4079 H 376.023 0.0138501 1.83495 0
M  V30 4080 H 374.405 -2.14844 3.32653 0
M  V30 4081 H 375.579 0.416674 4.58912 0
M  V30 4082 H 373.894 0.218708 4.15825 0
M  V30 4083 H 376.491 -2.50441 4.72423 0
M  V30 4084 H 376.834 -2.83904 3.04474 0
M  V30 4085 H 377.367 -1.29827 3.76018 0
M  V30 4086 H 374.106 -0.206135 6.55176 0
M  V30 4087 H 373.626 -1.71774 5.74677 0
M  V30 4088 H 375.305 -1.49046 6.29599 0
M  V30 4089 N 375.437 -1.54477 -0.31217 0
M  V30 4090 C 376.677 -1.74958 -1.05684 0
M  V30 4091 C 377.041 -0.518414 -1.84869 0
M  V30 4092 O 378.242 -0.600759 -2.62001 0
M  V30 4093 C 376.513 -2.99656 -1.94785 0
M  V30 4094 S 378.072 -3.4109 -2.76049 0
M  V30 4095 H 374.89 -0.615104 -0.356606 0
M  V30 4096 H 377.492 -1.92669 -0.331514 0
M  V30 4097 H 376.196 -3.87397 -1.35468 0
M  V30 4098 H 375.727 -2.845 -2.71704 0
M  V30 4099 H 377.742 -2.97283 -3.97287 0
M  V30 4100 N 376.915 0.57481 -1.46744 0
M  V30 4101 C 378.326 1.15695 -1.46532 0
M  V30 4102 C 378.677 1.95068 -0.210425 0
M  V30 4103 O 377.802 2.05241 0.685944 0
M  V30 4104 C 378.397 2.1048 -2.65487 0
M  V30 4105 C 376.956 2.64002 -2.68291 0
M  V30 4106 C 376.103 1.40026 -2.39349 0
M  V30 4107 H 379.054 0.362325 -1.54509 0
M  V30 4108 H 379.075 2.94074 -2.41455 0
M  V30 4109 H 378.587 1.52683 -3.56805 0
M  V30 4110 H 376.688 3.25646 -1.81067 0
M  V30 4111 H 376.801 3.06197 -3.68483 0
M  V30 4112 H 375.165 1.70106 -1.89568 0
M  V30 4113 H 375.948 0.840485 -3.32852 0
M  V30 4114 N 378.394 1.34581 0.820102 0
M  V30 4115 C 379.324 1.29038 1.94606 0
M  V30 4116 C 380.305 0.1673 1.69275 0
M  V30 4117 O 381.49 0.360112 1.90832 0
M  V30 4118 C 378.62 1.04793 3.31113 0
M  V30 4119 C 377.574 2.13597 3.70891 0
M  V30 4120 C 376.9 1.74537 5.05412 0
M  V30 4121 C 378.2 3.55451 3.8269 0
M  V30 4122 H 379.894 2.23248 1.99501 0
M  V30 4123 H 377.44 1.0747 0.958449 0
M  V30 4124 H 379.393 0.995592 4.0947 0
M  V30 4125 H 378.117 0.0702565 3.26524 0
M  V30 4126 H 376.776 2.17905 2.9481 0
M  V30 4127 H 376.424 0.754226 4.97313 0
M  V30 4128 H 376.124 2.47361 5.32997 0
M  V30 4129 H 377.648 1.70803 5.86224 0
M  V30 4130 H 379.062 3.5354 4.51312 0
M  V30 4131 H 377.459 4.26922 4.21732 0
M  V30 4132 H 378.529 3.92587 2.84611 0
M  V30 4133 N 379.872 -1.04064 1.18357 0
M  V30 4134 C 381.283 -1.58719 0.98312 0
M  V30 4135 C 381.634 -1.90556 -0.467193 0
M  V30 4136 O 380.759 -1.69561 -1.34454 0
M  V30 4137 C 381.354 -2.88379 1.77828 0
M  V30 4138 C 379.913 -3.3965 1.62218 0
M  V30 4139 C 379.06 -2.13235 1.77274 0
M  V30 4140 H 382.011 -0.867359 1.32901 0
M  V30 4141 H 382.032 -3.58773 1.26737 0
M  V30 4142 H 381.544 -2.65176 2.83379 0
M  V30 4143 H 379.645 -3.67866 0.592036 0
M  V30 4144 H 379.758 -4.13475 2.42023 0
M  V30 4145 H 378.122 -2.24542 1.20221 0
M  V30 4146 H 378.905 -1.92487 2.8426 0
M  V30 4147 N 381.35 -0.985608 -1.22978 0
M  V30 4148 C 382.26 -0.538548 -2.28335 0
M  V30 4149 C 383.276 0.409163 -1.69121 0
M  V30 4150 O 384.452 0.277797 -1.99475 0
M  V30 4151 C 381.517 0.146867 -3.46389 0
M  V30 4152 C 380.578 -0.842896 -4.20944 0
M  V30 4153 C 379.811 -0.190095 -5.33361 0
M  V30 4154 O 380.034 1.01767 -5.61248 0
M  V30 4155 O 378.968 -0.891289 -5.95264 0
M  V30 4156 H 382.794 -1.41487 -2.68729 0
M  V30 4157 H 380.379 -0.753495 -1.29007 0
M  V30 4158 H 382.261 0.531125 -4.1804 0
M  V30 4159 H 380.936 0.997871 -3.07935 0
M  V30 4160 H 379.843 -1.27795 -3.51595 0
M  V30 4161 H 381.176 -1.66287 -4.6326 0
M  V30 4162 N 382.828 1.3818 -0.7579 0
M  V30 4163 C 383.758 2.33027 -0.148597 0
M  V30 4164 C 384.739 1.55085 0.69875 0
M  V30 4165 O 385.924 1.83384 0.639053 0
M  V30 4166 C 383.054 3.3928 0.742034 0
M  V30 4167 C 382.008 4.28 -0.00291946 0
M  V30 4168 C 381.334 5.25146 1.00625 0
M  V30 4169 C 382.634 5.08938 -1.17385 0
M  V30 4170 H 384.328 2.84231 -0.940909 0
M  V30 4171 H 381.874 1.36659 -0.453908 0
M  V30 4172 H 383.827 4.046 1.17799 0
M  V30 4173 H 382.551 2.86569 1.56671 0
M  V30 4174 H 381.21 3.64192 -0.419504 0
M  V30 4175 H 380.858 4.68721 1.8251 0
M  V30 4176 H 380.558 5.85361 0.512428 0
M  V30 4177 H 382.082 5.93342 1.44143 0
M  V30 4178 H 383.496 5.67474 -0.815224 0
M  V30 4179 H 381.893 5.7841 -1.59882 0
M  V30 4180 H 382.963 4.42424 -1.98468 0
M  V30 4181 N 384.306 0.507319 1.49211 0
M  V30 4182 C 385.552 -0.0350047 2.0277 0
M  V30 4183 C 385.885 -1.3606 1.38569 0
M  V30 4184 O 385.16 -1.87321 0.523542 0
M  V30 4185 C 385.443 -0.180916 3.59645 0
M  V30 4186 C 385.296 1.16825 4.34364 0
M  V30 4187 C 386.615 -0.918558 4.30407 0
M  V30 4188 H 383.734 -0.0112473 0.736914 0
M  V30 4189 H 386.376 0.659956 1.7817 0
M  V30 4190 H 384.526 -0.772826 3.80736 0
M  V30 4191 H 386.198 1.79952 4.24753 0
M  V30 4192 H 384.441 1.75594 3.96673 0
M  V30 4193 H 385.112 1.01939 5.42506 0
M  V30 4194 H 387.588 -0.41649 4.1401 0
M  V30 4195 H 386.464 -0.989505 5.39907 0
M  V30 4196 H 386.725 -1.96373 3.96093 0
M  V30 4197 N 385.784 -1.5574 0.241426 0
M  V30 4198 C 386.731 -2.21149 -0.660432 0
M  V30 4199 C 387.701 -1.17356 -1.17545 0
M  V30 4200 O 388.886 -1.45784 -1.23093 0
M  V30 4201 C 386.026 -2.91059 -1.85414 0
M  V30 4202 C 385.139 -4.09495 -1.37616 0
M  V30 4203 C 384.274 -4.67135 -2.529 0
M  V30 4204 C 383.313 -5.77831 -2.01936 0
M  V30 4205 N 382.45 -6.29677 -3.10566 0
M  V30 4206 H 387.29 -2.97845 -0.095955 0
M  V30 4207 H 384.827 -1.47057 -0.0356024 0
M  V30 4208 H 386.785 -3.29788 -2.5553 0
M  V30 4209 H 385.415 -2.16846 -2.39118 0
M  V30 4210 H 384.467 -3.76117 -0.569235 0
M  V30 4211 H 385.779 -4.89423 -0.962618 0
M  V30 4212 H 384.933 -5.08409 -3.31067 0
M  V30 4213 H 383.672 -3.86411 -2.97553 0
M  V30 4214 H 382.677 -5.36039 -1.22238 0
M  V30 4215 H 383.902 -6.60402 -1.58259 0
M  V30 4216 H 381.848 -5.5186 -3.54664 0
M  V30 4217 H 381.765 -7.04783 -2.73526 0
M  V30 4218 H 383.033 -6.75609 -3.88809 0
M  V30 4219 N 387.262 0.0317525 -1.57568 0
M  V30 4220 C 388.192 1.03274 -2.0942 0
M  V30 4221 C 389.173 1.3788 -0.996143 0
M  V30 4222 O 390.358 1.46811 -1.27122 0
M  V30 4223 C 387.488 2.33448 -2.57137 0
M  V30 4224 C 386.442 2.13091 -3.71182 0
M  V30 4225 C 385.768 3.49001 -4.05095 0
M  V30 4226 C 387.068 1.51928 -4.99715 0
M  V30 4227 H 388.762 0.60112 -2.93303 0
M  V30 4228 H 386.308 0.287705 -1.41097 0
M  V30 4229 H 388.261 3.03802 -2.92032 0
M  V30 4230 H 386.985 2.78665 -1.70333 0
M  V30 4231 H 385.644 1.45171 -3.36632 0
M  V30 4232 H 385.292 3.91862 -3.15362 0
M  V30 4233 H 384.992 3.36207 -4.81911 0
M  V30 4234 H 386.516 4.20721 -4.42522 0
M  V30 4235 H 387.93 2.12196 -5.32584 0
M  V30 4236 H 386.327 1.49716 -5.81124 0
M  V30 4237 H 387.397 0.484811 -4.8247 0
M  V30 4238 N 388.74 1.54641 0.303973 0
M  V30 4239 C 389.687 1.85386 1.37479 0
M  V30 4240 C 390.657 0.702528 1.50512 0
M  V30 4241 O 391.842 0.950867 1.65418 0
M  V30 4242 C 388.982 2.10413 2.73533 0
M  V30 4243 C 388.095 3.38049 2.68974 0
M  V30 4244 C 387.23 3.52934 3.97002 0
M  V30 4245 C 386.269 4.74373 3.86829 0
M  V30 4246 N 385.406 4.8608 5.06627 0
M  V30 4247 H 390.246 2.76732 1.1056 0
M  V30 4248 H 387.783 1.37034 0.534805 0
M  V30 4249 H 389.741 2.22919 3.52652 0
M  V30 4250 H 388.371 1.22338 2.98719 0
M  V30 4251 H 387.423 3.3418 1.81736 0
M  V30 4252 H 388.735 4.27288 2.57346 0
M  V30 4253 H 387.889 3.65088 4.84557 0
M  V30 4254 H 386.628 2.61824 4.1146 0
M  V30 4255 H 385.633 4.62255 2.97658 0
M  V30 4256 H 386.858 5.66888 3.73918 0
M  V30 4257 H 384.804 3.97891 5.21554 0
M  V30 4258 H 384.721 5.69315 4.9741 0
M  V30 4259 H 385.989 5.02587 5.95841 0
M  V30 4260 N 390.218 -0.567019 1.47046 0
M  V30 4261 C 391.448 -1.34831 1.56538 0
M  V30 4262 C 391.856 -1.8802 0.21101 0
M  V30 4263 O 391.199 -1.65152 -0.804387 0
M  V30 4264 C 391.261 -2.56139 2.52256 0
M  V30 4265 C 390.925 -2.24307 3.98165 0
M  V30 4266 C 391.922 -1.82192 4.86931 0
M  V30 4267 C 389.607 -2.35968 4.43423 0
M  V30 4268 C 391.601 -1.52153 6.18973 0
M  V30 4269 C 389.288 -2.05542 5.75496 0
M  V30 4270 C 390.286 -1.63701 6.63092 0
M  V30 4271 O 389.974 -1.33657 7.92711 0
M  V30 4272 H 389.706 -0.417683 0.531523 0
M  V30 4273 H 392.26 -0.694726 1.93294 0
M  V30 4274 H 390.49 -3.24356 2.10548 0
M  V30 4275 H 392.179 -3.18214 2.51982 0
M  V30 4276 H 392.945 -1.72684 4.53217 0
M  V30 4277 H 388.824 -2.67495 3.75456 0
M  V30 4278 H 392.368 -1.19421 6.87302 0
M  V30 4279 H 388.265 -2.14679 6.08755 0
M  V30 4280 H 389.033 -1.4737 8.05124 0
M  V30 4281 N 391.696 -1.35014 -0.812953 0
M  V30 4282 C 392.643 -1.27412 -1.92444 0
M  V30 4283 C 393.613 -0.14733 -1.65445 0
M  V30 4284 O 394.798 -0.329974 -1.87925 0
M  V30 4285 C 391.938 -1.04558 -3.28879 0
M  V30 4286 C 391.051 -2.26101 -3.68106 0
M  V30 4287 C 390.186 -1.96449 -4.9354 0
M  V30 4288 C 389.225 -3.14081 -5.25376 0
M  V30 4289 N 388.362 -2.84246 -6.41988 0
M  V30 4290 H 393.202 -2.22463 -1.98278 0
M  V30 4291 H 390.739 -1.10593 -0.969933 0
M  V30 4292 H 392.697 -0.893413 -4.07522 0
M  V30 4293 H 391.327 -0.131719 -3.22531 0
M  V30 4294 H 390.379 -2.52204 -2.84775 0
M  V30 4295 H 391.691 -3.13959 -3.87597 0
M  V30 4296 H 390.845 -1.78026 -5.79993 0
M  V30 4297 H 389.584 -1.05867 -4.76071 0
M  V30 4298 H 388.589 -3.33089 -4.37415 0
M  V30 4299 H 389.814 -4.05455 -5.44778 0
M  V30 4300 H 387.76 -1.96252 -6.25956 0
M  V30 4301 H 387.677 -3.65637 -6.61699 0
M  V30 4302 H 388.945 -2.6935 -7.31485 0
M  V30 4303 N 393.175 1.03435 -1.18907 0
M  V30 4304 C 394.405 1.8012 -1.01195 0
M  V30 4305 C 394.813 1.8395 0.442613 0
M  V30 4306 O 394.156 1.27836 1.31923 0
M  V30 4307 C 394.218 3.26792 -1.49823 0
M  V30 4308 C 393.882 3.46609 -2.97844 0
M  V30 4309 C 394.879 3.37278 -3.95651 0
M  V30 4310 C 392.564 3.73001 -3.36416 0
M  V30 4311 C 394.558 3.54054 -5.30023 0
M  V30 4312 C 392.245 3.89423 -4.70949 0
M  V30 4313 C 393.243 3.79951 -5.67562 0
M  V30 4314 O 392.931 3.95895 -6.99659 0
M  V30 4315 H 392.663 0.573865 -0.357289 0
M  V30 4316 H 395.217 1.31207 -1.58031 0
M  V30 4317 H 393.447 3.76703 -0.873578 0
M  V30 4318 H 395.136 3.85055 -1.28404 0
M  V30 4319 H 395.902 3.16846 -3.67197 0
M  V30 4320 H 391.781 3.79469 -2.61772 0
M  V30 4321 H 395.325 3.46577 -6.05417 0
M  V30 4322 H 391.222 4.09351 -4.99101 0
M  V30 4323 H 391.99 4.13019 -7.06653 0
M  V30 4324 N 394.653 0.992116 1.22453 0
M  V30 4325 C 395.6 0.541731 2.24352 0
M  V30 4326 C 396.57 -0.425519 1.60557 0
M  V30 4327 O 397.755 -0.330453 1.87917 0
M  V30 4328 C 394.895 -0.138248 3.44823 0
M  V30 4329 C 394.008 0.870649 4.23136 0
M  V30 4330 C 393.143 0.164269 5.30946 0
M  V30 4331 C 392.182 1.16159 6.00977 0
M  V30 4332 N 391.319 0.483568 7.00433 0
M  V30 4333 H 396.159 1.41541 2.62241 0
M  V30 4334 H 393.696 0.709013 1.28885 0
M  V30 4335 H 395.654 -0.5494 4.13567 0
M  V30 4336 H 394.284 -0.975721 3.077 0
M  V30 4337 H 393.336 1.40013 3.53696 0
M  V30 4338 H 394.648 1.63014 4.7141 0
M  V30 4339 H 393.802 -0.303653 6.0594 0
M  V30 4340 H 392.541 -0.627733 4.83643 0
M  V30 4341 H 391.546 1.64015 5.24766 0
M  V30 4342 H 392.771 1.95445 6.50368 0
M  V30 4343 H 390.717 -0.289012 6.55363 0
M  V30 4344 H 390.634 1.18152 7.4671 0
M  V30 4345 H 391.902 0.0384219 7.79491 0
M  V30 4346 N 396.131 -1.37776 0.765217 0
M  V30 4347 C 397.094 -2.28686 0.153416 0
M  V30 4348 C 398.094 -1.47727 -0.635081 0
M  V30 4349 O 399.284 -1.68027 -0.459632 0
M  V30 4350 C 396.416 -3.31608 -0.790495 0
M  V30 4351 H 397.609 -2.84297 0.954723 0
M  V30 4352 H 395.162 -1.46932 0.53299 0
M  V30 4353 H 395.897 -2.81109 -1.61705 0
M  V30 4354 H 395.682 -3.9144 -0.227348 0
M  V30 4355 H 397.172 -3.99559 -1.21419 0
M  V30 4356 N 397.609 -0.515225 -1.4894 0
M  V30 4357 C 399.025 -0.172099 -1.58669 0
M  V30 4358 C 399.225 1.32405 -1.51892 0
M  V30 4359 O 398.281 2.10116 -1.40027 0
M  V30 4360 C 399.594 -0.761533 -2.90897 0
M  V30 4361 C 401.142 -0.728926 -3.04394 0
M  V30 4362 C 401.617 -1.29667 -4.39261 0
M  V30 4363 N 403.108 -1.25799 -4.4579 0
M  V30 4364 C 403.843 -1.66733 -5.48623 0
M  V30 4365 N 403.339 -2.15327 -6.58488 0
M  V30 4366 N 405.132 -1.58061 -5.39419 0
M  V30 4367 H 397.283 -1.48778 -1.51588 0
M  V30 4368 H 399.546 -0.617968 -0.718901 0
M  V30 4369 H 399.252 -1.81136 -3.01468 0
M  V30 4370 H 399.126 -0.230106 -3.76497 0
M  V30 4371 H 401.513 0.312098 -2.93445 0
M  V30 4372 H 401.594 -1.29766 -2.20442 0
M  V30 4373 H 401.238 -2.33655 -4.50963 0
M  V30 4374 H 401.168 -0.703752 -5.21876 0
M  V30 4375 H 403.659 -0.902102 -3.66975 0
M  V30 4376 H 403.972 -2.44594 -7.33071 0
M  V30 4377 H 402.317 -2.19311 -6.59491 0
M  V30 4378 H 405.508 -1.19906 -4.52482 0
M  V30 4379 H 405.681 -1.90284 -6.19432 0
M  V30 4380 N 399.087 1.5561 -0.249682 0
M  V30 4381 C 400.336 1.98187 0.37479 0
M  V30 4382 C 400.649 1.14111 1.58865 0
M  V30 4383 O 401.855 1.46714 2.28445 0
M  V30 4384 C 400.311 3.52661 0.718192 0
M  V30 4385 C 399.919 4.45481 -0.474428 0
M  V30 4386 C 401.663 4.03888 1.3067 0
M  V30 4387 C 399.57 5.91303 -0.107026 0
M  V30 4388 H 398.5 0.740159 0.143808 0
M  V30 4389 H 401.151 1.80125 -0.350336 0
M  V30 4390 H 399.533 3.66429 1.50152 0
M  V30 4391 H 400.707 4.43473 -1.25172 0
M  V30 4392 H 399.022 4.04751 -0.978052 0
M  V30 4393 H 401.619 5.10358 1.59496 0
M  V30 4394 H 401.962 3.51401 2.23211 0
M  V30 4395 H 402.495 3.93457 0.586211 0
M  V30 4396 H 399.234 6.47833 -0.999642 0
M  V30 4397 H 398.754 5.9644 0.634013 0
M  V30 4398 H 400.433 6.46258 0.309807 0
M  V30 4399 N 400.565 -0.0233959 1.57583 0
M  V30 4400 C 401.812 -0.713063 1.8953 0
M  V30 4401 C 402.14 -1.75056 0.847673 0
M  V30 4402 O 401.395 -1.95119 -0.150636 0
M  V30 4403 C 401.694 -1.41428 3.28227 0
M  V30 4404 C 401.36 -0.512222 4.47981 0
M  V30 4405 C 400.022 -0.263785 4.80476 0
M  V30 4406 C 402.374 0.110248 5.21083 0
M  V30 4407 C 399.702 0.615804 5.83459 0
M  V30 4408 C 402.054 0.977573 6.25001 0
M  V30 4409 C 400.718 1.23542 6.55968 0
M  V30 4410 H 399.988 -0.260928 0.69354 0
M  V30 4411 H 402.635 0.0271047 1.91481 0
M  V30 4412 H 400.94 -2.22791 3.22291 0
M  V30 4413 H 402.637 -1.95355 3.50196 0
M  V30 4414 H 399.227 -0.716013 4.22577 0
M  V30 4415 H 403.411 -0.0687137 4.96252 0
M  V30 4416 H 398.667 0.82382 6.05824 0
M  V30 4417 H 402.841 1.46638 6.80786 0
M  V30 4418 H 400.468 1.91871 7.35588 0
M  V30 4419 N 402.043 -1.548 -0.295768 0
M  V30 4420 C 402.973 -1.89115 -1.36959 0
M  V30 4421 C 403.954 -0.75059 -1.52644 0
M  V30 4422 O 405.139 -1.00678 -1.66065 0
M  V30 4423 C 402.269 -2.14307 -2.73295 0
M  V30 4424 C 401.223 -3.30151 -2.72368 0
M  V30 4425 C 400.549 -3.40772 -4.12042 0
M  V30 4426 C 401.849 -4.67126 -2.33646 0
M  V30 4427 H 403.543 -2.79053 -1.08488 0
M  V30 4428 H 401.089 -1.34266 -0.520443 0
M  V30 4429 H 403.042 -2.36898 -3.48507 0
M  V30 4430 H 401.766 -1.21145 -3.03301 0
M  V30 4431 H 400.425 -3.0749 -1.99613 0
M  V30 4432 H 400.073 -2.45117 -4.39234 0
M  V30 4433 H 399.773 -4.18645 -4.12322 0
M  V30 4434 H 401.297 -3.6563 -4.89027 0
M  V30 4435 H 402.711 -4.89414 -2.98575 0
M  V30 4436 H 401.108 -5.47751 -2.45129 0
M  V30 4437 H 402.178 -4.67489 -1.28772 0
M  V30 4438 N 403.521 0.559213 -1.47345 0
M  V30 4439 C 404.431 1.69388 -1.62311 0
M  V30 4440 C 405.447 1.6648 -0.505993 0
M  V30 4441 O 406.623 1.85964 -0.773262 0
M  V30 4442 C 403.688 3.05894 -1.63185 0
M  V30 4443 C 402.749 3.19885 -2.86307 0
M  V30 4444 C 401.982 4.49879 -2.87131 0
M  V30 4445 O 402.205 5.35217 -1.97229 0
M  V30 4446 O 401.139 4.67618 -3.78968 0
M  V30 4447 H 404.965 1.59706 -2.58317 0
M  V30 4448 H 402.55 0.728989 -1.30407 0
M  V30 4449 H 404.432 3.87133 -1.66451 0
M  V30 4450 H 403.107 3.15964 -0.70345 0
M  V30 4451 H 402.014 2.38052 -2.88587 0
M  V30 4452 H 403.347 3.14718 -3.78435 0
M  V30 4453 N 404.999 1.35443 0.805782 0
M  V30 4454 C 405.909 1.30546 1.94923 0
M  V30 4455 C 406.925 0.210233 1.72725 0
M  V30 4456 O 408.101 0.43975 1.9654 0
M  V30 4457 C 405.166 1.07782 3.29521 0
M  V30 4458 C 404.227 2.26625 3.64609 0
M  V30 4459 C 403.46 2.04938 4.92784 0
M  V30 4460 O 403.683 1.01624 5.61274 0
M  V30 4461 O 402.617 2.9232 5.26149 0
M  V30 4462 H 406.443 2.26779 2.02002 0
M  V30 4463 H 404.028 1.15823 0.943682 0
M  V30 4464 H 405.91 0.969392 4.10098 0
M  V30 4465 H 404.585 0.146003 3.23371 0
M  V30 4466 H 403.492 2.43033 2.84404 0
M  V30 4467 H 404.825 3.18257 3.75464 0
M  V30 4468 N 406.477 -1.02803 1.19454 0
M  V30 4469 C 407.702 -1.80378 1.02364 0
M  V30 4470 C 408.127 -1.83282 -0.423007 0
M  V30 4471 O 407.485 -1.25945 -1.30413 0
M  V30 4472 C 407.533 -3.23248 1.59821 0
M  V30 4473 O 406.637 -4.04 0.828105 0
M  V30 4474 H 405.978 -0.556799 0.361761 0
M  V30 4475 H 408.508 -1.29385 1.58495 0
M  V30 4476 H 408.518 -3.73994 1.63073 0
M  V30 4477 H 407.193 -3.2045 2.65113 0
M  V30 4478 H 405.77 -3.62635 0.86891 0
M  V30 4479 N 407.956 -0.998596 -1.21925 0
M  V30 4480 C 408.886 -0.573688 -2.26343 0
M  V30 4481 C 409.867 0.402296 -1.65274 0
M  V30 4482 O 411.052 0.291683 -1.91997 0
M  V30 4483 C 408.182 0.106839 -3.47136 0
M  V30 4484 C 407.136 -0.788269 -4.20678 0
M  V30 4485 C 406.462 0.0254927 -5.34694 0
M  V30 4486 C 407.762 -2.08784 -4.78755 0
M  V30 4487 H 409.456 -1.44651 -2.62138 0
M  V30 4488 H 407.002 -0.696975 -1.26009 0
M  V30 4489 H 408.955 0.415531 -4.19346 0
M  V30 4490 H 407.679 1.01424 -3.10452 0
M  V30 4491 H 406.338 -1.08069 -3.50309 0
M  V30 4492 H 405.986 0.933989 -4.94253 0
M  V30 4493 H 405.686 -0.570437 -5.84825 0
M  V30 4494 H 407.21 0.328147 -6.09718 0
M  V30 4495 H 408.624 -1.84272 -5.42878 0
M  V30 4496 H 407.021 -2.63307 -5.39249 0
M  V30 4497 H 408.091 -2.76284 -3.98491 0
M  V30 4498 N 409.434 1.37368 -0.772513 0
M  V30 4499 C 410.659 2.0447 -0.347386 0
M  V30 4500 C 411.084 1.57882 1.0225 0
M  V30 4501 O 410.442 0.73941 1.65537 0
M  V30 4502 C 410.49 3.58369 -0.400479 0
M  V30 4503 O 409.594 4.0803 0.598789 0
M  V30 4504 H 408.935 0.646773 -0.15027 0
M  V30 4505 H 411.465 1.75667 -1.04892 0
M  V30 4506 H 411.475 4.07183 -0.258045 0
M  V30 4507 H 410.15 3.91633 -1.39986 0
M  V30 4508 H 408.727 3.70534 0.419411 0
M  V30 4509 N 410.912 0.523116 1.48665 0
M  V30 4510 C 412.159 -0.0134763 2.02496 0
M  V30 4511 C 412.487 -1.3493 1.40086 0
M  V30 4512 O 411.742 -1.88286 0.533567 0
M  V30 4513 C 412.041 -0.191671 3.56886 0
M  V30 4514 C 411.707 1.06893 4.38046 0
M  V30 4515 C 410.369 1.41443 4.59943 0
M  V30 4516 C 412.721 1.90584 4.85106 0
M  V30 4517 C 410.049 2.59594 5.26144 0
M  V30 4518 C 412.401 3.07907 5.52609 0
M  V30 4519 C 411.065 3.42811 5.72745 0
M  V30 4520 H 410.335 -0.00493133 0.740984 0
M  V30 4521 H 412.982 0.687751 1.78724 0
M  V30 4522 H 411.287 -0.97561 3.79459 0
M  V30 4523 H 412.984 -0.621659 3.96152 0
M  V30 4524 H 409.574 0.789848 4.21259 0
M  V30 4525 H 413.758 1.65203 4.67997 0
M  V30 4526 H 409.014 2.86847 5.39934 0
M  V30 4527 H 413.188 3.73066 5.88043 0
M  V30 4528 H 410.815 4.34462 6.23816 0
M  V30 4529 N 412.39 -1.55475 0.257931 0
M  V30 4530 C 413.638 -1.98813 -0.363009 0
M  V30 4531 C 413.959 -1.14757 -1.57657 0
M  V30 4532 O 413.229 -0.232956 -1.9451 0
M  V30 4533 H 411.809 -0.734308 -0.137113 0
M  V30 4534 H 414.471 -1.9156 0.359281 0
M  V30 4535 H 413.567 -3.04941 -0.664634 0
M  V30 4536 N 413.868 0.0150385 -1.57593 0
M  V30 4537 C 415.114 0.704043 -1.90187 0
M  V30 4538 C 415.447 1.74249 -0.857366 0
M  V30 4539 O 414.722 1.94092 0.125843 0
M  V30 4540 C 415.005 1.36087 -3.33395 0
M  V30 4541 C 414.858 0.334981 -4.48551 0
M  V30 4542 C 416.177 2.29112 -3.7576 0
M  V30 4543 H 413.296 0.254475 -0.691673 0
M  V30 4544 H 415.938 -0.0331678 -1.89971 0
M  V30 4545 H 414.088 1.98922 -3.3371 0
M  V30 4546 H 415.76 -0.292534 -4.60372 0
M  V30 4547 H 414.003 -0.344325 -4.32431 0
M  V30 4548 H 414.674 0.833316 -5.45674 0
M  V30 4549 H 417.15 1.76308 -3.76902 0
M  V30 4550 H 416.026 2.72043 -4.76743 0
M  V30 4551 H 416.287 3.16385 -3.08793 0
M  V30 4552 N 415.346 1.54954 0.287554 0
M  V30 4553 C 416.276 1.89839 1.35954 0
M  V30 4554 C 417.257 0.758675 1.52244 0
M  V30 4555 O 418.442 1.01557 1.65529 0
M  V30 4556 C 415.572 2.15753 2.72154 0
M  V30 4557 C 414.526 3.3159 2.70614 0
M  V30 4558 C 413.852 3.42952 4.10229 0
M  V30 4559 C 415.152 4.68359 2.31165 0
M  V30 4560 H 416.846 2.79625 1.07007 0
M  V30 4561 H 414.392 1.3454 0.513316 0
M  V30 4562 H 416.345 2.38743 3.47246 0
M  V30 4563 H 415.069 1.22752 3.02654 0
M  V30 4564 H 413.728 3.08545 1.97979 0
M  V30 4565 H 413.376 2.47443 4.37928 0
M  V30 4566 H 413.076 4.20826 4.10097 0
M  V30 4567 H 414.6 3.68218 4.87081 0
M  V30 4568 H 416.014 4.9099 2.95976 0
M  V30 4569 H 414.411 5.49044 2.42221 0
M  V30 4570 H 415.481 4.68165 1.26291 0
M  V30 4571 N 416.824 -0.551391 1.4764 0
M  V30 4572 C 418.072 -1.30572 1.54258 0
M  V30 4573 C 418.393 -1.93877 0.208963 0
M  V30 4574 O 417.663 -1.80234 -0.767619 0
M  V30 4575 H 416.243 -0.484894 0.568231 0
M  V30 4576 H 418.905 -0.643402 1.83974 0
M  V30 4577 H 418.001 -2.09621 2.31226 0
M  V30 4578 N 418.302 -1.35869 -0.798587 0
M  V30 4579 C 419.212 -1.31578 -1.94228 0
M  V30 4580 C 420.228 -0.21939 -1.72611 0
M  V30 4581 O 421.404 -0.450167 -1.96305 0
M  V30 4582 C 418.469 -1.09528 -3.28944 0
M  V30 4583 C 417.53 -2.28556 -3.63402 0
M  V30 4584 C 416.763 -2.07549 -4.9169 0
M  V30 4585 O 416.986 -1.046 -5.60727 0
M  V30 4586 O 415.92 -2.95106 -5.24591 0
M  V30 4587 H 419.746 -2.27847 -2.00796 0
M  V30 4588 H 417.331 -1.16322 -0.937526 0
M  V30 4589 H 419.213 -0.991127 -4.09579 0
M  V30 4590 H 417.888 -0.16315 -3.23289 0
M  V30 4591 H 416.795 -2.44538 -2.83112 0
M  V30 4592 H 418.128 -3.20244 -3.73771 0
M  V30 4593 N 419.78 1.02168 -1.19998 0
M  V30 4594 C 420.73 2.08969 -0.911921 0
M  V30 4595 C 421.714 1.60404 0.12621 0
M  V30 4596 O 422.906 1.76817 -0.0804706 0
M  V30 4597 C 420.035 3.402 -0.460277 0
M  V30 4598 C 419.121 3.9548 -1.53155 0
M  V30 4599 N 419.512 4.24332 -2.75275 0
M  V30 4600 C 417.81 4.23572 -1.39653 0
M  V30 4601 C 418.511 4.68834 -3.44339 0
M  V30 4602 N 417.487 4.70804 -2.71744 0
M  V30 4603 H 421.289 2.29178 -1.83997 0
M  V30 4604 H 418.803 1.20094 -1.09322 0
M  V30 4605 H 420.8 4.16235 -0.235337 0
M  V30 4606 H 419.46 3.21408 0.4612 0
M  V30 4607 H 420.471 4.13393 -3.11973 0
M  V30 4608 H 417.148 4.14005 -0.539067 0
M  V30 4609 H 418.538 5.00019 -4.4881 0
M  V30 4610 N 421.258 1.00505 1.21394 0
M  V30 4611 C 422.506 0.686415 1.90086 0
M  V30 4612 C 422.827 -0.785264 1.7849 0
M  V30 4613 O 422.097 -1.56387 1.17983 0
M  V30 4614 H 420.677 0.2509 0.703604 0
M  V30 4615 H 423.339 1.27417 1.47482 0
M  V30 4616 H 422.435 0.959621 2.96981 0
M  V30 4617 N 422.737 -1.36956 0.779787 0
M  V30 4618 C 424.153 -1.52817 0.460342 0
M  V30 4619 C 424.353 -1.7361 -1.02283 0
M  V30 4620 O 423.409 -1.76207 -1.80852 0
M  V30 4621 C 424.722 -2.71983 1.28241 0
M  V30 4622 C 426.27 -2.85849 1.27512 0
M  V30 4623 C 426.745 -4.08008 2.08072 0
M  V30 4624 N 428.236 -4.15135 2.05467 0
M  V30 4625 C 428.971 -5.08711 2.64577 0
M  V30 4626 N 428.467 -6.07792 3.32506 0
M  V30 4627 N 430.26 -5.01254 2.54363 0
M  V30 4628 H 422.411 -1.21713 1.74068 0
M  V30 4629 H 424.674 -0.593294 0.739396 0
M  V30 4630 H 424.38 -2.63109 2.33381 0
M  V30 4631 H 424.254 -3.65882 0.917088 0
M  V30 4632 H 426.641 -2.94189 0.231686 0
M  V30 4633 H 426.722 -1.92886 1.68014 0
M  V30 4634 H 426.366 -4.00429 3.12441 0
M  V30 4635 H 426.296 -5.001 1.64947 0
M  V30 4636 H 428.787 -3.44189 1.5602 0
M  V30 4637 H 429.1 -6.75739 3.74963 0
M  V30 4638 H 427.445 -6.08047 3.36606 0
M  V30 4639 H 430.636 -4.22795 2.00902 0
M  V30 4640 H 430.809 -5.73995 3.00722 0
M  V30 4641 N 424.215 -0.530993 -1.48385 0
M  V30 4642 C 425.463 0.00273189 -2.021 0
M  V30 4643 C 425.784 1.34672 -1.41027 0
M  V30 4644 O 425.054 1.8724 -0.576012 0
M  V30 4645 H 423.634 0.00399774 -0.746989 0
M  V30 4646 H 426.296 -0.695054 -1.82085 0
M  V30 4647 H 425.392 0.11031 -3.11905 0
M  V30 4648 N 425.693 1.55336 -0.266172 0
M  V30 4649 C 426.939 1.99692 0.353681 0
M  V30 4650 C 427.272 1.1543 1.56172 0
M  V30 4651 O 426.547 0.222218 1.93226 0
M  V30 4652 C 426.83 3.52316 0.74466 0
M  V30 4653 C 426.683 4.47337 -0.470101 0
M  V30 4654 C 428.002 4.10588 1.58447 0
M  V30 4655 H 425.121 0.725961 0.12708 0
M  V30 4656 H 427.763 1.86336 -0.371333 0
M  V30 4657 H 425.913 3.63829 1.36239 0
M  V30 4658 H 427.585 4.4778 -1.10864 0
M  V30 4659 H 425.828 4.19364 -1.10978 0
M  V30 4660 H 426.499 5.51788 -0.15291 0
M  V30 4661 H 428.975 4.02297 1.06286 0
M  V30 4662 H 427.851 5.17607 1.82686 0
M  V30 4663 H 428.112 3.60253 2.56262 0
M  V30 4664 N 427.171 -0.0066808 1.57599 0
M  V30 4665 C 428.399 -0.704087 1.94551 0
M  V30 4666 C 428.814 -1.67677 0.867746 0
M  V30 4667 O 428.171 -1.8185 -0.153925 0
M  V30 4668 C 428.222 -1.44177 3.31505 0
M  V30 4669 O 427.943 -0.508097 4.35144 0
M  V30 4670 C 429.444 -2.23429 3.82876 0
M  V30 4671 H 426.664 -0.196523 0.641576 0
M  V30 4672 H 429.208 0.042453 2.04456 0
M  V30 4673 H 427.363 -2.13999 3.22929 0
M  V30 4674 H 427.777 -1.02782 5.14331 0
M  V30 4675 H 429.251 -2.70552 4.8115 0
M  V30 4676 H 429.728 -3.05818 3.15233 0
M  V30 4677 H 430.334 -1.58636 3.94607 0
M  V30 4678 N 428.649 -1.55105 -0.279332 0
M  V30 4679 C 429.559 -1.90638 -1.36727 0
M  V30 4680 C 430.575 -0.802899 -1.54368 0
M  V30 4681 O 431.751 -1.10138 -1.68616 0
M  V30 4682 C 428.816 -2.16547 -2.70755 0
M  V30 4683 C 427.877 -3.40146 -2.61915 0
M  V30 4684 C 427.11 -3.6481 -3.8955 0
M  V30 4685 O 427.333 -2.92095 -4.89935 0
M  V30 4686 O 426.267 -4.58343 -3.90135 0
M  V30 4687 H 430.093 -2.83237 -1.09591 0
M  V30 4688 H 427.678 -1.4157 -0.477306 0
M  V30 4689 H 429.56 -2.34665 -3.50014 0
M  V30 4690 H 428.235 -1.27131 -2.9769 0
M  V30 4691 H 427.142 -3.2737 -1.81052 0
M  V30 4692 H 428.475 -4.29761 -2.3993 0
M  V30 4693 N 430.127 0.543554 -1.4793 0
M  V30 4694 C 431.077 1.64527 -1.57844 0
M  V30 4695 C 432.061 1.54869 -0.436408 0
M  V30 4696 O 433.253 1.63119 -0.687101 0
M  V30 4697 C 430.382 3.03281 -1.6086 0
M  V30 4698 C 429.468 3.18093 -2.80495 0
M  V30 4699 N 429.859 3.02923 -4.05057 0
M  V30 4700 C 428.157 3.49121 -2.77543 0
M  V30 4701 C 428.858 3.20791 -4.85251 0
M  V30 4702 N 427.834 3.47749 -4.17818 0
M  V30 4703 H 431.636 1.51388 -2.5191 0
M  V30 4704 H 429.15 0.748671 -1.44113 0
M  V30 4705 H 431.147 3.82403 -1.66054 0
M  V30 4706 H 429.807 3.17521 -0.678996 0
M  V30 4707 H 430.818 2.79966 -4.35705 0
M  V30 4708 H 427.495 3.69804 -1.93781 0
M  V30 4709 H 428.885 3.13915 -5.9406 0
M  V30 4710 N 431.605 1.3629 0.791371 0
M  V30 4711 C 432.835 1.33368 1.57786 0
M  V30 4712 C 433.243 -0.0875188 1.88997 0
M  V30 4713 O 432.586 -1.05427 1.50435 0
M  V30 4714 C 432.648 2.08802 2.92646 0
M  V30 4715 C 432.312 3.57903 2.84174 0
M  V30 4716 C 433.309 4.52191 2.56553 0
M  V30 4717 C 430.994 4.00762 3.02812 0
M  V30 4718 C 432.988 5.87315 2.47669 0
M  V30 4719 C 430.675 5.35977 2.93551 0
M  V30 4720 C 431.673 6.29066 2.66017 0
M  V30 4721 O 431.361 7.61798 2.56746 0
M  V30 4722 H 431.093 0.459166 0.496128 0
M  V30 4723 H 433.647 1.79952 0.990269 0
M  V30 4724 H 431.877 1.56878 3.53449 0
M  V30 4725 H 433.566 1.98762 3.53904 0
M  V30 4726 H 434.332 4.20393 2.41858 0
M  V30 4727 H 430.211 3.2868 3.2325 0
M  V30 4728 H 433.755 6.59943 2.26099 0
M  V30 4729 H 429.652 5.67384 3.07808 0
M  V30 4730 H 430.42 7.71898 2.72242 0
M  V30 4731 N 433.083 -1.0153 1.20538 0
M  V30 4732 C 434.331 -1.74803 1.01432 0
M  V30 4733 C 434.652 -1.8963 -0.454456 0
M  V30 4734 O 433.922 -1.43975 -1.32846 0
M  V30 4735 H 432.502 -0.647598 0.372324 0
M  V30 4736 H 435.164 -1.22402 1.5167 0
M  V30 4737 H 434.26 -2.75114 1.47373 0
M  V30 4738 N 434.561 -1.01147 -1.20859 0
M  V30 4739 C 435.81 -0.693214 -1.89413 0
M  V30 4740 C 436.123 0.779969 -1.79376 0
M  V30 4741 O 437.329 1.21057 -2.43017 0
M  V30 4742 C 435.785 -1.18949 -3.39675 0
M  V30 4743 C 435.393 -2.68921 -3.58309 0
M  V30 4744 C 437.137 -0.94642 -4.13815 0
M  V30 4745 C 435.044 -3.12056 -5.0237 0
M  V30 4746 H 433.974 -0.255595 -0.709357 0
M  V30 4747 H 436.625 -1.22349 -1.36759 0
M  V30 4748 H 435.007 -0.587228 -3.91622 0
M  V30 4749 H 436.181 -3.34652 -3.16772 0
M  V30 4750 H 434.496 -2.91314 -2.97532 0
M  V30 4751 H 437.093 -1.24417 -5.20023 0
M  V30 4752 H 437.436 0.117219 -4.16135 0
M  V30 4753 H 437.969 -1.5118 -3.67953 0
M  V30 4754 H 434.708 -4.17674 -5.05202 0
M  V30 4755 H 434.228 -2.51041 -5.44737 0
M  V30 4756 H 435.907 -3.04403 -5.70918 0
M  V30 4757 N 436.039 1.36541 -0.78704 0
M  V30 4758 C 436.987 2.31965 -0.171724 0
M  V30 4759 C 437.981 1.55689 0.667631 0
M  V30 4760 O 439.187 1.70969 0.562981 0
M  V30 4761 H 435.562 0.751101 -0.0367545 0
M  V30 4762 H 437.533 2.81428 -0.992017 0
M  V30 4763 C 436.282 3.40968 0.680904 0
M  V30 4764 H 435.605 3.99775 0.0443961 0
M  V30 4765 H 437.045 4.10063 1.07815 0
M  V30 4766 C 435.504 2.82338 1.83813 0
M  V30 4767 O 436.034 2.74311 2.93456 0
M  V30 4768 N 434.24 2.39661 1.6435 0
M  V30 4769 H 433.787 2.46389 0.751668 0
M  V30 4770 H 433.745 2.00779 2.4194 0
M  V30 4771 N 437.518 0.538854 1.48102 0
M  V30 4772 C 438.767 0.0059532 2.01699 0
M  V30 4773 C 439.08 -1.34476 1.42041 0
M  V30 4774 O 440.286 -1.96653 1.87189 0
M  V30 4775 C 438.742 -0.0397627 3.59878 0
M  V30 4776 C 438.35 1.30659 4.28523 0
M  V30 4777 C 440.094 -0.521024 4.2129 0
M  V30 4778 C 438.001 1.22098 5.78659 0
M  V30 4779 H 436.931 -0.00154456 0.753998 0
M  V30 4780 H 439.582 0.683963 1.70277 0
M  V30 4781 H 437.964 -0.783037 3.88181 0
M  V30 4782 H 439.138 2.06613 4.11883 0
M  V30 4783 H 437.453 1.7243 3.79021 0
M  V30 4784 H 440.05 -0.603184 5.31287 0
M  V30 4785 H 440.393 -1.52885 3.8721 0
M  V30 4786 H 440.926 0.166834 3.9745 0
M  V30 4787 H 437.665 2.20424 6.17328 0
M  V30 4788 H 437.185 0.50295 5.97688 0
M  V30 4789 H 438.864 0.915345 6.40492 0
M  V30 4790 N 438.996 -1.55193 0.274407 0
M  V30 4791 C 440.273 -1.91584 -0.394331 0
M  V30 4792 C 440.653 -1.19858 -1.73774 0
M  V30 4793 O 440.001 -0.3252 -2.26174 0
M  V30 4794 C 440.211 -3.4487 -0.535311 0
M  V30 4795 C 441.559 -4.16636 -0.818534 0
M  V30 4796 O 442.583 -3.5076 -0.620146 0
M  V30 4797 O 441.442 -5.33209 -1.19792 0
M  V30 4798 H 438.536 -0.798349 -0.215794 0
M  V30 4799 H 441.082 -1.66646 0.320507 0
M  V30 4800 H 439.854 -3.89145 0.410141 0
M  V30 4801 H 439.477 -3.75759 -1.29964 0
M  V30 4802 N 440.474 -0.00167713 -1.576 0
M  V30 4803 C 441.751 0.719951 -1.81868 0
M  V30 4804 C 442.131 1.91895 -0.879747 0
M  V30 4805 O 441.479 2.28389 0.0711423 0
M  V30 4806 C 441.689 1.12409 -3.30402 0
M  V30 4807 C 443.037 1.52724 -3.96182 0
M  V30 4808 O 444.061 1.21784 -3.34734 0
M  V30 4809 O 442.92 2.10265 -5.04431 0
M  V30 4810 H 440.014 0.350707 -0.748955 0
M  V30 4811 H 442.56 -0.0272597 -1.69678 0
M  V30 4812 H 441.332 0.269532 -3.90371 0
M  V30 4813 H 440.955 1.93035 -3.47596 0
M  V30 4814 N 441.952 1.55251 0.271103 0
M  V30 4815 C 443.201 1.75151 1.00025 0
M  V30 4816 C 443.514 0.561041 1.87381 0
M  V30 4817 O 444.72 0.642506 2.63788 0
M  V30 4818 C 443.176 3.09999 1.82835 0
M  V30 4819 C 442.784 4.3662 1.00336 0
M  V30 4820 C 444.528 3.39249 2.55168 0
M  V30 4821 C 442.435 5.62506 1.82595 0
M  V30 4822 H 441.365 0.652877 0.377183 0
M  V30 4823 H 444.016 1.81708 0.255843 0
M  V30 4824 H 442.398 2.97485 2.61378 0
M  V30 4825 H 443.572 4.60055 0.261959 0
M  V30 4826 H 441.887 4.14527 0.394486 0
M  V30 4827 H 444.484 4.3051 3.1712 0
M  V30 4828 H 444.827 2.59467 3.2555 0
M  V30 4829 H 445.36 3.52869 1.83653 0
M  V30 4830 H 442.099 6.45041 1.16631 0
M  V30 4831 H 441.619 5.43211 2.54327 0
M  V30 4832 H 443.298 6.00875 2.39913 0
M  V30 4833 N 443.43 -0.535701 1.48216 0
M  V30 4834 C 444.707 -1.29683 1.46429 0
M  V30 4835 C 445.087 -2.10391 0.172852 0
M  V30 4836 O 444.435 -2.12282 -0.845488 0
M  V30 4837 C 444.645 -2.18313 2.72287 0
M  V30 4838 C 445.993 -2.78639 3.20383 0
M  V30 4839 O 447.017 -2.28604 2.73164 0
M  V30 4840 O 445.876 -3.69636 4.02531 0
M  V30 4841 H 442.97 -0.585026 0.584529 0
M  V30 4842 H 445.516 -0.552827 1.60443 0
M  V30 4843 H 444.288 -1.58421 3.57797 0
M  V30 4844 H 443.911 -2.99971 2.60966 0
M  V30 4845 N 444.908 -1.36708 -0.784132 0
M  V30 4846 C 445.838 -1.34153 -1.91116 0
M  V30 4847 C 446.819 -0.212121 -1.68772 0
M  V30 4848 O 448.004 -0.410581 -1.8981 0
M  V30 4849 C 445.134 -1.13535 -3.28218 0
M  V30 4850 C 444.088 -2.23356 -3.65097 0
M  V30 4851 C 443.414 -1.87875 -5.00607 0
M  V30 4852 C 444.714 -3.65473 -3.73131 0
M  V30 4853 H 446.408 -2.28459 -1.93512 0
M  V30 4854 H 443.954 -1.09973 -0.929618 0
M  V30 4855 H 445.907 -1.10381 -4.06687 0
M  V30 4856 H 444.631 -0.156804 -3.26223 0
M  V30 4857 H 443.29 -2.25645 -2.88929 0
M  V30 4858 H 442.938 -0.885814 -4.95139 0
M  V30 4859 H 442.638 -2.61406 -5.26252 0
M  V30 4860 H 444.162 -1.86286 -5.81489 0
M  V30 4861 H 445.576 -3.65382 -4.41779 0
M  V30 4862 H 443.973 -4.37953 -4.10265 0
M  V30 4863 H 445.043 -3.99995 -2.74102 0
M  V30 4864 N 446.386 1.0089 -1.21074 0
M  V30 4865 C 447.635 1.74019 -1.01981 0
M  V30 4866 C 447.948 1.90408 0.447665 0
M  V30 4867 O 449.154 2.60707 0.757906 0
M  V30 4868 C 447.61 3.13026 -1.77603 0
M  V30 4869 C 447.218 3.04623 -3.28495 0
M  V30 4870 C 448.962 3.90312 -1.66904 0
M  V30 4871 C 446.869 4.38685 -3.96623 0
M  V30 4872 H 445.799 0.652422 -0.377971 0
M  V30 4873 H 448.45 1.12755 -1.44771 0
M  V30 4874 H 446.832 3.74878 -1.27604 0
M  V30 4875 H 448.006 2.52032 -3.85767 0
M  V30 4876 H 446.321 2.40827 -3.39693 0
M  V30 4877 H 448.918 4.8951 -2.15138 0
M  V30 4878 H 449.261 4.11558 -0.62658 0
M  V30 4879 H 449.794 3.35104 -2.14359 0
M  V30 4880 H 446.533 4.22641 -5.01054 0
M  V30 4881 H 446.053 4.91252 -3.4414 0
M  V30 4882 H 447.732 5.075 -4.01314 0
M  V30 4883 N 447.864 1.01787 1.20321 0
M  V30 4884 C 449.089 0.727009 1.9424 0
M  V30 4885 C 449.514 -0.706179 1.74341 0
M  V30 4886 O 448.872 -1.48609 1.03852 0
M  V30 4887 C 448.92 1.06958 3.44372 0
M  V30 4888 O 448.024 0.181983 4.11998 0
M  V30 4889 H 447.365 0.269626 0.606793 0
M  V30 4890 H 449.895 1.36158 1.52716 0
M  V30 4891 H 449.905 1.02182 3.94997 0
M  V30 4892 H 448.58 2.11378 3.58179 0
M  V30 4893 H 447.157 0.287378 3.71791 0
M  V30 4894 N 449.342 -1.36122 0.79427 0
M  V30 4895 C 450.305 -2.28309 0.201889 0
M  V30 4896 C 451.305 -1.49041 -0.603603 0
M  V30 4897 O 452.495 -1.68964 -0.423888 0
M  V30 4898 C 449.627 -3.3321 -0.719978 0
M  V30 4899 H 450.82 -2.82208 1.01481 0
M  V30 4900 H 448.373 -1.45768 0.564037 0
M  V30 4901 H 449.108 -2.84475 -1.55706 0
M  V30 4902 H 448.893 -3.91835 -0.144266 0
M  V30 4903 H 450.383 -4.02044 -1.12916 0
M  V30 4904 N 450.82 -0.546701 -1.47814 0
M  V30 4905 C 451.768 0.220048 -2.31557 0
M  V30 4906 C 452.762 0.919472 -1.42275 0
M  V30 4907 O 453.968 0.841953 -1.59095 0
M  V30 4908 H 450.343 0.0898334 -0.746615 0
M  V30 4909 H 452.314 -0.505589 -2.94086 0
M  V30 4910 C 451.063 1.24353 -3.24702 0
M  V30 4911 H 450.386 0.714758 -3.93359 0
M  V30 4912 H 451.826 1.75112 -3.8615 0
M  V30 4913 C 450.285 2.28593 -2.47481 0
M  V30 4914 O 450.815 3.35334 -2.21165 0
M  V30 4915 N 449.021 2.02244 -2.08676 0
M  V30 4916 H 448.568 1.15455 -2.30278 0
M  V30 4917 H 448.526 2.72207 -1.57323 0
M  V30 4918 N 452.299 1.55045 -0.282633 0
M  V30 4919 C 453.232 2.18951 0.64311 0
M  V30 4920 C 454.21 1.15287 1.14664 0
M  V30 4921 O 455.394 1.43846 1.21822 0
M  V30 4922 C 452.521 2.81874 1.87789 0
M  V30 4923 C 451.567 3.98906 1.50919 0
M  V30 4924 S 452.4 5.3234 0.580884 0
M  V30 4925 C 453.556 5.98737 1.82387 0
M  V30 4926 H 453.789 2.97131 0.100138 0
M  V30 4927 H 451.322 1.54255 -0.0668514 0
M  V30 4928 H 453.28 3.18757 2.58658 0
M  V30 4929 H 451.941 2.03573 2.392 0
M  V30 4930 H 451.134 4.4165 2.42819 0
M  V30 4931 H 450.736 3.63485 0.88061 0
M  V30 4932 H 453.028 6.18427 2.76684 0
M  V30 4933 H 453.971 6.93318 1.4393 0
M  V30 4934 H 454.379 5.28177 1.99223 0
M  V30 4935 N 453.777 0.010035 1.57597 0
M  V30 4936 C 454.687 -0.994226 2.12491 0
M  V30 4937 C 455.703 -1.37013 1.07254 0
M  V30 4938 O 456.879 -1.45542 1.3921 0
M  V30 4939 C 453.944 -2.2642 2.62555 0
M  V30 4940 C 453.005 -1.95049 3.82432 0
M  V30 4941 C 452.238 -3.15991 4.30099 0
M  V30 4942 O 452.461 -4.28015 3.7704 0
M  V30 4943 O 451.395 -2.99403 5.22151 0
M  V30 4944 H 455.221 -0.557549 2.98538 0
M  V30 4945 H 452.806 -0.209413 1.47925 0
M  V30 4946 H 454.688 -3.01009 2.9491 0
M  V30 4947 H 453.363 -2.69306 1.796 0
M  V30 4948 H 452.27 -1.17904 3.55034 0
M  V30 4949 H 453.603 -1.56992 4.66491 0
M  V30 4950 N 455.255 -1.55392 -0.262866 0
M  V30 4951 C 456.203 -1.8977 -1.345 0
M  V30 4952 C 457.197 -0.775063 -1.50629 0
M  V30 4953 O 458.403 -0.959519 -1.52293 0
M  V30 4954 H 454.778 -0.602467 -0.450041 0
M  V30 4955 H 456.749 -2.80147 -1.02762 0
M  V30 4956 C 455.498 -2.19501 -2.69657 0
M  V30 4957 H 454.821 -3.05378 -2.5804 0
M  V30 4958 H 456.261 -2.47469 -3.44289 0
M  V30 4959 C 454.72 -1.00597 -3.21531 0
M  V30 4960 O 455.25 -0.245768 -4.00947 0
M  V30 4961 N 453.456 -0.800911 -2.79345 0
M  V30 4962 H 453.003 -1.42079 -2.14875 0
M  V30 4963 H 452.961 -0.00697996 -3.14399 0
M  V30 4964 N 456.733 0.527833 -1.48498 0
M  V30 4965 C 457.696 1.61439 -1.62696 0
M  V30 4966 C 458.696 1.52824 -0.500136 0
M  V30 4967 O 459.886 1.56456 -0.765976 0
M  V30 4968 C 457.018 3.01063 -1.59918 0
M  V30 4969 H 458.211 1.50189 -2.59583 0
M  V30 4970 H 455.764 0.750055 -1.37127 0
M  V30 4971 H 456.499 3.17818 -0.645163 0
M  V30 4972 H 456.284 3.08725 -2.41726 0
M  V30 4973 H 457.774 3.80057 -1.73051 0
M  V30 4974 N 458.211 1.37122 0.776871 0
M  V30 4975 C 459.141 1.35164 1.90402 0
M  V30 4976 C 460.122 0.221069 1.68657 0
M  V30 4977 O 461.307 0.420642 1.8959 0
M  V30 4978 C 458.437 1.15274 3.27611 0
M  V30 4979 C 457.391 2.25289 3.63908 0
M  V30 4980 C 456.717 1.90527 4.99603 0
M  V30 4981 C 458.017 3.67446 3.71188 0
M  V30 4982 H 459.711 2.29482 1.92297 0
M  V30 4983 H 457.257 1.10465 0.923773 0
M  V30 4984 H 459.21 1.12536 4.06096 0
M  V30 4985 H 457.934 0.174102 3.26136 0
M  V30 4986 H 456.593 2.27174 2.87728 0
M  V30 4987 H 456.241 0.91206 4.94662 0
M  V30 4988 H 455.941 2.64193 5.24858 0
M  V30 4989 H 457.465 1.89367 5.80493 0
M  V30 4990 H 458.879 3.67719 4.39836 0
M  V30 4991 H 457.276 4.40123 4.07936 0
M  V30 4992 H 458.346 4.01443 2.71977 0
M  V30 4993 N 459.689 -1.00246 1.21608 0
M  V30 4994 C 460.652 -2.07233 0.979133 0
M  V30 4995 C 461.652 -1.6072 -0.0508219 0
M  V30 4996 O 462.842 -1.73196 0.186712 0
M  V30 4997 C 459.974 -3.37546 0.477016 0
M  V30 4998 H 461.167 -2.29687 1.92831 0
M  V30 4999 H 458.72 -1.17261 1.03342 0
M  V30 5000 H 459.455 -3.20773 -0.476966 0
M  V30 5001 H 459.24 -3.72638 1.21997 0
M  V30 5002 H 460.73 -4.16285 0.331181 0
M  V30 5003 N 461.167 -1.02423 -1.1978 0
M  V30 5004 C 462.392 -0.7373 -1.93852 0
M  V30 5005 C 462.817 0.696923 -1.74713 0
M  V30 5006 O 462.175 1.48056 -1.04638 0
M  V30 5007 C 462.223 -1.08783 -3.438 0
M  V30 5008 O 461.327 -0.20383 -4.11896 0
M  V30 5009 H 460.668 -0.27284 -0.605355 0
M  V30 5010 H 463.198 -1.36966 -1.51992 0
M  V30 5011 H 463.208 -1.04276 -3.9445 0
M  V30 5012 H 461.883 -2.13274 -3.57053 0
M  V30 5013 H 460.46 -0.307091 -3.71633 0
M  V30 5014 N 462.645 1.35699 -0.801477 0
M  V30 5015 C 463.894 1.98165 -0.375979 0
M  V30 5016 C 464.207 1.64306 1.06127 0
M  V30 5017 O 465.413 2.20097 1.58964 0
M  V30 5018 C 463.869 3.54497 -0.621305 0
M  V30 5019 C 463.477 3.9727 -2.07076 0
M  V30 5020 C 465.221 4.23697 -0.26091 0
M  V30 5021 C 463.128 5.46427 -2.26211 0
M  V30 5022 H 462.058 0.741478 -0.136844 0
M  V30 5023 H 464.709 1.54834 -0.984814 0
M  V30 5024 H 463.091 3.95958 0.0574112 0
M  V30 5025 H 464.265 3.66974 -2.78687 0
M  V30 5026 H 462.58 3.40943 -2.39054 0
M  V30 5027 H 465.177 5.33334 -0.381994 0
M  V30 5028 H 465.52 4.0869 0.792344 0
M  V30 5029 H 466.053 3.87639 -0.893339 0
M  V30 5030 H 462.792 5.66396 -3.29963 0
M  V30 5031 H 462.312 5.78309 -1.59119 0
M  V30 5032 H 463.991 6.12819 -2.07513 0
M  V30 5033 N 464.123 0.554532 1.47522 0
M  V30 5034 C 465.371 0.0294208 2.02079 0
M  V30 5035 C 465.692 -1.32411 1.43151 0
M  V30 5036 O 464.962 -1.863 0.605728 0
M  V30 5037 H 463.542 0.00788672 0.746958 0
M  V30 5038 H 466.204 0.723934 1.80956 0
M  V30 5039 H 465.3 -0.0606745 3.12041 0
M  V30 5040 N 465.601 -1.54893 0.290851 0
M  V30 5041 C 466.849 -1.99538 -0.320756 0
M  V30 5042 C 467.17 -1.18075 -1.55188 0
M  V30 5043 O 466.44 -0.274162 -1.93972 0
M  V30 5044 H 465.02 -0.737052 -0.121507 0
M  V30 5045 H 467.682 -1.90755 0.399832 0
M  V30 5046 H 466.778 -3.06282 -0.599802 0
M  V30 5047 N 467.08 -0.0183926 -1.57589 0
M  V30 5048 C 468.327 0.662562 -1.91354 0
M  V30 5049 C 468.655 1.72747 -0.893788 0
M  V30 5050 O 467.91 1.9545 0.0988509 0
M  V30 5051 C 468.209 1.32676 -3.31861 0
M  V30 5052 C 467.875 0.393267 -4.49182 0
M  V30 5053 C 466.537 0.136302 -4.81007 0
M  V30 5054 C 468.889 -0.248366 -5.20608 0
M  V30 5055 C 466.217 -0.770282 -5.81621 0
M  V30 5056 C 468.569 -1.14294 -6.22189 0
M  V30 5057 C 467.233 -1.4089 -6.52462 0
M  V30 5058 H 466.503 0.242448 -0.700214 0
M  V30 5059 H 469.15 -0.0778629 -1.91342 0
M  V30 5060 H 467.455 2.14168 -3.28084 0
M  V30 5061 H 469.152 1.86001 -3.55253 0
M  V30 5062 H 465.742 0.603723 -4.24327 0
M  V30 5063 H 469.926 -0.062883 -4.9626 0
M  V30 5064 H 465.182 -0.984154 -6.03427 0
M  V30 5065 H 469.356 -1.64637 -6.76659 0
M  V30 5066 H 466.983 -2.11306 -7.30242 0
M  V30 5067 N 468.558 1.5553 0.254621 0
M  V30 5068 C 469.798 1.7876 0.991179 0
M  V30 5069 C 470.162 0.586669 1.82817 0
M  V30 5070 O 471.363 0.697585 2.5959 0
M  V30 5071 C 469.634 3.06679 1.83529 0
M  V30 5072 S 471.193 3.511 2.632 0
M  V30 5073 H 468.011 0.627916 0.333531 0
M  V30 5074 H 470.613 1.93766 0.259778 0
M  V30 5075 H 469.317 3.92158 1.20996 0
M  V30 5076 H 468.848 2.94388 2.60958 0
M  V30 5077 H 470.863 3.11823 3.8598 0
M  V30 5078 N 470.036 -0.519951 1.48776 0
M  V30 5079 C 471.276 -1.2856 1.58908 0
M  V30 5080 C 471.64 -1.90212 0.261418 0
M  V30 5081 O 472.841 -2.67746 0.237791 0
M  V30 5082 C 471.112 -2.33836 2.70288 0
M  V30 5083 S 472.671 -3.19992 3.0025 0
M  V30 5084 H 469.489 -0.43717 0.560717 0
M  V30 5085 H 472.091 -0.591205 1.86346 0
M  V30 5086 H 470.795 -1.87041 3.653 0
M  V30 5087 H 470.326 -3.07969 2.44783 0
M  V30 5088 H 472.341 -4.34122 2.40317 0
M  V30 5089 N 471.514 -1.37532 -0.769588 0
M  V30 5090 C 472.762 -1.32597 -1.5252 0
M  V30 5091 C 473.083 0.0884294 -1.94799 0
M  V30 5092 O 472.353 1.03289 -1.66458 0
M  V30 5093 H 470.933 -0.487846 -0.565699 0
M  V30 5094 H 473.595 -1.72044 -0.915806 0
M  V30 5095 H 472.691 -1.96643 -2.42359 0
M  V30 5096 N 472.992 0.995999 -1.22138 0
M  V30 5097 C 474.408 1.25917 -0.980667 0
M  V30 5098 C 474.608 1.98819 0.327604 0
M  V30 5099 O 473.664 2.29587 1.05101 0
M  V30 5100 C 474.977 2.07399 -2.17729 0
M  V30 5101 C 476.525 2.20594 -2.22052 0
M  V30 5102 C 477 3.05462 -3.41258 0
M  V30 5103 N 478.491 3.13049 -3.41401 0
M  V30 5104 C 479.226 3.78997 -4.30289 0
M  V30 5105 N 478.722 4.46899 -5.2939 0
M  V30 5106 N 480.515 3.75728 -4.18073 0
M  V30 5107 H 472.666 0.507158 -2.06256 0
M  V30 5108 H 474.929 0.28658 -0.903646 0
M  V30 5109 H 474.635 1.61191 -3.12586 0
M  V30 5110 H 474.509 3.08154 -2.17534 0
M  V30 5111 H 476.896 2.66017 -1.27745 0
M  V30 5112 H 476.977 1.1928 -2.26287 0
M  V30 5113 H 476.621 2.60739 -4.35864 0
M  V30 5114 H 476.551 4.06911 -3.34262 0
M  V30 5115 H 479.042 2.64721 -2.69688 0
M  V30 5116 H 479.355 4.94952 -5.935 0
M  V30 5117 H 477.7 4.45657 -5.33306 0
M  V30 5118 H 480.891 3.2184 -3.39907 0
M  V30 5119 H 481.064 4.26845 -4.87553 0
M  V30 5120 N 474.47 1.03057 1.19235 0
M  V30 5121 C 475.695 0.74757 1.93458 0
M  V30 5122 C 476.12 -0.687648 1.7508 0
M  V30 5123 O 475.478 -1.47499 1.05422 0
M  V30 5124 C 475.526 1.10604 3.43219 0
M  V30 5125 O 474.63 0.225671 4.11782 0
M  V30 5126 H 473.971 0.276047 0.603899 0
M  V30 5127 H 476.501 1.3777 1.51263 0
M  V30 5128 H 476.511 1.06366 3.93891 0
M  V30 5129 H 475.186 2.15165 3.55917 0
M  V30 5130 H 473.763 0.326795 3.71465 0
M  V30 5131 N 475.948 -1.35272 0.808662 0
M  V30 5132 C 477.195 -1.98709 0.390003 0
M  V30 5133 C 477.523 -1.64148 -1.04335 0
M  V30 5134 O 476.778 -0.897797 -1.73891 0
M  V30 5135 C 477.077 -3.53556 0.522798 0
M  V30 5136 C 476.743 -4.0799 1.91977 0
M  V30 5137 C 475.405 -4.22568 2.30195 0
M  V30 5138 C 477.757 -4.37442 2.83361 0
M  V30 5139 C 475.085 -4.63918 3.59162 0
M  V30 5140 C 477.437 -4.80232 4.11776 0
M  V30 5141 C 476.101 -4.93016 4.49991 0
M  V30 5142 H 475.371 -0.727127 0.142712 0
M  V30 5143 H 478.018 -1.6145 1.02985 0
M  V30 5144 H 476.323 -3.91287 -0.200494 0
M  V30 5145 H 478.02 -4.00598 0.179608 0
M  V30 5146 H 474.61 -3.97096 1.61284 0
M  V30 5147 H 478.794 -4.25731 2.55083 0
M  V30 5148 H 474.05 -4.72005 3.88615 0
M  V30 5149 H 478.224 -5.01982 4.82687 0
M  V30 5150 H 475.851 -5.24814 5.49976 0
M  V30 5151 N 477.426 -0.562348 -1.47226 0
M  V30 5152 C 478.672 -0.0402761 -2.0276 0
M  V30 5153 C 479.005 1.30823 -1.43523 0
M  V30 5154 O 478.28 1.85249 -0.592705 0
M  V30 5155 C 478.563 0.047311 -3.60069 0
M  V30 5156 C 478.416 -1.32865 -4.29729 0
M  V30 5157 C 479.735 0.758182 -4.3352 0
M  V30 5158 H 476.854 -0.0161105 -0.736824 0
M  V30 5159 H 479.496 -0.725628 -1.75598 0
M  V30 5160 H 477.646 0.630986 -3.83342 0
M  V30 5161 H 479.318 -1.95593 -4.17781 0
M  V30 5162 H 477.561 -1.90195 -3.89882 0
M  V30 5163 H 478.232 -1.22004 -5.38349 0
M  V30 5164 H 480.708 0.262546 -4.15271 0
M  V30 5165 H 479.584 0.78844 -5.43208 0
M  V30 5166 H 479.845 1.81537 -4.03109 0
M  V30 5167 N 478.904 1.54736 -0.299062 0
M  V30 5168 C 480.153 1.99279 0.311549 0
M  V30 5169 C 480.466 1.19107 1.55154 0
M  V30 5170 O 481.672 1.53908 2.23662 0
M  V30 5171 C 480.128 3.54768 0.605632 0
M  V30 5172 C 479.736 4.43746 -0.615914 0
M  V30 5173 C 481.48 4.07841 1.17754 0
M  V30 5174 C 479.387 5.90663 -0.29509 0
M  V30 5175 H 478.317 0.744359 0.120187 0
M  V30 5176 H 480.968 1.78919 -0.407464 0
M  V30 5177 H 479.35 3.71021 1.38419 0
M  V30 5178 H 480.524 4.39267 -1.39218 0
M  V30 5179 H 478.839 4.01434 -1.10633 0
M  V30 5180 H 481.436 5.15174 1.43179 0
M  V30 5181 H 481.779 3.58324 2.11918 0
M  V30 5182 H 482.312 3.95123 0.460739 0
M  V30 5183 H 479.051 6.44325 -1.20524 0
M  V30 5184 H 478.571 5.98155 0.44394 0
M  V30 5185 H 480.25 6.46916 0.104048 0
M  V30 5186 N 480.382 0.0267497 1.57577 0
M  V30 5187 C 481.659 -0.690926 1.82991 0
M  V30 5188 C 482.039 -1.90471 0.910164 0
M  V30 5189 O 481.387 -2.28474 -0.0347985 0
M  V30 5190 C 481.597 -1.07139 3.32148 0
M  V30 5191 C 482.945 -1.46402 3.98562 0
M  V30 5192 O 483.969 -1.16443 3.36629 0
M  V30 5193 O 482.828 -2.02214 5.07712 0
M  V30 5194 H 479.922 -0.338747 0.75444 0
M  V30 5195 H 482.468 0.0542506 1.69613 0
M  V30 5196 H 481.24 -0.207394 3.9075 0
M  V30 5197 H 480.863 -1.87481 3.50623 0
M  V30 5198 N 481.861 -1.55662 -0.24637 0
M  V30 5199 C 482.811 -1.86753 -1.30795 0
M  V30 5200 C 483.795 -0.728445 -1.43466 0
M  V30 5201 O 484.987 -0.99038 -1.46699 0
M  V30 5202 C 482.116 -2.16618 -2.66329 0
M  V30 5203 C 481.202 -3.36855 -2.57661 0
M  V30 5204 N 481.593 -4.56111 -2.18624 0
M  V30 5205 C 479.891 -3.39976 -2.88673 0
M  V30 5206 C 480.592 -5.38247 -2.20601 0
M  V30 5207 N 479.568 -4.77322 -2.60124 0
M  V30 5208 H 483.37 -2.76486 -0.996642 0
M  V30 5209 H 480.884 -1.55896 -0.454994 0
M  V30 5210 H 482.881 -2.37057 -3.42942 0
M  V30 5211 H 481.541 -1.28185 -2.98327 0
M  V30 5212 H 482.552 -4.81726 -1.9016 0
M  V30 5213 H 479.229 -2.61815 -3.25206 0
M  V30 5214 H 480.619 -6.43657 -1.92756 0
M  V30 5215 N 483.339 0.512053 -1.4905 0
M  V30 5216 C 484.271 1.63121 -1.6101 0
M  V30 5217 C 485.284 1.55145 -0.493352 0
M  V30 5218 O 486.473 1.61278 -0.764955 0
M  V30 5219 C 483.573 3.01863 -1.54052 0
M  V30 5220 C 482.746 3.35138 -2.81072 0
M  V30 5221 C 481.805 4.5324 -2.67319 0
M  V30 5222 O 480.831 4.55571 -3.41238 0
M  V30 5223 N 482.033 5.52495 -1.78127 0
M  V30 5224 H 484.798 1.53292 -2.5753 0
M  V30 5225 H 482.359 0.699706 -1.45999 0
M  V30 5226 H 484.351 3.78774 -1.42521 0
M  V30 5227 H 482.921 3.05675 -0.654345 0
M  V30 5228 H 482.141 2.4723 -3.07036 0
M  V30 5229 H 483.429 3.54162 -3.65304 0
M  V30 5230 H 482.827 5.53403 -1.17308 0
M  V30 5231 H 481.384 6.28553 -1.72525 0
M  V30 5232 N 484.817 1.37938 0.762283 0
M  V30 5233 C 486.233 1.18945 1.06415 0
M  V30 5234 C 486.433 0.0321163 2.01474 0
M  V30 5235 O 485.489 -0.624844 2.44647 0
M  V30 5236 C 486.802 2.51218 1.65258 0
M  V30 5237 C 488.35 2.57824 1.7747 0
M  V30 5238 C 488.825 3.90251 2.39725 0
M  V30 5239 N 490.316 3.91744 2.47166 0
M  V30 5240 C 491.051 4.90966 2.96209 0
M  V30 5241 N 490.547 6.00585 3.45354 0
M  V30 5242 N 492.34 4.78363 2.9517 0
M  V30 5243 H 484.491 2.11994 0.131301 0
M  V30 5244 H 486.754 0.940262 0.120879 0
M  V30 5245 H 486.46 3.36317 1.02878 0
M  V30 5246 H 486.334 2.68989 2.64433 0
M  V30 5247 H 488.721 1.73126 2.3898 0
M  V30 5248 H 488.802 2.43928 0.770241 0
M  V30 5249 H 488.446 4.75368 1.78852 0
M  V30 5250 H 488.376 4.01454 3.40796 0
M  V30 5251 H 490.867 3.12563 2.12397 0
M  V30 5252 H 491.18 6.72236 3.81207 0
M  V30 5253 H 489.525 6.04217 3.43434 0
M  V30 5254 H 492.716 3.91841 2.56082 0
M  V30 5255 H 492.889 5.55843 3.33081 0
M  V30 5256 N 486.295 -0.989507 1.22664 0
M  V30 5257 C 487.225 -2.09847 1.02404 0
M  V30 5258 C 488.206 -1.70007 -0.0561303 0
M  V30 5259 O 489.391 -1.93906 0.106748 0
M  V30 5260 C 486.521 -3.41996 0.604663 0
M  V30 5261 C 485.475 -3.95699 1.63115 0
M  V30 5262 C 484.801 -5.23936 1.0675 0
M  V30 5263 C 486.101 -4.25999 3.02196 0
M  V30 5264 H 487.795 -2.27054 1.95158 0
M  V30 5265 H 485.341 -1.09111 0.939727 0
M  V30 5266 H 487.294 -4.1899 0.45002 0
M  V30 5267 H 486.018 -3.24626 -0.35855 0
M  V30 5268 H 484.677 -3.2084 1.77362 0
M  V30 5269 H 484.325 -5.02909 0.0955422 0
M  V30 5270 H 484.025 -5.60833 1.75328 0
M  V30 5271 H 485.549 -6.0356 0.924516 0
M  V30 5272 H 486.963 -4.93777 2.91303 0
M  V30 5273 H 485.36 -4.74076 3.67929 0
M  V30 5274 H 486.43 -3.33636 3.51873 0
M  V30 5275 N 487.773 -1.03688 -1.18687 0
M  V30 5276 C 488.998 -0.757819 -1.93059 0
M  V30 5277 C 489.423 0.678353 -1.75442 0
M  V30 5278 O 488.781 1.46938 -1.06203 0
M  V30 5279 C 488.829 -1.12423 -3.42627 0
M  V30 5280 O 487.933 -0.247505 -4.11657 0
M  V30 5281 H 487.274 -0.279245 -0.602427 0
M  V30 5282 H 489.804 -1.3857 -1.5053 0
M  V30 5283 H 489.814 -1.08454 -3.93322 0
M  V30 5284 H 488.489 -2.17049 -3.54771 0
M  V30 5285 H 487.066 -0.34649 -3.71287 0
M  V30 5286 N 489.251 1.34841 -0.815825 0
M  V30 5287 C 490.499 1.98107 -0.399744 0
M  V30 5288 C 490.82 1.65019 1.03894 0
M  V30 5289 O 490.09 0.937311 1.72021 0
M  V30 5290 H 488.67 0.732827 -0.144823 0
M  V30 5291 H 491.332 1.64599 -1.0437 0
M  V30 5292 H 490.428 3.07856 -0.512965 0
M  V30 5293 N 490.729 0.570148 1.46925 0
M  V30 5294 C 491.661 -0.207909 2.28255 0
M  V30 5295 C 492.674 -0.867301 1.37774 0
M  V30 5296 O 493.863 -0.738976 1.62485 0
M  V30 5297 C 490.963 -1.31298 3.12433 0
M  V30 5298 C 490.136 -0.747915 4.30958 0
M  V30 5299 C 489.195 -1.7391 4.9663 0
M  V30 5300 O 488.221 -1.2801 5.54619 0
M  V30 5301 N 489.423 -3.07288 4.92498 0
M  V30 5302 H 492.188 0.489794 2.95671 0
M  V30 5303 H 489.749 0.407076 1.56699 0
M  V30 5304 H 491.741 -1.97507 3.53232 0
M  V30 5305 H 490.311 -1.91373 2.47175 0
M  V30 5306 H 489.531 0.0913066 3.94094 0
M  V30 5307 H 490.819 -0.349958 5.07595 0
M  V30 5308 H 490.217 -3.47213 4.46609 0
M  V30 5309 H 488.774 -3.69021 5.37277 0
M  V30 5310 N 492.207 -1.54576 0.307264 0
M  V30 5311 C 493.455 -1.99867 -0.299574 0
M  V30 5312 C 493.776 -1.19714 -1.53927 0
M  V30 5313 O 493.046 -0.29472 -1.9367 0
M  V30 5314 H 491.626 -0.738299 -0.113683 0
M  V30 5315 H 494.288 -1.9032 0.420042 0
M  V30 5316 H 493.384 -3.06901 -0.567283 0
M  V30 5317 N 493.685 -0.035106 -1.57561 0
M  V30 5318 C 494.915 0.651312 -1.96065 0
M  V30 5319 C 495.323 1.6585 -0.910514 0
M  V30 5320 O 494.666 1.83336 0.11552 0
M  V30 5321 C 494.728 1.40897 -3.30739 0
M  V30 5322 C 494.392 0.559436 -4.53563 0
M  V30 5323 C 495.389 -0.16778 -5.19629 0
M  V30 5324 C 493.074 0.495079 -4.99854 0
M  V30 5325 C 495.068 -0.947963 -6.30311 0
M  V30 5326 C 492.755 -0.288804 -6.10417 0
M  V30 5327 C 493.753 -1.00903 -6.75505 0
M  V30 5328 O 493.441 -1.78005 -7.83945 0
M  V30 5329 H 493.173 0.184036 -0.650467 0
M  V30 5330 H 495.727 -0.0929677 -2.05189 0
M  V30 5331 H 493.957 2.19852 -3.18123 0
M  V30 5332 H 495.646 1.98407 -3.54104 0
M  V30 5333 H 496.412 -0.12743 -4.84833 0
M  V30 5334 H 492.291 1.04524 -4.48994 0
M  V30 5335 H 495.835 -1.51064 -6.81047 0
M  V30 5336 H 491.732 -0.33085 -6.44652 0
M  V30 5337 H 492.5 -1.70046 -8.00641 0
M  V30 5338 N 495.163 1.55791 0.238111 0
M  V30 5339 C 496.403 1.79801 0.972163 0
M  V30 5340 C 496.767 0.606027 1.82185 0
M  V30 5341 O 497.968 0.725079 2.58836 0
M  V30 5342 C 496.239 3.08608 1.80266 0
M  V30 5343 S 497.798 3.53872 2.59461 0
M  V30 5344 H 494.616 0.631418 0.326852 0
M  V30 5345 H 497.218 1.94031 0.239212 0
M  V30 5346 H 495.922 3.93419 1.1683 0
M  V30 5347 H 495.453 2.9714 2.57821 0
M  V30 5348 H 497.468 3.15899 3.82651 0
M  V30 5349 N 496.642 -0.504142 1.49319 0
M  V30 5350 C 497.889 -1.25846 1.58647 0
M  V30 5351 C 498.217 -1.92592 0.27177 0
M  V30 5352 O 497.472 -1.81167 -0.74007 0
M  V30 5353 C 497.771 -2.35021 2.69258 0
M  V30 5354 C 497.437 -1.85755 4.1086 0
M  V30 5355 C 496.099 -1.72038 4.49395 0
M  V30 5356 C 498.451 -1.48844 4.99495 0
M  V30 5357 C 495.779 -1.19783 5.74342 0
M  V30 5358 C 498.131 -0.980422 6.24956 0
M  V30 5359 C 496.795 -0.829622 6.62324 0
M  V30 5360 H 496.065 -0.460505 0.580531 0
M  V30 5361 H 498.712 -0.559716 1.83138 0
M  V30 5362 H 497.017 -3.10672 2.38726 0
M  V30 5363 H 498.714 -2.93083 2.73685 0
M  V30 5364 H 495.304 -1.9739 3.80441 0
M  V30 5365 H 499.488 -1.5829 4.70381 0
M  V30 5366 H 494.744 -1.06817 6.01997 0
M  V30 5367 H 498.918 -0.685608 6.93017 0
M  V30 5368 H 496.545 -0.42253 7.59025 0
M  V30 5369 N 498.12 -1.38341 -0.754957 0
M  V30 5370 C 499.345 -1.37882 -1.5493 0
M  V30 5371 C 499.77 0.0296385 -1.88077 0
M  V30 5372 O 499.128 1.01133 -1.50472 0
M  V30 5373 C 499.176 -2.23996 -2.82592 0
M  V30 5374 O 498.28 -1.65612 -3.77686 0
M  V30 5375 H 497.621 -0.470384 -0.468652 0
M  V30 5376 H 500.151 -1.82084 -0.933082 0
M  V30 5377 H 500.161 -2.37806 -3.3153 0
M  V30 5378 H 498.836 -3.26365 -2.57796 0
M  V30 5379 H 497.413 -1.60936 -3.36384 0
M  V30 5380 N 499.598 0.982988 -1.23187 0
M  V30 5381 C 500.561 2.05649 -1.01198 0
M  V30 5382 C 501.561 1.6078 0.0252464 0
M  V30 5383 O 502.751 1.72878 -0.214243 0
M  V30 5384 C 499.883 3.36744 -0.530656 0
M  V30 5385 H 501.076 2.2659 -1.96461 0
M  V30 5386 H 498.629 1.15602 -1.05195 0
M  V30 5387 H 499.364 3.21492 0.425873 0
M  V30 5388 H 499.149 3.7065 -1.2791 0
M  V30 5389 H 500.639 4.15705 -0.397366 0
M  V30 5390 N 501.076 1.04316 1.18135 0
M  V30 5391 C 502.301 0.768047 1.92655 0
M  V30 5392 C 502.726 -0.66904 1.758 0
M  V30 5393 O 502.084 -1.46372 1.06981 0
M  V30 5394 C 502.132 1.14239 3.42026 0
M  V30 5395 O 501.236 0.269333 4.1152 0
M  V30 5396 H 500.577 0.282436 0.600937 0
M  V30 5397 H 503.107 1.39367 1.49793 0
M  V30 5398 H 503.117 1.10538 3.92741 0
M  V30 5399 H 501.792 2.18928 3.53615 0
M  V30 5400 H 500.369 0.366175 3.71098 0
M  V30 5401 N 502.554 -1.34406 0.822964 0
M  V30 5402 C 503.484 -2.32052 0.259608 0
M  V30 5403 C 504.465 -1.58243 -0.623961 0
M  V30 5404 O 505.65 -1.86224 -0.55083 0
M  V30 5405 C 502.78 -3.42434 -0.579314 0
M  V30 5406 C 501.734 -4.27499 0.20712 0
M  V30 5407 C 501.06 -5.29349 -0.754547 0
M  V30 5408 C 502.36 -5.02758 1.41533 0
M  V30 5409 H 504.054 -2.79418 1.07545 0
M  V30 5410 H 501.6 -1.34338 0.518593 0
M  V30 5411 H 503.553 -4.0976 -0.983612 0
M  V30 5412 H 502.277 -2.93717 -1.4282 0
M  V30 5413 H 500.936 -3.61776 0.592787 0
M  V30 5414 H 500.584 -4.76895 -1.59939 0
M  V30 5415 H 500.284 -5.8714 -0.232561 0
M  V30 5416 H 501.808 -5.99544 -1.1567 0
M  V30 5417 H 503.222 -5.62938 1.08504 0
M  V30 5418 H 501.619 -5.70123 1.87296 0
M  V30 5419 H 502.689 -4.32451 2.1935 0
M  V30 5420 N 504.032 -0.577932 -1.46621 0
M  V30 5421 C 505.443 -0.150071 -1.86096 0
M  V30 5422 C 505.794 1.28563 -1.48209 0
M  V30 5423 O 504.919 1.97036 -0.894754 0
M  V30 5424 C 505.514 -0.265576 -3.37758 0
M  V30 5425 C 504.073 0.10738 -3.76247 0
M  V30 5426 C 503.22 -0.603711 -2.70649 0
M  V30 5427 H 506.171 -0.786438 -1.37844 0
M  V30 5428 H 506.192 0.510352 -3.77062 0
M  V30 5429 H 505.704 -1.3106 -3.65301 0
M  V30 5430 H 503.805 1.15272 -3.54321 0
M  V30 5431 H 503.918 -0.26561 -4.78363 0
M  V30 5432 H 502.282 -0.0444884 -2.54661 0
M  V30 5433 H 503.065 -1.65029 -3.01032 0
M  V30 5434 N 505.51 1.54411 -0.315457 0
M  V30 5435 C 506.921 1.85885 0.174265 0
M  V30 5436 C 507.272 1.23723 1.52273 0
M  V30 5437 O 506.397 0.540246 2.09548 0
M  V30 5438 C 506.992 3.37257 0.322981 0
M  V30 5439 C 505.551 3.68711 0.756922 0
M  V30 5440 C 504.698 2.77013 -0.126195 0
M  V30 5441 H 507.649 1.49374 -0.536007 0
M  V30 5442 H 507.67 3.62539 1.15522 0
M  V30 5443 H 507.182 3.82471 -0.658602 0
M  V30 5444 H 505.283 3.29024 1.74854 0
M  V30 5445 H 505.396 4.75741 0.566291 0
M  V30 5446 H 503.76 2.51588 0.39692 0
M  V30 5447 H 504.543 3.25051 -1.1044 0
M  V30 5448 N 506.988 0.0434614 1.5754 0
M  V30 5449 C 507.918 -0.931651 2.14109 0
M  V30 5450 C 508.899 -1.32971 1.06079 0
M  V30 5451 O 510.084 -1.40579 1.33982 0
M  V30 5452 C 507.214 -2.20914 2.67982 0
M  V30 5453 C 506.168 -1.95139 3.80926 0
M  V30 5454 C 505.494 -3.29276 4.21285 0
M  V30 5455 C 506.794 -1.27913 5.06395 0
M  V30 5456 H 508.488 -0.460497 2.95837 0
M  V30 5457 H 506.034 -0.220058 1.42309 0
M  V30 5458 H 507.987 -2.89522 3.06194 0
M  V30 5459 H 506.711 -2.70221 1.83434 0
M  V30 5460 H 505.37 -1.28945 3.43175 0
M  V30 5461 H 505.018 -3.76369 3.33699 0
M  V30 5462 H 504.718 -3.12831 4.97404 0
M  V30 5463 H 506.242 -3.99129 4.62091 0
M  V30 5464 H 507.656 -1.86544 5.42102 0
M  V30 5465 H 506.053 -1.2182 5.87605 0
M  V30 5466 H 507.123 -0.254066 4.84234 0
M  V30 5467 N 508.466 -1.55915 -0.229846 0
M  V30 5468 C 509.396 -1.94754 -1.28815 0
M  V30 5469 C 510.377 -0.814657 -1.49323 0
M  V30 5470 O 511.562 -1.07631 -1.61645 0
M  V30 5471 C 508.692 -2.25705 -2.63959 0
M  V30 5472 C 507.646 -3.41406 -2.5812 0
M  V30 5473 C 506.972 -3.57941 -3.97218 0
M  V30 5474 C 508.272 -4.76616 -2.13623 0
M  V30 5475 H 509.966 -2.83404 -0.965547 0
M  V30 5476 H 507.512 -1.36353 -0.463028 0
M  V30 5477 H 509.465 -2.51467 -3.38146 0
M  V30 5478 H 508.189 -1.339 -2.9789 0
M  V30 5479 H 506.848 -3.1568 -1.86391 0
M  V30 5480 H 506.496 -2.63526 -4.28443 0
M  V30 5481 H 506.196 -4.35757 -3.94195 0
M  V30 5482 H 507.72 -3.86042 -4.73079 0
M  V30 5483 H 509.134 -5.01637 -2.77549 0
M  V30 5484 H 507.531 -5.57655 -2.21677 0
M  V30 5485 H 508.601 -4.7253 -1.08829 0
M  V30 5486 N 509.944 0.496216 -1.49584 0
M  V30 5487 C 510.907 1.57952 -1.66084 0
M  V30 5488 C 511.907 1.51729 -0.53244 0
M  V30 5489 O 513.097 1.54796 -0.79899 0
M  V30 5490 C 510.229 2.97604 -1.66268 0
M  V30 5491 H 511.422 1.44649 -2.6271 0
M  V30 5492 H 508.975 0.7208 -1.38687 0
M  V30 5493 H 509.71 3.16378 -0.712432 0
M  V30 5494 H 509.495 3.03528 -2.4822 0
M  V30 5495 H 510.985 3.76301 -1.81073 0
M  V30 5496 N 511.423 1.38739 0.74761 0
M  V30 5497 C 512.386 1.36241 1.84312 0
M  V30 5498 C 513.386 0.261811 1.58654 0
M  V30 5499 O 514.576 0.519031 1.66288 0
M  V30 5500 C 511.708 1.12253 3.21888 0
M  V30 5501 H 512.901 2.33712 1.87933 0
M  V30 5502 H 510.454 1.2412 0.949946 0
M  V30 5503 H 511.189 0.154133 3.23934 0
M  V30 5504 H 510.974 1.91943 3.41907 0
M  V30 5505 H 512.464 1.13215 4.0196 0
M  V30 5506 N 512.901 -0.976442 1.23707 0
M  V30 5507 C 513.864 -2.0511 1.02287 0
M  V30 5508 C 514.864 -1.60791 -0.0167195 0
M  V30 5509 O 516.054 -1.72761 0.223408 0
M  V30 5510 C 513.186 -3.36458 0.548507 0
M  V30 5511 H 514.379 -2.25545 1.9766 0
M  V30 5512 H 511.932 -1.15042 1.05806 0
M  V30 5513 H 512.667 -3.21713 -0.408818 0
M  V30 5514 H 512.452 -3.69967 1.29874 0
M  V30 5515 H 513.942 -4.15489 0.419406 0
M  V30 5516 N 514.379 -1.04941 -1.1758 0
M  V30 5517 C 515.342 -0.652456 -2.19717 0
M  V30 5518 C 516.342 0.294745 -1.58076 0
M  V30 5519 O 517.532 0.0789579 -1.74021 0
M  V30 5520 C 514.664 0.0420712 -3.40874 0
M  V30 5521 H 515.857 -1.55642 -2.5635 0
M  V30 5522 H 513.41 -0.842995 -1.31618 0
M  V30 5523 H 514.145 0.95943 -3.09783 0
M  V30 5524 H 513.93 -0.638844 -3.86861 0
M  V30 5525 H 515.42 0.306 -4.16477 0
M  V30 5526 N 515.857 1.33968 -0.830081 0
M  V30 5527 C 517.106 1.97323 -0.417928 0
M  V30 5528 C 517.419 1.6652 1.02618 0
M  V30 5529 O 518.625 2.2342 1.54259 0
M  V30 5530 C 517.081 3.53099 -0.696359 0
M  V30 5531 C 516.689 3.92788 -2.15457 0
M  V30 5532 C 518.433 4.23049 -0.350724 0
M  V30 5533 C 516.34 5.41506 -2.37751 0
M  V30 5534 H 515.27 0.738409 -0.152541 0
M  V30 5535 H 517.921 1.52711 -1.01744 0
M  V30 5536 H 516.303 3.95991 -0.0265904 0
M  V30 5537 H 517.477 3.6098 -2.86408 0
M  V30 5538 H 515.792 3.35795 -2.46232 0
M  V30 5539 H 518.389 5.32403 -0.495036 0
M  V30 5540 H 518.732 4.10279 0.705476 0
M  V30 5541 H 519.265 3.85657 -0.975362 0
M  V30 5542 H 516.004 5.5927 -3.41903 0
M  V30 5543 H 515.524 5.74804 -1.7135 0
M  V30 5544 H 517.203 6.0828 -2.20465 0
M  V30 5545 N 517.335 0.585699 1.46312 0
M  V30 5546 C 518.245 -0.148236 2.34131 0
M  V30 5547 C 519.261 -0.882972 1.49932 0
M  V30 5548 O 520.437 -0.845484 1.82794 0
M  V30 5549 C 517.502 -1.14714 3.27172 0
M  V30 5550 C 516.563 -0.416746 4.27272 0
M  V30 5551 C 515.796 -1.36806 5.15868 0
M  V30 5552 O 516.019 -2.60475 5.07454 0
M  V30 5553 O 514.953 -0.877018 5.95476 0
M  V30 5554 H 518.779 0.572882 2.98248 0
M  V30 5555 H 516.364 0.346082 1.45336 0
M  V30 5556 H 518.246 -1.72303 3.84564 0
M  V30 5557 H 516.921 -1.84967 2.65648 0
M  V30 5558 H 515.828 0.201061 3.73559 0
M  V30 5559 H 517.161 0.244872 4.9159 0
M  V30 5560 N 518.813 -1.54241 0.323641 0
M  V30 5561 C 519.776 -2.22997 -0.529602 0
M  V30 5562 C 520.776 -1.22345 -1.04347 0
M  V30 5563 O 521.966 -1.46924 -0.935889 0
M  V30 5564 C 519.098 -2.93409 -1.73562 0
M  V30 5565 H 520.291 -2.99815 0.0714518 0
M  V30 5566 H 517.844 -1.56121 0.0747258 0
M  V30 5567 H 518.579 -2.20729 -2.37591 0
M  V30 5568 H 518.364 -3.67217 -1.37456 0
M  V30 5569 H 519.854 -3.45794 -2.34128 0
M  V30 5570 N 520.291 -0.0518155 -1.57515 0
M  V30 5571 C 521.221 0.920283 -2.146 0
M  V30 5572 C 522.202 1.32406 -1.06783 0
M  V30 5573 O 523.387 1.39866 -1.34726 0
M  V30 5574 C 520.517 2.1949 -2.6915 0
M  V30 5575 C 519.471 1.93116 -3.81956 0
M  V30 5576 C 518.797 3.27037 -4.23026 0
M  V30 5577 C 520.097 1.25225 -5.07066 0
M  V30 5578 H 521.791 0.444801 -2.96077 0
M  V30 5579 H 519.337 0.212508 -1.42423 0
M  V30 5580 H 521.29 2.87894 -3.07725 0
M  V30 5581 H 520.014 2.69244 -1.84865 0
M  V30 5582 H 518.673 1.27123 -3.43854 0
M  V30 5583 H 518.321 3.74595 -3.3569 0
M  V30 5584 H 518.021 3.10189 -4.99056 0
M  V30 5585 H 519.545 3.96673 -4.64202 0
M  V30 5586 H 520.959 1.83666 -5.43083 0
M  V30 5587 H 519.356 1.18702 -5.88243 0
M  V30 5588 H 520.426 0.228382 -4.84362 0
M  V30 5589 N 521.769 1.56035 0.221574 0
M  V30 5590 C 522.717 1.93269 1.29421 0
M  V30 5591 C 523.711 0.814727 1.48521 0
M  V30 5592 O 524.917 0.999559 1.49696 0
M  V30 5593 H 521.292 0.614188 0.43391 0
M  V30 5594 H 523.263 2.82773 0.952987 0
M  V30 5595 C 522.012 2.26573 2.63742 0
M  V30 5596 H 521.335 3.12112 2.49853 0
M  V30 5597 H 522.775 2.5651 3.37607 0
M  V30 5598 C 521.234 1.09086 3.1875 0
M  V30 5599 O 521.764 0.351985 4.00155 0
M  V30 5600 N 519.97 0.874693 2.77124 0
M  V30 5601 H 519.517 1.47726 2.11033 0
M  V30 5602 H 519.475 0.0903349 3.1427 0
M  V30 5603 N 523.247 -0.488276 1.49845 0
M  V30 5604 C 524.496 -1.23826 1.59217 0
M  V30 5605 C 524.809 -1.93439 0.289966 0
M  V30 5606 O 526.015 -2.70229 0.262382 0
M  V30 5607 C 524.471 -2.24902 2.80976 0
M  V30 5608 C 524.079 -1.6117 4.18005 0
M  V30 5609 C 525.823 -3.00648 2.99685 0
M  V30 5610 C 523.73 -2.60431 5.3097 0
M  V30 5611 H 522.66 -0.465858 0.592868 0
M  V30 5612 H 525.311 -0.510645 1.76252 0
M  V30 5613 H 523.693 -3.0088 2.57463 0
M  V30 5614 H 524.867 -0.910968 4.51706 0
M  V30 5615 H 523.182 -0.97767 4.0476 0
M  V30 5616 H 525.779 -3.74903 3.81251 0
M  V30 5617 H 526.122 -3.5902 2.10738 0
M  V30 5618 H 526.655 -2.31784 3.23297 0
M  V30 5619 H 523.394 -2.06823 6.22017 0
M  V30 5620 H 522.914 -3.28707 5.01709 0
M  V30 5621 H 524.593 -3.22606 5.60834 0
M  V30 5622 N 524.725 -1.39134 -0.740242 0
M  V30 5623 C 525.658 -1.3182 -1.86276 0
M  V30 5624 C 526.636 -0.192794 -1.61453 0
M  V30 5625 O 527.82 -0.372365 -1.84786 0
M  V30 5626 C 524.947 -1.04564 -3.22155 0
M  V30 5627 C 523.993 -2.19224 -3.65846 0
M  V30 5628 S 524.826 -3.81466 -3.75824 0
M  V30 5629 C 525.982 -3.56425 -5.14502 0
M  V30 5630 H 526.215 -2.26822 -1.92195 0
M  V30 5631 H 523.748 -1.25127 -0.904576 0
M  V30 5632 H 525.706 -0.895228 -4.00619 0
M  V30 5633 H 524.367 -0.112578 -3.13898 0
M  V30 5634 H 523.56 -1.95732 -4.6444 0
M  V30 5635 H 523.162 -2.30441 -2.94572 0
M  V30 5636 H 525.454 -3.13366 -6.00673 0
M  V30 5637 H 526.397 -4.54462 -5.43019 0
M  V30 5638 H 526.805 -2.90641 -4.8393 0
M  V30 5639 N 526.204 0.969867 -1.24223 0
M  V30 5640 C 527.114 2.09806 -1.0497 0
M  V30 5641 C 528.13 1.73998 0.00886455 0
M  V30 5642 O 529.306 2.00513 -0.188848 0
M  V30 5643 C 526.371 3.40467 -0.654452 0
M  V30 5644 C 525.432 3.90236 -1.78926 0
M  V30 5645 C 524.665 5.14662 -1.41277 0
M  V30 5646 O 524.888 5.69602 -0.301632 0
M  V30 5647 O 523.822 5.58761 -2.23763 0
M  V30 5648 H 527.648 2.28942 -1.99548 0
M  V30 5649 H 525.233 1.08197 -1.03023 0
M  V30 5650 H 527.115 4.19039 -0.445452 0
M  V30 5651 H 525.79 3.22636 0.262216 0
M  V30 5652 H 524.697 3.12735 -2.05299 0
M  V30 5653 H 526.03 4.1254 -2.68462 0
M  V30 5654 N 527.682 1.05563 1.17022 0
M  V30 5655 C 528.592 0.670758 2.24807 0
M  V30 5656 C 529.608 -0.309865 1.71219 0
M  V30 5657 O 530.784 -0.161025 2.00755 0
M  V30 5658 C 527.849 0.055337 3.46656 0
M  V30 5659 C 526.91 1.08688 4.15314 0
M  V30 5660 C 526.143 0.500736 5.31346 0
M  V30 5661 O 526.366 -0.688718 5.66227 0
M  V30 5662 O 525.3 1.23683 5.89055 0
M  V30 5663 H 529.126 1.56914 2.60023 0
M  V30 5664 H 526.711 0.827428 1.24395 0
M  V30 5665 H 528.593 -0.286492 4.20425 0
M  V30 5666 H 527.268 -0.816638 3.13229 0
M  V30 5667 H 526.175 1.48077 3.43546 0
M  V30 5668 H 527.508 1.93014 4.52777 0
M  V30 5669 N 529.16 -1.33526 0.837174 0
M  V30 5670 C 530.108 -2.31168 0.257698 0
M  V30 5671 C 531.102 -1.5806 -0.609388 0
M  V30 5672 O 532.308 -1.72941 -0.499139 0
M  V30 5673 H 528.683 -0.74922 0.0646058 0
M  V30 5674 H 530.654 -2.77552 1.09578 0
M  V30 5675 C 529.403 -3.4326 -0.553887 0
M  V30 5676 H 528.726 -3.99665 0.104008 0
M  V30 5677 H 530.166 -4.13782 -0.925219 0
M  V30 5678 C 528.625 -2.88965 -1.73207 0
M  V30 5679 O 529.155 -2.85013 -2.83073 0
M  V30 5680 N 527.361 -2.45596 -1.55342 0
M  V30 5681 H 526.908 -2.49009 -0.659705 0
M  V30 5682 H 526.866 -2.0962 -2.34322 0
M  V30 5683 N 530.638 -0.59345 -1.46 0
M  V30 5684 C 532.049 -0.169801 -1.85926 0
M  V30 5685 C 532.4 1.26984 -1.49565 0
M  V30 5686 O 531.525 1.96076 -0.915602 0
M  V30 5687 C 532.12 -0.301385 -3.37457 0
M  V30 5688 C 530.679 0.0674684 -3.7634 0
M  V30 5689 C 529.826 -0.632383 -2.69993 0
M  V30 5690 H 532.777 -0.801014 -1.37002 0
M  V30 5691 H 532.798 0.470331 -3.77582 0
M  V30 5692 H 532.31 -1.34927 -3.63891 0
M  V30 5693 H 530.411 1.11507 -3.55523 0
M  V30 5694 H 530.524 -0.316332 -4.78055 0
M  V30 5695 H 528.888 -0.0714961 -2.546 0
M  V30 5696 H 529.671 -1.68212 -2.99265 0
M  V30 5697 N 532.116 1.54067 -0.331816 0
M  V30 5698 C 533.364 2.00319 0.267739 0
M  V30 5699 C 533.685 1.22148 1.52003 0
M  V30 5700 O 532.955 0.325494 1.93177 0
M  V30 5701 H 531.535 0.740014 0.101922 0
M  V30 5702 H 534.197 1.89628 -0.450267 0
M  V30 5703 H 533.293 3.07765 0.518385 0
M  V30 5704 N 533.594 0.0601682 1.57485 0
M  V30 5705 C 534.843 -0.611101 1.9222 0
M  V30 5706 C 535.156 -1.71469 0.941159 0
M  V30 5707 O 536.362 -2.44473 1.18089 0
M  V30 5708 C 534.818 -1.13832 3.41424 0
M  V30 5709 C 534.426 -0.0663596 4.47951 0
M  V30 5710 C 536.17 -1.78432 3.85178 0
M  V30 5711 C 534.077 -0.606965 5.88277 0
M  V30 5712 H 533.007 -0.232033 0.71741 0
M  V30 5713 H 535.658 0.130518 1.83035 0
M  V30 5714 H 534.04 -1.93254 3.45643 0
M  V30 5715 H 535.214 0.707682 4.55333 0
M  V30 5716 H 533.529 0.482715 4.13593 0
M  V30 5717 H 536.126 -2.1989 4.87394 0
M  V30 5718 H 536.469 -2.63966 3.21913 0
M  V30 5719 H 537.002 -1.05651 3.83514 0
M  V30 5720 H 533.741 0.21095 6.5516 0
M  V30 5721 H 533.261 -1.34879 5.84438 0
M  V30 5722 H 534.94 -1.08704 6.37803 0
M  V30 5723 N 535.072 -1.5615 -0.213296 0
M  V30 5724 C 536.319 -1.79546 -0.936462 0
M  V30 5725 C 536.647 -0.630337 -1.84003 0
M  V30 5726 O 535.902 0.384883 -1.91878 0
M  V30 5727 C 536.201 -3.08772 -1.79985 0
M  V30 5728 C 535.867 -4.38532 -1.04882 0
M  V30 5729 C 534.529 -4.73787 -0.841393 0
M  V30 5730 C 536.881 -5.18609 -0.51907 0
M  V30 5731 C 534.209 -5.86627 -0.0924403 0
M  V30 5732 C 536.561 -6.32229 0.216581 0
M  V30 5733 C 535.225 -6.6608 0.435191 0
M  V30 5734 H 534.495 -0.657004 -0.342676 0
M  V30 5735 H 537.142 -1.9041 -0.204051 0
M  V30 5736 H 535.447 -2.93065 -2.60038 0
M  V30 5737 H 537.144 -3.24077 -2.36168 0
M  V30 5738 H 533.734 -4.10855 -1.22048 0
M  V30 5739 H 537.918 -4.91801 -0.666775 0
M  V30 5740 H 533.174 -6.11338 0.087081 0
M  V30 5741 H 537.348 -6.93503 0.634538 0
M  V30 5742 H 534.975 -7.5336 1.01746 0
M  V30 5743 N 536.55 0.480323 -1.50102 0
M  V30 5744 C 537.513 1.56181 -1.6775 0
M  V30 5745 C 538.513 1.51156 -0.548503 0
M  V30 5746 O 539.703 1.5394 -0.815363 0
M  V30 5747 C 536.835 2.95823 -1.69415 0
M  V30 5748 H 538.028 1.41855 -2.6423 0
M  V30 5749 H 535.581 0.70605 -1.39444 0
M  V30 5750 H 536.316 3.15604 -0.745948 0
M  V30 5751 H 536.101 3.00878 -2.51425 0
M  V30 5752 H 537.591 3.74359 -1.85054 0
M  V30 5753 N 538.028 1.39524 0.732853 0
M  V30 5754 C 539.274 1.37068 1.49467 0
M  V30 5755 C 539.607 -0.0327166 1.94172 0
M  V30 5756 O 538.882 -0.998071 1.66939 0
M  V30 5757 C 539.165 2.34494 2.73285 0
M  V30 5758 C 539.018 3.83784 2.34585 0
M  V30 5759 C 540.337 2.29717 3.75391 0
M  V30 5760 H 537.456 0.499206 0.542183 0
M  V30 5761 H 540.098 1.70532 0.837783 0
M  V30 5762 H 538.248 2.06087 3.29333 0
M  V30 5763 H 539.92 4.22949 1.84151 0
M  V30 5764 H 538.163 4.00455 1.66787 0
M  V30 5765 H 538.834 4.47444 3.23262 0
M  V30 5766 H 541.31 2.54839 3.28932 0
M  V30 5767 H 540.186 2.99962 4.59689 0
M  V30 5768 H 540.447 1.30291 4.22465 0
M  V30 5769 N 539.506 -0.963266 1.24736 0
M  V30 5770 C 540.436 -2.07628 1.06832 0
M  V30 5771 C 541.417 -1.70088 -0.0200566 0
M  V30 5772 O 542.602 -1.93636 0.147854 0
M  V30 5773 C 539.732 -3.40636 0.677069 0
M  V30 5774 C 538.686 -3.9215 1.71471 0
M  V30 5775 C 538.012 -5.21553 1.1784 0
M  V30 5776 C 539.312 -4.19493 3.11164 0
M  V30 5777 H 541.006 -2.22864 1.9993 0
M  V30 5778 H 538.552 -1.07093 0.96266 0
M  V30 5779 H 540.505 -4.17941 0.538792 0
M  V30 5780 H 539.229 -3.25313 -0.289612 0
M  V30 5781 H 537.888 -3.17005 1.84128 0
M  V30 5782 H 537.536 -5.02593 0.202195 0
M  V30 5783 H 537.236 -5.56988 1.87185 0
M  V30 5784 H 538.76 -6.01463 1.05233 0
M  V30 5785 H 540.174 -4.87487 3.01711 0
M  V30 5786 H 538.571 -4.66165 3.77902 0
M  V30 5787 H 539.641 -3.26097 3.58871 0
M  V30 5788 N 540.985 -1.06182 -1.16461 0
M  V30 5789 C 541.932 -0.671613 -2.20812 0
M  V30 5790 C 542.902 0.331186 -1.62765 0
M  V30 5791 O 544.087 0.22033 -1.89524 0
M  V30 5792 C 541.227 -0.063029 -3.45042 0
M  V30 5793 C 540.34 -1.11587 -4.1734 0
M  V30 5794 C 539.475 -0.473546 -5.29085 0
M  V30 5795 C 538.514 -1.51 -5.93182 0
M  V30 5796 N 537.651 -0.891118 -6.96422 0
M  V30 5797 H 542.491 -1.56589 -2.53542 0
M  V30 5798 H 540.028 -0.782951 -1.24532 0
M  V30 5799 H 541.986 0.307344 -4.16066 0
M  V30 5800 H 540.616 0.794663 -3.12866 0
M  V30 5801 H 539.668 -1.60396 -3.44931 0
M  V30 5802 H 540.98 -1.90221 -4.61104 0
M  V30 5803 H 540.134 -0.0501432 -6.06679 0
M  V30 5804 H 538.873 0.344687 -4.8648 0
M  V30 5805 H 537.878 -1.94331 -5.14311 0
M  V30 5806 H 539.103 -2.33031 -6.37866 0
M  V30 5807 H 537.049 -0.0935753 -6.55933 0
M  V30 5808 H 536.966 -1.61486 -7.38551 0
M  V30 5809 H 538.234 -0.492822 -7.77941 0
M  V30 5810 N 542.463 1.3308 -0.844243 0
M  V30 5811 C 543.373 2.32876 -0.283922 0
M  V30 5812 C 544.389 1.63589 0.592846 0
M  V30 5813 O 545.565 1.95205 0.495693 0
M  V30 5814 C 542.63 3.42667 0.527283 0
M  V30 5815 C 541.691 4.27664 -0.374394 0
M  V30 5816 C 540.924 5.32212 0.39819 0
M  V30 5817 O 541.147 5.46635 1.62932 0
M  V30 5818 O 540.081 6.01458 -0.2306 0
M  V30 5819 H 543.907 2.82671 -1.11045 0
M  V30 5820 H 541.492 1.36518 -0.606903 0
M  V30 5821 H 543.374 4.09652 0.988078 0
M  V30 5822 H 542.049 2.95079 1.33078 0
M  V30 5823 H 540.956 3.63526 -0.883144 0
M  V30 5824 H 542.289 4.78749 -1.1428 0
M  V30 5825 N 543.941 0.601185 1.45683 0
M  V30 5826 C 544.888 -0.121396 2.30481 0
M  V30 5827 C 545.858 -0.866232 1.41724 0
M  V30 5828 O 547.043 -0.85324 1.70659 0
M  V30 5829 C 544.183 -1.11704 3.26521 0
M  V30 5830 C 543.296 -0.373741 4.3038 0
M  V30 5831 C 542.431 -1.35854 5.13534 0
M  V30 5832 C 541.47 -0.602689 6.09126 0
M  V30 5833 N 540.607 -1.53645 6.85082 0
M  V30 5834 H 545.447 0.607732 2.91737 0
M  V30 5835 H 542.984 0.311502 1.43764 0
M  V30 5836 H 544.942 -1.70735 3.80664 0
M  V30 5837 H 543.572 -1.81366 2.67032 0
M  V30 5838 H 542.624 0.331962 3.78949 0
M  V30 5839 H 543.936 0.2163 4.98331 0
M  V30 5840 H 543.09 -2.02111 5.72046 0
M  V30 5841 H 541.829 -1.98251 4.45587 0
M  V30 5842 H 540.834 0.0735482 5.49751 0
M  V30 5843 H 542.059 0.0161467 6.79098 0
M  V30 5844 H 540.005 -2.14819 6.1983 0
M  V30 5845 H 539.922 -0.999688 7.49361 0
M  V30 5846 H 541.19 -2.1888 7.48139 0
M  V30 5847 N 545.419 -1.53889 0.339982 0
M  V30 5848 C 546.659 -2.02765 -0.258011 0
M  V30 5849 C 547.023 -1.22249 -1.48051 0
M  V30 5850 O 548.224 -1.61007 -2.15245 0
M  V30 5851 C 546.495 -3.5286 -0.567872 0
M  V30 5852 S 548.054 -4.23647 -1.14318 0
M  V30 5853 H 544.872 -0.706814 -0.0770389 0
M  V30 5854 H 547.474 -1.89594 0.476917 0
M  V30 5855 H 546.178 -4.09073 0.329745 0
M  V30 5856 H 545.709 -3.70144 -1.33256 0
M  V30 5857 H 547.724 -4.32676 -2.42911 0
M  V30 5858 N 546.897 -0.0685191 -1.57451 0
M  V30 5859 C 548.145 0.60016 -1.92983 0
M  V30 5860 C 548.466 1.70348 -0.949028 0
M  V30 5861 O 547.736 1.959 0.00335647 0
M  V30 5862 H 546.316 0.224682 -0.712409 0
M  V30 5863 H 548.978 -0.125605 -1.94495 0
M  V30 5864 H 548.074 1.02759 -2.94698 0
M  V30 5865 N 548.375 1.56261 0.205012 0
M  V30 5866 C 549.307 1.90266 1.27795 0
M  V30 5867 C 550.32 0.792397 1.42214 0
M  V30 5868 O 551.509 1.07077 1.42817 0
M  V30 5869 C 548.609 2.11074 2.65143 0
M  V30 5870 C 547.782 3.42176 2.7246 0
M  V30 5871 C 546.841 3.52216 3.90936 0
M  V30 5872 O 545.867 4.25119 3.78501 0
M  V30 5873 N 547.069 2.84573 5.05963 0
M  V30 5874 H 549.834 2.82896 0.989434 0
M  V30 5875 H 547.395 1.57008 0.394981 0
M  V30 5876 H 549.387 2.15089 3.4281 0
M  V30 5877 H 547.957 1.2499 2.86524 0
M  V30 5878 H 547.177 3.50116 1.81142 0
M  V30 5879 H 548.465 4.28509 2.74331 0
M  V30 5880 H 547.863 2.25152 5.18963 0
M  V30 5881 H 546.42 2.94228 5.81613 0
M  V30 5882 N 549.853 -0.472356 1.50355 0
M  V30 5883 C 551.102 -1.2213 1.60522 0
M  V30 5884 C 551.415 -1.9312 0.310466 0
M  V30 5885 O 552.621 -2.69936 0.291029 0
M  V30 5886 C 551.077 -2.21909 2.83345 0
M  V30 5887 C 550.685 -1.56727 4.19691 0
M  V30 5888 C 552.429 -2.97453 3.02856 0
M  V30 5889 C 550.336 -2.54785 5.33703 0
M  V30 5890 H 549.266 -0.459543 0.597776 0
M  V30 5891 H 551.917 -0.491922 1.76783 0
M  V30 5892 H 550.299 -2.98133 2.60639 0
M  V30 5893 H 551.473 -0.863007 4.52646 0
M  V30 5894 H 549.788 -0.934685 4.05774 0
M  V30 5895 H 552.385 -3.70838 3.85205 0
M  V30 5896 H 552.728 -3.56764 2.14534 0
M  V30 5897 H 553.261 -2.28342 3.25737 0
M  V30 5898 H 550 -2.00214 6.24175 0
M  V30 5899 H 549.52 -3.23367 5.05167 0
M  V30 5900 H 551.199 -3.16639 5.64224 0
M  V30 5901 N 551.331 -1.39911 -0.725443 0
M  V30 5902 C 552.281 -1.35878 -1.83088 0
M  V30 5903 C 553.265 -0.237989 -1.5913 0
M  V30 5904 O 554.457 -0.476302 -1.70471 0
M  V30 5905 C 551.586 -1.21403 -3.21117 0
M  V30 5906 C 550.672 -2.38223 -3.50871 0
M  V30 5907 N 551.063 -3.63703 -3.51502 0
M  V30 5908 C 549.361 -2.31388 -3.81281 0
M  V30 5909 C 550.062 -4.4101 -3.79322 0
M  V30 5910 N 549.038 -3.7072 -3.97577 0
M  V30 5911 H 552.84 -2.3085 -1.81895 0
M  V30 5912 H 550.354 -1.33543 -0.924125 0
M  V30 5913 H 552.351 -1.16597 -4.00263 0
M  V30 5914 H 551.011 -0.273902 -3.23543 0
M  V30 5915 H 552.022 -3.96998 -3.32586 0
M  V30 5916 H 548.699 -1.45689 -3.91256 0
M  V30 5917 H 550.089 -5.49819 -3.86198 0
M  V30 5918 N 552.809 0.956637 -1.25245 0
M  V30 5919 C 553.756 2.053 -1.05454 0
M  V30 5920 C 554.726 1.66062 0.0356889 0
M  V30 5921 O 555.911 1.90415 -0.121099 0
M  V30 5922 C 553.051 3.38391 -0.677191 0
M  V30 5923 C 552.164 3.90758 -1.84206 0
M  V30 5924 C 551.299 5.12165 -1.40926 0
M  V30 5925 C 550.338 5.56757 -2.54338 0
M  V30 5926 N 549.475 6.69376 -2.11848 0
M  V30 5927 H 554.315 2.21562 -1.99284 0
M  V30 5928 H 551.852 1.08578 -0.992434 0
M  V30 5929 H 553.81 4.1488 -0.43938 0
M  V30 5930 H 552.44 3.22021 0.224127 0
M  V30 5931 H 551.492 3.10808 -2.19323 0
M  V30 5932 H 552.804 4.19802 -2.69383 0
M  V30 5933 H 551.958 5.96065 -1.13098 0
M  V30 5934 H 550.697 4.84832 -0.528175 0
M  V30 5935 H 549.702 4.71423 -2.82913 0
M  V30 5936 H 550.927 5.861 -3.43022 0
M  V30 5937 H 548.873 6.43756 -1.26153 0
M  V30 5938 H 548.79 6.97927 -2.90574 0
M  V30 5939 H 550.058 7.5669 -1.87191 0
M  V30 5940 N 554.287 1.06798 1.15896 0
M  V30 5941 C 555.25 0.687328 2.18651 0
M  V30 5942 C 556.25 -0.269559 1.58524 0
M  V30 5943 O 557.44 -0.0512627 1.74125 0
M  V30 5944 C 554.572 0.0121642 3.40898 0
M  V30 5945 H 555.765 1.59701 2.53842 0
M  V30 5946 H 553.318 0.863828 1.3026 0
M  V30 5947 H 554.053 -0.910025 3.1127 0
M  V30 5948 H 553.838 0.700309 3.85795 0
M  V30 5949 H 555.328 -0.239703 4.16911 0
M  V30 5950 N 555.766 -1.3263 0.851289 0
M  V30 5951 C 556.696 -2.31449 0.308771 0
M  V30 5952 C 557.677 -1.59531 -0.590255 0
M  V30 5953 O 558.862 -1.87351 -0.511205 0
M  V30 5954 C 555.992 -3.43586 -0.506548 0
M  V30 5955 C 554.946 -4.26963 0.297753 0
M  V30 5956 C 554.272 -5.30831 -0.642094 0
M  V30 5957 C 555.572 -4.99643 1.52166 0
M  V30 5958 H 557.266 -2.77074 1.13447 0
M  V30 5959 H 554.812 -1.33207 0.546971 0
M  V30 5960 H 556.765 -4.11754 -0.896474 0
M  V30 5961 H 555.489 -2.96681 -1.36558 0
M  V30 5962 H 554.148 -3.60437 0.669391 0
M  V30 5963 H 553.796 -4.8018 -1.49788 0
M  V30 5964 H 553.496 -5.87501 -0.107968 0
M  V30 5965 H 555.02 -6.01862 -1.02927 0
M  V30 5966 H 556.434 -5.6051 1.20421 0
M  V30 5967 H 554.831 -5.66022 1.99347 0
M  V30 5968 H 555.901 -4.27701 2.28474 0
M  V30 5969 N 557.244 -0.608902 -1.45362 0
M  V30 5970 C 558.176 0.147318 -2.28726 0
M  V30 5971 C 559.189 0.830468 -1.40025 0
M  V30 5972 O 560.378 0.695636 -1.64387 0
M  V30 5973 C 557.478 1.22968 -3.15804 0
M  V30 5974 C 556.651 0.633391 -4.3279 0
M  V30 5975 C 555.71 1.60682 -5.01067 0
M  V30 5976 O 554.736 1.13261 -5.57818 0
M  V30 5977 N 555.938 2.94123 -5.00472 0
M  V30 5978 H 558.703 -0.568014 -2.94268 0
M  V30 5979 H 556.264 -0.448479 -1.55564 0
M  V30 5980 H 558.256 1.88072 -3.58345 0
M  V30 5981 H 556.826 1.84752 -2.52162 0
M  V30 5982 H 556.046 -0.195762 -3.93714 0
M  V30 5983 H 557.334 0.215255 -5.08344 0
M  V30 5984 H 556.732 3.3525 -4.55657 0
M  V30 5985 H 555.289 3.54646 -5.46872 0
M  V30 5986 N 558.722 1.53707 -0.348139 0
M  V30 5987 C 559.97 2.00591 0.246478 0
M  V30 5988 C 560.291 1.23753 1.50699 0
M  V30 5989 O 559.561 0.345964 1.92821 0
M  V30 5990 H 558.141 0.741053 0.0940679 0
M  V30 5991 H 560.803 1.89139 -0.470354 0
M  V30 5992 H 559.899 3.08297 0.485714 0
M  V30 5993 N 560.2 0.0768682 1.57412 0
M  V30 5994 C 561.449 -0.590679 1.92857 0
M  V30 5995 C 561.762 -1.70461 0.959293 0
M  V30 5996 O 562.968 -2.43207 1.20675 0
M  V30 5997 C 561.424 -1.10204 3.42612 0
M  V30 5998 C 561.032 -0.0188447 4.47996 0
M  V30 5999 C 562.776 -1.74336 3.87049 0
M  V30 6000 C 560.683 -0.544536 5.88888 0
M  V30 6001 H 559.613 -0.224411 0.71983 0
M  V30 6002 H 562.264 0.149924 1.82887 0
M  V30 6003 H 560.646 -1.89577 3.47673 0
M  V30 6004 H 561.82 0.755936 4.54557 0
M  V30 6005 H 560.135 0.526555 4.13057 0
M  V30 6006 H 562.732 -2.14708 4.89699 0
M  V30 6007 H 563.075 -2.60537 3.24694 0
M  V30 6008 H 563.608 -1.01577 3.84613 0
M  V30 6009 H 560.347 0.280426 6.549 0
M  V30 6010 H 559.867 -1.28673 5.85836 0
M  V30 6011 H 561.546 -1.01933 6.3892 0
M  V30 6012 N 561.678 -1.56367 -0.196722 0
M  V30 6013 C 562.903 -1.84991 -0.937714 0
M  V30 6014 C 563.328 -0.660244 -1.76132 0
M  V30 6015 O 562.686 0.390967 -1.77034 0
M  V30 6016 C 562.734 -3.11828 -1.81096 0
M  V30 6017 O 561.838 -2.92266 -2.90955 0
M  V30 6018 H 561.179 -0.609193 -0.264159 0
M  V30 6019 H 563.709 -2.03595 -0.202529 0
M  V30 6020 H 563.719 -3.42579 -2.21594 0
M  V30 6021 H 562.394 -3.98037 -1.2058 0
M  V30 6022 H 560.971 -2.72809 -2.54224 0
M  V30 6023 N 563.156 0.464375 -1.50603 0
M  V30 6024 C 564.404 1.21356 -1.61608 0
M  V30 6025 C 564.725 1.92329 -0.321643 0
M  V30 6026 O 563.995 1.84403 0.661232 0
M  V30 6027 H 562.575 0.45094 -0.595535 0
M  V30 6028 H 565.237 0.535046 -1.87412 0
M  V30 6029 H 564.333 1.95783 -2.43054 0
M  V30 6030 N 564.634 1.40294 0.718013 0
M  V30 6031 C 565.564 1.43118 1.84498 0
M  V30 6032 C 566.545 0.292403 1.67568 0
M  V30 6033 O 567.73 0.500675 1.87635 0
M  V30 6034 C 564.86 1.29065 3.22427 0
M  V30 6035 C 563.814 2.40521 3.54025 0
M  V30 6036 C 563.14 2.11546 4.91073 0
M  V30 6037 C 564.44 3.82859 3.55269 0
M  V30 6038 H 566.134 2.37432 1.82391 0
M  V30 6039 H 563.68 1.14283 0.87609 0
M  V30 6040 H 565.633 1.29658 4.00957 0
M  V30 6041 H 564.357 0.312271 3.25104 0
M  V30 6042 H 563.016 2.39173 2.77834 0
M  V30 6043 H 562.664 1.12104 4.90348 0
M  V30 6044 H 562.364 2.86216 5.1318 0
M  V30 6045 H 563.888 2.13817 5.71939 0
M  V30 6046 H 565.302 3.86044 4.23843 0
M  V30 6047 H 563.699 4.57029 3.88902 0
M  V30 6048 H 564.769 4.12617 2.54706 0
M  V30 6049 N 566.112 -0.949982 1.2575 0
M  V30 6050 C 567.059 -2.04738 1.06541 0
M  V30 6051 C 568.029 -1.66078 -0.0268818 0
M  V30 6052 O 569.214 -1.90348 0.131196 0
M  V30 6053 C 566.354 -3.38027 0.695127 0
M  V30 6054 C 565.467 -3.89776 1.86276 0
M  V30 6055 C 564.602 -5.11411 1.4364 0
M  V30 6056 C 563.641 -5.554 2.57287 0
M  V30 6057 N 562.778 -6.68244 2.15395 0
M  V30 6058 H 567.618 -2.20502 2.00457 0
M  V30 6059 H 565.155 -1.0805 0.998178 0
M  V30 6060 H 567.113 -4.14641 0.461375 0
M  V30 6061 H 565.743 -3.22135 -0.207046 0
M  V30 6062 H 564.795 -3.0964 2.20969 0
M  V30 6063 H 566.107 -4.18368 2.71606 0
M  V30 6064 H 565.261 -5.95457 1.16257 0
M  V30 6065 H 564 -4.84545 0.553879 0
M  V30 6066 H 563.005 -4.69916 2.85409 0
M  V30 6067 H 564.23 -5.84272 3.46125 0
M  V30 6068 H 562.176 -6.43078 1.29565 0
M  V30 6069 H 562.093 -6.96377 2.94272 0
M  V30 6070 H 563.361 -7.55687 1.91201 0
M  V30 6071 N 567.59 -1.07411 -1.15328 0
M  V30 6072 C 568.836 -0.798831 -1.86404 0
M  V30 6073 C 569.169 0.673433 -1.8215 0
M  V30 6074 O 568.444 1.49428 -1.24505 0
M  V30 6075 C 568.727 -1.30846 -3.35487 0
M  V30 6076 C 568.58 -2.84532 -3.4837 0
M  V30 6077 C 569.899 -0.925486 -4.30259 0
M  V30 6078 H 567.018 -0.291659 -0.676834 0
M  V30 6079 H 569.66 -1.332 -1.35491 0
M  V30 6080 H 567.81 -0.854916 -3.78977 0
M  V30 6081 H 569.482 -3.3818 -3.13739 0
M  V30 6082 H 567.725 -3.22699 -2.8991 0
M  V30 6083 H 568.396 -3.15259 -4.53118 0
M  V30 6084 H 570.872 -1.3163 -3.94731 0
M  V30 6085 H 569.748 -1.3094 -5.33053 0
M  V30 6086 H 570.009 0.168525 -4.41779 0
M  V30 6087 N 569.068 1.32177 -0.85831 0
M  V30 6088 C 570.314 1.97417 -0.46417 0
M  V30 6089 C 570.647 1.67746 0.978514 0
M  V30 6090 O 569.922 0.967654 1.68721 0
M  V30 6091 C 570.205 3.53069 -0.708094 0
M  V30 6092 C 570.058 3.92357 -2.19946 0
M  V30 6093 C 571.377 4.39783 -0.166881 0
M  V30 6094 H 568.496 0.717097 -0.17012 0
M  V30 6095 H 571.138 1.56499 -1.07741 0
M  V30 6096 H 569.288 3.88054 -0.186128 0
M  V30 6097 H 570.96 3.67533 -2.78779 0
M  V30 6098 H 569.203 3.41384 -2.67656 0
M  V30 6099 H 569.874 5.00841 -2.32082 0
M  V30 6100 H 572.35 4.11556 -0.613285 0
M  V30 6101 H 571.226 5.47671 -0.367093 0
M  V30 6102 H 571.487 4.32196 0.930559 0
M  V30 6103 N 570.547 0.616602 1.45037 0
M  V30 6104 C 571.795 0.115103 2.01772 0
M  V30 6105 C 572.116 -1.2622 1.48639 0
M  V30 6106 O 571.386 -1.83563 0.684199 0
M  V30 6107 H 569.966 0.0395607 0.745952 0
M  V30 6108 H 572.628 0.800032 1.77723 0
M  V30 6109 H 571.724 0.0717274 3.12018 0
M  V30 6110 N 572.025 -1.5352 0.356285 0
M  V30 6111 C 572.935 -2.29151 -0.502712 0
M  V30 6112 C 573.951 -1.34753 -1.1008 0
M  V30 6113 O 575.127 -1.67803 -1.11374 0
M  V30 6114 C 572.192 -3.05911 -1.63154 0
M  V30 6115 C 571.253 -4.15958 -1.06194 0
M  V30 6116 C 570.486 -4.8905 -2.13696 0
M  V30 6117 O 570.709 -4.61919 -3.34645 0
M  V30 6118 O 569.643 -5.75202 -1.77275 0
M  V30 6119 H 573.469 -3.03492 0.112466 0
M  V30 6120 H 571.054 -1.4891 0.120942 0
M  V30 6121 H 572.936 -3.53874 -2.28804 0
M  V30 6122 H 571.611 -2.34415 -2.23229 0
M  V30 6123 H 570.518 -3.7227 -0.369603 0
M  V30 6124 H 571.851 -4.89593 -0.505872 0
M  V30 6125 N 573.503 -0.0852151 -1.57369 0
M  V30 6126 C 574.728 0.592872 -1.98746 0
M  V30 6127 C 575.153 1.61538 -0.963689 0
M  V30 6128 O 574.511 1.81168 0.069071 0
M  V30 6129 C 574.559 1.22599 -3.39119 0
M  V30 6130 O 573.663 2.34185 -3.39457 0
M  V30 6131 H 573.004 0.151314 -0.646529 0
M  V30 6132 H 575.534 -0.163703 -2.03944 0
M  V30 6133 H 575.544 1.56965 -3.76598 0
M  V30 6134 H 574.219 0.476831 -4.13158 0
M  V30 6135 H 572.796 2.01512 -3.13763 0
M  V30 6136 N 574.981 1.5647 0.188427 0
M  V30 6137 C 575.911 1.98101 1.23606 0
M  V30 6138 C 576.892 0.853961 1.47111 0
M  V30 6139 O 578.077 1.11879 1.58735 0
M  V30 6140 C 575.207 2.32624 2.57882 0
M  V30 6141 C 574.161 3.48129 2.48978 0
M  V30 6142 C 573.487 3.68347 3.87588 0
M  V30 6143 C 574.787 4.82112 2.00911 0
M  V30 6144 H 576.481 2.85864 0.890068 0
M  V30 6145 H 574.027 1.37532 0.426714 0
M  V30 6146 H 575.98 2.60343 3.3136 0
M  V30 6147 H 574.704 1.41751 2.94235 0
M  V30 6148 H 573.363 3.20511 1.77956 0
M  V30 6149 H 573.011 2.74793 4.21305 0
M  V30 6150 H 572.711 4.46055 3.82503 0
M  V30 6151 H 574.235 3.98449 4.62678 0
M  V30 6152 H 575.649 5.08819 2.64151 0
M  V30 6153 H 574.046 5.63337 2.06814 0
M  V30 6154 H 575.116 4.75249 0.96262 0
M  V30 6155 N 576.459 -0.456382 1.50847 0
M  V30 6156 C 577.684 -1.2349 1.66628 0
M  V30 6157 C 578.109 -1.84715 0.355254 0
M  V30 6158 O 577.467 -1.67961 -0.682559 0
M  V30 6159 C 577.515 -2.30865 2.77009 0
M  V30 6160 O 576.619 -3.35882 2.39285 0
M  V30 6161 H 575.96 -0.36266 0.556214 0
M  V30 6162 H 578.49 -0.541374 1.97308 0
M  V30 6163 H 578.5 -2.75949 3.00526 0
M  V30 6164 H 577.175 -1.85677 3.72152 0
M  V30 6165 H 575.752 -2.96406 2.26269 0
M  V30 6166 N 577.937 -1.40673 -0.710563 0
M  V30 6167 C 579.348 -1.34975 -1.28991 0
M  V30 6168 C 579.699 -0.0256272 -1.96183 0
M  V30 6169 O 578.824 0.876339 -1.97862 0
M  V30 6170 C 579.419 -2.44467 -2.34567 0
M  V30 6171 C 577.978 -2.42213 -2.88114 0
M  V30 6172 C 577.125 -2.25085 -1.61963 0
M  V30 6173 H 580.076 -1.50406 -0.506343 0
M  V30 6174 H 580.097 -2.12663 -3.15523 0
M  V30 6175 H 579.609 -3.40825 -1.85634 0
M  V30 6176 H 577.71 -1.49568 -3.41263 0
M  V30 6177 H 577.823 -3.37983 -3.39565 0
M  V30 6178 H 576.187 -1.72691 -1.87216 0
M  V30 6179 H 576.97 -3.23449 -1.15047 0
M  V30 6180 N 579.415 0.9433 -1.26252 0
M  V30 6181 C 580.378 2.02326 -1.07689 0
M  V30 6182 C 581.378 1.60779 -0.0259174 0
M  V30 6183 O 582.568 1.72108 -0.269134 0
M  V30 6184 C 579.7 3.34886 -0.63752 0
M  V30 6185 H 580.893 2.20225 -2.0357 0
M  V30 6186 H 578.446 1.12197 -1.08819 0
M  V30 6187 H 579.181 3.22684 0.323377 0
M  V30 6188 H 578.966 3.66393 -1.39637 0
M  V30 6189 H 580.456 4.14231 -0.529418 0
M  V30 6190 N 580.893 1.08022 1.14757 0
M  V30 6191 C 582.14 0.807509 1.85703 0
M  V30 6192 C 582.468 -0.666617 1.8272 0
M  V30 6193 O 581.723 -1.50562 1.25018 0
M  V30 6194 C 582.022 1.26964 3.34088 0
M  V30 6195 C 581.688 2.7509 3.57262 0
M  V30 6196 C 580.35 3.15547 3.63296 0
M  V30 6197 C 582.702 3.70667 3.66409 0
M  V30 6198 C 580.03 4.50384 3.75994 0
M  V30 6199 C 582.382 5.05274 3.80632 0
M  V30 6200 C 581.046 5.45342 3.84913 0
M  V30 6201 H 580.316 0.295488 0.679535 0
M  V30 6202 H 582.963 1.35245 1.35577 0
M  V30 6203 H 581.268 0.644216 3.86467 0
M  V30 6204 H 582.965 1.03544 3.87401 0
M  V30 6205 H 579.555 2.42775 3.53212 0
M  V30 6206 H 583.739 3.40533 3.61041 0
M  V30 6207 H 578.995 4.80886 3.77569 0
M  V30 6208 H 583.169 5.79201 3.86652 0
M  V30 6209 H 580.796 6.49823 3.94505 0
M  V30 6210 N 582.371 -1.3172 0.865308 0
M  V30 6211 C 583.321 -2.26157 0.289305 0
M  V30 6212 C 584.305 -1.50428 -0.570977 0
M  V30 6213 O 585.497 -1.71978 -0.418617 0
M  V30 6214 C 582.626 -3.39457 -0.512237 0
M  V30 6215 C 581.712 -4.22561 0.361028 0
M  V30 6216 N 582.103 -4.84501 1.45231 0
M  V30 6217 C 580.401 -4.45739 0.152641 0
M  V30 6218 C 581.102 -5.46586 1.99043 0
M  V30 6219 N 580.078 -5.28119 1.28809 0
M  V30 6220 H 583.88 -2.71581 1.12344 0
M  V30 6221 H 581.394 -1.45932 0.712565 0
M  V30 6222 H 583.391 -4.06133 -0.941379 0
M  V30 6223 H 582.051 -2.95577 -1.34404 0
M  V30 6224 H 583.062 -4.84293 1.83524 0
M  V30 6225 H 579.739 -4.1251 -0.643583 0
M  V30 6226 H 581.129 -6.05817 2.90577 0
M  V30 6227 N 583.85 -0.624285 -1.44708 0
M  V30 6228 C 584.779 0.0717025 -2.3339 0
M  V30 6229 C 585.76 0.841814 -1.47809 0
M  V30 6230 O 586.946 0.809056 -1.76544 0
M  V30 6231 C 584.076 1.05852 -3.30776 0
M  V30 6232 C 583.029 0.400503 -4.26122 0
M  V30 6233 C 582.356 1.49674 -5.13324 0
M  V30 6234 C 583.656 -0.688924 -5.17737 0
M  V30 6235 H 585.35 -0.668819 -2.91834 0
M  V30 6236 H 582.896 -0.32308 -1.40329 0
M  V30 6237 H 584.849 1.5541 -3.91696 0
M  V30 6238 H 583.572 1.82984 -2.70526 0
M  V30 6239 H 582.231 -0.0743687 -3.66525 0
M  V30 6240 H 581.88 2.25877 -4.49431 0
M  V30 6241 H 581.58 1.06188 -5.77926 0
M  V30 6242 H 583.104 1.99427 -5.77115 0
M  V30 6243 H 584.518 -0.276724 -5.72632 0
M  V30 6244 H 582.915 -1.04652 -5.90904 0
M  V30 6245 H 583.985 -1.55884 -4.5916 0
M  V30 6246 N 585.328 1.53329 -0.364422 0
M  V30 6247 C 586.26 2.23286 0.517293 0
M  V30 6248 C 587.273 1.24657 1.04711 0
M  V30 6249 O 588.462 1.50887 0.95369 0
M  V30 6250 C 585.562 2.91604 1.72685 0
M  V30 6251 C 584.735 4.1673 1.32873 0
M  V30 6252 C 583.794 4.68269 2.40022 0
M  V30 6253 O 582.82 5.31976 2.02461 0
M  V30 6254 N 584.022 4.45983 3.7159 0
M  V30 6255 H 586.787 2.99588 -0.0819391 0
M  V30 6256 H 584.348 1.60787 -0.189544 0
M  V30 6257 H 586.34 3.22992 2.4384 0
M  V30 6258 H 584.91 2.18763 2.23297 0
M  V30 6259 H 584.13 3.91657 0.447069 0
M  V30 6260 H 585.418 4.98078 1.03902 0
M  V30 6261 H 584.816 3.95077 4.04883 0
M  V30 6262 H 583.373 4.81924 4.38854 0
M  V30 6263 N 586.806 0.0935595 1.57322 0
M  V30 6264 C 587.736 -0.863062 2.16964 0
M  V30 6265 C 588.717 -1.29528 1.10256 0
M  V30 6266 O 589.902 -1.36245 1.38387 0
M  V30 6267 C 587.032 -2.12276 2.74875 0
M  V30 6268 C 585.986 -1.82921 3.86942 0
M  V30 6269 C 585.312 -3.15707 4.31548 0
M  V30 6270 C 586.612 -1.11737 5.10208 0
M  V30 6271 H 588.306 -0.366145 2.97153 0
M  V30 6272 H 585.852 -0.174673 1.42937 0
M  V30 6273 H 587.805 -2.79634 3.1525 0
M  V30 6274 H 586.529 -2.64248 1.91938 0
M  V30 6275 H 585.188 -1.17961 3.47103 0
M  V30 6276 H 584.836 -3.65563 3.45504 0
M  V30 6277 H 584.536 -2.96849 5.07104 0
M  V30 6278 H 586.06 -3.84226 4.74555 0
M  V30 6279 H 587.474 -1.69203 5.47762 0
M  V30 6280 H 585.871 -1.03064 5.91183 0
M  V30 6281 H 586.941 -0.0998818 4.84797 0
M  V30 6282 N 588.284 -1.56567 -0.180126 0
M  V30 6283 C 589.194 -1.98947 -1.24327 0
M  V30 6284 C 590.21 -0.899446 -1.4895 0
M  V30 6285 O 591.386 -1.20639 -1.61271 0
M  V30 6286 C 588.451 -2.33328 -2.56435 0
M  V30 6287 C 587.512 -3.56114 -2.39752 0
M  V30 6288 C 586.745 -3.88845 -3.65561 0
M  V30 6289 O 586.968 -3.22662 -4.70368 0
M  V30 6290 O 585.902 -4.82226 -3.60197 0
M  V30 6291 H 589.728 -2.89634 -0.913565 0
M  V30 6292 H 587.313 -1.44319 -0.386306 0
M  V30 6293 H 589.195 -2.5645 -3.34382 0
M  V30 6294 H 587.87 -1.45806 -2.89002 0
M  V30 6295 H 586.777 -3.38221 -1.59866 0
M  V30 6296 H 588.11 -4.4415 -2.12113 0
M  V30 6297 N 589.762 0.448376 -1.51087 0
M  V30 6298 C 590.672 1.56882 -1.74428 0
M  V30 6299 C 591.688 1.62268 -0.62809 0
M  V30 6300 O 592.864 1.79716 -0.909075 0
M  V30 6301 C 589.929 2.92947 -1.85426 0
M  V30 6302 C 588.99 2.97766 -3.09247 0
M  V30 6303 C 588.223 4.27341 -3.19711 0
M  V30 6304 O 588.446 5.19112 -2.36387 0
M  V30 6305 O 587.38 4.38219 -4.12611 0
M  V30 6306 H 591.206 1.40104 -2.69452 0
M  V30 6307 H 588.791 0.630247 -1.35456 0
M  V30 6308 H 590.673 3.73719 -1.94709 0
M  V30 6309 H 589.348 3.09876 -0.935887 0
M  V30 6310 H 588.255 2.15989 -3.0545 0
M  V30 6311 H 589.588 2.8578 -4.00738 0
M  V30 6312 N 591.24 1.41047 0.703093 0
M  V30 6313 C 592.465 1.43537 1.49706 0
M  V30 6314 C 592.89 0.0401853 1.88057 0
M  V30 6315 O 592.248 -0.954785 1.54122 0
M  V30 6316 C 592.296 2.3433 2.74084 0
M  V30 6317 O 591.4 1.79515 3.71279 0
M  V30 6318 H 590.741 0.487454 0.450871 0
M  V30 6319 H 593.271 1.85422 0.86486 0
M  V30 6320 H 593.281 2.49947 3.22476 0
M  V30 6321 H 591.956 3.35708 2.45506 0
M  V30 6322 H 590.533 1.7331 3.30179 0
M  V30 6323 N 592.718 -0.936591 1.26751 0
M  V30 6324 C 593.946 -1.71758 1.15355 0
M  V30 6325 C 594.361 -1.86549 -0.290683 0
M  V30 6326 O 593.718 -1.37616 -1.19868 0
M  V30 6327 C 593.769 -3.12193 1.82258 0
M  V30 6328 O 593.49 -2.98105 3.21038 0
M  V30 6329 C 594.991 -4.06485 1.76875 0
M  V30 6330 H 592.211 -0.537636 0.401483 0
M  V30 6331 H 594.755 -1.17382 1.67457 0
M  V30 6332 H 592.91 -3.63456 1.34083 0
M  V30 6333 H 593.324 -3.86824 3.54214 0
M  V30 6334 H 594.798 -5.02569 2.28316 0
M  V30 6335 H 595.275 -4.32986 0.736216 0
M  V30 6336 H 595.881 -3.61144 2.24623 0
M  V30 6337 N 594.196 -1.08629 -1.14182 0
M  V30 6338 C 595.444 -0.815731 -1.84906 0
M  V30 6339 C 595.765 0.660441 -1.83475 0
M  V30 6340 O 595.035 1.47888 -1.28476 0
M  V30 6341 H 593.615 -0.298773 -0.684648 0
M  V30 6342 H 596.277 -1.37274 -1.38354 0
M  V30 6343 H 595.373 -1.16193 -2.89665 0
M  V30 6344 N 595.674 1.31259 -0.872281 0
M  V30 6345 C 596.899 2.0133 -0.498099 0
M  V30 6346 C 597.324 1.65031 0.902568 0
M  V30 6347 O 596.682 0.860164 1.59596 0
M  V30 6348 C 596.73 3.54411 -0.665205 0
M  V30 6349 O 595.834 4.11347 0.294473 0
M  V30 6350 H 595.175 0.633844 -0.197832 0
M  V30 6351 H 597.705 1.67402 -1.17633 0
M  V30 6352 H 597.715 4.04147 -0.559373 0
M  V30 6353 H 596.39 3.80171 -1.68651 0
M  V30 6354 H 594.967 3.72624 0.143403 0
M  V30 6355 N 597.152 0.631951 1.44375 0
M  V30 6356 C 598.568 0.297642 1.568 0
M  V30 6357 C 598.768 -1.19916 1.61934 0
M  V30 6358 O 597.824 -1.98324 1.56281 0
M  V30 6359 C 599.137 0.990286 2.83926 0
M  V30 6360 C 600.685 0.968507 2.97639 0
M  V30 6361 C 601.16 1.64163 4.27568 0
M  V30 6362 N 602.651 1.60826 4.34384 0
M  V30 6363 C 603.386 2.09802 5.33639 0
M  V30 6364 N 602.882 2.66973 6.39294 0
M  V30 6365 N 604.675 2.00426 5.25153 0
M  V30 6366 H 596.826 1.60353 1.39286 0
M  V30 6367 H 599.089 0.673142 0.667521 0
M  V30 6368 H 598.795 2.04519 2.8612 0
M  V30 6369 H 598.669 0.528563 3.73478 0
M  V30 6370 H 601.056 -0.0779247 2.94997 0
M  V30 6371 H 601.137 1.46873 2.09433 0
M  V30 6372 H 600.781 2.68752 4.3097 0
M  V30 6373 H 600.711 1.11624 5.14634 0
M  V30 6374 H 603.202 1.19087 3.58646 0
M  V30 6375 H 603.515 3.02074 7.11316 0
M  V30 6376 H 601.86 2.71024 6.39977 0
M  V30 6377 H 605.051 1.55483 4.41523 0
M  V30 6378 H 605.224 2.38906 6.02352 0
M  V30 6379 N 598.631 -1.53133 0.372548 0
M  V30 6380 C 599.541 -2.29671 -0.478379 0
M  V30 6381 C 600.557 -1.35913 -1.08644 0
M  V30 6382 O 601.733 -1.68975 -1.09588 0
M  V30 6383 C 598.798 -3.07625 -1.599 0
M  V30 6384 C 597.859 -4.17061 -1.01776 0
M  V30 6385 C 597.092 -4.91289 -2.08497 0
M  V30 6386 O 597.315 -4.65442 -3.29727 0
M  V30 6387 O 596.249 -5.7705 -1.71164 0
M  V30 6388 H 600.075 -3.03355 0.144649 0
M  V30 6389 H 597.66 -1.48773 0.136729 0
M  V30 6390 H 599.542 -3.56281 -2.25038 0
M  V30 6391 H 598.217 -2.3677 -2.2073 0
M  V30 6392 H 597.124 -3.72641 -0.330098 0
M  V30 6393 H 598.457 -4.90102 -0.453915 0
M  V30 6394 N 600.109 -0.101901 -1.5727 0
M  V30 6395 C 601.041 0.884723 -2.11436 0
M  V30 6396 C 602.054 1.24149 -1.05314 0
M  V30 6397 O 603.243 1.19341 -1.3274 0
M  V30 6398 C 600.343 2.19179 -2.58484 0
M  V30 6399 C 599.516 2.00933 -3.88516 0
M  V30 6400 C 598.575 3.15213 -4.2134 0
M  V30 6401 O 597.601 2.88877 -4.90448 0
M  V30 6402 N 598.803 4.41174 -3.77288 0
M  V30 6403 H 601.568 0.422058 -2.96713 0
M  V30 6404 H 599.129 0.0830128 -1.61687 0
M  V30 6405 H 601.121 2.94593 -2.77484 0
M  V30 6406 H 599.691 2.56847 -1.7818 0
M  V30 6407 H 598.911 1.09809 -3.78597 0
M  V30 6408 H 600.199 1.86026 -4.73573 0
M  V30 6409 H 599.597 4.6545 -3.21516 0
M  V30 6410 H 598.154 5.13515 -4.01429 0
M  V30 6411 N 601.587 1.56661 0.17182 0
M  V30 6412 C 602.864 1.72838 0.915778 0
M  V30 6413 C 603.244 0.66316 2.00413 0
M  V30 6414 O 602.592 -0.322123 2.26218 0
M  V30 6415 C 602.802 3.16019 1.48097 0
M  V30 6416 C 604.15 3.76962 1.95408 0
M  V30 6417 O 605.174 3.19294 1.57892 0
M  V30 6418 O 604.033 4.78219 2.64516 0
M  V30 6419 H 601.127 0.705797 0.431021 0
M  V30 6420 H 603.673 1.68947 0.159689 0
M  V30 6421 H 602.445 3.85031 0.697618 0
M  V30 6422 H 602.068 3.24234 2.30126 0
M  V30 6423 N 603.065 -0.440357 1.51323 0
M  V30 6424 C 604.311 -1.19181 1.64085 0
M  V30 6425 C 604.644 -1.90936 0.354575 0
M  V30 6426 O 603.919 -1.8347 -0.645675 0
M  V30 6427 C 604.202 -2.2112 2.84215 0
M  V30 6428 C 604.055 -1.53468 4.22809 0
M  V30 6429 C 605.374 -3.22133 2.99864 0
M  V30 6430 H 602.493 -0.431924 0.597169 0
M  V30 6431 H 605.135 -0.481443 1.83799 0
M  V30 6432 H 603.285 -2.81703 2.67537 0
M  V30 6433 H 604.957 -0.962455 4.51148 0
M  V30 6434 H 603.2 -0.837086 4.25647 0
M  V30 6435 H 603.871 -2.27694 5.02852 0
M  V30 6436 H 606.347 -2.71601 3.15233 0
M  V30 6437 H 605.223 -3.90756 3.85488 0
M  V30 6438 H 605.484 -3.88061 2.11804 0
M  V30 6439 N 604.543 -1.41418 -0.695603 0
M  V30 6440 C 605.959 -1.23887 -1.00619 0
M  V30 6441 C 606.159 -0.128206 -2.01092 0
M  V30 6442 O 605.215 0.507408 -2.47349 0
M  V30 6443 C 606.528 -2.58816 -1.53083 0
M  V30 6444 C 608.076 -2.65998 -1.64967 0
M  V30 6445 C 608.551 -4.01244 -2.20833 0
M  V30 6446 N 610.042 -4.0309 -2.28194 0
M  V30 6447 C 610.777 -5.04539 -2.72448 0
M  V30 6448 N 610.273 -6.16378 -3.16306 0
M  V30 6449 N 612.066 -4.91901 -2.72011 0
M  V30 6450 H 604.217 -2.12379 -0.0300061 0
M  V30 6451 H 606.48 -0.944958 -0.0758797 0
M  V30 6452 H 606.186 -3.40842 -0.867147 0
M  V30 6453 H 606.06 -2.81299 -2.51298 0
M  V30 6454 H 608.447 -1.84331 -2.30448 0
M  V30 6455 H 608.528 -2.47325 -0.652982 0
M  V30 6456 H 608.172 -4.83359 -1.55968 0
M  V30 6457 H 608.102 -4.17257 -3.21254 0
M  V30 6458 H 610.593 -3.22341 -1.97242 0
M  V30 6459 H 610.906 -6.89658 -3.487 0
M  V30 6460 H 609.251 -6.19914 -3.14215 0
M  V30 6461 H 612.442 -4.03613 -2.37095 0
M  V30 6462 H 612.615 -5.71102 -3.06181 0
M  V30 6463 N 606.021 0.929856 -1.27246 0
M  V30 6464 C 606.951 2.04722 -1.12299 0
M  V30 6465 C 607.932 1.70082 -0.0250464 0
M  V30 6466 O 609.117 1.93176 -0.199141 0
M  V30 6467 C 606.247 3.38721 -0.767145 0
M  V30 6468 C 605.201 3.87466 -1.81808 0
M  V30 6469 C 604.527 5.18246 -1.31626 0
M  V30 6470 C 605.827 4.11095 -3.22177 0
M  V30 6471 H 607.521 2.17485 -2.05769 0
M  V30 6472 H 605.067 1.04503 -0.990715 0
M  V30 6473 H 607.02 4.16366 -0.649413 0
M  V30 6474 H 605.744 3.25967 0.203259 0
M  V30 6475 H 604.403 3.12012 -1.92468 0
M  V30 6476 H 604.051 5.01881 -0.335378 0
M  V30 6477 H 603.751 5.51829 -2.01887 0
M  V30 6478 H 605.275 5.98462 -1.21143 0
M  V30 6479 H 606.689 4.79316 -3.1453 0
M  V30 6480 H 605.086 4.55982 -3.90129 0
M  V30 6481 H 606.156 3.16468 -3.67391 0
M  V30 6482 N 607.499 1.09233 1.13605 0
M  V30 6483 C 608.429 0.751738 2.21068 0
M  V30 6484 C 609.41 -0.269688 1.67948 0
M  V30 6485 O 610.595 -0.13819 1.93708 0
M  V30 6486 C 607.725 0.16935 3.46887 0
M  V30 6487 C 606.679 1.12007 4.13084 0
M  V30 6488 C 606.005 0.399483 5.33206 0
M  V30 6489 C 607.305 2.46168 4.6065 0
M  V30 6490 H 608.999 1.65024 2.49815 0
M  V30 6491 H 606.545 0.794905 1.20072 0
M  V30 6492 H 608.498 -0.0809824 4.21322 0
M  V30 6493 H 607.222 -0.764335 3.1753 0
M  V30 6494 H 605.881 1.35564 3.40614 0
M  V30 6495 H 605.529 -0.538277 5.00112 0
M  V30 6496 H 605.229 1.03337 5.78442 0
M  V30 6497 H 606.753 0.157403 6.10397 0
M  V30 6498 H 608.167 2.26829 5.26518 0
M  V30 6499 H 606.564 3.05326 5.1662 0
M  V30 6500 H 607.634 3.07076 3.75276 0
M  V30 6501 N 608.977 -1.30795 0.87923 0
M  V30 6502 C 609.909 -2.27241 0.299025 0
M  V30 6503 C 610.922 -1.53472 -0.543166 0
M  V30 6504 O 612.111 -1.74756 -0.363651 0
M  V30 6505 C 609.211 -3.33655 -0.593931 0
M  V30 6506 C 608.384 -4.36857 0.2179 0
M  V30 6507 C 607.443 -5.22715 -0.604646 0
M  V30 6508 O 606.469 -5.69192 -0.0293838 0
M  V30 6509 N 607.671 -5.48008 -1.91488 0
M  V30 6510 H 610.436 -2.77667 1.12788 0
M  V30 6511 H 607.997 -1.43914 0.741637 0
M  V30 6512 H 609.989 -3.88013 -1.15012 0
M  V30 6513 H 608.559 -2.83202 -1.32346 0
M  V30 6514 H 607.779 -3.82444 0.955536 0
M  V30 6515 H 609.067 -5.02869 0.774614 0
M  V30 6516 H 608.465 -5.1202 -2.40525 0
M  V30 6517 H 607.022 -6.05264 -2.41864 0
M  V30 6518 N 610.455 -0.639598 -1.44038 0
M  V30 6519 C 611.365 0.0612377 -2.3452 0
M  V30 6520 C 612.381 0.826717 -1.53106 0
M  V30 6521 O 613.557 0.777059 -1.85806 0
M  V30 6522 C 610.622 1.02492 -3.31204 0
M  V30 6523 C 609.683 0.25788 -4.28525 0
M  V30 6524 C 608.916 1.17566 -5.2059 0
M  V30 6525 O 609.139 2.41461 -5.16771 0
M  V30 6526 O 608.073 0.655407 -5.98321 0
M  V30 6527 H 611.899 -0.68318 -2.95916 0
M  V30 6528 H 609.484 -0.399784 -1.43952 0
M  V30 6529 H 611.366 1.57911 -3.90694 0
M  V30 6530 H 610.041 1.7498 -2.7233 0
M  V30 6531 H 608.948 -0.339566 -3.72556 0
M  V30 6532 H 610.281 -0.427154 -4.90343 0
M  V30 6533 N 611.933 1.52934 -0.380664 0
M  V30 6534 C 613.182 2.00651 0.205477 0
M  V30 6535 C 613.495 1.27164 1.48623 0
M  V30 6536 O 614.701 1.65547 2.15189 0
M  V30 6537 C 613.157 3.57479 0.416726 0
M  V30 6538 C 612.765 4.39857 -0.850268 0
M  V30 6539 C 614.509 4.13509 0.959702 0
M  V30 6540 C 612.416 5.88269 -0.607773 0
M  V30 6541 H 611.346 0.749684 0.0805614 0
M  V30 6542 H 613.997 1.76508 -0.501732 0
M  V30 6543 H 612.379 3.77836 1.18557 0
M  V30 6544 H 613.553 4.31269 -1.62307 0
M  V30 6545 H 611.868 3.95005 -1.31756 0
M  V30 6546 H 614.465 5.22039 1.15669 0
M  V30 6547 H 614.808 3.69054 1.92626 0
M  V30 6548 H 615.341 3.9701 0.250645 0
M  V30 6549 H 612.08 6.3703 -1.54509 0
M  V30 6550 H 611.6 5.99667 0.126247 0
M  V30 6551 H 613.279 6.46558 -0.239014 0
M  V30 6552 N 613.412 0.11024 1.57214 0
M  V30 6553 C 614.658 -0.550684 1.9518 0
M  V30 6554 C 614.991 -1.66885 0.993122 0
M  V30 6555 O 614.266 -1.94479 0.0287907 0
M  V30 6556 C 614.549 -1.09163 3.43155 0
M  V30 6557 C 614.402 0.0225198 4.49794 0
M  V30 6558 C 615.721 -1.98527 3.92778 0
M  V30 6559 H 612.84 -0.198706 0.709708 0
M  V30 6560 H 615.482 0.184024 1.89107 0
M  V30 6561 H 613.632 -1.71775 3.48462 0
M  V30 6562 H 615.304 0.657443 4.56591 0
M  V30 6563 H 613.547 0.686868 4.28328 0
M  V30 6564 H 614.218 -0.39706 5.5057 0
M  V30 6565 H 616.694 -1.458 3.8972 0
M  V30 6566 H 615.57 -2.33298 4.96853 0
M  V30 6567 H 615.831 -2.90846 3.32958 0
M  V30 6568 N 614.89 -1.56749 -0.16351 0
M  V30 6569 C 616.167 -1.73321 -0.906599 0
M  V30 6570 C 616.547 -0.673779 -2.00059 0
M  V30 6571 O 615.895 0.310121 -2.26386 0
M  V30 6572 C 616.105 -3.168 -1.46419 0
M  V30 6573 C 617.453 -3.77993 -1.93407 0
M  V30 6574 O 618.477 -3.20127 -1.56196 0
M  V30 6575 O 617.336 -4.79615 -2.61976 0
M  V30 6576 H 614.43 -0.708073 -0.427272 0
M  V30 6577 H 616.976 -1.69029 -0.150727 0
M  V30 6578 H 615.748 -3.85396 -0.677189 0
M  V30 6579 H 615.371 -3.2545 -2.28403 0
M  V30 6580 N 616.368 0.432326 -1.51554 0
M  V30 6581 C 617.3 1.54357 -1.6943 0
M  V30 6582 C 618.313 1.52311 -0.574897 0
M  V30 6583 O 619.502 1.56997 -0.849369 0
M  V30 6584 C 616.602 2.93273 -1.69836 0
M  V30 6585 C 615.775 3.19768 -2.98442 0
M  V30 6586 C 614.834 4.38433 -2.90969 0
M  V30 6587 O 613.86 4.36842 -3.64908 0
M  V30 6588 N 615.062 5.42276 -2.07163 0
M  V30 6589 H 617.827 1.39426 -2.65293 0
M  V30 6590 H 615.388 0.621331 -1.49503 0
M  V30 6591 H 617.38 3.70687 -1.62399 0
M  V30 6592 H 615.95 3.01777 -0.815456 0
M  V30 6593 H 615.17 2.30607 -3.19709 0
M  V30 6594 H 616.458 3.343 -3.83563 0
M  V30 6595 H 615.856 5.46407 -1.46477 0
M  V30 6596 H 614.413 6.18524 -2.05601 0
M  V30 6597 N 617.846 1.41785 0.688094 0
M  V30 6598 C 619.086 1.43018 1.46032 0
M  V30 6599 C 619.45 0.0402632 1.91958 0
M  V30 6600 O 620.651 -0.0726425 2.68702 0
M  V30 6601 C 618.922 2.4151 2.63453 0
M  V30 6602 S 620.481 2.61335 3.5249 0
M  V30 6603 H 617.299 0.506546 0.498931 0
M  V30 6604 H 619.901 1.78283 0.80221 0
M  V30 6605 H 618.605 3.41286 2.27929 0
M  V30 6606 H 618.136 2.07624 3.34149 0
M  V30 6607 H 620.151 1.88637 4.58945 0
M  V30 6608 N 619.324 -0.923095 1.27737 0
M  V30 6609 C 620.257 -2.02515 1.05181 0
M  V30 6610 C 621.235 -1.62574 -0.0292204 0
M  V30 6611 O 622.419 -1.88137 0.116848 0
M  V30 6612 C 619.546 -3.33407 0.596468 0
M  V30 6613 C 618.592 -3.92328 1.67276 0
M  V30 6614 S 619.425 -4.24342 3.26641 0
M  V30 6615 C 620.581 -5.58308 2.82919 0
M  V30 6616 H 620.814 -2.21336 1.98488 0
M  V30 6617 H 618.347 -1.06679 1.1162 0
M  V30 6618 H 620.305 -4.09086 0.34044 0
M  V30 6619 H 618.966 -3.125 -0.316614 0
M  V30 6620 H 618.159 -4.86797 1.30556 0
M  V30 6621 H 617.761 -3.2325 1.8811 0
M  V30 6622 H 620.053 -6.37801 2.28509 0
M  V30 6623 H 620.996 -5.99931 3.7615 0
M  V30 6624 H 621.404 -5.19049 2.21919 0
M  V30 6625 N 620.802 -1.09834 -1.13024 0
M  V30 6626 C 621.75 -0.736283 -2.20639 0
M  V30 6627 C 622.744 0.264725 -1.67319 0
M  V30 6628 O 623.95 0.125745 -1.7956 0
M  V30 6629 H 620.325 -0.220136 -0.719058 0
M  V30 6630 H 622.296 -1.65295 -2.48436 0
M  V30 6631 C 621.045 -0.177544 -3.47246 0
M  V30 6632 H 620.368 -0.939009 -3.88616 0
M  V30 6633 H 621.808 0.0378007 -4.23983 0
M  V30 6634 C 620.267 1.08824 -3.1884 0
M  V30 6635 O 620.797 2.1708 -3.37993 0
M  V30 6636 N 619.003 1.00442 -2.7269 0
M  V30 6637 H 618.55 0.123383 -2.57304 0
M  V30 6638 H 618.508 1.85206 -2.5406 0
M  V30 6639 N 622.28 1.30327 -0.886154 0
M  V30 6640 C 623.696 1.48676 -0.580323 0
M  V30 6641 C 623.896 1.81189 0.881639 0
M  V30 6642 O 622.952 1.90021 1.66278 0
M  V30 6643 C 624.265 2.60932 -1.49449 0
M  V30 6644 C 625.813 2.74812 -1.49824 0
M  V30 6645 C 626.288 3.90183 -2.39836 0
M  V30 6646 N 627.779 3.97495 -2.37806 0
M  V30 6647 C 628.514 4.86078 -3.04165 0
M  V30 6648 N 628.01 5.79448 -3.79753 0
M  V30 6649 N 629.803 4.79456 -2.93391 0
M  V30 6650 H 621.954 1.07495 -1.8319 0
M  V30 6651 H 624.217 0.532661 -0.784204 0
M  V30 6652 H 623.923 2.43731 -2.5355 0
M  V30 6653 H 623.797 3.57437 -1.20494 0
M  V30 6654 H 626.184 2.91418 -0.464731 0
M  V30 6655 H 626.265 1.78924 -1.82811 0
M  V30 6656 H 625.909 3.74334 -3.43273 0
M  V30 6657 H 625.839 4.85411 -2.04166 0
M  V30 6658 H 628.33 3.30703 -1.82877 0
M  V30 6659 H 628.643 6.43805 -4.27475 0
M  V30 6660 H 626.988 5.79376 -3.8386 0
M  V30 6661 H 630.179 4.05494 -2.33864 0
M  V30 6662 H 630.352 5.48283 -3.45383 0
M  V30 6663 N 623.758 0.647228 1.43697 0
M  V30 6664 C 624.983 0.164083 2.0675 0
M  V30 6665 C 625.408 -1.15892 1.48158 0
M  V30 6666 O 624.766 -1.71459 0.589194 0
M  V30 6667 C 624.814 0.0800368 3.60511 0
M  V30 6668 O 623.918 -0.959453 4.01084 0
M  V30 6669 H 623.259 0.0921288 0.657578 0
M  V30 6670 H 625.789 0.88846 1.84303 0
M  V30 6671 H 625.799 -0.105263 4.07864 0
M  V30 6672 H 624.474 1.04586 4.02535 0
M  V30 6673 H 623.051 -0.747425 3.65333 0
M  V30 6674 N 625.236 -1.5273 0.388769 0
M  V30 6675 C 626.485 -2.00757 -0.194833 0
M  V30 6676 C 626.798 -1.27951 -1.47946 0
M  V30 6677 O 628.004 -1.66686 -2.14308 0
M  V30 6678 C 626.46 -3.57695 -0.397762 0
M  V30 6679 C 626.068 -4.394 0.873583 0
M  V30 6680 C 627.812 -4.14012 -0.937759 0
M  V30 6681 C 625.719 -5.87938 0.638962 0
M  V30 6682 H 624.649 -0.750101 -0.0765845 0
M  V30 6683 H 627.3 -1.76239 0.511086 0
M  V30 6684 H 625.682 -3.7846 -1.16552 0
M  V30 6685 H 626.856 -4.30403 1.64591 0
M  V30 6686 H 625.171 -3.94301 1.33849 0
M  V30 6687 H 627.768 -5.22645 -1.12899 0
M  V30 6688 H 628.111 -3.7007 -1.90666 0
M  V30 6689 H 628.644 -3.97137 -0.229588 0
M  V30 6690 H 625.383 -6.36202 1.57885 0
M  V30 6691 H 624.903 -5.99726 -0.094443 0
M  V30 6692 H 626.582 -6.46423 0.273299 0
M  V30 6693 N 626.714 -0.118576 -1.57153 0
M  V30 6694 C 627.677 0.817464 -2.14127 0
M  V30 6695 C 628.677 1.1949 -1.07604 0
M  V30 6696 O 629.867 1.12048 -1.33382 0
M  V30 6697 C 626.999 2.10541 -2.68115 0
M  V30 6698 H 628.192 0.322339 -2.98163 0
M  V30 6699 H 625.745 0.130655 -1.55753 0
M  V30 6700 H 626.48 2.64485 -1.87665 0
M  V30 6701 H 626.265 1.84425 -3.4602 0
M  V30 6702 H 627.755 2.77453 -3.12105 0
M  V30 6703 N 628.193 1.56834 0.155195 0
M  V30 6704 C 629.123 2.00678 1.19376 0
M  V30 6705 C 630.104 0.884973 1.45266 0
M  V30 6706 O 631.289 1.1522 1.56326 0
M  V30 6707 C 628.419 2.38042 2.5289 0
M  V30 6708 C 627.373 3.53332 2.41538 0
M  V30 6709 C 626.699 3.76485 3.79688 0
M  V30 6710 C 627.999 4.86265 1.9064 0
M  V30 6711 H 629.693 2.87688 0.829232 0
M  V30 6712 H 627.239 1.38407 0.397445 0
M  V30 6713 H 629.192 2.67314 3.25763 0
M  V30 6714 H 627.916 1.4796 2.91162 0
M  V30 6715 H 626.575 3.24213 1.71117 0
M  V30 6716 H 626.223 2.83667 4.15382 0
M  V30 6717 H 625.923 4.54068 3.72956 0
M  V30 6718 H 627.447 4.08174 4.54122 0
M  V30 6719 H 628.861 5.14308 2.53299 0
M  V30 6720 H 627.258 5.67597 1.94818 0
M  V30 6721 H 628.328 4.77184 0.861596 0
M  V30 6722 N 629.671 -0.424282 1.51781 0
M  V30 6723 C 630.899 -1.1947 1.68921 0
M  V30 6724 C 631.314 -1.84683 0.39213 0
M  V30 6725 O 630.671 -1.71261 -0.630554 0
M  V30 6726 C 630.722 -2.26909 2.81416 0
M  V30 6727 O 630.443 -1.64361 4.061 0
M  V30 6728 C 631.944 -3.16945 3.09937 0
M  V30 6729 H 629.164 -0.359591 0.566511 0
M  V30 6730 H 631.708 -0.501139 1.98265 0
M  V30 6731 H 629.863 -2.91959 2.54635 0
M  V30 6732 H 630.277 -2.35468 4.68674 0
M  V30 6733 H 631.751 -3.88437 3.922 0
M  V30 6734 H 632.228 -3.78451 2.22871 0
M  V30 6735 H 632.834 -2.57581 3.38426 0
M  V30 6736 N 631.149 -1.42148 -0.680565 0
M  V30 6737 C 632.081 -1.41119 -1.80605 0
M  V30 6738 C 633.094 -0.311099 -1.598 0
M  V30 6739 O 634.283 -0.573813 -1.69026 0
M  V30 6740 C 631.383 -1.18204 -3.17618 0
M  V30 6741 C 630.556 -2.40537 -3.65322 0
M  V30 6742 C 629.615 -2.13254 -4.8105 0
M  V30 6743 O 628.641 -2.8641 -4.91892 0
M  V30 6744 N 629.843 -1.13208 -5.69354 0
M  V30 6745 H 632.608 -2.38128 -1.81975 0
M  V30 6746 H 630.169 -1.36953 -0.863446 0
M  V30 6747 H 632.161 -0.97878 -3.92686 0
M  V30 6748 H 630.731 -0.29738 -3.11182 0
M  V30 6749 H 629.951 -2.76468 -2.80996 0
M  V30 6750 H 631.239 -3.22012 -3.93936 0
M  V30 6751 H 630.637 -0.526893 -5.63241 0
M  V30 6752 H 629.194 -0.988699 -6.44258 0
M  V30 6753 N 632.627 0.916307 -1.28225 0
M  V30 6754 C 633.59 1.99996 -1.11957 0
M  V30 6755 C 634.59 1.60688 -0.0600152 0
M  V30 6756 O 635.78 1.71499 -0.30558 0
M  V30 6757 C 632.912 3.33458 -0.708411 0
M  V30 6758 H 634.105 2.15858 -2.08196 0
M  V30 6759 H 631.658 1.09863 -1.11175 0
M  V30 6760 H 632.393 3.23297 0.254859 0
M  V30 6761 H 632.178 3.63349 -1.47377 0
M  V30 6762 H 633.668 4.13014 -0.617164 0
M  V30 6763 N 634.105 1.10431 1.1244 0
M  V30 6764 C 635.521 0.836096 1.35947 0
M  V30 6765 C 635.721 -0.544475 1.94004 0
M  V30 6766 O 634.777 -1.29735 2.16622 0
M  V30 6767 C 636.09 1.93575 2.30107 0
M  V30 6768 C 637.638 1.9642 2.43697 0
M  V30 6769 C 638.113 3.05559 3.41171 0
M  V30 6770 N 639.604 3.04865 3.48728 0
M  V30 6771 C 640.339 3.85954 4.24061 0
M  V30 6772 N 639.835 4.76977 5.02458 0
M  V30 6773 N 641.628 3.74172 4.19466 0
M  V30 6774 H 633.779 1.9942 0.731124 0
M  V30 6775 H 636.042 0.866607 0.384312 0
M  V30 6776 H 635.748 2.92943 1.94621 0
M  V30 6777 H 635.622 1.8229 3.30227 0
M  V30 6778 H 638.009 0.97685 2.78463 0
M  V30 6779 H 638.09 2.11782 1.43465 0
M  V30 6780 H 637.734 4.04513 3.07135 0
M  V30 6781 H 637.664 2.87438 4.41234 0
M  V30 6782 H 640.155 2.38908 2.92799 0
M  V30 6783 H 640.468 5.35409 5.57277 0
M  V30 6784 H 638.813 4.81006 5.01655 0
M  V30 6785 H 642.004 3.02412 3.57302 0
M  V30 6786 H 642.177 4.37602 4.77921 0
M  V30 6787 N 635.583 -1.29855 0.893053 0
M  V30 6788 C 636.813 -1.99686 0.530019 0
M  V30 6789 C 637.221 -1.67066 -0.888012 0
M  V30 6790 O 636.564 -0.908366 -1.5967 0
M  V30 6791 C 636.626 -3.53855 0.63457 0
M  V30 6792 C 636.29 -4.10013 2.01837 0
M  V30 6793 C 637.287 -4.25406 2.98874 0
M  V30 6794 C 634.972 -4.45202 2.32595 0
M  V30 6795 C 636.966 -4.7521 4.24799 0
M  V30 6796 C 634.653 -4.94704 3.58763 0
M  V30 6797 C 635.651 -5.09662 4.5468 0
M  V30 6798 O 635.339 -5.58093 5.78608 0
M  V30 6799 H 635.071 -0.644913 0.20264 0
M  V30 6800 H 637.625 -1.66518 1.20253 0
M  V30 6801 H 635.855 -3.86583 -0.0949477 0
M  V30 6802 H 637.544 -4.04922 0.281648 0
M  V30 6803 H 638.31 -3.98515 2.76425 0
M  V30 6804 H 634.189 -4.32822 1.58701 0
M  V30 6805 H 637.733 -4.86801 4.99671 0
M  V30 6806 H 633.63 -5.21032 3.81046 0
M  V30 6807 H 634.398 -5.7642 5.81104 0
M  V30 6808 N 637.061 -0.65484 -1.43351 0
M  V30 6809 C 637.991 0.0221809 -2.33489 0
M  V30 6810 C 638.972 0.810272 -1.49561 0
M  V30 6811 O 640.157 0.771426 -1.78221 0
M  V30 6812 C 637.287 0.988117 -3.32947 0
M  V30 6813 C 636.241 0.310026 -4.26876 0
M  V30 6814 C 635.567 1.38752 -5.16384 0
M  V30 6815 C 636.867 -0.798589 -5.16159 0
M  V30 6816 H 638.561 -0.730571 -2.9035 0
M  V30 6817 H 636.107 -0.352773 -1.39612 0
M  V30 6818 H 638.06 1.47067 -3.94904 0
M  V30 6819 H 636.784 1.77205 -2.74346 0
M  V30 6820 H 635.443 -0.152097 -3.66284 0
M  V30 6821 H 635.091 2.16293 -4.54121 0
M  V30 6822 H 634.791 0.939051 -5.80048 0
M  V30 6823 H 636.315 1.87141 -5.81215 0
M  V30 6824 H 637.729 -0.398126 -5.71916 0
M  V30 6825 H 636.126 -1.17163 -5.88552 0
M  V30 6826 H 637.196 -1.65588 -4.55751 0
M  V30 6827 N 638.539 1.52521 -0.396863 0
M  V30 6828 C 639.449 2.30403 0.44178 0
M  V30 6829 C 640.465 1.37625 1.06468 0
M  V30 6830 O 641.641 1.70697 1.06886 0
M  V30 6831 C 638.706 3.1013 1.54986 0
M  V30 6832 C 637.767 4.18628 0.951279 0
M  V30 6833 C 637 4.94543 2.00655 0
M  V30 6834 O 637.223 4.70629 3.22281 0
M  V30 6835 O 636.157 5.797 1.61962 0
M  V30 6836 H 639.983 3.03087 -0.192892 0
M  V30 6837 H 637.568 1.48537 -0.16038 0
M  V30 6838 H 639.45 3.59816 2.19341 0
M  V30 6839 H 638.125 2.40251 2.16935 0
M  V30 6840 H 637.032 3.73119 0.270773 0
M  V30 6841 H 638.365 4.90763 0.375887 0
M  V30 6842 N 640.017 0.126909 1.57088 0
M  V30 6843 C 640.964 -0.82036 2.15728 0
M  V30 6844 C 641.934 -1.25811 1.08447 0
M  V30 6845 O 643.119 -1.33422 1.36393 0
M  V30 6846 C 640.259 -2.06199 2.76724 0
M  V30 6847 C 639.372 -1.67188 3.98337 0
M  V30 6848 C 638.507 -2.86378 4.47393 0
M  V30 6849 C 637.546 -2.43644 5.61519 0
M  V30 6850 N 636.683 -3.55775 6.05284 0
M  V30 6851 H 641.523 -0.313472 2.96347 0
M  V30 6852 H 639.06 -0.14303 1.46403 0
M  V30 6853 H 641.018 -2.78959 3.10222 0
M  V30 6854 H 639.648 -2.54333 1.98782 0
M  V30 6855 H 638.7 -0.842714 3.70948 0
M  V30 6856 H 640.012 -1.31789 4.81075 0
M  V30 6857 H 639.166 -3.67353 4.82842 0
M  V30 6858 H 637.905 -3.25009 3.63621 0
M  V30 6859 H 636.91 -1.61104 5.25667 0
M  V30 6860 H 638.135 -2.06122 6.47063 0
M  V30 6861 H 636.081 -3.94065 5.24451 0
M  V30 6862 H 635.998 -3.24325 6.82898 0
M  V30 6863 H 637.266 -4.37166 6.45373 0
M  V30 6864 N 641.495 -1.56914 -0.146875 0
M  V30 6865 C 642.405 -2.0154 -1.20079 0
M  V30 6866 C 643.421 -0.930838 -1.47008 0
M  V30 6867 O 644.597 -1.24032 -1.58676 0
M  V30 6868 C 641.662 -2.38715 -2.51428 0
M  V30 6869 C 640.723 -3.6112 -2.32145 0
M  V30 6870 C 639.956 -3.96512 -3.57231 0
M  V30 6871 O 640.179 -3.32566 -4.63418 0
M  V30 6872 O 639.113 -4.89758 -3.49887 0
M  V30 6873 H 642.939 -2.91506 -0.851924 0
M  V30 6874 H 640.524 -1.45106 -0.355607 0
M  V30 6875 H 642.406 -2.63485 -3.28867 0
M  V30 6876 H 641.081 -1.51903 -2.85845 0
M  V30 6877 H 639.988 -3.41536 -1.52656 0
M  V30 6878 H 641.321 -4.48549 -2.02644 0
M  V30 6879 N 642.974 0.416227 -1.52004 0
M  V30 6880 C 643.884 1.53147 -1.77717 0
M  V30 6881 C 644.9 1.609 -0.662368 0
M  V30 6882 O 646.076 1.77747 -0.946991 0
M  V30 6883 C 643.141 2.88948 -1.91598 0
M  V30 6884 C 642.202 2.9114 -3.15493 0
M  V30 6885 C 641.435 4.20464 -3.28703 0
M  V30 6886 O 641.658 5.13981 -2.47345 0
M  V30 6887 O 640.592 4.29368 -4.21813 0
M  V30 6888 H 644.418 1.34357 -2.72363 0
M  V30 6889 H 642.003 0.601373 -1.36762 0
M  V30 6890 H 643.885 3.69505 -2.02593 0
M  V30 6891 H 642.56 3.07821 -1.00141 0
M  V30 6892 H 641.467 2.09461 -3.09962 0
M  V30 6893 H 642.8 2.77216 -4.06709 0
M  V30 6894 N 644.452 1.42507 0.673017 0
M  V30 6895 C 645.399 1.46124 1.78651 0
M  V30 6896 C 646.369 0.313007 1.63124 0
M  V30 6897 O 647.554 0.517337 1.83653 0
M  V30 6898 C 644.694 1.3711 3.16694 0
M  V30 6899 C 643.807 2.61983 3.43495 0
M  V30 6900 C 642.942 2.45098 4.71275 0
M  V30 6901 C 641.981 3.65336 4.91117 0
M  V30 6902 N 641.118 3.47383 6.10139 0
M  V30 6903 H 645.958 2.4128 1.74895 0
M  V30 6904 H 643.495 1.19788 0.853766 0
M  V30 6905 H 645.453 1.29881 3.96468 0
M  V30 6906 H 644.083 0.45549 3.1957 0
M  V30 6907 H 643.135 2.79571 2.57961 0
M  V30 6908 H 644.447 3.51355 3.5405 0
M  V30 6909 H 643.601 2.35466 5.59143 0
M  V30 6910 H 642.34 1.53219 4.63007 0
M  V30 6911 H 641.345 3.754 4.0169 0
M  V30 6912 H 642.57 4.58199 5.01229 0
M  V30 6913 H 640.516 2.58222 6.0304 0
M  V30 6914 H 640.433 4.30344 6.21563 0
M  V30 6915 H 641.701 3.41565 7.00681 0
M  V30 6916 N 645.93 -0.909495 1.28709 0
M  V30 6917 C 647.17 -1.67344 1.17368 0
M  V30 6918 C 647.534 -1.90058 -0.272419 0
M  V30 6919 O 648.735 -2.63944 -0.508617 0
M  V30 6920 C 647.006 -2.99219 1.95455 0
M  V30 6921 S 648.565 -3.90295 2.00538 0
M  V30 6922 H 645.383 -0.57466 0.418672 0
M  V30 6923 H 647.985 -1.08144 1.62865 0
M  V30 6924 H 646.689 -2.80393 2.9968 0
M  V30 6925 H 646.22 -3.63464 1.50524 0
M  V30 6926 H 648.235 -4.83511 1.11496 0
M  V30 6927 N 647.408 -1.11026 -1.11852 0
M  V30 6928 C 648.338 -0.786812 -2.19844 0
M  V30 6929 C 649.319 0.242935 -1.68356 0
M  V30 6930 O 650.504 0.107355 -1.93903 0
M  V30 6931 C 647.634 -0.224516 -3.46574 0
M  V30 6932 C 646.588 -1.18564 -4.1125 0
M  V30 6933 C 645.914 -0.484261 -5.32503 0
M  V30 6934 C 647.214 -2.53465 -4.56676 0
M  V30 6935 H 648.908 -1.68978 -2.47158 0
M  V30 6936 H 646.454 -0.813906 -1.18792 0
M  V30 6937 H 648.407 0.0139435 -4.21398 0
M  V30 6938 H 647.131 0.713722 -3.18706 0
M  V30 6939 H 645.79 -1.40966 -3.38414 0
M  V30 6940 H 645.438 0.458646 -5.00905 0
M  V30 6941 H 645.138 -1.12526 -5.76725 0
M  V30 6942 H 646.662 -0.254492 -6.10069 0
M  V30 6943 H 648.076 -2.35177 -5.22843 0
M  V30 6944 H 646.473 -3.13507 -5.11697 0
M  V30 6945 H 647.543 -3.13008 -3.70343 0
M  V30 6946 N 648.886 1.2938 -0.899927 0
M  V30 6947 C 650.297 1.77644 -0.574427 0
M  V30 6948 C 650.648 1.73824 0.909928 0
M  V30 6949 O 649.773 1.32429 1.71147 0
M  V30 6950 C 650.368 3.22573 -1.03595 0
M  V30 6951 C 648.927 3.68614 -0.76161 0
M  V30 6952 C 648.074 2.49483 -1.21052 0
M  V30 6953 H 651.025 1.16038 -1.08263 0
M  V30 6954 H 651.046 3.78684 -0.371337 0
M  V30 6955 H 650.558 3.25321 -2.11631 0
M  V30 6956 H 648.659 3.7134 0.306127 0
M  V30 6957 H 648.772 4.59402 -1.35965 0
M  V30 6958 H 647.136 2.46798 -0.629515 0
M  V30 6959 H 647.919 2.54959 -2.29893 0
M  V30 6960 N 650.364 0.662433 1.43002 0
M  V30 6961 C 651.775 0.258315 1.84904 0
M  V30 6962 C 652.126 -1.19703 1.55453 0
M  V30 6963 O 651.251 -1.91484 1.00811 0
M  V30 6964 C 651.846 0.462047 3.35635 0
M  V30 6965 C 650.405 0.112165 3.76233 0
M  V30 6966 C 649.552 0.760479 2.66668 0
M  V30 6967 H 652.503 0.865467 1.33024 0
M  V30 6968 H 652.524 -0.289646 3.79396 0
M  V30 6969 H 652.036 1.52135 3.57039 0
M  V30 6970 H 650.137 -0.944179 3.60439 0
M  V30 6971 H 650.25 0.544058 4.76001 0
M  V30 6972 H 648.614 0.192887 2.53969 0
M  V30 6973 H 649.397 1.82299 2.90898 0
M  V30 6974 N 651.842 -1.52309 0.404946 0
M  V30 6975 C 653.253 -1.86585 -0.0655926 0
M  V30 6976 C 653.604 -1.3239 -1.44801 0
M  V30 6977 O 652.729 -0.6615 -2.06042 0
M  V30 6978 C 653.324 -3.38566 -0.125801 0
M  V30 6979 C 651.883 -3.72497 -0.540666 0
M  V30 6980 C 651.03 -2.75806 0.287487 0
M  V30 6981 H 653.981 -1.45995 0.622185 0
M  V30 6982 H 654.002 -3.68658 -0.941888 0
M  V30 6983 H 653.514 -3.77981 0.880473 0
M  V30 6984 H 651.615 -3.38659 -1.55373 0
M  V30 6985 H 651.728 -4.78234 -0.287956 0
M  V30 6986 H 650.092 -2.53474 -0.249561 0
M  V30 6987 H 650.875 -3.18059 1.29203 0
M  V30 6988 N 653.32 -0.135238 -1.57019 0
M  V30 6989 C 654.545 0.529343 -2.00531 0
M  V30 6990 C 654.97 1.58391 -1.01459 0
M  V30 6991 O 654.328 1.81296 0.0113986 0
M  V30 6992 C 654.376 1.11748 -3.42848 0
M  V30 6993 O 653.48 2.23267 -3.46736 0
M  V30 6994 H 652.821 0.130669 -0.651016 0
M  V30 6995 H 655.351 -0.228503 -2.0332 0
M  V30 6996 H 655.361 1.44905 -3.81401 0
M  V30 6997 H 654.036 0.345147 -4.14465 0
M  V30 6998 H 652.613 1.91428 -3.20015 0
M  V30 6999 N 654.798 1.5699 0.138552 0
M  V30 7000 C 656.047 1.82998 0.848205 0
M  V30 7001 C 656.36 0.717829 1.81952 0
M  V30 7002 O 657.566 0.863756 2.57394 0
M  V30 7003 C 656.022 3.24379 1.55904 0
M  V30 7004 C 655.63 4.43552 0.62971 0
M  V30 7005 C 657.374 3.59654 2.25498 0
M  V30 7006 C 655.281 5.75957 1.34266 0
M  V30 7007 H 654.211 0.682495 0.320495 0
M  V30 7008 H 656.862 1.83222 0.100924 0
M  V30 7009 H 655.244 3.18567 2.35226 0
M  V30 7010 H 656.418 4.6062 -0.128882 0
M  V30 7011 H 654.733 4.16379 0.0417526 0
M  V30 7012 H 657.33 4.55837 2.79493 0
M  V30 7013 H 657.673 2.86124 3.02388 0
M  V30 7014 H 658.206 3.67164 1.53087 0
M  V30 7015 H 654.945 6.52604 0.615441 0
M  V30 7016 H 654.465 5.62811 2.07375 0
M  V30 7017 H 656.144 6.19046 1.88126 0
M  V30 7018 N 656.276 -0.40816 1.52223 0
M  V30 7019 C 657.692 -0.74685 1.41047 0
M  V30 7020 C 657.892 -1.94788 0.51573 0
M  V30 7021 O 656.948 -2.52494 -0.0181156 0
M  V30 7022 C 658.261 -0.999878 2.83589 0
M  V30 7023 C 659.809 -1.10253 2.92939 0
M  V30 7024 C 660.284 -1.38832 4.36451 0
M  V30 7025 N 661.775 -1.45694 4.3969 0
M  V30 7026 C 662.51 -1.69435 5.47795 0
M  V30 7027 N 662.006 -1.90774 6.66016 0
M  V30 7028 N 663.799 -1.71458 5.35312 0
M  V30 7029 H 655.95 0.382409 2.08929 0
M  V30 7030 H 658.213 0.108807 0.941735 0
M  V30 7031 H 657.919 -0.189723 3.51188 0
M  V30 7032 H 657.793 -1.91978 3.24691 0
M  V30 7033 H 660.18 -1.90328 2.2552 0
M  V30 7034 H 660.261 -0.160973 2.55293 0
M  V30 7035 H 659.905 -0.592741 5.04429 0
M  V30 7036 H 659.835 -2.34241 4.71634 0
M  V30 7037 H 662.326 -1.3099 3.54472 0
M  V30 7038 H 662.639 -2.08342 7.44186 0
M  V30 7039 H 660.984 -1.88037 6.69079 0
M  V30 7040 H 664.175 -1.54326 4.41929 0
M  V30 7041 H 664.348 -1.89621 6.19635 0
M  V30 7042 N 657.755 -1.42862 -0.66545 0
M  V30 7043 C 659.001 -1.44043 -1.42757 0
M  V30 7044 C 659.334 -0.0599629 -1.94107 0
M  V30 7045 O 658.609 0.917286 -1.71511 0
M  V30 7046 C 658.892 -2.47266 -2.61786 0
M  V30 7047 C 658.745 -3.94539 -2.16007 0
M  V30 7048 C 660.064 -2.47365 -3.64003 0
M  V30 7049 H 657.183 -0.524506 -0.517748 0
M  V30 7050 H 659.825 -1.74335 -0.755466 0
M  V30 7051 H 657.975 -2.21565 -3.19126 0
M  V30 7052 H 659.647 -4.31254 -1.63762 0
M  V30 7053 H 657.89 -4.07957 -1.47491 0
M  V30 7054 H 658.561 -4.62357 -3.01546 0
M  V30 7055 H 661.037 -2.70243 -3.16399 0
M  V30 7056 H 659.913 -3.21552 -4.44854 0
M  V30 7057 H 660.174 -1.50299 -4.15767 0
M  V30 7058 N 659.233 0.902656 -1.29189 0
M  V30 7059 C 660.479 1.65532 -1.17163 0
M  V30 7060 C 660.812 1.92216 0.276879 0
M  V30 7061 O 660.087 1.53048 1.20027 0
M  V30 7062 C 660.37 3.00629 -1.98228 0
M  V30 7063 C 660.223 2.81029 -3.51202 0
M  V30 7064 C 661.542 4.01321 -1.80635 0
M  V30 7065 H 658.661 0.60071 -0.426985 0
M  V30 7066 H 661.303 1.04578 -1.5863 0
M  V30 7067 H 659.453 3.52656 -1.62991 0
M  V30 7068 H 661.125 2.35927 -3.96404 0
M  V30 7069 H 659.368 2.1587 -3.76275 0
M  V30 7070 H 660.039 3.77014 -4.03192 0
M  V30 7071 H 662.515 3.58394 -2.11406 0
M  V30 7072 H 661.391 4.93792 -2.3971 0
M  V30 7073 H 661.652 4.35505 -0.760754 0
M  V30 7074 N 660.711 1.11618 1.11262 0
M  V30 7075 C 661.957 0.867463 1.83311 0
M  V30 7076 C 662.29 -0.605366 1.84524 0
M  V30 7077 O 661.565 -1.44704 1.29965 0
M  V30 7078 C 661.848 1.43207 3.30399 0
M  V30 7079 C 661.701 2.97265 3.3757 0
M  V30 7080 C 663.02 1.08454 4.26528 0
M  V30 7081 H 660.139 0.316578 0.665543 0
M  V30 7082 H 662.781 1.38137 1.30454 0
M  V30 7083 H 660.931 0.994982 3.75543 0
M  V30 7084 H 662.603 3.49591 3.00971 0
M  V30 7085 H 660.846 3.33237 2.77733 0
M  V30 7086 H 661.517 3.31859 4.41105 0
M  V30 7087 H 663.993 1.4619 3.89574 0
M  V30 7088 H 662.869 1.50633 5.27826 0
M  V30 7089 H 663.13 -0.00444568 4.421 0
M  V30 7090 N 662.189 -1.289 0.906776 0
M  V30 7091 C 663.417 -1.99401 0.551969 0
M  V30 7092 C 663.832 -1.67816 -0.865048 0
M  V30 7093 O 663.189 -0.927078 -1.57199 0
M  V30 7094 C 663.24 -3.53779 0.743152 0
M  V30 7095 O 662.961 -3.84248 2.1044 0
M  V30 7096 C 664.462 -4.41543 0.39424 0
M  V30 7097 H 661.682 -0.636926 0.211106 0
M  V30 7098 H 664.226 -1.64266 1.21807 0
M  V30 7099 H 662.381 -3.87201 0.124143 0
M  V30 7100 H 662.795 -4.78904 2.13895 0
M  V30 7101 H 664.269 -5.48957 0.578814 0
M  V30 7102 H 664.746 -4.34073 -0.669137 0
M  V30 7103 H 665.352 -4.13605 0.990491 0
M  V30 7104 N 663.667 -0.670007 -1.42649 0
M  V30 7105 C 664.913 -0.190568 -2.01903 0
M  V30 7106 C 665.246 1.19817 -1.52832 0
M  V30 7107 O 664.521 1.80342 -0.728485 0
M  V30 7108 C 664.804 -0.21991 -3.59428 0
M  V30 7109 C 664.657 -1.64376 -4.18689 0
M  V30 7110 C 665.976 0.434519 -4.3795 0
M  V30 7111 H 663.095 -0.0707219 -0.733599 0
M  V30 7112 H 665.737 -0.853883 -1.69732 0
M  V30 7113 H 663.887 0.344894 -3.86966 0
M  V30 7114 H 665.559 -2.26044 -4.02122 0
M  V30 7115 H 663.802 -2.18591 -3.747 0
M  V30 7116 H 664.473 -1.61601 -5.27815 0
M  V30 7117 H 666.949 -0.0462156 -4.16074 0
M  V30 7118 H 665.825 0.38333 -5.4756 0
M  V30 7119 H 666.086 1.51135 -4.15464 0
M  V30 7120 N 665.145 1.52092 -0.413018 0
M  V30 7121 C 666.055 2.30858 0.417318 0
M  V30 7122 C 667.071 1.38746 1.05003 0
M  V30 7123 O 668.247 1.71821 1.05069 0
M  V30 7124 C 665.312 3.11756 1.51687 0
M  V30 7125 C 664.373 4.19613 0.906825 0
M  V30 7126 C 663.606 4.96644 1.95399 0
M  V30 7127 O 663.829 4.7402 3.17271 0
M  V30 7128 O 662.763 5.81385 1.55805 0
M  V30 7129 H 666.589 3.02865 -0.225028 0
M  V30 7130 H 664.174 1.48358 -0.176126 0
M  V30 7131 H 666.056 3.62122 2.15512 0
M  V30 7132 H 664.731 2.42539 2.14375 0
M  V30 7133 H 663.638 3.73385 0.231183 0
M  V30 7134 H 664.971 4.91134 0.323814 0
M  V30 7135 N 666.623 0.143563 1.56945 0
M  V30 7136 C 667.555 -0.828353 2.13708 0
M  V30 7137 C 668.568 -1.21313 1.08568 0
M  V30 7138 O 669.757 -1.1578 1.35857 0
M  V30 7139 C 666.857 -2.12248 2.64204 0
M  V30 7140 C 666.03 -1.90561 3.93707 0
M  V30 7141 C 665.089 -3.03931 4.29549 0
M  V30 7142 O 664.115 -2.75772 4.97934 0
M  V30 7143 N 665.317 -4.31016 3.88852 0
M  V30 7144 H 668.082 -0.343242 2.97728 0
M  V30 7145 H 665.643 -0.0401152 1.6185 0
M  V30 7146 H 667.635 -2.87132 2.85197 0
M  V30 7147 H 666.205 -2.52033 1.84928 0
M  V30 7148 H 665.425 -0.997327 3.81375 0
M  V30 7149 H 666.713 -1.73405 4.78339 0
M  V30 7150 H 666.111 -4.56762 3.33743 0
M  V30 7151 H 664.668 -5.02691 4.14903 0
M  V30 7152 N 668.101 -1.57061 -0.130224 0
M  V30 7153 C 669.329 -1.88432 -0.854456 0
M  V30 7154 C 669.744 -0.733608 -1.73964 0
M  V30 7155 O 669.101 0.296029 -1.80083 0
M  V30 7156 C 669.152 -3.1918 -1.69724 0
M  V30 7157 O 668.873 -4.2982 -0.847705 0
M  V30 7158 C 670.374 -3.6418 -2.5276 0
M  V30 7159 H 667.594 -0.624193 -0.246221 0
M  V30 7160 H 670.138 -2.04159 -0.11798 0
M  V30 7161 H 668.293 -3.05156 -2.3866 0
M  V30 7162 H 668.707 -5.04689 -1.42792 0
M  V30 7163 H 670.181 -4.58457 -3.07443 0
M  V30 7164 H 670.658 -2.90285 -3.29592 0
M  V30 7165 H 671.264 -3.80954 -1.89087 0
M  V30 7166 N 669.579 0.400081 -1.52437 0
M  V30 7167 C 670.489 1.51253 -1.79331 0
M  V30 7168 C 671.505 1.60188 -0.679396 0
M  V30 7169 O 672.681 1.76733 -0.965791 0
M  V30 7170 C 669.746 2.869 -1.94652 0
M  V30 7171 C 668.807 2.87777 -3.18564 0
M  V30 7172 C 668.04 4.16954 -3.33145 0
M  V30 7173 O 668.263 5.11329 -2.52783 0
M  V30 7174 O 667.197 4.2487 -4.26343 0
M  V30 7175 H 671.023 1.31461 -2.73773 0
M  V30 7176 H 668.608 0.586834 -1.37392 0
M  V30 7177 H 670.49 3.67336 -2.065 0
M  V30 7178 H 669.165 3.06741 -1.034 0
M  V30 7179 H 668.072 2.06162 -3.12167 0
M  V30 7180 H 669.405 2.72886 -4.09627 0
M  V30 7181 N 671.057 1.43213 0.657864 0
M  V30 7182 C 671.967 1.50448 1.80007 0
M  V30 7183 C 672.983 0.39191 1.69529 0
M  V30 7184 O 674.159 0.645349 1.90781 0
M  V30 7185 C 671.224 1.42062 3.16258 0
M  V30 7186 C 670.285 2.63951 3.38568 0
M  V30 7187 C 669.518 2.55956 4.68318 0
M  V30 7188 O 669.741 1.60473 5.47361 0
M  V30 7189 O 668.675 3.46378 4.92245 0
M  V30 7190 H 672.501 2.4689 1.76858 0
M  V30 7191 H 670.086 1.25163 0.81576 0
M  V30 7192 H 671.968 1.3981 3.97531 0
M  V30 7193 H 670.643 0.487524 3.20008 0
M  V30 7194 H 669.55 2.71776 2.57077 0
M  V30 7195 H 670.883 3.56217 3.39662 0
M  V30 7196 N 672.536 -0.895792 1.29666 0
M  V30 7197 C 673.446 -2.03329 1.17024 0
M  V30 7198 C 674.462 -1.73753 0.0925962 0
M  V30 7199 O 675.638 -1.99071 0.305431 0
M  V30 7200 C 672.703 -3.36072 0.851841 0
M  V30 7201 C 671.764 -3.7914 2.01373 0
M  V30 7202 C 670.997 -5.05549 1.71043 0
M  V30 7203 O 671.22 -5.66874 0.633213 0
M  V30 7204 O 670.154 -5.44764 2.5596 0
M  V30 7205 H 673.98 -2.16918 2.12556 0
M  V30 7206 H 671.565 -1.02007 1.09156 0
M  V30 7207 H 673.447 -4.15729 0.689006 0
M  V30 7208 H 672.122 -3.23616 -0.0736634 0
M  V30 7209 H 671.029 -3.00233 2.23183 0
M  V30 7210 H 672.362 -3.96186 2.92058 0
M  V30 7211 N 674.014 -1.12206 -1.10668 0
M  V30 7212 C 674.944 -0.810086 -2.18997 0
M  V30 7213 C 675.925 0.225065 -1.68604 0
M  V30 7214 O 677.11 0.086783 -1.94006 0
M  V30 7215 C 674.24 -0.261262 -3.46316 0
M  V30 7216 C 673.194 -1.2292 -4.09969 0
M  V30 7217 C 672.52 -0.540713 -5.31959 0
M  V30 7218 C 673.82 -2.58295 -4.53962 0
M  V30 7219 H 675.514 -1.7159 -2.45352 0
M  V30 7220 H 673.06 -0.82646 -1.17922 0
M  V30 7221 H 675.013 -0.0307522 -4.21389 0
M  V30 7222 H 673.737 0.679879 -3.19445 0
M  V30 7223 H 672.396 -1.44548 -3.369 0
M  V30 7224 H 672.044 0.405492 -5.01363 0
M  V30 7225 H 671.744 -1.18637 -5.75499 0
M  V30 7226 H 673.268 -0.319184 -6.09765 0
M  V30 7227 H 674.682 -2.40709 -5.20319 0
M  V30 7228 H 673.079 -3.18916 -5.08343 0
M  V30 7229 H 674.149 -3.16918 -3.67002 0
M  V30 7230 N 675.492 1.28418 -0.913599 0
M  V30 7231 C 676.402 2.31043 -0.406965 0
M  V30 7232 C 677.418 1.66501 0.505298 0
M  V30 7233 O 678.594 1.97558 0.391522 0
M  V30 7234 C 675.659 3.4498 0.344901 0
M  V30 7235 C 674.72 4.25078 -0.600563 0
M  V30 7236 C 673.953 5.33575 0.115516 0
M  V30 7237 O 674.176 5.54503 1.33727 0
M  V30 7238 O 673.11 5.9939 -0.549095 0
M  V30 7239 H 676.936 2.76387 -1.25873 0
M  V30 7240 H 674.521 1.33109 -0.678415 0
M  V30 7241 H 676.403 4.14314 0.769542 0
M  V30 7242 H 675.078 3.01719 1.1725 0
M  V30 7243 H 673.985 3.58334 -1.0746 0
M  V30 7244 H 675.318 4.72018 -1.39497 0
M  V30 7245 N 676.97 0.677563 1.42291 0
M  V30 7246 C 678.386 0.347376 1.55774 0
M  V30 7247 C 678.586 -1.14703 1.65667 0
M  V30 7248 O 677.642 -1.93252 1.62512 0
M  V30 7249 C 678.955 1.08011 2.80631 0
M  V30 7250 C 680.503 1.06271 2.94407 0
M  V30 7251 C 680.978 1.77683 4.22129 0
M  V30 7252 N 682.469 1.74564 4.29047 0
M  V30 7253 C 683.204 2.26673 5.26694 0
M  V30 7254 N 682.7 2.87176 6.30477 0
M  V30 7255 N 684.493 2.17032 5.18511 0
M  V30 7256 H 676.644 1.64703 1.34114 0
M  V30 7257 H 678.907 0.694038 0.645768 0
M  V30 7258 H 678.613 2.13518 2.79469 0
M  V30 7259 H 678.487 0.647115 3.71608 0
M  V30 7260 H 680.874 0.0159658 2.95096 0
M  V30 7261 H 680.955 1.53461 2.04654 0
M  V30 7262 H 680.599 2.82327 4.22201 0
M  V30 7263 H 680.529 1.2794 5.10822 0
M  V30 7264 H 683.02 1.30436 3.54676 0
M  V30 7265 H 683.333 3.24551 7.01346 0
M  V30 7266 H 681.678 2.91247 6.31031 0
M  V30 7267 H 684.869 1.69451 4.36353 0
M  V30 7268 H 685.042 2.57948 5.94446 0
M  V30 7269 N 678.448 -1.51871 0.421078 0
M  V30 7270 C 679.411 -2.25914 -0.386712 0
M  V30 7271 C 680.411 -1.28733 -0.963555 0
M  V30 7272 O 681.601 -1.52579 -0.840556 0
M  V30 7273 C 678.733 -3.03853 -1.54551 0
M  V30 7274 H 679.926 -2.98754 0.261978 0
M  V30 7275 H 677.479 -1.5533 0.173862 0
M  V30 7276 H 678.214 -2.35392 -2.23072 0
M  V30 7277 H 677.999 -3.75215 -1.13824 0
M  V30 7278 H 679.489 -3.59984 -2.11663 0
M  V30 7279 N 679.926 -0.151884 -1.56866 0
M  V30 7280 C 680.889 0.771861 -2.15812 0
M  V30 7281 C 681.889 1.17181 -1.10115 0
M  V30 7282 O 683.079 1.09194 -1.35729 0
M  V30 7283 C 680.211 2.04806 -2.7252 0
M  V30 7284 H 681.404 0.259021 -2.98779 0
M  V30 7285 H 678.957 0.097588 -1.55995 0
M  V30 7286 H 679.692 2.60445 -1.93233 0
M  V30 7287 H 679.477 1.77044 -3.49854 0
M  V30 7288 H 680.967 2.70771 -3.1792 0
M  V30 7289 N 681.404 1.57128 0.121893 0
M  V30 7290 C 682.629 1.89254 0.848385 0
M  V30 7291 C 683.054 0.743527 1.72781 0
M  V30 7292 O 682.412 -0.306056 1.78698 0
M  V30 7293 C 682.46 3.20113 1.66012 0
M  V30 7294 O 681.564 3.05815 2.76679 0
M  V30 7295 H 680.905 0.621103 0.234793 0
M  V30 7296 H 683.435 2.0433 0.10516 0
M  V30 7297 H 683.445 3.52761 2.04996 0
M  V30 7298 H 682.12 4.03336 1.01452 0
M  V30 7299 H 680.697 2.84627 2.40918 0
M  V30 7300 N 682.882 -0.391992 1.52647 0
M  V30 7301 C 684.11 -1.1586 1.71418 0
M  V30 7302 C 684.525 -1.8381 0.431216 0
M  V30 7303 O 683.882 -1.7256 -0.594085 0
M  V30 7304 C 683.933 -2.20888 2.86165 0
M  V30 7305 O 683.654 -1.5571 4.09495 0
M  V30 7306 C 685.155 -3.103 3.1659 0
M  V30 7307 H 682.375 -0.347494 0.574011 0
M  V30 7308 H 684.919 -0.458972 1.99283 0
M  V30 7309 H 683.074 -2.86492 2.6077 0
M  V30 7310 H 683.488 -2.25474 4.73563 0
M  V30 7311 H 684.962 -3.8003 4.00351 0
M  V30 7312 H 685.439 -3.73639 2.30848 0
M  V30 7313 H 686.045 -2.50345 3.43813 0
M  V30 7314 N 684.36 -1.4356 -0.65026 0
M  V30 7315 C 685.609 -1.44619 -1.406 0
M  V30 7316 C 685.922 -0.0752645 -1.95455 0
M  V30 7317 O 687.128 0.0366832 -2.71475 0
M  V30 7318 C 685.584 -2.54511 -2.54465 0
M  V30 7319 C 685.192 -3.97723 -2.06204 0
M  V30 7320 C 686.936 -2.64768 -3.31811 0
M  V30 7321 C 684.843 -4.99075 -3.17298 0
M  V30 7322 H 683.773 -0.537983 -0.52829 0
M  V30 7323 H 686.424 -1.69559 -0.701561 0
M  V30 7324 H 684.806 -2.22777 -3.27393 0
M  V30 7325 H 685.98 -4.38932 -1.40267 0
M  V30 7326 H 684.295 -3.91538 -1.41729 0
M  V30 7327 H 686.892 -3.37664 -4.14593 0
M  V30 7328 H 687.235 -1.69936 -3.80036 0
M  V30 7329 H 687.768 -2.95817 -2.65964 0
M  V30 7330 H 684.507 -5.95469 -2.74038 0
M  V30 7331 H 684.027 -4.62476 -3.81937 0
M  V30 7332 H 685.706 -5.21913 -3.82382 0
M  V30 7333 N 685.838 0.888903 -1.30139 0
M  V30 7334 C 686.785 1.99422 -1.16188 0
M  V30 7335 C 687.755 1.66017 -0.0523869 0
M  V30 7336 O 688.94 1.89506 -0.221864 0
M  V30 7337 C 686.08 3.34325 -0.855612 0
M  V30 7338 C 685.193 3.80445 -2.0466 0
M  V30 7339 C 684.328 5.03975 -1.67876 0
M  V30 7340 C 683.367 5.42492 -2.83493 0
M  V30 7341 N 682.504 6.57206 -2.47032 0
M  V30 7342 H 687.344 2.10687 -2.10749 0
M  V30 7343 H 684.881 1.03165 -1.04859 0
M  V30 7344 H 686.839 4.11968 -0.658681 0
M  V30 7345 H 685.469 3.22756 0.0531155 0
M  V30 7346 H 684.521 2.98745 -2.3549 0
M  V30 7347 H 685.833 4.04933 -2.91257 0
M  V30 7348 H 684.987 5.89232 -1.44535 0
M  V30 7349 H 683.726 4.8135 -0.784431 0
M  V30 7350 H 682.731 4.55764 -3.07505 0
M  V30 7351 H 683.956 5.67093 -3.73607 0
M  V30 7352 H 681.902 6.36164 -1.601 0
M  V30 7353 H 681.819 6.81543 -3.27161 0
M  V30 7354 H 683.087 7.45704 -2.27038 0
M  V30 7355 N 687.317 1.12792 1.10072 0
M  V30 7356 C 688.227 0.812369 2.20086 0
M  V30 7357 C 689.243 -0.200349 1.72843 0
M  V30 7358 O 690.419 -0.0330262 2.01373 0
M  V30 7359 C 687.484 0.275685 3.45602 0
M  V30 7360 C 686.545 1.34881 4.07561 0
M  V30 7361 C 685.778 0.837639 5.27086 0
M  V30 7362 O 686.001 -0.327224 5.69461 0
M  V30 7363 O 684.935 1.60894 5.79997 0
M  V30 7364 H 688.761 1.73133 2.49517 0
M  V30 7365 H 686.346 0.904863 1.18881 0
M  V30 7366 H 688.228 -0.0185375 4.21396 0
M  V30 7367 H 686.903 -0.615783 3.17789 0
M  V30 7368 H 685.81 1.69625 3.33434 0
M  V30 7369 H 687.143 2.21418 4.39585 0
M  V30 7370 N 688.795 -1.27931 0.920396 0
M  V30 7371 C 690.041 -1.94977 0.557832 0
M  V30 7372 C 690.374 -1.72224 -0.897365 0
M  V30 7373 O 689.649 -1.04705 -1.63912 0
M  V30 7374 C 689.932 -3.49289 0.875741 0
M  V30 7375 C 689.785 -3.81416 2.38416 0
M  V30 7376 C 691.104 -4.38486 0.376517 0
M  V30 7377 H 688.223 -0.708164 0.20414 0
M  V30 7378 H 690.865 -1.5118 1.15085 0
M  V30 7379 H 689.015 -3.86724 0.371062 0
M  V30 7380 H 690.687 -3.53813 2.95997 0
M  V30 7381 H 688.93 -3.28225 2.83639 0
M  V30 7382 H 689.601 -4.89198 2.55713 0
M  V30 7383 H 692.077 -4.08161 0.808945 0
M  V30 7384 H 690.953 -5.45296 0.627976 0
M  V30 7385 H 691.214 -4.36143 -0.723293 0
M  V30 7386 N 690.273 -0.685099 -1.4193 0
M  V30 7387 C 691.236 -0.0222632 -2.29189 0
M  V30 7388 C 692.236 0.7186 -1.4385 0
M  V30 7389 O 693.426 0.555058 -1.6512 0
M  V30 7390 C 690.558 0.979013 -3.2654 0
M  V30 7391 H 691.751 -0.790424 -2.89296 0
M  V30 7392 H 689.304 -0.448012 -1.49742 0
M  V30 7393 H 690.039 1.77531 -2.71392 0
M  V30 7394 H 689.824 0.451037 -3.89497 0
M  V30 7395 H 691.314 1.44091 -3.91954 0
M  V30 7396 N 691.751 1.51645 -0.429126 0
M  V30 7397 C 692.683 2.25279 0.422124 0
M  V30 7398 C 693.696 1.28986 0.993299 0
M  V30 7399 O 694.885 1.54797 0.888836 0
M  V30 7400 C 691.985 2.98666 1.60162 0
M  V30 7401 C 691.158 4.2199 1.15078 0
M  V30 7402 C 690.217 4.78028 2.19946 0
M  V30 7403 O 689.243 5.40084 1.79716 0
M  V30 7404 N 690.445 4.61342 3.5234 0
M  V30 7405 H 693.21 2.98971 -0.208931 0
M  V30 7406 H 690.771 1.59838 -0.257568 0
M  V30 7407 H 692.763 3.33044 2.29922 0
M  V30 7408 H 691.333 2.28036 2.13818 0
M  V30 7409 H 690.553 3.932 0.280552 0
M  V30 7410 H 691.841 5.02037 0.826831 0
M  V30 7411 H 691.239 4.11894 3.87763 0
M  V30 7412 H 689.796 5.00104 4.18019 0
M  V30 7413 N 693.229 0.160201 1.56784 0
M  V30 7414 C 694.192 -0.760405 2.16219 0
M  V30 7415 C 695.192 -1.16595 1.10735 0
M  V30 7416 O 696.382 -1.08472 1.36306 0
M  V30 7417 C 693.514 -2.03358 2.73603 0
M  V30 7418 H 694.707 -0.243173 2.98912 0
M  V30 7419 H 692.26 -0.0893139 1.56045 0
M  V30 7420 H 692.995 -2.59416 1.94612 0
M  V30 7421 H 692.78 -1.75186 3.50788 0
M  V30 7422 H 694.27 -2.69081 3.19351 0
M  V30 7423 N 694.707 -1.5719 -0.113559 0
M  V30 7424 C 695.953 -1.85412 -0.821597 0
M  V30 7425 C 696.286 -0.746722 -1.7927 0
M  V30 7426 O 695.561 0.246971 -1.92926 0
M  V30 7427 C 695.844 -3.24233 -1.56669 0
M  V30 7428 C 695.697 -4.45578 -0.614823 0
M  V30 7429 C 697.016 -3.60697 -2.52161 0
M  V30 7430 H 694.135 -0.674406 -0.29723 0
M  V30 7431 H 696.777 -1.89807 -0.085694 0
M  V30 7432 H 694.927 -3.20617 -2.19401 0
M  V30 7433 H 696.599 -4.613 0.00407137 0
M  V30 7434 H 694.842 -4.33738 0.0732332 0
M  V30 7435 H 695.513 -5.39395 -1.17292 0
M  V30 7436 H 697.989 -3.65139 -1.99532 0
M  V30 7437 H 696.865 -4.58798 -3.01323 0
M  V30 7438 H 697.126 -2.88403 -3.35076 0
M  V30 7439 N 696.185 0.383891 -1.52853 0
M  V30 7440 C 697.115 1.47559 -1.80965 0
M  V30 7441 C 698.096 1.5669 -0.661986 0
M  V30 7442 O 699.281 1.71556 -0.910072 0
M  V30 7443 C 696.411 2.85114 -1.98312 0
M  V30 7444 C 695.365 2.9082 -3.14019 0
M  V30 7445 C 694.691 4.30873 -3.16627 0
M  V30 7446 C 695.991 2.60001 -4.52986 0
M  V30 7447 H 697.685 1.24283 -2.72386 0
M  V30 7448 H 695.231 0.596445 -1.31067 0
M  V30 7449 H 697.184 3.61496 -2.16561 0
M  V30 7450 H 695.908 3.09738 -1.03585 0
M  V30 7451 H 694.567 2.16886 -2.9556 0
M  V30 7452 H 694.215 4.52545 -2.19573 0
M  V30 7453 H 693.915 4.3561 -3.94357 0
M  V30 7454 H 695.439 5.09154 -3.37038 0
M  V30 7455 H 696.853 3.261 -4.71521 0
M  V30 7456 H 695.25 2.76081 -5.32822 0
M  V30 7457 H 696.32 1.5532 -4.59351 0
M  V30 7458 N 697.663 1.43903 0.642637 0
M  V30 7459 C 698.593 1.52697 1.76652 0
M  V30 7460 C 699.574 0.380816 1.65782 0
M  V30 7461 O 700.759 0.599432 1.84717 0
M  V30 7462 C 697.889 1.45975 3.15133 0
M  V30 7463 C 696.843 2.58949 3.40778 0
M  V30 7464 C 696.169 2.37279 4.79169 0
M  V30 7465 C 697.469 4.01153 3.34475 0
M  V30 7466 H 699.163 2.46766 1.69549 0
M  V30 7467 H 696.709 1.18767 0.814279 0
M  V30 7468 H 698.662 1.5073 3.93521 0
M  V30 7469 H 697.386 0.484162 3.22991 0
M  V30 7470 H 696.045 2.53564 2.64765 0
M  V30 7471 H 695.693 1.37939 4.83717 0
M  V30 7472 H 695.393 3.13016 4.97287 0
M  V30 7473 H 696.917 2.43834 5.59801 0
M  V30 7474 H 698.331 4.07968 4.02784 0
M  V30 7475 H 696.728 4.77001 3.64129 0
M  V30 7476 H 697.798 4.25539 2.32475 0
M  V30 7477 O 699.18 -0.78588 1.41089 0
M  V30 7478 H 699.871 -1.43226 1.30407 0
M  V30 END ATOM
M  V30 BEGIN BOND
M  V30 END BOND
M  V30 END CTAB
M  END
$$$$
