drugbank_target|A0A023W3H0 Class D OXA-48 carbapenemase (DB09060)
 OpenBabel12092121043D

  0  0  0     0  0            999 V3000
M  V30 BEGIN CTAB
M  V30 COUNTS 2363 2392 0 0 0
M  V30 BEGIN ATOM
M  V30 1 H -0.908 1.98254 -0.117106 0
M  V30 2 N 0 1.576 0 0
M  V30 3 C 1.246 1.9085 0.685863 0
M  V30 4 C 1.579 0.873954 1.73423 0
M  V30 5 O 0.854 -0.107317 1.94204 0
M  V30 6 C 1.137 3.34679 1.32899 0
M  V30 7 C 0.99 4.4885 0.292164 0
M  V30 8 C 2.309 3.77929 2.25516 0
M  V30 9 H -0.572 0.69407 0.247863 0
M  V30 10 H 2.07 1.89931 -0.0512938 0
M  V30 11 H 0.22 3.35593 1.95729 0
M  V30 12 H 1.892 4.60071 -0.33645 0
M  V30 13 H 0.135 4.32083 -0.385573 0
M  V30 14 H 0.806 5.46444 0.781208 0
M  V30 15 H 3.282 3.78567 1.72703 0
M  V30 16 H 2.158 4.79317 2.67481 0
M  V30 17 H 2.419 3.11797 3.13424 0
M  V30 18 N 1.4781 -0.272755 1.55222 0
M  V30 19 C 2.7241 -1.00581 1.761 0
M  V30 20 C 3.0571 -1.85932 0.560625 0
M  V30 21 O 2.3321 -1.89416 -0.441801 0
M  V30 22 C 2.6151 -1.88816 3.06628 0
M  V30 23 C 2.4681 -1.06457 4.37021 0
M  V30 24 C 3.7871 -2.8752 3.33197 0
M  V30 25 H 0.9061 -0.364244 0.640699 0
M  V30 26 H 3.5481 -0.278189 1.87952 0
M  V30 27 H 1.6981 -2.50856 2.96654 0
M  V30 28 H 3.3701 -0.464863 4.58952 0
M  V30 29 H 1.6131 -0.368043 4.32236 0
M  V30 30 H 2.2841 -1.71514 5.24678 0
M  V30 31 H 4.7601 -2.35615 3.42965 0
M  V30 32 H 3.6361 -3.46399 4.25792 0
M  V30 33 H 3.8971 -3.62657 2.52849 0
M  V30 34 N 2.9562 -1.48159 -0.537278 0
M  V30 35 C 3.9032 -1.62138 -1.64256 0
M  V30 36 C 4.8732 -0.463668 -1.59497 0
M  V30 37 O 6.0582 -0.686241 -1.78032 0
M  V30 38 C 3.1982 -1.66028 -3.02537 0
M  V30 39 C 2.3112 -2.92855 -3.17585 0
M  V30 40 C 1.4462 -2.87952 -4.46382 0
M  V30 41 C 0.4852 -4.09516 -4.54932 0
M  V30 42 N -0.3778 -4.02733 -5.75109 0
M  V30 43 H 4.4622 -2.56529 -1.51647 0
M  V30 44 H 1.9992 -1.27224 -0.738414 0
M  V30 45 H 3.9572 -1.66265 -3.82638 0
M  V30 46 H 2.5872 -0.751331 -3.13934 0
M  V30 47 H 1.6392 -3.02395 -2.30784 0
M  V30 48 H 2.9512 -3.82822 -3.19764 0
M  V30 49 H 2.1052 -2.8655 -5.34765 0
M  V30 50 H 0.8442 -1.95702 -4.46712 0
M  V30 51 H -0.1508 -4.11201 -3.64957 0
M  V30 52 H 1.0742 -5.02917 -4.56346 0
M  V30 53 H -0.9798 -3.13299 -5.76351 0
M  V30 54 H -1.0628 -4.86397 -5.78752 0
M  V30 55 H 0.2052 -4.05379 -6.65799 0
M  V30 56 N 4.4343 0.785586 -1.36625 0
M  V30 57 C 5.7113 1.53198 -1.21613 0
M  V30 58 C 6.0913 2.10187 0.196113 0
M  V30 59 O 5.4393 1.94318 1.20219 0
M  V30 60 C 5.6493 2.62388 -2.30116 0
M  V30 61 C 6.9973 3.30167 -2.66974 0
M  V30 62 O 8.0213 2.72674 -2.29188 0
M  V30 63 O 6.8803 4.34077 -3.32023 0
M  V30 64 H 3.9743 0.677865 -0.473738 0
M  V30 65 H 6.5203 0.823739 -1.48367 0
M  V30 66 H 5.2923 2.18299 -3.24748 0
M  V30 67 H 4.9153 3.40827 -2.0475 0
M  V30 68 N 5.9124 1.20967 1.01018 0
M  V30 69 C 6.8224 0.980157 2.13143 0
M  V30 70 C 7.8384 -0.0660665 1.73875 0
M  V30 71 O 9.0144 0.122821 2.01025 0
M  V30 72 C 6.0794 0.54216 3.42435 0
M  V30 73 C 5.1404 1.65999 3.95908 0
M  V30 74 C 4.3734 1.2428 5.19028 0
M  V30 75 O 4.5964 0.114196 5.70286 0
M  V30 76 O 3.5304 2.05271 5.65816 0
M  V30 77 H 7.3564 1.91913 2.35379 0
M  V30 78 H 4.9414 0.994099 1.11526 0
M  V30 79 H 6.8234 0.30744 4.20277 0
M  V30 80 H 5.4984 -0.36815 3.216 0
M  V30 81 H 4.4054 1.94906 3.19316 0
M  V30 82 H 5.7384 2.54753 4.21143 0
M  V30 83 N 7.3905 -1.2043 1.01659 0
M  V30 84 C 8.3405 -2.21076 0.557623 0
M  V30 85 C 9.3245 -1.56176 -0.387029 0
M  V30 86 O 10.5165 -1.7575 -0.209996 0
M  V30 87 C 7.6455 -3.43146 -0.102707 0
M  V30 88 C 6.7315 -4.15213 0.863652 0
M  V30 89 N 7.1225 -4.63662 2.02117 0
M  V30 90 C 5.4205 -4.40716 0.684472 0
M  V30 91 C 6.1215 -5.18868 2.62966 0
M  V30 92 N 5.0975 -5.0893 1.91027 0
M  V30 93 H 8.8995 -2.56201 1.44008 0
M  V30 94 H 6.4135 -1.36366 0.881931 0
M  V30 95 H 8.4105 -4.14475 -0.449054 0
M  V30 96 H 7.0705 -3.09526 -0.981003 0
M  V30 97 H 8.0815 -4.58877 2.40109 0
M  V30 98 H 4.7585 -4.17245 -0.14577 0
M  V30 99 H 6.1485 -5.6673 3.60924 0
M  V30 100 N 8.8686 -0.792821 -1.36206 0
M  V30 101 C 9.8006 -0.151469 -2.28699 0
M  V30 102 C 10.8136 0.641262 -1.49638 0
M  V30 103 O 12.0026 0.475885 -1.72039 0
M  V30 104 C 9.1026 0.808424 -3.29117 0
M  V30 105 C 8.2756 0.0650202 -4.37352 0
M  V30 106 C 7.3346 0.941358 -5.17711 0
M  V30 107 O 6.3606 0.397352 -5.67811 0
M  V30 108 N 7.5626 2.2652 -5.3448 0
M  V30 109 H 10.3276 -0.945982 -2.84379 0
M  V30 110 H 7.8886 -0.647032 -1.48409 0
M  V30 111 H 9.8806 1.3986 -3.79765 0
M  V30 112 H 8.4506 1.5038 -2.74052 0
M  V30 113 H 7.6706 -0.706255 -3.87822 0
M  V30 114 H 8.9586 -0.447847 -5.06825 0
M  V30 115 H 8.3566 2.73128 -4.95396 0
M  V30 116 H 6.9136 2.80493 -5.88359 0
M  V30 117 N 10.3467 1.47872 -0.545128 0
M  V30 118 C 11.5927 2.02793 -0.0166104 0
M  V30 119 C 11.9257 1.41987 1.32489 0
M  V30 120 O 11.2007 0.571045 1.85928 0
M  V30 121 C 11.4837 3.59989 0.0893294 0
M  V30 122 C 11.3367 4.3125 -1.27841 0
M  V30 123 C 12.6557 4.32606 0.808724 0
M  V30 124 H 9.7747 0.736962 -0.00751035 0
M  V30 125 H 12.4167 1.76433 -0.705085 0
M  V30 126 H 10.5667 3.82579 0.675681 0
M  V30 127 H 12.2387 4.20035 -1.90704 0
M  V30 128 H 10.4817 3.92076 -1.85632 0
M  V30 129 H 11.1527 5.39736 -1.15713 0
M  V30 130 H 13.6287 4.14936 0.310992 0
M  V30 131 H 12.5047 5.42251 0.851782 0
M  V30 132 H 12.7657 4.00963 1.86229 0
M  V30 133 N 11.8248 0.280983 1.55075 0
M  V30 134 C 13.0718 -0.334115 1.99725 0
M  V30 135 C 13.3998 -1.5542 1.1694 0
M  V30 136 O 12.6548 -1.94361 0.228531 0
M  V30 137 C 12.9538 -0.754656 3.49342 0
M  V30 138 C 12.6198 0.361445 4.49449 0
M  V30 139 C 11.2818 0.667893 4.76542 0
M  V30 140 C 13.6338 1.11322 5.09173 0
M  V30 141 C 10.9618 1.7296 5.60626 0
M  V30 142 C 13.3138 2.1647 5.9441 0
M  V30 143 C 11.9778 2.47742 6.19822 0
M  V30 144 H 11.2478 -0.122261 0.730844 0
M  V30 145 H 13.8948 0.395917 1.87363 0
M  V30 146 H 12.1998 -1.56446 3.5921 0
M  V30 147 H 13.8968 -1.24142 3.813 0
M  V30 148 H 10.4868 0.112481 4.28452 0
M  V30 149 H 14.6708 0.88973 4.8826 0
M  V30 150 H 9.9268 1.97684 5.78559 0
M  V30 151 H 14.1008 2.75193 6.3972 0
M  V30 152 H 11.7278 3.30145 6.84769 0
M  V30 153 N 13.3029 -1.57598 0.00835791 0
M  V30 154 C 14.2499 -2.08945 -0.980346 0
M  V30 155 C 15.2199 -0.986738 -1.33614 0
M  V30 156 O 16.4049 -1.25968 -1.43306 0
M  V30 157 C 13.5449 -2.60425 -2.26435 0
M  V30 158 C 12.6579 -3.84628 -1.96685 0
M  V30 159 C 11.7929 -4.24579 -3.19228 0
M  V30 160 C 10.8319 -5.41596 -2.85202 0
M  V30 161 N 9.9689 -5.768 -4.00307 0
M  V30 162 H 14.8089 -2.93148 -0.535551 0
M  V30 163 H 12.3459 -1.44912 -0.252776 0
M  V30 164 H 14.3039 -2.88354 -3.01509 0
M  V30 165 H 12.9339 -1.79083 -2.68568 0
M  V30 166 H 11.9859 -3.63556 -1.11942 0
M  V30 167 H 13.2979 -4.69796 -1.67611 0
M  V30 168 H 12.4519 -4.53834 -4.02641 0
M  V30 169 H 11.1909 -3.38137 -3.51447 0
M  V30 170 H 10.1959 -5.12056 -2.00198 0
M  V30 171 H 11.4209 -6.29721 -2.54222 0
M  V30 172 H 9.3669 -4.93316 -4.32407 0
M  V30 173 H 9.2839 -6.5656 -3.74786 0
M  V30 174 H 10.5519 -6.10652 -4.84484 0
M  V30 175 N 14.781 0.264519 -1.55364 0
M  V30 176 C 16.027 0.992314 -1.77552 0
M  V30 177 C 16.382 1.83626 -0.574379 0
M  V30 178 O 15.675 1.86648 0.432782 0
M  V30 179 C 15.869 1.9004 -3.02687 0
M  V30 180 C 15.698 1.14583 -4.34857 0
M  V30 181 C 14.468 0.858068 -4.97961 0
M  V30 182 C 16.666 0.532069 -5.1154 0
M  V30 183 N 14.648 0.0775974 -6.13851 0
M  V30 184 C 16.019 -0.113823 -6.19896 0
M  V30 185 C 18.074 0.440763 -4.95945 0
M  V30 186 C 16.777 -0.842231 -7.14352 0
M  V30 187 C 18.803 -0.274072 -5.90765 0
M  V30 188 C 18.165 -0.90867 -6.98515 0
M  V30 189 H 14.264 0.344811 -0.701875 0
M  V30 190 H 16.848 0.267141 -1.92859 0
M  V30 191 H 15.019 2.59775 -2.88741 0
M  V30 192 H 16.751 2.56243 -3.13243 0
M  V30 193 H 13.506 1.16547 -4.59036 0
M  V30 194 H 13.93 -0.300216 -6.76334 0
M  V30 195 H 18.572 0.917064 -4.12735 0
M  V30 196 H 16.29 -1.33019 -7.97077 0
M  V30 197 H 19.876 -0.345151 -5.80775 0
M  V30 198 H 18.756 -1.45299 -7.70622 0
M  V30 199 N 16.2591 1.48442 0.529413 0
M  V30 200 C 17.5361 1.46978 1.29062 0
M  V30 201 C 17.9161 0.181769 2.10316 0
M  V30 202 O 17.2641 -0.836481 2.12639 0
M  V30 203 C 17.4741 2.7321 2.17157 0
M  V30 204 C 18.8221 3.21562 2.77278 0
M  V30 205 O 19.8461 2.74131 2.27444 0
M  V30 206 O 18.7051 4.04094 3.67927 0
M  V30 207 H 15.7991 0.587003 0.582543 0
M  V30 208 H 18.3451 1.60676 0.546021 0
M  V30 209 H 17.1171 3.58465 1.56903 0
M  V30 210 H 16.7401 2.62235 2.98862 0
M  V30 211 N 17.7372 -0.778329 1.37039 0
M  V30 212 C 18.9852 -1.53361 1.31623 0
M  V30 213 C 19.3062 -1.94739 -0.100831 0
M  V30 214 O 18.5762 -1.65797 -1.04347 0
M  V30 215 H 17.1562 -0.568794 0.484234 0
M  V30 216 H 19.8182 -0.926742 1.71457 0
M  V30 217 H 18.9142 -2.43606 1.95096 0
M  V30 218 N 19.2153 -1.21501 -1.00376 0
M  V30 219 C 20.1473 -0.933174 -2.09343 0
M  V30 220 C 21.1603 0.0840896 -1.62583 0
M  V30 221 O 22.3493 -0.148563 -1.77881 0
M  V30 222 C 19.4493 -0.379869 -3.36764 0
M  V30 223 C 18.6223 -1.45176 -4.12605 0
M  V30 224 C 17.6813 -0.907476 -5.18316 0
M  V30 225 O 16.7073 -1.5912 -5.46507 0
M  V30 226 N 17.9093 0.276649 -5.7984 0
M  V30 227 H 20.6743 -1.87124 -2.34104 0
M  V30 228 H 18.2353 -1.12043 -1.16867 0
M  V30 229 H 20.2273 -0.00131488 -4.047 0
M  V30 230 H 18.7973 0.463048 -3.09151 0
M  V30 231 H 18.0173 -2.00411 -3.39454 0
M  V30 232 H 19.3053 -2.17328 -4.6005 0
M  V30 233 H 18.7033 0.849147 -5.59291 0
M  V30 234 H 17.2603 0.596702 -6.49063 0
M  V30 235 N 20.6934 1.19889 -1.02296 0
M  V30 236 C 21.9214 1.9339 -0.735399 0
M  V30 237 C 22.3364 1.75148 0.704887 0
M  V30 238 O 21.6934 1.06954 1.47875 0
M  V30 239 C 21.7444 3.45313 -1.06962 0
M  V30 240 O 21.4654 3.62964 -2.45334 0
M  V30 241 C 22.9664 4.35948 -0.804021 0
M  V30 242 H 20.1864 0.61448 -0.269546 0
M  V30 243 H 22.7304 1.522 -1.36585 0
M  V30 244 H 20.8854 3.84359 -0.484455 0
M  V30 245 H 21.2994 4.56886 -2.57595 0
M  V30 246 H 22.7734 5.41174 -1.0879 0
M  V30 247 H 23.2504 4.3842 0.261691 0
M  V30 248 H 23.8564 4.02574 -1.37164 0
M  V30 249 N 22.1715 0.800033 1.35784 0
M  V30 250 C 23.5875 0.482977 1.52117 0
M  V30 251 C 23.7875 -0.996948 1.75109 0
M  V30 252 O 22.8435 -1.78216 1.78872 0
M  V30 253 C 24.1565 1.32264 2.70049 0
M  V30 254 C 25.7045 1.31742 2.83924 0
M  V30 255 C 26.1795 2.14106 4.04874 0
M  V30 256 N 27.6705 2.11607 4.12039 0
M  V30 257 C 28.4055 2.72099 5.04727 0
M  V30 258 N 27.9015 3.41492 6.02789 0
M  V30 259 N 29.6945 2.61776 4.97423 0
M  V30 260 H 21.8455 1.75856 1.19115 0
M  V30 261 H 24.1085 0.748122 0.582252 0
M  V30 262 H 23.8145 2.37261 2.59616 0
M  V30 263 H 23.6885 0.971303 3.6448 0
M  V30 264 H 26.0755 0.275333 2.93813 0
M  V30 265 H 26.1565 1.70859 1.9037 0
M  V30 266 H 25.8005 3.18351 3.95746 0
M  V30 267 H 25.7305 1.72353 4.97596 0
M  V30 268 H 28.2215 1.61112 3.41835 0
M  V30 269 H 28.5345 3.84953 6.70098 0
M  V30 270 H 26.8795 3.45596 6.02983 0
M  V30 271 H 30.0705 2.07157 4.19766 0
M  V30 272 H 30.2435 3.0921 5.69468 0
M  V30 273 N 23.6496 -1.47581 0.552962 0
M  V30 274 C 24.9266 -1.95563 -0.0381515 0
M  V30 275 C 25.3066 -1.49552 -1.48988 0
M  V30 276 O 24.6546 -0.732414 -2.16444 0
M  V30 277 C 24.8646 -3.48848 0.102919 0
M  V30 278 C 26.2126 -4.24577 -0.0446082 0
M  V30 279 O 27.2366 -3.56187 0.0302548 0
M  V30 280 O 26.0956 -5.46116 -0.204923 0
M  V30 281 H 23.1896 -0.824321 -0.0665067 0
M  V30 282 H 25.7356 -1.58001 0.619186 0
M  V30 283 H 24.5076 -3.75129 1.11328 0
M  V30 284 H 24.1306 -3.93165 -0.592224 0
M  V30 285 N 25.1277 -0.289203 -1.54924 0
M  V30 286 C 26.3767 0.324231 -1.99077 0
M  V30 287 C 26.6897 1.5591 -1.18117 0
M  V30 288 O 27.8957 2.24637 -1.52481 0
M  V30 289 C 26.3517 0.628209 -3.54375 0
M  V30 290 C 25.9597 -0.587647 -4.44129 0
M  V30 291 C 27.7037 1.20349 -4.07083 0
M  V30 292 C 25.6107 -0.257475 -5.90839 0
M  V30 293 H 24.5407 0.124924 -0.743579 0
M  V30 294 H 27.1917 -0.396063 -1.79175 0
M  V30 295 H 25.5737 1.40778 -3.70132 0
M  V30 296 H 26.7477 -1.36418 -4.40144 0
M  V30 297 H 25.0627 -1.08074 -4.0213 0
M  V30 298 H 27.6597 1.46456 -5.14252 0
M  V30 299 H 28.0027 2.14195 -3.56968 0
M  V30 300 H 28.5357 0.485889 -3.94821 0
M  V30 301 H 25.2747 -1.16419 -6.45079 0
M  V30 302 H 24.7947 0.482018 -5.9786 0
M  V30 303 H 26.4737 0.145238 -6.46837 0
M  V30 304 N 26.6058 1.57591 -0.0167156 0
M  V30 305 C 27.5688 2.08393 0.954204 0
M  V30 306 C 28.5688 0.996531 1.26198 0
M  V30 307 O 29.7588 1.25858 1.20438 0
M  V30 308 C 26.8908 2.5394 2.27436 0
M  V30 309 H 28.0838 2.95455 0.514451 0
M  V30 310 H 25.6368 1.54582 0.231089 0
M  V30 311 H 26.3718 1.70171 2.76066 0
M  V30 312 H 26.1568 3.33371 2.06412 0
M  V30 313 H 27.6468 2.93512 2.97053 0
M  V30 314 N 28.0839 -0.256276 1.55502 0
M  V30 315 C 29.3119 -1.00342 1.8094 0
M  V30 316 C 29.7269 -1.79307 0.59114 0
M  V30 317 O 29.0839 -1.77114 -0.440081 0
M  V30 318 C 29.1349 -1.94875 3.04476 0
M  V30 319 O 28.8559 -1.19107 4.21598 0
M  V30 320 C 30.3569 -2.81266 3.42644 0
M  V30 321 H 27.5769 -0.295685 0.602338 0
M  V30 322 H 30.1209 -0.281998 2.02546 0
M  V30 323 H 28.2759 -2.62457 2.84947 0
M  V30 324 H 28.6899 -1.82969 4.91551 0
M  V30 325 H 30.1639 -3.43362 4.32211 0
M  V30 326 H 30.6409 -3.51897 2.62802 0
M  V30 327 H 31.2469 -2.1915 3.64491 0
M  V30 328 N 29.562 -1.4872 -0.521534 0
M  V30 329 C 30.808 -1.58378 -1.27624 0
M  V30 330 C 31.163 -0.258028 -1.90662 0
M  V30 331 O 30.456 0.739917 -1.76736 0
M  V30 332 C 30.65 -2.66497 -2.38148 0
M  V30 333 C 30.479 -4.09456 -1.85945 0
M  V30 334 C 29.249 -4.76495 -1.68168 0
M  V30 335 C 31.447 -4.95353 -1.3831 0
M  V30 336 N 29.429 -6.0384 -1.1068 0
M  V30 337 C 30.8 -6.13012 -0.928238 0
M  V30 338 C 32.855 -4.81512 -1.26692 0
M  V30 339 C 31.558 -7.18354 -0.368701 0
M  V30 340 C 33.584 -5.86984 -0.721368 0
M  V30 341 C 32.946 -7.03857 -0.276623 0
M  V30 342 H 29.045 -0.634045 -0.457724 0
M  V30 343 H 31.629 -1.85639 -0.587049 0
M  V30 344 H 29.8 -2.41043 -3.04553 0
M  V30 345 H 31.532 -2.65791 -3.05184 0
M  V30 346 H 28.287 -4.32962 -1.91939 0
M  V30 347 H 28.711 -6.71778 -0.839217 0
M  V30 348 H 33.353 -3.91487 -1.5968 0
M  V30 349 H 31.071 -8.08096 -0.0265122 0
M  V30 350 H 34.657 -5.78329 -0.634531 0
M  V30 351 H 33.537 -7.84077 0.138947 0
M  V30 352 N 31.0401 0.771051 -1.3745 0
M  V30 353 C 31.9881 1.90574 -1.33358 0
M  V30 354 C 32.9821 1.67936 -0.22224 0
M  V30 355 O 34.1881 1.75717 -0.390304 0
M  V30 356 H 30.5631 0.626714 -0.415612 0
M  V30 357 H 32.5341 1.91142 -2.29144 0
M  V30 358 C 31.2831 3.27845 -1.15813 0
M  V30 359 H 30.6061 3.45842 -2.00583 0
M  V30 360 H 32.0461 4.07538 -1.17 0
M  V30 361 C 30.5051 3.36625 0.136165 0
M  V30 362 O 31.0351 3.85785 1.11949 0
M  V30 363 N 29.2411 2.89997 0.187099 0
M  V30 364 H 28.7881 2.50182 -0.613753 0
M  V30 365 H 28.7461 2.96252 1.05272 0
M  V30 366 N 32.5182 1.22032 0.997298 0
M  V30 367 C 33.9342 0.979326 1.26021 0
M  V30 368 C 34.1342 -0.32972 1.98784 0
M  V30 369 O 33.1902 -1.05345 2.29475 0
M  V30 370 C 34.5032 2.17509 2.07631 0
M  V30 371 C 36.0512 2.21817 2.2083 0
M  V30 372 C 36.5262 3.40933 3.05825 0
M  V30 373 N 38.0172 3.41067 3.13412 0
M  V30 374 C 38.7522 4.29885 3.79455 0
M  V30 375 N 38.2482 5.28914 4.47462 0
M  V30 376 N 40.0412 4.17673 3.76173 0
M  V30 377 H 32.1922 2.06202 0.509352 0
M  V30 378 H 34.4552 0.90334 0.287541 0
M  V30 379 H 34.1612 3.12415 1.61524 0
M  V30 380 H 34.0352 2.17206 3.08385 0
M  V30 381 H 36.4222 1.27462 2.66153 0
M  V30 382 H 36.5032 2.2616 1.1952 0
M  V30 383 H 36.1472 4.35586 2.61203 0
M  V30 384 H 36.0772 3.33829 4.07266 0
M  V30 385 H 38.5682 2.69406 2.65007 0
M  V30 386 H 38.8812 5.92973 4.95583 0
M  V30 387 H 37.2262 5.32831 4.46224 0
M  V30 388 H 40.4172 3.39564 3.22202 0
M  V30 389 H 40.5902 4.87098 4.27363 0
M  V30 390 N 33.9963 -1.19345 1.0293 0
M  V30 391 C 35.2733 -1.84811 0.640642 0
M  V30 392 C 35.6533 -1.91855 -0.88062 0
M  V30 393 O 35.0013 -1.43587 -1.7775 0
M  V30 394 C 35.2113 -3.23755 1.30321 0
M  V30 395 C 36.5593 -3.99912 1.42673 0
M  V30 396 O 37.5833 -3.33155 1.26041 0
M  V30 397 O 36.4423 -5.19494 1.6967 0
M  V30 398 H 33.5363 -0.796443 0.222726 0
M  V30 399 H 36.0823 -1.26831 1.12748 0
M  V30 400 H 34.8543 -3.13466 2.34211 0
M  V30 401 H 34.4773 -3.89381 0.804261 0
M  V30 402 N 35.4744 -0.807222 -1.35358 0
M  V30 403 C 36.4244 -0.190706 -2.27201 0
M  V30 404 C 37.4084 0.635838 -1.47804 0
M  V30 405 O 38.6004 0.492991 -1.69996 0
M  V30 406 C 35.7294 0.659337 -3.36909 0
M  V30 407 C 34.8154 -0.176971 -4.23731 0
M  V30 408 N 35.2064 -1.24029 -4.90357 0
M  V30 409 C 33.5044 0.0412953 -4.45981 0
M  V30 410 C 34.2054 -1.75092 -5.54723 0
M  V30 411 N 33.1814 -1.05727 -5.33219 0
M  V30 412 H 36.9834 -1.0043 -2.76208 0
M  V30 413 H 34.4974 -0.648445 -1.48892 0
M  V30 414 H 36.4944 1.11706 -4.01656 0
M  V30 415 H 35.1544 1.47127 -2.89454 0
M  V30 416 H 36.1654 -1.62295 -4.91814 0
M  V30 417 H 32.8424 0.82232 -4.09322 0
M  V30 418 H 34.2324 -2.63963 -6.17878 0
M  V30 419 N 36.9525 1.47285 -0.560781 0
M  V30 420 C 37.9005 2.31756 0.197942 0
M  V30 421 C 38.8945 1.43146 0.905854 0
M  V30 422 O 40.1005 1.59891 0.826733 0
M  V30 423 H 36.4755 0.747438 0.0827049 0
M  V30 424 H 38.4465 2.9359 -0.533629 0
M  V30 425 C 37.1955 3.25874 1.21249 0
M  V30 426 H 36.5185 3.94023 0.67719 0
M  V30 427 H 37.9585 3.87803 1.71419 0
M  V30 428 C 36.4175 2.49651 2.26221 0
M  V30 429 O 36.9475 2.24355 3.33208 0
M  V30 430 N 35.1535 2.10597 2.00243 0
M  V30 431 H 34.7005 2.31369 1.13252 0
M  V30 432 H 34.6585 1.59913 2.70694 0
M  V30 433 N 38.4306 0.297415 1.54768 0
M  V30 434 C 39.3606 -0.573494 2.26348 0
M  V30 435 C 40.3416 -1.14085 1.26169 0
M  V30 436 O 41.5266 -1.17086 1.54934 0
M  V30 437 C 38.6566 -1.74716 3.00153 0
M  V30 438 C 37.6106 -1.31032 4.07449 0
M  V30 439 C 36.9366 -2.56887 4.68949 0
M  V30 440 C 38.2366 -0.444183 5.20408 0
M  V30 441 H 39.9306 0.0235131 2.99391 0
M  V30 442 H 37.4766 0.0127488 1.43994 0
M  V30 443 H 39.4296 -2.3625 3.48947 0
M  V30 444 H 38.1536 -2.37035 2.24682 0
M  V30 445 H 36.8126 -0.718066 3.59499 0
M  V30 446 H 36.4606 -3.17512 3.90122 0
M  V30 447 H 36.1606 -2.2836 5.41411 0
M  V30 448 H 37.6846 -3.19229 5.20505 0
M  V30 449 H 39.0986 -0.9651 5.65118 0
M  V30 450 H 37.4956 -0.252846 5.99567 0
M  V30 451 H 38.5656 0.531609 4.81977 0
M  V30 452 N 39.9087 -1.5758 0.0250728 0
M  V30 453 C 41.1577 -1.90811 -0.653767 0
M  V30 454 C 41.4707 -0.90273 -1.73523 0
M  V30 455 O 42.6767 -1.12614 -2.47043 0
M  V30 456 C 41.1327 -3.38804 -1.21409 0
M  V30 457 C 40.7407 -4.47692 -0.166126 0
M  V30 458 C 42.4847 -3.81108 -1.86967 0
M  V30 459 C 40.3917 -5.86779 -0.737856 0
M  V30 460 H 39.3217 -0.712063 -0.247956 0
M  V30 461 H 41.9727 -1.83281 0.0897137 0
M  V30 462 H 40.3547 -3.41252 -2.00905 0
M  V30 463 H 41.5287 -4.56797 0.606079 0
M  V30 464 H 39.8437 -4.14565 0.390466 0
M  V30 465 H 42.4407 -4.82375 -2.30692 0
M  V30 466 H 42.7837 -3.15953 -2.71071 0
M  V30 467 H 43.3167 -3.81065 -1.14167 0
M  V30 468 H 40.0557 -6.55468 0.0649577 0
M  V30 469 H 39.5757 -5.81288 -1.47864 0
M  V30 470 H 41.2547 -6.35223 -1.22884 0
M  V30 471 N 41.3868 0.248026 -1.55636 0
M  V30 472 C 42.6148 0.993808 -1.81469 0
M  V30 473 C 43.0298 1.78991 -0.60064 0
M  V30 474 O 42.3868 1.77345 0.430682 0
M  V30 475 C 42.4378 1.93258 -3.05506 0
M  V30 476 O 42.1588 1.16869 -4.22224 0
M  V30 477 C 43.6598 2.79444 -3.4413 0
M  V30 478 H 40.8798 0.292486 -0.603898 0
M  V30 479 H 43.4238 0.271253 -2.02693 0
M  V30 480 H 41.5788 2.60943 -2.86335 0
M  V30 481 H 41.9928 1.80359 -4.92515 0
M  V30 482 H 43.4668 3.41066 -4.34026 0
M  V30 483 H 43.9438 3.50499 -2.64665 0
M  V30 484 H 44.5498 2.17214 -3.65648 0
M  V30 485 N 42.8649 1.48995 0.513639 0
M  V30 486 C 43.8279 1.64229 1.59879 0
M  V30 487 C 44.8279 0.514696 1.5234 0
M  V30 488 O 46.0179 0.78087 1.55718 0
M  V30 489 C 43.1499 1.62783 2.99524 0
M  V30 490 H 44.3429 2.61004 1.47705 0
M  V30 491 H 41.8959 1.37837 0.736936 0
M  V30 492 H 42.6309 0.675461 3.17188 0
M  V30 493 H 42.4159 2.4466 3.06404 0
M  V30 494 H 43.9059 1.76669 3.78388 0
M  V30 495 N 44.343 -0.763751 1.37857 0
M  V30 496 C 45.276 -1.88486 1.28639 0
M  V30 497 C 46.254 -1.61757 0.165363 0
M  V30 498 O 47.438 -1.85391 0.340948 0
M  V30 499 C 44.565 -3.23884 0.990811 0
M  V30 500 C 43.611 -3.69514 2.12983 0
M  V30 501 S 44.444 -3.82244 3.75033 0
M  V30 502 C 45.6 -5.20477 3.47641 0
M  V30 503 H 45.833 -1.96017 2.23527 0
M  V30 504 H 43.366 -0.925684 1.23574 0
M  V30 505 H 45.324 -4.02081 0.827101 0
M  V30 506 H 43.985 -3.14044 0.0592832 0
M  V30 507 H 43.178 -4.67696 1.87821 0
M  V30 508 H 42.78 -2.98441 2.25408 0
M  V30 509 H 45.072 -6.05905 3.03125 0
M  V30 510 H 46.015 -5.50655 4.4518 0
M  V30 511 H 46.423 -4.88793 2.82385 0
M  V30 512 N 45.8211 -1.22559 -0.990812 0
M  V30 513 C 46.7681 -0.997519 -2.0813 0
M  V30 514 C 47.7381 0.0814702 -1.659 0
M  V30 515 O 48.9231 -0.0685424 -1.90677 0
M  V30 516 C 46.0631 -0.583615 -3.40129 0
M  V30 517 C 45.1761 -1.7336 -3.9569 0
M  V30 518 C 44.3111 -1.26748 -5.15857 0
M  V30 519 C 43.3501 -2.38888 -5.63559 0
M  V30 520 N 42.4871 -1.93308 -6.74964 0
M  V30 521 H 47.3271 -1.93099 -2.26973 0
M  V30 522 H 44.8641 -0.962114 -1.11273 0
M  V30 523 H 46.8221 -0.324801 -4.15934 0
M  V30 524 H 45.4521 0.312845 -3.2128 0
M  V30 525 H 44.5041 -2.10669 -3.16738 0
M  V30 526 H 45.8161 -2.57704 -4.27071 0
M  V30 527 H 44.9701 -0.966173 -5.98957 0
M  V30 528 H 43.7091 -0.394272 -4.86104 0
M  V30 529 H 42.7141 -2.69805 -4.79046 0
M  V30 530 H 43.9391 -3.26728 -5.95336 0
M  V30 531 H 41.8851 -1.08352 -6.4699 0
M  V30 532 H 41.8021 -2.71217 -7.05675 0
M  V30 533 H 43.0701 -1.66252 -7.61564 0
M  V30 534 N 47.2992 1.18797 -1.03562 0
M  V30 535 C 48.5292 1.92319 -0.754773 0
M  V30 536 C 48.9372 1.7612 0.691248 0
M  V30 537 O 48.2802 1.08491 1.48241 0
M  V30 538 C 48.3422 3.44284 -1.03484 0
M  V30 539 C 48.0062 3.84258 -2.47376 0
M  V30 540 C 49.0032 3.88459 -3.45537 0
M  V30 541 C 46.6882 4.15701 -2.81954 0
M  V30 542 C 48.6822 4.23545 -4.76328 0
M  V30 543 C 46.3692 4.50458 -4.12954 0
M  V30 544 C 47.3672 4.54356 -5.09951 0
M  V30 545 O 47.0552 4.88305 -6.38603 0
M  V30 546 H 46.7872 0.617527 -0.275021 0
M  V30 547 H 49.3412 1.51683 -1.38497 0
M  V30 548 H 47.5712 3.85135 -0.347513 0
M  V30 549 H 49.2602 3.99049 -0.7426 0
M  V30 550 H 50.0262 3.6431 -3.20162 0
M  V30 551 H 45.9052 4.11847 -2.0713 0
M  V30 552 H 49.4492 4.26502 -5.52035 0
M  V30 553 H 45.3462 4.74067 -4.38099 0
M  V30 554 H 46.1142 5.06227 -6.43177 0
M  V30 555 N 48.7773 0.814389 1.34928 0
M  V30 556 C 50.0023 0.410097 2.03305 0
M  V30 557 C 50.4273 -0.973464 1.60951 0
M  V30 558 O 49.7853 -1.63185 0.789964 0
M  V30 559 C 49.8333 0.51049 3.56968 0
M  V30 560 O 48.9373 -0.473035 4.09678 0
M  V30 561 H 48.2783 0.170088 0.641846 0
M  V30 562 H 50.8083 1.10244 1.72358 0
M  V30 563 H 50.8183 0.383135 4.06197 0
M  V30 564 H 49.4933 1.51963 3.87144 0
M  V30 565 H 48.0703 -0.305272 3.71648 0
M  V30 566 N 50.2554 -1.46986 0.568584 0
M  V30 567 C 51.5014 -2.02741 0.0488709 0
M  V30 568 C 51.8344 -1.44077 -1.30214 0
M  V30 569 O 51.1094 -0.600552 -1.84996 0
M  V30 570 C 51.3924 -3.60086 -0.032047 0
M  V30 571 C 51.2454 -4.29162 1.34686 0
M  V30 572 C 52.5644 -4.33838 -0.739798 0
M  V30 573 H 49.6834 -0.736749 0.0192338 0
M  V30 574 H 52.3254 -1.75289 0.733065 0
M  V30 575 H 50.4754 -3.83606 -0.61473 0
M  V30 576 H 52.1474 -4.16948 1.97362 0
M  V30 577 H 50.3904 -3.89073 1.91846 0
M  V30 578 H 51.0614 -5.37826 1.24285 0
M  V30 579 H 53.5374 -4.15378 -0.244939 0
M  V30 580 H 52.4134 -5.43537 -0.765406 0
M  V30 581 H 52.6744 -4.03875 -1.79827 0
M  V30 582 N 51.7335 -0.305618 -1.54608 0
M  V30 583 C 52.9795 0.302746 -2.00528 0
M  V30 584 C 53.3125 1.53184 -1.19367 0
M  V30 585 O 52.5875 1.92598 -0.271321 0
M  V30 586 C 52.8705 0.654756 -3.54097 0
M  V30 587 C 52.7235 -0.583793 -4.45995 0
M  V30 588 C 54.0425 1.47947 -4.14487 0
M  V30 589 H 51.1615 0.108564 -0.72896 0
M  V30 590 H 53.8035 -0.418634 -1.85331 0
M  V30 591 H 51.9535 1.26935 -3.67178 0
M  V30 592 H 53.6255 -1.22224 -4.44814 0
M  V30 593 H 51.8685 -1.21615 -4.16404 0
M  V30 594 H 52.5395 -0.293287 -5.5122 0
M  V30 595 H 55.0155 0.96013 -4.04871 0
M  V30 596 H 53.8915 1.69454 -5.22088 0
M  V30 597 H 54.1525 2.47011 -3.66658 0
M  V30 598 N 53.2116 1.57565 -0.0334293 0
M  V30 599 C 54.6226 1.79746 0.504798 0
M  V30 600 C 54.9736 0.944091 1.71992 0
M  V30 601 O 54.0986 0.155694 2.15839 0
M  V30 602 C 54.6936 3.25997 0.922567 0
M  V30 603 C 53.2526 3.49159 1.40588 0
M  V30 604 C 52.3996 2.74785 0.372633 0
M  V30 605 H 55.3506 1.56565 -0.259436 0
M  V30 606 H 55.3716 3.35945 1.78666 0
M  V30 607 H 54.8836 3.88081 0.0379825 0
M  V30 608 H 52.9846 2.92332 2.31025 0
M  V30 609 H 53.0976 4.57873 1.41028 0
M  V30 610 H 51.4616 2.40391 0.841672 0
M  V30 611 H 52.2446 3.39587 -0.503559 0
M  V30 612 N 54.6897 -0.239769 1.55765 0
M  V30 613 C 55.9357 -0.968234 1.78194 0
M  V30 614 C 56.2687 -1.84701 0.599938 0
M  V30 615 O 55.5437 -1.9031 -0.401524 0
M  V30 616 C 55.8267 -1.8227 3.10564 0
M  V30 617 C 55.6797 -0.971633 4.3918 0
M  V30 618 C 56.9987 -2.80388 3.39221 0
M  V30 619 H 54.1177 -0.350572 0.648281 0
M  V30 620 H 56.7597 -0.238259 1.885 0
M  V30 621 H 54.9097 -2.44507 3.01908 0
M  V30 622 H 56.5817 -0.367408 4.59835 0
M  V30 623 H 54.8247 -0.276276 4.32919 0
M  V30 624 H 55.4957 -1.60346 5.28198 0
M  V30 625 H 57.9717 -2.28287 3.47885 0
M  V30 626 H 56.8477 -3.3729 4.33044 0
M  V30 627 H 57.1087 -3.57212 2.60484 0
M  V30 628 N 56.1678 -1.49265 -0.50573 0
M  V30 629 C 57.3978 -1.61979 -1.28243 0
M  V30 630 C 57.8058 -0.288576 -1.86986 0
M  V30 631 O 57.1488 0.735408 -1.68337 0
M  V30 632 C 57.2108 -2.62632 -2.45489 0
M  V30 633 C 56.8748 -4.071 -2.07651 0
M  V30 634 C 57.8718 -4.94049 -1.61901 0
M  V30 635 C 55.5568 -4.52801 -2.17431 0
M  V30 636 C 57.5508 -6.24736 -1.26428 0
M  V30 637 C 55.2378 -5.83503 -1.8157 0
M  V30 638 C 56.2358 -6.69294 -1.36142 0
M  V30 639 O 55.9238 -7.9756 -1.00764 0
M  V30 640 H 55.6558 -0.54834 -0.395347 0
M  V30 641 H 58.2098 -1.96002 -0.614204 0
M  V30 642 H 56.4398 -2.2378 -3.15372 0
M  V30 643 H 58.1288 -2.64925 -3.07522 0
M  V30 644 H 58.8948 -4.5997 -1.53795 0
M  V30 645 H 54.7738 -3.86196 -2.51742 0
M  V30 646 H 58.3178 -6.91652 -0.908992 0
M  V30 647 H 54.2148 -6.17112 -1.89324 0
M  V30 648 H 54.9828 -8.10529 -1.13952 0
M  V30 649 N 57.6459 0.756429 -1.3826 0
M  V30 650 C 58.5779 1.87971 -1.31147 0
M  V30 651 C 59.5909 1.61248 -0.224239 0
M  V30 652 O 60.7799 1.71881 -0.481581 0
M  V30 653 C 57.8799 3.23545 -1.00857 0
M  V30 654 C 57.0529 3.77794 -2.20432 0
M  V30 655 C 56.1119 4.91877 -1.86931 0
M  V30 656 O 55.1379 5.06659 -2.59395 0
M  V30 657 N 56.3399 5.74643 -0.822568 0
M  V30 658 H 59.1049 1.94585 -2.2794 0
M  V30 659 H 56.6659 0.936234 -1.32084 0
M  V30 660 H 58.6579 3.97403 -0.765021 0
M  V30 661 H 57.2279 3.12335 -0.128687 0
M  V30 662 H 56.4479 2.95534 -2.6087 0
M  V30 663 H 57.7359 4.10771 -3.00241 0
M  V30 664 H 57.1339 5.65266 -0.221575 0
M  V30 665 H 55.6909 6.48661 -0.638899 0
M  V30 666 N 59.124 1.23083 0.984299 0
M  V30 667 C 60.034 1.02515 2.11016 0
M  V30 668 C 61.05 -0.0291702 1.73976 0
M  V30 669 O 62.226 0.165434 2.00719 0
M  V30 670 C 59.291 0.614673 3.41208 0
M  V30 671 C 58.352 1.74359 3.92297 0
M  V30 672 C 57.585 1.35261 5.16275 0
M  V30 673 O 57.808 0.235136 5.69915 0
M  V30 674 O 56.742 2.17227 5.61334 0
M  V30 675 H 60.568 1.96862 2.31255 0
M  V30 676 H 58.153 1.01753 1.09392 0
M  V30 677 H 60.035 0.396518 4.1953 0
M  V30 678 H 58.71 -0.299851 3.22308 0
M  V30 679 H 57.617 2.01635 3.1511 0
M  V30 680 H 58.95 2.63629 4.15645 0
M  V30 681 N 60.6021 -1.18246 1.0419 0
M  V30 682 C 61.8491 -1.88257 0.746017 0
M  V30 683 C 62.1771 -1.80429 -0.726331 0
M  V30 684 O 61.4321 -1.2 -1.54591 0
M  V30 685 C 61.7311 -3.38082 1.15911 0
M  V30 686 C 61.3971 -3.66114 2.63195 0
M  V30 687 C 60.0591 -3.73474 3.03432 0
M  V30 688 C 62.4111 -3.78398 3.5842 0
M  V30 689 C 59.7391 -3.90599 4.37778 0
M  V30 690 C 62.0911 -3.97039 4.92487 0
M  V30 691 C 60.7551 -4.02635 5.32392 0
M  V30 692 H 60.0251 -0.688883 0.272987 0
M  V30 693 H 62.6721 -1.3995 1.30715 0
M  V30 694 H 60.9771 -3.88377 0.516806 0
M  V30 695 H 62.6741 -3.90596 0.907516 0
M  V30 696 H 59.2641 -3.61003 2.3103 0
M  V30 697 H 63.4481 -3.72042 3.28479 0
M  V30 698 H 58.7041 -3.93175 4.68213 0
M  V30 699 H 62.8781 -4.05486 5.66175 0
M  V30 700 H 60.5051 -4.15657 6.36501 0
M  V30 701 N 62.0802 -0.821533 -1.34494 0
M  V30 702 C 63.0432 -0.247847 -2.27856 0
M  V30 703 C 64.0432 0.573453 -1.50227 0
M  V30 704 O 65.2332 0.389759 -1.69784 0
M  V30 705 C 62.3652 0.652698 -3.34593 0
M  V30 706 H 63.5582 -1.07146 -2.80107 0
M  V30 707 H 61.1112 -0.593291 -1.44602 0
M  V30 708 H 61.8462 1.49943 -2.87555 0
M  V30 709 H 61.6312 0.065292 -3.92046 0
M  V30 710 H 63.1212 1.04793 -4.04238 0
M  V30 711 N 63.5583 1.46682 -0.576371 0
M  V30 712 C 64.9743 1.57822 -0.237562 0
M  V30 713 C 65.1743 1.57237 1.26011 0
M  V30 714 O 64.2303 1.48596 2.04146 0
M  V30 715 C 65.5433 2.87499 -0.881168 0
M  V30 716 C 67.0913 3.01119 -0.85417 0
M  V30 717 C 67.5663 4.33524 -1.4772 0
M  V30 718 N 69.0573 4.40207 -1.44125 0
M  V30 719 C 69.7923 5.4126 -1.89276 0
M  V30 720 N 69.2883 6.49021 -2.42371 0
M  V30 721 N 71.0813 5.32422 -1.80231 0
M  V30 722 H 63.2323 1.45306 -1.54919 0
M  V30 723 H 65.4953 0.692733 -0.647167 0
M  V30 724 H 65.2013 2.9372 -1.93447 0
M  V30 725 H 65.0753 3.75224 -0.385592 0
M  V30 726 H 67.4623 2.94485 0.190491 0
M  V30 727 H 67.5433 2.14887 -1.3877 0
M  V30 728 H 67.1873 4.40916 -2.52103 0
M  V30 729 H 67.1173 5.1852 -0.918947 0
M  V30 730 H 69.6083 3.62931 -1.05307 0
M  V30 731 H 69.9213 7.2233 -2.74698 0
M  V30 732 H 68.2663 6.49858 -2.46393 0
M  V30 733 H 71.4573 4.47137 -1.38514 0
M  V30 734 H 71.6303 6.11034 -2.15735 0
M  V30 735 N 65.0364 0.313813 1.54444 0
M  V30 736 C 65.9684 -0.590425 2.21465 0
M  V30 737 C 66.9814 -1.08753 1.21147 0
M  V30 738 O 68.1704 -1.00278 1.4767 0
M  V30 739 C 65.2704 -1.82179 2.85769 0
M  V30 740 C 64.4434 -1.46502 4.12136 0
M  V30 741 C 63.5024 -2.55288 4.60124 0
M  V30 742 O 62.5284 -2.19842 5.25032 0
M  V30 743 N 63.7304 -3.86053 4.33525 0
M  V30 744 H 66.4954 -0.0166033 2.99695 0
M  V30 745 H 64.0564 0.136578 1.61323 0
M  V30 746 H 66.0484 -2.54328 3.14801 0
M  V30 747 H 64.6184 -2.30369 2.11303 0
M  V30 748 H 63.8384 -0.575595 3.89975 0
M  V30 749 H 65.1264 -1.20221 4.94393 0
M  V30 750 H 64.5244 -4.17654 3.81552 0
M  V30 751 H 63.0814 -4.54461 4.67235 0
M  V30 752 N 66.5145 -1.57545 0.0417849 0
M  V30 753 C 67.7635 -1.91494 -0.633492 0
M  V30 754 C 68.0765 -0.921084 -1.72556 0
M  V30 755 O 69.2825 -1.15228 -2.45835 0
M  V30 756 C 67.7385 -3.40072 -1.17808 0
M  V30 757 C 67.3465 -4.47843 -0.118633 0
M  V30 758 C 69.0905 -3.8307 -1.82915 0
M  V30 759 C 66.9975 -5.87529 -0.675578 0
M  V30 760 H 65.9275 -0.714653 -0.24039 0
M  V30 761 H 68.5785 -1.83175 0.109148 0
M  V30 762 H 66.9605 -3.43364 -1.97274 0
M  V30 763 H 68.1345 -4.56128 0.654494 0
M  V30 764 H 66.4495 -4.14128 0.434414 0
M  V30 765 H 69.0465 -4.84794 -2.25563 0
M  V30 766 H 69.3895 -3.1881 -2.67705 0
M  V30 767 H 69.9225 -3.82255 -1.10119 0
M  V30 768 H 66.6615 -6.55362 0.134475 0
M  V30 769 H 66.1815 -5.82824 -1.4169 0
M  V30 770 H 67.8605 -6.36491 -1.1614 0
M  V30 771 N 67.9926 0.231505 -1.5589 0
M  V30 772 C 69.2406 0.955461 -1.78088 0
M  V30 773 C 69.5616 1.85262 -0.608533 0
M  V30 774 O 68.8316 1.92277 0.375035 0
M  V30 775 H 67.4116 0.355787 -0.656829 0
M  V30 776 H 70.0736 0.245751 -1.93344 0
M  V30 777 H 69.1696 1.56814 -2.69844 0
M  V30 778 N 69.4707 1.49531 0.497807 0
M  V30 779 C 70.3807 1.69176 1.62532 0
M  V30 780 C 71.3967 0.5744 1.64246 0
M  V30 781 O 72.5727 0.849497 1.82608 0
M  V30 782 C 69.6377 1.75695 2.98885 0
M  V30 783 C 68.6987 2.9929 3.07773 0
M  V30 784 C 67.9317 3.05488 4.37622 0
M  V30 785 O 68.1547 2.19192 5.26603 0
M  V30 786 O 67.0887 3.9798 4.51548 0
M  V30 787 H 70.9147 2.647 1.48887 0
M  V30 788 H 68.4997 1.3331 0.674441 0
M  V30 789 H 70.3817 1.82317 3.79919 0
M  V30 790 H 69.0567 0.8335 3.12785 0
M  V30 791 H 67.9637 2.98183 2.25915 0
M  V30 792 H 69.2967 3.91125 2.98801 0
M  V30 793 N 70.9488 -0.749086 1.3866 0
M  V30 794 C 71.9118 -1.84457 1.36045 0
M  V30 795 C 72.9118 -1.58682 0.260122 0
M  V30 796 O 74.1018 -1.66343 0.517261 0
M  V30 797 C 71.2338 -3.22008 1.11911 0
M  V30 798 H 72.4268 -1.88182 2.33512 0
M  V30 799 H 69.9798 -0.951266 1.24019 0
M  V30 800 H 70.7148 -3.2395 0.150686 0
M  V30 801 H 70.4998 -3.42111 1.91579 0
M  V30 802 H 71.9898 -4.0208 1.12788 0
M  V30 803 N 72.4269 -1.23603 -0.977757 0
M  V30 804 C 73.8429 -0.999251 -1.24447 0
M  V30 805 C 74.0429 0.298053 -1.99283 0
M  V30 806 O 73.0989 1.01681 -2.31122 0
M  V30 807 C 74.4119 -2.20784 -2.04144 0
M  V30 808 C 75.9599 -2.25303 -2.17273 0
M  V30 809 C 76.4349 -3.45755 -3.00362 0
M  V30 810 N 77.9259 -3.4601 -3.07947 0
M  V30 811 C 78.6609 -4.35868 -3.72568 0
M  V30 812 N 78.1569 -5.35966 -4.38991 0
M  V30 813 N 79.9499 -4.23605 -3.6948 0
M  V30 814 H 72.1009 -2.06986 -0.476483 0
M  V30 815 H 74.3639 -0.907801 -0.273134 0
M  V30 816 H 74.0699 -3.14945 -1.56533 0
M  V30 817 H 73.9439 -2.22085 -3.04891 0
M  V30 818 H 76.3309 -1.3168 -2.64092 0
M  V30 819 H 76.4119 -2.28033 -1.15907 0
M  V30 820 H 76.0559 -4.39687 -2.5424 0
M  V30 821 H 75.9859 -3.40266 -4.01904 0
M  V30 822 H 78.4769 -2.73588 -2.60688 0
M  V30 823 H 78.7899 -6.00783 -4.86086 0
M  V30 824 H 77.1349 -5.39863 -4.37691 0
M  V30 825 H 80.3259 -3.44647 -3.16759 0
M  V30 826 H 80.4989 -4.93836 -4.1956 0
M  V30 827 N 73.905 1.17692 -1.04816 0
M  V30 828 C 74.838 2.20436 -0.590173 0
M  V30 829 C 75.816 1.58115 0.379244 0
M  V30 830 O 77 1.86228 0.291762 0
M  V30 831 C 74.127 3.38424 0.136817 0
M  V30 832 C 73.173 4.19176 -0.787023 0
M  V30 833 S 74.006 4.84815 -2.27409 0
M  V30 834 C 75.162 6.06195 -1.55817 0
M  V30 835 H 75.395 2.58944 -1.46067 0
M  V30 836 H 72.928 1.28246 -0.859784 0
M  V30 837 H 74.886 4.06798 0.550076 0
M  V30 838 H 73.547 2.98312 0.983299 0
M  V30 839 H 72.74 5.03499 -0.224681 0
M  V30 840 H 72.342 3.56219 -1.13947 0
M  V30 841 H 74.634 6.72078 -0.855387 0
M  V30 842 H 75.577 6.6695 -2.37873 0
M  V30 843 H 75.985 5.54701 -1.04722 0
M  V30 844 N 75.3831 0.828654 1.34056 0
M  V30 845 C 76.6081 0.431637 2.02859 0
M  V30 846 C 77.0331 -0.956339 1.61975 0
M  V30 847 O 76.3911 -1.62338 0.807228 0
M  V30 848 C 76.4391 0.548323 3.56407 0
M  V30 849 O 75.5431 -0.429556 4.10157 0
M  V30 850 H 74.8841 0.176886 0.640006 0
M  V30 851 H 77.4141 1.12066 1.71179 0
M  V30 852 H 77.4241 0.426196 4.05768 0
M  V30 853 H 76.0991 1.5606 3.8551 0
M  V30 854 H 74.6761 -0.265836 3.71951 0
M  V30 855 N 76.8612 -1.46375 0.584142 0
M  V30 856 C 77.8082 -2.30323 -0.148286 0
M  V30 857 C 78.7782 -1.40703 -0.882713 0
M  V30 858 O 79.9632 -1.69651 -0.873099 0
M  V30 859 C 77.1032 -3.25196 -1.15507 0
M  V30 860 C 76.2162 -4.29915 -0.423943 0
M  V30 861 C 75.3512 -5.11914 -1.41838 0
M  V30 862 C 74.3902 -6.08381 -0.673736 0
M  V30 863 N 73.5272 -6.83242 -1.6163 0
M  V30 864 H 78.3672 -2.92427 0.573644 0
M  V30 865 H 75.9042 -1.44118 0.294703 0
M  V30 866 H 77.8622 -3.78646 -1.75166 0
M  V30 867 H 76.4922 -2.64898 -1.8447 0
M  V30 868 H 75.5442 -3.7931 0.287714 0
M  V30 869 H 76.8562 -4.98549 0.158128 0
M  V30 870 H 76.0102 -5.69648 -2.08773 0
M  V30 871 H 74.7492 -4.43243 -2.03438 0
M  V30 872 H 73.7542 -5.49799 0.00938483 0
M  V30 873 H 74.9792 -6.79071 -0.0631082 0
M  V30 874 H 72.9252 -6.1728 -2.22038 0
M  V30 875 H 72.8422 -7.48144 -1.08707 0
M  V30 876 H 74.1102 -7.45534 -2.27596 0
M  V30 877 N 78.3393 -0.321999 -1.54275 0
M  V30 878 C 79.2723 0.58718 -2.20516 0
M  V30 879 C 80.2503 1.11693 -1.18167 0
M  V30 880 O 81.4343 1.18122 -1.46899 0
M  V30 881 C 78.5613 1.80554 -2.86562 0
M  V30 882 C 77.6073 1.40718 -4.02617 0
M  V30 883 S 78.4403 0.445218 -5.33646 0
M  V30 884 C 79.5963 1.6709 -6.03185 0
M  V30 885 H 79.8293 0.0244875 -2.9729 0
M  V30 886 H 77.3623 -0.106087 -1.54035 0
M  V30 887 H 79.3203 2.50462 -3.25237 0
M  V30 888 H 77.9813 2.33942 -2.09595 0
M  V30 889 H 77.1743 2.31501 -4.47687 0
M  V30 890 H 76.7763 0.78782 -3.65608 0
M  V30 891 H 79.0683 2.60856 -6.25268 0
M  V30 892 H 80.0113 1.26239 -6.96756 0
M  V30 893 H 80.4193 1.85716 -5.33076 0
M  V30 894 N 79.8174 1.5752 -0.0501392 0
M  V30 895 C 80.7474 2.14502 0.922566 0
M  V30 896 C 81.7284 1.06642 1.3252 0
M  V30 897 O 82.9134 1.34577 1.4001 0
M  V30 898 C 80.0434 2.68916 2.19776 0
M  V30 899 C 78.9974 3.8175 1.93523 0
M  V30 900 C 78.3234 4.22677 3.27487 0
M  V30 901 C 79.6234 5.06932 1.25765 0
M  V30 902 H 81.3174 2.9603 0.447952 0
M  V30 903 H 78.8634 1.42401 0.214024 0
M  V30 904 H 80.8164 3.07419 2.88222 0
M  V30 905 H 79.5404 1.84578 2.69441 0
M  V30 906 H 78.1994 3.43718 1.27489 0
M  V30 907 H 77.8474 3.35291 3.74952 0
M  V30 908 H 77.5474 4.98725 3.1072 0
M  V30 909 H 79.0714 4.63779 3.97166 0
M  V30 910 H 80.4854 5.42888 1.84244 0
M  V30 911 H 78.8824 5.88116 1.19328 0
M  V30 912 H 79.9524 4.84337 0.233536 0
M  V30 913 N 81.2955 -0.223234 1.56011 0
M  V30 914 C 82.2455 -1.28008 1.88674 0
M  V30 915 C 83.2295 -1.42369 0.749663 0
M  V30 916 O 84.4215 -1.45212 1.01205 0
M  V30 917 C 81.5505 -2.63084 2.20548 0
M  V30 918 C 80.6365 -2.52632 3.40643 0
M  V30 919 N 81.0275 -2.11829 4.59306 0
M  V30 920 C 79.3255 -2.83594 3.44224 0
M  V30 921 C 80.0265 -2.12587 5.41463 0
M  V30 922 N 79.0025 -2.5301 4.81131 0
M  V30 923 H 82.8045 -0.955487 2.77935 0
M  V30 924 H 80.3185 -0.431801 1.56554 0
M  V30 925 H 82.3155 -3.39385 2.42122 0
M  V30 926 H 80.9755 -2.96391 1.32599 0
M  V30 927 H 81.9865 -1.82988 4.84496 0
M  V30 928 H 78.6635 -3.21284 2.66614 0
M  V30 929 H 80.0535 -1.83179 6.46448 0
M  V30 930 N 82.7736 -1.49793 -0.48987 0
M  V30 931 C 83.7366 -1.66752 -1.57246 0
M  V30 932 C 84.7366 -0.538867 -1.51502 0
M  V30 933 O 85.9266 -0.805545 -1.54456 0
M  V30 934 C 83.0586 -1.67528 -2.96896 0
M  V30 935 H 84.2516 -2.63321 -1.43534 0
M  V30 936 H 81.8046 -1.38992 -0.714914 0
M  V30 937 H 82.5396 -0.725837 -3.16073 0
M  V30 938 H 82.3246 -2.49504 -3.02473 0
M  V30 939 H 83.8146 -1.82667 -3.7553 0
M  V30 940 N 84.2517 0.741722 -1.39055 0
M  V30 941 C 85.4987 1.50114 -1.35912 0
M  V30 942 C 85.8267 1.94443 0.0470937 0
M  V30 943 O 85.0817 1.66612 1.02659 0
M  V30 944 C 85.3807 2.7592 -2.27163 0
M  V30 945 C 85.0467 2.50493 -3.74919 0
M  V30 946 C 83.7087 2.43267 -4.1518 0
M  V30 947 C 86.0607 2.28585 -4.684 0
M  V30 948 C 83.3887 2.12166 -5.46994 0
M  V30 949 C 85.7407 1.99002 -6.00484 0
M  V30 950 C 84.4047 1.90241 -6.39816 0
M  V30 951 H 83.6747 0.549306 -0.497336 0
M  V30 952 H 86.3217 0.851896 -1.71508 0
M  V30 953 H 84.6267 3.45553 -1.84663 0
M  V30 954 H 86.3237 3.33923 -2.22028 0
M  V30 955 H 82.9137 2.56992 -3.43006 0
M  V30 956 H 87.0977 2.33139 -4.38132 0
M  V30 957 H 82.3537 2.03901 -5.76398 0
M  V30 958 H 86.5277 1.81057 -6.72452 0
M  V30 959 H 84.1547 1.65907 -7.41875 0
M  V30 960 N 85.7298 1.2412 0.971189 0
M  V30 961 C 87.0068 0.986867 1.6888 0
M  V30 962 C 87.3868 -0.491857 2.0529 0
M  V30 963 O 86.7348 -1.46531 1.75331 0
M  V30 964 C 86.9448 1.9063 2.92338 0
M  V30 965 C 88.2928 2.17515 3.64654 0
M  V30 966 O 89.3168 1.88254 3.02388 0
M  V30 967 O 88.1758 2.6719 4.7673 0
M  V30 968 H 85.2698 0.372944 0.738134 0
M  V30 969 H 87.8158 1.35203 1.02559 0
M  V30 970 H 86.5878 2.90552 2.62097 0
M  V30 971 H 86.2108 1.54408 3.66393 0
M  V30 972 N 87.2079 -1.17134 1.05439 0
M  V30 973 C 88.4379 -1.91094 0.785274 0
M  V30 974 C 88.8459 -1.77198 -0.663142 0
M  V30 975 O 88.1889 -1.10835 -1.46497 0
M  V30 976 C 88.2509 -3.42594 1.08949 0
M  V30 977 C 87.9149 -3.80274 2.53458 0
M  V30 978 C 88.9119 -3.82912 3.51673 0
M  V30 979 C 86.5969 -4.11162 2.88532 0
M  V30 980 C 88.5909 -4.15913 4.83006 0
M  V30 981 C 86.2779 -4.43831 4.20068 0
M  V30 982 C 87.2759 -4.46185 5.17115 0
M  V30 983 O 86.9639 -4.78083 6.46291 0
M  V30 984 H 86.6959 -0.613073 0.284811 0
M  V30 985 H 89.2499 -1.49461 1.40893 0
M  V30 986 H 87.4799 -3.84534 0.408741 0
M  V30 987 H 89.1689 -3.97817 0.805991 0
M  V30 988 H 89.9349 -3.5917 3.25917 0
M  V30 989 H 85.8139 -4.085 2.13656 0
M  V30 990 H 89.3579 -4.17665 5.5875 0
M  V30 991 H 85.2549 -4.67037 4.45586 0
M  V30 992 H 86.0229 -4.9593 6.51149 0
M  V30 993 N 88.686 -0.835752 -1.33615 0
M  V30 994 C 89.934 -0.429109 -1.97492 0
M  V30 995 C 90.255 1.01433 -1.66543 0
M  V30 996 O 89.525 1.70611 -0.962744 0
M  V30 997 H 88.105 -0.155686 -0.730596 0
M  V30 998 H 90.767 -1.06802 -1.63031 0
M  V30 999 H 89.863 -0.55861 -3.0706 0
M  V30 1000 N 90.1641 1.46063 -0.591896 0
M  V30 1001 C 91.1121 2.32124 0.148739 0
M  V30 1002 C 92.1061 1.45035 0.875286 0
M  V30 1003 O 93.3121 1.61609 0.792632 0
M  V30 1004 H 89.6871 0.749024 0.066832 0
M  V30 1005 H 91.6581 2.92392 -0.595783 0
M  V30 1006 C 90.4071 3.28373 1.1431 0
M  V30 1007 H 89.7301 3.95371 0.59346 0
M  V30 1008 H 91.1701 3.91352 1.63155 0
M  V30 1009 C 89.6291 2.54393 2.20875 0
M  V30 1010 O 90.1591 2.31373 3.28374 0
M  V30 1011 N 88.3651 2.14797 1.95731 0
M  V30 1012 H 87.9121 2.33719 1.08319 0
M  V30 1013 H 87.8701 1.65619 2.67241 0
M  V30 1014 N 91.6422 0.330177 1.54103 0
M  V30 1015 C 92.5522 -0.541534 2.28264 0
M  V30 1016 C 93.5682 -1.12351 1.32866 0
M  V30 1017 O 94.7442 -1.14206 1.65888 0
M  V30 1018 C 91.8092 -1.68322 3.03098 0
M  V30 1019 C 90.8702 -1.13238 4.14096 0
M  V30 1020 C 90.1032 -2.21966 4.85352 0
M  V30 1021 O 90.3262 -3.42437 4.56172 0
M  V30 1022 O 89.2602 -1.87013 5.7211 0
M  V30 1023 H 93.0862 0.060938 3.03639 0
M  V30 1024 H 90.6712 0.09565 1.49093 0
M  V30 1025 H 92.5532 -2.34777 3.49939 0
M  V30 1026 H 91.2282 -2.27176 2.30593 0
M  V30 1027 H 90.1352 -0.432736 3.71589 0
M  V30 1028 H 91.4682 -0.588898 4.88664 0
M  V30 1029 N 93.1203 -1.57491 0.0584922 0
M  V30 1030 C 94.3973 -1.84346 -0.653918 0
M  V30 1031 C 94.7773 -0.948355 -1.88599 0
M  V30 1032 O 94.1253 -0.0112403 -2.28497 0
M  V30 1033 C 94.3353 -3.34239 -1.00425 0
M  V30 1034 C 95.6833 -4.01431 -1.38342 0
M  V30 1035 O 96.7073 -3.38907 -1.09637 0
M  V30 1036 O 95.5663 -5.11683 -1.91943 0
M  V30 1037 H 92.6603 -0.761112 -0.323478 0
M  V30 1038 H 95.2063 -1.6947 0.0884125 0
M  V30 1039 H 93.9783 -3.91089 -0.128625 0
M  V30 1040 H 93.6013 -3.54329 -1.80378 0
M  V30 1041 N 94.5984 0.214957 -1.56127 0
M  V30 1042 C 95.8474 0.936451 -1.78643 0
M  V30 1043 C 96.1604 1.85237 -0.628229 0
M  V30 1044 O 97.3664 2.613 -0.737186 0
M  V30 1045 C 95.8224 1.7154 -3.16389 0
M  V30 1046 C 95.4304 0.845299 -4.39953 0
M  V30 1047 C 97.1744 2.42772 -3.48227 0
M  V30 1048 C 95.0814 1.62198 -5.68723 0
M  V30 1049 H 94.0114 0.353401 -0.666051 0
M  V30 1050 H 96.6624 0.190169 -1.82512 0
M  V30 1051 H 95.0444 2.50484 -3.06715 0
M  V30 1052 H 96.2184 0.0959353 -4.607 0
M  V30 1053 H 94.5334 0.244789 -4.1568 0
M  V30 1054 H 97.1304 3.01394 -4.41663 0
M  V30 1055 H 97.4734 3.15984 -2.71035 0
M  V30 1056 H 98.0064 1.70813 -3.5926 0
M  V30 1057 H 94.7454 0.933011 -6.48826 0
M  V30 1058 H 94.2654 2.34579 -5.52026 0
M  V30 1059 H 95.9444 2.18095 -6.09133 0
M  V30 1060 N 96.0765 1.50051 0.48192 0
M  V30 1061 C 97.3015 1.64508 1.26301 0
M  V30 1062 C 97.7265 0.323851 1.85291 0
M  V30 1063 O 97.0845 -0.710969 1.66778 0
M  V30 1064 C 97.1325 2.7305 2.35533 0
M  V30 1065 O 96.2365 2.3355 3.39895 0
M  V30 1066 H 95.5775 0.549978 0.372048 0
M  V30 1067 H 98.1075 1.9636 0.574786 0
M  V30 1068 H 98.1175 2.95799 2.8101 0
M  V30 1069 H 96.7925 3.68946 1.91967 0
M  V30 1070 H 95.3695 2.21205 3.00204 0
M  V30 1071 N 97.5546 -0.734337 1.39446 0
M  V30 1072 C 98.8026 -1.49096 1.36436 0
M  V30 1073 C 99.1236 -1.94961 -0.0388255 0
M  V30 1074 O 98.3936 -1.69033 -0.990191 0
M  V30 1075 H 96.9736 -0.5531 0.502085 0
M  V30 1076 H 99.6356 -0.871725 1.74319 0
M  V30 1077 H 98.7316 -2.37276 2.02747 0
M  V30 1078 N 99.0327 -1.24633 -0.964593 0
M  V30 1079 C 99.9807 -1.03917 -2.08096 0
M  V30 1080 C 100.975 0.0268581 -1.69379 0
M  V30 1081 O 102.181 -0.127952 -1.79545 0
M  V30 1082 H 98.5557 -0.319044 -0.680966 0
M  V30 1083 H 100.527 -1.98581 -2.22729 0
M  V30 1084 C 99.2757 -0.663983 -3.41301 0
M  V30 1085 H 98.5987 -1.47605 -3.71555 0
M  V30 1086 H 100.039 -0.558663 -4.20303 0
M  V30 1087 C 98.4977 0.629169 -3.30973 0
M  V30 1088 O 99.0277 1.67404 -3.65156 0
M  V30 1089 N 97.2337 0.611057 -2.84103 0
M  V30 1090 H 96.7807 -0.239593 -2.56483 0
M  V30 1091 H 96.7387 1.47647 -2.77575 0
M  V30 1092 N 100.511 1.16574 -1.06058 0
M  V30 1093 C 101.757 1.87324 -0.777022 0
M  V30 1094 C 102.09 1.81351 0.694645 0
M  V30 1095 O 101.365 1.22753 1.50871 0
M  V30 1096 C 101.648 3.36991 -1.26922 0
M  V30 1097 C 101.501 3.51667 -2.80447 0
M  V30 1098 C 102.82 4.3131 -0.87521 0
M  V30 1099 H 99.9388 0.680191 -0.28374 0
M  V30 1100 H 102.581 1.37036 -1.3161 0
M  V30 1101 H 100.731 3.79949 -0.81063 0
M  V30 1102 H 102.403 3.17664 -3.34495 0
M  V30 1103 H 100.646 2.93656 -3.19294 0
M  V30 1104 H 101.317 4.56766 -3.0995 0
M  V30 1105 H 103.793 3.9624 -1.27014 0
M  V30 1106 H 102.669 5.34545 -1.2471 0
M  V30 1107 H 102.93 4.41552 0.220071 0
M  V30 1108 N 101.989 0.842826 1.3317 0
M  V30 1109 C 103.266 0.362216 1.92217 0
M  V30 1110 C 103.646 -1.15289 1.76838 0
M  V30 1111 O 102.994 -1.96914 1.15919 0
M  V30 1112 C 103.204 0.813495 3.39387 0
M  V30 1113 C 104.552 0.823804 4.16532 0
M  V30 1114 O 105.576 0.757358 3.48055 0
M  V30 1115 O 104.435 0.915193 5.38782 0
M  V30 1116 H 101.529 0.103317 0.820521 0
M  V30 1117 H 104.075 0.928942 1.42017 0
M  V30 1118 H 102.847 1.85624 3.4447 0
M  V30 1119 H 102.47 0.223561 3.96971 0
M  V30 1120 N 103.467 -1.45747 0.599634 0
M  V30 1121 C 104.692 -2.07178 0.0960198 0
M  V30 1122 C 105.117 -1.44268 -1.207 0
M  V30 1123 O 104.475 -0.532503 -1.73303 0
M  V30 1124 C 104.523 -3.60579 -0.0385348 0
M  V30 1125 O 103.627 -3.97713 -1.0908 0
M  V30 1126 H 102.968 -0.660251 0.0704593 0
M  V30 1127 H 105.498 -1.87124 0.827385 0
M  V30 1128 H 105.508 -4.07298 -0.239304 0
M  V30 1129 H 104.183 -4.05756 0.912947 0
M  V30 1130 H 102.76 -3.62678 -0.867135 0
M  V30 1131 N 104.945 -0.338344 -1.53925 0
M  V30 1132 C 106.192 0.259758 -2.00827 0
M  V30 1133 C 106.52 1.50973 -1.22628 0
M  V30 1134 O 105.775 1.93379 -0.300509 0
M  V30 1135 C 106.074 0.62448 -3.51902 0
M  V30 1136 C 105.74 -0.528006 -4.47798 0
M  V30 1137 C 104.402 -0.844298 -4.73735 0
M  V30 1138 C 106.754 -1.30143 -5.0469 0
M  V30 1139 C 104.082 -1.93648 -5.53821 0
M  V30 1140 C 106.434 -2.38382 -5.85967 0
M  V30 1141 C 105.098 -2.70576 -6.10201 0
M  V30 1142 H 104.368 0.0950523 -0.734878 0
M  V30 1143 H 107.015 -0.465182 -1.85764 0
M  V30 1144 H 105.32 1.43006 -3.64769 0
M  V30 1145 H 107.017 1.09905 -3.85645 0
M  V30 1146 H 103.607 -0.271421 -4.2774 0
M  V30 1147 H 107.791 -1.07033 -4.84621 0
M  V30 1148 H 103.047 -2.19021 -5.70824 0
M  V30 1149 H 107.221 -2.98746 -6.29066 0
M  V30 1150 H 104.848 -3.55333 -6.72044 0
M  V30 1151 N 106.423 1.57458 -0.0668435 0
M  V30 1152 C 107.669 1.94401 0.598316 0
M  V30 1153 C 108.024 0.946335 1.67518 0
M  V30 1154 O 107.317 -0.0321442 1.91573 0
M  V30 1155 C 107.511 3.35784 1.22409 0
M  V30 1156 C 107.34 4.49212 0.209367 0
M  V30 1157 C 106.11 5.04887 -0.204218 0
M  V30 1158 C 108.308 5.11335 -0.551431 0
M  V30 1159 N 106.29 6.01854 -1.21016 0
M  V30 1160 C 107.661 6.03754 -1.41 0
M  V30 1161 C 109.716 4.94173 -0.608038 0
M  V30 1162 C 108.419 6.80854 -2.32013 0
M  V30 1163 C 110.445 5.71912 -1.50566 0
M  V30 1164 C 109.807 6.63976 -2.35191 0
M  V30 1165 H 105.906 0.758538 0.190114 0
M  V30 1166 H 108.49 1.94175 -0.142832 0
M  V30 1167 H 106.661 3.36757 1.93518 0
M  V30 1168 H 108.393 3.59976 1.84931 0
M  V30 1169 H 105.148 4.73266 0.177908 0
M  V30 1170 H 105.572 6.55035 -1.71049 0
M  V30 1171 H 110.214 4.22788 0.032022 0
M  V30 1172 H 107.932 7.5152 -2.97057 0
M  V30 1173 H 111.518 5.60656 -1.55423 0
M  V30 1174 H 110.398 7.2308 -3.03522 0
M  V30 1175 N 107.901 -0.206675 1.56239 0
M  V30 1176 C 108.831 -1.25909 1.96645 0
M  V30 1177 C 109.812 -1.48097 0.836734 0
M  V30 1178 O 110.997 -1.6003 1.10019 0
M  V30 1179 C 108.127 -2.6058 2.29599 0
M  V30 1180 C 107.081 -2.53024 3.452 0
M  V30 1181 C 106.407 -3.91861 3.63798 0
M  V30 1182 C 107.707 -2.06524 4.79734 0
M  V30 1183 H 109.401 -0.923369 2.84806 0
M  V30 1184 H 106.947 -0.442735 1.37025 0
M  V30 1185 H 108.9 -3.34375 2.56459 0
M  V30 1186 H 107.624 -2.95869 1.38307 0
M  V30 1187 H 106.283 -1.81684 3.18412 0
M  V30 1188 H 105.931 -4.24483 2.69857 0
M  V30 1189 H 105.631 -3.87683 4.4156 0
M  V30 1190 H 107.155 -4.67296 3.93022 0
M  V30 1191 H 108.569 -2.70072 5.05702 0
M  V30 1192 H 106.966 -2.13374 5.60885 0
M  V30 1193 H 108.036 -1.01802 4.74093 0
M  V30 1194 N 109.379 -1.50304 -0.473955 0
M  V30 1195 C 110.656 -1.51667 -1.23518 0
M  V30 1196 C 111.036 -0.259701 -2.09496 0
M  V30 1197 O 110.384 0.756986 -2.15597 0
M  V30 1198 C 110.594 -2.81082 -2.06868 0
M  V30 1199 C 111.942 -3.31631 -2.65153 0
M  V30 1200 O 112.966 -2.82384 -2.17113 0
M  V30 1201 O 111.825 -4.17471 -3.52675 0
M  V30 1202 H 108.919 -0.60822 -0.560355 0
M  V30 1203 H 111.465 -1.62592 -0.486011 0
M  V30 1204 H 110.237 -3.64041 -1.4349 0
M  V30 1205 H 109.86 -2.73146 -2.88924 0
M  V30 1206 N 110.857 0.726932 -1.39834 0
M  V30 1207 C 112.105 1.4837 -1.37225 0
M  V30 1208 C 112.426 1.94979 0.0284857 0
M  V30 1209 O 111.696 1.69555 0.981213 0
M  V30 1210 H 110.276 0.55043 -0.505011 0
M  V30 1211 H 112.938 0.862468 -1.74778 0
M  V30 1212 H 112.034 2.36198 -2.04003 0
M  V30 1213 N 112.336 1.25143 0.95797 0
M  V30 1214 C 113.584 1.09476 1.69881 0
M  V30 1215 C 113.905 -0.365502 1.91544 0
M  V30 1216 O 113.175 -1.25985 1.50015 0
M  V30 1217 H 111.755 0.402128 0.629525 0
M  V30 1218 H 114.417 1.57214 1.15194 0
M  V30 1219 H 113.513 1.60046 2.6794 0
M  V30 1220 N 113.814 -1.1601 1.06675 0
M  V30 1221 C 115.063 -1.85973 0.780818 0
M  V30 1222 C 115.376 -1.82819 -0.695444 0
M  V30 1223 O 116.582 -2.484 -1.09589 0
M  V30 1224 C 115.038 -3.33757 1.34665 0
M  V30 1225 C 114.646 -3.45374 2.85343 0
M  V30 1226 C 116.39 -4.0895 1.13843 0
M  V30 1227 C 114.297 -4.87266 3.35151 0
M  V30 1228 H 113.227 -0.696661 0.288407 0
M  V30 1229 H 115.878 -1.30903 1.28595 0
M  V30 1230 H 114.26 -3.88456 0.769274 0
M  V30 1231 H 115.434 -3.00816 3.49065 0
M  V30 1232 H 113.749 -2.83619 3.04876 0
M  V30 1233 H 116.346 -5.13654 1.4854 0
M  V30 1234 H 116.689 -4.16229 0.0770282 0
M  V30 1235 H 117.222 -3.605 1.68179 0
M  V30 1236 H 113.961 -4.85168 4.40786 0
M  V30 1237 H 113.481 -5.32433 2.76179 0
M  V30 1238 H 115.16 -5.56097 3.30704 0
M  V30 1239 N 115.292 -0.849877 -1.32721 0
M  V30 1240 C 116.708 -0.539102 -1.50219 0
M  V30 1241 C 116.908 0.931271 -1.78689 0
M  V30 1242 O 115.964 1.71455 -1.85363 0
M  V30 1243 C 117.277 -1.42196 -2.64954 0
M  V30 1244 C 118.825 -1.42189 -2.78839 0
M  V30 1245 C 119.3 -2.28985 -3.96648 0
M  V30 1246 N 120.791 -2.26754 -4.03902 0
M  V30 1247 C 121.526 -2.90644 -4.94281 0
M  V30 1248 N 121.022 -3.63629 -5.897 0
M  V30 1249 N 122.815 -2.80057 -4.87365 0
M  V30 1250 H 114.966 -1.80156 -1.12506 0
M  V30 1251 H 117.229 -0.769217 -0.554085 0
M  V30 1252 H 116.935 -2.46733 -2.50631 0
M  V30 1253 H 116.809 -1.10591 -3.60624 0
M  V30 1254 H 119.196 -0.38419 -2.92588 0
M  V30 1255 H 119.277 -1.77807 -1.83898 0
M  V30 1256 H 118.921 -3.32819 -3.83658 0
M  V30 1257 H 118.851 -1.90702 -4.90857 0
M  V30 1258 H 121.342 -1.73688 -3.3562 0
M  V30 1259 H 121.655 -4.09558 -6.55349 0
M  V30 1260 H 120 -3.67737 -5.89741 0
M  V30 1261 H 123.191 -2.22593 -4.11789 0
M  V30 1262 H 123.364 -3.30132 -5.57599 0
M  V30 1263 N 116.77 1.45427 -0.607355 0
M  V30 1264 C 118.019 2.01452 -0.100036 0
M  V30 1265 C 118.332 1.48159 1.27704 0
M  V30 1266 O 119.538 1.96159 1.87707 0
M  V30 1267 C 117.994 3.59672 -0.128158 0
M  V30 1268 C 117.602 4.21962 -1.50507 0
M  V30 1269 C 119.346 4.23262 0.323932 0
M  V30 1270 C 117.253 5.72333 -1.48959 0
M  V30 1271 H 116.183 0.75325 -0.0336299 0
M  V30 1272 H 118.834 1.66901 -0.76265 0
M  V30 1273 H 117.216 3.91411 0.601105 0
M  V30 1274 H 118.39 4.01796 -2.25602 0
M  V30 1275 H 116.705 3.70565 -1.89923 0
M  V30 1276 H 119.302 5.33522 0.354691 0
M  V30 1277 H 119.645 3.93921 1.34656 0
M  V30 1278 H 120.178 3.96239 -0.352056 0
M  V30 1279 H 116.917 6.06373 -2.48981 0
M  V30 1280 H 116.437 5.94691 -0.781214 0
M  V30 1281 H 118.116 6.35525 -1.21313 0
M  V30 1282 N 118.248 0.346503 1.53744 0
M  V30 1283 C 119.473 -0.253074 2.0585 0
M  V30 1284 C 119.898 -1.43202 1.21962 0
M  V30 1285 O 119.256 -1.79783 0.234073 0
M  V30 1286 C 119.304 -0.643193 3.54817 0
M  V30 1287 O 118.408 -1.74286 3.73762 0
M  V30 1288 H 117.749 -0.0413583 0.662711 0
M  V30 1289 H 120.279 0.501574 1.98357 0
M  V30 1290 H 120.289 -0.919526 3.97503 0
M  V30 1291 H 118.964 0.218966 4.15323 0
M  V30 1292 H 117.541 -1.46356 3.42979 0
M  V30 1293 N 119.726 -1.57421 0.075193 0
M  V30 1294 C 120.689 -2.11791 -0.876203 0
M  V30 1295 C 121.689 -1.04268 -1.22412 0
M  V30 1296 O 122.879 -1.30242 -1.15684 0
M  V30 1297 C 120.011 -2.62207 -2.17854 0
M  V30 1298 H 121.204 -2.9716 -0.40444 0
M  V30 1299 H 118.757 -1.55333 -0.173557 0
M  V30 1300 H 119.492 -1.803 -2.6956 0
M  V30 1301 H 119.277 -3.40802 -1.93897 0
M  V30 1302 H 120.767 -3.04335 -2.85955 0
M  V30 1303 N 121.204 0.198386 -1.56346 0
M  V30 1304 C 122.432 0.935572 -1.84539 0
M  V30 1305 C 122.847 1.76989 -0.657281 0
M  V30 1306 O 122.204 1.78626 0.374043 0
M  V30 1307 C 122.255 1.8344 -3.11499 0
M  V30 1308 O 121.976 1.03377 -4.25728 0
M  V30 1309 C 123.477 2.68355 -3.52846 0
M  V30 1310 H 120.697 0.273126 -0.612897 0
M  V30 1311 H 123.241 0.20663 -2.03453 0
M  V30 1312 H 121.396 2.51701 -2.94492 0
M  V30 1313 H 121.81 1.64599 -4.98003 0
M  V30 1314 H 123.284 3.27085 -4.44657 0
M  V30 1315 H 123.761 3.41901 -2.75681 0
M  V30 1316 H 124.367 2.05471 -3.72373 0
M  V30 1317 N 122.682 1.50554 0.465978 0
M  V30 1318 C 123.592 1.72585 1.58907 0
M  V30 1319 C 124.608 0.60911 1.6299 0
M  V30 1320 O 125.784 0.88804 1.80765 0
M  V30 1321 C 122.849 1.81995 2.95091 0
M  V30 1322 C 121.91 3.05751 3.01355 0
M  V30 1323 C 121.143 3.14702 4.31043 0
M  V30 1324 O 121.366 2.30313 5.21835 0
M  V30 1325 O 120.3 4.07468 4.43005 0
M  V30 1326 H 124.126 2.67799 1.43239 0
M  V30 1327 H 121.711 1.34711 0.646013 0
M  V30 1328 H 123.593 1.90335 3.75966 0
M  V30 1329 H 122.268 0.899659 3.10947 0
M  V30 1330 H 121.175 3.02908 2.19539 0
M  V30 1331 H 122.508 3.97375 2.90437 0
M  V30 1332 N 124.16 -0.719506 1.40217 0
M  V30 1333 C 125.092 -1.84428 1.36084 0
M  V30 1334 C 126.105 -1.60597 0.266913 0
M  V30 1335 O 127.294 -1.70544 0.526983 0
M  V30 1336 C 124.394 -3.20757 1.094 0
M  V30 1337 C 123.567 -3.71817 2.30372 0
M  V30 1338 C 122.626 -4.86748 1.99907 0
M  V30 1339 O 121.652 -4.99603 2.72737 0
M  V30 1340 N 122.854 -5.7226 0.974635 0
M  V30 1341 H 125.619 -1.88473 2.33019 0
M  V30 1342 H 123.18 -0.900885 1.3452 0
M  V30 1343 H 125.172 -3.95235 0.870116 0
M  V30 1344 H 123.742 -3.11884 0.211452 0
M  V30 1345 H 122.962 -2.88514 2.68614 0
M  V30 1346 H 124.25 -4.02666 3.11026 0
M  V30 1347 H 123.648 -5.6448 0.371368 0
M  V30 1348 H 122.205 -6.46739 0.810656 0
M  V30 1349 N 125.638 -1.25649 -0.95132 0
M  V30 1350 C 126.887 -1.09988 -1.69073 0
M  V30 1351 C 127.2 0.358355 -1.92289 0
M  V30 1352 O 128.406 0.635466 -2.63958 0
M  V30 1353 C 126.862 -1.92012 -3.044 0
M  V30 1354 C 126.47 -3.42347 -2.88968 0
M  V30 1355 C 128.214 -1.8493 -3.82101 0
M  V30 1356 C 126.121 -4.16655 -4.19705 0
M  V30 1357 H 125.051 -0.407993 -0.63408 0
M  V30 1358 H 127.702 -1.49873 -1.05879 0
M  V30 1359 H 126.084 -1.44952 -3.68517 0
M  V30 1360 H 127.258 -3.97104 -2.33762 0
M  V30 1361 H 125.573 -3.50557 -2.24719 0
M  V30 1362 H 128.17 -2.37739 -4.78941 0
M  V30 1363 H 128.513 -0.817883 -4.08187 0
M  V30 1364 H 129.046 -2.29758 -3.2474 0
M  V30 1365 H 125.785 -5.20224 -3.98807 0
M  V30 1366 H 125.305 -3.66681 -4.74663 0
M  V30 1367 H 126.984 -4.24551 -4.88227 0
M  V30 1368 N 127.117 1.15442 -1.07289 0
M  V30 1369 C 128.342 1.90638 -0.816828 0
M  V30 1370 C 128.767 1.77445 0.624083 0
M  V30 1371 O 128.125 1.10671 1.43602 0
M  V30 1372 C 128.173 3.39008 -1.22906 0
M  V30 1373 O 127.277 4.10701 -0.373975 0
M  V30 1374 H 126.618 0.593555 -0.297638 0
M  V30 1375 H 129.148 1.46198 -1.43134 0
M  V30 1376 H 129.158 3.89801 -1.20497 0
M  V30 1377 H 127.833 3.47929 -2.27856 0
M  V30 1378 H 126.41 3.70046 -0.460499 0
M  V30 1379 N 128.595 0.856903 1.32268 0
M  V30 1380 C 129.842 0.461386 1.97174 0
M  V30 1381 C 130.17 -0.983491 1.67803 0
M  V30 1382 O 129.425 -1.70541 0.959903 0
M  V30 1383 C 129.724 0.649919 3.51441 0
M  V30 1384 C 129.39 2.0656 4.00804 0
M  V30 1385 C 128.052 2.45279 4.13995 0
M  V30 1386 C 130.404 2.98947 4.26943 0
M  V30 1387 C 127.732 3.75653 4.50668 0
M  V30 1388 C 130.084 4.28822 4.65075 0
M  V30 1389 C 128.748 4.67472 4.76472 0
M  V30 1390 H 128.018 0.168833 0.72151 0
M  V30 1391 H 130.665 1.08739 1.57633 0
M  V30 1392 H 128.97 -0.0593018 3.91755 0
M  V30 1393 H 130.667 0.32391 3.9969 0
M  V30 1394 H 127.257 1.75495 3.91024 0
M  V30 1395 H 131.441 2.70265 4.16258 0
M  V30 1396 H 126.697 4.05379 4.57688 0
M  V30 1397 H 130.871 5.0047 4.84255 0
M  V30 1398 H 128.498 5.68539 5.04646 0
M  V30 1399 N 130.073 -1.45103 0.615059 0
M  V30 1400 C 131.003 -2.33339 -0.0865619 0
M  V30 1401 C 131.984 -1.4727 -0.851209 0
M  V30 1402 O 133.169 -1.76026 -0.820281 0
M  V30 1403 C 130.299 -3.30095 -1.07956 0
M  V30 1404 C 129.253 -4.25858 -0.427628 0
M  V30 1405 C 128.579 -5.12361 -1.5294 0
M  V30 1406 C 129.879 -5.18165 0.655944 0
M  V30 1407 H 131.573 -2.92254 0.650224 0
M  V30 1408 H 129.119 -1.40532 0.314138 0
M  V30 1409 H 131.072 -3.90698 -1.57901 0
M  V30 1410 H 129.796 -2.69355 -1.84703 0
M  V30 1411 H 128.455 -3.66564 0.0510292 0
M  V30 1412 H 128.103 -4.47984 -2.28734 0
M  V30 1413 H 127.803 -5.77238 -1.09865 0
M  V30 1414 H 129.327 -5.75833 -2.03098 0
M  V30 1415 H 130.741 -5.72796 0.240257 0
M  V30 1416 H 129.138 -5.91559 1.00888 0
M  V30 1417 H 130.208 -4.60144 1.52957 0
M  V30 1418 N 131.551 -0.354651 -1.53558 0
M  V30 1419 C 132.967 -0.00315426 -1.596 0
M  V30 1420 C 133.167 1.47741 -1.37021 0
M  V30 1421 O 132.223 2.23759 -1.16996 0
M  V30 1422 C 133.536 -0.44929 -2.97325 0
M  V30 1423 C 135.084 -0.402578 -3.104 0
M  V30 1424 C 135.559 -0.824355 -4.5052 0
M  V30 1425 N 137.05 -0.778979 -4.56603 0
M  V30 1426 C 137.785 -1.07715 -5.63192 0
M  V30 1427 N 137.281 -1.44405 -6.77583 0
M  V30 1428 N 139.074 -1.00066 -5.53121 0
M  V30 1429 H 131.225 -1.31893 -1.66487 0
M  V30 1430 H 133.488 -0.538388 -0.780284 0
M  V30 1431 H 133.194 -1.48202 -3.1895 0
M  V30 1432 H 133.068 0.169772 -3.76818 0
M  V30 1433 H 135.455 0.621004 -2.88492 0
M  V30 1434 H 135.536 -1.05699 -2.32941 0
M  V30 1435 H 135.18 -1.846 -4.73165 0
M  V30 1436 H 135.11 -0.147304 -5.26394 0
M  V30 1437 H 137.601 -0.508528 -3.74463 0
M  V30 1438 H 137.914 -1.65612 -7.54846 0
M  V30 1439 H 136.259 -1.4826 -6.79002 0
M  V30 1440 H 139.45 -0.713293 -4.62633 0
M  V30 1441 H 139.623 -1.23638 -6.36096 0
M  V30 1442 N 133.029 1.57378 -0.0835403 0
M  V30 1443 C 133.976 2.13384 0.879539 0
M  V30 1444 C 134.946 1.04936 1.28754 0
M  V30 1445 O 136.131 1.32662 1.37133 0
M  V30 1446 C 133.271 2.70932 2.13752 0
M  V30 1447 C 132.384 3.93575 1.7811 0
M  V30 1448 C 131.519 4.39326 2.98607 0
M  V30 1449 C 130.558 5.54587 2.59037 0
M  V30 1450 N 129.695 5.95243 3.72331 0
M  V30 1451 H 134.535 2.9537 0.395076 0
M  V30 1452 H 132.072 1.45953 0.183349 0
M  V30 1453 H 134.03 3.02411 2.87408 0
M  V30 1454 H 132.66 1.91693 2.59718 0
M  V30 1455 H 131.712 3.68483 0.94469 0
M  V30 1456 H 133.024 4.77258 1.45005 0
M  V30 1457 H 132.178 4.72528 3.80529 0
M  V30 1458 H 130.917 3.5452 3.34913 0
M  V30 1459 H 129.922 5.21024 1.75539 0
M  V30 1460 H 131.147 6.41133 2.23887 0
M  V30 1461 H 129.093 5.13385 4.08378 0
M  V30 1462 H 129.01 6.73694 3.43034 0
M  V30 1463 H 130.278 6.33072 4.54797 0
M  V30 1464 N 134.507 -0.190092 1.56449 0
M  V30 1465 C 135.437 -1.23816 1.97969 0
M  V30 1466 C 136.418 -1.47201 0.852395 0
M  V30 1467 O 137.603 -1.58854 1.1171 0
M  V30 1468 C 134.733 -2.5813 2.3235 0
M  V30 1469 C 133.687 -2.49348 3.47864 0
M  V30 1470 C 133.013 -3.8798 3.67934 0
M  V30 1471 C 134.313 -2.01424 4.81898 0
M  V30 1472 H 136.007 -0.89311 2.85769 0
M  V30 1473 H 133.553 -0.428177 1.37487 0
M  V30 1474 H 135.506 -3.31637 2.59991 0
M  V30 1475 H 134.23 -2.94386 1.41438 0
M  V30 1476 H 132.889 -1.78297 3.20321 0
M  V30 1477 H 132.537 -4.21597 2.74344 0
M  V30 1478 H 132.237 -3.82978 4.45648 0
M  V30 1479 H 133.761 -4.63101 3.97957 0
M  V30 1480 H 135.175 -2.64693 5.08538 0
M  V30 1481 H 133.572 -2.07413 5.63116 0
M  V30 1482 H 134.642 -0.967677 4.75146 0
M  V30 1483 N 135.985 -1.50799 -0.457987 0
M  V30 1484 C 137.215 -1.65977 -1.23025 0
M  V30 1485 C 137.623 -0.347918 -1.85974 0
M  V30 1486 O 136.966 0.68148 -1.70592 0
M  V30 1487 C 137.028 -2.70309 -2.3701 0
M  V30 1488 C 136.692 -4.135 -1.94594 0
M  V30 1489 C 137.689 -4.98949 -1.46101 0
M  V30 1490 C 135.374 -4.5949 -2.02915 0
M  V30 1491 C 137.368 -6.28442 -1.06489 0
M  V30 1492 C 135.055 -5.88984 -1.62914 0
M  V30 1493 C 136.053 -6.73286 -1.1478 0
M  V30 1494 O 135.741 -8.00362 -0.75339 0
M  V30 1495 H 135.473 -0.56064 -0.377702 0
M  V30 1496 H 138.027 -1.97857 -0.551537 0
M  V30 1497 H 136.257 -2.337 -3.08093 0
M  V30 1498 H 137.946 -2.74574 -2.98938 0
M  V30 1499 H 138.712 -4.6463 -1.39084 0
M  V30 1500 H 134.591 -3.94009 -2.39328 0
M  V30 1501 H 138.135 -6.94194 -0.688488 0
M  V30 1502 H 134.032 -6.22822 -1.69595 0
M  V30 1503 H 134.8 -8.13744 -0.88108 0
M  V30 1504 N 137.463 0.71206 -1.40597 0
M  V30 1505 C 138.413 1.81783 -1.37619 0
M  V30 1506 C 139.397 1.58896 -0.253162 0
M  V30 1507 O 140.589 1.70009 -0.492547 0
M  V30 1508 C 137.718 3.19944 -1.24462 0
M  V30 1509 C 136.804 3.48582 -2.4156 0
M  V30 1510 N 137.195 3.48016 -3.67041 0
M  V30 1511 C 135.493 3.79056 -2.35016 0
M  V30 1512 C 136.194 3.75096 -4.44609 0
M  V30 1513 N 135.17 3.94022 -3.74497 0
M  V30 1514 H 138.972 1.79683 -2.32575 0
M  V30 1515 H 136.486 0.91134 -1.34419 0
M  V30 1516 H 138.483 3.99133 -1.20411 0
M  V30 1517 H 137.143 3.23267 -0.304762 0
M  V30 1518 H 138.154 3.28782 -4.00153 0
M  V30 1519 H 134.831 3.89848 -1.49415 0
M  V30 1520 H 136.221 3.80934 -5.53479 0
M  V30 1521 N 138.941 1.26152 0.944643 0
M  V30 1522 C 139.889 1.07215 2.06417 0
M  V30 1523 C 140.883 9.2007e-05 1.694 0
M  V30 1524 O 142.089 0.1565 1.79318 0
M  V30 1525 H 138.464 0.329837 0.675805 0
M  V30 1526 H 140.435 2.02099 2.19541 0
M  V30 1527 C 139.184 0.718197 3.40202 0
M  V30 1528 H 138.507 1.53497 3.69159 0
M  V30 1529 H 139.947 0.625459 4.19361 0
M  V30 1530 C 138.406 -0.576435 3.31932 0
M  V30 1531 O 138.936 -1.61574 3.67773 0
M  V30 1532 N 137.142 -0.565781 2.85039 0
M  V30 1533 H 136.689 0.280367 2.5607 0
M  V30 1534 H 136.647 -1.43213 2.79888 0
M  V30 1535 N 140.419 -1.14872 1.07899 0
M  V30 1536 C 141.366 -2.19791 0.704319 0
M  V30 1537 C 142.336 -1.63238 -0.306987 0
M  V30 1538 O 143.521 -1.8983 -0.192171 0
M  V30 1539 C 140.661 -3.44911 0.114244 0
M  V30 1540 C 139.774 -4.15637 1.1777 0
M  V30 1541 C 138.909 -5.28324 0.552037 0
M  V30 1542 C 137.948 -5.90875 1.59789 0
M  V30 1543 N 137.085 -6.95022 0.994404 0
M  V30 1544 H 141.925 -2.5119 1.60336 0
M  V30 1545 H 139.462 -1.23356 0.801352 0
M  V30 1546 H 141.42 -4.16477 -0.245544 0
M  V30 1547 H 140.05 -3.14011 -0.74813 0
M  V30 1548 H 139.102 -3.42512 1.65499 0
M  V30 1549 H 140.414 -4.5823 1.97046 0
M  V30 1550 H 139.568 -6.06538 0.1402 0
M  V30 1551 H 138.307 -4.86939 -0.272431 0
M  V30 1552 H 137.312 -5.11369 2.01945 0
M  V30 1553 H 138.537 -6.34337 2.42474 0
M  V30 1554 H 136.483 -6.55722 0.190939 0
M  V30 1555 H 136.4 -7.36073 1.72432 0
M  V30 1556 H 137.668 -7.77123 0.608253 0
M  V30 1557 N 141.898 -0.863906 -1.31812 0
M  V30 1558 C 142.828 -0.330843 -2.31144 0
M  V30 1559 C 143.809 0.575005 -1.60087 0
M  V30 1560 O 144.994 0.493304 -1.8783 0
M  V30 1561 C 142.124 0.47374 -3.44054 0
M  V30 1562 C 141.078 -0.338481 -4.26659 0
M  V30 1563 C 140.404 0.591412 -5.31419 0
M  V30 1564 C 141.704 -1.56926 -4.98168 0
M  V30 1565 H 143.398 -1.16086 -2.75979 0
M  V30 1566 H 140.944 -0.559657 -1.32679 0
M  V30 1567 H 142.897 0.857143 -4.12591 0
M  V30 1568 H 141.621 1.33721 -2.9797 0
M  V30 1569 H 140.28 -0.703754 -3.59782 0
M  V30 1570 H 139.928 1.45199 -4.81587 0
M  V30 1571 H 139.628 0.0519022 -5.87577 0
M  V30 1572 H 141.152 0.97179 -6.02817 0
M  V30 1573 H 142.566 -1.25764 -5.59336 0
M  V30 1574 H 140.963 -2.04739 -5.64094 0
M  V30 1575 H 142.033 -2.32544 -4.25501 0
M  V30 1576 N 143.376 1.44774 -0.622745 0
M  V30 1577 C 144.326 2.2774 0.108889 0
M  V30 1578 C 145.31 1.38189 0.824175 0
M  V30 1579 O 146.502 1.62063 0.711664 0
M  V30 1580 C 143.631 3.25353 1.09546 0
M  V30 1581 C 142.717 4.22392 0.380232 0
M  V30 1582 N 143.108 5.02388 -0.586535 0
M  V30 1583 C 141.406 4.41588 0.625792 0
M  V30 1584 C 142.107 5.72894 -1.00834 0
M  V30 1585 N 141.083 5.42479 -0.348878 0
M  V30 1586 H 144.885 2.86993 -0.63341 0
M  V30 1587 H 142.399 1.5611 -0.447589 0
M  V30 1588 H 144.396 3.83538 1.63414 0
M  V30 1589 H 143.056 2.6766 1.83815 0
M  V30 1590 H 144.067 5.0885 -0.963975 0
M  V30 1591 H 140.744 3.95003 1.352 0
M  V30 1592 H 142.134 6.47158 -1.80656 0
M  V30 1593 N 144.854 0.36279 1.53368 0
M  V30 1594 C 146.1 -0.228113 2.01513 0
M  V30 1595 C 146.433 -1.48648 1.2497 0
M  V30 1596 O 145.708 -1.91459 0.342616 0
M  V30 1597 C 145.991 -0.522884 3.56284 0
M  V30 1598 C 145.844 0.74892 4.43521 0
M  V30 1599 C 147.163 -1.32461 4.19693 0
M  V30 1600 H 144.282 -0.0814343 0.732487 0
M  V30 1601 H 146.924 0.48713 1.83649 0
M  V30 1602 H 145.074 -1.1322 3.71636 0
M  V30 1603 H 146.746 1.38648 4.39971 0
M  V30 1604 H 144.989 1.36986 4.11603 0
M  V30 1605 H 145.66 0.497667 5.49752 0
M  V30 1606 H 148.136 -0.809203 4.08156 0
M  V30 1607 H 147.012 -1.49961 5.28018 0
M  V30 1608 H 147.273 -2.33232 3.75573 0
M  V30 1609 N 146.332 -1.57332 0.0918853 0
M  V30 1610 C 147.557 -1.98995 -0.584442 0
M  V30 1611 C 147.982 -0.970528 -1.61128 0
M  V30 1612 O 147.34 0.0613904 -1.81196 0
M  V30 1613 C 147.388 -3.39636 -1.21161 0
M  V30 1614 O 146.492 -3.40447 -2.32744 0
M  V30 1615 H 145.833 -0.647165 -0.148572 0
M  V30 1616 H 148.363 -2.03873 0.172347 0
M  V30 1617 H 148.373 -3.7726 -1.55367 0
M  V30 1618 H 147.048 -4.13356 -0.459313 0
M  V30 1619 H 145.625 -3.14614 -2.0018 0
M  V30 1620 N 147.81 0.181792 -1.56548 0
M  V30 1621 C 148.72 1.24538 -1.98815 0
M  V30 1622 C 149.736 1.49045 -0.897861 0
M  V30 1623 O 150.912 1.61399 -1.20467 0
M  V30 1624 C 147.977 2.56683 -2.33055 0
M  V30 1625 C 147.038 2.40131 -3.55859 0
M  V30 1626 C 146.271 3.65975 -3.88456 0
M  V30 1627 O 146.494 4.70711 -3.22161 0
M  V30 1628 O 145.428 3.6071 -4.81842 0
M  V30 1629 H 149.254 0.916647 -2.89536 0
M  V30 1630 H 146.839 0.387842 -1.44278 0
M  V30 1631 H 148.721 3.34655 -2.56094 0
M  V30 1632 H 147.396 2.89157 -1.45498 0
M  V30 1633 H 146.303 1.60226 -3.38051 0
M  V30 1634 H 147.636 2.12585 -4.43924 0
M  V30 1635 N 149.288 1.51039 0.449983 0
M  V30 1636 C 150.704 1.38934 0.785462 0
M  V30 1637 C 150.904 0.461817 1.96136 0
M  V30 1638 O 149.96 -0.0877389 2.52348 0
M  V30 1639 C 151.273 2.80724 1.0777 0
M  V30 1640 C 152.821 2.89787 1.1829 0
M  V30 1641 C 153.296 4.32457 1.50815 0
M  V30 1642 N 154.787 4.35505 1.57764 0
M  V30 1643 C 155.522 5.42914 1.84477 0
M  V30 1644 N 155.018 6.60502 2.09068 0
M  V30 1645 N 156.811 5.3038 1.86155 0
M  V30 1646 H 148.962 2.09904 -0.324647 0
M  V30 1647 H 151.225 0.944378 -0.0827957 0
M  V30 1648 H 150.931 3.50531 0.286498 0
M  V30 1649 H 150.805 3.19273 2.00859 0
M  V30 1650 H 153.192 2.20186 1.96474 0
M  V30 1651 H 153.273 2.54752 0.231314 0
M  V30 1652 H 152.917 5.02603 0.731622 0
M  V30 1653 H 152.847 4.64995 2.47158 0
M  V30 1654 H 155.338 3.50724 1.40715 0
M  V30 1655 H 155.651 7.38158 2.28785 0
M  V30 1656 H 153.996 6.63639 2.06416 0
M  V30 1657 H 157.187 4.37505 1.66454 0
M  V30 1658 H 157.36 6.1417 2.06637 0
M  V30 1659 N 150.766 -0.704594 1.40972 0
M  V30 1660 C 151.991 -1.49858 1.43378 0
M  V30 1661 C 152.416 -1.88061 0.038184 0
M  V30 1662 O 151.774 -1.5402 -0.956425 0
M  V30 1663 C 151.822 -2.74333 2.34038 0
M  V30 1664 O 150.926 -3.7147 1.7912 0
M  V30 1665 H 150.267 -0.45139 0.486974 0
M  V30 1666 H 152.797 -0.866832 1.8533 0
M  V30 1667 H 152.807 -3.22741 2.49604 0
M  V30 1668 H 151.482 -2.45863 3.35446 0
M  V30 1669 H 150.059 -3.30363 1.72958 0
M  V30 1670 N 152.244 -1.26651 -0.937939 0
M  V30 1671 C 153.176 -1.04283 -2.04102 0
M  V30 1672 C 154.189 -0.00221014 -1.628 0
M  V30 1673 O 155.378 -0.242645 -1.76843 0
M  V30 1674 C 152.478 -0.557846 -3.34277 0
M  V30 1675 C 151.651 -1.66843 -4.04329 0
M  V30 1676 C 150.71 -1.18095 -5.12777 0
M  V30 1677 O 149.736 -1.87865 -5.37304 0
M  V30 1678 N 150.938 -0.0311006 -5.80492 0
M  V30 1679 H 153.703 -1.9927 -2.23856 0
M  V30 1680 H 151.264 -1.1808 -1.10764 0
M  V30 1681 H 153.256 -0.215836 -4.04124 0
M  V30 1682 H 151.826 0.298523 -3.11171 0
M  V30 1683 H 151.046 -2.18123 -3.28353 0
M  V30 1684 H 152.334 -2.41408 -4.47883 0
M  V30 1685 H 151.732 0.551486 -5.63005 0
M  V30 1686 H 150.289 0.251809 -6.51313 0
M  V30 1687 N 153.722 1.14298 -1.08507 0
M  V30 1688 C 155.138 1.37347 -0.812901 0
M  V30 1689 C 155.338 1.93052 0.577325 0
M  V30 1690 O 154.394 2.14389 1.33393 0
M  V30 1691 C 155.707 2.33359 -1.89642 0
M  V30 1692 C 157.255 2.46996 -1.92255 0
M  V30 1693 C 157.73 3.46309 -2.99724 0
M  V30 1694 N 159.221 3.53853 -2.98902 0
M  V30 1695 C 159.956 4.3055 -3.787 0
M  V30 1696 N 159.452 5.10482 -4.6838 0
M  V30 1697 N 161.245 4.25757 -3.66998 0
M  V30 1698 H 153.396 0.764867 -1.9815 0
M  V30 1699 H 155.659 0.398966 -0.859959 0
M  V30 1700 H 155.365 1.99565 -2.89597 0
M  V30 1701 H 155.239 3.33274 -1.76659 0
M  V30 1702 H 157.626 2.80081 -0.929445 0
M  V30 1703 H 157.707 1.47039 -2.09316 0
M  V30 1704 H 157.351 3.13957 -3.99241 0
M  V30 1705 H 157.281 4.46049 -2.79907 0
M  V30 1706 H 159.772 2.96812 -2.33904 0
M  V30 1707 H 160.085 5.66284 -5.25873 0
M  V30 1708 H 158.43 5.09747 -4.72422 0
M  V30 1709 H 161.621 3.62383 -2.96304 0
M  V30 1710 H 161.794 4.85279 -4.29427 0
M  V30 1711 N 155.201 0.870884 1.31352 0
M  V30 1712 C 156.45 0.478408 1.95944 0
M  V30 1713 C 156.763 -0.974493 1.69597 0
M  V30 1714 O 157.969 -1.47316 2.28058 0
M  V30 1715 C 156.425 0.804609 3.50791 0
M  V30 1716 C 156.033 2.27433 3.85977 0
M  V30 1717 C 157.777 0.480648 4.2177 0
M  V30 1718 C 155.684 2.5429 5.33939 0
M  V30 1719 H 154.614 0.175175 0.733369 0
M  V30 1720 H 157.265 1.06391 1.4951 0
M  V30 1721 H 155.647 0.148347 3.95722 0
M  V30 1722 H 156.821 2.97373 3.52002 0
M  V30 1723 H 155.136 2.56442 3.28065 0
M  V30 1724 H 157.733 0.658519 5.30629 0
M  V30 1725 H 158.076 -0.578979 4.12254 0
M  V30 1726 H 158.609 1.09349 3.82476 0
M  V30 1727 H 155.348 3.58939 5.48491 0
M  V30 1728 H 154.868 1.88945 5.69263 0
M  V30 1729 H 156.547 2.39066 6.01212 0
M  V30 1730 N 156.679 -1.44442 0.630414 0
M  V30 1731 C 157.925 -2.02351 0.134816 0
M  V30 1732 C 158.258 -1.4947 -1.23986 0
M  V30 1733 O 157.533 -0.678475 -1.82283 0
M  V30 1734 C 157.816 -3.59898 0.120707 0
M  V30 1735 C 157.669 -4.23063 1.52767 0
M  V30 1736 C 158.988 -4.36585 -0.555127 0
M  V30 1737 H 156.107 -0.73527 0.0504646 0
M  V30 1738 H 158.749 -1.72022 0.806751 0
M  V30 1739 H 156.899 -3.85868 -0.451477 0
M  V30 1740 H 158.571 -4.08202 2.14869 0
M  V30 1741 H 156.814 -3.80586 2.08175 0
M  V30 1742 H 157.485 -5.32071 1.46984 0
M  V30 1743 H 159.961 -4.16044 -0.0685429 0
M  V30 1744 H 158.837 -5.46294 -0.534185 0
M  V30 1745 H 159.098 -4.11138 -1.62535 0
M  V30 1746 N 158.157 -0.370918 -1.53173 0
M  V30 1747 C 159.104 0.473035 -2.259 0
M  V30 1748 C 160.074 1.07311 -1.26781 0
M  V30 1749 O 161.259 1.1046 -1.55574 0
M  V30 1750 C 158.399 1.60405 -3.05556 0
M  V30 1751 C 157.512 1.02863 -4.19575 0
M  V30 1752 C 156.647 2.12918 -4.86661 0
M  V30 1753 C 155.686 1.52869 -5.92704 0
M  V30 1754 N 154.823 2.56779 -6.53459 0
M  V30 1755 H 159.663 -0.153649 -2.97604 0
M  V30 1756 H 157.2 -0.0875946 -1.46839 0
M  V30 1757 H 159.158 2.27034 -3.50016 0
M  V30 1758 H 157.788 2.20131 -2.36097 0
M  V30 1759 H 156.84 0.252465 -3.79561 0
M  V30 1760 H 158.152 0.549642 -4.95762 0
M  V30 1761 H 157.306 2.87356 -5.34333 0
M  V30 1762 H 156.045 2.6417 -4.09958 0
M  V30 1763 H 155.05 0.769479 -5.44389 0
M  V30 1764 H 156.275 1.02435 -6.7133 0
M  V30 1765 H 154.221 3.07235 -5.79606 0
M  V30 1766 H 154.138 2.13583 -7.25202 0
M  V30 1767 H 155.406 3.30903 -7.05779 0
M  V30 1768 N 159.635 1.57281 -0.100228 0
M  V30 1769 C 160.567 2.11342 0.886972 0
M  V30 1770 C 161.58 1.05182 1.24261 0
M  V30 1771 O 162.769 1.32613 1.19483 0
M  V30 1772 C 159.869 2.5825 2.19454 0
M  V30 1773 C 159.042 3.88302 2.01346 0
M  V30 1774 C 158.101 4.21004 3.15661 0
M  V30 1775 O 157.127 4.9014 2.89398 0
M  V30 1776 N 158.329 3.76818 4.41575 0
M  V30 1777 H 161.094 2.96668 0.425216 0
M  V30 1778 H 158.655 1.61678 0.0847334 0
M  V30 1779 H 160.647 2.7717 2.94888 0
M  V30 1780 H 159.217 1.77907 2.57037 0
M  V30 1781 H 158.437 3.7848 1.10212 0
M  V30 1782 H 159.725 4.73375 1.8653 0
M  V30 1783 H 159.123 3.2102 4.65792 0
M  V30 1784 H 157.68 4.00882 5.13942 0
M  V30 1785 N 161.113 -0.173488 1.56642 0
M  V30 1786 C 162.076 -1.19859 1.95362 0
M  V30 1787 C 163.076 -1.37296 0.83704 0
M  V30 1788 O 164.266 -1.34739 1.10413 0
M  V30 1789 C 161.398 -2.56405 2.24654 0
M  V30 1790 H 162.591 -0.867062 2.87092 0
M  V30 1791 H 160.144 -0.415853 1.50666 0
M  V30 1792 H 160.879 -2.94576 1.35631 0
M  V30 1793 H 160.664 -2.45115 3.06041 0
M  V30 1794 H 162.154 -3.30287 2.5554 0
M  V30 1795 N 162.591 -1.51276 -0.441967 0
M  V30 1796 C 163.524 -1.66933 -1.55591 0
M  V30 1797 C 164.502 -0.516958 -1.54163 0
M  V30 1798 O 165.686 -0.740209 -1.73358 0
M  V30 1799 C 162.813 -1.67866 -2.94174 0
M  V30 1800 C 161.859 -2.89013 -3.13646 0
M  V30 1801 S 162.692 -4.49897 -2.90436 0
M  V30 1802 C 163.848 -4.53568 -4.31308 0
M  V30 1803 H 164.081 -2.61155 -1.42076 0
M  V30 1804 H 161.614 -1.40902 -0.631341 0
M  V30 1805 H 163.572 -1.69089 -3.74058 0
M  V30 1806 H 162.233 -0.748296 -3.05056 0
M  V30 1807 H 161.426 -2.86054 -4.14957 0
M  V30 1808 H 161.028 -2.85509 -2.4158 0
M  V30 1809 H 163.32 -4.28924 -5.24434 0
M  V30 1810 H 164.263 -5.55355 -4.39303 0
M  V30 1811 H 164.671 -3.82943 -4.14747 0
M  V30 1812 N 164.069 0.697108 -1.41344 0
M  V30 1813 C 164.999 1.82353 -1.45841 0
M  V30 1814 C 165.98 1.67115 -0.317247 0
M  V30 1815 O 167.165 1.86871 -0.528474 0
M  V30 1816 C 164.295 3.20476 -1.33838 0
M  V30 1817 C 163.249 3.50415 -2.4575 0
M  V30 1818 C 162.575 4.87878 -2.18813 0
M  V30 1819 C 163.875 3.49546 -3.88091 0
M  V30 1820 H 165.569 1.78846 -2.40113 0
M  V30 1821 H 163.115 0.859028 -1.15571 0
M  V30 1822 H 165.068 3.98988 -1.35596 0
M  V30 1823 H 163.792 3.24604 -0.360498 0
M  V30 1824 H 162.451 2.74253 -2.43271 0
M  V30 1825 H 162.099 4.8863 -1.19371 0
M  V30 1826 H 161.799 5.08875 -2.93803 0
M  V30 1827 H 163.323 5.68702 -2.22284 0
M  V30 1828 H 164.737 4.18066 -3.92293 0
M  V30 1829 H 163.134 3.82075 -4.62751 0
M  V30 1830 H 164.204 2.48552 -4.16353 0
M  V30 1831 N 165.547 1.27147 0.931209 0
M  V30 1832 C 166.775 1.16082 1.71267 0
M  V30 1833 C 167.19 -0.282772 1.8667 0
M  V30 1834 O 166.547 -1.19283 1.38122 0
M  V30 1835 C 166.598 1.8358 3.11417 0
M  V30 1836 O 166.319 3.22299 2.96741 0
M  V30 1837 C 167.82 1.78597 4.05732 0
M  V30 1838 H 165.04 0.403758 0.535929 0
M  V30 1839 H 167.584 1.67953 1.16671 0
M  V30 1840 H 165.739 1.35623 3.62885 0
M  V30 1841 H 166.153 3.55851 3.85319 0
M  V30 1842 H 167.627 2.30444 5.01597 0
M  V30 1843 H 168.104 0.754564 4.3267 0
M  V30 1844 H 168.71 2.26152 3.60188 0
M  V30 1845 N 167.025 -1.13721 1.09112 0
M  V30 1846 C 167.935 -2.22638 0.73957 0
M  V30 1847 C 168.951 -1.72091 -0.257068 0
M  V30 1848 O 170.127 -2.01155 -0.0992154 0
M  V30 1849 C 167.192 -3.46322 0.16191 0
M  V30 1850 C 166.253 -4.11775 1.21408 0
M  V30 1851 C 165.486 -5.29555 0.663891 0
M  V30 1852 O 165.709 -5.68077 -0.514274 0
M  V30 1853 O 164.643 -5.84973 1.41738 0
M  V30 1854 H 168.469 -2.55074 1.64836 0
M  V30 1855 H 166.054 -1.21791 0.865289 0
M  V30 1856 H 167.936 -4.21107 -0.157073 0
M  V30 1857 H 166.611 -3.15593 -0.719932 0
M  V30 1858 H 165.518 -3.3883 1.58571 0
M  V30 1859 H 166.851 -4.46627 2.06845 0
M  V30 1860 N 168.503 -0.877838 -1.30888 0
M  V30 1861 C 169.466 -0.344265 -2.266 0
M  V30 1862 C 170.466 0.50922 -1.52524 0
M  V30 1863 O 171.656 0.317398 -1.71284 0
M  V30 1864 C 168.788 0.510198 -3.37061 0
M  V30 1865 H 169.981 -1.1893 -2.7531 0
M  V30 1866 H 167.534 -0.654088 -1.41956 0
M  V30 1867 H 168.269 1.37612 -2.93655 0
M  V30 1868 H 168.054 -0.101047 -3.9197 0
M  V30 1869 H 169.544 0.875537 -4.08319 0
M  V30 1870 N 169.982 1.44106 -0.638065 0
M  V30 1871 C 170.93 2.3248 0.0748149 0
M  V30 1872 C 171.924 1.47746 0.828702 0
M  V30 1873 O 173.13 1.64049 0.740816 0
M  V30 1874 H 169.505 0.750771 0.0429686 0
M  V30 1875 H 171.476 2.90348 -0.688504 0
M  V30 1876 C 170.225 3.31843 1.03805 0
M  V30 1877 H 169.548 3.97059 0.467375 0
M  V30 1878 H 170.988 3.96345 1.50622 0
M  V30 1879 C 169.447 2.61291 2.1267 0
M  V30 1880 O 169.977 2.41702 3.20847 0
M  V30 1881 N 168.183 2.20915 1.88798 0
M  V30 1882 H 167.73 2.37047 1.00829 0
M  V30 1883 H 167.688 1.74038 2.61836 0
M  V30 1884 N 171.46 0.379036 1.52974 0
M  V30 1885 C 172.708 -0.206014 2.01047 0
M  V30 1886 C 173.029 -1.48175 1.26765 0
M  V30 1887 O 172.299 -1.92085 0.384743 0
M  V30 1888 H 170.879 -0.0791184 0.742798 0
M  V30 1889 H 173.541 0.508366 1.88153 0
M  V30 1890 H 172.637 -0.423501 3.09213 0
M  V30 1891 N 172.938 -1.57226 0.108567 0
M  V30 1892 C 174.215 -1.86333 -0.594939 0
M  V30 1893 C 174.595 -1.00788 -1.85486 0
M  V30 1894 O 173.943 -0.0839293 -2.28346 0
M  V30 1895 C 174.153 -3.37265 -0.897405 0
M  V30 1896 C 175.501 -4.05629 -1.25501 0
M  V30 1897 O 176.525 -3.42224 -0.987998 0
M  V30 1898 O 175.384 -5.17531 -1.75567 0
M  V30 1899 H 172.478 -0.771018 -0.2991 0
M  V30 1900 H 175.024 -1.69102 0.142283 0
M  V30 1901 H 173.796 -3.913 -0.00413806 0
M  V30 1902 H 173.419 -3.59889 -1.69014 0
M  V30 1903 N 174.416 0.165178 -1.56732 0
M  V30 1904 C 175.646 0.894919 -1.86212 0
M  V30 1905 C 176.054 1.76066 -0.692627 0
M  V30 1906 O 175.397 1.80387 0.347303 0
M  V30 1907 C 175.459 1.8174 -3.10179 0
M  V30 1908 C 175.123 1.13064 -4.42793 0
M  V30 1909 C 176.12 0.493169 -5.17556 0
M  V30 1910 C 173.805 1.12556 -4.89527 0
M  V30 1911 C 175.799 -0.140209 -6.37246 0
M  V30 1912 C 173.486 0.488366 -6.09145 0
M  V30 1913 C 174.484 -0.143411 -6.82849 0
M  V30 1914 O 174.172 -0.77055 -8.00199 0
M  V30 1915 H 173.904 0.265114 -0.621844 0
M  V30 1916 H 176.458 0.168242 -2.0471 0
M  V30 1917 H 174.688 2.58455 -2.87642 0
M  V30 1918 H 176.377 2.4175 -3.26055 0
M  V30 1919 H 177.143 0.489023 -4.82528 0
M  V30 1920 H 173.022 1.60672 -4.32094 0
M  V30 1921 H 176.566 -0.633932 -6.94714 0
M  V30 1922 H 172.463 0.490116 -6.43637 0
M  V30 1923 H 173.231 -0.670408 -8.1575 0
M  V30 1924 N 175.894 1.51508 0.433938 0
M  V30 1925 C 177.143 1.63578 1.18005 0
M  V30 1926 C 177.456 0.359514 1.92268 0
M  V30 1927 O 178.662 0.359632 2.69108 0
M  V30 1928 C 177.118 2.88901 2.14626 0
M  V30 1929 C 176.726 4.23544 1.45995 0
M  V30 1930 C 178.47 3.10328 2.89649 0
M  V30 1931 C 176.377 5.40014 2.4112 0
M  V30 1932 H 175.307 0.609277 0.444182 0
M  V30 1933 H 177.958 1.77978 0.446773 0
M  V30 1934 H 176.34 2.68142 2.91403 0
M  V30 1935 H 177.514 4.54696 0.747532 0
M  V30 1936 H 175.829 4.08021 0.831115 0
M  V30 1937 H 178.426 3.94518 3.60915 0
M  V30 1938 H 178.769 2.23544 3.51189 0
M  V30 1939 H 179.302 3.31443 2.19978 0
M  V30 1940 H 176.041 6.29068 1.84264 0
M  V30 1941 H 175.561 5.13233 3.10406 0
M  V30 1942 H 177.24 5.72099 3.02177 0
M  V30 1943 N 177.372 -0.689602 1.41712 0
M  V30 1944 C 178.621 -1.44534 1.40686 0
M  V30 1945 C 178.934 -1.95588 0.0213352 0
M  V30 1946 O 180.14 -2.71271 -0.111534 0
M  V30 1947 C 178.596 -2.61387 2.47396 0
M  V30 1948 C 178.204 -2.17094 3.91885 0
M  V30 1949 C 179.948 -3.38986 2.55517 0
M  V30 1950 C 177.855 -3.3094 4.90135 0
M  V30 1951 H 176.785 -0.542925 0.52321 0
M  V30 1952 H 179.436 -0.748054 1.6756 0
M  V30 1953 H 177.818 -3.33412 2.13664 0
M  V30 1954 H 178.992 -1.52318 4.34897 0
M  V30 1955 H 177.307 -1.52473 3.8748 0
M  V30 1956 H 179.904 -4.23747 3.26102 0
M  V30 1957 H 180.247 -3.84578 1.59391 0
M  V30 1958 H 180.78 -2.74021 2.8837 0
M  V30 1959 H 177.519 -2.90355 5.87685 0
M  V30 1960 H 177.039 -3.94546 4.51767 0
M  V30 1961 H 178.718 -3.9663 5.11169 0
M  V30 1962 N 178.85 -1.27639 -0.924453 0
M  V30 1963 C 180.266 -1.05113 -1.20097 0
M  V30 1964 C 180.466 0.213262 -2.00368 0
M  V30 1965 O 179.522 0.91787 -2.35226 0
M  V30 1966 C 180.835 -2.29244 -1.94596 0
M  V30 1967 C 182.383 -2.34315 -2.07522 0
M  V30 1968 C 182.858 -3.58183 -2.85427 0
M  V30 1969 N 184.349 -3.5876 -2.92994 0
M  V30 1970 C 185.084 -4.51277 -3.53746 0
M  V30 1971 N 184.58 -5.54102 -4.15863 0
M  V30 1972 N 186.373 -4.38894 -3.51181 0
M  V30 1973 H 178.524 -2.08821 -0.388264 0
M  V30 1974 H 180.787 -0.918568 -0.234385 0
M  V30 1975 H 180.493 -3.21301 -1.43034 0
M  V30 1976 H 180.367 -2.34816 -2.95197 0
M  V30 1977 H 182.754 -1.42762 -2.58269 0
M  V30 1978 H 182.835 -2.32744 -1.06131 0
M  V30 1979 H 182.479 -4.50074 -2.35363 0
M  V30 1980 H 182.409 -3.57006 -3.8711 0
M  V30 1981 H 184.9 -2.84398 -2.4885 0
M  V30 1982 H 185.213 -6.20859 -4.60168 0
M  V30 1983 H 183.558 -5.57941 -4.144 0
M  V30 1984 H 186.749 -3.57772 -3.01856 0
M  V30 1985 H 186.922 -5.11186 -3.98237 0
M  V30 1986 N 180.328 1.1314 -1.09713 0
M  V30 1987 C 181.291 2.16831 -0.742751 0
M  V30 1988 C 182.291 1.59159 0.229129 0
M  V30 1989 O 183.481 1.74199 0.00693237 0
M  V30 1990 C 180.613 3.40756 -0.0989168 0
M  V30 1991 H 181.806 2.49695 -1.66109 0
M  V30 1992 H 179.359 1.2802 -0.896699 0
M  V30 1993 H 180.094 3.13485 0.830514 0
M  V30 1994 H 179.879 3.83888 -0.798265 0
M  V30 1995 H 181.369 4.17386 0.133524 0
M  V30 1996 N 181.806 0.884767 1.30421 0
M  V30 1997 C 182.753 0.349642 2.28136 0
M  V30 1998 C 183.723 -0.560061 1.56373 0
M  V30 1999 O 184.908 -0.488524 1.8444 0
M  V30 2000 C 182.048 -0.42999 3.42411 0
M  V30 2001 C 181.161 0.508907 4.28992 0
M  V30 2002 C 180.296 -0.286301 5.30428 0
M  V30 2003 C 179.335 0.648079 6.08659 0
M  V30 2004 N 178.472 -0.111792 7.02011 0
M  V30 2005 H 183.312 1.18807 2.73293 0
M  V30 2006 H 180.849 0.597231 1.3443 0
M  V30 2007 H 182.807 -0.897923 4.07423 0
M  V30 2008 H 181.437 -1.23299 2.98324 0
M  V30 2009 H 180.489 1.09533 3.64289 0
M  V30 2010 H 181.801 1.22475 4.8353 0
M  V30 2011 H 180.955 -0.816098 6.01186 0
M  V30 2012 H 179.694 -1.03536 4.76583 0
M  V30 2013 H 178.699 1.18951 5.36778 0
M  V30 2014 H 179.924 1.39623 6.64592 0
M  V30 2015 H 177.87 -0.843395 6.50556 0
M  V30 2016 H 177.787 0.544429 7.54037 0
M  V30 2017 H 179.055 -0.622339 7.77012 0
M  V30 2018 N 183.284 -1.43765 0.645699 0
M  V30 2019 C 184.512 -2.06253 0.163556 0
M  V30 2020 C 184.927 -1.48352 -1.16778 0
M  V30 2021 O 184.284 -0.611932 -1.71935 0
M  V30 2022 C 184.335 -3.61453 0.0583186 0
M  V30 2023 O 184.056 -4.172 1.33702 0
M  V30 2024 C 185.557 -4.41002 -0.450795 0
M  V30 2025 H 182.777 -0.665413 0.0864077 0
M  V30 2026 H 185.321 -1.84396 0.884222 0
M  V30 2027 H 183.476 -3.82522 -0.612865 0
M  V30 2028 H 183.89 -5.10791 1.19131 0
M  V30 2029 H 185.364 -5.49966 -0.473403 0
M  V30 2030 H 185.841 -4.13488 -1.48068 0
M  V30 2031 H 186.447 -4.24886 0.187637 0
M  V30 2032 N 184.763 -0.387143 -1.52771 0
M  V30 2033 C 186.011 0.195349 -2.01154 0
M  V30 2034 C 186.332 1.475 -1.27549 0
M  V30 2035 O 185.602 1.91878 -0.394924 0
M  V30 2036 H 184.182 0.075178 -0.743207 0
M  V30 2037 H 186.844 -0.518337 -1.87881 0
M  V30 2038 H 185.94 0.407096 -3.09434 0
M  V30 2039 N 186.241 1.57166 -0.116904 0
M  V30 2040 C 187.471 1.99184 0.548586 0
M  V30 2041 C 187.879 0.995436 1.60897 0
M  V30 2042 O 187.222 -0.0201293 1.83689 0
M  V30 2043 C 187.284 3.37611 1.23526 0
M  V30 2044 C 186.948 4.55857 0.323077 0
M  V30 2045 C 187.945 5.18056 -0.437476 0
M  V30 2046 C 185.63 5.01751 0.234761 0
M  V30 2047 C 187.624 6.24536 -1.2741 0
M  V30 2048 C 185.311 6.08093 -0.605496 0
M  V30 2049 C 186.309 6.69352 -1.35856 0
M  V30 2050 O 185.997 7.7364 -2.18487 0
M  V30 2051 H 185.729 0.659148 0.149999 0
M  V30 2052 H 188.283 2.0443 -0.199428 0
M  V30 2053 H 186.513 3.29113 2.0303 0
M  V30 2054 H 188.202 3.63932 1.79745 0
M  V30 2055 H 188.968 4.83516 -0.379105 0
M  V30 2056 H 184.847 4.53817 0.810601 0
M  V30 2057 H 188.391 6.72281 -1.86237 0
M  V30 2058 H 184.288 6.42063 -0.665268 0
M  V30 2059 H 185.056 7.90727 -2.11406 0
M  V30 2060 N 187.719 -0.156864 1.56817 0
M  V30 2061 C 188.944 -0.890331 1.87318 0
M  V30 2062 C 189.369 -1.74394 0.704855 0
M  V30 2063 O 188.727 -1.77972 -0.345786 0
M  V30 2064 C 188.775 -1.73102 3.16336 0
M  V30 2065 O 187.879 -2.83422 2.99576 0
M  V30 2066 H 187.22 -0.24857 0.615718 0
M  V30 2067 H 189.75 -0.150649 2.04045 0
M  V30 2068 H 189.76 -2.12803 3.48107 0
M  V30 2069 H 188.435 -1.10412 4.00976 0
M  V30 2070 H 187.012 -2.47199 2.7919 0
M  V30 2071 N 189.197 -1.51736 -0.425897 0
M  V30 2072 C 190.425 -1.68794 -1.1965 0
M  V30 2073 C 190.84 -0.390164 -1.84725 0
M  V30 2074 O 190.197 0.632376 -1.71194 0
M  V30 2075 C 190.248 -2.81174 -2.27208 0
M  V30 2076 O 189.969 -4.05925 -1.64793 0
M  V30 2077 C 191.47 -3.09599 -3.17275 0
M  V30 2078 H 188.69 -0.566128 -0.360194 0
M  V30 2079 H 191.234 -1.98211 -0.503249 0
M  V30 2080 H 189.389 -2.54324 -2.9223 0
M  V30 2081 H 189.803 -4.68423 -2.35967 0
M  V30 2082 H 191.277 -3.91786 -3.88854 0
M  V30 2083 H 191.754 -2.22468 -3.78688 0
M  V30 2084 H 192.36 -3.38151 -2.57941 0
M  V30 2085 N 190.675 0.682077 -1.42076 0
M  V30 2086 C 192.091 0.994324 -1.24841 0
M  V30 2087 C 192.291 2.0096 -0.147389 0
M  V30 2088 O 191.347 2.47822 0.483782 0
M  V30 2089 C 192.66 1.50607 -2.60265 0
M  V30 2090 C 194.208 1.62421 -2.6756 0
M  V30 2091 C 194.683 2.16994 -4.03333 0
M  V30 2092 N 196.174 2.24337 -4.0525 0
M  V30 2093 C 196.909 2.67621 -5.07116 0
M  V30 2094 N 196.405 3.1041 -6.19368 0
M  V30 2095 N 198.198 2.67305 -4.94474 0
M  V30 2096 H 190.349 0.00973908 -2.12398 0
M  V30 2097 H 192.612 0.0668593 -0.945639 0
M  V30 2098 H 192.318 0.834583 -3.41654 0
M  V30 2099 H 192.192 2.48602 -2.83684 0
M  V30 2100 H 194.579 2.28678 -1.86521 0
M  V30 2101 H 194.66 0.629352 -2.47937 0
M  V30 2102 H 194.304 1.51349 -4.84826 0
M  V30 2103 H 194.234 3.17258 -4.20304 0
M  V30 2104 H 196.725 1.94158 -3.24209 0
M  V30 2105 H 197.038 3.42103 -6.92954 0
M  V30 2106 H 195.383 3.08286 -6.22884 0
M  V30 2107 H 198.574 2.33233 -4.05857 0
M  V30 2108 H 198.747 3.00718 -5.73997 0
M  V30 2109 N 192.153 1.28127 0.917671 0
M  V30 2110 C 193.402 1.14432 1.66097 0
M  V30 2111 C 193.715 -0.307247 1.93172 0
M  V30 2112 O 194.921 -0.565259 2.65551 0
M  V30 2113 C 193.377 2.00015 2.99202 0
M  V30 2114 C 192.985 3.49889 2.79789 0
M  V30 2115 C 194.729 1.94996 3.77064 0
M  V30 2116 C 192.636 4.27636 4.08511 0
M  V30 2117 H 191.566 0.424662 0.62304 0
M  V30 2118 H 194.217 1.52628 1.01868 0
M  V30 2119 H 192.599 1.54672 3.64544 0
M  V30 2120 H 193.773 4.03162 2.23152 0
M  V30 2121 H 192.088 3.56392 2.15345 0
M  V30 2122 H 194.685 2.50354 4.72469 0
M  V30 2123 H 195.028 0.925819 4.05875 0
M  V30 2124 H 195.561 2.38287 3.18534 0
M  V30 2125 H 192.3 5.30615 3.84874 0
M  V30 2126 H 191.82 3.79137 4.64774 0
M  V30 2127 H 193.499 4.37346 4.76799 0
M  V30 2128 N 193.631 -1.12557 1.10312 0
M  V30 2129 C 194.541 -2.21841 0.763142 0
M  V30 2130 C 195.557 -1.72354 -0.238801 0
M  V30 2131 O 196.733 -2.01249 -0.0778746 0
M  V30 2132 C 193.798 -3.46131 0.198632 0
M  V30 2133 C 192.859 -4.10464 1.25769 0
M  V30 2134 C 192.092 -5.28821 0.72002 0
M  V30 2135 O 192.315 -5.6859 -0.453993 0
M  V30 2136 O 191.249 -5.83437 1.47935 0
M  V30 2137 H 195.075 -2.53312 1.67532 0
M  V30 2138 H 192.66 -1.20867 0.878157 0
M  V30 2139 H 194.542 -4.2125 -0.112401 0
M  V30 2140 H 193.217 -3.16338 -0.686419 0
M  V30 2141 H 192.124 -3.3713 1.62156 0
M  V30 2142 H 193.457 -4.44408 2.11571 0
M  V30 2143 N 195.109 -0.891671 -1.2995 0
M  V30 2144 C 196.52 -0.563104 -1.78006 0
M  V30 2145 C 196.871 0.920978 -1.73241 0
M  V30 2146 O 195.996 1.71987 -1.31337 0
M  V30 2147 C 196.591 -1.01539 -3.23226 0
M  V30 2148 C 195.15 -0.738124 -3.69092 0
M  V30 2149 C 194.297 -1.19461 -2.50249 0
M  V30 2150 H 197.248 -1.07522 -1.16725 0
M  V30 2151 H 197.269 -0.347217 -3.78912 0
M  V30 2152 H 196.781 -2.09555 -3.26662 0
M  V30 2153 H 194.882 0.329766 -3.71138 0
M  V30 2154 H 194.995 -1.33037 -4.60259 0
M  V30 2155 H 193.359 -0.613787 -2.47194 0
M  V30 2156 H 194.142 -2.28265 -2.56417 0
M  V30 2157 N 196.587 1.43421 -0.653314 0
M  V30 2158 C 197.534 2.30768 0.0382271 0
M  V30 2159 C 198.504 1.44755 0.814576 0
M  V30 2160 O 199.689 1.73624 0.791162 0
M  V30 2161 C 196.829 3.30336 0.998599 0
M  V30 2162 C 195.942 4.31448 0.218342 0
M  V30 2163 C 195.077 5.18098 1.17252 0
M  V30 2164 C 194.116 6.10902 0.382702 0
M  V30 2165 N 193.253 6.90176 1.28848 0
M  V30 2166 H 198.093 2.89357 -0.712511 0
M  V30 2167 H 195.63 1.42548 -0.363128 0
M  V30 2168 H 197.588 3.86572 1.56901 0
M  V30 2169 H 196.218 2.73397 1.71621 0
M  V30 2170 H 195.27 3.77506 -0.46836 0
M  V30 2171 H 196.582 4.97227 -0.395812 0
M  V30 2172 H 195.736 5.7896 1.81356 0
M  V30 2173 H 194.475 4.52444 1.82058 0
M  V30 2174 H 193.48 5.49128 -0.27169 0
M  V30 2175 H 194.705 6.78598 -0.260957 0
M  V30 2176 H 192.651 6.27171 1.92334 0
M  V30 2177 H 192.568 7.52478 0.728887 0
M  V30 2178 H 193.836 7.55543 1.91766 0
M  V30 2179 N 198.065 0.39524 1.52563 0
M  V30 2180 C 199.314 -0.186321 2.00838 0
M  V30 2181 C 199.627 -1.47402 1.28577 0
M  V30 2182 O 200.833 -2.13599 1.67593 0
M  V30 2183 C 199.289 -0.382595 3.57861 0
M  V30 2184 C 198.897 0.892202 4.39026 0
M  V30 2185 C 200.641 -0.9202 4.14406 0
M  V30 2186 C 198.548 0.66388 5.87662 0
M  V30 2187 H 197.478 -0.0734041 0.750418 0
M  V30 2188 H 200.129 0.518552 1.76021 0
M  V30 2189 H 198.511 -1.14946 3.7895 0
M  V30 2190 H 199.685 1.66414 4.29701 0
M  V30 2191 H 198 1.35519 3.9373 0
M  V30 2192 H 200.597 -1.10683 5.23119 0
M  V30 2193 H 200.94 -1.89096 3.70875 0
M  V30 2194 H 201.473 -0.212751 3.97231 0
M  V30 2195 H 198.212 1.6058 6.35527 0
M  V30 2196 H 197.732 -0.0690193 5.9976 0
M  V30 2197 H 199.411 0.300699 6.46301 0
M  V30 2198 N 199.544 -1.57102 0.125237 0
M  V30 2199 C 200.792 -1.95021 -0.530198 0
M  V30 2200 C 201.113 -1.00982 -1.66816 0
M  V30 2201 O 200.383 -0.0672693 -1.95784 0
M  V30 2202 H 198.963 -0.720046 -0.198853 0
M  V30 2203 H 201.625 -1.93916 0.19564 0
M  V30 2204 H 200.721 -2.98211 -0.920681 0
M  V30 2205 N 201.022 0.148545 -1.56898 0
M  V30 2206 C 202.268 0.857877 -1.84424 0
M  V30 2207 C 202.623 1.7886 -0.709006 0
M  V30 2208 O 201.916 1.89344 0.293139 0
M  V30 2209 C 202.11 1.67064 -3.1595 0
M  V30 2210 C 201.939 0.82011 -4.42159 0
M  V30 2211 C 200.709 0.486328 -5.02954 0
M  V30 2212 C 202.907 0.151155 -5.14078 0
M  V30 2213 N 200.889 -0.377956 -6.12735 0
M  V30 2214 C 202.26 -0.573333 -6.17343 0
M  V30 2215 C 204.315 0.0716685 -4.97848 0
M  V30 2216 C 203.018 -1.3698 -7.06137 0
M  V30 2217 C 205.044 -0.711532 -5.87104 0
M  V30 2218 C 204.406 -1.42431 -6.8985 0
M  V30 2219 H 200.505 0.291798 -0.725519 0
M  V30 2220 H 203.089 0.123347 -1.94309 0
M  V30 2221 H 201.26 2.37642 -3.07215 0
M  V30 2222 H 202.992 2.32302 -3.31388 0
M  V30 2223 H 199.747 0.821753 -4.66416 0
M  V30 2224 H 200.171 -0.801077 -6.72244 0
M  V30 2225 H 204.813 0.608381 -4.184 0
M  V30 2226 H 202.531 -1.91778 -7.85014 0
M  V30 2227 H 206.117 -0.775005 -5.76615 0
M  V30 2228 H 204.997 -2.02061 -7.57721 0
M  V30 2229 N 202.5 1.5196 0.417844 0
M  V30 2230 C 203.746 1.66793 1.16411 0
M  V30 2231 C 204.101 0.388758 1.88432 0
M  V30 2232 O 203.394 -0.616409 1.81414 0
M  V30 2233 C 203.588 2.82269 2.19223 0
M  V30 2234 C 203.417 4.21293 1.57297 0
M  V30 2235 C 202.187 4.86948 1.34944 0
M  V30 2236 C 204.385 5.03704 1.03858 0
M  V30 2237 N 202.367 6.1003 0.688195 0
M  V30 2238 C 203.738 6.1795 0.503742 0
M  V30 2239 C 205.793 4.89095 0.932203 0
M  V30 2240 C 204.496 7.19188 -0.127034 0
M  V30 2241 C 206.522 5.90559 0.315293 0
M  V30 2242 C 205.884 7.0409 -0.208906 0
M  V30 2243 H 201.983 0.66407 0.412959 0
M  V30 2244 H 204.567 1.89242 0.457772 0
M  V30 2245 H 202.738 2.61451 2.87225 0
M  V30 2246 H 204.47 2.86183 2.86149 0
M  V30 2247 H 201.225 4.45156 1.61657 0
M  V30 2248 H 201.649 6.75964 0.374449 0
M  V30 2249 H 206.291 4.01557 1.32332 0
M  V30 2250 H 204.009 8.06359 -0.530231 0
M  V30 2251 H 207.595 5.81327 0.234625 0
M  V30 2252 H 206.475 7.81257 -0.67875 0
M  V30 2253 N 203.978 -0.674533 1.42435 0
M  V30 2254 C 205.224 -1.43671 1.43131 0
M  V30 2255 C 205.557 -1.94142 0.0476021 0
M  V30 2256 O 204.832 -1.70924 -0.928188 0
M  V30 2257 C 205.115 -2.63355 2.45594 0
M  V30 2258 C 204.968 -2.18514 3.93156 0
M  V30 2259 C 206.287 -3.65571 2.45043 0
M  V30 2260 H 203.406 -0.521077 0.521198 0
M  V30 2261 H 206.048 -0.766551 1.7385 0
M  V30 2262 H 204.198 -3.2053 2.19528 0
M  V30 2263 H 205.87 -1.66504 4.30202 0
M  V30 2264 H 204.113 -1.50086 4.07009 0
M  V30 2265 H 204.784 -3.04484 4.60428 0
M  V30 2266 H 207.26 -3.18113 2.68223 0
M  V30 2267 H 206.136 -4.46893 3.18713 0
M  V30 2268 H 206.397 -4.16716 1.47649 0
M  V30 2269 N 205.456 -1.28612 -0.910864 0
M  V30 2270 C 206.704 -1.15705 -1.65701 0
M  V30 2271 C 207.025 0.29416 -1.92769 0
M  V30 2272 O 206.295 1.20331 -1.54588 0
M  V30 2273 H 204.875 -0.425216 -0.614167 0
M  V30 2274 H 207.537 -1.61381 -1.0928 0
M  V30 2275 H 206.633 -1.6988 -2.61815 0
M  V30 2276 N 206.934 1.1197 -1.10907 0
M  V30 2277 C 208.18 1.84059 -0.865674 0
M  V30 2278 C 208.535 1.82731 0.602254 0
M  V30 2279 O 207.828 1.26543 1.43866 0
M  V30 2280 C 208.022 3.30749 -1.35425 0
M  V30 2281 C 207.851 3.46363 -2.86815 0
M  V30 2282 C 206.621 3.59712 -3.54874 0
M  V30 2283 C 208.819 3.41116 -3.84895 0
M  V30 2284 N 206.801 3.63741 -4.94536 0
M  V30 2285 C 208.172 3.51698 -5.10596 0
M  V30 2286 C 210.227 3.24612 -3.77533 0
M  V30 2287 C 208.93 3.4748 -6.29802 0
M  V30 2288 C 210.956 3.21708 -4.96244 0
M  V30 2289 C 210.318 3.32856 -6.20795 0
M  V30 2290 H 206.417 0.689015 -0.369841 0
M  V30 2291 H 209.001 1.34016 -1.41237 0
M  V30 2292 H 207.172 3.79322 -0.834814 0
M  V30 2293 H 208.904 3.90718 -1.05458 0
M  V30 2294 H 205.659 3.62038 -3.05329 0
M  V30 2295 H 206.083 3.69408 -5.67333 0
M  V30 2296 H 210.725 3.14883 -2.8215 0
M  V30 2297 H 208.443 3.55978 -7.25469 0
M  V30 2298 H 212.029 3.10113 -4.92261 0
M  V30 2299 H 210.909 3.3059 -7.11112 0
M  V30 2300 N 208.412 0.89855 1.29475 0
M  V30 2301 C 209.658 0.524658 1.95896 0
M  V30 2302 C 209.991 -0.926468 1.70676 0
M  V30 2303 O 209.266 -1.65665 1.01908 0
M  V30 2304 C 209.549 0.81633 3.50725 0
M  V30 2305 C 209.402 2.31907 3.85408 0
M  V30 2306 C 210.721 0.302038 4.39062 0
M  V30 2307 H 207.84 0.19209 0.711527 0
M  V30 2308 H 210.482 1.12502 1.53112 0
M  V30 2309 H 208.632 0.305369 3.87298 0
M  V30 2310 H 210.304 2.89949 3.58786 0
M  V30 2311 H 208.547 2.78027 3.32992 0
M  V30 2312 H 209.218 2.47373 4.93468 0
M  V30 2313 H 211.694 0.739551 4.09475 0
M  V30 2314 H 210.57 0.535331 5.46283 0
M  V30 2315 H 210.831 -0.797216 4.34853 0
M  V30 2316 N 209.89 -1.43072 0.660911 0
M  V30 2317 C 210.8 -2.34585 -0.0264163 0
M  V30 2318 C 211.816 -1.54316 -0.803898 0
M  V30 2319 O 212.992 -1.86939 -0.749391 0
M  V30 2320 C 210.057 -3.32689 -0.975639 0
M  V30 2321 C 209.118 -4.2886 -0.194236 0
M  V30 2322 C 208.351 -5.22278 -1.09825 0
M  V30 2323 O 208.574 -5.20299 -2.33763 0
M  V30 2324 O 207.508 -5.99228 -0.566513 0
M  V30 2325 H 211.334 -2.94869 0.727034 0
M  V30 2326 H 208.919 -1.43342 0.42111 0
M  V30 2327 H 210.801 -3.92995 -1.52094 0
M  V30 2328 H 209.476 -2.74898 -1.70918 0
M  V30 2329 H 208.383 -3.72011 0.394835 0
M  V30 2330 H 209.716 -4.89655 0.499899 0
M  V30 2331 N 211.368 -0.403325 -1.52352 0
M  V30 2332 C 212.298 0.416205 -2.29761 0
M  V30 2333 C 213.279 1.05123 -1.33728 0
M  V30 2334 O 214.464 1.06134 -1.62632 0
M  V30 2335 C 211.594 1.53624 -3.11475 0
M  V30 2336 C 210.548 1.02653 -4.15507 0
M  V30 2337 C 209.874 2.23971 -4.85532 0
M  V30 2338 C 211.174 0.08463 -5.22231 0
M  V30 2339 H 212.868 -0.229701 -2.98518 0
M  V30 2340 H 210.414 -0.111913 -1.43564 0
M  V30 2341 H 212.367 2.1165 -3.64393 0
M  V30 2342 H 211.091 2.20994 -2.40477 0
M  V30 2343 H 209.75 0.46871 -3.63591 0
M  V30 2344 H 209.398 2.89883 -4.11068 0
M  V30 2345 H 209.098 1.90521 -5.55856 0
M  V30 2346 H 210.622 2.82614 -5.41259 0
M  V30 2347 H 212.036 0.573509 -5.70424 0
M  V30 2348 H 210.433 -0.160783 -5.99885 0
M  V30 2349 H 211.503 -0.86237 -4.7717 0
M  V30 2350 N 212.846 1.57033 -0.133567 0
M  V30 2351 C 214.123 1.87256 0.56522 0
M  V30 2352 C 214.503 1.03726 1.83859 0
M  V30 2353 O 213.851 0.120247 2.28183 0
M  V30 2354 C 214.061 3.3865 0.843636 0
M  V30 2355 C 215.409 4.07574 1.19032 0
M  V30 2356 O 216.433 3.43752 0.933429 0
M  V30 2357 O 215.292 5.20259 1.67312 0
M  V30 2358 H 212.386 0.775678 0.286796 0
M  V30 2359 H 214.932 1.68855 -0.169168 0
M  V30 2360 H 213.704 3.91257 -0.0581149 0
M  V30 2361 H 213.327 3.62532 1.63268 0
M  V30 2362 O 214.363 -0.00541248 1.61499 0
M  V30 2363 H 215.054 -0.622816 1.83414 0
M  V30 END ATOM
M  V30 BEGIN BOND
M  V30 END BOND
M  V30 END CTAB
M  END
$$$$
