drugbank_target|Q9BWD1 Acetyl-CoA acetyltransferase, cytosolic (DB01915; DB01992)
 OpenBabel12092119523D

  0  0  0     0  0            999 V3000
M  V30 BEGIN CTAB
M  V30 COUNTS 5855 5899 0 0 0
M  V30 BEGIN ATOM
M  V30 1 H -0.908 1.98254 -0.117106 0
M  V30 2 N 0 1.576 0 0
M  V30 3 C 0.933 2.03868 1.02534 0
M  V30 4 C 1.911 0.928543 1.3348 0
M  V30 5 O 3.095 1.19667 1.45644 0
M  V30 6 C 0.222 2.43627 2.35294 0
M  V30 7 C -0.732 3.65373 2.2001 0
M  V30 8 S 0.101 5.13292 1.52614 0
M  V30 9 C 1.257 5.56322 2.86805 0
M  V30 10 H 1.49 2.90518 0.631377 0
M  V30 11 H -0.977 1.52953 0.210867 0
M  V30 12 H 0.981 2.67203 3.11629 0
M  V30 13 H -0.358 1.57376 2.7183 0
M  V30 14 H -1.165 3.90944 3.18086 0
M  V30 15 H -1.563 3.418 1.51819 0
M  V30 16 H 0.729 5.58782 3.83104 0
M  V30 17 H 1.672 6.56266 2.65933 0
M  V30 18 H 2.08 4.83886 2.90714 0
M  V30 19 N 1.4781 -0.272755 1.55222 0
M  V30 20 C 2.4261 -1.35705 1.88909 0
M  V30 21 C 3.4201 -1.5112 0.765456 0
M  V30 22 O 4.6261 -1.52901 0.949802 0
M  V30 23 H 1.0011 -0.453868 0.59959 0
M  V30 24 H 2.9721 -1.04544 2.79487 0
M  V30 25 C 1.7211 -2.71049 2.17779 0
M  V30 26 H 1.0441 -2.59979 3.03728 0
M  V30 27 H 2.4841 -3.45858 2.45272 0
M  V30 28 C 0.9431 -3.22165 0.985473 0
M  V30 29 O 1.4731 -4.01096 0.220233 0
M  V30 30 N -0.3209 -2.7985 0.783108 0
M  V30 31 H -0.7739 -2.15775 1.40708 0
M  V30 32 H -0.8159 -3.14397 -0.0130392 0
M  V30 33 N 2.9562 -1.48159 -0.537278 0
M  V30 34 C 3.9192 -1.61665 -1.62472 0
M  V30 35 C 4.9192 -0.490395 -1.5314 0
M  V30 36 O 6.1092 -0.755998 -1.5694 0
M  V30 37 C 3.2412 -1.57997 -3.02076 0
M  V30 38 H 4.4342 -2.58621 -1.51839 0
M  V30 39 H 1.9872 -1.36647 -0.758771 0
M  V30 40 H 2.7222 -0.624913 -3.18222 0
M  V30 41 H 2.5072 -2.39755 -3.10258 0
M  V30 42 H 3.9972 -1.70627 -3.81151 0
M  V30 43 N 4.4343 0.785586 -1.36625 0
M  V30 44 C 5.6823 1.54057 -1.30808 0
M  V30 45 C 6.0033 1.94683 0.111157 0
M  V30 46 O 5.2733 1.65241 1.05224 0
M  V30 47 H 3.8533 0.571354 -0.481211 0
M  V30 48 H 6.5153 0.935821 -1.70963 0
M  V30 49 H 5.6113 2.44637 -1.93801 0
M  V30 50 N 5.9124 1.20967 1.01018 0
M  V30 51 C 7.1374 1.0503 1.78839 0
M  V30 52 C 7.5624 -0.395752 1.8389 0
M  V30 53 O 6.9204 -1.28529 1.27867 0
M  V30 54 C 6.9684 1.64602 3.2084 0
M  V30 55 O 6.0724 0.887988 4.02726 0
M  V30 56 H 5.4134 0.369987 0.551367 0
M  V30 57 H 7.9434 1.60399 1.27018 0
M  V30 58 H 7.9534 1.68607 3.71532 0
M  V30 59 H 6.6284 2.69841 3.16479 0
M  V30 60 H 5.2054 0.922648 3.61305 0
M  V30 61 N 7.3905 -1.2043 1.01659 0
M  V30 62 C 8.6675 -1.8548 0.621004 0
M  V30 63 C 9.0475 -1.9091 -0.900919 0
M  V30 64 O 8.3955 -1.41694 -1.79263 0
M  V30 65 C 8.6055 -3.25119 1.2688 0
M  V30 66 C 9.9535 -4.01403 1.38423 0
M  V30 67 O 10.9775 -3.34473 1.22501 0
M  V30 68 O 9.8365 -5.21265 1.64151 0
M  V30 69 H 6.9305 -0.798761 0.214266 0
M  V30 70 H 9.4765 -1.28019 1.11396 0
M  V30 71 H 8.2485 -3.15932 2.30873 0
M  V30 72 H 7.8715 -3.90212 0.762917 0
M  V30 73 N 8.8686 -0.792821 -1.36206 0
M  V30 74 C 10.2796 -0.429513 -1.81692 0
M  V30 75 C 10.6306 1.04695 -1.65932 0
M  V30 76 O 9.7556 1.81256 -1.18218 0
M  V30 77 C 10.3506 -0.772831 -3.29868 0
M  V30 78 C 8.9096 -0.462307 -3.7355 0
M  V30 79 C 8.0566 -1.00569 -2.5842 0
M  V30 80 H 11.0076 -0.985672 -1.24379 0
M  V30 81 H 11.0286 -0.0651928 -3.80444 0
M  V30 82 H 10.5406 -1.84747 -3.41307 0
M  V30 83 H 8.6416 0.604158 -3.67669 0
M  V30 84 H 8.7546 -0.985299 -4.68859 0
M  V30 85 H 7.1186 -0.428734 -2.51066 0
M  V30 86 H 7.9016 -2.08616 -2.72643 0
M  V30 87 N 10.3467 1.47872 -0.545128 0
M  V30 88 C 11.5927 2.02793 -0.0166104 0
M  V30 89 C 11.9257 1.41987 1.32489 0
M  V30 90 O 11.2007 0.571045 1.85928 0
M  V30 91 C 11.4837 3.59989 0.0893294 0
M  V30 92 C 11.3367 4.3125 -1.27841 0
M  V30 93 C 12.6557 4.32606 0.808724 0
M  V30 94 H 9.7747 0.736962 -0.00751035 0
M  V30 95 H 12.4167 1.76433 -0.705085 0
M  V30 96 H 10.5667 3.82579 0.675681 0
M  V30 97 H 12.2387 4.20035 -1.90704 0
M  V30 98 H 10.4817 3.92076 -1.85632 0
M  V30 99 H 11.1527 5.39736 -1.15713 0
M  V30 100 H 13.6287 4.14936 0.310992 0
M  V30 101 H 12.5047 5.42251 0.851782 0
M  V30 102 H 12.7657 4.00963 1.86229 0
M  V30 103 N 11.8248 0.280983 1.55075 0
M  V30 104 C 13.0708 -0.33461 2.00021 0
M  V30 105 C 13.4038 -1.55063 1.16915 0
M  V30 106 O 12.6788 -1.93006 0.240646 0
M  V30 107 C 12.9618 -0.711007 3.53011 0
M  V30 108 C 12.8148 0.512766 4.46868 0
M  V30 109 C 14.1338 -1.54522 4.12081 0
M  V30 110 H 11.2528 -0.120147 0.727141 0
M  V30 111 H 13.8948 0.389097 1.85973 0
M  V30 112 H 12.0448 -1.32761 3.65112 0
M  V30 113 H 13.7168 1.15131 4.46702 0
M  V30 114 H 11.9598 1.14975 4.18286 0
M  V30 115 H 12.6308 0.205556 5.51617 0
M  V30 116 H 15.1068 -1.02442 4.03293 0
M  V30 117 H 13.9828 -1.77739 5.19327 0
M  V30 118 H 14.2438 -2.52813 3.62682 0
M  V30 119 N 13.3029 -1.57598 0.00835791 0
M  V30 120 C 14.5519 -1.90107 -0.673968 0
M  V30 121 C 14.8649 -0.884275 -1.7447 0
M  V30 122 O 16.0709 -1.09987 -2.48224 0
M  V30 123 C 14.5269 -3.37497 -1.24995 0
M  V30 124 C 14.1349 -4.47491 -0.2136 0
M  V30 125 C 15.8789 -3.79104 -1.90999 0
M  V30 126 C 13.7859 -5.85963 -0.80005 0
M  V30 127 H 12.7159 -0.709393 -0.255495 0
M  V30 128 H 15.3669 -1.83365 0.0702693 0
M  V30 129 H 13.7489 -3.39102 -2.04513 0
M  V30 130 H 14.9229 -4.57414 0.557596 0
M  V30 131 H 13.2379 -4.14956 0.346474 0
M  V30 132 H 15.8349 -4.79901 -2.35795 0
M  V30 133 H 16.1779 -3.1306 -2.74407 0
M  V30 134 H 16.7109 -3.79833 -1.18203 0
M  V30 135 H 13.4499 -6.555 -0.00456708 0
M  V30 136 H 12.9699 -5.79687 -1.54021 0
M  V30 137 H 14.6489 -6.33884 -1.29615 0
M  V30 138 N 14.781 0.264519 -1.55364 0
M  V30 139 C 16.027 0.99646 -1.76631 0
M  V30 140 C 16.36 1.85632 -0.570478 0
M  V30 141 O 15.635 1.89647 0.43175 0
M  V30 142 C 15.918 1.87187 -3.07625 0
M  V30 143 C 15.771 1.04138 -4.37579 0
M  V30 144 C 17.09 2.85749 -3.34717 0
M  V30 145 H 14.209 0.360841 -0.642622 0
M  V30 146 H 16.851 0.268218 -1.88097 0
M  V30 147 H 15.001 2.49279 -2.9798 0
M  V30 148 H 16.673 0.440517 -4.59192 0
M  V30 149 H 14.916 0.345115 -4.32425 0
M  V30 150 H 15.587 1.68729 -5.2558 0
M  V30 151 H 18.063 2.33793 -3.4421 0
M  V30 152 H 16.939 3.44136 -4.27623 0
M  V30 153 H 17.2 3.61311 -2.54768 0
M  V30 154 N 16.2591 1.48442 0.529413 0
M  V30 155 C 17.4841 1.60406 1.31471 0
M  V30 156 C 17.9091 0.264738 1.86228 0
M  V30 157 O 17.2671 -0.763668 1.64432 0
M  V30 158 C 17.3151 2.65419 2.44101 0
M  V30 159 O 16.4191 2.22618 3.47153 0
M  V30 160 H 15.7601 0.537863 0.389357 0
M  V30 161 H 18.2901 1.94432 0.636965 0
M  V30 162 H 18.3001 2.86709 2.90279 0
M  V30 163 H 16.9751 3.62652 2.03608 0
M  V30 164 H 15.5521 2.11543 3.0709 0
M  V30 165 N 17.7372 -0.778329 1.37039 0
M  V30 166 C 18.7002 -1.87301 1.32102 0
M  V30 167 C 19.7002 -1.59198 0.226405 0
M  V30 168 O 20.8902 -1.67403 0.481861 0
M  V30 169 C 18.0222 -3.24309 1.05055 0
M  V30 170 H 19.2152 -1.93093 2.29467 0
M  V30 171 H 16.7682 -0.977358 1.21973 0
M  V30 172 H 17.5032 -3.24196 0.0819373 0
M  V30 173 H 17.2882 -3.46098 1.84279 0
M  V30 174 H 18.7782 -4.04382 1.04234 0
M  V30 175 N 19.2153 -1.21501 -1.00376 0
M  V30 176 C 20.1783 -0.976927 -2.07337 0
M  V30 177 C 21.1783 0.0525322 -1.60714 0
M  V30 178 O 22.3683 -0.184869 -1.73216 0
M  V30 179 C 19.5003 -0.473423 -3.37597 0
M  V30 180 H 20.6933 -1.92587 -2.29892 0
M  V30 181 H 18.2463 -1.03217 -1.17371 0
M  V30 182 H 18.9813 0.480379 -3.20722 0
M  V30 183 H 18.7663 -1.216 -3.72768 0
M  V30 184 H 20.2563 -0.32675 -4.1632 0
M  V30 185 N 20.6934 1.19889 -1.02296 0
M  V30 186 C 22.1094 1.41462 -0.738954 0
M  V30 187 C 22.3094 1.89721 0.678846 0
M  V30 188 O 21.3654 2.07016 1.4457 0
M  V30 189 C 22.6784 2.43083 -1.77005 0
M  V30 190 C 24.2264 2.5684 -1.78892 0
M  V30 191 C 24.7014 3.61709 -2.80945 0
M  V30 192 N 26.1924 3.69199 -2.79725 0
M  V30 193 C 26.9274 4.50019 -3.55345 0
M  V30 194 N 26.4234 5.34592 -4.40662 0
M  V30 195 N 28.2164 4.44612 -3.43914 0
M  V30 196 H 20.3674 0.868827 -1.93817 0
M  V30 197 H 22.6304 0.44399 -0.837602 0
M  V30 198 H 22.3364 2.14636 -2.78612 0
M  V30 199 H 22.2104 3.4217 -1.58744 0
M  V30 200 H 24.5974 2.84614 -0.779674 0
M  V30 201 H 24.6784 1.57927 -2.01228 0
M  V30 202 H 24.3224 3.34678 -3.82038 0
M  V30 203 H 24.2524 4.60259 -2.5587 0
M  V30 204 H 26.7434 3.08794 -2.17842 0
M  V30 205 H 27.0564 5.93363 -4.95116 0
M  V30 206 H 25.4014 5.34073 -4.44737 0
M  V30 207 H 28.5924 3.7758 -2.76679 0
M  V30 208 H 28.7654 5.0736 -4.031 0
M  V30 209 N 22.1715 0.800033 1.35784 0
M  V30 210 C 23.3995 0.389606 2.03199 0
M  V30 211 C 23.8145 -0.997375 1.60306 0
M  V30 212 O 23.1715 -1.64154 0.797481 0
M  V30 213 C 23.2225 0.455855 3.58614 0
M  V30 214 O 22.9435 1.78815 3.99946 0
M  V30 215 C 24.4445 0.0374032 4.43284 0
M  V30 216 H 21.6645 0.159132 0.651857 0
M  V30 217 H 24.2085 1.08183 1.73541 0
M  V30 218 H 22.3635 -0.188057 3.86943 0
M  V30 219 H 22.7775 1.74636 4.94573 0
M  V30 220 H 24.2515 0.134882 5.51835 0
M  V30 221 H 24.7285 -1.01651 4.27275 0
M  V30 222 H 25.3345 0.654215 4.20238 0
M  V30 223 N 23.6496 -1.47581 0.552962 0
M  V30 224 C 24.8986 -2.01684 0.0251995 0
M  V30 225 C 25.2116 -1.43317 -1.33115 0
M  V30 226 O 26.4176 -1.89057 -1.94858 0
M  V30 227 C 24.8736 -3.599 -0.00542052 0
M  V30 228 C 24.4816 -4.27257 1.34742 0
M  V30 229 C 26.2256 -4.21768 -0.4808 0
M  V30 230 C 24.1326 -5.77467 1.27614 0
M  V30 231 H 23.0626 -0.753979 0.00565033 0
M  V30 232 H 25.7136 -1.69616 0.70018 0
M  V30 233 H 24.0956 -3.88911 -0.745961 0
M  V30 234 H 25.2696 -4.09893 2.10534 0
M  V30 235 H 23.5846 -3.77358 1.76039 0
M  V30 236 H 26.1816 -5.31838 -0.55246 0
M  V30 237 H 26.5246 -3.88651 -1.49184 0
M  V30 238 H 27.0576 -3.97273 0.204752 0
M  V30 239 H 23.7966 -6.15196 2.26304 0
M  V30 240 H 23.3166 -5.9718 0.55996 0
M  V30 241 H 24.9956 -6.3959 0.976421 0
M  V30 242 N 25.1277 -0.289203 -1.54924 0
M  V30 243 C 26.3767 0.324231 -1.99077 0
M  V30 244 C 26.6897 1.5591 -1.18117 0
M  V30 245 O 27.8957 2.24637 -1.52481 0
M  V30 246 C 26.3517 0.628209 -3.54375 0
M  V30 247 C 25.9597 -0.587647 -4.44129 0
M  V30 248 C 27.7037 1.20349 -4.07083 0
M  V30 249 C 25.6107 -0.257475 -5.90839 0
M  V30 250 H 24.5407 0.124924 -0.743579 0
M  V30 251 H 27.1917 -0.396063 -1.79175 0
M  V30 252 H 25.5737 1.40778 -3.70132 0
M  V30 253 H 26.7477 -1.36418 -4.40144 0
M  V30 254 H 25.0627 -1.08074 -4.0213 0
M  V30 255 H 27.6597 1.46456 -5.14252 0
M  V30 256 H 28.0027 2.14195 -3.56968 0
M  V30 257 H 28.5357 0.485889 -3.94821 0
M  V30 258 H 25.2747 -1.16419 -6.45079 0
M  V30 259 H 24.7947 0.482018 -5.9786 0
M  V30 260 H 26.4737 0.145238 -6.46837 0
M  V30 261 N 26.6058 1.57591 -0.0167156 0
M  V30 262 C 27.8538 1.90906 0.663285 0
M  V30 263 C 28.1748 0.892509 1.73376 0
M  V30 264 O 27.4448 -0.0677623 1.95783 0
M  V30 265 H 26.0248 0.704637 0.247983 0
M  V30 266 H 28.6868 1.94803 -0.0615909 0
M  V30 267 H 27.7828 2.9116 1.12393 0
M  V30 268 N 28.0839 -0.256276 1.55502 0
M  V30 269 C 29.3089 -1.00766 1.81276 0
M  V30 270 C 29.7339 -1.78524 0.59252 0
M  V30 271 O 29.0919 -1.75413 -0.45827 0
M  V30 272 C 29.1399 -1.92869 3.04687 0
M  V30 273 O 28.2439 -3.019 2.80945 0
M  V30 274 H 27.5849 -0.287224 0.598664 0
M  V30 275 H 30.1149 -0.280109 2.02674 0
M  V30 276 H 30.1249 -2.34511 3.33869 0
M  V30 277 H 28.7999 -1.35689 3.93143 0
M  V30 278 H 27.3769 -2.64454 2.62904 0
M  V30 279 N 29.562 -1.4872 -0.521534 0
M  V30 280 C 30.809 -1.57168 -1.27689 0
M  V30 281 C 31.137 -0.249275 -1.92896 0
M  V30 282 O 30.392 0.761162 -1.80291 0
M  V30 283 C 30.691 -2.66497 -2.38148 0
M  V30 284 C 30.357 -4.08664 -1.90538 0
M  V30 285 C 29.019 -4.47357 -1.77271 0
M  V30 286 C 31.371 -4.97724 -1.54663 0
M  V30 287 C 28.699 -5.72905 -1.26478 0
M  V30 288 C 31.051 -6.2377 -1.05329 0
M  V30 289 C 29.715 -6.61311 -0.906861 0
M  V30 290 H 28.985 -0.575117 -0.467249 0
M  V30 291 H 31.632 -1.82472 -0.581051 0
M  V30 292 H 29.937 -2.35085 -3.13437 0
M  V30 293 H 31.634 -2.70246 -2.96257 0
M  V30 294 H 28.224 -3.78111 -2.01816 0
M  V30 295 H 32.408 -4.68501 -1.63768 0
M  V30 296 H 27.664 -6.00709 -1.13835 0
M  V30 297 H 31.838 -6.9217 -0.76644 0
M  V30 298 H 29.465 -7.5848 -0.511083 0
M  V30 299 N 31.0401 0.771051 -1.3745 0
M  V30 300 C 31.9881 1.90574 -1.33358 0
M  V30 301 C 32.9821 1.67936 -0.22224 0
M  V30 302 O 34.1881 1.75717 -0.390304 0
M  V30 303 H 30.5631 0.626714 -0.415612 0
M  V30 304 H 32.5341 1.91142 -2.29144 0
M  V30 305 C 31.2831 3.27845 -1.15813 0
M  V30 306 H 30.6061 3.45842 -2.00583 0
M  V30 307 H 32.0461 4.07538 -1.17 0
M  V30 308 C 30.5051 3.36625 0.136165 0
M  V30 309 O 31.0351 3.85785 1.11949 0
M  V30 310 N 29.2411 2.89997 0.187099 0
M  V30 311 H 28.7881 2.50182 -0.613753 0
M  V30 312 H 28.7461 2.96252 1.05272 0
M  V30 313 N 32.5182 1.22032 0.997298 0
M  V30 314 C 33.7662 1.04016 1.73278 0
M  V30 315 C 34.0872 -0.426255 1.90284 0
M  V30 316 O 33.3572 -1.30694 1.45931 0
M  V30 317 H 31.9372 0.381897 0.642 0
M  V30 318 H 34.5992 1.5347 1.20137 0
M  V30 319 H 33.6952 1.51441 2.72896 0
M  V30 320 N 33.9963 -1.19345 1.0293 0
M  V30 321 C 34.9593 -2.20793 0.615069 0
M  V30 322 C 35.9593 -1.57553 -0.321533 0
M  V30 323 O 37.1493 -1.73862 -0.108483 0
M  V30 324 C 34.2813 -3.40754 -0.0999222 0
M  V30 325 H 35.4743 -2.58955 1.51269 0
M  V30 326 H 33.0273 -1.3303 0.820534 0
M  V30 327 H 33.7623 -3.0811 -1.01187 0
M  V30 328 H 33.5473 -3.87889 0.57309 0
M  V30 329 H 35.0373 -4.15898 -0.376645 0
M  V30 330 N 35.4744 -0.807222 -1.35358 0
M  V30 331 C 36.4044 -0.232509 -2.3234 0
M  V30 332 C 37.3854 0.642386 -1.57504 0
M  V30 333 O 38.5704 0.572526 -1.85569 0
M  V30 334 C 35.7004 0.619238 -3.41735 0
M  V30 335 C 34.6544 -0.157215 -4.27711 0
M  V30 336 C 33.9804 0.816273 -5.28433 0
M  V30 337 C 35.2804 -1.35656 -5.04376 0
M  V30 338 H 36.9744 -1.04276 -2.80654 0
M  V30 339 H 34.5204 -0.50288 -1.34934 0
M  V30 340 H 36.4734 1.03137 -4.08584 0
M  V30 341 H 35.1974 1.46239 -2.92031 0
M  V30 342 H 33.8564 -0.550525 -3.62443 0
M  V30 343 H 33.5044 1.65494 -4.74996 0
M  V30 344 H 33.2044 0.301067 -5.86828 0
M  V30 345 H 34.7284 1.22659 -5.98153 0
M  V30 346 H 36.1424 -1.01927 -5.64166 0
M  V30 347 H 34.5394 -1.8063 -5.7227 0
M  V30 348 H 35.6094 -2.14288 -4.34981 0
M  V30 349 N 36.9525 1.47285 -0.560781 0
M  V30 350 C 37.9155 2.28535 0.174488 0
M  V30 351 C 38.9155 1.37153 0.839388 0
M  V30 352 O 40.1055 1.59748 0.694702 0
M  V30 353 C 37.2375 3.16934 1.25561 0
M  V30 354 H 38.4305 2.95012 -0.539262 0
M  V30 355 H 35.9835 1.53034 -0.317865 0
M  V30 356 H 36.7185 2.55157 2.00164 0
M  V30 357 H 36.5035 3.8419 0.783604 0
M  V30 358 H 37.9935 3.78143 1.77193 0
M  V30 359 N 38.4306 0.297415 1.54768 0
M  V30 360 C 39.3936 -0.567375 2.22066 0
M  V30 361 C 40.3936 -1.06409 1.20556 0
M  V30 362 O 41.5836 -0.960691 1.45315 0
M  V30 363 C 38.7156 -1.78517 2.90421 0
M  V30 364 H 39.9086 0.0205534 2.99893 0
M  V30 365 H 37.4616 0.0482163 1.56226 0
M  V30 366 H 38.1966 -2.41303 2.16664 0
M  V30 367 H 37.9816 -1.43669 3.64831 0
M  V30 368 H 39.4716 -2.39964 3.41771 0
M  V30 369 N 39.9087 -1.5758 0.0250728 0
M  V30 370 C 41.1547 -1.91917 -0.655413 0
M  V30 371 C 41.4877 -0.901433 -1.72011 0
M  V30 372 O 40.7627 0.0764069 -1.9435 0
M  V30 373 C 41.0457 -3.36751 -1.27558 0
M  V30 374 C 40.8987 -4.49258 -0.220719 0
M  V30 375 C 42.2177 -3.81469 -2.19475 0
M  V30 376 H 39.3367 -0.697925 -0.23679 0
M  V30 377 H 41.9787 -1.89825 0.0815036 0
M  V30 378 H 40.1287 -3.38664 -1.90365 0
M  V30 379 H 41.8007 -4.59478 0.409601 0
M  V30 380 H 40.0437 -4.31415 0.454264 0
M  V30 381 H 40.7147 -5.47618 -0.694175 0
M  V30 382 H 43.1907 -3.81266 -1.66659 0
M  V30 383 H 42.0667 -4.83512 -2.59822 0
M  V30 384 H 42.3277 -3.16744 -3.08424 0
M  V30 385 N 41.3868 0.248026 -1.55636 0
M  V30 386 C 42.7978 0.817177 -1.67866 0
M  V30 387 C 43.1488 1.86069 -0.622322 0
M  V30 388 O 42.2738 2.15157 0.231618 0
M  V30 389 C 42.8688 1.489 -3.04326 0
M  V30 390 C 41.4278 2.00587 -3.185 0
M  V30 391 C 40.5748 0.856573 -2.63739 0
M  V30 392 H 43.5258 0.0238579 -1.58682 0
M  V30 393 H 43.5468 2.35698 -2.98708 0
M  V30 394 H 43.0588 0.729279 -3.81186 0
M  V30 395 H 41.1598 2.79443 -2.4646 0
M  V30 396 H 41.2728 2.20402 -4.25393 0
M  V30 397 H 39.6368 1.25678 -2.21534 0
M  V30 398 H 40.4198 0.109953 -3.43124 0
M  V30 399 N 42.8649 1.48995 0.513639 0
M  V30 400 C 44.1109 1.58076 1.27042 0
M  V30 401 C 44.4439 0.261026 1.92438 0
M  V30 402 O 43.7189 -0.734393 1.80103 0
M  V30 403 C 44.0019 2.73091 2.34719 0
M  V30 404 C 43.8549 4.14821 1.73907 0
M  V30 405 C 45.1739 2.83796 3.36375 0
M  V30 406 H 42.2929 0.575391 0.460536 0
M  V30 407 H 44.9349 1.81232 0.570516 0
M  V30 408 H 43.0849 2.53479 2.94416 0
M  V30 409 H 44.7569 4.45917 1.18135 0
M  V30 410 H 42.9999 4.21058 1.0437 0
M  V30 411 H 43.6709 4.91147 2.51949 0
M  V30 412 H 46.1469 3.01611 2.86653 0
M  V30 413 H 45.0229 3.65971 4.09093 0
M  V30 414 H 45.2839 1.92624 3.9793 0
M  V30 415 N 44.343 -0.763751 1.37857 0
M  V30 416 C 45.275 -1.88664 1.30148 0
M  V30 417 C 46.288 -1.61365 0.215685 0
M  V30 418 O 47.477 -1.72134 0.472459 0
M  V30 419 C 44.577 -3.24075 0.991396 0
M  V30 420 C 43.75 -3.78958 2.18426 0
M  V30 421 C 42.809 -4.92862 1.8432 0
M  V30 422 O 41.835 -5.08027 2.56704 0
M  V30 423 N 43.037 -5.75071 0.792081 0
M  V30 424 H 45.802 -1.95791 2.26905 0
M  V30 425 H 43.363 -0.943226 1.31586 0
M  V30 426 H 45.355 -3.97804 0.743935 0
M  V30 427 H 43.925 -3.12399 0.112122 0
M  V30 428 H 43.145 -2.96913 2.59299 0
M  V30 429 H 44.433 -4.12357 2.98058 0
M  V30 430 H 43.831 -5.65375 0.191595 0
M  V30 431 H 42.388 -6.48991 0.60449 0
M  V30 432 N 45.8211 -1.22559 -0.990812 0
M  V30 433 C 47.0981 -0.959875 -1.70428 0
M  V30 434 C 47.4781 0.524455 -2.04481 0
M  V30 435 O 46.8261 1.49302 -1.72977 0
M  V30 436 C 47.0361 -1.85955 -2.95333 0
M  V30 437 C 48.3841 -2.11687 -3.68068 0
M  V30 438 O 49.4081 -1.8342 -3.05345 0
M  V30 439 O 48.2671 -2.59572 -4.80921 0
M  V30 440 H 45.3611 -0.361154 -0.743974 0
M  V30 441 H 47.9071 -1.33554 -1.04697 0
M  V30 442 H 46.6791 -2.86346 -2.66687 0
M  V30 443 H 46.3021 -1.4856 -3.68803 0
M  V30 444 N 47.2992 1.18797 -1.03562 0
M  V30 445 C 48.2292 2.24472 -0.643019 0
M  V30 446 C 49.2102 1.66433 0.351283 0
M  V30 447 O 50.3952 1.92803 0.232505 0
M  V30 448 C 47.5252 3.473 4.24935e-05 0
M  V30 449 C 46.4792 4.18055 -0.917257 0
M  V30 450 C 45.8052 5.34519 -0.138941 0
M  V30 451 C 47.1052 4.72109 -2.23407 0
M  V30 452 H 48.7992 2.57566 -1.52643 0
M  V30 453 H 46.3452 1.23806 -0.735394 0
M  V30 454 H 48.2982 4.20426 0.286383 0
M  V30 455 H 47.0222 3.13424 0.918299 0
M  V30 456 H 45.6812 3.46821 -1.1879 0
M  V30 457 H 45.3292 4.96891 0.781562 0
M  V30 458 H 45.0292 5.82794 -0.750005 0
M  V30 459 H 46.5532 6.10438 0.1405 0
M  V30 460 H 47.9672 5.36955 -2.00879 0
M  V30 461 H 46.3642 5.30897 -2.79765 0
M  V30 462 H 47.4342 3.89807 -2.88407 0
M  V30 463 N 48.7773 0.814389 1.34928 0
M  V30 464 C 50.0253 0.397636 1.9815 0
M  V30 465 C 50.3463 -1.04069 1.64908 0
M  V30 466 O 49.6163 -1.72121 0.93548 0
M  V30 467 H 48.1963 0.144043 0.732981 0
M  V30 468 H 50.8583 1.04195 1.6471 0
M  V30 469 H 49.9543 0.509688 3.0791 0
M  V30 470 N 50.2554 -1.46986 0.568584 0
M  V30 471 C 51.4804 -2.07335 0.0520528 0
M  V30 472 C 51.9054 -1.41675 -1.23733 0
M  V30 473 O 51.2634 -0.495623 -1.74394 0
M  V30 474 C 51.3114 -3.60417 -0.11501 0
M  V30 475 O 50.4154 -3.95309 -1.17492 0
M  V30 476 H 49.7564 -0.661597 0.0564385 0
M  V30 477 H 52.2864 -1.88837 0.787507 0
M  V30 478 H 52.2964 -4.06698 -0.325644 0
M  V30 479 H 50.9714 -4.07601 0.826675 0
M  V30 480 H 49.5484 -3.60757 -0.943869 0
M  V30 481 N 51.7335 -0.305618 -1.54608 0
M  V30 482 C 52.9615 0.304775 -2.04643 0
M  V30 483 C 53.3765 1.47167 -1.18268 0
M  V30 484 O 52.7335 1.81296 -0.209328 0
M  V30 485 C 52.7845 0.756564 -3.53495 0
M  V30 486 O 52.5055 -0.36389 -4.36586 0
M  V30 487 C 54.0065 1.43163 -4.19546 0
M  V30 488 H 51.2265 0.0655481 -0.667791 0
M  V30 489 H 53.7705 -0.446592 -1.99564 0
M  V30 490 H 51.9255 1.45794 -3.58919 0
M  V30 491 H 52.3395 -0.0113121 -5.24499 0
M  V30 492 H 53.8135 1.69886 -5.25207 0
M  V30 493 H 54.2905 2.37318 -3.69563 0
M  V30 494 H 54.8965 0.773307 -4.18211 0
M  V30 495 N 53.2116 1.57565 -0.0334293 0
M  V30 496 C 54.4576 1.92262 0.645226 0
M  V30 497 C 54.7906 0.910543 1.71531 0
M  V30 498 O 54.0656 -0.066099 1.94388 0
M  V30 499 C 54.3486 3.37422 1.2577 0
M  V30 500 C 54.2016 4.49369 0.196891 0
M  V30 501 C 55.5206 3.82628 2.17449 0
M  V30 502 H 52.6396 0.699171 0.233085 0
M  V30 503 H 55.2816 1.89779 -0.0915694 0
M  V30 504 H 53.4316 3.39669 1.88566 0
M  V30 505 H 55.1036 4.59254 -0.433962 0
M  V30 506 H 53.3466 4.31168 -0.477137 0
M  V30 507 H 54.0176 5.47978 0.665124 0
M  V30 508 H 56.4936 3.82145 1.64634 0
M  V30 509 H 55.3696 4.84883 2.57254 0
M  V30 510 H 55.6306 3.18376 3.0674 0
M  V30 511 N 54.6897 -0.239769 1.55765 0
M  V30 512 C 55.9387 -0.964754 1.77131 0
M  V30 513 C 56.2517 -1.86213 0.59868 0
M  V30 514 O 57.4577 -2.6244 0.695522 0
M  V30 515 C 55.9137 -1.76552 3.1362 0
M  V30 516 C 55.5217 -0.915185 4.38553 0
M  V30 517 C 57.2657 -2.48281 3.44321 0
M  V30 518 C 55.1727 -1.71225 5.66071 0
M  V30 519 H 54.1027 -0.363953 0.660344 0
M  V30 520 H 56.7537 -0.219181 1.82186 0
M  V30 521 H 55.1357 -2.55331 3.02691 0
M  V30 522 H 56.3097 -0.169217 4.60489 0
M  V30 523 H 54.6247 -0.310889 4.15238 0
M  V30 524 H 57.2217 -3.08382 4.36812 0
M  V30 525 H 57.5647 -3.20256 2.65973 0
M  V30 526 H 58.0977 -1.76507 3.56497 0
M  V30 527 H 54.8367 -1.03612 6.4726 0
M  V30 528 H 54.3567 -2.43331 5.48224 0
M  V30 529 H 56.0357 -2.27758 6.05587 0
M  V30 530 N 56.1678 -1.49265 -0.50573 0
M  V30 531 C 57.1148 -1.65585 -1.6078 0
M  V30 532 C 58.0848 -0.497396 -1.58478 0
M  V30 533 O 59.2698 -0.72385 -1.76536 0
M  V30 534 C 56.4098 -1.72408 -2.98948 0
M  V30 535 C 55.5228 -2.99525 -3.11301 0
M  V30 536 C 54.6578 -2.97356 -4.40174 0
M  V30 537 C 53.6968 -4.19074 -4.46143 0
M  V30 538 N 52.8338 -4.14841 -5.66437 0
M  V30 539 H 57.6738 -2.59688 -1.46172 0
M  V30 540 H 55.2108 -1.28761 -0.711261 0
M  V30 541 H 57.1688 -1.74344 -3.79025 0
M  V30 542 H 55.7988 -0.817753 -3.1227 0
M  V30 543 H 54.8508 -3.07222 -2.24318 0
M  V30 544 H 56.1628 -3.89518 -3.11572 0
M  V30 545 H 55.3168 -2.97829 -5.28567 0
M  V30 546 H 54.0558 -2.05133 -4.42461 0
M  V30 547 H 53.0608 -4.1885 -3.56153 0
M  V30 548 H 54.2858 -5.12483 -4.45575 0
M  V30 549 H 52.2318 -3.25453 -5.69575 0
M  V30 550 H 52.1488 -4.98564 -5.68304 0
M  V30 551 H 53.4168 -4.1941 -6.57051 0
M  V30 552 N 57.6459 0.756429 -1.3826 0
M  V30 553 C 58.5559 1.9009 -1.37488 0
M  V30 554 C 59.5719 1.71855 -0.272366 0
M  V30 555 O 60.7479 1.94827 -0.510318 0
M  V30 556 C 57.8129 3.25421 -1.19592 0
M  V30 557 C 56.8739 3.56202 -2.39622 0
M  V30 558 C 56.1069 4.85075 -2.2257 0
M  V30 559 O 56.3299 5.57246 -1.21793 0
M  V30 560 O 55.2639 5.15269 -3.11098 0
M  V30 561 H 59.0899 1.93695 -2.33914 0
M  V30 562 H 56.6749 0.901313 -1.1915 0
M  V30 563 H 58.5569 4.06337 -1.11661 0
M  V30 564 H 57.2319 3.22634 -0.262486 0
M  V30 565 H 56.1389 2.75458 -2.53128 0
M  V30 566 H 57.4719 3.63747 -3.31586 0
M  V30 567 N 59.124 1.23083 0.984299 0
M  V30 568 C 60.37 1.06214 1.72761 0
M  V30 569 C 60.703 -0.400584 1.90024 0
M  V30 570 O 59.978 -1.29672 1.44967 0
M  V30 571 C 60.261 1.78375 3.12817 0
M  V30 572 C 60.114 3.32296 3.03149 0
M  V30 573 C 61.433 1.54309 4.12161 0
M  V30 574 H 58.552 0.387251 0.627061 0
M  V30 575 H 61.194 1.51536 1.14616 0
M  V30 576 H 59.344 1.39848 3.62457 0
M  V30 577 H 61.016 3.8032 2.61064 0
M  V30 578 H 59.259 3.6153 2.39747 0
M  V30 579 H 59.93 3.77972 4.02295 0
M  V30 580 H 62.406 1.87791 3.71314 0
M  V30 581 H 61.282 2.07281 5.08258 0
M  V30 582 H 61.543 0.477572 4.39513 0
M  V30 583 N 60.6021 -1.18246 1.0419 0
M  V30 584 C 61.5321 -2.24127 0.654914 0
M  V30 585 C 62.5131 -1.66617 -0.342451 0
M  V30 586 O 63.6981 -1.92924 -0.222277 0
M  V30 587 C 60.8281 -3.47295 0.0183757 0
M  V30 588 C 59.7821 -4.17563 0.939414 0
M  V30 589 C 59.1081 -5.34438 0.167286 0
M  V30 590 C 60.4081 -4.70917 2.25908 0
M  V30 591 H 62.1021 -2.56753 1.54007 0
M  V30 592 H 59.6481 -1.23414 0.74195 0
M  V30 593 H 61.6011 -4.20572 -0.264082 0
M  V30 594 H 60.3251 -3.13907 -0.901664 0
M  V30 595 H 58.9841 -3.46186 1.20628 0
M  V30 596 H 58.6321 -4.97298 -0.7552 0
M  V30 597 H 58.3321 -5.82388 0.780901 0
M  V30 598 H 59.8561 -6.10504 -0.108125 0
M  V30 599 H 61.2701 -5.35882 2.03724 0
M  V30 600 H 59.6671 -5.29406 2.82577 0
M  V30 601 H 60.7371 -3.88272 2.9047 0
M  V30 602 N 62.0802 -0.821533 -1.34494 0
M  V30 603 C 63.0272 -0.240397 -2.29545 0
M  V30 604 C 63.9972 0.634031 -1.53523 0
M  V30 605 O 65.1822 0.575966 -1.81899 0
M  V30 606 C 62.3222 0.592869 -3.39969 0
M  V30 607 C 61.4352 -0.30365 -4.30932 0
M  V30 608 C 60.5702 0.539049 -5.28458 0
M  V30 609 C 59.6092 -0.356942 -6.11058 0
M  V30 610 N 58.7462 0.446603 -7.00678 0
M  V30 611 H 63.5862 -1.05632 -2.7865 0
M  V30 612 H 61.1232 -0.532413 -1.37127 0
M  V30 613 H 63.0812 1.09129 -4.02675 0
M  V30 614 H 61.7112 1.37392 -2.92102 0
M  V30 615 H 60.7632 -0.920276 -3.691 0
M  V30 616 H 62.0752 -0.992661 -4.88823 0
M  V30 617 H 61.2292 1.102 -5.96608 0
M  V30 618 H 59.9682 1.26157 -4.71101 0
M  V30 619 H 58.9732 -0.932047 -5.41842 0
M  V30 620 H 60.1982 -1.07755 -6.70497 0
M  V30 621 H 58.1442 1.15282 -6.45791 0
M  V30 622 H 58.0612 -0.184048 -7.55776 0
M  V30 623 H 59.3292 0.992352 -7.73158 0
M  V30 624 N 63.5583 1.46682 -0.576371 0
M  V30 625 C 64.9743 1.57822 -0.237562 0
M  V30 626 C 65.1743 1.57237 1.26011 0
M  V30 627 O 64.2303 1.48596 2.04146 0
M  V30 628 C 65.5433 2.87499 -0.881168 0
M  V30 629 C 67.0913 3.01119 -0.85417 0
M  V30 630 C 67.5663 4.33524 -1.4772 0
M  V30 631 N 69.0573 4.40207 -1.44125 0
M  V30 632 C 69.7923 5.4126 -1.89276 0
M  V30 633 N 69.2883 6.49021 -2.42371 0
M  V30 634 N 71.0813 5.32422 -1.80231 0
M  V30 635 H 63.2323 1.45306 -1.54919 0
M  V30 636 H 65.4953 0.692733 -0.647167 0
M  V30 637 H 65.2013 2.9372 -1.93447 0
M  V30 638 H 65.0753 3.75224 -0.385592 0
M  V30 639 H 67.4623 2.94485 0.190491 0
M  V30 640 H 67.5433 2.14887 -1.3877 0
M  V30 641 H 67.1873 4.40916 -2.52103 0
M  V30 642 H 67.1173 5.1852 -0.918947 0
M  V30 643 H 69.6083 3.62931 -1.05307 0
M  V30 644 H 69.9213 7.2233 -2.74698 0
M  V30 645 H 68.2663 6.49858 -2.46393 0
M  V30 646 H 71.4573 4.47137 -1.38514 0
M  V30 647 H 71.6303 6.11034 -2.15735 0
M  V30 648 N 65.0364 0.313813 1.54444 0
M  V30 649 C 65.9994 -0.54379 2.22656 0
M  V30 650 C 66.9994 -1.05124 1.21678 0
M  V30 651 O 68.1894 -0.945225 1.46325 0
M  V30 652 C 65.3214 -1.75427 2.92298 0
M  V30 653 H 66.5144 0.0523599 2.99854 0
M  V30 654 H 64.0674 0.0647834 1.56166 0
M  V30 655 H 64.8024 -2.38991 2.19211 0
M  V30 656 H 64.5874 -1.39791 3.66334 0
M  V30 657 H 66.0774 -2.36325 3.44297 0
M  V30 658 N 66.5145 -1.57545 0.0417849 0
M  V30 659 C 67.7425 -1.96624 -0.643928 0
M  V30 660 C 68.1575 -0.918897 -1.64929 0
M  V30 661 O 67.5145 0.0979323 -1.82237 0
M  V30 662 C 67.5655 -3.35781 -1.33914 0
M  V30 663 O 67.2865 -4.365 -0.374048 0
M  V30 664 C 68.7875 -3.89566 -2.1155 0
M  V30 665 H 66.0075 -0.647316 -0.176702 0
M  V30 666 H 68.5515 -2.04229 0.105304 0
M  V30 667 H 66.7065 -3.29357 -2.03968 0
M  V30 668 H 67.1205 -5.17248 -0.869179 0
M  V30 669 H 68.5945 -4.89242 -2.55628 0
M  V30 670 H 69.0715 -3.24488 -2.9598 0
M  V30 671 H 69.6775 -3.99298 -1.46427 0
M  V30 672 N 67.9926 0.231505 -1.5589 0
M  V30 673 C 69.2386 0.95877 -1.78705 0
M  V30 674 C 69.5716 1.8438 -0.609725 0
M  V30 675 O 68.8466 1.90521 0.391426 0
M  V30 676 C 69.1296 1.8062 -3.11526 0
M  V30 677 C 68.9826 0.948328 -4.39689 0
M  V30 678 C 70.3016 2.78585 -3.40703 0
M  V30 679 H 67.4206 0.347129 -0.650131 0
M  V30 680 H 70.0626 0.228259 -1.88624 0
M  V30 681 H 68.2126 2.42902 -3.03201 0
M  V30 682 H 69.8846 0.343016 -4.60023 0
M  V30 683 H 68.1276 0.253314 -4.3306 0
M  V30 684 H 68.7986 1.57543 -5.29041 0
M  V30 685 H 71.2746 2.26439 -3.49091 0
M  V30 686 H 70.1506 3.34988 -4.34826 0
M  V30 687 H 70.4116 3.55825 -2.62375 0
M  V30 688 N 69.4707 1.49531 0.497807 0
M  V30 689 C 70.4337 1.65916 1.58128 0
M  V30 690 C 71.4337 0.530825 1.51786 0
M  V30 691 O 72.6237 0.797342 1.54881 0
M  V30 692 C 69.7557 1.65951 2.9778 0
M  V30 693 H 70.9487 2.62556 1.44929 0
M  V30 694 H 68.5017 1.38611 0.722275 0
M  V30 695 H 69.2367 0.709065 3.16453 0
M  V30 696 H 69.0217 2.47897 3.03792 0
M  V30 697 H 70.5117 1.80673 3.76493 0
M  V30 698 N 70.9488 -0.749086 1.3866 0
M  V30 699 C 72.3598 -1.32664 1.31366 0
M  V30 700 C 72.7108 -1.96179 -0.028484 0
M  V30 701 O 71.8358 -1.9537 -0.93057 0
M  V30 702 C 72.4308 -2.41219 2.37905 0
M  V30 703 C 70.9898 -2.94684 2.34176 0
M  V30 704 C 70.1368 -1.68108 2.20533 0
M  V30 705 H 73.0878 -0.547628 1.48952 0
M  V30 706 H 73.1088 -3.21268 2.0388 0
M  V30 707 H 72.6208 -1.94962 3.35576 0
M  V30 708 H 70.7218 -3.45258 1.401 0
M  V30 709 H 70.8348 -3.48757 3.2849 0
M  V30 710 H 69.1988 -1.91907 1.67463 0
M  V30 711 H 69.9818 -1.23923 3.20153 0
M  V30 712 N 72.4269 -1.23603 -0.977757 0
M  V30 713 C 73.3369 -1.03632 -2.1047 0
M  V30 714 C 74.3529 0.0199435 -1.73989 0
M  V30 715 O 75.5289 -0.176076 -2.00629 0
M  V30 716 C 72.5939 -0.63276 -3.40877 0
M  V30 717 C 71.6549 -1.76437 -3.91367 0
M  V30 718 C 70.8879 -1.37997 -5.15551 0
M  V30 719 O 71.1109 -0.265357 -5.69782 0
M  V30 720 O 70.0449 -2.20201 -5.60174 0
M  V30 721 H 73.8709 -1.98086 -2.30208 0
M  V30 722 H 71.4559 -1.02332 -1.08851 0
M  V30 723 H 73.3379 -0.418761 -4.19314 0
M  V30 724 H 72.0129 0.282754 -3.22463 0
M  V30 725 H 70.9199 -2.03304 -3.14036 0
M  V30 726 H 72.2529 -2.6583 -4.14241 0
M  V30 727 N 73.905 1.17692 -1.04816 0
M  V30 728 C 75.182 1.83768 -0.669963 0
M  V30 729 C 75.562 1.93232 0.849986 0
M  V30 730 O 74.91 1.46397 1.75443 0
M  V30 731 C 75.12 3.21641 -1.35455 0
M  V30 732 C 76.468 3.97592 -1.49017 0
M  V30 733 O 77.492 3.31107 -1.31326 0
M  V30 734 O 76.351 5.16729 -1.77914 0
M  V30 735 H 73.445 0.792799 -0.235368 0
M  V30 736 H 75.991 1.25021 -1.14751 0
M  V30 737 H 74.763 3.097 -2.39168 0
M  V30 738 H 74.386 3.88052 -0.866107 0
M  V30 739 N 75.3831 0.828654 1.34056 0
M  V30 740 C 76.6291 0.42008 1.98402 0
M  V30 741 C 76.9621 -1.01564 1.65525 0
M  V30 742 O 76.2371 -1.70834 0.929831 0
M  V30 743 C 76.5201 0.62927 3.54559 0
M  V30 744 C 76.3731 2.11152 3.97159 0
M  V30 745 C 77.6921 0.0688756 4.40046 0
M  V30 746 H 74.8111 0.154104 0.720709 0
M  V30 747 H 77.4531 1.04228 1.5886 0
M  V30 748 H 75.6031 0.0996418 3.88372 0
M  V30 749 H 77.2751 2.70522 3.73651 0
M  V30 750 H 75.5181 2.59985 3.47261 0
M  V30 751 H 76.1891 2.20868 5.05887 0
M  V30 752 H 78.6651 0.521458 4.1282 0
M  V30 753 H 77.5411 0.245006 5.48353 0
M  V30 754 H 77.8021 -1.0266 4.30015 0
M  V30 755 N 76.8612 -1.46375 0.584142 0
M  V30 756 C 78.0862 -2.07268 0.0740405 0
M  V30 757 C 78.5112 -1.42979 -1.22223 0
M  V30 758 O 77.8692 -0.514092 -1.73859 0
M  V30 759 C 77.9172 -3.60518 -0.0767769 0
M  V30 760 O 77.0212 -3.96533 -1.13292 0
M  V30 761 H 76.3622 -0.660961 0.0634524 0
M  V30 762 H 78.8922 -1.87991 0.807492 0
M  V30 763 H 78.9022 -4.07021 -0.282489 0
M  V30 764 H 77.5772 -4.06702 0.86986 0
M  V30 765 H 76.1542 -3.61738 -0.905553 0
M  V30 766 N 78.3393 -0.321999 -1.54275 0
M  V30 767 C 79.2493 0.553631 -2.27974 0
M  V30 768 C 80.2653 1.13054 -1.32268 0
M  V30 769 O 81.4413 1.15084 -1.6528 0
M  V30 770 C 78.5063 1.69927 -3.02201 0
M  V30 771 C 77.5673 1.15433 -4.1349 0
M  V30 772 C 76.8003 2.24537 -4.84168 0
M  V30 773 O 77.0233 3.44852 -4.5435 0
M  V30 774 O 75.9573 1.90044 -5.7111 0
M  V30 775 H 79.7833 -0.0448345 -3.03667 0
M  V30 776 H 77.3683 -0.0877418 -1.49142 0
M  V30 777 H 79.2503 2.3663 -3.48689 0
M  V30 778 H 77.9253 2.28395 -2.29385 0
M  V30 779 H 76.8323 0.452436 -3.71354 0
M  V30 780 H 78.1653 0.614805 -4.88345 0
M  V30 781 N 79.8174 1.5752 -0.0501392 0
M  V30 782 C 81.0634 1.92936 0.624798 0
M  V30 783 C 81.3964 0.928685 1.70555 0
M  V30 784 O 80.6714 -0.0454779 1.94447 0
M  V30 785 C 80.9544 3.38737 1.22185 0
M  V30 786 C 80.8074 4.49552 0.149218 0
M  V30 787 C 82.1264 3.84913 2.13378 0
M  V30 788 H 79.2454 0.701604 0.225657 0
M  V30 789 H 81.8874 1.89671 -0.111693 0
M  V30 790 H 80.0374 3.4165 1.84953 0
M  V30 791 H 81.7094 4.58768 -0.482648 0
M  V30 792 H 79.9524 4.30638 -0.522841 0
M  V30 793 H 80.6234 5.48653 0.606966 0
M  V30 794 H 83.0994 3.8387 1.60572 0
M  V30 795 H 81.9754 4.87584 2.52097 0
M  V30 796 H 82.2364 3.21611 3.03346 0
M  V30 797 N 81.2955 -0.223234 1.56011 0
M  V30 798 C 82.5445 -0.945912 1.78144 0
M  V30 799 C 82.8575 -1.85567 0.618396 0
M  V30 800 O 84.0635 -2.61688 0.723318 0
M  V30 801 C 82.5195 -1.73216 3.15475 0
M  V30 802 C 82.1275 -0.868619 4.39499 0
M  V30 803 C 83.8715 -2.44615 3.46935 0
M  V30 804 C 81.7785 -1.65212 5.67855 0
M  V30 805 H 80.7085 -0.356929 0.664167 0
M  V30 806 H 83.3595 -0.199845 1.82409 0
M  V30 807 H 81.7415 -2.52107 3.05382 0
M  V30 808 H 82.9155 -0.120366 4.60643 0
M  V30 809 H 81.2305 -0.26683 4.15544 0
M  V30 810 H 83.8275 -3.03732 4.40058 0
M  V30 811 H 84.1705 -3.17417 2.69355 0
M  V30 812 H 84.7035 -1.72715 3.58349 0
M  V30 813 H 81.4425 -0.967407 6.48322 0
M  V30 814 H 80.9625 -2.37503 5.50774 0
M  V30 815 H 82.6415 -2.21322 6.07968 0
M  V30 816 N 82.7736 -1.49793 -0.48987 0
M  V30 817 C 84.0206 -1.59841 -1.24327 0
M  V30 818 C 84.3486 -0.290135 -1.92324 0
M  V30 819 O 83.6036 0.722749 -1.81865 0
M  V30 820 C 83.9026 -2.71488 -2.32441 0
M  V30 821 C 83.5686 -4.12614 -1.81826 0
M  V30 822 C 82.2306 -4.51017 -1.67742 0
M  V30 823 C 84.5826 -5.00892 -1.4407 0
M  V30 824 C 81.9106 -5.75459 -1.14297 0
M  V30 825 C 84.2626 -6.25863 -0.920742 0
M  V30 826 C 82.9266 -6.63086 -0.766383 0
M  V30 827 H 82.1966 -0.584899 -0.454944 0
M  V30 828 H 84.8436 -1.83663 -0.542215 0
M  V30 829 H 83.1486 -2.4168 -3.0838 0
M  V30 830 H 84.8456 -2.76469 -2.90458 0
M  V30 831 H 81.4356 -3.82307 -1.93751 0
M  V30 832 H 85.6196 -4.7187 -1.53794 0
M  V30 833 H 80.8756 -6.02989 -1.01068 0
M  V30 834 H 85.0496 -6.9364 -0.619448 0
M  V30 835 H 82.6766 -7.59393 -0.350083 0
M  V30 836 N 84.2517 0.741722 -1.39055 0
M  V30 837 C 85.4997 1.49818 -1.35643 0
M  V30 838 C 85.8207 1.94938 0.0491642 0
M  V30 839 O 85.0907 1.68505 0.999141 0
M  V30 840 H 83.6707 0.555755 -0.499144 0
M  V30 841 H 86.3327 0.880957 -1.73854 0
M  V30 842 H 85.4287 2.38348 -2.01486 0
M  V30 843 N 85.7298 1.2412 0.971189 0
M  V30 844 C 86.6798 0.997551 2.05019 0
M  V30 845 C 87.6638 -0.0597747 1.60789 0
M  V30 846 O 88.8558 0.153516 1.76333 0
M  V30 847 C 85.9848 0.600557 3.38006 0
M  V30 848 C 85.0708 1.69377 3.88809 0
M  V30 849 N 85.4618 2.92586 4.12586 0
M  V30 850 C 83.7598 1.57048 4.17435 0
M  V30 851 C 84.4608 3.63431 4.54195 0
M  V30 852 N 83.4368 2.90979 4.59165 0
M  V30 853 H 87.2388 1.93316 2.21374 0
M  V30 854 H 84.7528 1.14194 1.1547 0
M  V30 855 H 86.7498 0.40725 4.14906 0
M  V30 856 H 85.4098 -0.327903 3.2304 0
M  V30 857 H 86.4208 3.288 4.00139 0
M  V30 858 H 83.0978 0.709798 4.11422 0
M  V30 859 H 84.4878 4.69102 4.81033 0
M  V30 860 N 87.2079 -1.17134 1.05439 0
M  V30 861 C 88.4539 -1.87733 0.767077 0
M  V30 862 C 88.7869 -1.8098 -0.704253 0
M  V30 863 O 88.0619 -1.21951 -1.5152 0
M  V30 864 C 88.3449 -3.37659 1.25133 0
M  V30 865 C 88.1979 -3.53149 2.78578 0
M  V30 866 C 89.5169 -4.31768 0.852324 0
M  V30 867 H 86.6359 -0.681687 0.280129 0
M  V30 868 H 89.2779 -1.37732 1.30881 0
M  V30 869 H 87.4279 -3.80373 0.790469 0
M  V30 870 H 89.0999 -3.19434 3.32806 0
M  V30 871 H 87.3429 -2.95345 3.17732 0
M  V30 872 H 88.0139 -4.58403 3.07523 0
M  V30 873 H 90.4899 -3.96909 1.24911 0
M  V30 874 H 89.3659 -5.35199 1.21873 0
M  V30 875 H 89.6269 -4.41429 -0.243485 0
M  V30 876 N 88.686 -0.835752 -1.33615 0
M  V30 877 C 89.616 -0.281739 -2.31794 0
M  V30 878 C 90.597 0.608833 -1.58831 0
M  V30 879 O 91.782 0.533035 -1.86741 0
M  V30 880 C 88.912 0.546612 -3.42971 0
M  V30 881 C 87.866 -0.247904 -4.27281 0
M  V30 882 C 87.192 0.704001 -5.30045 0
M  V30 883 C 88.492 -1.46324 -5.01385 0
M  V30 884 H 90.186 -1.10206 -2.78379 0
M  V30 885 H 87.732 -0.531388 -1.33837 0
M  V30 886 H 89.685 0.944467 -4.1068 0
M  V30 887 H 88.409 1.40011 -2.95067 0
M  V30 888 H 87.068 -0.627281 -3.61194 0
M  V30 889 H 86.716 1.55381 -4.78399 0
M  V30 890 H 86.416 0.176524 -5.87335 0
M  V30 891 H 87.94 1.09944 -6.0062 0
M  V30 892 H 89.354 -1.13871 -5.61877 0
M  V30 893 H 87.751 -1.92728 -5.6831 0
M  V30 894 H 88.821 -2.23467 -4.30338 0
M  V30 895 N 90.1641 1.46063 -0.591896 0
M  V30 896 C 91.1271 2.28854 0.125973 0
M  V30 897 C 92.1271 1.38903 0.810107 0
M  V30 898 O 93.3171 1.61186 0.66066 0
M  V30 899 C 90.4491 3.19526 1.1881 0
M  V30 900 H 91.6421 2.93802 -0.601717 0
M  V30 901 H 89.1951 1.52325 -0.350254 0
M  V30 902 H 89.9301 2.59345 1.94707 0
M  V30 903 H 89.7151 3.85766 0.701936 0
M  V30 904 H 91.2051 3.81817 1.69132 0
M  V30 905 N 91.6422 0.330177 1.54103 0
M  V30 906 C 92.6052 -0.520144 2.2322 0
M  V30 907 C 93.6052 -1.03828 1.22786 0
M  V30 908 O 94.7952 -0.929652 1.4732 0
M  V30 909 C 91.9272 -1.72317 2.94142 0
M  V30 910 H 93.1202 0.0841605 2.99782 0
M  V30 911 H 90.6732 0.0813433 1.56088 0
M  V30 912 H 91.4082 -2.36653 2.21734 0
M  V30 913 H 91.1932 -1.35898 3.67796 0
M  V30 914 H 92.6832 -2.3266 3.46784 0
M  V30 915 N 93.1203 -1.57491 0.0584922 0
M  V30 916 C 94.3683 -1.92597 -0.612436 0
M  V30 917 C 94.6893 -0.938162 -1.70949 0
M  V30 918 O 93.9593 0.0158301 -1.95894 0
M  V30 919 H 92.5393 -0.710964 -0.229214 0
M  V30 920 H 95.2013 -1.94571 0.113218 0
M  V30 921 H 94.2973 -2.94038 -1.04633 0
M  V30 922 N 94.5984 0.214957 -1.56127 0
M  V30 923 C 95.8384 0.945364 -1.81224 0
M  V30 924 C 96.2024 1.81265 -0.633005 0
M  V30 925 O 97.4034 2.57731 -0.763423 0
M  V30 926 C 95.6744 1.75665 -3.1125 0
M  V30 927 S 97.2334 2.54179 -3.57685 0
M  V30 928 H 94.0514 0.317443 -0.6362 0
M  V30 929 H 96.6534 0.210381 -1.94365 0
M  V30 930 H 95.3574 1.10977 -3.9511 0
M  V30 931 H 94.8884 2.53381 -3.00934 0
M  V30 932 H 96.9034 3.7792 -3.21545 0
M  V30 933 N 96.0765 1.50051 0.48192 0
M  V30 934 C 97.3245 1.60181 1.23234 0
M  V30 935 C 97.6455 0.299176 1.92691 0
M  V30 936 O 96.9155 -0.682708 1.83619 0
M  V30 937 H 95.4955 0.590232 0.457859 0
M  V30 938 H 98.1575 1.86775 0.556881 0
M  V30 939 H 97.2535 2.40753 1.98607 0
M  V30 940 N 97.5546 -0.734337 1.39446 0
M  V30 941 C 98.4866 -1.85861 1.34121 0
M  V30 942 C 99.4996 -1.60871 0.249864 0
M  V30 943 O 100.689 -1.71093 0.508865 0
M  V30 944 C 97.7886 -3.21899 1.05991 0
M  V30 945 C 96.9616 -3.74239 2.26415 0
M  V30 946 C 96.0206 -4.88841 1.94733 0
M  V30 947 O 95.0466 -5.02468 2.67422 0
M  V30 948 N 96.2486 -5.73261 0.913884 0
M  V30 949 H 99.0136 -1.90934 2.31007 0
M  V30 950 H 96.5746 -0.915102 1.33557 0
M  V30 951 H 98.5666 -3.96136 0.828147 0
M  V30 952 H 97.1366 -3.12091 0.178361 0
M  V30 953 H 96.3566 -2.91347 2.65539 0
M  V30 954 H 97.6446 -4.05942 3.06738 0
M  V30 955 H 97.0426 -5.64842 0.311476 0
M  V30 956 H 95.5996 -6.47563 0.742015 0
M  V30 957 N 99.0327 -1.24633 -0.964593 0
M  V30 958 C 99.9807 -1.03917 -2.08096 0
M  V30 959 C 100.975 0.0268581 -1.69379 0
M  V30 960 O 102.181 -0.127952 -1.79545 0
M  V30 961 H 98.5557 -0.319044 -0.680966 0
M  V30 962 H 100.527 -1.98581 -2.22729 0
M  V30 963 C 99.2757 -0.663983 -3.41301 0
M  V30 964 H 98.5987 -1.47605 -3.71555 0
M  V30 965 H 100.039 -0.558663 -4.20303 0
M  V30 966 C 98.4977 0.629169 -3.30973 0
M  V30 967 O 99.0277 1.67404 -3.65156 0
M  V30 968 N 97.2337 0.611057 -2.84103 0
M  V30 969 H 96.7807 -0.239593 -2.56483 0
M  V30 970 H 96.7387 1.47647 -2.77575 0
M  V30 971 N 100.511 1.16574 -1.06058 0
M  V30 972 C 101.922 1.68662 -0.800632 0
M  V30 973 C 102.273 1.84184 0.67608 0
M  V30 974 O 101.398 1.53568 1.52466 0
M  V30 975 C 101.993 3.06356 -1.44676 0
M  V30 976 C 100.552 3.55575 -1.23465 0
M  V30 977 C 99.6988 2.31616 -1.52477 0
M  V30 978 H 102.65 1.00969 -1.22438 0
M  V30 979 H 102.671 3.70636 -0.860788 0
M  V30 980 H 102.183 2.95027 -2.52152 0
M  V30 981 H 100.284 3.72167 -0.179527 0
M  V30 982 H 100.397 4.37812 -1.94571 0
M  V30 983 H 98.7608 2.36512 -0.945209 0
M  V30 984 H 99.5438 2.22887 -2.61106 0
M  V30 985 N 101.989 0.842826 1.3317 0
M  V30 986 C 103.235 0.441099 1.97945 0
M  V30 987 C 103.568 -0.998024 1.66593 0
M  V30 988 O 102.843 -1.69839 0.947898 0
M  V30 989 C 103.126 0.666841 3.53872 0
M  V30 990 C 102.979 2.15352 3.94897 0
M  V30 991 C 104.298 0.115544 4.39948 0
M  V30 992 H 101.417 0.161739 0.719034 0
M  V30 993 H 104.059 1.05907 1.57746 0
M  V30 994 H 102.209 0.140828 3.88245 0
M  V30 995 H 103.881 2.7447 3.70761 0
M  V30 996 H 102.124 2.63653 3.44484 0
M  V30 997 H 102.795 2.26221 5.03516 0
M  V30 998 H 105.271 0.565213 4.12243 0
M  V30 999 H 104.147 0.303152 5.48062 0
M  V30 1000 H 104.408 -0.980935 4.3108 0
M  V30 1001 N 103.467 -1.45747 0.599634 0
M  V30 1002 C 104.883 -1.57424 0.26264 0
M  V30 1003 C 105.083 -1.59222 -1.23493 0
M  V30 1004 O 104.139 -1.51825 -2.01756 0
M  V30 1005 C 105.452 -2.86061 0.926795 0
M  V30 1006 C 107 -2.99722 0.901967 0
M  V30 1007 C 107.475 -4.31119 1.54598 0
M  V30 1008 N 108.966 -4.37858 1.5111 0
M  V30 1009 C 109.701 -5.3818 1.97863 0
M  V30 1010 N 109.197 -6.45083 2.52666 0
M  V30 1011 N 110.99 -5.29487 1.88679 0
M  V30 1012 H 103.141 -1.42823 1.57211 0
M  V30 1013 H 105.404 -0.68235 0.658105 0
M  V30 1014 H 105.11 -2.90605 1.98095 0
M  V30 1015 H 104.984 -3.74563 0.445238 0
M  V30 1016 H 107.371 -2.9475 -0.143617 0
M  V30 1017 H 107.452 -2.12652 1.42171 0
M  V30 1018 H 107.096 -4.36849 2.59085 0
M  V30 1019 H 107.026 -5.16992 1.00132 0
M  V30 1020 H 109.517 -3.61209 1.11068 0
M  V30 1021 H 109.83 -7.17869 2.86155 0
M  V30 1022 H 108.175 -6.45856 2.56701 0
M  V30 1023 H 111.366 -4.44877 1.4561 0
M  V30 1024 H 111.539 -6.07524 2.25429 0
M  V30 1025 N 104.945 -0.338344 -1.53925 0
M  V30 1026 C 105.877 0.555117 -2.22376 0
M  V30 1027 C 106.89 1.06812 -1.22862 0
M  V30 1028 O 108.079 0.979163 -1.49247 0
M  V30 1029 C 105.179 1.77609 -2.88631 0
M  V30 1030 C 104.352 1.39927 -4.14414 0
M  V30 1031 C 103.411 2.47936 -4.64127 0
M  V30 1032 O 102.437 2.11461 -5.28463 0
M  V30 1033 N 103.639 3.79107 -4.39612 0
M  V30 1034 H 106.404 -0.0310778 -2.99684 0
M  V30 1035 H 103.965 -0.162226 -1.61085 0
M  V30 1036 H 105.957 2.49287 -3.18807 0
M  V30 1037 H 104.527 2.26978 -2.14941 0
M  V30 1038 H 103.747 0.513481 -3.90841 0
M  V30 1039 H 105.035 1.12341 -4.96243 0
M  V30 1040 H 104.433 4.11531 -3.88148 0
M  V30 1041 H 102.99 4.4697 -4.74406 0
M  V30 1042 N 106.423 1.57458 -0.0668435 0
M  V30 1043 C 107.386 2.11323 0.887422 0
M  V30 1044 C 108.386 1.03618 1.22964 0
M  V30 1045 O 109.576 1.29626 1.16373 0
M  V30 1046 C 106.708 2.61048 2.19242 0
M  V30 1047 H 107.901 2.96942 0.420194 0
M  V30 1048 H 105.454 1.55239 0.181793 0
M  V30 1049 H 106.189 1.78868 2.70512 0
M  V30 1050 H 105.974 3.39769 1.95702 0
M  V30 1051 H 107.464 3.02814 2.87565 0
M  V30 1052 N 107.901 -0.206675 1.56239 0
M  V30 1053 C 109.126 -0.949474 1.8439 0
M  V30 1054 C 109.551 -1.76549 0.649016 0
M  V30 1055 O 108.909 -1.76782 -0.402231 0
M  V30 1056 C 108.957 -1.83078 3.10668 0
M  V30 1057 O 108.061 -2.9281 2.90407 0
M  V30 1058 H 107.402 -0.268033 0.607499 0
M  V30 1059 H 109.932 -0.215488 2.03462 0
M  V30 1060 H 109.942 -2.2377 3.41161 0
M  V30 1061 H 108.617 -1.23112 3.97261 0
M  V30 1062 H 107.194 -2.55956 2.71184 0
M  V30 1063 N 109.379 -1.50304 -0.473955 0
M  V30 1064 C 110.625 -1.61389 -1.22806 0
M  V30 1065 C 110.958 -0.311955 -1.91678 0
M  V30 1066 O 110.233 0.686384 -1.81986 0
M  V30 1067 C 110.516 -2.79219 -2.27396 0
M  V30 1068 C 110.369 -4.19286 -1.62848 0
M  V30 1069 C 111.688 -2.92614 -3.28732 0
M  V30 1070 H 108.807 -0.587399 -0.445119 0
M  V30 1071 H 111.449 -1.82681 -0.522265 0
M  V30 1072 H 109.599 -2.61195 -2.87592 0
M  V30 1073 H 111.271 -4.48892 -1.06271 0
M  V30 1074 H 109.514 -4.23677 -0.931693 0
M  V30 1075 H 110.185 -4.97655 -2.38838 0
M  V30 1076 H 112.661 -3.09105 -2.78556 0
M  V30 1077 H 111.537 -3.76688 -3.99246 0
M  V30 1078 H 111.798 -2.03107 -3.92683 0
M  V30 1079 N 110.857 0.726932 -1.39834 0
M  V30 1080 C 112.105 1.4837 -1.37225 0
M  V30 1081 C 112.426 1.94979 0.0284857 0
M  V30 1082 O 111.696 1.69555 0.981213 0
M  V30 1083 H 110.276 0.55043 -0.505011 0
M  V30 1084 H 112.938 0.862468 -1.74778 0
M  V30 1085 H 112.034 2.36198 -2.04003 0
M  V30 1086 N 112.336 1.25143 0.95797 0
M  V30 1087 C 113.299 1.05321 2.03569 0
M  V30 1088 C 114.299 0.007152 1.60798 0
M  V30 1089 O 115.489 0.24903 1.72411 0
M  V30 1090 C 112.621 0.598394 3.35607 0
M  V30 1091 H 113.814 2.00986 2.22586 0
M  V30 1092 H 111.367 1.07502 1.13459 0
M  V30 1093 H 112.102 -0.361014 3.22284 0
M  V30 1094 H 111.887 1.35351 3.67998 0
M  V30 1095 H 113.377 0.48104 4.1482 0
M  V30 1096 N 113.814 -1.1601 1.06675 0
M  V30 1097 C 115.062 -1.86264 0.784229 0
M  V30 1098 C 115.383 -1.82328 -0.691488 0
M  V30 1099 O 114.653 -1.25947 -1.50047 0
M  V30 1100 H 113.233 -0.689621 0.28711 0
M  V30 1101 H 115.895 -1.40664 1.34906 0
M  V30 1102 H 114.991 -2.91595 1.11259 0
M  V30 1103 N 115.292 -0.849877 -1.32721 0
M  V30 1104 C 116.541 -0.447175 -1.96681 0
M  V30 1105 C 116.854 1.00135 -1.68025 0
M  V30 1106 O 118.06 1.50926 -2.25685 0
M  V30 1107 C 116.516 -0.7487 -3.52026 0
M  V30 1108 C 116.124 -2.21264 -3.89546 0
M  V30 1109 C 117.868 -0.413487 -4.22481 0
M  V30 1110 C 115.775 -2.45763 -5.37917 0
M  V30 1111 H 114.705 -0.163486 -0.736063 0
M  V30 1112 H 117.356 -1.03999 -1.51183 0
M  V30 1113 H 115.738 -0.0853727 -3.95908 0
M  V30 1114 H 116.912 -2.91736 -3.56689 0
M  V30 1115 H 115.227 -2.5119 -3.32103 0
M  V30 1116 H 117.824 -0.574017 -5.3161 0
M  V30 1117 H 118.167 0.644492 -4.11281 0
M  V30 1118 H 118.7 -1.03251 -3.84167 0
M  V30 1119 H 115.439 -3.50168 -5.54132 0
M  V30 1120 H 114.959 -1.79864 -5.72197 0
M  V30 1121 H 116.638 -2.29471 -6.0494 0
M  V30 1122 N 116.77 1.45427 -0.607355 0
M  V30 1123 C 118.181 1.85756 -0.187535 0
M  V30 1124 C 118.532 1.5077 1.25551 0
M  V30 1125 O 117.657 0.93427 1.95193 0
M  V30 1126 C 118.252 3.37154 -0.333572 0
M  V30 1127 C 116.811 3.76387 0.0315542 0
M  V30 1128 C 115.958 2.69377 -0.658117 0
M  V30 1129 H 118.909 1.36231 -0.81405 0
M  V30 1130 H 118.93 3.78014 0.43428 0
M  V30 1131 H 118.442 3.62586 -1.38393 0
M  V30 1132 H 116.543 3.56571 1.0811 0
M  V30 1133 H 116.656 4.77731 -0.361935 0
M  V30 1134 H 115.02 2.5452 -0.0957873 0
M  V30 1135 H 115.803 2.97646 -1.7106 0
M  V30 1136 N 118.248 0.346503 1.53744 0
M  V30 1137 C 119.478 -0.250047 2.05081 0
M  V30 1138 C 119.886 -1.44529 1.22098 0
M  V30 1139 O 119.229 -1.81992 0.249917 0
M  V30 1140 C 119.291 -0.725934 3.52094 0
M  V30 1141 C 118.955 0.350053 4.55657 0
M  V30 1142 C 119.952 1.19372 5.0601 0
M  V30 1143 C 117.637 0.504827 4.99757 0
M  V30 1144 C 119.631 2.17768 5.99046 0
M  V30 1145 C 117.318 1.49218 5.92602 0
M  V30 1146 C 118.316 2.32706 6.42135 0
M  V30 1147 O 118.004 3.2976 7.33153 0
M  V30 1148 H 117.736 -0.0515469 0.674032 0
M  V30 1149 H 120.29 0.497559 1.99282 0
M  V30 1150 H 118.52 -1.52483 3.55367 0
M  V30 1151 H 120.209 -1.24336 3.86388 0
M  V30 1152 H 120.975 1.08525 4.72702 0
M  V30 1153 H 116.854 -0.135178 4.60802 0
M  V30 1154 H 120.398 2.82971 6.37631 0
M  V30 1155 H 116.295 1.6012 6.25325 0
M  V30 1156 H 117.063 3.25265 7.51096 0
M  V30 1157 N 119.726 -1.57421 0.075193 0
M  V30 1158 C 120.951 -1.98364 -0.605515 0
M  V30 1159 C 121.376 -0.953383 -1.62149 0
M  V30 1160 O 120.734 0.0806053 -1.81121 0
M  V30 1161 C 120.782 -3.38332 -1.24756 0
M  V30 1162 O 119.886 -3.37959 -2.36342 0
M  V30 1163 H 119.227 -0.645553 -0.155428 0
M  V30 1164 H 121.757 -2.04044 0.150714 0
M  V30 1165 H 121.767 -3.75591 -1.5936 0
M  V30 1166 H 120.442 -4.12846 -0.503129 0
M  V30 1167 H 119.019 -3.12474 -2.03506 0
M  V30 1168 N 121.204 0.198386 -1.56346 0
M  V30 1169 C 122.45 0.920648 -1.80698 0
M  V30 1170 C 122.783 1.83045 -0.648697 0
M  V30 1171 O 122.058 1.91308 0.350925 0
M  V30 1172 C 122.341 1.73971 -3.15287 0
M  V30 1173 C 122.194 0.85485 -4.41602 0
M  V30 1174 C 123.513 2.71296 -3.46535 0
M  V30 1175 H 120.632 0.333261 -0.657348 0
M  V30 1176 H 123.274 0.188198 -1.89066 0
M  V30 1177 H 121.424 2.36416 -3.08285 0
M  V30 1178 H 123.096 0.245362 -4.60647 0
M  V30 1179 H 121.339 0.161398 -4.335 0
M  V30 1180 H 122.01 1.46286 -5.32264 0
M  V30 1181 H 124.486 2.18983 -3.53816 0
M  V30 1182 H 123.362 3.2569 -4.41834 0
M  V30 1183 H 123.623 3.5018 -2.69864 0
M  V30 1184 N 122.682 1.50554 0.465978 0
M  V30 1185 C 124.093 1.54599 1.04671 0
M  V30 1186 C 124.444 0.352488 1.93008 0
M  V30 1187 O 123.569 -0.534044 2.09707 0
M  V30 1188 C 124.164 2.80166 1.90505 0
M  V30 1189 C 122.723 2.86876 2.43678 0
M  V30 1190 C 121.87 2.48947 1.22151 0
M  V30 1191 H 124.821 1.56744 0.248384 0
M  V30 1192 H 124.842 2.62311 2.75633 0
M  V30 1193 H 124.354 3.67013 1.26186 0
M  V30 1194 H 122.455 2.04393 3.11536 0
M  V30 1195 H 122.568 3.89885 2.78436 0
M  V30 1196 H 120.932 2.01498 1.5579 0
M  V30 1197 H 121.715 3.38107 0.594866 0
M  V30 1198 N 124.16 -0.719506 1.40217 0
M  V30 1199 C 125.123 -1.8153 1.39927 0
M  V30 1200 C 126.123 -1.58095 0.293723 0
M  V30 1201 O 127.313 -1.65209 0.552429 0
M  V30 1202 C 124.445 -3.19561 1.18716 0
M  V30 1203 H 125.638 -1.83186 2.37451 0
M  V30 1204 H 123.191 -0.924746 1.26008 0
M  V30 1205 H 123.926 -3.23557 0.219366 0
M  V30 1206 H 123.711 -3.3797 1.98793 0
M  V30 1207 H 125.201 -3.99598 1.21291 0
M  V30 1208 N 125.638 -1.25649 -0.95132 0
M  V30 1209 C 126.884 -1.11766 -1.69941 0
M  V30 1210 C 127.239 0.33735 -1.89419 0
M  V30 1211 O 126.532 1.24491 -1.45645 0
M  V30 1212 C 126.726 -1.80909 -3.08231 0
M  V30 1213 C 126.555 -3.32984 -3.02245 0
M  V30 1214 C 125.325 -4.02247 -3.05819 0
M  V30 1215 C 127.523 -4.29332 -2.83157 0
M  V30 1216 N 125.505 -5.41072 -2.90024 0
M  V30 1217 C 126.876 -5.55265 -2.75828 0
M  V30 1218 C 128.931 -4.19707 -2.67863 0
M  V30 1219 C 127.634 -6.72671 -2.54767 0
M  V30 1220 C 129.66 -5.36809 -2.48173 0
M  V30 1221 C 129.022 -6.61683 -2.41567 0
M  V30 1222 H 125.121 -0.463708 -0.629682 0
M  V30 1223 H 127.705 -1.58796 -1.12659 0
M  V30 1224 H 125.876 -1.36369 -3.63673 0
M  V30 1225 H 127.608 -1.59739 -3.71841 0
M  V30 1226 H 124.363 -3.53531 -3.15139 0
M  V30 1227 H 124.787 -6.13938 -2.85323 0
M  V30 1228 H 129.429 -3.23907 -2.71743 0
M  V30 1229 H 127.147 -7.68577 -2.49629 0
M  V30 1230 H 130.733 -5.31224 -2.37259 0
M  V30 1231 H 129.613 -7.50768 -2.26531 0
M  V30 1232 N 127.117 1.15442 -1.07289 0
M  V30 1233 C 128.342 1.90638 -0.816828 0
M  V30 1234 C 128.767 1.77445 0.624083 0
M  V30 1235 O 128.125 1.10671 1.43602 0
M  V30 1236 C 128.173 3.39008 -1.22906 0
M  V30 1237 O 127.277 4.10701 -0.373975 0
M  V30 1238 H 126.618 0.593555 -0.297638 0
M  V30 1239 H 129.148 1.46198 -1.43134 0
M  V30 1240 H 129.158 3.89801 -1.20497 0
M  V30 1241 H 127.833 3.47929 -2.27856 0
M  V30 1242 H 126.41 3.70046 -0.460499 0
M  V30 1243 N 128.595 0.856903 1.32268 0
M  V30 1244 C 129.835 0.467705 1.98977 0
M  V30 1245 C 130.199 -0.959231 1.66321 0
M  V30 1246 O 131.4 -1.4531 2.26138 0
M  V30 1247 C 129.671 0.70256 3.50427 0
M  V30 1248 S 131.23 0.411269 4.36868 0
M  V30 1249 H 128.048 0.175121 0.689096 0
M  V30 1250 H 130.65 1.1101 1.60925 0
M  V30 1251 H 129.354 1.74012 3.71683 0
M  V30 1252 H 128.885 0.0466707 3.93372 0
M  V30 1253 H 130.9 -0.761799 4.90317 0
M  V30 1254 N 130.073 -1.45103 0.615059 0
M  V30 1255 C 131.005 -2.28786 -0.13762 0
M  V30 1256 C 132.018 -1.40376 -0.824525 0
M  V30 1257 O 133.207 -1.64681 -0.688662 0
M  V30 1258 C 130.307 -3.16322 -1.21628 0
M  V30 1259 C 129.48 -4.33054 -0.615039 0
M  V30 1260 C 128.539 -5.01743 -1.58556 0
M  V30 1261 O 127.565 -5.58293 -1.10895 0
M  V30 1262 N 128.767 -5.01714 -2.91998 0
M  V30 1263 H 131.532 -2.94025 0.580483 0
M  V30 1264 H 129.093 -1.55373 0.45507 0
M  V30 1265 H 131.085 -3.59139 -1.86552 0
M  V30 1266 H 129.655 -2.52943 -1.83681 0
M  V30 1267 H 128.875 -3.93627 0.21245 0
M  V30 1268 H 130.163 -5.08431 -0.193704 0
M  V30 1269 H 129.561 -4.57075 -3.33316 0
M  V30 1270 H 128.118 -5.48371 -3.52325 0
M  V30 1271 N 131.551 -0.354651 -1.53558 0
M  V30 1272 C 132.484 0.540273 -2.21712 0
M  V30 1273 C 133.462 1.09161 -1.2051 0
M  V30 1274 O 134.646 1.14979 -1.49372 0
M  V30 1275 C 131.773 1.74435 -2.90328 0
M  V30 1276 C 130.819 1.32146 -4.05512 0
M  V30 1277 S 131.652 0.331924 -5.3447 0
M  V30 1278 C 132.808 1.54258 -6.06593 0
M  V30 1279 H 133.041 -0.0385776 -2.97275 0
M  V30 1280 H 130.574 -0.138736 -1.53775 0
M  V30 1281 H 132.532 2.43507 -3.30476 0
M  V30 1282 H 131.193 2.29444 -2.1451 0
M  V30 1283 H 130.386 2.21952 -4.52497 0
M  V30 1284 H 129.988 0.710091 -3.67197 0
M  V30 1285 H 132.28 2.47534 -6.30661 0
M  V30 1286 H 133.223 1.11431 -6.99277 0
M  V30 1287 H 133.631 1.74367 -5.36895 0
M  V30 1288 N 133.029 1.57378 -0.0835403 0
M  V30 1289 C 134.278 1.93106 0.582498 0
M  V30 1290 C 134.591 0.96651 1.70053 0
M  V30 1291 O 135.797 1.21705 2.42693 0
M  V30 1292 C 134.253 3.43076 1.08751 0
M  V30 1293 C 133.861 4.48 -0.000146404 0
M  V30 1294 C 135.605 3.87785 1.72694 0
M  V30 1295 C 133.512 5.89113 0.519568 0
M  V30 1296 H 132.442 0.720775 0.221358 0
M  V30 1297 H 135.093 1.82821 -0.157675 0
M  V30 1298 H 133.475 3.48474 1.88101 0
M  V30 1299 H 134.649 4.54233 -0.775199 0
M  V30 1300 H 132.964 4.1283 -0.54406 0
M  V30 1301 H 135.561 4.90604 2.1263 0
M  V30 1302 H 135.904 3.25796 2.59158 0
M  V30 1303 H 136.437 3.8504 0.999457 0
M  V30 1304 H 133.176 6.54775 -0.308186 0
M  V30 1305 H 132.696 5.86376 1.26188 0
M  V30 1306 H 134.375 6.39346 0.992237 0
M  V30 1307 N 134.507 -0.190092 1.56449 0
M  V30 1308 C 135.747 -0.916414 1.82705 0
M  V30 1309 C 136.111 -1.80235 0.661763 0
M  V30 1310 O 137.312 -2.56484 0.80433 0
M  V30 1311 C 135.583 -1.70691 3.14005 0
M  V30 1312 S 137.142 -2.48457 3.61683 0
M  V30 1313 H 133.96 -0.307281 0.64117 0
M  V30 1314 H 136.562 -0.179433 1.94675 0
M  V30 1315 H 135.266 -1.04677 3.96826 0
M  V30 1316 H 134.797 -2.48562 3.04927 0
M  V30 1317 H 136.812 -3.72756 3.27517 0
M  V30 1318 N 135.985 -1.50799 -0.457987 0
M  V30 1319 C 137.233 -1.62121 -1.2067 0
M  V30 1320 C 137.554 -0.329793 -1.92191 0
M  V30 1321 O 136.824 0.653409 -1.84682 0
M  V30 1322 H 135.404 -0.597441 -0.448411 0
M  V30 1323 H 138.066 -1.87637 -0.527096 0
M  V30 1324 H 137.162 -2.43882 -1.94751 0
M  V30 1325 N 137.463 0.71206 -1.40597 0
M  V30 1326 C 138.688 1.50617 -1.42581 0
M  V30 1327 C 139.113 1.88079 -0.0282102 0
M  V30 1328 O 138.471 1.53511 0.964579 0
M  V30 1329 C 138.519 2.7557 -2.3258 0
M  V30 1330 O 137.623 3.72414 -1.77148 0
M  V30 1331 H 136.964 0.453966 -0.484573 0
M  V30 1332 H 139.494 0.876649 -1.84868 0
M  V30 1333 H 139.504 3.2406 -2.47889 0
M  V30 1334 H 138.179 2.47639 -3.34138 0
M  V30 1335 H 136.756 3.31276 -1.71204 0
M  V30 1336 N 138.941 1.26152 0.944643 0
M  V30 1337 C 140.189 1.11271 1.6871 0
M  V30 1338 C 140.51 -0.345166 1.91921 0
M  V30 1339 O 139.78 -1.24387 1.51343 0
M  V30 1340 H 138.36 0.408783 0.625224 0
M  V30 1341 H 141.022 1.58427 1.1352 0
M  V30 1342 H 140.118 1.62879 2.66227 0
M  V30 1343 N 140.419 -1.14872 1.07899 0
M  V30 1344 C 141.349 -2.2193 0.725887 0
M  V30 1345 C 142.33 -1.67622 -0.28927 0
M  V30 1346 O 143.515 -1.93533 -0.160787 0
M  V30 1347 C 140.645 -3.47061 0.128856 0
M  V30 1348 C 139.599 -4.14363 1.07178 0
M  V30 1349 C 138.925 -5.33636 0.337229 0
M  V30 1350 C 140.225 -4.63492 2.40775 0
M  V30 1351 H 141.919 -2.51724 1.62097 0
M  V30 1352 H 139.465 -1.20991 0.780838 0
M  V30 1353 H 141.418 -4.21199 -0.130147 0
M  V30 1354 H 140.142 -3.16617 -0.80134 0
M  V30 1355 H 138.801 -3.42173 1.3158 0
M  V30 1356 H 138.449 -4.99449 -0.596606 0
M  V30 1357 H 138.149 -5.79609 0.965788 0
M  V30 1358 H 139.673 -6.10539 0.0861567 0
M  V30 1359 H 141.087 -5.2913 2.20669 0
M  V30 1360 H 139.484 -5.20148 2.99276 0
M  V30 1361 H 140.554 -3.78834 3.02676 0
M  V30 1362 N 141.898 -0.863906 -1.31812 0
M  V30 1363 C 142.845 -0.313303 -2.28664 0
M  V30 1364 C 143.815 0.584868 -1.55462 0
M  V30 1365 O 145 0.517805 -1.83639 0
M  V30 1366 C 142.14 0.48441 -3.41683 0
M  V30 1367 C 141.253 -0.440594 -4.29747 0
M  V30 1368 C 140.388 0.370652 -5.29905 0
M  V30 1369 C 139.427 -0.551164 -6.09613 0
M  V30 1370 N 138.564 0.223462 -7.01744 0
M  V30 1371 H 143.404 -1.14444 -2.75148 0
M  V30 1372 H 140.941 -0.575769 -1.35364 0
M  V30 1373 H 142.899 0.962627 -4.05943 0
M  V30 1374 H 141.529 1.28029 -2.96325 0
M  V30 1375 H 140.581 -1.03724 -3.65986 0
M  V30 1376 H 141.893 -1.14767 -4.85417 0
M  V30 1377 H 141.047 0.911638 -5.99812 0
M  V30 1378 H 139.786 1.11105 -4.74876 0
M  V30 1379 H 138.791 -1.10396 -5.38603 0
M  V30 1380 H 140.016 -1.29032 -6.66729 0
M  V30 1381 H 137.962 0.946787 -6.49132 0
M  V30 1382 H 137.879 -0.424399 -7.54808 0
M  V30 1383 H 139.147 0.745876 -7.75923 0
M  V30 1384 N 143.376 1.44774 -0.622745 0
M  V30 1385 C 144.339 2.29069 0.0774015 0
M  V30 1386 C 145.339 1.4059 0.780461 0
M  V30 1387 O 146.529 1.62551 0.626322 0
M  V30 1388 C 143.661 3.21974 1.12006 0
M  V30 1389 H 144.854 2.92459 -0.663901 0
M  V30 1390 H 142.407 1.51548 -0.382486 0
M  V30 1391 H 143.142 2.63417 1.89162 0
M  V30 1392 H 142.927 3.87168 0.619951 0
M  V30 1393 H 144.417 3.85318 1.60995 0
M  V30 1394 N 144.854 0.36279 1.53368 0
M  V30 1395 C 146.1 -0.228113 2.01513 0
M  V30 1396 C 146.433 -1.48648 1.2497 0
M  V30 1397 O 145.708 -1.91459 0.342616 0
M  V30 1398 C 145.991 -0.522884 3.56284 0
M  V30 1399 C 145.844 0.74892 4.43521 0
M  V30 1400 C 147.163 -1.32461 4.19693 0
M  V30 1401 H 144.282 -0.0814343 0.732487 0
M  V30 1402 H 146.924 0.48713 1.83649 0
M  V30 1403 H 145.074 -1.1322 3.71636 0
M  V30 1404 H 146.746 1.38648 4.39971 0
M  V30 1405 H 144.989 1.36986 4.11603 0
M  V30 1406 H 145.66 0.497667 5.49752 0
M  V30 1407 H 148.136 -0.809203 4.08156 0
M  V30 1408 H 147.012 -1.49961 5.28018 0
M  V30 1409 H 147.273 -2.33232 3.75573 0
M  V30 1410 N 146.332 -1.57332 0.0918853 0
M  V30 1411 C 147.572 -1.96117 -0.575988 0
M  V30 1412 C 147.936 -0.972499 -1.65549 0
M  V30 1413 O 149.137 -1.24872 -2.38034 0
M  V30 1414 C 147.408 -3.39407 -1.11973 0
M  V30 1415 S 148.967 -4.00185 -1.79992 0
M  V30 1416 H 145.785 -0.685682 -0.188045 0
M  V30 1417 H 148.387 -1.94755 0.170525 0
M  V30 1418 H 147.091 -4.09131 -0.322504 0
M  V30 1419 H 146.622 -3.44358 -1.90214 0
M  V30 1420 H 148.637 -3.88728 -3.08391 0
M  V30 1421 N 147.81 0.181792 -1.56548 0
M  V30 1422 C 148.74 1.22765 -1.98623 0
M  V30 1423 C 149.721 1.46747 -0.860189 0
M  V30 1424 O 150.906 1.58259 -1.12551 0
M  V30 1425 C 148.036 2.56894 -2.33715 0
M  V30 1426 C 146.99 2.475 -3.49182 0
M  V30 1427 C 146.316 3.86023 -3.69986 0
M  V30 1428 C 147.616 1.98866 -4.82959 0
M  V30 1429 H 149.31 0.877942 -2.86239 0
M  V30 1430 H 146.856 0.42088 -1.37712 0
M  V30 1431 H 148.809 3.30253 -2.61746 0
M  V30 1432 H 147.533 2.93632 -1.42997 0
M  V30 1433 H 146.192 1.76596 -3.21262 0
M  V30 1434 H 145.84 4.20136 -2.76576 0
M  V30 1435 H 145.54 3.80609 -4.47672 0
M  V30 1436 H 147.064 4.60984 -4.00407 0
M  V30 1437 H 148.478 2.61992 -5.09934 0
M  V30 1438 H 146.875 2.04424 -5.64208 0
M  V30 1439 H 147.945 0.942465 -4.75653 0
M  V30 1440 N 149.288 1.51039 0.449983 0
M  V30 1441 C 150.251 1.70863 1.5277 0
M  V30 1442 C 151.251 0.578846 1.5002 0
M  V30 1443 O 152.441 0.846213 1.52266 0
M  V30 1444 C 149.573 1.75341 2.9235 0
M  V30 1445 H 150.766 2.67034 1.36502 0
M  V30 1446 H 148.319 1.40838 0.677812 0
M  V30 1447 H 149.054 0.809383 3.14037 0
M  V30 1448 H 148.839 2.57436 2.95752 0
M  V30 1449 H 150.329 1.92559 3.70555 0
M  V30 1450 N 150.766 -0.704594 1.40972 0
M  V30 1451 C 152.012 -1.46675 1.40051 0
M  V30 1452 C 152.345 -1.94199 0.00641102 0
M  V30 1453 O 151.62 -1.68916 -0.964235 0
M  V30 1454 C 151.903 -2.68505 2.39952 0
M  V30 1455 C 151.756 -2.26805 3.88432 0
M  V30 1456 C 153.075 -3.70686 2.37233 0
M  V30 1457 H 150.194 -0.532015 0.510028 0
M  V30 1458 H 152.836 -0.803255 1.72185 0
M  V30 1459 H 150.986 -3.25114 2.1268 0
M  V30 1460 H 152.658 -1.75592 4.26574 0
M  V30 1461 H 150.901 -1.58685 4.03734 0
M  V30 1462 H 151.572 -3.14181 4.53866 0
M  V30 1463 H 154.048 -3.23731 2.61415 0
M  V30 1464 H 152.924 -4.53553 3.09162 0
M  V30 1465 H 153.185 -4.19754 1.38777 0
M  V30 1466 N 152.244 -1.26651 -0.937939 0
M  V30 1467 C 153.176 -1.04283 -2.04102 0
M  V30 1468 C 154.189 -0.00221014 -1.628 0
M  V30 1469 O 155.378 -0.242645 -1.76843 0
M  V30 1470 C 152.478 -0.557846 -3.34277 0
M  V30 1471 C 151.651 -1.66843 -4.04329 0
M  V30 1472 C 150.71 -1.18095 -5.12777 0
M  V30 1473 O 149.736 -1.87865 -5.37304 0
M  V30 1474 N 150.938 -0.0311006 -5.80492 0
M  V30 1475 H 153.703 -1.9927 -2.23856 0
M  V30 1476 H 151.264 -1.1808 -1.10764 0
M  V30 1477 H 153.256 -0.215836 -4.04124 0
M  V30 1478 H 151.826 0.298523 -3.11171 0
M  V30 1479 H 151.046 -2.18123 -3.28353 0
M  V30 1480 H 152.334 -2.41408 -4.47883 0
M  V30 1481 H 151.732 0.551486 -5.63005 0
M  V30 1482 H 150.289 0.251809 -6.51313 0
M  V30 1483 N 153.722 1.14298 -1.08507 0
M  V30 1484 C 154.947 1.8976 -0.837001 0
M  V30 1485 C 155.372 1.78097 0.605228 0
M  V30 1486 O 154.73 1.12188 1.4242 0
M  V30 1487 C 154.778 3.37685 -1.26495 0
M  V30 1488 O 153.882 4.10281 -0.417514 0
M  V30 1489 H 153.223 0.590365 -0.303917 0
M  V30 1490 H 155.753 1.44672 -1.44676 0
M  V30 1491 H 155.763 3.88501 -1.24625 0
M  V30 1492 H 154.438 3.45492 -2.31534 0
M  V30 1493 H 153.015 3.69536 -0.499722 0
M  V30 1494 N 155.201 0.870884 1.31352 0
M  V30 1495 C 156.45 0.478408 1.95944 0
M  V30 1496 C 156.763 -0.974493 1.69597 0
M  V30 1497 O 157.969 -1.47316 2.28058 0
M  V30 1498 C 156.425 0.804609 3.50791 0
M  V30 1499 C 156.033 2.27433 3.85977 0
M  V30 1500 C 157.777 0.480648 4.2177 0
M  V30 1501 C 155.684 2.5429 5.33939 0
M  V30 1502 H 154.614 0.175175 0.733369 0
M  V30 1503 H 157.265 1.06391 1.4951 0
M  V30 1504 H 155.647 0.148347 3.95722 0
M  V30 1505 H 156.821 2.97373 3.52002 0
M  V30 1506 H 155.136 2.56442 3.28065 0
M  V30 1507 H 157.733 0.658519 5.30629 0
M  V30 1508 H 158.076 -0.578979 4.12254 0
M  V30 1509 H 158.609 1.09349 3.82476 0
M  V30 1510 H 155.348 3.58939 5.48491 0
M  V30 1511 H 154.868 1.88945 5.69263 0
M  V30 1512 H 156.547 2.39066 6.01212 0
M  V30 1513 N 156.679 -1.44442 0.630414 0
M  V30 1514 C 157.927 -2.01653 0.134351 0
M  V30 1515 C 158.248 -1.49836 -1.24796 0
M  V30 1516 O 157.518 -0.701684 -1.82902 0
M  V30 1517 H 156.098 -0.74554 0.0466769 0
M  V30 1518 H 158.76 -1.76952 0.816955 0
M  V30 1519 H 157.856 -3.11935 0.101498 0
M  V30 1520 N 158.157 -0.370918 -1.53173 0
M  V30 1521 C 159.406 0.218249 -2.00516 0
M  V30 1522 C 159.719 1.49429 -1.26215 0
M  V30 1523 O 160.925 2.16239 -1.64174 0
M  V30 1524 C 159.381 0.43948 -3.57207 0
M  V30 1525 C 158.989 -0.822244 -4.4039 0
M  V30 1526 C 160.733 0.986012 -4.1289 0
M  V30 1527 C 158.64 -0.570304 -5.88644 0
M  V30 1528 H 157.57 0.0853333 -0.749156 0
M  V30 1529 H 160.221 -0.490483 -1.76823 0
M  V30 1530 H 158.603 1.20961 -3.77074 0
M  V30 1531 H 159.777 -1.59557 -4.32294 0
M  V30 1532 H 158.092 -1.29238 -3.95836 0
M  V30 1533 H 160.689 1.18991 -5.21292 0
M  V30 1534 H 161.032 1.94972 -3.6782 0
M  V30 1535 H 161.565 0.27592 -3.96842 0
M  V30 1536 H 158.304 -1.50449 -6.38001 0
M  V30 1537 H 157.824 0.164427 -5.99575 0
M  V30 1538 H 159.503 -0.19784 -6.46697 0
M  V30 1539 N 159.635 1.57281 -0.100228 0
M  V30 1540 C 160.883 1.94153 0.561157 0
M  V30 1541 C 161.204 0.983157 1.68401 0
M  V30 1542 O 160.474 0.0361132 1.95867 0
M  V30 1543 H 159.054 0.716791 0.210283 0
M  V30 1544 H 161.716 1.94202 -0.164765 0
M  V30 1545 H 160.812 2.96709 0.968008 0
M  V30 1546 N 161.113 -0.173488 1.56642 0
M  V30 1547 C 162.39 -0.917617 1.7274 0
M  V30 1548 C 162.77 -2.00484 0.661027 0
M  V30 1549 O 162.118 -2.26184 -0.32453 0
M  V30 1550 C 162.328 -1.48433 3.15862 0
M  V30 1551 C 163.676 -1.95809 3.76754 0
M  V30 1552 O 164.7 -1.58231 3.19126 0
M  V30 1553 O 163.559 -2.65024 4.77938 0
M  V30 1554 H 160.653 -0.431772 0.705338 0
M  V30 1555 H 163.199 -0.161487 1.6893 0
M  V30 1556 H 161.971 -0.701715 3.84957 0
M  V30 1557 H 161.594 -2.30471 3.23989 0
M  V30 1558 N 162.591 -1.51276 -0.441967 0
M  V30 1559 C 163.816 -1.67799 -1.21895 0
M  V30 1560 C 164.241 -0.372864 -1.84367 0
M  V30 1561 O 163.599 0.666501 -1.68604 0
M  V30 1562 C 163.647 -2.79199 -2.28211 0
M  V30 1563 O 162.751 -2.42479 -3.33583 0
M  V30 1564 H 162.092 -0.559649 -0.357336 0
M  V30 1565 H 164.622 -1.97815 -0.522522 0
M  V30 1566 H 164.632 -3.03146 -2.73069 0
M  V30 1567 H 163.307 -3.73906 -1.82118 0
M  V30 1568 H 161.884 -2.29087 -2.94234 0
M  V30 1569 N 164.069 0.697108 -1.41344 0
M  V30 1570 C 165.294 1.49096 -1.44171 0
M  V30 1571 C 165.719 1.88038 -0.0481568 0
M  V30 1572 O 165.077 1.54525 0.948243 0
M  V30 1573 C 165.125 2.73088 -2.3549 0
M  V30 1574 O 164.229 3.70514 -1.81088 0
M  V30 1575 H 163.57 0.448801 -0.489361 0
M  V30 1576 H 166.1 0.856992 -1.85787 0
M  V30 1577 H 166.11 3.21413 -2.51312 0
M  V30 1578 H 164.785 2.44081 -3.36745 0
M  V30 1579 H 163.362 3.29441 -1.74708 0
M  V30 1580 N 165.547 1.27147 0.931209 0
M  V30 1581 C 166.796 1.12664 1.67302 0
M  V30 1582 C 167.109 -0.327718 1.92835 0
M  V30 1583 O 168.315 -0.593392 2.64936 0
M  V30 1584 C 166.771 1.9683 3.01307 0
M  V30 1585 C 166.379 3.46901 2.83485 0
M  V30 1586 C 168.123 1.90985 3.79111 0
M  V30 1587 C 166.03 4.23279 4.13024 0
M  V30 1588 H 164.96 0.41803 0.627509 0
M  V30 1589 H 167.611 1.51539 1.03481 0
M  V30 1590 H 165.993 1.50797 3.66164 0
M  V30 1591 H 167.167 4.00773 2.27415 0
M  V30 1592 H 165.482 3.54088 2.19113 0
M  V30 1593 H 168.079 2.45328 4.75098 0
M  V30 1594 H 168.422 0.882718 4.06834 0
M  V30 1595 H 168.955 2.34895 3.21044 0
M  V30 1596 H 165.694 5.26503 3.90481 0
M  V30 1597 H 165.214 3.74186 4.6877 0
M  V30 1598 H 166.893 4.32265 4.81411 0
M  V30 1599 N 167.025 -1.13721 1.09112 0
M  V30 1600 C 168.271 -1.85198 0.826414 0
M  V30 1601 C 168.604 -1.83129 -0.646319 0
M  V30 1602 O 167.879 -1.2671 -1.47563 0
M  V30 1603 C 168.162 -3.33507 1.35812 0
M  V30 1604 C 168.015 -3.44108 2.89672 0
M  V30 1605 C 169.334 -4.28838 0.989256 0
M  V30 1606 H 166.453 -0.67243 0.301675 0
M  V30 1607 H 169.095 -1.33499 1.35197 0
M  V30 1608 H 167.245 -3.77666 0.911082 0
M  V30 1609 H 168.917 -3.08684 3.428 0
M  V30 1610 H 167.16 -2.85087 3.26967 0
M  V30 1611 H 167.831 -4.48388 3.21951 0
M  V30 1612 H 170.307 -3.92734 1.37475 0
M  V30 1613 H 169.183 -5.31051 1.38838 0
M  V30 1614 H 169.444 -4.4198 -0.102924 0
M  V30 1615 N 168.503 -0.877838 -1.30888 0
M  V30 1616 C 169.749 -0.493426 -1.96706 0
M  V30 1617 C 170.082 0.953504 -1.6918 0
M  V30 1618 O 169.357 1.67266 -0.992594 0
M  V30 1619 C 169.64 -0.760429 -3.51979 0
M  V30 1620 C 169.493 -2.25747 -3.89048 0
M  V30 1621 C 170.812 -0.232148 -4.39487 0
M  V30 1622 H 167.931 -0.180746 -0.714493 0
M  V30 1623 H 170.573 -1.10052 -1.54882 0
M  V30 1624 H 168.723 -0.243715 -3.87735 0
M  V30 1625 H 170.395 -2.84204 -3.63354 0
M  V30 1626 H 168.638 -2.72694 -3.37373 0
M  V30 1627 H 169.309 -2.39491 -4.97341 0
M  V30 1628 H 171.785 -0.674314 -4.106 0
M  V30 1629 H 170.661 -0.448355 -5.47066 0
M  V30 1630 H 170.922 0.866297 -4.33529 0
M  V30 1631 N 169.982 1.44106 -0.638065 0
M  V30 1632 C 170.945 2.29138 0.0531013 0
M  V30 1633 C 171.945 1.41409 0.765506 0
M  V30 1634 O 173.135 1.63206 0.609046 0
M  V30 1635 C 170.267 3.23144 1.08584 0
M  V30 1636 H 171.46 2.91739 -0.694883 0
M  V30 1637 H 169.013 1.51134 -0.398538 0
M  V30 1638 H 169.748 2.65408 1.86357 0
M  V30 1639 H 169.533 3.87804 0.578852 0
M  V30 1640 H 171.023 3.87004 1.56899 0
M  V30 1641 N 171.46 0.379036 1.52974 0
M  V30 1642 C 172.708 -0.206014 2.01047 0
M  V30 1643 C 173.029 -1.48175 1.26765 0
M  V30 1644 O 172.299 -1.92085 0.384743 0
M  V30 1645 H 170.879 -0.0791184 0.742798 0
M  V30 1646 H 173.541 0.508366 1.88153 0
M  V30 1647 H 172.637 -0.423501 3.09213 0
M  V30 1648 N 172.938 -1.57226 0.108567 0
M  V30 1649 C 174.186 -1.94448 -0.550853 0
M  V30 1650 C 174.507 -0.992074 -1.67878 0
M  V30 1651 O 173.777 -0.0465 -1.95845 0
M  V30 1652 H 172.357 -0.717897 -0.206479 0
M  V30 1653 H 175.019 -1.94112 0.175062 0
M  V30 1654 H 174.115 -2.97218 -0.952259 0
M  V30 1655 N 174.416 0.165178 -1.56732 0
M  V30 1656 C 175.349 1.23336 -1.91998 0
M  V30 1657 C 176.327 1.42476 -0.783531 0
M  V30 1658 O 177.511 1.57384 -1.03743 0
M  V30 1659 C 174.638 2.59533 -2.17625 0
M  V30 1660 C 173.684 2.57093 -3.40302 0
M  V30 1661 S 174.517 2.05571 -4.9447 0
M  V30 1662 C 175.673 3.43532 -5.23198 0
M  V30 1663 H 175.906 0.932387 -2.82301 0
M  V30 1664 H 173.439 0.370013 -1.49901 0
M  V30 1665 H 175.397 3.37918 -2.3307 0
M  V30 1666 H 174.058 2.86827 -1.28019 0
M  V30 1667 H 173.251 3.57308 -3.55453 0
M  V30 1668 H 172.853 1.86806 -3.24005 0
M  V30 1669 H 175.145 4.39559 -5.15552 0
M  V30 1670 H 176.088 3.33251 -6.2478 0
M  V30 1671 H 176.496 3.39828 -4.50752 0
M  V30 1672 N 175.894 1.51508 0.433938 0
M  V30 1673 C 176.804 1.75917 1.5521 0
M  V30 1674 C 177.82 0.643545 1.61662 0
M  V30 1675 O 178.996 0.926183 1.7884 0
M  V30 1676 C 176.061 1.88213 2.91164 0
M  V30 1677 C 175.122 3.12074 2.94802 0
M  V30 1678 C 174.355 3.23774 4.24271 0
M  V30 1679 O 174.578 2.4133 5.16833 0
M  V30 1680 O 173.512 4.16774 4.34262 0
M  V30 1681 H 177.338 2.70777 1.37527 0
M  V30 1682 H 174.923 1.36051 0.617293 0
M  V30 1683 H 176.805 1.98267 3.71845 0
M  V30 1684 H 175.48 0.965413 3.08968 0
M  V30 1685 H 174.387 3.07497 2.13065 0
M  V30 1686 H 175.72 4.03446 2.81943 0
M  V30 1687 N 177.372 -0.689602 1.41712 0
M  V30 1688 C 178.32 -1.82475 1.44242 0
M  V30 1689 C 179.314 -1.66354 0.319774 0
M  V30 1690 O 180.52 -1.73143 0.492089 0
M  V30 1691 H 176.895 -0.601416 0.451445 0
M  V30 1692 H 178.866 -1.77458 2.39899 0
M  V30 1693 C 177.615 -3.20535 1.3473 0
M  V30 1694 H 176.938 -3.33559 2.20405 0
M  V30 1695 H 178.378 -4.00023 1.40562 0
M  V30 1696 C 176.837 -3.36846 0.0603281 0
M  V30 1697 O 177.367 -3.91656 -0.892663 0
M  V30 1698 N 175.573 -2.90595 -0.0177039 0
M  V30 1699 H 175.12 -2.46178 0.758572 0
M  V30 1700 H 175.078 -3.01886 -0.878201 0
M  V30 1701 N 178.85 -1.27639 -0.924453 0
M  V30 1702 C 179.783 -1.04966 -2.02626 0
M  V30 1703 C 180.761 0.0309505 -1.62571 0
M  V30 1704 O 181.945 -0.114846 -1.8815 0
M  V30 1705 C 179.072 -0.59292 -3.3347 0
M  V30 1706 C 178.118 -1.66858 -3.92506 0
M  V30 1707 S 178.951 -3.2619 -4.24689 0
M  V30 1708 C 180.107 -2.82325 -5.58609 0
M  V30 1709 H 180.34 -1.98252 -2.21547 0
M  V30 1710 H 177.873 -1.11506 -1.06798 0
M  V30 1711 H 179.831 -0.336086 -4.09122 0
M  V30 1712 H 178.492 0.319939 -3.12466 0
M  V30 1713 H 177.685 -1.30038 -4.86935 0
M  V30 1714 H 177.287 -1.87766 -3.2345 0
M  V30 1715 H 179.579 -2.2783 -6.38044 0
M  V30 1716 H 180.522 -3.75511 -6.00331 0
M  V30 1717 H 180.93 -2.21367 -5.19285 0
M  V30 1718 N 180.328 1.1314 -1.09713 0
M  V30 1719 C 181.553 1.88862 -0.857081 0
M  V30 1720 C 181.978 1.78729 0.586304 0
M  V30 1721 O 181.336 1.13692 1.41222 0
M  V30 1722 C 181.384 3.36325 -1.30069 0
M  V30 1723 O 180.488 4.09815 -0.461007 0
M  V30 1724 H 179.829 0.587108 -0.310162 0
M  V30 1725 H 182.359 1.43129 -1.46203 0
M  V30 1726 H 182.369 3.87157 -1.28738 0
M  V30 1727 H 181.044 3.43017 -2.35185 0
M  V30 1728 H 179.621 3.68986 -0.538888 0
M  V30 1729 N 181.806 0.884767 1.30421 0
M  V30 1730 C 182.753 0.349642 2.28136 0
M  V30 1731 C 183.723 -0.560061 1.56373 0
M  V30 1732 O 184.908 -0.488524 1.8444 0
M  V30 1733 C 182.048 -0.42999 3.42411 0
M  V30 1734 C 181.161 0.508907 4.28992 0
M  V30 1735 C 180.296 -0.286301 5.30428 0
M  V30 1736 C 179.335 0.648079 6.08659 0
M  V30 1737 N 178.472 -0.111792 7.02011 0
M  V30 1738 H 183.312 1.18807 2.73293 0
M  V30 1739 H 180.849 0.597231 1.3443 0
M  V30 1740 H 182.807 -0.897923 4.07423 0
M  V30 1741 H 181.437 -1.23299 2.98324 0
M  V30 1742 H 180.489 1.09533 3.64289 0
M  V30 1743 H 181.801 1.22475 4.8353 0
M  V30 1744 H 180.955 -0.816098 6.01186 0
M  V30 1745 H 179.694 -1.03536 4.76583 0
M  V30 1746 H 178.699 1.18951 5.36778 0
M  V30 1747 H 179.924 1.39623 6.64592 0
M  V30 1748 H 177.87 -0.843395 6.50556 0
M  V30 1749 H 177.787 0.544429 7.54037 0
M  V30 1750 H 179.055 -0.622339 7.77012 0
M  V30 1751 N 183.284 -1.43765 0.645699 0
M  V30 1752 C 184.247 -2.29163 -0.0409488 0
M  V30 1753 C 185.247 -1.41813 -0.757996 0
M  V30 1754 O 186.437 -1.63527 -0.600382 0
M  V30 1755 C 183.569 -3.23716 -1.06869 0
M  V30 1756 H 184.762 -2.91366 0.710345 0
M  V30 1757 H 182.315 -1.5092 0.406547 0
M  V30 1758 H 183.05 -2.66393 -1.84947 0
M  V30 1759 H 182.835 -3.88105 -0.558277 0
M  V30 1760 H 184.325 -3.87831 -1.54845 0
M  V30 1761 N 184.763 -0.387143 -1.52771 0
M  V30 1762 C 186.174 0.0873634 -1.86495 0
M  V30 1763 C 186.525 1.46336 -1.30691 0
M  V30 1764 O 185.65 2.068 -0.637409 0
M  V30 1765 C 186.245 0.165305 -3.38396 0
M  V30 1766 C 184.804 0.584101 -3.7184 0
M  V30 1767 C 183.951 -0.255279 -2.76122 0
M  V30 1768 H 186.902 -0.605104 -1.46711 0
M  V30 1769 H 186.923 0.984848 -3.67534 0
M  V30 1770 H 186.435 -0.836301 -3.78982 0
M  V30 1771 H 184.536 1.59315 -3.36823 0
M  V30 1772 H 184.649 0.343749 -4.77865 0
M  V30 1773 H 183.013 0.279126 -2.53166 0
M  V30 1774 H 183.796 -1.25482 -3.19545 0
M  V30 1775 N 186.241 1.57166 -0.116904 0
M  V30 1776 C 187.191 2.11756 0.845178 0
M  V30 1777 C 188.175 1.03783 1.22955 0
M  V30 1778 O 189.367 1.3002 1.20099 0
M  V30 1779 C 186.496 2.71886 2.09602 0
M  V30 1780 C 185.582 3.86937 1.7361 0
M  V30 1781 N 185.973 4.94073 1.08284 0
M  V30 1782 C 184.271 3.97082 2.03082 0
M  V30 1783 C 184.972 5.74477 0.913855 0
M  V30 1784 N 183.948 5.2423 1.43818 0
M  V30 1785 H 187.75 2.91967 0.336523 0
M  V30 1786 H 185.264 1.62174 0.0856332 0
M  V30 1787 H 187.261 3.09338 2.79492 0
M  V30 1788 H 185.921 1.93138 2.61013 0
M  V30 1789 H 186.932 5.12483 0.747067 0
M  V30 1790 H 183.609 3.29372 2.56554 0
M  V30 1791 H 184.999 6.70701 0.40125 0
M  V30 1792 N 187.719 -0.156864 1.56817 0
M  V30 1793 C 188.649 -1.19589 2.00551 0
M  V30 1794 C 189.63 -1.4536 0.883426 0
M  V30 1795 O 190.815 -1.56449 1.15054 0
M  V30 1796 C 187.945 -2.53143 2.37773 0
M  V30 1797 C 186.899 -2.41913 3.53075 0
M  V30 1798 C 186.225 -3.80088 3.76081 0
M  V30 1799 C 187.525 -1.91157 4.86062 0
M  V30 1800 H 189.219 -0.832293 2.87599 0
M  V30 1801 H 186.765 -0.398918 1.38364 0
M  V30 1802 H 188.718 -3.26047 2.66967 0
M  V30 1803 H 187.442 -2.91319 1.4765 0
M  V30 1804 H 186.101 -1.71462 3.24031 0
M  V30 1805 H 185.749 -4.15683 2.83225 0
M  V30 1806 H 185.449 -3.73439 4.53671 0
M  V30 1807 H 186.973 -4.54556 4.0769 0
M  V30 1808 H 188.387 -2.53846 5.14038 0
M  V30 1809 H 186.784 -1.95422 5.67389 0
M  V30 1810 H 187.854 -0.866673 4.77092 0
M  V30 1811 N 189.197 -1.51736 -0.425897 0
M  V30 1812 C 190.16 -1.73271 -1.50032 0
M  V30 1813 C 191.16 -0.602639 -1.4908 0
M  V30 1814 O 192.35 -0.87033 -1.509 0
M  V30 1815 C 189.482 -1.79969 -2.89523 0
M  V30 1816 H 190.675 -2.69172 -1.32237 0
M  V30 1817 H 188.228 -1.41899 -0.65532 0
M  V30 1818 H 188.963 -0.859241 -3.1271 0
M  V30 1819 H 188.748 -2.62109 -2.91619 0
M  V30 1820 H 190.238 -1.9843 -3.67444 0
M  V30 1821 N 190.675 0.682077 -1.42076 0
M  V30 1822 C 191.905 1.46844 -1.45329 0
M  V30 1823 C 192.313 1.89102 -0.0609328 0
M  V30 1824 O 191.656 1.58238 0.933082 0
M  V30 1825 C 191.718 2.75375 -2.31104 0
M  V30 1826 C 191.382 2.55238 -3.79081 0
M  V30 1827 C 192.379 2.20309 -4.70914 0
M  V30 1828 C 190.064 2.70459 -4.2327 0
M  V30 1829 C 192.058 2.00859 -6.04925 0
M  V30 1830 C 189.745 2.50624 -5.57343 0
M  V30 1831 C 190.743 2.15876 -6.47986 0
M  V30 1832 O 190.431 1.96227 -7.79583 0
M  V30 1833 H 190.163 0.4586 -0.496651 0
M  V30 1834 H 192.717 0.846131 -1.87162 0
M  V30 1835 H 190.947 3.40061 -1.84107 0
M  V30 1836 H 192.636 3.37231 -2.25898 0
M  V30 1837 H 193.402 2.08153 -4.38061 0
M  V30 1838 H 189.281 2.96485 -3.53012 0
M  V30 1839 H 192.825 1.7366 -6.75639 0
M  V30 1840 H 188.722 2.62375 -5.89771 0
M  V30 1841 H 189.49 2.10883 -7.90867 0
M  V30 1842 N 192.153 1.28127 0.917671 0
M  V30 1843 C 193.083 1.14248 2.03641 0
M  V30 1844 C 194.064 0.0412748 1.7005 0
M  V30 1845 O 195.249 0.217566 1.92977 0
M  V30 1846 C 192.379 0.799431 3.37974 0
M  V30 1847 C 191.333 1.85497 3.85713 0
M  V30 1848 C 190.659 1.36565 5.16966 0
M  V30 1849 C 191.959 3.26085 4.08002 0
M  V30 1850 H 193.653 2.07835 2.15511 0
M  V30 1851 H 191.199 1.00064 1.03553 0
M  V30 1852 H 193.152 0.689114 4.15727 0
M  V30 1853 H 191.876 -0.172145 3.26146 0
M  V30 1854 H 190.535 1.95437 3.10161 0
M  V30 1855 H 190.183 0.383253 5.01538 0
M  V30 1856 H 189.883 2.07143 5.49878 0
M  V30 1857 H 191.407 1.26848 5.97279 0
M  V30 1858 H 192.821 3.19089 4.76293 0
M  V30 1859 H 191.218 3.94462 4.52238 0
M  V30 1860 H 192.288 3.70394 3.12948 0
M  V30 1861 N 193.631 -1.12557 1.10312 0
M  V30 1862 C 195.047 -1.36036 0.834649 0
M  V30 1863 C 195.247 -1.93946 -0.546539 0
M  V30 1864 O 194.303 -2.16484 -1.29966 0
M  V30 1865 C 195.616 -2.30312 1.9333 0
M  V30 1866 C 197.164 -2.43906 1.9616 0
M  V30 1867 C 197.639 -3.41496 3.05195 0
M  V30 1868 N 199.13 -3.49053 3.04494 0
M  V30 1869 C 199.865 -4.24471 3.85502 0
M  V30 1870 N 199.361 -5.02966 4.76442 0
M  V30 1871 N 201.154 -4.19864 3.73725 0
M  V30 1872 H 193.305 -0.733246 1.99342 0
M  V30 1873 H 195.568 -0.385234 0.866198 0
M  V30 1874 H 195.274 -1.94933 2.92735 0
M  V30 1875 H 195.148 -3.30421 1.81939 0
M  V30 1876 H 197.535 -2.78567 0.973886 0
M  V30 1877 H 197.616 -1.4369 2.11629 0
M  V30 1878 H 197.26 -3.07565 4.04186 0
M  V30 1879 H 197.19 -4.41539 2.86968 0
M  V30 1880 H 199.681 -2.93053 2.38596 0
M  V30 1881 H 199.994 -5.57846 5.34815 0
M  V30 1882 H 198.339 -5.02167 4.80472 0
M  V30 1883 H 201.53 -3.57623 3.02032 0
M  V30 1884 H 201.703 -4.78386 4.37093 0
M  V30 1885 N 195.109 -0.891671 -1.2995 0
M  V30 1886 C 196.337 -0.52866 -2.00032 0
M  V30 1887 C 196.752 0.884574 -1.66795 0
M  V30 1888 O 196.109 1.5827 -0.908669 0
M  V30 1889 C 196.16 -0.701814 -3.54622 0
M  V30 1890 O 195.881 -2.05942 -3.86678 0
M  V30 1891 C 197.382 -0.342683 -4.41973 0
M  V30 1892 H 194.602 -0.203659 -0.639347 0
M  V30 1893 H 197.146 -1.19881 -1.65677 0
M  V30 1894 H 195.301 -0.0789468 -3.8732 0
M  V30 1895 H 195.715 -2.08291 -4.81368 0
M  V30 1896 H 197.189 -0.514709 -5.49595 0
M  V30 1897 H 197.666 0.71975 -4.33262 0
M  V30 1898 H 198.272 -0.942154 -4.14733 0
M  V30 1899 N 196.587 1.43421 -0.653314 0
M  V30 1900 C 197.835 2.01414 -0.166415 0
M  V30 1901 C 198.156 1.51803 1.22397 0
M  V30 1902 O 197.426 0.730693 1.81763 0
M  V30 1903 H 196.006 0.744703 -0.0585319 0
M  V30 1904 H 198.668 1.75629 -0.845003 0
M  V30 1905 H 197.764 3.11734 -0.151111 0
M  V30 1906 N 198.065 0.39524 1.52563 0
M  V30 1907 C 199.311 -0.185318 2.01952 0
M  V30 1908 C 199.644 -1.45964 1.28095 0
M  V30 1909 O 198.919 -1.90689 0.38315 0
M  V30 1910 C 199.202 -0.447193 3.57312 0
M  V30 1911 C 199.055 0.842828 4.41833 0
M  V30 1912 C 200.374 -1.23529 4.22408 0
M  V30 1913 H 197.493 -0.0658788 0.73405 0
M  V30 1914 H 200.135 0.525975 1.82575 0
M  V30 1915 H 198.285 -1.05312 3.73954 0
M  V30 1916 H 199.957 1.4795 4.36931 0
M  V30 1917 H 198.2 1.45686 4.08605 0
M  V30 1918 H 198.871 0.614165 5.48573 0
M  V30 1919 H 201.347 -0.722445 4.0978 0
M  V30 1920 H 200.223 -1.38727 5.3108 0
M  V30 1921 H 200.484 -2.25213 3.80436 0
M  V30 1922 N 199.544 -1.57102 0.125237 0
M  V30 1923 C 200.491 -2.15641 -0.822655 0
M  V30 1924 C 201.461 -1.08313 -1.25927 0
M  V30 1925 O 202.646 -1.36251 -1.33567 0
M  V30 1926 C 199.786 -2.76504 -2.06494 0
M  V30 1927 C 198.899 -3.98158 -1.67612 0
M  V30 1928 C 198.034 -4.47088 -2.86854 0
M  V30 1929 C 197.073 -5.6126 -2.44242 0
M  V30 1930 N 196.21 -6.04905 -3.56419 0
M  V30 1931 H 201.05 -2.96313 -0.316625 0
M  V30 1932 H 198.587 -1.46388 -0.144588 0
M  V30 1933 H 200.545 -3.09925 -2.79289 0
M  V30 1934 H 199.175 -1.98512 -2.54545 0
M  V30 1935 H 198.227 -3.70858 -0.846661 0
M  V30 1936 H 199.539 -4.80934 -1.32301 0
M  V30 1937 H 198.693 -4.82451 -3.67867 0
M  V30 1938 H 197.432 -3.63275 -3.25396 0
M  V30 1939 H 196.437 -5.25495 -1.61663 0
M  V30 1940 H 197.662 -6.46843 -2.0681 0
M  V30 1941 H 195.608 -5.24032 -3.94623 0
M  V30 1942 H 195.525 -6.82552 -3.25051 0
M  V30 1943 H 196.793 -6.44907 -4.37853 0
M  V30 1944 N 201.022 0.148545 -1.56898 0
M  V30 1945 C 202.271 0.85984 -1.82454 0
M  V30 1946 C 202.584 1.82406 -0.706229 0
M  V30 1947 O 203.79 2.57938 -0.847349 0
M  V30 1948 C 202.246 1.57967 -3.2338 0
M  V30 1949 C 201.854 0.65794 -4.43142 0
M  V30 1950 C 203.598 2.27784 -3.58211 0
M  V30 1951 C 201.505 1.3793 -5.75091 0
M  V30 1952 H 200.435 0.324834 -0.68044 0
M  V30 1953 H 203.086 0.112588 -1.83154 0
M  V30 1954 H 201.468 2.37249 -3.17063 0
M  V30 1955 H 202.642 -0.0995497 -4.60692 0
M  V30 1956 H 200.957 0.0682643 -4.16344 0
M  V30 1957 H 203.554 2.8239 -4.54048 0
M  V30 1958 H 203.897 3.04204 -2.84193 0
M  V30 1959 H 204.43 1.55421 -3.66182 0
M  V30 1960 H 201.169 0.656982 -6.52199 0
M  V30 1961 H 200.689 2.10954 -5.61479 0
M  V30 1962 H 202.368 1.92063 -6.17835 0
M  V30 1963 N 202.5 1.5196 0.417844 0
M  V30 1964 C 203.748 1.65263 1.16329 0
M  V30 1965 C 204.069 0.380634 1.91249 0
M  V30 1966 O 203.339 -0.604214 1.86349 0
M  V30 1967 H 201.919 0.60912 0.432414 0
M  V30 1968 H 204.581 1.88969 0.477162 0
M  V30 1969 H 203.677 2.4896 1.88217 0
M  V30 1970 N 203.978 -0.674533 1.42435 0
M  V30 1971 C 204.888 -1.81751 1.48337 0
M  V30 1972 C 205.904 -1.69975 0.372099 0
M  V30 1973 O 207.08 -1.91521 0.62304 0
M  V30 1974 C 204.145 -3.17895 1.38361 0
M  V30 1975 C 203.206 -3.41625 2.59982 0
M  V30 1976 C 202.439 -4.71274 2.50473 0
M  V30 1977 O 202.662 -5.49197 1.54075 0
M  V30 1978 O 201.596 -4.96254 3.4061 0
M  V30 1979 H 205.422 -1.79728 2.44809 0
M  V30 1980 H 203.007 -0.830312 1.24202 0
M  V30 1981 H 204.889 -3.99136 1.35161 0
M  V30 1982 H 203.564 -3.20555 0.450144 0
M  V30 1983 H 202.471 -2.60231 2.68757 0
M  V30 1984 H 203.804 -3.43796 3.52229 0
M  V30 1985 N 205.456 -1.28612 -0.910864 0
M  V30 1986 C 206.389 -1.07109 -2.01502 0
M  V30 1987 C 207.367 0.013706 -1.62594 0
M  V30 1988 O 208.551 -0.134796 -1.88017 0
M  V30 1989 C 205.678 -0.628255 -3.32822 0
M  V30 1990 C 204.724 -1.71012 -3.90714 0
M  V30 1991 S 205.557 -3.30676 -4.21205 0
M  V30 1992 C 206.713 -2.88234 -5.55583 0
M  V30 1993 H 206.946 -2.00591 -2.19432 0
M  V30 1994 H 204.479 -1.12633 -1.05609 0
M  V30 1995 H 206.437 -0.37946 -4.08742 0
M  V30 1996 H 205.098 0.28678 -3.12788 0
M  V30 1997 H 204.291 -1.35195 -4.85529 0
M  V30 1998 H 203.893 -1.91186 -3.21441 0
M  V30 1999 H 206.185 -2.34584 -6.35591 0
M  V30 2000 H 207.128 -3.81857 -5.96314 0
M  V30 2001 H 207.536 -2.26862 -5.16908 0
M  V30 2002 N 206.934 1.1197 -1.10907 0
M  V30 2003 C 208.345 1.65114 -0.871446 0
M  V30 2004 C 208.696 1.86885 0.597353 0
M  V30 2005 O 207.821 1.59896 1.45816 0
M  V30 2006 C 208.416 2.99944 -1.5754 0
M  V30 2007 C 206.975 3.50018 -1.38435 0
M  V30 2008 C 206.122 2.24941 -1.62164 0
M  V30 2009 H 209.073 0.956851 -1.2661 0
M  V30 2010 H 209.094 3.66651 -1.01721 0
M  V30 2011 H 208.606 2.84067 -2.64438 0
M  V30 2012 H 206.707 3.71071 -0.337214 0
M  V30 2013 H 206.82 4.29165 -2.12965 0
M  V30 2014 H 205.184 2.3229 -1.04467 0
M  V30 2015 H 205.967 2.11612 -2.70324 0
M  V30 2016 N 208.412 0.89855 1.29475 0
M  V30 2017 C 209.342 0.39201 2.30186 0
M  V30 2018 C 210.323 -0.532359 1.61555 0
M  V30 2019 O 211.508 -0.443331 1.89072 0
M  V30 2020 C 208.638 -0.382353 3.45189 0
M  V30 2021 C 207.592 0.451483 4.25612 0
M  V30 2022 C 206.918 -0.450307 5.328 0
M  V30 2023 C 208.218 1.70079 4.93832 0
M  V30 2024 H 209.912 1.23362 2.72804 0
M  V30 2025 H 207.458 0.594638 1.31149 0
M  V30 2026 H 209.411 -0.747451 4.14718 0
M  V30 2027 H 208.135 -1.25774 3.01411 0
M  V30 2028 H 206.794 0.798897 3.57789 0
M  V30 2029 H 206.442 -1.32379 4.85268 0
M  V30 2030 H 206.142 0.103902 5.87508 0
M  V30 2031 H 207.666 -0.811623 6.05182 0
M  V30 2032 H 209.08 1.40549 5.55805 0
M  V30 2033 H 207.477 2.19623 5.58467 0
M  V30 2034 H 208.547 2.43744 4.19186 0
M  V30 2035 N 209.89 -1.43072 0.660911 0
M  V30 2036 C 211.118 -2.06067 0.185422 0
M  V30 2037 C 211.533 -1.49582 -1.15198 0
M  V30 2038 O 210.89 -0.630134 -1.71276 0
M  V30 2039 C 210.941 -3.61371 0.0966523 0
M  V30 2040 O 210.662 -4.15758 1.38119 0
M  V30 2041 C 212.163 -4.41455 -0.403996 0
M  V30 2042 H 209.383 -0.664459 0.0934604 0
M  V30 2043 H 211.927 -1.83447 0.90373 0
M  V30 2044 H 210.082 -3.8315 -0.572259 0
M  V30 2045 H 210.496 -5.09499 1.24542 0
M  V30 2046 H 211.97 -5.50437 -0.415045 0
M  V30 2047 H 212.447 -4.15036 -1.43674 0
M  V30 2048 H 213.053 -4.24663 0.232691 0
M  V30 2049 N 211.368 -0.403325 -1.52352 0
M  V30 2050 C 212.645 0.232611 -1.94212 0
M  V30 2051 C 213.025 1.63133 -1.33981 0
M  V30 2052 O 212.373 2.22659 -0.513344 0
M  V30 2053 C 212.583 0.244811 -3.4814 0
M  V30 2054 C 213.931 0.46698 -4.22024 0
M  V30 2055 O 214.955 0.324419 -3.5472 0
M  V30 2056 O 213.814 0.74747 -5.41364 0
M  V30 2057 H 210.908 0.148223 -0.813609 0
M  V30 2058 H 213.454 -0.458848 -1.63379 0
M  V30 2059 H 212.226 -0.734378 -3.84347 0
M  V30 2060 H 211.849 0.980611 -3.85318 0
M  V30 2061 N 212.846 1.57033 -0.133567 0
M  V30 2062 C 214.071 2.00475 0.531477 0
M  V30 2063 C 214.496 1.01291 1.58499 0
M  V30 2064 O 213.854 -0.0133279 1.81295 0
M  V30 2065 C 213.902 3.42729 1.12113 0
M  V30 2066 O 213.006 3.46498 2.23636 0
M  V30 2067 H 212.347 0.650876 0.131362 0
M  V30 2068 H 214.877 2.03344 -0.22634 0
M  V30 2069 H 214.887 3.81246 1.4531 0
M  V30 2070 H 213.562 4.14428 0.349557 0
M  V30 2071 H 212.139 3.19811 1.91769 0
M  V30 2072 N 214.325 -0.140222 1.56975 0
M  V30 2073 C 215.574 -0.850152 1.82908 0
M  V30 2074 C 215.887 -1.82028 0.715892 0
M  V30 2075 O 217.093 -2.57485 0.861016 0
M  V30 2076 C 215.549 -1.5625 3.24213 0
M  V30 2077 C 215.157 -0.63443 4.43485 0
M  V30 2078 C 216.901 -2.25881 3.59413 0
M  V30 2079 C 214.808 -1.34879 5.75814 0
M  V30 2080 H 213.738 -0.321221 0.682153 0
M  V30 2081 H 216.389 -0.102874 1.83211 0
M  V30 2082 H 214.771 -2.35565 3.18316 0
M  V30 2083 H 215.945 0.12398 4.60633 0
M  V30 2084 H 214.26 -0.0461836 4.16374 0
M  V30 2085 H 216.857 -2.79978 4.5554 0
M  V30 2086 H 217.2 -3.02693 2.85802 0
M  V30 2087 H 217.733 -1.53477 3.67001 0
M  V30 2088 H 214.472 -0.622385 6.52539 0
M  V30 2089 H 213.992 -2.07974 5.6259 0
M  V30 2090 H 215.671 -1.88784 6.18845 0
M  V30 2091 N 215.803 -1.52179 -0.40978 0
M  V30 2092 C 216.733 -1.78435 -1.5061 0
M  V30 2093 C 217.714 -0.635295 -1.57791 0
M  V30 2094 O 218.899 -0.880823 -1.73076 0
M  V30 2095 C 216.029 -1.93444 -2.88439 0
M  V30 2096 C 214.983 -3.09038 -2.96108 0
M  V30 2097 C 214.309 -3.09268 -4.36185 0
M  V30 2098 C 215.609 -4.48508 -2.67652 0
M  V30 2099 H 217.303 -2.70237 -1.28889 0
M  V30 2100 H 214.849 -1.30036 -0.618605 0
M  V30 2101 H 216.802 -2.10394 -3.65119 0
M  V30 2102 H 215.526 -0.983129 -3.11452 0
M  V30 2103 H 214.185 -2.91837 -2.21872 0
M  V30 2104 H 213.833 -2.11861 -4.56206 0
M  V30 2105 H 213.533 -3.86907 -4.42241 0
M  V30 2106 H 215.057 -3.28348 -5.14801 0
M  V30 2107 H 216.471 -4.65918 -3.34056 0
M  V30 2108 H 214.868 -5.28059 -2.85085 0
M  V30 2109 H 215.938 -4.56649 -1.63095 0
M  V30 2110 N 217.281 0.66697 -1.42791 0
M  V30 2111 C 218.521 1.43892 -1.4517 0
M  V30 2112 C 218.885 1.91877 -0.0687551 0
M  V30 2113 O 220.086 2.6878 0.0327455 0
M  V30 2114 C 218.357 2.59839 -2.45395 0
M  V30 2115 S 219.916 3.48572 -2.66539 0
M  V30 2116 H 216.734 0.491356 -0.513897 0
M  V30 2117 H 219.336 0.775656 -1.79454 0
M  V30 2118 H 218.04 2.22838 -3.44632 0
M  V30 2119 H 217.571 3.3103 -2.12562 0
M  V30 2120 H 219.586 4.56094 -1.95429 0
M  V30 2121 N 218.759 1.29093 0.90403 0
M  V30 2122 C 220.036 1.075 1.63411 0
M  V30 2123 C 220.416 -0.382346 2.07609 0
M  V30 2124 O 219.764 -1.37031 1.82851 0
M  V30 2125 C 219.974 2.05858 2.81822 0
M  V30 2126 C 221.322 2.36539 3.52611 0
M  V30 2127 O 222.346 2.04019 2.91984 0
M  V30 2128 O 221.205 2.92085 4.61897 0
M  V30 2129 H 218.299 0.411547 0.717327 0
M  V30 2130 H 220.845 1.40449 0.952479 0
M  V30 2131 H 219.617 3.04037 2.46327 0
M  V30 2132 H 219.24 1.73613 3.57693 0
M  V30 2133 N 220.237 -1.11381 1.11499 0
M  V30 2134 C 221.485 -1.8277 0.862524 0
M  V30 2135 C 221.806 -1.85097 -0.613534 0
M  V30 2136 O 221.076 -1.32198 -1.4457 0
M  V30 2137 H 219.656 -0.676823 0.316101 0
M  V30 2138 H 222.318 -1.34816 1.4075 0
M  V30 2139 H 221.414 -2.86614 1.23527 0
M  V30 2140 N 221.715 -0.905404 -1.28997 0
M  V30 2141 C 222.645 -0.404212 -2.29975 0
M  V30 2142 C 223.626 0.523784 -1.61835 0
M  V30 2143 O 224.811 0.433298 -1.89304 0
M  V30 2144 C 221.941 0.364042 -3.45387 0
M  V30 2145 C 220.895 -0.474048 -4.25367 0
M  V30 2146 C 220.221 0.422045 -5.33032 0
M  V30 2147 C 221.521 -1.72696 -4.92923 0
M  V30 2148 H 223.215 -1.24807 -2.72146 0
M  V30 2149 H 220.761 -0.601585 -1.30832 0
M  V30 2150 H 222.714 0.725447 -4.15109 0
M  V30 2151 H 221.438 1.24174 -3.02074 0
M  V30 2152 H 220.097 -0.81786 -3.57361 0
M  V30 2153 H 219.745 1.29804 -4.85963 0
M  V30 2154 H 219.445 -0.135057 -5.87445 0
M  V30 2155 H 220.969 0.779517 -6.05604 0
M  V30 2156 H 222.383 -1.43495 -5.55051 0
M  V30 2157 H 220.78 -2.22582 -5.57295 0
M  V30 2158 H 221.85 -2.45964 -4.17887 0
M  V30 2159 N 223.193 1.4272 -0.668489 0
M  V30 2160 C 224.421 2.05966 -0.196348 0
M  V30 2161 C 224.836 1.50191 1.14403 0
M  V30 2162 O 224.193 0.639208 1.7094 0
M  V30 2163 C 224.244 3.61314 -0.115815 0
M  V30 2164 O 223.965 4.1502 -1.40322 0
M  V30 2165 C 225.466 4.41663 0.380579 0
M  V30 2166 H 222.686 0.663954 -0.0969829 0
M  V30 2167 H 225.23 1.82966 -0.913446 0
M  V30 2168 H 223.385 3.83448 0.551931 0
M  V30 2169 H 223.799 5.08832 -1.27243 0
M  V30 2170 H 225.273 5.5065 0.385848 0
M  V30 2171 H 225.75 4.15792 1.41471 0
M  V30 2172 H 226.356 4.24534 -0.255209 0
M  V30 2173 N 224.671 0.411399 1.52136 0
M  V30 2174 C 225.948 -0.222308 1.94333 0
M  V30 2175 C 226.328 -1.6242 1.34844 0
M  V30 2176 O 225.676 -2.22384 0.525145 0
M  V30 2177 C 225.886 -0.226345 3.48265 0
M  V30 2178 C 227.234 -0.444592 4.22266 0
M  V30 2179 O 228.258 -0.305602 3.54887 0
M  V30 2180 O 227.117 -0.718749 5.41753 0
M  V30 2181 H 224.211 -0.143907 0.814383 0
M  V30 2182 H 226.757 0.467506 1.63133 0
M  V30 2183 H 225.529 0.75475 3.83952 0
M  V30 2184 H 225.152 -0.960163 3.85832 0
M  V30 2185 N 226.149 -1.5696 0.141893 0
M  V30 2186 C 227.112 -2.15316 -0.785587 0
M  V30 2187 C 228.112 -1.09366 -1.1788 0
M  V30 2188 O 229.302 -1.35031 -1.10056 0
M  V30 2189 C 226.434 -2.71211 -2.06537 0
M  V30 2190 H 227.627 -2.98608 -0.278041 0
M  V30 2191 H 225.18 -1.5593 -0.107519 0
M  V30 2192 H 225.915 -1.91571 -2.6167 0
M  V30 2193 H 225.7 -3.4872 -1.79268 0
M  V30 2194 H 227.19 -3.16189 -2.72789 0
M  V30 2195 N 227.627 0.131896 -1.57047 0
M  V30 2196 C 228.874 0.841932 -1.84168 0
M  V30 2197 C 229.202 1.8048 -0.725066 0
M  V30 2198 O 228.457 1.93618 0.284692 0
M  V30 2199 C 228.756 1.63703 -3.17704 0
M  V30 2200 C 228.422 0.81961 -4.43388 0
M  V30 2201 C 227.084 0.594148 -4.77518 0
M  V30 2202 C 229.436 0.248977 -5.20605 0
M  V30 2203 C 226.764 -0.212409 -5.86315 0
M  V30 2204 C 229.116 -0.544701 -6.30251 0
M  V30 2205 C 227.78 -0.780599 -6.6292 0
M  V30 2206 H 227.05 0.308085 -0.673917 0
M  V30 2207 H 229.697 0.104867 -1.91213 0
M  V30 2208 H 228.002 2.44464 -3.06177 0
M  V30 2209 H 229.699 2.19015 -3.35907 0
M  V30 2210 H 226.289 1.00542 -4.16641 0
M  V30 2211 H 230.473 0.410408 -4.946 0
M  V30 2212 H 225.729 -0.404524 -6.1006 0
M  V30 2213 H 229.903 -0.993922 -6.89271 0
M  V30 2214 H 227.53 -1.40742 -7.47058 0
M  V30 2215 N 229.106 1.52395 0.401703 0
M  V30 2216 C 230.056 1.72649 1.48917 0
M  V30 2217 C 231.04 0.580436 1.50066 0
M  V30 2218 O 232.232 0.83779 1.55917 0
M  V30 2219 C 229.361 1.88729 2.86769 0
M  V30 2220 C 228.447 3.09228 2.90239 0
M  V30 2221 N 228.838 4.31805 2.63396 0
M  V30 2222 C 227.136 3.09214 3.21408 0
M  V30 2223 C 227.837 5.13326 2.73625 0
M  V30 2224 N 226.813 4.48735 3.06819 0
M  V30 2225 H 230.615 2.65058 1.26971 0
M  V30 2226 H 228.129 1.50528 0.609504 0
M  V30 2227 H 230.126 2.01358 3.65049 0
M  V30 2228 H 228.786 0.975252 3.09708 0
M  V30 2229 H 229.797 4.60154 2.37653 0
M  V30 2230 H 226.474 2.27774 3.49893 0
M  V30 2231 H 227.864 6.21003 2.56524 0
M  V30 2232 N 230.584 -0.659388 1.43143 0
M  V30 2233 C 231.532 -1.79374 1.4808 0
M  V30 2234 C 232.526 -1.65639 0.354988 0
M  V30 2235 O 233.732 -1.7206 0.528704 0
M  V30 2236 H 230.107 -0.591705 0.4641 0
M  V30 2237 H 232.078 -1.72329 2.43609 0
M  V30 2238 C 230.827 -3.17606 1.41499 0
M  V30 2239 H 230.15 -3.28809 2.27431 0
M  V30 2240 H 231.59 -3.96951 1.49015 0
M  V30 2241 C 230.049 -3.36642 0.131765 0
M  V30 2242 O 230.579 -3.93461 -0.809386 0
M  V30 2243 N 228.785 -2.90567 0.0439396 0
M  V30 2244 H 228.332 -2.44513 0.810619 0
M  V30 2245 H 228.29 -3.03681 -0.813969 0
M  V30 2246 N 232.062 -1.29571 -0.897171 0
M  V30 2247 C 233.302 -1.18959 -1.66217 0
M  V30 2248 C 233.666 0.254271 -1.90309 0
M  V30 2249 O 234.867 0.483407 -2.64417 0
M  V30 2250 C 233.138 -1.98302 -2.9734 0
M  V30 2251 S 234.697 -2.04253 -3.88364 0
M  V30 2252 H 231.515 -0.424137 -0.570639 0
M  V30 2253 H 234.117 -1.6389 -1.06585 0
M  V30 2254 H 232.821 -3.02342 -2.77521 0
M  V30 2255 H 232.352 -1.53986 -3.62011 0
M  V30 2256 H 234.367 -1.16105 -4.82425 0
M  V30 2257 N 233.54 1.10788 -1.12088 0
M  V30 2258 C 234.49 2.15158 -0.754401 0
M  V30 2259 C 235.474 1.59026 0.244846 0
M  V30 2260 O 236.666 1.76927 0.0509097 0
M  V30 2261 C 233.795 3.42677 -0.206657 0
M  V30 2262 C 232.881 4.05751 -1.23398 0
M  V30 2263 N 233.272 4.43582 -2.43041 0
M  V30 2264 C 231.57 4.32764 -1.07848 0
M  V30 2265 C 232.271 4.93085 -3.08613 0
M  V30 2266 N 231.247 4.89664 -2.36072 0
M  V30 2267 H 235.049 2.42195 -1.6649 0
M  V30 2268 H 232.563 1.27872 -1.00112 0
M  V30 2269 H 234.56 4.16834 0.0740646 0
M  V30 2270 H 233.22 3.17101 0.698342 0
M  V30 2271 H 234.231 4.35395 -2.80449 0
M  V30 2272 H 230.908 4.16863 -0.230483 0
M  V30 2273 H 232.298 5.31933 -4.10483 0
M  V30 2274 N 235.018 0.912232 1.28515 0
M  V30 2275 C 235.951 0.343928 2.25593 0
M  V30 2276 C 236.929 -0.550994 1.5298 0
M  V30 2277 O 238.113 -0.494991 1.81885 0
M  V30 2278 C 235.24 -0.508525 3.34861 0
M  V30 2279 C 234.286 0.320808 4.25292 0
M  V30 2280 S 235.119 1.72658 5.06902 0
M  V30 2281 C 236.275 0.881394 6.19663 0
M  V30 2282 H 236.508 1.16674 2.73449 0
M  V30 2283 H 234.041 0.713384 1.36931 0
M  V30 2284 H 235.999 -0.994539 3.9827 0
M  V30 2285 H 234.66 -1.30571 2.85675 0
M  V30 2286 H 233.853 -0.330941 5.02912 0
M  V30 2287 H 233.455 0.74042 3.66598 0
M  V30 2288 H 235.747 0.110359 6.7741 0
M  V30 2289 H 236.69 1.63009 6.89082 0
M  V30 2290 H 237.098 0.430239 5.62858 0
M  V30 2291 N 236.496 -1.42363 0.676048 0
M  V30 2292 C 237.744 -2.01123 0.198437 0
M  V30 2293 C 238.065 -1.53731 -1.19966 0
M  V30 2294 O 237.335 -0.759518 -1.80577 0
M  V30 2295 H 235.915 -0.743678 0.0703721 0
M  V30 2296 H 238.577 -1.74263 0.872837 0
M  V30 2297 H 237.673 -3.11454 0.200686 0
M  V30 2298 N 237.974 -0.419461 -1.51915 0
M  V30 2299 C 239.223 0.154346 -2.01109 0
M  V30 2300 C 239.536 1.45338 -1.30905 0
M  V30 2301 O 240.742 2.10906 -1.7097 0
M  V30 2302 C 239.198 0.325615 -3.58424 0
M  V30 2303 C 238.806 -0.961934 -4.37551 0
M  V30 2304 C 240.55 0.854155 -4.15818 0
M  V30 2305 C 238.457 -0.757287 -5.86531 0
M  V30 2306 H 237.387 0.0614563 -0.751491 0
M  V30 2307 H 240.038 -0.54649 -1.75173 0
M  V30 2308 H 238.42 1.08903 -3.80731 0
M  V30 2309 H 239.594 -1.7323 -4.26999 0
M  V30 2310 H 237.909 -1.41766 -3.91524 0
M  V30 2311 H 240.506 1.02346 -5.24814 0
M  V30 2312 H 240.849 1.83172 -3.73837 0
M  V30 2313 H 241.382 0.149528 -3.97519 0
M  V30 2314 H 238.121 -1.70671 -6.32892 0
M  V30 2315 H 237.641 -0.0264061 -5.99794 0
M  V30 2316 H 239.32 -0.403482 -6.45741 0
M  V30 2317 N 239.452 1.56882 -0.150215 0
M  V30 2318 C 240.68 2.00593 0.506948 0
M  V30 2319 C 241.095 1.03033 1.58208 0
M  V30 2320 O 240.452 0.0278396 1.82479 0
M  V30 2321 C 240.503 3.44209 1.10465 0
M  V30 2322 O 240.224 4.3804 0.0724636 0
M  V30 2323 C 241.725 4.03214 1.84211 0
M  V30 2324 H 238.945 0.65795 0.13169 0
M  V30 2325 H 241.489 2.03018 -0.245743 0
M  V30 2326 H 239.644 3.42625 1.80795 0
M  V30 2327 H 240.058 5.22007 0.510793 0
M  V30 2328 H 241.532 5.0569 2.21318 0
M  V30 2329 H 242.009 3.44107 2.72923 0
M  V30 2330 H 242.615 4.08437 1.18572 0
M  V30 2331 N 240.93 -0.123565 1.57115 0
M  V30 2332 C 241.893 -1.13583 1.99076 0
M  V30 2333 C 242.893 -1.34564 0.880296 0
M  V30 2334 O 244.083 -1.31158 1.14644 0
M  V30 2335 C 241.215 -2.49128 2.32698 0
M  V30 2336 H 242.408 -0.775287 2.89706 0
M  V30 2337 H 239.961 -0.36771 1.51913 0
M  V30 2338 H 240.696 -2.90111 1.44934 0
M  V30 2339 H 240.481 -2.35255 3.13684 0
M  V30 2340 H 241.971 -3.2199 2.65918 0
M  V30 2341 N 242.408 -1.52605 -0.393616 0
M  V30 2342 C 243.318 -1.79971 -1.50492 0
M  V30 2343 C 244.334 -0.686181 -1.59899 0
M  V30 2344 O 245.51 -0.973274 -1.76322 0
M  V30 2345 C 242.575 -1.95867 -2.86072 0
M  V30 2346 C 241.636 -3.19781 -2.86424 0
M  V30 2347 C 240.869 -3.34909 -4.15538 0
M  V30 2348 O 241.092 -2.54948 -5.10253 0
M  V30 2349 O 240.026 -4.28141 -4.23059 0
M  V30 2350 H 243.852 -2.74328 -1.30299 0
M  V30 2351 H 241.437 -1.3764 -0.581005 0
M  V30 2352 H 243.319 -2.08056 -3.66457 0
M  V30 2353 H 241.994 -1.04699 -3.063 0
M  V30 2354 H 240.901 -3.13038 -2.04837 0
M  V30 2355 H 242.234 -4.1078 -2.71147 0
M  V30 2356 N 243.887 0.651787 -1.4349 0
M  V30 2357 C 244.835 1.78586 -1.49029 0
M  V30 2358 C 245.829 1.65448 -0.363767 0
M  V30 2359 O 247.035 1.71777 -0.537821 0
M  V30 2360 H 243.41 0.589236 -0.467231 0
M  V30 2361 H 245.381 1.71035 -2.44519 0
M  V30 2362 C 244.13 3.16851 -1.43181 0
M  V30 2363 H 243.453 3.27598 -2.29171 0
M  V30 2364 H 244.893 3.96156 -1.51118 0
M  V30 2365 C 243.352 3.36568 -0.149616 0
M  V30 2366 O 243.882 3.93885 0.788509 0
M  V30 2367 N 242.088 2.90539 -0.0593484 0
M  V30 2368 H 241.635 2.4408 -0.823575 0
M  V30 2369 H 241.593 3.04108 0.797853 0
M  V30 2370 N 245.365 1.30045 0.890287 0
M  V30 2371 C 246.611 1.18737 1.64406 0
M  V30 2372 C 246.944 -0.258525 1.92472 0
M  V30 2373 O 246.219 -1.18562 1.54186 0
M  V30 2374 C 246.502 2.01087 2.98724 0
M  V30 2375 C 246.355 3.53867 2.77665 0
M  V30 2376 C 247.674 1.84457 3.9958 0
M  V30 2377 H 244.793 0.432698 0.596608 0
M  V30 2378 H 247.435 1.5962 1.0306 0
M  V30 2379 H 245.585 1.66349 3.51084 0
M  V30 2380 H 247.257 3.98637 2.32133 0
M  V30 2381 H 245.5 3.78318 2.12269 0
M  V30 2382 H 246.171 4.06772 3.7315 0
M  V30 2383 H 248.647 2.14817 3.56361 0
M  V30 2384 H 247.523 2.44411 4.91482 0
M  V30 2385 H 247.784 0.802276 4.3476 0
M  V30 2386 N 246.843 -1.10192 1.12674 0
M  V30 2387 C 247.806 -2.14786 0.799979 0
M  V30 2388 C 248.806 -1.59711 -0.18685 0
M  V30 2389 O 249.996 -1.74156 0.0392558 0
M  V30 2390 C 247.128 -3.40374 0.189228 0
M  V30 2391 H 248.321 -2.45203 1.72671 0
M  V30 2392 H 245.874 -1.25597 0.930326 0
M  V30 2393 H 246.609 -3.15577 -0.747107 0
M  V30 2394 H 246.394 -3.81637 0.899766 0
M  V30 2395 H 247.884 -4.17594 -0.0228143 0
M  V30 2396 N 248.321 -0.919034 -1.28029 0
M  V30 2397 C 249.268 -0.410005 -2.27129 0
M  V30 2398 C 250.238 0.518405 -1.57803 0
M  V30 2399 O 251.423 0.439451 -1.8567 0
M  V30 2400 C 248.563 0.339054 -3.4343 0
M  V30 2401 C 247.676 -0.622468 -4.27492 0
M  V30 2402 C 246.811 0.145567 -5.31001 0
M  V30 2403 C 245.85 -0.809226 -6.06727 0
M  V30 2404 N 244.987 -0.0743728 -7.02061 0
M  V30 2405 H 249.827 -1.26011 -2.70047 0
M  V30 2406 H 247.364 -0.632663 -1.328 0
M  V30 2407 H 249.322 0.789586 -4.0966 0
M  V30 2408 H 247.952 1.15346 -3.01488 0
M  V30 2409 H 247.004 -1.19153 -3.61257 0
M  V30 2410 H 248.316 -1.35252 -4.80113 0
M  V30 2411 H 247.47 0.656417 -6.03139 0
M  V30 2412 H 246.209 0.908643 -4.79161 0
M  V30 2413 H 245.214 -1.3314 -5.33436 0
M  V30 2414 H 246.439 -1.57194 -6.60656 0
M  V30 2415 H 244.385 0.670616 -6.52563 0
M  V30 2416 H 244.302 -0.744157 -7.52329 0
M  V30 2417 H 245.57 0.416109 -7.78389 0
M  V30 2418 N 249.799 1.42003 -0.683588 0
M  V30 2419 C 250.746 2.30798 -0.0107309 0
M  V30 2420 C 251.716 1.4645 0.783688 0
M  V30 2421 O 252.901 1.75263 0.754156 0
M  V30 2422 C 250.041 3.3238 0.928306 0
M  V30 2423 C 249.154 4.31814 0.126776 0
M  V30 2424 C 248.289 5.20468 1.06236 0
M  V30 2425 C 247.328 6.11577 0.253035 0
M  V30 2426 N 246.465 6.92754 1.14179 0
M  V30 2427 H 251.305 2.8778 -0.773727 0
M  V30 2428 H 248.842 1.41745 -0.393283 0
M  V30 2429 H 250.8 3.89813 1.48666 0
M  V30 2430 H 249.43 2.76976 1.65783 0
M  V30 2431 H 248.482 3.76427 -0.54833 0
M  V30 2432 H 249.794 4.96276 -0.501192 0
M  V30 2433 H 248.948 5.82677 1.69035 0
M  V30 2434 H 247.687 4.56204 1.7242 0
M  V30 2435 H 246.692 5.48428 -0.388108 0
M  V30 2436 H 247.917 6.77892 -0.404839 0
M  V30 2437 H 245.863 6.3111 1.78987 0
M  V30 2438 H 245.78 7.53855 0.569111 0
M  V30 2439 H 247.048 7.59441 1.75697 0
M  V30 2440 N 251.277 0.427512 1.51691 0
M  V30 2441 C 252.523 -0.134744 2.02953 0
M  V30 2442 C 252.878 -1.41235 1.30654 0
M  V30 2443 O 252.171 -1.87168 0.409713 0
M  V30 2444 C 252.365 -0.418249 3.54944 0
M  V30 2445 C 252.194 0.830327 4.41968 0
M  V30 2446 C 250.964 1.36097 4.86627 0
M  V30 2447 C 253.162 1.7137 4.84909 0
M  V30 2448 N 251.144 2.56311 5.57833 0
M  V30 2449 C 252.515 2.76195 5.55082 0
M  V30 2450 C 254.57 1.72928 4.66905 0
M  V30 2451 C 253.273 3.82512 6.09161 0
M  V30 2452 C 255.299 2.78175 5.21894 0
M  V30 2453 C 254.661 3.8172 5.92004 0
M  V30 2454 H 250.76 -0.0103958 0.781931 0
M  V30 2455 H 253.344 0.585981 1.85673 0
M  V30 2456 H 251.515 -1.10801 3.7226 0
M  V30 2457 H 253.247 -0.970999 3.92879 0
M  V30 2458 H 250.002 0.916311 4.64651 0
M  V30 2459 H 250.426 3.17242 5.98069 0
M  V30 2460 H 255.068 0.942081 4.12171 0
M  V30 2461 H 252.786 4.62077 6.62956 0
M  V30 2462 H 256.372 2.8031 5.09821 0
M  V30 2463 H 255.252 4.61821 6.33791 0
M  V30 2464 N 252.755 -1.56801 0.158532 0
M  V30 2465 C 253.687 -2.14488 -0.807923 0
M  V30 2466 C 254.7 -1.09721 -1.20271 0
M  V30 2467 O 255.889 -1.36956 -1.14478 0
M  V30 2468 C 252.989 -2.66217 -2.09718 0
M  V30 2469 C 252.162 -3.95507 -1.86796 0
M  V30 2470 C 251.221 -4.3243 -2.99818 0
M  V30 2471 O 250.247 -5.00543 -2.71008 0
M  V30 2472 N 251.449 -3.92947 -4.27285 0
M  V30 2473 H 254.214 -2.98042 -0.314816 0
M  V30 2474 H 251.775 -1.61881 -0.0246692 0
M  V30 2475 H 253.767 -2.87924 -2.84398 0
M  V30 2476 H 252.337 -1.87324 -2.50257 0
M  V30 2477 H 251.557 -3.82309 -0.96089 0
M  V30 2478 H 252.845 -4.79972 -1.68833 0
M  V30 2479 H 252.243 -3.38087 -4.53557 0
M  V30 2480 H 250.8 -4.19681 -4.9871 0
M  V30 2481 N 254.233 0.115231 -1.57178 0
M  V30 2482 C 255.479 0.82357 -1.85325 0
M  V30 2483 C 255.812 1.79349 -0.744814 0
M  V30 2484 O 255.087 1.92899 0.249024 0
M  V30 2485 C 255.37 1.57014 -3.24066 0
M  V30 2486 C 255.223 0.619565 -4.45513 0
M  V30 2487 C 256.542 2.52545 -3.60429 0
M  V30 2488 H 253.661 0.297948 -0.674089 0
M  V30 2489 H 256.303 0.0877138 -1.89797 0
M  V30 2490 H 254.453 2.19742 -3.20383 0
M  V30 2491 H 256.125 0.000837639 -4.613 0
M  V30 2492 H 254.368 -0.0686174 -4.33746 0
M  V30 2493 H 255.039 1.17866 -5.3927 0
M  V30 2494 H 257.515 1.9992 -3.64926 0
M  V30 2495 H 256.391 3.01811 -4.58477 0
M  V30 2496 H 256.652 3.35383 -2.88047 0
M  V30 2497 N 255.711 1.52812 0.385517 0
M  V30 2498 C 256.936 1.72207 1.15583 0
M  V30 2499 C 257.361 0.441034 1.82857 0
M  V30 2500 O 256.719 -0.603465 1.70962 0
M  V30 2501 C 256.767 2.87476 2.17692 0
M  V30 2502 O 255.871 2.54693 3.24354 0
M  V30 2503 H 255.212 0.572526 0.336319 0
M  V30 2504 H 257.742 1.99618 0.448744 0
M  V30 2505 H 257.752 3.13072 2.6163 0
M  V30 2506 H 256.427 3.80408 1.68115 0
M  V30 2507 H 255.004 2.3985 2.85529 0
M  V30 2508 N 257.189 -0.644168 1.43834 0
M  V30 2509 C 258.605 -0.960875 1.27434 0
M  V30 2510 C 258.805 -2.00499 0.200618 0
M  V30 2511 O 257.861 -2.49018 -0.417906 0
M  V30 2512 C 259.174 -1.43653 2.64167 0
M  V30 2513 C 260.722 -1.55271 2.71772 0
M  V30 2514 C 261.197 -2.06224 4.08944 0
M  V30 2515 N 262.688 -2.13513 4.11055 0
M  V30 2516 C 263.423 -2.54081 5.14033 0
M  V30 2517 N 262.919 -2.9388 6.27381 0
M  V30 2518 N 264.712 -2.54101 5.01387 0
M  V30 2519 H 256.863 0.0465779 2.12349 0
M  V30 2520 H 259.126 -0.0417638 0.94708 0
M  V30 2521 H 258.832 -0.743706 3.43747 0
M  V30 2522 H 258.706 -2.40993 2.90176 0
M  V30 2523 H 261.093 -2.23653 1.92519 0
M  V30 2524 H 261.174 -0.563395 2.49519 0
M  V30 2525 H 260.818 -1.38441 4.88668 0
M  V30 2526 H 260.748 -3.06003 4.28567 0
M  V30 2527 H 263.239 -1.85493 3.29242 0
M  V30 2528 H 263.552 -3.2361 7.01781 0
M  V30 2529 H 261.897 -2.91663 6.30839 0
M  V30 2530 H 265.088 -2.22391 4.11898 0
M  V30 2531 H 265.261 -2.85394 5.81768 0
M  V30 2532 N 258.668 -1.30515 -0.883378 0
M  V30 2533 C 259.578 -1.18959 -2.02203 0
M  V30 2534 C 260.594 -0.109172 -1.73657 0
M  V30 2535 O 261.77 -0.324413 -1.9877 0
M  V30 2536 C 258.835 -0.883871 -3.35244 0
M  V30 2537 C 257.896 -2.04982 -3.77201 0
M  V30 2538 C 257.129 -1.75859 -5.03894 0
M  V30 2539 O 257.352 -0.687276 -5.66244 0
M  V30 2540 O 256.286 -2.61146 -5.42297 0
M  V30 2541 H 260.112 -2.14616 -2.1488 0
M  V30 2542 H 257.697 -1.10124 -1.0096 0
M  V30 2543 H 259.579 -0.728644 -4.15053 0
M  V30 2544 H 258.254 0.0427798 -3.23672 0
M  V30 2545 H 257.161 -2.26038 -2.9809 0
M  V30 2546 H 258.494 -2.95825 -3.93381 0
M  V30 2547 N 260.146 1.09593 -1.13257 0
M  V30 2548 C 261.423 1.78293 -0.804432 0
M  V30 2549 C 261.803 1.99004 0.70431 0
M  V30 2550 O 261.151 1.59007 1.641 0
M  V30 2551 C 261.361 3.10707 -1.5894 0
M  V30 2552 C 262.709 3.85443 -1.78099 0
M  V30 2553 O 263.733 3.20454 -1.55525 0
M  V30 2554 O 262.592 5.02108 -2.15753 0
M  V30 2555 H 259.686 0.773156 -0.293528 0
M  V30 2556 H 262.232 1.16164 -1.23709 0
M  V30 2557 H 261.004 2.91106 -2.61482 0
M  V30 2558 H 260.627 3.80558 -1.15157 0
M  V30 2559 N 261.624 0.925811 1.2754 0
M  V30 2560 C 262.556 0.380753 2.26015 0
M  V30 2561 C 263.569 -0.487485 1.5533 0
M  V30 2562 O 264.758 -0.300413 1.75954 0
M  V30 2563 C 261.858 -0.473259 3.35579 0
M  V30 2564 C 261.031 0.375249 4.35787 0
M  V30 2565 C 260.09 -0.415809 5.24555 0
M  V30 2566 O 259.116 0.175834 5.68928 0
M  V30 2567 N 260.318 -1.71607 5.54555 0
M  V30 2568 H 263.083 1.22725 2.73421 0
M  V30 2569 H 260.644 0.793037 1.41147 0
M  V30 2570 H 262.636 -1.00949 3.91907 0
M  V30 2571 H 261.206 -1.2205 2.87789 0
M  V30 2572 H 260.426 1.09279 3.7875 0
M  V30 2573 H 261.714 0.955399 4.99749 0
M  V30 2574 H 261.112 -2.2191 5.20358 0
M  V30 2575 H 259.669 -2.19887 6.1359 0
M  V30 2576 N 263.102 -1.41638 0.69111 0
M  V30 2577 C 264.379 -1.95036 0.148421 0
M  V30 2578 C 264.759 -1.63072 -1.34055 0
M  V30 2579 O 264.107 -0.93538 -2.08478 0
M  V30 2580 C 264.317 -3.46279 0.434951 0
M  V30 2581 C 265.665 -4.23069 0.360275 0
M  V30 2582 O 266.689 -3.54277 0.369613 0
M  V30 2583 O 265.548 -5.45583 0.316534 0
M  V30 2584 H 262.642 -0.826908 0.0123654 0
M  V30 2585 H 265.188 -1.5138 0.766963 0
M  V30 2586 H 263.96 -3.6281 1.46576 0
M  V30 2587 H 263.583 -3.97019 -0.214787 0
M  V30 2588 N 264.58 -0.43555 -1.51462 0
M  V30 2589 C 265.527 0.376797 -2.27703 0
M  V30 2590 C 266.497 1.01838 -1.31219 0
M  V30 2591 O 267.682 1.03762 -1.60119 0
M  V30 2592 C 264.822 1.47301 -3.12084 0
M  V30 2593 C 263.935 0.849744 -4.2356 0
M  V30 2594 C 263.07 1.92086 -4.95254 0
M  V30 2595 C 262.109 1.27593 -5.98654 0
M  V30 2596 N 261.246 2.28833 -6.63762 0
M  V30 2597 H 266.086 -0.279734 -2.96684 0
M  V30 2598 H 263.623 -0.149795 -1.46335 0
M  V30 2599 H 265.581 2.11984 -3.59331 0
M  V30 2600 H 264.211 2.0992 -2.45221 0
M  V30 2601 H 263.263 0.0912529 -3.80291 0
M  V30 2602 H 264.575 0.338878 -4.97648 0
M  V30 2603 H 263.729 2.64435 -5.46039 0
M  V30 2604 H 262.468 2.46545 -4.20793 0
M  V30 2605 H 261.473 0.537893 -5.47162 0
M  V30 2606 H 262.698 0.738693 -6.7507 0
M  V30 2607 H 260.644 2.82375 -5.92115 0
M  V30 2608 H 260.561 1.82632 -7.33608 0
M  V30 2609 H 261.829 3.00671 -7.19178 0
M  V30 2610 N 266.058 1.56714 -0.166846 0
M  V30 2611 C 267.304 1.97039 0.479962 0
M  V30 2612 C 267.637 1.05264 1.63197 0
M  V30 2613 O 266.912 0.0988833 1.94248 0
M  V30 2614 C 267.195 3.46867 0.967212 0
M  V30 2615 C 267.048 4.49421 -0.18466 0
M  V30 2616 C 268.367 3.9968 1.84238 0
M  V30 2617 H 265.486 0.71641 0.172992 0
M  V30 2618 H 268.128 1.8832 -0.252079 0
M  V30 2619 H 266.278 3.54428 1.59101 0
M  V30 2620 H 267.95 4.53924 -0.821621 0
M  V30 2621 H 266.193 4.25573 -0.840837 0
M  V30 2622 H 266.864 5.51644 0.198317 0
M  V30 2623 H 269.34 3.94723 1.31655 0
M  V30 2624 H 268.216 5.04941 2.15234 0
M  V30 2625 H 268.477 3.43226 2.78654 0
M  V30 2626 N 267.536 -0.106894 1.57237 0
M  V30 2627 C 268.499 -1.11466 2.0027 0
M  V30 2628 C 269.499 -1.33623 0.894519 0
M  V30 2629 O 270.689 -1.29935 1.16028 0
M  V30 2630 C 267.821 -2.46646 2.35327 0
M  V30 2631 H 269.014 -0.744516 2.90512 0
M  V30 2632 H 266.567 -0.351576 1.52295 0
M  V30 2633 H 267.302 -2.88558 1.48003 0
M  V30 2634 H 267.087 -2.31915 3.16161 0
M  V30 2635 H 268.577 -3.19151 2.69318 0
M  V30 2636 N 269.014 -1.53014 -0.377408 0
M  V30 2637 C 270.26 -1.68872 -1.12294 0
M  V30 2638 C 270.593 -0.433224 -1.89306 0
M  V30 2639 O 269.868 0.569258 -1.85983 0
M  V30 2640 C 270.151 -2.93115 -2.09179 0
M  V30 2641 C 270.004 -4.28794 -1.35853 0
M  V30 2642 C 271.323 -3.12928 -3.09458 0
M  V30 2643 H 268.442 -0.614518 -0.406862 0
M  V30 2644 H 271.084 -1.85633 -0.40503 0
M  V30 2645 H 269.234 -2.78956 -2.70399 0
M  V30 2646 H 270.906 -4.54742 -0.775082 0
M  V30 2647 H 269.149 -4.28744 -0.660364 0
M  V30 2648 H 269.82 -5.11837 -2.06706 0
M  V30 2649 H 272.296 -3.26194 -2.58334 0
M  V30 2650 H 271.172 -4.01316 -3.74482 0
M  V30 2651 H 271.433 -2.27669 -3.78971 0
M  V30 2652 N 270.492 0.636531 -1.44174 0
M  V30 2653 C 271.422 1.76003 -1.53444 0
M  V30 2654 C 272.403 1.65619 -0.387841 0
M  V30 2655 O 273.588 1.84461 -0.607257 0
M  V30 2656 C 270.718 3.14511 -1.4731 0
M  V30 2657 C 269.672 3.39677 -2.60391 0
M  V30 2658 C 268.998 4.78159 -2.39308 0
M  V30 2659 C 270.298 3.32772 -4.02567 0
M  V30 2660 H 271.992 1.68501 -2.47483 0
M  V30 2661 H 269.538 0.809237 -1.19111 0
M  V30 2662 H 271.491 3.92878 -1.52397 0
M  V30 2663 H 270.215 3.22783 -0.49785 0
M  V30 2664 H 268.874 2.63688 -2.54684 0
M  V30 2665 H 268.522 4.83128 -1.39988 0
M  V30 2666 H 268.222 4.95956 -3.15122 0
M  V30 2667 H 269.746 5.58762 -2.46205 0
M  V30 2668 H 271.16 4.01051 -4.09672 0
M  V30 2669 H 269.557 3.62104 -4.7854 0
M  V30 2670 H 270.627 2.30669 -4.2652 0
M  V30 2671 N 271.97 1.30982 0.876444 0
M  V30 2672 C 273.195 1.23373 1.66715 0
M  V30 2673 C 273.62 -0.19885 1.87046 0
M  V30 2674 O 272.978 -1.1427 1.40756 0
M  V30 2675 C 273.026 1.97644 3.01611 0
M  V30 2676 O 272.13 1.30935 3.91062 0
M  V30 2677 H 271.471 0.426279 0.509099 0
M  V30 2678 H 274.001 1.72944 1.09323 0
M  V30 2679 H 274.011 2.06992 3.51594 0
M  V30 2680 H 272.686 3.01829 2.86133 0
M  V30 2681 H 271.263 1.29996 3.49507 0
M  V30 2682 N 273.449 -1.08991 1.13837 0
M  V30 2683 C 274.381 -2.15606 0.777612 0
M  V30 2684 C 275.394 -1.61533 -0.202739 0
M  V30 2685 O 276.583 -1.78491 0.0181055 0
M  V30 2686 C 273.683 -3.3864 0.132623 0
M  V30 2687 C 272.856 -4.22115 1.1462 0
M  V30 2688 C 271.915 -5.23564 0.526074 0
M  V30 2689 O 270.941 -5.56678 1.18735 0
M  V30 2690 N 272.143 -5.76266 -0.699866 0
M  V30 2691 H 274.908 -2.47159 1.69506 0
M  V30 2692 H 272.469 -1.24747 1.03198 0
M  V30 2693 H 274.461 -4.03626 -0.29459 0
M  V30 2694 H 273.031 -3.04938 -0.687849 0
M  V30 2695 H 272.251 -3.53199 1.75055 0
M  V30 2696 H 273.539 -4.74709 1.83109 0
M  V30 2697 H 272.937 -5.51585 -1.25581 0
M  V30 2698 H 271.494 -6.42963 -1.06968 0
M  V30 2699 N 274.927 -0.932562 -1.27047 0
M  V30 2700 C 275.875 -0.42603 -2.28665 0
M  V30 2701 C 276.869 0.49219 -1.62092 0
M  V30 2702 O 278.075 0.371355 -1.76128 0
M  V30 2703 H 274.45 -0.119213 -0.742491 0
M  V30 2704 H 276.421 -1.29579 -2.68797 0
M  V30 2705 C 275.17 0.301426 -3.46391 0
M  V30 2706 H 274.493 -0.39595 -3.97834 0
M  V30 2707 H 275.933 0.6202 -4.1944 0
M  V30 2708 C 274.392 1.51616 -3.00856 0
M  V30 2709 O 274.922 2.61476 -3.04948 0
M  V30 2710 N 273.128 1.36969 -2.56296 0
M  V30 2711 H 272.675 0.475873 -2.53166 0
M  V30 2712 H 272.633 2.18368 -2.26192 0
M  V30 2713 N 276.405 1.4127 -0.698611 0
M  V30 2714 C 277.821 1.55241 -0.370462 0
M  V30 2715 C 278.021 1.67351 1.12231 0
M  V30 2716 O 277.077 1.65363 1.90818 0
M  V30 2717 C 278.39 2.78997 -1.12165 0
M  V30 2718 C 279.938 2.92797 -1.1063 0
M  V30 2719 C 280.413 4.19445 -1.8393 0
M  V30 2720 N 281.904 4.26409 -1.80914 0
M  V30 2721 C 282.639 5.23271 -2.34467 0
M  V30 2722 N 282.135 6.26145 -2.96504 0
M  V30 2723 N 283.928 5.15232 -2.24706 0
M  V30 2724 H 276.079 1.31654 -1.66676 0
M  V30 2725 H 278.342 0.635393 -0.703548 0
M  V30 2726 H 278.048 2.76268 -2.17644 0
M  V30 2727 H 277.922 3.70606 -0.702209 0
M  V30 2728 H 280.309 2.95039 -0.0597713 0
M  V30 2729 H 280.39 2.02353 -1.56483 0
M  V30 2730 H 280.034 4.17964 -2.88563 0
M  V30 2731 H 279.964 5.08866 -1.35509 0
M  V30 2732 H 282.455 3.527 -1.35687 0
M  V30 2733 H 282.768 6.96451 -3.34927 0
M  V30 2734 H 281.113 6.26638 -3.00583 0
M  V30 2735 H 284.304 4.33789 -1.7591 0
M  V30 2736 H 284.477 5.90552 -2.66745 0
M  V30 2737 N 277.883 0.443576 1.51229 0
M  V30 2738 C 279.111 -0.11929 2.06556 0
M  V30 2739 C 279.526 -1.35921 1.31038 0
M  V30 2740 O 278.883 -1.78675 0.371704 0
M  V30 2741 C 278.934 -0.435228 3.5887 0
M  V30 2742 O 278.655 0.755486 4.31537 0
M  V30 2743 C 280.156 -1.04808 4.30732 0
M  V30 2744 H 277.376 -0.0051584 0.67098 0
M  V30 2745 H 279.92 0.624453 1.94733 0
M  V30 2746 H 278.075 -1.12887 3.70588 0
M  V30 2747 H 278.489 0.483491 5.22267 0
M  V30 2748 H 279.963 -1.2191 5.3837 0
M  V30 2749 H 280.44 -2.03081 3.89429 0
M  V30 2750 H 281.046 -0.393637 4.23474 0
M  V30 2751 N 279.361 -1.56624 0.175154 0
M  V30 2752 C 280.271 -2.21741 -0.766042 0
M  V30 2753 C 281.287 -1.21023 -1.25018 0
M  V30 2754 O 282.463 -1.53697 -1.3015 0
M  V30 2755 C 279.528 -2.84839 -1.97655 0
M  V30 2756 C 278.589 -4.00769 -1.53892 0
M  V30 2757 C 277.822 -4.60849 -2.69173 0
M  V30 2758 O 278.045 -4.19823 -3.86141 0
M  V30 2759 O 276.979 -5.50655 -2.43028 0
M  V30 2760 H 280.805 -3.02738 -0.241585 0
M  V30 2761 H 278.39 -1.49305 -0.053222 0
M  V30 2762 H 280.272 -3.24834 -2.68442 0
M  V30 2763 H 278.947 -2.06836 -2.48999 0
M  V30 2764 H 277.854 -3.65436 -0.80044 0
M  V30 2765 H 279.187 -4.80376 -1.07236 0
M  V30 2766 N 280.839 0.0985539 -1.57292 0
M  V30 2767 C 281.787 1.1387 -2.02821 0
M  V30 2768 C 282.781 1.41676 -0.928666 0
M  V30 2769 O 283.987 1.41398 -1.11385 0
M  V30 2770 H 280.362 0.384419 -0.646317 0
M  V30 2771 H 282.333 0.728347 -2.89375 0
M  V30 2772 C 281.082 2.45166 -2.46554 0
M  V30 2773 H 280.405 2.24613 -3.3074 0
M  V30 2774 H 281.845 3.16456 -2.8219 0
M  V30 2775 C 280.304 3.09216 -1.33742 0
M  V30 2776 O 280.834 3.96163 -0.66464 0
M  V30 2777 N 279.04 2.69413 -1.08928 0
M  V30 2778 H 278.587 1.98801 -1.63817 0
M  V30 2779 H 278.545 3.12594 -0.336458 0
M  V30 2780 N 282.317 1.53212 0.369288 0
M  V30 2781 C 283.28 1.7872 1.43498 0
M  V30 2782 C 284.28 0.657554 1.46741 0
M  V30 2783 O 285.47 0.925736 1.47566 0
M  V30 2784 C 282.602 1.90591 2.82645 0
M  V30 2785 H 283.795 2.73894 1.22156 0
M  V30 2786 H 281.348 1.44233 0.602203 0
M  V30 2787 H 282.083 0.974709 3.09306 0
M  V30 2788 H 281.868 2.72751 2.8169 0
M  V30 2789 H 283.358 2.11931 3.59826 0
M  V30 2790 N 283.795 -0.628877 1.44509 0
M  V30 2791 C 284.727 -1.754 1.47538 0
M  V30 2792 C 285.74 -1.58575 0.368506 0
M  V30 2793 O 286.929 -1.66847 0.634376 0
M  V30 2794 C 284.029 -3.1315 1.29577 0
M  V30 2795 C 283.202 -3.56413 2.53551 0
M  V30 2796 C 282.261 -4.7305 2.30457 0
M  V30 2797 O 281.287 -4.81247 3.03957 0
M  V30 2798 N 282.489 -5.64903 1.3366 0
M  V30 2799 H 285.254 -1.73272 2.44534 0
M  V30 2800 H 282.815 -0.813512 1.39977 0
M  V30 2801 H 284.807 -3.88902 1.11971 0
M  V30 2802 H 283.377 -3.09908 0.409371 0
M  V30 2803 H 282.597 -2.70847 2.86419 0
M  V30 2804 H 283.885 -3.82071 3.36005 0
M  V30 2805 H 283.283 -5.60975 0.729604 0
M  V30 2806 H 281.84 -6.40275 1.22032 0
M  V30 2807 N 285.273 -1.31445 -0.869486 0
M  V30 2808 C 286.22 -1.19135 -1.97675 0
M  V30 2809 C 287.19 -0.0770266 -1.65921 0
M  V30 2810 O 288.375 -0.249972 -1.89155 0
M  V30 2811 C 285.515 -0.905149 -3.33018 0
M  V30 2812 C 284.628 -2.10285 -3.77365 0
M  V30 2813 C 283.763 -1.75339 -5.01427 0
M  V30 2814 C 282.802 -2.91515 -5.38224 0
M  V30 2815 N 281.939 -2.56762 -6.53466 0
M  V30 2816 H 286.779 -2.13853 -2.07535 0
M  V30 2817 H 284.316 -1.06379 -1.01597 0
M  V30 2818 H 286.274 -0.719765 -4.10944 0
M  V30 2819 H 284.904 0.00519624 -3.228 0
M  V30 2820 H 283.956 -2.39899 -2.95216 0
M  V30 2821 H 285.268 -2.97237 -4.00564 0
M  V30 2822 H 284.422 -1.53266 -5.87022 0
M  V30 2823 H 283.161 -0.855801 -4.80133 0
M  V30 2824 H 282.166 -3.14237 -4.51149 0
M  V30 2825 H 283.391 -3.81985 -5.61484 0
M  V30 2826 H 281.337 -1.69526 -6.33717 0
M  V30 2827 H 281.254 -3.37243 -6.76612 0
M  V30 2828 H 282.522 -2.38083 -7.42251 0
M  V30 2829 N 286.751 1.08385 -1.14413 0
M  V30 2830 C 287.714 2.13486 -0.834048 0
M  V30 2831 C 288.714 1.59988 0.161418 0
M  V30 2832 O 289.904 1.74071 -0.0669575 0
M  V30 2833 C 287.036 3.4003 -0.243354 0
M  V30 2834 H 288.229 2.42425 -1.7655 0
M  V30 2835 H 285.782 1.24101 -0.950189 0
M  V30 2836 H 286.517 3.16726 0.696807 0
M  V30 2837 H 286.302 3.80157 -0.960367 0
M  V30 2838 H 287.792 4.17577 -0.0436242 0
M  V30 2839 N 288.23 0.939286 1.26551 0
M  V30 2840 C 289.478 0.58469 1.93457 0
M  V30 2841 C 289.799 -0.878774 1.74076 0
M  V30 2842 O 289.069 -1.62421 1.09528 0
M  V30 2843 H 287.649 0.21325 0.715914 0
M  V30 2844 H 290.311 1.1942 1.54029 0
M  V30 2845 H 289.407 0.800849 3.0165 0
M  V30 2846 N 289.708 -1.40897 0.706093 0
M  V30 2847 C 290.658 -2.27987 0.0240746 0
M  V30 2848 C 291.642 -1.42759 -0.742204 0
M  V30 2849 O 292.834 -1.65936 -0.615966 0
M  V30 2850 C 289.963 -3.31186 -0.903907 0
M  V30 2851 C 289.049 -4.2389 -0.133318 0
M  V30 2852 N 289.44 -4.98113 0.878444 0
M  V30 2853 C 287.738 -4.44485 -0.367269 0
M  V30 2854 C 288.439 -5.6604 1.34064 0
M  V30 2855 N 287.415 -5.39522 0.664565 0
M  V30 2856 H 291.217 -2.82812 0.799658 0
M  V30 2857 H 288.731 -1.53235 0.537845 0
M  V30 2858 H 290.728 -3.92413 -1.40775 0
M  V30 2859 H 289.388 -2.77922 -1.67897 0
M  V30 2860 H 290.399 -5.02364 1.25901 0
M  V30 2861 H 287.076 -4.02213 -1.1194 0
M  V30 2862 H 288.466 -6.35524 2.1808 0
M  V30 2863 N 291.186 -0.45159 -1.50991 0
M  V30 2864 C 292.433 0.110074 -2.02201 0
M  V30 2865 C 292.761 1.4146 -1.33489 0
M  V30 2866 O 292.016 1.90617 -0.443125 0
M  V30 2867 C 292.315 0.361728 -3.55565 0
M  V30 2868 C 291.981 -0.858717 -4.42648 0
M  V30 2869 C 290.643 -1.19338 -4.66167 0
M  V30 2870 C 292.995 -1.67221 -4.93646 0
M  V30 2871 C 290.323 -2.34195 -5.37931 0
M  V30 2872 C 292.675 -2.8119 -5.6667 0
M  V30 2873 C 291.339 -3.15094 -5.88449 0
M  V30 2874 H 290.609 0.040279 -0.739904 0
M  V30 2875 H 293.256 -0.601696 -1.81802 0
M  V30 2876 H 291.561 1.15554 -3.74372 0
M  V30 2877 H 293.258 0.80996 -3.92735 0
M  V30 2878 H 289.848 -0.58796 -4.24548 0
M  V30 2879 H 294.032 -1.42686 -4.75347 0
M  V30 2880 H 289.288 -2.6076 -5.53005 0
M  V30 2881 H 293.462 -3.44585 -6.05173 0
M  V30 2882 H 291.089 -4.04204 -6.43835 0
M  V30 2883 N 292.664 1.56529 -0.183458 0
M  V30 2884 C 293.941 1.88959 0.50536 0
M  V30 2885 C 294.321 1.09523 1.80466 0
M  V30 2886 O 293.669 0.19278 2.27685 0
M  V30 2887 C 293.879 3.41162 0.73547 0
M  V30 2888 C 295.227 4.11155 1.06005 0
M  V30 2889 O 296.251 3.46548 0.823594 0
M  V30 2890 O 295.11 5.25318 1.50675 0
M  V30 2891 H 292.204 0.78441 0.261973 0
M  V30 2892 H 294.75 1.68231 -0.222802 0
M  V30 2893 H 293.522 3.90874 -0.182561 0
M  V30 2894 H 293.145 3.67543 1.51651 0
M  V30 2895 N 294.142 -0.090211 1.57342 0
M  V30 2896 C 295.089 -1.10909 2.02405 0
M  V30 2897 C 296.059 -1.39523 0.901252 0
M  V30 2898 O 297.244 -1.50903 1.1676 0
M  V30 2899 C 294.384 -2.42277 2.45755 0
M  V30 2900 C 293.497 -2.20352 3.71576 0
M  V30 2901 C 292.632 -3.45154 4.03785 0
M  V30 2902 C 291.671 -3.18512 5.22701 0
M  V30 2903 N 290.808 -4.35593 5.50639 0
M  V30 2904 H 295.648 -0.71782 2.89225 0
M  V30 2905 H 293.185 -0.342901 1.43048 0
M  V30 2906 H 295.143 -3.18951 2.68935 0
M  V30 2907 H 293.773 -2.79242 1.61938 0
M  V30 2908 H 292.825 -1.34458 3.55844 0
M  V30 2909 H 294.137 -1.96661 4.58395 0
M  V30 2910 H 293.291 -4.30233 4.27767 0
M  V30 2911 H 292.03 -3.71904 3.15498 0
M  V30 2912 H 291.035 -2.31827 4.98534 0
M  V30 2913 H 292.26 -2.93103 6.12591 0
M  V30 2914 H 290.206 -4.6241 4.6531 0
M  V30 2915 H 290.123 -4.1511 6.31838 0
M  V30 2916 H 291.391 -5.21723 5.7916 0
M  V30 2917 N 295.62 -1.53406 -0.361157 0
M  V30 2918 C 296.53 -1.83122 -1.4664 0
M  V30 2919 C 297.546 -0.719943 -1.58407 0
M  V30 2920 O 298.722 -1.01046 -1.74218 0
M  V30 2921 C 295.787 -2.01891 -2.81853 0
M  V30 2922 C 294.848 -3.25784 -2.79577 0
M  V30 2923 C 294.081 -3.43648 -4.0834 0
M  V30 2924 O 294.304 -2.65714 -5.0473 0
M  V30 2925 O 293.238 -4.37018 -4.13883 0
M  V30 2926 H 297.064 -2.7703 -1.24451 0
M  V30 2927 H 294.649 -1.38841 -0.551678 0
M  V30 2928 H 296.531 -2.15782 -3.61962 0
M  V30 2929 H 295.206 -1.11173 -3.0401 0
M  V30 2930 H 294.113 -3.17312 -1.98151 0
M  V30 2931 H 295.446 -4.16439 -2.62373 0
M  V30 2932 N 297.098 0.621204 -1.44841 0
M  V30 2933 C 298.347 1.37658 -1.47422 0
M  V30 2934 C 298.66 1.95264 -0.114629 0
M  V30 2935 O 299.866 2.71494 -0.0180199 0
M  V30 2936 C 298.322 2.49285 -2.59586 0
M  V30 2937 C 297.93 1.98149 -4.01797 0
M  V30 2938 C 299.674 3.26409 -2.71399 0
M  V30 2939 C 297.581 3.07178 -5.05367 0
M  V30 2940 H 296.511 0.517344 -0.548517 0
M  V30 2941 H 299.162 0.667257 -1.70938 0
M  V30 2942 H 297.544 3.22839 -2.29328 0
M  V30 2943 H 298.718 1.31395 -4.41669 0
M  V30 2944 H 297.033 1.33812 -3.94314 0
M  V30 2945 H 299.63 4.07706 -3.45948 0
M  V30 2946 H 299.973 3.76535 -1.77559 0
M  V30 2947 H 300.506 2.5995 -3.01116 0
M  V30 2948 H 297.245 2.61985 -6.00869 0
M  V30 2949 H 296.765 3.72542 -4.70077 0
M  V30 2950 H 298.444 3.71789 -5.29511 0
M  V30 2951 N 298.576 1.31904 0.862503 0
M  V30 2952 C 299.822 1.22197 1.61851 0
M  V30 2953 C 300.155 -0.217641 1.92977 0
M  V30 2954 O 299.43 -1.15264 1.56666 0
M  V30 2955 C 299.713 2.07378 2.94391 0
M  V30 2956 C 299.566 3.59678 2.70096 0
M  V30 2957 C 300.885 1.92891 3.95577 0
M  V30 2958 H 298.004 0.445255 0.587296 0
M  V30 2959 H 300.646 1.6177 0.99651 0
M  V30 2960 H 298.796 1.73758 3.47477 0
M  V30 2961 H 300.468 4.03472 2.23625 0
M  V30 2962 H 298.711 3.82735 2.04197 0
M  V30 2963 H 299.382 4.14595 3.64438 0
M  V30 2964 H 301.858 2.22327 3.51724 0
M  V30 2965 H 300.734 2.54781 4.86187 0
M  V30 2966 H 300.995 0.894315 4.3296 0
M  V30 2967 N 300.054 -1.07777 1.14986 0
M  V30 2968 C 301.465 -1.61766 0.932127 0
M  V30 2969 C 301.816 -1.88974 -0.527581 0
M  V30 2970 O 300.941 -1.65198 -1.39781 0
M  V30 2971 C 301.536 -2.93891 1.68563 0
M  V30 2972 C 300.095 -3.44639 1.5133 0
M  V30 2973 C 299.242 -2.18767 1.704 0
M  V30 2974 H 302.193 -0.909201 1.30074 0
M  V30 2975 H 302.214 -3.62623 1.15259 0
M  V30 2976 H 301.726 -2.74057 2.74799 0
M  V30 2977 H 299.827 -3.69564 0.474702 0
M  V30 2978 H 299.94 -4.20966 2.28746 0
M  V30 2979 H 298.304 -2.28253 1.13016 0
M  V30 2980 H 299.087 -2.01433 2.77992 0
M  V30 2981 N 301.532 -0.945985 -1.26051 0
M  V30 2982 C 302.778 -0.597002 -1.93814 0
M  V30 2983 C 303.111 0.862484 -1.73997 0
M  V30 2984 O 302.386 1.61769 -1.07986 0
M  V30 2985 C 302.669 -0.945937 -3.47454 0
M  V30 2986 C 302.522 -2.46052 -3.76535 0
M  V30 2987 C 303.841 -0.464785 -4.37639 0
M  V30 2988 H 300.96 -0.218366 -0.703907 0
M  V30 2989 H 303.602 -1.18107 -1.48831 0
M  V30 2990 H 301.752 -0.448902 -3.85898 0
M  V30 2991 H 303.424 -3.03065 -3.47778 0
M  V30 2992 H 301.667 -2.90194 -3.22444 0
M  V30 2993 H 302.338 -2.65517 -4.83947 0
M  V30 2994 H 304.814 -0.891016 -4.06448 0
M  V30 2995 H 303.69 -0.737712 -5.4392 0
M  V30 2996 H 303.951 0.635274 -4.37512 0
M  V30 2997 N 303.011 1.40521 -0.713556 0
M  V30 2998 C 303.941 2.33381 -0.0743864 0
M  V30 2999 C 304.922 1.52784 0.747735 0
M  V30 3000 O 306.107 1.81258 0.697071 0
M  V30 3001 C 303.237 3.36748 0.849598 0
M  V30 3002 C 302.191 4.27793 0.133247 0
M  V30 3003 C 301.517 5.21679 1.17281 0
M  V30 3004 C 302.817 5.12415 -1.01134 0
M  V30 3005 H 304.511 2.87081 -0.850007 0
M  V30 3006 H 302.057 1.38034 -0.410201 0
M  V30 3007 H 304.01 4.00648 1.30612 0
M  V30 3008 H 302.734 2.81439 1.65709 0
M  V30 3009 H 301.393 3.65342 -0.303426 0
M  V30 3010 H 301.041 4.62677 1.9733 0
M  V30 3011 H 300.741 5.83435 0.698397 0
M  V30 3012 H 302.265 5.88456 1.62947 0
M  V30 3013 H 303.679 5.69781 -0.634274 0
M  V30 3014 H 302.076 5.83203 -1.41399 0
M  V30 3015 H 303.146 4.48514 -1.84292 0
M  V30 3016 N 304.489 0.459591 1.5075 0
M  V30 3017 C 305.735 -0.0994966 2.02556 0
M  V30 3018 C 306.068 -1.40399 1.3417 0
M  V30 3019 O 305.343 -1.88892 0.463683 0
M  V30 3020 C 305.626 -0.295242 3.58888 0
M  V30 3021 C 305.479 1.02947 4.37861 0
M  V30 3022 C 306.798 -1.05502 4.27267 0
M  V30 3023 H 303.917 -0.034686 0.736183 0
M  V30 3024 H 306.559 0.602938 1.8018 0
M  V30 3025 H 304.709 -0.893563 3.78084 0
M  V30 3026 H 306.381 1.66348 4.30263 0
M  V30 3027 H 304.624 1.62885 4.02058 0
M  V30 3028 H 305.295 0.846281 5.45474 0
M  V30 3029 H 307.771 -0.547993 4.12476 0
M  V30 3030 H 306.647 -1.16077 5.36486 0
M  V30 3031 H 306.908 -2.08875 3.89645 0
M  V30 3032 N 305.967 -1.56429 0.191757 0
M  V30 3033 C 307.192 -2.02309 -0.456706 0
M  V30 3034 C 307.617 -1.07103 -1.5463 0
M  V30 3035 O 306.975 -0.0539677 -1.8122 0
M  V30 3036 C 307.023 -3.46654 -0.993159 0
M  V30 3037 O 306.127 -3.54559 -2.10622 0
M  V30 3038 H 305.468 -0.655303 -0.107114 0
M  V30 3039 H 307.998 -2.02364 0.301653 0
M  V30 3040 H 308.008 -3.86377 -1.31061 0
M  V30 3041 H 306.683 -4.1544 -0.195504 0
M  V30 3042 H 305.26 -3.26708 -1.79767 0
M  V30 3043 N 307.445 0.0818655 -1.57387 0
M  V30 3044 C 308.673 0.796108 -1.9097 0
M  V30 3045 C 309.088 1.71626 -0.786757 0
M  V30 3046 O 308.445 1.80908 0.240513 0
M  V30 3047 C 308.496 1.59829 -3.24248 0
M  V30 3048 O 308.217 0.715131 -4.32224 0
M  V30 3049 C 309.718 2.41442 -3.7178 0
M  V30 3050 H 306.938 0.22691 -0.631469 0
M  V30 3051 H 309.482 0.0551439 -2.04426 0
M  V30 3052 H 307.637 2.29163 -3.12351 0
M  V30 3053 H 308.051 1.27205 -5.08841 0
M  V30 3054 H 309.525 2.932 -4.67694 0
M  V30 3055 H 310.002 3.2051 -3.00283 0
M  V30 3056 H 310.608 1.77283 -3.86589 0
M  V30 3057 N 308.923 1.53595 0.353017 0
M  V30 3058 C 310.339 1.43648 0.695516 0
M  V30 3059 C 310.539 0.585617 1.92802 0
M  V30 3060 O 309.595 0.0729223 2.52395 0
M  V30 3061 C 310.908 2.8701 0.896991 0
M  V30 3062 C 312.456 2.96723 0.996209 0
M  V30 3063 C 312.931 4.41173 1.23007 0
M  V30 3064 N 314.422 4.44657 1.29749 0
M  V30 3065 C 315.157 5.53547 1.49577 0
M  V30 3066 N 314.653 6.72461 1.66639 0
M  V30 3067 N 316.446 5.41145 1.52048 0
M  V30 3068 H 308.597 2.07415 -0.457481 0
M  V30 3069 H 310.86 0.9372 -0.142687 0
M  V30 3070 H 310.566 3.51644 0.0629938 0
M  V30 3071 H 310.44 3.31401 1.80148 0
M  V30 3072 H 312.827 2.32235 1.82074 0
M  V30 3073 H 312.908 2.55707 0.0688331 0
M  V30 3074 H 312.552 5.06238 0.410505 0
M  V30 3075 H 312.482 4.79772 2.17086 0
M  V30 3076 H 314.973 3.58963 1.18126 0
M  V30 3077 H 315.286 7.51214 1.81378 0
M  V30 3078 H 313.631 6.75423 1.63794 0
M  V30 3079 H 316.822 4.47205 1.38294 0
M  V30 3080 H 316.995 6.26068 1.67159 0
M  V30 3081 N 310.401 -0.613514 1.45168 0
M  V30 3082 C 311.348 -1.72456 1.53387 0
M  V30 3083 C 312.318 -1.6169 0.380191 0
M  V30 3084 O 313.503 -1.81356 0.592836 0
M  V30 3085 C 310.643 -3.10753 1.50088 0
M  V30 3086 C 309.756 -3.32368 2.75963 0
M  V30 3087 C 308.891 -4.60737 2.64376 0
M  V30 3088 C 307.93 -4.7559 3.85332 0
M  V30 3089 N 307.067 -5.95253 3.72315 0
M  V30 3090 H 311.907 -1.64768 2.48305 0
M  V30 3091 H 309.444 -0.803503 1.23216 0
M  V30 3092 H 311.402 -3.90758 1.46164 0
M  V30 3093 H 310.032 -3.17413 0.587243 0
M  V30 3094 H 309.084 -2.4618 2.89999 0
M  V30 3095 H 310.396 -3.39218 3.65695 0
M  V30 3096 H 309.55 -5.48928 2.58385 0
M  V30 3097 H 308.289 -4.56275 1.72233 0
M  V30 3098 H 307.294 -3.85824 3.91688 0
M  V30 3099 H 308.519 -4.81854 4.78533 0
M  V30 3100 H 306.465 -5.91847 2.82937 0
M  V30 3101 H 306.382 -6.03236 4.55677 0
M  V30 3102 H 307.65 -6.85958 3.70246 0
M  V30 3103 N 311.879 -1.3236 -0.855495 0
M  V30 3104 C 313.127 -1.22629 -1.60644 0
M  V30 3105 C 313.448 0.212136 -1.93843 0
M  V30 3106 O 312.718 1.13666 -1.59552 0
M  V30 3107 H 311.298 -0.450882 -0.595579 0
M  V30 3108 H 313.96 -1.65871 -1.02337 0
M  V30 3109 H 313.056 -1.80832 -2.54374 0
M  V30 3110 N 313.357 1.07166 -1.15556 0
M  V30 3111 C 314.287 2.16403 -0.877046 0
M  V30 3112 C 315.268 1.69217 0.173111 0
M  V30 3113 O 316.453 1.94181 0.027084 0
M  V30 3114 C 313.583 3.45349 -0.367632 0
M  V30 3115 C 312.537 4.05995 -1.35468 0
M  V30 3116 C 311.863 5.30045 -0.704038 0
M  V30 3117 C 313.163 4.45804 -2.72132 0
M  V30 3118 H 314.857 2.39959 -1.79053 0
M  V30 3119 H 312.403 1.15325 -0.862331 0
M  V30 3120 H 314.356 4.21095 -0.160317 0
M  V30 3121 H 313.08 3.21385 0.581326 0
M  V30 3122 H 311.739 3.32296 -1.54839 0
M  V30 3123 H 311.387 5.02373 0.251128 0
M  V30 3124 H 311.087 5.71579 -1.36277 0
M  V30 3125 H 312.611 6.08495 -0.50654 0
M  V30 3126 H 314.025 5.12671 -2.56595 0
M  V30 3127 H 312.422 4.98296 -3.34397 0
M  V30 3128 H 313.492 3.57083 -3.28054 0
M  V30 3129 N 314.835 0.952656 1.25548 0
M  V30 3130 C 316.084 0.602053 1.92505 0
M  V30 3131 C 316.397 -0.864663 1.75451 0
M  V30 3132 O 317.603 -1.32514 2.36965 0
M  V30 3133 C 316.059 1.02607 3.44963 0
M  V30 3134 C 315.667 2.51519 3.70732 0
M  V30 3135 C 317.411 0.747905 4.1786 0
M  V30 3136 C 315.318 2.87732 5.16686 0
M  V30 3137 H 314.248 0.22146 0.720744 0
M  V30 3138 H 316.899 1.15684 1.42441 0
M  V30 3139 H 315.281 0.399712 3.93978 0
M  V30 3140 H 316.455 3.19157 3.32378 0
M  V30 3141 H 314.77 2.76786 3.11092 0
M  V30 3142 H 317.367 0.994647 5.25367 0
M  V30 3143 H 317.71 -0.315629 4.15102 0
M  V30 3144 H 318.243 1.33452 3.74747 0
M  V30 3145 H 314.982 3.93095 5.24554 0
M  V30 3146 H 314.502 2.24765 5.56094 0
M  V30 3147 H 316.181 2.76817 5.84792 0
M  V30 3148 N 316.313 -1.40141 0.720998 0
M  V30 3149 C 317.223 -2.34486 0.0731031 0
M  V30 3150 C 318.239 -1.57587 -0.737723 0
M  V30 3151 O 319.415 -1.89949 -0.669429 0
M  V30 3152 C 316.48 -3.36528 -0.833656 0
M  V30 3153 C 315.541 -4.29298 -0.0121673 0
M  V30 3154 C 314.774 -5.26466 -0.875742 0
M  V30 3155 O 314.997 -5.29745 -2.11485 0
M  V30 3156 O 313.931 -6.01092 -0.31185 0
M  V30 3157 H 317.757 -2.9152 0.851444 0
M  V30 3158 H 315.342 -1.41427 0.481527 0
M  V30 3159 H 317.224 -3.99093 -1.35289 0
M  V30 3160 H 315.899 -2.81899 -1.59105 0
M  V30 3161 H 314.806 -3.70001 0.552262 0
M  V30 3162 H 316.139 -4.87094 0.707129 0
M  V30 3163 N 317.792 -0.46758 -1.50504 0
M  V30 3164 C 319.038 0.0887532 -2.02606 0
M  V30 3165 C 319.371 1.39686 -1.34913 0
M  V30 3166 O 318.646 1.88644 -0.473694 0
M  V30 3167 C 318.929 0.276206 -3.59039 0
M  V30 3168 C 318.782 -1.05267 -4.37309 0
M  V30 3169 C 320.101 1.03235 -4.27821 0
M  V30 3170 H 317.22 0.0307814 -0.736357 0
M  V30 3171 H 319.862 -0.612485 -1.79857 0
M  V30 3172 H 318.012 0.8735 -3.78553 0
M  V30 3173 H 319.684 -1.68628 -4.29374 0
M  V30 3174 H 317.927 -1.65015 -4.01189 0
M  V30 3175 H 318.598 -0.875197 -5.45018 0
M  V30 3176 H 321.074 0.526111 -4.12761 0
M  V30 3177 H 319.95 1.1323 -5.37094 0
M  V30 3178 H 320.211 2.06806 -3.90748 0
M  V30 3179 N 319.27 1.56325 -0.20005 0
M  V30 3180 C 320.217 2.1932 0.718833 0
M  V30 3181 C 321.187 1.14198 1.20615 0
M  V30 3182 O 322.372 1.42469 1.26914 0
M  V30 3183 C 319.512 2.86041 1.93066 0
M  V30 3184 C 318.625 4.05702 1.48425 0
M  V30 3185 C 317.76 4.60266 2.65196 0
M  V30 3186 C 316.799 5.72273 2.17185 0
M  V30 3187 N 315.936 6.21221 3.27152 0
M  V30 3188 H 320.776 2.97486 0.17489 0
M  V30 3189 H 318.313 1.46911 0.0745794 0
M  V30 3190 H 320.271 3.22897 2.64184 0
M  V30 3191 H 318.901 2.1043 2.44783 0
M  V30 3192 H 317.953 3.74475 0.668755 0
M  V30 3193 H 319.265 4.86699 1.09204 0
M  V30 3194 H 318.419 4.99453 3.4443 0
M  V30 3195 H 317.158 3.78386 3.07693 0
M  V30 3196 H 316.163 5.3261 1.36407 0
M  V30 3197 H 317.388 6.55974 1.75713 0
M  V30 3198 H 315.334 5.42263 3.69171 0
M  V30 3199 H 315.251 6.97284 2.92116 0
M  V30 3200 H 316.519 6.65063 4.06585 0
M  V30 3201 N 320.748 -0.0735177 1.57428 0
M  V30 3202 C 321.976 -0.785969 1.9139 0
M  V30 3203 C 322.391 -1.71207 0.795847 0
M  V30 3204 O 321.748 -1.81033 -0.230915 0
M  V30 3205 C 321.799 -1.58107 3.25091 0
M  V30 3206 O 321.52 -0.6922 4.32597 0
M  V30 3207 C 323.021 -2.39467 3.73055 0
M  V30 3208 H 320.241 -0.223558 0.632663 0
M  V30 3209 H 322.785 -0.044302 2.04452 0
M  V30 3210 H 320.94 -2.27503 3.13562 0
M  V30 3211 H 321.354 -1.24504 5.09508 0
M  V30 3212 H 322.828 -2.90716 4.69242 0
M  V30 3213 H 323.305 -3.18913 3.01979 0
M  V30 3214 H 323.911 -1.7523 3.87523 0
M  V30 3215 N 322.226 -1.5378 -0.344866 0
M  V30 3216 C 323.503 -1.61589 -1.10219 0
M  V30 3217 C 323.883 -0.436316 -2.06542 0
M  V30 3218 O 323.231 0.571543 -2.21237 0
M  V30 3219 C 323.441 -2.97602 -1.82301 0
M  V30 3220 C 324.789 -3.5291 -2.36093 0
M  V30 3221 O 325.813 -2.99768 -1.924 0
M  V30 3222 O 324.672 -4.45859 -3.16026 0
M  V30 3223 H 321.766 -0.653522 -0.506792 0
M  V30 3224 H 324.312 -1.66126 -0.346465 0
M  V30 3225 H 323.084 -3.74893 -1.12121 0
M  V30 3226 H 322.707 -2.9665 -2.64735 0
M  V30 3227 N 323.704 0.605807 -1.45491 0
M  V30 3228 C 324.614 1.74466 -1.56839 0
M  V30 3229 C 325.63 1.68006 -0.452772 0
M  V30 3230 O 326.806 1.8833 -0.713708 0
M  V30 3231 C 323.871 3.10931 -1.53371 0
M  V30 3232 C 322.932 3.28832 -2.75986 0
M  V30 3233 C 322.165 4.58787 -2.72673 0
M  V30 3234 O 322.388 5.4122 -1.80102 0
M  V30 3235 O 321.322 4.79438 -3.63899 0
M  V30 3236 H 325.148 1.67843 -2.53106 0
M  V30 3237 H 322.733 0.770108 -1.28022 0
M  V30 3238 H 324.615 3.92233 -1.54051 0
M  V30 3239 H 323.29 3.18042 -0.602572 0
M  V30 3240 H 322.197 2.47112 -2.80867 0
M  V30 3241 H 323.53 3.26599 -3.68231 0
M  V30 3242 N 325.182 1.32811 0.848464 0
M  V30 3243 C 326.429 1.23724 1.60308 0
M  V30 3244 C 326.757 -0.1994 1.93475 0
M  V30 3245 O 326.012 -1.15406 1.5805 0
M  V30 3246 C 326.311 2.04831 2.92881 0
M  V30 3247 C 325.977 3.54125 2.79117 0
M  V30 3248 C 324.639 3.94829 2.7507 0
M  V30 3249 C 326.991 4.49036 2.64606 0
M  V30 3250 C 324.319 5.28675 2.544 0
M  V30 3251 C 326.671 5.83033 2.4547 0
M  V30 3252 C 325.335 6.22931 2.39819 0
M  V30 3253 H 324.605 0.452737 0.586609 0
M  V30 3254 H 327.252 1.64301 0.983743 0
M  V30 3255 H 325.557 1.57001 3.58968 0
M  V30 3256 H 327.254 1.95164 3.50303 0
M  V30 3257 H 323.844 3.21801 2.83094 0
M  V30 3258 H 328.028 4.18505 2.66772 0
M  V30 3259 H 323.284 5.58637 2.48465 0
M  V30 3260 H 327.458 6.56186 2.33222 0
M  V30 3261 H 325.085 7.26584 2.23562 0
M  V30 3262 N 326.66 -1.06551 1.16123 0
M  V30 3263 C 328.071 -1.60768 0.949232 0
M  V30 3264 C 328.422 -1.89523 -0.507508 0
M  V30 3265 O 327.547 -1.66671 -1.38021 0
M  V30 3266 C 328.142 -2.92086 1.71671 0
M  V30 3267 C 326.701 -3.43015 1.54977 0
M  V30 3268 C 325.848 -2.16947 1.72711 0
M  V30 3269 H 328.799 -0.895354 1.31031 0
M  V30 3270 H 328.82 -3.6138 1.19099 0
M  V30 3271 H 328.332 -2.71127 2.7769 0
M  V30 3272 H 326.433 -3.69039 0.513873 0
M  V30 3273 H 326.546 -4.18516 2.33198 0
M  V30 3274 H 324.91 -2.27041 1.15431 0
M  V30 3275 H 325.693 -1.98473 2.80113 0
M  V30 3276 N 328.138 -0.959301 -1.25041 0
M  V30 3277 C 329.554 -0.664474 -1.4511 0
M  V30 3278 C 329.754 0.776481 -1.85938 0
M  V30 3279 O 328.81 1.55128 -1.99227 0
M  V30 3280 C 330.123 -1.64139 -2.5195 0
M  V30 3281 C 331.671 -1.65309 -2.65786 0
M  V30 3282 C 332.146 -2.61777 -3.75815 0
M  V30 3283 N 333.637 -2.60169 -3.83231 0
M  V30 3284 C 334.372 -3.31489 -4.6787 0
M  V30 3285 N 333.868 -4.12298 -5.56761 0
M  V30 3286 N 335.661 -3.20354 -4.61876 0
M  V30 3287 H 327.812 -1.89043 -0.968332 0
M  V30 3288 H 330.075 -0.813408 -0.4869 0
M  V30 3289 H 329.781 -2.67086 -2.28819 0
M  V30 3290 H 329.655 -1.40756 -3.49954 0
M  V30 3291 H 332.042 -0.630778 -2.8828 0
M  V30 3292 H 332.123 -1.92753 -1.68167 0
M  V30 3293 H 331.767 -3.64137 -3.54071 0
M  V30 3294 H 331.697 -2.31616 -4.72929 0
M  V30 3295 H 334.188 -2.01507 -3.19692 0
M  V30 3296 H 334.501 -4.63625 -6.18281 0
M  V30 3297 H 332.846 -4.16395 -5.56454 0
M  V30 3298 H 336.037 -2.56692 -3.91442 0
M  V30 3299 H 336.21 -3.76201 -5.27614 0
M  V30 3300 N 329.616 1.39756 -0.72842 0
M  V30 3301 C 330.566 2.2792 -0.0603424 0
M  V30 3302 C 331.55 1.43922 0.719399 0
M  V30 3303 O 332.742 1.66895 0.589489 0
M  V30 3304 C 329.871 3.32582 0.851104 0
M  V30 3305 C 328.957 4.24049 0.0658641 0
M  V30 3306 N 329.348 4.96653 -0.957578 0
M  V30 3307 C 327.646 4.45013 0.296509 0
M  V30 3308 C 328.347 5.63836 -1.43052 0
M  V30 3309 N 327.323 5.38397 -0.750315 0
M  V30 3310 H 331.125 2.81504 -0.84455 0
M  V30 3311 H 328.639 1.5236 -0.562155 0
M  V30 3312 H 330.636 3.94603 1.34514 0
M  V30 3313 H 329.296 2.80558 1.63454 0
M  V30 3314 H 330.307 5.00297 -1.33877 0
M  V30 3315 H 326.984 4.03943 1.05527 0
M  V30 3316 H 328.374 6.31974 -2.28163 0
M  V30 3317 N 331.094 0.475555 1.50254 0
M  V30 3318 C 332.342 -0.077738 2.0195 0
M  V30 3319 C 332.663 -1.39813 1.35931 0
M  V30 3320 O 331.933 -1.89249 0.506123 0
M  V30 3321 H 330.513 -0.031719 0.746326 0
M  V30 3322 H 333.175 0.626995 1.84539 0
M  V30 3323 H 332.271 -0.225995 3.11281 0
M  V30 3324 N 332.573 -1.56217 0.208337 0
M  V30 3325 C 333.798 -2.02782 -0.435222 0
M  V30 3326 C 334.223 -1.08738 -1.53485 0
M  V30 3327 O 333.581 -0.0731855 -1.81152 0
M  V30 3328 C 333.629 -3.47687 -0.956335 0
M  V30 3329 O 332.733 -3.56773 -2.06849 0
M  V30 3330 H 332.074 -0.656403 -0.100158 0
M  V30 3331 H 334.604 -2.02033 0.3231 0
M  V30 3332 H 334.614 -3.87745 -1.26955 0
M  V30 3333 H 333.289 -4.15624 -0.15143 0
M  V30 3334 H 331.866 -3.28597 -1.76292 0
M  V30 3335 N 334.051 0.0651679 -1.57465 0
M  V30 3336 C 334.999 1.09542 -2.05191 0
M  V30 3337 C 335.993 1.39675 -0.958509 0
M  V30 3338 O 337.199 1.39003 -1.14359 0
M  V30 3339 H 333.574 0.370623 -0.654326 0
M  V30 3340 H 335.545 0.666802 -2.90854 0
M  V30 3341 C 334.294 2.39881 -2.51699 0
M  V30 3342 H 333.617 2.17547 -3.3543 0
M  V30 3343 H 335.057 3.104 -2.88839 0
M  V30 3344 C 333.516 3.0631 -1.40271 0
M  V30 3345 O 334.046 3.94664 -0.748523 0
M  V30 3346 N 332.252 2.67041 -1.14618 0
M  V30 3347 H 331.799 1.95281 -1.67997 0
M  V30 3348 H 331.757 3.1181 -0.402688 0
M  V30 3349 N 335.529 1.53961 0.336706 0
M  V30 3350 C 336.778 1.70751 1.07363 0
M  V30 3351 C 337.091 0.481061 1.89592 0
M  V30 3352 O 338.297 0.530046 2.66276 0
M  V30 3353 C 336.753 3.01965 1.95818 0
M  V30 3354 C 336.361 4.31971 1.18764 0
M  V30 3355 C 338.105 3.28121 2.69327 0
M  V30 3356 C 336.012 5.54255 2.06289 0
M  V30 3357 H 334.942 0.636292 0.404535 0
M  V30 3358 H 337.593 1.80459 0.332681 0
M  V30 3359 H 335.975 2.86132 2.7376 0
M  V30 3360 H 337.149 4.5853 0.456849 0
M  V30 3361 H 335.464 4.12481 0.569946 0
M  V30 3362 H 338.061 4.16673 3.35094 0
M  V30 3363 H 338.404 2.45426 3.36261 0
M  V30 3364 H 338.937 3.44762 1.98454 0
M  V30 3365 H 335.676 6.39513 1.43885 0
M  V30 3366 H 335.196 5.31935 2.77138 0
M  V30 3367 H 336.875 5.90159 2.65182 0
M  V30 3368 N 337.007 -0.598083 1.45811 0
M  V30 3369 C 337.917 -1.73632 1.57763 0
M  V30 3370 C 338.933 -1.67763 0.461676 0
M  V30 3371 O 340.109 -1.87949 0.723685 0
M  V30 3372 C 337.174 -3.10114 1.55018 0
M  V30 3373 C 336.235 -3.27364 2.77726 0
M  V30 3374 C 335.468 -4.57334 2.75102 0
M  V30 3375 O 335.691 -5.40258 1.8297 0
M  V30 3376 O 334.625 -4.77502 3.66437 0
M  V30 3377 H 338.451 -1.66498 2.53992 0
M  V30 3378 H 336.036 -0.763308 1.28429 0
M  V30 3379 H 337.918 -3.9141 1.56129 0
M  V30 3380 H 336.593 -3.17718 0.619431 0
M  V30 3381 H 335.5 -2.45619 2.82174 0
M  V30 3382 H 336.833 -3.24641 3.69958 0
M  V30 3383 N 338.485 -1.33259 -0.841409 0
M  V30 3384 C 339.448 -1.23221 -1.9326 0
M  V30 3385 C 340.448 -0.151895 -1.60081 0
M  V30 3386 O 341.638 -0.403246 -1.69468 0
M  V30 3387 C 338.77 -0.898123 -3.28856 0
M  V30 3388 H 339.963 -2.2021 -2.03587 0
M  V30 3389 H 337.516 -1.17281 -1.03319 0
M  V30 3390 H 338.251 0.0693841 -3.24226 0
M  V30 3391 H 338.036 -1.67934 -3.54317 0
M  V30 3392 H 339.526 -0.852563 -4.08805 0
M  V30 3393 N 339.963 1.05934 -1.16686 0
M  V30 3394 C 340.896 2.1295 -0.820225 0
M  V30 3395 C 341.874 1.61242 0.209722 0
M  V30 3396 O 343.058 1.88271 0.0929688 0
M  V30 3397 C 340.185 3.3797 -0.22223 0
M  V30 3398 C 339.231 4.08488 -1.22637 0
M  V30 3399 S 340.064 4.58015 -2.77457 0
M  V30 3400 C 341.22 5.86292 -2.19117 0
M  V30 3401 H 341.453 2.42025 -1.72659 0
M  V30 3402 H 338.986 1.18423 -0.990722 0
M  V30 3403 H 340.944 4.10335 0.116322 0
M  V30 3404 H 339.605 3.07045 0.66196 0
M  V30 3405 H 338.798 4.98291 -0.756455 0
M  V30 3406 H 338.4 3.42154 -1.51019 0
M  V30 3407 H 340.692 6.59246 -1.56209 0
M  V30 3408 H 341.635 6.38019 -3.07144 0
M  V30 3409 H 342.043 5.40497 -1.62858 0
M  V30 3410 N 341.441 0.965919 1.2453 0
M  V30 3411 C 342.666 0.643971 1.97149 0
M  V30 3412 C 343.091 -0.779487 1.71189 0
M  V30 3413 O 342.449 -1.5288 0.974553 0
M  V30 3414 C 342.497 0.922557 3.48599 0
M  V30 3415 O 341.601 0.00707672 4.12399 0
M  V30 3416 H 340.942 0.243647 0.617683 0
M  V30 3417 H 343.472 1.29558 1.58353 0
M  V30 3418 H 343.482 0.853373 3.98976 0
M  V30 3419 H 342.157 1.95996 3.66822 0
M  V30 3420 H 340.734 0.12943 3.72675 0
M  V30 3421 N 342.919 -1.39368 0.735821 0
M  V30 3422 C 343.866 -2.30599 0.0963825 0
M  V30 3423 C 344.836 -1.49257 -0.728794 0
M  V30 3424 O 346.021 -1.77941 -0.688588 0
M  V30 3425 C 343.161 -3.35596 -0.804305 0
M  V30 3426 C 342.274 -4.31987 0.0335761 0
M  V30 3427 C 341.409 -5.24053 -0.868461 0
M  V30 3428 C 340.448 -6.12095 -0.0258776 0
M  V30 3429 N 339.585 -6.96514 -0.883893 0
M  V30 3430 H 344.425 -2.8471 0.880002 0
M  V30 3431 H 341.962 -1.40188 0.445619 0
M  V30 3432 H 343.92 -3.95062 -1.34096 0
M  V30 3433 H 342.55 -2.82938 -1.55389 0
M  V30 3434 H 341.602 -3.74133 0.68766 0
M  V30 3435 H 342.914 -4.94074 0.685036 0
M  V30 3436 H 342.068 -5.88549 -1.47293 0
M  V30 3437 H 340.807 -4.62289 -1.5537 0
M  V30 3438 H 339.812 -5.4661 0.591386 0
M  V30 3439 H 341.037 -6.75923 0.656156 0
M  V30 3440 H 338.983 -6.37318 -1.55441 0
M  V30 3441 H 338.9 -7.55448 -0.288931 0
M  V30 3442 H 340.168 -7.65439 -1.4739 0
M  V30 3443 N 344.397 -0.483516 -1.5 0
M  V30 3444 C 345.327 0.293829 -2.31644 0
M  V30 3445 C 346.308 0.978864 -1.39112 0
M  V30 3446 O 347.493 0.973644 -1.68029 0
M  V30 3447 C 344.623 1.36897 -3.19181 0
M  V30 3448 C 343.577 0.804833 -4.20365 0
M  V30 3449 C 342.903 1.9792 -4.96721 0
M  V30 3450 C 344.203 -0.192313 -5.21946 0
M  V30 3451 H 345.897 -0.387616 -2.9688 0
M  V30 3452 H 343.443 -0.187856 -1.42769 0
M  V30 3453 H 345.396 1.92037 -3.751 0
M  V30 3454 H 344.12 2.07936 -2.51853 0
M  V30 3455 H 342.779 0.275319 -3.65565 0
M  V30 3456 H 342.427 2.67686 -4.25856 0
M  V30 3457 H 342.127 1.60789 -5.65173 0
M  V30 3458 H 343.651 2.53526 -5.55479 0
M  V30 3459 H 345.065 0.270333 -5.72662 0
M  V30 3460 H 343.462 -0.478543 -5.98189 0
M  V30 3461 H 344.532 -1.11409 -4.71928 0
M  V30 3462 N 345.875 1.56104 -0.216619 0
M  V30 3463 C 346.822 2.2007 0.695531 0
M  V30 3464 C 347.792 1.15471 1.19397 0
M  V30 3465 O 348.977 1.43807 1.25396 0
M  V30 3466 C 346.117 2.88073 1.90021 0
M  V30 3467 C 345.23 4.07253 1.44113 0
M  V30 3468 C 344.365 4.63052 2.603 0
M  V30 3469 C 343.404 5.74545 2.11103 0
M  V30 3470 N 342.541 6.24656 3.20545 0
M  V30 3471 H 347.381 2.97655 0.143327 0
M  V30 3472 H 344.918 1.46982 0.0589934 0
M  V30 3473 H 346.876 3.25681 2.60745 0
M  V30 3474 H 345.506 2.13015 2.42538 0
M  V30 3475 H 344.558 3.75164 0.628999 0
M  V30 3476 H 345.87 4.8783 1.04036 0
M  V30 3477 H 345.024 5.03078 3.39113 0
M  V30 3478 H 343.763 3.81628 3.03663 0
M  V30 3479 H 342.768 5.34027 1.3075 0
M  V30 3480 H 343.993 6.57801 1.68746 0
M  V30 3481 H 341.939 5.46148 3.63399 0
M  V30 3482 H 341.856 7.00343 2.84704 0
M  V30 3483 H 343.124 6.69338 3.99508 0
M  V30 3484 N 347.353 -0.0568162 1.57498 0
M  V30 3485 C 348.764 -0.606858 1.76562 0
M  V30 3486 C 349.115 -1.77114 0.844094 0
M  V30 3487 O 348.24 -2.16376 0.0318911 0
M  V30 3488 C 348.835 -1.10766 3.20182 0
M  V30 3489 C 347.394 -1.60344 3.40539 0
M  V30 3490 C 346.541 -0.529311 2.72201 0
M  V30 3491 H 349.492 0.169393 1.57793 0
M  V30 3492 H 349.513 -1.97602 3.25167 0
M  V30 3493 H 349.025 -0.26006 3.87228 0
M  V30 3494 H 347.126 -2.47379 2.78629 0
M  V30 3495 H 347.239 -1.67006 4.4905 0
M  V30 3496 H 345.603 -0.977893 2.35179 0
M  V30 3497 H 346.386 0.308352 3.41912 0
M  V30 3498 N 348.832 -1.54138 -0.328536 0
M  V30 3499 C 350.062 -1.75807 -1.08516 0
M  V30 3500 C 350.47 -0.50428 -1.82356 0
M  V30 3501 O 349.813 0.534451 -1.75754 0
M  V30 3502 C 349.875 -2.89423 -2.13248 0
M  V30 3503 C 349.539 -4.28504 -1.5885 0
M  V30 3504 C 350.536 -5.09536 -1.03289 0
M  V30 3505 C 348.221 -4.75034 -1.63243 0
M  V30 3506 C 350.215 -6.35206 -0.52845 0
M  V30 3507 C 347.902 -6.00672 -1.12411 0
M  V30 3508 C 348.9 -6.80592 -0.573062 0
M  V30 3509 O 348.588 -8.03867 -0.0723692 0
M  V30 3510 H 348.32 -0.590633 -0.328829 0
M  V30 3511 H 350.874 -2.01819 -0.381868 0
M  V30 3512 H 349.104 -2.5897 -2.87178 0
M  V30 3513 H 350.793 -2.98921 -2.74592 0
M  V30 3514 H 351.559 -4.74745 -0.99206 0
M  V30 3515 H 347.438 -4.12875 -2.05074 0
M  V30 3516 H 350.982 -6.97532 -0.0976774 0
M  V30 3517 H 346.879 -6.34955 -1.162 0
M  V30 3518 H 347.647 -8.18283 -0.188258 0
M  V30 3519 N 350.31 0.590341 -1.46126 0
M  V30 3520 C 351.557 1.34882 -1.5104 0
M  V30 3521 C 351.885 1.93849 -0.159021 0
M  V30 3522 O 351.14 1.76544 0.844436 0
M  V30 3523 C 351.439 2.5032 -2.55097 0
M  V30 3524 C 351.105 2.09394 -3.99331 0
M  V30 3525 C 349.767 1.97947 -4.38601 0
M  V30 3526 C 352.119 1.77712 -4.89967 0
M  V30 3527 C 349.447 1.53065 -5.66381 0
M  V30 3528 C 351.799 1.34312 -6.18177 0
M  V30 3529 C 350.463 1.21436 -6.56361 0
M  V30 3530 H 349.733 0.493568 -0.552695 0
M  V30 3531 H 352.38 0.665539 -1.79563 0
M  V30 3532 H 350.685 3.24062 -2.20207 0
M  V30 3533 H 352.382 3.08541 -2.56132 0
M  V30 3534 H 348.972 2.19235 -3.68285 0
M  V30 3535 H 353.156 1.85445 -4.60352 0
M  V30 3536 H 348.412 1.41733 -5.94745 0
M  V30 3537 H 352.586 1.08849 -6.87841 0
M  V30 3538 H 350.213 0.864345 -7.5527 0
M  V30 3539 N 351.788 1.33704 0.83433 0
M  V30 3540 C 352.718 1.26967 1.95963 0
M  V30 3541 C 353.699 0.149337 1.69443 0
M  V30 3542 O 354.884 0.339852 1.91203 0
M  V30 3543 C 352.014 1.01275 3.32206 0
M  V30 3544 C 350.968 2.09652 3.73136 0
M  V30 3545 C 350.294 1.69166 5.07235 0
M  V30 3546 C 351.594 3.51372 3.86439 0
M  V30 3547 H 353.288 2.2112 2.01857 0
M  V30 3548 H 350.834 1.06447 0.969793 0
M  V30 3549 H 352.787 0.952106 4.10503 0
M  V30 3550 H 351.511 0.0356203 3.26581 0
M  V30 3551 H 350.17 2.14766 2.97104 0
M  V30 3552 H 349.818 0.701437 4.98085 0
M  V30 3553 H 349.518 2.41694 5.35591 0
M  V30 3554 H 351.042 1.64576 5.88003 0
M  V30 3555 H 352.456 3.48734 4.55036 0
M  V30 3556 H 350.853 4.22425 4.26236 0
M  V30 3557 H 351.923 3.89546 2.88759 0
M  V30 3558 N 353.266 -1.05314 1.17247 0
M  V30 3559 C 354.494 -1.81971 0.984593 0
M  V30 3560 C 354.909 -1.82929 -0.467166 0
M  V30 3561 O 354.266 -1.25564 -1.32438 0
M  V30 3562 C 354.317 -3.28143 1.51672 0
M  V30 3563 O 354.038 -3.27347 2.91163 0
M  V30 3564 C 355.539 -4.21493 1.37326 0
M  V30 3565 H 352.759 -0.573455 0.348411 0
M  V30 3566 H 355.303 -1.32808 1.55506 0
M  V30 3567 H 353.458 -3.74582 0.988302 0
M  V30 3568 H 353.872 -4.18824 3.15732 0
M  V30 3569 H 355.346 -5.22043 1.79375 0
M  V30 3570 H 355.823 -4.38031 0.320169 0
M  V30 3571 H 356.429 -3.80909 1.89178 0
M  V30 3572 N 354.744 -0.972509 -1.24016 0
M  V30 3573 C 356.021 -0.553733 -1.87598 0
M  V30 3574 C 356.401 0.969158 -1.87538 0
M  V30 3575 O 355.749 1.84255 -1.35139 0
M  V30 3576 C 355.959 -1.15076 -3.29482 0
M  V30 3577 C 357.307 -1.23862 -4.06132 0
M  V30 3578 O 358.331 -1.10363 -3.38672 0
M  V30 3579 O 357.19 -1.45252 -5.26844 0
M  V30 3580 H 354.284 -0.185331 -0.805966 0
M  V30 3581 H 356.83 -1.06709 -1.31952 0
M  V30 3582 H 355.602 -2.19333 -3.2405 0
M  V30 3583 H 355.225 -0.621746 -3.92709 0
M  V30 3584 N 356.222 1.38976 -0.743202 0
M  V30 3585 C 357.47 1.99948 -0.29417 0
M  V30 3586 C 357.791 1.59279 1.12495 0
M  V30 3587 O 357.061 0.844808 1.76748 0
M  V30 3588 H 355.641 0.739473 -0.105774 0
M  V30 3589 H 358.303 1.699 -0.954986 0
M  V30 3590 H 357.399 3.10142 -0.349056 0
M  V30 3591 N 357.7 0.491464 1.49741 0
M  V30 3592 C 358.928 -0.0535151 2.06831 0
M  V30 3593 C 359.343 -1.31683 1.35296 0
M  V30 3594 O 358.7 -1.77402 0.42836 0
M  V30 3595 C 358.751 -0.320835 3.60073 0
M  V30 3596 O 358.472 0.892394 4.28915 0
M  V30 3597 C 359.973 -0.910519 4.33848 0
M  V30 3598 H 357.193 0.0161909 0.670805 0
M  V30 3599 H 359.737 0.68609 1.92647 0
M  V30 3600 H 357.892 -1.0104 3.73991 0
M  V30 3601 H 358.306 0.649401 5.20464 0
M  V30 3602 H 359.78 -1.04721 5.41976 0
M  V30 3603 H 360.257 -1.90589 3.95692 0
M  V30 3604 H 360.863 -0.258712 4.24512 0
M  V30 3605 N 359.178 -1.55987 0.224894 0
M  V30 3606 C 360.426 -1.97998 -0.405099 0
M  V30 3607 C 360.747 -1.11387 -1.60056 0
M  V30 3608 O 360.017 -0.191645 -1.9496 0
M  V30 3609 H 358.597 -0.731235 -0.152658 0
M  V30 3610 H 361.259 -1.92279 0.318567 0
M  V30 3611 H 360.355 -3.03463 -0.729167 0
M  V30 3612 N 360.656 0.0484629 -1.57525 0
M  V30 3613 C 361.884 0.755421 -1.92616 0
M  V30 3614 C 362.299 1.69919 -0.822984 0
M  V30 3615 O 361.656 1.81378 0.202085 0
M  V30 3616 C 361.707 1.52915 -3.27566 0
M  V30 3617 O 361.428 0.62329 -4.33644 0
M  V30 3618 C 362.929 2.33502 -3.76818 0
M  V30 3619 H 360.149 0.213465 -0.63614 0
M  V30 3620 H 362.693 0.0117698 -2.04497 0
M  V30 3621 H 360.848 2.22486 -3.17142 0
M  V30 3622 H 361.262 1.16383 -5.11425 0
M  V30 3623 H 362.736 2.83214 -4.73808 0
M  V30 3624 H 363.213 3.14068 -3.07014 0
M  V30 3625 H 363.819 1.69043 -3.90262 0
M  V30 3626 N 362.134 1.5431 0.320358 0
M  V30 3627 C 363.38 1.72924 1.05949 0
M  V30 3628 C 363.713 0.503185 1.87568 0
M  V30 3629 O 362.988 -0.499839 1.87968 0
M  V30 3630 C 363.271 3.00676 1.98156 0
M  V30 3631 C 363.124 4.3354 1.19845 0
M  V30 3632 C 364.443 3.24198 2.9763 0
M  V30 3633 H 361.562 0.629195 0.383774 0
M  V30 3634 H 364.204 1.87008 0.335854 0
M  V30 3635 H 362.354 2.888 2.59859 0
M  V30 3636 H 364.026 4.57305 0.605773 0
M  V30 3637 H 362.269 4.309 0.500784 0
M  V30 3638 H 362.94 5.19156 1.87567 0
M  V30 3639 H 365.416 3.35557 2.4605 0
M  V30 3640 H 364.292 4.14938 3.59329 0
M  V30 3641 H 364.553 2.41577 3.7026 0
M  V30 3642 N 363.613 -0.582584 1.46437 0
M  V30 3643 C 364.841 -1.36682 1.55324 0
M  V30 3644 C 365.256 -1.87796 0.194409 0
M  V30 3645 O 364.613 -1.63623 -0.808318 0
M  V30 3646 C 364.664 -2.55426 2.55812 0
M  V30 3647 O 364.385 -2.0643 3.86417 0
M  V30 3648 C 365.886 -3.47976 2.74641 0
M  V30 3649 H 363.106 -0.417545 0.525259 0
M  V30 3650 H 365.65 -0.708219 1.91845 0
M  V30 3651 H 363.805 -3.17275 2.22295 0
M  V30 3652 H 364.219 -2.83762 4.41111 0
M  V30 3653 H 365.693 -4.27775 3.48874 0
M  V30 3654 H 366.17 -3.99919 1.81553 0
M  V30 3655 H 366.776 -2.91962 3.09255 0
M  V30 3656 N 365.091 -1.34144 -0.827227 0
M  V30 3657 C 366.502 -1.23557 -1.39966 0
M  V30 3658 C 366.853 0.140731 -1.95695 0
M  V30 3659 O 365.978 1.04087 -1.89723 0
M  V30 3660 C 366.573 -2.23708 -2.54441 0
M  V30 3661 C 365.132 -2.16924 -3.07605 0
M  V30 3662 C 364.279 -2.10549 -1.80456 0
M  V30 3663 H 367.23 -1.45573 -0.631991 0
M  V30 3664 H 367.251 -1.85157 -3.32411 0
M  V30 3665 H 366.763 -3.23866 -2.13851 0
M  V30 3666 H 364.864 -1.20107 -3.52711 0
M  V30 3667 H 364.977 -3.07988 -3.66988 0
M  V30 3668 H 363.341 -1.56203 -2.01178 0
M  V30 3669 H 364.124 -3.12535 -1.42046 0
M  V30 3670 N 366.569 1.04691 -1.17803 0
M  V30 3671 C 367.532 2.10724 -0.901545 0
M  V30 3672 C 368.532 1.6042 0.110437 0
M  V30 3673 O 369.722 1.7377 -0.122303 0
M  V30 3674 C 366.854 3.39084 -0.351409 0
M  V30 3675 H 368.047 2.36686 -1.84174 0
M  V30 3676 H 365.6 1.21015 -0.98919 0
M  V30 3677 H 366.335 3.18782 0.59569 0
M  V30 3678 H 366.12 3.76909 -1.08083 0
M  V30 3679 H 367.61 4.17227 -0.176451 0
M  V30 3680 N 368.047 0.979072 1.23499 0
M  V30 3681 C 368.995 0.510604 2.26926 0
M  V30 3682 C 369.989 -0.431691 1.63807 0
M  V30 3683 O 371.195 -0.30573 1.77385 0
M  V30 3684 H 367.57 0.146688 0.737554 0
M  V30 3685 H 369.541 1.39466 2.63803 0
M  V30 3686 C 368.29 -0.172658 3.47271 0
M  V30 3687 H 367.613 0.543331 3.96091 0
M  V30 3688 H 369.053 -0.464101 4.21452 0
M  V30 3689 C 367.512 -1.40345 3.06276 0
M  V30 3690 O 368.042 -2.49978 3.14442 0
M  V30 3691 N 366.248 -1.27362 2.61203 0
M  V30 3692 H 365.795 -0.381584 2.54758 0
M  V30 3693 H 365.753 -2.09822 2.34141 0
M  V30 3694 N 369.525 -1.3858 0.750561 0
M  V30 3695 C 370.488 -2.28836 0.129152 0
M  V30 3696 C 371.488 -1.47045 -0.650714 0
M  V30 3697 O 372.678 -1.6753 -0.477428 0
M  V30 3698 C 369.81 -3.30751 -0.825622 0
M  V30 3699 H 371.003 -2.85294 0.924516 0
M  V30 3700 H 368.556 -1.47489 0.517376 0
M  V30 3701 H 369.291 -2.79378 -1.64677 0
M  V30 3702 H 369.076 -3.91177 -0.268852 0
M  V30 3703 H 370.566 -3.98249 -1.2565 0
M  V30 3704 N 371.003 -0.499398 -1.49478 0
M  V30 3705 C 372.228 0.044722 -2.07352 0
M  V30 3706 C 372.653 1.30207 -1.35749 0
M  V30 3707 O 372.011 1.76516 -0.413732 0
M  V30 3708 C 372.059 0.283013 -3.59488 0
M  V30 3709 O 371.163 1.35804 -3.89398 0
M  V30 3710 H 370.504 -0.0255147 -0.66351 0
M  V30 3711 H 373.034 -0.698561 -1.92305 0
M  V30 3712 H 373.044 0.515007 -4.04737 0
M  V30 3713 H 371.719 -0.635636 -4.11014 0
M  V30 3714 H 370.296 1.11113 -3.55961 0
M  V30 3715 N 372.481 1.55866 -0.233164 0
M  V30 3716 C 373.729 1.9821 0.394593 0
M  V30 3717 C 374.05 1.12234 1.59463 0
M  V30 3718 O 373.32 0.201981 1.94856 0
M  V30 3719 H 371.9 0.732034 0.148778 0
M  V30 3720 H 374.562 1.92107 -0.32876 0
M  V30 3721 H 373.658 3.03845 0.713063 0
M  V30 3722 N 373.959 -0.0401083 1.57549 0
M  V30 3723 C 375.208 -0.732108 1.87944 0
M  V30 3724 C 375.521 -1.77107 0.830206 0
M  V30 3725 O 376.727 -2.51488 1.02302 0
M  V30 3726 C 375.183 -1.35315 3.33494 0
M  V30 3727 C 374.791 -0.351105 4.46622 0
M  V30 3728 C 376.535 -2.02566 3.73051 0
M  V30 3729 C 374.442 -0.979859 5.83226 0
M  V30 3730 H 373.372 -0.277188 0.701201 0
M  V30 3731 H 376.023 0.0138501 1.83495 0
M  V30 3732 H 374.405 -2.14844 3.32653 0
M  V30 3733 H 375.579 0.416674 4.58912 0
M  V30 3734 H 373.894 0.218708 4.15825 0
M  V30 3735 H 376.491 -2.50441 4.72423 0
M  V30 3736 H 376.834 -2.83904 3.04474 0
M  V30 3737 H 377.367 -1.29827 3.76018 0
M  V30 3738 H 374.106 -0.206135 6.55176 0
M  V30 3739 H 373.626 -1.71774 5.74677 0
M  V30 3740 H 375.305 -1.49046 6.29599 0
M  V30 3741 N 375.437 -1.54477 -0.31217 0
M  V30 3742 C 376.385 -1.85395 -1.40469 0
M  V30 3743 C 377.379 -0.726749 -1.53019 0
M  V30 3744 O 378.585 -0.910582 -1.55269 0
M  V30 3745 H 374.96 -0.587845 -0.46898 0
M  V30 3746 H 376.931 -2.76736 -1.11623 0
M  V30 3747 C 375.68 -2.10811 -2.76503 0
M  V30 3748 H 375.003 -2.97014 -2.67625 0
M  V30 3749 H 376.443 -2.3639 -3.51988 0
M  V30 3750 C 374.902 -0.903165 -3.24568 0
M  V30 3751 O 375.432 -0.118085 -4.01526 0
M  V30 3752 N 373.638 -0.711634 -2.81752 0
M  V30 3753 H 373.185 -1.35171 -2.19286 0
M  V30 3754 H 373.143 0.0930473 -3.14262 0
M  V30 3755 N 376.915 0.57481 -1.46744 0
M  V30 3756 C 378.192 1.3352 -1.4294 0
M  V30 3757 C 378.572 2.10775 -0.117009 0
M  V30 3758 O 377.92 2.09966 0.901474 0
M  V30 3759 C 378.13 2.25456 -2.66403 0
M  V30 3760 C 379.478 2.87035 -3.12883 0
M  V30 3761 O 380.502 2.35766 -2.67007 0
M  V30 3762 O 379.361 3.80179 -3.92589 0
M  V30 3763 H 376.455 0.600318 -0.568812 0
M  V30 3764 H 379.001 0.595171 -1.58921 0
M  V30 3765 H 377.773 1.67851 -3.53471 0
M  V30 3766 H 377.396 3.06785 -2.52921 0
M  V30 3767 N 378.394 1.34581 0.820102 0
M  V30 3768 C 379.642 1.26845 1.57336 0
M  V30 3769 C 379.963 -0.160667 1.94337 0
M  V30 3770 O 379.233 -1.09396 1.6251 0
M  V30 3771 H 377.813 0.466514 0.583415 0
M  V30 3772 H 380.475 1.68526 0.979027 0
M  V30 3773 H 379.571 1.87513 2.4949 0
M  V30 3774 N 379.872 -1.04064 1.18357 0
M  V30 3775 C 380.835 -2.10243 0.912707 0
M  V30 3776 C 381.835 -1.60477 -0.101928 0
M  V30 3777 O 383.025 -1.73703 0.131517 0
M  V30 3778 C 380.157 -3.38893 0.369387 0
M  V30 3779 H 381.35 -2.35706 1.85426 0
M  V30 3780 H 378.903 -1.20489 0.995594 0
M  V30 3781 H 379.638 -3.19094 -0.578776 0
M  V30 3782 H 379.423 -3.76331 1.1008 0
M  V30 3783 H 380.913 -4.17128 0.198575 0
M  V30 3784 N 381.35 -0.985608 -1.22978 0
M  V30 3785 C 382.313 -0.535071 -2.22867 0
M  V30 3786 C 383.313 0.378123 -1.56291 0
M  V30 3787 O 384.503 0.171092 -1.73358 0
M  V30 3788 C 381.635 0.222702 -3.40172 0
M  V30 3789 H 382.828 -1.41835 -2.6424 0
M  V30 3790 H 380.381 -0.772042 -1.35901 0
M  V30 3791 H 381.116 1.12229 -3.04262 0
M  V30 3792 H 380.901 -0.43288 -3.89703 0
M  V30 3793 H 382.391 0.526335 -4.1427 0
M  V30 3794 N 382.828 1.3818 -0.7579 0
M  V30 3795 C 383.791 2.28764 -0.141286 0
M  V30 3796 C 384.791 1.47388 0.642907 0
M  V30 3797 O 385.981 1.67781 0.468536 0
M  V30 3798 C 383.113 3.31184 0.808069 0
M  V30 3799 H 384.306 2.848 -0.939633 0
M  V30 3800 H 381.859 1.47212 -0.525191 0
M  V30 3801 H 382.594 2.80247 1.63193 0
M  V30 3802 H 382.379 3.91314 0.248104 0
M  V30 3803 H 383.869 3.98909 1.23536 0
M  V30 3804 N 384.306 0.507319 1.49211 0
M  V30 3805 C 385.552 -0.0350047 2.0277 0
M  V30 3806 C 385.885 -1.3606 1.38569 0
M  V30 3807 O 385.16 -1.87321 0.523542 0
M  V30 3808 C 385.443 -0.180916 3.59645 0
M  V30 3809 C 385.296 1.16825 4.34364 0
M  V30 3810 C 386.615 -0.918558 4.30407 0
M  V30 3811 H 383.734 -0.0112473 0.736914 0
M  V30 3812 H 386.376 0.659956 1.7817 0
M  V30 3813 H 384.526 -0.772826 3.80736 0
M  V30 3814 H 386.198 1.79952 4.24753 0
M  V30 3815 H 384.441 1.75594 3.96673 0
M  V30 3816 H 385.112 1.01939 5.42506 0
M  V30 3817 H 387.588 -0.41649 4.1401 0
M  V30 3818 H 386.464 -0.989505 5.39907 0
M  V30 3819 H 386.725 -1.96373 3.96093 0
M  V30 3820 N 385.784 -1.5574 0.241426 0
M  V30 3821 C 387.03 -1.99104 -0.385406 0
M  V30 3822 C 387.363 -1.1293 -1.57988 0
M  V30 3823 O 386.638 -0.191449 -1.93555 0
M  V30 3824 C 386.921 -3.51087 -0.800616 0
M  V30 3825 C 386.774 -4.48028 0.398874 0
M  V30 3826 C 388.093 -4.08015 -1.64959 0
M  V30 3827 H 385.212 -0.723848 -0.138614 0
M  V30 3828 H 387.854 -1.86903 0.341642 0
M  V30 3829 H 386.004 -3.61615 -1.4201 0
M  V30 3830 H 387.676 -4.49487 1.03726 0
M  V30 3831 H 385.919 -4.21077 1.04293 0
M  V30 3832 H 386.59 -5.51962 0.0651056 0
M  V30 3833 H 389.066 -4.00555 -1.12672 0
M  V30 3834 H 387.942 -5.14635 -1.90898 0
M  V30 3835 H 388.203 -3.56131 -2.61961 0
M  V30 3836 N 387.262 0.0317525 -1.57568 0
M  V30 3837 C 388.192 1.03274 -2.0942 0
M  V30 3838 C 389.173 1.3788 -0.996143 0
M  V30 3839 O 390.358 1.46811 -1.27122 0
M  V30 3840 C 387.488 2.33448 -2.57137 0
M  V30 3841 C 386.442 2.13091 -3.71182 0
M  V30 3842 C 385.768 3.49001 -4.05095 0
M  V30 3843 C 387.068 1.51928 -4.99715 0
M  V30 3844 H 388.762 0.60112 -2.93303 0
M  V30 3845 H 386.308 0.287705 -1.41097 0
M  V30 3846 H 388.261 3.03802 -2.92032 0
M  V30 3847 H 386.985 2.78665 -1.70333 0
M  V30 3848 H 385.644 1.45171 -3.36632 0
M  V30 3849 H 385.292 3.91862 -3.15362 0
M  V30 3850 H 384.992 3.36207 -4.81911 0
M  V30 3851 H 386.516 4.20721 -4.42522 0
M  V30 3852 H 387.93 2.12196 -5.32584 0
M  V30 3853 H 386.327 1.49716 -5.81124 0
M  V30 3854 H 387.397 0.484811 -4.8247 0
M  V30 3855 N 388.74 1.54641 0.303973 0
M  V30 3856 C 389.673 1.80263 1.3993 0
M  V30 3857 C 390.651 0.653657 1.48883 0
M  V30 3858 O 391.835 0.893284 1.6599 0
M  V30 3859 C 388.962 1.9367 2.77866 0
M  V30 3860 C 388.008 3.16078 2.86351 0
M  V30 3861 S 388.841 4.74219 2.4875 0
M  V30 3862 C 389.997 4.90558 3.88721 0
M  V30 3863 H 390.23 2.72886 1.17986 0
M  V30 3864 H 387.763 1.46014 0.501918 0
M  V30 3865 H 389.721 2.0208 3.57315 0
M  V30 3866 H 388.382 1.01991 2.9708 0
M  V30 3867 H 387.575 3.22252 3.87517 0
M  V30 3868 H 387.177 3.06099 2.14893 0
M  V30 3869 H 389.469 4.74398 4.83687 0
M  V30 3870 H 390.412 5.92651 3.87518 0
M  V30 3871 H 390.82 4.18728 3.78585 0
M  V30 3872 N 390.218 -0.567019 1.47046 0
M  V30 3873 C 391.165 -1.67489 1.58796 0
M  V30 3874 C 392.135 -1.60399 0.43144 0
M  V30 3875 O 393.32 -1.79378 0.650233 0
M  V30 3876 C 390.46 -3.05821 1.59899 0
M  V30 3877 C 389.573 -3.2342 2.86397 0
M  V30 3878 C 388.708 -4.52093 2.789 0
M  V30 3879 C 387.747 -4.6309 4.00267 0
M  V30 3880 N 386.884 -5.83106 3.91064 0
M  V30 3881 H 391.724 -1.56785 2.53422 0
M  V30 3882 H 389.261 -0.763896 1.2571 0
M  V30 3883 H 391.219 -3.8591 1.58522 0
M  V30 3884 H 389.849 -3.15384 0.687929 0
M  V30 3885 H 388.901 -2.3683 2.97684 0
M  V30 3886 H 390.213 -3.27412 3.76301 0
M  V30 3887 H 389.367 -5.4043 2.75718 0
M  V30 3888 H 388.106 -4.50565 1.86662 0
M  V30 3889 H 387.111 -3.73168 4.03765 0
M  V30 3890 H 388.336 -4.66386 4.93621 0
M  V30 3891 H 386.282 -5.82546 3.01623 0
M  V30 3892 H 386.199 -5.88434 4.74638 0
M  V30 3893 H 387.467 -6.73831 3.91882 0
M  V30 3894 N 391.696 -1.35014 -0.812953 0
M  V30 3895 C 392.643 -1.27412 -1.92444 0
M  V30 3896 C 393.613 -0.14733 -1.65445 0
M  V30 3897 O 394.798 -0.329974 -1.87925 0
M  V30 3898 C 391.938 -1.04558 -3.28879 0
M  V30 3899 C 391.051 -2.26101 -3.68106 0
M  V30 3900 C 390.186 -1.96449 -4.9354 0
M  V30 3901 C 389.225 -3.14081 -5.25376 0
M  V30 3902 N 388.362 -2.84246 -6.41988 0
M  V30 3903 H 393.202 -2.22463 -1.98278 0
M  V30 3904 H 390.739 -1.10593 -0.969933 0
M  V30 3905 H 392.697 -0.893413 -4.07522 0
M  V30 3906 H 391.327 -0.131719 -3.22531 0
M  V30 3907 H 390.379 -2.52204 -2.84775 0
M  V30 3908 H 391.691 -3.13959 -3.87597 0
M  V30 3909 H 390.845 -1.78026 -5.79993 0
M  V30 3910 H 389.584 -1.05867 -4.76071 0
M  V30 3911 H 388.589 -3.33089 -4.37415 0
M  V30 3912 H 389.814 -4.05455 -5.44778 0
M  V30 3913 H 387.76 -1.96252 -6.25956 0
M  V30 3914 H 387.677 -3.65637 -6.61699 0
M  V30 3915 H 388.945 -2.6935 -7.31485 0
M  V30 3916 N 393.175 1.03435 -1.18907 0
M  V30 3917 C 394.4 1.80919 -1.01406 0
M  V30 3918 C 394.825 1.83055 0.432721 0
M  V30 3919 O 394.183 1.25252 1.31079 0
M  V30 3920 C 394.231 3.24091 -1.58105 0
M  V30 3921 O 393.335 4.04434 -0.806669 0
M  V30 3922 H 392.676 0.558709 -0.358803 0
M  V30 3923 H 395.206 1.30223 -1.57807 0
M  V30 3924 H 395.216 3.74853 -1.61087 0
M  V30 3925 H 393.891 3.21851 -2.6341 0
M  V30 3926 H 392.468 3.63091 -0.849666 0
M  V30 3927 N 394.653 0.992116 1.22453 0
M  V30 3928 C 395.563 0.55065 2.28046 0
M  V30 3929 C 396.579 -0.400189 1.69335 0
M  V30 3930 O 397.755 -0.267215 1.99619 0
M  V30 3931 C 394.82 -0.128496 3.46462 0
M  V30 3932 C 393.881 0.865208 4.20491 0
M  V30 3933 C 393.114 0.218377 5.33253 0
M  V30 3934 O 393.337 -0.987894 5.6178 0
M  V30 3935 O 392.271 0.922845 5.94783 0
M  V30 3936 H 396.097 1.4291 2.67975 0
M  V30 3937 H 393.682 0.760326 1.28606 0
M  V30 3938 H 395.564 -0.508947 4.18315 0
M  V30 3939 H 394.239 -0.981526 3.0846 0
M  V30 3940 H 393.146 1.29658 3.50913 0
M  V30 3941 H 394.479 1.68741 4.62371 0
M  V30 3942 N 396.131 -1.37776 0.765217 0
M  V30 3943 C 397.094 -2.28686 0.153416 0
M  V30 3944 C 398.094 -1.47727 -0.635081 0
M  V30 3945 O 399.284 -1.68027 -0.459632 0
M  V30 3946 C 396.416 -3.31608 -0.790495 0
M  V30 3947 H 397.609 -2.84297 0.954723 0
M  V30 3948 H 395.162 -1.46932 0.53299 0
M  V30 3949 H 395.897 -2.81109 -1.61705 0
M  V30 3950 H 395.682 -3.9144 -0.227348 0
M  V30 3951 H 397.172 -3.99559 -1.21419 0
M  V30 3952 N 397.609 -0.515225 -1.4894 0
M  V30 3953 C 398.886 0.0879088 -1.95402 0
M  V30 3954 C 399.266 1.52745 -1.45712 0
M  V30 3955 O 398.614 2.18238 -0.677093 0
M  V30 3956 C 398.824 -0.0141055 -3.48997 0
M  V30 3957 C 400.172 0.152646 -4.24326 0
M  V30 3958 O 401.196 0.0604025 -3.56149 0
M  V30 3959 O 400.055 0.34384 -5.45417 0
M  V30 3960 H 397.149 0.0874636 -0.822362 0
M  V30 3961 H 399.695 -0.578775 -1.59525 0
M  V30 3962 H 398.467 -1.01745 -3.77841 0
M  V30 3963 H 398.09 0.692091 -3.9153 0
M  V30 3964 N 399.087 1.5561 -0.249682 0
M  V30 3965 C 400.034 2.21496 0.648694 0
M  V30 3966 C 401.004 1.17977 1.16921 0
M  V30 3967 O 402.189 1.46434 1.22318 0
M  V30 3968 C 399.329 2.92039 1.83868 0
M  V30 3969 C 398.442 4.10219 1.35442 0
M  V30 3970 C 397.577 4.6847 2.50419 0
M  V30 3971 C 396.616 5.78893 1.98869 0
M  V30 3972 N 395.753 6.31315 3.07223 0
M  V30 3973 H 400.593 2.97892 0.0801582 0
M  V30 3974 H 398.13 1.47074 0.0278031 0
M  V30 3975 H 400.088 3.31138 2.53778 0
M  V30 3976 H 398.718 2.18111 2.37965 0
M  V30 3977 H 397.77 3.76413 0.54928 0
M  V30 3978 H 399.082 4.89927 0.936649 0
M  V30 3979 H 398.236 5.10158 3.28366 0
M  V30 3980 H 396.975 3.87984 2.95499 0
M  V30 3981 H 395.98 5.3668 1.19393 0
M  V30 3982 H 397.205 6.61232 1.54755 0
M  V30 3983 H 395.151 5.53733 3.51732 0
M  V30 3984 H 395.068 7.06224 2.69784 0
M  V30 3985 H 396.336 6.77662 3.8522 0
M  V30 3986 N 400.565 -0.0233959 1.57583 0
M  V30 3987 C 401.981 -0.379134 1.55031 0
M  V30 3988 C 402.181 -1.76255 0.976548 0
M  V30 3989 O 401.237 -2.45266 0.600078 0
M  V30 3990 C 402.55 -0.275792 2.99433 0
M  V30 3991 C 404.098 -0.352458 3.11009 0
M  V30 3992 C 404.573 -0.278501 4.57152 0
M  V30 3993 N 406.064 -0.337123 4.61972 0
M  V30 3994 C 406.799 -0.302876 5.726 0
M  V30 3995 N 406.295 -0.220589 6.92449 0
M  V30 3996 N 408.088 -0.353023 5.6099 0
M  V30 3997 H 400.239 0.881869 1.93227 0
M  V30 3998 H 402.502 0.335867 0.886509 0
M  V30 3999 H 402.208 0.675108 3.4516 0
M  V30 4000 H 402.082 -1.06721 3.61788 0
M  V30 4001 H 404.469 -1.29379 2.65226 0
M  V30 4002 H 404.55 0.468409 2.51475 0
M  V30 4003 H 404.194 0.659189 5.03604 0
M  V30 4004 H 404.124 -1.11755 5.14605 0
M  V30 4005 H 406.615 -0.403002 3.75745 0
M  V30 4006 H 406.928 -0.199713 7.72542 0
M  V30 4007 H 405.273 -0.186555 6.9475 0
M  V30 4008 H 408.464 -0.415339 4.66254 0
M  V30 4009 H 408.637 -0.322866 6.47195 0
M  V30 4010 N 402.043 -1.548 -0.295768 0
M  V30 4011 C 403.291 -1.73985 -1.02828 0
M  V30 4012 C 403.612 -0.531406 -1.87619 0
M  V30 4013 O 402.882 0.454221 -1.90561 0
M  V30 4014 H 401.462 -0.641556 -0.382642 0
M  V30 4015 H 404.124 -1.92163 -0.325489 0
M  V30 4016 H 403.22 -2.63129 -1.67838 0
M  V30 4017 N 403.521 0.559213 -1.47345 0
M  V30 4018 C 404.451 1.67622 -1.62558 0
M  V30 4019 C 405.432 1.63331 -0.475087 0
M  V30 4020 O 406.617 1.80983 -0.704182 0
M  V30 4021 C 403.747 3.0626 -1.63774 0
M  V30 4022 C 402.701 3.25397 -2.7803 0
M  V30 4023 C 402.027 4.64801 -2.64318 0
M  V30 4024 C 403.327 3.10965 -4.19641 0
M  V30 4025 H 405.021 1.55146 -2.56067 0
M  V30 4026 H 402.567 0.744961 -1.23233 0
M  V30 4027 H 404.52 3.84247 -1.73008 0
M  V30 4028 H 403.244 3.1969 -0.66825 0
M  V30 4029 H 401.903 2.49817 -2.68304 0
M  V30 4030 H 401.551 4.75028 -1.65401 0
M  V30 4031 H 401.251 4.78555 -3.40968 0
M  V30 4032 H 402.775 5.44926 -2.75478 0
M  V30 4033 H 404.189 3.78772 -4.30354 0
M  V30 4034 H 402.586 3.36229 -4.97062 0
M  V30 4035 H 403.656 2.07736 -4.38148 0
M  V30 4036 N 404.999 1.35443 0.805782 0
M  V30 4037 C 406.227 1.31878 1.59423 0
M  V30 4038 C 406.642 -0.103562 1.88516 0
M  V30 4039 O 405.999 -1.05575 1.48863 0
M  V30 4040 C 406.05 2.12426 2.92502 0
M  V30 4041 O 405.771 3.49115 2.6467 0
M  V30 4042 C 407.272 2.16455 3.86862 0
M  V30 4043 H 404.492 0.453002 0.495005 0
M  V30 4044 H 407.036 1.78309 1.00131 0
M  V30 4045 H 405.191 1.69593 3.48306 0
M  V30 4046 H 405.605 3.90957 3.49647 0
M  V30 4047 H 407.079 2.77204 4.77349 0
M  V30 4048 H 407.556 1.16352 4.23508 0
M  V30 4049 H 408.162 2.59453 3.36993 0
M  V30 4050 N 406.477 -1.02803 1.19454 0
M  V30 4051 C 407.888 -1.57667 0.999899 0
M  V30 4052 C 408.239 -1.91041 -0.446956 0
M  V30 4053 O 407.364 -1.70978 -1.32648 0
M  V30 4054 C 407.959 -2.86477 1.80877 0
M  V30 4055 C 406.518 -3.37911 1.65811 0
M  V30 4056 C 405.665 -2.11343 1.79526 0
M  V30 4057 H 408.616 -0.853214 1.33813 0
M  V30 4058 H 408.637 -3.57408 1.30536 0
M  V30 4059 H 408.149 -2.62155 2.86175 0
M  V30 4060 H 406.25 -3.67218 0.63102 0
M  V30 4061 H 406.363 -4.10885 2.46395 0
M  V30 4062 H 404.727 -2.23254 1.22596 0
M  V30 4063 H 405.51 -1.89461 2.86285 0
M  V30 4064 N 407.956 -0.998596 -1.21925 0
M  V30 4065 C 408.886 -0.573688 -2.26343 0
M  V30 4066 C 409.867 0.402296 -1.65274 0
M  V30 4067 O 411.052 0.291683 -1.91997 0
M  V30 4068 C 408.182 0.106839 -3.47136 0
M  V30 4069 C 407.136 -0.788269 -4.20678 0
M  V30 4070 C 406.462 0.0254927 -5.34694 0
M  V30 4071 C 407.762 -2.08784 -4.78755 0
M  V30 4072 H 409.456 -1.44651 -2.62138 0
M  V30 4073 H 407.002 -0.696975 -1.26009 0
M  V30 4074 H 408.955 0.415531 -4.19346 0
M  V30 4075 H 407.679 1.01424 -3.10452 0
M  V30 4076 H 406.338 -1.08069 -3.50309 0
M  V30 4077 H 405.986 0.933989 -4.94253 0
M  V30 4078 H 405.686 -0.570437 -5.84825 0
M  V30 4079 H 407.21 0.328147 -6.09718 0
M  V30 4080 H 408.624 -1.84272 -5.42878 0
M  V30 4081 H 407.021 -2.63307 -5.39249 0
M  V30 4082 H 408.091 -2.76284 -3.98491 0
M  V30 4083 N 409.434 1.37368 -0.772513 0
M  V30 4084 C 410.397 2.28601 -0.165541 0
M  V30 4085 C 411.397 1.48062 0.627238 0
M  V30 4086 O 412.587 1.68268 0.450715 0
M  V30 4087 C 409.719 3.32023 0.772897 0
M  V30 4088 H 410.912 2.83787 -0.969787 0
M  V30 4089 H 408.465 1.46647 -0.540775 0
M  V30 4090 H 409.2 2.81962 1.60212 0
M  V30 4091 H 408.985 3.91555 0.206585 0
M  V30 4092 H 410.475 4.00197 1.19298 0
M  V30 4093 N 410.912 0.523116 1.48665 0
M  V30 4094 C 412.328 0.180511 1.58576 0
M  V30 4095 C 412.528 -1.31597 1.52592 0
M  V30 4096 O 411.584 -2.0937 1.4114 0
M  V30 4097 C 412.897 0.776949 2.90489 0
M  V30 4098 C 414.445 0.745058 3.04003 0
M  V30 4099 C 414.92 1.31995 4.38567 0
M  V30 4100 N 416.411 1.28162 4.45117 0
M  V30 4101 C 417.146 1.6964 5.47731 0
M  V30 4102 N 416.642 2.18816 6.57337 0
M  V30 4103 N 418.435 1.6092 5.38573 0
M  V30 4104 H 410.586 1.4958 1.50797 0
M  V30 4105 H 412.849 0.621772 0.715614 0
M  V30 4106 H 412.555 1.82732 3.00503 0
M  V30 4107 H 412.429 0.25007 3.7637 0
M  V30 4108 H 414.816 -0.296532 2.93606 0
M  V30 4109 H 414.897 1.30933 2.1975 0
M  V30 4110 H 414.541 2.36043 4.49718 0
M  V30 4111 H 414.471 0.731418 5.21496 0
M  V30 4112 H 416.962 0.92155 3.66491 0
M  V30 4113 H 417.275 2.48478 7.31764 0
M  V30 4114 H 415.62 2.22805 6.58318 0
M  V30 4115 H 418.811 1.22304 4.5184 0
M  V30 4116 H 418.984 1.93567 6.18414 0
M  V30 4117 N 412.39 -1.55475 0.257931 0
M  V30 4118 C 413.639 -1.98383 -0.364275 0
M  V30 4119 C 413.952 -1.14952 -1.58258 0
M  V30 4120 O 415.158 -1.47924 -2.27664 0
M  V30 4121 C 413.614 -3.53037 -0.699479 0
M  V30 4122 C 413.222 -4.45223 0.498046 0
M  V30 4123 C 414.966 -4.04575 -1.28526 0
M  V30 4124 C 412.873 -5.91238 0.138383 0
M  V30 4125 H 411.803 -0.740911 -0.13988 0
M  V30 4126 H 414.454 -1.79936 0.359883 0
M  V30 4127 H 412.836 -3.6722 -1.48207 0
M  V30 4128 H 414.01 -4.42803 1.27522 0
M  V30 4129 H 412.325 -4.04226 0.999503 0
M  V30 4130 H 414.922 -5.11196 -1.56788 0
M  V30 4131 H 415.265 -3.5258 -2.21344 0
M  V30 4132 H 415.798 -3.93762 -0.565337 0
M  V30 4133 H 412.537 -6.47294 1.03398 0
M  V30 4134 H 412.057 -5.96768 -0.602374 0
M  V30 4135 H 413.736 -6.46413 -0.27553 0
M  V30 4136 N 413.868 0.0150385 -1.57593 0
M  V30 4137 C 415.114 0.704043 -1.90187 0
M  V30 4138 C 415.447 1.74249 -0.857366 0
M  V30 4139 O 414.722 1.94092 0.125843 0
M  V30 4140 C 415.005 1.36087 -3.33395 0
M  V30 4141 C 414.858 0.334981 -4.48551 0
M  V30 4142 C 416.177 2.29112 -3.7576 0
M  V30 4143 H 413.296 0.254475 -0.691673 0
M  V30 4144 H 415.938 -0.0331678 -1.89971 0
M  V30 4145 H 414.088 1.98922 -3.3371 0
M  V30 4146 H 415.76 -0.292534 -4.60372 0
M  V30 4147 H 414.003 -0.344325 -4.32431 0
M  V30 4148 H 414.674 0.833316 -5.45674 0
M  V30 4149 H 417.15 1.76308 -3.76902 0
M  V30 4150 H 416.026 2.72043 -4.76743 0
M  V30 4151 H 416.287 3.16385 -3.08793 0
M  V30 4152 N 415.346 1.54954 0.287554 0
M  V30 4153 C 416.571 1.79209 1.04397 0
M  V30 4154 C 416.996 0.556431 1.79682 0
M  V30 4155 O 416.354 -0.493518 1.74454 0
M  V30 4156 C 416.402 3.00739 1.98969 0
M  V30 4157 O 415.506 2.74805 3.075 0
M  V30 4158 H 414.847 0.592755 0.299227 0
M  V30 4159 H 417.377 2.02068 0.320886 0
M  V30 4160 H 417.387 3.29077 2.4119 0
M  V30 4161 H 416.062 3.90329 1.43582 0
M  V30 4162 H 414.639 2.57523 2.69697 0
M  V30 4163 N 416.824 -0.551391 1.4764 0
M  V30 4164 C 418.07 -1.30789 1.55774 0
M  V30 4165 C 418.425 -1.91143 0.219562 0
M  V30 4166 O 417.718 -1.7521 -0.775375 0
M  V30 4167 C 417.912 -2.43469 2.61644 0
M  V30 4168 C 417.741 -1.94157 4.05627 0
M  V30 4169 C 416.511 -1.77734 4.7301 0
M  V30 4170 C 418.709 -1.48262 4.92466 0
M  V30 4171 N 416.691 -1.22823 6.01488 0
M  V30 4172 C 418.062 -1.05156 6.11017 0
M  V30 4173 C 420.117 -1.36367 4.78862 0
M  V30 4174 C 418.82 -0.513357 7.17466 0
M  V30 4175 C 420.846 -0.839484 5.85411 0
M  V30 4176 C 420.208 -0.418377 7.03156 0
M  V30 4177 H 416.307 -0.470406 0.624694 0
M  V30 4178 H 418.891 -0.624331 1.84419 0
M  V30 4179 H 417.062 -3.09348 2.34859 0
M  V30 4180 H 418.794 -3.10477 2.59589 0
M  V30 4181 H 415.549 -2.00623 4.29007 0
M  V30 4182 H 415.973 -0.974393 6.69951 0
M  V30 4183 H 420.615 -1.67535 3.88191 0
M  V30 4184 H 418.333 -0.189318 8.07878 0
M  V30 4185 H 421.919 -0.750921 5.76934 0
M  V30 4186 H 420.799 -0.0190538 7.84198 0
M  V30 4187 N 418.302 -1.35869 -0.798587 0
M  V30 4188 C 419.527 -1.32883 -1.59238 0
M  V30 4189 C 419.952 0.0894587 -1.87887 0
M  V30 4190 O 419.31 1.05869 -1.47178 0
M  V30 4191 C 419.358 -2.14892 -2.89575 0
M  V30 4192 O 418.462 -1.53512 -3.82763 0
M  V30 4193 H 417.803 -0.455236 -0.48338 0
M  V30 4194 H 420.333 -1.79024 -0.990539 0
M  V30 4195 H 420.343 -2.27139 -3.38928 0
M  V30 4196 H 419.018 -3.17998 -2.68049 0
M  V30 4197 H 417.595 -1.50153 -3.41334 0
M  V30 4198 N 419.78 1.02168 -1.19998 0
M  V30 4199 C 420.712 2.10705 -0.901994 0
M  V30 4200 C 421.725 1.6244 0.108216 0
M  V30 4201 O 422.914 1.78082 -0.12214 0
M  V30 4202 C 420.014 3.37291 -0.329834 0
M  V30 4203 C 419.187 4.14714 -1.39035 0
M  V30 4204 C 418.246 5.19606 -0.830432 0
M  V30 4205 O 417.272 5.48809 -1.50989 0
M  V30 4206 N 418.474 5.79366 0.362696 0
M  V30 4207 H 421.239 2.36856 -1.83628 0
M  V30 4208 H 418.8 1.18518 -1.10296 0
M  V30 4209 H 420.792 4.04657 0.0587633 0
M  V30 4210 H 419.362 3.0843 0.508891 0
M  V30 4211 H 418.582 3.42392 -1.9535 0
M  V30 4212 H 419.87 4.63226 -2.10474 0
M  V30 4213 H 419.268 5.57968 0.932081 0
M  V30 4214 H 417.825 6.48106 0.69299 0
M  V30 4215 N 421.258 1.00505 1.21394 0
M  V30 4216 C 422.504 0.688793 1.90745 0
M  V30 4217 C 422.837 -0.778486 1.77914 0
M  V30 4218 O 422.112 -1.56433 1.15581 0
M  V30 4219 C 422.395 1.11063 3.42545 0
M  V30 4220 C 422.248 2.63737 3.64367 0
M  V30 4221 C 423.567 0.673059 4.34923 0
M  V30 4222 H 420.686 0.251702 0.692687 0
M  V30 4223 H 423.328 1.25074 1.43026 0
M  V30 4224 H 421.478 0.632508 3.83317 0
M  V30 4225 H 423.15 3.19313 3.32922 0
M  V30 4226 H 421.393 3.05248 3.08231 0
M  V30 4227 H 422.064 2.88305 4.70727 0
M  V30 4228 H 424.54 1.08392 4.01734 0
M  V30 4229 H 423.416 0.996383 5.39781 0
M  V30 4230 H 423.677 -0.425808 4.40045 0
M  V30 4231 N 422.737 -1.36956 0.779787 0
M  V30 4232 C 423.985 -1.99097 0.347079 0
M  V30 4233 C 424.306 -1.62206 -1.08232 0
M  V30 4234 O 423.576 -0.891373 -1.74446 0
M  V30 4235 H 422.156 -0.736409 0.125342 0
M  V30 4236 H 424.818 -1.67308 0.999696 0
M  V30 4237 H 423.914 -3.09107 0.431162 0
M  V30 4238 N 424.215 -0.530993 -1.48385 0
M  V30 4239 C 425.461 0.00274135 -2.028 0
M  V30 4240 C 425.794 1.33838 -1.40716 0
M  V30 4241 O 425.069 1.86465 -0.553277 0
M  V30 4242 C 425.352 0.123676 -3.59888 0
M  V30 4243 C 425.205 -1.2372 -4.3245 0
M  V30 4244 C 426.524 0.849967 -4.31814 0
M  V30 4245 H 423.643 -0.000477758 -0.737 0
M  V30 4246 H 426.285 -0.688217 -1.77098 0
M  V30 4247 H 424.435 0.712157 -3.81917 0
M  V30 4248 H 426.107 -1.86687 -4.21836 0
M  V30 4249 H 424.35 -1.81882 -3.93829 0
M  V30 4250 H 425.021 -1.10557 -5.40815 0
M  V30 4251 H 427.497 0.350572 -4.14621 0
M  V30 4252 H 426.373 0.903486 -5.41413 0
M  V30 4253 H 426.634 1.90047 -3.99167 0
M  V30 4254 N 425.693 1.55336 -0.266172 0
M  V30 4255 C 426.603 2.2583 0.635458 0
M  V30 4256 C 427.619 1.28106 1.17749 0
M  V30 4257 O 428.795 1.61024 1.20968 0
M  V30 4258 C 425.86 2.95879 1.80712 0
M  V30 4259 C 424.921 4.09059 1.30265 0
M  V30 4260 C 424.154 4.75759 2.41846 0
M  V30 4261 O 424.377 4.41622 3.61007 0
M  V30 4262 O 423.311 5.63888 2.1051 0
M  V30 4263 H 427.137 3.03631 0.0646693 0
M  V30 4264 H 424.722 1.49361 -0.0339177 0
M  V30 4265 H 426.604 3.39932 2.49047 0
M  V30 4266 H 425.279 2.21002 2.36516 0
M  V30 4267 H 424.186 3.69482 0.586019 0
M  V30 4268 H 425.519 4.85811 0.790458 0
M  V30 4269 N 427.171 -0.0066808 1.57599 0
M  V30 4270 C 428.582 -0.550379 1.78403 0
M  V30 4271 C 428.933 -1.74339 0.900014 0
M  V30 4272 O 428.058 -2.16166 0.100713 0
M  V30 4273 C 428.653 -1.00523 3.23544 0
M  V30 4274 C 427.212 -1.49428 3.45468 0
M  V30 4275 C 426.359 -0.442444 2.73748 0
M  V30 4276 H 429.31 0.219508 1.57175 0
M  V30 4277 H 429.331 -1.87157 3.31289 0
M  V30 4278 H 428.843 -0.136735 3.87859 0
M  V30 4279 H 426.944 -2.3839 2.86358 0
M  V30 4280 H 427.057 -1.52635 4.54136 0
M  V30 4281 H 425.421 -0.902578 2.38171 0
M  V30 4282 H 426.204 0.416973 3.40758 0
M  V30 4283 N 428.649 -1.55105 -0.279332 0
M  V30 4284 C 429.874 -1.7976 -1.03446 0
M  V30 4285 C 430.299 -0.565952 -1.79384 0
M  V30 4286 O 429.657 0.484259 -1.74713 0
M  V30 4287 C 429.705 -3.0179 -1.97371 0
M  V30 4288 O 428.809 -2.76432 -3.06038 0
M  V30 4289 H 428.15 -0.594334 -0.29608 0
M  V30 4290 H 430.68 -2.02235 -0.310165 0
M  V30 4291 H 430.69 -3.30351 -2.39441 0
M  V30 4292 H 429.365 -3.91085 -1.4151 0
M  V30 4293 H 427.942 -2.58949 -2.68328 0
M  V30 4294 N 430.127 0.543554 -1.4793 0
M  V30 4295 C 431.376 1.29649 -1.54512 0
M  V30 4296 C 431.689 1.94382 -0.217973 0
M  V30 4297 O 432.895 2.71017 -0.161908 0
M  V30 4298 C 431.351 2.35175 -2.72435 0
M  V30 4299 C 430.959 1.76572 -4.11736 0
M  V30 4300 C 432.703 3.11564 -2.8832 0
M  V30 4301 C 430.61 2.79958 -5.20939 0
M  V30 4302 H 429.54 0.487541 -0.57517 0
M  V30 4303 H 432.191 0.575708 -1.74235 0
M  V30 4304 H 430.573 3.10229 -2.46118 0
M  V30 4305 H 431.747 1.07799 -4.48013 0
M  V30 4306 H 430.062 1.12722 -4.00852 0
M  V30 4307 H 432.659 3.88794 -3.67074 0
M  V30 4308 H 433.002 3.66594 -1.97268 0
M  V30 4309 H 433.535 2.43623 -3.14472 0
M  V30 4310 H 430.274 2.29766 -6.13912 0
M  V30 4311 H 429.794 3.47101 -4.89164 0
M  V30 4312 H 431.473 3.43198 -5.48474 0
M  V30 4313 N 431.605 1.3629 0.791371 0
M  V30 4314 C 432.538 1.24816 1.9104 0
M  V30 4315 C 433.516 0.132739 1.62057 0
M  V30 4316 O 434.7 0.303527 1.8604 0
M  V30 4317 C 431.827 0.925355 3.25814 0
M  V30 4318 C 430.873 2.05495 3.7373 0
M  V30 4319 S 431.706 3.67255 3.89723 0
M  V30 4320 C 432.862 3.37084 5.27376 0
M  V30 4321 H 433.095 2.19533 2.00481 0
M  V30 4322 H 430.628 1.21684 0.950393 0
M  V30 4323 H 432.586 0.745924 4.03666 0
M  V30 4324 H 431.247 -0.00400098 3.141 0
M  V30 4325 H 430.44 1.7836 4.71385 0
M  V30 4326 H 430.042 2.1935 3.02922 0
M  V30 4327 H 432.334 2.90856 6.1189 0
M  V30 4328 H 433.277 4.33995 5.59512 0
M  V30 4329 H 433.685 2.7248 4.94383 0
M  V30 4330 N 433.083 -1.0153 1.20538 0
M  V30 4331 C 434.331 -1.74803 1.01432 0
M  V30 4332 C 434.652 -1.8963 -0.454456 0
M  V30 4333 O 433.922 -1.43975 -1.32846 0
M  V30 4334 H 432.502 -0.647598 0.372324 0
M  V30 4335 H 435.164 -1.22402 1.5167 0
M  V30 4336 H 434.26 -2.75114 1.47373 0
M  V30 4337 N 434.561 -1.01147 -1.20859 0
M  V30 4338 C 435.81 -0.693214 -1.89413 0
M  V30 4339 C 436.123 0.779969 -1.79376 0
M  V30 4340 O 437.329 1.21057 -2.43017 0
M  V30 4341 C 435.785 -1.18949 -3.39675 0
M  V30 4342 C 435.393 -2.68921 -3.58309 0
M  V30 4343 C 437.137 -0.94642 -4.13815 0
M  V30 4344 C 435.044 -3.12056 -5.0237 0
M  V30 4345 H 433.974 -0.255595 -0.709357 0
M  V30 4346 H 436.625 -1.22349 -1.36759 0
M  V30 4347 H 435.007 -0.587228 -3.91622 0
M  V30 4348 H 436.181 -3.34652 -3.16772 0
M  V30 4349 H 434.496 -2.91314 -2.97532 0
M  V30 4350 H 437.093 -1.24417 -5.20023 0
M  V30 4351 H 437.436 0.117219 -4.16135 0
M  V30 4352 H 437.969 -1.5118 -3.67953 0
M  V30 4353 H 434.708 -4.17674 -5.05202 0
M  V30 4354 H 434.228 -2.51041 -5.44737 0
M  V30 4355 H 435.907 -3.04403 -5.70918 0
M  V30 4356 N 436.039 1.36541 -0.78704 0
M  V30 4357 C 437.287 1.98911 -0.357633 0
M  V30 4358 C 437.608 1.62778 1.07371 0
M  V30 4359 O 436.878 0.900612 1.73971 0
M  V30 4360 H 435.458 0.735734 -0.129246 0
M  V30 4361 H 438.12 1.66776 -1.00855 0
M  V30 4362 H 437.216 3.08874 -0.447549 0
M  V30 4363 N 437.518 0.538854 1.48102 0
M  V30 4364 C 438.929 0.100679 1.86428 0
M  V30 4365 C 439.28 -1.32447 1.44749 0
M  V30 4366 O 438.405 -1.99339 0.842199 0
M  V30 4367 C 439 0.175933 3.38343 0
M  V30 4368 C 437.559 -0.207098 3.7583 0
M  V30 4369 C 436.706 0.531741 2.72154 0
M  V30 4370 H 439.657 0.749614 1.3988 0
M  V30 4371 H 439.678 -0.610144 3.75576 0
M  V30 4372 H 439.19 1.21328 3.68648 0
M  V30 4373 H 437.291 -1.24626 3.5114 0
M  V30 4374 H 437.404 0.138687 4.78899 0
M  V30 4375 H 435.768 -0.0230462 2.5469 0
M  V30 4376 H 436.551 1.56989 3.05302 0
M  V30 4377 N 438.996 -1.55193 0.274407 0
M  V30 4378 C 440.245 -1.98758 -0.343213 0
M  V30 4379 C 440.558 -1.16624 -1.5703 0
M  V30 4380 O 441.764 -1.5033 -2.26082 0
M  V30 4381 C 440.22 -3.53759 -0.661996 0
M  V30 4382 C 439.828 -4.4467 0.54524 0
M  V30 4383 C 441.572 -4.05916 -1.24228 0
M  V30 4384 C 439.479 -5.91058 0.201084 0
M  V30 4385 H 438.409 -0.742353 -0.132014 0
M  V30 4386 H 441.06 -1.79545 0.378948 0
M  V30 4387 H 439.442 -3.68772 -1.44304 0
M  V30 4388 H 440.616 -4.41426 1.32212 0
M  V30 4389 H 438.931 -4.03143 1.04232 0
M  V30 4390 H 441.528 -5.12831 -1.51357 0
M  V30 4391 H 441.871 -3.54908 -2.17592 0
M  V30 4392 H 442.404 -3.9434 -0.523542 0
M  V30 4393 H 439.143 -6.46161 1.10258 0
M  V30 4394 H 438.663 -5.97373 -0.539045 0
M  V30 4395 H 440.342 -6.46669 -0.206954 0
M  V30 4396 N 440.474 -0.00167713 -1.576 0
M  V30 4397 C 441.885 0.54091 -1.78693 0
M  V30 4398 C 442.236 1.7386 -0.909247 0
M  V30 4399 O 441.361 2.16109 -0.112176 0
M  V30 4400 C 441.956 0.98806 -3.24072 0
M  V30 4401 C 440.515 1.47594 -3.46256 0
M  V30 4402 C 439.662 0.42792 -2.73978 0
M  V30 4403 H 442.613 -0.22784 -1.57056 0
M  V30 4404 H 442.634 1.85398 -3.32277 0
M  V30 4405 H 442.146 0.116164 -3.87926 0
M  V30 4406 H 440.247 2.36868 -2.87618 0
M  V30 4407 H 440.36 1.50225 -4.54939 0
M  V30 4408 H 438.724 0.889934 -2.38647 0
M  V30 4409 H 439.507 -0.435038 -3.40532 0
M  V30 4410 N 441.952 1.55251 0.271103 0
M  V30 4411 C 442.915 1.87484 1.31842 0
M  V30 4412 C 443.915 0.749545 1.42262 0
M  V30 4413 O 445.105 1.01771 1.4138 0
M  V30 4414 C 442.237 2.0818 2.69951 0
M  V30 4415 H 443.43 2.81108 1.0449 0
M  V30 4416 H 440.983 1.47771 0.509258 0
M  V30 4417 H 441.718 1.16944 3.02481 0
M  V30 4418 H 441.503 2.90114 2.63774 0
M  V30 4419 H 442.993 2.34385 3.4562 0
M  V30 4420 N 443.43 -0.535701 1.48216 0
M  V30 4421 C 444.679 -1.28828 1.55197 0
M  V30 4422 C 444.992 -1.94263 0.228278 0
M  V30 4423 O 446.198 -2.70927 0.176278 0
M  V30 4424 C 444.654 -2.33727 2.73678 0
M  V30 4425 C 444.262 -1.74386 4.12666 0
M  V30 4426 C 446.006 -3.1003 2.89968 0
M  V30 4427 C 443.913 -2.77192 5.22416 0
M  V30 4428 H 442.843 -0.484484 0.577747 0
M  V30 4429 H 445.494 -0.56646 1.74538 0
M  V30 4430 H 443.876 -3.08919 2.4776 0
M  V30 4431 H 445.05 -1.05421 4.48579 0
M  V30 4432 H 443.365 -1.10595 4.01445 0
M  V30 4433 H 445.962 -3.86842 3.6913 0
M  V30 4434 H 446.305 -3.65542 1.9921 0
M  V30 4435 H 446.838 -2.41952 3.15759 0
M  V30 4436 H 443.577 -2.26507 6.15122 0
M  V30 4437 H 443.097 -3.44502 4.90998 0
M  V30 4438 H 444.776 -3.40285 5.50286 0
M  V30 4439 N 444.908 -1.36708 -0.784132 0
M  V30 4440 C 445.855 -1.31466 -1.89698 0
M  V30 4441 C 446.825 -0.18239 -1.65096 0
M  V30 4442 O 448.01 -0.369762 -1.87183 0
M  V30 4443 C 445.15 -1.1151 -3.26588 0
M  V30 4444 C 444.263 -2.33859 -3.63227 0
M  V30 4445 C 443.398 -2.06873 -4.89262 0
M  V30 4446 C 442.437 -3.25154 -5.18595 0
M  V30 4447 N 441.574 -2.978 -6.35814 0
M  V30 4448 H 446.414 -2.26619 -1.93515 0
M  V30 4449 H 443.951 -1.12625 -0.946256 0
M  V30 4450 H 445.909 -0.979653 -4.05535 0
M  V30 4451 H 444.539 -0.200103 -3.22179 0
M  V30 4452 H 443.591 -2.58188 -2.79362 0
M  V30 4453 H 444.903 -3.22109 -3.8085 0
M  V30 4454 H 444.057 -1.90289 -5.76086 0
M  V30 4455 H 442.796 -1.15942 -4.73718 0
M  V30 4456 H 441.801 -3.42292 -4.30251 0
M  V30 4457 H 443.026 -4.1692 -5.36055 0
M  V30 4458 H 440.972 -2.09485 -6.21653 0
M  V30 4459 H 440.889 -3.7959 -6.53794 0
M  V30 4460 H 442.157 -2.84805 -7.25607 0
M  V30 4461 N 446.386 1.0089 -1.21074 0
M  V30 4462 C 447.318 2.09737 -0.924291 0
M  V30 4463 C 448.331 1.62546 0.0909809 0
M  V30 4464 O 449.52 1.77942 -0.141021 0
M  V30 4465 C 446.62 3.36922 -0.36559 0
M  V30 4466 C 445.793 4.13216 -1.43426 0
M  V30 4467 C 444.852 5.18696 -0.885496 0
M  V30 4468 O 443.878 5.47176 -1.56801 0
M  V30 4469 N 445.08 5.79718 0.301227 0
M  V30 4470 H 447.845 2.34895 -1.8613 0
M  V30 4471 H 445.406 1.17341 -1.11546 0
M  V30 4472 H 447.398 4.04697 0.0158407 0
M  V30 4473 H 445.968 3.08952 0.476149 0
M  V30 4474 H 445.188 3.40301 -1.9897 0
M  V30 4475 H 446.476 4.60967 -2.15376 0
M  V30 4476 H 445.874 5.58926 0.872849 0
M  V30 4477 H 444.431 6.48804 0.624211 0
M  V30 4478 N 447.864 1.01787 1.20321 0
M  V30 4479 C 448.827 0.593972 2.2137 0
M  V30 4480 C 449.827 -0.336553 1.57239 0
M  V30 4481 O 451.017 -0.125069 1.7375 0
M  V30 4482 C 448.149 -0.132433 3.40643 0
M  V30 4483 H 449.342 1.48791 2.60387 0
M  V30 4484 H 446.895 0.807803 1.33807 0
M  V30 4485 H 447.63 -1.04123 3.0713 0
M  V30 4486 H 447.415 0.53605 3.88418 0
M  V30 4487 H 448.905 -0.416314 4.1552 0
M  V30 4488 N 449.342 -1.36122 0.79427 0
M  V30 4489 C 450.588 -1.99406 0.369452 0
M  V30 4490 C 450.921 -1.62886 -1.05743 0
M  V30 4491 O 450.196 -0.886053 -1.73145 0
M  V30 4492 C 450.479 -3.56046 0.538833 0
M  V30 4493 C 450.332 -4.02404 2.00976 0
M  V30 4494 C 451.651 -4.40079 -0.0431359 0
M  V30 4495 H 448.77 -0.724397 0.135712 0
M  V30 4496 H 451.412 -1.61461 1.00151 0
M  V30 4497 H 449.562 -3.885 0.000771004 0
M  V30 4498 H 451.234 -3.80415 2.60926 0
M  V30 4499 H 449.477 -3.53765 2.51063 0
M  V30 4500 H 450.148 -5.11344 2.07922 0
M  V30 4501 H 452.624 -4.14013 0.416228 0
M  V30 4502 H 451.5 -5.48799 0.105374 0
M  V30 4503 H 451.761 -4.27264 -1.13571 0
M  V30 4504 N 450.82 -0.546701 -1.47814 0
M  V30 4505 C 452.048 -0.0232857 -2.06887 0
M  V30 4506 C 452.463 1.26571 -1.4009 0
M  V30 4507 O 451.82 1.7569 -0.493906 0
M  V30 4508 C 451.871 0.186975 -3.61016 0
M  V30 4509 O 451.592 -1.05097 -4.25307 0
M  V30 4510 C 453.093 0.748872 -4.36929 0
M  V30 4511 H 450.313 -0.0410763 -0.669742 0
M  V30 4512 H 452.857 -0.757117 -1.89968 0
M  V30 4513 H 451.012 0.870903 -3.77484 0
M  V30 4514 H 451.426 -0.842121 -5.17695 0
M  V30 4515 H 452.9 0.845334 -5.45489 0
M  V30 4516 H 453.377 1.75772 -4.02493 0
M  V30 4517 H 453.983 0.100979 -4.2518 0
M  V30 4518 N 452.299 1.55045 -0.282633 0
M  V30 4519 C 453.246 2.22822 0.601566 0
M  V30 4520 C 454.216 1.20431 1.14392 0
M  V30 4521 O 455.401 1.48996 1.19184 0
M  V30 4522 C 452.541 2.95873 1.77632 0
M  V30 4523 C 451.654 4.12999 1.26711 0
M  V30 4524 C 450.789 4.73676 2.40426 0
M  V30 4525 C 449.828 5.82981 1.86545 0
M  V30 4526 N 448.965 6.3769 2.93762 0
M  V30 4527 H 453.805 2.97995 0.0169528 0
M  V30 4528 H 451.342 1.471 -0.00339964 0
M  V30 4529 H 453.3 3.36447 2.46697 0
M  V30 4530 H 451.93 2.2311 2.33285 0
M  V30 4531 H 450.982 3.77494 0.469314 0
M  V30 4532 H 452.294 4.91803 0.832518 0
M  V30 4533 H 451.448 5.17008 3.17471 0
M  V30 4534 H 450.187 3.94164 2.87203 0
M  V30 4535 H 449.192 5.39092 1.07983 0
M  V30 4536 H 450.417 6.64366 1.40694 0
M  V30 4537 H 448.363 5.61069 3.39908 0
M  V30 4538 H 448.28 7.11788 2.54744 0
M  V30 4539 H 449.548 6.8568 3.7076 0
M  V30 4540 N 453.777 0.010035 1.57597 0
M  V30 4541 C 454.74 -0.963029 2.07986 0
M  V30 4542 C 455.74 -1.26619 0.991173 0
M  V30 4543 O 456.93 -1.2097 1.25347 0
M  V30 4544 C 454.062 -2.2851 2.52974 0
M  V30 4545 H 455.255 -0.526971 2.95234 0
M  V30 4546 H 452.808 -0.237639 1.54483 0
M  V30 4547 H 453.543 -2.76784 1.69 0
M  V30 4548 H 453.328 -2.07824 3.32493 0
M  V30 4549 H 454.818 -2.98294 2.9225 0
M  V30 4550 N 455.255 -1.55392 -0.262866 0
M  V30 4551 C 456.503 -1.76127 -0.991147 0
M  V30 4552 C 456.824 -0.571083 -1.8645 0
M  V30 4553 O 456.094 0.413698 -1.91482 0
M  V30 4554 H 454.674 -0.649528 -0.368948 0
M  V30 4555 H 457.336 -1.9281 -0.284655 0
M  V30 4556 H 456.432 -2.6663 -1.62219 0
M  V30 4557 N 456.733 0.527833 -1.48498 0
M  V30 4558 C 457.979 1.28295 -1.57836 0
M  V30 4559 C 458.334 1.9077 -0.249943 0
M  V30 4560 O 457.627 1.76421 0.747402 0
M  V30 4561 C 457.821 2.39275 -2.65485 0
M  V30 4562 C 457.65 1.87679 -4.08664 0
M  V30 4563 C 456.42 1.70187 -4.75778 0
M  V30 4564 C 458.618 1.40409 -4.94762 0
M  V30 4565 N 456.6 1.13238 -6.03366 0
M  V30 4566 C 457.971 0.954216 -6.12613 0
M  V30 4567 C 460.026 1.28732 -4.8097 0
M  V30 4568 C 458.729 0.39915 -7.18192 0
M  V30 4569 C 460.755 0.746244 -5.86673 0
M  V30 4570 C 460.117 0.306457 -7.03733 0
M  V30 4571 H 456.216 0.460408 -0.632099 0
M  V30 4572 H 458.8 0.594913 -1.85388 0
M  V30 4573 H 456.971 3.05572 -2.3975 0
M  V30 4574 H 458.703 3.06308 -2.64495 0
M  V30 4575 H 455.458 1.93772 -4.32145 0
M  V30 4576 H 455.882 0.867687 -6.71417 0
M  V30 4577 H 460.524 1.61338 -3.90807 0
M  V30 4578 H 458.242 0.0607678 -8.08077 0
M  V30 4579 H 461.828 0.659041 -5.78055 0
M  V30 4580 H 460.708 -0.105708 -7.84129 0
M  V30 4581 N 458.211 1.37122 0.776871 0
M  V30 4582 C 459.436 1.354 1.57104 0
M  V30 4583 C 459.861 -0.0595562 1.88006 0
M  V30 4584 O 459.219 -1.03514 1.48844 0
M  V30 4585 C 459.267 2.19472 2.8612 0
M  V30 4586 O 458.371 1.59582 3.80273 0
M  V30 4587 H 457.712 0.462869 0.476076 0
M  V30 4588 H 460.242 1.80577 0.961932 0
M  V30 4589 H 460.252 2.32502 3.35271 0
M  V30 4590 H 458.927 3.22222 2.62956 0
M  V30 4591 H 457.504 1.55564 3.38902 0
M  V30 4592 N 459.689 -1.00246 1.21608 0
M  V30 4593 C 460.619 -2.10921 1.00172 0
M  V30 4594 C 461.6 -1.69938 -0.0741587 0
M  V30 4595 O 462.785 -1.94009 0.0861753 0
M  V30 4596 C 459.915 -3.42618 0.568355 0
M  V30 4597 C 458.869 -3.97407 1.58909 0
M  V30 4598 C 458.195 -5.25038 1.01187 0
M  V30 4599 C 459.495 -4.2918 2.97661 0
M  V30 4600 H 461.189 -2.29112 1.92739 0
M  V30 4601 H 458.735 -1.10101 0.928102 0
M  V30 4602 H 460.688 -4.19444 0.405555 0
M  V30 4603 H 459.412 -3.24227 -0.392961 0
M  V30 4604 H 458.071 -3.22703 1.73949 0
M  V30 4605 H 457.719 -5.02982 0.0421965 0
M  V30 4606 H 457.419 -5.62661 1.6937 0
M  V30 4607 H 458.943 -6.04507 0.860448 0
M  V30 4608 H 460.357 -4.96839 2.86049 0
M  V30 4609 H 458.754 -4.77952 3.6288 0
M  V30 4610 H 459.824 -3.3735 3.48315 0
M  V30 4611 N 461.167 -1.02423 -1.1978 0
M  V30 4612 C 462.077 -0.610919 -2.26506 0
M  V30 4613 C 463.093 0.355152 -1.70337 0
M  V30 4614 O 464.269 0.214195 -2.00258 0
M  V30 4615 C 461.334 0.0365921 -3.46681 0
M  V30 4616 C 460.395 -0.976389 -4.18049 0
M  V30 4617 C 459.628 -0.359683 -5.32487 0
M  V30 4618 O 459.851 0.838601 -5.64202 0
M  V30 4619 O 458.785 -1.08022 -5.92127 0
M  V30 4620 H 462.611 -1.49965 -2.64091 0
M  V30 4621 H 460.196 -0.794156 -1.26545 0
M  V30 4622 H 462.078 0.39786 -4.19518 0
M  V30 4623 H 460.753 0.899398 -3.10954 0
M  V30 4624 H 459.66 -1.38916 -3.47352 0
M  V30 4625 H 460.993 -1.80941 -4.57735 0
M  V30 4626 N 462.645 1.35699 -0.801477 0
M  V30 4627 C 463.922 1.9324 -0.302937 0
M  V30 4628 C 464.302 1.73209 1.20672 0
M  V30 4629 O 463.65 1.09809 2.00385 0
M  V30 4630 C 463.86 3.41728 -0.708747 0
M  V30 4631 C 465.208 4.18868 -0.695328 0
M  V30 4632 O 466.232 3.5022 -0.649971 0
M  V30 4633 O 465.091 5.41342 -0.749081 0
M  V30 4634 H 462.185 0.82331 -0.0780367 0
M  V30 4635 H 464.731 1.44806 -0.884832 0
M  V30 4636 H 463.503 3.50015 -1.74944 0
M  V30 4637 H 463.126 3.97471 -0.101384 0
M  V30 4638 N 464.123 0.554532 1.47522 0
M  V30 4639 C 465.369 0.0295227 2.02779 0
M  V30 4640 C 465.702 -1.31582 1.42828 0
M  V30 4641 O 464.977 -1.85561 0.582872 0
M  V30 4642 C 465.26 -0.0664057 3.60039 0
M  V30 4643 C 465.113 1.30585 4.30427 0
M  V30 4644 C 466.432 -0.781162 4.33112 0
M  V30 4645 H 463.551 0.0122027 0.736899 0
M  V30 4646 H 466.193 0.716305 1.7598 0
M  V30 4647 H 464.343 -0.651307 3.83002 0
M  V30 4648 H 466.015 1.93374 4.18813 0
M  V30 4649 H 464.258 1.88125 3.90886 0
M  V30 4650 H 464.929 1.19147 5.38988 0
M  V30 4651 H 467.405 -0.284565 4.15126 0
M  V30 4652 H 466.281 -0.817237 5.42782 0
M  V30 4653 H 466.542 -1.83672 4.0214 0
M  V30 4654 N 465.601 -1.54893 0.290851 0
M  V30 4655 C 466.878 -1.91991 -0.373989 0
M  V30 4656 C 467.258 -1.21694 -1.72493 0
M  V30 4657 O 466.606 -0.34917 -2.25816 0
M  V30 4658 C 466.816 -3.45419 -0.498703 0
M  V30 4659 C 468.164 -4.1748 -0.774298 0
M  V30 4660 O 469.188 -3.51398 -0.582908 0
M  V30 4661 O 468.047 -5.3445 -1.14129 0
M  V30 4662 H 465.141 -0.800593 -0.207315 0
M  V30 4663 H 467.687 -1.66297 0.338164 0
M  V30 4664 H 466.459 -3.88688 0.451392 0
M  V30 4665 H 466.082 -3.77117 -1.25972 0
M  V30 4666 N 467.08 -0.0183926 -1.57589 0
M  V30 4667 C 468.329 0.66185 -1.90532 0
M  V30 4668 C 468.642 1.73904 -0.895366 0
M  V30 4669 O 469.848 2.47518 -1.11566 0
M  V30 4670 C 468.304 1.22844 -3.38286 0
M  V30 4671 C 467.912 0.185103 -4.47617 0
M  V30 4672 C 469.656 1.88581 -3.80312 0
M  V30 4673 C 467.563 0.762723 -5.86461 0
M  V30 4674 H 466.493 0.250972 -0.711006 0
M  V30 4675 H 469.144 -0.0819435 -1.83317 0
M  V30 4676 H 467.526 2.0235 -3.40398 0
M  V30 4677 H 468.7 -0.58671 -4.5705 0
M  V30 4678 H 467.015 -0.372889 -4.14727 0
M  V30 4679 H 469.612 2.32735 -4.81392 0
M  V30 4680 H 469.955 2.72408 -3.14801 0
M  V30 4681 H 470.488 1.15782 -3.80578 0
M  V30 4682 H 467.227 -0.0371713 -6.55489 0
M  V30 4683 H 466.747 1.50327 -5.80656 0
M  V30 4684 H 468.426 1.25576 -6.34697 0
M  V30 4685 N 468.558 1.5553 0.254621 0
M  V30 4686 C 469.805 1.77 0.983736 0
M  V30 4687 C 470.133 0.58133 1.85609 0
M  V30 4688 O 469.388 -0.435621 1.9079 0
M  V30 4689 C 469.687 3.03891 1.88109 0
M  V30 4690 C 469.353 4.35597 1.16472 0
M  V30 4691 C 468.015 4.7139 0.966714 0
M  V30 4692 C 470.367 5.1705 0.656387 0
M  V30 4693 C 467.695 5.86176 0.247942 0
M  V30 4694 C 470.047 6.32581 -0.0488807 0
M  V30 4695 C 468.711 6.67 -0.258438 0
M  V30 4696 H 467.981 0.647688 0.359974 0
M  V30 4697 H 470.628 1.89802 0.254463 0
M  V30 4698 H 468.933 2.86068 2.67717 0
M  V30 4699 H 470.63 3.17701 2.44677 0
M  V30 4700 H 467.22 4.07475 1.32899 0
M  V30 4701 H 471.404 4.8986 0.796933 0
M  V30 4702 H 466.66 6.11354 0.075035 0
M  V30 4703 H 470.834 6.94942 -0.450444 0
M  V30 4704 H 468.461 7.55793 -0.817358 0
M  V30 4705 N 470.036 -0.519951 1.48776 0
M  V30 4706 C 470.946 -1.65025 1.66745 0
M  V30 4707 C 471.962 -1.6508 0.549954 0
M  V30 4708 O 473.138 -1.83848 0.822295 0
M  V30 4709 C 470.203 -3.0146 1.71238 0
M  V30 4710 C 469.264 -3.12182 2.94688 0
M  V30 4711 C 468.497 -4.42109 2.98958 0
M  V30 4712 O 468.72 -5.29799 2.1135 0
M  V30 4713 O 467.654 -4.57406 3.91233 0
M  V30 4714 H 471.48 -1.52801 2.62461 0
M  V30 4715 H 469.065 -0.694157 1.32294 0
M  V30 4716 H 470.947 -3.82584 1.76657 0
M  V30 4717 H 469.622 -3.13988 0.786975 0
M  V30 4718 H 468.529 -2.30316 2.94797 0
M  V30 4719 H 469.862 -3.04574 3.86646 0
M  V30 4720 N 471.514 -1.37532 -0.769588 0
M  V30 4721 C 472.763 -1.32183 -1.5235 0
M  V30 4722 C 473.076 0.0906555 -1.9539 0
M  V30 4723 O 474.282 0.266628 -2.70188 0
M  V30 4724 C 472.738 -2.32029 -2.75119 0
M  V30 4725 C 472.346 -3.78816 -2.3917 0
M  V30 4726 C 474.09 -2.35694 -3.53056 0
M  V30 4727 C 471.997 -4.70388 -3.58453 0
M  V30 4728 H 470.927 -0.491275 -0.571984 0
M  V30 4729 H 473.578 -1.63004 -0.842739 0
M  V30 4730 H 471.96 -1.94229 -3.45096 0
M  V30 4731 H 473.134 -4.25466 -1.76962 0
M  V30 4732 H 471.449 -3.78117 -1.74402 0
M  V30 4733 H 474.046 -3.01312 -4.41718 0
M  V30 4734 H 474.389 -1.37117 -3.93071 0
M  V30 4735 H 474.922 -2.72212 -2.90078 0
M  V30 4736 H 471.661 -5.70102 -3.23518 0
M  V30 4737 H 471.181 -4.28442 -4.19758 0
M  V30 4738 H 472.86 -4.87628 -4.25239 0
M  V30 4739 N 472.992 0.995999 -1.22138 0
M  V30 4740 C 473.94 2.10673 -0.985876 0
M  V30 4741 C 474.934 1.69255 0.0699553 0
M  V30 4742 O 476.14 1.79812 -0.0822176 0
M  V30 4743 H 472.515 0.688865 -0.30161 0
M  V30 4744 H 474.486 2.27711 -1.92848 0
M  V30 4745 C 473.235 3.42881 -0.576909 0
M  V30 4746 H 472.558 3.75191 -1.38101 0
M  V30 4747 H 473.998 4.21589 -0.451518 0
M  V30 4748 C 472.457 3.29265 0.713196 0
M  V30 4749 O 472.987 3.60777 1.76643 0
M  V30 4750 N 471.193 2.82456 0.683162 0
M  V30 4751 H 470.74 2.5701 -0.174242 0
M  V30 4752 H 470.698 2.73727 1.54663 0
M  V30 4753 N 474.47 1.03057 1.19235 0
M  V30 4754 C 475.38 0.622922 2.26179 0
M  V30 4755 C 476.396 -0.346113 1.70523 0
M  V30 4756 O 477.572 -0.203572 2.00369 0
M  V30 4757 C 474.637 -0.0182063 3.46695 0
M  V30 4758 C 473.698 0.998546 4.17526 0
M  V30 4759 C 472.931 0.387917 5.32288 0
M  V30 4760 O 473.154 -0.808668 5.64639 0
M  V30 4761 O 472.088 1.1116 5.91546 0
M  V30 4762 H 475.914 1.51363 2.63292 0
M  V30 4763 H 473.499 0.800856 1.26122 0
M  V30 4764 H 475.381 -0.375606 4.19723 0
M  V30 4765 H 474.056 -0.882895 3.11427 0
M  V30 4766 H 472.963 1.40756 3.4661 0
M  V30 4767 H 474.296 1.83366 4.56769 0
M  V30 4768 N 475.948 -1.35272 0.808662 0
M  V30 4769 C 476.911 -2.28082 0.226093 0
M  V30 4770 C 477.911 -1.49673 -0.587762 0
M  V30 4771 O 479.101 -1.69404 -0.405943 0
M  V30 4772 C 476.233 -3.33955 -0.684596 0
M  V30 4773 H 477.426 -2.81116 1.04469 0
M  V30 4774 H 474.979 -1.45162 0.579466 0
M  V30 4775 H 475.714 -2.86111 -1.5268 0
M  V30 4776 H 475.499 -3.91965 -0.102699 0
M  V30 4777 H 476.989 -4.03219 -1.08646 0
M  V30 4778 N 477.426 -0.562348 -1.47226 0
M  V30 4779 C 478.673 -0.0402165 -2.0246 0
M  V30 4780 C 479.001 1.31169 -1.43614 0
M  V30 4781 O 478.256 1.86805 -0.5833 0
M  V30 4782 C 478.555 0.0969817 -3.57268 0
M  V30 4783 C 478.221 -1.1847 -4.35058 0
M  V30 4784 C 476.883 -1.53588 -4.56031 0
M  V30 4785 C 479.235 -2.03378 -4.79882 0
M  V30 4786 C 476.563 -2.73452 -5.19077 0
M  V30 4787 C 478.915 -3.2245 -5.44251 0
M  V30 4788 C 477.579 -3.57876 -5.63455 0
M  V30 4789 H 476.849 -0.0147163 -0.740854 0
M  V30 4790 H 479.496 -0.734895 -1.76838 0
M  V30 4791 H 477.801 0.87466 -3.81912 0
M  V30 4792 H 479.498 0.516408 -3.97661 0
M  V30 4793 H 476.088 -0.90126 -4.19017 0
M  V30 4794 H 480.272 -1.77553 -4.63453 0
M  V30 4795 H 475.528 -3.01062 -5.32139 0
M  V30 4796 H 479.702 -3.88526 -5.77945 0
M  V30 4797 H 477.329 -4.50849 -6.12078 0
M  V30 4798 N 478.904 1.54736 -0.299062 0
M  V30 4799 C 479.867 2.22127 0.565012 0
M  V30 4800 C 480.867 1.20669 1.06281 0
M  V30 4801 O 482.057 1.45417 0.959145 0
M  V30 4802 C 479.189 2.90611 1.78208 0
M  V30 4803 H 480.382 2.99891 -0.0237448 0
M  V30 4804 H 477.935 1.5622 -0.0498788 0
M  V30 4805 H 478.67 2.16921 2.41072 0
M  V30 4806 H 478.455 3.64984 1.43281 0
M  V30 4807 H 479.945 3.42026 2.396 0
M  V30 4808 N 480.382 0.0267497 1.57577 0
M  V30 4809 C 481.345 -0.940916 2.08996 0
M  V30 4810 C 482.345 -1.25561 1.00455 0
M  V30 4811 O 483.535 -1.19634 1.26623 0
M  V30 4812 C 480.667 -2.25814 2.55384 0
M  V30 4813 H 481.86 -0.495628 2.95776 0
M  V30 4814 H 479.413 -0.221241 1.54726 0
M  V30 4815 H 480.148 -2.74976 1.71926 0
M  V30 4816 H 479.933 -2.04285 3.34679 0
M  V30 4817 H 481.423 -2.95178 2.95398 0
M  V30 4818 N 481.861 -1.55662 -0.24637 0
M  V30 4819 C 483.107 -1.77782 -0.975779 0
M  V30 4820 C 483.44 -0.592103 -1.84953 0
M  V30 4821 O 482.715 0.409588 -1.90138 0
M  V30 4822 C 482.998 -3.09788 -1.83584 0
M  V30 4823 C 482.851 -4.38764 -0.990241 0
M  V30 4824 C 484.17 -3.38029 -2.81823 0
M  V30 4825 H 481.289 -0.646789 -0.353317 0
M  V30 4826 H 483.931 -1.88398 -0.246248 0
M  V30 4827 H 482.081 -3.00869 -2.45784 0
M  V30 4828 H 483.753 -4.59675 -0.386897 0
M  V30 4829 H 481.996 -4.32798 -0.294626 0
M  V30 4830 H 482.667 -5.27514 -1.62584 0
M  V30 4831 H 485.143 -3.46915 -2.2976 0
M  V30 4832 H 484.019 -4.3161 -3.39122 0
M  V30 4833 H 484.28 -2.58968 -3.58313 0
M  V30 4834 N 483.339 0.512053 -1.4905 0
M  V30 4835 C 484.564 1.2959 -1.6193 0
M  V30 4836 C 484.989 1.85906 -0.286454 0
M  V30 4837 O 484.347 1.65312 0.744426 0
M  V30 4838 C 484.395 2.40987 -2.68249 0
M  V30 4839 O 483.499 3.44531 -2.26654 0
M  V30 4840 H 482.84 0.383053 -0.542371 0
M  V30 4841 H 485.37 0.614231 -1.95162 0
M  V30 4842 H 485.38 2.86913 -2.90078 0
M  V30 4843 H 484.055 1.99361 -3.65004 0
M  V30 4844 H 482.632 3.046 -2.15112 0
M  V30 4845 N 484.817 1.37938 0.762283 0
M  V30 4846 C 485.78 1.34279 1.85747 0
M  V30 4847 C 486.78 0.244969 1.58923 0
M  V30 4848 O 487.97 0.501365 1.66829 0
M  V30 4849 C 485.102 1.08833 3.23061 0
M  V30 4850 H 486.295 2.31705 1.90401 0
M  V30 4851 H 483.848 1.23105 0.963057 0
M  V30 4852 H 484.583 0.119767 3.24079 0
M  V30 4853 H 484.368 1.88306 3.43923 0
M  V30 4854 H 485.858 1.08946 4.03138 0
M  V30 4855 N 486.295 -0.989507 1.22664 0
M  V30 4856 C 487.258 -2.06183 1.00106 0
M  V30 4857 C 488.258 -1.60765 -0.0337726 0
M  V30 4858 O 489.448 -1.72989 0.205072 0
M  V30 4859 C 486.58 -3.37021 0.51279 0
M  V30 4860 H 487.773 -2.27629 1.95256 0
M  V30 4861 H 485.326 -1.16158 1.0458 0
M  V30 4862 H 486.061 -3.21261 -0.442917 0
M  V30 4863 H 485.846 -3.71323 1.25942 0
M  V30 4864 H 487.336 -4.1591 0.375315 0
M  V30 4865 N 487.773 -1.03688 -1.18687 0
M  V30 4866 C 489.022 -0.733235 -1.879 0
M  V30 4867 C 489.335 0.741745 -1.8099 0
M  V30 4868 O 490.541 1.15875 -2.4553 0
M  V30 4869 C 488.997 -1.26127 -3.37076 0
M  V30 4870 C 488.605 -2.76461 -3.52524 0
M  V30 4871 C 490.349 -1.03398 -4.11715 0
M  V30 4872 C 488.256 -3.22642 -4.95637 0
M  V30 4873 H 487.186 -0.270584 -0.703776 0
M  V30 4874 H 489.837 -1.25222 -1.34133 0
M  V30 4875 H 488.219 -0.670165 -3.90288 0
M  V30 4876 H 489.393 -3.41296 -3.09602 0
M  V30 4877 H 487.708 -2.97559 -2.91286 0
M  V30 4878 H 490.305 -1.3542 -5.17267 0
M  V30 4879 H 490.648 0.0289246 -4.1629 0
M  V30 4880 H 491.181 -1.5895 -3.64664 0
M  V30 4881 H 487.92 -4.28296 -4.96228 0
M  V30 4882 H 487.44 -2.62539 -5.39289 0
M  V30 4883 H 489.119 -3.16444 -5.64333 0
M  V30 4884 N 489.251 1.34841 -0.815825 0
M  V30 4885 C 490.497 1.98793 -0.401129 0
M  V30 4886 C 490.83 1.64548 1.03139 0
M  V30 4887 O 490.105 0.913487 1.71714 0
M  V30 4888 C 490.388 3.55143 -0.595409 0
M  V30 4889 C 490.241 3.99155 -2.07352 0
M  V30 4890 C 491.56 4.40092 -0.0268823 0
M  V30 4891 H 488.679 0.722146 -0.14722 0
M  V30 4892 H 491.321 1.59847 -1.02707 0
M  V30 4893 H 489.471 3.8845 -0.0625779 0
M  V30 4894 H 491.143 3.76216 -2.66945 0
M  V30 4895 H 489.386 3.49726 -2.56659 0
M  V30 4896 H 490.057 5.07971 -2.1603 0
M  V30 4897 H 492.533 4.13298 -0.482042 0
M  V30 4898 H 491.409 5.48562 -0.19267 0
M  V30 4899 H 491.67 4.29016 1.06759 0
M  V30 4900 N 490.729 0.570148 1.46925 0
M  V30 4901 C 491.676 -0.170257 2.30171 0
M  V30 4902 C 492.646 -0.896099 1.39855 0
M  V30 4903 O 493.831 -0.889248 1.68811 0
M  V30 4904 C 490.971 -1.18605 3.24079 0
M  V30 4905 C 490.084 -0.464947 4.29491 0
M  V30 4906 C 489.219 -1.46716 5.10537 0
M  V30 4907 C 488.258 -0.731758 6.0771 0
M  V30 4908 N 487.395 -1.68142 6.81669 0
M  V30 4909 H 492.235 0.545713 2.92961 0
M  V30 4910 H 489.772 0.280938 1.44392 0
M  V30 4911 H 491.73 -1.78771 3.76957 0
M  V30 4912 H 490.36 -1.86989 2.63125 0
M  V30 4913 H 489.412 0.251506 3.79568 0
M  V30 4914 H 490.724 0.110548 4.98677 0
M  V30 4915 H 489.878 -2.14199 5.6763 0
M  V30 4916 H 488.617 -2.07658 4.41282 0
M  V30 4917 H 487.622 -0.0430787 5.49783 0
M  V30 4918 H 488.847 -0.127904 6.7898 0
M  V30 4919 H 486.793 -2.27918 6.15134 0
M  V30 4920 H 486.71 -1.15841 7.47072 0
M  V30 4921 H 487.978 -2.347 7.43328 0
M  V30 4922 N 492.207 -1.54576 0.307264 0
M  V30 4923 C 493.117 -2.27435 -0.57536 0
M  V30 4924 C 494.133 -1.31183 -1.14311 0
M  V30 4925 O 495.309 -1.64175 -1.16656 0
M  V30 4926 C 492.374 -3.00566 -1.72803 0
M  V30 4927 C 491.435 -4.12369 -1.19373 0
M  V30 4928 C 490.668 -4.82003 -2.29147 0
M  V30 4929 O 490.891 -4.51038 -3.49171 0
M  V30 4930 O 489.825 -5.69271 -1.95485 0
M  V30 4931 H 493.651 -3.03696 0.0158558 0
M  V30 4932 H 491.236 -1.49219 0.0735064 0
M  V30 4933 H 493.118 -3.46416 -2.39946 0
M  V30 4934 H 491.793 -2.27195 -2.30574 0
M  V30 4935 H 490.7 -3.70905 -0.487851 0
M  V30 4936 H 492.033 -4.87736 -0.661376 0
M  V30 4937 N 493.685 -0.035106 -1.57561 0
M  V30 4938 C 494.615 0.942993 -2.13612 0
M  V30 4939 C 495.596 1.33531 -1.05373 0
M  V30 4940 O 496.781 1.41287 -1.33235 0
M  V30 4941 C 493.911 2.22332 -2.66807 0
M  V30 4942 C 492.865 1.97156 -3.79886 0
M  V30 4943 C 492.191 3.31506 -4.19533 0
M  V30 4944 C 493.491 1.30596 -5.05709 0
M  V30 4945 H 495.185 0.476179 -2.95589 0
M  V30 4946 H 492.731 0.227602 -1.4219 0
M  V30 4947 H 494.684 2.91142 -3.04654 0
M  V30 4948 H 493.408 2.7119 -1.81999 0
M  V30 4949 H 492.067 1.30763 -3.42486 0
M  V30 4950 H 491.715 3.78134 -3.31698 0
M  V30 4951 H 491.415 3.15465 -4.95738 0
M  V30 4952 H 492.939 4.01574 -4.59968 0
M  V30 4953 H 494.353 1.89416 -5.41105 0
M  V30 4954 H 492.75 1.24934 -5.86951 0
M  V30 4955 H 493.82 0.279742 -4.84092 0
M  V30 4956 N 495.163 1.55791 0.238111 0
M  V30 4957 C 496.411 1.77681 0.963001 0
M  V30 4958 C 496.732 0.600674 1.85518 0
M  V30 4959 O 496.002 -0.383182 1.92116 0
M  V30 4960 H 494.582 0.655315 0.358568 0
M  V30 4961 H 497.244 1.93239 0.253945 0
M  V30 4962 H 496.34 2.69177 1.57956 0
M  V30 4963 N 496.642 -0.504142 1.49319 0
M  V30 4964 C 497.572 -1.61473 1.68667 0
M  V30 4965 C 498.553 -1.61455 0.535378 0
M  V30 4966 O 499.738 -1.78245 0.770868 0
M  V30 4967 C 496.868 -2.99971 1.75028 0
M  V30 4968 C 495.822 -3.14854 2.89916 0
M  V30 4969 C 495.148 -4.54671 2.81387 0
M  V30 4970 C 496.448 -2.95176 4.30893 0
M  V30 4971 H 498.142 -1.45535 2.61648 0
M  V30 4972 H 495.688 -0.698711 1.25913 0
M  V30 4973 H 497.641 -3.77562 1.8715 0
M  V30 4974 H 496.365 -3.1699 0.786441 0
M  V30 4975 H 495.024 -2.39687 2.77391 0
M  V30 4976 H 494.672 -4.68562 1.82917 0
M  V30 4977 H 494.372 -4.6557 3.58494 0
M  V30 4978 H 495.896 -5.34327 2.95512 0
M  V30 4979 H 497.31 -3.62538 4.44116 0
M  V30 4980 H 495.707 -3.17549 5.09198 0
M  V30 4981 H 496.777 -1.91332 4.45556 0
M  V30 4982 N 498.12 -1.38341 -0.754957 0
M  V30 4983 C 499.068 -1.35573 -1.89005 0
M  V30 4984 C 500.062 -0.241824 -1.67665 0
M  V30 4985 O 501.268 -0.410785 -1.7525 0
M  V30 4986 H 497.643 -0.422898 -0.621821 0
M  V30 4987 H 499.614 -2.31359 -1.88455 0
M  V30 4988 C 498.363 -1.19631 -3.26471 0
M  V30 4989 H 497.686 -2.04605 -3.43477 0
M  V30 4990 H 499.126 -1.21748 -4.06144 0
M  V30 4991 C 497.585 0.0968705 -3.36761 0
M  V30 4992 O 498.115 1.07439 -3.87066 0
M  V30 4993 N 496.321 0.153242 -2.90196 0
M  V30 4994 H 495.868 -0.642908 -2.49448 0
M  V30 4995 H 495.826 1.01807 -2.9746 0
M  V30 4996 N 499.598 0.982988 -1.23187 0
M  V30 4997 C 501.009 1.53847 -1.05773 0
M  V30 4998 C 501.36 1.92568 0.375744 0
M  V30 4999 O 500.485 1.75783 1.26211 0
M  V30 5000 C 501.08 2.79567 -1.91384 0
M  V30 5001 C 499.639 3.31524 -1.78238 0
M  V30 5002 C 498.786 2.04534 -1.87246 0
M  V30 5003 H 501.737 0.802962 -1.36888 0
M  V30 5004 H 501.758 3.52317 -1.43711 0
M  V30 5005 H 501.27 2.51353 -2.95708 0
M  V30 5006 H 499.371 3.64623 -0.766875 0
M  V30 5007 H 499.484 4.01457 -2.61475 0
M  V30 5008 H 497.848 2.1855 -1.30797 0
M  V30 5009 H 498.631 1.78706 -2.9312 0
M  V30 5010 N 501.076 1.04316 1.18135 0
M  V30 5011 C 501.986 0.646876 2.25505 0
M  V30 5012 C 503.002 -0.328008 1.7088 0
M  V30 5013 O 504.178 -0.182309 2.00573 0
M  V30 5014 C 501.243 0.0185664 3.46695 0
M  V30 5015 C 500.304 1.04277 4.16443 0
M  V30 5016 C 499.537 0.444352 5.31847 0
M  V30 5017 O 499.76 -0.748735 5.65465 0
M  V30 5018 O 498.694 1.17428 5.90334 0
M  V30 5019 H 502.52 1.54147 2.61672 0
M  V30 5020 H 500.105 0.814188 1.25265 0
M  V30 5021 H 501.987 -0.331068 4.20097 0
M  V30 5022 H 500.662 -0.849814 3.12346 0
M  V30 5023 H 499.569 1.44425 3.45098 0
M  V30 5024 H 500.902 1.882 4.54798 0
M  V30 5025 N 502.554 -1.34406 0.822964 0
M  V30 5026 C 503.501 -2.29519 0.24284 0
M  V30 5027 C 504.471 -1.5359 -0.632397 0
M  V30 5028 O 505.656 -1.8196 -0.57403 0
M  V30 5029 C 502.796 -3.40032 -0.58925 0
M  V30 5030 C 501.909 -4.30899 0.308236 0
M  V30 5031 C 501.044 -5.28515 -0.533425 0
M  V30 5032 C 500.083 -6.1102 0.363444 0
M  V30 5033 N 499.22 -7.00725 -0.439147 0
M  V30 5034 H 504.06 -2.78537 1.05929 0
M  V30 5035 H 501.597 -1.3707 0.533872 0
M  V30 5036 H 503.555 -4.0279 -1.087 0
M  V30 5037 H 502.185 -2.92248 -1.37081 0
M  V30 5038 H 501.237 -3.69002 0.924203 0
M  V30 5039 H 502.549 -4.88717 0.997862 0
M  V30 5040 H 501.703 -5.96725 -1.09565 0
M  V30 5041 H 500.442 -4.71235 -1.25656 0
M  V30 5042 H 499.447 -5.41743 0.937812 0
M  V30 5043 H 500.672 -6.70381 1.08469 0
M  V30 5044 H 498.618 -6.45913 -1.14595 0
M  V30 5045 H 498.535 -7.55756 0.19209 0
M  V30 5046 H 499.803 -7.73263 -0.984124 0
M  V30 5047 N 504.032 -0.577932 -1.46621 0
M  V30 5048 C 505.278 -0.0617793 -2.02706 0
M  V30 5049 C 505.611 1.29294 -1.44903 0
M  V30 5050 O 504.886 1.8461 -0.61232 0
M  V30 5051 C 505.169 0.00911824 -3.60099 0
M  V30 5052 C 505.022 -1.37416 -4.28295 0
M  V30 5053 C 506.341 0.712159 -4.343 0
M  V30 5054 H 503.46 -0.0239246 -0.736612 0
M  V30 5055 H 506.102 -0.744211 -1.74818 0
M  V30 5056 H 504.252 0.590292 -3.83989 0
M  V30 5057 H 505.924 -2.00013 -4.15683 0
M  V30 5058 H 504.167 -1.94319 -3.87843 0
M  V30 5059 H 504.838 -1.27707 -5.37024 0
M  V30 5060 H 507.314 0.218486 -4.15526 0
M  V30 5061 H 506.19 0.730782 -5.44014 0
M  V30 5062 H 506.451 1.77251 -4.05012 0
M  V30 5063 N 505.51 1.54411 -0.315457 0
M  V30 5064 C 506.458 2.25514 0.569771 0
M  V30 5065 C 507.452 1.2663 1.12522 0
M  V30 5066 O 508.658 1.44434 1.07419 0
M  V30 5067 H 505.033 0.724257 0.202376 0
M  V30 5068 H 507.004 2.98354 -0.0522895 0
M  V30 5069 C 505.753 3.02004 1.72305 0
M  V30 5070 H 505.076 3.77906 1.30488 0
M  V30 5071 H 506.516 3.55014 2.31821 0
M  V30 5072 C 504.975 2.09822 2.63583 0
M  V30 5073 O 505.505 1.67574 3.65078 0
M  V30 5074 N 503.711 1.75478 2.31637 0
M  V30 5075 H 503.258 2.10032 1.49145 0
M  V30 5076 H 503.216 1.14079 2.92973 0
M  V30 5077 N 506.988 0.0434614 1.5754 0
M  V30 5078 C 508.237 -0.631454 1.91561 0
M  V30 5079 C 508.55 -1.72457 0.92292 0
M  V30 5080 O 509.756 -2.45712 1.15489 0
M  V30 5081 C 508.212 -1.17447 3.40197 0
M  V30 5082 C 507.82 -0.113867 4.47855 0
M  V30 5083 C 509.564 -1.82507 3.83264 0
M  V30 5084 C 507.471 -0.669326 5.876 0
M  V30 5085 H 506.401 -0.239629 0.714908 0
M  V30 5086 H 509.052 0.111097 1.83163 0
M  V30 5087 H 507.434 -1.96909 3.43574 0
M  V30 5088 H 508.608 0.659348 4.56058 0
M  V30 5089 H 506.923 0.438821 4.14081 0
M  V30 5090 H 509.52 -2.25047 4.85034 0
M  V30 5091 H 509.863 -2.67365 3.19095 0
M  V30 5092 H 510.396 -1.09712 3.82372 0
M  V30 5093 H 507.135 0.141449 6.55347 0
M  V30 5094 H 506.655 -1.4107 5.82974 0
M  V30 5095 H 508.334 -1.15463 6.36614 0
M  V30 5096 N 508.466 -1.55915 -0.229846 0
M  V30 5097 C 509.376 -1.94891 -1.30593 0
M  V30 5098 C 510.392 -0.851604 -1.51736 0
M  V30 5099 O 511.568 -1.15447 -1.65027 0
M  V30 5100 C 508.633 -2.25052 -2.63728 0
M  V30 5101 C 507.694 -3.48306 -2.5096 0
M  V30 5102 C 506.927 -3.77019 -3.77747 0
M  V30 5103 O 507.15 -3.07534 -4.80395 0
M  V30 5104 O 506.084 -4.70523 -3.75356 0
M  V30 5105 H 509.91 -2.86581 -1.00525 0
M  V30 5106 H 507.495 -1.43017 -0.432025 0
M  V30 5107 H 509.377 -2.45682 -3.42372 0
M  V30 5108 H 508.052 -1.36538 -2.93495 0
M  V30 5109 H 506.959 -3.32964 -1.70546 0
M  V30 5110 H 508.292 -4.37177 -2.26136 0
M  V30 5111 N 509.944 0.496216 -1.49584 0
M  V30 5112 C 511.192 1.24756 -1.58998 0
M  V30 5113 C 511.513 1.92968 -0.280775 0
M  V30 5114 O 510.783 1.82959 0.700198 0
M  V30 5115 H 509.363 0.463471 -0.585836 0
M  V30 5116 H 512.025 0.574678 -1.86235 0
M  V30 5117 H 511.121 2.00895 -2.38847 0
M  V30 5118 N 511.423 1.38739 0.74761 0
M  V30 5119 C 512.671 1.35007 1.50391 0
M  V30 5120 C 512.992 -0.0574274 1.94915 0
M  V30 5121 O 512.262 -1.00628 1.6808 0
M  V30 5122 H 510.842 0.496784 0.557866 0
M  V30 5123 H 513.504 1.73479 0.888319 0
M  V30 5124 H 512.6 2.00474 2.392 0
M  V30 5125 N 512.901 -0.976442 1.23707 0
M  V30 5126 C 513.864 -2.0511 1.02287 0
M  V30 5127 C 514.864 -1.60791 -0.0167195 0
M  V30 5128 O 516.054 -1.72761 0.223408 0
M  V30 5129 C 513.186 -3.36458 0.548507 0
M  V30 5130 H 514.379 -2.25545 1.9766 0
M  V30 5131 H 511.932 -1.15042 1.05806 0
M  V30 5132 H 512.667 -3.21713 -0.408818 0
M  V30 5133 H 512.452 -3.69967 1.29874 0
M  V30 5134 H 513.942 -4.15489 0.419406 0
M  V30 5135 N 514.379 -1.04941 -1.1758 0
M  V30 5136 C 515.628 -0.753124 -1.87112 0
M  V30 5137 C 515.941 0.722507 -1.81767 0
M  V30 5138 O 517.147 1.13265 -2.46746 0
M  V30 5139 C 515.603 -1.29695 -3.35719 0
M  V30 5140 C 515.211 -2.80184 -3.49572 0
M  V30 5141 C 516.955 -1.07759 -4.10595 0
M  V30 5142 C 514.862 -3.2788 -4.92187 0
M  V30 5143 H 513.792 -0.278034 -0.700866 0
M  V30 5144 H 516.443 -1.26637 -1.32798 0
M  V30 5145 H 514.825 -0.711522 -3.89555 0
M  V30 5146 H 515.999 -3.44561 -3.05965 0
M  V30 5147 H 514.314 -3.00632 -2.88113 0
M  V30 5148 H 516.911 -1.40899 -5.15802 0
M  V30 5149 H 517.254 -0.0152302 -4.16297 0
M  V30 5150 H 517.787 -1.62809 -3.62957 0
M  V30 5151 H 514.526 -4.33535 -4.91658 0
M  V30 5152 H 514.046 -2.68245 -5.36475 0
M  V30 5153 H 515.725 -3.22412 -5.60945 0
M  V30 5154 N 515.857 1.33968 -0.830081 0
M  V30 5155 C 516.82 2.27694 -0.26235 0
M  V30 5156 C 517.82 1.50589 0.563876 0
M  V30 5157 O 519.01 1.70028 0.378941 0
M  V30 5158 C 516.142 3.35002 0.63138 0
M  V30 5159 H 517.335 2.79419 -1.08928 0
M  V30 5160 H 514.888 1.44221 -0.602486 0
M  V30 5161 H 515.623 2.88504 1.48109 0
M  V30 5162 H 515.408 3.92079 0.0403276 0
M  V30 5163 H 516.898 4.04897 1.02217 0
M  V30 5164 N 517.335 0.585699 1.46312 0
M  V30 5165 C 518.265 -0.133556 2.33118 0
M  V30 5166 C 519.246 -0.880707 1.45525 0
M  V30 5167 O 520.431 -0.855579 1.74337 0
M  V30 5168 C 517.561 -1.14585 3.27853 0
M  V30 5169 C 516.515 -0.513341 4.2491 0
M  V30 5170 C 515.841 -1.63231 5.09175 0
M  V30 5171 C 517.141 0.551413 5.19381 0
M  V30 5172 H 518.835 0.59121 2.93505 0
M  V30 5173 H 516.381 0.285761 1.41136 0
M  V30 5174 H 518.334 -1.65741 3.87438 0
M  V30 5175 H 517.058 -1.90093 2.65579 0
M  V30 5176 H 515.717 -0.0228349 3.66593 0
M  V30 5177 H 515.365 -2.37713 4.43285 0
M  V30 5178 H 515.065 -1.21473 5.74907 0
M  V30 5179 H 516.589 -2.14658 5.71624 0
M  V30 5180 H 518.003 0.124804 5.73164 0
M  V30 5181 H 516.4 0.889486 5.93471 0
M  V30 5182 H 517.47 1.43655 4.63132 0
M  V30 5183 N 518.813 -1.54241 0.323641 0
M  V30 5184 C 520.061 -2.00174 -0.278359 0
M  V30 5185 C 520.382 -1.2134 -1.52648 0
M  V30 5186 O 519.652 -0.315244 -1.93347 0
M  V30 5187 H 518.232 -0.739463 -0.105845 0
M  V30 5188 H 520.894 -1.89864 0.440204 0
M  V30 5189 H 519.99 -3.07486 -0.5347 0
M  V30 5190 N 520.291 -0.0518155 -1.57515 0
M  V30 5191 C 521.241 0.932017 -2.0808 0
M  V30 5192 C 522.225 1.27141 -0.986098 0
M  V30 5193 O 523.417 1.25373 -1.24943 0
M  V30 5194 C 520.546 2.20665 -2.62986 0
M  V30 5195 C 519.632 1.89462 -3.79427 0
M  V30 5196 N 520.023 1.28621 -4.89173 0
M  V30 5197 C 518.321 2.19327 -3.88345 0
M  V30 5198 C 519.022 1.15062 -5.70207 0
M  V30 5199 N 517.998 1.65372 -5.17835 0
M  V30 5200 H 521.8 0.456964 -2.90326 0
M  V30 5201 H 519.314 0.152619 -1.61681 0
M  V30 5202 H 521.311 2.92044 -2.97516 0
M  V30 5203 H 519.971 2.68776 -1.8218 0
M  V30 5204 H 520.982 0.958341 -5.08956 0
M  V30 5205 H 517.659 2.69955 -3.18482 0
M  V30 5206 H 519.049 0.678243 -6.68468 0
M  V30 5207 N 521.769 1.56035 0.221574 0
M  V30 5208 C 523.18 1.69229 0.788567 0
M  V30 5209 C 523.531 0.653814 1.84986 0
M  V30 5210 O 522.656 -0.195065 2.15519 0
M  V30 5211 C 523.251 3.06809 1.43713 0
M  V30 5212 C 521.81 3.21858 1.95152 0
M  V30 5213 C 520.957 2.65155 0.811685 0
M  V30 5214 H 523.908 1.587 -0.00307894 0
M  V30 5215 H 523.929 3.02666 2.30594 0
M  V30 5216 H 523.441 3.82369 0.664475 0
M  V30 5217 H 521.542 2.51167 2.7522 0
M  V30 5218 H 521.655 4.29073 2.1315 0
M  V30 5219 H 520.019 2.23635 1.21899 0
M  V30 5220 H 520.802 3.43261 0.0516987 0
M  V30 5221 N 523.247 -0.488276 1.49845 0
M  V30 5222 C 524.177 -1.59675 1.70371 0
M  V30 5223 C 525.158 -1.60878 0.552473 0
M  V30 5224 O 526.343 -1.77417 0.78973 0
M  V30 5225 C 523.473 -2.98098 1.782 0
M  V30 5226 C 522.427 -3.11761 2.93239 0
M  V30 5227 C 521.753 -4.51661 2.86193 0
M  V30 5228 C 523.053 -2.90589 4.33999 0
M  V30 5229 H 524.747 -1.42752 2.63177 0
M  V30 5230 H 522.293 -0.685317 1.26647 0
M  V30 5231 H 524.246 -3.75555 1.91144 0
M  V30 5232 H 522.97 -3.16138 0.820018 0
M  V30 5233 H 521.629 -2.36732 2.79917 0
M  V30 5234 H 521.277 -4.66595 1.87877 0
M  V30 5235 H 520.977 -4.61742 3.63412 0
M  V30 5236 H 522.501 -5.31162 3.01163 0
M  V30 5237 H 523.915 -3.57807 4.47936 0
M  V30 5238 H 522.312 -3.1213 5.12538 0
M  V30 5239 H 523.382 -1.86595 4.4756 0
M  V30 5240 N 524.725 -1.39134 -0.740242 0
M  V30 5241 C 525.973 -1.35803 -1.49673 0
M  V30 5242 C 526.294 0.0470897 -1.94943 0
M  V30 5243 O 525.564 0.997347 -1.68611 0
M  V30 5244 H 524.144 -0.499736 -0.555224 0
M  V30 5245 H 526.806 -1.73947 -0.879107 0
M  V30 5246 H 525.902 -2.0174 -2.38133 0
M  V30 5247 N 526.204 0.969867 -1.24223 0
M  V30 5248 C 527.167 2.04564 -1.03373 0
M  V30 5249 C 528.167 1.60798 0.00819206 0
M  V30 5250 O 529.357 1.72641 -0.232567 0
M  V30 5251 C 526.489 3.36163 -0.566343 0
M  V30 5252 H 527.682 2.24494 -1.98853 0
M  V30 5253 H 525.235 1.1448 -1.06415 0
M  V30 5254 H 525.97 3.21925 0.391751 0
M  V30 5255 H 525.755 3.69273 -1.31834 0
M  V30 5256 H 527.245 4.1526 -0.441435 0
M  V30 5257 N 527.682 1.05563 1.17022 0
M  V30 5258 C 528.907 0.788437 1.91829 0
M  V30 5259 C 529.332 -0.650356 1.76499 0
M  V30 5260 O 528.69 -1.45229 1.08527 0
M  V30 5261 C 528.738 1.1786 3.40795 0
M  V30 5262 O 527.842 0.312965 4.11211 0
M  V30 5263 H 527.183 0.288794 0.597908 0
M  V30 5264 H 529.713 1.40948 1.48307 0
M  V30 5265 H 529.723 1.14697 3.91546 0
M  V30 5266 H 528.398 2.22666 3.51273 0
M  V30 5267 H 526.975 0.405515 3.70689 0
M  V30 5268 N 529.16 -1.33526 0.837174 0
M  V30 5269 C 530.408 -1.97446 0.431211 0
M  V30 5270 C 530.729 -1.6665 -1.01255 0
M  V30 5271 O 529.999 -0.964559 -1.70508 0
M  V30 5272 H 528.579 -0.73043 0.156463 0
M  V30 5273 H 531.241 -1.62918 1.06976 0
M  V30 5274 H 530.337 -3.07001 0.561877 0
M  V30 5275 N 530.638 -0.59345 -1.46 0
M  V30 5276 C 531.878 -0.0859747 -2.04219 0
M  V30 5277 C 532.242 1.25432 -1.45364 0
M  V30 5278 O 533.443 1.85168 -1.9485 0
M  V30 5279 C 531.714 -0.0324314 -3.57385 0
M  V30 5280 S 533.273 0.415908 -4.36824 0
M  V30 5281 H 530.091 -0.0426872 -0.709717 0
M  V30 5282 H 532.693 -0.788369 -1.78899 0
M  V30 5283 H 531.397 -1.01166 -3.97735 0
M  V30 5284 H 530.928 0.6924 -3.87259 0
M  V30 5285 H 532.943 1.66844 -4.67309 0
M  V30 5286 N 532.116 1.54067 -0.331816 0
M  V30 5287 C 533.532 1.59587 0.0205388 0
M  V30 5288 C 533.732 1.34813 1.49759 0
M  V30 5289 O 532.788 1.13661 2.25471 0
M  V30 5290 C 534.101 2.97959 -0.405103 0
M  V30 5291 C 535.649 3.10964 -0.356454 0
M  V30 5292 C 536.124 4.51694 -0.757384 0
M  V30 5293 N 537.615 4.57709 -0.71111 0
M  V30 5294 C 538.35 5.64729 -0.993427 0
M  V30 5295 N 537.846 6.79652 -1.3433 0
M  V30 5296 N 539.639 5.54546 -0.918442 0
M  V30 5297 H 531.79 1.68426 -1.29407 0
M  V30 5298 H 534.053 0.78819 -0.526745 0
M  V30 5299 H 533.759 3.21115 -1.43451 0
M  V30 5300 H 533.633 3.76524 0.225692 0
M  V30 5301 H 536.02 2.87538 0.663763 0
M  V30 5302 H 536.101 2.34484 -1.02229 0
M  V30 5303 H 535.745 4.75853 -1.77555 0
M  V30 5304 H 535.675 5.26555 -0.0691444 0
M  V30 5305 H 538.166 3.75176 -0.452883 0
M  V30 5306 H 538.479 7.57221 -1.54388 0
M  V30 5307 H 536.824 6.81128 -1.38164 0
M  V30 5308 H 540.015 4.63641 -0.644536 0
M  V30 5309 H 540.188 6.37861 -1.14181 0
M  V30 5310 N 533.594 0.0601682 1.57485 0
M  V30 5311 C 534.843 -0.611101 1.9222 0
M  V30 5312 C 535.156 -1.71469 0.941159 0
M  V30 5313 O 536.362 -2.44473 1.18089 0
M  V30 5314 C 534.818 -1.13832 3.41424 0
M  V30 5315 C 534.426 -0.0663596 4.47951 0
M  V30 5316 C 536.17 -1.78432 3.85178 0
M  V30 5317 C 534.077 -0.606965 5.88277 0
M  V30 5318 H 533.007 -0.232033 0.71741 0
M  V30 5319 H 535.658 0.130518 1.83035 0
M  V30 5320 H 534.04 -1.93254 3.45643 0
M  V30 5321 H 535.214 0.707682 4.55333 0
M  V30 5322 H 533.529 0.482715 4.13593 0
M  V30 5323 H 536.126 -2.1989 4.87394 0
M  V30 5324 H 536.469 -2.63966 3.21913 0
M  V30 5325 H 537.002 -1.05651 3.83514 0
M  V30 5326 H 533.741 0.21095 6.5516 0
M  V30 5327 H 533.261 -1.34879 5.84438 0
M  V30 5328 H 534.94 -1.08704 6.37803 0
M  V30 5329 N 535.072 -1.5615 -0.213296 0
M  V30 5330 C 536.002 -1.96109 -1.26742 0
M  V30 5331 C 536.983 -0.830448 -1.48451 0
M  V30 5332 O 538.168 -1.09339 -1.60495 0
M  V30 5333 C 535.298 -2.28492 -2.61551 0
M  V30 5334 C 534.252 -3.44124 -2.54485 0
M  V30 5335 C 533.578 -3.62134 -3.93399 0
M  V30 5336 C 534.878 -4.78855 -2.08556 0
M  V30 5337 H 536.572 -2.84412 -0.935434 0
M  V30 5338 H 534.118 -1.36836 -0.44854 0
M  V30 5339 H 536.071 -2.55039 -3.3546 0
M  V30 5340 H 534.795 -1.37052 -2.96453 0
M  V30 5341 H 533.454 -3.17639 -1.83033 0
M  V30 5342 H 533.102 -2.68055 -4.25623 0
M  V30 5343 H 532.802 -4.39913 -3.89551 0
M  V30 5344 H 534.326 -3.91038 -4.68958 0
M  V30 5345 H 535.74 -5.04552 -2.72213 0
M  V30 5346 H 534.137 -5.59975 -2.1575 0
M  V30 5347 H 535.207 -4.73657 -1.03811 0
M  V30 5348 N 536.55 0.480323 -1.50102 0
M  V30 5349 C 537.796 1.23489 -1.60867 0
M  V30 5350 C 538.129 1.91809 -0.303827 0
M  V30 5351 O 537.404 1.81694 0.694092 0
M  V30 5352 C 537.687 2.28578 -2.78252 0
M  V30 5353 C 537.54 1.64624 -4.18592 0
M  V30 5354 C 538.859 3.2997 -2.91218 0
M  V30 5355 H 535.978 0.447605 -0.585507 0
M  V30 5356 H 538.62 0.530005 -1.82458 0
M  V30 5357 H 536.77 2.88697 -2.59974 0
M  V30 5358 H 538.442 1.08173 -4.48438 0
M  V30 5359 H 536.685 0.949645 -4.23278 0
M  V30 5360 H 537.356 2.40946 -4.96638 0
M  V30 5361 H 539.832 2.79864 -3.07921 0
M  V30 5362 H 538.708 4.00839 -3.74993 0
M  V30 5363 H 538.969 3.93541 -2.0144 0
M  V30 5364 N 538.028 1.39524 0.732853 0
M  V30 5365 C 539.256 1.40143 1.52209 0
M  V30 5366 C 539.671 -0.00348836 1.888 0
M  V30 5367 O 539.028 -0.975357 1.5425 0
M  V30 5368 C 539.079 2.27632 2.8083 0
M  V30 5369 O 538.8 3.62654 2.45792 0
M  V30 5370 C 540.301 2.36658 3.74844 0
M  V30 5371 H 537.521 0.478604 0.470297 0
M  V30 5372 H 540.065 1.83366 0.905388 0
M  V30 5373 H 538.22 1.87818 3.38826 0
M  V30 5374 H 538.634 4.08941 3.28431 0
M  V30 5375 H 540.108 3.02118 4.61984 0
M  V30 5376 H 540.585 1.38638 4.16745 0
M  V30 5377 H 541.191 2.76951 3.22766 0
M  V30 5378 N 539.506 -0.963266 1.24736 0
M  V30 5379 C 540.436 -2.07628 1.06832 0
M  V30 5380 C 541.417 -1.70088 -0.0200566 0
M  V30 5381 O 542.602 -1.93636 0.147854 0
M  V30 5382 C 539.732 -3.40636 0.677069 0
M  V30 5383 C 538.686 -3.9215 1.71471 0
M  V30 5384 C 538.012 -5.21553 1.1784 0
M  V30 5385 C 539.312 -4.19493 3.11164 0
M  V30 5386 H 541.006 -2.22864 1.9993 0
M  V30 5387 H 538.552 -1.07093 0.96266 0
M  V30 5388 H 540.505 -4.17941 0.538792 0
M  V30 5389 H 539.229 -3.25313 -0.289612 0
M  V30 5390 H 537.888 -3.17005 1.84128 0
M  V30 5391 H 537.536 -5.02593 0.202195 0
M  V30 5392 H 537.236 -5.56988 1.87185 0
M  V30 5393 H 538.76 -6.01463 1.05233 0
M  V30 5394 H 540.174 -4.87487 3.01711 0
M  V30 5395 H 538.571 -4.66165 3.77902 0
M  V30 5396 H 539.641 -3.26097 3.58871 0
M  V30 5397 N 540.985 -1.06182 -1.16461 0
M  V30 5398 C 541.915 -0.692861 -2.22984 0
M  V30 5399 C 542.896 0.314122 -1.67174 0
M  V30 5400 O 544.081 0.189499 -1.93273 0
M  V30 5401 C 541.211 -0.07732 -3.47214 0
M  V30 5402 C 540.165 -1.01015 -4.15909 0
M  V30 5403 C 539.491 -0.257973 -5.34077 0
M  V30 5404 C 540.791 -2.33868 -4.67015 0
M  V30 5405 H 542.485 -1.58343 -2.54102 0
M  V30 5406 H 540.031 -0.76279 -1.22137 0
M  V30 5407 H 541.984 0.19266 -4.20959 0
M  V30 5408 H 540.708 0.848254 -3.15392 0
M  V30 5409 H 539.367 -1.26486 -3.44088 0
M  V30 5410 H 539.015 0.670684 -4.98509 0
M  V30 5411 H 538.715 -0.879638 -5.80979 0
M  V30 5412 H 540.239 0.00448788 -6.106 0
M  V30 5413 H 541.653 -2.1279 -5.32347 0
M  V30 5414 H 540.05 -2.91522 -5.24533 0
M  V30 5415 H 541.12 -2.97019 -3.83286 0
M  V30 5416 N 542.463 1.3308 -0.844243 0
M  V30 5417 C 543.413 2.26589 -0.253289 0
M  V30 5418 C 544.397 1.49501 0.594836 0
M  V30 5419 O 545.589 1.71291 0.445924 0
M  V30 5420 C 542.718 3.38599 0.566176 0
M  V30 5421 C 541.804 4.23081 -0.293756 0
M  V30 5422 N 542.195 4.86751 -1.37505 0
M  V30 5423 C 540.493 4.45925 -0.0817086 0
M  V30 5424 C 541.194 5.49684 -1.90323 0
M  V30 5425 N 540.17 5.30101 -1.20391 0
M  V30 5426 H 543.972 2.73334 -1.08009 0
M  V30 5427 H 541.486 1.47048 -0.689258 0
M  V30 5428 H 543.483 4.04584 1.00587 0
M  V30 5429 H 542.143 2.93401 1.39089 0
M  V30 5430 H 543.154 4.87151 -1.75796 0
M  V30 5431 H 539.831 4.11434 0.709129 0
M  V30 5432 H 541.221 6.10363 -2.80902 0
M  V30 5433 N 543.941 0.601185 1.45683 0
M  V30 5434 C 545.169 0.100054 2.06658 0
M  V30 5435 C 545.584 -1.21285 1.44691 0
M  V30 5436 O 544.941 -1.73735 0.558772 0
M  V30 5437 C 544.992 -0.0528579 3.61461 0
M  V30 5438 O 544.713 1.20809 4.21114 0
M  V30 5439 C 546.214 -0.586193 4.39407 0
M  V30 5440 H 543.434 0.065905 0.667756 0
M  V30 5441 H 545.978 0.827101 1.87028 0
M  V30 5442 H 544.133 -0.730203 3.80456 0
M  V30 5443 H 544.547 1.03368 5.14213 0
M  V30 5444 H 546.021 -0.642297 5.4825 0
M  V30 5445 H 546.498 -1.60713 4.0874 0
M  V30 5446 H 547.104 0.0568935 4.25262 0
M  V30 5447 N 545.419 -1.53889 0.339982 0
M  V30 5448 C 546.349 -2.27843 -0.510856 0
M  V30 5449 C 547.33 -1.29267 -1.10563 0
M  V30 5450 O 548.515 -1.58104 -1.12768 0
M  V30 5451 C 545.645 -3.04857 -1.66372 0
M  V30 5452 C 544.599 -4.10907 -1.19746 0
M  V30 5453 C 543.925 -4.75855 -2.43857 0
M  V30 5454 C 545.225 -5.21435 -0.300501 0
M  V30 5455 H 546.919 -2.99212 0.106067 0
M  V30 5456 H 544.465 -1.43904 0.0524533 0
M  V30 5457 H 546.418 -3.5533 -2.26537 0
M  V30 5458 H 545.142 -2.31133 -2.30749 0
M  V30 5459 H 543.801 -3.61342 -0.618654 0
M  V30 5460 H 543.449 -3.9873 -3.06633 0
M  V30 5461 H 543.149 -5.47502 -2.13343 0
M  V30 5462 H 544.673 -5.2911 -3.04754 0
M  V30 5463 H 546.087 -5.67565 -0.80889 0
M  V30 5464 H 544.484 -6.00036 -0.0874076 0
M  V30 5465 H 545.554 -4.80328 0.664321 0
M  V30 5466 N 546.897 -0.0685191 -1.57451 0
M  V30 5467 C 547.807 0.914677 -2.16034 0
M  V30 5468 C 548.823 1.32938 -1.12265 0
M  V30 5469 O 549.999 1.40275 -1.44516 0
M  V30 5470 C 547.064 2.16519 -2.70777 0
M  V30 5471 C 546.125 1.80721 -3.89408 0
M  V30 5472 C 545.358 2.9981 -4.41531 0
M  V30 5473 O 545.581 4.13727 -3.92666 0
M  V30 5474 O 544.515 2.79817 -5.32903 0
M  V30 5475 H 548.341 0.446364 -3.00402 0
M  V30 5476 H 545.926 0.154367 -1.486 0
M  V30 5477 H 547.808 2.89856 -3.05878 0
M  V30 5478 H 546.483 2.62454 -1.89471 0
M  V30 5479 H 545.39 1.04646 -3.59166 0
M  V30 5480 H 546.723 1.39571 -4.71997 0
M  V30 5481 N 548.375 1.56261 0.205012 0
M  V30 5482 C 549.791 1.49623 0.555433 0
M  V30 5483 C 549.991 0.766719 1.86343 0
M  V30 5484 O 549.047 0.313158 2.50551 0
M  V30 5485 C 550.36 2.94253 0.619347 0
M  V30 5486 C 551.908 3.04868 0.708855 0
M  V30 5487 C 552.383 4.50888 0.803969 0
M  V30 5488 N 553.874 4.54999 0.867758 0
M  V30 5489 C 554.609 5.65284 0.96135 0
M  V30 5490 N 554.105 6.85282 1.01786 0
M  V30 5491 N 555.898 5.53174 0.997771 0
M  V30 5492 H 548.049 2.0211 -0.653094 0
M  V30 5493 H 550.312 0.919333 -0.231366 0
M  V30 5494 H 550.018 3.50643 -0.272458 0
M  V30 5495 H 549.892 3.47063 1.47741 0
M  V30 5496 H 552.279 2.48532 1.5911 0
M  V30 5497 H 552.36 2.55199 -0.175205 0
M  V30 5498 H 552.004 5.07846 -0.0738798 0
M  V30 5499 H 551.934 4.98279 1.70369 0
M  V30 5500 H 554.425 3.68588 0.833735 0
M  V30 5501 H 554.738 7.65081 1.08951 0
M  V30 5502 H 553.083 6.8796 0.986706 0
M  V30 5503 H 556.274 4.5835 0.950392 0
M  V30 5504 H 556.447 6.39151 1.06725 0
M  V30 5505 N 549.853 -0.472356 1.50355 0
M  V30 5506 C 550.786 -1.58923 1.63764 0
M  V30 5507 C 551.764 -1.55173 0.485793 0
M  V30 5508 O 552.948 -1.74815 0.705132 0
M  V30 5509 C 550.075 -2.97497 1.61905 0
M  V30 5510 C 549.121 -3.19405 2.82635 0
M  V30 5511 S 549.954 -2.99441 4.43954 0
M  V30 5512 C 551.11 -4.40359 4.44786 0
M  V30 5513 H 551.343 -1.47309 2.58239 0
M  V30 5514 H 548.876 -0.659601 1.39602 0
M  V30 5515 H 550.834 -3.77389 1.61518 0
M  V30 5516 H 549.495 -3.06502 0.686683 0
M  V30 5517 H 548.688 -4.20636 2.77636 0
M  V30 5518 H 548.29 -2.47283 2.80583 0
M  V30 5519 H 550.582 -5.32969 4.1827 0
M  V30 5520 H 551.525 -4.50403 5.46391 0
M  V30 5521 H 551.933 -4.22378 3.74509 0
M  V30 5522 N 551.331 -1.39911 -0.725443 0
M  V30 5523 C 552.579 -1.37382 -1.48224 0
M  V30 5524 C 552.9 0.0264107 -1.94982 0
M  V30 5525 O 552.17 0.979408 -1.6966 0
M  V30 5526 H 550.75 -0.505596 -0.549892 0
M  V30 5527 H 553.412 -1.7487 -0.860608 0
M  V30 5528 H 552.508 -2.04254 -2.3598 0
M  V30 5529 N 552.809 0.956637 -1.25245 0
M  V30 5530 C 554.225 1.22733 -1.02023 0
M  V30 5531 C 554.425 1.99761 0.264186 0
M  V30 5532 O 553.481 2.32814 0.977436 0
M  V30 5533 C 554.794 2.00367 -2.24217 0
M  V30 5534 C 556.342 2.13418 -2.28958 0
M  V30 5535 C 556.817 2.9445 -3.50803 0
M  V30 5536 N 558.308 3.02029 -3.51187 0
M  V30 5537 C 559.043 3.65116 -4.42129 0
M  V30 5538 N 558.539 4.2983 -5.43339 0
M  V30 5539 N 560.332 3.62237 -4.29815 0
M  V30 5540 H 552.483 0.441282 -2.07765 0
M  V30 5541 H 554.746 0.257686 -0.912306 0
M  V30 5542 H 554.452 1.51165 -3.17556 0
M  V30 5543 H 554.326 3.01077 -2.27228 0
M  V30 5544 H 556.713 2.61819 -1.36143 0
M  V30 5545 H 556.794 1.1202 -2.29968 0
M  V30 5546 H 556.438 2.46741 -4.43939 0
M  V30 5547 H 556.368 3.9607 -3.47039 0
M  V30 5548 H 558.859 2.56007 -2.77973 0
M  V30 5549 H 559.172 4.75819 -6.08947 0
M  V30 5550 H 557.517 4.28465 -5.47214 0
M  V30 5551 H 560.708 3.10863 -3.49974 0
M  V30 5552 H 560.881 4.11117 -5.00886 0
M  V30 5553 N 554.287 1.06798 1.15896 0
M  V30 5554 C 555.512 0.808739 1.90982 0
M  V30 5555 C 555.937 -0.6316 1.77179 0
M  V30 5556 O 555.295 -1.4407 1.10061 0
M  V30 5557 C 555.343 1.21468 3.39526 0
M  V30 5558 O 554.447 0.356562 4.10856 0
M  V30 5559 H 553.788 0.29512 0.594811 0
M  V30 5560 H 556.318 1.42513 1.46804 0
M  V30 5561 H 556.328 1.18844 3.90308 0
M  V30 5562 H 555.003 2.26379 3.48891 0
M  V30 5563 H 553.58 0.444808 3.70238 0
M  V30 5564 N 555.766 -1.3263 0.851289 0
M  V30 5565 C 557.182 -1.50162 0.5407 0
M  V30 5566 C 557.382 -1.78788 -0.929369 0
M  V30 5567 O 556.438 -1.85545 -1.71258 0
M  V30 5568 C 557.751 -2.64803 1.42478 0
M  V30 5569 C 559.299 -2.78688 1.42485 0
M  V30 5570 C 559.774 -3.96405 2.29407 0
M  V30 5571 N 561.265 -4.0366 2.27184 0
M  V30 5572 C 562 -4.93971 2.9117 0
M  V30 5573 N 561.496 -5.89313 3.64256 0
M  V30 5574 N 563.289 -4.87066 2.80576 0
M  V30 5575 H 555.44 -1.12315 1.80275 0
M  V30 5576 H 557.703 -0.553266 0.769806 0
M  V30 5577 H 557.409 -2.50368 2.46999 0
M  V30 5578 H 557.283 -3.60506 1.10974 0
M  V30 5579 H 559.67 -2.92547 0.387304 0
M  V30 5580 H 559.751 -1.83708 1.78002 0
M  V30 5581 H 559.395 -3.83304 3.33228 0
M  V30 5582 H 559.325 -4.90654 1.91224 0
M  V30 5583 H 561.816 -3.35435 1.74045 0
M  V30 5584 H 562.129 -6.54913 4.10255 0
M  V30 5585 H 560.474 -5.8935 3.68364 0
M  V30 5586 H 563.665 -4.11552 2.23031 0
M  V30 5587 H 563.838 -5.57248 3.30725 0
M  V30 5588 N 557.244 -0.608902 -1.45362 0
M  V30 5589 C 558.492 -0.104401 -2.0183 0
M  V30 5590 C 558.813 1.27007 -1.47967 0
M  V30 5591 O 558.083 1.83924 -0.674455 0
M  V30 5592 H 556.663 -0.0356042 -0.746151 0
M  V30 5593 H 559.325 -0.790596 -1.78145 0
M  V30 5594 H 558.421 -0.0551793 -3.12051 0
M  V30 5595 N 558.722 1.53707 -0.348139 0
M  V30 5596 C 559.968 2.01286 0.247332 0
M  V30 5597 C 560.301 1.23546 1.49834 0
M  V30 5598 O 559.576 0.324331 1.91777 0
M  V30 5599 C 559.859 3.55768 0.556858 0
M  V30 5600 C 559.712 4.44216 -0.706564 0
M  V30 5601 C 561.031 4.1841 1.3646 0
M  V30 5602 H 558.15 0.731677 0.0884201 0
M  V30 5603 H 560.792 1.84106 -0.469584 0
M  V30 5604 H 558.942 3.70539 1.16761 0
M  V30 5605 H 560.614 4.41274 -1.34444 0
M  V30 5606 H 558.857 4.12892 -1.33052 0
M  V30 5607 H 559.528 5.50202 -0.445186 0
M  V30 5608 H 562.004 4.07365 0.848113 0
M  V30 5609 H 560.88 5.26563 1.54992 0
M  V30 5610 H 561.141 3.7333 2.36805 0
M  V30 5611 N 560.2 0.0768682 1.57412 0
M  V30 5612 C 561.163 -0.873949 2.11884 0
M  V30 5613 C 562.163 -1.22301 1.04398 0
M  V30 5614 O 563.353 -1.15545 1.30365 0
M  V30 5615 C 560.485 -2.17575 2.62438 0
M  V30 5616 H 561.678 -0.401278 2.97203 0
M  V30 5617 H 559.231 -0.171904 1.55352 0
M  V30 5618 H 559.966 -2.69368 1.80587 0
M  V30 5619 H 559.751 -1.93534 3.41009 0
M  V30 5620 H 561.241 -2.85631 3.04639 0
M  V30 5621 N 561.678 -1.56367 -0.196722 0
M  V30 5622 C 562.641 -1.93561 -1.22746 0
M  V30 5623 C 563.641 -0.816566 -1.38524 0
M  V30 5624 O 564.831 -1.084 -1.36363 0
M  V30 5625 C 561.963 -2.20823 -2.59712 0
M  V30 5626 H 563.156 -2.85774 -0.909586 0
M  V30 5627 H 560.709 -1.50032 -0.438174 0
M  V30 5628 H 561.444 -1.31243 -2.96557 0
M  V30 5629 H 561.229 -3.02368 -2.49632 0
M  V30 5630 H 562.719 -2.50608 -3.34044 0
M  V30 5631 N 563.156 0.464375 -1.50603 0
M  V30 5632 C 564.086 1.56944 -1.72889 0
M  V30 5633 C 565.067 1.59979 -0.577997 0
M  V30 5634 O 566.252 1.76138 -0.817855 0
M  V30 5635 C 563.382 2.95225 -1.8292 0
M  V30 5636 C 562.336 3.07056 -2.98162 0
M  V30 5637 C 561.662 4.47051 -2.93343 0
M  V30 5638 C 562.962 2.83648 -4.38567 0
M  V30 5639 H 564.656 1.38547 -2.65415 0
M  V30 5640 H 562.202 0.665082 -1.27721 0
M  V30 5641 H 564.155 3.72467 -1.97095 0
M  V30 5642 H 562.879 3.14793 -0.870209 0
M  V30 5643 H 561.538 2.32248 -2.83648 0
M  V30 5644 H 561.186 4.63547 -1.95276 0
M  V30 5645 H 560.886 4.55902 -3.70712 0
M  V30 5646 H 562.41 5.26304 -3.09575 0
M  V30 5647 H 563.824 3.50636 -4.53572 0
M  V30 5648 H 562.221 3.03937 -5.17438 0
M  V30 5649 H 563.291 1.79451 -4.50472 0
M  V30 5650 N 564.634 1.40294 0.718013 0
M  V30 5651 C 565.874 1.39888 1.49032 0
M  V30 5652 C 566.238 -0.000462935 1.92 0
M  V30 5653 O 567.439 -0.129622 2.68487 0
M  V30 5654 C 565.71 2.35868 2.68516 0
M  V30 5655 S 567.269 2.53799 3.57954 0
M  V30 5656 H 564.087 0.495849 0.509563 0
M  V30 5657 H 566.689 1.76541 0.839846 0
M  V30 5658 H 565.393 3.36375 2.35117 0
M  V30 5659 H 564.924 2.0049 3.38478 0
M  V30 5660 H 566.939 1.78859 4.62843 0
M  V30 5661 N 566.112 -0.949982 1.2575 0
M  V30 5662 C 567.361 -1.68956 1.10168 0
M  V30 5663 C 567.674 -1.92327 -0.356309 0
M  V30 5664 O 568.88 -2.64026 -0.632657 0
M  V30 5665 C 567.336 -3.04196 1.92336 0
M  V30 5666 C 566.944 -2.88603 3.42655 0
M  V30 5667 C 568.688 -3.81904 1.85336 0
M  V30 5668 C 566.595 -4.19262 4.17101 0
M  V30 5669 H 565.525 -0.633645 0.408668 0
M  V30 5670 H 568.176 -1.05719 1.49986 0
M  V30 5671 H 566.558 -3.68363 1.45344 0
M  V30 5672 H 567.732 -2.3334 3.97353 0
M  V30 5673 H 566.047 -2.24345 3.50796 0
M  V30 5674 H 568.644 -4.78688 2.38248 0
M  V30 5675 H 568.987 -4.08099 0.822226 0
M  V30 5676 H 569.52 -3.24495 2.30104 0
M  V30 5677 H 566.259 -3.98254 5.20648 0
M  V30 5678 H 565.779 -4.74273 3.67186 0
M  V30 5679 H 567.458 -4.87775 4.25071 0
M  V30 5680 N 567.59 -1.07411 -1.15328 0
M  V30 5681 C 568.838 -0.796073 -1.85761 0
M  V30 5682 C 569.159 0.679864 -1.82764 0
M  V30 5683 O 568.429 1.49242 -1.269 0
M  V30 5684 H 567.009 -0.291495 -0.687779 0
M  V30 5685 H 569.671 -1.35799 -1.39802 0
M  V30 5686 H 568.767 -1.13114 -2.90881 0
M  V30 5687 N 569.068 1.32177 -0.85831 0
M  V30 5688 C 570.316 1.96735 -0.462568 0
M  V30 5689 C 570.637 1.6824 0.985911 0
M  V30 5690 O 569.907 0.991564 1.68952 0
M  V30 5691 H 568.487 0.727849 -0.168064 0
M  V30 5692 H 571.149 1.61195 -1.09554 0
M  V30 5693 H 570.245 3.06068 -0.610647 0
M  V30 5694 N 570.547 0.616602 1.45037 0
M  V30 5695 C 571.795 0.115103 2.01772 0
M  V30 5696 C 572.116 -1.2622 1.48639 0
M  V30 5697 O 571.386 -1.83563 0.684199 0
M  V30 5698 H 569.966 0.0395607 0.745952 0
M  V30 5699 H 572.628 0.800032 1.77723 0
M  V30 5700 H 571.724 0.0717274 3.12018 0
M  V30 5701 N 572.025 -1.5352 0.356285 0
M  V30 5702 C 572.958 -2.2177 -0.537913 0
M  V30 5703 C 573.936 -1.20626 -1.09033 0
M  V30 5704 O 575.12 -1.49494 -1.1482 0
M  V30 5705 C 572.247 -2.90513 -1.74126 0
M  V30 5706 C 571.293 -4.05652 -1.31715 0
M  V30 5707 S 572.126 -5.34505 -0.326236 0
M  V30 5708 C 573.282 -6.06757 -1.53612 0
M  V30 5709 H 573.515 -2.97271 0.0417411 0
M  V30 5710 H 571.048 -1.53761 0.140372 0
M  V30 5711 H 573.006 -3.30735 -2.43155 0
M  V30 5712 H 571.667 -2.14754 -2.29215 0
M  V30 5713 H 570.86 -4.52733 -2.21471 0
M  V30 5714 H 570.462 -3.67272 -0.706183 0
M  V30 5715 H 572.754 -6.30924 -2.46863 0
M  V30 5716 H 573.697 -6.99395 -1.10687 0
M  V30 5717 H 574.105 -5.3708 -1.73796 0
M  V30 5718 N 573.503 -0.0852151 -1.57369 0
M  V30 5719 C 574.751 0.579658 -1.93609 0
M  V30 5720 C 575.072 1.69332 -0.967043 0
M  V30 5721 O 574.342 1.95892 -0.0174215 0
M  V30 5722 H 572.922 0.217113 -0.714752 0
M  V30 5723 H 575.584 -0.146226 -1.94351 0
M  V30 5724 H 574.68 0.996276 -2.95771 0
M  V30 5725 N 574.981 1.5647 0.188427 0
M  V30 5726 C 576.23 1.80207 0.905995 0
M  V30 5727 C 576.543 0.659579 1.84144 0
M  V30 5728 O 577.749 0.781431 2.60011 0
M  V30 5729 C 576.205 3.19255 1.66145 0
M  V30 5730 C 575.813 4.41324 0.770504 0
M  V30 5731 C 577.557 3.52298 2.36826 0
M  V30 5732 C 575.464 5.71394 1.52521 0
M  V30 5733 H 574.394 0.671953 0.342045 0
M  V30 5734 H 577.045 1.82808 0.159164 0
M  V30 5735 H 575.427 3.10922 2.45242 0
M  V30 5736 H 576.601 4.60797 0.0177261 0
M  V30 5737 H 574.916 4.16035 0.174199 0
M  V30 5738 H 577.513 4.46715 2.93854 0
M  V30 5739 H 577.856 2.76359 3.11338 0
M  V30 5740 H 578.389 3.62108 1.6469 0
M  V30 5741 H 575.128 6.50316 0.82275 0
M  V30 5742 H 574.648 5.55928 2.25175 0
M  V30 5743 H 576.327 6.12747 2.07725 0
M  V30 5744 N 576.459 -0.456382 1.50847 0
M  V30 5745 C 577.422 -1.53493 1.70213 0
M  V30 5746 C 578.422 -1.50264 0.572481 0
M  V30 5747 O 579.612 -1.52623 0.839751 0
M  V30 5748 C 576.744 -2.93091 1.741 0
M  V30 5749 H 577.937 -1.37633 2.66453 0
M  V30 5750 H 575.49 -0.683776 1.4055 0
M  V30 5751 H 576.225 -3.14378 0.796063 0
M  V30 5752 H 576.01 -2.9684 2.5618 0
M  V30 5753 H 577.5 -3.71368 1.90987 0
M  V30 5754 N 577.937 -1.40673 -0.710563 0
M  V30 5755 C 578.87 -1.35742 -1.83438 0
M  V30 5756 C 579.848 -0.226997 -1.61008 0
M  V30 5757 O 581.032 -0.411477 -1.83954 0
M  V30 5758 C 578.159 -1.11374 -3.19865 0
M  V30 5759 C 577.205 -2.26935 -3.61113 0
M  V30 5760 S 578.038 -3.89352 -3.67648 0
M  V30 5761 C 579.194 -3.67258 -5.06826 0
M  V30 5762 H 579.427 -2.30848 -1.87341 0
M  V30 5763 H 576.96 -1.27018 -0.877831 0
M  V30 5764 H 578.918 -0.980004 -3.9863 0
M  V30 5765 H 577.579 -0.179135 -3.13589 0
M  V30 5766 H 576.772 -2.0554 -4.60184 0
M  V30 5767 H 576.374 -2.36638 -2.89618 0
M  V30 5768 H 578.666 -3.26036 -5.93891 0
M  V30 5769 H 579.609 -4.65878 -5.33257 0
M  V30 5770 H 580.017 -3.0084 -4.77656 0
M  V30 5771 N 579.415 0.9433 -1.26252 0
M  V30 5772 C 580.655 1.70397 -1.1289 0
M  V30 5773 C 581.019 1.89268 0.322713 0
M  V30 5774 O 582.22 2.62503 0.578418 0
M  V30 5775 C 580.491 3.04296 -1.87453 0
M  V30 5776 S 582.05 3.95475 -1.90119 0
M  V30 5777 H 578.868 0.585559 -0.403289 0
M  V30 5778 H 581.47 1.12424 -1.59941 0
M  V30 5779 H 580.174 2.8824 -2.9214 0
M  V30 5780 H 579.705 3.67327 -1.40835 0
M  V30 5781 H 581.72 4.86297 -0.986373 0
M  V30 5782 N 580.893 1.08022 1.14757 0
M  V30 5783 C 582.139 0.808705 1.85978 0
M  V30 5784 C 582.472 -0.663764 1.82504 0
M  V30 5785 O 581.747 -1.48765 1.25296 0
M  V30 5786 C 582.03 1.32623 3.34788 0
M  V30 5787 C 581.883 2.86375 3.46856 0
M  V30 5788 C 583.202 0.948291 4.29762 0
M  V30 5789 H 580.321 0.295244 0.675278 0
M  V30 5790 H 582.963 1.33917 1.34783 0
M  V30 5791 H 581.113 0.875002 3.78518 0
M  V30 5792 H 582.785 3.39839 3.11941 0
M  V30 5793 H 581.028 3.24232 2.88194 0
M  V30 5794 H 581.699 3.17658 4.51439 0
M  V30 5795 H 584.175 1.33722 3.94028 0
M  V30 5796 H 583.051 1.33765 5.32352 0
M  V30 5797 H 583.312 -0.145094 4.41862 0
M  V30 5798 N 582.371 -1.3172 0.865308 0
M  V30 5799 C 583.303 -2.27545 0.274906 0
M  V30 5800 C 584.316 -1.52887 -0.559413 0
M  V30 5801 O 585.505 -1.74361 -0.382166 0
M  V30 5802 C 582.605 -3.33006 -0.629286 0
M  V30 5803 C 581.778 -4.37063 0.171553 0
M  V30 5804 C 580.837 -5.22044 -0.660052 0
M  V30 5805 O 579.863 -5.69129 -0.0897527 0
M  V30 5806 N 581.065 -5.45946 -1.97289 0
M  V30 5807 H 583.83 -2.78848 1.09836 0
M  V30 5808 H 581.391 -1.44693 0.726331 0
M  V30 5809 H 583.383 -3.86772 -1.19121 0
M  V30 5810 H 581.953 -2.81782 -1.35342 0
M  V30 5811 H 581.173 -3.83436 0.914919 0
M  V30 5812 H 582.461 -5.03662 0.721235 0
M  V30 5813 H 581.859 -5.0944 -2.45942 0
M  V30 5814 H 580.416 -6.02665 -2.4827 0
M  V30 5815 N 583.85 -0.624285 -1.44708 0
M  V30 5816 C 585.266 -0.289322 -1.56956 0
M  V30 5817 C 585.466 1.20773 -1.61295 0
M  V30 5818 O 584.522 1.9915 -1.55227 0
M  V30 5819 C 585.835 -0.975215 -2.84447 0
M  V30 5820 C 587.383 -0.952709 -2.98148 0
M  V30 5821 C 587.858 -1.61893 -4.28433 0
M  V30 5822 N 589.349 -1.5852 -4.35231 0
M  V30 5823 C 590.084 -2.06969 -5.34744 0
M  V30 5824 N 589.58 -2.63579 -6.40701 0
M  V30 5825 N 591.373 -1.97638 -5.26209 0
M  V30 5826 H 583.524 -1.59612 -1.40135 0
M  V30 5827 H 585.787 -0.669592 -0.671081 0
M  V30 5828 H 585.493 -2.02999 -2.87201 0
M  V30 5829 H 585.367 -0.508749 -3.73753 0
M  V30 5830 H 587.754 0.093568 -2.94952 0
M  V30 5831 H 587.835 -1.4576 -2.10209 0
M  V30 5832 H 587.479 -2.66463 -4.32389 0
M  V30 5833 H 587.409 -1.08893 -5.15218 0
M  V30 5834 H 589.899 -1.17183 -3.59272 0
M  V30 5835 H 590.213 -2.98298 -7.12908 0
M  V30 5836 H 588.558 -2.67626 -6.41406 0
M  V30 5837 H 591.749 -1.5314 -4.42341 0
M  V30 5838 H 591.922 -2.35708 -6.03611 0
M  V30 5839 N 585.328 1.53329 -0.364422 0
M  V30 5840 C 586.238 2.29414 0.490552 0
M  V30 5841 C 587.254 1.35335 1.09363 0
M  V30 5842 O 588.43 1.68391 1.10483 0
M  V30 5843 C 585.495 3.06772 1.61529 0
M  V30 5844 C 584.556 4.16516 1.03986 0
M  V30 5845 C 583.789 4.90176 2.111 0
M  V30 5846 O 584.012 4.63687 3.32191 0
M  V30 5847 O 582.946 5.76134 1.74222 0
M  V30 5848 H 586.772 3.03428 -0.12856 0
M  V30 5849 H 584.357 1.48843 -0.128837 0
M  V30 5850 H 586.239 3.55082 2.26924 0
M  V30 5851 H 584.914 2.35596 2.21983 0
M  V30 5852 H 583.821 3.7246 0.349856 0
M  V30 5853 H 585.154 4.89855 0.4799 0
M  V30 5854 O 586.845 0.233579 1.59802 0
M  V30 5855 H 587.536 -0.344607 1.9061 0
M  V30 END ATOM
M  V30 BEGIN BOND
M  V30 END BOND
M  V30 END CTAB
M  END
$$$$
