drugbank_target|Q9RME2 Phosphoserine aminotransferase (DB02327)
 OpenBabel12092120243D

  0  0  0     0  0            999 V3000
M  V30 BEGIN CTAB
M  V30 COUNTS 5660 5714 0 0 0
M  V30 BEGIN ATOM
M  V30 1 H -0.908 1.98254 -0.117106 0
M  V30 2 N 0 1.576 0 0
M  V30 3 C 0.933 2.03868 1.02534 0
M  V30 4 C 1.911 0.928543 1.3348 0
M  V30 5 O 3.095 1.19667 1.45644 0
M  V30 6 C 0.222 2.43627 2.35294 0
M  V30 7 C -0.732 3.65373 2.2001 0
M  V30 8 S 0.101 5.13292 1.52614 0
M  V30 9 C 1.257 5.56322 2.86805 0
M  V30 10 H 1.49 2.90518 0.631377 0
M  V30 11 H -0.977 1.52953 0.210867 0
M  V30 12 H 0.981 2.67203 3.11629 0
M  V30 13 H -0.358 1.57376 2.7183 0
M  V30 14 H -1.165 3.90944 3.18086 0
M  V30 15 H -1.563 3.418 1.51819 0
M  V30 16 H 0.729 5.58782 3.83104 0
M  V30 17 H 1.672 6.56266 2.65933 0
M  V30 18 H 2.08 4.83886 2.90714 0
M  V30 19 N 1.4781 -0.272755 1.55222 0
M  V30 20 C 2.7241 -1.00581 1.761 0
M  V30 21 C 3.0571 -1.85932 0.560625 0
M  V30 22 O 2.3321 -1.89416 -0.441801 0
M  V30 23 C 2.6151 -1.88816 3.06628 0
M  V30 24 C 2.4681 -1.06457 4.37021 0
M  V30 25 C 3.7871 -2.8752 3.33197 0
M  V30 26 H 0.9061 -0.364244 0.640699 0
M  V30 27 H 3.5481 -0.278189 1.87952 0
M  V30 28 H 1.6981 -2.50856 2.96654 0
M  V30 29 H 3.3701 -0.464863 4.58952 0
M  V30 30 H 1.6131 -0.368043 4.32236 0
M  V30 31 H 2.2841 -1.71514 5.24678 0
M  V30 32 H 4.7601 -2.35615 3.42965 0
M  V30 33 H 3.6361 -3.46399 4.25792 0
M  V30 34 H 3.8971 -3.62657 2.52849 0
M  V30 35 N 2.9562 -1.48159 -0.537278 0
M  V30 36 C 3.9032 -1.62138 -1.64256 0
M  V30 37 C 4.8732 -0.463668 -1.59497 0
M  V30 38 O 6.0582 -0.686241 -1.78032 0
M  V30 39 C 3.1982 -1.66028 -3.02537 0
M  V30 40 C 2.3112 -2.92855 -3.17585 0
M  V30 41 C 1.4462 -2.87952 -4.46382 0
M  V30 42 C 0.4852 -4.09516 -4.54932 0
M  V30 43 N -0.3778 -4.02733 -5.75109 0
M  V30 44 H 4.4622 -2.56529 -1.51647 0
M  V30 45 H 1.9992 -1.27224 -0.738414 0
M  V30 46 H 3.9572 -1.66265 -3.82638 0
M  V30 47 H 2.5872 -0.751331 -3.13934 0
M  V30 48 H 1.6392 -3.02395 -2.30784 0
M  V30 49 H 2.9512 -3.82822 -3.19764 0
M  V30 50 H 2.1052 -2.8655 -5.34765 0
M  V30 51 H 0.8442 -1.95702 -4.46712 0
M  V30 52 H -0.1508 -4.11201 -3.64957 0
M  V30 53 H 1.0742 -5.02917 -4.56346 0
M  V30 54 H -0.9798 -3.13299 -5.76351 0
M  V30 55 H -1.0628 -4.86397 -5.78752 0
M  V30 56 H 0.2052 -4.05379 -6.65799 0
M  V30 57 N 4.4343 0.785586 -1.36625 0
M  V30 58 C 5.3663 1.90711 -1.2713 0
M  V30 59 C 6.3793 1.61688 -0.189986 0
M  V30 60 O 7.5683 1.72864 -0.445014 0
M  V30 61 C 4.6683 3.25611 -0.939713 0
M  V30 62 C 3.8413 3.82385 -2.12369 0
M  V30 63 C 2.9003 4.95732 -1.76456 0
M  V30 64 O 1.9263 5.12047 -2.48589 0
M  V30 65 N 3.1283 5.76258 -0.700492 0
M  V30 66 H 5.8933 1.99376 -2.23762 0
M  V30 67 H 3.4543 0.964041 -1.30069 0
M  V30 68 H 5.4463 3.98937 -0.680554 0
M  V30 69 H 4.0163 3.12538 -0.0624074 0
M  V30 70 H 3.2363 3.01001 -2.54543 0
M  V30 71 H 4.5243 4.17047 -2.9146 0
M  V30 72 H 3.9223 5.65609 -0.101624 0
M  V30 73 H 2.4793 6.4987 -0.501165 0
M  V30 74 N 5.9124 1.20967 1.01018 0
M  V30 75 C 7.1584 1.02526 1.74975 0
M  V30 76 C 7.4914 -0.4408 1.89131 0
M  V30 77 O 6.7664 -1.32718 1.42184 0
M  V30 78 C 7.0494 1.71699 3.1653 0
M  V30 79 C 6.9024 3.25791 3.10129 0
M  V30 80 C 8.2214 1.45531 4.15342 0
M  V30 81 H 5.3404 0.373863 0.635134 0
M  V30 82 H 7.9824 1.49071 1.17805 0
M  V30 83 H 6.1324 1.32128 3.65341 0
M  V30 84 H 7.8044 3.74697 2.69072 0
M  V30 85 H 6.0474 3.56363 2.47362 0
M  V30 86 H 6.7184 3.69353 4.10222 0
M  V30 87 H 9.1944 1.79872 3.75213 0
M  V30 88 H 8.0704 1.96453 5.1254 0
M  V30 89 H 8.3314 0.384237 4.40427 0
M  V30 90 N 7.3905 -1.2043 1.01659 0
M  V30 91 C 8.6375 -1.89797 0.705917 0
M  V30 92 C 8.9655 -1.78848 -0.764439 0
M  V30 93 O 8.2205 -1.16694 -1.57102 0
M  V30 94 C 8.5195 -3.40464 1.08714 0
M  V30 95 C 8.1855 -3.71614 2.5537 0
M  V30 96 C 6.8475 -3.79826 2.95441 0
M  V30 97 C 9.1995 -3.85915 3.50313 0
M  V30 98 C 6.5275 -3.99797 4.29394 0
M  V30 99 C 8.8795 -4.07396 4.83954 0
M  V30 100 C 7.5435 -4.13837 5.23732 0
M  V30 101 H 6.8135 -0.694518 0.258313 0
M  V30 102 H 9.4605 -1.42691 1.27717 0
M  V30 103 H 7.7655 -3.89385 0.434309 0
M  V30 104 H 9.4625 -3.92433 0.824461 0
M  V30 105 H 6.0525 -3.65822 2.23321 0
M  V30 106 H 10.2365 -3.78926 3.20513 0
M  V30 107 H 5.4925 -4.03018 4.59768 0
M  V30 108 H 9.6665 -4.17404 5.57447 0
M  V30 109 H 7.2935 -4.29064 6.27541 0
M  V30 110 N 8.8686 -0.792821 -1.36206 0
M  V30 111 C 9.8166 -0.181555 -2.3189 0
M  V30 112 C 10.8106 0.661025 -1.55971 0
M  V30 113 O 12.0166 0.555728 -1.71206 0
M  V30 114 H 8.3916 -0.0399382 -0.750939 0
M  V30 115 H 10.3626 -1.00394 -2.81005 0
M  V30 116 C 9.1116 0.666444 -3.41253 0
M  V30 117 H 8.4346 0.0274489 -3.99791 0
M  V30 118 H 9.8746 1.06076 -4.10517 0
M  V30 119 C 8.3336 1.82614 -2.83114 0
M  V30 120 O 8.8636 2.9229 -2.75553 0
M  V30 121 N 7.0696 1.63333 -2.40356 0
M  V30 122 H 6.6166 0.741217 -2.46706 0
M  V30 123 H 6.5746 2.41087 -2.01803 0
M  V30 124 N 10.3467 1.47872 -0.545128 0
M  V30 125 C 11.5937 2.02493 -0.0165858 0
M  V30 126 C 11.9217 1.42073 1.32836 0
M  V30 127 O 11.1767 0.561459 1.87473 0
M  V30 128 C 11.4757 3.57131 0.13867 0
M  V30 129 C 11.1417 4.36411 -1.13384 0
M  V30 130 C 9.8037 4.57792 -1.48256 0
M  V30 131 C 12.1557 4.82223 -1.97764 0
M  V30 132 C 9.4837 5.22233 -2.67376 0
M  V30 133 C 11.8357 5.47977 -3.16076 0
M  V30 134 C 10.4997 5.67593 -3.51275 0
M  V30 135 H 9.7697 0.740975 -0.00606918 0
M  V30 136 H 12.4167 1.77683 -0.714207 0
M  V30 137 H 10.7217 3.80865 0.919172 0
M  V30 138 H 12.4187 3.97031 0.562782 0
M  V30 139 H 9.0087 4.2004 -0.852297 0
M  V30 140 H 13.1927 4.65493 -1.72132 0
M  V30 141 H 8.4487 5.35616 -2.94831 0
M  V30 142 H 12.6227 5.8244 -3.81755 0
M  V30 143 H 10.2497 6.17298 -4.43675 0
M  V30 144 N 11.8248 0.280983 1.55075 0
M  V30 145 C 12.7728 -0.619864 2.24188 0
M  V30 146 C 13.7668 -1.15315 1.24092 0
M  V30 147 O 14.9728 -1.1061 1.42005 0
M  V30 148 H 11.3478 -0.218459 0.719569 0
M  V30 149 H 13.3188 -0.0141831 2.98397 0
M  V30 150 C 12.0678 -1.7899 2.98091 0
M  V30 151 H 11.3908 -1.38874 3.74905 0
M  V30 152 H 12.8308 -2.39672 3.49762 0
M  V30 153 C 11.2898 -2.68192 2.03899 0
M  V30 154 O 11.8198 -3.6872 1.594 0
M  V30 155 N 10.0258 -2.35488 1.70275 0
M  V30 156 H 9.5728 -1.53787 2.06658 0
M  V30 157 H 9.5308 -2.95442 1.07524 0
M  V30 158 N 13.3029 -1.57598 0.00835791 0
M  V30 159 C 14.2659 -2.07884 -0.965242 0
M  V30 160 C 15.2659 -0.989825 -1.26725 0
M  V30 161 O 16.4559 -1.25218 -1.21104 0
M  V30 162 C 13.5879 -2.52731 -2.28779 0
M  V30 163 H 14.7809 -2.95178 -0.530112 0
M  V30 164 H 12.3339 -1.54458 -0.239283 0
M  V30 165 H 13.0689 -1.68705 -2.76964 0
M  V30 166 H 12.8539 -3.32272 -2.08177 0
M  V30 167 H 14.3439 -2.91933 -2.98605 0
M  V30 168 N 14.781 0.264519 -1.55364 0
M  V30 169 C 16.029 0.993021 -1.76021 0
M  V30 170 C 16.35 1.86511 -0.569099 0
M  V30 171 O 15.62 1.91438 0.415735 0
M  V30 172 H 14.2 0.369639 -0.649135 0
M  V30 173 H 16.862 0.286707 -1.9278 0
M  V30 174 H 15.958 1.62502 -2.66457 0
M  V30 175 N 16.2591 1.48442 0.529413 0
M  V30 176 C 17.6701 1.5002 1.11134 0
M  V30 177 C 18.0211 0.27031 1.94329 0
M  V30 178 O 17.1461 -0.622507 2.07253 0
M  V30 179 C 17.7411 2.71834 2.02217 0
M  V30 180 C 16.3001 2.76283 2.55627 0
M  V30 181 C 15.4471 2.43542 1.326 0
M  V30 182 H 18.3981 1.5555 0.314641 0
M  V30 183 H 18.4191 2.50384 2.8651 0
M  V30 184 H 17.9311 3.61331 1.41639 0
M  V30 185 H 16.0321 1.90995 3.19924 0
M  V30 186 H 16.1451 3.77725 2.94721 0
M  V30 187 H 14.5091 1.94709 1.64196 0
M  V30 188 H 15.2921 3.3528 0.737734 0
M  V30 189 N 17.7372 -0.778329 1.37039 0
M  V30 190 C 18.9622 -1.57248 1.35233 0
M  V30 191 C 19.3872 -1.87999 -0.0615568 0
M  V30 192 O 18.7452 -1.48734 -1.03672 0
M  V30 193 C 18.7932 -2.86353 2.19167 0
M  V30 194 O 17.8972 -3.80442 1.59178 0
M  V30 195 H 17.2382 -0.476569 0.462362 0
M  V30 196 H 19.7682 -0.963853 1.80474 0
M  V30 197 H 19.7782 -3.35519 2.32145 0
M  V30 198 H 18.4532 -2.63299 3.21942 0
M  V30 199 H 17.0302 -3.39067 1.55203 0
M  V30 200 N 19.2153 -1.21501 -1.00376 0
M  V30 201 C 20.1783 -0.976927 -2.07337 0
M  V30 202 C 21.1783 0.0525322 -1.60714 0
M  V30 203 O 22.3683 -0.184869 -1.73216 0
M  V30 204 C 19.5003 -0.473423 -3.37597 0
M  V30 205 H 20.6933 -1.92587 -2.29892 0
M  V30 206 H 18.2463 -1.03217 -1.17371 0
M  V30 207 H 18.9813 0.480379 -3.20722 0
M  V30 208 H 18.7663 -1.216 -3.72768 0
M  V30 209 H 20.2563 -0.32675 -4.1632 0
M  V30 210 N 20.6934 1.19889 -1.02296 0
M  V30 211 C 21.6234 2.25141 -0.619174 0
M  V30 212 C 22.6044 1.66051 0.368915 0
M  V30 213 O 23.7894 1.92546 0.252941 0
M  V30 214 C 20.9194 3.4728 0.0368783 0
M  V30 215 C 19.8734 4.19005 -0.872865 0
M  V30 216 C 19.1994 5.34637 -0.0822402 0
M  V30 217 C 20.4994 4.74452 -2.18387 0
M  V30 218 H 22.1934 2.59171 -1.49903 0
M  V30 219 H 19.7394 1.24579 -0.722222 0
M  V30 220 H 21.6924 4.20098 0.330958 0
M  V30 221 H 20.4164 3.12433 0.95149 0
M  V30 222 H 19.0754 3.48061 -1.15105 0
M  V30 223 H 18.7234 4.96034 0.83422 0
M  V30 224 H 18.4234 5.83557 -0.688149 0
M  V30 225 H 19.9474 6.10255 0.205238 0
M  V30 226 H 21.3614 5.39055 -1.95172 0
M  V30 227 H 19.7584 5.33834 -2.74119 0
M  V30 228 H 20.8284 3.92844 -2.84257 0
M  V30 229 N 22.1715 0.800033 1.35784 0
M  V30 230 C 23.5825 0.439142 1.81462 0
M  V30 231 C 23.9335 -1.03813 1.66485 0
M  V30 232 O 23.0585 -1.80626 1.19177 0
M  V30 233 C 23.6535 0.790314 3.29453 0
M  V30 234 C 22.2125 0.482111 3.733 0
M  V30 235 C 21.3595 1.01938 2.57883 0
M  V30 236 H 24.3105 0.992254 1.23855 0
M  V30 237 H 24.3315 0.0853677 3.80404 0
M  V30 238 H 23.8435 1.86554 3.40322 0
M  V30 239 H 21.9445 -0.584652 3.67984 0
M  V30 240 H 22.0575 1.01015 4.6833 0
M  V30 241 H 20.4215 0.442043 2.50835 0
M  V30 242 H 21.2045 2.10059 2.71533 0
M  V30 243 N 23.6496 -1.47581 0.552962 0
M  V30 244 C 24.5966 -2.29957 -0.197108 0
M  V30 245 C 25.5666 -1.38799 -0.912359 0
M  V30 246 O 26.7516 -1.67761 -0.908888 0
M  V30 247 C 23.8916 -3.22672 -1.22379 0
M  V30 248 C 23.0046 -4.28919 -0.515038 0
M  V30 249 C 22.1396 -5.0879 -1.52664 0
M  V30 250 C 21.1786 -6.06815 -0.802631 0
M  V30 251 N 20.3156 -6.7966 -1.76086 0
M  V30 252 H 25.1556 -2.93578 0.511486 0
M  V30 253 H 22.6926 -1.4471 0.264067 0
M  V30 254 H 24.6506 -3.74845 -1.83159 0
M  V30 255 H 23.2806 -2.60925 -1.90047 0
M  V30 256 H 22.3326 -3.79835 0.207192 0
M  V30 257 H 23.6446 -4.98773 0.0523425 0
M  V30 258 H 22.7986 -5.65091 -2.20809 0
M  V30 259 H 21.5376 -4.38828 -2.12794 0
M  V30 260 H 20.5426 -5.49695 -0.107238 0
M  V30 261 H 21.7676 -6.78784 -0.207135 0
M  V30 262 H 19.7136 -6.12432 -2.35081 0
M  V30 263 H 19.6306 -7.45669 -1.24552 0
M  V30 264 H 20.8986 -7.40538 -2.43359 0
M  V30 265 N 25.1277 -0.289203 -1.54924 0
M  V30 266 C 26.5387 0.205791 -1.85562 0
M  V30 267 C 26.8897 1.54351 -1.2112 0
M  V30 268 O 26.0147 2.10435 -0.504601 0
M  V30 269 C 26.6097 0.380177 -3.3666 0
M  V30 270 C 25.1687 0.819395 -3.67373 0
M  V30 271 C 24.3157 -0.079159 -2.77187 0
M  V30 272 H 27.2667 -0.510577 -1.50262 0
M  V30 273 H 27.2877 1.21659 -3.60526 0
M  V30 274 H 26.7997 -0.593589 -3.83534 0
M  V30 275 H 24.9007 1.80413 -3.26009 0
M  V30 276 H 25.0137 0.646957 -4.74712 0
M  V30 277 H 23.3777 0.439565 -2.50878 0
M  V30 278 H 24.1607 -1.04906 -3.26878 0
M  V30 279 N 26.6058 1.57591 -0.0167156 0
M  V30 280 C 27.5688 2.08393 0.954204 0
M  V30 281 C 28.5688 0.996531 1.26198 0
M  V30 282 O 29.7588 1.25858 1.20438 0
M  V30 283 C 26.8908 2.5394 2.27436 0
M  V30 284 H 28.0838 2.95455 0.514451 0
M  V30 285 H 25.6368 1.54582 0.231089 0
M  V30 286 H 26.3718 1.70171 2.76066 0
M  V30 287 H 26.1568 3.33371 2.06412 0
M  V30 288 H 27.6468 2.93512 2.97053 0
M  V30 289 N 28.0839 -0.256276 1.55502 0
M  V30 290 C 29.0139 -1.32102 1.92539 0
M  V30 291 C 29.9949 -1.50684 0.789194 0
M  V30 292 O 31.1799 -1.63449 1.04872 0
M  V30 293 C 28.3099 -2.67752 2.21192 0
M  V30 294 C 27.2639 -2.63878 3.36975 0
M  V30 295 C 26.5899 -4.03236 3.51147 0
M  V30 296 C 27.8899 -2.21682 4.72921 0
M  V30 297 H 29.5839 -1.01351 2.81724 0
M  V30 298 H 27.1299 -0.486105 1.35547 0
M  V30 299 H 29.0829 -3.42365 2.45691 0
M  V30 300 H 27.8069 -3.0012 1.28824 0
M  V30 301 H 26.4659 -1.91722 3.12471 0
M  V30 302 H 26.1139 -4.32854 2.56216 0
M  V30 303 H 25.8139 -4.01535 4.29003 0
M  V30 304 H 27.3379 -4.79563 3.77957 0
M  V30 305 H 28.7519 -2.86023 4.96854 0
M  V30 306 H 27.1489 -2.3111 5.53812 0
M  V30 307 H 28.2189 -1.16833 4.70615 0
M  V30 308 N 29.562 -1.4872 -0.521534 0
M  V30 309 C 30.472 -1.66569 -1.65203 0
M  V30 310 C 31.488 -0.548197 -1.65139 0
M  V30 311 O 32.664 -0.820339 -1.83936 0
M  V30 312 C 29.729 -1.70917 -3.01642 0
M  V30 313 C 28.79 -2.94356 -3.12495 0
M  V30 314 C 28.023 -2.98487 -4.42426 0
M  V30 315 O 28.246 -2.10786 -5.30024 0
M  V30 316 O 27.18 -3.90746 -4.57822 0
M  V30 317 H 31.006 -2.62298 -1.5308 0
M  V30 318 H 28.591 -1.3222 -0.695565 0
M  V30 319 H 30.473 -1.7625 -3.82771 0
M  V30 320 H 29.148 -0.783633 -3.14071 0
M  V30 321 H 28.055 -2.94552 -2.3063 0
M  V30 322 H 29.388 -3.86322 -3.04986 0
M  V30 323 N 31.0401 0.771051 -1.3745 0
M  V30 324 C 32.4561 1.07171 -1.18265 0
M  V30 325 C 32.6561 2.01491 -0.019287 0
M  V30 326 O 31.7121 2.44244 0.640408 0
M  V30 327 C 33.0251 1.66854 -2.50161 0
M  V30 328 C 34.5731 1.79109 -2.56689 0
M  V30 329 C 35.0481 2.42205 -3.88717 0
M  V30 330 N 36.5391 2.49655 -3.90162 0
M  V30 331 C 37.2741 2.9933 -4.8907 0
M  V30 332 N 36.7701 3.49172 -5.98374 0
M  V30 333 N 38.5631 2.9821 -4.76474 0
M  V30 334 H 30.7141 0.144796 -2.11906 0
M  V30 335 H 32.9771 0.126863 -0.939473 0
M  V30 336 H 32.6831 1.05017 -3.35655 0
M  V30 337 H 32.5571 2.6614 -2.673 0
M  V30 338 H 34.9441 2.40077 -1.71601 0
M  V30 339 H 35.0251 0.785757 -2.43433 0
M  V30 340 H 34.6691 1.81875 -4.74219 0
M  V30 341 H 34.5991 3.43345 -3.99276 0
M  V30 342 H 37.0901 2.14383 -3.11205 0
M  V30 343 H 37.4031 3.8548 -6.69795 0
M  V30 344 H 35.7481 3.47275 -6.02018 0
M  V30 345 H 38.9391 2.58572 -3.90203 0
M  V30 346 H 39.1121 3.36613 -5.53711 0
M  V30 347 N 32.5182 1.22032 0.997298 0
M  V30 348 C 33.4812 0.987909 2.06816 0
M  V30 349 C 34.4812 -0.0440084 1.6074 0
M  V30 350 O 35.6712 0.194053 1.73116 0
M  V30 351 C 32.8032 0.49132 3.37341 0
M  V30 352 H 33.9962 1.93803 2.28868 0
M  V30 353 H 31.5492 1.03838 1.16822 0
M  V30 354 H 32.2842 -0.463364 3.20973 0
M  V30 355 H 32.0692 1.23575 3.72118 0
M  V30 356 H 33.5592 0.348824 4.16141 0
M  V30 357 N 33.9963 -1.19345 1.0293 0
M  V30 358 C 34.9283 -2.22036 0.56857 0
M  V30 359 C 35.9413 -1.58865 -0.355779 0
M  V30 360 O 37.1303 -1.77851 -0.152103 0
M  V30 361 C 34.2303 -3.38363 -0.190752 0
M  V30 362 C 33.4033 -4.31118 0.738643 0
M  V30 363 C 32.4623 -5.26194 0.0246497 0
M  V30 364 O 31.4883 -5.65461 0.651354 0
M  V30 365 N 32.6903 -5.66971 -1.24594 0
M  V30 366 H 35.4553 -2.6219 1.45177 0
M  V30 367 H 33.0163 -1.34015 0.908381 0
M  V30 368 H 35.0083 -3.98981 -0.677961 0
M  V30 369 H 33.5783 -2.96994 -0.975366 0
M  V30 370 H 32.7983 -3.68276 1.40593 0
M  V30 371 H 34.0863 -4.90001 1.37029 0
M  V30 372 H 33.4843 -5.37104 -1.77583 0
M  V30 373 H 32.0413 -6.2984 -1.67764 0
M  V30 374 N 35.4744 -0.807222 -1.35358 0
M  V30 375 C 36.4214 -0.216037 -2.29787 0
M  V30 376 C 37.3914 0.650278 -1.52842 0
M  V30 377 O 38.5764 0.595227 -1.81278 0
M  V30 378 C 35.7164 0.628893 -3.39321 0
M  V30 379 C 34.8294 -0.257927 -4.31229 0
M  V30 380 C 33.9644 0.595069 -5.27856 0
M  V30 381 C 33.0034 -0.292111 -6.11403 0
M  V30 382 N 32.1404 0.520895 -7.00165 0
M  V30 383 H 36.9804 -1.02671 -2.79755 0
M  V30 384 H 34.5174 -0.517839 -1.37684 0
M  V30 385 H 36.4754 1.13393 -4.01494 0
M  V30 386 H 35.1054 1.40482 -2.90628 0
M  V30 387 H 34.1574 -0.881076 -3.70056 0
M  V30 388 H 35.4694 -0.940759 -4.89848 0
M  V30 389 H 34.6234 1.16522 -5.95405 0
M  V30 390 H 33.3624 1.31146 -4.69736 0
M  V30 391 H 32.3674 -0.874525 -5.428 0
M  V30 392 H 33.5924 -1.00638 -6.71602 0
M  V30 393 H 31.5384 1.22125 -6.44532 0
M  V30 394 H 31.4554 -0.103877 -7.55929 0
M  V30 395 H 32.7234 1.0743 -7.72062 0
M  V30 396 N 36.9525 1.47285 -0.560781 0
M  V30 397 C 37.8625 2.33846 0.187954 0
M  V30 398 C 38.8785 1.48412 0.908293 0
M  V30 399 O 40.0545 1.81332 0.876388 0
M  V30 400 C 37.1195 3.25178 1.2025 0
M  V30 401 C 36.1805 4.26504 0.489208 0
M  V30 402 C 35.4135 5.13472 1.45542 0
M  V30 403 O 35.6365 5.02959 2.6905 0
M  V30 404 O 34.5705 5.93902 0.977963 0
M  V30 405 H 38.3965 2.99177 -0.522177 0
M  V30 406 H 35.9815 1.45903 -0.321364 0
M  V30 407 H 37.8635 3.81584 1.78805 0
M  V30 408 H 36.5385 2.6247 1.89449 0
M  V30 409 H 35.4455 3.73847 -0.137627 0
M  V30 410 H 36.7785 4.91935 -0.161399 0
M  V30 411 N 38.4306 0.297415 1.54768 0
M  V30 412 C 39.3606 -0.573494 2.26348 0
M  V30 413 C 40.3416 -1.14085 1.26169 0
M  V30 414 O 41.5266 -1.17086 1.54934 0
M  V30 415 C 38.6566 -1.74716 3.00153 0
M  V30 416 C 37.6106 -1.31032 4.07449 0
M  V30 417 C 36.9366 -2.56887 4.68949 0
M  V30 418 C 38.2366 -0.444183 5.20408 0
M  V30 419 H 39.9306 0.0235131 2.99391 0
M  V30 420 H 37.4766 0.0127488 1.43994 0
M  V30 421 H 39.4296 -2.3625 3.48947 0
M  V30 422 H 38.1536 -2.37035 2.24682 0
M  V30 423 H 36.8126 -0.718066 3.59499 0
M  V30 424 H 36.4606 -3.17512 3.90122 0
M  V30 425 H 36.1606 -2.2836 5.41411 0
M  V30 426 H 37.6846 -3.19229 5.20505 0
M  V30 427 H 39.0986 -0.9651 5.65118 0
M  V30 428 H 37.4956 -0.252846 5.99567 0
M  V30 429 H 38.5656 0.531609 4.81977 0
M  V30 430 N 39.9087 -1.5758 0.0250728 0
M  V30 431 C 40.8387 -2.13007 -0.956575 0
M  V30 432 C 41.8197 -1.0452 -1.342 0
M  V30 433 O 43.0047 -1.32332 -1.42133 0
M  V30 434 C 40.1347 -2.65386 -2.24026 0
M  V30 435 C 39.0887 -3.78623 -1.99571 0
M  V30 436 C 38.4147 -4.17414 -3.3417 0
M  V30 437 C 39.7147 -5.04867 -1.33814 0
M  V30 438 H 41.4087 -2.9528 -0.494991 0
M  V30 439 H 38.9547 -1.42042 -0.236651 0
M  V30 440 H 40.9077 -3.02794 -2.93076 0
M  V30 441 H 39.6317 -1.80268 -2.72343 0
M  V30 442 H 38.2907 -3.41646 -1.32941 0
M  V30 443 H 37.9387 -3.29284 -3.80238 0
M  V30 444 H 37.6387 -4.93719 -3.18615 0
M  V30 445 H 39.1627 -4.57402 -4.04495 0
M  V30 446 H 40.5767 -5.39888 -1.92857 0
M  V30 447 H 38.9737 -5.86144 -1.28669 0
M  V30 448 H 40.0437 -4.83904 -0.310561 0
M  V30 449 N 41.3868 0.248026 -1.55636 0
M  V30 450 C 42.3348 1.32683 -1.91045 0
M  V30 451 C 43.3288 1.49883 -0.789401 0
M  V30 452 O 44.5348 1.51371 -0.974007 0
M  V30 453 H 40.9098 0.444272 -0.606734 0
M  V30 454 H 42.8808 1.00085 -2.81115 0
M  V30 455 C 41.6298 2.6755 -2.22064 0
M  V30 456 H 40.9528 2.55114 -3.07826 0
M  V30 457 H 42.3928 3.41912 -2.50743 0
M  V30 458 C 40.8518 3.20556 -1.0366 0
M  V30 459 O 41.3818 4.00695 -0.284016 0
M  V30 460 N 39.5878 2.78568 -0.82753 0
M  V30 461 H 39.1348 2.1351 -1.44123 0
M  V30 462 H 39.0928 3.14378 -0.0369803 0
M  V30 463 N 42.8649 1.48995 0.513639 0
M  V30 464 C 44.1119 1.57843 1.26854 0
M  V30 465 C 44.4399 0.259501 1.92761 0
M  V30 466 O 43.6949 -0.75159 1.80692 0
M  V30 467 C 43.9939 2.67756 2.36731 0
M  V30 468 C 43.6599 4.09669 1.88368 0
M  V30 469 C 42.3219 4.48291 1.74896 0
M  V30 470 C 44.6739 4.98537 1.52021 0
M  V30 471 C 42.0019 5.73568 1.23438 0
M  V30 472 C 44.3539 6.24319 1.0202 0
M  V30 473 C 43.0179 6.61783 0.871778 0
M  V30 474 H 42.2879 0.577587 0.464192 0
M  V30 475 H 44.9349 1.82778 0.571366 0
M  V30 476 H 43.2399 2.36743 3.12185 0
M  V30 477 H 44.9369 2.71813 2.9482 0
M  V30 478 H 41.5269 3.79176 1.99808 0
M  V30 479 H 45.7109 4.69363 1.61281 0
M  V30 480 H 40.9669 6.01304 1.10648 0
M  V30 481 H 45.1409 6.92566 0.729722 0
M  V30 482 H 42.7679 7.5874 0.470852 0
M  V30 483 N 44.343 -0.763751 1.37857 0
M  V30 484 C 45.291 -1.89864 1.34367 0
M  V30 485 C 46.285 -1.67816 0.231143 0
M  V30 486 O 47.491 -1.75508 0.399617 0
M  V30 487 H 43.866 -0.624501 0.41893 0
M  V30 488 H 45.837 -1.89925 2.30155 0
M  V30 489 C 44.586 -3.27227 1.1755 0
M  V30 490 H 43.909 -3.44773 2.02414 0
M  V30 491 H 45.349 -4.06911 1.1916 0
M  V30 492 C 43.808 -3.36692 -0.118311 0
M  V30 493 O 44.338 -3.86374 -1.09902 0
M  V30 494 N 42.544 -2.90092 -0.171717 0
M  V30 495 H 42.091 -2.49853 0.627012 0
M  V30 496 H 42.049 -2.96806 -1.03699 0
M  V30 497 N 45.8211 -1.22559 -0.990812 0
M  V30 498 C 47.0981 -0.959875 -1.70428 0
M  V30 499 C 47.4781 0.524455 -2.04481 0
M  V30 500 O 46.8261 1.49302 -1.72977 0
M  V30 501 C 47.0361 -1.85955 -2.95333 0
M  V30 502 C 48.3841 -2.11687 -3.68068 0
M  V30 503 O 49.4081 -1.8342 -3.05345 0
M  V30 504 O 48.2671 -2.59572 -4.80921 0
M  V30 505 H 45.3611 -0.361154 -0.743974 0
M  V30 506 H 47.9071 -1.33554 -1.04697 0
M  V30 507 H 46.6791 -2.86346 -2.66687 0
M  V30 508 H 46.3021 -1.4856 -3.68803 0
M  V30 509 N 47.2992 1.18797 -1.03562 0
M  V30 510 C 48.5272 1.92599 -0.755869 0
M  V30 511 C 48.9422 1.75886 0.686271 0
M  V30 512 O 48.2992 1.08517 1.46732 0
M  V30 513 C 48.3502 3.44159 -1.10619 0
M  V30 514 O 48.0712 3.60341 -2.4917 0
M  V30 515 C 49.5722 4.3507 -0.850214 0
M  V30 516 H 46.7922 0.611587 -0.276048 0
M  V30 517 H 49.3362 1.50742 -1.38192 0
M  V30 518 H 47.4912 3.83823 -0.525194 0
M  V30 519 H 47.9052 4.54128 -2.62427 0
M  V30 520 H 49.3792 5.39989 -1.14523 0
M  V30 521 H 49.8562 4.38673 0.215176 0
M  V30 522 H 50.4622 4.01097 -1.41426 0
M  V30 523 N 48.7773 0.814389 1.34928 0
M  V30 524 C 49.7093 0.187834 2.28429 0
M  V30 525 C 50.7223 -0.617374 1.5064 0
M  V30 526 O 51.9113 -0.448454 1.72775 0
M  V30 527 C 49.0113 -0.755962 3.30361 0
M  V30 528 C 48.1843 0.00456686 4.374 0
M  V30 529 C 47.2433 -0.858876 5.19143 0
M  V30 530 O 46.2693 -0.306968 5.68372 0
M  V30 531 N 47.4713 -2.17988 5.38016 0
M  V30 532 H 50.2363 0.991105 2.82838 0
M  V30 533 H 47.7973 0.670561 1.4736 0
M  V30 534 H 49.7893 -1.338 3.81942 0
M  V30 535 H 48.3593 -1.46001 2.7641 0
M  V30 536 H 47.5793 0.767865 3.86649 0
M  V30 537 H 48.8673 0.528422 5.06049 0
M  V30 538 H 48.2653 -2.65212 4.99679 0
M  V30 539 H 46.8223 -2.71098 5.92747 0
M  V30 540 N 50.2554 -1.46986 0.568584 0
M  V30 541 C 51.1884 -2.27129 -0.220779 0
M  V30 542 C 52.1664 -1.34757 -0.909905 0
M  V30 543 O 53.3504 -1.64152 -0.926622 0
M  V30 544 C 50.4774 -3.12108 -1.31553 0
M  V30 545 C 49.5234 -4.20141 -0.733748 0
M  V30 546 S 50.3564 -5.33783 0.428479 0
M  V30 547 C 51.5124 -6.22327 -0.667811 0
M  V30 548 H 51.7454 -2.93731 0.459267 0
M  V30 549 H 49.2784 -1.5026 0.355154 0
M  V30 550 H 51.2364 -3.61636 -1.94241 0
M  V30 551 H 49.8974 -2.44847 -1.96746 0
M  V30 552 H 49.0904 -4.79373 -1.5562 0
M  V30 553 H 48.6924 -3.73553 -0.182812 0
M  V30 554 H 50.9844 -6.59364 -1.55708 0
M  V30 555 H 51.9274 -7.0801 -0.11258 0
M  V30 556 H 52.3354 -5.5618 -0.965601 0
M  V30 557 N 51.7335 -0.305618 -1.54608 0
M  V30 558 C 52.9585 0.307562 -2.05107 0
M  V30 559 C 53.3835 1.46385 -1.18123 0
M  V30 560 O 52.7415 1.8034 -0.186324 0
M  V30 561 C 52.7895 0.73704 -3.52987 0
M  V30 562 O 51.8935 1.84134 -3.6901 0
M  V30 563 H 51.2345 0.0589143 -0.661381 0
M  V30 564 H 53.7645 -0.448807 -1.99617 0
M  V30 565 H 53.7745 1.02459 -3.94925 0
M  V30 566 H 52.4495 -0.108773 -4.15758 0
M  V30 567 H 51.0265 1.55398 -3.38978 0
M  V30 568 N 53.2116 1.57565 -0.0334293 0
M  V30 569 C 54.4576 1.92262 0.645226 0
M  V30 570 C 54.7906 0.910543 1.71531 0
M  V30 571 O 54.0656 -0.066099 1.94388 0
M  V30 572 C 54.3486 3.37422 1.2577 0
M  V30 573 C 54.2016 4.49369 0.196891 0
M  V30 574 C 55.5206 3.82628 2.17449 0
M  V30 575 H 52.6396 0.699171 0.233085 0
M  V30 576 H 55.2816 1.89779 -0.0915694 0
M  V30 577 H 53.4316 3.39669 1.88566 0
M  V30 578 H 55.1036 4.59254 -0.433962 0
M  V30 579 H 53.3466 4.31168 -0.477137 0
M  V30 580 H 54.0176 5.47978 0.665124 0
M  V30 581 H 56.4936 3.82145 1.64634 0
M  V30 582 H 55.3696 4.84883 2.57254 0
M  V30 583 H 55.6306 3.18376 3.0674 0
M  V30 584 N 54.6897 -0.239769 1.55765 0
M  V30 585 C 55.6227 -1.32356 1.85895 0
M  V30 586 C 56.6007 -1.46053 0.714662 0
M  V30 587 O 57.7847 -1.62154 0.961157 0
M  V30 588 C 54.9117 -2.6962 2.04994 0
M  V30 589 C 53.9577 -2.73036 3.27648 0
M  V30 590 S 54.7907 -2.28929 4.84099 0
M  V30 591 C 55.9467 -3.68103 5.06212 0
M  V30 592 H 56.1797 -1.06601 2.77531 0
M  V30 593 H 53.7127 -0.441112 1.47965 0
M  V30 594 H 55.6707 -3.48653 2.16682 0
M  V30 595 H 54.3317 -2.92609 1.14188 0
M  V30 596 H 53.5247 -3.7386 3.38 0
M  V30 597 H 53.1267 -2.02052 3.14723 0
M  V30 598 H 55.4187 -4.63656 4.93993 0
M  V30 599 H 56.3617 -3.6268 6.08168 0
M  V30 600 H 56.7697 -3.60947 4.34025 0
M  V30 601 N 56.1678 -1.49265 -0.50573 0
M  V30 602 C 57.0778 -1.68312 -1.63427 0
M  V30 603 C 58.0938 -0.565682 -1.64548 0
M  V30 604 O 59.2698 -0.839801 -1.83055 0
M  V30 605 C 56.3348 -1.74107 -2.99813 0
M  V30 606 C 55.3958 -2.97653 -3.09356 0
M  V30 607 C 54.6288 -3.03163 -4.39236 0
M  V30 608 O 54.8518 -2.16396 -5.27758 0
M  V30 609 O 53.7858 -3.9558 -4.53652 0
M  V30 610 H 57.6118 -2.63907 -1.50289 0
M  V30 611 H 55.1968 -1.32951 -0.681502 0
M  V30 612 H 57.0788 -1.803 -3.80881 0
M  V30 613 H 55.7538 -0.816901 -3.13223 0
M  V30 614 H 54.6608 -2.96981 -2.27493 0
M  V30 615 H 55.9938 -3.89535 -3.00871 0
M  V30 616 N 57.6459 0.756429 -1.3826 0
M  V30 617 C 58.5759 1.88374 -1.37976 0
M  V30 618 C 59.5569 1.68311 -0.246082 0
M  V30 619 O 60.7419 1.88944 -0.44874 0
M  V30 620 C 57.8719 3.25864 -1.20125 0
M  V30 621 C 56.8259 3.60523 -2.30666 0
M  V30 622 C 56.1519 4.9672 -1.97923 0
M  V30 623 C 57.4519 3.65692 -3.72916 0
M  V30 624 H 59.1459 1.88869 -2.32312 0
M  V30 625 H 56.6919 0.907272 -1.11824 0
M  V30 626 H 58.6449 4.0438 -1.18552 0
M  V30 627 H 57.3689 3.25841 -0.222498 0
M  V30 628 H 56.0279 2.84324 -2.3142 0
M  V30 629 H 55.6759 4.93253 -0.985393 0
M  V30 630 H 55.3759 5.20878 -2.71955 0
M  V30 631 H 56.8999 5.77618 -1.97964 0
M  V30 632 H 58.3139 4.34328 -3.74208 0
M  V30 633 H 56.7109 4.01358 -4.4613 0
M  V30 634 H 57.7809 2.65987 -4.05436 0
M  V30 635 N 59.124 1.23083 0.984299 0
M  V30 636 C 60.349 1.088 1.76571 0
M  V30 637 C 60.774 -0.356657 1.84688 0
M  V30 638 O 60.132 -1.25788 1.30565 0
M  V30 639 C 60.18 1.71371 3.17277 0
M  V30 640 O 59.284 0.973213 4.00752 0
M  V30 641 H 58.625 0.381599 0.543395 0
M  V30 642 H 61.155 1.63057 1.23587 0
M  V30 643 H 61.165 1.76449 3.67872 0
M  V30 644 H 59.84 2.76493 3.10684 0
M  V30 645 H 58.417 0.999078 3.59267 0
M  V30 646 N 60.6021 -1.18246 1.0419 0
M  V30 647 C 61.5521 -2.19843 0.604392 0
M  V30 648 C 62.5361 -1.56962 -0.353814 0
M  V30 649 O 63.7281 -1.76156 -0.17267 0
M  V30 650 C 60.8571 -3.43287 -0.0298975 0
M  V30 651 C 59.9431 -4.13288 0.951531 0
M  V30 652 N 60.3341 -4.59271 2.11906 0
M  V30 653 C 58.6321 -4.39165 0.7778 0
M  V30 654 C 59.3331 -5.13173 2.73912 0
M  V30 655 N 58.3091 -5.04763 2.01779 0
M  V30 656 H 62.1111 -2.53089 1.4941 0
M  V30 657 H 59.6251 -1.34465 0.910658 0
M  V30 658 H 61.6221 -4.15334 -0.361037 0
M  V30 659 H 60.2821 -3.11537 -0.915127 0
M  V30 660 H 61.2931 -4.5368 2.49789 0
M  V30 661 H 57.9701 -4.17461 -0.0572331 0
M  V30 662 H 59.3601 -5.58947 3.72864 0
M  V30 663 N 62.0802 -0.821533 -1.34494 0
M  V30 664 C 63.4962 -0.507117 -1.51329 0
M  V30 665 C 63.6962 0.968964 -1.76673 0
M  V30 666 O 62.7522 1.75348 -1.81685 0
M  V30 667 C 64.0652 -1.36544 -2.67911 0
M  V30 668 C 65.6132 -1.36242 -2.81793 0
M  V30 669 C 66.0882 -2.2052 -4.01416 0
M  V30 670 N 67.5792 -2.18136 -4.08621 0
M  V30 671 C 68.3142 -2.80095 -5.00334 0
M  V30 672 N 67.8102 -3.51039 -5.9728 0
M  V30 673 N 69.6032 -2.69656 -4.93196 0
M  V30 674 H 61.7542 -1.77729 -1.16302 0
M  V30 675 H 64.0172 -0.757291 -0.570276 0
M  V30 676 H 63.7232 -2.41361 -2.55808 0
M  V30 677 H 63.5972 -1.02917 -3.62888 0
M  V30 678 H 65.9842 -0.322041 -2.93338 0
M  V30 679 H 66.0652 -1.73866 -1.87628 0
M  V30 680 H 65.7092 -3.24607 -3.90631 0
M  V30 681 H 65.6392 -1.80247 -4.94791 0
M  V30 682 H 68.1302 -1.6653 -3.39229 0
M  V30 683 H 68.4432 -3.95565 -6.63889 0
M  V30 684 H 66.7882 -3.55145 -5.97409 0
M  V30 685 H 69.9792 -2.13808 -4.16418 0
M  V30 686 H 70.1522 -3.1823 -5.64476 0
M  V30 687 N 63.5583 1.46682 -0.576371 0
M  V30 688 C 64.7833 2.07304 -0.0630475 0
M  V30 689 C 65.2083 1.42329 1.2298 0
M  V30 690 O 64.5663 0.504865 1.74129 0
M  V30 691 C 64.6143 3.60472 0.095895 0
M  V30 692 O 63.7183 3.95927 1.15394 0
M  V30 693 H 63.0593 0.661288 -0.0599463 0
M  V30 694 H 65.5893 1.88417 -0.797511 0
M  V30 695 H 65.5993 4.06865 0.304071 0
M  V30 696 H 64.2743 4.07157 -0.84828 0
M  V30 697 H 62.8513 3.61252 0.924724 0
M  V30 698 N 65.0364 0.313813 1.54444 0
M  V30 699 C 65.9684 -0.590425 2.21465 0
M  V30 700 C 66.9814 -1.08753 1.21147 0
M  V30 701 O 68.1704 -1.00278 1.4767 0
M  V30 702 C 65.2704 -1.82179 2.85769 0
M  V30 703 C 64.4434 -1.46502 4.12136 0
M  V30 704 C 63.5024 -2.55288 4.60124 0
M  V30 705 O 62.5284 -2.19842 5.25032 0
M  V30 706 N 63.7304 -3.86053 4.33525 0
M  V30 707 H 66.4954 -0.0166033 2.99695 0
M  V30 708 H 64.0564 0.136578 1.61323 0
M  V30 709 H 66.0484 -2.54328 3.14801 0
M  V30 710 H 64.6184 -2.30369 2.11303 0
M  V30 711 H 63.8384 -0.575595 3.89975 0
M  V30 712 H 65.1264 -1.20221 4.94393 0
M  V30 713 H 64.5244 -4.17654 3.81552 0
M  V30 714 H 63.0814 -4.54461 4.67235 0
M  V30 715 N 66.5145 -1.57545 0.0417849 0
M  V30 716 C 67.7395 -1.97035 -0.647455 0
M  V30 717 C 68.1645 -0.918775 -1.64135 0
M  V30 718 O 67.5225 0.119006 -1.80909 0
M  V30 719 C 67.5705 -3.35609 -1.31905 0
M  V30 720 O 66.6745 -3.3287 -2.43457 0
M  V30 721 H 66.0155 -0.64211 -0.169086 0
M  V30 722 H 68.5455 -2.04318 0.107399 0
M  V30 723 H 68.5555 -3.72126 -1.67291 0
M  V30 724 H 67.2305 -4.11685 -0.590586 0
M  V30 725 H 65.8075 -3.08087 -2.10088 0
M  V30 726 N 67.9926 0.231505 -1.5589 0
M  V30 727 C 69.2226 0.973092 -1.82248 0
M  V30 728 C 69.6306 1.78845 -0.617328 0
M  V30 729 O 68.9736 1.78752 0.423499 0
M  V30 730 C 69.0356 1.94732 -3.02192 0
M  V30 731 C 68.6996 1.31743 -4.37599 0
M  V30 732 C 69.6966 0.712238 -5.14998 0
M  V30 733 C 67.3816 1.33218 -4.84312 0
M  V30 734 C 69.3756 0.130195 -6.37267 0
M  V30 735 C 67.0626 0.746286 -6.06526 0
M  V30 736 C 68.0606 0.146337 -6.82843 0
M  V30 737 O 67.7486 -0.430465 -8.02747 0
M  V30 738 H 67.4806 0.29125 -0.61004 0
M  V30 739 H 70.0346 0.254915 -2.03812 0
M  V30 740 H 68.2646 2.70422 -2.76422 0
M  V30 741 H 69.9536 2.55362 -3.15508 0
M  V30 742 H 70.7196 0.69324 -4.8002 0
M  V30 743 H 66.5986 1.78854 -4.24891 0
M  V30 744 H 70.1426 -0.33871 -6.96777 0
M  V30 745 H 66.0396 0.762663 -6.40979 0
M  V30 746 H 66.8076 -0.323818 -8.17859 0
M  V30 747 N 69.4707 1.49531 0.497807 0
M  V30 748 C 70.3807 1.69176 1.62532 0
M  V30 749 C 71.3967 0.5744 1.64246 0
M  V30 750 O 72.5727 0.849497 1.82608 0
M  V30 751 C 69.6377 1.75695 2.98885 0
M  V30 752 C 68.6987 2.9929 3.07773 0
M  V30 753 C 67.9317 3.05488 4.37622 0
M  V30 754 O 68.1547 2.19192 5.26603 0
M  V30 755 O 67.0887 3.9798 4.51548 0
M  V30 756 H 70.9147 2.647 1.48887 0
M  V30 757 H 68.4997 1.3331 0.674441 0
M  V30 758 H 70.3817 1.82317 3.79919 0
M  V30 759 H 69.0567 0.8335 3.12785 0
M  V30 760 H 67.9637 2.98183 2.25915 0
M  V30 761 H 69.2967 3.91125 2.98801 0
M  V30 762 N 70.9488 -0.749086 1.3866 0
M  V30 763 C 71.8588 -1.89358 1.38494 0
M  V30 764 C 72.8748 -1.71708 0.281476 0
M  V30 765 O 74.0508 -1.94554 0.520643 0
M  V30 766 C 71.1158 -3.24782 1.21316 0
M  V30 767 C 70.1768 -3.54926 2.41508 0
M  V30 768 C 69.4098 -4.83888 2.2514 0
M  V30 769 O 69.6328 -5.56592 1.24746 0
M  V30 770 O 68.5668 -5.13612 3.13826 0
M  V30 771 H 72.3928 -1.92452 2.34938 0
M  V30 772 H 69.9778 -0.894981 1.19626 0
M  V30 773 H 71.8598 -4.05739 1.13814 0
M  V30 774 H 70.5348 -3.2249 0.279592 0
M  V30 775 H 69.4418 -2.74112 2.54585 0
M  V30 776 H 70.7748 -3.61983 3.3351 0
M  V30 777 N 72.4269 -1.23603 -0.977757 0
M  V30 778 C 73.6729 -1.07129 -1.72195 0
M  V30 779 C 74.0059 0.390501 -1.90233 0
M  V30 780 O 73.2809 1.28902 -1.45653 0
M  V30 781 C 73.5639 -1.80031 -3.11867 0
M  V30 782 C 73.4169 -3.33899 -3.01383 0
M  V30 783 C 74.7359 -1.56492 -4.11337 0
M  V30 784 H 71.8549 -0.390571 -0.624999 0
M  V30 785 H 74.4969 -1.52142 -1.13811 0
M  V30 786 H 72.6469 -1.41768 -3.6171 0
M  V30 787 H 74.3189 -3.81699 -2.59043 0
M  V30 788 H 72.5619 -3.62796 -2.37827 0
M  V30 789 H 73.2329 -3.801 -4.00285 0
M  V30 790 H 75.7089 -1.89757 -3.70313 0
M  V30 791 H 74.5849 -2.09973 -5.07151 0
M  V30 792 H 74.8459 -0.500874 -4.39254 0
M  V30 793 N 73.905 1.17692 -1.04816 0
M  V30 794 C 74.855 2.1952 -0.616042 0
M  V30 795 C 75.839 1.57147 0.345485 0
M  V30 796 O 77.031 1.76245 0.163325 0
M  V30 797 C 74.16 3.43298 0.0116917 0
M  V30 798 C 73.246 4.12777 -0.973435 0
M  V30 799 N 73.637 4.5814 -2.14339 0
M  V30 800 C 71.935 4.38747 -0.80108 0
M  V30 801 C 72.636 5.11713 -2.7663 0
M  V30 802 N 71.612 5.03686 -2.04453 0
M  V30 803 H 75.414 2.52293 -1.5075 0
M  V30 804 H 72.928 1.3398 -0.917776 0
M  V30 805 H 74.925 4.15519 0.339006 0
M  V30 806 H 73.585 3.12018 0.898593 0
M  V30 807 H 74.596 4.52349 -2.52191 0
M  V30 808 H 71.273 4.17485 0.0350934 0
M  V30 809 H 72.663 5.56962 -3.75823 0
M  V30 810 N 75.3831 0.828654 1.34056 0
M  V30 811 C 76.2931 0.256725 2.33191 0
M  V30 812 C 77.3091 -0.611898 1.62886 0
M  V30 813 O 78.4851 -0.51844 1.94613 0
M  V30 814 C 75.5501 -0.567238 3.42028 0
M  V30 815 C 74.6111 0.324458 4.28072 0
M  V30 816 C 73.8441 -0.460274 5.31712 0
M  V30 817 O 74.0671 -1.693 5.44696 0
M  V30 818 O 73.0011 0.160391 6.01686 0
M  V30 819 H 76.8271 1.07739 2.83947 0
M  V30 820 H 74.4121 0.59093 1.37217 0
M  V30 821 H 76.2941 -1.03582 4.08471 0
M  V30 822 H 74.9691 -1.36513 2.93506 0
M  V30 823 H 73.8761 0.840659 3.64532 0
M  V30 824 H 75.2091 1.08685 4.8005 0
M  V30 825 N 76.8612 -1.46375 0.584142 0
M  V30 826 C 77.7932 -2.28443 -0.186119 0
M  V30 827 C 78.8062 -1.38596 -0.854115 0
M  V30 828 O 79.9952 -1.63183 -0.723438 0
M  V30 829 C 77.0952 -3.13671 -1.28311 0
M  V30 830 C 76.2682 -4.31652 -0.706758 0
M  V30 831 C 75.3272 -4.98267 -1.69163 0
M  V30 832 O 74.3532 -5.55815 -1.22712 0
M  V30 833 N 75.5552 -4.95408 -3.02575 0
M  V30 834 H 78.3202 -2.9519 0.517986 0
M  V30 835 H 75.8812 -1.56303 0.42201 0
M  V30 836 H 77.8732 -3.55101 -1.94128 0
M  V30 837 H 76.4432 -2.48989 -1.89005 0
M  V30 838 H 75.6632 -3.93989 0.128908 0
M  V30 839 H 76.9512 -5.07906 -0.301506 0
M  V30 840 H 76.3492 -4.49902 -3.42936 0
M  V30 841 H 74.9062 -5.40774 -3.63877 0
M  V30 842 N 78.3393 -0.321999 -1.54275 0
M  V30 843 C 79.3023 0.531975 -2.22941 0
M  V30 844 C 80.3023 1.04478 -1.22234 0
M  V30 845 O 81.4923 0.937452 -1.46825 0
M  V30 846 C 78.6243 1.73874 -2.93224 0
M  V30 847 H 79.8173 -0.0682612 -2.99822 0
M  V30 848 H 77.3703 -0.0730644 -1.56129 0
M  V30 849 H 78.1053 2.37825 -2.20476 0
M  V30 850 H 77.8903 1.37847 -3.6707 0
M  V30 851 H 79.3803 2.34496 -3.45545 0
M  V30 852 N 79.8174 1.5752 -0.0501392 0
M  V30 853 C 80.7494 2.08413 0.95376 0
M  V30 854 C 81.7624 1.01175 1.27544 0
M  V30 855 O 82.9514 1.28744 1.23641 0
M  V30 856 C 80.0514 2.51138 2.27559 0
M  V30 857 C 79.2244 3.817 2.13598 0
M  V30 858 C 78.2834 4.10749 3.28895 0
M  V30 859 O 77.3094 4.80685 3.04845 0
M  V30 860 N 78.5114 3.62579 4.5334 0
M  V30 861 H 81.2764 2.95165 0.519383 0
M  V30 862 H 78.8374 1.61327 0.136127 0
M  V30 863 H 80.8294 2.67648 3.03557 0
M  V30 864 H 79.3994 1.6964 2.62567 0
M  V30 865 H 78.6194 3.74782 1.22197 0
M  V30 866 H 79.9074 4.67201 2.01496 0
M  V30 867 H 79.3054 3.06039 4.75769 0
M  V30 868 H 77.8624 3.84329 5.26436 0
M  V30 869 N 81.2955 -0.223234 1.56011 0
M  V30 870 C 82.2435 -1.29627 1.93131 0
M  V30 871 C 83.2375 -1.48608 0.813146 0
M  V30 872 O 84.4435 -1.49802 0.997966 0
M  V30 873 H 80.8185 -0.434563 0.613726 0
M  V30 874 H 82.7895 -0.955995 2.82672 0
M  V30 875 C 81.5385 -2.63983 2.26292 0
M  V30 876 H 80.8615 -2.50185 3.11846 0
M  V30 877 H 82.3015 -3.3788 2.56151 0
M  V30 878 C 80.7605 -3.18866 1.08747 0
M  V30 879 O 81.2905 -4.00192 0.347727 0
M  V30 880 N 79.4965 -2.77217 0.871743 0
M  V30 881 H 79.0435 -2.1119 1.47501 0
M  V30 882 H 79.0015 -3.1428 0.0869905 0
M  V30 883 N 82.7736 -1.49793 -0.48987 0
M  V30 884 C 83.7036 -1.70201 -1.59856 0
M  V30 885 C 84.6846 -0.55076 -1.60937 0
M  V30 886 O 85.8696 -0.787841 -1.77501 0
M  V30 887 C 82.9996 -1.77882 -2.98287 0
M  V30 888 C 81.9536 -2.92907 -3.12073 0
M  V30 889 C 81.2796 -2.85712 -4.51965 0
M  V30 890 C 82.5796 -4.3369 -2.91051 0
M  V30 891 H 84.2736 -2.63025 -1.43032 0
M  V30 892 H 81.8196 -1.26574 -0.686664 0
M  V30 893 H 83.7726 -1.90744 -3.75759 0
M  V30 894 H 82.4966 -0.816653 -3.16225 0
M  V30 895 H 81.1556 -2.79665 -2.37029 0
M  V30 896 H 80.8036 -1.8738 -4.66795 0
M  V30 897 H 80.5036 -3.62921 -4.62128 0
M  V30 898 H 82.0276 -3.00598 -5.31482 0
M  V30 899 H 83.4416 -4.47555 -3.58284 0
M  V30 900 H 81.8386 -5.12205 -3.12675 0
M  V30 901 H 82.9086 -4.47362 -1.87071 0
M  V30 902 N 84.2517 0.741722 -1.39055 0
M  V30 903 C 85.1817 1.869 -1.39966 0
M  V30 904 C 86.1627 1.6804 -0.26392 0
M  V30 905 O 87.3477 1.88458 -0.468755 0
M  V30 906 C 84.4777 3.24572 -1.23574 0
M  V30 907 C 83.4317 3.58056 -2.34477 0
M  V30 908 C 82.7577 4.94593 -2.0318 0
M  V30 909 C 84.0577 3.61716 -3.76774 0
M  V30 910 H 85.7517 1.86395 -2.34302 0
M  V30 911 H 83.2977 0.895361 -1.1278 0
M  V30 912 H 85.2507 4.031 -1.22834 0
M  V30 913 H 83.9747 3.25587 -0.257045 0
M  V30 914 H 82.6337 2.81854 -2.34423 0
M  V30 915 H 82.2817 4.92181 -1.03765 0
M  V30 916 H 81.9817 5.17964 -2.77465 0
M  V30 917 H 83.5057 5.75486 -2.04079 0
M  V30 918 H 84.9197 4.30335 -3.78794 0
M  V30 919 H 83.3167 3.96603 -4.50362 0
M  V30 920 H 84.3867 2.61672 -4.08235 0
M  V30 921 N 85.7298 1.2412 0.971189 0
M  V30 922 C 87.1458 1.00584 1.23916 0
M  V30 923 C 87.3458 -0.287481 1.99439 0
M  V30 924 O 86.4018 -1.00454 2.31658 0
M  V30 925 C 87.7148 2.21864 2.0297 0
M  V30 926 C 89.2628 2.26452 2.16076 0
M  V30 927 C 89.7378 3.47343 2.98524 0
M  V30 928 N 91.2288 3.47639 3.06107 0
M  V30 929 C 91.9638 4.37837 3.70251 0
M  V30 930 N 91.4598 5.38286 4.36142 0
M  V30 931 N 93.2528 4.25558 3.67228 0
M  V30 932 H 85.4038 2.07236 0.465499 0
M  V30 933 H 87.6668 0.909236 0.268315 0
M  V30 934 H 87.3728 3.15771 1.54861 0
M  V30 935 H 87.2468 2.23698 3.03709 0
M  V30 936 H 89.6338 1.33078 2.6339 0
M  V30 937 H 89.7148 2.28645 1.14696 0
M  V30 938 H 89.3588 4.41029 2.51905 0
M  V30 939 H 89.2888 3.42393 4.00093 0
M  V30 940 H 91.7798 2.74966 2.59233 0
M  V30 941 H 92.0928 6.03352 4.82894 0
M  V30 942 H 90.4378 5.42176 4.34822 0
M  V30 943 H 93.6288 3.46322 3.14927 0
M  V30 944 H 93.8018 4.96054 4.16935 0
M  V30 945 N 87.2079 -1.17134 1.05439 0
M  V30 946 C 88.1179 -2.24878 0.668365 0
M  V30 947 C 89.1339 -1.71186 -0.311687 0
M  V30 948 O 90.3099 -2.00738 -0.163161 0
M  V30 949 C 87.3749 -3.46662 0.051648 0
M  V30 950 C 86.4359 -4.15429 1.08246 0
M  V30 951 C 85.6689 -5.31399 0.495082 0
M  V30 952 O 85.8919 -5.66153 -0.694743 0
M  V30 953 O 84.8259 -5.89187 1.23056 0
M  V30 954 H 88.6519 -2.60189 1.56637 0
M  V30 955 H 86.2369 -1.24482 0.826104 0
M  V30 956 H 88.1189 -4.20394 -0.290966 0
M  V30 957 H 86.7939 -3.13142 -0.819971 0
M  V30 958 H 85.7009 -3.43704 1.47711 0
M  V30 959 H 87.0339 -4.52982 1.92532 0
M  V30 960 N 88.686 -0.835752 -1.33615 0
M  V30 961 C 89.616 -0.281739 -2.31794 0
M  V30 962 C 90.597 0.608833 -1.58831 0
M  V30 963 O 91.782 0.533035 -1.86741 0
M  V30 964 C 88.912 0.546612 -3.42971 0
M  V30 965 C 87.866 -0.247904 -4.27281 0
M  V30 966 C 87.192 0.704001 -5.30045 0
M  V30 967 C 88.492 -1.46324 -5.01385 0
M  V30 968 H 90.186 -1.10206 -2.78379 0
M  V30 969 H 87.732 -0.531388 -1.33837 0
M  V30 970 H 89.685 0.944467 -4.1068 0
M  V30 971 H 88.409 1.40011 -2.95067 0
M  V30 972 H 87.068 -0.627281 -3.61194 0
M  V30 973 H 86.716 1.55381 -4.78399 0
M  V30 974 H 86.416 0.176524 -5.87335 0
M  V30 975 H 87.94 1.09944 -6.0062 0
M  V30 976 H 89.354 -1.13871 -5.61877 0
M  V30 977 H 87.751 -1.92728 -5.6831 0
M  V30 978 H 88.821 -2.23467 -4.30338 0
M  V30 979 N 90.1641 1.46063 -0.591896 0
M  V30 980 C 91.0941 2.33172 0.123673 0
M  V30 981 C 92.0751 1.45897 0.87453 0
M  V30 982 O 93.2601 1.74698 0.848181 0
M  V30 983 C 90.3901 3.28336 1.13194 0
M  V30 984 C 89.3441 4.25124 0.495324 0
M  V30 985 C 88.6701 5.09863 1.61071 0
M  V30 986 C 89.9701 5.19143 -0.573425 0
M  V30 987 H 91.6641 2.93252 -0.603646 0
M  V30 988 H 89.2101 1.41014 -0.291741 0
M  V30 989 H 91.1631 3.88137 1.64097 0
M  V30 990 H 89.8871 2.66383 1.88965 0
M  V30 991 H 88.5461 3.66599 0.00729452 0
M  V30 992 H 88.1941 4.44288 2.35832 0
M  V30 993 H 87.8941 5.75417 1.19035 0
M  V30 994 H 89.4181 5.72529 2.12233 0
M  V30 995 H 90.8321 5.73106 -0.1491 0
M  V30 996 H 89.2291 5.93089 -0.914636 0
M  V30 997 H 90.2991 4.62519 -1.45617 0
M  V30 998 N 91.6422 0.330177 1.54103 0
M  V30 999 C 92.5742 -0.566902 2.22079 0
M  V30 1000 C 93.5872 -1.07462 1.22294 0
M  V30 1001 O 94.7762 -0.987065 1.48726 0
M  V30 1002 C 91.8762 -1.79138 2.87685 0
M  V30 1003 C 91.0492 -1.42123 4.13666 0
M  V30 1004 C 90.1082 -2.50394 4.62806 0
M  V30 1005 O 89.1342 -2.14261 5.27334 0
M  V30 1006 N 90.3362 -3.81433 4.37595 0
M  V30 1007 H 93.1012 0.0151844 2.99696 0
M  V30 1008 H 90.6622 0.153681 1.61169 0
M  V30 1009 H 92.6542 -2.50975 3.1748 0
M  V30 1010 H 91.2242 -2.28115 2.13734 0
M  V30 1011 H 90.4442 -0.534201 3.90564 0
M  V30 1012 H 91.7322 -1.14971 4.9564 0
M  V30 1013 H 91.1302 -4.13584 3.8596 0
M  V30 1014 H 89.6872 -4.4948 4.72029 0
M  V30 1015 N 93.1203 -1.57491 0.0584922 0
M  V30 1016 C 94.3693 -1.92155 -0.613146 0
M  V30 1017 C 94.6823 -0.939334 -1.71569 0
M  V30 1018 O 95.8883 -1.17829 -2.44599 0
M  V30 1019 C 94.3443 -3.41303 -1.14195 0
M  V30 1020 C 93.9523 -4.47944 -0.0711265 0
M  V30 1021 C 95.6963 -3.84988 -1.78841 0
M  V30 1022 C 93.6033 -5.88212 -0.613225 0
M  V30 1023 H 92.5333 -0.717162 -0.232796 0
M  V30 1024 H 95.1843 -1.83049 0.12857 0
M  V30 1025 H 93.5663 -3.45437 -1.93621 0
M  V30 1026 H 94.7403 -4.55408 0.702836 0
M  V30 1027 H 93.0553 -4.13644 0.478313 0
M  V30 1028 H 95.6523 -4.87159 -2.20408 0
M  V30 1029 H 95.9953 -3.21632 -2.64308 0
M  V30 1030 H 96.5283 -3.83401 -1.06059 0
M  V30 1031 H 93.2673 -6.55183 0.203978 0
M  V30 1032 H 92.7873 -5.84294 -1.35501 0
M  V30 1033 H 94.4663 -6.37687 -1.09383 0
M  V30 1034 N 94.5984 0.214957 -1.56127 0
M  V30 1035 C 96.0094 0.781386 -1.69562 0
M  V30 1036 C 96.3604 1.84707 -0.66165 0
M  V30 1037 O 95.4854 2.156 0.185927 0
M  V30 1038 C 96.0804 1.42411 -3.07416 0
M  V30 1039 C 94.6394 1.93786 -3.22683 0
M  V30 1040 C 93.7864 0.800438 -2.65496 0
M  V30 1041 H 96.7374 -0.00980633 -1.58697 0
M  V30 1042 H 96.7584 2.29309 -3.0364 0
M  V30 1043 H 96.2704 0.64826 -3.82648 0
M  V30 1044 H 94.3714 2.74152 -2.52332 0
M  V30 1045 H 94.4844 2.1133 -4.29973 0
M  V30 1046 H 92.8484 1.2095 -2.2415 0
M  V30 1047 H 93.6314 0.0371471 -3.4328 0
M  V30 1048 N 96.0765 1.50051 0.48192 0
M  V30 1049 C 97.0245 1.68635 1.60203 0
M  V30 1050 C 98.0185 0.552184 1.60148 0
M  V30 1051 O 99.2245 0.732377 1.64427 0
M  V30 1052 H 95.5995 0.532081 0.531407 0
M  V30 1053 H 97.5705 2.62616 1.41688 0
M  V30 1054 C 96.3195 1.78775 2.9822 0
M  V30 1055 H 95.6425 2.6543 2.98976 0
M  V30 1056 H 97.0825 1.95806 3.7608 0
M  V30 1057 C 95.5415 0.536849 3.32595 0
M  V30 1058 O 96.0715 -0.328897 4.00351 0
M  V30 1059 N 94.2775 0.394091 2.87915 0
M  V30 1060 H 93.8245 1.09962 2.32951 0
M  V30 1061 H 93.7825 -0.441737 3.11281 0
M  V30 1062 N 97.5546 -0.734337 1.39446 0
M  V30 1063 C 98.8316 -1.48579 1.27215 0
M  V30 1064 C 99.2116 -2.1077 -0.117968 0
M  V30 1065 O 98.5596 -1.98646 -1.12924 0
M  V30 1066 C 98.7696 -2.53667 2.39696 0
M  V30 1067 C 100.118 -3.20031 2.79044 0
M  V30 1068 O 101.142 -2.6398 2.39151 0
M  V30 1069 O 100.001 -4.21455 3.47905 0
M  V30 1070 H 97.0946 -0.659816 0.49857 0
M  V30 1071 H 99.6406 -0.768106 1.51322 0
M  V30 1072 H 98.4126 -2.06096 3.32626 0
M  V30 1073 H 98.0356 -3.32994 2.17258 0
M  V30 1074 N 99.0327 -1.24633 -0.964593 0
M  V30 1075 C 100.263 -1.11339 -1.74032 0
M  V30 1076 C 100.671 0.336593 -1.86182 0
M  V30 1077 O 100.014 1.24389 -1.35178 0
M  V30 1078 C 100.076 -1.68284 -3.1768 0
M  V30 1079 C 99.7397 -3.17196 -3.28992 0
M  V30 1080 C 100.737 -4.14308 -3.14078 0
M  V30 1081 C 98.4217 -3.57215 -3.53133 0
M  V30 1082 C 100.416 -5.4942 -3.23135 0
M  V30 1083 C 98.1027 -4.92468 -3.61827 0
M  V30 1084 C 99.1007 -5.8838 -3.46841 0
M  V30 1085 O 98.7887 -7.21173 -3.55197 0
M  V30 1086 H 98.5207 -0.389551 -0.552472 0
M  V30 1087 H 101.075 -1.65282 -1.21946 0
M  V30 1088 H 99.3047 -1.08777 -3.71085 0
M  V30 1089 H 100.994 -1.50234 -3.77074 0
M  V30 1090 H 101.76 -3.84731 -2.95308 0
M  V30 1091 H 97.6387 -2.83063 -3.63863 0
M  V30 1092 H 101.183 -6.24263 -3.11355 0
M  V30 1093 H 97.0797 -5.21714 -3.80111 0
M  V30 1094 H 97.8477 -7.29135 -3.71892 0
M  V30 1095 N 100.511 1.16574 -1.06058 0
M  V30 1096 C 101.443 2.2045 -0.627239 0
M  V30 1097 C 102.456 1.59752 0.313534 0
M  V30 1098 O 103.645 1.78192 0.104896 0
M  V30 1099 C 100.745 3.3875 0.100974 0
M  V30 1100 C 99.9178 4.29008 -0.852687 0
M  V30 1101 C 98.9768 5.25944 -0.164152 0
M  V30 1102 O 98.0028 5.63535 -0.801047 0
M  V30 1103 N 99.2048 5.70075 1.09518 0
M  V30 1104 H 101.97 2.58249 -1.52077 0
M  V30 1105 H 99.5308 1.3156 -0.943594 0
M  V30 1106 H 101.523 4.00638 0.57194 0
M  V30 1107 H 100.093 2.99476 0.89628 0
M  V30 1108 H 99.3128 3.64419 -1.50308 0
M  V30 1109 H 100.601 4.86195 -1.49972 0
M  V30 1110 H 99.9988 5.41624 1.6328 0
M  V30 1111 H 98.5558 6.34067 1.51006 0
M  V30 1112 N 101.989 0.842826 1.3317 0
M  V30 1113 C 103.238 0.436738 1.96915 0
M  V30 1114 C 103.551 -1.01025 1.67491 0
M  V30 1115 O 104.757 -1.5212 2.24881 0
M  V30 1116 C 103.213 0.730021 3.52418 0
M  V30 1117 C 102.821 2.19195 3.90714 0
M  V30 1118 C 104.565 0.391076 4.22695 0
M  V30 1119 C 102.472 2.42907 5.39212 0
M  V30 1120 H 101.402 0.15958 0.736919 0
M  V30 1121 H 104.053 1.03196 1.51733 0
M  V30 1122 H 102.435 0.0643755 3.95948 0
M  V30 1123 H 103.609 2.8984 3.58231 0
M  V30 1124 H 101.924 2.49425 3.33431 0
M  V30 1125 H 104.521 0.545817 5.31907 0
M  V30 1126 H 104.864 -0.666294 4.10933 0
M  V30 1127 H 105.397 1.01212 3.84709 0
M  V30 1128 H 102.136 3.47224 5.55982 0
M  V30 1129 H 101.656 1.76827 5.73142 0
M  V30 1130 H 103.335 2.2626 6.06148 0
M  V30 1131 N 103.467 -1.45747 0.599634 0
M  V30 1132 C 104.397 -2.33235 -0.111306 0
M  V30 1133 C 105.378 -1.46359 -0.866781 0
M  V30 1134 O 106.563 -1.75146 -0.838904 0
M  V30 1135 C 103.693 -3.28932 -1.11451 0
M  V30 1136 C 102.647 -4.25381 -0.472772 0
M  V30 1137 C 101.973 -5.1071 -1.58365 0
M  V30 1138 C 103.273 -5.18831 0.600948 0
M  V30 1139 H 104.967 -2.92927 0.61919 0
M  V30 1140 H 102.513 -1.40857 0.299215 0
M  V30 1141 H 104.466 -3.89002 -1.62036 0
M  V30 1142 H 103.19 -2.67381 -1.8755 0
M  V30 1143 H 101.849 -3.66598 0.0121472 0
M  V30 1144 H 101.497 -4.45533 -2.33473 0
M  V30 1145 H 101.197 -5.7604 -1.15982 0
M  V30 1146 H 102.721 -5.73647 -2.09194 0
M  V30 1147 H 104.135 -5.73019 0.179491 0
M  V30 1148 H 102.532 -5.92595 0.946076 0
M  V30 1149 H 103.602 -4.6174 1.48068 0
M  V30 1150 N 104.945 -0.338344 -1.53925 0
M  V30 1151 C 106.192 0.259758 -2.00827 0
M  V30 1152 C 106.52 1.50973 -1.22628 0
M  V30 1153 O 105.775 1.93379 -0.300509 0
M  V30 1154 C 106.074 0.62448 -3.51902 0
M  V30 1155 C 105.74 -0.528006 -4.47798 0
M  V30 1156 C 104.402 -0.844298 -4.73735 0
M  V30 1157 C 106.754 -1.30143 -5.0469 0
M  V30 1158 C 104.082 -1.93648 -5.53821 0
M  V30 1159 C 106.434 -2.38382 -5.85967 0
M  V30 1160 C 105.098 -2.70576 -6.10201 0
M  V30 1161 H 104.368 0.0950523 -0.734878 0
M  V30 1162 H 107.015 -0.465182 -1.85764 0
M  V30 1163 H 105.32 1.43006 -3.64769 0
M  V30 1164 H 107.017 1.09905 -3.85645 0
M  V30 1165 H 103.607 -0.271421 -4.2774 0
M  V30 1166 H 107.791 -1.07033 -4.84621 0
M  V30 1167 H 103.047 -2.19021 -5.70824 0
M  V30 1168 H 107.221 -2.98746 -6.29066 0
M  V30 1169 H 104.848 -3.55333 -6.72044 0
M  V30 1170 N 106.423 1.57458 -0.0668435 0
M  V30 1171 C 107.353 2.15468 0.899764 0
M  V30 1172 C 108.334 1.08042 1.31381 0
M  V30 1173 O 109.519 1.36054 1.38574 0
M  V30 1174 C 106.649 2.71232 2.16911 0
M  V30 1175 C 105.603 3.83781 1.89463 0
M  V30 1176 C 104.929 4.26127 3.22986 0
M  V30 1177 C 106.229 5.08238 1.20381 0
M  V30 1178 H 107.923 2.96488 0.416529 0
M  V30 1179 H 105.469 1.4262 0.198908 0
M  V30 1180 H 107.422 3.10458 2.84945 0
M  V30 1181 H 106.146 1.87426 2.67468 0
M  V30 1182 H 104.805 3.45051 1.23836 0
M  V30 1183 H 104.453 3.39249 3.71374 0
M  V30 1184 H 104.153 5.01993 3.05413 0
M  V30 1185 H 105.677 4.67966 3.92225 0
M  V30 1186 H 107.091 5.44811 1.78475 0
M  V30 1187 H 105.488 5.89349 1.13083 0
M  V30 1188 H 106.558 4.84558 0.182153 0
M  V30 1189 N 107.901 -0.206675 1.56239 0
M  V30 1190 C 108.833 -1.27997 1.9013 0
M  V30 1191 C 109.846 -1.42299 0.790883 0
M  V30 1192 O 111.035 -1.42931 1.06925 0
M  V30 1193 C 108.135 -2.65368 2.10792 0
M  V30 1194 C 107.308 -2.72824 3.41886 0
M  V30 1195 C 106.367 -3.9131 3.51799 0
M  V30 1196 O 105.393 -3.78953 4.24716 0
M  V30 1197 N 106.595 -5.06265 2.84035 0
M  V30 1198 H 109.36 -0.992444 2.82791 0
M  V30 1199 H 106.921 -0.396652 1.56966 0
M  V30 1200 H 108.913 -3.43039 2.14724 0
M  V30 1201 H 107.483 -2.86657 1.24685 0
M  V30 1202 H 106.703 -1.81515 3.49923 0
M  V30 1203 H 107.991 -2.74786 4.28217 0
M  V30 1204 H 107.389 -5.19203 2.246 0
M  V30 1205 H 105.946 -5.81925 2.93609 0
M  V30 1206 N 109.379 -1.50304 -0.473955 0
M  V30 1207 C 110.627 -1.60832 -1.22382 0
M  V30 1208 C 110.948 -0.30939 -1.9253 0
M  V30 1209 O 110.218 0.67296 -1.83978 0
M  V30 1210 H 108.798 -0.592652 -0.454723 0
M  V30 1211 H 111.46 -1.87068 -0.546968 0
M  V30 1212 H 110.556 -2.41803 -1.97327 0
M  V30 1213 N 110.857 0.726932 -1.39834 0
M  V30 1214 C 112.105 1.4837 -1.37225 0
M  V30 1215 C 112.426 1.94979 0.0284857 0
M  V30 1216 O 111.696 1.69555 0.981213 0
M  V30 1217 H 110.276 0.55043 -0.505011 0
M  V30 1218 H 112.938 0.862468 -1.74778 0
M  V30 1219 H 112.034 2.36198 -2.04003 0
M  V30 1220 N 112.336 1.25143 0.95797 0
M  V30 1221 C 113.299 1.05321 2.03569 0
M  V30 1222 C 114.299 0.007152 1.60798 0
M  V30 1223 O 115.489 0.24903 1.72411 0
M  V30 1224 C 112.621 0.598394 3.35607 0
M  V30 1225 H 113.814 2.00986 2.22586 0
M  V30 1226 H 111.367 1.07502 1.13459 0
M  V30 1227 H 112.102 -0.361014 3.22284 0
M  V30 1228 H 111.887 1.35351 3.67998 0
M  V30 1229 H 113.377 0.48104 4.1482 0
M  V30 1230 N 113.814 -1.1601 1.06675 0
M  V30 1231 C 115.039 -1.91068 0.806706 0
M  V30 1232 C 115.464 -1.77112 -0.633485 0
M  V30 1233 O 114.822 -1.09908 -1.44187 0
M  V30 1234 C 114.87 -3.39655 1.21106 0
M  V30 1235 O 113.974 -4.10893 0.352189 0
M  V30 1236 H 113.315 -0.595125 0.294486 0
M  V30 1237 H 115.845 -1.46955 1.42356 0
M  V30 1238 H 115.855 -3.90434 1.18428 0
M  V30 1239 H 114.53 -3.49132 2.26008 0
M  V30 1240 H 113.107 -3.70285 0.440868 0
M  V30 1241 N 115.292 -0.849877 -1.32721 0
M  V30 1242 C 116.222 -0.306308 -2.31482 0
M  V30 1243 C 117.203 0.591952 -1.59468 0
M  V30 1244 O 118.388 0.513199 -1.87296 0
M  V30 1245 C 115.518 0.510204 -3.43532 0
M  V30 1246 C 114.472 -0.293209 -4.26994 0
M  V30 1247 C 113.798 0.647743 -5.30762 0
M  V30 1248 C 115.098 -1.51634 -4.99804 0
M  V30 1249 H 116.792 -1.13153 -2.77195 0
M  V30 1250 H 114.338 -0.545553 -1.33266 0
M  V30 1251 H 116.291 0.900856 -4.11658 0
M  V30 1252 H 115.015 1.36874 -2.96535 0
M  V30 1253 H 113.674 -0.665555 -3.60508 0
M  V30 1254 H 113.322 1.50299 -4.8002 0
M  V30 1255 H 113.022 0.11422 -5.87489 0
M  V30 1256 H 114.546 1.03567 -6.01753 0
M  V30 1257 H 115.96 -1.19824 -5.60638 0
M  V30 1258 H 114.357 -1.98745 -5.66234 0
M  V30 1259 H 115.427 -2.28018 -4.27943 0
M  V30 1260 N 116.77 1.45427 -0.607355 0
M  V30 1261 C 117.702 2.2871 0.149752 0
M  V30 1262 C 118.715 1.39937 0.831958 0
M  V30 1263 O 119.904 1.64313 0.697385 0
M  V30 1264 C 117.004 3.15673 1.23304 0
M  V30 1265 C 116.177 4.32722 0.637996 0
M  V30 1266 C 115.236 5.00895 1.61215 0
M  V30 1267 O 114.262 5.57697 1.13854 0
M  V30 1268 N 115.464 5.00159 2.94655 0
M  V30 1269 H 118.229 2.94328 -0.564882 0
M  V30 1270 H 115.79 1.55612 -0.446823 0
M  V30 1271 H 117.782 3.58144 1.88454 0
M  V30 1272 H 116.352 2.51965 1.8502 0
M  V30 1273 H 115.572 3.93734 -0.191572 0
M  V30 1274 H 116.86 5.08321 0.220665 0
M  V30 1275 H 116.258 4.553 3.35735 0
M  V30 1276 H 114.815 5.46495 3.55228 0
M  V30 1277 N 118.248 0.346503 1.53744 0
M  V30 1278 C 119.495 -0.249104 2.00962 0
M  V30 1279 C 119.823 -1.5032 1.23426 0
M  V30 1280 O 119.078 -1.93217 0.310761 0
M  V30 1281 C 119.377 -0.605809 3.52228 0
M  V30 1282 C 119.043 0.551747 4.47512 0
M  V30 1283 C 117.705 0.86941 4.73281 0
M  V30 1284 C 120.057 1.32818 5.03993 0
M  V30 1285 C 117.385 1.96582 5.52786 0
M  V30 1286 C 119.737 2.41486 5.84694 0
M  V30 1287 C 118.401 2.73808 6.08757 0
M  V30 1288 H 117.671 -0.0911538 0.735372 0
M  V30 1289 H 120.318 0.475027 1.85515 0
M  V30 1290 H 118.623 -1.4107 3.65522 0
M  V30 1291 H 120.32 -1.07858 3.86222 0
M  V30 1292 H 116.91 0.294102 4.2759 0
M  V30 1293 H 121.094 1.09602 4.84047 0
M  V30 1294 H 116.35 2.22045 5.69654 0
M  V30 1295 H 120.524 3.02078 6.27473 0
M  V30 1296 H 118.151 3.58892 6.7015 0
M  V30 1297 N 119.726 -1.57421 0.075193 0
M  V30 1298 C 120.954 -1.97946 -0.602076 0
M  V30 1299 C 121.369 -0.953674 -1.62943 0
M  V30 1300 O 120.726 0.0592551 -1.82404 0
M  V30 1301 C 120.777 -3.38546 -1.26762 0
M  V30 1302 O 120.498 -4.37195 -0.281376 0
M  V30 1303 C 121.999 -3.93966 -2.03239 0
M  V30 1304 H 119.219 -0.650918 -0.162931 0
M  V30 1305 H 121.763 -2.03959 0.148601 0
M  V30 1306 H 119.918 -3.33609 -1.96936 0
M  V30 1307 H 120.332 -5.18975 -0.759267 0
M  V30 1308 H 121.806 -4.94555 -2.45193 0
M  V30 1309 H 122.283 -3.30693 -2.8903 0
M  V30 1310 H 122.889 -4.02315 -1.37924 0
M  V30 1311 N 121.204 0.198386 -1.56346 0
M  V30 1312 C 122.137 1.27381 -1.89339 0
M  V30 1313 C 123.115 1.44106 -0.753134 0
M  V30 1314 O 124.299 1.59549 -1.00381 0
M  V30 1315 C 121.426 2.6409 -2.12071 0
M  V30 1316 C 120.472 2.64253 -3.34772 0
M  V30 1317 S 121.305 2.16013 -4.89999 0
M  V30 1318 C 122.461 3.54553 -5.15794 0
M  V30 1319 H 122.694 0.992058 -2.8026 0
M  V30 1320 H 120.227 0.401726 -1.49082 0
M  V30 1321 H 122.185 3.42786 -2.2585 0
M  V30 1322 H 120.846 2.89478 -1.21906 0
M  V30 1323 H 120.039 3.64768 -3.47794 0
M  V30 1324 H 119.641 1.93637 -3.1997 0
M  V30 1325 H 121.933 4.50396 -5.06112 0
M  V30 1326 H 122.876 3.46428 -6.1757 0
M  V30 1327 H 123.284 3.49313 -4.43442 0
M  V30 1328 N 122.682 1.50554 0.465978 0
M  V30 1329 C 123.612 1.72722 1.57128 0
M  V30 1330 C 124.593 0.576294 1.6004 0
M  V30 1331 O 125.778 0.81598 1.76225 0
M  V30 1332 C 122.908 1.82605 2.95419 0
M  V30 1333 C 121.862 2.97835 3.07373 0
M  V30 1334 C 121.188 2.92867 4.47363 0
M  V30 1335 C 122.488 4.38265 2.84114 0
M  V30 1336 H 124.182 2.65267 1.38829 0
M  V30 1337 H 121.728 1.2765 0.666441 0
M  V30 1338 H 123.681 1.96698 3.72677 0
M  V30 1339 H 122.405 0.866858 3.14886 0
M  V30 1340 H 121.064 2.83401 2.3255 0
M  V30 1341 H 120.712 1.94783 4.63755 0
M  V30 1342 H 120.412 3.70227 4.56296 0
M  V30 1343 H 121.936 3.09015 5.26633 0
M  V30 1344 H 123.35 4.53198 3.51118 0
M  V30 1345 H 121.747 5.17115 3.04487 0
M  V30 1346 H 122.817 4.50281 1.7993 0
M  V30 1347 N 124.16 -0.719506 1.40217 0
M  V30 1348 C 125.571 -1.29848 1.34151 0
M  V30 1349 C 125.922 -1.96196 0.0131349 0
M  V30 1350 O 125.047 -1.973 -0.88892 0
M  V30 1351 C 125.642 -2.36118 2.42968 0
M  V30 1352 C 124.201 -2.8965 2.40374 0
M  V30 1353 C 123.348 -1.63393 2.24049 0
M  V30 1354 H 126.299 -0.51591 1.5008 0
M  V30 1355 H 126.32 -3.16871 2.10649 0
M  V30 1356 H 125.832 -1.878 3.39636 0
M  V30 1357 H 123.933 -3.42208 1.47392 0
M  V30 1358 H 124.046 -3.4171 3.35814 0
M  V30 1359 H 122.41 -1.88312 1.71495 0
M  V30 1360 H 123.193 -1.17104 3.2271 0
M  V30 1361 N 125.638 -1.25649 -0.95132 0
M  V30 1362 C 126.571 -1.00644 -2.04807 0
M  V30 1363 C 127.549 0.0654271 -1.62468 0
M  V30 1364 O 128.733 -0.074911 -1.88351 0
M  V30 1365 C 125.86 -0.522052 -3.34653 0
M  V30 1366 C 124.906 -1.58495 -3.95957 0
M  V30 1367 S 125.739 -3.17108 -4.31512 0
M  V30 1368 C 126.895 -2.70412 -5.64471 0
M  V30 1369 H 127.128 -1.93508 -2.25703 0
M  V30 1370 H 124.661 -1.09216 -1.09139 0
M  V30 1371 H 126.619 -0.24923 -4.09743 0
M  V30 1372 H 125.28 0.386146 -3.11717 0
M  V30 1373 H 124.473 -1.1968 -4.89584 0
M  V30 1374 H 124.075 -1.80862 -3.2736 0
M  V30 1375 H 126.367 -2.14245 -6.42733 0
M  V30 1376 H 127.31 -3.62693 -6.08161 0
M  V30 1377 H 127.718 -2.10302 -5.23864 0
M  V30 1378 N 127.117 1.15442 -1.07289 0
M  V30 1379 C 128.065 2.22225 -0.686952 0
M  V30 1380 C 129.059 1.66688 0.30193 0
M  V30 1381 O 130.265 1.79236 0.165712 0
M  V30 1382 H 126.64 0.723783 -0.204064 0
M  V30 1383 H 128.611 2.52056 -1.5972 0
M  V30 1384 C 127.36 3.47556 -0.100149 0
M  V30 1385 H 126.683 3.90612 -0.852211 0
M  V30 1386 H 128.123 4.23794 0.132235 0
M  V30 1387 C 126.582 3.16337 1.159 0
M  V30 1388 O 127.112 3.33074 2.24555 0
M  V30 1389 N 125.318 2.70385 1.06491 0
M  V30 1390 H 124.865 2.56966 0.180668 0
M  V30 1391 H 124.823 2.49871 1.90819 0
M  V30 1392 N 128.595 0.856903 1.32268 0
M  V30 1393 C 129.525 0.31858 2.31316 0
M  V30 1394 C 130.506 -0.583487 1.59779 0
M  V30 1395 O 131.691 -0.503259 1.87566 0
M  V30 1396 C 128.821 -0.491979 3.43798 0
M  V30 1397 C 127.775 0.315849 4.26833 0
M  V30 1398 C 127.101 -0.619586 5.31098 0
M  V30 1399 C 128.401 1.54282 4.98993 0
M  V30 1400 H 130.095 1.14621 2.76591 0
M  V30 1401 H 127.641 0.552613 1.32974 0
M  V30 1402 H 129.594 -0.879012 4.1213 0
M  V30 1403 H 128.318 -1.35299 2.97257 0
M  V30 1404 H 126.977 0.684664 3.6015 0
M  V30 1405 H 126.625 -1.47751 4.8081 0
M  V30 1406 H 126.325 -0.0830621 5.87541 0
M  V30 1407 H 127.849 -1.00375 6.02293 0
M  V30 1408 H 129.263 1.22796 5.59995 0
M  V30 1409 H 127.66 2.01745 5.65172 0
M  V30 1410 H 128.73 2.30285 4.26728 0
M  V30 1411 N 130.073 -1.45103 0.615059 0
M  V30 1412 C 131.003 -2.33339 -0.0865619 0
M  V30 1413 C 131.984 -1.4727 -0.851209 0
M  V30 1414 O 133.169 -1.76026 -0.820281 0
M  V30 1415 C 130.299 -3.30095 -1.07956 0
M  V30 1416 C 129.253 -4.25858 -0.427628 0
M  V30 1417 C 128.579 -5.12361 -1.5294 0
M  V30 1418 C 129.879 -5.18165 0.655944 0
M  V30 1419 H 131.573 -2.92254 0.650224 0
M  V30 1420 H 129.119 -1.40532 0.314138 0
M  V30 1421 H 131.072 -3.90698 -1.57901 0
M  V30 1422 H 129.796 -2.69355 -1.84703 0
M  V30 1423 H 128.455 -3.66564 0.0510292 0
M  V30 1424 H 128.103 -4.47984 -2.28734 0
M  V30 1425 H 127.803 -5.77238 -1.09865 0
M  V30 1426 H 129.327 -5.75833 -2.03098 0
M  V30 1427 H 130.741 -5.72796 0.240257 0
M  V30 1428 H 129.138 -5.91559 1.00888 0
M  V30 1429 H 130.208 -4.60144 1.52957 0
M  V30 1430 N 131.551 -0.354651 -1.53558 0
M  V30 1431 C 132.779 0.239515 -2.05509 0
M  V30 1432 C 133.194 1.4333 -1.2289 0
M  V30 1433 O 132.551 1.80538 -0.266899 0
M  V30 1434 C 132.602 0.643719 -3.55723 0
M  V30 1435 O 132.323 -0.502602 -4.35207 0
M  V30 1436 C 133.824 1.29743 -4.23889 0
M  V30 1437 H 131.044 0.0442697 -0.669538 0
M  V30 1438 H 133.588 -0.509856 -1.98042 0
M  V30 1439 H 131.743 1.34302 -3.63376 0
M  V30 1440 H 132.157 -0.178172 -5.24197 0
M  V30 1441 H 133.631 1.53091 -5.30346 0
M  V30 1442 H 134.108 2.25441 -3.76926 0
M  V30 1443 H 134.714 0.639865 -4.20459 0
M  V30 1444 N 133.029 1.57378 -0.0835403 0
M  V30 1445 C 133.976 2.13384 0.879539 0
M  V30 1446 C 134.946 1.04936 1.28754 0
M  V30 1447 O 136.131 1.32662 1.37133 0
M  V30 1448 C 133.271 2.70932 2.13752 0
M  V30 1449 C 132.384 3.93575 1.7811 0
M  V30 1450 C 131.519 4.39326 2.98607 0
M  V30 1451 C 130.558 5.54587 2.59037 0
M  V30 1452 N 129.695 5.95243 3.72331 0
M  V30 1453 H 134.535 2.9537 0.395076 0
M  V30 1454 H 132.072 1.45953 0.183349 0
M  V30 1455 H 134.03 3.02411 2.87408 0
M  V30 1456 H 132.66 1.91693 2.59718 0
M  V30 1457 H 131.712 3.68483 0.94469 0
M  V30 1458 H 133.024 4.77258 1.45005 0
M  V30 1459 H 132.178 4.72528 3.80529 0
M  V30 1460 H 130.917 3.5452 3.34913 0
M  V30 1461 H 129.922 5.21024 1.75539 0
M  V30 1462 H 131.147 6.41133 2.23887 0
M  V30 1463 H 129.093 5.13385 4.08378 0
M  V30 1464 H 129.01 6.73694 3.43034 0
M  V30 1465 H 130.278 6.33072 4.54797 0
M  V30 1466 N 134.507 -0.190092 1.56449 0
M  V30 1467 C 135.755 -0.907908 1.80559 0
M  V30 1468 C 136.076 -1.83583 0.657438 0
M  V30 1469 O 135.346 -1.93203 -0.323924 0
M  V30 1470 H 133.926 -0.338247 0.666032 0
M  V30 1471 H 136.588 -0.194403 1.93928 0
M  V30 1472 H 135.684 -1.49604 2.73907 0
M  V30 1473 N 135.985 -1.50799 -0.457987 0
M  V30 1474 C 137.213 -1.66218 -1.23203 0
M  V30 1475 C 137.628 -0.350894 -1.85511 0
M  V30 1476 O 136.985 0.668546 -1.69814 0
M  V30 1477 C 137.036 -2.76291 -2.33121 0
M  V30 1478 O 136.757 -4.02338 -1.73366 0
M  V30 1479 C 138.258 -3.028 -3.2377 0
M  V30 1480 H 135.478 -0.558361 -0.372121 0
M  V30 1481 H 138.022 -1.97099 -0.545179 0
M  V30 1482 H 136.177 -2.48068 -2.97558 0
M  V30 1483 H 136.591 -4.63312 -2.4585 0
M  V30 1484 H 138.065 -3.8345 -3.97077 0
M  V30 1485 H 138.542 -2.14385 -3.83322 0
M  V30 1486 H 139.148 -3.32604 -2.65056 0
M  V30 1487 N 137.463 0.71206 -1.40597 0
M  V30 1488 C 138.712 1.46754 -1.38369 0
M  V30 1489 C 139.025 1.95598 0.0097839 0
M  V30 1490 O 140.231 2.71059 0.154677 0
M  V30 1491 C 138.687 2.65289 -2.43207 0
M  V30 1492 C 138.295 2.23301 -3.88382 0
M  V30 1493 C 140.039 3.43008 -2.50091 0
M  V30 1494 C 137.946 3.38696 -4.84808 0
M  V30 1495 H 136.876 0.55118 -0.514506 0
M  V30 1496 H 139.527 0.774616 -1.66349 0
M  V30 1497 H 137.909 3.36769 -2.08332 0
M  V30 1498 H 139.083 1.59218 -4.32419 0
M  V30 1499 H 137.398 1.58618 -3.85006 0
M  V30 1500 H 139.995 4.28881 -3.1932 0
M  V30 1501 H 140.338 3.87065 -1.53253 0
M  V30 1502 H 140.871 2.78574 -2.83974 0
M  V30 1503 H 137.61 2.99668 -5.82992 0
M  V30 1504 H 137.13 4.01683 -4.45433 0
M  V30 1505 H 138.809 4.04712 -5.04794 0
M  V30 1506 N 138.941 1.26152 0.944643 0
M  V30 1507 C 140.189 1.11271 1.6871 0
M  V30 1508 C 140.51 -0.345166 1.91921 0
M  V30 1509 O 139.78 -1.24387 1.51343 0
M  V30 1510 H 138.36 0.408783 0.625224 0
M  V30 1511 H 141.022 1.58427 1.1352 0
M  V30 1512 H 140.118 1.62879 2.66227 0
M  V30 1513 N 140.419 -1.14872 1.07899 0
M  V30 1514 C 141.367 -2.21857 0.698727 0
M  V30 1515 C 142.361 -1.66845 -0.293086 0
M  V30 1516 O 143.567 -1.79321 -0.156204 0
M  V30 1517 H 139.942 -0.722691 0.207899 0
M  V30 1518 H 141.913 -2.51205 1.61054 0
M  V30 1519 C 140.662 -3.47498 0.11858 0
M  V30 1520 H 139.985 -3.90154 0.872914 0
M  V30 1521 H 141.425 -4.23858 -0.109759 0
M  V30 1522 C 139.884 -3.16947 -1.1422 0
M  V30 1523 O 140.414 -3.3426 -2.22785 0
M  V30 1524 N 138.62 -2.70946 -1.05055 0
M  V30 1525 H 138.167 -2.57058 -0.167038 0
M  V30 1526 H 138.125 -2.50879 -1.89491 0
M  V30 1527 N 141.898 -0.863906 -1.31812 0
M  V30 1528 C 143.128 -0.485406 -2.00817 0
M  V30 1529 C 143.536 0.925007 -1.65046 0
M  V30 1530 O 142.879 1.61653 -0.872574 0
M  V30 1531 C 142.941 -0.555589 -3.55181 0
M  V30 1532 C 142.605 -1.92654 -4.14407 0
M  V30 1533 C 143.602 -2.89324 -4.31958 0
M  V30 1534 C 141.287 -2.2262 -4.50273 0
M  V30 1535 C 143.281 -4.14108 -4.84555 0
M  V30 1536 C 140.968 -3.47654 -5.02573 0
M  V30 1537 C 141.966 -4.43214 -5.19664 0
M  V30 1538 O 141.654 -5.66033 -5.70843 0
M  V30 1539 H 141.386 -0.188224 -0.649267 0
M  V30 1540 H 143.94 -1.16514 -1.69156 0
M  V30 1541 H 142.17 0.181037 -3.86276 0
M  V30 1542 H 143.859 -0.19138 -4.05449 0
M  V30 1543 H 144.625 -2.6748 -4.04573 0
M  V30 1544 H 140.504 -1.4902 -4.3625 0
M  V30 1545 H 144.048 -4.88703 -4.9781 0
M  V30 1546 H 139.945 -3.69345 -5.29391 0
M  V30 1547 H 140.713 -5.6812 -5.89222 0
M  V30 1548 N 143.376 1.44774 -0.622745 0
M  V30 1549 C 144.622 2.0242 -0.124083 0
M  V30 1550 C 144.955 1.4881 1.24777 0
M  V30 1551 O 144.23 0.668799 1.8264 0
M  V30 1552 C 144.513 3.59957 -0.101619 0
M  V30 1553 C 144.366 4.23867 -1.50521 0
M  V30 1554 C 145.685 4.36284 0.578272 0
M  V30 1555 H 142.804 0.735528 -0.0465645 0
M  V30 1556 H 145.446 1.72447 -0.797617 0
M  V30 1557 H 143.596 3.85623 0.471934 0
M  V30 1558 H 145.268 4.09336 -2.12701 0
M  V30 1559 H 143.511 3.81684 -2.06154 0
M  V30 1560 H 144.182 5.32843 -1.4416 0
M  V30 1561 H 146.658 4.16001 0.0906057 0
M  V30 1562 H 145.534 5.46004 0.563149 0
M  V30 1563 H 145.795 4.10271 1.64713 0
M  V30 1564 N 144.854 0.36279 1.53368 0
M  V30 1565 C 145.784 -0.476976 2.28576 0
M  V30 1566 C 146.765 -1.08631 1.30894 0
M  V30 1567 O 147.95 -1.10409 1.59761 0
M  V30 1568 C 145.08 -1.61828 3.07293 0
M  V30 1569 C 144.034 -1.13633 4.1264 0
M  V30 1570 C 143.36 -2.36766 4.79423 0
M  V30 1571 C 144.66 -0.223061 5.21823 0
M  V30 1572 H 146.354 0.150474 2.99022 0
M  V30 1573 H 143.9 0.0738103 1.43811 0
M  V30 1574 H 145.853 -2.21237 3.58653 0
M  V30 1575 H 144.577 -2.27292 2.34533 0
M  V30 1576 H 143.236 -0.564945 3.62221 0
M  V30 1577 H 142.884 -3.0068 4.03238 0
M  V30 1578 H 142.584 -2.05192 5.50609 0
M  V30 1579 H 144.108 -2.96865 5.33576 0
M  V30 1580 H 145.522 -0.724545 5.68703 0
M  V30 1581 H 143.919 0.001678 6.001 0
M  V30 1582 H 144.989 0.735553 4.79289 0
M  V30 1583 N 146.332 -1.57332 0.0918853 0
M  V30 1584 C 147.56 -1.98574 -0.581048 0
M  V30 1585 C 147.975 -0.970903 -1.61923 0
M  V30 1586 O 147.332 0.0399054 -1.82456 0
M  V30 1587 C 147.383 -3.39872 -1.23164 0
M  V30 1588 O 147.104 -4.37469 -0.234989 0
M  V30 1589 C 148.605 -3.96099 -1.99049 0
M  V30 1590 H 145.825 -0.65261 -0.156018 0
M  V30 1591 H 148.369 -2.0379 0.170225 0
M  V30 1592 H 146.524 -3.35679 -1.93386 0
M  V30 1593 H 146.938 -5.19751 -0.70418 0
M  V30 1594 H 148.412 -4.97127 -2.39934 0
M  V30 1595 H 148.889 -3.3374 -2.85507 0
M  V30 1596 H 149.495 -4.03755 -1.3365 0
M  V30 1597 N 147.81 0.181792 -1.56548 0
M  V30 1598 C 149.058 0.89832 -1.81038 0
M  V30 1599 C 149.379 1.83232 -0.667164 0
M  V30 1600 O 148.649 1.93372 0.313673 0
M  V30 1601 H 147.229 0.33471 -0.667816 0
M  V30 1602 H 149.891 0.184116 -1.94028 0
M  V30 1603 H 148.987 1.4815 -2.74696 0
M  V30 1604 N 149.288 1.51039 0.449983 0
M  V30 1605 C 150.513 1.6715 1.22783 0
M  V30 1606 C 150.938 0.363081 1.84563 0
M  V30 1607 O 150.296 -0.675433 1.68249 0
M  V30 1608 C 150.344 2.77985 2.29689 0
M  V30 1609 O 149.448 2.40707 3.34864 0
M  V30 1610 H 148.789 0.557746 0.360299 0
M  V30 1611 H 151.319 1.97535 0.533005 0
M  V30 1612 H 151.329 3.01693 2.74673 0
M  V30 1613 H 150.004 3.72935 1.84098 0
M  V30 1614 H 148.581 2.27523 2.95445 0
M  V30 1615 N 150.766 -0.704594 1.40972 0
M  V30 1616 C 152.012 -1.46546 1.41053 0
M  V30 1617 C 152.367 -1.92393 0.0159714 0
M  V30 1618 O 151.66 -1.66017 -0.956506 0
M  V30 1619 C 151.854 -2.698 2.34399 0
M  V30 1620 C 151.683 -2.36008 3.82793 0
M  V30 1621 C 150.453 -2.26812 4.51536 0
M  V30 1622 C 152.651 -1.99565 4.74003 0
M  V30 1623 N 150.633 -1.8581 5.85105 0
M  V30 1624 C 152.004 -1.69251 5.96451 0
M  V30 1625 C 154.059 -1.86296 4.61734 0
M  V30 1626 C 152.762 -1.27003 7.07999 0
M  V30 1627 C 154.788 -1.45452 5.73234 0
M  V30 1628 C 154.15 -1.16043 6.94776 0
M  V30 1629 H 150.249 -0.533896 0.571383 0
M  V30 1630 H 152.833 -0.816061 1.76773 0
M  V30 1631 H 151.004 -3.32473 2.00789 0
M  V30 1632 H 152.736 -3.36214 2.25261 0
M  V30 1633 H 149.491 -2.44913 4.05357 0
M  V30 1634 H 149.915 -1.67817 6.55871 0
M  V30 1635 H 154.557 -2.0769 3.68273 0
M  V30 1636 H 152.275 -1.04353 8.01334 0
M  V30 1637 H 155.861 -1.35748 5.65742 0
M  V30 1638 H 154.741 -0.84915 7.79589 0
M  V30 1639 N 152.244 -1.26651 -0.937939 0
M  V30 1640 C 153.469 -1.15279 -1.72411 0
M  V30 1641 C 153.894 0.287866 -1.85884 0
M  V30 1642 O 153.252 1.20855 -1.35143 0
M  V30 1643 C 153.3 -1.83028 -3.10698 0
M  V30 1644 O 152.404 -1.12128 -3.96864 0
M  V30 1645 H 151.745 -0.401504 -0.528858 0
M  V30 1646 H 154.275 -1.67531 -1.1745 0
M  V30 1647 H 154.285 -1.89981 -3.6107 0
M  V30 1648 H 152.96 -2.87833 -3.00208 0
M  V30 1649 H 151.537 -1.13173 -3.55312 0
M  V30 1650 N 153.722 1.14298 -1.08507 0
M  V30 1651 C 154.632 2.23027 -0.727753 0
M  V30 1652 C 155.648 1.71952 0.26619 0
M  V30 1653 O 156.824 2.011 0.109882 0
M  V30 1654 C 153.889 3.46403 -0.143541 0
M  V30 1655 C 152.95 4.12413 -1.19223 0
M  V30 1656 C 152.183 5.29899 -0.635798 0
M  V30 1657 O 152.406 5.67796 0.544393 0
M  V30 1658 O 151.34 5.85717 -1.38634 0
M  V30 1659 H 155.166 2.55945 -1.63481 0
M  V30 1660 H 152.751 1.22248 -0.858817 0
M  V30 1661 H 154.633 4.21018 0.179404 0
M  V30 1662 H 153.308 3.15206 0.736659 0
M  V30 1663 H 152.215 3.39667 -1.56772 0
M  V30 1664 H 153.548 4.47718 -2.04474 0
M  V30 1665 N 155.201 0.870884 1.31352 0
M  V30 1666 C 156.148 0.325425 2.28494 0
M  V30 1667 C 157.118 -0.576615 1.5577 0
M  V30 1668 O 158.303 -0.508059 1.83911 0
M  V30 1669 C 155.443 -0.466283 3.41935 0
M  V30 1670 C 154.556 0.463378 4.29508 0
M  V30 1671 C 153.691 -0.342544 5.30094 0
M  V30 1672 C 152.73 0.583486 6.09313 0
M  V30 1673 N 151.867 -0.186244 7.01853 0
M  V30 1674 H 156.707 1.15901 2.74538 0
M  V30 1675 H 154.244 0.58294 1.35056 0
M  V30 1676 H 156.202 -0.941085 4.06447 0
M  V30 1677 H 154.832 -1.26456 2.97 0
M  V30 1678 H 153.884 1.05663 3.65431 0
M  V30 1679 H 155.196 1.1734 4.84802 0
M  V30 1680 H 154.35 -0.879816 6.00287 0
M  V30 1681 H 153.089 -1.08585 4.75458 0
M  V30 1682 H 152.094 1.13251 5.3801 0
M  V30 1683 H 153.319 1.32566 6.66035 0
M  V30 1684 H 151.265 -0.912348 6.49625 0
M  V30 1685 H 151.182 0.464422 7.54572 0
M  V30 1686 H 152.45 -0.704716 7.76308 0
M  V30 1687 N 156.679 -1.44442 0.630414 0
M  V30 1688 C 157.642 -2.29107 -0.0652523 0
M  V30 1689 C 158.642 -1.41002 -0.772995 0
M  V30 1690 O 159.832 -1.62881 -0.617692 0
M  V30 1691 C 156.964 -3.22564 -1.10296 0
M  V30 1692 H 158.157 -2.92103 0.679401 0
M  V30 1693 H 155.71 -1.51343 0.390517 0
M  V30 1694 H 156.445 -2.64416 -1.87762 0
M  V30 1695 H 156.23 -3.87491 -0.59941 0
M  V30 1696 H 157.72 -3.86167 -1.5895 0
M  V30 1697 N 158.157 -0.370918 -1.53173 0
M  V30 1698 C 159.087 0.464847 -2.28826 0
M  V30 1699 C 160.068 1.07936 -1.31468 0
M  V30 1700 O 161.253 1.0956 -1.60344 0
M  V30 1701 C 158.383 1.60196 -3.08147 0
M  V30 1702 C 157.337 1.11443 -4.13237 0
M  V30 1703 C 156.663 2.3422 -4.80672 0
M  V30 1704 C 157.963 0.195384 -5.21934 0
M  V30 1705 H 159.657 -0.166329 -2.98938 0
M  V30 1706 H 157.203 -0.0814359 -1.4377 0
M  V30 1707 H 159.156 2.19332 -3.59822 0
M  V30 1708 H 157.88 2.26045 -2.35735 0
M  V30 1709 H 156.539 0.545727 -3.62515 0
M  V30 1710 H 156.187 2.98537 -4.04827 0
M  V30 1711 H 155.887 2.02269 -5.51689 0
M  V30 1712 H 157.411 2.94032 -5.35143 0
M  V30 1713 H 158.825 0.694375 -5.69079 0
M  V30 1714 H 157.222 -0.0335027 -6.00091 0
M  V30 1715 H 158.292 -0.760961 -4.78892 0
M  V30 1716 N 159.635 1.57281 -0.100228 0
M  V30 1717 C 160.582 2.14305 0.856858 0
M  V30 1718 C 161.552 1.06296 1.27634 0
M  V30 1719 O 162.737 1.34109 1.35718 0
M  V30 1720 C 159.877 2.73184 2.10866 0
M  V30 1721 C 158.99 3.95442 1.73925 0
M  V30 1722 C 158.125 4.42468 2.93931 0
M  V30 1723 C 157.164 5.57303 2.5314 0
M  V30 1724 N 156.301 5.99158 3.65997 0
M  V30 1725 H 161.141 2.95772 0.363726 0
M  V30 1726 H 158.678 1.46139 0.167858 0
M  V30 1727 H 160.636 3.05442 2.84185 0
M  V30 1728 H 159.266 1.94437 2.57671 0
M  V30 1729 H 158.318 3.69464 0.905554 0
M  V30 1730 H 159.63 4.78769 1.39935 0
M  V30 1731 H 158.784 4.76537 3.75496 0
M  V30 1732 H 157.523 3.58052 3.31134 0
M  V30 1733 H 156.528 5.22857 1.70003 0
M  V30 1734 H 157.753 6.43471 2.17075 0
M  V30 1735 H 155.699 5.17687 4.02909 0
M  V30 1736 H 155.616 6.77295 3.35869 0
M  V30 1737 H 156.884 6.3786 4.48057 0
M  V30 1738 N 161.113 -0.173488 1.56642 0
M  V30 1739 C 162.023 -1.23482 1.99473 0
M  V30 1740 C 163.039 -1.48567 0.905752 0
M  V30 1741 O 164.215 -1.60758 1.21321 0
M  V30 1742 C 161.28 -2.55444 2.34413 0
M  V30 1743 C 160.341 -2.38241 3.57127 0
M  V30 1744 C 159.574 -3.63909 3.90392 0
M  V30 1745 O 159.797 -4.68996 3.24653 0
M  V30 1746 O 158.731 -3.58149 4.83749 0
M  V30 1747 H 162.557 -0.901279 2.90018 0
M  V30 1748 H 160.142 -0.380185 1.44482 0
M  V30 1749 H 162.024 -3.33292 2.57865 0
M  V30 1750 H 160.699 -2.88382 1.4703 0
M  V30 1751 H 159.606 -1.58431 3.38896 0
M  V30 1752 H 160.939 -2.10228 4.45045 0
M  V30 1753 N 162.591 -1.51276 -0.441967 0
M  V30 1754 C 163.554 -1.7167 -1.51862 0
M  V30 1755 C 164.554 -0.586793 -1.49711 0
M  V30 1756 O 165.744 -0.854276 -1.51815 0
M  V30 1757 C 162.876 -1.76889 -2.91416 0
M  V30 1758 H 164.069 -2.67754 -1.35084 0
M  V30 1759 H 161.622 -1.41196 -0.670333 0
M  V30 1760 H 162.357 -0.826026 -3.13604 0
M  V30 1761 H 162.142 -2.59001 -2.94382 0
M  V30 1762 H 163.632 -1.94522 -3.69528 0
M  V30 1763 N 164.069 0.697108 -1.41344 0
M  V30 1764 C 165.016 1.81106 -1.43071 0
M  V30 1765 C 165.986 1.63632 -0.285275 0
M  V30 1766 O 167.171 1.84504 -0.486091 0
M  V30 1767 C 164.311 3.18975 -1.31715 0
M  V30 1768 C 163.424 3.47892 -2.56115 0
M  V30 1769 C 162.559 4.75367 -2.37064 0
M  V30 1770 C 161.598 4.97247 -3.56948 0
M  V30 1771 N 160.735 6.15947 -3.36977 0
M  V30 1772 H 165.575 1.78965 -2.38276 0
M  V30 1773 H 163.112 0.873975 -1.18322 0
M  V30 1774 H 165.07 3.98615 -1.23133 0
M  V30 1775 H 163.7 3.20297 -0.401183 0
M  V30 1776 H 162.752 2.62669 -2.75153 0
M  V30 1777 H 164.064 3.59962 -3.45295 0
M  V30 1778 H 163.218 5.63059 -2.25941 0
M  V30 1779 H 161.957 4.65541 -1.45338 0
M  V30 1780 H 160.962 4.08004 -3.68527 0
M  V30 1781 H 162.187 5.08934 -4.49626 0
M  V30 1782 H 160.133 6.07336 -2.47949 0
M  V30 1783 H 160.05 6.28777 -4.19732 0
M  V30 1784 H 161.318 7.06377 -3.29623 0
M  V30 1785 N 165.547 1.27147 0.931209 0
M  V30 1786 C 166.477 1.12081 2.04842 0
M  V30 1787 C 167.458 0.0232364 1.70084 0
M  V30 1788 O 168.643 0.197085 1.93197 0
M  V30 1789 C 165.773 0.76354 3.38803 0
M  V30 1790 C 164.727 1.81396 3.87659 0
M  V30 1791 C 164.053 1.31075 5.18385 0
M  V30 1792 C 165.353 3.21739 4.11438 0
M  V30 1793 H 167.047 2.05537 2.17703 0
M  V30 1794 H 164.593 0.989603 1.04608 0
M  V30 1795 H 166.546 0.644982 4.16435 0
M  V30 1796 H 165.27 -0.206727 3.25945 0
M  V30 1797 H 163.929 1.92136 3.12217 0
M  V30 1798 H 163.577 0.330037 5.01916 0
M  V30 1799 H 163.277 2.013 5.52044 0
M  V30 1800 H 164.801 1.20506 5.98591 0
M  V30 1801 H 166.215 3.14019 4.79651 0
M  V30 1802 H 164.612 3.89644 4.56397 0
M  V30 1803 H 165.682 3.67054 3.16859 0
M  V30 1804 N 167.025 -1.13721 1.09112 0
M  V30 1805 C 167.955 -2.21148 0.749385 0
M  V30 1806 C 168.936 -1.6792 -0.271475 0
M  V30 1807 O 170.121 -1.93693 -0.140251 0
M  V30 1808 C 167.251 -3.46905 0.165659 0
M  V30 1809 C 166.205 -4.13203 1.11567 0
M  V30 1810 C 165.531 -5.33248 0.393809 0
M  V30 1811 C 166.831 -4.60912 2.45678 0
M  V30 1812 H 168.525 -2.4999 1.64758 0
M  V30 1813 H 166.071 -1.20156 0.793626 0
M  V30 1814 H 168.024 -4.21313 -0.085466 0
M  V30 1815 H 166.748 -3.17449 -0.767714 0
M  V30 1816 H 165.407 -3.40758 1.35202 0
M  V30 1817 H 165.055 -5.00054 -0.543599 0
M  V30 1818 H 164.755 -5.78552 1.02721 0
M  V30 1819 H 166.279 -6.10413 0.150908 0
M  V30 1820 H 167.693 -5.26759 2.26269 0
M  V30 1821 H 166.09 -5.16944 3.04776 0
M  V30 1822 H 167.16 -3.75603 3.06677 0
M  V30 1823 N 168.503 -0.877838 -1.30888 0
M  V30 1824 C 169.751 -0.491723 -1.96027 0
M  V30 1825 C 170.072 0.960827 -1.69685 0
M  V30 1826 O 169.342 1.67462 -1.01654 0
M  V30 1827 H 167.922 -0.17885 -0.725273 0
M  V30 1828 H 170.584 -1.11935 -1.59551 0
M  V30 1829 H 169.68 -0.656016 -3.05128 0
M  V30 1830 N 169.982 1.44106 -0.638065 0
M  V30 1831 C 170.892 2.34513 0.0637334 0
M  V30 1832 C 171.908 1.53018 0.828346 0
M  V30 1833 O 173.084 1.85723 0.779036 0
M  V30 1834 C 170.149 3.31095 1.02844 0
M  V30 1835 C 169.21 4.28497 0.26244 0
M  V30 1836 C 168.443 5.20465 1.1812 0
M  V30 1837 O 168.666 5.16514 2.42011 0
M  V30 1838 O 167.6 5.98251 0.661774 0
M  V30 1839 H 171.426 2.95989 -0.68003 0
M  V30 1840 H 169.011 1.43994 -0.398252 0
M  V30 1841 H 170.893 3.90526 1.58327 0
M  V30 1842 H 169.568 2.72144 1.7527 0
M  V30 1843 H 168.475 3.72592 -0.335602 0
M  V30 1844 H 169.808 4.90388 -0.421936 0
M  V30 1845 N 171.46 0.379036 1.52974 0
M  V30 1846 C 172.688 -0.20679 2.05864 0
M  V30 1847 C 173.103 -1.41356 1.25155 0
M  V30 1848 O 172.46 -1.8009 0.295588 0
M  V30 1849 C 172.511 -0.587045 3.56702 0
M  V30 1850 O 172.232 0.571776 4.34353 0
M  V30 1851 C 173.733 -1.22983 4.25899 0
M  V30 1852 H 170.953 -0.0336123 0.670158 0
M  V30 1853 H 173.497 0.541298 1.97206 0
M  V30 1854 H 171.652 -1.28504 3.65466 0
M  V30 1855 H 172.066 0.261544 5.23847 0
M  V30 1856 H 173.54 -1.44635 5.32715 0
M  V30 1857 H 174.017 -2.19416 3.80465 0
M  V30 1858 H 174.623 -0.572892 4.21424 0
M  V30 1859 N 172.938 -1.57226 0.108567 0
M  V30 1860 C 173.888 -2.11305 -0.856396 0
M  V30 1861 C 174.872 -1.03129 -1.23504 0
M  V30 1862 O 176.064 -1.29381 -1.20787 0
M  V30 1863 C 173.193 -2.70771 -2.11041 0
M  V30 1864 C 172.279 -3.86011 -1.7566 0
M  V30 1865 N 172.67 -4.93492 -1.10902 0
M  V30 1866 C 170.968 -3.95999 -2.05185 0
M  V30 1867 C 171.669 -5.73984 -0.944308 0
M  V30 1868 N 170.645 -5.2346 -1.46596 0
M  V30 1869 H 174.447 -2.91784 -0.352002 0
M  V30 1870 H 171.961 -1.62126 -0.0942324 0
M  V30 1871 H 173.958 -3.07851 -2.81128 0
M  V30 1872 H 172.618 -1.91751 -2.62034 0
M  V30 1873 H 173.629 -5.1208 -0.774235 0
M  V30 1874 H 170.306 -3.28007 -2.58298 0
M  V30 1875 H 171.696 -6.70479 -0.436813 0
M  V30 1876 N 174.416 0.165178 -1.56732 0
M  V30 1877 C 175.665 0.879143 -1.81532 0
M  V30 1878 C 175.978 1.83144 -0.686842 0
M  V30 1879 O 177.184 2.58823 -0.819944 0
M  V30 1880 C 175.64 1.61388 -3.21686 0
M  V30 1881 C 175.248 0.704904 -4.4242 0
M  V30 1882 C 176.992 2.3157 -3.55774 0
M  V30 1883 C 174.899 1.44022 -5.73595 0
M  V30 1884 H 173.829 0.332033 -0.676957 0
M  V30 1885 H 176.48 0.132008 -1.83025 0
M  V30 1886 H 174.862 2.40599 -3.14529 0
M  V30 1887 H 176.036 -0.0506815 -4.60772 0
M  V30 1888 H 174.351 0.112419 -4.16248 0
M  V30 1889 H 176.948 2.8719 -4.51028 0
M  V30 1890 H 177.291 3.07201 -2.8095 0
M  V30 1891 H 177.824 1.59297 -3.64513 0
M  V30 1892 H 174.563 0.72612 -6.51466 0
M  V30 1893 H 174.083 2.16898 -5.5921 0
M  V30 1894 H 175.762 1.98606 -6.15764 0
M  V30 1895 N 175.894 1.51508 0.433938 0
M  V30 1896 C 176.857 1.72473 1.50949 0
M  V30 1897 C 177.857 0.594725 1.49398 0
M  V30 1898 O 179.047 0.862315 1.5136 0
M  V30 1899 C 176.179 1.78431 2.90474 0
M  V30 1900 H 177.372 2.68467 1.33662 0
M  V30 1901 H 174.925 1.41549 0.662836 0
M  V30 1902 H 175.66 0.842645 3.13161 0
M  V30 1903 H 175.445 2.60558 2.93005 0
M  V30 1904 H 176.935 1.96479 3.68491 0
M  V30 1905 N 177.372 -0.689602 1.41712 0
M  V30 1906 C 178.335 -1.78521 1.43746 0
M  V30 1907 C 179.335 -1.57436 0.327191 0
M  V30 1908 O 180.525 -1.64 0.587348 0
M  V30 1909 C 177.657 -3.16971 1.25467 0
M  V30 1910 H 178.85 -1.78108 2.41283 0
M  V30 1911 H 176.403 -0.89781 1.27942 0
M  V30 1912 H 177.138 -3.23019 0.287948 0
M  V30 1913 H 176.923 -3.33678 2.05917 0
M  V30 1914 H 178.413 -3.96935 1.2974 0
M  V30 1915 N 178.85 -1.27639 -0.924453 0
M  V30 1916 C 180.075 -1.17101 -1.71179 0
M  V30 1917 C 180.5 0.268134 -1.86179 0
M  V30 1918 O 179.858 1.19415 -1.36418 0
M  V30 1919 C 179.906 -1.86313 -3.08739 0
M  V30 1920 O 179.01 -1.16331 -3.95652 0
M  V30 1921 H 178.351 -0.407091 -0.524569 0
M  V30 1922 H 180.881 -1.68767 -1.15666 0
M  V30 1923 H 180.891 -1.938 -3.59034 0
M  V30 1924 H 179.566 -2.91001 -2.97138 0
M  V30 1925 H 178.143 -1.16935 -3.54091 0
M  V30 1926 N 180.328 1.1314 -1.09713 0
M  V30 1927 C 181.556 1.88321 -0.856898 0
M  V30 1928 C 181.971 1.79276 0.592073 0
M  V30 1929 O 181.328 1.16142 1.40774 0
M  V30 1930 C 181.379 3.37812 -1.28706 0
M  V30 1931 O 181.1 3.46627 -2.67921 0
M  V30 1932 C 182.601 4.29952 -1.07964 0
M  V30 1933 H 179.821 0.596094 -0.308079 0
M  V30 1934 H 182.365 1.43205 -1.45988 0
M  V30 1935 H 180.52 3.805 -0.727912 0
M  V30 1936 H 180.934 4.39579 -2.8613 0
M  V30 1937 H 182.408 5.33159 -1.42986 0
M  V30 1938 H 182.885 4.39196 -0.0176577 0
M  V30 1939 H 183.491 3.93036 -1.62489 0
M  V30 1940 N 181.806 0.884767 1.30421 0
M  V30 1941 C 182.753 0.349642 2.28136 0
M  V30 1942 C 183.723 -0.560061 1.56373 0
M  V30 1943 O 184.908 -0.488524 1.8444 0
M  V30 1944 C 182.048 -0.42999 3.42411 0
M  V30 1945 C 181.161 0.508907 4.28992 0
M  V30 1946 C 180.296 -0.286301 5.30428 0
M  V30 1947 C 179.335 0.648079 6.08659 0
M  V30 1948 N 178.472 -0.111792 7.02011 0
M  V30 1949 H 183.312 1.18807 2.73293 0
M  V30 1950 H 180.849 0.597231 1.3443 0
M  V30 1951 H 182.807 -0.897923 4.07423 0
M  V30 1952 H 181.437 -1.23299 2.98324 0
M  V30 1953 H 180.489 1.09533 3.64289 0
M  V30 1954 H 181.801 1.22475 4.8353 0
M  V30 1955 H 180.955 -0.816098 6.01186 0
M  V30 1956 H 179.694 -1.03536 4.76583 0
M  V30 1957 H 178.699 1.18951 5.36778 0
M  V30 1958 H 179.924 1.39623 6.64592 0
M  V30 1959 H 177.87 -0.843395 6.50556 0
M  V30 1960 H 177.787 0.544429 7.54037 0
M  V30 1961 H 179.055 -0.622339 7.77012 0
M  V30 1962 N 183.284 -1.43765 0.645699 0
M  V30 1963 C 184.247 -2.29163 -0.0409488 0
M  V30 1964 C 185.247 -1.41813 -0.757996 0
M  V30 1965 O 186.437 -1.63527 -0.600382 0
M  V30 1966 C 183.569 -3.23716 -1.06869 0
M  V30 1967 H 184.762 -2.91366 0.710345 0
M  V30 1968 H 182.315 -1.5092 0.406547 0
M  V30 1969 H 183.05 -2.66393 -1.84947 0
M  V30 1970 H 182.835 -3.88105 -0.558277 0
M  V30 1971 H 184.325 -3.87831 -1.54845 0
M  V30 1972 N 184.763 -0.387143 -1.52771 0
M  V30 1973 C 185.711 0.463953 -2.27926 0
M  V30 1974 C 186.705 1.06493 -1.31741 0
M  V30 1975 O 187.911 1.00565 -1.49287 0
M  V30 1976 H 184.286 0.16837 -0.732909 0
M  V30 1977 H 186.257 -0.19141 -2.97785 0
M  V30 1978 C 185.006 1.5803 -3.09713 0
M  V30 1979 H 184.329 1.12718 -3.83581 0
M  V30 1980 H 185.769 2.15008 -3.65442 0
M  V30 1981 C 184.228 2.53509 -2.2189 0
M  V30 1982 O 184.758 3.56863 -1.84422 0
M  V30 1983 N 182.964 2.23199 -1.86093 0
M  V30 1984 H 182.511 1.39185 -2.16761 0
M  V30 1985 H 182.469 2.87333 -1.27621 0
M  V30 1986 N 186.241 1.57166 -0.116904 0
M  V30 1987 C 187.466 1.999 0.55271 0
M  V30 1988 C 187.891 0.996039 1.59564 0
M  V30 1989 O 187.249 -0.032556 1.81271 0
M  V30 1990 C 187.297 3.4152 1.15742 0
M  V30 1991 O 186.401 3.44106 2.27299 0
M  V30 1992 H 185.742 0.649447 0.138258 0
M  V30 1993 H 188.272 2.03573 -0.204759 0
M  V30 1994 H 188.282 3.79684 1.49346 0
M  V30 1995 H 186.957 4.14034 0.393493 0
M  V30 1996 H 185.534 3.17759 1.9515 0
M  V30 1997 N 187.719 -0.156864 1.56817 0
M  V30 1998 C 188.949 -0.885031 1.86684 0
M  V30 1999 C 189.357 -1.75696 0.701954 0
M  V30 2000 O 188.7 -1.80569 -0.337732 0
M  V30 2001 C 188.762 -1.80092 3.11138 0
M  V30 2002 C 188.426 -1.10714 4.43386 0
M  V30 2003 C 189.423 -0.465714 5.1781 0
M  V30 2004 C 187.108 -1.09959 4.90117 0
M  V30 2005 C 189.102 0.174002 6.37162 0
M  V30 2006 C 186.789 -0.456055 6.09396 0
M  V30 2007 C 187.787 0.179622 6.82764 0
M  V30 2008 O 187.475 0.812975 7.99779 0
M  V30 2009 H 187.207 -0.261813 0.623242 0
M  V30 2010 H 189.761 -0.157383 2.04796 0
M  V30 2011 H 187.991 -2.56926 2.89009 0
M  V30 2012 H 189.68 -2.40018 3.27332 0
M  V30 2013 H 190.446 -0.463427 4.82781 0
M  V30 2014 H 186.325 -1.58378 4.3294 0
M  V30 2015 H 189.869 0.670765 6.94368 0
M  V30 2016 H 185.766 -0.455975 6.43888 0
M  V30 2017 H 186.534 0.71366 8.15383 0
M  V30 2018 N 189.197 -1.51736 -0.425897 0
M  V30 2019 C 190.129 -1.70083 -1.53638 0
M  V30 2020 C 191.142 -0.581349 -1.52066 0
M  V30 2021 O 192.331 -0.856017 -1.56635 0
M  V30 2022 C 189.431 -1.71078 -2.9255 0
M  V30 2023 C 188.604 -2.99795 -3.185 0
M  V30 2024 C 187.663 -2.92825 -4.37196 0
M  V30 2025 O 186.689 -3.66756 -4.35291 0
M  V30 2026 N 187.891 -2.0946 -5.41393 0
M  V30 2027 H 190.656 -2.65882 -1.383 0
M  V30 2028 H 188.217 -1.49765 -0.614988 0
M  V30 2029 H 190.209 -1.63969 -3.69995 0
M  V30 2030 H 188.779 -0.828242 -3.01428 0
M  V30 2031 H 187.999 -3.20684 -2.2925 0
M  V30 2032 H 189.287 -3.84977 -3.32671 0
M  V30 2033 H 188.685 -1.48792 -5.45781 0
M  V30 2034 H 187.242 -2.08221 -6.17647 0
M  V30 2035 N 190.675 0.682077 -1.42076 0
M  V30 2036 C 191.9 1.47558 -1.45744 0
M  V30 2037 C 192.325 1.87977 -0.0680981 0
M  V30 2038 O 191.683 1.55522 0.9318 0
M  V30 2039 C 191.731 2.70575 -2.38373 0
M  V30 2040 O 190.835 3.68573 -1.85007 0
M  V30 2041 H 190.176 0.443585 -0.494093 0
M  V30 2042 H 192.706 0.837238 -1.86686 0
M  V30 2043 H 192.716 3.18729 -2.54707 0
M  V30 2044 H 191.391 2.40495 -3.39315 0
M  V30 2045 H 189.968 3.2757 -1.78192 0
M  V30 2046 N 192.153 1.28127 0.917671 0
M  V30 2047 C 193.402 1.14432 1.66097 0
M  V30 2048 C 193.715 -0.307247 1.93172 0
M  V30 2049 O 194.921 -0.565259 2.65551 0
M  V30 2050 C 193.377 2.00015 2.99202 0
M  V30 2051 C 192.985 3.49889 2.79789 0
M  V30 2052 C 194.729 1.94996 3.77064 0
M  V30 2053 C 192.636 4.27636 4.08511 0
M  V30 2054 H 191.566 0.424662 0.62304 0
M  V30 2055 H 194.217 1.52628 1.01868 0
M  V30 2056 H 192.599 1.54672 3.64544 0
M  V30 2057 H 193.773 4.03162 2.23152 0
M  V30 2058 H 192.088 3.56392 2.15345 0
M  V30 2059 H 194.685 2.50354 4.72469 0
M  V30 2060 H 195.028 0.925819 4.05875 0
M  V30 2061 H 195.561 2.38287 3.18534 0
M  V30 2062 H 192.3 5.30615 3.84874 0
M  V30 2063 H 191.82 3.79137 4.64774 0
M  V30 2064 H 193.499 4.37346 4.76799 0
M  V30 2065 N 193.631 -1.12557 1.10312 0
M  V30 2066 C 195.042 -1.65574 0.862678 0
M  V30 2067 C 195.393 -1.86566 -0.607256 0
M  V30 2068 O 194.518 -1.59121 -1.46662 0
M  V30 2069 C 195.113 -3.00776 1.55947 0
M  V30 2070 C 193.672 -3.50748 1.36576 0
M  V30 2071 C 192.819 -2.25797 1.60968 0
M  V30 2072 H 195.77 -0.963552 1.26101 0
M  V30 2073 H 195.791 -3.67185 0.997753 0
M  V30 2074 H 195.303 -2.85465 2.62928 0
M  V30 2075 H 193.404 -3.71245 0.317531 0
M  V30 2076 H 193.517 -4.30289 2.10686 0
M  V30 2077 H 191.881 -2.32841 1.03234 0
M  V30 2078 H 192.664 -2.13043 2.69198 0
M  V30 2079 N 195.109 -0.891671 -1.2995 0
M  V30 2080 C 196.386 -0.433307 -1.9074 0
M  V30 2081 C 196.766 1.08646 -1.80995 0
M  V30 2082 O 196.114 1.92476 -1.23147 0
M  V30 2083 C 196.324 -0.938895 -3.36134 0
M  V30 2084 C 197.672 -0.977829 -4.13187 0
M  V30 2085 O 198.696 -0.886015 -3.45005 0
M  V30 2086 O 197.555 -1.11453 -5.35015 0
M  V30 2087 H 194.649 -0.133699 -0.816121 0
M  V30 2088 H 197.195 -0.981011 -1.38471 0
M  V30 2089 H 195.967 -1.98281 -3.37343 0
M  V30 2090 H 195.59 -0.37074 -3.95868 0
M  V30 2091 N 196.587 1.43421 -0.653314 0
M  V30 2092 C 197.834 2.01812 -0.166745 0
M  V30 2093 C 198.162 1.51535 1.21931 0
M  V30 2094 O 197.417 0.698975 1.82792 0
M  V30 2095 C 197.716 3.57176 -0.126623 0
M  V30 2096 C 197.382 4.26798 -1.45444 0
M  V30 2097 C 196.044 4.45534 -1.81805 0
M  V30 2098 C 198.396 4.66225 -2.32989 0
M  V30 2099 C 195.724 5.00961 -3.05377 0
M  V30 2100 C 198.076 5.23021 -3.55853 0
M  V30 2101 C 196.74 5.39973 -3.9241 0
M  V30 2102 H 196.01 0.738484 -0.0610162 0
M  V30 2103 H 198.657 1.71896 -0.84404 0
M  V30 2104 H 196.962 3.86634 0.634123 0
M  V30 2105 H 198.659 4.00112 0.266723 0
M  V30 2106 H 195.249 4.12561 -1.16153 0
M  V30 2107 H 199.433 4.51443 -2.06187 0
M  V30 2108 H 194.689 5.12271 -3.3375 0
M  V30 2109 H 198.863 5.52518 -4.23907 0
M  V30 2110 H 196.49 5.82687 -4.88242 0
M  V30 2111 N 198.065 0.39524 1.52563 0
M  V30 2112 C 199.29 -0.187456 2.06551 0
M  V30 2113 C 199.715 -1.39249 1.26457 0
M  V30 2114 O 199.073 -1.78947 0.291151 0
M  V30 2115 C 199.121 -0.529985 3.56684 0
M  V30 2116 O 198.225 -1.62307 3.79118 0
M  V30 2117 H 197.566 -0.0202537 0.663691 0
M  V30 2118 H 200.096 0.564426 1.96661 0
M  V30 2119 H 200.106 -0.792598 4.00227 0
M  V30 2120 H 198.781 0.350987 4.14416 0
M  V30 2121 H 197.358 -1.3537 3.47461 0
M  V30 2122 N 199.544 -1.57102 0.125237 0
M  V30 2123 C 200.454 -2.19191 -0.8362 0
M  V30 2124 C 201.47 -1.16985 -1.28805 0
M  V30 2125 O 202.646 -1.49479 -1.34974 0
M  V30 2126 C 199.711 -2.78407 -2.06617 0
M  V30 2127 C 198.772 -3.9567 -1.66565 0
M  V30 2128 C 198.005 -4.52052 -2.83698 0
M  V30 2129 O 198.228 -4.07326 -3.99302 0
M  V30 2130 O 197.162 -5.42645 -2.60423 0
M  V30 2131 H 200.988 -3.01816 -0.337776 0
M  V30 2132 H 198.573 -1.4906 -0.100695 0
M  V30 2133 H 200.455 -3.16129 -2.7864 0
M  V30 2134 H 199.13 -1.9881 -2.55453 0
M  V30 2135 H 198.037 -3.62705 -0.916296 0
M  V30 2136 H 199.37 -4.76722 -1.22464 0
M  V30 2137 N 201.022 0.148545 -1.56898 0
M  V30 2138 C 202.269 0.861418 -1.83264 0
M  V30 2139 C 202.597 1.81239 -0.705883 0
M  V30 2140 O 201.852 1.93305 0.305212 0
M  V30 2141 C 202.151 1.67064 -3.1595 0
M  V30 2142 C 201.817 0.866591 -4.42494 0
M  V30 2143 C 200.479 0.644762 -4.76861 0
M  V30 2144 C 202.831 0.30418 -5.20312 0
M  V30 2145 C 200.159 -0.15021 -5.86508 0
M  V30 2146 C 202.511 -0.477824 -6.30793 0
M  V30 2147 C 201.175 -0.710244 -6.63711 0
M  V30 2148 H 200.445 0.315215 -0.670612 0
M  V30 2149 H 203.092 0.125142 -1.91091 0
M  V30 2150 H 201.397 2.47698 -3.03567 0
M  V30 2151 H 203.094 2.22566 -3.33565 0
M  V30 2152 H 199.684 1.04955 -4.15551 0
M  V30 2153 H 203.868 0.462844 -4.94137 0
M  V30 2154 H 199.124 -0.339796 -6.10455 0
M  V30 2155 H 203.298 -0.92076 -6.90286 0
M  V30 2156 H 200.925 -1.3281 -7.48509 0
M  V30 2157 N 202.5 1.5196 0.417844 0
M  V30 2158 C 203.432 1.70895 1.52733 0
M  V30 2159 C 204.445 0.589405 1.51756 0
M  V30 2160 O 205.634 0.864312 1.56179 0
M  V30 2161 C 202.734 1.72627 2.91639 0
M  V30 2162 C 201.907 3.01479 3.16905 0
M  V30 2163 C 200.966 2.95139 4.35637 0
M  V30 2164 O 199.992 3.69059 4.3334 0
M  V30 2165 N 201.194 2.12328 5.40275 0
M  V30 2166 H 203.959 2.66612 1.36888 0
M  V30 2167 H 201.52 1.50089 0.607037 0
M  V30 2168 H 203.512 1.65928 3.6912 0
M  V30 2169 H 202.082 0.844216 3.00985 0
M  V30 2170 H 201.302 3.21895 2.27546 0
M  V30 2171 H 202.59 3.86736 3.30625 0
M  V30 2172 H 201.988 1.51685 5.44985 0
M  V30 2173 H 200.545 2.11494 6.16534 0
M  V30 2174 N 203.978 -0.674533 1.42435 0
M  V30 2175 C 204.908 -1.80009 1.48724 0
M  V30 2176 C 205.889 -1.6659 0.343793 0
M  V30 2177 O 207.074 -1.86007 0.558137 0
M  V30 2178 C 204.204 -3.18306 1.38919 0
M  V30 2179 C 203.158 -3.46461 2.51294 0
M  V30 2180 C 202.484 -4.84335 2.26547 0
M  V30 2181 C 203.784 -3.43328 3.93603 0
M  V30 2182 H 205.478 -1.75004 2.42928 0
M  V30 2183 H 203.024 -0.840533 1.16923 0
M  V30 2184 H 204.977 -3.9678 1.41927 0
M  V30 2185 H 203.701 -3.2399 0.412094 0
M  V30 2186 H 202.36 -2.70348 2.47604 0
M  V30 2187 H 202.008 -4.86669 1.2713 0
M  V30 2188 H 201.708 -5.04136 3.01861 0
M  V30 2189 H 203.232 -5.65094 2.31304 0
M  V30 2190 H 204.646 -4.11772 3.98894 0
M  V30 2191 H 203.043 -3.74664 4.68771 0
M  V30 2192 H 204.113 -2.41897 4.20255 0
M  V30 2193 N 205.456 -1.28612 -0.910864 0
M  V30 2194 C 206.404 -1.1265 -2.03501 0
M  V30 2195 C 207.398 -0.0450054 -1.6934 0
M  V30 2196 O 208.604 -0.203988 -1.7884 0
M  V30 2197 H 204.979 -0.347639 -0.666822 0
M  V30 2198 H 206.95 -2.07849 -2.14106 0
M  V30 2199 C 205.699 -0.808143 -3.38178 0
M  V30 2200 H 205.022 -1.63231 -3.6496 0
M  V30 2201 H 206.462 -0.736426 -4.17556 0
M  V30 2202 C 204.921 0.488226 -3.33344 0
M  V30 2203 O 205.451 1.51766 -3.71927 0
M  V30 2204 N 203.657 0.490009 -2.86439 0
M  V30 2205 H 203.204 -0.348161 -2.55236 0
M  V30 2206 H 203.162 1.35741 -2.83587 0
M  V30 2207 N 206.934 1.1197 -1.10907 0
M  V30 2208 C 207.844 2.21433 -0.774896 0
M  V30 2209 C 208.86 1.72478 0.229657 0
M  V30 2210 O 210.036 2.01288 0.0672008 0
M  V30 2211 C 207.101 3.4602 -0.216986 0
M  V30 2212 C 206.162 4.09791 -1.27944 0
M  V30 2213 C 205.395 5.28431 -0.748055 0
M  V30 2214 O 205.618 5.68823 0.423833 0
M  V30 2215 O 204.552 5.82644 -1.51027 0
M  V30 2216 H 208.378 2.5242 -1.68873 0
M  V30 2217 H 205.963 1.20399 -0.884555 0
M  V30 2218 H 207.845 4.21304 0.090059 0
M  V30 2219 H 206.52 3.16698 0.669633 0
M  V30 2220 H 205.427 3.36265 -1.63941 0
M  V30 2221 H 206.76 4.4328 -2.13925 0
M  V30 2222 N 208.412 0.89855 1.29475 0
M  V30 2223 C 209.36 0.365253 2.29714 0
M  V30 2224 C 210.354 -0.534993 1.6073 0
M  V30 2225 O 211.56 -0.417921 1.75081 0
M  V30 2226 H 207.935 0.0994853 0.74539 0
M  V30 2227 H 209.906 1.22406 2.72138 0
M  V30 2228 C 208.655 -0.393159 3.4547 0
M  V30 2229 H 207.978 0.290332 3.98744 0
M  V30 2230 H 209.418 -0.731189 4.17648 0
M  V30 2231 C 207.877 -1.59539 2.9673 0
M  V30 2232 O 208.407 -2.69469 2.97908 0
M  V30 2233 N 206.613 -1.43716 2.52575 0
M  V30 2234 H 206.16 -0.542828 2.51816 0
M  V30 2235 H 206.118 -2.24288 2.20323 0
M  V30 2236 N 209.89 -1.43072 0.660911 0
M  V30 2237 C 211.167 -1.95307 0.107017 0
M  V30 2238 C 211.547 -1.60192 -1.37484 0
M  V30 2239 O 210.895 -0.890949 -2.10415 0
M  V30 2240 C 211.105 -3.47124 0.361402 0
M  V30 2241 C 212.453 -4.23738 0.270455 0
M  V30 2242 O 213.477 -3.54981 0.294382 0
M  V30 2243 O 212.336 -5.46131 0.200737 0
M  V30 2244 H 209.43 -0.826984 -0.00517729 0
M  V30 2245 H 211.976 -1.52972 0.734681 0
M  V30 2246 H 210.748 -3.65837 1.38848 0
M  V30 2247 H 210.371 -3.96475 -0.298953 0
M  V30 2248 N 211.368 -0.403325 -1.52352 0
M  V30 2249 C 212.331 0.413051 -2.25447 0
M  V30 2250 C 213.331 0.978513 -1.276 0
M  V30 2251 O 214.521 0.858305 -1.51587 0
M  V30 2252 C 211.653 1.58087 -3.02029 0
M  V30 2253 H 212.846 -0.227094 -2.99039 0
M  V30 2254 H 210.399 -0.155722 -1.55522 0
M  V30 2255 H 211.134 2.25804 -2.32772 0
M  V30 2256 H 210.919 1.18195 -3.73861 0
M  V30 2257 H 212.409 2.1585 -3.57489 0
M  V30 2258 N 212.846 1.57033 -0.133567 0
M  V30 2259 C 214.076 1.99754 0.527429 0
M  V30 2260 C 214.484 1.01245 1.59832 0
M  V30 2261 O 213.827 -0.000645496 1.837 0
M  V30 2262 C 213.889 3.38903 1.19939 0
M  V30 2263 C 213.553 4.56174 0.274709 0
M  V30 2264 C 214.55 5.17563 -0.492398 0
M  V30 2265 C 212.235 5.01972 0.18153 0
M  V30 2266 C 214.229 6.2315 -1.34027 0
M  V30 2267 C 211.916 6.07416 -0.669958 0
M  V30 2268 C 212.914 6.67874 -1.42947 0
M  V30 2269 O 212.602 7.71279 -2.2668 0
M  V30 2270 H 212.334 0.660702 0.142999 0
M  V30 2271 H 214.888 2.04207 -0.221099 0
M  V30 2272 H 213.118 3.31248 1.99528 0
M  V30 2273 H 214.807 3.65818 1.75875 0
M  V30 2274 H 215.573 4.83087 -0.430367 0
M  V30 2275 H 211.452 4.54652 0.762422 0
M  V30 2276 H 214.996 6.70268 -1.93357 0
M  V30 2277 H 210.893 6.41321 -0.73333 0
M  V30 2278 H 211.661 7.88441 -2.1978 0
M  V30 2279 N 214.325 -0.140222 1.56975 0
M  V30 2280 C 215.255 -1.17456 2.01808 0
M  V30 2281 C 216.236 -1.44415 0.898794 0
M  V30 2282 O 217.421 -1.5522 1.16707 0
M  V30 2283 C 214.551 -2.50607 2.40444 0
M  V30 2284 C 213.505 -2.38155 3.55621 0
M  V30 2285 C 212.831 -3.76078 3.80091 0
M  V30 2286 C 214.131 -1.85991 4.88062 0
M  V30 2287 H 215.825 -0.801743 2.88466 0
M  V30 2288 H 213.371 -0.38422 1.38779 0
M  V30 2289 H 215.324 -3.23197 2.7041 0
M  V30 2290 H 214.048 -2.89737 1.50732 0
M  V30 2291 H 212.707 -1.68016 3.25832 0
M  V30 2292 H 212.355 -4.12656 2.87618 0
M  V30 2293 H 212.055 -3.68606 4.57606 0
M  V30 2294 H 213.579 -4.50206 4.12488 0
M  V30 2295 H 214.993 -2.4838 5.16701 0
M  V30 2296 H 213.39 -1.89393 5.6943 0
M  V30 2297 H 214.46 -0.816023 4.77984 0
M  V30 2298 N 215.803 -1.52179 -0.40978 0
M  V30 2299 C 216.753 -1.71857 -1.49831 0
M  V30 2300 C 217.737 -0.572469 -1.50372 0
M  V30 2301 O 218.929 -0.829509 -1.56359 0
M  V30 2302 C 216.058 -1.87206 -2.87765 0
M  V30 2303 C 215.144 -3.07685 -2.91875 0
M  V30 2304 N 215.535 -4.30403 -2.65683 0
M  V30 2305 C 213.833 -3.07505 -3.23043 0
M  V30 2306 C 214.534 -5.11868 -2.76344 0
M  V30 2307 N 213.51 -4.47101 -3.09195 0
M  V30 2308 H 217.312 -2.64381 -1.28375 0
M  V30 2309 H 214.826 -1.50203 -0.617479 0
M  V30 2310 H 216.823 -1.99419 -3.66111 0
M  V30 2311 H 215.483 -0.958814 -3.10221 0
M  V30 2312 H 216.494 -4.58887 -2.4009 0
M  V30 2313 H 213.171 -2.25915 -3.51096 0
M  V30 2314 H 214.561 -6.19634 -2.59814 0
M  V30 2315 N 217.281 0.66697 -1.42791 0
M  V30 2316 C 218.53 1.42278 -1.42968 0
M  V30 2317 C 218.843 1.9553 -0.0524489 0
M  V30 2318 O 220.049 2.71414 0.068363 0
M  V30 2319 C 218.505 2.57418 -2.51524 0
M  V30 2320 C 218.113 2.10832 -3.9529 0
M  V30 2321 C 219.857 3.34878 -2.60877 0
M  V30 2322 C 217.764 3.23101 -4.95338 0
M  V30 2323 H 216.694 0.534533 -0.531781 0
M  V30 2324 H 219.345 0.721302 -1.68729 0
M  V30 2325 H 217.727 3.29971 -2.18941 0
M  V30 2326 H 218.901 1.4538 -4.37266 0
M  V30 2327 H 217.216 1.46289 -3.89857 0
M  V30 2328 H 219.813 4.18505 -3.32802 0
M  V30 2329 H 220.156 3.81993 -1.6549 0
M  V30 2330 H 220.689 2.69398 -2.92693 0
M  V30 2331 H 217.428 2.80969 -5.9223 0
M  V30 2332 H 216.948 3.87309 -4.57987 0
M  V30 2333 H 218.627 3.88447 -5.17415 0
M  V30 2334 N 218.759 1.29093 0.90403 0
M  V30 2335 C 219.987 1.19689 1.68766 0
M  V30 2336 C 220.402 -0.243113 1.87228 0
M  V30 2337 O 219.759 -1.16326 1.40621 0
M  V30 2338 C 219.81 1.90144 3.07453 0
M  V30 2339 O 219.531 3.2852 2.89838 0
M  V30 2340 C 221.032 1.87162 4.01852 0
M  V30 2341 H 218.252 0.415035 0.527244 0
M  V30 2342 H 220.796 1.7039 1.13082 0
M  V30 2343 H 218.951 1.43289 3.59926 0
M  V30 2344 H 219.365 3.63944 3.77684 0
M  V30 2345 H 220.839 2.41032 4.96596 0
M  V30 2346 H 221.316 0.84617 4.30972 0
M  V30 2347 H 221.922 2.33741 3.5531 0
M  V30 2348 N 220.237 -1.11381 1.11499 0
M  V30 2349 C 221.462 -1.87475 0.887019 0
M  V30 2350 C 221.887 -1.79639 -0.557796 0
M  V30 2351 O 221.245 -1.15924 -1.39396 0
M  V30 2352 C 221.293 -3.34213 1.35403 0
M  V30 2353 O 220.397 -4.0903 0.526146 0
M  V30 2354 H 219.738 -0.582099 0.319463 0
M  V30 2355 H 222.268 -1.40785 1.48461 0
M  V30 2356 H 222.278 -3.8506 1.34881 0
M  V30 2357 H 220.953 -3.39232 2.40612 0
M  V30 2358 H 219.53 -3.68082 0.597522 0
M  V30 2359 N 221.715 -0.905404 -1.28997 0
M  V30 2360 C 222.663 -0.377431 -2.29517 0
M  V30 2361 C 223.657 0.526461 -1.61012 0
M  V30 2362 O 224.863 0.40863 -1.753 0
M  V30 2363 H 221.238 -0.103437 -0.744852 0
M  V30 2364 H 223.209 -1.23848 -2.71485 0
M  V30 2365 C 221.958 0.374833 -3.45674 0
M  V30 2366 H 221.281 -0.311474 -3.98585 0
M  V30 2367 H 222.721 0.70903 -4.1803 0
M  V30 2368 C 221.18 1.57963 -2.97572 0
M  V30 2369 O 221.71 2.67886 -2.99333 0
M  V30 2370 N 219.916 1.42375 -2.53333 0
M  V30 2371 H 219.463 0.529466 -2.521 0
M  V30 2372 H 219.421 2.23117 -2.21509 0
M  V30 2373 N 223.193 1.4272 -0.668489 0
M  V30 2374 C 224.141 2.32586 0.0254857 0
M  V30 2375 C 225.135 1.49471 0.797176 0
M  V30 2376 O 226.341 1.65583 0.705853 0
M  V30 2377 H 222.716 0.751514 0.0270339 0
M  V30 2378 H 224.687 2.88823 -0.749936 0
M  V30 2379 C 223.436 3.3397 0.967427 0
M  V30 2380 H 222.759 3.97961 0.383048 0
M  V30 2381 H 224.199 3.9945 1.42181 0
M  V30 2382 C 222.658 2.65744 2.0708 0
M  V30 2383 O 223.188 2.48454 3.15648 0
M  V30 2384 N 221.394 2.2487 1.8407 0
M  V30 2385 H 220.941 2.39132 0.95778 0
M  V30 2386 H 220.899 1.79552 2.58086 0
M  V30 2387 N 224.671 0.411399 1.52136 0
M  V30 2388 C 225.899 -0.163076 2.06256 0
M  V30 2389 C 226.314 -1.3867 1.28125 0
M  V30 2390 O 225.671 -1.79423 0.333721 0
M  V30 2391 C 225.722 -0.511252 3.57867 0
M  V30 2392 O 225.443 0.66378 4.33042 0
M  V30 2393 C 226.944 -1.13921 4.28412 0
M  V30 2394 H 224.164 -0.0193897 0.67072 0
M  V30 2395 H 226.708 0.583007 1.96013 0
M  V30 2396 H 224.863 -1.20723 3.6811 0
M  V30 2397 H 225.277 0.372601 5.23175 0
M  V30 2398 H 226.751 -1.33302 5.35663 0
M  V30 2399 H 227.228 -2.11296 3.85033 0
M  V30 2400 H 227.834 -0.483373 4.22544 0
M  V30 2401 N 226.149 -1.5696 0.141893 0
M  V30 2402 C 227.398 -1.95135 -0.510427 0
M  V30 2403 C 227.711 -1.02896 -1.66348 0
M  V30 2404 O 228.917 -1.30629 -2.38009 0
M  V30 2405 C 227.373 -3.46876 -0.959427 0
M  V30 2406 C 226.981 -4.47691 0.166419 0
M  V30 2407 C 228.725 -3.93927 -1.58183 0
M  V30 2408 C 226.632 -5.90636 -0.300565 0
M  V30 2409 H 225.562 -0.728494 -0.194454 0
M  V30 2410 H 228.213 -1.8211 0.22542 0
M  V30 2411 H 226.595 -3.55215 -1.75038 0
M  V30 2412 H 227.769 -4.51043 0.94325 0
M  V30 2413 H 226.084 -4.10527 0.696905 0
M  V30 2414 H 228.681 -4.98158 -1.94275 0
M  V30 2415 H 229.024 -3.3519 -2.46888 0
M  V30 2416 H 229.557 -3.88484 -0.855863 0
M  V30 2417 H 226.296 -6.5318 0.550989 0
M  V30 2418 H 225.816 -5.90655 -1.04338 0
M  V30 2419 H 227.495 -6.42588 -0.754265 0
M  V30 2420 N 227.627 0.131896 -1.57047 0
M  V30 2421 C 228.857 0.855219 -1.88068 0
M  V30 2422 C 229.265 1.74557 -0.729817 0
M  V30 2423 O 228.608 1.81083 0.308962 0
M  V30 2424 C 228.67 1.75119 -3.13964 0
M  V30 2425 C 228.334 1.03646 -4.45091 0
M  V30 2426 C 229.331 0.383276 -5.18485 0
M  V30 2427 C 227.016 1.02148 -4.91804 0
M  V30 2428 C 229.01 -0.275347 -6.36805 0
M  V30 2429 C 226.697 0.359047 -6.10044 0
M  V30 2430 C 227.695 -0.288222 -6.82392 0
M  V30 2431 O 227.383 -0.94011 -7.98384 0
M  V30 2432 H 227.115 0.251864 -0.627328 0
M  V30 2433 H 229.669 0.124782 -2.05021 0
M  V30 2434 H 227.899 2.52295 -2.9306 0
M  V30 2435 H 229.588 2.3478 -3.31109 0
M  V30 2436 H 230.354 0.386562 -4.83457 0
M  V30 2437 H 226.233 1.5147 -4.35405 0
M  V30 2438 H 229.777 -0.781148 -6.93213 0
M  V30 2439 H 225.674 0.35348 -6.44531 0
M  V30 2440 H 226.442 -0.84329 -8.14144 0
M  V30 2441 N 229.106 1.52395 0.401703 0
M  V30 2442 C 230.354 1.66488 1.14569 0
M  V30 2443 C 230.675 0.400897 1.90835 0
M  V30 2444 O 229.945 -0.584415 1.8698 0
M  V30 2445 H 228.525 0.613672 0.425929 0
M  V30 2446 H 231.187 1.89464 0.457093 0
M  V30 2447 H 230.283 2.50942 1.85566 0
M  V30 2448 N 230.584 -0.659388 1.43143 0
M  V30 2449 C 231.812 -1.44723 1.47861 0
M  V30 2450 C 232.227 -1.88563 0.0945886 0
M  V30 2451 O 231.584 -1.59108 -0.893915 0
M  V30 2452 C 231.635 -2.68627 2.41913 0
M  V30 2453 O 231.356 -2.26623 3.74932 0
M  V30 2454 C 232.857 -3.62045 2.55809 0
M  V30 2455 H 230.077 -0.444801 0.502387 0
M  V30 2456 H 232.621 -0.808916 1.87821 0
M  V30 2457 H 230.776 -3.28613 2.05164 0
M  V30 2458 H 231.19 -3.06745 4.2545 0
M  V30 2459 H 232.664 -4.45666 3.25708 0
M  V30 2460 H 233.141 -4.08981 1.60099 0
M  V30 2461 H 233.747 -3.07944 2.93344 0
M  V30 2462 N 232.062 -1.29571 -0.897171 0
M  V30 2463 C 232.994 -1.10724 -2.00681 0
M  V30 2464 C 234.007 -0.0540026 -1.6271 0
M  V30 2465 O 235.196 -0.298783 -1.75982 0
M  V30 2466 C 232.296 -0.663912 -3.32333 0
M  V30 2467 C 231.469 -1.79622 -3.98816 0
M  V30 2468 C 230.528 -1.34349 -5.0876 0
M  V30 2469 O 229.554 -2.04864 -5.31055 0
M  V30 2470 N 230.756 -0.215764 -5.80099 0
M  V30 2471 H 233.521 -2.06291 -2.17403 0
M  V30 2472 H 231.082 -1.21544 -1.06951 0
M  V30 2473 H 233.074 -0.344295 -4.03233 0
M  V30 2474 H 231.644 0.199375 -3.11964 0
M  V30 2475 H 230.864 -2.28459 -3.21248 0
M  V30 2476 H 232.152 -2.55535 -4.39976 0
M  V30 2477 H 231.55 0.372091 -5.64475 0
M  V30 2478 H 230.107 0.0444707 -6.51785 0
M  V30 2479 N 233.54 1.10788 -1.12088 0
M  V30 2480 C 234.77 1.86191 -0.895351 0
M  V30 2481 C 235.178 1.80763 0.558702 0
M  V30 2482 O 234.521 1.19188 1.39785 0
M  V30 2483 C 234.583 3.35659 -1.28737 0
M  V30 2484 C 234.247 3.64849 -2.75198 0
M  V30 2485 C 235.244 3.61757 -3.734 0
M  V30 2486 C 232.929 3.93641 -3.12013 0
M  V30 2487 C 234.923 3.87045 -5.06434 0
M  V30 2488 C 232.61 4.18585 -4.4523 0
M  V30 2489 C 233.608 4.15277 -5.42249 0
M  V30 2490 O 233.296 4.3959 -6.73065 0
M  V30 2491 H 233.028 0.595425 -0.32007 0
M  V30 2492 H 235.582 1.40992 -1.49367 0
M  V30 2493 H 233.812 3.81497 -0.63224 0
M  V30 2494 H 235.501 3.92441 -1.03656 0
M  V30 2495 H 236.267 3.39557 -3.46303 0
M  V30 2496 H 232.146 3.95348 -2.37109 0
M  V30 2497 H 235.69 3.84378 -5.82151 0
M  V30 2498 H 231.587 4.40264 -4.72057 0
M  V30 2499 H 232.355 4.57123 -6.78956 0
M  V30 2500 N 235.018 0.912232 1.28515 0
M  V30 2501 C 235.95 0.35676 2.26406 0
M  V30 2502 C 236.963 -0.503933 1.54804 0
M  V30 2503 O 238.152 -0.319059 1.75625 0
M  V30 2504 C 235.252 -0.508825 3.35058 0
M  V30 2505 C 234.425 0.329007 4.36161 0
M  V30 2506 C 233.484 -0.471422 5.24084 0
M  V30 2507 O 232.51 0.115482 5.69083 0
M  V30 2508 N 233.712 -1.77479 5.52704 0
M  V30 2509 H 236.477 1.19818 2.74707 0
M  V30 2510 H 234.038 0.778022 1.4198 0
M  V30 2511 H 236.03 -1.051 3.90815 0
M  V30 2512 H 234.6 -1.25095 2.86478 0
M  V30 2513 H 233.82 1.05256 3.79888 0
M  V30 2514 H 235.108 0.90234 5.00735 0
M  V30 2515 H 234.506 -2.27417 5.17975 0
M  V30 2516 H 233.063 -2.26382 6.11224 0
M  V30 2517 N 236.496 -1.42363 0.676048 0
M  V30 2518 C 237.444 -2.32596 -0.0131507 0
M  V30 2519 C 238.438 -1.49891 -0.789238 0
M  V30 2520 O 239.644 -1.65955 -0.697061 0
M  V30 2521 H 236.019 -0.751647 -0.0230481 0
M  V30 2522 H 237.99 -2.88421 0.765243 0
M  V30 2523 C 236.739 -3.34479 -0.949702 0
M  V30 2524 H 236.062 -3.98158 -0.361938 0
M  V30 2525 H 237.502 -4.00199 -1.4006 0
M  V30 2526 C 235.961 -2.66838 -2.05667 0
M  V30 2527 O 236.491 -2.50124 -3.14326 0
M  V30 2528 N 234.697 -2.25843 -1.82875 0
M  V30 2529 H 234.244 -2.39637 -0.945085 0
M  V30 2530 H 234.202 -1.80918 -2.5713 0
M  V30 2531 N 237.974 -0.419461 -1.51915 0
M  V30 2532 C 239.221 0.152939 -2.01922 0
M  V30 2533 C 239.549 1.4426 -1.30458 0
M  V30 2534 O 238.804 1.91514 -0.402593 0
M  V30 2535 C 239.103 0.437067 -3.54717 0
M  V30 2536 C 238.769 -0.764632 -4.44369 0
M  V30 2537 C 237.431 -1.09423 -4.68594 0
M  V30 2538 C 239.783 -1.56713 -4.97082 0
M  V30 2539 C 237.111 -2.22732 -5.42777 0
M  V30 2540 C 239.463 -2.69107 -5.72507 0
M  V30 2541 C 238.127 -3.02541 -5.95 0
M  V30 2542 H 237.397 0.0559644 -0.738884 0
M  V30 2543 H 240.044 -0.562998 -1.83037 0
M  V30 2544 H 238.349 1.23469 -3.71837 0
M  V30 2545 H 240.046 0.893083 -3.90928 0
M  V30 2546 H 236.636 -0.497775 -4.257 0
M  V30 2547 H 240.82 -1.32571 -4.78266 0
M  V30 2548 H 236.076 -2.48971 -5.58411 0
M  V30 2549 H 240.25 -3.31671 -6.12346 0
M  V30 2550 H 237.877 -3.90457 -6.52264 0
M  V30 2551 N 239.452 1.56882 -0.150215 0
M  V30 2552 C 240.863 1.82995 0.370076 0
M  V30 2553 C 241.214 1.06907 1.64515 0
M  V30 2554 O 240.339 0.315369 2.1409 0
M  V30 2555 C 240.934 3.31942 0.678208 0
M  V30 2556 C 239.493 3.58625 1.14301 0
M  V30 2557 C 238.64 2.76792 0.167778 0
M  V30 2558 H 241.591 1.54209 -0.374858 0
M  V30 2559 H 241.612 3.48272 1.53254 0
M  V30 2560 H 241.124 3.87294 -0.249991 0
M  V30 2561 H 239.225 3.08664 2.08704 0
M  V30 2562 H 239.338 4.67073 1.06676 0
M  V30 2563 H 237.702 2.45972 0.661037 0
M  V30 2564 H 238.485 3.34916 -0.754069 0
M  V30 2565 N 240.93 -0.123565 1.57115 0
M  V30 2566 C 241.84 -1.17074 2.033 0
M  V30 2567 C 242.856 -1.4561 0.952559 0
M  V30 2568 O 244.032 -1.56817 1.26374 0
M  V30 2569 C 241.097 -2.47857 2.42421 0
M  V30 2570 C 240.158 -2.26758 3.64526 0
M  V30 2571 C 239.391 -3.51305 4.01771 0
M  V30 2572 O 239.614 -4.5843 3.39409 0
M  V30 2573 O 238.548 -3.42578 4.94898 0
M  V30 2574 H 242.374 -0.808555 2.92739 0
M  V30 2575 H 239.959 -0.334027 1.45618 0
M  V30 2576 H 241.841 -3.2492 2.68338 0
M  V30 2577 H 240.516 -2.83558 1.5613 0
M  V30 2578 H 239.423 -1.47569 3.43765 0
M  V30 2579 H 240.756 -1.95963 4.51508 0
M  V30 2580 N 242.408 -1.52605 -0.393616 0
M  V30 2581 C 243.657 -1.66649 -1.13627 0
M  V30 2582 C 243.97 -0.410364 -1.91247 0
M  V30 2583 O 245.176 -0.430854 -2.68059 0
M  V30 2584 C 243.632 -2.9449 -2.06891 0
M  V30 2585 C 243.24 -4.27266 -1.34714 0
M  V30 2586 C 244.984 -3.17899 -2.81319 0
M  V30 2587 C 242.891 -5.46217 -2.26717 0
M  V30 2588 H 241.821 -0.62084 -0.427871 0
M  V30 2589 H 244.472 -1.791 -0.399428 0
M  V30 2590 H 242.854 -2.75774 -2.84191 0
M  V30 2591 H 244.028 -4.56518 -0.626714 0
M  V30 2592 H 242.343 -4.10081 -0.722643 0
M  V30 2593 H 244.94 -4.03949 -3.50328 0
M  V30 2594 H 245.283 -2.32777 -3.45139 0
M  V30 2595 H 245.816 -3.37159 -2.11113 0
M  V30 2596 H 242.555 -6.33733 -1.67521 0
M  V30 2597 H 242.075 -5.21283 -2.96689 0
M  V30 2598 H 243.754 -5.7991 -2.86903 0
M  V30 2599 N 243.887 0.651787 -1.4349 0
M  V30 2600 C 244.835 1.78586 -1.49029 0
M  V30 2601 C 245.829 1.65448 -0.363767 0
M  V30 2602 O 247.035 1.71777 -0.537821 0
M  V30 2603 H 243.41 0.589236 -0.467231 0
M  V30 2604 H 245.381 1.71035 -2.44519 0
M  V30 2605 C 244.13 3.16851 -1.43181 0
M  V30 2606 H 243.453 3.27598 -2.29171 0
M  V30 2607 H 244.893 3.96156 -1.51118 0
M  V30 2608 C 243.352 3.36568 -0.149616 0
M  V30 2609 O 243.882 3.93885 0.788509 0
M  V30 2610 N 242.088 2.90539 -0.0593484 0
M  V30 2611 H 241.635 2.4408 -0.823575 0
M  V30 2612 H 241.593 3.04108 0.797853 0
M  V30 2613 N 245.365 1.30045 0.890287 0
M  V30 2614 C 246.315 1.12592 1.9826 0
M  V30 2615 C 247.299 0.0426021 1.60844 0
M  V30 2616 O 248.491 0.265346 1.75 0
M  V30 2617 C 245.62 0.814301 3.33503 0
M  V30 2618 C 244.706 1.93761 3.7725 0
M  V30 2619 N 245.097 3.18232 3.93143 0
M  V30 2620 C 243.395 1.83277 4.06602 0
M  V30 2621 C 244.096 3.9158 4.30163 0
M  V30 2622 N 243.072 3.19591 4.3973 0
M  V30 2623 H 246.874 2.07003 2.08631 0
M  V30 2624 H 244.388 1.21307 1.07974 0
M  V30 2625 H 246.385 0.67029 4.11476 0
M  V30 2626 H 245.045 -0.121797 3.24471 0
M  V30 2627 H 246.056 3.53581 3.78419 0
M  V30 2628 H 242.733 0.97001 4.06075 0
M  V30 2629 H 244.123 4.98744 4.50226 0
M  V30 2630 N 246.843 -1.10192 1.12674 0
M  V30 2631 C 247.806 -2.14786 0.799979 0
M  V30 2632 C 248.806 -1.59711 -0.18685 0
M  V30 2633 O 249.996 -1.74156 0.0392558 0
M  V30 2634 C 247.128 -3.40374 0.189228 0
M  V30 2635 H 248.321 -2.45203 1.72671 0
M  V30 2636 H 245.874 -1.25597 0.930326 0
M  V30 2637 H 246.609 -3.15577 -0.747107 0
M  V30 2638 H 246.394 -3.81637 0.899766 0
M  V30 2639 H 247.884 -4.17594 -0.0228143 0
M  V30 2640 N 248.321 -0.919034 -1.28029 0
M  V30 2641 C 249.732 -0.600735 -1.76771 0
M  V30 2642 C 250.083 0.884024 -1.75156 0
M  V30 2643 O 249.208 1.69163 -1.34956 0
M  V30 2644 C 249.803 -1.08372 -3.21 0
M  V30 2645 C 248.362 -0.816248 -3.67443 0
M  V30 2646 C 247.509 -1.24742 -2.47658 0
M  V30 2647 H 250.46 -1.09974 -1.14418 0
M  V30 2648 H 250.481 -0.427512 -3.78091 0
M  V30 2649 H 249.993 -2.16437 -3.22144 0
M  V30 2650 H 248.094 0.250968 -3.71754 0
M  V30 2651 H 248.207 -1.4277 -4.57333 0
M  V30 2652 H 246.571 -0.666083 -2.45836 0
M  V30 2653 H 247.354 -2.33653 -2.51518 0
M  V30 2654 N 249.799 1.42003 -0.683588 0
M  V30 2655 C 250.729 2.33487 -0.024866 0
M  V30 2656 C 251.71 1.51163 0.779975 0
M  V30 2657 O 252.895 1.79739 0.735362 0
M  V30 2658 C 250.025 3.3487 0.920836 0
M  V30 2659 C 248.979 4.27414 0.223958 0
M  V30 2660 C 248.305 5.19074 1.2832 0
M  V30 2661 C 249.605 5.14445 -0.90242 0
M  V30 2662 H 251.299 2.88819 -0.788921 0
M  V30 2663 H 248.845 1.38873 -0.38083 0
M  V30 2664 H 250.798 3.97787 1.39081 0
M  V30 2665 H 249.522 2.77861 1.71642 0
M  V30 2666 H 248.181 3.65904 -0.225864 0
M  V30 2667 H 247.829 4.58387 2.071 0
M  V30 2668 H 247.529 5.81822 0.821995 0
M  V30 2669 H 249.053 5.84867 1.75392 0
M  V30 2670 H 250.467 5.70998 -0.513272 0
M  V30 2671 H 248.864 5.86072 -1.28997 0
M  V30 2672 H 249.934 4.52322 -1.74737 0
M  V30 2673 N 251.277 0.427512 1.51691 0
M  V30 2674 C 252.526 -0.143679 2.01188 0
M  V30 2675 C 252.839 -1.44642 1.31674 0
M  V30 2676 O 254.045 -2.09997 1.72086 0
M  V30 2677 C 252.501 -0.306602 3.58592 0
M  V30 2678 C 252.109 0.985125 4.37035 0
M  V30 2679 C 253.853 -0.832091 4.16265 0
M  V30 2680 C 251.76 0.788382 5.86122 0
M  V30 2681 H 250.69 -0.0574701 0.751807 0
M  V30 2682 H 253.341 0.555772 1.74881 0
M  V30 2683 H 251.723 -1.06882 3.81303 0
M  V30 2684 H 252.897 1.75492 4.26074 0
M  V30 2685 H 251.212 1.4384 3.90767 0
M  V30 2686 H 253.809 -0.995617 5.25349 0
M  V30 2687 H 254.152 -1.81186 3.74803 0
M  V30 2688 H 254.685 -0.128444 3.97593 0
M  V30 2689 H 251.424 1.74025 6.31978 0
M  V30 2690 H 250.944 0.0582143 5.99772 0
M  V30 2691 H 252.623 0.437722 6.45518 0
M  V30 2692 N 252.755 -1.56801 0.158532 0
M  V30 2693 C 253.718 -2.16138 -0.762705 0
M  V30 2694 C 254.718 -1.1061 -1.16713 0
M  V30 2695 O 255.908 -1.36191 -1.08617 0
M  V30 2696 C 253.04 -2.73386 -2.03649 0
M  V30 2697 H 254.233 -2.98886 -0.246354 0
M  V30 2698 H 251.786 -1.56035 -0.0909744 0
M  V30 2699 H 252.521 -1.94335 -2.59623 0
M  V30 2700 H 252.306 -3.50601 -1.75559 0
M  V30 2701 H 253.796 -3.19065 -2.6942 0
M  V30 2702 N 254.233 0.115231 -1.57178 0
M  V30 2703 C 255.51 0.852873 -1.76027 0
M  V30 2704 C 255.89 1.97892 -0.73498 0
M  V30 2705 O 255.238 2.27232 0.24036 0
M  V30 2706 C 255.448 1.36608 -3.21153 0
M  V30 2707 C 256.796 1.81692 -3.83762 0
M  V30 2708 O 257.82 1.46278 -3.24779 0
M  V30 2709 O 256.679 2.47104 -4.87444 0
M  V30 2710 H 253.773 0.405296 -0.720877 0
M  V30 2711 H 256.319 0.0986785 -1.69413 0
M  V30 2712 H 255.091 0.558357 -3.87296 0
M  V30 2713 H 254.714 2.18287 -3.3232 0
M  V30 2714 N 255.711 1.52812 0.385517 0
M  V30 2715 C 256.644 1.72592 1.49289 0
M  V30 2716 C 257.622 0.573819 1.52138 0
M  V30 2717 O 258.806 0.80404 1.70492 0
M  V30 2718 C 255.933 1.78669 2.87741 0
M  V30 2719 C 254.979 3.00455 3.02703 0
M  V30 2720 S 255.812 4.60366 2.73538 0
M  V30 2721 C 256.968 4.69263 4.14177 0
M  V30 2722 H 257.201 2.66248 1.32285 0
M  V30 2723 H 254.734 1.43148 0.578611 0
M  V30 2724 H 256.692 1.82855 3.67524 0
M  V30 2725 H 255.353 0.861 3.02069 0
M  V30 2726 H 254.546 3.01258 4.04054 0
M  V30 2727 H 254.148 2.94278 2.30817 0
M  V30 2728 H 256.44 4.48092 5.08153 0
M  V30 2729 H 257.383 5.71276 4.18388 0
M  V30 2730 H 257.791 3.98072 4.00249 0
M  V30 2731 N 257.189 -0.644168 1.43834 0
M  V30 2732 C 258.414 -1.43642 1.49605 0
M  V30 2733 C 258.839 -1.8773 0.117913 0
M  V30 2734 O 258.197 -1.57938 -0.890239 0
M  V30 2735 C 258.245 -2.6416 2.45463 0
M  V30 2736 O 257.349 -3.63538 1.94714 0
M  V30 2737 H 256.69 -0.430329 0.50568 0
M  V30 2738 H 259.22 -0.787448 1.8884 0
M  V30 2739 H 259.23 -3.11864 2.63068 0
M  V30 2740 H 257.905 -2.31414 3.45572 0
M  V30 2741 H 256.482 -3.2273 1.86814 0
M  V30 2742 N 258.668 -1.30515 -0.883378 0
M  V30 2743 C 259.893 -1.22487 -1.67367 0
M  V30 2744 C 260.318 0.208767 -1.86938 0
M  V30 2745 O 259.676 1.15015 -1.40148 0
M  V30 2746 C 259.724 -1.96041 -3.02655 0
M  V30 2747 O 258.828 -1.28859 -3.91751 0
M  V30 2748 H 258.169 -0.423573 -0.511353 0
M  V30 2749 H 260.699 -1.72362 -1.10239 0
M  V30 2750 H 260.709 -2.05124 -3.52687 0
M  V30 2751 H 259.384 -3.00307 -2.8773 0
M  V30 2752 H 257.961 -1.28141 -3.50192 0
M  V30 2753 N 260.146 1.09593 -1.13257 0
M  V30 2754 C 261.423 1.78293 -0.804432 0
M  V30 2755 C 261.803 1.99004 0.70431 0
M  V30 2756 O 261.151 1.59007 1.641 0
M  V30 2757 C 261.361 3.10707 -1.5894 0
M  V30 2758 C 262.709 3.85443 -1.78099 0
M  V30 2759 O 263.733 3.20454 -1.55525 0
M  V30 2760 O 262.592 5.02108 -2.15753 0
M  V30 2761 H 259.686 0.773156 -0.293528 0
M  V30 2762 H 262.232 1.16164 -1.23709 0
M  V30 2763 H 261.004 2.91106 -2.61482 0
M  V30 2764 H 260.627 3.80558 -1.15157 0
M  V30 2765 N 261.624 0.925811 1.2754 0
M  V30 2766 C 262.873 0.561084 1.93739 0
M  V30 2767 C 263.186 -0.901685 1.73577 0
M  V30 2768 O 264.392 -1.37511 2.34101 0
M  V30 2769 C 262.848 0.952668 3.47062 0
M  V30 2770 C 262.456 2.43599 3.75983 0
M  V30 2771 C 264.2 0.659103 4.19352 0
M  V30 2772 C 262.107 2.76707 5.22673 0
M  V30 2773 H 261.037 0.206122 0.725279 0
M  V30 2774 H 263.688 1.12637 1.44863 0
M  V30 2775 H 262.07 0.316053 3.94737 0
M  V30 2776 H 263.244 3.12035 3.39073 0
M  V30 2777 H 261.559 2.70125 3.16893 0
M  V30 2778 H 264.156 0.882985 5.27359 0
M  V30 2779 H 264.499 -0.403607 4.14339 0
M  V30 2780 H 265.032 1.25473 3.77494 0
M  V30 2781 H 261.771 3.8188 5.32774 0
M  V30 2782 H 261.291 2.12919 5.60737 0
M  V30 2783 H 262.97 2.6435 5.90532 0
M  V30 2784 N 263.102 -1.41638 0.69111 0
M  V30 2785 C 264.032 -2.3347 0.037248 0
M  V30 2786 C 265.013 -1.51575 -0.771947 0
M  V30 2787 O 266.198 -1.80126 -0.72582 0
M  V30 2788 C 263.328 -3.35354 -0.903064 0
M  V30 2789 C 262.282 -4.27526 -0.201288 0
M  V30 2790 C 261.608 -5.19747 -1.25565 0
M  V30 2791 C 262.908 -5.13959 0.929689 0
M  V30 2792 H 264.602 -2.88397 0.804227 0
M  V30 2793 H 262.148 -1.38669 0.388189 0
M  V30 2794 H 264.101 -3.98519 -1.36969 0
M  V30 2795 H 262.825 -2.78767 -1.70166 0
M  V30 2796 H 261.484 -3.65779 0.245265 0
M  V30 2797 H 261.132 -4.59479 -2.04666 0
M  V30 2798 H 260.832 -5.8225 -0.791128 0
M  V30 2799 H 262.356 -5.85789 -1.72288 0
M  V30 2800 H 263.77 -5.70718 0.543546 0
M  V30 2801 H 262.167 -5.85379 1.32103 0
M  V30 2802 H 263.237 -4.51389 1.77133 0
M  V30 2803 N 264.58 -0.43555 -1.51462 0
M  V30 2804 C 265.805 0.132627 -2.06976 0
M  V30 2805 C 266.23 1.35848 -1.30104 0
M  V30 2806 O 265.588 1.78112 -0.338493 0
M  V30 2807 C 265.636 0.43523 -3.57964 0
M  V30 2808 O 264.74 1.52198 -3.83288 0
M  V30 2809 H 264.081 0.00265 -0.663995 0
M  V30 2810 H 266.611 -0.616369 -1.95095 0
M  V30 2811 H 266.621 0.686206 -4.02188 0
M  V30 2812 H 265.296 -0.460739 -4.1334 0
M  V30 2813 H 263.873 1.2611 -3.50928 0
M  V30 2814 N 266.058 1.56714 -0.166846 0
M  V30 2815 C 267.474 1.58473 0.189372 0
M  V30 2816 C 267.674 1.18201 1.63189 0
M  V30 2817 O 266.73 0.891528 2.36237 0
M  V30 2818 C 268.043 3.00573 -0.0873872 0
M  V30 2819 C 269.591 3.1299 -0.0252443 0
M  V30 2820 C 270.066 4.57174 -0.274934 0
M  V30 2821 N 271.557 4.62665 -0.222553 0
M  V30 2822 C 272.292 5.72072 -0.389985 0
M  V30 2823 N 271.788 6.90054 -0.616229 0
M  V30 2824 N 273.581 5.61153 -0.326202 0
M  V30 2825 H 265.732 1.8118 -1.10849 0
M  V30 2826 H 267.995 0.839525 -0.440342 0
M  V30 2827 H 267.701 3.34497 -1.0865 0
M  V30 2828 H 267.575 3.72019 0.623037 0
M  V30 2829 H 269.962 2.78895 0.96444 0
M  V30 2830 H 270.043 2.43989 -0.768309 0
M  V30 2831 H 269.687 4.91976 -1.26181 0
M  V30 2832 H 269.617 5.24328 0.48869 0
M  V30 2833 H 272.108 3.77863 -0.0531512 0
M  V30 2834 H 272.421 7.69311 -0.733559 0
M  V30 2835 H 270.766 6.91927 -0.652791 0
M  V30 2836 H 273.957 4.67859 -0.150072 0
M  V30 2837 H 274.13 6.46364 -0.460116 0
M  V30 2838 N 267.536 -0.106894 1.57237 0
M  V30 2839 C 268.947 -0.662723 1.74542 0
M  V30 2840 C 269.298 -1.7971 0.787319 0
M  V30 2841 O 268.423 -2.16368 -0.0369636 0
M  V30 2842 C 269.018 -1.20896 3.16496 0
M  V30 2843 C 267.577 -1.71096 3.35266 0
M  V30 2844 C 266.724 -0.615642 2.7038 0
M  V30 2845 H 269.675 0.119106 1.58252 0
M  V30 2846 H 269.696 -2.07847 3.18716 0
M  V30 2847 H 269.208 -0.383122 3.86204 0
M  V30 2848 H 267.309 -2.56119 2.70618 0
M  V30 2849 H 267.422 -1.81208 4.43509 0
M  V30 2850 H 265.786 -1.05222 2.31949 0
M  V30 2851 H 266.569 0.199419 3.4272 0
M  V30 2852 N 269.014 -1.53014 -0.377408 0
M  V30 2853 C 269.944 -1.81589 -1.46791 0
M  V30 2854 C 270.925 -0.668622 -1.56408 0
M  V30 2855 O 272.11 -0.917337 -1.71168 0
M  V30 2856 C 269.24 -1.99519 -2.8427 0
M  V30 2857 C 268.194 -3.15249 -2.89486 0
M  V30 2858 C 267.52 -3.18451 -4.29527 0
M  V30 2859 C 268.82 -4.54084 -2.58079 0
M  V30 2860 H 270.514 -2.7291 -1.23127 0
M  V30 2861 H 268.06 -1.31319 -0.590883 0
M  V30 2862 H 270.013 -2.18092 -3.60575 0
M  V30 2863 H 268.737 -1.04897 -3.09296 0
M  V30 2864 H 267.396 -2.96477 -2.15631 0
M  V30 2865 H 267.044 -2.2149 -4.5161 0
M  V30 2866 H 266.744 -3.962 -4.33934 0
M  V30 2867 H 268.268 -3.39193 -5.07721 0
M  V30 2868 H 269.682 -4.72899 -3.24098 0
M  V30 2869 H 268.079 -5.33987 -2.7382 0
M  V30 2870 H 269.149 -4.60006 -1.53372 0
M  V30 2871 N 270.492 0.636531 -1.44174 0
M  V30 2872 C 271.439 1.74875 -1.50624 0
M  V30 2873 C 272.409 1.62275 -0.35442 0
M  V30 2874 O 273.594 1.82276 -0.563908 0
M  V30 2875 C 270.734 3.13102 -1.45125 0
M  V30 2876 C 269.847 3.36717 -2.7064 0
M  V30 2877 C 268.982 4.64885 -2.57013 0
M  V30 2878 C 268.021 4.8166 -3.77717 0
M  V30 2879 N 267.158 6.01101 -3.62798 0
M  V30 2880 H 271.998 1.68697 -2.45653 0
M  V30 2881 H 269.535 0.823004 -1.21922 0
M  V30 2882 H 271.493 3.93034 -1.39929 0
M  V30 2883 H 270.123 3.18308 -0.536671 0
M  V30 2884 H 269.175 2.50763 -2.86046 0
M  V30 2885 H 270.487 3.44993 -3.60252 0
M  V30 2886 H 269.641 5.52969 -2.49619 0
M  V30 2887 H 268.38 4.58957 -1.64953 0
M  V30 2888 H 267.385 3.92007 -3.85501 0
M  V30 2889 H 268.61 4.89406 -4.70807 0
M  V30 2890 H 266.556 5.96273 -2.73486 0
M  V30 2891 H 266.473 6.10409 -4.46023 0
M  V30 2892 H 267.741 6.91761 -3.59286 0
M  V30 2893 N 271.97 1.30982 0.876444 0
M  V30 2894 C 273.216 1.20474 1.63138 0
M  V30 2895 C 273.549 -0.238096 1.92735 0
M  V30 2896 O 272.824 -1.1692 1.55435 0
M  V30 2897 C 273.107 2.04244 2.96574 0
M  V30 2898 C 272.96 3.56793 2.73896 0
M  V30 2899 C 274.279 1.88684 3.97601 0
M  V30 2900 H 271.398 0.439001 0.591985 0
M  V30 2901 H 274.04 1.60704 1.01361 0
M  V30 2902 H 272.19 1.70063 3.493 0
M  V30 2903 H 273.862 4.01077 2.27892 0
M  V30 2904 H 272.105 3.80548 2.08245 0
M  V30 2905 H 272.776 4.10706 3.68815 0
M  V30 2906 H 275.252 2.18584 3.54062 0
M  V30 2907 H 274.128 2.4961 4.88862 0
M  V30 2908 H 274.389 0.848343 4.33884 0
M  V30 2909 N 273.449 -1.08991 1.13837 0
M  V30 2910 C 274.397 -2.17841 0.815347 0
M  V30 2911 C 275.391 -1.68164 -0.204233 0
M  V30 2912 O 276.597 -1.79897 -0.0609304 0
M  V30 2913 H 272.972 -0.710654 0.245915 0
M  V30 2914 H 274.943 -2.42315 1.74143 0
M  V30 2915 C 273.692 -3.46381 0.302614 0
M  V30 2916 H 273.015 -3.84979 1.0785 0
M  V30 2917 H 274.455 -4.23844 0.115074 0
M  V30 2918 C 272.914 -3.22556 -0.972591 0
M  V30 2919 O 273.444 -3.45599 -2.04754 0
M  V30 2920 N 271.65 -2.76134 -0.905455 0
M  V30 2921 H 271.197 -2.57582 -0.0305421 0
M  V30 2922 H 271.155 -2.60571 -1.75926 0
M  V30 2923 N 274.927 -0.932562 -1.27047 0
M  V30 2924 C 275.859 -0.392734 -2.2581 0
M  V30 2925 C 276.872 0.479241 -1.55586 0
M  V30 2926 O 278.061 0.291078 -1.76111 0
M  V30 2927 C 275.161 0.455456 -3.35826 0
M  V30 2928 C 274.334 -0.398355 -4.35582 0
M  V30 2929 C 273.393 0.387985 -5.24768 0
M  V30 2930 O 272.419 -0.206003 -5.68827 0
M  V30 2931 N 273.621 1.68664 -5.55457 0
M  V30 2932 H 276.386 -1.24173 -2.72766 0
M  V30 2933 H 273.947 -0.800511 -1.40725 0
M  V30 2934 H 275.939 0.988692 -3.92437 0
M  V30 2935 H 274.509 1.20522 -2.88432 0
M  V30 2936 H 273.729 -1.11286 -3.78165 0
M  V30 2937 H 275.017 -0.981889 -4.99236 0
M  V30 2938 H 274.415 2.19147 -5.21528 0
M  V30 2939 H 272.972 2.1663 -6.14748 0
M  V30 2940 N 276.405 1.4127 -0.698611 0
M  V30 2941 C 277.652 2.0118 -0.230865 0
M  V30 2942 C 277.98 1.55338 1.17049 0
M  V30 2943 O 277.235 0.756775 1.80475 0
M  V30 2944 C 277.534 3.56592 -0.240192 0
M  V30 2945 C 277.2 4.21955 -1.58948 0
M  V30 2946 C 275.862 4.39524 -1.95887 0
M  V30 2947 C 278.214 4.58576 -2.47704 0
M  V30 2948 C 275.542 4.90992 -3.2116 0
M  V30 2949 C 277.894 5.11435 -3.72313 0
M  V30 2950 C 276.558 5.27215 -4.0939 0
M  V30 2951 H 275.828 0.736169 -0.0844796 0
M  V30 2952 H 278.475 1.69124 -0.8983 0
M  V30 2953 H 276.78 3.88456 0.510797 0
M  V30 2954 H 278.477 4.00758 0.139296 0
M  V30 2955 H 275.067 4.08657 -1.29219 0
M  V30 2956 H 279.251 4.44654 -2.20445 0
M  V30 2957 H 274.507 5.01393 -3.49878 0
M  V30 2958 H 278.681 5.38752 -4.4127 0
M  V30 2959 H 276.308 5.66859 -5.06533 0
M  V30 2960 N 277.883 0.443576 1.51229 0
M  V30 2961 C 279.131 -0.120557 2.0174 0
M  V30 2962 C 279.452 -1.42665 1.32935 0
M  V30 2963 O 278.722 -1.9028 0.465866 0
M  V30 2964 H 277.302 -0.0475426 0.745486 0
M  V30 2965 H 279.964 0.587711 1.85828 0
M  V30 2966 H 279.06 -0.291972 3.10731 0
M  V30 2967 N 279.361 -1.56624 0.175154 0
M  V30 2968 C 280.294 -2.14 -0.792412 0
M  V30 2969 C 281.272 -1.07114 -1.22333 0
M  V30 2970 O 282.456 -1.35112 -1.31442 0
M  V30 2971 C 279.583 -2.68268 -2.0676 0
M  V30 2972 C 278.629 -3.87562 -1.7804 0
M  V30 2973 S 279.462 -5.27074 -0.946222 0
M  V30 2974 C 280.618 -5.8475 -2.23199 0
M  V30 2975 H 280.851 -2.95736 -0.304588 0
M  V30 2976 H 278.384 -1.54349 -0.0395705 0
M  V30 2977 H 280.342 -3.00182 -2.80002 0
M  V30 2978 H 279.003 -1.86612 -2.52656 0
M  V30 2979 H 278.196 -4.23874 -2.72666 0
M  V30 2980 H 277.798 -3.56555 -1.12891 0
M  V30 2981 H 280.09 -5.97898 -3.18629 0
M  V30 2982 H 281.033 -6.81756 -1.91349 0
M  V30 2983 H 281.441 -5.13198 -2.35134 0
M  V30 2984 N 280.839 0.0985539 -1.57292 0
M  V30 2985 C 282.088 0.801358 -1.85098 0
M  V30 2986 C 282.401 1.80066 -0.763902 0
M  V30 2987 O 283.607 2.55112 -0.928981 0
M  V30 2988 C 282.063 1.47599 -3.28242 0
M  V30 2989 C 281.671 0.516624 -4.45011 0
M  V30 2990 C 283.415 2.16272 -3.65276 0
M  V30 2991 C 281.322 1.19564 -5.79188 0
M  V30 2992 H 280.252 0.303022 -0.69043 0
M  V30 2993 H 282.903 0.0542623 -1.8342 0
M  V30 2994 H 281.285 2.27042 -3.2445 0
M  V30 2995 H 282.459 -0.246065 -4.60143 0
M  V30 2996 H 280.774 -0.064227 -4.1635 0
M  V30 2997 H 283.371 2.67802 -4.62803 0
M  V30 2998 H 283.714 2.95009 -2.93727 0
M  V30 2999 H 284.247 1.43693 -3.70941 0
M  V30 3000 H 280.986 0.449157 -6.53959 0
M  V30 3001 H 280.506 1.92984 -5.67906 0
M  V30 3002 H 282.185 1.7231 -6.23633 0
M  V30 3003 N 282.317 1.53212 0.369288 0
M  V30 3004 C 283.547 1.72868 1.13139 0
M  V30 3005 C 283.955 0.455754 1.83629 0
M  V30 3006 O 283.298 -0.580861 1.74275 0
M  V30 3007 C 283.36 2.83667 2.20847 0
M  V30 3008 C 283.024 4.24142 1.70155 0
M  V30 3009 C 284.021 5.06619 1.16763 0
M  V30 3010 C 281.706 4.70539 1.7578 0
M  V30 3011 C 283.7 6.33581 0.696678 0
M  V30 3012 C 281.387 5.97481 1.28297 0
M  V30 3013 C 282.385 6.78833 0.753307 0
M  V30 3014 O 282.073 8.03393 0.285475 0
M  V30 3015 H 281.805 0.581707 0.344373 0
M  V30 3016 H 284.359 2.00736 0.435243 0
M  V30 3017 H 282.589 2.51265 2.93944 0
M  V30 3018 H 284.278 2.91536 2.82421 0
M  V30 3019 H 285.044 4.71948 1.11758 0
M  V30 3020 H 280.923 4.07293 2.15949 0
M  V30 3021 H 284.467 6.97027 0.282581 0
M  V30 3022 H 280.364 6.31651 1.32994 0
M  V30 3023 H 281.132 8.17497 0.405145 0
M  V30 3024 N 283.795 -0.628877 1.44509 0
M  V30 3025 C 284.758 -1.72263 1.51188 0
M  V30 3026 C 285.758 -1.55907 0.39367 0
M  V30 3027 O 286.948 -1.61361 0.656377 0
M  V30 3028 C 284.08 -3.11365 1.38798 0
M  V30 3029 H 285.273 -1.67714 2.4862 0
M  V30 3030 H 282.826 -0.842737 1.31634 0
M  V30 3031 H 283.561 -3.21507 0.424693 0
M  V30 3032 H 283.346 -3.24644 2.19884 0
M  V30 3033 H 284.836 -3.91075 1.46458 0
M  V30 3034 N 285.273 -1.31445 -0.869486 0
M  V30 3035 C 286.521 -1.20918 -1.61936 0
M  V30 3036 C 286.842 0.232683 -1.93607 0
M  V30 3037 O 286.112 1.15352 -1.58338 0
M  V30 3038 H 284.692 -0.44454 -0.600328 0
M  V30 3039 H 287.354 -1.64776 -1.0409 0
M  V30 3040 H 286.45 -1.78124 -2.56278 0
M  V30 3041 N 286.751 1.08385 -1.14413 0
M  V30 3042 C 287.714 2.13486 -0.834048 0
M  V30 3043 C 288.714 1.59988 0.161418 0
M  V30 3044 O 289.904 1.74071 -0.0669575 0
M  V30 3045 C 287.036 3.4003 -0.243354 0
M  V30 3046 H 288.229 2.42425 -1.7655 0
M  V30 3047 H 285.782 1.24101 -0.950189 0
M  V30 3048 H 286.517 3.16726 0.696807 0
M  V30 3049 H 286.302 3.80157 -0.960367 0
M  V30 3050 H 287.792 4.17577 -0.0436242 0
M  V30 3051 N 288.23 0.939286 1.26551 0
M  V30 3052 C 289.162 0.404704 2.25599 0
M  V30 3053 C 290.175 -0.470983 1.55838 0
M  V30 3054 O 291.364 -0.281734 1.76263 0
M  V30 3055 C 288.464 -0.43764 3.36062 0
M  V30 3056 C 287.637 0.421449 4.35365 0
M  V30 3057 C 286.696 -0.36015 5.24966 0
M  V30 3058 O 285.722 0.236167 5.6871 0
M  V30 3059 N 286.924 -1.65715 5.56344 0
M  V30 3060 H 289.689 1.25618 2.72103 0
M  V30 3061 H 287.25 0.807963 1.40298 0
M  V30 3062 H 289.242 -0.967866 3.92956 0
M  V30 3063 H 287.812 -1.18991 2.89067 0
M  V30 3064 H 287.032 1.1329 3.7757 0
M  V30 3065 H 288.32 1.00835 4.98708 0
M  V30 3066 H 287.718 -2.16378 5.22682 0
M  V30 3067 H 286.275 -2.13366 6.15888 0
M  V30 3068 N 289.708 -1.40897 0.706093 0
M  V30 3069 C 290.655 -2.30751 0.0474474 0
M  V30 3070 C 291.625 -1.47678 -0.76029 0
M  V30 3071 O 292.81 -1.76441 -0.726177 0
M  V30 3072 C 289.95 -3.33815 -0.875309 0
M  V30 3073 C 289.063 -4.31961 -0.0580623 0
M  V30 3074 C 288.198 -5.22093 -0.979425 0
M  V30 3075 C 287.237 -6.11902 -0.155706 0
M  V30 3076 N 286.374 -6.94482 -1.03144 0
M  V30 3077 H 291.214 -2.86513 0.819413 0
M  V30 3078 H 288.751 -1.41102 0.415783 0
M  V30 3079 H 290.709 -3.92129 -1.42446 0
M  V30 3080 H 289.339 -2.79579 -1.61356 0
M  V30 3081 H 288.391 -3.75507 0.608147 0
M  V30 3082 H 289.703 -4.95415 0.580082 0
M  V30 3083 H 288.857 -5.85292 -1.59744 0
M  V30 3084 H 287.596 -4.5889 -1.65141 0
M  V30 3085 H 286.601 -5.47742 0.475309 0
M  V30 3086 H 287.826 -6.77162 0.512635 0
M  V30 3087 H 285.772 -6.33877 -1.68924 0
M  V30 3088 H 285.689 -7.54665 -0.449108 0
M  V30 3089 H 286.957 -7.6214 -1.63593 0
M  V30 3090 N 291.186 -0.45159 -1.50991 0
M  V30 3091 C 292.134 0.366864 -2.29689 0
M  V30 3092 C 293.128 1.00809 -1.36139 0
M  V30 3093 O 294.334 0.941427 -1.53418 0
M  V30 3094 H 290.709 0.137133 -0.739391 0
M  V30 3095 H 292.68 -0.317538 -2.96706 0
M  V30 3096 C 291.429 1.44751 -3.16137 0
M  V30 3097 H 290.752 0.963473 -3.88017 0
M  V30 3098 H 292.192 1.99315 -3.74232 0
M  V30 3099 C 290.651 2.43869 -2.32442 0
M  V30 3100 O 291.181 3.4872 -1.99392 0
M  V30 3101 N 289.387 2.15105 -1.95392 0
M  V30 3102 H 288.934 1.29866 -2.22469 0
M  V30 3103 H 288.892 2.81661 -1.39693 0
M  V30 3104 N 292.664 1.56529 -0.183458 0
M  V30 3105 C 293.594 2.21549 0.737456 0
M  V30 3106 C 294.575 1.17489 1.23005 0
M  V30 3107 O 295.76 1.45959 1.281 0
M  V30 3108 C 292.89 2.86575 1.96194 0
M  V30 3109 C 291.844 3.96778 1.60473 0
M  V30 3110 C 291.17 4.48911 2.90487 0
M  V30 3111 C 292.47 5.15767 0.823497 0
M  V30 3112 H 294.164 2.98761 0.195453 0
M  V30 3113 H 291.71 1.43702 0.0925686 0
M  V30 3114 H 293.663 3.30739 2.61131 0
M  V30 3115 H 292.387 2.06749 2.52828 0
M  V30 3116 H 291.046 3.53286 0.978997 0
M  V30 3117 H 290.694 3.65862 3.45186 0
M  V30 3118 H 290.394 5.23265 2.67335 0
M  V30 3119 H 291.918 4.95771 3.56432 0
M  V30 3120 H 293.332 5.56549 1.37571 0
M  V30 3121 H 291.729 5.96114 0.690551 0
M  V30 3122 H 292.799 4.84574 -0.177782 0
M  V30 3123 N 294.142 -0.090211 1.57342 0
M  V30 3124 C 295.39 -0.791241 1.85967 0
M  V30 3125 C 295.711 -1.7903 0.772859 0
M  V30 3126 O 294.981 -1.94872 -0.200398 0
M  V30 3127 H 293.561 -0.295205 0.686195 0
M  V30 3128 H 296.223 -0.0706782 1.94772 0
M  V30 3129 H 295.319 -1.31882 2.82867 0
M  V30 3130 N 295.62 -1.53406 -0.361157 0
M  V30 3131 C 297.031 -1.61442 -0.937728 0
M  V30 3132 C 297.382 -0.48461 -1.90121 0
M  V30 3133 O 296.507 0.388312 -2.12888 0
M  V30 3134 C 297.102 -2.92624 -1.70753 0
M  V30 3135 C 295.661 -3.02981 -2.23337 0
M  V30 3136 C 294.808 -2.5677 -1.04712 0
M  V30 3137 H 297.759 -1.58083 -0.139816 0
M  V30 3138 H 297.78 -2.80675 -2.56908 0
M  V30 3139 H 297.292 -3.74834 -1.00604 0
M  V30 3140 H 295.393 -2.25368 -2.96715 0
M  V30 3141 H 295.506 -4.0814 -2.50916 0
M  V30 3142 H 293.87 -2.11752 -1.41539 0
M  V30 3143 H 294.653 -3.41402 -0.360539 0
M  V30 3144 N 297.098 0.621204 -1.44841 0
M  V30 3145 C 298.323 1.41244 -1.51871 0
M  V30 3146 C 298.748 1.87519 -0.147764 0
M  V30 3147 O 298.106 1.59334 0.865 0
M  V30 3148 C 298.154 2.60221 -2.49634 0
M  V30 3149 O 297.258 3.60395 -2.00473 0
M  V30 3150 H 296.599 0.42223 -0.512463 0
M  V30 3151 H 299.129 0.757305 -1.90069 0
M  V30 3152 H 299.139 3.0764 -2.67996 0
M  V30 3153 H 297.814 2.25887 -3.4921 0
M  V30 3154 H 296.391 3.19717 -1.91925 0
M  V30 3155 N 298.576 1.31904 0.862503 0
M  V30 3156 C 299.824 1.21776 1.61292 0
M  V30 3157 C 300.145 -0.222413 1.93727 0
M  V30 3158 O 299.415 -1.1451 1.58947 0
M  V30 3159 H 297.995 0.447717 0.597962 0
M  V30 3160 H 300.657 1.65326 1.03215 0
M  V30 3161 H 299.753 1.7948 2.5533 0
M  V30 3162 N 300.054 -1.07777 1.14986 0
M  V30 3163 C 301.3 -1.80557 0.923422 0
M  V30 3164 C 301.633 -1.86298 -0.548337 0
M  V30 3165 O 300.908 -1.34354 -1.40639 0
M  V30 3166 C 301.191 -3.25839 1.53299 0
M  V30 3167 C 301.044 -3.28269 3.07505 0
M  V30 3168 C 302.363 -4.22991 1.21518 0
M  V30 3169 H 299.482 -0.655493 0.336894 0
M  V30 3170 H 302.124 -1.26144 1.42083 0
M  V30 3171 H 300.274 -3.72306 1.10999 0
M  V30 3172 H 301.946 -2.90079 3.58681 0
M  V30 3173 H 300.189 -2.67355 3.4162 0
M  V30 3174 H 300.86 -4.30691 3.45266 0
M  V30 3175 H 303.336 -3.84894 1.581 0
M  V30 3176 H 302.212 -5.22945 1.66793 0
M  V30 3177 H 302.473 -4.41904 0.131505 0
M  V30 3178 N 301.532 -0.945985 -1.26051 0
M  V30 3179 C 302.76 -0.613025 -1.9761 0
M  V30 3180 C 303.175 0.813035 -1.70397 0
M  V30 3181 O 302.532 1.54274 -0.974979 0
M  V30 3182 C 302.583 -0.85159 -3.51326 0
M  V30 3183 O 302.304 -2.22157 -3.77595 0
M  V30 3184 C 303.805 -0.529831 -4.40122 0
M  V30 3185 H 301.025 -0.230593 -0.630133 0
M  V30 3186 H 303.569 -1.268 -1.60443 0
M  V30 3187 H 301.724 -0.243151 -3.86636 0
M  V30 3188 H 302.138 -2.2852 -4.721 0
M  V30 3189 H 303.612 -0.747348 -5.46917 0
M  V30 3190 H 304.089 0.535341 -4.35925 0
M  V30 3191 H 304.695 -1.11721 -4.10364 0
M  V30 3192 N 303.011 1.40521 -0.713556 0
M  V30 3193 C 304.257 2.01221 -0.252564 0
M  V30 3194 C 304.59 1.56444 1.1506 0
M  V30 3195 O 303.865 0.783597 1.78017 0
M  V30 3196 C 304.148 3.58582 -0.330332 0
M  V30 3197 C 304.001 4.13437 -1.77173 0
M  V30 3198 C 305.32 4.39079 0.299641 0
M  V30 3199 H 302.439 0.731077 -0.0932471 0
M  V30 3200 H 305.081 1.67026 -0.905673 0
M  V30 3201 H 303.231 3.87844 0.225737 0
M  V30 3202 H 304.903 3.9498 -2.38303 0
M  V30 3203 H 303.146 3.67801 -2.3001 0
M  V30 3204 H 303.817 5.22597 -1.77755 0
M  V30 3205 H 306.293 4.15735 -0.174139 0
M  V30 3206 H 305.169 5.4848 0.214771 0
M  V30 3207 H 305.43 4.19915 1.38288 0
M  V30 3208 N 304.489 0.459591 1.5075 0
M  V30 3209 C 305.735 -0.0994966 2.02556 0
M  V30 3210 C 306.068 -1.40399 1.3417 0
M  V30 3211 O 305.343 -1.88892 0.463683 0
M  V30 3212 C 305.626 -0.295242 3.58888 0
M  V30 3213 C 305.479 1.02947 4.37861 0
M  V30 3214 C 306.798 -1.05502 4.27267 0
M  V30 3215 H 303.917 -0.034686 0.736183 0
M  V30 3216 H 306.559 0.602938 1.8018 0
M  V30 3217 H 304.709 -0.893563 3.78084 0
M  V30 3218 H 306.381 1.66348 4.30263 0
M  V30 3219 H 304.624 1.62885 4.02058 0
M  V30 3220 H 305.295 0.846281 5.45474 0
M  V30 3221 H 307.771 -0.547993 4.12476 0
M  V30 3222 H 306.647 -1.16077 5.36486 0
M  V30 3223 H 306.908 -2.08875 3.89645 0
M  V30 3224 N 305.967 -1.56429 0.191757 0
M  V30 3225 C 307.216 -1.9666 -0.448088 0
M  V30 3226 C 307.529 -1.08136 -1.62991 0
M  V30 3227 O 308.735 -1.38135 -2.33733 0
M  V30 3228 C 307.191 -3.49753 -0.848585 0
M  V30 3229 C 306.799 -4.46935 0.308764 0
M  V30 3230 C 308.543 -3.9876 -1.4557 0
M  V30 3231 C 306.45 -5.91293 -0.112506 0
M  V30 3232 H 305.38 -0.734312 -0.171179 0
M  V30 3233 H 308.031 -1.81301 0.283242 0
M  V30 3234 H 306.413 -3.60604 -1.63649 0
M  V30 3235 H 307.587 -4.47813 1.08627 0
M  V30 3236 H 305.902 -4.08102 0.827158 0
M  V30 3237 H 308.499 -5.04086 -1.78328 0
M  V30 3238 H 308.842 -3.42875 -2.36099 0
M  V30 3239 H 309.375 -3.9101 -0.731836 0
M  V30 3240 H 306.114 -6.51097 0.758514 0
M  V30 3241 H 305.634 -5.93676 -0.854941 0
M  V30 3242 H 307.313 -6.44663 -0.549448 0
M  V30 3243 N 307.445 0.0818655 -1.57387 0
M  V30 3244 C 308.691 0.784074 -1.8703 0
M  V30 3245 C 309.024 1.77729 -0.782689 0
M  V30 3246 O 308.299 1.93384 0.208051 0
M  V30 3247 C 308.582 1.50105 -3.27323 0
M  V30 3248 C 308.435 0.524925 -4.46727 0
M  V30 3249 C 309.754 2.44843 -3.65705 0
M  V30 3250 H 306.873 0.283582 -0.680257 0
M  V30 3251 H 309.515 0.0474352 -1.89941 0
M  V30 3252 H 307.665 2.12897 -3.24972 0
M  V30 3253 H 309.337 -0.0970111 -4.61198 0
M  V30 3254 H 307.58 -0.160606 -4.33503 0
M  V30 3255 H 308.251 1.064 -5.41648 0
M  V30 3256 H 310.727 1.92135 -3.69085 0
M  V30 3257 H 309.603 2.92018 -4.64776 0
M  V30 3258 H 309.864 3.29197 -2.95096 0
M  V30 3259 N 308.923 1.53595 0.353017 0
M  V30 3260 C 309.87 1.80919 1.43308 0
M  V30 3261 C 310.84 0.654288 1.5267 0
M  V30 3262 O 312.025 0.897759 1.6836 0
M  V30 3263 C 309.165 2.01605 2.80089 0
M  V30 3264 C 308.278 3.29321 2.79593 0
M  V30 3265 C 307.413 3.40125 4.0803 0
M  V30 3266 C 306.452 4.61826 4.01725 0
M  V30 3267 N 305.589 4.69716 5.21834 0
M  V30 3268 H 310.429 2.73074 1.19308 0
M  V30 3269 H 307.966 1.35263 0.578131 0
M  V30 3270 H 309.924 2.11586 3.59565 0
M  V30 3271 H 308.554 1.12772 3.0246 0
M  V30 3272 H 307.606 3.28229 1.92276 0
M  V30 3273 H 308.918 4.18884 2.70809 0
M  V30 3274 H 308.072 3.49488 4.95927 0
M  V30 3275 H 306.811 2.48601 4.19582 0
M  V30 3276 H 305.816 4.52552 3.12213 0
M  V30 3277 H 307.041 5.54705 3.91764 0
M  V30 3278 H 304.987 3.81097 5.33948 0
M  V30 3279 H 304.904 5.53202 5.1527 0
M  V30 3280 H 306.172 4.83376 6.11529 0
M  V30 3281 N 310.401 -0.613514 1.45168 0
M  V30 3282 C 311.348 -1.72456 1.53387 0
M  V30 3283 C 312.318 -1.6169 0.380191 0
M  V30 3284 O 313.503 -1.81356 0.592836 0
M  V30 3285 C 310.643 -3.10753 1.50088 0
M  V30 3286 C 309.756 -3.32368 2.75963 0
M  V30 3287 C 308.891 -4.60737 2.64376 0
M  V30 3288 C 307.93 -4.7559 3.85332 0
M  V30 3289 N 307.067 -5.95253 3.72315 0
M  V30 3290 H 311.907 -1.64768 2.48305 0
M  V30 3291 H 309.444 -0.803503 1.23216 0
M  V30 3292 H 311.402 -3.90758 1.46164 0
M  V30 3293 H 310.032 -3.17413 0.587243 0
M  V30 3294 H 309.084 -2.4618 2.89999 0
M  V30 3295 H 310.396 -3.39218 3.65695 0
M  V30 3296 H 309.55 -5.48928 2.58385 0
M  V30 3297 H 308.289 -4.56275 1.72233 0
M  V30 3298 H 307.294 -3.85824 3.91688 0
M  V30 3299 H 308.519 -4.81854 4.78533 0
M  V30 3300 H 306.465 -5.91847 2.82937 0
M  V30 3301 H 306.382 -6.03236 4.55677 0
M  V30 3302 H 307.65 -6.85958 3.70246 0
M  V30 3303 N 311.879 -1.3236 -0.855495 0
M  V30 3304 C 313.156 -1.13491 -1.59309 0
M  V30 3305 C 313.536 0.30503 -2.08885 0
M  V30 3306 O 312.884 1.30151 -1.87811 0
M  V30 3307 C 313.094 -2.16176 -2.73987 0
M  V30 3308 C 314.442 -2.49463 -3.43589 0
M  V30 3309 O 315.466 -2.14715 -2.84211 0
M  V30 3310 O 314.325 -3.09027 -4.50738 0
M  V30 3311 H 311.419 -0.437887 -0.701559 0
M  V30 3312 H 313.965 -1.43887 -0.899696 0
M  V30 3313 H 312.737 -3.1297 -2.34873 0
M  V30 3314 H 312.36 -1.86769 -3.51003 0
M  V30 3315 N 313.357 1.07166 -1.15556 0
M  V30 3316 C 314.287 2.16403 -0.877046 0
M  V30 3317 C 315.268 1.69217 0.173111 0
M  V30 3318 O 316.453 1.94181 0.027084 0
M  V30 3319 C 313.583 3.45349 -0.367632 0
M  V30 3320 C 312.537 4.05995 -1.35468 0
M  V30 3321 C 311.863 5.30045 -0.704038 0
M  V30 3322 C 313.163 4.45804 -2.72132 0
M  V30 3323 H 314.857 2.39959 -1.79053 0
M  V30 3324 H 312.403 1.15325 -0.862331 0
M  V30 3325 H 314.356 4.21095 -0.160317 0
M  V30 3326 H 313.08 3.21385 0.581326 0
M  V30 3327 H 311.739 3.32296 -1.54839 0
M  V30 3328 H 311.387 5.02373 0.251128 0
M  V30 3329 H 311.087 5.71579 -1.36277 0
M  V30 3330 H 312.611 6.08495 -0.50654 0
M  V30 3331 H 314.025 5.12671 -2.56595 0
M  V30 3332 H 312.422 4.98296 -3.34397 0
M  V30 3333 H 313.492 3.57083 -3.28054 0
M  V30 3334 N 314.835 0.952656 1.25548 0
M  V30 3335 C 315.765 0.489287 2.28316 0
M  V30 3336 C 316.746 -0.463359 1.63667 0
M  V30 3337 O 317.931 -0.36274 1.90782 0
M  V30 3338 C 315.061 -0.235603 3.465 0
M  V30 3339 C 314.015 0.631593 4.23314 0
M  V30 3340 C 313.341 -0.223923 5.34231 0
M  V30 3341 C 314.641 1.90871 4.86174 0
M  V30 3342 H 316.335 1.34822 2.67326 0
M  V30 3343 H 313.881 0.649728 1.28509 0
M  V30 3344 H 315.834 -0.570882 4.17515 0
M  V30 3345 H 314.558 -1.12877 3.06474 0
M  V30 3346 H 313.217 0.949929 3.54079 0
M  V30 3347 H 312.865 -1.11678 4.90446 0
M  V30 3348 H 312.565 0.35299 5.86539 0
M  V30 3349 H 314.089 -0.554214 6.0808 0
M  V30 3350 H 315.503 1.63997 5.49343 0
M  V30 3351 H 313.9 2.43112 5.4865 0
M  V30 3352 H 314.97 2.61304 4.08471 0
M  V30 3353 N 316.313 -1.40141 0.720998 0
M  V30 3354 C 317.261 -2.3252 0.0608547 0
M  V30 3355 C 318.255 -1.52326 -0.741152 0
M  V30 3356 O 319.461 -1.68089 -0.643911 0
M  V30 3357 H 315.836 -0.751999 0.000876664 0
M  V30 3358 H 317.807 -2.8584 0.856614 0
M  V30 3359 C 316.556 -3.37331 -0.842809 0
M  V30 3360 H 315.879 -3.99108 -0.235084 0
M  V30 3361 H 317.319 -4.04452 -1.27257 0
M  V30 3362 C 315.778 -2.73246 -1.97074 0
M  V30 3363 O 316.308 -2.59998 -3.06209 0
M  V30 3364 N 314.514 -2.31547 -1.75597 0
M  V30 3365 H 314.061 -2.42522 -0.868368 0
M  V30 3366 H 314.019 -1.89007 -2.51244 0
M  V30 3367 N 317.792 -0.46758 -1.50504 0
M  V30 3368 C 319.02 0.0864133 -2.06719 0
M  V30 3369 C 319.435 1.33819 -1.33184 0
M  V30 3370 O 318.792 1.78061 -0.400083 0
M  V30 3371 C 318.843 0.378079 -3.59517 0
M  V30 3372 O 318.564 -0.824044 -4.3028 0
M  V30 3373 C 320.065 0.979426 -4.32345 0
M  V30 3374 H 317.285 -0.00551697 -0.670977 0
M  V30 3375 H 319.829 -0.655354 -1.93715 0
M  V30 3376 H 317.984 1.06977 -3.72337 0
M  V30 3377 H 318.398 -0.566518 -5.21432 0
M  V30 3378 H 319.872 1.1333 -5.40241 0
M  V30 3379 H 320.349 1.9686 -3.9261 0
M  V30 3380 H 320.955 0.326216 -4.24047 0
M  V30 3381 N 319.27 1.56325 -0.20005 0
M  V30 3382 C 320.217 2.1932 0.718833 0
M  V30 3383 C 321.187 1.14198 1.20615 0
M  V30 3384 O 322.372 1.42469 1.26914 0
M  V30 3385 C 319.512 2.86041 1.93066 0
M  V30 3386 C 318.625 4.05702 1.48425 0
M  V30 3387 C 317.76 4.60266 2.65196 0
M  V30 3388 C 316.799 5.72273 2.17185 0
M  V30 3389 N 315.936 6.21221 3.27152 0
M  V30 3390 H 320.776 2.97486 0.17489 0
M  V30 3391 H 318.313 1.46911 0.0745794 0
M  V30 3392 H 320.271 3.22897 2.64184 0
M  V30 3393 H 318.901 2.1043 2.44783 0
M  V30 3394 H 317.953 3.74475 0.668755 0
M  V30 3395 H 319.265 4.86699 1.09204 0
M  V30 3396 H 318.419 4.99453 3.4443 0
M  V30 3397 H 317.158 3.78386 3.07693 0
M  V30 3398 H 316.163 5.3261 1.36407 0
M  V30 3399 H 317.388 6.55974 1.75713 0
M  V30 3400 H 315.334 5.42263 3.69171 0
M  V30 3401 H 315.251 6.97284 2.92116 0
M  V30 3402 H 316.519 6.65063 4.06585 0
M  V30 3403 N 320.748 -0.0735177 1.57428 0
M  V30 3404 C 321.994 -0.774145 1.87443 0
M  V30 3405 C 322.327 -1.77311 0.792103 0
M  V30 3406 O 321.602 -1.93492 -0.197793 0
M  V30 3407 C 321.885 -1.48367 3.28115 0
M  V30 3408 C 321.738 -0.501227 4.46999 0
M  V30 3409 C 323.057 -2.429 3.66998 0
M  V30 3410 H 320.176 -0.279971 0.681752 0
M  V30 3411 H 322.818 -0.0373616 1.89963 0
M  V30 3412 H 320.968 -2.11171 3.26097 0
M  V30 3413 H 322.64 0.121468 4.6114 0
M  V30 3414 H 320.883 0.183593 4.33411 0
M  V30 3415 H 321.554 -1.03526 5.42205 0
M  V30 3416 H 324.03 -1.90175 3.70098 0
M  V30 3417 H 322.906 -2.89549 4.66318 0
M  V30 3418 H 323.167 -3.27628 2.96837 0
M  V30 3419 N 322.226 -1.5378 -0.344866 0
M  V30 3420 C 323.136 -1.84667 -1.4469 0
M  V30 3421 C 324.152 -0.736704 -1.57635 0
M  V30 3422 O 325.328 -1.02888 -1.73136 0
M  V30 3423 C 322.393 -2.04869 -2.79696 0
M  V30 3424 C 321.454 -3.28731 -2.76106 0
M  V30 3425 C 320.687 -3.4796 -4.04673 0
M  V30 3426 O 320.91 -2.71052 -5.01883 0
M  V30 3427 O 319.844 -4.41383 -4.09224 0
M  V30 3428 H 323.67 -2.78334 -1.21506 0
M  V30 3429 H 321.255 -1.39418 -0.536921 0
M  V30 3430 H 323.137 -2.19609 -3.59652 0
M  V30 3431 H 321.812 -1.14391 -3.02814 0
M  V30 3432 H 320.719 -3.19396 -1.94774 0
M  V30 3433 H 322.052 -4.19198 -2.57941 0
M  V30 3434 N 323.704 0.605807 -1.45491 0
M  V30 3435 C 324.636 1.73031 -1.5031 0
M  V30 3436 C 325.649 1.57968 -0.393687 0
M  V30 3437 O 326.838 1.65817 -0.660839 0
M  V30 3438 C 323.938 3.11049 -1.34543 0
M  V30 3439 C 323.111 3.52334 -2.59189 0
M  V30 3440 C 322.17 4.69323 -2.37954 0
M  V30 3441 O 321.196 4.7635 -3.11575 0
M  V30 3442 N 322.398 5.62705 -1.4263 0
M  V30 3443 H 325.163 1.6936 -2.4726 0
M  V30 3444 H 322.724 0.79114 -1.41254 0
M  V30 3445 H 324.716 3.87071 -1.18144 0
M  V30 3446 H 323.286 3.09217 -0.458623 0
M  V30 3447 H 322.506 2.66256 -2.90691 0
M  V30 3448 H 323.794 3.76677 -3.42041 0
M  V30 3449 H 323.192 5.59744 -0.818758 0
M  V30 3450 H 321.749 6.38252 -1.32202 0
M  V30 3451 N 325.182 1.32811 0.848464 0
M  V30 3452 C 326.428 1.23907 1.60546 0
M  V30 3453 C 326.761 -0.197161 1.93197 0
M  V30 3454 O 326.036 -1.13596 1.5788 0
M  V30 3455 C 326.319 2.10489 2.92175 0
M  V30 3456 C 326.172 3.62522 2.66266 0
M  V30 3457 C 327.491 1.97075 3.93509 0
M  V30 3458 H 324.61 0.451459 0.58254 0
M  V30 3459 H 327.252 1.62818 0.979296 0
M  V30 3460 H 325.402 1.77434 3.45614 0
M  V30 3461 H 327.074 4.05821 2.19334 0
M  V30 3462 H 325.317 3.84879 2.00126 0
M  V30 3463 H 325.988 4.18437 3.6002 0
M  V30 3464 H 328.464 2.26045 3.49346 0
M  V30 3465 H 327.34 2.59923 4.83457 0
M  V30 3466 H 327.601 0.940186 4.31987 0
M  V30 3467 N 326.66 -1.06551 1.16123 0
M  V30 3468 C 328.071 -1.60768 0.949232 0
M  V30 3469 C 328.422 -1.89523 -0.507508 0
M  V30 3470 O 327.547 -1.66671 -1.38021 0
M  V30 3471 C 328.142 -2.92086 1.71671 0
M  V30 3472 C 326.701 -3.43015 1.54977 0
M  V30 3473 C 325.848 -2.16947 1.72711 0
M  V30 3474 H 328.799 -0.895354 1.31031 0
M  V30 3475 H 328.82 -3.6138 1.19099 0
M  V30 3476 H 328.332 -2.71127 2.7769 0
M  V30 3477 H 326.433 -3.69039 0.513873 0
M  V30 3478 H 326.546 -4.18516 2.33198 0
M  V30 3479 H 324.91 -2.27041 1.15431 0
M  V30 3480 H 325.693 -1.98473 2.80113 0
M  V30 3481 N 328.138 -0.959301 -1.25041 0
M  V30 3482 C 329.366 -0.633949 -1.96948 0
M  V30 3483 C 329.781 0.794916 -1.7125 0
M  V30 3484 O 329.138 1.53231 -0.991287 0
M  V30 3485 C 329.189 -0.888805 -3.50403 0
M  V30 3486 O 328.91 -2.26149 -3.75218 0
M  V30 3487 C 330.411 -0.576482 -4.39536 0
M  V30 3488 H 327.631 -0.237263 -0.627652 0
M  V30 3489 H 330.175 -1.28495 -1.59089 0
M  V30 3490 H 328.33 -0.284145 -3.86357 0
M  V30 3491 H 328.744 -2.33514 -4.6965 0
M  V30 3492 H 330.218 -0.805314 -5.46094 0
M  V30 3493 H 330.695 0.489075 -4.36468 0
M  V30 3494 H 331.301 -1.16067 -4.09156 0
M  V30 3495 N 329.616 1.39756 -0.72842 0
M  V30 3496 C 330.549 2.28176 -0.0330172 0
M  V30 3497 C 331.527 1.44035 0.754501 0
M  V30 3498 O 332.711 1.73434 0.738445 0
M  V30 3499 C 329.838 3.24795 0.960504 0
M  V30 3500 C 328.884 4.25693 0.262264 0
M  V30 3501 S 329.717 5.25714 -1.01906 0
M  V30 3502 C 330.873 6.25894 -0.0279717 0
M  V30 3503 H 331.106 2.86807 -0.78287 0
M  V30 3504 H 328.639 1.45382 -0.519951 0
M  V30 3505 H 330.597 3.80983 1.52846 0
M  V30 3506 H 329.258 2.65196 1.68315 0
M  V30 3507 H 328.451 4.93699 1.01379 0
M  V30 3508 H 328.053 3.7327 -0.233482 0
M  V30 3509 H 330.345 6.72585 0.814621 0
M  V30 3510 H 331.288 7.04876 -0.67499 0
M  V30 3511 H 331.696 5.63466 0.341489 0
M  V30 3512 N 331.094 0.475555 1.50254 0
M  V30 3513 C 332.024 -0.30611 2.31485 0
M  V30 3514 C 333.005 -0.986228 1.38591 0
M  V30 3515 O 334.19 -0.982541 1.67511 0
M  V30 3516 C 331.32 -1.38588 3.1845 0
M  V30 3517 C 330.274 -0.827115 4.19932 0
M  V30 3518 C 329.6 -2.00551 4.95665 0
M  V30 3519 C 330.9 0.16463 5.2204 0
M  V30 3520 H 332.594 0.371866 2.97082 0
M  V30 3521 H 330.14 0.180282 1.42867 0
M  V30 3522 H 332.093 -1.94023 3.74076 0
M  V30 3523 H 330.817 -2.09269 2.50747 0
M  V30 3524 H 329.476 -0.294702 3.65414 0
M  V30 3525 H 329.124 -2.6994 4.2443 0
M  V30 3526 H 328.824 -1.63784 5.64313 0
M  V30 3527 H 330.348 -2.56468 5.54127 0
M  V30 3528 H 331.762 -0.300699 5.72511 0
M  V30 3529 H 330.159 0.446813 5.98434 0
M  V30 3530 H 331.229 1.08905 4.72512 0
M  V30 3531 N 332.573 -1.56217 0.208337 0
M  V30 3532 C 333.505 -2.1695 -0.739276 0
M  V30 3533 C 334.518 -1.13492 -1.1672 0
M  V30 3534 O 335.707 -1.40529 -1.10063 0
M  V30 3535 C 332.807 -2.72755 -2.01142 0
M  V30 3536 C 331.98 -4.0125 -1.74118 0
M  V30 3537 C 331.039 -4.41749 -2.85909 0
M  V30 3538 O 330.065 -5.08912 -2.54946 0
M  V30 3539 N 331.267 -4.06342 -4.14568 0
M  V30 3540 H 334.032 -2.98893 -0.219837 0
M  V30 3541 H 331.593 -1.61878 0.0268445 0
M  V30 3542 H 333.585 -2.96826 -2.75094 0
M  V30 3543 H 332.155 -1.95191 -2.4417 0
M  V30 3544 H 331.375 -3.85173 -0.838775 0
M  V30 3545 H 332.663 -4.851 -1.53477 0
M  V30 3546 H 332.061 -3.52345 -4.42571 0
M  V30 3547 H 330.618 -4.35335 -4.85105 0
M  V30 3548 N 334.051 0.0651679 -1.57465 0
M  V30 3549 C 335.281 0.774683 -1.91526 0
M  V30 3550 C 335.689 1.71305 -0.803196 0
M  V30 3551 O 335.032 1.82231 0.231881 0
M  V30 3552 C 335.094 1.61645 -3.21109 0
M  V30 3553 C 334.758 0.846753 -4.49087 0
M  V30 3554 C 335.755 0.163024 -5.19644 0
M  V30 3555 C 333.44 0.811966 -4.95694 0
M  V30 3556 C 335.434 -0.54519 -6.35064 0
M  V30 3557 C 333.121 0.0999836 -6.11018 0
M  V30 3558 C 334.119 -0.577388 -6.80555 0
M  V30 3559 O 333.807 -1.27789 -7.93678 0
M  V30 3560 H 333.539 0.225031 -0.637446 0
M  V30 3561 H 336.093 0.0377134 -2.05365 0
M  V30 3562 H 334.323 2.39638 -3.03497 0
M  V30 3563 H 336.012 2.20525 -3.40769 0
M  V30 3564 H 336.778 0.181163 -4.84662 0
M  V30 3565 H 332.657 1.32867 -4.41438 0
M  V30 3566 H 336.201 -1.07446 -6.89276 0
M  V30 3567 H 332.098 0.0797945 -6.45451 0
M  V30 3568 H 332.866 -1.18784 -8.09835 0
M  V30 3569 N 335.529 1.53961 0.336706 0
M  V30 3570 C 336.492 1.81724 1.39675 0
M  V30 3571 C 337.492 0.688532 1.45313 0
M  V30 3572 O 338.682 0.956829 1.45569 0
M  V30 3573 C 335.814 1.96543 2.78538 0
M  V30 3574 H 337.007 2.76424 1.16318 0
M  V30 3575 H 334.56 1.45478 0.571474 0
M  V30 3576 H 335.295 1.0401 3.07168 0
M  V30 3577 H 335.08 2.78665 2.75841 0
M  V30 3578 H 336.57 2.19516 3.5525 0
M  V30 3579 N 337.007 -0.598083 1.45811 0
M  V30 3580 C 338.235 -1.38322 1.53866 0
M  V30 3581 C 338.65 -1.87992 0.174479 0
M  V30 3582 O 338.007 -1.62756 -0.825627 0
M  V30 3583 C 338.058 -2.58125 2.53089 0
M  V30 3584 O 337.779 -2.10516 3.84206 0
M  V30 3585 C 339.28 -3.50869 2.70935 0
M  V30 3586 H 336.5 -0.423093 0.520801 0
M  V30 3587 H 339.044 -0.728527 1.91083 0
M  V30 3588 H 337.199 -3.19615 2.18917 0
M  V30 3589 H 337.613 -2.88425 4.38077 0
M  V30 3590 H 339.087 -4.31451 3.44317 0
M  V30 3591 H 339.564 -4.01822 1.77301 0
M  V30 3592 H 340.17 -2.95225 3.06141 0
M  V30 3593 N 338.485 -1.33259 -0.841409 0
M  V30 3594 C 339.435 -1.19872 -1.93945 0
M  V30 3595 C 340.419 -0.102269 -1.60575 0
M  V30 3596 O 341.611 -0.330114 -1.73894 0
M  V30 3597 C 338.74 -0.937517 -3.30251 0
M  V30 3598 C 337.826 -2.07629 -3.69799 0
M  V30 3599 N 338.217 -3.32604 -3.81062 0
M  V30 3600 C 336.515 -1.98242 -3.9952 0
M  V30 3601 C 337.216 -4.07275 -4.15333 0
M  V30 3602 N 336.192 -3.35691 -4.27566 0
M  V30 3603 H 339.994 -2.14604 -2.00805 0
M  V30 3604 H 337.508 -1.2523 -1.03398 0
M  V30 3605 H 339.505 -0.822545 -4.08705 0
M  V30 3606 H 338.165 0.00128798 -3.247 0
M  V30 3607 H 339.176 -3.67382 -3.65035 0
M  V30 3608 H 335.853 -1.12005 -4.02195 0
M  V30 3609 H 337.243 -5.1511 -4.31406 0
M  V30 3610 N 339.963 1.05934 -1.16686 0
M  V30 3611 C 341.212 1.78188 -0.945085 0
M  V30 3612 C 341.525 1.88338 0.528021 0
M  V30 3613 O 342.731 2.57258 0.867799 0
M  V30 3614 C 341.187 3.20277 -1.64167 0
M  V30 3615 C 340.795 3.18281 -3.15279 0
M  V30 3616 C 342.539 3.97039 -1.502 0
M  V30 3617 C 340.446 4.55112 -3.7766 0
M  V30 3618 H 339.376 0.667866 -0.349959 0
M  V30 3619 H 342.027 1.18794 -1.39858 0
M  V30 3620 H 340.409 3.79952 -1.11589 0
M  V30 3621 H 341.583 2.68167 -3.74731 0
M  V30 3622 H 339.898 2.55018 -3.29173 0
M  V30 3623 H 342.495 4.98194 -1.94183 0
M  V30 3624 H 342.838 4.13845 -0.451461 0
M  V30 3625 H 343.371 3.43894 -1.99954 0
M  V30 3626 H 340.11 4.43512 -4.82677 0
M  V30 3627 H 339.63 5.05406 -3.22994 0
M  V30 3628 H 341.309 5.24064 -3.79428 0
M  V30 3629 N 341.441 0.965919 1.2453 0
M  V30 3630 C 342.388 0.49402 2.25451 0
M  V30 3631 C 343.358 -0.45948 1.59618 0
M  V30 3632 O 344.543 -0.370238 1.87173 0
M  V30 3633 C 341.683 -0.211359 3.44452 0
M  V30 3634 C 340.796 0.7807 4.24887 0
M  V30 3635 C 339.931 0.0516105 5.31175 0
M  V30 3636 C 338.97 1.03385 6.03306 0
M  V30 3637 N 338.107 0.334887 7.01301 0
M  V30 3638 H 342.947 1.35946 2.65184 0
M  V30 3639 H 340.484 0.681515 1.3036 0
M  V30 3640 H 342.442 -0.637 4.12308 0
M  V30 3641 H 341.072 -1.04077 3.05562 0
M  V30 3642 H 340.124 1.32479 3.56586 0
M  V30 3643 H 341.436 1.52978 4.74762 0
M  V30 3644 H 340.59 -0.432114 6.05159 0
M  V30 3645 H 339.329 -0.730179 4.82203 0
M  V30 3646 H 338.334 1.52847 5.28127 0
M  V30 3647 H 339.559 1.81606 6.54367 0
M  V30 3648 H 337.505 -0.427959 6.54603 0
M  V30 3649 H 337.422 1.02287 7.49048 0
M  V30 3650 H 338.69 -0.126928 7.79397 0
M  V30 3651 N 342.919 -1.39368 0.735821 0
M  V30 3652 C 344.144 -2.05319 0.293052 0
M  V30 3653 C 344.569 -1.55115 -1.064 0
M  V30 3654 O 343.927 -0.695261 -1.67439 0
M  V30 3655 C 343.975 -3.59305 0.305323 0
M  V30 3656 O 343.079 -4.06299 -0.706761 0
M  V30 3657 H 342.42 -0.650529 0.13307 0
M  V30 3658 H 344.95 -1.78386 1.00197 0
M  V30 3659 H 344.96 -4.07724 0.149997 0
M  V30 3660 H 343.635 -3.95207 1.29553 0
M  V30 3661 H 342.212 -3.69292 -0.517504 0
M  V30 3662 N 344.397 -0.483516 -1.5 0
M  V30 3663 C 345.674 0.129337 -1.95172 0
M  V30 3664 C 346.054 1.55802 -1.4244 0
M  V30 3665 O 345.402 2.19625 -0.630649 0
M  V30 3666 C 345.612 0.0599251 -3.48949 0
M  V30 3667 C 346.96 0.242617 -4.23906 0
M  V30 3668 O 347.984 0.135933 -3.55941 0
M  V30 3669 O 346.843 0.459454 -5.44565 0
M  V30 3670 H 343.937 0.104887 -0.820322 0
M  V30 3671 H 346.483 -0.544807 -1.60717 0
M  V30 3672 H 345.255 -0.937079 -3.79914 0
M  V30 3673 H 344.878 0.774984 -3.89974 0
M  V30 3674 N 345.875 1.56104 -0.216619 0
M  V30 3675 C 347.1 2.0301 0.424462 0
M  V30 3676 C 347.525 1.0955 1.52907 0
M  V30 3677 O 346.883 0.0827914 1.81111 0
M  V30 3678 C 346.931 3.4819 0.937883 0
M  V30 3679 O 346.035 3.57865 2.04955 0
M  V30 3680 H 345.376 0.656925 0.0966755 0
M  V30 3681 H 347.906 2.01859 -0.33381 0
M  V30 3682 H 347.916 3.88413 1.24897 0
M  V30 3683 H 346.591 4.15699 0.129387 0
M  V30 3684 H 345.168 3.29527 1.74546 0
M  V30 3685 N 347.353 -0.0568162 1.57498 0
M  V30 3686 C 348.283 -1.06593 2.0775 0
M  V30 3687 C 349.264 -1.39448 0.974082 0
M  V30 3688 O 350.449 -1.48815 1.24771 0
M  V30 3689 C 347.579 -2.37509 2.5339 0
M  V30 3690 C 346.533 -2.1897 3.67745 0
M  V30 3691 C 345.859 -3.55402 3.99492 0
M  V30 3692 C 347.159 -1.59859 4.97235 0
M  V30 3693 H 348.853 -0.647706 2.9231 0
M  V30 3694 H 346.399 -0.310116 1.40621 0
M  V30 3695 H 348.352 -3.08409 2.87162 0
M  V30 3696 H 347.076 -2.8134 1.65878 0
M  V30 3697 H 345.735 -1.50508 3.3428 0
M  V30 3698 H 345.383 -3.9683 3.09088 0
M  V30 3699 H 345.083 -3.43831 4.76502 0
M  V30 3700 H 346.607 -4.27708 4.35773 0
M  V30 3701 H 348.021 -2.20642 5.29141 0
M  V30 3702 H 346.418 -1.58942 5.78669 0
M  V30 3703 H 347.488 -0.561506 4.81638 0
M  V30 3704 N 348.832 -1.54138 -0.328536 0
M  V30 3705 C 350.062 -1.75807 -1.08516 0
M  V30 3706 C 350.47 -0.50428 -1.82356 0
M  V30 3707 O 349.813 0.534451 -1.75754 0
M  V30 3708 C 349.875 -2.89423 -2.13248 0
M  V30 3709 C 349.539 -4.28504 -1.5885 0
M  V30 3710 C 350.536 -5.09536 -1.03289 0
M  V30 3711 C 348.221 -4.75034 -1.63243 0
M  V30 3712 C 350.215 -6.35206 -0.52845 0
M  V30 3713 C 347.902 -6.00672 -1.12411 0
M  V30 3714 C 348.9 -6.80592 -0.573062 0
M  V30 3715 O 348.588 -8.03867 -0.0723692 0
M  V30 3716 H 348.32 -0.590633 -0.328829 0
M  V30 3717 H 350.874 -2.01819 -0.381868 0
M  V30 3718 H 349.104 -2.5897 -2.87178 0
M  V30 3719 H 350.793 -2.98921 -2.74592 0
M  V30 3720 H 351.559 -4.74745 -0.99206 0
M  V30 3721 H 347.438 -4.12875 -2.05074 0
M  V30 3722 H 350.982 -6.97532 -0.0976774 0
M  V30 3723 H 346.879 -6.34955 -1.162 0
M  V30 3724 H 347.647 -8.18283 -0.188258 0
M  V30 3725 N 350.31 0.590341 -1.46126 0
M  V30 3726 C 351.258 1.72105 -1.5647 0
M  V30 3727 C 352.252 1.63756 -0.433612 0
M  V30 3728 O 353.458 1.69342 -0.610194 0
M  V30 3729 H 349.833 0.568889 -0.491802 0
M  V30 3730 H 351.804 1.6051 -2.51553 0
M  V30 3731 C 350.553 3.10493 -1.56491 0
M  V30 3732 H 349.876 3.17583 -2.4286 0
M  V30 3733 H 351.316 3.8939 -1.67785 0
M  V30 3734 C 349.775 3.3563 -0.292231 0
M  V30 3735 O 350.305 3.96875 0.620739 0
M  V30 3736 N 348.511 2.90026 -0.182523 0
M  V30 3737 H 348.058 2.40367 -0.926356 0
M  V30 3738 H 348.016 3.07218 0.668152 0
M  V30 3739 N 351.788 1.33704 0.83433 0
M  V30 3740 C 353.016 1.28467 1.62185 0
M  V30 3741 C 353.431 -0.143526 1.88254 0
M  V30 3742 O 352.788 -1.08709 1.4659 0
M  V30 3743 C 352.839 2.06174 2.96942 0
M  V30 3744 O 352.56 3.43422 2.72016 0
M  V30 3745 C 354.061 2.08201 3.91366 0
M  V30 3746 H 351.281 0.4424 0.504503 0
M  V30 3747 H 353.825 1.76145 1.03891 0
M  V30 3748 H 351.98 1.62167 3.51825 0
M  V30 3749 H 352.394 3.83453 3.57861 0
M  V30 3750 H 353.868 2.67017 4.83121 0
M  V30 3751 H 354.345 1.07343 4.2588 0
M  V30 3752 H 354.951 2.52246 3.42421 0
M  V30 3753 N 353.266 -1.05314 1.17247 0
M  V30 3754 C 354.677 -1.59753 0.96623 0
M  V30 3755 C 355.028 -1.9005 -0.487378 0
M  V30 3756 O 354.153 -1.68126 -1.36245 0
M  V30 3757 C 354.748 -2.90249 1.74759 0
M  V30 3758 C 353.307 -3.41352 1.58606 0
M  V30 3759 C 352.454 -2.15103 1.75002 0
M  V30 3760 H 355.405 -0.881406 1.31973 0
M  V30 3761 H 355.426 -3.60097 1.22925 0
M  V30 3762 H 354.938 -2.68166 2.8055 0
M  V30 3763 H 353.039 -3.68474 0.552985 0
M  V30 3764 H 353.152 -4.16019 2.37624 0
M  V30 3765 H 351.516 -2.25804 1.17833 0
M  V30 3766 H 352.299 -1.95491 2.82202 0
M  V30 3767 N 354.744 -0.972509 -1.24016 0
M  V30 3768 C 356.155 -0.67517 -1.74064 0
M  V30 3769 C 356.506 0.808939 -1.78747 0
M  V30 3770 O 355.631 1.63286 -1.42009 0
M  V30 3771 C 356.226 -1.21889 -3.16115 0
M  V30 3772 C 354.785 -0.971358 -3.6365 0
M  V30 3773 C 353.932 -1.35134 -2.42145 0
M  V30 3774 H 356.883 -1.14727 -1.09651 0
M  V30 3775 H 356.904 -0.587489 -3.75937 0
M  V30 3776 H 356.416 -2.29906 -3.12674 0
M  V30 3777 H 354.517 0.0930686 -3.72484 0
M  V30 3778 H 354.63 -1.62039 -4.50866 0
M  V30 3779 H 352.994 -0.769751 -2.4279 0
M  V30 3780 H 353.777 -2.4411 -2.41381 0
M  V30 3781 N 356.222 1.38976 -0.743202 0
M  V30 3782 C 357.45 2.04636 -0.30525 0
M  V30 3783 C 357.865 1.56044 1.06281 0
M  V30 3784 O 357.222 0.728921 1.67311 0
M  V30 3785 C 357.273 3.60193 -0.307177 0
M  V30 3786 O 356.994 4.06998 -1.62124 0
M  V30 3787 C 358.495 4.4306 0.145928 0
M  V30 3788 H 355.715 0.65788 -0.132041 0
M  V30 3789 H 358.259 1.77866 -1.00915 0
M  V30 3790 H 356.414 3.85835 0.347898 0
M  V30 3791 H 356.828 5.01371 -1.54036 0
M  V30 3792 H 358.302 5.51921 0.0934183 0
M  V30 3793 H 358.779 4.22706 1.19231 0
M  V30 3794 H 359.385 4.22584 -0.479886 0
M  V30 3795 N 357.7 0.491464 1.49741 0
M  V30 3796 C 358.947 -0.0564256 2.02421 0
M  V30 3797 C 359.275 -1.37872 1.37192 0
M  V30 3798 O 358.53 -1.89375 0.493508 0
M  V30 3799 C 358.829 -0.267329 3.56399 0
M  V30 3800 C 358.495 0.975775 4.40215 0
M  V30 3801 C 357.157 1.31655 4.62839 0
M  V30 3802 C 359.509 1.80251 4.89039 0
M  V30 3803 C 356.837 2.48375 5.31532 0
M  V30 3804 C 359.189 2.96116 5.59015 0
M  V30 3805 C 357.853 3.30585 5.79888 0
M  V30 3806 H 357.123 -0.0206476 0.740712 0
M  V30 3807 H 359.77 0.649686 1.80143 0
M  V30 3808 H 358.075 -1.05588 3.77304 0
M  V30 3809 H 359.772 -0.705549 3.94744 0
M  V30 3810 H 356.362 0.700315 4.2284 0
M  V30 3811 H 360.546 1.55239 4.71396 0
M  V30 3812 H 355.802 2.7533 5.45897 0
M  V30 3813 H 359.976 3.60509 5.95824 0
M  V30 3814 H 357.603 4.21132 6.32892 0
M  V30 3815 N 359.178 -1.55987 0.224894 0
M  V30 3816 C 360.403 -2.03232 -0.41369 0
M  V30 3817 C 360.828 -1.10359 -1.52323 0
M  V30 3818 O 360.186 -0.092395 -1.81064 0
M  V30 3819 C 360.234 -3.48682 -0.919405 0
M  V30 3820 O 359.338 -3.58947 -2.03054 0
M  V30 3821 H 358.679 -0.657428 -0.0931903 0
M  V30 3822 H 361.209 -2.01679 0.34451 0
M  V30 3823 H 361.219 -3.8907 -1.22835 0
M  V30 3824 H 359.894 -4.15761 -0.107339 0
M  V30 3825 H 358.471 -3.30448 -1.72796 0
M  V30 3826 N 360.656 0.0484629 -1.57525 0
M  V30 3827 C 361.905 0.742065 -1.87553 0
M  V30 3828 C 362.218 1.77545 -0.820802 0
M  V30 3829 O 363.424 2.52027 -1.00967 0
M  V30 3830 C 361.88 1.37081 -3.32771 0
M  V30 3831 C 361.488 0.374786 -4.4643 0
M  V30 3832 C 363.232 2.04542 -3.71972 0
M  V30 3833 C 361.139 1.01077 -5.82698 0
M  V30 3834 H 360.069 0.280903 -0.699721 0
M  V30 3835 H 362.72 -0.00411877 -1.835 0
M  V30 3836 H 361.102 2.16605 -3.31509 0
M  V30 3837 H 362.276 -0.392331 -4.59127 0
M  V30 3838 H 360.591 -0.196653 -4.15935 0
M  V30 3839 H 363.188 2.52943 -4.71088 0
M  V30 3840 H 363.531 2.85515 -3.02964 0
M  V30 3841 H 364.064 1.31819 -3.75325 0
M  V30 3842 H 360.803 0.240878 -6.55057 0
M  V30 3843 H 360.323 1.74819 -5.73758 0
M  V30 3844 H 362.002 1.52383 -6.28799 0
M  V30 3845 N 362.134 1.5431 0.320358 0
M  V30 3846 C 363.364 1.7638 1.07582 0
M  V30 3847 C 363.772 0.513944 1.82086 0
M  V30 3848 O 363.115 -0.525123 1.76035 0
M  V30 3849 C 363.177 2.9055 2.1171 0
M  V30 3850 C 362.841 4.2934 1.56575 0
M  V30 3851 C 363.838 5.10077 1.00586 0
M  V30 3852 C 361.523 4.75893 1.60722 0
M  V30 3853 C 363.517 6.35477 0.494756 0
M  V30 3854 C 361.204 6.0126 1.09224 0
M  V30 3855 C 362.202 6.80886 0.53696 0
M  V30 3856 O 361.89 8.03894 0.0297371 0
M  V30 3857 H 361.622 0.592369 0.325692 0
M  V30 3858 H 364.176 2.02019 0.37116 0
M  V30 3859 H 362.406 2.60489 2.85801 0
M  V30 3860 H 364.095 3.00373 2.73003 0
M  V30 3861 H 364.861 4.75265 0.966869 0
M  V30 3862 H 360.74 4.13957 2.02882 0
M  V30 3863 H 364.284 6.97574 0.0606842 0
M  V30 3864 H 360.181 6.35562 1.12831 0
M  V30 3865 H 360.949 8.18372 0.14486 0
M  V30 3866 N 363.613 -0.582584 1.46437 0
M  V30 3867 C 364.546 -1.70633 1.51524 0
M  V30 3868 C 365.524 -1.58349 0.369351 0
M  V30 3869 O 366.708 -1.79563 0.573516 0
M  V30 3870 C 363.835 -3.08687 1.39392 0
M  V30 3871 C 362.881 -3.3949 2.58164 0
M  V30 3872 S 363.714 -3.31548 4.20519 0
M  V30 3873 C 364.87 -4.72139 4.10896 0
M  V30 3874 H 365.103 -1.66058 2.46601 0
M  V30 3875 H 362.636 -0.761337 1.34324 0
M  V30 3876 H 364.594 -3.8833 1.33079 0
M  V30 3877 H 363.255 -3.10751 0.457436 0
M  V30 3878 H 362.448 -4.40071 2.45669 0
M  V30 3879 H 362.05 -2.67415 2.61468 0
M  V30 3880 H 364.342 -5.62527 3.77584 0
M  V30 3881 H 365.285 -4.89692 5.11476 0
M  V30 3882 H 365.693 -4.48995 3.42146 0
M  V30 3883 N 365.091 -1.34144 -0.827227 0
M  V30 3884 C 366.021 -1.28005 -1.95287 0
M  V30 3885 C 367.002 -0.158321 -1.69362 0
M  V30 3886 O 368.187 -0.349987 -1.9102 0
M  V30 3887 C 365.317 -1.03036 -3.31664 0
M  V30 3888 C 364.271 -2.11628 -3.72019 0
M  V30 3889 C 363.597 -1.71854 -5.0633 0
M  V30 3890 C 364.897 -3.53417 -3.8457 0
M  V30 3891 H 366.591 -2.22187 -2.00682 0
M  V30 3892 H 364.137 -1.0696 -0.964135 0
M  V30 3893 H 366.09 -0.973863 -4.09993 0
M  V30 3894 H 364.814 -0.0529391 -3.26557 0
M  V30 3895 H 363.473 -2.16339 -2.95961 0
M  V30 3896 H 363.121 -0.727841 -4.97706 0
M  V30 3897 H 362.821 -2.44531 -5.34302 0
M  V30 3898 H 364.345 -1.67692 -5.87122 0
M  V30 3899 H 365.759 -3.51142 -4.5318 0
M  V30 3900 H 364.156 -4.24679 -4.2399 0
M  V30 3901 H 365.226 -3.91072 -2.86689 0
M  V30 3902 N 366.569 1.04691 -1.17803 0
M  V30 3903 C 367.985 1.29963 -0.926379 0
M  V30 3904 C 368.185 1.97251 0.411635 0
M  V30 3905 O 367.241 2.24922 1.14744 0
M  V30 3906 C 368.554 2.16447 -2.08737 0
M  V30 3907 C 370.102 2.29814 -2.12496 0
M  V30 3908 C 370.577 3.19661 -3.27995 0
M  V30 3909 N 372.068 3.27247 -3.27816 0
M  V30 3910 C 372.803 3.96906 -4.13827 0
M  V30 3911 N 372.299 4.6895 -5.09959 0
M  V30 3912 N 374.092 3.93122 -4.01761 0
M  V30 3913 H 366.243 0.594182 -2.0392 0
M  V30 3914 H 368.506 0.324649 -0.890678 0
M  V30 3915 H 368.212 1.74304 -3.05469 0
M  V30 3916 H 368.086 3.17103 -2.04268 0
M  V30 3917 H 370.473 2.71196 -1.16347 0
M  V30 3918 H 370.554 1.2877 -2.21025 0
M  V30 3919 H 370.198 2.78991 -4.24413 0
M  V30 3920 H 370.128 4.20722 -3.16703 0
M  V30 3921 H 372.619 2.75921 -2.58217 0
M  V30 3922 H 372.932 5.19679 -5.71974 0
M  V30 3923 H 371.277 4.67875 -5.13924 0
M  V30 3924 H 374.468 3.35967 -3.2595 0
M  V30 3925 H 374.641 4.47139 -4.6901 0
M  V30 3926 N 368.047 0.979072 1.23499 0
M  V30 3927 C 368.995 0.510604 2.26926 0
M  V30 3928 C 369.989 -0.431691 1.63807 0
M  V30 3929 O 371.195 -0.30573 1.77385 0
M  V30 3930 H 367.57 0.146688 0.737554 0
M  V30 3931 H 369.541 1.39466 2.63803 0
M  V30 3932 C 368.29 -0.172658 3.47271 0
M  V30 3933 H 367.613 0.543331 3.96091 0
M  V30 3934 H 369.053 -0.464101 4.21452 0
M  V30 3935 C 367.512 -1.40345 3.06276 0
M  V30 3936 O 368.042 -2.49978 3.14442 0
M  V30 3937 N 366.248 -1.27362 2.61203 0
M  V30 3938 H 365.795 -0.381584 2.54758 0
M  V30 3939 H 365.753 -2.09822 2.34141 0
M  V30 3940 N 369.525 -1.3858 0.750561 0
M  V30 3941 C 370.771 -2.00481 0.305825 0
M  V30 3942 C 371.104 -1.5944 -1.10872 0
M  V30 3943 O 370.379 -0.83052 -1.75877 0
M  V30 3944 C 370.662 -3.5758 0.425287 0
M  V30 3945 C 370.515 -4.08594 1.88072 0
M  V30 3946 C 371.834 -4.39719 -0.183122 0
M  V30 3947 H 368.953 -0.728348 0.112598 0
M  V30 3948 H 371.595 -1.64566 0.949638 0
M  V30 3949 H 369.745 -3.88306 -0.122828 0
M  V30 3950 H 371.417 -3.88523 2.48691 0
M  V30 3951 H 369.66 -3.61574 2.39681 0
M  V30 3952 H 370.331 -5.177 1.91548 0
M  V30 3953 H 372.807 -4.15128 0.284303 0
M  V30 3954 H 371.683 -5.48856 -0.0692757 0
M  V30 3955 H 371.944 -4.23434 -1.27106 0
M  V30 3956 N 371.003 -0.499398 -1.49478 0
M  V30 3957 C 371.933 0.269244 -2.31943 0
M  V30 3958 C 372.914 0.964054 -1.40143 0
M  V30 3959 O 374.099 0.955767 -1.69052 0
M  V30 3960 C 371.229 1.33504 -3.20615 0
M  V30 3961 C 370.183 0.760202 -4.21195 0
M  V30 3962 C 369.509 1.9264 -4.98792 0
M  V30 3963 C 370.809 -0.247661 -5.21712 0
M  V30 3964 H 372.503 -0.419082 -2.96452 0
M  V30 3965 H 370.049 -0.202988 -1.42562 0
M  V30 3966 H 372.002 1.88048 -3.77115 0
M  V30 3967 H 370.726 2.05253 -2.54045 0
M  V30 3968 H 369.385 0.23653 -3.65836 0
M  V30 3969 H 369.033 2.63154 -4.28671 0
M  V30 3970 H 368.733 1.54785 -5.66847 0
M  V30 3971 H 370.257 2.4762 -5.58137 0
M  V30 3972 H 371.671 0.209579 -5.72917 0
M  V30 3973 H 370.068 -0.541962 -5.97648 0
M  V30 3974 H 371.138 -1.16409 -4.7072 0
M  V30 3975 N 372.481 1.55866 -0.233164 0
M  V30 3976 C 373.758 1.90471 0.444988 0
M  V30 3977 C 374.138 1.15209 1.7689 0
M  V30 3978 O 373.486 0.265119 2.26957 0
M  V30 3979 C 373.696 3.4333 0.626559 0
M  V30 3980 C 375.044 4.14319 0.92871 0
M  V30 3981 O 376.068 3.48993 0.712926 0
M  V30 3982 O 374.927 5.29846 1.33887 0
M  V30 3983 H 372.021 0.792347 0.236885 0
M  V30 3984 H 374.567 1.67437 -0.276211 0
M  V30 3985 H 373.339 3.90095 -0.306822 0
M  V30 3986 H 372.962 3.72181 1.39881 0
M  V30 3987 N 373.959 -0.0401083 1.57549 0
M  V30 3988 C 375.205 -0.728793 1.89895 0
M  V30 3989 C 375.56 -1.73551 0.830535 0
M  V30 3990 O 374.853 -1.90914 -0.162007 0
M  V30 3991 C 375.047 -1.44902 3.26708 0
M  V30 3992 C 374.876 -0.513568 4.46758 0
M  V30 3993 C 373.646 -0.138698 5.0511 0
M  V30 3994 C 375.844 0.203341 5.13898 0
M  V30 3995 N 373.826 0.799159 6.08676 0
M  V30 3996 C 375.197 0.997246 6.11927 0
M  V30 3997 C 377.252 0.271459 4.97159 0
M  V30 3998 C 375.955 1.85299 6.95023 0
M  V30 3999 C 377.981 1.11429 5.80808 0
M  V30 4000 C 377.343 1.89615 6.78399 0
M  V30 4001 H 373.442 -0.241125 0.743897 0
M  V30 4002 H 376.026 0.0108016 1.94697 0
M  V30 4003 H 374.197 -2.15914 3.22856 0
M  V30 4004 H 375.929 -2.08921 3.46603 0
M  V30 4005 H 372.684 -0.498496 4.70969 0
M  V30 4006 H 373.108 1.26227 6.65128 0
M  V30 4007 H 377.75 -0.318709 4.21597 0
M  V30 4008 H 375.468 2.454 7.69938 0
M  V30 4009 H 379.054 1.17038 5.69906 0
M  V30 4010 H 377.934 2.53779 7.42001 0
M  V30 4011 N 375.437 -1.54477 -0.31217 0
M  V30 4012 C 376.686 -1.72438 -1.04633 0
M  V30 4013 C 376.999 -0.511163 -1.88803 0
M  V30 4014 O 378.205 -0.572341 -2.65399 0
M  V30 4015 C 376.661 -3.05043 -1.9099 0
M  V30 4016 C 376.269 -4.33806 -1.11877 0
M  V30 4017 C 378.013 -3.32364 -2.64073 0
M  V30 4018 C 375.92 -5.57467 -1.97445 0
M  V30 4019 H 374.85 -0.642647 -0.394361 0
M  V30 4020 H 377.501 -1.80966 -0.303929 0
M  V30 4021 H 375.883 -2.90451 -2.69173 0
M  V30 4022 H 377.057 -4.59199 -0.383843 0
M  V30 4023 H 375.372 -4.13336 -0.504252 0
M  V30 4024 H 377.969 -4.21951 -3.28423 0
M  V30 4025 H 378.312 -2.50745 -3.32314 0
M  V30 4026 H 378.845 -3.47875 -1.92944 0
M  V30 4027 H 375.584 -6.41722 -1.33692 0
M  V30 4028 H 375.104 -5.36277 -2.6864 0
M  V30 4029 H 376.783 -5.94303 -2.5576 0
M  V30 4030 N 376.915 0.57481 -1.46744 0
M  V30 4031 C 377.862 1.68329 -1.57905 0
M  V30 4032 C 378.832 1.60625 -0.422927 0
M  V30 4033 O 380.017 1.79721 -0.640711 0
M  V30 4034 C 377.157 3.06665 -1.58274 0
M  V30 4035 C 376.27 3.24935 -2.84678 0
M  V30 4036 C 375.405 4.53566 -2.76499 0
M  V30 4037 C 374.444 4.65207 -3.97806 0
M  V30 4038 N 373.581 5.85172 -3.87967 0
M  V30 4039 H 378.421 1.58127 -2.52587 0
M  V30 4040 H 375.958 0.770552 -1.25303 0
M  V30 4041 H 377.916 3.86745 -1.56473 0
M  V30 4042 H 376.546 3.15745 -0.671194 0
M  V30 4043 H 375.598 2.38405 -2.96424 0
M  V30 4044 H 376.91 3.29403 -3.7456 0
M  V30 4045 H 376.064 5.41885 -2.72848 0
M  V30 4046 H 374.803 4.51548 -1.8427 0
M  V30 4047 H 373.808 3.75304 -4.0178 0
M  V30 4048 H 375.033 4.68997 -4.9114 0
M  V30 4049 H 372.979 5.84137 -2.98529 0
M  V30 4050 H 372.896 5.90943 -4.71511 0
M  V30 4051 H 374.164 6.759 -3.88303 0
M  V30 4052 N 378.394 1.34581 0.820102 0
M  V30 4053 C 379.671 1.17675 1.56244 0
M  V30 4054 C 380.051 -0.249541 2.0962 0
M  V30 4055 O 379.399 -1.25125 1.91196 0
M  V30 4056 C 379.609 2.23364 2.6816 0
M  V30 4057 C 380.957 2.58485 3.36854 0
M  V30 4058 O 381.981 2.22175 2.78418 0
M  V30 4059 O 380.84 3.20868 4.42386 0
M  V30 4060 H 377.934 0.456333 0.689702 0
M  V30 4061 H 380.48 1.46222 0.861231 0
M  V30 4062 H 379.252 3.19087 2.26493 0
M  V30 4063 H 378.875 1.96009 3.45928 0
M  V30 4064 N 379.872 -1.04064 1.18357 0
M  V30 4065 C 380.802 -2.14001 0.934113 0
M  V30 4066 C 381.783 -1.69616 -0.128186 0
M  V30 4067 O 382.968 -1.94185 0.0244093 0
M  V30 4068 C 380.098 -3.44253 0.459066 0
M  V30 4069 C 379.052 -4.02261 1.46185 0
M  V30 4070 C 378.378 -5.27992 0.844322 0
M  V30 4071 C 379.678 -4.38432 2.83856 0
M  V30 4072 H 381.372 -2.35127 1.85352 0
M  V30 4073 H 378.918 -1.12998 0.892604 0
M  V30 4074 H 380.871 -4.20522 0.271907 0
M  V30 4075 H 379.595 -3.22813 -0.495912 0
M  V30 4076 H 378.254 -3.28074 1.63595 0
M  V30 4077 H 377.902 -5.02862 -0.117845 0
M  V30 4078 H 377.602 -5.67765 1.51384 0
M  V30 4079 H 379.126 -6.06938 0.667693 0
M  V30 4080 H 380.54 -5.05688 2.70098 0
M  V30 4081 H 378.937 -4.89254 3.47491 0
M  V30 4082 H 380.007 -3.4826 3.37406 0
M  V30 4083 N 381.35 -0.985608 -1.22978 0
M  V30 4084 C 382.598 -0.656087 -1.91154 0
M  V30 4085 C 382.919 0.813561 -1.77218 0
M  V30 4086 O 382.189 1.58244 -1.1548 0
M  V30 4087 H 380.769 -0.239674 -0.707506 0
M  V30 4088 H 383.431 -1.25054 -1.49491 0
M  V30 4089 H 382.527 -0.912253 -2.9847 0
M  V30 4090 N 382.828 1.3818 -0.7579 0
M  V30 4091 C 384.076 1.99624 -0.315361 0
M  V30 4092 C 384.397 1.60464 1.10799 0
M  V30 4093 O 383.667 0.863507 1.75842 0
M  V30 4094 H 382.247 0.73831 -0.113611 0
M  V30 4095 H 384.909 1.68878 -0.972952 0
M  V30 4096 H 384.005 3.09754 -0.381931 0
M  V30 4097 N 384.306 0.507319 1.49211 0
M  V30 4098 C 385.269 -0.256763 2.27757 0
M  V30 4099 C 386.269 -0.888287 1.34038 0
M  V30 4100 O 387.459 -0.751841 1.5714 0
M  V30 4101 C 384.591 -1.36905 3.12202 0
M  V30 4102 H 385.784 0.432557 2.96764 0
M  V30 4103 H 383.337 0.262488 1.5408 0
M  V30 4104 H 384.072 -2.09233 2.47775 0
M  V30 4105 H 383.857 -0.921599 3.81115 0
M  V30 4106 H 385.347 -1.9071 3.7151 0
M  V30 4107 N 385.784 -1.5574 0.241426 0
M  V30 4108 C 386.694 -2.2479 -0.671305 0
M  V30 4109 C 387.71 -1.26217 -1.19772 0
M  V30 4110 O 388.886 -1.59079 -1.23514 0
M  V30 4111 C 385.951 -2.92966 -1.85396 0
M  V30 4112 C 385.012 -4.06935 -1.36756 0
M  V30 4113 C 384.245 -4.71851 -2.49384 0
M  V30 4114 O 384.468 -4.35823 -3.67987 0
M  V30 4115 O 383.402 -5.60467 -2.19454 0
M  V30 4116 H 387.228 -3.0349 -0.112966 0
M  V30 4117 H 384.813 -1.49397 0.0101513 0
M  V30 4118 H 386.695 -3.35927 -2.54423 0
M  V30 4119 H 385.37 -2.17211 -2.40002 0
M  V30 4120 H 384.277 -3.68503 -0.644726 0
M  V30 4121 H 385.61 -4.84492 -0.867647 0
M  V30 4122 N 387.262 0.0317525 -1.57568 0
M  V30 4123 C 388.225 1.01783 -2.0536 0
M  V30 4124 C 389.225 1.29203 -0.957253 0
M  V30 4125 O 390.415 1.24251 -1.22095 0
M  V30 4126 C 387.547 2.35137 -2.46827 0
M  V30 4127 H 388.74 0.605062 -2.93733 0
M  V30 4128 H 386.293 0.278514 -1.53799 0
M  V30 4129 H 387.028 2.81168 -1.61602 0
M  V30 4130 H 386.813 2.16566 -3.26866 0
M  V30 4131 H 388.303 3.05938 -2.84239 0
M  V30 4132 N 388.74 1.54641 0.303973 0
M  V30 4133 C 389.989 1.7299 1.03717 0
M  V30 4134 C 390.302 0.521168 1.88529 0
M  V30 4135 O 391.508 0.586408 2.65092 0
M  V30 4136 C 389.964 3.06051 1.89369 0
M  V30 4137 C 389.572 4.34393 1.09574 0
M  V30 4138 C 391.316 3.3376 2.62306 0
M  V30 4139 C 389.223 5.58506 1.94486 0
M  V30 4140 H 388.153 0.64473 0.390947 0
M  V30 4141 H 390.804 1.81124 0.294328 0
M  V30 4142 H 389.186 2.91874 2.67629 0
M  V30 4143 H 390.36 4.59396 0.359485 0
M  V30 4144 H 388.675 4.13597 0.482324 0
M  V30 4145 H 391.272 4.23687 3.26181 0
M  V30 4146 H 391.615 2.52503 3.3098 0
M  V30 4147 H 392.148 3.48894 1.91097 0
M  V30 4148 H 388.887 6.42422 1.30287 0
M  V30 4149 H 388.407 5.37694 2.65792 0
M  V30 4150 H 390.086 5.95651 2.52605 0
M  V30 4151 N 390.218 -0.567019 1.47046 0
M  V30 4152 C 391.181 -1.65696 1.58359 0
M  V30 4153 C 392.181 -1.54097 0.459441 0
M  V30 4154 O 393.371 -1.58432 0.724225 0
M  V30 4155 C 390.503 -3.05197 1.51879 0
M  V30 4156 H 391.696 -1.57019 2.5551 0
M  V30 4157 H 389.249 -0.786148 1.3509 0
M  V30 4158 H 389.984 -3.19417 0.560673 0
M  V30 4159 H 389.769 -3.15025 2.33455 0
M  V30 4160 H 391.259 -3.84511 1.62913 0
M  V30 4161 N 391.696 -1.35014 -0.812953 0
M  V30 4162 C 392.643 -1.27412 -1.92444 0
M  V30 4163 C 393.613 -0.14733 -1.65445 0
M  V30 4164 O 394.798 -0.329974 -1.87925 0
M  V30 4165 C 391.938 -1.04558 -3.28879 0
M  V30 4166 C 391.051 -2.26101 -3.68106 0
M  V30 4167 C 390.186 -1.96449 -4.9354 0
M  V30 4168 C 389.225 -3.14081 -5.25376 0
M  V30 4169 N 388.362 -2.84246 -6.41988 0
M  V30 4170 H 393.202 -2.22463 -1.98278 0
M  V30 4171 H 390.739 -1.10593 -0.969933 0
M  V30 4172 H 392.697 -0.893413 -4.07522 0
M  V30 4173 H 391.327 -0.131719 -3.22531 0
M  V30 4174 H 390.379 -2.52204 -2.84775 0
M  V30 4175 H 391.691 -3.13959 -3.87597 0
M  V30 4176 H 390.845 -1.78026 -5.79993 0
M  V30 4177 H 389.584 -1.05867 -4.76071 0
M  V30 4178 H 388.589 -3.33089 -4.37415 0
M  V30 4179 H 389.814 -4.05455 -5.44778 0
M  V30 4180 H 387.76 -1.96252 -6.25956 0
M  V30 4181 H 387.677 -3.65637 -6.61699 0
M  V30 4182 H 388.945 -2.6935 -7.31485 0
M  V30 4183 N 393.175 1.03435 -1.18907 0
M  V30 4184 C 394.107 2.1165 -0.879595 0
M  V30 4185 C 395.12 1.62316 0.125439 0
M  V30 4186 O 396.309 1.78201 -0.103245 0
M  V30 4187 C 393.409 3.37622 -0.294042 0
M  V30 4188 C 392.582 4.16166 -1.34629 0
M  V30 4189 C 391.641 5.20457 -0.775274 0
M  V30 4190 O 390.667 5.50379 -1.4516 0
M  V30 4191 N 391.869 5.78949 0.424126 0
M  V30 4192 H 394.634 2.38791 -1.81105 0
M  V30 4193 H 392.195 1.19681 -1.09032 0
M  V30 4194 H 394.187 4.04572 0.101679 0
M  V30 4195 H 392.757 3.07873 0.541575 0
M  V30 4196 H 391.977 3.44444 -1.91707 0
M  V30 4197 H 393.265 4.65432 -2.05549 0
M  V30 4198 H 392.663 5.56948 0.991209 0
M  V30 4199 H 391.22 6.47334 0.761691 0
M  V30 4200 N 394.653 0.992116 1.22453 0
M  V30 4201 C 395.601 0.534644 2.26372 0
M  V30 4202 C 396.595 -0.414293 1.64256 0
M  V30 4203 O 397.801 -0.286899 1.77699 0
M  V30 4204 H 394.176 0.154502 0.735957 0
M  V30 4205 H 396.147 1.42256 2.62309 0
M  V30 4206 C 394.896 -0.135815 3.47435 0
M  V30 4207 H 394.219 0.585311 3.95492 0
M  V30 4208 H 395.659 -0.419374 4.21921 0
M  V30 4209 C 394.118 -1.37089 3.07747 0
M  V30 4210 O 394.648 -2.46629 3.17076 0
M  V30 4211 N 392.854 -1.24585 2.62539 0
M  V30 4212 H 392.401 -0.354542 2.55149 0
M  V30 4213 H 392.359 -2.07327 2.36353 0
M  V30 4214 N 396.131 -1.37776 0.765217 0
M  V30 4215 C 397.041 -2.34135 0.147666 0
M  V30 4216 C 398.057 -1.59854 -0.687215 0
M  V30 4217 O 399.233 -1.91983 -0.608659 0
M  V30 4218 C 396.298 -3.3901 -0.72617 0
M  V30 4219 C 395.359 -4.2912 0.124417 0
M  V30 4220 C 394.592 -5.28986 -0.707807 0
M  V30 4221 O 394.815 -5.36205 -1.94525 0
M  V30 4222 O 393.749 -6.01779 -0.12046 0
M  V30 4223 H 397.575 -2.88664 0.943758 0
M  V30 4224 H 395.16 -1.39824 0.526277 0
M  V30 4225 H 397.042 -4.03195 -1.22524 0
M  V30 4226 H 395.717 -2.86819 -1.50056 0
M  V30 4227 H 394.624 -3.68057 0.669696 0
M  V30 4228 H 395.957 -4.84598 0.861736 0
M  V30 4229 N 397.609 -0.515225 -1.4894 0
M  V30 4230 C 398.519 0.259774 -2.33157 0
M  V30 4231 C 399.535 0.953501 -1.45548 0
M  V30 4232 O 400.711 0.931735 -1.78552 0
M  V30 4233 C 397.776 1.30193 -3.21326 0
M  V30 4234 C 396.837 0.620129 -4.24797 0
M  V30 4235 C 396.07 1.61263 -5.08753 0
M  V30 4236 O 396.293 2.84389 -4.94448 0
M  V30 4237 O 395.227 1.16013 -5.90614 0
M  V30 4238 H 399.053 -0.429932 -3.00641 0
M  V30 4239 H 396.638 -0.276346 -1.46822 0
M  V30 4240 H 398.52 1.90455 -3.75905 0
M  V30 4241 H 397.195 1.97431 -2.56521 0
M  V30 4242 H 396.102 -0.0226019 -3.74093 0
M  V30 4243 H 397.435 -0.0100493 -4.92199 0
M  V30 4244 N 399.087 1.5561 -0.249682 0
M  V30 4245 C 400.034 2.21496 0.648694 0
M  V30 4246 C 401.004 1.17977 1.16921 0
M  V30 4247 O 402.189 1.46434 1.22318 0
M  V30 4248 C 399.329 2.92039 1.83868 0
M  V30 4249 C 398.442 4.10219 1.35442 0
M  V30 4250 C 397.577 4.6847 2.50419 0
M  V30 4251 C 396.616 5.78893 1.98869 0
M  V30 4252 N 395.753 6.31315 3.07223 0
M  V30 4253 H 400.593 2.97892 0.0801582 0
M  V30 4254 H 398.13 1.47074 0.0278031 0
M  V30 4255 H 400.088 3.31138 2.53778 0
M  V30 4256 H 398.718 2.18111 2.37965 0
M  V30 4257 H 397.77 3.76413 0.54928 0
M  V30 4258 H 399.082 4.89927 0.936649 0
M  V30 4259 H 398.236 5.10158 3.28366 0
M  V30 4260 H 396.975 3.87984 2.95499 0
M  V30 4261 H 395.98 5.3668 1.19393 0
M  V30 4262 H 397.205 6.61232 1.54755 0
M  V30 4263 H 395.151 5.53733 3.51732 0
M  V30 4264 H 395.068 7.06224 2.69784 0
M  V30 4265 H 396.336 6.77662 3.8522 0
M  V30 4266 N 400.565 -0.0233959 1.57583 0
M  V30 4267 C 401.528 -1.00693 2.05897 0
M  V30 4268 C 402.528 -1.28693 0.964092 0
M  V30 4269 O 403.718 -1.23602 1.22753 0
M  V30 4270 C 400.85 -2.33825 2.4807 0
M  V30 4271 H 402.043 -0.589476 2.9405 0
M  V30 4272 H 399.596 -0.270354 1.53944 0
M  V30 4273 H 400.331 -2.80307 1.6309 0
M  V30 4274 H 400.116 -2.1483 3.2801 0
M  V30 4275 H 401.606 -3.04426 2.85857 0
M  V30 4276 N 402.043 -1.548 -0.295768 0
M  V30 4277 C 402.99 -1.86113 -1.36494 0
M  V30 4278 C 403.96 -0.7105 -1.50137 0
M  V30 4279 O 405.145 -0.959626 -1.64912 0
M  V30 4280 C 402.285 -2.11861 -2.72413 0
M  V30 4281 C 401.398 -3.39471 -2.67177 0
M  V30 4282 C 400.533 -3.55035 -3.95125 0
M  V30 4283 C 399.572 -4.76418 -3.84308 0
M  V30 4284 N 398.709 -4.8876 -5.04042 0
M  V30 4285 H 403.549 -2.77314 -1.09091 0
M  V30 4286 H 401.086 -1.37315 -0.52753 0
M  V30 4287 H 403.044 -2.24786 -3.51464 0
M  V30 4288 H 401.674 -1.2392 -2.98066 0
M  V30 4289 H 400.726 -3.35139 -1.79962 0
M  V30 4290 H 402.038 -4.28646 -2.55076 0
M  V30 4291 H 401.192 -3.67653 -4.82614 0
M  V30 4292 H 399.931 -2.64002 -4.10066 0
M  V30 4293 H 398.936 -4.63827 -2.95202 0
M  V30 4294 H 400.161 -5.68863 -3.70906 0
M  V30 4295 H 398.107 -4.00652 -5.19436 0
M  V30 4296 H 398.024 -5.71945 -4.94384 0
M  V30 4297 H 399.292 -5.0574 -5.93167 0
M  V30 4298 N 403.521 0.559213 -1.47345 0
M  V30 4299 C 404.77 1.31281 -1.53128 0
M  V30 4300 C 405.083 1.94602 -0.197344 0
M  V30 4301 O 406.289 2.71173 -0.133154 0
M  V30 4302 C 404.745 2.38051 -2.69925 0
M  V30 4303 C 404.353 1.8093 -4.0984 0
M  V30 4304 C 406.097 3.14604 -2.84999 0
M  V30 4305 C 404.004 2.85468 -5.1794 0
M  V30 4306 H 402.934 0.493614 -0.569966 0
M  V30 4307 H 405.585 0.594155 -1.73615 0
M  V30 4308 H 403.967 3.12822 -2.42814 0
M  V30 4309 H 405.141 1.12544 -4.46845 0
M  V30 4310 H 403.456 1.16967 -3.99634 0
M  V30 4311 H 406.053 3.92666 -3.62929 0
M  V30 4312 H 406.396 3.68665 -1.93369 0
M  V30 4313 H 406.929 2.46945 -3.1187 0
M  V30 4314 H 403.668 2.36264 -6.1144 0
M  V30 4315 H 403.188 3.52269 -4.85455 0
M  V30 4316 H 404.867 3.48996 -5.44803 0
M  V30 4317 N 404.999 1.35443 0.805782 0
M  V30 4318 C 406.248 1.28097 1.55801 0
M  V30 4319 C 406.561 -0.142428 1.95081 0
M  V30 4320 O 407.767 -0.33817 2.69386 0
M  V30 4321 C 406.223 2.24653 2.81174 0
M  V30 4322 C 405.831 3.72342 2.49129 0
M  V30 4323 C 407.575 2.2625 3.59181 0
M  V30 4324 C 405.482 4.60719 3.70799 0
M  V30 4325 H 404.412 0.475937 0.584808 0
M  V30 4326 H 407.063 1.60712 0.885661 0
M  V30 4327 H 405.445 1.85011 3.50124 0
M  V30 4328 H 406.619 4.20624 1.88181 0
M  V30 4329 H 404.934 3.73361 1.84366 0
M  V30 4330 H 407.531 2.89495 4.49552 0
M  V30 4331 H 407.874 1.26647 3.96568 0
M  V30 4332 H 408.407 2.64426 2.97193 0
M  V30 4333 H 405.146 5.61324 3.3852 0
M  V30 4334 H 404.666 4.17163 4.3097 0
M  V30 4335 H 406.345 4.76182 4.38018 0
M  V30 4336 N 406.477 -1.02803 1.19454 0
M  V30 4337 C 407.707 -1.79581 1.02149 0
M  V30 4338 C 408.115 -1.84182 -0.432851 0
M  V30 4339 O 407.458 -1.28534 -1.31243 0
M  V30 4340 C 407.52 -3.25993 1.51554 0
M  V30 4341 C 407.184 -3.45025 2.99678 0
M  V30 4342 C 408.181 -3.35175 3.97434 0
M  V30 4343 C 405.866 -3.71212 3.38389 0
M  V30 4344 C 407.86 -3.51238 5.31893 0
M  V30 4345 C 405.547 -3.8692 4.73008 0
M  V30 4346 C 406.545 -3.76936 5.69569 0
M  V30 4347 O 406.233 -3.92179 7.01748 0
M  V30 4348 H 405.965 -0.571962 0.360327 0
M  V30 4349 H 408.519 -1.30367 1.58725 0
M  V30 4350 H 406.749 -3.76235 0.893543 0
M  V30 4351 H 408.438 -3.84368 1.30444 0
M  V30 4352 H 409.204 -3.14895 3.68872 0
M  V30 4353 H 405.083 -3.78075 2.6378 0
M  V30 4354 H 408.627 -3.43362 6.07247 0
M  V30 4355 H 404.524 -4.06699 5.01265 0
M  V30 4356 H 405.292 -4.09265 7.08833 0
M  V30 4357 N 407.956 -0.998596 -1.21925 0
M  V30 4358 C 409.233 -0.593401 -1.86382 0
M  V30 4359 C 409.613 0.92916 -1.89552 0
M  V30 4360 O 408.961 1.81347 -1.39017 0
M  V30 4361 C 409.171 -1.22039 -3.26967 0
M  V30 4362 C 410.519 -1.32449 -4.03413 0
M  V30 4363 O 411.543 -1.17522 -3.36254 0
M  V30 4364 O 410.402 -1.56395 -5.23644 0
M  V30 4365 H 407.496 -0.202385 -0.801854 0
M  V30 4366 H 410.042 -1.09484 -1.29659 0
M  V30 4367 H 408.814 -2.26158 -3.19325 0
M  V30 4368 H 408.437 -0.704906 -3.91301 0
M  V30 4369 N 409.434 1.37368 -0.772513 0
M  V30 4370 C 410.662 2.03942 -0.348588 0
M  V30 4371 C 411.077 1.58264 1.02947 0
M  V30 4372 O 410.434 0.764246 1.65727 0
M  V30 4373 C 410.485 3.5946 -0.38351 0
M  V30 4374 O 410.206 4.03468 -1.70721 0
M  V30 4375 C 411.707 4.4327 0.0519152 0
M  V30 4376 H 408.927 0.654931 -0.145966 0
M  V30 4377 H 411.471 1.75686 -1.04665 0
M  V30 4378 H 409.626 3.86486 0.265978 0
M  V30 4379 H 410.04 4.97991 -1.64636 0
M  V30 4380 H 411.514 5.51995 -0.0236733 0
M  V30 4381 H 411.991 4.2514 1.10238 0
M  V30 4382 H 412.597 4.21471 -0.569415 0
M  V30 4383 N 410.912 0.523116 1.48665 0
M  V30 4384 C 412.161 -0.01544 2.01694 0
M  V30 4385 C 412.474 -1.35975 1.40606 0
M  V30 4386 O 413.68 -1.98627 1.85093 0
M  V30 4387 C 412.136 -0.0779303 3.59816 0
M  V30 4388 C 411.744 1.26107 4.29885 0
M  V30 4389 C 413.488 -0.565678 4.20714 0
M  V30 4390 C 411.395 1.15954 5.79921 0
M  V30 4391 H 410.325 -0.00954163 0.75394 0
M  V30 4392 H 412.976 0.665865 1.70993 0
M  V30 4393 H 411.358 -0.824165 3.87329 0
M  V30 4394 H 412.532 2.02233 4.14051 0
M  V30 4395 H 410.847 1.68401 3.80828 0
M  V30 4396 H 413.444 -0.6595 5.30617 0
M  V30 4397 H 413.787 -1.56984 3.85567 0
M  V30 4398 H 414.32 0.12467 3.97605 0
M  V30 4399 H 411.059 2.13864 6.19631 0
M  V30 4400 H 410.579 0.439529 5.98187 0
M  V30 4401 H 412.258 0.847361 6.41427 0
M  V30 4402 N 412.39 -1.55475 0.257931 0
M  V30 4403 C 413.667 -1.91155 -0.414629 0
M  V30 4404 C 414.047 -1.18008 -1.75035 0
M  V30 4405 O 413.395 -0.301193 -2.26506 0
M  V30 4406 C 413.605 -3.44283 -0.571859 0
M  V30 4407 C 414.953 -4.15744 -0.862678 0
M  V30 4408 O 415.977 -3.50083 -0.657314 0
M  V30 4409 O 414.836 -5.31909 -1.2544 0
M  V30 4410 H 411.93 -0.796016 -0.22425 0
M  V30 4411 H 414.476 -1.66976 0.302814 0
M  V30 4412 H 413.248 -3.89558 0.368844 0
M  V30 4413 H 412.871 -3.7436 -1.33943 0
M  V30 4414 N 413.868 0.0150385 -1.57593 0
M  V30 4415 C 414.778 1.02791 -2.10882 0
M  V30 4416 C 415.794 1.38702 -1.0506 0
M  V30 4417 O 416.97 1.47739 -1.36877 0
M  V30 4418 C 414.035 2.30568 -2.58919 0
M  V30 4419 C 413.096 2.01108 -3.79281 0
M  V30 4420 C 412.329 3.22794 -4.25018 0
M  V30 4421 O 412.552 4.33959 -3.70183 0
M  V30 4422 O 411.486 3.07672 -5.17322 0
M  V30 4423 H 415.312 0.604973 -2.97613 0
M  V30 4424 H 412.897 0.23292 -1.47573 0
M  V30 4425 H 414.779 3.05662 -2.90084 0
M  V30 4426 H 413.454 2.72129 -1.75293 0
M  V30 4427 H 412.361 1.23537 -3.53114 0
M  V30 4428 H 413.694 1.64394 -4.63935 0
M  V30 4429 N 415.346 1.54954 0.287554 0
M  V30 4430 C 416.571 1.79209 1.04397 0
M  V30 4431 C 416.996 0.556431 1.79682 0
M  V30 4432 O 416.354 -0.493518 1.74454 0
M  V30 4433 C 416.402 3.00739 1.98969 0
M  V30 4434 O 415.506 2.74805 3.075 0
M  V30 4435 H 414.847 0.592755 0.299227 0
M  V30 4436 H 417.377 2.02068 0.320886 0
M  V30 4437 H 417.387 3.29077 2.4119 0
M  V30 4438 H 416.062 3.90329 1.43582 0
M  V30 4439 H 414.639 2.57523 2.69697 0
M  V30 4440 N 416.824 -0.551391 1.4764 0
M  V30 4441 C 417.772 -1.67896 1.60978 0
M  V30 4442 C 418.766 -1.62549 0.476877 0
M  V30 4443 O 419.972 -1.67664 0.654878 0
M  V30 4444 H 416.347 -0.555649 0.506713 0
M  V30 4445 H 418.318 -1.53784 2.55721 0
M  V30 4446 C 417.067 -3.06234 1.64669 0
M  V30 4447 H 416.39 -3.11033 2.51194 0
M  V30 4448 H 417.83 -3.84804 1.7805 0
M  V30 4449 C 416.289 -3.34737 0.381115 0
M  V30 4450 O 416.819 -3.98381 -0.515297 0
M  V30 4451 N 415.025 -2.8944 0.259354 0
M  V30 4452 H 414.572 -2.37827 0.98976 0
M  V30 4453 H 414.53 -3.08882 -0.586464 0
M  V30 4454 N 418.302 -1.35869 -0.798587 0
M  V30 4455 C 419.55 -1.29332 -1.55298 0
M  V30 4456 C 419.871 0.129729 -1.94568 0
M  V30 4457 O 419.141 1.06796 -1.6423 0
M  V30 4458 H 417.721 -0.475737 -0.57592 0
M  V30 4459 H 420.383 -1.70062 -0.952093 0
M  V30 4460 H 419.479 -1.91458 -2.46476 0
M  V30 4461 N 419.78 1.02168 -1.19998 0
M  V30 4462 C 421.027 1.75685 -1.00702 0
M  V30 4463 C 421.355 1.88947 0.461426 0
M  V30 4464 O 420.61 1.40832 1.35885 0
M  V30 4465 C 420.909 3.18081 -1.62969 0
M  V30 4466 C 420.575 3.24809 -3.12746 0
M  V30 4467 C 419.237 3.26352 -3.53621 0
M  V30 4468 C 421.589 3.23379 -4.08749 0
M  V30 4469 C 418.917 3.2413 -4.89036 0
M  V30 4470 C 421.269 3.22698 -5.44104 0
M  V30 4471 C 419.933 3.22542 -5.84399 0
M  V30 4472 H 419.203 0.642877 -0.368496 0
M  V30 4473 H 421.85 1.19865 -1.49348 0
M  V30 4474 H 420.155 3.77027 -1.06573 0
M  V30 4475 H 421.852 3.73648 -1.45561 0
M  V30 4476 H 418.442 3.2434 -2.80181 0
M  V30 4477 H 422.626 3.21361 -3.78207 0
M  V30 4478 H 417.882 3.22338 -5.19527 0
M  V30 4479 H 422.056 3.20543 -6.18244 0
M  V30 4480 H 419.683 3.20575 -6.89301 0
M  V30 4481 N 421.258 1.00505 1.21394 0
M  V30 4482 C 422.488 0.705584 1.94178 0
M  V30 4483 C 422.896 -0.735846 1.74304 0
M  V30 4484 O 422.239 -1.50954 1.04683 0
M  V30 4485 C 422.301 0.94689 3.46806 0
M  V30 4486 C 421.965 2.37517 3.90429 0
M  V30 4487 C 422.962 3.35539 3.97127 0
M  V30 4488 C 420.647 2.71284 4.22742 0
M  V30 4489 C 422.641 4.65395 4.3553 0
M  V30 4490 C 420.328 4.01356 4.60822 0
M  V30 4491 C 421.326 4.98223 4.67186 0
M  V30 4492 O 421.014 6.25969 5.04399 0
M  V30 4493 H 420.746 0.259216 0.624326 0
M  V30 4494 H 423.3 1.34592 1.55159 0
M  V30 4495 H 421.53 0.249386 3.85895 0
M  V30 4496 H 423.219 0.640804 4.0081 0
M  V30 4497 H 423.985 3.10786 3.7234 0
M  V30 4498 H 419.864 1.96581 4.16985 0
M  V30 4499 H 423.408 5.41002 4.40412 0
M  V30 4500 H 419.305 4.25893 4.85063 0
M  V30 4501 H 420.073 6.30085 5.22431 0
M  V30 4502 N 422.737 -1.36956 0.779787 0
M  V30 4503 C 423.983 -1.99787 0.348281 0
M  V30 4504 C 424.316 -1.61756 -1.07465 0
M  V30 4505 O 423.591 -0.867639 -1.74075 0
M  V30 4506 C 423.874 -3.56597 0.50104 0
M  V30 4507 C 423.727 -4.04513 1.96697 0
M  V30 4508 C 425.046 -4.40008 -0.0898097 0
M  V30 4509 H 422.165 -0.725796 0.128022 0
M  V30 4510 H 424.807 -1.62514 0.984331 0
M  V30 4511 H 422.957 -3.88479 -0.0404347 0
M  V30 4512 H 424.629 -3.83161 2.56876 0
M  V30 4513 H 422.872 -3.56408 2.47297 0
M  V30 4514 H 423.543 -5.1352 2.02486 0
M  V30 4515 H 426.019 -4.14431 0.372293 0
M  V30 4516 H 424.895 -5.4888 0.0471605 0
M  V30 4517 H 425.156 -4.26035 -1.18096 0
M  V30 4518 N 424.215 -0.530993 -1.48385 0
M  V30 4519 C 425.463 0.00273189 -2.021 0
M  V30 4520 C 425.784 1.34672 -1.41027 0
M  V30 4521 O 425.054 1.8724 -0.576012 0
M  V30 4522 H 423.634 0.00399774 -0.746989 0
M  V30 4523 H 426.296 -0.695054 -1.82085 0
M  V30 4524 H 425.392 0.11031 -3.11905 0
M  V30 4525 N 425.693 1.55336 -0.266172 0
M  V30 4526 C 426.643 2.18848 0.639497 0
M  V30 4527 C 427.627 1.1503 1.12503 0
M  V30 4528 O 428.819 1.40875 1.0716 0
M  V30 4529 C 425.948 2.90626 1.82733 0
M  V30 4530 C 425.034 4.01723 1.35939 0
M  V30 4531 N 425.425 5.02145 0.606988 0
M  V30 4532 C 423.723 4.1463 1.6431 0
M  V30 4533 C 424.424 5.80572 0.362138 0
M  V30 4534 N 423.4 5.35551 0.931971 0
M  V30 4535 H 427.202 2.93845 0.0567057 0
M  V30 4536 H 424.716 1.62252 -0.0693312 0
M  V30 4537 H 426.713 3.34569 2.48735 0
M  V30 4538 H 425.373 2.17137 2.41416 0
M  V30 4539 H 426.384 5.17271 0.255198 0
M  V30 4540 H 423.061 3.52326 2.23993 0
M  V30 4541 H 424.451 6.71472 -0.239848 0
M  V30 4542 N 427.171 -0.0066808 1.57599 0
M  V30 4543 C 428.134 -0.985035 2.06953 0
M  V30 4544 C 429.134 -1.27663 0.977687 0
M  V30 4545 O 430.324 -1.22293 1.24057 0
M  V30 4546 C 427.456 -2.3118 2.50536 0
M  V30 4547 H 428.649 -0.558255 2.94658 0
M  V30 4548 H 426.202 -0.254011 1.54222 0
M  V30 4549 H 426.937 -2.78561 1.66054 0
M  V30 4550 H 426.722 -2.11338 3.3027 0
M  V30 4551 H 428.212 -3.01377 2.8907 0
M  V30 4552 N 428.649 -1.55105 -0.279332 0
M  V30 4553 C 429.559 -1.90638 -1.36727 0
M  V30 4554 C 430.575 -0.802899 -1.54368 0
M  V30 4555 O 431.751 -1.10138 -1.68616 0
M  V30 4556 C 428.816 -2.16547 -2.70755 0
M  V30 4557 C 427.877 -3.40146 -2.61915 0
M  V30 4558 C 427.11 -3.6481 -3.8955 0
M  V30 4559 O 427.333 -2.92095 -4.89935 0
M  V30 4560 O 426.267 -4.58343 -3.90135 0
M  V30 4561 H 430.093 -2.83237 -1.09591 0
M  V30 4562 H 427.678 -1.4157 -0.477306 0
M  V30 4563 H 429.56 -2.34665 -3.50014 0
M  V30 4564 H 428.235 -1.27131 -2.9769 0
M  V30 4565 H 427.142 -3.2737 -1.81052 0
M  V30 4566 H 428.475 -4.29761 -2.3993 0
M  V30 4567 N 430.127 0.543554 -1.4793 0
M  V30 4568 C 431.074 1.64942 -1.6144 0
M  V30 4569 C 432.044 1.59692 -0.456903 0
M  V30 4570 O 433.229 1.78321 -0.678688 0
M  V30 4571 C 430.369 3.03238 -1.64744 0
M  V30 4572 C 429.482 3.18823 -2.91506 0
M  V30 4573 C 428.617 4.47599 -2.86057 0
M  V30 4574 C 427.656 4.56664 -4.07584 0
M  V30 4575 N 426.793 5.76811 -4.00292 0
M  V30 4576 H 431.633 1.52733 -2.55884 0
M  V30 4577 H 429.17 0.7438 -1.2691 0
M  V30 4578 H 431.128 3.83339 -1.64641 0
M  V30 4579 H 429.758 3.1425 -0.738017 0
M  V30 4580 H 428.81 2.32064 -3.01414 0
M  V30 4581 H 430.122 3.21384 -3.81463 0
M  V30 4582 H 429.276 5.35975 -2.84281 0
M  V30 4583 H 428.015 4.47538 -1.93807 0
M  V30 4584 H 427.02 3.66697 -4.09651 0
M  V30 4585 H 428.245 4.58474 -5.00978 0
M  V30 4586 H 426.191 5.77673 -3.10853 0
M  V30 4587 H 426.108 5.80808 -4.8394 0
M  V30 4588 H 427.376 6.67512 -4.02553 0
M  V30 4589 N 431.605 1.3629 0.791371 0
M  V30 4590 C 432.853 1.30154 1.5461 0
M  V30 4591 C 433.174 -0.119409 1.94634 0
M  V30 4592 O 432.444 -1.05924 1.64794 0
M  V30 4593 H 431.024 0.478784 0.573389 0
M  V30 4594 H 433.686 1.70565 0.94306 0
M  V30 4595 H 432.782 1.92762 2.45457 0
M  V30 4596 N 433.083 -1.0153 1.20538 0
M  V30 4597 C 434.308 -1.79283 1.04271 0
M  V30 4598 C 434.733 -1.8372 -0.403544 0
M  V30 4599 O 434.091 -1.27321 -1.2907 0
M  V30 4600 C 434.139 -3.21535 1.63241 0
M  V30 4601 O 433.243 -4.03099 0.870908 0
M  V30 4602 H 432.584 -0.55293 0.367647 0
M  V30 4603 H 435.114 -1.27696 1.59859 0
M  V30 4604 H 435.124 -3.72243 1.6703 0
M  V30 4605 H 433.799 -3.1762 2.68497 0
M  V30 4606 H 432.376 -3.61693 0.907323 0
M  V30 4607 N 434.561 -1.01147 -1.20859 0
M  V30 4608 C 435.977 -0.725422 -1.42161 0
M  V30 4609 C 436.177 0.696919 -1.89064 0
M  V30 4610 O 435.233 1.46539 -2.05627 0
M  V30 4611 C 436.546 -1.74678 -2.44761 0
M  V30 4612 C 438.094 -1.76433 -2.58535 0
M  V30 4613 C 438.569 -2.77481 -3.64374 0
M  V30 4614 N 440.06 -2.76189 -3.71852 0
M  V30 4615 C 440.795 -3.51035 -4.53389 0
M  V30 4616 N 440.291 -4.35541 -5.38773 0
M  V30 4617 N 442.084 -3.39655 -4.47873 0
M  V30 4618 H 434.235 -1.92979 -0.887282 0
M  V30 4619 H 436.498 -0.833327 -0.451962 0
M  V30 4620 H 436.204 -2.76551 -2.17285 0
M  V30 4621 H 436.078 -1.55472 -3.43669 0
M  V30 4622 H 438.465 -0.75248 -2.85345 0
M  V30 4623 H 438.546 -1.99712 -1.5984 0
M  V30 4624 H 438.19 -3.78827 -3.38308 0
M  V30 4625 H 438.12 -2.51466 -4.6268 0
M  V30 4626 H 440.611 -2.14885 -3.10858 0
M  V30 4627 H 440.924 -4.89432 -5.98061 0
M  V30 4628 H 439.269 -4.39621 -5.38292 0
M  V30 4629 H 442.46 -2.73063 -3.80203 0
M  V30 4630 H 442.633 -3.9824 -5.11184 0
M  V30 4631 N 436.039 1.36541 -0.78704 0
M  V30 4632 C 437.264 2.0409 -0.369053 0
M  V30 4633 C 437.689 1.58957 1.00569 0
M  V30 4634 O 437.047 0.756926 1.64743 0
M  V30 4635 C 437.095 3.57924 -0.438466 0
M  V30 4636 O 436.199 4.08642 0.555479 0
M  V30 4637 H 435.54 0.645142 -0.157122 0
M  V30 4638 H 438.07 1.74545 -1.06749 0
M  V30 4639 H 438.08 4.06887 -0.301218 0
M  V30 4640 H 436.755 3.90127 -1.44132 0
M  V30 4641 H 435.332 3.70958 0.380088 0
M  V30 4642 N 437.518 0.538854 1.48102 0
M  V30 4643 C 438.448 -0.207654 2.32575 0
M  V30 4644 C 439.429 -0.926559 1.4265 0
M  V30 4645 O 440.614 -0.91061 1.71527 0
M  V30 4646 C 437.744 -1.24957 3.24042 0
M  V30 4647 C 436.698 -0.648263 4.23062 0
M  V30 4648 C 436.024 -1.79348 5.03725 0
M  V30 4649 C 437.324 0.385897 5.20872 0
M  V30 4650 H 439.018 0.497534 2.95237 0
M  V30 4651 H 436.564 0.240715 1.41974 0
M  V30 4652 H 438.517 -1.77983 3.81969 0
M  V30 4653 H 437.241 -1.98446 2.59397 0
M  V30 4654 H 435.9 -0.139452 3.66335 0
M  V30 4655 H 435.548 -2.51696 4.35498 0
M  V30 4656 H 435.248 -1.39702 5.70751 0
M  V30 4657 H 436.772 -2.32735 5.64506 0
M  V30 4658 H 438.186 -0.057607 5.73271 0
M  V30 4659 H 436.583 0.700227 5.96001 0
M  V30 4660 H 437.653 1.28848 4.67468 0
M  V30 4661 N 438.996 -1.55193 0.274407 0
M  V30 4662 C 439.929 -2.18606 -0.654712 0
M  V30 4663 C 440.907 -1.14677 -1.15273 0
M  V30 4664 O 442.091 -1.43198 -1.22583 0
M  V30 4665 C 439.218 -2.80875 -1.89281 0
M  V30 4666 C 438.264 -3.981 -1.53032 0
M  V30 4667 S 439.097 -5.32025 -0.609107 0
M  V30 4668 C 440.253 -5.97761 -1.85559 0
M  V30 4669 H 440.486 -2.97074 -0.115894 0
M  V30 4670 H 438.019 -1.54288 0.05867 0
M  V30 4671 H 439.977 -3.17381 -2.60345 0
M  V30 4672 H 438.638 -2.02302 -2.40277 0
M  V30 4673 H 437.831 -4.40356 -2.45158 0
M  V30 4674 H 437.433 -3.63013 -0.899874 0
M  V30 4675 H 439.725 -6.16951 -2.7996 0
M  V30 4676 H 440.668 -6.92545 -1.47605 0
M  V30 4677 H 441.076 -5.27113 -2.02021 0
M  V30 4678 N 440.474 -0.00167713 -1.576 0
M  V30 4679 C 441.422 1.0074 -2.09652 0
M  V30 4680 C 442.416 1.35483 -1.01689 0
M  V30 4681 O 443.622 1.34028 -1.20152 0
M  V30 4682 H 439.997 0.342537 -0.669457 0
M  V30 4683 H 441.968 0.542841 -2.93421 0
M  V30 4684 C 440.717 2.2899 -2.61647 0
M  V30 4685 H 440.04 2.03124 -3.44355 0
M  V30 4686 H 441.48 2.9787 -3.01744 0
M  V30 4687 C 439.939 3.00085 -1.53136 0
M  V30 4688 O 440.469 3.91135 -0.91524 0
M  V30 4689 N 438.675 2.6194 -1.25841 0
M  V30 4690 H 438.222 1.8798 -1.76129 0
M  V30 4691 H 438.18 3.09822 -0.534576 0
M  V30 4692 N 441.952 1.55251 0.271103 0
M  V30 4693 C 443.198 1.76207 1.00394 0
M  V30 4694 C 443.531 0.562604 1.85872 0
M  V30 4695 O 442.806 -0.439785 1.89463 0
M  V30 4696 C 443.089 3.06828 1.8849 0
M  V30 4697 C 442.942 4.37134 1.05992 0
M  V30 4698 C 444.261 3.33503 2.87165 0
M  V30 4699 H 441.38 0.641086 0.363562 0
M  V30 4700 H 444.022 1.87982 0.276189 0
M  V30 4701 H 442.172 2.96921 2.5054 0
M  V30 4702 H 443.844 4.59001 0.459978 0
M  V30 4703 H 442.087 4.32275 0.363443 0
M  V30 4704 H 442.758 5.2486 1.70955 0
M  V30 4705 H 445.234 3.43215 2.3525 0
M  V30 4706 H 444.11 4.2616 3.45946 0
M  V30 4707 H 444.371 2.53235 3.62387 0
M  V30 4708 N 443.43 -0.535701 1.48216 0
M  V30 4709 C 444.658 -1.31671 1.59594 0
M  V30 4710 C 445.073 -1.87083 0.254056 0
M  V30 4711 O 444.43 -1.66112 -0.755854 0
M  V30 4712 C 444.481 -2.47158 2.63809 0
M  V30 4713 O 444.202 -1.94032 3.92789 0
M  V30 4714 C 445.703 -3.39062 2.85573 0
M  V30 4715 H 442.923 -0.400623 0.538277 0
M  V30 4716 H 445.467 -0.646827 1.94001 0
M  V30 4717 H 443.622 -3.10043 2.32276 0
M  V30 4718 H 444.036 -2.69585 4.49916 0
M  V30 4719 H 445.51 -4.16459 3.62306 0
M  V30 4720 H 445.987 -3.93941 1.94184 0
M  V30 4721 H 446.593 -2.81975 3.18387 0
M  V30 4722 N 444.908 -1.36708 -0.784132 0
M  V30 4723 C 446.155 -1.31231 -1.54222 0
M  V30 4724 C 446.483 0.106864 -1.94206 0
M  V30 4725 O 445.738 1.07734 -1.63376 0
M  V30 4726 C 446.037 -2.18571 -2.82774 0
M  V30 4727 C 445.703 -3.67039 -2.61903 0
M  V30 4728 C 444.365 -4.07503 -2.55919 0
M  V30 4729 C 446.717 -4.61149 -2.4288 0
M  V30 4730 C 444.045 -5.40211 -2.28886 0
M  V30 4731 C 446.397 -5.94081 -2.17373 0
M  V30 4732 C 445.061 -6.33664 -2.09825 0
M  V30 4733 H 444.331 -0.48021 -0.56434 0
M  V30 4734 H 446.978 -1.68807 -0.904233 0
M  V30 4735 H 445.283 -1.73949 -3.51068 0
M  V30 4736 H 446.98 -2.11655 -3.40592 0
M  V30 4737 H 443.57 -3.34941 -2.67418 0
M  V30 4738 H 447.754 -4.30756 -2.46501 0
M  V30 4739 H 443.01 -5.69855 -2.21529 0
M  V30 4740 H 447.184 -6.66566 -2.01649 0
M  V30 4741 H 444.811 -7.36423 -1.88641 0
M  V30 4742 N 446.386 1.0089 -1.21074 0
M  V30 4743 C 447.334 2.11707 -0.963476 0
M  V30 4744 C 448.328 1.69172 0.0879032 0
M  V30 4745 O 449.534 1.79889 -0.0631415 0
M  V30 4746 H 445.909 0.692026 -0.294287 0
M  V30 4747 H 447.88 2.29743 -1.90422 0
M  V30 4748 C 446.629 3.43473 -0.540509 0
M  V30 4749 H 445.952 3.76634 -1.34114 0
M  V30 4750 H 447.392 4.22044 -0.406777 0
M  V30 4751 C 445.851 3.2849 0.748079 0
M  V30 4752 O 446.381 3.58883 1.8046 0
M  V30 4753 N 444.587 2.81715 0.713081 0
M  V30 4754 H 444.134 2.5718 -0.146973 0
M  V30 4755 H 444.092 2.72071 1.57558 0
M  V30 4756 N 447.864 1.01787 1.20321 0
M  V30 4757 C 448.794 0.609625 2.25401 0
M  V30 4758 C 449.775 -0.375951 1.65893 0
M  V30 4759 O 450.96 -0.261101 1.92437 0
M  V30 4760 C 448.09 -0.0515995 3.47262 0
M  V30 4761 C 447.044 0.855095 4.19371 0
M  V30 4762 C 446.37 0.0595757 5.34667 0
M  V30 4763 C 447.67 2.16374 4.75373 0
M  V30 4764 H 449.364 1.48803 2.59804 0
M  V30 4765 H 446.91 0.716934 1.24884 0
M  V30 4766 H 448.863 -0.348764 4.19954 0
M  V30 4767 H 447.587 -0.964726 3.12027 0
M  V30 4768 H 446.246 1.13628 3.48546 0
M  V30 4769 H 445.894 -0.85524 4.95676 0
M  V30 4770 H 445.594 0.663406 5.83843 0
M  V30 4771 H 447.118 -0.231105 6.10162 0
M  V30 4772 H 448.532 1.92885 5.39878 0
M  V30 4773 H 446.929 2.71853 5.34991 0
M  V30 4774 H 447.999 2.82589 3.94045 0
M  V30 4775 N 449.342 -1.36122 0.79427 0
M  V30 4776 C 450.758 -1.5232 0.476525 0
M  V30 4777 C 450.958 -1.74685 -1.00436 0
M  V30 4778 O 450.014 -1.78115 -1.78973 0
M  V30 4779 C 451.327 -2.70607 1.31119 0
M  V30 4780 C 452.875 -2.8448 1.30537 0
M  V30 4781 C 453.35 -4.05778 2.12387 0
M  V30 4782 N 454.841 -4.12933 2.09859 0
M  V30 4783 C 455.576 -5.05876 2.69957 0
M  V30 4784 N 455.072 -6.04232 3.38934 0
M  V30 4785 N 456.865 -4.98528 2.59665 0
M  V30 4786 H 449.016 -1.1986 1.75349 0
M  V30 4787 H 451.279 -0.585418 0.745647 0
M  V30 4788 H 450.985 -2.60619 2.36158 0
M  V30 4789 H 450.859 -3.64888 0.955843 0
M  V30 4790 H 453.246 -2.93927 0.262876 0
M  V30 4791 H 453.327 -1.91093 1.70051 0
M  V30 4792 H 452.971 -3.97092 3.1667 0
M  V30 4793 H 452.901 -4.98323 1.70242 0
M  V30 4794 H 455.392 -3.42515 1.59662 0
M  V30 4795 H 455.705 -6.71724 3.82109 0
M  V30 4796 H 454.05 -6.04443 3.43036 0
M  V30 4797 H 457.241 -4.20641 2.05375 0
M  V30 4798 H 457.414 -5.70773 3.06793 0
M  V30 4799 N 450.82 -0.546701 -1.47814 0
M  V30 4800 C 451.768 0.220048 -2.31557 0
M  V30 4801 C 452.762 0.919472 -1.42275 0
M  V30 4802 O 453.968 0.841953 -1.59095 0
M  V30 4803 H 450.343 0.0898334 -0.746615 0
M  V30 4804 H 452.314 -0.505589 -2.94086 0
M  V30 4805 C 451.063 1.24353 -3.24702 0
M  V30 4806 H 450.386 0.714758 -3.93359 0
M  V30 4807 H 451.826 1.75112 -3.8615 0
M  V30 4808 C 450.285 2.28593 -2.47481 0
M  V30 4809 O 450.815 3.35334 -2.21165 0
M  V30 4810 N 449.021 2.02244 -2.08676 0
M  V30 4811 H 448.568 1.15455 -2.30278 0
M  V30 4812 H 448.526 2.72207 -1.57323 0
M  V30 4813 N 452.299 1.55045 -0.282633 0
M  V30 4814 C 453.209 2.26491 0.61147 0
M  V30 4815 C 454.225 1.29348 1.16384 0
M  V30 4816 O 455.401 1.62298 1.19253 0
M  V30 4817 C 452.466 2.97779 1.77563 0
M  V30 4818 C 451.527 4.10418 1.25919 0
M  V30 4819 C 450.76 4.78297 2.36786 0
M  V30 4820 O 450.983 4.45426 3.56303 0
M  V30 4821 O 449.917 5.66089 2.04517 0
M  V30 4822 H 453.743 3.03683 0.0324615 0
M  V30 4823 H 451.328 1.49317 -0.0497576 0
M  V30 4824 H 453.21 3.42554 2.45427 0
M  V30 4825 H 451.885 2.23498 2.34159 0
M  V30 4826 H 450.792 3.70082 0.546797 0
M  V30 4827 H 452.125 4.86622 0.738887 0
M  V30 4828 N 453.777 0.010035 1.57597 0
M  V30 4829 C 454.687 -0.994226 2.12491 0
M  V30 4830 C 455.703 -1.37013 1.07254 0
M  V30 4831 O 456.879 -1.45542 1.3921 0
M  V30 4832 C 453.944 -2.2642 2.62555 0
M  V30 4833 C 453.005 -1.95049 3.82432 0
M  V30 4834 C 452.238 -3.15991 4.30099 0
M  V30 4835 O 452.461 -4.28015 3.7704 0
M  V30 4836 O 451.395 -2.99403 5.22151 0
M  V30 4837 H 455.221 -0.557549 2.98538 0
M  V30 4838 H 452.806 -0.209413 1.47925 0
M  V30 4839 H 454.688 -3.01009 2.9491 0
M  V30 4840 H 453.363 -2.69306 1.796 0
M  V30 4841 H 452.27 -1.17904 3.55034 0
M  V30 4842 H 453.603 -1.56992 4.66491 0
M  V30 4843 N 455.255 -1.55392 -0.262866 0
M  V30 4844 C 456.185 -1.91978 -1.32917 0
M  V30 4845 C 457.166 -0.7828 -1.51017 0
M  V30 4846 O 458.351 -1.04178 -1.63892 0
M  V30 4847 C 455.481 -2.20055 -2.68687 0
M  V30 4848 C 454.435 -3.35854 -2.65304 0
M  V30 4849 C 453.761 -3.49435 -4.04721 0
M  V30 4850 C 455.061 -4.71977 -2.23685 0
M  V30 4851 H 456.755 -2.81292 -1.02544 0
M  V30 4852 H 454.301 -1.3534 -0.491846 0
M  V30 4853 H 456.254 -2.44237 -3.43404 0
M  V30 4854 H 454.978 -1.27551 -3.00663 0
M  V30 4855 H 453.637 -3.11655 -1.93045 0
M  V30 4856 H 453.285 -2.54379 -4.33936 0
M  V30 4857 H 452.985 -4.27297 -4.0335 0
M  V30 4858 H 454.509 -3.7592 -4.81161 0
M  V30 4859 H 455.923 -4.95637 -2.88127 0
M  V30 4860 H 454.32 -5.52828 -2.33456 0
M  V30 4861 H 455.39 -4.70115 -1.18827 0
M  V30 4862 N 456.733 0.527833 -1.48498 0
M  V30 4863 C 457.681 1.65313 -1.63628 0
M  V30 4864 C 458.675 1.6177 -0.502676 0
M  V30 4865 O 459.881 1.66601 -0.681469 0
M  V30 4866 H 456.256 0.547518 -0.515488 0
M  V30 4867 H 458.227 1.49696 -2.58135 0
M  V30 4868 C 456.976 3.03576 -1.6952 0
M  V30 4869 H 456.299 3.06997 -2.56111 0
M  V30 4870 H 457.739 3.81923 -1.84149 0
M  V30 4871 C 456.198 3.34089 -0.43432 0
M  V30 4872 O 456.728 3.99151 0.451852 0
M  V30 4873 N 454.934 2.88991 -0.305368 0
M  V30 4874 H 454.481 2.36222 -1.02747 0
M  V30 4875 H 454.439 3.09776 0.537249 0
M  V30 4876 N 458.211 1.37122 0.776871 0
M  V30 4877 C 459.143 1.28342 1.89897 0
M  V30 4878 C 460.156 0.200277 1.61563 0
M  V30 4879 O 461.345 0.456012 1.72577 0
M  V30 4880 C 458.445 0.960427 3.25006 0
M  V30 4881 C 457.618 2.148 3.81025 0
M  V30 4882 C 456.677 1.79608 4.94598 0
M  V30 4883 O 455.703 2.51845 5.10454 0
M  V30 4884 N 456.905 0.737171 5.758 0
M  V30 4885 H 459.67 2.25027 1.97947 0
M  V30 4886 H 457.231 1.3068 0.955739 0
M  V30 4887 H 459.223 0.705942 3.98495 0
M  V30 4888 H 457.793 0.0823066 3.12492 0
M  V30 4889 H 457.013 2.56454 2.99374 0
M  V30 4890 H 458.301 2.9411 4.15183 0
M  V30 4891 H 457.699 0.137637 5.65533 0
M  V30 4892 H 456.256 0.542534 6.49538 0
M  V30 4893 N 459.689 -1.00246 1.21608 0
M  V30 4894 C 460.621 -2.09244 0.935401 0
M  V30 4895 C 461.634 -1.62592 -0.0823594 0
M  V30 4896 O 462.823 -1.77865 0.150456 0
M  V30 4897 C 459.923 -3.36724 0.383453 0
M  V30 4898 C 459.096 -4.1245 1.45615 0
M  V30 4899 C 458.155 -5.18219 0.912991 0
M  V30 4900 O 457.181 -5.46337 1.59701 0
M  V30 4901 N 458.383 -5.7987 -0.270478 0
M  V30 4902 H 461.148 -2.33905 1.87373 0
M  V30 4903 H 458.709 -1.16748 1.12167 0
M  V30 4904 H 460.701 -4.047 0.00562157 0
M  V30 4905 H 459.271 -3.09201 -0.459758 0
M  V30 4906 H 458.491 -3.39241 2.00772 0
M  V30 4907 H 459.779 -4.59819 2.17817 0
M  V30 4908 H 459.177 -5.59381 -0.843195 0
M  V30 4909 H 457.734 -6.49126 -0.589794 0
M  V30 4910 N 461.167 -1.02423 -1.1978 0
M  V30 4911 C 462.414 -0.717988 -1.89344 0
M  V30 4912 C 462.742 0.753036 -1.79331 0
M  V30 4913 O 461.997 1.56355 -1.17692 0
M  V30 4914 C 462.296 -1.1088 -3.39765 0
M  V30 4915 C 461.962 -2.57731 -3.6998 0
M  V30 4916 C 460.624 -2.97854 -3.77937 0
M  V30 4917 C 462.976 -3.52763 -3.83677 0
M  V30 4918 C 460.304 -4.31931 -3.97054 0
M  V30 4919 C 462.656 -4.86538 -4.04306 0
M  V30 4920 C 461.32 -5.26356 -4.10494 0
M  V30 4921 H 460.59 -0.26273 -0.692859 0
M  V30 4922 H 463.237 -1.28623 -1.41875 0
M  V30 4923 H 461.542 -0.459094 -3.89101 0
M  V30 4924 H 463.239 -0.849432 -3.919 0
M  V30 4925 H 459.829 -2.25646 -3.64393 0
M  V30 4926 H 464.013 -3.2292 -3.76877 0
M  V30 4927 H 459.269 -4.62324 -4.00083 0
M  V30 4928 H 463.443 -5.60093 -4.13846 0
M  V30 4929 H 461.07 -6.3026 -4.2506 0
M  V30 4930 N 462.645 1.35699 -0.801477 0
M  V30 4931 C 463.575 2.32436 -0.222658 0
M  V30 4932 C 464.556 1.5723 0.649057 0
M  V30 4933 O 465.741 1.85324 0.580387 0
M  V30 4934 C 462.871 3.41469 0.633719 0
M  V30 4935 C 461.825 4.27774 -0.139083 0
M  V30 4936 C 461.151 5.28082 0.838666 0
M  V30 4937 C 462.451 5.04946 -1.33517 0
M  V30 4938 H 464.145 2.81094 -1.03086 0
M  V30 4939 H 461.691 1.35146 -0.497155 0
M  V30 4940 H 463.644 4.08143 1.04868 0
M  V30 4941 H 462.368 2.91408 1.47475 0
M  V30 4942 H 461.027 3.62673 -0.535156 0
M  V30 4943 H 460.675 4.7429 1.67506 0
M  V30 4944 H 460.375 5.86695 0.32594 0
M  V30 4945 H 461.899 5.97628 1.25194 0
M  V30 4946 H 463.313 5.64593 -0.995349 0
M  V30 4947 H 461.71 5.7303 -1.78202 0
M  V30 4948 H 462.78 4.35886 -2.12442 0
M  V30 4949 N 464.123 0.554532 1.47522 0
M  V30 4950 C 465.086 -0.184174 2.28459 0
M  V30 4951 C 466.086 -0.845195 1.36796 0
M  V30 4952 O 467.276 -0.701467 1.59452 0
M  V30 4953 C 464.408 -1.26903 3.16399 0
M  V30 4954 H 465.601 0.526751 2.95238 0
M  V30 4955 H 463.154 0.311375 1.53167 0
M  V30 4956 H 463.889 -2.01244 2.54306 0
M  V30 4957 H 463.674 -0.799883 3.83854 0
M  V30 4958 H 465.164 -1.78794 3.77389 0
M  V30 4959 N 465.601 -1.54893 0.290851 0
M  V30 4960 C 466.548 -2.23138 -0.58974 0
M  V30 4961 C 467.518 -1.21036 -1.13752 0
M  V30 4962 O 468.703 -1.49626 -1.18392 0
M  V30 4963 C 465.843 -2.96811 -1.76061 0
M  V30 4964 C 464.956 -4.13665 -1.24519 0
M  V30 4965 C 464.091 -4.74944 -2.3791 0
M  V30 4966 C 463.13 -5.83963 -1.83451 0
M  V30 4967 N 462.267 -6.39239 -2.90376 0
M  V30 4968 H 467.107 -2.98 -0.00114915 0
M  V30 4969 H 464.644 -1.47096 0.0112006 0
M  V30 4970 H 466.602 -3.37751 -2.44909 0
M  V30 4971 H 465.232 -2.24344 -2.32098 0
M  V30 4972 H 464.284 -3.77737 -0.449288 0
M  V30 4973 H 465.596 -4.92238 -0.806424 0
M  V30 4974 H 464.75 -5.18684 -3.14724 0
M  V30 4975 H 463.489 -3.95682 -2.85109 0
M  V30 4976 H 462.494 -5.39657 -1.05122 0
M  V30 4977 H 463.719 -6.65103 -1.37169 0
M  V30 4978 H 461.665 -5.62864 -3.36927 0
M  V30 4979 H 461.582 -7.13129 -2.50965 0
M  V30 4980 H 462.85 -6.87637 -3.67118 0
M  V30 4981 N 467.08 -0.0183926 -1.57589 0
M  V30 4982 C 468.043 0.951986 -2.08494 0
M  V30 4983 C 469.043 1.26092 -0.997874 0
M  V30 4984 O 470.233 1.20304 -1.25987 0
M  V30 4985 C 467.365 2.27165 -2.54182 0
M  V30 4986 H 468.558 0.511307 -2.95509 0
M  V30 4987 H 466.111 0.229444 -1.54607 0
M  V30 4988 H 466.846 2.75884 -1.70465 0
M  V30 4989 H 466.631 2.06057 -3.33591 0
M  V30 4990 H 468.121 2.9674 -2.93828 0
M  V30 4991 N 468.558 1.5553 0.254621 0
M  V30 4992 C 469.505 1.89666 1.31512 0
M  V30 4993 C 470.475 0.750057 1.482 0
M  V30 4994 O 471.66 1.00301 1.62309 0
M  V30 4995 C 468.8 2.19009 2.667 0
M  V30 4996 C 467.913 3.46435 2.58083 0
M  V30 4997 C 467.048 3.65386 3.85573 0
M  V30 4998 C 466.087 4.8644 3.71541 0
M  V30 4999 N 465.224 5.01952 4.90906 0
M  V30 5000 H 470.064 2.80109 1.017 0
M  V30 5001 H 467.601 1.38666 0.490938 0
M  V30 5002 H 469.559 2.34025 3.45381 0
M  V30 5003 H 468.189 1.31779 2.94676 0
M  V30 5004 H 467.241 3.39792 1.71013 0
M  V30 5005 H 468.553 4.35258 2.43622 0
M  V30 5006 H 467.707 3.80319 4.72697 0
M  V30 5007 H 466.446 2.74781 4.02922 0
M  V30 5008 H 465.451 4.71491 2.82801 0
M  V30 5009 H 466.676 5.78497 3.55694 0
M  V30 5010 H 464.622 4.14283 5.08631 0
M  V30 5011 H 464.539 5.84851 4.79046 0
M  V30 5012 H 465.807 5.21289 5.7955 0
M  V30 5013 N 470.036 -0.519951 1.48776 0
M  V30 5014 C 470.946 -1.65025 1.66745 0
M  V30 5015 C 471.962 -1.6508 0.549954 0
M  V30 5016 O 473.138 -1.83848 0.822295 0
M  V30 5017 C 470.203 -3.0146 1.71238 0
M  V30 5018 C 469.264 -3.12182 2.94688 0
M  V30 5019 C 468.497 -4.42109 2.98958 0
M  V30 5020 O 468.72 -5.29799 2.1135 0
M  V30 5021 O 467.654 -4.57406 3.91233 0
M  V30 5022 H 471.48 -1.52801 2.62461 0
M  V30 5023 H 469.065 -0.694157 1.32294 0
M  V30 5024 H 470.947 -3.82584 1.76657 0
M  V30 5025 H 469.622 -3.13988 0.786975 0
M  V30 5026 H 468.529 -2.30316 2.94797 0
M  V30 5027 H 469.862 -3.04574 3.86646 0
M  V30 5028 N 471.514 -1.37532 -0.769588 0
M  V30 5029 C 472.446 -1.29347 -1.89214 0
M  V30 5030 C 473.459 -0.208842 -1.61455 0
M  V30 5031 O 474.648 -0.465158 -1.72333 0
M  V30 5032 C 471.748 -0.977649 -3.24492 0
M  V30 5033 C 470.921 -2.16817 -3.7988 0
M  V30 5034 C 469.98 -1.82229 -4.93639 0
M  V30 5035 O 469.006 -2.54548 -5.09111 0
M  V30 5036 N 470.208 -0.767696 -5.75401 0
M  V30 5037 H 472.973 -2.26073 -1.96751 0
M  V30 5038 H 470.534 -1.31185 -0.948795 0
M  V30 5039 H 472.526 -0.727065 -3.98115 0
M  V30 5040 H 471.096 -0.0988777 -3.12444 0
M  V30 5041 H 470.316 -2.58038 -2.9801 0
M  V30 5042 H 471.604 -2.96308 -4.13617 0
M  V30 5043 H 471.002 -0.167626 -5.65452 0
M  V30 5044 H 469.559 -0.576973 -6.49241 0
M  V30 5045 N 472.992 0.995999 -1.22138 0
M  V30 5046 C 474.24 1.73167 -1.042 0
M  V30 5047 C 474.561 1.90329 0.42423 0
M  V30 5048 O 473.831 1.4607 1.30539 0
M  V30 5049 H 472.411 0.641593 -0.38258 0
M  V30 5050 H 475.073 1.19974 -1.53598 0
M  V30 5051 H 474.169 2.72734 -1.51731 0
M  V30 5052 N 474.47 1.03057 1.19235 0
M  V30 5053 C 475.717 0.728019 1.88961 0
M  V30 5054 C 476.045 -0.743515 1.79728 0
M  V30 5055 O 475.3 -1.55729 1.1852 0
M  V30 5056 C 475.599 1.1268 3.39172 0
M  V30 5057 C 475.265 2.5969 3.68608 0
M  V30 5058 C 473.927 2.99854 3.76352 0
M  V30 5059 C 476.279 3.54793 3.81801 0
M  V30 5060 C 473.607 4.34031 3.94758 0
M  V30 5061 C 475.959 4.88675 4.0172 0
M  V30 5062 C 474.623 5.28526 4.07697 0
M  V30 5063 H 473.893 0.266401 0.691456 0
M  V30 5064 H 476.54 1.29373 1.41191 0
M  V30 5065 H 474.845 0.479722 3.88852 0
M  V30 5066 H 476.542 0.870203 3.91444 0
M  V30 5067 H 473.132 2.27575 3.63191 0
M  V30 5068 H 477.316 3.24914 3.7516 0
M  V30 5069 H 472.572 4.6444 3.97625 0
M  V30 5070 H 476.746 5.6228 4.1087 0
M  V30 5071 H 474.373 6.32506 4.21712 0
M  V30 5072 N 475.948 -1.35272 0.808662 0
M  V30 5073 C 477.194 -1.99003 0.390581 0
M  V30 5074 C 477.527 -1.63999 -1.0401 0
M  V30 5075 O 476.802 -0.904368 -1.72196 0
M  V30 5076 C 477.085 -3.55454 0.576566 0
M  V30 5077 C 476.938 -4.00249 2.05233 0
M  V30 5078 C 478.257 -4.401 0.00354277 0
M  V30 5079 H 475.376 -0.722917 0.143388 0
M  V30 5080 H 478.018 -1.6039 1.01858 0
M  V30 5081 H 476.168 -3.88477 0.0419766 0
M  V30 5082 H 477.84 -3.77626 2.64946 0
M  V30 5083 H 476.083 -3.51082 2.54801 0
M  V30 5084 H 476.754 -5.0911 2.13333 0
M  V30 5085 H 479.23 -4.13548 0.460117 0
M  V30 5086 H 478.106 -5.48656 0.163575 0
M  V30 5087 H 478.367 -4.28444 -1.09032 0
M  V30 5088 N 477.426 -0.562348 -1.47226 0
M  V30 5089 C 478.674 -0.0401371 -2.0206 0
M  V30 5090 C 478.995 1.3165 -1.43852 0
M  V30 5091 O 478.265 1.85976 -0.615599 0
M  V30 5092 H 476.845 -0.0118479 -0.746906 0
M  V30 5093 H 479.507 -0.73352 -1.8057 0
M  V30 5094 H 478.603 0.0441254 -3.12069 0
M  V30 5095 N 478.904 1.54736 -0.299062 0
M  V30 5096 C 479.834 2.26409 0.571085 0
M  V30 5097 C 480.815 1.2629 1.13951 0
M  V30 5098 O 482 1.55059 1.16921 0
M  V30 5099 C 479.13 3.00338 1.74396 0
M  V30 5100 C 478.084 4.07588 1.30599 0
M  V30 5101 C 477.41 4.69222 2.56387 0
M  V30 5102 C 478.71 5.20455 0.438645 0
M  V30 5103 H 480.404 2.99388 -0.0266991 0
M  V30 5104 H 477.95 1.43993 -0.0142812 0
M  V30 5105 H 479.903 3.49198 2.35878 0
M  V30 5106 H 478.627 2.24934 2.36796 0
M  V30 5107 H 477.286 3.59575 0.71424 0
M  V30 5108 H 476.934 3.9046 3.17097 0
M  V30 5109 H 476.634 5.41653 2.27784 0
M  V30 5110 H 478.158 5.20844 3.18675 0
M  V30 5111 H 479.572 5.65221 0.959085 0
M  V30 5112 H 477.969 5.99594 0.246466 0
M  V30 5113 H 479.039 4.8192 -0.536738 0
M  V30 5114 N 480.382 0.0267497 1.57577 0
M  V30 5115 C 481.33 -0.973923 2.11229 0
M  V30 5116 C 482.324 -1.33849 1.03831 0
M  V30 5117 O 483.53 -1.321 1.22269 0
M  V30 5118 H 479.905 -0.331844 0.674821 0
M  V30 5119 H 481.876 -0.496092 2.94247 0
M  V30 5120 C 480.625 -2.24798 2.65257 0
M  V30 5121 H 479.948 -1.9762 3.47543 0
M  V30 5122 H 481.388 -2.93031 3.06445 0
M  V30 5123 C 479.847 -2.97611 1.57891 0
M  V30 5124 O 480.377 -3.89629 0.97735 0
M  V30 5125 N 478.583 -2.59905 1.29992 0
M  V30 5126 H 478.13 -1.85154 1.79097 0
M  V30 5127 H 478.088 -3.08932 0.583798 0
M  V30 5128 N 481.861 -1.55662 -0.24637 0
M  V30 5129 C 483.109 -1.77168 -0.972411 0
M  V30 5130 C 483.43 -0.590827 -1.85834 0
M  V30 5131 O 482.7 0.393365 -1.9191 0
M  V30 5132 H 481.28 -0.653405 -0.362038 0
M  V30 5133 H 483.942 -1.93101 -0.264189 0
M  V30 5134 H 483.038 -2.68335 -1.59382 0
M  V30 5135 N 483.339 0.512053 -1.4905 0
M  V30 5136 C 484.289 1.61142 -1.61298 0
M  V30 5137 C 485.273 1.53908 -0.46916 0
M  V30 5138 O 486.465 1.61625 -0.721547 0
M  V30 5139 C 483.594 2.998 -1.67256 0
M  V30 5140 C 482.68 3.12072 -2.87179 0
M  V30 5141 N 483.071 2.94263 -4.11391 0
M  V30 5142 C 481.369 3.43156 -2.84886 0
M  V30 5143 C 482.07 3.10426 -4.91946 0
M  V30 5144 N 481.046 3.38808 -4.251 0
M  V30 5145 H 484.848 1.46011 -2.55065 0
M  V30 5146 H 482.362 0.717934 -1.45669 0
M  V30 5147 H 484.359 3.78794 -1.74128 0
M  V30 5148 H 483.019 3.1601 -0.746195 0
M  V30 5149 H 484.03 2.70661 -4.41546 0
M  V30 5150 H 480.707 3.65611 -2.01581 0
M  V30 5151 H 482.097 3.01243 -6.00585 0
M  V30 5152 N 484.817 1.37938 0.762283 0
M  V30 5153 C 486.233 1.18945 1.06415 0
M  V30 5154 C 486.433 0.0321163 2.01474 0
M  V30 5155 O 485.489 -0.624844 2.44647 0
M  V30 5156 C 486.802 2.51218 1.65258 0
M  V30 5157 C 488.35 2.57824 1.7747 0
M  V30 5158 C 488.825 3.90251 2.39725 0
M  V30 5159 N 490.316 3.91744 2.47166 0
M  V30 5160 C 491.051 4.90966 2.96209 0
M  V30 5161 N 490.547 6.00585 3.45354 0
M  V30 5162 N 492.34 4.78363 2.9517 0
M  V30 5163 H 484.491 2.11994 0.131301 0
M  V30 5164 H 486.754 0.940262 0.120879 0
M  V30 5165 H 486.46 3.36317 1.02878 0
M  V30 5166 H 486.334 2.68989 2.64433 0
M  V30 5167 H 488.721 1.73126 2.3898 0
M  V30 5168 H 488.802 2.43928 0.770241 0
M  V30 5169 H 488.446 4.75368 1.78852 0
M  V30 5170 H 488.376 4.01454 3.40796 0
M  V30 5171 H 490.867 3.12563 2.12397 0
M  V30 5172 H 491.18 6.72236 3.81207 0
M  V30 5173 H 489.525 6.04217 3.43434 0
M  V30 5174 H 492.716 3.91841 2.56082 0
M  V30 5175 H 492.889 5.55843 3.33081 0
M  V30 5176 N 486.295 -0.989507 1.22664 0
M  V30 5177 C 487.52 -1.77031 1.08051 0
M  V30 5178 C 487.945 -1.84535 -0.364483 0
M  V30 5179 O 487.303 -1.3003 -1.2634 0
M  V30 5180 C 487.351 -3.18 1.70024 0
M  V30 5181 O 486.455 -4.01161 0.956216 0
M  V30 5182 H 485.796 -0.545008 0.379292 0
M  V30 5183 H 488.326 -1.24277 1.62531 0
M  V30 5184 H 488.336 -3.68616 1.74888 0
M  V30 5185 H 487.011 -3.11853 2.75174 0
M  V30 5186 H 485.588 -3.59687 0.98384 0
M  V30 5187 N 487.773 -1.03688 -1.18687 0
M  V30 5188 C 489.019 -0.739123 -1.88851 0
M  V30 5189 C 489.352 0.731042 -1.79915 0
M  V30 5190 O 488.627 1.53313 -1.19688 0
M  V30 5191 C 488.91 -1.20106 -3.3948 0
M  V30 5192 C 488.763 -2.73304 -3.57246 0
M  V30 5193 C 490.082 -0.788134 -4.32986 0
M  V30 5194 H 487.201 -0.269978 -0.68577 0
M  V30 5195 H 489.843 -1.28822 -1.3966 0
M  V30 5196 H 487.993 -0.733915 -3.81505 0
M  V30 5197 H 489.665 -3.28027 -3.24339 0
M  V30 5198 H 487.908 -3.13313 -3.00029 0
M  V30 5199 H 488.579 -3.00684 -4.62918 0
M  V30 5200 H 491.055 -1.19005 -3.98719 0
M  V30 5201 H 489.931 -1.13915 -5.36949 0
M  V30 5202 H 490.192 0.308988 -4.41019 0
M  V30 5203 N 489.251 1.34841 -0.815825 0
M  V30 5204 C 490.499 1.98107 -0.399744 0
M  V30 5205 C 490.82 1.65019 1.03894 0
M  V30 5206 O 490.09 0.937311 1.72021 0
M  V30 5207 H 488.67 0.732827 -0.144823 0
M  V30 5208 H 491.332 1.64599 -1.0437 0
M  V30 5209 H 490.428 3.07856 -0.512965 0
M  V30 5210 N 490.729 0.570148 1.46925 0
M  V30 5211 C 491.977 0.0508523 2.02036 0
M  V30 5212 C 492.298 -1.30885 1.44548 0
M  V30 5213 O 491.568 -1.85647 0.625453 0
M  V30 5214 H 490.148 0.0158088 0.746833 0
M  V30 5215 H 492.81 0.743086 1.80178 0
M  V30 5216 H 491.906 -0.027575 3.12088 0
M  V30 5217 N 492.207 -1.54576 0.307264 0
M  V30 5218 C 493.447 -2.02172 -0.300962 0
M  V30 5219 C 493.811 -1.19081 -1.50611 0
M  V30 5220 O 495.012 -1.56405 -2.18612 0
M  V30 5221 C 493.283 -3.51576 -0.642591 0
M  V30 5222 S 494.842 -4.21127 -1.23279 0
M  V30 5223 H 491.66 -0.705021 -0.0920141 0
M  V30 5224 H 494.262 -1.90563 0.436594 0
M  V30 5225 H 492.966 -4.09681 0.242901 0
M  V30 5226 H 492.497 -3.67234 -1.41077 0
M  V30 5227 H 494.512 -4.27426 -2.52034 0
M  V30 5228 N 493.685 -0.035106 -1.57561 0
M  V30 5229 C 495.101 0.321334 -1.56332 0
M  V30 5230 C 495.301 1.72509 -1.04129 0
M  V30 5231 O 494.357 2.4287 -0.690694 0
M  V30 5232 C 495.67 0.164469 -3.0025 0
M  V30 5233 C 497.218 0.236786 -3.12103 0
M  V30 5234 C 497.693 0.10864 -4.57871 0
M  V30 5235 N 499.184 0.165433 -4.62904 0
M  V30 5236 C 499.919 0.0901506 -5.73329 0
M  V30 5237 N 499.415 -0.0365606 -6.9279 0
M  V30 5238 N 501.208 0.144572 -5.61914 0
M  V30 5239 H 493.359 -0.952976 -1.89821 0
M  V30 5240 H 495.622 -0.368537 -0.873432 0
M  V30 5241 H 495.328 -0.802746 -3.42416 0
M  V30 5242 H 495.202 0.932194 -3.655 0
M  V30 5243 H 497.589 1.19446 -2.69845 0
M  V30 5244 H 497.67 -0.561419 -2.49563 0
M  V30 5245 H 497.314 -0.845644 -5.00811 0
M  V30 5246 H 497.244 0.925786 -5.18398 0
M  V30 5247 H 499.735 0.263269 -3.76982 0
M  V30 5248 H 500.048 -0.0871487 -7.72751 0
M  V30 5249 H 498.393 -0.0714256 -6.94963 0
M  V30 5250 H 501.584 0.242006 -4.67474 0
M  V30 5251 H 501.757 0.0824413 -6.47948 0
M  V30 5252 N 495.163 1.55791 0.238111 0
M  V30 5253 C 496.126 1.90239 1.27835 0
M  V30 5254 C 497.126 0.779552 1.4064 0
M  V30 5255 O 498.316 1.04747 1.3919 0
M  V30 5256 C 495.448 2.13859 2.65475 0
M  V30 5257 H 496.641 2.83262 0.985034 0
M  V30 5258 H 494.194 1.48818 0.477799 0
M  V30 5259 H 494.929 1.23334 2.99932 0
M  V30 5260 H 494.714 2.95643 2.57561 0
M  V30 5261 H 496.204 2.41664 3.40571 0
M  V30 5262 N 496.642 -0.504142 1.49319 0
M  V30 5263 C 497.867 -1.28729 1.62615 0
M  V30 5264 C 498.292 -1.85752 0.296309 0
M  V30 5265 O 497.65 -1.65704 -0.735649 0
M  V30 5266 C 497.698 -2.39561 2.69524 0
M  V30 5267 O 496.802 -3.43324 2.28478 0
M  V30 5268 H 496.143 -0.380172 0.544395 0
M  V30 5269 H 498.673 -0.603872 1.95485 0
M  V30 5270 H 498.683 -2.8537 2.91595 0
M  V30 5271 H 497.358 -1.97423 3.66056 0
M  V30 5272 H 495.935 -3.03455 2.16725 0
M  V30 5273 N 498.12 -1.38341 -0.754957 0
M  V30 5274 C 499.369 -1.33791 -1.5094 0
M  V30 5275 C 499.682 0.0699267 -1.95475 0
M  V30 5276 O 500.888 0.237956 -2.70455 0
M  V30 5277 C 499.344 -2.34934 -2.72643 0
M  V30 5278 C 498.952 -3.81332 -2.35138 0
M  V30 5279 C 500.696 -2.39425 -3.50536 0
M  V30 5280 C 498.603 -4.74164 -3.53444 0
M  V30 5281 H 497.533 -0.497314 -0.566741 0
M  V30 5282 H 500.184 -1.63888 -0.825403 0
M  V30 5283 H 498.566 -1.97878 -3.43017 0
M  V30 5284 H 499.74 -4.27319 -1.7244 0
M  V30 5285 H 498.055 -3.79946 -1.70382 0
M  V30 5286 H 500.652 -3.0598 -4.38498 0
M  V30 5287 H 500.995 -1.41278 -3.91594 0
M  V30 5288 H 501.528 -2.75274 -2.87174 0
M  V30 5289 H 498.267 -5.73501 -3.17453 0
M  V30 5290 H 497.787 -4.3287 -4.15191 0
M  V30 5291 H 499.466 -4.92111 -4.20043 0
M  V30 5292 N 499.598 0.982988 -1.23187 0
M  V30 5293 C 500.828 1.75666 -1.08743 0
M  V30 5294 C 501.236 1.85662 0.364195 0
M  V30 5295 O 500.579 1.33317 1.26382 0
M  V30 5296 C 500.641 3.20144 -1.63549 0
M  V30 5297 C 500.305 3.33665 -3.12277 0
M  V30 5298 C 501.302 3.20194 -4.096 0
M  V30 5299 C 498.987 3.58397 -3.51933 0
M  V30 5300 C 500.981 3.31256 -5.44563 0
M  V30 5301 C 498.668 3.69098 -4.87042 0
M  V30 5302 C 499.666 3.55537 -5.83166 0
M  V30 5303 O 499.354 3.65864 -7.1582 0
M  V30 5304 H 499.086 0.558194 -0.381307 0
M  V30 5305 H 501.64 1.24387 -1.63454 0
M  V30 5306 H 499.87 3.72659 -1.03256 0
M  V30 5307 H 501.559 3.79262 -1.4462 0
M  V30 5308 H 502.325 3.00987 -3.80305 0
M  V30 5309 H 498.204 3.68025 -2.77631 0
M  V30 5310 H 501.748 3.20588 -6.19572 0
M  V30 5311 H 497.645 3.87814 -5.16014 0
M  V30 5312 H 498.413 3.82675 -7.23534 0
M  V30 5313 N 501.076 1.04316 1.18135 0
M  V30 5314 C 502.024 0.630175 2.23901 0
M  V30 5315 C 503.018 -0.344254 1.65865 0
M  V30 5316 O 504.224 -0.211273 1.78756 0
M  V30 5317 H 500.599 0.185578 0.728742 0
M  V30 5318 H 502.57 1.53253 2.56039 0
M  V30 5319 C 501.319 0.011666 3.47698 0
M  V30 5320 H 500.642 0.752526 3.92654 0
M  V30 5321 H 502.082 -0.240046 4.2332 0
M  V30 5322 C 500.541 -1.23913 3.13285 0
M  V30 5323 O 501.071 -2.32959 3.27251 0
M  V30 5324 N 499.277 -1.13338 2.67587 0
M  V30 5325 H 498.824 -0.246006 2.56423 0
M  V30 5326 H 498.782 -1.97116 2.44934 0
M  V30 5327 N 502.554 -1.34406 0.822964 0
M  V30 5328 C 503.517 -2.2783 0.250271 0
M  V30 5329 C 504.517 -1.50288 -0.571854 0
M  V30 5330 O 505.707 -1.69825 -0.387952 0
M  V30 5331 C 502.839 -3.34663 -0.649137 0
M  V30 5332 H 504.032 -2.79992 1.07444 0
M  V30 5333 H 501.585 -1.44539 0.594829 0
M  V30 5334 H 502.32 -2.87714 -1.49637 0
M  V30 5335 H 502.105 -3.92052 -0.0611199 0
M  V30 5336 H 503.595 -4.04349 -1.04363 0
M  V30 5337 N 504.032 -0.577932 -1.46621 0
M  V30 5338 C 505.278 -0.0617793 -2.02706 0
M  V30 5339 C 505.611 1.29294 -1.44903 0
M  V30 5340 O 504.886 1.8461 -0.61232 0
M  V30 5341 C 505.169 0.00911824 -3.60099 0
M  V30 5342 C 505.022 -1.37416 -4.28295 0
M  V30 5343 C 506.341 0.712159 -4.343 0
M  V30 5344 H 503.46 -0.0239246 -0.736612 0
M  V30 5345 H 506.102 -0.744211 -1.74818 0
M  V30 5346 H 504.252 0.590292 -3.83989 0
M  V30 5347 H 505.924 -2.00013 -4.15683 0
M  V30 5348 H 504.167 -1.94319 -3.87843 0
M  V30 5349 H 504.838 -1.27707 -5.37024 0
M  V30 5350 H 507.314 0.218486 -4.15526 0
M  V30 5351 H 506.19 0.730782 -5.44014 0
M  V30 5352 H 506.451 1.77251 -4.05012 0
M  V30 5353 N 505.51 1.54411 -0.315457 0
M  V30 5354 C 506.921 1.85885 0.174265 0
M  V30 5355 C 507.272 1.23723 1.52273 0
M  V30 5356 O 506.397 0.540246 2.09548 0
M  V30 5357 C 506.992 3.37257 0.322981 0
M  V30 5358 C 505.551 3.68711 0.756922 0
M  V30 5359 C 504.698 2.77013 -0.126195 0
M  V30 5360 H 507.649 1.49374 -0.536007 0
M  V30 5361 H 507.67 3.62539 1.15522 0
M  V30 5362 H 507.182 3.82471 -0.658602 0
M  V30 5363 H 505.283 3.29024 1.74854 0
M  V30 5364 H 505.396 4.75741 0.566291 0
M  V30 5365 H 503.76 2.51588 0.39692 0
M  V30 5366 H 504.543 3.25051 -1.1044 0
M  V30 5367 N 506.988 0.0434614 1.5754 0
M  V30 5368 C 508.237 -0.631454 1.91561 0
M  V30 5369 C 508.55 -1.72457 0.92292 0
M  V30 5370 O 509.756 -2.45712 1.15489 0
M  V30 5371 C 508.212 -1.17447 3.40197 0
M  V30 5372 C 507.82 -0.113867 4.47855 0
M  V30 5373 C 509.564 -1.82507 3.83264 0
M  V30 5374 C 507.471 -0.669326 5.876 0
M  V30 5375 H 506.401 -0.239629 0.714908 0
M  V30 5376 H 509.052 0.111097 1.83163 0
M  V30 5377 H 507.434 -1.96909 3.43574 0
M  V30 5378 H 508.608 0.659348 4.56058 0
M  V30 5379 H 506.923 0.438821 4.14081 0
M  V30 5380 H 509.52 -2.25047 4.85034 0
M  V30 5381 H 509.863 -2.67365 3.19095 0
M  V30 5382 H 510.396 -1.09712 3.82372 0
M  V30 5383 H 507.135 0.141449 6.55347 0
M  V30 5384 H 506.655 -1.4107 5.82974 0
M  V30 5385 H 508.334 -1.15463 6.36614 0
M  V30 5386 N 508.466 -1.55915 -0.229846 0
M  V30 5387 C 509.743 -1.6932 -0.979295 0
M  V30 5388 C 510.123 -0.588321 -2.02736 0
M  V30 5389 O 509.471 0.40586 -2.24867 0
M  V30 5390 C 509.681 -3.10305 -1.59724 0
M  V30 5391 C 511.029 -3.6945 -2.09264 0
M  V30 5392 O 512.053 -3.13214 -1.69633 0
M  V30 5393 O 510.912 -4.68072 -2.82082 0
M  V30 5394 H 508.006 -0.689314 -0.456919 0
M  V30 5395 H 510.552 -1.68238 -0.222283 0
M  V30 5396 H 509.324 -3.82177 -0.840039 0
M  V30 5397 H 508.947 -3.1547 -2.42001 0
M  V30 5398 N 509.944 0.496216 -1.49584 0
M  V30 5399 C 510.907 1.57952 -1.66084 0
M  V30 5400 C 511.907 1.51729 -0.53244 0
M  V30 5401 O 513.097 1.54796 -0.79899 0
M  V30 5402 C 510.229 2.97604 -1.66268 0
M  V30 5403 H 511.422 1.44649 -2.6271 0
M  V30 5404 H 508.975 0.7208 -1.38687 0
M  V30 5405 H 509.71 3.16378 -0.712432 0
M  V30 5406 H 509.495 3.03528 -2.4822 0
M  V30 5407 H 510.985 3.76301 -1.81073 0
M  V30 5408 N 511.423 1.38739 0.74761 0
M  V30 5409 C 512.663 1.36695 1.51966 0
M  V30 5410 C 513.027 -0.0411889 1.91956 0
M  V30 5411 O 514.228 -0.186543 2.68152 0
M  V30 5412 C 512.499 2.30119 2.73459 0
M  V30 5413 S 514.058 2.4615 3.63257 0
M  V30 5414 H 510.876 0.484929 0.519966 0
M  V30 5415 H 513.478 1.7472 0.877104 0
M  V30 5416 H 512.182 3.31312 2.422 0
M  V30 5417 H 511.713 1.93265 3.42655 0
M  V30 5418 H 513.728 1.69001 4.66533 0
M  V30 5419 N 512.901 -0.976442 1.23707 0
M  V30 5420 C 514.15 -1.71254 1.06559 0
M  V30 5421 C 514.463 -1.91528 -0.397024 0
M  V30 5422 O 515.669 -2.62625 -0.688518 0
M  V30 5423 C 514.125 -3.08207 1.8584 0
M  V30 5424 C 513.733 -2.95806 3.36456 0
M  V30 5425 C 515.477 -3.85749 1.77194 0
M  V30 5426 C 513.384 -4.28015 4.08114 0
M  V30 5427 H 512.314 -0.642171 0.395136 0
M  V30 5428 H 514.965 -1.08877 1.4771 0
M  V30 5429 H 513.347 -3.71363 1.37498 0
M  V30 5430 H 514.521 -2.41716 3.92314 0
M  V30 5431 H 512.836 -2.31736 3.45959 0
M  V30 5432 H 515.433 -4.83633 2.28041 0
M  V30 5433 H 515.776 -4.09752 0.735477 0
M  V30 5434 H 516.309 -3.29303 2.23169 0
M  V30 5435 H 513.048 -4.09208 5.12083 0
M  V30 5436 H 512.568 -4.81955 3.57043 0
M  V30 5437 H 514.247 -4.96681 4.14629 0
M  V30 5438 N 514.379 -1.04941 -1.1758 0
M  V30 5439 C 515.342 -0.652456 -2.19717 0
M  V30 5440 C 516.342 0.294745 -1.58076 0
M  V30 5441 O 517.532 0.0789579 -1.74021 0
M  V30 5442 C 514.664 0.0420712 -3.40874 0
M  V30 5443 H 515.857 -1.55642 -2.5635 0
M  V30 5444 H 513.41 -0.842995 -1.31618 0
M  V30 5445 H 514.145 0.95943 -3.09783 0
M  V30 5446 H 513.93 -0.638844 -3.86861 0
M  V30 5447 H 515.42 0.306 -4.16477 0
M  V30 5448 N 515.857 1.33968 -0.830081 0
M  V30 5449 C 516.787 2.31911 -0.271911 0
M  V30 5450 C 517.768 1.58571 0.61556 0
M  V30 5451 O 518.953 1.86514 0.540946 0
M  V30 5452 C 516.083 3.42737 0.561146 0
M  V30 5453 C 515.037 4.27383 -0.229789 0
M  V30 5454 C 514.363 5.29742 0.726463 0
M  V30 5455 C 515.663 5.02 -1.44197 0
M  V30 5456 H 517.357 2.78844 -1.09025 0
M  V30 5457 H 514.903 1.34061 -0.52571 0
M  V30 5458 H 516.856 4.10276 0.961867 0
M  V30 5459 H 515.58 2.94471 1.41261 0
M  V30 5460 H 514.239 3.61456 -0.611964 0
M  V30 5461 H 513.887 4.77736 1.57408 0
M  V30 5462 H 513.587 5.87255 0.20142 0
M  V30 5463 H 515.111 6.00149 1.12489 0
M  V30 5464 H 516.525 5.62355 -1.11488 0
M  V30 5465 H 514.922 5.69122 -1.90317 0
M  V30 5466 H 515.992 4.31281 -2.2164 0
M  V30 5467 N 517.335 0.585699 1.46312 0
M  V30 5468 C 518.751 0.247607 1.57668 0
M  V30 5469 C 518.951 -1.25007 1.58037 0
M  V30 5470 O 518.007 -2.03196 1.49893 0
M  V30 5471 C 519.32 0.899456 2.86933 0
M  V30 5472 C 520.868 0.873326 3.00569 0
M  V30 5473 C 521.343 1.50477 4.32574 0
M  V30 5474 N 522.834 1.46925 4.3928 0
M  V30 5475 C 523.569 1.92719 5.40044 0
M  V30 5476 N 523.065 2.46499 6.47464 0
M  V30 5477 N 524.858 1.83617 5.31264 0
M  V30 5478 H 517.009 1.55841 1.44317 0
M  V30 5479 H 519.272 0.651564 0.688599 0
M  V30 5480 H 518.978 1.95313 2.92482 0
M  V30 5481 H 518.852 0.409476 3.74971 0
M  V30 5482 H 521.239 -0.171736 2.946 0
M  V30 5483 H 521.32 1.40136 2.13999 0
M  V30 5484 H 520.964 2.54905 4.39302 0
M  V30 5485 H 520.894 0.951944 5.17924 0
M  V30 5486 H 523.385 1.07616 3.62253 0
M  V30 5487 H 523.698 2.79291 7.20567 0
M  V30 5488 H 522.043 2.50526 6.48276 0
M  V30 5489 H 525.234 1.41358 4.46246 0
M  V30 5490 H 525.407 2.19622 6.09648 0
M  V30 5491 N 518.813 -1.54241 0.323641 0
M  V30 5492 C 519.723 -2.28033 -0.551205 0
M  V30 5493 C 520.739 -1.32388 -1.12913 0
M  V30 5494 O 521.915 -1.65403 -1.14908 0
M  V30 5495 C 518.98 -3.02382 -1.69606 0
M  V30 5496 C 518.041 -4.13612 -1.14993 0
M  V30 5497 C 517.274 -4.84407 -2.24022 0
M  V30 5498 O 517.497 -4.54716 -3.44368 0
M  V30 5499 O 516.431 -5.71312 -1.89436 0
M  V30 5500 H 520.257 -3.03662 0.048066 0
M  V30 5501 H 517.842 -1.49133 0.0893289 0
M  V30 5502 H 519.724 -3.48941 -2.36259 0
M  V30 5503 H 518.399 -2.29628 -2.28151 0
M  V30 5504 H 517.306 -3.71402 -0.448484 0
M  V30 5505 H 518.639 -4.8841 -0.609608 0
M  V30 5506 N 520.291 -0.0518155 -1.57515 0
M  V30 5507 C 521.221 0.920283 -2.146 0
M  V30 5508 C 522.202 1.32406 -1.06783 0
M  V30 5509 O 523.387 1.39866 -1.34726 0
M  V30 5510 C 520.517 2.1949 -2.6915 0
M  V30 5511 C 519.471 1.93116 -3.81956 0
M  V30 5512 C 518.797 3.27037 -4.23026 0
M  V30 5513 C 520.097 1.25225 -5.07066 0
M  V30 5514 H 521.791 0.444801 -2.96077 0
M  V30 5515 H 519.337 0.212508 -1.42423 0
M  V30 5516 H 521.29 2.87894 -3.07725 0
M  V30 5517 H 520.014 2.69244 -1.84865 0
M  V30 5518 H 518.673 1.27123 -3.43854 0
M  V30 5519 H 518.321 3.74595 -3.3569 0
M  V30 5520 H 518.021 3.10189 -4.99056 0
M  V30 5521 H 519.545 3.96673 -4.64202 0
M  V30 5522 H 520.959 1.83666 -5.43083 0
M  V30 5523 H 519.356 1.18702 -5.88243 0
M  V30 5524 H 520.426 0.228382 -4.84362 0
M  V30 5525 N 521.769 1.56035 0.221574 0
M  V30 5526 C 522.702 1.87427 1.30178 0
M  V30 5527 C 523.68 0.731658 1.45209 0
M  V30 5528 O 524.864 0.980016 1.61022 0
M  V30 5529 C 521.991 2.08127 2.67209 0
M  V30 5530 C 521.037 3.30813 2.69194 0
M  V30 5531 S 521.87 4.86738 2.23263 0
M  V30 5532 C 523.026 5.10474 3.62171 0
M  V30 5533 H 523.259 2.78756 1.03355 0
M  V30 5534 H 520.792 1.48469 0.423813 0
M  V30 5535 H 522.75 2.20736 3.46101 0
M  V30 5536 H 521.411 1.17595 2.91256 0
M  V30 5537 H 520.604 3.42341 3.6989 0
M  V30 5538 H 520.206 3.1706 1.98366 0
M  V30 5539 H 522.498 4.9937 4.5786 0
M  V30 5540 H 523.441 6.12359 3.55558 0
M  V30 5541 H 523.849 4.38208 3.55857 0
M  V30 5542 N 523.247 -0.488276 1.49845 0
M  V30 5543 C 524.496 -1.23826 1.59217 0
M  V30 5544 C 524.809 -1.93439 0.289966 0
M  V30 5545 O 526.015 -2.70229 0.262382 0
M  V30 5546 C 524.471 -2.24902 2.80976 0
M  V30 5547 C 524.079 -1.6117 4.18005 0
M  V30 5548 C 525.823 -3.00648 2.99685 0
M  V30 5549 C 523.73 -2.60431 5.3097 0
M  V30 5550 H 522.66 -0.465858 0.592868 0
M  V30 5551 H 525.311 -0.510645 1.76252 0
M  V30 5552 H 523.693 -3.0088 2.57463 0
M  V30 5553 H 524.867 -0.910968 4.51706 0
M  V30 5554 H 523.182 -0.97767 4.0476 0
M  V30 5555 H 525.779 -3.74903 3.81251 0
M  V30 5556 H 526.122 -3.5902 2.10738 0
M  V30 5557 H 526.655 -2.31784 3.23297 0
M  V30 5558 H 523.394 -2.06823 6.22017 0
M  V30 5559 H 522.914 -3.28707 5.01709 0
M  V30 5560 H 524.593 -3.22606 5.60834 0
M  V30 5561 N 524.725 -1.39134 -0.740242 0
M  V30 5562 C 525.657 -1.33332 -1.86428 0
M  V30 5563 C 526.67 -0.243042 -1.60976 0
M  V30 5564 O 527.859 -0.501608 -1.71307 0
M  V30 5565 C 524.959 -1.04626 -3.22346 0
M  V30 5566 C 524.132 -2.24826 -3.75196 0
M  V30 5567 C 523.191 -1.92659 -4.89662 0
M  V30 5568 O 522.217 -2.6529 -5.03597 0
M  V30 5569 N 523.419 -0.889575 -5.73643 0
M  V30 5570 H 526.184 -2.30196 -1.91911 0
M  V30 5571 H 523.745 -1.33168 -0.920756 0
M  V30 5572 H 525.737 -0.811347 -3.96484 0
M  V30 5573 H 524.307 -0.165129 -3.12164 0
M  V30 5574 H 523.527 -2.64301 -2.9247 0
M  V30 5575 H 524.815 -3.05015 -4.07239 0
M  V30 5576 H 524.213 -0.287529 -5.64969 0
M  V30 5577 H 522.77 -0.714557 -6.47871 0
M  V30 5578 N 526.204 0.969867 -1.24223 0
M  V30 5579 C 527.451 1.71256 -1.08063 0
M  V30 5580 C 527.779 1.90734 0.380872 0
M  V30 5581 O 527.034 1.46469 1.29789 0
M  V30 5582 C 527.333 3.10883 -1.76314 0
M  V30 5583 C 526.999 3.11252 -3.26241 0
M  V30 5584 C 525.661 3.1106 -3.67144 0
M  V30 5585 C 528.013 3.05751 -4.22097 0
M  V30 5586 C 525.341 3.03097 -5.02344 0
M  V30 5587 C 527.693 2.9933 -5.57301 0
M  V30 5588 C 526.357 2.97466 -5.97554 0
M  V30 5589 H 525.627 0.62667 -0.395431 0
M  V30 5590 H 528.274 1.13422 -1.54297 0
M  V30 5591 H 526.579 3.72168 -1.22468 0
M  V30 5592 H 528.276 3.67138 -1.61277 0
M  V30 5593 H 524.866 3.12165 -2.93685 0
M  V30 5594 H 529.05 3.05031 -3.91497 0
M  V30 5595 H 524.306 3.00013 -5.32731 0
M  V30 5596 H 528.48 2.94033 -6.31283 0
M  V30 5597 H 526.107 2.91051 -7.02277 0
M  V30 5598 N 527.682 1.05563 1.17022 0
M  V30 5599 C 528.629 0.659893 2.21165 0
M  V30 5600 C 529.599 -0.339813 1.62587 0
M  V30 5601 O 530.784 -0.230378 1.89404 0
M  V30 5602 C 527.924 0.0447297 3.45071 0
M  V30 5603 C 527.037 1.09372 4.17926 0
M  V30 5604 C 526.172 0.445481 5.29329 0
M  V30 5605 C 525.211 1.47852 5.93975 0
M  V30 5606 N 524.348 0.854172 6.96885 0
M  V30 5607 H 529.188 1.55243 2.54369 0
M  V30 5608 H 526.725 0.776336 1.24946 0
M  V30 5609 H 528.683 -0.329404 4.15898 0
M  V30 5610 H 527.313 -0.811244 3.1244 0
M  V30 5611 H 526.365 1.58564 3.45777 0
M  V30 5612 H 527.677 1.87773 4.62107 0
M  V30 5613 H 526.831 0.0179688 6.06697 0
M  V30 5614 H 525.57 -0.370481 4.86291 0
M  V30 5615 H 524.575 1.91601 5.15334 0
M  V30 5616 H 525.8 2.29645 6.39093 0
M  V30 5617 H 523.746 0.0587882 6.55974 0
M  V30 5618 H 523.663 1.57567 7.39397 0
M  V30 5619 H 524.931 0.451559 7.78191 0
M  V30 5620 N 529.16 -1.33526 0.837174 0
M  V30 5621 C 530.07 -2.33023 0.271568 0
M  V30 5622 C 531.086 -1.63272 -0.601514 0
M  V30 5623 O 532.262 -1.94939 -0.506038 0
M  V30 5624 C 529.327 -3.42382 -0.545448 0
M  V30 5625 C 528.388 -4.27857 0.351709 0
M  V30 5626 C 527.621 -5.31994 -0.426409 0
M  V30 5627 O 527.844 -5.45763 -1.65828 0
M  V30 5628 O 526.778 -6.01572 0.1987 0
M  V30 5629 H 530.604 -2.83256 1.09545 0
M  V30 5630 H 528.189 -1.36837 0.599655 0
M  V30 5631 H 530.071 -4.09122 -1.00979 0
M  V30 5632 H 528.746 -2.94369 -1.34641 0
M  V30 5633 H 527.653 -3.6399 0.863853 0
M  V30 5634 H 528.986 -4.79349 1.1174 0
M  V30 5635 N 530.638 -0.59345 -1.46 0
M  V30 5636 C 531.586 0.146268 -2.3214 0
M  V30 5637 C 532.58 0.873743 -1.45128 0
M  V30 5638 O 533.786 0.790912 -1.61693 0
M  V30 5639 H 530.161 0.0660349 -0.749095 0
M  V30 5640 H 532.132 -0.598895 -2.92328 0
M  V30 5641 C 530.881 1.1396 -3.28494 0
M  V30 5642 H 530.204 0.589252 -3.95434 0
M  V30 5643 H 531.644 1.62738 -3.91526 0
M  V30 5644 C 530.103 2.20604 -2.54628 0
M  V30 5645 O 530.633 3.28128 -2.31722 0
M  V30 5646 N 528.839 1.95502 -2.15005 0
M  V30 5647 H 528.386 1.0807 -2.33834 0
M  V30 5648 H 528.344 2.67064 -1.65904 0
M  V30 5649 N 532.116 1.54067 -0.331816 0
M  V30 5650 C 533.079 2.23275 0.517768 0
M  V30 5651 C 534.079 1.22897 1.03697 0
M  V30 5652 O 535.269 1.47419 0.928084 0
M  V30 5653 C 532.401 2.94326 1.72004 0
M  V30 5654 H 533.594 2.99773 -0.0873507 0
M  V30 5655 H 531.147 1.56079 -0.0830042 0
M  V30 5656 H 531.882 2.21986 2.36417 0
M  V30 5657 H 531.667 3.67941 1.35507 0
M  V30 5658 H 533.157 3.47031 2.32291 0
M  V30 5659 O 533.633 0.19963 1.60261 0
M  V30 5660 H 534.324 -0.384961 1.89836 0
M  V30 END ATOM
M  V30 BEGIN BOND
M  V30 END BOND
M  V30 END CTAB
M  END
$$$$
