drugbank_target|P54819 Adenylate kinase 2, mitochondrial (DB01717; DB03366)
 OpenBabel12092120533D

  0  0  0     0  0            999 V3000
M  V30 BEGIN CTAB
M  V30 COUNTS 3760 3794 0 0 0
M  V30 BEGIN ATOM
M  V30 1 H -0.908 1.98254 -0.117106 0
M  V30 2 N 0 1.576 0 0
M  V30 3 C 0.933 2.03868 1.02534 0
M  V30 4 C 1.911 0.928543 1.3348 0
M  V30 5 O 3.095 1.19667 1.45644 0
M  V30 6 C 0.222 2.43627 2.35294 0
M  V30 7 C -0.732 3.65373 2.2001 0
M  V30 8 S 0.101 5.13292 1.52614 0
M  V30 9 C 1.257 5.56322 2.86805 0
M  V30 10 H 1.49 2.90518 0.631377 0
M  V30 11 H -0.977 1.52953 0.210867 0
M  V30 12 H 0.981 2.67203 3.11629 0
M  V30 13 H -0.358 1.57376 2.7183 0
M  V30 14 H -1.165 3.90944 3.18086 0
M  V30 15 H -1.563 3.418 1.51819 0
M  V30 16 H 0.729 5.58782 3.83104 0
M  V30 17 H 1.672 6.56266 2.65933 0
M  V30 18 H 2.08 4.83886 2.90714 0
M  V30 19 N 1.4781 -0.272755 1.55222 0
M  V30 20 C 2.4411 -1.32041 1.87344 0
M  V30 21 C 3.4411 -1.42342 0.74803 0
M  V30 22 O 4.6311 -1.41488 1.0162 0
M  V30 23 C 1.7631 -2.70173 2.07893 0
M  V30 24 H 2.9561 -1.04789 2.80997 0
M  V30 25 H 0.5091 -0.51083 1.47717 0
M  V30 26 H 1.2441 -3.02605 1.16622 0
M  V30 27 H 1.0291 -2.64082 2.89833 0
M  V30 28 H 2.5191 -3.45869 2.34017 0
M  V30 29 N 2.9562 -1.48159 -0.537278 0
M  V30 30 C 4.3672 -1.49429 -1.11928 0
M  V30 31 C 4.7182 -0.26 -1.9447 0
M  V30 32 O 3.8432 0.633489 -2.0692 0
M  V30 33 C 4.4382 -2.70758 -2.03656 0
M  V30 34 C 2.9972 -2.74923 -2.57088 0
M  V30 35 C 2.1442 -2.42835 -1.3389 0
M  V30 36 H 5.0952 -1.55381 -0.322886 0
M  V30 37 H 5.1162 -2.48861 -2.87834 0
M  V30 38 H 4.6282 -3.60575 -1.43553 0
M  V30 39 H 2.7292 -1.89296 -3.20933 0
M  V30 40 H 2.8422 -3.76157 -2.9672 0
M  V30 41 H 1.2062 -1.93836 -1.65226 0
M  V30 42 H 1.9892 -3.34884 -0.755504 0
M  V30 43 N 4.4343 0.785586 -1.36625 0
M  V30 44 C 5.6593 1.57963 -1.34397 0
M  V30 45 C 6.0843 1.87964 0.071526 0
M  V30 46 O 5.4423 1.48182 1.0446 0
M  V30 47 C 5.4903 2.87511 -2.17646 0
M  V30 48 O 4.5943 3.81281 -1.57158 0
M  V30 49 H 3.9353 0.479014 -0.459828 0
M  V30 50 H 6.4653 0.973411 -1.79961 0
M  V30 51 H 6.4753 3.36745 -2.30362 0
M  V30 52 H 5.1503 2.65002 -3.20541 0
M  V30 53 H 3.7273 3.39885 -1.53403 0
M  V30 54 N 5.9124 1.20967 1.01018 0
M  V30 55 C 7.1584 1.02526 1.74975 0
M  V30 56 C 7.4914 -0.4408 1.89131 0
M  V30 57 O 6.7664 -1.32718 1.42184 0
M  V30 58 C 7.0494 1.71699 3.1653 0
M  V30 59 C 6.9024 3.25791 3.10129 0
M  V30 60 C 8.2214 1.45531 4.15342 0
M  V30 61 H 5.3404 0.373863 0.635134 0
M  V30 62 H 7.9824 1.49071 1.17805 0
M  V30 63 H 6.1324 1.32128 3.65341 0
M  V30 64 H 7.8044 3.74697 2.69072 0
M  V30 65 H 6.0474 3.56363 2.47362 0
M  V30 66 H 6.7184 3.69353 4.10222 0
M  V30 67 H 9.1944 1.79872 3.75213 0
M  V30 68 H 8.0704 1.96453 5.1254 0
M  V30 69 H 8.3314 0.384237 4.40427 0
M  V30 70 N 7.3905 -1.2043 1.01659 0
M  V30 71 C 8.8015 -1.71517 0.737482 0
M  V30 72 C 9.1525 -1.81547 -0.743973 0
M  V30 73 O 8.2775 -1.47803 -1.58061 0
M  V30 74 C 8.8725 -3.11515 1.33206 0
M  V30 75 C 7.4315 -3.59912 1.10183 0
M  V30 76 C 6.5785 -2.37116 1.43776 0
M  V30 77 H 9.5295 -1.05444 1.18606 0
M  V30 78 H 9.5505 -3.73575 0.722636 0
M  V30 79 H 9.0625 -3.04182 2.41028 0
M  V30 80 H 7.1635 -3.72577 0.0412756 0
M  V30 81 H 7.2765 -4.44731 1.78188 0
M  V30 82 H 5.6405 -2.39857 0.856778 0
M  V30 83 H 6.4235 -2.32424 2.52654 0
M  V30 84 N 8.8686 -0.792821 -1.36206 0
M  V30 85 C 9.8316 -0.199459 -2.2833 0
M  V30 86 C 10.8316 0.605189 -1.48977 0
M  V30 87 O 12.0216 0.425685 -1.68919 0
M  V30 88 C 9.1536 0.723523 -3.33134 0
M  V30 89 H 10.3466 -1.01181 -2.82316 0
M  V30 90 H 7.8996 -0.562485 -1.45828 0
M  V30 91 H 8.6346 1.56008 -2.84309 0
M  V30 92 H 8.4196 0.148436 -3.91819 0
M  V30 93 H 9.9096 1.13344 -4.01924 0
M  V30 94 N 10.3467 1.47872 -0.545128 0
M  V30 95 C 11.3097 2.28337 0.198717 0
M  V30 96 C 12.3097 1.36255 0.853888 0
M  V30 97 O 13.4997 1.59003 0.711606 0
M  V30 98 C 10.6317 3.15585 1.28915 0
M  V30 99 H 11.8247 2.95567 -0.507941 0
M  V30 100 H 9.3777 1.53362 -0.301616 0
M  V30 101 H 10.1127 2.53019 2.02859 0
M  V30 102 H 9.8977 3.83337 0.824309 0
M  V30 103 H 11.3877 3.76243 1.81194 0
M  V30 104 N 11.8248 0.280983 1.55075 0
M  V30 105 C 12.7348 -0.61388 2.26426 0
M  V30 106 C 13.7508 -1.16521 1.29224 0
M  V30 107 O 14.9268 -1.19426 1.62171 0
M  V30 108 C 11.9918 -1.7788 2.9759 0
M  V30 109 C 11.0528 -1.26355 4.10284 0
M  V30 110 C 10.2858 -2.37295 4.78045 0
M  V30 111 O 10.5088 -3.56777 4.45047 0
M  V30 112 O 9.4428 -2.05119 5.65871 0
M  V30 113 H 13.2688 -0.0356932 3.03679 0
M  V30 114 H 10.8538 0.0481686 1.49322 0
M  V30 115 H 12.7358 -2.45791 3.42293 0
M  V30 116 H 11.4108 -2.34397 2.23249 0
M  V30 117 H 10.3178 -0.550735 3.70024 0
M  V30 118 H 11.6508 -0.744065 4.86543 0
M  V30 119 N 13.3029 -1.57598 0.00835791 0
M  V30 120 C 14.7139 -1.7892 -0.53333 0
M  V30 121 C 15.0649 -0.916609 -1.73473 0
M  V30 122 O 14.1899 -0.121336 -2.1606 0
M  V30 123 C 14.7849 -3.24488 -0.974313 0
M  V30 124 C 13.3439 -3.46878 -1.46125 0
M  V30 125 C 12.4909 -2.74157 -0.416302 0
M  V30 126 H 15.4419 -1.56958 0.234495 0
M  V30 127 H 15.4629 -3.3306 -1.83988 0
M  V30 128 H 14.9749 -3.87972 -0.099718 0
M  V30 129 H 13.0759 -2.8862 -2.35646 0
M  V30 130 H 13.1889 -4.55572 -1.48295 0
M  V30 131 H 11.5529 -2.39022 -0.87981 0
M  V30 132 H 12.3359 -3.40345 0.44947 0
M  V30 133 N 14.781 0.264519 -1.55364 0
M  V30 134 C 15.691 1.34902 -1.91934 0
M  V30 135 C 16.707 1.53595 -0.817593 0
M  V30 136 O 17.883 1.67558 -1.11742 0
M  V30 137 C 14.948 2.68676 -2.19121 0
M  V30 138 C 14.009 2.58657 -3.4263 0
M  V30 139 C 13.242 3.86051 -3.68511 0
M  V30 140 O 13.465 4.87126 -2.96757 0
M  V30 141 O 12.399 3.85744 -4.62045 0
M  V30 142 H 16.225 1.06883 -2.8427 0
M  V30 143 H 13.81 0.463775 -1.42019 0
M  V30 144 H 15.692 3.47759 -2.37995 0
M  V30 145 H 14.367 2.96463 -1.29966 0
M  V30 146 H 13.274 1.7792 -3.29082 0
M  V30 147 H 14.607 2.35818 -4.32031 0
M  V30 148 N 16.2591 1.48442 0.529413 0
M  V30 149 C 17.4891 1.59919 1.30804 0
M  V30 150 C 17.8971 0.258792 1.87422 0
M  V30 151 O 17.2401 -0.762096 1.67146 0
M  V30 152 C 17.3021 2.58693 2.49636 0
M  V30 153 C 16.9661 4.03745 2.14101 0
M  V30 154 C 17.9631 4.9141 1.6974 0
M  V30 155 C 15.6481 4.49285 2.24607 0
M  V30 156 C 17.6421 6.22645 1.36351 0
M  V30 157 C 15.3291 5.8054 1.9083 0
M  V30 158 C 16.3271 6.67043 1.46773 0
M  V30 159 O 16.0151 7.95856 1.1344 0
M  V30 160 H 15.7471 0.541981 0.404021 0
M  V30 161 H 18.3011 1.95 0.645309 0
M  V30 162 H 16.5311 2.18734 3.18892 0
M  V30 163 H 18.2201 2.59999 3.11698 0
M  V30 164 H 18.9861 4.57465 1.61094 0
M  V30 165 H 14.8651 3.82142 2.57854 0
M  V30 166 H 18.4091 6.90119 1.01891 0
M  V30 167 H 14.3061 6.14022 1.99117 0
M  V30 168 H 15.0741 8.08613 1.26832 0
M  V30 169 N 17.7372 -0.778329 1.37039 0
M  V30 170 C 19.1482 -1.35421 1.28523 0
M  V30 171 C 19.4992 -1.96075 -0.0700901 0
M  V30 172 O 18.6242 -1.93352 -0.971801 0
M  V30 173 C 19.2192 -2.46211 2.32735 0
M  V30 174 C 17.7782 -2.99585 2.27873 0
M  V30 175 C 16.9252 -1.72748 2.16918 0
M  V30 176 H 19.8762 -0.5791 1.47757 0
M  V30 177 H 19.8972 -3.2552 1.9702 0
M  V30 178 H 19.4092 -2.02036 3.31365 0
M  V30 179 H 17.5102 -3.48152 1.32745 0
M  V30 180 H 17.6232 -3.55646 3.21018 0
M  V30 181 H 15.9872 -1.95416 1.63354 0
M  V30 182 H 16.7702 -1.30686 3.17452 0
M  V30 183 N 19.2153 -1.21501 -1.00376 0
M  V30 184 C 20.1623 -0.975387 -2.09177 0
M  V30 185 C 21.1323 0.0990615 -1.65804 0
M  V30 186 O 22.3173 -0.0483147 -1.90739 0
M  V30 187 C 19.4573 -0.547507 -3.40729 0
M  V30 188 C 18.5703 -1.69153 -3.97506 0
M  V30 189 C 17.7053 -1.2127 -5.17172 0
M  V30 190 C 16.7443 -2.32897 -5.66061 0
M  V30 191 N 15.8813 -1.86138 -6.76976 0
M  V30 192 H 20.7213 -1.9068 -2.29009 0
M  V30 193 H 18.2583 -0.950257 -1.12288 0
M  V30 194 H 20.2163 -0.280667 -4.16255 0
M  V30 195 H 18.8463 0.346904 -3.20931 0
M  V30 196 H 17.8983 -2.07298 -3.18954 0
M  V30 197 H 19.2103 -2.5316 -4.29781 0
M  V30 198 H 18.3643 -0.902591 -5.99948 0
M  V30 199 H 17.1033 -0.342692 -4.86495 0
M  V30 200 H 16.1083 -2.64709 -4.81881 0
M  V30 201 H 17.3333 -3.20396 -5.98768 0
M  V30 202 H 15.2793 -1.01484 -6.48103 0
M  V30 203 H 15.1963 -2.63717 -7.08512 0
M  V30 204 H 16.4643 -1.58165 -7.63285 0
M  V30 205 N 20.6934 1.19889 -1.02296 0
M  V30 206 C 21.9414 1.89046 -0.714558 0
M  V30 207 C 22.2624 1.79636 0.758681 0
M  V30 208 O 21.5324 1.20292 1.54618 0
M  V30 209 H 20.1124 0.699802 -0.261317 0
M  V30 210 H 22.7744 1.45574 -1.29592 0
M  V30 211 H 21.8704 2.95524 -1.0036 0
M  V30 212 N 22.1715 0.800033 1.35784 0
M  V30 213 C 23.4205 0.37387 1.98205 0
M  V30 214 C 23.7335 -1.06302 1.64193 0
M  V30 215 O 24.9395 -1.59198 2.19928 0
M  V30 216 C 23.3955 0.617532 3.54562 0
M  V30 217 C 23.0035 2.06654 3.9749 0
M  V30 218 C 24.7475 0.256401 4.23725 0
M  V30 219 C 22.6545 2.2563 5.46667 0
M  V30 220 H 21.5845 0.136055 0.741623 0
M  V30 221 H 24.2355 0.983166 1.54939 0
M  V30 222 H 22.6175 -0.0616248 3.95952 0
M  V30 223 H 23.7915 2.78296 3.67271 0
M  V30 224 H 22.1065 2.38691 3.41197 0
M  V30 225 H 24.7035 0.376318 5.33374 0
M  V30 226 H 25.0465 -0.796692 4.08606 0
M  V30 227 H 25.5795 0.889214 3.87734 0
M  V30 228 H 22.3185 3.2936 5.66747 0
M  V30 229 H 21.8385 1.58504 5.78478 0
M  V30 230 H 23.5175 2.06861 6.1304 0
M  V30 231 N 23.6496 -1.47581 0.552962 0
M  V30 232 C 25.0656 -1.5818 0.212424 0
M  V30 233 C 25.2656 -1.55213 -1.28496 0
M  V30 234 O 24.3216 -1.45329 -2.06484 0
M  V30 235 C 25.6346 -2.88865 0.835318 0
M  V30 236 C 27.1826 -3.0244 0.806156 0
M  V30 237 C 27.6576 -4.35819 1.40804 0
M  V30 238 N 29.1486 -4.42444 1.37103 0
M  V30 239 C 29.8836 -5.44202 1.80641 0
M  V30 240 N 29.3796 -6.52795 2.32015 0
M  V30 241 N 31.1726 -5.35222 1.71738 0
M  V30 242 H 23.3236 -1.47753 1.52587 0
M  V30 243 H 25.5866 -0.702941 0.636064 0
M  V30 244 H 25.2926 -2.9676 1.88749 0
M  V30 245 H 25.1666 -3.7579 0.325848 0
M  V30 246 H 27.5536 -2.94144 -0.237317 0
M  V30 247 H 27.6346 -2.17068 1.35334 0
M  V30 248 H 27.2786 -4.44871 2.45056 0
M  V30 249 H 27.2086 -5.19916 0.836338 0
M  V30 250 H 29.6996 -3.6456 0.995202 0
M  V30 251 H 30.0126 -7.26609 2.63171 0
M  V30 252 H 28.3576 -6.53696 2.36023 0
M  V30 253 H 31.5486 -4.49284 1.31382 0
M  V30 254 H 31.7216 -6.14389 2.05987 0
M  V30 255 N 25.1277 -0.289203 -1.54924 0
M  V30 256 C 26.0907 0.579144 -2.21762 0
M  V30 257 C 27.0907 1.07047 -1.1999 0
M  V30 258 O 28.2807 0.968384 -1.44803 0
M  V30 259 C 25.4127 1.80055 -2.8947 0
M  V30 260 H 26.6057 -0.00464908 -2.999 0
M  V30 261 H 24.1587 -0.0399306 -1.56249 0
M  V30 262 H 24.8937 2.42449 -2.15381 0
M  V30 263 H 24.6787 1.45602 -3.64064 0
M  V30 264 H 26.1687 2.41773 -3.40493 0
M  V30 265 N 26.6058 1.57591 -0.0167156 0
M  V30 266 C 27.8518 1.91567 0.665582 0
M  V30 267 C 28.1848 0.892298 1.72487 0
M  V30 268 O 27.4598 -0.0867127 1.94307 0
M  V30 269 C 27.7428 3.36069 1.29342 0
M  V30 270 C 27.5958 4.49135 0.244541 0
M  V30 271 C 28.9148 3.803 2.21495 0
M  V30 272 H 26.0338 0.69666 0.240488 0
M  V30 273 H 28.6758 1.89866 -0.0714356 0
M  V30 274 H 26.8258 3.3765 1.92158 0
M  V30 275 H 28.4978 4.59689 -0.385228 0
M  V30 276 H 26.7408 4.3165 -0.431379 0
M  V30 277 H 27.4118 5.47242 0.723207 0
M  V30 278 H 29.8878 3.80377 1.68678 0
M  V30 279 H 28.7638 4.82127 2.62382 0
M  V30 280 H 29.0248 3.15104 3.101 0
M  V30 281 N 28.0839 -0.256276 1.55502 0
M  V30 282 C 29.0139 -1.32102 1.92539 0
M  V30 283 C 29.9949 -1.50684 0.789194 0
M  V30 284 O 31.1799 -1.63449 1.04872 0
M  V30 285 C 28.3099 -2.67752 2.21192 0
M  V30 286 C 27.2639 -2.63878 3.36975 0
M  V30 287 C 26.5899 -4.03236 3.51147 0
M  V30 288 C 27.8899 -2.21682 4.72921 0
M  V30 289 H 29.5839 -1.01351 2.81724 0
M  V30 290 H 27.1299 -0.486105 1.35547 0
M  V30 291 H 29.0829 -3.42365 2.45691 0
M  V30 292 H 27.8069 -3.0012 1.28824 0
M  V30 293 H 26.4659 -1.91722 3.12471 0
M  V30 294 H 26.1139 -4.32854 2.56216 0
M  V30 295 H 25.8139 -4.01535 4.29003 0
M  V30 296 H 27.3379 -4.79563 3.77957 0
M  V30 297 H 28.7519 -2.86023 4.96854 0
M  V30 298 H 27.1489 -2.3111 5.53812 0
M  V30 299 H 28.2189 -1.16833 4.70615 0
M  V30 300 N 29.562 -1.4872 -0.521534 0
M  V30 301 C 30.492 -1.66771 -1.63431 0
M  V30 302 C 31.473 -0.516499 -1.62069 0
M  V30 303 O 32.658 -0.750013 -1.79132 0
M  V30 304 C 29.788 -1.71515 -3.01993 0
M  V30 305 C 28.742 -2.86222 -3.18216 0
M  V30 306 C 28.068 -2.76061 -4.57924 0
M  V30 307 C 29.368 -4.27419 -3.00184 0
M  V30 308 H 31.062 -2.59932 -1.48579 0
M  V30 309 H 28.608 -1.25089 -0.713358 0
M  V30 310 H 30.561 -1.82731 -3.7972 0
M  V30 311 H 29.285 -0.749393 -3.17886 0
M  V30 312 H 27.944 -2.74575 -2.42908 0
M  V30 313 H 27.592 -1.77437 -4.70665 0
M  V30 314 H 27.292 -3.53037 -4.69722 0
M  V30 315 H 28.816 -2.89256 -5.37739 0
M  V30 316 H 30.23 -4.39855 -3.67697 0
M  V30 317 H 28.627 -5.05458 -3.2347 0
M  V30 318 H 29.697 -4.43293 -1.96518 0
M  V30 319 N 31.0401 0.771051 -1.3745 0
M  V30 320 C 32.2881 1.52661 -1.32435 0
M  V30 321 C 32.6091 1.9479 0.0905024 0
M  V30 322 O 31.8791 1.66348 1.03466 0
M  V30 323 H 30.4591 0.566218 -0.487244 0
M  V30 324 H 33.1211 0.917636 -1.71946 0
M  V30 325 H 32.2171 2.42568 -1.96385 0
M  V30 326 N 32.5182 1.22032 0.997298 0
M  V30 327 C 33.9292 1.0397 1.55071 0
M  V30 328 C 34.2802 -0.398192 1.92117 0
M  V30 329 O 33.4052 -1.28254 1.74298 0
M  V30 330 C 34.0002 1.88109 2.81781 0
M  V30 331 C 32.5592 1.74357 3.33581 0
M  V30 332 C 31.7062 1.84846 2.06706 0
M  V30 333 H 34.6572 1.35941 0.818883 0
M  V30 334 H 34.6782 1.39589 3.53971 0
M  V30 335 H 34.1902 2.92754 2.54787 0
M  V30 336 H 32.2912 0.72427 3.65493 0
M  V30 337 H 32.4042 2.56772 4.04481 0
M  V30 338 H 30.7682 1.28238 2.20062 0
M  V30 339 H 31.5512 2.91014 1.82114 0
M  V30 340 N 33.9963 -1.19345 1.0293 0
M  V30 341 C 35.4073 -1.70725 0.755633 0
M  V30 342 C 35.7583 -1.82326 -0.724676 0
M  V30 343 O 34.8833 -1.49471 -1.56484 0
M  V30 344 C 35.4783 -3.10084 1.36503 0
M  V30 345 C 34.0373 -3.58723 1.13994 0
M  V30 346 C 33.1843 -2.35577 1.46283 0
M  V30 347 H 36.1353 -1.0418 1.19718 0
M  V30 348 H 36.1563 -3.72787 0.762217 0
M  V30 349 H 35.6683 -3.01609 2.44241 0
M  V30 350 H 33.7693 -3.72512 0.0807901 0
M  V30 351 H 33.8823 -4.42816 1.82894 0
M  V30 352 H 32.2463 -2.38935 0.88217 0
M  V30 353 H 33.0293 -2.29731 2.55105 0
M  V30 354 N 35.4744 -0.807222 -1.35358 0
M  V30 355 C 36.7224 -0.387122 -1.98358 0
M  V30 356 C 37.0434 1.04942 -1.64354 0
M  V30 357 O 36.3134 1.72615 -0.926339 0
M  V30 358 H 34.8934 -0.140154 -0.733734 0
M  V30 359 H 37.5554 -1.0332 -1.6526 0
M  V30 360 H 36.6514 -0.493352 -3.08176 0
M  V30 361 N 36.9525 1.47285 -0.560781 0
M  V30 362 C 37.9155 2.28535 0.174488 0
M  V30 363 C 38.9155 1.37153 0.839388 0
M  V30 364 O 40.1055 1.59748 0.694702 0
M  V30 365 C 37.2375 3.16934 1.25561 0
M  V30 366 H 38.4305 2.95012 -0.539262 0
M  V30 367 H 35.9835 1.53034 -0.317865 0
M  V30 368 H 36.7185 2.55157 2.00164 0
M  V30 369 H 36.5035 3.8419 0.783604 0
M  V30 370 H 37.9935 3.78143 1.77193 0
M  V30 371 N 38.4306 0.297415 1.54768 0
M  V30 372 C 39.6786 -0.312295 1.99673 0
M  V30 373 C 39.9996 -1.54686 1.18732 0
M  V30 374 O 39.2696 -1.93854 0.282382 0
M  V30 375 H 37.8496 -0.118381 0.73756 0
M  V30 376 H 40.5116 0.407915 1.90583 0
M  V30 377 H 39.6076 -0.586813 3.06534 0
M  V30 378 N 39.9087 -1.5758 0.0250728 0
M  V30 379 C 40.8557 -2.09973 -0.958129 0
M  V30 380 C 41.8257 -1.00085 -1.3256 0
M  V30 381 O 43.0107 -1.27481 -1.41962 0
M  V30 382 C 40.1507 -2.62812 -2.2366 0
M  V30 383 C 39.2637 -3.86693 -1.92594 0
M  V30 384 C 38.3987 -4.27941 -3.14707 0
M  V30 385 C 37.4377 -5.44591 -2.79442 0
M  V30 386 N 36.5747 -5.81014 -3.94167 0
M  V30 387 H 41.4147 -2.937 -0.504428 0
M  V30 388 H 38.9517 -1.45172 -0.237392 0
M  V30 389 H 40.9097 -2.91536 -2.98434 0
M  V30 390 H 39.5397 -1.81922 -2.66654 0
M  V30 391 H 38.5917 -3.64723 -1.0808 0
M  V30 392 H 39.9037 -4.71547 -1.62619 0
M  V30 393 H 39.0577 -4.58079 -3.97804 0
M  V30 394 H 37.7967 -3.41845 -3.4784 0
M  V30 395 H 36.8017 -5.1415 -1.94755 0
M  V30 396 H 38.0267 -6.32382 -2.47528 0
M  V30 397 H 35.9727 -4.97874 -4.2715 0
M  V30 398 H 35.8897 -6.60498 -3.67801 0
M  V30 399 H 37.1577 -6.15756 -4.7798 0
M  V30 400 N 41.3868 0.248026 -1.55636 0
M  V30 401 C 42.6348 0.974295 -1.77065 0
M  V30 402 C 42.9558 1.85897 -0.588849 0
M  V30 403 O 42.2258 1.91868 0.395407 0
M  V30 404 H 40.8058 0.362733 -0.653019 0
M  V30 405 H 43.4678 0.266244 -1.93073 0
M  V30 406 H 42.5638 1.59667 -2.68166 0
M  V30 407 N 42.8649 1.48995 0.513639 0
M  V30 408 C 44.0929 1.61531 1.29288 0
M  V30 409 C 44.5079 0.281801 1.86685 0
M  V30 410 O 43.8649 -0.731111 1.67215 0
M  V30 411 C 43.9159 2.67449 2.43215 0
M  V30 412 O 43.6369 3.95626 1.88179 0
M  V30 413 C 45.1379 2.90575 3.34785 0
M  V30 414 H 42.3579 0.544165 0.392588 0
M  V30 415 H 44.9019 1.9494 0.617956 0
M  V30 416 H 43.0569 2.36853 3.0656 0
M  V30 417 H 43.4709 4.53868 2.62876 0
M  V30 418 H 44.9449 3.68449 4.11035 0
M  V30 419 H 45.4219 2.00011 3.91015 0
M  V30 420 H 46.0279 3.22538 2.77218 0
M  V30 421 N 44.343 -0.763751 1.37857 0
M  V30 422 C 45.275 -1.88664 1.30148 0
M  V30 423 C 46.288 -1.61365 0.215685 0
M  V30 424 O 47.477 -1.72134 0.472459 0
M  V30 425 C 44.577 -3.24075 0.991396 0
M  V30 426 C 43.75 -3.78958 2.18426 0
M  V30 427 C 42.809 -4.92862 1.8432 0
M  V30 428 O 41.835 -5.08027 2.56704 0
M  V30 429 N 43.037 -5.75071 0.792081 0
M  V30 430 H 45.802 -1.95791 2.26905 0
M  V30 431 H 43.363 -0.943226 1.31586 0
M  V30 432 H 45.355 -3.97804 0.743935 0
M  V30 433 H 43.925 -3.12399 0.112122 0
M  V30 434 H 43.145 -2.96913 2.59299 0
M  V30 435 H 44.433 -4.12357 2.98058 0
M  V30 436 H 43.831 -5.65375 0.191595 0
M  V30 437 H 42.388 -6.48991 0.60449 0
M  V30 438 N 45.8211 -1.22559 -0.990812 0
M  V30 439 C 46.7841 -0.998863 -2.0629 0
M  V30 440 C 47.7841 0.0354834 -1.60761 0
M  V30 441 O 48.9741 -0.203231 -1.7301 0
M  V30 442 C 46.1061 -0.509203 -3.37076 0
M  V30 443 H 47.2991 -1.95014 -2.27837 0
M  V30 444 H 44.8521 -1.04456 -1.16269 0
M  V30 445 H 45.5871 0.446335 -3.21214 0
M  V30 446 H 45.3721 -1.25547 -3.71457 0
M  V30 447 H 46.8621 -0.370888 -4.1595 0
M  V30 448 N 47.2992 1.18797 -1.03562 0
M  V30 449 C 48.7102 1.70322 -0.764676 0
M  V30 450 C 49.0612 1.82708 0.714996 0
M  V30 451 O 48.1862 1.50299 1.55689 0
M  V30 452 C 48.7812 3.09356 -1.38145 0
M  V30 453 C 47.3402 3.58114 -1.15895 0
M  V30 454 C 46.4872 2.34798 -1.4753 0
M  V30 455 H 49.4382 1.03543 -1.20268 0
M  V30 456 H 49.4592 3.72378 -0.781977 0
M  V30 457 H 48.9712 3.00309 -2.45837 0
M  V30 458 H 47.0722 3.72464 -0.100544 0
M  V30 459 H 47.1852 4.4184 -1.8524 0
M  V30 460 H 45.5492 2.38464 -0.894829 0
M  V30 461 H 46.3322 2.28375 -2.56319 0
M  V30 462 N 48.7773 0.814389 1.34928 0
M  V30 463 C 50.1933 0.499084 1.51596 0
M  V30 464 C 50.3933 -0.978319 1.76157 0
M  V30 465 O 49.4493 -1.76309 1.80752 0
M  V30 466 C 50.7623 1.35121 2.68631 0
M  V30 467 C 52.3103 1.34746 2.82511 0
M  V30 468 C 52.7853 2.18388 4.0258 0
M  V30 469 N 54.2763 2.15966 4.09772 0
M  V30 470 C 55.0113 2.77437 5.01813 0
M  V30 471 N 54.5073 3.47866 5.99134 0
M  V30 472 N 56.3003 2.67037 4.94619 0
M  V30 473 H 48.4513 1.7711 1.17243 0
M  V30 474 H 50.7143 0.754256 0.574284 0
M  V30 475 H 50.4203 2.40001 2.57085 0
M  V30 476 H 50.2943 1.00991 3.63429 0
M  V30 477 H 52.6813 0.30648 2.93504 0
M  V30 478 H 52.7623 1.72869 1.88547 0
M  V30 479 H 52.4063 3.2253 3.92347 0
M  V30 480 H 52.3363 1.77621 4.9574 0
M  V30 481 H 54.8273 1.64729 3.40107 0
M  V30 482 H 55.1403 3.92038 6.65977 0
M  V30 483 H 53.4853 3.51972 5.99284 0
M  V30 484 H 56.6763 2.11597 4.17546 0
M  V30 485 H 56.8493 3.15232 5.66156 0
M  V30 486 N 50.2554 -1.46986 0.568584 0
M  V30 487 C 51.1854 -2.32946 -0.160753 0
M  V30 488 C 52.1664 -1.44487 -0.897631 0
M  V30 489 O 53.3514 -1.73327 -0.875867 0
M  V30 490 C 50.4814 -3.26494 -1.18403 0
M  V30 491 C 49.4354 -4.24282 -0.562895 0
M  V30 492 C 48.7614 -5.07236 -1.69163 0
M  V30 493 C 50.0614 -5.19989 0.490761 0
M  V30 494 H 51.7554 -2.94175 0.556916 0
M  V30 495 H 49.3014 -1.4146 0.26927 0
M  V30 496 H 51.2544 -3.85477 -1.70251 0
M  V30 497 H 49.9784 -2.63343 -1.93179 0
M  V30 498 H 48.6374 -3.66541 -0.0656164 0
M  V30 499 H 48.2854 -4.4048 -2.42871 0
M  V30 500 H 47.9854 -5.7345 -1.28174 0
M  V30 501 H 49.5094 -5.6908 -2.21314 0
M  V30 502 H 50.9234 -5.73271 0.0579047 0
M  V30 503 H 49.3204 -5.94469 0.820165 0
M  V30 504 H 50.3904 -4.64777 1.3824 0
M  V30 505 N 51.7335 -0.305618 -1.54608 0
M  V30 506 C 52.6965 0.555591 -2.22364 0
M  V30 507 C 53.6965 1.05768 -1.21119 0
M  V30 508 O 54.8865 0.952972 -1.45822 0
M  V30 509 C 52.0185 1.76974 -2.91364 0
M  V30 510 H 53.2115 -0.0364572 -2.99878 0
M  V30 511 H 50.7645 -0.0565007 -1.56198 0
M  V30 512 H 51.4995 2.40151 -2.17941 0
M  V30 513 H 51.2845 1.41732 -3.65588 0
M  V30 514 H 52.7745 2.38148 -3.43038 0
M  V30 515 N 53.2116 1.57565 -0.0334293 0
M  V30 516 C 54.1216 2.13943 0.962572 0
M  V30 517 C 55.1376 1.09276 1.35406 0
M  V30 518 O 56.3136 1.41355 1.4346 0
M  V30 519 C 53.3786 2.65887 2.22497 0
M  V30 520 C 52.4396 3.85286 1.8935 0
M  V30 521 C 51.6726 4.34743 3.09571 0
M  V30 522 O 51.8956 3.83352 4.22371 0
M  V30 523 O 50.8296 5.26538 2.91618 0
M  V30 524 H 54.6556 2.99333 0.513169 0
M  V30 525 H 52.2406 1.4822 0.18743 0
M  V30 526 H 54.1226 2.99346 2.96598 0
M  V30 527 H 52.7976 1.83578 2.6661 0
M  V30 528 H 51.7046 3.56746 1.1262 0
M  V30 529 H 53.0376 4.68771 1.5005 0
M  V30 530 N 54.6897 -0.239769 1.55765 0
M  V30 531 C 55.6377 -1.31668 1.91745 0
M  V30 532 C 56.6317 -1.49462 0.797338 0
M  V30 533 O 57.8377 -1.50852 0.982021 0
M  V30 534 H 54.2127 -0.441048 0.609082 0
M  V30 535 H 56.1837 -0.985923 2.81642 0
M  V30 536 C 54.9327 -2.66368 2.2348 0
M  V30 537 H 54.2557 -2.53478 3.09175 0
M  V30 538 H 55.6957 -3.40578 2.52553 0
M  V30 539 C 54.1547 -3.20002 1.05359 0
M  V30 540 O 54.6847 -4.00538 0.305261 0
M  V30 541 N 52.8907 -2.78126 0.842292 0
M  V30 542 H 52.4377 -2.12742 1.45253 0
M  V30 543 H 52.3957 -3.14354 0.053652 0
M  V30 544 N 56.1678 -1.49265 -0.50573 0
M  V30 545 C 57.4148 -1.58513 -1.26015 0
M  V30 546 C 57.7428 -0.26972 -1.92621 0
M  V30 547 O 56.9978 0.741997 -1.81088 0
M  V30 548 C 57.2968 -2.69008 -2.35308 0
M  V30 549 C 56.9628 -4.10662 -1.86192 0
M  V30 550 C 55.6248 -4.49212 -1.72516 0
M  V30 551 C 57.9768 -4.99336 -1.49375 0
M  V30 552 C 55.3048 -5.74214 -1.20394 0
M  V30 553 C 57.6568 -6.24852 -0.987072 0
M  V30 554 C 56.3208 -6.62236 -0.836669 0
M  V30 555 H 55.5908 -0.580041 -0.461122 0
M  V30 556 H 58.2378 -1.83078 -0.561665 0
M  V30 557 H 56.5428 -2.38396 -3.10926 0
M  V30 558 H 58.2398 -2.73373 -2.93374 0
M  V30 559 H 54.8298 -3.8023 -1.97795 0
M  V30 560 H 59.0138 -4.70212 -1.5879 0
M  V30 561 H 54.2698 -6.01883 -1.07458 0
M  V30 562 H 58.4438 -6.92944 -0.692983 0
M  V30 563 H 56.0708 -7.58979 -0.430607 0
M  V30 564 N 57.6459 0.756429 -1.3826 0
M  V30 565 C 58.8859 1.52833 -1.35725 0
M  V30 566 C 59.2499 1.91926 0.0534106 0
M  V30 567 O 60.4509 2.68028 0.203613 0
M  V30 568 C 58.7219 2.74919 -2.28373 0
M  V30 569 S 60.2809 3.64817 -2.43832 0
M  V30 570 H 57.0989 0.523043 -0.481608 0
M  V30 571 H 59.7009 0.888212 -1.74158 0
M  V30 572 H 58.4049 2.44304 -3.29763 0
M  V30 573 H 57.9359 3.43878 -1.91079 0
M  V30 574 H 59.9509 4.676 -1.66027 0
M  V30 575 N 59.124 1.23083 0.984299 0
M  V30 576 C 60.37 1.06214 1.72761 0
M  V30 577 C 60.703 -0.400584 1.90024 0
M  V30 578 O 59.978 -1.29672 1.44967 0
M  V30 579 C 60.261 1.78375 3.12817 0
M  V30 580 C 60.114 3.32296 3.03149 0
M  V30 581 C 61.433 1.54309 4.12161 0
M  V30 582 H 58.552 0.387251 0.627061 0
M  V30 583 H 61.194 1.51536 1.14616 0
M  V30 584 H 59.344 1.39848 3.62457 0
M  V30 585 H 61.016 3.8032 2.61064 0
M  V30 586 H 59.259 3.6153 2.39747 0
M  V30 587 H 59.93 3.77972 4.02295 0
M  V30 588 H 62.406 1.87791 3.71314 0
M  V30 589 H 61.282 2.07281 5.08258 0
M  V30 590 H 61.543 0.477572 4.39513 0
M  V30 591 N 60.6021 -1.18246 1.0419 0
M  V30 592 C 61.8421 -1.89948 0.754916 0
M  V30 593 C 62.2061 -1.78608 -0.70451 0
M  V30 594 O 63.4071 -2.4503 -1.10516 0
M  V30 595 C 61.6781 -3.36305 1.20969 0
M  V30 596 S 63.2371 -4.26088 1.04854 0
M  V30 597 H 60.0551 -0.655897 0.274446 0
M  V30 598 H 62.6571 -1.42873 1.33445 0
M  V30 599 H 61.3611 -3.42089 2.26722 0
M  V30 600 H 60.8921 -3.8842 0.624004 0
M  V30 601 H 62.9071 -4.96189 -0.0332896 0
M  V30 602 N 62.0802 -0.821533 -1.34494 0
M  V30 603 C 63.0302 -0.214793 -2.26986 0
M  V30 604 C 64.0142 0.620125 -1.4847 0
M  V30 605 O 65.2062 0.474933 -1.70509 0
M  V30 606 C 62.3352 0.623566 -3.37589 0
M  V30 607 C 61.4212 -0.221904 -4.23519 0
M  V30 608 N 61.8122 -1.29223 -4.89014 0
M  V30 609 C 60.1102 -0.00600922 -4.46 0
M  V30 610 C 60.8112 -1.80965 -5.52835 0
M  V30 611 N 59.7872 -1.11376 -5.32068 0
M  V30 612 H 63.5892 -1.03354 -2.75128 0
M  V30 613 H 61.1032 -0.6642 -1.48196 0
M  V30 614 H 63.1002 1.0744 -4.02818 0
M  V30 615 H 61.7602 1.44049 -2.90998 0
M  V30 616 H 62.7712 -1.67502 -4.90065 0
M  V30 617 H 59.4482 0.77886 -4.10171 0
M  V30 618 H 60.8382 -2.70502 -6.15043 0
M  V30 619 N 63.5583 1.46682 -0.576371 0
M  V30 620 C 64.4883 2.33028 0.148397 0
M  V30 621 C 65.4693 1.44961 0.889956 0
M  V30 622 O 66.6543 1.73789 0.866662 0
M  V30 623 C 63.7843 3.27117 1.1667 0
M  V30 624 C 62.7383 4.24575 0.540386 0
M  V30 625 C 62.0643 5.08126 1.6647 0
M  V30 626 C 63.3643 5.19722 -0.518331 0
M  V30 627 H 65.0583 2.93875 -0.572509 0
M  V30 628 H 62.6043 1.41315 -0.276768 0
M  V30 629 H 64.5573 3.86374 1.68204 0
M  V30 630 H 63.2813 2.64364 1.9178 0
M  V30 631 H 61.9403 3.66571 0.0461769 0
M  V30 632 H 61.5883 4.41762 2.40531 0
M  V30 633 H 61.2883 5.74122 1.25131 0
M  V30 634 H 62.8123 5.70246 2.18293 0
M  V30 635 H 64.2263 5.73232 -0.0883058 0
M  V30 636 H 62.6233 5.94026 -0.851679 0
M  V30 637 H 63.6933 4.64037 -1.40703 0
M  V30 638 N 65.0364 0.313813 1.54444 0
M  V30 639 C 65.9994 -0.54379 2.22656 0
M  V30 640 C 66.9994 -1.05124 1.21678 0
M  V30 641 O 68.1894 -0.945225 1.46325 0
M  V30 642 C 65.3214 -1.75427 2.92298 0
M  V30 643 H 66.5144 0.0523599 2.99854 0
M  V30 644 H 64.0674 0.0647834 1.56166 0
M  V30 645 H 64.8024 -2.38991 2.19211 0
M  V30 646 H 64.5874 -1.39791 3.66334 0
M  V30 647 H 66.0774 -2.36325 3.44297 0
M  V30 648 N 66.5145 -1.57545 0.0417849 0
M  V30 649 C 67.7425 -1.96624 -0.643928 0
M  V30 650 C 68.1575 -0.918897 -1.64929 0
M  V30 651 O 67.5145 0.0979323 -1.82237 0
M  V30 652 C 67.5655 -3.35781 -1.33914 0
M  V30 653 O 67.2865 -4.365 -0.374048 0
M  V30 654 C 68.7875 -3.89566 -2.1155 0
M  V30 655 H 66.0075 -0.647316 -0.176702 0
M  V30 656 H 68.5515 -2.04229 0.105304 0
M  V30 657 H 66.7065 -3.29357 -2.03968 0
M  V30 658 H 67.1205 -5.17248 -0.869179 0
M  V30 659 H 68.5945 -4.89242 -2.55628 0
M  V30 660 H 69.0715 -3.24488 -2.9598 0
M  V30 661 H 69.6775 -3.99298 -1.46427 0
M  V30 662 N 67.9926 0.231505 -1.5589 0
M  V30 663 C 69.2406 0.955461 -1.78088 0
M  V30 664 C 69.5616 1.85262 -0.608533 0
M  V30 665 O 68.8316 1.92277 0.375035 0
M  V30 666 H 67.4116 0.355787 -0.656829 0
M  V30 667 H 70.0736 0.245751 -1.93344 0
M  V30 668 H 69.1696 1.56814 -2.69844 0
M  V30 669 N 69.4707 1.49531 0.497807 0
M  V30 670 C 70.7477 1.49682 1.25915 0
M  V30 671 C 71.1277 0.226339 2.09883 0
M  V30 672 O 70.4757 -0.791189 2.14365 0
M  V30 673 C 70.6857 2.77755 2.11313 0
M  V30 674 C 72.0337 3.27371 2.70395 0
M  V30 675 O 73.0577 2.78894 2.21578 0
M  V30 676 O 71.9167 4.11808 3.59272 0
M  V30 677 H 69.0107 0.599228 0.56996 0
M  V30 678 H 71.5567 1.61798 0.511816 0
M  V30 679 H 70.3287 3.61713 1.49264 0
M  V30 680 H 69.9517 2.68515 2.93233 0
M  V30 681 N 70.9488 -0.749086 1.3866 0
M  V30 682 C 71.8818 -1.87111 1.30631 0
M  V30 683 C 72.8598 -1.61572 0.18251 0
M  V30 684 O 74.0438 -1.85019 0.360592 0
M  V30 685 C 71.1708 -3.22815 1.02511 0
M  V30 686 C 70.2168 -3.67234 2.1689 0
M  V30 687 S 71.0498 -3.78245 3.79066 0
M  V30 688 C 72.2058 -5.16761 3.53142 0
M  V30 689 H 72.4388 -1.93636 2.25594 0
M  V30 690 H 69.9718 -0.912525 1.24549 0
M  V30 691 H 71.9298 -4.01181 0.869701 0
M  V30 692 H 70.5908 -3.13964 0.0925884 0
M  V30 693 H 69.7838 -4.65677 1.92771 0
M  V30 694 H 69.3858 -2.96034 2.28561 0
M  V30 695 H 71.6778 -6.02656 3.09534 0
M  V30 696 H 72.6208 -5.45902 4.50995 0
M  V30 697 H 73.0288 -4.85771 2.87554 0
M  V30 698 N 72.4269 -1.23603 -0.977757 0
M  V30 699 C 73.3569 -1.04401 -2.0886 0
M  V30 700 C 74.3379 0.0399052 -1.70053 0
M  V30 701 O 75.5229 -0.125246 -1.93796 0
M  V30 702 C 72.6529 -0.637269 -3.41403 0
M  V30 703 C 71.6069 -1.66883 -3.94124 0
M  V30 704 C 70.9329 -1.11745 -5.22893 0
M  V30 705 C 72.2329 -3.06247 -4.23096 0
M  V30 706 H 73.9269 -1.97316 -2.25182 0
M  V30 707 H 71.4729 -0.950096 -1.08209 0
M  V30 708 H 73.4259 -0.48998 -4.18542 0
M  V30 709 H 72.1499 0.327557 -3.24953 0
M  V30 710 H 70.8089 -1.80416 -3.19133 0
M  V30 711 H 70.4569 -0.143527 -5.02795 0
M  V30 712 H 70.1569 -1.80672 -5.59134 0
M  V30 713 H 71.6809 -0.982067 -6.02651 0
M  V30 714 H 73.0949 -2.96001 -4.90975 0
M  V30 715 H 71.4919 -3.72436 -4.70544 0
M  V30 716 H 72.5619 -3.55041 -3.30263 0
M  V30 717 N 73.905 1.17692 -1.04816 0
M  V30 718 C 75.321 1.39863 -0.768794 0
M  V30 719 C 75.521 1.91118 0.638451 0
M  V30 720 O 74.577 2.10036 1.40146 0
M  V30 721 C 75.89 2.39274 -1.82122 0
M  V30 722 C 77.438 2.52987 -1.843 0
M  V30 723 C 77.913 3.55669 -2.88555 0
M  V30 724 N 79.404 3.63183 -2.87493 0
M  V30 725 C 80.139 4.42381 -3.64811 0
M  V30 726 N 79.635 5.25125 -4.51903 0
M  V30 727 N 81.428 4.37217 -3.53267 0
M  V30 728 H 73.579 0.82752 -1.95617 0
M  V30 729 H 75.842 0.426123 -0.846831 0
M  V30 730 H 75.548 2.08678 -2.83102 0
M  V30 731 H 75.422 3.38725 -1.65967 0
M  V30 732 H 77.809 2.82896 -0.839869 0
M  V30 733 H 77.89 1.53623 -2.04532 0
M  V30 734 H 77.534 3.26499 -3.89051 0
M  V30 735 H 77.464 4.54728 -2.65575 0
M  V30 736 H 79.955 3.04103 -2.24343 0
M  V30 737 H 80.268 5.82728 -5.07591 0
M  V30 738 H 78.613 5.24519 -4.55966 0
M  V30 739 H 81.804 3.71626 -2.84625 0
M  V30 740 H 81.977 4.98696 -4.13771 0
M  V30 741 N 75.3831 0.828654 1.34056 0
M  V30 742 C 76.3461 0.259927 2.27721 0
M  V30 743 C 77.3461 -0.565478 1.50529 0
M  V30 744 O 78.5361 -0.38075 1.69988 0
M  V30 745 C 75.6681 -0.634944 3.34935 0
M  V30 746 H 76.8611 1.0863 2.79534 0
M  V30 747 H 74.4141 0.600951 1.44285 0
M  V30 748 H 75.1491 -1.48416 2.88346 0
M  V30 749 H 74.9341 -0.0444999 3.92075 0
M  V30 750 H 76.4241 -1.02648 4.04788 0
M  V30 751 N 76.8612 -1.46375 0.584142 0
M  V30 752 C 77.7942 -2.27351 -0.196676 0
M  V30 753 C 78.7722 -1.35715 -0.895561 0
M  V30 754 O 79.9562 -1.65126 -0.90916 0
M  V30 755 C 77.0832 -3.13486 -1.28235 0
M  V30 756 C 76.1292 -4.20896 -0.689145 0
M  V30 757 S 76.9622 -5.33299 0.48507 0
M  V30 758 C 78.1182 -6.23 -0.601767 0
M  V30 759 H 78.3512 -2.93228 0.490395 0
M  V30 760 H 75.8842 -1.49875 0.371071 0
M  V30 761 H 77.8422 -3.63676 -1.90395 0
M  V30 762 H 76.5032 -2.4692 -1.94138 0
M  V30 763 H 75.6962 -4.80997 -1.50527 0
M  V30 764 H 75.2982 -3.73726 -0.143181 0
M  V30 765 H 77.5902 -6.60979 -1.48705 0
M  V30 766 H 78.5332 -7.0809 -0.0374799 0
M  V30 767 H 78.9412 -5.57173 -0.906557 0
M  V30 768 N 78.3393 -0.321999 -1.54275 0
M  V30 769 C 79.5853 0.281461 -2.00837 0
M  V30 770 C 79.9183 1.51909 -1.20985 0
M  V30 771 O 79.1933 1.923 -0.291733 0
M  V30 772 C 79.4763 0.617162 -3.54772 0
M  V30 773 C 79.3293 -0.631064 -4.45351 0
M  V30 774 C 80.6483 1.43542 -4.16033 0
M  V30 775 H 77.7673 0.100826 -0.730071 0
M  V30 776 H 80.4093 -0.438268 -1.84876 0
M  V30 777 H 78.5593 1.23034 -3.68504 0
M  V30 778 H 80.2313 -1.26934 -4.43492 0
M  V30 779 H 78.4743 -1.26025 -4.15091 0
M  V30 780 H 79.1453 -0.351735 -5.50878 0
M  V30 781 H 81.6213 0.917134 -4.05867 0
M  V30 782 H 80.4973 1.63907 -5.23856 0
M  V30 783 H 80.7583 2.43108 -3.69257 0
M  V30 784 N 79.8174 1.5752 -0.0501392 0
M  V30 785 C 80.7804 2.1037 0.909786 0
M  V30 786 C 81.7804 1.02308 1.24056 0
M  V30 787 O 82.9704 1.28385 1.17741 0
M  V30 788 C 80.1024 2.58708 2.21998 0
M  V30 789 H 81.2954 2.96479 0.451665 0
M  V30 790 H 78.8484 1.55038 0.198248 0
M  V30 791 H 79.5834 1.75989 2.72394 0
M  V30 792 H 79.3684 3.37675 1.99295 0
M  V30 793 H 80.8584 2.99747 2.9076 0
M  V30 794 N 81.2955 -0.223234 1.56011 0
M  V30 795 C 82.5205 -0.968978 1.83373 0
M  V30 796 C 82.9455 -1.77227 0.630254 0
M  V30 797 O 82.3035 -1.76345 -0.420959 0
M  V30 798 C 82.3515 -1.86363 3.08709 0
M  V30 799 O 81.4555 -2.95873 2.87285 0
M  V30 800 H 80.7965 -0.274461 0.604622 0
M  V30 801 H 83.3265 -0.237056 2.03222 0
M  V30 802 H 83.3365 -2.27376 3.38768 0
M  V30 803 H 82.0115 -1.27319 3.95933 0
M  V30 804 H 80.5885 -2.58818 2.68454 0
M  V30 805 N 82.7736 -1.49793 -0.48987 0
M  V30 806 C 84.0216 -1.59525 -1.24081 0
M  V30 807 C 84.3426 -0.288953 -1.92847 0
M  V30 808 O 83.6126 0.692436 -1.83254 0
M  V30 809 H 82.1926 -0.587796 -0.460983 0
M  V30 810 H 84.8546 -1.86477 -0.566778 0
M  V30 811 H 83.9506 -2.39696 -1.99881 0
M  V30 812 N 84.2517 0.741722 -1.39055 0
M  V30 813 C 85.4767 1.53607 -1.39354 0
M  V30 814 C 85.9017 1.88096 0.0116905 0
M  V30 815 O 85.2597 1.5143 0.996924 0
M  V30 816 C 85.3077 2.80441 -2.26682 0
M  V30 817 O 84.4117 3.76088 -1.69208 0
M  V30 818 H 83.7527 0.464142 -0.474835 0
M  V30 819 H 86.2827 0.915665 -1.82967 0
M  V30 820 H 86.2927 3.29246 -2.40959 0
M  V30 821 H 84.9677 2.5467 -3.2881 0
M  V30 822 H 83.5447 3.34833 -1.64138 0
M  V30 823 N 85.7298 1.2412 0.971189 0
M  V30 824 C 86.6398 1.04747 2.09917 0
M  V30 825 C 87.6558 -0.0107162 1.73997 0
M  V30 826 O 88.8318 0.186714 2.00533 0
M  V30 827 C 85.8968 0.650828 3.40537 0
M  V30 828 C 84.9578 1.7851 3.90426 0
M  V30 829 C 84.1908 1.40729 5.14812 0
M  V30 830 O 84.4138 0.29557 5.69634 0
M  V30 831 O 83.3478 2.23168 5.58999 0
M  V30 832 H 87.1738 1.99304 2.29154 0
M  V30 833 H 84.7588 1.02908 1.08307 0
M  V30 834 H 86.6408 0.440992 4.19086 0
M  V30 835 H 85.3158 -0.265649 3.22608 0
M  V30 836 H 84.2228 2.04966 3.12953 0
M  V30 837 H 85.5558 2.68023 4.12825 0
M  V30 838 N 87.2079 -1.17134 1.05439 0
M  V30 839 C 88.1379 -2.2342 0.678649 0
M  V30 840 C 89.1189 -1.66971 -0.32476 0
M  V30 841 O 90.3039 -1.93149 -0.201802 0
M  V30 842 C 87.4339 -3.47256 0.0552099 0
M  V30 843 C 86.3879 -4.16543 0.98365 0
M  V30 844 C 85.7139 -5.34231 0.223961 0
M  V30 845 C 87.0139 -4.68495 2.3089 0
M  V30 846 H 88.7079 -2.55105 1.56722 0
M  V30 847 H 86.2539 -1.2262 0.754998 0
M  V30 848 H 88.2069 -4.20828 -0.21946 0
M  V30 849 H 86.9309 -3.14846 -0.868319 0
M  V30 850 H 85.5899 -3.44887 1.24293 0
M  V30 851 H 85.2379 -4.98071 -0.702412 0
M  V30 852 H 84.9379 -5.81527 0.842627 0
M  V30 853 H 86.4619 -6.10585 -0.0433671 0
M  V30 854 H 87.8759 -5.33691 2.09396 0
M  V30 855 H 86.2729 -5.26379 2.88176 0
M  V30 856 H 87.3429 -3.85169 2.94572 0
M  V30 857 N 88.686 -0.835752 -1.33615 0
M  V30 858 C 89.934 -0.429109 -1.97492 0
M  V30 859 C 90.255 1.01433 -1.66543 0
M  V30 860 O 89.525 1.70611 -0.962744 0
M  V30 861 H 88.105 -0.155686 -0.730596 0
M  V30 862 H 90.767 -1.06802 -1.63031 0
M  V30 863 H 89.863 -0.55861 -3.0706 0
M  V30 864 N 90.1641 1.46063 -0.591896 0
M  V30 865 C 91.1111 2.30399 0.136069 0
M  V30 866 C 92.0811 1.41169 0.875238 0
M  V30 867 O 93.2661 1.70112 0.86409 0
M  V30 868 C 90.4061 3.25804 1.13781 0
M  V30 869 C 89.5191 4.30134 0.401137 0
M  V30 870 C 88.6541 5.12659 1.39121 0
M  V30 871 C 87.6931 6.0873 0.641462 0
M  V30 872 N 86.8301 6.8409 1.58004 0
M  V30 873 H 91.6701 2.92118 -0.589144 0
M  V30 874 H 89.2071 1.43959 -0.302342 0
M  V30 875 H 91.1651 3.79569 1.73156 0
M  V30 876 H 89.7951 2.65872 1.83062 0
M  V30 877 H 88.8471 3.79152 -0.307826 0
M  V30 878 H 90.1591 4.98458 -0.184565 0
M  V30 879 H 89.3131 5.70747 2.05749 0
M  V30 880 H 88.0521 4.44316 2.01084 0
M  V30 881 H 87.0571 5.49786 -0.0385419 0
M  V30 882 H 88.2821 6.79095 0.0270945 0
M  V30 883 H 86.2281 6.18449 2.18761 0
M  V30 884 H 86.1451 7.48709 1.04738 0
M  V30 885 H 87.4131 7.4673 2.23639 0
M  V30 886 N 91.6422 0.330177 1.54103 0
M  V30 887 C 92.5892 -0.532762 2.24567 0
M  V30 888 C 93.5592 -1.10635 1.23892 0
M  V30 889 O 94.7442 -1.14546 1.5259 0
M  V30 890 C 91.8842 -1.6845 3.01195 0
M  V30 891 C 90.9972 -1.13951 4.167 0
M  V30 892 C 90.1322 -2.25746 4.80845 0
M  V30 893 C 89.1712 -1.6853 5.88442 0
M  V30 894 N 88.3082 -2.74014 6.46421 0
M  V30 895 H 93.1482 0.0746905 2.97906 0
M  V30 896 H 90.6852 0.048632 1.4702 0
M  V30 897 H 92.6432 -2.36234 3.43874 0
M  V30 898 H 91.2732 -2.26314 2.30178 0
M  V30 899 H 90.3252 -0.35301 3.78758 0
M  V30 900 H 91.6372 -0.680892 4.94131 0
M  V30 901 H 90.7912 -3.01422 5.26526 0
M  V30 902 H 89.5302 -2.74947 4.0281 0
M  V30 903 H 88.5352 -0.913543 5.42157 0
M  V30 904 H 89.7602 -1.20198 6.68378 0
M  V30 905 H 87.7062 -3.22494 5.71256 0
M  V30 906 H 87.6232 -2.32735 7.19285 0
M  V30 907 H 88.8912 -3.49499 6.96757 0
M  V30 908 N 93.1203 -1.57491 0.0584922 0
M  V30 909 C 94.0503 -2.14988 -0.911178 0
M  V30 910 C 95.0313 -1.07343 -1.31952 0
M  V30 911 O 96.2163 -1.35318 -1.39294 0
M  V30 912 C 93.3463 -2.70078 -2.18347 0
M  V30 913 C 92.3003 -3.82771 -1.91495 0
M  V30 914 C 91.6263 -4.24408 -3.25241 0
M  V30 915 C 92.9263 -5.07592 -1.23075 0
M  V30 916 H 94.6203 -2.96263 -0.432246 0
M  V30 917 H 92.1663 -1.42512 -0.206469 0
M  V30 918 H 94.1193 -3.08943 -2.86587 0
M  V30 919 H 92.8433 -1.86005 -2.68458 0
M  V30 920 H 91.5023 -3.44389 -1.25664 0
M  V30 921 H 91.1503 -3.37275 -3.73168 0
M  V30 922 H 90.8503 -5.00366 -3.08071 0
M  V30 923 H 92.3743 -4.65879 -3.94701 0
M  V30 924 H 93.7883 -5.43857 -1.81362 0
M  V30 925 H 92.1853 -5.88741 -1.16207 0
M  V30 926 H 93.2553 -4.84454 -0.207847 0
M  V30 927 N 94.5984 0.214957 -1.56127 0
M  V30 928 C 95.5454 1.26642 -1.92952 0
M  V30 929 C 96.5154 1.46244 -0.78753 0
M  V30 930 O 97.7004 1.59704 -1.04399 0
M  V30 931 C 94.8404 2.6104 -2.25726 0
M  V30 932 C 93.9534 2.49183 -3.52891 0
M  V30 933 C 93.0884 3.76149 -3.7508 0
M  V30 934 C 92.1274 3.59041 -4.95738 0
M  V30 935 N 91.2644 4.77972 -5.14283 0
M  V30 936 H 96.1044 0.945384 -2.82607 0
M  V30 937 H 93.6414 0.455489 -1.3987 0
M  V30 938 H 95.5994 3.39313 -2.42739 0
M  V30 939 H 94.2294 2.91227 -1.39236 0
M  V30 940 H 93.2814 1.6231 -3.44034 0
M  V30 941 H 94.5934 2.32466 -4.41318 0
M  V30 942 H 93.7474 4.62865 -3.92226 0
M  V30 943 H 92.4864 3.95799 -2.84947 0
M  V30 944 H 91.4914 2.7071 -4.78535 0
M  V30 945 H 92.7164 3.40856 -5.87362 0
M  V30 946 H 90.6624 4.97923 -4.27093 0
M  V30 947 H 90.5794 4.64006 -5.96853 0
M  V30 948 H 91.8474 5.66096 -5.35869 0
M  V30 949 N 96.0765 1.50051 0.48192 0
M  V30 950 C 97.0395 1.67584 1.5636 0
M  V30 951 C 98.0395 0.546894 1.51214 0
M  V30 952 O 99.2295 0.813725 1.54026 0
M  V30 953 C 96.3615 1.691 2.96003 0
M  V30 954 H 97.5545 2.64078 1.42136 0
M  V30 955 H 95.1075 1.39369 0.707533 0
M  V30 956 H 95.8425 0.742589 3.15684 0
M  V30 957 H 95.6275 2.51105 3.01146 0
M  V30 958 H 97.1175 1.84656 3.74556 0
M  V30 959 N 97.5546 -0.734337 1.39446 0
M  V30 960 C 98.7826 -1.52358 1.39981 0
M  V30 961 C 99.1976 -1.88799 -0.0054975 0
M  V30 962 O 98.5546 -1.54146 -0.976998 0
M  V30 963 C 98.6056 -2.81072 2.27333 0
M  V30 964 O 98.3266 -2.46178 3.62392 0
M  V30 965 C 99.8276 -3.75096 2.36259 0
M  V30 966 H 97.0476 -0.470806 0.478103 0
M  V30 967 H 99.5916 -0.907339 1.83269 0
M  V30 968 H 97.7466 -3.39026 1.87457 0
M  V30 969 H 98.1606 -3.28866 4.08592 0
M  V30 970 H 99.6346 -4.62305 3.01626 0
M  V30 971 H 100.112 -4.16892 1.38194 0
M  V30 972 H 100.718 -3.23061 2.76608 0
M  V30 973 N 99.0327 -1.24633 -0.964593 0
M  V30 974 C 99.9657 -0.984662 -2.05863 0
M  V30 975 C 100.944 0.0826554 -1.6239 0
M  V30 976 O 102.128 -0.0549296 -1.8842 0
M  V30 977 C 99.2547 -0.486529 -3.35187 0
M  V30 978 C 98.3007 -1.54286 -3.97615 0
M  V30 979 S 99.1337 -3.12513 -4.34851 0
M  V30 980 C 100.29 -2.6441 -5.67308 0
M  V30 981 H 100.523 -1.91104 -2.27743 0
M  V30 982 H 98.0557 -1.08052 -1.10291 0
M  V30 983 H 100.014 -0.205757 -4.09984 0
M  V30 984 H 98.6747 0.419186 -3.1129 0
M  V30 985 H 97.8677 -1.14481 -4.90826 0
M  V30 986 H 97.4697 -1.7738 -3.2926 0
M  V30 987 H 99.7617 -2.07416 -6.44969 0
M  V30 988 H 100.705 -3.56222 -6.11973 0
M  V30 989 H 101.113 -2.04734 -5.26065 0
M  V30 990 N 100.511 1.16574 -1.06058 0
M  V30 991 C 101.788 1.83048 -0.689416 0
M  V30 992 C 102.168 1.94122 0.829443 0
M  V30 993 O 101.516 1.48249 1.7388 0
M  V30 994 C 101.726 3.20186 -1.38859 0
M  V30 995 C 103.074 3.95989 -1.53226 0
M  V30 996 O 104.098 3.29696 -1.3483 0
M  V30 997 O 102.957 5.14813 -1.83384 0
M  V30 998 H 100.051 0.790258 -0.243764 0
M  V30 999 H 102.597 1.23797 -1.16071 0
M  V30 1000 H 101.369 3.07146 -2.4244 0
M  V30 1001 H 100.992 3.87112 -0.907216 0
M  V30 1002 N 101.989 0.842826 1.3317 0
M  V30 1003 C 102.952 0.284065 2.27433 0
M  V30 1004 C 103.952 -0.54948 1.5112 0
M  V30 1005 O 105.142 -0.362699 1.70382 0
M  V30 1006 C 102.274 -0.599384 3.35589 0
M  V30 1007 H 103.467 1.11589 2.78366 0
M  V30 1008 H 101.02 0.616221 1.4364 0
M  V30 1009 H 101.755 -1.45349 2.89904 0
M  V30 1010 H 101.54 -0.00291266 3.921 0
M  V30 1011 H 103.03 -0.983488 4.05854 0
M  V30 1012 N 103.467 -1.45747 0.599634 0
M  V30 1013 C 104.715 -2.01893 0.0915472 0
M  V30 1014 C 105.036 -1.47155 -1.27946 0
M  V30 1015 O 104.306 -0.66273 -1.84349 0
M  V30 1016 H 102.886 -0.746363 0.0308524 0
M  V30 1017 H 105.548 -1.78645 0.779237 0
M  V30 1018 H 104.644 -3.1208 0.0353086 0
M  V30 1019 N 104.945 -0.338344 -1.53925 0
M  V30 1020 C 105.892 0.520845 -2.24846 0
M  V30 1021 C 106.862 1.09976 -1.24477 0
M  V30 1022 O 108.047 1.13735 -1.53196 0
M  V30 1023 C 105.187 1.6685 -3.02084 0
M  V30 1024 C 104.3 1.11739 -4.17299 0
M  V30 1025 C 103.435 2.23193 -4.82036 0
M  V30 1026 C 102.474 1.65407 -5.89328 0
M  V30 1027 N 101.611 2.70582 -6.47866 0
M  V30 1028 H 106.451 -0.0904881 -2.97863 0
M  V30 1029 H 103.988 -0.0564282 -1.46992 0
M  V30 1030 H 105.946 2.34407 -3.45122 0
M  V30 1031 H 104.576 2.2509 -2.31375 0
M  V30 1032 H 103.628 0.332919 -3.7894 0
M  V30 1033 H 104.94 0.654677 -4.94485 0
M  V30 1034 H 104.094 2.98626 -5.28117 0
M  V30 1035 H 102.833 2.72807 -4.04262 0
M  V30 1036 H 101.838 0.884779 -5.42634 0
M  V30 1037 H 103.063 1.16652 -6.69006 0
M  V30 1038 H 101.009 3.1946 -5.72959 0
M  V30 1039 H 100.926 2.28917 -7.20509 0
M  V30 1040 H 102.194 3.45799 -6.98601 0
M  V30 1041 N 106.423 1.57458 -0.0668435 0
M  V30 1042 C 107.353 2.15468 0.899764 0
M  V30 1043 C 108.334 1.08042 1.31381 0
M  V30 1044 O 109.519 1.36054 1.38574 0
M  V30 1045 C 106.649 2.71232 2.16911 0
M  V30 1046 C 105.603 3.83781 1.89463 0
M  V30 1047 C 104.929 4.26127 3.22986 0
M  V30 1048 C 106.229 5.08238 1.20381 0
M  V30 1049 H 107.923 2.96488 0.416529 0
M  V30 1050 H 105.469 1.4262 0.198908 0
M  V30 1051 H 107.422 3.10458 2.84945 0
M  V30 1052 H 106.146 1.87426 2.67468 0
M  V30 1053 H 104.805 3.45051 1.23836 0
M  V30 1054 H 104.453 3.39249 3.71374 0
M  V30 1055 H 104.153 5.01993 3.05413 0
M  V30 1056 H 105.677 4.67966 3.92225 0
M  V30 1057 H 107.091 5.44811 1.78475 0
M  V30 1058 H 105.488 5.89349 1.13083 0
M  V30 1059 H 106.558 4.84558 0.182153 0
M  V30 1060 N 107.901 -0.206675 1.56239 0
M  V30 1061 C 109.147 -0.930218 1.80208 0
M  V30 1062 C 109.48 -1.83387 0.638981 0
M  V30 1063 O 108.755 -1.91119 -0.361066 0
M  V30 1064 C 109.038 -1.75641 3.1436 0
M  V30 1065 C 108.891 -0.878257 4.41142 0
M  V30 1066 C 110.21 -2.73129 3.45092 0
M  V30 1067 H 107.329 -0.336742 0.655571 0
M  V30 1068 H 109.971 -0.198222 1.88963 0
M  V30 1069 H 108.121 -2.38048 3.07027 0
M  V30 1070 H 109.793 -0.269787 4.6051 0
M  V30 1071 H 108.036 -0.184385 4.33408 0
M  V30 1072 H 108.707 -1.49106 5.3148 0
M  V30 1073 H 111.183 -2.20856 3.52649 0
M  V30 1074 H 110.059 -3.28028 4.40101 0
M  V30 1075 H 110.32 -3.51606 2.68003 0
M  V30 1076 N 109.379 -1.50304 -0.473955 0
M  V30 1077 C 110.604 -1.65175 -1.25427 0
M  V30 1078 C 111.029 -0.333673 -1.85117 0
M  V30 1079 O 110.387 0.702114 -1.67153 0
M  V30 1080 C 110.435 -2.74295 -2.34082 0
M  V30 1081 O 109.539 -2.35349 -3.38651 0
M  V30 1082 H 108.88 -0.551944 -0.369126 0
M  V30 1083 H 111.41 -1.96662 -0.564364 0
M  V30 1084 H 111.42 -2.97285 -2.79438 0
M  V30 1085 H 110.095 -3.69959 -1.90008 0
M  V30 1086 H 108.672 -2.22794 -2.99027 0
M  V30 1087 N 110.857 0.726932 -1.39834 0
M  V30 1088 C 112.134 1.47902 -1.28001 0
M  V30 1089 C 112.514 2.1083 0.106789 0
M  V30 1090 O 111.862 1.99242 1.11869 0
M  V30 1091 C 112.072 2.52392 -2.41038 0
M  V30 1092 C 113.42 3.18546 -2.80737 0
M  V30 1093 O 114.444 2.62708 -2.40547 0
M  V30 1094 O 113.303 4.19604 -3.50135 0
M  V30 1095 H 110.397 0.657163 -0.502062 0
M  V30 1096 H 112.943 0.760071 -1.51727 0
M  V30 1097 H 111.715 2.04329 -3.33715 0
M  V30 1098 H 111.338 3.31837 -2.19021 0
M  V30 1099 N 112.336 1.25143 0.95797 0
M  V30 1100 C 113.246 1.06968 2.08794 0
M  V30 1101 C 114.262 0.00773911 1.73998 0
M  V30 1102 O 115.438 0.207972 2.00323 0
M  V30 1103 C 112.503 0.68691 3.39827 0
M  V30 1104 C 111.564 1.82641 3.88511 0
M  V30 1105 C 110.797 1.46181 5.1329 0
M  V30 1106 O 111.02 0.355971 5.69288 0
M  V30 1107 O 109.954 2.29085 5.566 0
M  V30 1108 H 113.78 2.01723 2.27027 0
M  V30 1109 H 111.365 1.04051 1.07209 0
M  V30 1110 H 113.247 0.485417 4.18595 0
M  V30 1111 H 111.922 -0.231417 3.22872 0
M  V30 1112 H 110.829 2.08274 3.10762 0
M  V30 1113 H 112.162 2.72386 4.09959 0
M  V30 1114 N 113.814 -1.1601 1.06675 0
M  V30 1115 C 114.747 -2.1947 0.625168 0
M  V30 1116 C 115.725 -1.58699 -0.354041 0
M  V30 1117 O 116.909 -1.86669 -0.262098 0
M  V30 1118 C 114.036 -3.38598 -0.0829593 0
M  V30 1119 C 113.082 -4.1787 0.853611 0
M  V30 1120 S 113.915 -4.81135 2.35094 0
M  V30 1121 C 115.071 -6.03639 1.65441 0
M  V30 1122 H 115.304 -2.56587 1.50168 0
M  V30 1123 H 112.837 -1.26862 0.880078 0
M  V30 1124 H 114.795 -4.07621 -0.485288 0
M  V30 1125 H 113.456 -2.99839 -0.935716 0
M  V30 1126 H 112.649 -5.03078 0.304755 0
M  V30 1127 H 112.251 -3.54361 1.196 0
M  V30 1128 H 114.543 -6.70632 0.962201 0
M  V30 1129 H 115.486 -6.63081 2.48454 0
M  V30 1130 H 115.894 -5.52965 1.13534 0
M  V30 1131 N 115.292 -0.849877 -1.32721 0
M  V30 1132 C 116.538 -0.451591 -1.97708 0
M  V30 1133 C 116.871 0.989175 -1.6712 0
M  V30 1134 O 116.146 1.69334 -0.956891 0
M  V30 1135 C 116.429 -0.685598 -3.53513 0
M  V30 1136 C 116.282 -2.17444 -3.93749 0
M  V30 1137 C 117.601 -0.138874 -4.39881 0
M  V30 1138 H 114.72 -0.16555 -0.718166 0
M  V30 1139 H 117.362 -1.06742 -1.57182 0
M  V30 1140 H 115.512 -0.161416 -3.88165 0
M  V30 1141 H 117.184 -2.76433 -3.693 0
M  V30 1142 H 115.427 -2.65476 -3.43081 0
M  V30 1143 H 116.098 -2.28888 -5.02309 0
M  V30 1144 H 118.574 -0.587068 -4.11938 0
M  V30 1145 H 117.45 -0.332213 -5.47894 0
M  V30 1146 H 117.711 0.95806 -4.31594 0
M  V30 1147 N 116.77 1.45427 -0.607355 0
M  V30 1148 C 118.016 2.0254 -0.102607 0
M  V30 1149 C 118.349 1.47478 1.26348 0
M  V30 1150 O 117.624 0.64939 1.83339 0
M  V30 1151 C 117.907 3.60044 -0.0634347 0
M  V30 1152 C 117.76 4.2544 -1.46017 0
M  V30 1153 C 119.079 4.35646 0.624514 0
M  V30 1154 H 116.198 0.73598 -0.0387607 0
M  V30 1155 H 118.84 1.73284 -0.779282 0
M  V30 1156 H 116.99 3.85101 0.512808 0
M  V30 1157 H 118.662 4.11569 -2.08347 0
M  V30 1158 H 116.905 3.83849 -2.02094 0
M  V30 1159 H 117.576 5.34342 -1.385 0
M  V30 1160 H 120.052 4.15882 0.134723 0
M  V30 1161 H 118.928 5.45376 0.621028 0
M  V30 1162 H 119.189 4.08501 1.69055 0
M  V30 1163 N 118.248 0.346503 1.53744 0
M  V30 1164 C 119.158 -0.517293 2.28826 0
M  V30 1165 C 120.174 -1.10935 1.3405 0
M  V30 1166 O 121.35 -1.1244 1.6709 0
M  V30 1167 C 118.415 -1.65098 3.04866 0
M  V30 1168 C 117.476 -1.0884 4.15274 0
M  V30 1169 C 116.709 -2.16806 4.87679 0
M  V30 1170 O 116.932 -3.3758 4.59778 0
M  V30 1171 O 115.866 -1.80934 5.74061 0
M  V30 1172 H 119.692 0.0931396 3.03557 0
M  V30 1173 H 117.277 0.111458 1.48984 0
M  V30 1174 H 119.159 -2.31053 3.5241 0
M  V30 1175 H 117.834 -2.24717 2.32989 0
M  V30 1176 H 116.741 -0.3933 3.72027 0
M  V30 1177 H 118.074 -0.537036 4.89261 0
M  V30 1178 N 119.726 -1.57421 0.075193 0
M  V30 1179 C 120.656 -2.15942 -0.888324 0
M  V30 1180 C 121.637 -1.08737 -1.30806 0
M  V30 1181 O 122.822 -1.36787 -1.37851 0
M  V30 1182 C 119.952 -2.72379 -2.1547 0
M  V30 1183 C 118.906 -3.8478 -1.87425 0
M  V30 1184 C 118.232 -4.27834 -3.20721 0
M  V30 1185 C 119.532 -5.08869 -1.17684 0
M  V30 1186 H 121.226 -2.96705 -0.400799 0
M  V30 1187 H 118.772 -1.42723 -0.191342 0
M  V30 1188 H 120.725 -3.11965 -2.83295 0
M  V30 1189 H 119.449 -1.88841 -2.6647 0
M  V30 1190 H 118.108 -3.45703 -1.22004 0
M  V30 1191 H 117.756 -3.41214 -3.6957 0
M  V30 1192 H 117.456 -5.03605 -3.02746 0
M  V30 1193 H 118.98 -4.70039 -3.89738 0
M  V30 1194 H 120.394 -5.4575 -1.75584 0
M  V30 1195 H 118.791 -5.8994 -1.09956 0
M  V30 1196 H 119.861 -4.84648 -0.156453 0
M  V30 1197 N 121.204 0.198386 -1.56346 0
M  V30 1198 C 122.453 0.917451 -1.79627 0
M  V30 1199 C 122.766 1.8456 -0.64784 0
M  V30 1200 O 123.972 2.60504 -0.764859 0
M  V30 1201 C 122.428 1.68175 -3.18191 0
M  V30 1202 C 122.036 0.798589 -4.40825 0
M  V30 1203 C 123.78 2.39065 -3.50782 0
M  V30 1204 C 121.687 1.56157 -5.70411 0
M  V30 1205 H 120.617 0.346317 -0.669762 0
M  V30 1206 H 123.268 0.170801 -1.82703 0
M  V30 1207 H 121.65 2.47216 -3.09354 0
M  V30 1208 H 122.824 0.0470665 -4.60776 0
M  V30 1209 H 121.139 0.200686 -4.15916 0
M  V30 1210 H 123.736 2.96692 -4.44835 0
M  V30 1211 H 124.079 3.13091 -2.74371 0
M  V30 1212 H 124.612 1.66993 -3.61052 0
M  V30 1213 H 121.351 0.864142 -6.49779 0
M  V30 1214 H 120.871 2.2871 -5.54483 0
M  V30 1215 H 122.55 2.11622 -6.11412 0
M  V30 1216 N 122.682 1.50554 0.465978 0
M  V30 1217 C 123.592 1.72585 1.58907 0
M  V30 1218 C 124.608 0.60911 1.6299 0
M  V30 1219 O 125.784 0.88804 1.80765 0
M  V30 1220 C 122.849 1.81995 2.95091 0
M  V30 1221 C 121.91 3.05751 3.01355 0
M  V30 1222 C 121.143 3.14702 4.31043 0
M  V30 1223 O 121.366 2.30313 5.21835 0
M  V30 1224 O 120.3 4.07468 4.43005 0
M  V30 1225 H 124.126 2.67799 1.43239 0
M  V30 1226 H 121.711 1.34711 0.646013 0
M  V30 1227 H 123.593 1.90335 3.75966 0
M  V30 1228 H 122.268 0.899659 3.10947 0
M  V30 1229 H 121.175 3.02908 2.19539 0
M  V30 1230 H 122.508 3.97375 2.90437 0
M  V30 1231 N 124.16 -0.719506 1.40217 0
M  V30 1232 C 125.107 -1.83359 1.40172 0
M  V30 1233 C 126.077 -1.64065 0.259206 0
M  V30 1234 O 127.262 -1.85254 0.456677 0
M  V30 1235 C 124.402 -3.2103 1.26624 0
M  V30 1236 C 123.515 -3.51923 2.50548 0
M  V30 1237 C 122.65 -4.79079 2.29471 0
M  V30 1238 C 121.689 -5.02863 3.48992 0
M  V30 1239 N 120.826 -6.2123 3.27135 0
M  V30 1240 H 125.666 -1.82733 2.35399 0
M  V30 1241 H 123.203 -0.892688 1.16917 0
M  V30 1242 H 125.161 -4.00524 1.16776 0
M  V30 1243 H 123.791 -3.20895 0.350176 0
M  V30 1244 H 122.843 -2.67014 2.70939 0
M  V30 1245 H 124.155 -3.6541 3.39525 0
M  V30 1246 H 123.309 -5.66582 2.16955 0
M  V30 1247 H 122.048 -4.67794 1.37913 0
M  V30 1248 H 121.053 -4.13816 3.6199 0
M  V30 1249 H 122.278 -5.16023 4.41472 0
M  V30 1250 H 120.224 -6.11204 2.38256 0
M  V30 1251 H 120.141 -6.35375 4.09675 0
M  V30 1252 H 121.409 -7.11532 3.18344 0
M  V30 1253 N 125.638 -1.25649 -0.95132 0
M  V30 1254 C 126.586 -1.06118 -2.06982 0
M  V30 1255 C 127.58 0.00889169 -1.69398 0
M  V30 1256 O 128.786 -0.146988 -1.79399 0
M  V30 1257 H 125.161 -0.326248 -0.677544 0
M  V30 1258 H 127.132 -2.00932 -2.2061 0
M  V30 1259 C 125.881 -0.700145 -3.40578 0
M  V30 1260 H 125.204 -1.51537 -3.69968 0
M  V30 1261 H 126.644 -0.603211 -4.19687 0
M  V30 1262 C 125.103 0.59403 -3.31622 0
M  V30 1263 O 125.633 1.63522 -3.66911 0
M  V30 1264 N 123.839 0.58089 -2.84735 0
M  V30 1265 H 123.386 -0.266783 -2.56215 0
M  V30 1266 H 123.344 1.44695 -2.79125 0
M  V30 1267 N 127.117 1.15442 -1.07289 0
M  V30 1268 C 128.047 2.22312 -0.714107 0
M  V30 1269 C 129.028 1.67467 0.298155 0
M  V30 1270 O 130.213 1.93445 0.171048 0
M  V30 1271 C 127.343 3.47124 -0.110448 0
M  V30 1272 C 126.297 4.14926 -1.04979 0
M  V30 1273 C 125.623 5.33807 -0.308924 0
M  V30 1274 C 126.923 4.64762 -2.38314 0
M  V30 1275 H 128.617 2.5258 -1.6076 0
M  V30 1276 H 126.163 1.21404 -0.77441 0
M  V30 1277 H 128.116 4.21124 0.152482 0
M  V30 1278 H 126.84 3.16187 0.81812 0
M  V30 1279 H 125.499 3.42866 -1.29764 0
M  V30 1280 H 125.147 4.99126 0.623084 0
M  V30 1281 H 124.847 5.80113 -0.935036 0
M  V30 1282 H 126.371 6.10576 -0.0537771 0
M  V30 1283 H 127.785 5.30292 -2.1786 0
M  V30 1284 H 126.182 5.21728 -2.96514 0
M  V30 1285 H 127.252 3.80434 -3.00663 0
M  V30 1286 N 128.595 0.856903 1.32268 0
M  V30 1287 C 129.505 0.306131 2.32594 0
M  V30 1288 C 130.521 -0.577209 1.64147 0
M  V30 1289 O 131.697 -0.477043 1.95669 0
M  V30 1290 C 128.762 -0.494561 3.43154 0
M  V30 1291 C 127.823 0.415186 4.27288 0
M  V30 1292 C 127.056 -0.347387 5.32568 0
M  V30 1293 O 127.279 -1.57708 5.48165 0
M  V30 1294 O 126.213 0.287982 6.01211 0
M  V30 1295 H 130.039 1.13737 2.81598 0
M  V30 1296 H 127.624 0.619902 1.35932 0
M  V30 1297 H 129.506 -0.948944 4.10576 0
M  V30 1298 H 128.181 -1.30257 2.96336 0
M  V30 1299 H 127.088 0.917793 3.62667 0
M  V30 1300 H 128.421 1.18844 4.77637 0
M  V30 1301 N 130.073 -1.45103 0.615059 0
M  V30 1302 C 131.301 -2.06553 0.11977 0
M  V30 1303 C 131.716 -1.45842 -1.19898 0
M  V30 1304 O 131.073 -0.575325 -1.73194 0
M  V30 1305 C 131.124 -3.61495 -0.018364 0
M  V30 1306 O 130.845 -4.19942 1.24822 0
M  V30 1307 C 132.346 -4.39947 -0.544237 0
M  V30 1308 H 129.566 -0.667096 0.0722739 0
M  V30 1309 H 132.11 -1.8623 0.84491 0
M  V30 1310 H 130.265 -3.81135 -0.693865 0
M  V30 1311 H 130.679 -5.13204 1.0827 0
M  V30 1312 H 132.153 -5.48838 -0.589953 0
M  V30 1313 H 132.63 -4.10255 -1.56805 0
M  V30 1314 H 133.236 -4.25188 0.0974703 0
M  V30 1315 N 131.551 -0.354651 -1.53558 0
M  V30 1316 C 132.962 0.126902 -1.86268 0
M  V30 1317 C 133.313 1.49075 -1.27558 0
M  V30 1318 O 132.438 2.08105 -0.5934 0
M  V30 1319 C 133.033 0.237046 -3.3797 0
M  V30 1320 C 131.592 0.662842 -3.70518 0
M  V30 1321 C 130.739 -0.196652 -2.76602 0
M  V30 1322 H 133.69 -0.573849 -1.47962 0
M  V30 1323 H 133.711 1.06259 -3.65362 0
M  V30 1324 H 133.223 -0.755725 -3.80671 0
M  V30 1325 H 131.324 1.66424 -3.33367 0
M  V30 1326 H 131.437 0.445034 -4.77029 0
M  V30 1327 H 129.801 0.332763 -2.52517 0
M  V30 1328 H 130.584 -1.18676 -3.22135 0
M  V30 1329 N 133.029 1.57378 -0.0835403 0
M  V30 1330 C 133.959 2.1641 0.87686 0
M  V30 1331 C 134.94 1.09429 1.30228 0
M  V30 1332 O 136.125 1.37516 1.37124 0
M  V30 1333 C 133.255 2.73517 2.14022 0
M  V30 1334 C 132.209 3.85769 1.85381 0
M  V30 1335 C 131.535 4.29529 3.18448 0
M  V30 1336 C 132.835 5.09486 1.14984 0
M  V30 1337 H 134.529 2.96914 0.385059 0
M  V30 1338 H 132.075 1.42823 0.18377 0
M  V30 1339 H 134.028 3.13463 2.81636 0
M  V30 1340 H 132.752 1.90252 2.65465 0
M  V30 1341 H 131.411 3.46345 1.20169 0
M  V30 1342 H 131.059 3.43169 3.67755 0
M  V30 1343 H 130.759 5.05204 3.00071 0
M  V30 1344 H 132.283 4.72099 3.8724 0
M  V30 1345 H 133.697 5.46674 1.72687 0
M  V30 1346 H 132.094 5.90515 1.06826 0
M  V30 1347 H 133.164 4.84724 0.130749 0
M  V30 1348 N 134.507 -0.190092 1.56449 0
M  V30 1349 C 135.747 -0.916414 1.82705 0
M  V30 1350 C 136.111 -1.80235 0.661763 0
M  V30 1351 O 137.312 -2.56484 0.80433 0
M  V30 1352 C 135.583 -1.70691 3.14005 0
M  V30 1353 S 137.142 -2.48457 3.61683 0
M  V30 1354 H 133.96 -0.307281 0.64117 0
M  V30 1355 H 136.562 -0.179433 1.94675 0
M  V30 1356 H 135.266 -1.04677 3.96826 0
M  V30 1357 H 134.797 -2.48562 3.04927 0
M  V30 1358 H 136.812 -3.72756 3.27517 0
M  V30 1359 N 135.985 -1.50799 -0.457987 0
M  V30 1360 C 136.932 -1.70617 -1.5543 0
M  V30 1361 C 137.902 -0.547562 -1.56815 0
M  V30 1362 O 139.087 -0.779647 -1.74144 0
M  V30 1363 C 136.227 -1.81831 -2.93311 0
M  V30 1364 C 135.34 -3.09278 -3.01615 0
M  V30 1365 C 134.475 -3.11209 -4.30491 0
M  V30 1366 C 133.514 -4.33055 -4.32585 0
M  V30 1367 N 132.651 -4.32652 -5.52952 0
M  V30 1368 H 137.491 -2.64207 -1.37836 0
M  V30 1369 H 135.028 -1.30959 -0.669937 0
M  V30 1370 H 136.986 -1.86314 -3.73287 0
M  V30 1371 H 135.616 -0.916685 -3.0951 0
M  V30 1372 H 134.668 -3.14203 -2.1443 0
M  V30 1373 H 135.98 -3.99233 -2.99022 0
M  V30 1374 H 135.134 -3.14494 -5.18824 0
M  V30 1375 H 133.873 -2.19106 -4.35711 0
M  V30 1376 H 132.878 -4.29969 -3.42647 0
M  V30 1377 H 134.103 -5.264 -4.29046 0
M  V30 1378 H 132.049 -3.43409 -5.58933 0
M  V30 1379 H 131.966 -5.16392 -5.52155 0
M  V30 1380 H 133.234 -4.40101 -6.43375 0
M  V30 1381 N 137.463 0.71206 -1.40597 0
M  V30 1382 C 138.411 1.84746 -1.41321 0
M  V30 1383 C 139.405 1.66842 -0.293268 0
M  V30 1384 O 140.611 1.73904 -0.464481 0
M  V30 1385 H 136.986 0.608522 -0.441819 0
M  V30 1386 H 138.957 1.81252 -2.37045 0
M  V30 1387 C 137.706 3.22638 -1.29614 0
M  V30 1388 H 137.029 3.37023 -2.15071 0
M  V30 1389 H 138.469 4.02209 -1.3418 0
M  V30 1390 C 136.928 3.36899 -0.00673121 0
M  V30 1391 O 137.458 3.90186 0.954859 0
M  V30 1392 N 135.664 2.9053 0.0639327 0
M  V30 1393 H 135.211 2.47353 -0.719311 0
M  V30 1394 H 135.169 3.0045 0.926118 0
M  V30 1395 N 138.941 1.26152 0.944643 0
M  V30 1396 C 140.189 1.11271 1.6871 0
M  V30 1397 C 140.51 -0.345166 1.91921 0
M  V30 1398 O 139.78 -1.24387 1.51343 0
M  V30 1399 H 138.36 0.408783 0.625224 0
M  V30 1400 H 141.022 1.58427 1.1352 0
M  V30 1401 H 140.118 1.62879 2.66227 0
M  V30 1402 N 140.419 -1.14872 1.07899 0
M  V30 1403 C 141.666 -1.85789 0.805532 0
M  V30 1404 C 141.994 -1.82649 -0.668561 0
M  V30 1405 O 141.249 -1.24858 -1.50695 0
M  V30 1406 C 141.548 -3.34223 1.26609 0
M  V30 1407 C 141.214 -3.57555 2.74709 0
M  V30 1408 C 139.876 -3.63631 3.1516 0
M  V30 1409 C 142.228 -3.66803 3.70277 0
M  V30 1410 C 139.556 -3.76473 4.49983 0
M  V30 1411 C 141.908 -3.8117 5.04869 0
M  V30 1412 C 140.572 -3.85494 5.44932 0
M  V30 1413 H 139.842 -0.679849 0.294765 0
M  V30 1414 H 142.489 -1.3572 1.35101 0
M  V30 1415 H 140.794 -3.86536 0.640103 0
M  V30 1416 H 142.491 -3.87511 1.03132 0
M  V30 1417 H 139.081 -3.5347 2.42398 0
M  V30 1418 H 143.265 -3.61404 3.40149 0
M  V30 1419 H 138.521 -3.7808 4.80484 0
M  V30 1420 H 142.695 -3.87268 5.78789 0
M  V30 1421 H 140.322 -3.95197 6.49403 0
M  V30 1422 N 141.898 -0.863906 -1.31812 0
M  V30 1423 C 142.828 -0.330843 -2.31144 0
M  V30 1424 C 143.809 0.575005 -1.60087 0
M  V30 1425 O 144.994 0.493304 -1.8783 0
M  V30 1426 C 142.124 0.47374 -3.44054 0
M  V30 1427 C 141.078 -0.338481 -4.26659 0
M  V30 1428 C 140.404 0.591412 -5.31419 0
M  V30 1429 C 141.704 -1.56926 -4.98168 0
M  V30 1430 H 143.398 -1.16086 -2.75979 0
M  V30 1431 H 140.944 -0.559657 -1.32679 0
M  V30 1432 H 142.897 0.857143 -4.12591 0
M  V30 1433 H 141.621 1.33721 -2.9797 0
M  V30 1434 H 140.28 -0.703754 -3.59782 0
M  V30 1435 H 139.928 1.45199 -4.81587 0
M  V30 1436 H 139.628 0.0519022 -5.87577 0
M  V30 1437 H 141.152 0.97179 -6.02817 0
M  V30 1438 H 142.566 -1.25764 -5.59336 0
M  V30 1439 H 140.963 -2.04739 -5.64094 0
M  V30 1440 H 142.033 -2.32544 -4.25501 0
M  V30 1441 N 143.376 1.44774 -0.622745 0
M  V30 1442 C 144.306 2.33382 0.0741861 0
M  V30 1443 C 145.287 1.47719 0.843387 0
M  V30 1444 O 146.472 1.76458 0.810934 0
M  V30 1445 C 143.602 3.30663 1.06204 0
M  V30 1446 C 142.556 4.26079 0.405037 0
M  V30 1447 C 141.882 5.13165 1.5022 0
M  V30 1448 C 143.182 5.1781 -0.683414 0
M  V30 1449 H 144.876 2.91905 -0.665713 0
M  V30 1450 H 142.422 1.40363 -0.321587 0
M  V30 1451 H 144.375 3.9153 1.55827 0
M  V30 1452 H 143.099 2.70331 1.83272 0
M  V30 1453 H 141.758 3.66532 -0.0704683 0
M  V30 1454 H 141.406 4.49191 2.26355 0
M  V30 1455 H 141.106 5.77812 1.06803 0
M  V30 1456 H 142.63 5.76902 2.00041 0
M  V30 1457 H 144.044 5.72661 -0.270631 0
M  V30 1458 H 142.441 5.91015 -1.04023 0
M  V30 1459 H 143.511 4.59326 -1.55395 0
M  V30 1460 N 144.854 0.36279 1.53368 0
M  V30 1461 C 146.131 -0.284021 1.93527 0
M  V30 1462 C 146.511 -1.66628 1.29608 0
M  V30 1463 O 145.859 -2.23942 0.45413 0
M  V30 1464 C 146.069 -0.337028 3.47369 0
M  V30 1465 C 147.417 -0.578708 4.20638 0
M  V30 1466 O 148.441 -0.418352 3.53735 0
M  V30 1467 O 147.3 -0.89074 5.39192 0
M  V30 1468 H 144.394 -0.169743 0.809393 0
M  V30 1469 H 146.94 0.41537 1.64538 0
M  V30 1470 H 145.712 0.632217 3.86159 0
M  V30 1471 H 145.335 -1.08243 3.82582 0
M  V30 1472 N 146.332 -1.57332 0.0918853 0
M  V30 1473 C 147.58 -1.93853 -0.571446 0
M  V30 1474 C 147.901 -0.974212 -1.6892 0
M  V30 1475 O 147.171 -0.0257254 -1.95883 0
M  V30 1476 H 145.751 -0.715666 -0.214082 0
M  V30 1477 H 148.413 -1.94287 0.154464 0
M  V30 1478 H 147.509 -2.96191 -0.983729 0
M  V30 1479 N 147.81 0.181792 -1.56548 0
M  V30 1480 C 149.057 0.900097 -1.81396 0
M  V30 1481 C 149.385 1.82695 -0.667281 0
M  V30 1482 O 148.64 1.92614 0.346146 0
M  V30 1483 C 148.939 1.73728 -3.12335 0
M  V30 1484 C 148.605 0.960255 -4.40556 0
M  V30 1485 C 147.267 0.745766 -4.75386 0
M  V30 1486 C 149.619 0.414477 -5.19549 0
M  V30 1487 C 146.947 -0.0257694 -5.86694 0
M  V30 1488 C 149.299 -0.343916 -6.31664 0
M  V30 1489 C 147.963 -0.569301 -6.65068 0
M  V30 1490 H 147.233 0.329369 -0.663775 0
M  V30 1491 H 149.88 0.165647 -1.90782 0
M  V30 1492 H 148.185 2.54081 -2.98245 0
M  V30 1493 H 149.882 2.29591 -3.28769 0
M  V30 1494 H 146.472 1.13746 -4.13231 0
M  V30 1495 H 150.656 0.567554 -4.93044 0
M  V30 1496 H 145.912 -0.210233 -6.11038 0
M  V30 1497 H 150.086 -0.774133 -6.92084 0
M  V30 1498 H 147.713 -1.16903 -7.51158 0
M  V30 1499 N 149.288 1.51039 0.449983 0
M  V30 1500 C 150.699 1.557 1.03026 0
M  V30 1501 C 151.05 0.372939 1.92623 0
M  V30 1502 O 150.175 -0.511771 2.10261 0
M  V30 1503 C 150.77 2.82171 1.87523 0
M  V30 1504 C 149.329 2.89444 2.40622 0
M  V30 1505 C 148.476 2.50228 1.19504 0
M  V30 1506 H 151.427 1.56999 0.231745 0
M  V30 1507 H 151.448 2.65219 2.72835 0
M  V30 1508 H 150.96 3.68331 1.22286 0
M  V30 1509 H 149.061 2.07685 3.0935 0
M  V30 1510 H 149.174 3.92816 2.74285 0
M  V30 1511 H 147.538 2.03139 1.53644 0
M  V30 1512 H 148.321 3.38719 0.558972 0
M  V30 1513 N 150.766 -0.704594 1.40972 0
M  V30 1514 C 152.182 -1.01406 1.23244 0
M  V30 1515 C 152.382 -2.01169 0.115399 0
M  V30 1516 O 151.438 -2.47021 -0.523147 0
M  V30 1517 C 152.751 -1.54728 2.57836 0
M  V30 1518 C 154.299 -1.66658 2.64942 0
M  V30 1519 C 154.774 -2.23383 3.9983 0
M  V30 1520 N 156.265 -2.30756 4.01629 0
M  V30 1521 C 157 -2.75655 5.02794 0
M  V30 1522 N 156.496 -3.20225 6.14352 0
M  V30 1523 N 158.289 -2.75138 4.90159 0
M  V30 1524 H 150.44 -0.0435285 2.12355 0
M  V30 1525 H 152.703 -0.0818951 0.944456 0
M  V30 1526 H 152.409 -0.888832 3.40283 0
M  V30 1527 H 152.283 -2.53084 2.79693 0
M  V30 1528 H 154.67 -2.31617 1.8286 0
M  V30 1529 H 154.751 -0.668717 2.46904 0
M  V30 1530 H 154.395 -1.59043 4.82357 0
M  V30 1531 H 154.325 -3.23904 4.15203 0
M  V30 1532 H 156.816 -1.99291 3.21079 0
M  V30 1533 H 157.129 -3.53084 6.87424 0
M  V30 1534 H 155.474 -3.18156 6.17901 0
M  V30 1535 H 158.665 -2.39661 4.02095 0
M  V30 1536 H 158.838 -3.09812 5.6914 0
M  V30 1537 N 152.244 -1.26651 -0.937939 0
M  V30 1538 C 153.472 -1.15173 -1.7188 0
M  V30 1539 C 153.887 0.292668 -1.86518 0
M  V30 1540 O 153.244 1.20014 -1.37488 0
M  V30 1541 C 153.295 -1.81925 -3.12387 0
M  V30 1542 O 153.016 -3.2072 -2.98446 0
M  V30 1543 C 154.517 -1.76442 -4.06673 0
M  V30 1544 H 151.737 -0.400911 -0.538063 0
M  V30 1545 H 154.281 -1.67332 -1.1756 0
M  V30 1546 H 152.436 -1.33696 -3.63599 0
M  V30 1547 H 152.85 -3.53802 -3.872 0
M  V30 1548 H 154.324 -2.27781 -5.02812 0
M  V30 1549 H 154.801 -0.731608 -4.33064 0
M  V30 1550 H 155.407 -2.24238 -3.61382 0
M  V30 1551 N 153.722 1.14298 -1.08507 0
M  V30 1552 C 154.968 1.85633 -0.816581 0
M  V30 1553 C 155.301 1.82784 0.656021 0
M  V30 1554 O 154.576 1.25926 1.48233 0
M  V30 1555 C 154.859 3.34223 -1.34041 0
M  V30 1556 C 154.712 3.45639 -2.87843 0
M  V30 1557 C 156.031 4.29356 -0.9665 0
M  V30 1558 H 153.15 0.67402 -0.298104 0
M  V30 1559 H 155.792 1.34214 -1.34487 0
M  V30 1560 H 153.942 3.78144 -0.89104 0
M  V30 1561 H 155.614 3.10498 -3.41158 0
M  V30 1562 H 153.857 2.86817 -3.25451 0
M  V30 1563 H 154.528 4.50089 -3.19569 0
M  V30 1564 H 157.004 3.93457 -1.35391 0
M  V30 1565 H 155.88 5.3178 -1.3602 0
M  V30 1566 H 156.141 4.41919 0.126362 0
M  V30 1567 N 155.201 0.870884 1.31352 0
M  V30 1568 C 156.617 0.562932 1.49343 0
M  V30 1569 C 156.817 -0.902725 1.80148 0
M  V30 1570 O 155.873 -1.68484 1.88067 0
M  V30 1571 C 157.186 1.46393 2.62659 0
M  V30 1572 C 158.734 1.46607 2.76542 0
M  V30 1573 C 159.209 2.35266 3.92955 0
M  V30 1574 N 160.7 2.33151 4.00243 0
M  V30 1575 C 161.435 2.98471 4.89594 0
M  V30 1576 N 160.931 3.72964 5.8384 0
M  V30 1577 N 162.724 2.87775 4.82848 0
M  V30 1578 H 154.875 1.81923 1.09626 0
M  V30 1579 H 157.138 0.777934 0.541777 0
M  V30 1580 H 156.844 2.50689 2.46674 0
M  V30 1581 H 156.718 1.16314 3.58819 0
M  V30 1582 H 159.105 0.43069 2.9194 0
M  V30 1583 H 159.186 1.8071 1.81046 0
M  V30 1584 H 158.83 3.38881 3.78315 0
M  V30 1585 H 158.76 1.98487 4.87761 0
M  V30 1586 H 161.251 1.79006 3.32814 0
M  V30 1587 H 161.564 4.19932 6.4875 0
M  V30 1588 H 159.909 3.77073 5.83816 0
M  V30 1589 H 163.1 2.29116 4.08195 0
M  V30 1590 H 163.273 3.38961 5.52277 0
M  V30 1591 N 156.679 -1.44442 0.630414 0
M  V30 1592 C 157.611 -2.2892 -0.113347 0
M  V30 1593 C 158.624 -1.41243 -0.80959 0
M  V30 1594 O 159.813 -1.65402 -0.671156 0
M  V30 1595 C 156.913 -3.17594 -1.18266 0
M  V30 1596 C 156.086 -4.33682 -0.569073 0
M  V30 1597 C 155.145 -5.03397 -1.53226 0
M  V30 1598 O 154.171 -5.59438 -1.04967 0
M  V30 1599 N 155.373 -5.04783 -2.86661 0
M  V30 1600 H 158.138 -2.93392 0.611636 0
M  V30 1601 H 155.699 -1.54881 0.471523 0
M  V30 1602 H 157.691 -3.61097 -1.82732 0
M  V30 1603 H 156.261 -2.54876 -1.80988 0
M  V30 1604 H 155.481 -3.9338 0.254187 0
M  V30 1605 H 156.769 -5.08608 -0.139767 0
M  V30 1606 H 156.167 -4.60584 -3.28449 0
M  V30 1607 H 154.724 -5.52077 -3.46489 0
M  V30 1608 N 158.157 -0.370918 -1.53173 0
M  V30 1609 C 159.12 0.460778 -2.24521 0
M  V30 1610 C 160.12 1.00536 -1.25496 0
M  V30 1611 O 161.31 0.890266 -1.49733 0
M  V30 1612 C 158.442 1.64457 -2.98608 0
M  V30 1613 H 159.635 -0.163613 -2.99453 0
M  V30 1614 H 157.188 -0.122699 -1.55818 0
M  V30 1615 H 157.923 2.30691 -2.2793 0
M  V30 1616 H 157.708 1.26099 -3.7127 0
M  V30 1617 H 159.198 2.23384 -3.5283 0
M  V30 1618 N 159.635 1.57281 -0.100228 0
M  V30 1619 C 160.545 2.17833 0.870965 0
M  V30 1620 C 161.561 1.14921 1.30649 0
M  V30 1621 O 162.737 1.47313 1.37335 0
M  V30 1622 C 159.802 2.75085 2.1102 0
M  V30 1623 C 158.863 3.9297 1.72838 0
M  V30 1624 C 158.096 4.47482 2.90854 0
M  V30 1625 O 158.319 4.00922 4.05731 0
M  V30 1626 O 157.253 5.38433 2.69023 0
M  V30 1627 H 161.079 3.0124 0.38575 0
M  V30 1628 H 158.664 1.48881 0.124397 0
M  V30 1629 H 160.546 3.11656 2.83634 0
M  V30 1630 H 159.221 1.94721 2.58584 0
M  V30 1631 H 158.128 3.61201 0.973883 0
M  V30 1632 H 159.461 4.74713 1.30033 0
M  V30 1633 N 161.113 -0.173488 1.56642 0
M  V30 1634 C 162.046 -1.24353 1.91342 0
M  V30 1635 C 163.024 -1.4289 0.775965 0
M  V30 1636 O 164.208 -1.57932 1.02907 0
M  V30 1637 C 161.335 -2.60683 2.16245 0
M  V30 1638 C 160.381 -2.58894 3.38934 0
M  V30 1639 S 161.214 -2.0819 4.93373 0
M  V30 1640 C 162.37 -3.46302 5.21369 0
M  V30 1641 H 162.603 -0.947345 2.81803 0
M  V30 1642 H 160.136 -0.377958 1.49703 0
M  V30 1643 H 162.094 -3.39149 2.31275 0
M  V30 1644 H 160.755 -2.87502 1.26496 0
M  V30 1645 H 159.948 -3.59188 3.53553 0
M  V30 1646 H 159.55 -1.88522 3.2301 0
M  V30 1647 H 161.842 -4.42287 5.13214 0
M  V30 1648 H 162.785 -3.3656 6.23003 0
M  V30 1649 H 163.193 -3.42214 4.48943 0
M  V30 1650 N 162.591 -1.51276 -0.441967 0
M  V30 1651 C 163.521 -1.752 -1.54361 0
M  V30 1652 C 164.502 -0.601682 -1.59103 0
M  V30 1653 O 165.687 -0.843913 -1.74905 0
M  V30 1654 C 162.817 -1.87282 -2.92477 0
M  V30 1655 C 161.771 -3.02687 -3.02596 0
M  V30 1656 C 161.097 -2.99947 -4.42647 0
M  V30 1657 C 162.397 -4.4273 -2.77106 0
M  V30 1658 H 164.091 -2.67442 -1.34592 0
M  V30 1659 H 161.637 -1.28694 -0.646048 0
M  V30 1660 H 163.59 -2.02602 -3.695 0
M  V30 1661 H 162.314 -0.916844 -3.13467 0
M  V30 1662 H 160.973 -2.87065 -2.28012 0
M  V30 1663 H 160.621 -2.02136 -4.60597 0
M  V30 1664 H 160.321 -3.77439 -4.50348 0
M  V30 1665 H 161.845 -3.17354 -5.2165 0
M  V30 1666 H 163.259 -4.58727 -3.43864 0
M  V30 1667 H 161.656 -5.21893 -2.96222 0
M  V30 1668 H 162.726 -4.53087 -1.72744 0
M  V30 1669 N 164.069 0.697108 -1.41344 0
M  V30 1670 C 165.346 1.45154 -1.31109 0
M  V30 1671 C 165.726 2.11009 0.0620449 0
M  V30 1672 O 165.074 2.01571 1.07618 0
M  V30 1673 C 165.284 2.47223 -2.46337 0
M  V30 1674 C 166.632 3.1252 -2.87431 0
M  V30 1675 O 167.656 2.57547 -2.46065 0
M  V30 1676 O 166.515 4.12083 -3.58957 0
M  V30 1677 H 163.609 0.646365 -0.515889 0
M  V30 1678 H 166.155 0.727716 -1.53305 0
M  V30 1679 H 164.927 1.97204 -3.37974 0
M  V30 1680 H 164.55 3.27116 -2.2601 0
M  V30 1681 N 165.547 1.27147 0.931209 0
M  V30 1682 C 166.824 1.0401 1.65654 0
M  V30 1683 C 167.204 -0.426297 2.06751 0
M  V30 1684 O 166.552 -1.40879 1.79904 0
M  V30 1685 C 166.762 1.99834 2.86125 0
M  V30 1686 C 168.11 2.29007 3.57549 0
M  V30 1687 O 169.134 1.97779 2.96246 0
M  V30 1688 O 167.993 2.82222 4.67989 0
M  V30 1689 H 165.087 0.396239 0.725895 0
M  V30 1690 H 167.633 1.38397 0.982056 0
M  V30 1691 H 166.405 2.98744 2.52721 0
M  V30 1692 H 166.028 1.65987 3.61295 0
M  V30 1693 N 167.025 -1.13721 1.09112 0
M  V30 1694 C 167.955 -2.21148 0.749385 0
M  V30 1695 C 168.936 -1.6792 -0.271475 0
M  V30 1696 O 170.121 -1.93693 -0.140251 0
M  V30 1697 C 167.251 -3.46905 0.165659 0
M  V30 1698 C 166.205 -4.13203 1.11567 0
M  V30 1699 C 165.531 -5.33248 0.393809 0
M  V30 1700 C 166.831 -4.60912 2.45678 0
M  V30 1701 H 168.525 -2.4999 1.64758 0
M  V30 1702 H 166.071 -1.20156 0.793626 0
M  V30 1703 H 168.024 -4.21313 -0.085466 0
M  V30 1704 H 166.748 -3.17449 -0.767714 0
M  V30 1705 H 165.407 -3.40758 1.35202 0
M  V30 1706 H 165.055 -5.00054 -0.543599 0
M  V30 1707 H 164.755 -5.78552 1.02721 0
M  V30 1708 H 166.279 -6.10413 0.150908 0
M  V30 1709 H 167.693 -5.26759 2.26269 0
M  V30 1710 H 166.09 -5.16944 3.04776 0
M  V30 1711 H 167.16 -3.75603 3.06677 0
M  V30 1712 N 168.503 -0.877838 -1.30888 0
M  V30 1713 C 169.436 -0.283995 -2.26426 0
M  V30 1714 C 170.414 0.591361 -1.51465 0
M  V30 1715 O 171.598 0.54304 -1.80509 0
M  V30 1716 C 168.725 0.597129 -3.33395 0
M  V30 1717 C 167.771 -0.207937 -4.25993 0
M  V30 1718 S 168.604 -1.59158 -5.11301 0
M  V30 1719 C 169.76 -0.716791 -6.21782 0
M  V30 1720 H 169.993 -1.09383 -2.76446 0
M  V30 1721 H 167.526 -0.676828 -1.38775 0
M  V30 1722 H 169.484 1.09978 -3.95493 0
M  V30 1723 H 168.145 1.38099 -2.82113 0
M  V30 1724 H 167.338 0.464163 -5.01858 0
M  V30 1725 H 166.94 -0.642963 -3.68432 0
M  V30 1726 H 169.232 0.0692833 -6.77465 0
M  V30 1727 H 170.175 -1.44682 -6.93161 0
M  V30 1728 H 170.583 -0.280855 -5.63801 0
M  V30 1729 N 169.982 1.44106 -0.638065 0
M  V30 1730 C 170.892 2.34513 0.0637334 0
M  V30 1731 C 171.908 1.53018 0.828346 0
M  V30 1732 O 173.084 1.85723 0.779036 0
M  V30 1733 C 170.149 3.31095 1.02844 0
M  V30 1734 C 169.21 4.28497 0.26244 0
M  V30 1735 C 168.443 5.20465 1.1812 0
M  V30 1736 O 168.666 5.16514 2.42011 0
M  V30 1737 O 167.6 5.98251 0.661774 0
M  V30 1738 H 171.426 2.95989 -0.68003 0
M  V30 1739 H 169.011 1.43994 -0.398252 0
M  V30 1740 H 170.893 3.90526 1.58327 0
M  V30 1741 H 169.568 2.72144 1.7527 0
M  V30 1742 H 168.475 3.72592 -0.335602 0
M  V30 1743 H 169.808 4.90388 -0.421936 0
M  V30 1744 N 171.46 0.379036 1.52974 0
M  V30 1745 C 172.407 -0.461048 2.26148 0
M  V30 1746 C 173.377 -1.06637 1.27349 0
M  V30 1747 O 174.562 -1.09633 1.56157 0
M  V30 1748 C 171.702 -1.58782 3.06402 0
M  V30 1749 C 170.815 -1.00636 4.20115 0
M  V30 1750 C 169.95 -2.10334 4.87784 0
M  V30 1751 C 168.989 -1.49724 5.93506 0
M  V30 1752 N 168.126 -2.5331 6.54812 0
M  V30 1753 H 172.966 0.169429 2.97518 0
M  V30 1754 H 170.503 0.0953806 1.4679 0
M  V30 1755 H 172.461 -2.25174 3.51215 0
M  V30 1756 H 171.091 -2.18876 2.37261 0
M  V30 1757 H 170.143 -0.232332 3.7969 0
M  V30 1758 H 171.455 -0.523343 4.96047 0
M  V30 1759 H 170.609 -2.84519 5.35849 0
M  V30 1760 H 169.348 -2.61992 4.11353 0
M  V30 1761 H 168.353 -0.740598 5.44789 0
M  V30 1762 H 169.578 -0.988732 6.71864 0
M  V30 1763 H 167.524 -3.04156 5.81227 0
M  V30 1764 H 167.441 -2.09734 7.26325 0
M  V30 1765 H 168.709 -3.27155 7.07524 0
M  V30 1766 N 172.938 -1.57226 0.108567 0
M  V30 1767 C 174.354 -1.5766 -0.248058 0
M  V30 1768 C 174.554 -1.12063 -1.67464 0
M  V30 1769 O 173.61 -0.803236 -2.39383 0
M  V30 1770 C 174.923 -3.0069 -0.0242287 0
M  V30 1771 C 176.471 -3.12868 -0.0909372 0
M  V30 1772 C 176.946 -4.57879 0.105067 0
M  V30 1773 N 178.437 -4.63172 0.0506846 0
M  V30 1774 C 179.172 -5.73126 0.177396 0
M  V30 1775 N 178.668 -6.91866 0.359696 0
M  V30 1776 N 180.461 -5.61977 0.117709 0
M  V30 1777 H 172.612 -1.85169 1.04049 0
M  V30 1778 H 174.875 -0.85529 0.40888 0
M  V30 1779 H 174.581 -3.38299 0.961604 0
M  V30 1780 H 174.455 -3.6945 -0.76068 0
M  V30 1781 H 176.842 -2.75124 -1.06729 0
M  V30 1782 H 176.923 -2.46672 0.677225 0
M  V30 1783 H 176.567 -4.96321 1.07834 0
M  V30 1784 H 176.497 -5.22153 -0.682954 0
M  V30 1785 H 178.988 -3.778 -0.0871266 0
M  V30 1786 H 179.301 -7.71503 0.447529 0
M  V30 1787 H 177.646 -6.93874 0.395536 0
M  V30 1788 H 180.837 -4.68094 -0.0236741 0
M  V30 1789 H 181.01 -6.47627 0.219905 0
M  V30 1790 N 174.416 0.165178 -1.56732 0
M  V30 1791 C 175.363 1.2044 -1.96883 0
M  V30 1792 C 176.333 1.43664 -0.833657 0
M  V30 1793 O 177.518 1.56302 -1.09427 0
M  V30 1794 C 174.658 2.53727 -2.33916 0
M  V30 1795 C 173.771 2.3783 -3.6064 0
M  V30 1796 C 172.906 3.64026 -3.86857 0
M  V30 1797 C 171.945 3.43088 -5.06909 0
M  V30 1798 N 171.082 4.61369 -5.29229 0
M  V30 1799 H 175.922 0.854996 -2.85471 0
M  V30 1800 H 173.459 0.41076 -1.41249 0
M  V30 1801 H 175.417 3.31419 -2.53411 0
M  V30 1802 H 174.047 2.8665 -1.48431 0
M  V30 1803 H 173.099 1.51282 -3.49024 0
M  V30 1804 H 174.411 2.18308 -4.4849 0
M  V30 1805 H 173.565 4.50152 -4.06753 0
M  V30 1806 H 172.304 3.86533 -2.97394 0
M  V30 1807 H 171.309 2.55349 -4.86906 0
M  V30 1808 H 172.534 3.21997 -5.97909 0
M  V30 1809 H 170.48 4.84084 -4.42718 0
M  V30 1810 H 170.397 4.44783 -6.11313 0
M  V30 1811 H 171.665 5.48761 -5.53608 0
M  V30 1812 N 175.894 1.51508 0.433938 0
M  V30 1813 C 176.804 1.75917 1.5521 0
M  V30 1814 C 177.82 0.643545 1.61662 0
M  V30 1815 O 178.996 0.926183 1.7884 0
M  V30 1816 C 176.061 1.88213 2.91164 0
M  V30 1817 C 175.122 3.12074 2.94802 0
M  V30 1818 C 174.355 3.23774 4.24271 0
M  V30 1819 O 174.578 2.4133 5.16833 0
M  V30 1820 O 173.512 4.16774 4.34262 0
M  V30 1821 H 177.338 2.70777 1.37527 0
M  V30 1822 H 174.923 1.36051 0.617293 0
M  V30 1823 H 176.805 1.98267 3.71845 0
M  V30 1824 H 175.48 0.965413 3.08968 0
M  V30 1825 H 174.387 3.07497 2.13065 0
M  V30 1826 H 175.72 4.03446 2.81943 0
M  V30 1827 N 177.372 -0.689602 1.41712 0
M  V30 1828 C 178.319 -1.80345 1.44029 0
M  V30 1829 C 179.289 -1.63478 0.293948 0
M  V30 1830 O 180.474 -1.84244 0.495869 0
M  V30 1831 C 177.614 -3.18272 1.33405 0
M  V30 1832 C 176.727 -3.46529 2.57956 0
M  V30 1833 C 175.862 -4.74103 2.39582 0
M  V30 1834 C 174.901 -4.95347 3.5958 0
M  V30 1835 N 174.038 -6.14151 3.40239 0
M  V30 1836 H 178.878 -1.77698 2.39222 0
M  V30 1837 H 176.415 -0.867688 1.18784 0
M  V30 1838 H 178.373 -3.97956 1.25246 0
M  V30 1839 H 177.003 -3.2008 0.418164 0
M  V30 1840 H 176.055 -2.61207 2.76542 0
M  V30 1841 H 177.367 -3.58126 3.47199 0
M  V30 1842 H 176.521 -5.61853 2.28924 0
M  V30 1843 H 175.26 -4.64763 1.47805 0
M  V30 1844 H 174.265 -4.06044 3.70686 0
M  V30 1845 H 175.49 -5.06542 4.52318 0
M  V30 1846 H 173.436 -6.06013 2.51167 0
M  V30 1847 H 173.353 -6.26543 4.23061 0
M  V30 1848 H 174.621 -7.04619 3.33365 0
M  V30 1849 N 178.85 -1.27639 -0.924453 0
M  V30 1850 C 179.78 -1.13166 -2.04244 0
M  V30 1851 C 180.761 -0.032256 -1.70069 0
M  V30 1852 O 181.946 -0.207328 -1.9309 0
M  V30 1853 C 179.076 -0.781496 -3.38393 0
M  V30 1854 C 178.03 -1.83449 -3.86692 0
M  V30 1855 C 177.356 -1.33822 -5.17683 0
M  V30 1856 C 178.656 -3.23917 -4.09726 0
M  V30 1857 H 180.35 -2.06689 -2.1661 0
M  V30 1858 H 177.896 -0.995136 -1.04082 0
M  V30 1859 H 179.849 -0.667057 -4.16087 0
M  V30 1860 H 178.573 0.189439 -3.2605 0
M  V30 1861 H 177.232 -1.93789 -3.11193 0
M  V30 1862 H 176.88 -0.35665 -5.01734 0
M  V30 1863 H 176.58 -2.04224 -5.50968 0
M  V30 1864 H 178.104 -1.23679 -5.97943 0
M  V30 1865 H 179.518 -3.16559 -4.77978 0
M  V30 1866 H 177.915 -3.92059 -4.54324 0
M  V30 1867 H 178.985 -3.68729 -3.14908 0
M  V30 1868 N 180.328 1.1314 -1.09713 0
M  V30 1869 C 181.605 1.80762 -0.747302 0
M  V30 1870 C 181.985 1.96663 0.767265 0
M  V30 1871 O 181.333 1.53706 1.69076 0
M  V30 1872 C 181.543 3.15606 -1.48975 0
M  V30 1873 C 182.891 3.90914 -1.65746 0
M  V30 1874 O 183.915 3.25239 -1.45251 0
M  V30 1875 O 182.774 5.08718 -1.9967 0
M  V30 1876 H 179.868 0.782103 -0.268782 0
M  V30 1877 H 182.414 1.20041 -1.19951 0
M  V30 1878 H 181.186 2.99278 -2.52088 0
M  V30 1879 H 180.809 3.84029 -1.02991 0
M  V30 1880 N 181.806 0.884767 1.30421 0
M  V30 1881 C 183.031 0.517288 2.00845 0
M  V30 1882 C 183.456 -0.886779 1.65885 0
M  V30 1883 O 182.814 -1.58768 0.875354 0
M  V30 1884 C 182.862 0.698994 3.5376 0
M  V30 1885 O 181.966 -0.255208 4.1161 0
M  V30 1886 H 181.307 0.203872 0.631927 0
M  V30 1887 H 183.837 1.19225 1.66272 0
M  V30 1888 H 183.847 0.597912 4.03595 0
M  V30 1889 H 182.522 1.72271 3.78544 0
M  V30 1890 H 181.099 -0.10784 3.72744 0
M  V30 1891 N 183.284 -1.43765 0.645699 0
M  V30 1892 C 184.53 -2.02197 0.156271 0
M  V30 1893 C 184.863 -1.50776 -1.22393 0
M  V30 1894 O 184.138 -0.697771 -1.81553 0
M  V30 1895 C 184.421 -3.59749 0.158872 0
M  V30 1896 C 184.274 -4.21419 1.57245 0
M  V30 1897 C 185.593 -4.37149 -0.50879 0
M  V30 1898 H 182.712 -0.734694 0.0582602 0
M  V30 1899 H 185.354 -1.71157 0.824951 0
M  V30 1900 H 183.504 -3.86325 -0.410525 0
M  V30 1901 H 185.176 -4.059 2.19186 0
M  V30 1902 H 183.419 -3.78356 2.122 0
M  V30 1903 H 184.09 -5.30482 1.52619 0
M  V30 1904 H 186.566 -4.16093 -0.024412 0
M  V30 1905 H 185.442 -5.4683 -0.476213 0
M  V30 1906 H 185.703 -4.12839 -1.58165 0
M  V30 1907 N 184.763 -0.387143 -1.52771 0
M  V30 1908 C 186.012 0.19697 -2.00736 0
M  V30 1909 C 186.325 1.48082 -1.27793 0
M  V30 1910 O 187.531 2.14485 -1.66458 0
M  V30 1911 C 185.987 0.401568 -3.57653 0
M  V30 1912 C 185.595 -0.868907 -4.39493 0
M  V30 1913 C 187.339 0.942164 -4.13912 0
M  V30 1914 C 185.246 -0.632705 -5.88006 0
M  V30 1915 H 184.176 0.0773827 -0.750019 0
M  V30 1916 H 186.827 -0.50921 -1.76293 0
M  V30 1917 H 185.209 1.16954 -3.78335 0
M  V30 1918 H 186.383 -1.64133 -4.30577 0
M  V30 1919 H 184.698 -1.33429 -3.94443 0
M  V30 1920 H 187.295 1.13455 -5.22525 0
M  V30 1921 H 187.638 1.9106 -3.69867 0
M  V30 1922 H 188.171 0.233814 -3.97112 0
M  V30 1923 H 184.91 -1.57208 -6.36369 0
M  V30 1924 H 184.43 0.100825 -5.99715 0
M  V30 1925 H 186.109 -0.26642 -6.46451 0
M  V30 1926 N 186.241 1.57166 -0.116904 0
M  V30 1927 C 187.151 2.18745 0.847812 0
M  V30 1928 C 188.167 1.163 1.29423 0
M  V30 1929 O 189.343 1.48761 1.35765 0
M  V30 1930 C 186.408 2.77307 2.0809 0
M  V30 1931 C 185.469 3.94781 1.68661 0
M  V30 1932 C 184.702 4.50541 2.86091 0
M  V30 1933 O 184.925 4.05202 4.01456 0
M  V30 1934 O 183.859 5.41256 2.63298 0
M  V30 1935 H 187.685 3.01632 0.353778 0
M  V30 1936 H 185.27 1.49005 0.108599 0
M  V30 1937 H 187.152 3.14647 2.80313 0
M  V30 1938 H 185.827 1.97452 2.56504 0
M  V30 1939 H 184.734 3.62214 0.935518 0
M  V30 1940 H 186.067 4.76065 1.24991 0
M  V30 1941 N 187.719 -0.156864 1.56817 0
M  V30 1942 C 188.966 -0.871125 1.82805 0
M  V30 1943 C 189.294 -1.81611 0.696262 0
M  V30 1944 O 188.549 -1.93141 -0.315459 0
M  V30 1945 C 188.848 -1.68737 3.1506 0
M  V30 1946 C 188.514 -0.890045 4.42028 0
M  V30 1947 C 187.176 -0.670042 4.76512 0
M  V30 1948 C 189.528 -0.331769 5.20143 0
M  V30 1949 C 186.856 0.119104 5.86579 0
M  V30 1950 C 189.208 0.444365 6.31037 0
M  V30 1951 C 187.872 0.675035 6.64078 0
M  V30 1952 H 187.142 -0.318767 0.668931 0
M  V30 1953 H 189.789 -0.135274 1.91022 0
M  V30 1954 H 188.094 -2.49304 3.0225 0
M  V30 1955 H 189.791 -2.24331 3.3238 0
M  V30 1956 H 186.381 -1.07157 4.14988 0
M  V30 1957 H 190.565 -0.489043 4.93885 0
M  V30 1958 H 185.821 0.307417 6.10627 0
M  V30 1959 H 189.995 0.884139 6.90765 0
M  V30 1960 H 187.622 1.28839 7.49203 0
M  V30 1961 N 189.197 -1.51736 -0.425897 0
M  V30 1962 C 190.422 -1.69082 -1.20108 0
M  V30 1963 C 190.847 -0.392398 -1.83962 0
M  V30 1964 O 190.205 0.64858 -1.69302 0
M  V30 1965 C 190.253 -2.81604 -2.25237 0
M  V30 1966 O 189.357 -2.46004 -3.30992 0
M  V30 1967 H 188.698 -0.563408 -0.35138 0
M  V30 1968 H 191.228 -1.98358 -0.501512 0
M  V30 1969 H 191.238 -3.06025 -2.69838 0
M  V30 1970 H 189.913 -3.75817 -1.78142 0
M  V30 1971 H 188.49 -2.32195 -2.91787 0
M  V30 1972 N 190.675 0.682077 -1.42076 0
M  V30 1973 C 191.924 1.43786 -1.41451 0
M  V30 1974 C 192.237 1.95574 -0.0317074 0
M  V30 1975 O 193.443 2.71326 0.0971462 0
M  V30 1976 C 191.899 2.60071 -2.48779 0
M  V30 1977 C 191.507 2.15013 -3.93031 0
M  V30 1978 C 193.251 3.37626 -2.57311 0
M  V30 1979 C 191.158 3.28336 -4.91883 0
M  V30 1980 H 190.088 0.540143 -0.526082 0
M  V30 1981 H 192.739 0.739157 -1.67955 0
M  V30 1982 H 191.121 3.32275 -2.15429 0
M  V30 1983 H 192.295 1.5001 -4.35699 0
M  V30 1984 H 190.61 1.50416 -3.88284 0
M  V30 1985 H 193.207 4.22012 -3.28345 0
M  V30 1986 H 193.55 3.83727 -1.61429 0
M  V30 1987 H 194.083 2.72488 -2.89819 0
M  V30 1988 H 190.822 2.87234 -5.89217 0
M  V30 1989 H 190.342 3.92145 -4.53853 0
M  V30 1990 H 192.021 3.93913 -5.13265 0
M  V30 1991 N 192.153 1.28127 0.917671 0
M  V30 1992 C 193.564 1.13622 1.48145 0
M  V30 1993 C 193.915 -0.275207 1.9426 0
M  V30 1994 O 193.04 -1.1691 1.82102 0
M  V30 1995 C 193.635 2.05648 2.69248 0
M  V30 1996 C 192.194 1.95219 3.21818 0
M  V30 1997 C 191.341 1.97618 1.94532 0
M  V30 1998 H 194.292 1.40874 0.730772 0
M  V30 1999 H 194.313 1.61818 3.44377 0
M  V30 2000 H 193.825 3.08365 2.35653 0
M  V30 2001 H 191.926 0.955244 3.60147 0
M  V30 2002 H 192.039 2.81976 3.87333 0
M  V30 2003 H 190.403 1.41973 2.11461 0
M  V30 2004 H 191.186 3.02007 1.63238 0
M  V30 2005 N 193.631 -1.12557 1.10312 0
M  V30 2006 C 194.908 -1.80363 0.756878 0
M  V30 2007 C 195.288 -1.97067 -0.756824 0
M  V30 2008 O 194.636 -1.54601 -1.68259 0
M  V30 2009 C 194.846 -3.14812 1.50647 0
M  V30 2010 C 196.194 -3.90029 1.67817 0
M  V30 2011 O 197.218 -3.24464 1.46974 0
M  V30 2012 O 196.077 -5.07652 2.02365 0
M  V30 2013 H 193.171 -0.780667 0.272926 0
M  V30 2014 H 195.717 -1.19404 1.20586 0
M  V30 2015 H 194.489 -2.97936 2.53672 0
M  V30 2016 H 194.112 -3.83478 1.05026 0
M  V30 2017 N 195.109 -0.891671 -1.2995 0
M  V30 2018 C 196.334 -0.527932 -2.00568 0
M  V30 2019 C 196.759 0.877969 -1.66353 0
M  V30 2020 O 196.117 1.58301 -0.883762 0
M  V30 2021 C 196.165 -0.717745 -3.53385 0
M  V30 2022 O 195.269 0.233376 -4.11739 0
M  V30 2023 H 194.61 -0.20722 -0.630837 0
M  V30 2024 H 197.14 -1.20105 -1.65638 0
M  V30 2025 H 197.15 -0.619307 -4.03272 0
M  V30 2026 H 195.825 -1.74276 -3.77625 0
M  V30 2027 H 194.402 0.0880706 -3.72796 0
M  V30 2028 N 196.587 1.43421 -0.653314 0
M  V30 2029 C 197.517 2.33487 0.0246656 0
M  V30 2030 C 198.498 1.49475 0.811863 0
M  V30 2031 O 199.683 1.78139 0.773322 0
M  V30 2032 C 196.813 3.32841 0.99166 0
M  V30 2033 C 195.767 4.26842 0.314568 0
M  V30 2034 C 195.093 5.16236 1.39302 0
M  V30 2035 C 196.393 5.16243 -0.793095 0
M  V30 2036 H 198.087 2.90427 -0.727481 0
M  V30 2037 H 195.633 1.39649 -0.351287 0
M  V30 2038 H 197.586 3.94747 1.47487 0
M  V30 2039 H 196.31 2.74158 1.77497 0
M  V30 2040 H 194.969 3.663 -0.148199 0
M  V30 2041 H 194.617 4.53891 2.16776 0
M  V30 2042 H 194.317 5.79948 0.945223 0
M  V30 2043 H 195.841 5.81015 1.87759 0
M  V30 2044 H 197.255 5.71958 -0.392039 0
M  V30 2045 H 195.652 5.88676 -1.16536 0
M  V30 2046 H 196.722 4.55927 -1.65103 0
M  V30 2047 N 198.065 0.39524 1.52563 0
M  V30 2048 C 198.995 -0.428384 2.29537 0
M  V30 2049 C 199.976 -1.05831 1.33169 0
M  V30 2050 O 201.161 -1.06995 1.62067 0
M  V30 2051 C 198.291 -1.55274 3.10656 0
M  V30 2052 C 197.245 -1.04855 4.14957 0
M  V30 2053 C 196.571 -2.26543 4.84337 0
M  V30 2054 C 197.871 -0.112324 5.22179 0
M  V30 2055 H 199.565 0.213867 2.98635 0
M  V30 2056 H 197.111 0.104298 1.43622 0
M  V30 2057 H 199.064 -2.1358 3.63265 0
M  V30 2058 H 197.788 -2.22266 2.39302 0
M  V30 2059 H 196.447 -0.487985 3.63338 0
M  V30 2060 H 196.095 -2.92059 4.09525 0
M  V30 2061 H 195.795 -1.93466 5.54837 0
M  V30 2062 H 197.319 -2.85481 5.39753 0
M  V30 2063 H 198.733 -0.603752 5.70112 0
M  V30 2064 H 197.13 0.128968 5.99961 0
M  V30 2065 H 198.2 0.837052 4.77621 0
M  V30 2066 N 199.544 -1.57102 0.125237 0
M  V30 2067 C 200.793 -1.94582 -0.531095 0
M  V30 2068 C 201.106 -1.01126 -1.6743 0
M  V30 2069 O 202.312 -1.28097 -2.39381 0
M  V30 2070 C 200.768 -3.45839 -0.996164 0
M  V30 2071 C 200.376 -4.47842 0.118926 0
M  V30 2072 C 202.12 -3.92227 -1.62352 0
M  V30 2073 C 200.027 -5.90284 -0.363192 0
M  V30 2074 H 198.957 -0.726391 -0.20217 0
M  V30 2075 H 201.608 -1.82339 0.206092 0
M  V30 2076 H 199.99 -3.53338 -1.78796 0
M  V30 2077 H 201.164 -4.52018 0.895358 0
M  V30 2078 H 199.479 -4.11243 0.653324 0
M  V30 2079 H 202.076 -4.96069 -1.99548 0
M  V30 2080 H 202.419 -3.32552 -2.50429 0
M  V30 2081 H 202.952 -3.87554 -0.897019 0
M  V30 2082 H 199.691 -6.53728 0.481679 0
M  V30 2083 H 199.211 -5.89515 -1.10597 0
M  V30 2084 H 200.89 -6.41752 -0.822377 0
M  V30 2085 N 201.022 0.148545 -1.56898 0
M  V30 2086 C 202.438 0.501131 -1.51528 0
M  V30 2087 C 202.638 1.83458 -0.833399 0
M  V30 2088 O 201.694 2.49259 -0.40328 0
M  V30 2089 C 203.007 0.512864 -2.96294 0
M  V30 2090 C 204.555 0.598487 -3.07225 0
M  V30 2091 C 205.03 0.640897 -4.53494 0
M  V30 2092 N 206.521 0.703163 -4.57832 0
M  V30 2093 C 207.256 0.756935 -5.68382 0
M  V30 2094 N 206.752 0.770147 -6.88506 0
M  V30 2095 N 208.545 0.797698 -5.56411 0
M  V30 2096 H 200.696 -0.725532 -1.99624 0
M  V30 2097 H 202.959 -0.264358 -0.910395 0
M  V30 2098 H 202.665 -0.398691 -3.49433 0
M  V30 2099 H 202.539 1.35133 -3.52163 0
M  V30 2100 H 204.926 1.50046 -2.54106 0
M  V30 2101 H 205.007 -0.267093 -2.54402 0
M  V30 2102 H 204.651 -0.256915 -5.0725 0
M  V30 2103 H 204.581 1.52295 -5.04097 0
M  V30 2104 H 207.072 0.700314 -3.71354 0
M  V30 2105 H 207.385 0.812983 -7.68512 0
M  V30 2106 H 205.73 0.738049 -6.9107 0
M  V30 2107 H 208.921 0.784535 -4.61479 0
M  V30 2108 H 209.094 0.83614 -6.42583 0
M  V30 2109 N 202.5 1.5196 0.417844 0
M  V30 2110 C 203.916 1.40569 0.755816 0
M  V30 2111 C 204.116 0.503316 1.95113 0
M  V30 2112 O 203.172 -0.0341925 2.52477 0
M  V30 2113 C 204.485 2.82947 1.01791 0
M  V30 2114 C 206.033 2.92231 1.12116 0
M  V30 2115 C 206.508 4.35559 1.41608 0
M  V30 2116 N 207.999 4.38753 1.48491 0
M  V30 2117 C 208.734 5.46705 1.7292 0
M  V30 2118 N 208.23 6.64788 1.95011 0
M  V30 2119 N 210.023 5.34209 1.74863 0
M  V30 2120 H 202.174 2.09168 -0.369098 0
M  V30 2121 H 204.437 0.942409 -0.102809 0
M  V30 2122 H 204.143 3.5106 0.212081 0
M  V30 2123 H 204.017 3.23462 1.94042 0
M  V30 2124 H 206.404 2.24304 1.9176 0
M  V30 2125 H 206.485 2.55185 0.177225 0
M  V30 2126 H 206.129 5.04042 0.624848 0
M  V30 2127 H 206.059 4.70133 2.37239 0
M  V30 2128 H 208.55 3.5363 1.33244 0
M  V30 2129 H 208.863 7.42845 2.13076 0
M  V30 2130 H 207.208 6.67869 1.92293 0
M  V30 2131 H 210.399 4.40937 1.57137 0
M  V30 2132 H 210.572 6.18415 1.93563 0
M  V30 2133 N 203.978 -0.674533 1.42435 0
M  V30 2134 C 205.227 -1.43034 1.42212 0
M  V30 2135 C 205.54 -1.95555 0.0420788 0
M  V30 2136 O 206.746 -2.71374 -0.0827558 0
M  V30 2137 C 205.202 -2.58748 2.50155 0
M  V30 2138 C 204.81 -2.12925 3.94166 0
M  V30 2139 C 206.554 -3.36257 2.59098 0
M  V30 2140 C 204.461 -3.25723 4.93618 0
M  V30 2141 H 203.391 -0.537345 0.528939 0
M  V30 2142 H 206.042 -0.73024 1.68344 0
M  V30 2143 H 204.424 -3.31128 2.17188 0
M  V30 2144 H 205.598 -1.47697 4.36488 0
M  V30 2145 H 203.913 -1.48354 3.89076 0
M  V30 2146 H 206.51 -4.20264 3.30578 0
M  V30 2147 H 206.853 -3.82866 1.63461 0
M  V30 2148 H 207.386 -2.70947 2.9126 0
M  V30 2149 H 204.125 -2.84105 5.90732 0
M  V30 2150 H 203.645 -3.89732 4.55926 0
M  V30 2151 H 205.324 -3.91186 5.15347 0
M  V30 2152 N 205.456 -1.28612 -0.910864 0
M  V30 2153 C 206.684 -1.18792 -1.69399 0
M  V30 2154 C 207.099 0.253039 -1.87097 0
M  V30 2155 O 206.456 1.17071 -1.40003 0
M  V30 2156 C 206.507 -1.88511 -3.08457 0
M  V30 2157 O 206.228 -3.26979 -2.91576 0
M  V30 2158 C 207.729 -1.85029 -4.02839 0
M  V30 2159 H 204.949 -0.412233 -0.529438 0
M  V30 2160 H 207.493 -1.69788 -1.13984 0
M  V30 2161 H 205.648 -1.41379 -3.60681 0
M  V30 2162 H 206.062 -3.61936 -3.79608 0
M  V30 2163 H 207.536 -2.38395 -4.97867 0
M  V30 2164 H 208.013 -0.823303 -4.31414 0
M  V30 2165 H 208.619 -2.31853 -3.56545 0
M  V30 2166 N 206.934 1.1197 -1.10907 0
M  V30 2167 C 208.182 1.83225 -0.852819 0
M  V30 2168 C 208.503 1.84769 0.623341 0
M  V30 2169 O 207.773 1.3143 1.45269 0
M  V30 2170 H 206.353 0.67849 -0.312507 0
M  V30 2171 H 209.015 1.3556 -1.40033 0
M  V30 2172 H 208.111 2.87265 -1.22005 0
M  V30 2173 N 208.412 0.89855 1.29475 0
M  V30 2174 C 209.828 0.594483 1.48115 0
M  V30 2175 C 210.028 -0.86431 1.82022 0
M  V30 2176 O 209.084 -1.64457 1.91599 0
M  V30 2177 C 210.397 1.51932 2.59494 0
M  V30 2178 C 211.945 1.5244 2.7337 0
M  V30 2179 C 212.42 2.43548 3.87877 0
M  V30 2180 N 213.911 2.41589 3.95208 0
M  V30 2181 C 214.646 3.08789 4.83153 0
M  V30 2182 N 214.142 3.85265 5.75798 0
M  V30 2183 N 215.935 2.97952 4.76635 0
M  V30 2184 H 208.086 1.84207 1.05742 0
M  V30 2185 H 210.349 0.789251 0.525154 0
M  V30 2186 H 210.055 2.55865 2.41301 0
M  V30 2187 H 209.929 1.23899 3.56271 0
M  V30 2188 H 212.316 0.492518 2.90961 0
M  V30 2189 H 212.397 1.8451 1.77172 0
M  V30 2190 H 212.041 3.46829 3.71041 0
M  V30 2191 H 211.971 2.08788 4.83441 0
M  V30 2192 H 214.462 1.86025 3.28943 0
M  V30 2193 H 214.775 4.33598 6.39697 0
M  V30 2194 H 213.12 3.89371 5.75687 0
M  V30 2195 H 216.311 2.37723 4.03244 0
M  V30 2196 H 216.484 3.50599 5.44962 0
M  V30 2197 N 209.89 -1.43072 0.660911 0
M  V30 2198 C 210.82 -2.33497 -0.0122829 0
M  V30 2199 C 211.801 -1.49903 -0.803925 0
M  V30 2200 O 212.986 -1.78546 -0.763864 0
M  V30 2201 C 210.116 -3.33363 -0.973994 0
M  V30 2202 C 209.07 -4.27003 -0.291928 0
M  V30 2203 C 208.396 -5.16967 -1.36562 0
M  V30 2204 C 209.696 -5.15816 0.820462 0
M  V30 2205 H 211.39 -2.90038 0.742873 0
M  V30 2206 H 208.936 -1.39461 0.358688 0
M  V30 2207 H 210.889 -3.95524 -1.45392 0
M  V30 2208 H 209.613 -2.75095 -1.7604 0
M  V30 2209 H 208.272 -3.66217 0.167623 0
M  V30 2210 H 207.92 -4.55034 -2.14366 0
M  V30 2211 H 207.62 -5.80441 -0.914454 0
M  V30 2212 H 209.144 -5.82003 -1.84675 0
M  V30 2213 H 210.558 -5.71742 0.422366 0
M  V30 2214 H 208.955 -5.8805 1.19656 0
M  V30 2215 H 210.025 -4.55045 1.67518 0
M  V30 2216 N 211.368 -0.403325 -1.52352 0
M  V30 2217 C 212.617 0.175668 -2.00934 0
M  V30 2218 C 212.93 1.46718 -1.29356 0
M  V30 2219 O 214.136 2.12708 -1.68724 0
M  V30 2220 C 212.592 0.363612 -3.58058 0
M  V30 2221 C 212.2 -0.915472 -4.38547 0
M  V30 2222 C 213.944 0.89821 -4.14888 0
M  V30 2223 C 211.851 -0.695035 -5.87302 0
M  V30 2224 H 210.781 0.0694234 -0.750797 0
M  V30 2225 H 213.432 -0.527879 -1.75743 0
M  V30 2226 H 211.814 1.12935 -3.79555 0
M  V30 2227 H 212.988 -1.68691 -4.28812 0
M  V30 2228 H 211.303 -1.37606 -3.93006 0
M  V30 2229 H 213.9 1.07907 -5.23699 0
M  V30 2230 H 214.243 1.87126 -3.71873 0
M  V30 2231 H 214.776 0.191681 -3.97338 0
M  V30 2232 H 211.515 -1.63948 -6.34666 0
M  V30 2233 H 211.035 0.0372116 -5.99788 0
M  V30 2234 H 212.714 -0.33497 -6.46132 0
M  V30 2235 N 212.846 1.57033 -0.133567 0
M  V30 2236 C 213.796 2.12641 0.822671 0
M  V30 2237 C 214.78 1.05081 1.21847 0
M  V30 2238 O 215.972 1.31287 1.18713 0
M  V30 2239 C 213.101 2.74094 2.06706 0
M  V30 2240 C 212.187 3.88757 1.69497 0
M  V30 2241 N 212.578 4.95194 1.03037 0
M  V30 2242 C 210.876 3.99213 1.98859 0
M  V30 2243 C 211.577 5.75414 0.852873 0
M  V30 2244 N 210.553 5.25726 1.3825 0
M  V30 2245 H 214.355 2.92308 0.305537 0
M  V30 2246 H 211.869 1.62256 0.0684276 0
M  V30 2247 H 213.866 3.12285 2.76195 0
M  V30 2248 H 212.526 1.95896 2.5895 0
M  V30 2249 H 213.537 5.13247 0.692669 0
M  V30 2250 H 210.214 3.32075 2.53047 0
M  V30 2251 H 211.604 6.71089 0.330091 0
M  V30 2252 N 214.325 -0.140222 1.56975 0
M  V30 2253 C 215.736 -0.699596 1.73097 0
M  V30 2254 C 216.087 -1.8134 0.749022 0
M  V30 2255 O 215.212 -2.16241 -0.0828503 0
M  V30 2256 C 215.807 -1.27582 3.1386 0
M  V30 2257 C 214.366 -1.78169 3.31561 0
M  V30 2258 C 213.513 -0.672855 2.69013 0
M  V30 2259 H 216.464 0.0855115 1.58469 0
M  V30 2260 H 216.485 -2.14561 3.14235 0
M  V30 2261 H 215.997 -0.464955 3.85305 0
M  V30 2262 H 214.098 -2.61801 2.65124 0
M  V30 2263 H 214.211 -1.90574 4.39566 0
M  V30 2264 H 212.575 -1.10118 2.29665 0
M  V30 2265 H 213.358 0.126679 3.43066 0
M  V30 2266 N 215.803 -1.52179 -0.40978 0
M  V30 2267 C 216.75 -1.75475 -1.49924 0
M  V30 2268 C 217.72 -0.597175 -1.54994 0
M  V30 2269 O 218.905 -0.834655 -1.71575 0
M  V30 2270 C 216.045 -1.9107 -2.87378 0
M  V30 2271 C 215.158 -3.18717 -2.91622 0
M  V30 2272 C 214.293 -3.24747 -4.20372 0
M  V30 2273 C 213.332 -4.46598 -4.18588 0
M  V30 2274 N 212.469 -4.50025 -5.38908 0
M  V30 2275 H 217.309 -2.68458 -1.29361 0
M  V30 2276 H 214.846 -1.33024 -0.627934 0
M  V30 2277 H 216.804 -1.98096 -3.6717 0
M  V30 2278 H 215.434 -1.01469 -3.06437 0
M  V30 2279 H 214.486 -3.20866 -2.04326 0
M  V30 2280 H 215.798 -4.08544 -2.86169 0
M  V30 2281 H 214.952 -3.30841 -5.08556 0
M  V30 2282 H 213.691 -2.32857 -4.28519 0
M  V30 2283 H 212.696 -4.40652 -3.28794 0
M  V30 2284 H 213.921 -5.39783 -4.12081 0
M  V30 2285 H 211.867 -3.61017 -5.47725 0
M  V30 2286 H 211.784 -5.33697 -5.35447 0
M  V30 2287 H 213.052 -4.60347 -6.29048 0
M  V30 2288 N 217.281 0.66697 -1.42791 0
M  V30 2289 C 218.506 1.46004 -1.47301 0
M  V30 2290 C 218.931 1.87894 -0.0880317 0
M  V30 2291 O 218.289 1.56502 0.915253 0
M  V30 2292 C 218.337 2.68031 -2.41229 0
M  V30 2293 O 217.441 3.6659 -1.88906 0
M  V30 2294 H 216.782 0.43832 -0.49877 0
M  V30 2295 H 219.312 0.817391 -1.87563 0
M  V30 2296 H 219.322 3.1601 -2.58073 0
M  V30 2297 H 217.997 2.36883 -3.41847 0
M  V30 2298 H 216.574 3.25661 -1.81656 0
M  V30 2299 N 218.759 1.29093 0.90403 0
M  V30 2300 C 220.007 1.16583 1.65085 0
M  V30 2301 C 220.328 -0.283933 1.92922 0
M  V30 2302 O 219.598 -1.19509 1.55224 0
M  V30 2303 H 218.178 0.428467 0.611903 0
M  V30 2304 H 220.84 1.61959 1.08422 0
M  V30 2305 H 219.936 1.71266 2.6091 0
M  V30 2306 N 220.237 -1.11381 1.11499 0
M  V30 2307 C 221.653 -1.35143 0.849031 0
M  V30 2308 C 221.853 -1.94515 -0.525938 0
M  V30 2309 O 220.909 -2.1785 -1.27662 0
M  V30 2310 C 222.222 -2.28249 1.95762 0
M  V30 2311 C 223.77 -2.41812 1.98736 0
M  V30 2312 C 224.245 -3.3824 3.088 0
M  V30 2313 N 225.736 -3.45803 3.08179 0
M  V30 2314 C 226.471 -4.20358 3.89982 0
M  V30 2315 N 225.967 -4.97884 4.8175 0
M  V30 2316 N 227.76 -4.15877 3.78157 0
M  V30 2317 H 219.911 -0.712062 2.00109 0
M  V30 2318 H 222.174 -0.376025 0.870235 0
M  V30 2319 H 221.88 -1.91817 2.94787 0
M  V30 2320 H 221.754 -3.28473 1.85433 0
M  V30 2321 H 224.141 -2.77518 1.00338 0
M  V30 2322 H 224.222 -1.41437 2.13141 0
M  V30 2323 H 223.866 -3.03261 4.07425 0
M  V30 2324 H 223.796 -4.38471 2.91635 0
M  V30 2325 H 226.287 -2.90506 2.41691 0
M  V30 2326 H 226.6 -5.52142 5.40702 0
M  V30 2327 H 224.945 -4.97043 4.85771 0
M  V30 2328 H 228.136 -3.544 3.05808 0
M  V30 2329 H 228.309 -4.73723 4.42143 0
M  V30 2330 N 221.715 -0.905404 -1.28997 0
M  V30 2331 C 222.94 -0.549175 -1.99997 0
M  V30 2332 C 223.365 0.860276 -1.67275 0
M  V30 2333 O 222.723 1.57355 -0.900502 0
M  V30 2334 C 222.771 -0.755185 -3.52604 0
M  V30 2335 O 221.875 0.189692 -4.11964 0
M  V30 2336 H 221.216 -0.213899 -0.628604 0
M  V30 2337 H 223.746 -1.21856 -1.64354 0
M  V30 2338 H 223.756 -0.662045 -4.02593 0
M  V30 2339 H 222.431 -1.78271 -3.75755 0
M  V30 2340 H 221.008 0.0485257 -3.72868 0
M  V30 2341 N 223.193 1.4272 -0.668489 0
M  V30 2342 C 224.423 2.05668 -0.196063 0
M  V30 2343 C 224.831 1.5028 1.14946 0
M  V30 2344 O 224.174 0.6348 1.72383 0
M  V30 2345 C 224.236 3.59469 -0.0468879 0
M  V30 2346 C 223.9 4.37518 -1.32012 0
M  V30 2347 C 224.897 4.68584 -2.25222 0
M  V30 2348 C 222.582 4.77266 -1.56596 0
M  V30 2349 C 224.576 5.38326 -3.41297 0
M  V30 2350 C 222.263 5.4675 -2.72962 0
M  V30 2351 C 223.261 5.77204 -3.65137 0
M  V30 2352 O 222.949 6.45264 -4.79468 0
M  V30 2353 H 222.681 0.669382 -0.0943599 0
M  V30 2354 H 225.235 1.83954 -0.913788 0
M  V30 2355 H 223.465 3.79817 0.726357 0
M  V30 2356 H 225.154 4.04071 0.384852 0
M  V30 2357 H 225.92 4.38382 -2.07477 0
M  V30 2358 H 221.799 4.52959 -0.857249 0
M  V30 2359 H 225.343 5.62014 -4.13263 0
M  V30 2360 H 221.24 5.76369 -2.90635 0
M  V30 2361 H 222.008 6.63753 -4.78931 0
M  V30 2362 N 224.671 0.411399 1.52136 0
M  V30 2363 C 225.621 -0.430376 2.23901 0
M  V30 2364 C 226.605 -1.0116 1.25121 0
M  V30 2365 O 227.797 -0.934044 1.50348 0
M  V30 2366 C 224.926 -1.54527 3.06556 0
M  V30 2367 C 224.012 -0.9747 4.12747 0
M  V30 2368 N 224.403 -0.130991 5.0563 0
M  V30 2369 C 222.701 -1.24497 4.28271 0
M  V30 2370 C 223.402 0.186689 5.814 0
M  V30 2371 N 222.378 -0.42304 5.41951 0
M  V30 2372 H 226.18 0.220509 2.93072 0
M  V30 2373 H 223.694 0.221952 1.60876 0
M  V30 2374 H 225.691 -2.16093 3.56524 0
M  V30 2375 H 224.351 -2.19875 2.38925 0
M  V30 2376 H 225.362 0.23349 5.17373 0
M  V30 2377 H 222.039 -1.89787 3.7187 0
M  V30 2378 H 223.429 0.871673 6.66222 0
M  V30 2379 N 226.149 -1.5696 0.141893 0
M  V30 2380 C 227.059 -2.20066 -0.812905 0
M  V30 2381 C 228.075 -1.18344 -1.27557 0
M  V30 2382 O 229.251 -1.50902 -1.33381 0
M  V30 2383 C 226.316 -2.80583 -2.03652 0
M  V30 2384 C 225.377 -3.97414 -1.62359 0
M  V30 2385 C 224.61 -4.55036 -2.78887 0
M  V30 2386 O 224.833 -4.11538 -3.94959 0
M  V30 2387 O 223.767 -5.45376 -2.54653 0
M  V30 2388 H 227.593 -3.02157 -0.305746 0
M  V30 2389 H 225.178 -1.49159 -0.0848799 0
M  V30 2390 H 227.06 -3.19067 -2.75272 0
M  V30 2391 H 225.735 -2.01508 -2.5333 0
M  V30 2392 H 224.642 -3.63656 -0.877775 0
M  V30 2393 H 225.975 -4.77994 -1.17401 0
M  V30 2394 N 227.627 0.131896 -1.57047 0
M  V30 2395 C 228.537 1.1815 -2.02676 0
M  V30 2396 C 229.553 1.46113 -0.944824 0
M  V30 2397 O 230.729 1.57485 -1.25541 0
M  V30 2398 C 227.794 2.49139 -2.41103 0
M  V30 2399 C 226.855 2.28688 -3.63318 0
M  V30 2400 C 226.088 3.53431 -3.99903 0
M  V30 2401 O 226.311 4.60223 -3.36973 0
M  V30 2402 O 225.245 3.45198 -4.93074 0
M  V30 2403 H 229.071 0.824069 -2.92306 0
M  V30 2404 H 226.656 0.341745 -1.45439 0
M  V30 2405 H 228.538 3.26338 -2.66611 0
M  V30 2406 H 227.213 2.84382 -1.54624 0
M  V30 2407 H 226.12 1.4939 -3.42977 0
M  V30 2408 H 227.453 1.98355 -4.50462 0
M  V30 2409 N 229.106 1.52395 0.401703 0
M  V30 2410 C 230.353 1.66817 1.14796 0
M  V30 2411 C 230.681 0.401772 1.90305 0
M  V30 2412 O 229.936 -0.615487 1.85769 0
M  V30 2413 C 230.235 2.84578 2.16217 0
M  V30 2414 C 229.901 4.22513 1.5746 0
M  V30 2415 C 228.563 4.60029 1.41161 0
M  V30 2416 C 230.915 5.0844 1.14622 0
M  V30 2417 C 228.243 5.81144 0.80552 0
M  V30 2418 C 230.595 6.30167 0.55428 0
M  V30 2419 C 229.259 6.66426 0.378482 0
M  V30 2420 H 228.529 0.610428 0.420069 0
M  V30 2421 H 231.176 1.86512 0.434212 0
M  V30 2422 H 229.481 2.59248 2.93764 0
M  V30 2423 H 231.178 2.92933 2.73845 0
M  V30 2424 H 227.768 3.92953 1.71132 0
M  V30 2425 H 231.952 4.80034 1.26021 0
M  V30 2426 H 227.208 6.07855 0.657399 0
M  V30 2427 H 231.382 6.96071 0.213983 0
M  V30 2428 H 229.009 7.60143 -0.0932606 0
M  V30 2429 N 230.584 -0.659388 1.43143 0
M  V30 2430 C 231.532 -1.79374 1.4808 0
M  V30 2431 C 232.526 -1.65639 0.354988 0
M  V30 2432 O 233.732 -1.7206 0.528704 0
M  V30 2433 H 230.107 -0.591705 0.4641 0
M  V30 2434 H 232.078 -1.72329 2.43609 0
M  V30 2435 C 230.827 -3.17606 1.41499 0
M  V30 2436 H 230.15 -3.28809 2.27431 0
M  V30 2437 H 231.59 -3.96951 1.49015 0
M  V30 2438 C 230.049 -3.36642 0.131765 0
M  V30 2439 O 230.579 -3.93461 -0.809386 0
M  V30 2440 N 228.785 -2.90567 0.0439396 0
M  V30 2441 H 228.332 -2.44513 0.810619 0
M  V30 2442 H 228.29 -3.03681 -0.813969 0
M  V30 2443 N 232.062 -1.29571 -0.897171 0
M  V30 2444 C 233.473 -1.15964 -1.46319 0
M  V30 2445 C 233.824 0.244267 -1.94674 0
M  V30 2446 O 232.949 1.13998 -1.83939 0
M  V30 2447 C 233.544 -2.09906 -2.65942 0
M  V30 2448 C 232.103 -2.00314 -3.18671 0
M  V30 2449 C 231.25 -2.00687 -1.91363 0
M  V30 2450 H 234.201 -1.42019 -0.708268 0
M  V30 2451 H 234.222 -1.67276 -3.41759 0
M  V30 2452 H 233.734 -3.12075 -2.30718 0
M  V30 2453 H 231.835 -1.01242 -3.58582 0
M  V30 2454 H 231.948 -2.88102 -3.82798 0
M  V30 2455 H 230.312 -1.45319 -2.09175 0
M  V30 2456 H 231.095 -3.04566 -1.58413 0
M  V30 2457 N 233.54 1.10788 -1.12088 0
M  V30 2458 C 234.951 1.64181 -0.88891 0
M  V30 2459 C 235.302 1.87508 0.577498 0
M  V30 2460 O 234.427 1.61434 1.44112 0
M  V30 2461 C 235.022 2.98257 -1.60712 0
M  V30 2462 C 233.581 3.4853 -1.42139 0
M  V30 2463 C 232.728 2.23208 -1.6454 0
M  V30 2464 H 235.679 0.943368 -1.27618 0
M  V30 2465 H 235.7 3.65552 -1.05604 0
M  V30 2466 H 235.212 2.81246 -2.67436 0
M  V30 2467 H 233.313 3.70692 -0.376552 0
M  V30 2468 H 233.426 4.26882 -2.17505 0
M  V30 2469 H 231.79 2.31169 -1.06925 0
M  V30 2470 H 232.573 2.08733 -2.72554 0
M  V30 2471 N 235.018 0.912232 1.28515 0
M  V30 2472 C 235.965 0.397954 2.27343 0
M  V30 2473 C 236.935 -0.526766 1.57526 0
M  V30 2474 O 238.12 -0.449292 1.85435 0
M  V30 2475 C 235.26 -0.357263 3.43246 0
M  V30 2476 C 234.373 0.599788 4.27816 0
M  V30 2477 C 233.508 -0.173725 5.30916 0
M  V30 2478 C 232.547 0.777039 6.07148 0
M  V30 2479 N 231.684 0.0371398 7.0209 0
M  V30 2480 H 236.524 1.24577 2.70711 0
M  V30 2481 H 234.061 0.625612 1.33133 0
M  V30 2482 H 236.019 -0.8113 4.09236 0
M  V30 2483 H 234.649 -1.16943 3.00872 0
M  V30 2484 H 233.701 1.17235 3.61884 0
M  V30 2485 H 235.013 1.32704 4.80823 0
M  V30 2486 H 234.167 -0.688394 6.02782 0
M  V30 2487 H 232.906 -0.934041 4.78672 0
M  V30 2488 H 231.911 1.3031 5.34134 0
M  V30 2489 H 233.136 1.53689 6.61481 0
M  V30 2490 H 231.082 -0.705213 6.52198 0
M  V30 2491 H 230.999 0.704249 7.52713 0
M  V30 2492 H 232.267 -0.457383 7.78157 0
M  V30 2493 N 236.496 -1.42363 0.676048 0
M  V30 2494 C 237.406 -2.346 -0.00153389 0
M  V30 2495 C 238.422 -1.5516 -0.787485 0
M  V30 2496 O 239.598 -1.87723 -0.729521 0
M  V30 2497 C 236.663 -3.33705 -0.940298 0
M  V30 2498 C 235.724 -4.29042 -0.148739 0
M  V30 2499 C 234.957 -5.23413 -1.04279 0
M  V30 2500 O 235.18 -5.22749 -2.28232 0
M  V30 2501 O 234.114 -5.99795 -0.502925 0
M  V30 2502 H 237.94 -2.94082 0.758268 0
M  V30 2503 H 235.525 -1.42888 0.436289 0
M  V30 2504 H 237.407 -3.94586 -1.47917 0
M  V30 2505 H 236.082 -2.76695 -1.67993 0
M  V30 2506 H 234.989 -3.71571 0.43427 0
M  V30 2507 H 236.322 -4.89097 0.551805 0
M  V30 2508 N 237.974 -0.419461 -1.51915 0
M  V30 2509 C 239.385 0.0477853 -1.86639 0
M  V30 2510 C 239.736 1.43531 -1.33766 0
M  V30 2511 O 238.861 2.05401 -0.68113 0
M  V30 2512 C 239.456 0.0934885 -3.38671 0
M  V30 2513 C 238.015 0.505097 -3.72996 0
M  V30 2514 C 237.162 -0.313792 -2.75519 0
M  V30 2515 H 240.113 -0.636088 -1.45395 0
M  V30 2516 H 240.134 0.906667 -3.6954 0
M  V30 2517 H 239.646 -0.916501 -3.77123 0
M  V30 2518 H 237.747 1.52135 -3.40126 0
M  V30 2519 H 237.86 0.242309 -4.78487 0
M  V30 2520 H 236.224 0.225363 -2.53701 0
M  V30 2521 H 237.007 -1.32232 -3.16812 0
M  V30 2522 N 239.452 1.56882 -0.150215 0
M  V30 2523 C 240.385 2.12712 0.826358 0
M  V30 2524 C 241.363 1.05154 1.24022 0
M  V30 2525 O 242.547 1.33004 1.33575 0
M  V30 2526 C 239.674 2.64945 2.11002 0
M  V30 2527 C 238.72 3.8468 1.84183 0
M  V30 2528 S 239.553 5.25502 1.02995 0
M  V30 2529 C 240.709 5.81125 2.32474 0
M  V30 2530 H 240.942 2.95214 0.351598 0
M  V30 2531 H 238.475 1.54267 0.0641211 0
M  V30 2532 H 240.433 2.95689 2.84742 0
M  V30 2533 H 239.094 1.82568 2.55593 0
M  V30 2534 H 238.287 4.19482 2.79375 0
M  V30 2535 H 237.889 3.54714 1.1855 0
M  V30 2536 H 240.181 5.92753 3.281 0
M  V30 2537 H 241.124 6.78625 2.02171 0
M  V30 2538 H 241.532 5.09392 2.43269 0
M  V30 2539 N 240.93 -0.123565 1.57115 0
M  V30 2540 C 241.877 -1.15177 2.00007 0
M  V30 2541 C 242.847 -1.41403 0.871454 0
M  V30 2542 O 244.032 -1.53346 1.13533 0
M  V30 2543 C 241.172 -2.47436 2.40561 0
M  V30 2544 C 240.285 -2.28184 3.66819 0
M  V30 2545 C 239.42 -3.53641 3.96373 0
M  V30 2546 C 238.459 -3.29528 5.15827 0
M  V30 2547 N 237.596 -4.47175 5.41275 0
M  V30 2548 H 242.436 -0.779008 2.87638 0
M  V30 2549 H 239.973 -0.373166 1.42288 0
M  V30 2550 H 241.931 -3.24584 2.62109 0
M  V30 2551 H 240.561 -2.82614 1.55978 0
M  V30 2552 H 239.613 -1.41976 3.52912 0
M  V30 2553 H 240.925 -2.0634 4.5412 0
M  V30 2554 H 240.079 -4.39209 4.18545 0
M  V30 2555 H 238.818 -3.78512 3.07538 0
M  V30 2556 H 237.823 -2.42349 4.93505 0
M  V30 2557 H 239.048 -3.06031 6.06236 0
M  V30 2558 H 236.994 -4.72175 4.55397 0
M  V30 2559 H 236.911 -4.28419 6.22891 0
M  V30 2560 H 238.179 -5.3389 5.67963 0
M  V30 2561 N 242.408 -1.52605 -0.393616 0
M  V30 2562 C 243.685 -1.58001 -1.15304 0
M  V30 2563 C 244.065 -0.370385 -2.07825 0
M  V30 2564 O 243.413 0.641638 -2.19306 0
M  V30 2565 C 243.623 -2.91652 -1.91677 0
M  V30 2566 C 244.971 -3.4522 -2.47201 0
M  V30 2567 O 245.995 -2.93495 -2.01839 0
M  V30 2568 O 244.854 -4.35579 -3.3005 0
M  V30 2569 H 241.948 -0.637068 -0.527327 0
M  V30 2570 H 244.494 -1.64939 -0.399141 0
M  V30 2571 H 243.266 -3.71136 -1.23992 0
M  V30 2572 H 242.889 -2.88077 -2.74039 0
M  V30 2573 N 243.887 0.651787 -1.4349 0
M  V30 2574 C 245.164 1.40909 -1.35661 0
M  V30 2575 C 245.544 2.11099 -0.00511733 0
M  V30 2576 O 244.892 2.04892 1.0115 0
M  V30 2577 C 245.102 2.3926 -2.54078 0
M  V30 2578 C 246.45 3.03217 -2.97228 0
M  V30 2579 O 247.474 2.49588 -2.54135 0
M  V30 2580 O 246.333 4.00455 -3.71885 0
M  V30 2581 H 243.427 0.629625 -0.536191 0
M  V30 2582 H 245.973 0.678575 -1.55542 0
M  V30 2583 H 244.745 1.86352 -3.44076 0
M  V30 2584 H 244.368 3.1976 -2.36303 0
M  V30 2585 N 245.365 1.30045 0.890287 0
M  V30 2586 C 246.614 1.17929 1.63633 0
M  V30 2587 C 246.927 -0.266204 1.9378 0
M  V30 2588 O 248.133 -0.508804 2.6669 0
M  V30 2589 C 246.589 2.06317 2.94892 0
M  V30 2590 C 246.197 3.55745 2.72305 0
M  V30 2591 C 247.941 2.0295 3.72843 0
M  V30 2592 C 245.848 4.36205 3.99348 0
M  V30 2593 H 244.778 0.437782 0.613892 0
M  V30 2594 H 247.429 1.54754 0.986075 0
M  V30 2595 H 245.811 1.6237 3.61182 0
M  V30 2596 H 246.985 4.07805 2.1455 0
M  V30 2597 H 245.3 3.6088 2.07737 0
M  V30 2598 H 247.897 2.60319 4.67053 0
M  V30 2599 H 248.24 1.0117 4.0382 0
M  V30 2600 H 248.773 2.4499 3.13408 0
M  V30 2601 H 245.512 5.38659 3.73533 0
M  V30 2602 H 245.032 3.8891 4.56628 0
M  V30 2603 H 246.711 4.47362 4.67415 0
M  V30 2604 N 246.843 -1.10192 1.12674 0
M  V30 2605 C 248.071 -1.85983 0.906527 0
M  V30 2606 C 248.486 -1.80783 -0.544333 0
M  V30 2607 O 247.843 -1.19834 -1.37645 0
M  V30 2608 C 247.894 -3.34281 1.37618 0
M  V30 2609 O 247.615 -3.39401 2.77017 0
M  V30 2610 C 249.116 -4.26938 1.19325 0
M  V30 2611 H 246.336 -0.587716 0.323775 0
M  V30 2612 H 248.88 -1.39284 1.49734 0
M  V30 2613 H 247.035 -3.78436 0.828539 0
M  V30 2614 H 247.449 -4.31838 2.97684 0
M  V30 2615 H 248.923 -5.29181 1.57071 0
M  V30 2616 H 249.4 -4.38995 0.134097 0
M  V30 2617 H 250.006 -3.8859 1.72852 0
M  V30 2618 N 248.321 -0.919034 -1.28029 0
M  V30 2619 C 249.569 -0.553838 -1.94363 0
M  V30 2620 C 249.89 0.906357 -1.72656 0
M  V30 2621 O 249.16 1.64143 -1.0693 0
M  V30 2622 H 247.74 -0.201834 -0.719216 0
M  V30 2623 H 250.402 -1.16954 -1.55909 0
M  V30 2624 H 249.498 -0.752758 -3.02886 0
M  V30 2625 N 249.799 1.42003 -0.683588 0
M  V30 2626 C 250.709 2.34597 -0.0109075 0
M  V30 2627 C 251.725 1.55576 0.779245 0
M  V30 2628 O 252.901 1.88107 0.719555 0
M  V30 2629 C 249.966 3.34199 0.922588 0
M  V30 2630 C 249.027 4.29115 0.125984 0
M  V30 2631 C 248.26 5.23959 1.01502 0
M  V30 2632 O 248.483 5.23952 2.25456 0
M  V30 2633 O 247.417 6.00053 0.47111 0
M  V30 2634 H 251.243 2.93675 -0.773853 0
M  V30 2635 H 248.828 1.42654 -0.443861 0
M  V30 2636 H 250.71 3.95365 1.45823 0
M  V30 2637 H 249.385 2.77582 1.66523 0
M  V30 2638 H 248.292 3.71335 -0.453969 0
M  V30 2639 H 249.625 4.88798 -0.577736 0
M  V30 2640 N 251.277 0.427512 1.51691 0
M  V30 2641 C 252.688 -0.0378867 1.86662 0
M  V30 2642 C 253.039 -1.42819 1.34525 0
M  V30 2643 O 252.164 -2.05037 0.692014 0
M  V30 2644 C 252.759 -0.0755266 3.38716 0
M  V30 2645 C 251.318 -0.485309 3.73258 0
M  V30 2646 C 250.465 0.328399 2.75349 0
M  V30 2647 H 253.416 0.64379 1.45055 0
M  V30 2648 H 253.437 -0.887056 3.70016 0
M  V30 2649 H 252.949 0.936487 3.76632 0
M  V30 2650 H 251.05 -1.50329 3.40928 0
M  V30 2651 H 251.163 -0.21693 4.78609 0
M  V30 2652 H 249.527 -0.211905 2.53817 0
M  V30 2653 H 250.31 1.3391 3.16106 0
M  V30 2654 N 252.755 -1.56801 0.158532 0
M  V30 2655 C 253.685 -2.20347 -0.772609 0
M  V30 2656 C 254.666 -1.15518 -1.24859 0
M  V30 2657 O 255.851 -1.43902 -1.30406 0
M  V30 2658 C 252.981 -2.83417 -2.00729 0
M  V30 2659 C 251.935 -3.94174 -1.66765 0
M  V30 2660 C 251.261 -4.44233 -2.97592 0
M  V30 2661 C 252.561 -5.14392 -0.905447 0
M  V30 2662 H 254.255 -2.98413 -0.242959 0
M  V30 2663 H 251.801 -1.43537 -0.115419 0
M  V30 2664 H 253.754 -3.26543 -2.6636 0
M  V30 2665 H 252.478 -2.02701 -2.56086 0
M  V30 2666 H 251.137 -3.51684 -1.03508 0
M  V30 2667 H 250.785 -3.60325 -3.50963 0
M  V30 2668 H 250.485 -5.18945 -2.75626 0
M  V30 2669 H 252.009 -4.90037 -3.64274 0
M  V30 2670 H 253.423 -5.5429 -1.46408 0
M  V30 2671 H 251.82 -5.9494 -0.7853 0
M  V30 2672 H 252.89 -4.84795 0.100668 0
M  V30 2673 N 254.233 0.115231 -1.57178 0
M  V30 2674 C 255.482 0.820945 -1.84237 0
M  V30 2675 C 255.795 1.80866 -0.744761 0
M  V30 2676 O 257.001 2.56083 -0.901871 0
M  V30 2677 C 255.457 1.51072 -3.26658 0
M  V30 2678 C 255.065 0.563795 -4.44438 0
M  V30 2679 C 256.809 2.20134 -3.62962 0
M  V30 2680 C 254.716 1.25701 -5.77887 0
M  V30 2681 H 253.646 0.310328 -0.687177 0
M  V30 2682 H 256.297 0.0737134 -1.83352 0
M  V30 2683 H 254.679 2.30471 -3.22024 0
M  V30 2684 H 255.853 -0.197247 -4.60378 0
M  V30 2685 H 254.168 -0.0200638 -4.16395 0
M  V30 2686 H 256.765 2.72696 -4.59936 0
M  V30 2687 H 257.108 2.98107 -2.90582 0
M  V30 2688 H 257.641 1.47619 -3.69396 0
M  V30 2689 H 254.38 0.518493 -6.53446 0
M  V30 2690 H 253.9 1.98997 -5.65827 0
M  V30 2691 H 255.579 1.78915 -6.2177 0
M  V30 2692 N 255.711 1.52812 0.385517 0
M  V30 2693 C 257.127 1.4214 0.725829 0
M  V30 2694 C 257.327 0.544589 1.94001 0
M  V30 2695 O 256.383 0.0193693 2.52493 0
M  V30 2696 C 257.696 2.85042 0.957668 0
M  V30 2697 C 259.244 2.94543 1.05892 0
M  V30 2698 C 259.719 4.38464 1.32337 0
M  V30 2699 N 261.21 4.41804 1.39151 0
M  V30 2700 C 261.945 5.5025 1.61285 0
M  V30 2701 N 261.441 6.68775 1.80866 0
M  V30 2702 N 263.234 5.37798 1.63492 0
M  V30 2703 H 255.385 2.08338 -0.413383 0
M  V30 2704 H 257.648 0.940016 -0.122775 0
M  V30 2705 H 257.354 3.51431 0.137568 0
M  V30 2706 H 257.228 3.27505 1.87137 0
M  V30 2707 H 259.615 2.28321 1.86959 0
M  V30 2708 H 259.696 2.55504 0.123057 0
M  V30 2709 H 259.34 5.05254 0.517793 0
M  V30 2710 H 259.27 4.75059 2.27214 0
M  V30 2711 H 261.761 3.56377 1.25713 0
M  V30 2712 H 262.074 7.47197 1.97271 0
M  V30 2713 H 260.419 6.71797 1.78083 0
M  V30 2714 H 263.61 4.44171 1.47749 0
M  V30 2715 H 263.783 6.22382 1.80402 0
M  V30 2716 N 257.189 -0.644168 1.43834 0
M  V30 2717 C 258.605 -0.960875 1.27434 0
M  V30 2718 C 258.805 -2.00499 0.200618 0
M  V30 2719 O 257.861 -2.49018 -0.417906 0
M  V30 2720 C 259.174 -1.43653 2.64167 0
M  V30 2721 C 260.722 -1.55271 2.71772 0
M  V30 2722 C 261.197 -2.06224 4.08944 0
M  V30 2723 N 262.688 -2.13513 4.11055 0
M  V30 2724 C 263.423 -2.54081 5.14033 0
M  V30 2725 N 262.919 -2.9388 6.27381 0
M  V30 2726 N 264.712 -2.54101 5.01387 0
M  V30 2727 H 256.863 0.0465779 2.12349 0
M  V30 2728 H 259.126 -0.0417638 0.94708 0
M  V30 2729 H 258.832 -0.743706 3.43747 0
M  V30 2730 H 258.706 -2.40993 2.90176 0
M  V30 2731 H 261.093 -2.23653 1.92519 0
M  V30 2732 H 261.174 -0.563395 2.49519 0
M  V30 2733 H 260.818 -1.38441 4.88668 0
M  V30 2734 H 260.748 -3.06003 4.28567 0
M  V30 2735 H 263.239 -1.85493 3.29242 0
M  V30 2736 H 263.552 -3.2361 7.01781 0
M  V30 2737 H 261.897 -2.91663 6.30839 0
M  V30 2738 H 265.088 -2.22391 4.11898 0
M  V30 2739 H 265.261 -2.85394 5.81768 0
M  V30 2740 N 258.668 -1.30515 -0.883378 0
M  V30 2741 C 259.893 -1.22487 -1.67367 0
M  V30 2742 C 260.318 0.208767 -1.86938 0
M  V30 2743 O 259.676 1.15015 -1.40148 0
M  V30 2744 C 259.724 -1.96041 -3.02655 0
M  V30 2745 O 258.828 -1.28859 -3.91751 0
M  V30 2746 H 258.169 -0.423573 -0.511353 0
M  V30 2747 H 260.699 -1.72362 -1.10239 0
M  V30 2748 H 260.709 -2.05124 -3.52687 0
M  V30 2749 H 259.384 -3.00307 -2.8773 0
M  V30 2750 H 257.961 -1.28141 -3.50192 0
M  V30 2751 N 260.146 1.09593 -1.13257 0
M  V30 2752 C 261.423 1.78293 -0.804432 0
M  V30 2753 C 261.803 1.99004 0.70431 0
M  V30 2754 O 261.151 1.59007 1.641 0
M  V30 2755 C 261.361 3.10707 -1.5894 0
M  V30 2756 C 262.709 3.85443 -1.78099 0
M  V30 2757 O 263.733 3.20454 -1.55525 0
M  V30 2758 O 262.592 5.02108 -2.15753 0
M  V30 2759 H 259.686 0.773156 -0.293528 0
M  V30 2760 H 262.232 1.16164 -1.23709 0
M  V30 2761 H 261.004 2.91106 -2.61482 0
M  V30 2762 H 260.627 3.80558 -1.15157 0
M  V30 2763 N 261.624 0.925811 1.2754 0
M  V30 2764 C 262.901 0.483726 1.89524 0
M  V30 2765 C 263.281 -1.03809 1.83812 0
M  V30 2766 O 262.629 -1.89143 1.28207 0
M  V30 2767 C 262.839 1.02769 3.33526 0
M  V30 2768 C 264.187 1.08703 4.10449 0
M  V30 2769 O 265.211 0.977175 3.42534 0
M  V30 2770 O 264.07 1.25599 5.31871 0
M  V30 2771 H 261.164 0.15529 0.812289 0
M  V30 2772 H 263.71 1.01738 1.35822 0
M  V30 2773 H 262.482 2.07155 3.31967 0
M  V30 2774 H 262.105 0.475567 3.94746 0
M  V30 2775 N 263.102 -1.41638 0.69111 0
M  V30 2776 C 264.05 -2.32597 0.0115199 0
M  V30 2777 C 265.044 -1.5072 -0.773296 0
M  V30 2778 O 266.25 -1.66685 -0.67942 0
M  V30 2779 H 262.625 -0.751849 -0.0150746 0
M  V30 2780 H 264.596 -2.87593 0.795791 0
M  V30 2781 C 263.345 -3.35467 -0.914172 0
M  V30 2782 H 262.668 -3.9852 -0.319687 0
M  V30 2783 H 264.108 -4.01662 -1.35808 0
M  V30 2784 C 262.567 -2.69004 -2.02826 0
M  V30 2785 O 263.097 -2.53444 -3.11655 0
M  V30 2786 N 261.303 -2.2777 -1.80469 0
M  V30 2787 H 260.85 -2.40626 -0.919615 0
M  V30 2788 H 260.808 -1.83635 -2.55197 0
M  V30 2789 N 264.58 -0.43555 -1.51462 0
M  V30 2790 C 265.49 0.383001 -2.31453 0
M  V30 2791 C 266.506 1.02931 -1.4029 0
M  V30 2792 O 267.682 1.02507 -1.73362 0
M  V30 2793 C 264.747 1.47043 -3.13973 0
M  V30 2794 C 263.808 0.844433 -4.20913 0
M  V30 2795 C 263.041 1.88004 -4.9949 0
M  V30 2796 O 263.264 3.10199 -4.78678 0
M  V30 2797 O 262.198 1.47157 -5.83634 0
M  V30 2798 H 266.024 -0.269964 -3.02498 0
M  V30 2799 H 263.609 -0.19813 -1.4808 0
M  V30 2800 H 265.491 2.10113 -3.65281 0
M  V30 2801 H 264.166 2.10751 -2.45695 0
M  V30 2802 H 263.073 0.175729 -3.73687 0
M  V30 2803 H 264.406 0.250869 -4.9156 0
M  V30 2804 N 266.058 1.56714 -0.166846 0
M  V30 2805 C 267.005 2.17746 0.765193 0
M  V30 2806 C 267.975 1.11614 1.23011 0
M  V30 2807 O 269.16 1.39745 1.29908 0
M  V30 2808 C 266.3 2.81882 1.9909 0
M  V30 2809 C 265.413 4.02462 1.56997 0
M  V30 2810 C 264.548 4.54537 2.749 0
M  V30 2811 C 263.587 5.67538 2.29275 0
M  V30 2812 N 262.724 6.14142 3.40255 0
M  V30 2813 H 267.564 2.97048 0.237952 0
M  V30 2814 H 265.101 1.4672 0.105725 0
M  V30 2815 H 267.059 3.17221 2.70974 0
M  V30 2816 H 265.689 2.05191 2.49192 0
M  V30 2817 H 264.741 3.72973 0.748037 0
M  V30 2818 H 266.053 4.84273 1.19503 0
M  V30 2819 H 265.207 4.92035 3.54946 0
M  V30 2820 H 263.946 3.71774 3.1565 0
M  V30 2821 H 262.951 5.29597 1.47674 0
M  V30 2822 H 264.176 6.52099 1.89588 0
M  V30 2823 H 262.122 5.3431 3.8059 0
M  V30 2824 H 262.039 6.9093 3.06841 0
M  V30 2825 H 263.307 6.56289 4.206 0
M  V30 2826 N 267.536 -0.106894 1.57237 0
M  V30 2827 C 268.499 -1.11466 2.0027 0
M  V30 2828 C 269.499 -1.33623 0.894519 0
M  V30 2829 O 270.689 -1.29935 1.16028 0
M  V30 2830 C 267.821 -2.46646 2.35327 0
M  V30 2831 H 269.014 -0.744516 2.90512 0
M  V30 2832 H 266.567 -0.351576 1.52295 0
M  V30 2833 H 267.302 -2.88558 1.48003 0
M  V30 2834 H 267.087 -2.31915 3.16161 0
M  V30 2835 H 268.577 -3.19151 2.69318 0
M  V30 2836 N 269.014 -1.53014 -0.377408 0
M  V30 2837 C 269.944 -1.81589 -1.46791 0
M  V30 2838 C 270.925 -0.668622 -1.56408 0
M  V30 2839 O 272.11 -0.917337 -1.71168 0
M  V30 2840 C 269.24 -1.99519 -2.8427 0
M  V30 2841 C 268.194 -3.15249 -2.89486 0
M  V30 2842 C 267.52 -3.18451 -4.29527 0
M  V30 2843 C 268.82 -4.54084 -2.58079 0
M  V30 2844 H 270.514 -2.7291 -1.23127 0
M  V30 2845 H 268.06 -1.31319 -0.590883 0
M  V30 2846 H 270.013 -2.18092 -3.60575 0
M  V30 2847 H 268.737 -1.04897 -3.09296 0
M  V30 2848 H 267.396 -2.96477 -2.15631 0
M  V30 2849 H 267.044 -2.2149 -4.5161 0
M  V30 2850 H 266.744 -3.962 -4.33934 0
M  V30 2851 H 268.268 -3.39193 -5.07721 0
M  V30 2852 H 269.682 -4.72899 -3.24098 0
M  V30 2853 H 268.079 -5.33987 -2.7382 0
M  V30 2854 H 269.149 -4.60006 -1.53372 0
M  V30 2855 N 270.492 0.636531 -1.44174 0
M  V30 2856 C 271.439 1.74875 -1.50624 0
M  V30 2857 C 272.409 1.62275 -0.35442 0
M  V30 2858 O 273.594 1.82276 -0.563908 0
M  V30 2859 C 270.734 3.13102 -1.45125 0
M  V30 2860 C 269.847 3.36717 -2.7064 0
M  V30 2861 C 268.982 4.64885 -2.57013 0
M  V30 2862 C 268.021 4.8166 -3.77717 0
M  V30 2863 N 267.158 6.01101 -3.62798 0
M  V30 2864 H 271.998 1.68697 -2.45653 0
M  V30 2865 H 269.535 0.823004 -1.21922 0
M  V30 2866 H 271.493 3.93034 -1.39929 0
M  V30 2867 H 270.123 3.18308 -0.536671 0
M  V30 2868 H 269.175 2.50763 -2.86046 0
M  V30 2869 H 270.487 3.44993 -3.60252 0
M  V30 2870 H 269.641 5.52969 -2.49619 0
M  V30 2871 H 268.38 4.58957 -1.64953 0
M  V30 2872 H 267.385 3.92007 -3.85501 0
M  V30 2873 H 268.61 4.89406 -4.70807 0
M  V30 2874 H 266.556 5.96273 -2.73486 0
M  V30 2875 H 266.473 6.10409 -4.46023 0
M  V30 2876 H 267.741 6.91761 -3.59286 0
M  V30 2877 N 271.97 1.30982 0.876444 0
M  V30 2878 C 273.219 1.19658 1.62373 0
M  V30 2879 C 273.532 -0.245636 1.94052 0
M  V30 2880 O 274.738 -0.48049 2.67214 0
M  V30 2881 C 273.194 2.09433 2.92687 0
M  V30 2882 C 272.802 3.58613 2.68516 0
M  V30 2883 C 274.546 2.06893 3.70669 0
M  V30 2884 C 272.453 4.40416 3.94699 0
M  V30 2885 H 271.383 0.444268 0.609214 0
M  V30 2886 H 274.034 1.55791 0.969605 0
M  V30 2887 H 272.416 1.66191 3.59439 0
M  V30 2888 H 273.59 4.10058 2.10212 0
M  V30 2889 H 271.905 3.63063 2.03898 0
M  V30 2890 H 274.502 2.65258 4.64265 0
M  V30 2891 H 274.845 1.05448 4.02724 0
M  V30 2892 H 275.378 2.48301 3.10792 0
M  V30 2893 H 272.117 5.42591 3.67798 0
M  V30 2894 H 271.637 3.93731 4.52477 0
M  V30 2895 H 273.316 4.52294 4.62644 0
M  V30 2896 N 273.449 -1.08991 1.13837 0
M  V30 2897 C 274.865 -1.33312 0.877506 0
M  V30 2898 C 275.065 -1.95587 -0.48456 0
M  V30 2899 O 274.121 -2.20509 -1.23013 0
M  V30 2900 C 275.434 -2.24045 2.0056 0
M  V30 2901 C 276.982 -2.37542 2.03821 0
M  V30 2902 C 277.457 -3.31614 3.15905 0
M  V30 2903 N 278.948 -3.39189 3.15445 0
M  V30 2904 C 279.683 -4.11992 3.98811 0
M  V30 2905 N 279.179 -4.87553 4.92203 0
M  V30 2906 N 280.972 -4.07762 3.86894 0
M  V30 2907 H 273.123 -0.669456 2.01574 0
M  V30 2908 H 275.386 -0.357482 0.878015 0
M  V30 2909 H 275.092 -1.85521 2.98789 0
M  V30 2910 H 274.966 -3.24466 1.92359 0
M  V30 2911 H 277.353 -2.75327 1.06202 0
M  V30 2912 H 277.434 -1.36884 2.16093 0
M  V30 2913 H 277.078 -2.94551 4.13766 0
M  V30 2914 H 277.008 -4.32186 3.0087 0
M  V30 2915 H 279.499 -2.85314 2.47799 0
M  V30 2916 H 279.812 -5.40549 5.52292 0
M  V30 2917 H 278.157 -4.86627 4.96205 0
M  V30 2918 H 281.348 -3.47833 3.13257 0
M  V30 2919 H 281.521 -4.64238 4.52092 0
M  V30 2920 N 274.927 -0.932562 -1.27047 0
M  V30 2921 C 275.857 -0.452902 -2.29066 0
M  V30 2922 C 276.838 0.489338 -1.62909 0
M  V30 2923 O 278.023 0.393046 -1.90181 0
M  V30 2924 C 275.153 0.290698 -3.46081 0
M  V30 2925 C 274.107 -0.564168 -4.24265 0
M  V30 2926 C 273.433 0.308886 -5.33807 0
M  V30 2927 C 274.733 -1.83112 -4.89149 0
M  V30 2928 H 276.427 -1.30552 -2.69437 0
M  V30 2929 H 273.973 -0.629201 -1.29526 0
M  V30 2930 H 275.926 0.637233 -4.16554 0
M  V30 2931 H 274.65 1.17738 -3.0464 0
M  V30 2932 H 273.309 -0.893477 -3.55545 0
M  V30 2933 H 272.957 1.19467 -4.88607 0
M  V30 2934 H 272.657 -0.259633 -5.87026 0
M  V30 2935 H 274.181 0.650884 -6.07121 0
M  V30 2936 H 275.595 -1.55236 -5.51883 0
M  V30 2937 H 273.992 -2.34353 -5.52448 0
M  V30 2938 H 275.062 -2.54772 -4.12576 0
M  V30 2939 N 276.405 1.4127 -0.698611 0
M  V30 2940 C 277.337 2.292 0.00399731 0
M  V30 2941 C 278.35 1.44944 0.741279 0
M  V30 2942 O 279.539 1.68416 0.591477 0
M  V30 2943 C 276.639 3.22875 1.02979 0
M  V30 2944 C 275.812 4.35904 0.36151 0
M  V30 2945 C 274.871 5.10134 1.29033 0
M  V30 2946 O 273.897 5.63809 0.781562 0
M  V30 2947 N 275.099 5.17885 2.6225 0
M  V30 2948 H 277.864 2.9014 -0.750921 0
M  V30 2949 H 275.425 1.52455 -0.544882 0
M  V30 2950 H 277.417 3.69404 1.65296 0
M  V30 2951 H 275.987 2.63221 1.68622 0
M  V30 2952 H 275.207 3.91719 -0.441584 0
M  V30 2953 H 276.495 5.08696 -0.103055 0
M  V30 2954 H 275.893 4.7573 3.061 0
M  V30 2955 H 274.45 5.6798 3.19754 0
M  V30 2956 N 277.883 0.443576 1.51229 0
M  V30 2957 C 278.846 -0.353132 2.26463 0
M  V30 2958 C 279.846 -0.944338 1.3015 0
M  V30 2959 O 281.036 -0.817813 1.5381 0
M  V30 2960 C 278.168 -1.50023 3.06114 0
M  V30 2961 H 279.361 0.3063 2.98332 0
M  V30 2962 H 276.914 0.196902 1.55055 0
M  V30 2963 H 277.649 -2.19553 2.38677 0
M  V30 2964 H 277.434 -1.08241 3.76864 0
M  V30 2965 H 278.924 -2.06296 3.63087 0
M  V30 2966 N 279.361 -1.56624 0.175154 0
M  V30 2967 C 280.591 -2.01082 -0.474283 0
M  V30 2968 C 280.999 -1.05447 -1.57091 0
M  V30 2969 O 280.342 -0.0480595 -1.83637 0
M  V30 2970 C 280.404 -3.41963 -1.10911 0
M  V30 2971 C 280.068 -4.56742 -0.153666 0
M  V30 2972 C 281.065 -5.16076 0.629448 0
M  V30 2973 C 278.75 -5.02277 -0.0483776 0
M  V30 2974 C 280.744 -6.19377 1.50501 0
M  V30 2975 C 278.431 -6.05427 0.830768 0
M  V30 2976 C 279.429 -6.63849 1.60605 0
M  V30 2977 O 279.117 -7.64998 2.47049 0
M  V30 2978 H 278.849 -0.664261 -0.125432 0
M  V30 2979 H 281.403 -2.03549 0.275163 0
M  V30 2980 H 279.633 -3.36422 -1.90676 0
M  V30 2981 H 281.322 -3.70352 -1.66114 0
M  V30 2982 H 282.088 -4.81776 0.558297 0
M  V30 2983 H 277.967 -4.56513 -0.641611 0
M  V30 2984 H 281.511 -6.64906 2.1106 0
M  V30 2985 H 277.408 -6.39151 0.903107 0
M  V30 2986 H 278.176 -7.82336 2.40607 0
M  V30 2987 N 280.839 0.0985539 -1.57292 0
M  V30 2988 C 281.789 1.1261 -1.9825 0
M  V30 2989 C 282.773 1.35961 -0.860426 0
M  V30 2990 O 283.965 1.36711 -1.12424 0
M  V30 2991 C 281.094 2.44727 -2.40757 0
M  V30 2992 C 280.18 2.24764 -3.59642 0
M  V30 2993 N 280.571 1.74661 -4.74687 0
M  V30 2994 C 278.869 2.55344 -3.65672 0
M  V30 2995 C 279.57 1.68887 -5.56644 0
M  V30 2996 N 278.546 2.13976 -4.99715 0
M  V30 2997 H 282.348 0.731604 -2.84648 0
M  V30 2998 H 279.862 0.306029 -1.59491 0
M  V30 2999 H 281.859 3.19072 -2.68326 0
M  V30 3000 H 280.519 2.84917 -1.55733 0
M  V30 3001 H 281.53 1.43908 -4.97505 0
M  V30 3002 H 278.207 2.99081 -2.91302 0
M  V30 3003 H 279.597 1.3123 -6.5896 0
M  V30 3004 N 282.317 1.53212 0.369288 0
M  V30 3005 C 283.545 1.73119 1.13303 0
M  V30 3006 C 283.96 0.458455 1.83149 0
M  V30 3007 O 283.317 -0.568403 1.73423 0
M  V30 3008 C 283.368 2.89413 2.16616 0
M  V30 3009 O 283.089 4.11761 1.49614 0
M  V30 3010 C 284.59 3.21161 3.05566 0
M  V30 3011 H 281.81 0.579107 0.338934 0
M  V30 3012 H 284.354 1.99942 0.429338 0
M  V30 3013 H 282.509 2.64994 2.82589 0
M  V30 3014 H 282.923 4.76858 2.18419 0
M  V30 3015 H 284.397 4.05949 3.74045 0
M  V30 3016 H 284.874 2.36369 3.70171 0
M  V30 3017 H 285.48 3.47492 2.45213 0
M  V30 3018 N 283.795 -0.628877 1.44509 0
M  V30 3019 C 284.727 -1.754 1.47538 0
M  V30 3020 C 285.74 -1.58575 0.368506 0
M  V30 3021 O 286.929 -1.66847 0.634376 0
M  V30 3022 C 284.029 -3.1315 1.29577 0
M  V30 3023 C 283.202 -3.56413 2.53551 0
M  V30 3024 C 282.261 -4.7305 2.30457 0
M  V30 3025 O 281.287 -4.81247 3.03957 0
M  V30 3026 N 282.489 -5.64903 1.3366 0
M  V30 3027 H 285.254 -1.73272 2.44534 0
M  V30 3028 H 282.815 -0.813512 1.39977 0
M  V30 3029 H 284.807 -3.88902 1.11971 0
M  V30 3030 H 283.377 -3.09908 0.409371 0
M  V30 3031 H 282.597 -2.70847 2.86419 0
M  V30 3032 H 283.885 -3.82071 3.36005 0
M  V30 3033 H 283.283 -5.60975 0.729604 0
M  V30 3034 H 281.84 -6.40275 1.22032 0
M  V30 3035 N 285.273 -1.31445 -0.869486 0
M  V30 3036 C 286.501 -1.24122 -1.65534 0
M  V30 3037 C 286.916 0.193387 -1.87807 0
M  V30 3038 O 286.273 1.12557 -1.43656 0
M  V30 3039 C 286.324 -1.98229 -3.02304 0
M  V30 3040 O 286.045 -3.3609 -2.81026 0
M  V30 3041 C 287.546 -1.97751 -3.96749 0
M  V30 3042 H 284.766 -0.428868 -0.516055 0
M  V30 3043 H 287.31 -1.73328 -1.08525 0
M  V30 3044 H 285.465 -1.52782 -3.56001 0
M  V30 3045 H 285.879 -3.7383 -3.67902 0
M  V30 3046 H 287.353 -2.54114 -4.90031 0
M  V30 3047 H 287.83 -0.960137 -4.28577 0
M  V30 3048 H 288.436 -2.43079 -3.48988 0
M  V30 3049 N 286.751 1.08385 -1.14413 0
M  V30 3050 C 287.979 1.84517 -0.936001 0
M  V30 3051 C 288.394 1.81626 0.515503 0
M  V30 3052 O 287.751 1.22008 1.35721 0
M  V30 3053 C 287.802 3.32049 -1.42918 0
M  V30 3054 O 287.523 3.34951 -2.82381 0
M  V30 3055 C 289.024 4.24986 -1.26103 0
M  V30 3056 H 286.244 0.582491 -0.333084 0
M  V30 3057 H 288.788 1.36885 -1.5193 0
M  V30 3058 H 286.943 3.7707 -0.888641 0
M  V30 3059 H 287.357 4.27048 -3.04517 0
M  V30 3060 H 288.831 5.26615 -1.6547 0
M  V30 3061 H 289.308 4.38726 -0.20392 0
M  V30 3062 H 289.914 3.85791 -1.79012 0
M  V30 3063 N 288.23 0.939286 1.26551 0
M  V30 3064 C 289.641 0.628782 1.75793 0
M  V30 3065 C 289.992 -0.856046 1.7654 0
M  V30 3066 O 289.117 -1.66994 1.3763 0
M  V30 3067 C 289.712 1.13465 3.19235 0
M  V30 3068 C 288.271 0.874601 3.66098 0
M  V30 3069 C 287.418 1.28667 2.45642 0
M  V30 3070 H 290.369 1.1178 1.12654 0
M  V30 3071 H 290.39 0.487609 3.77363 0
M  V30 3072 H 289.902 2.21535 3.1866 0
M  V30 3073 H 288.003 -0.191793 3.72106 0
M  V30 3074 H 288.116 1.50028 4.55004 0
M  V30 3075 H 286.48 0.705109 2.44745 0
M  V30 3076 H 287.263 2.37625 2.47769 0
M  V30 3077 N 289.708 -1.40897 0.706093 0
M  V30 3078 C 290.638 -2.33418 0.0620085 0
M  V30 3079 C 291.619 -1.52385 -0.755827 0
M  V30 3080 O 292.804 -1.80886 -0.706674 0
M  V30 3081 C 289.934 -3.36293 -0.867445 0
M  V30 3082 C 288.888 -4.27716 -0.155932 0
M  V30 3083 C 288.214 -5.2105 -1.20046 0
M  V30 3084 C 289.514 -5.12944 0.984149 0
M  V30 3085 H 291.208 -2.87527 0.83477 0
M  V30 3086 H 288.754 -1.38249 0.402875 0
M  V30 3087 H 290.707 -3.99949 -1.32735 0
M  V30 3088 H 289.431 -2.80556 -1.67199 0
M  V30 3089 H 288.09 -3.65498 0.284047 0
M  V30 3090 H 287.738 -4.61624 -1.99781 0
M  V30 3091 H 287.438 -5.83056 -0.729328 0
M  V30 3092 H 288.962 -5.87584 -1.66066 0
M  V30 3093 H 290.376 -5.70109 0.604048 0
M  V30 3094 H 288.773 -5.83945 1.38304 0
M  V30 3095 H 289.843 -4.49485 1.81911 0
M  V30 3096 N 291.186 -0.45159 -1.50991 0
M  V30 3097 C 292.435 0.111653 -2.01391 0
M  V30 3098 C 292.748 1.42529 -1.33959 0
M  V30 3099 O 293.954 2.07232 -1.75405 0
M  V30 3100 C 292.41 0.249514 -3.59034 0
M  V30 3101 C 292.018 -1.05453 -4.35412 0
M  V30 3102 C 293.762 0.765762 -4.17536 0
M  V30 3103 C 291.669 -0.881529 -5.84793 0
M  V30 3104 H 290.599 0.0455022 -0.752626 0
M  V30 3105 H 293.25 -0.583524 -1.73975 0
M  V30 3106 H 291.632 1.00803 -3.82955 0
M  V30 3107 H 292.806 -1.82248 -4.23229 0
M  V30 3108 H 291.121 -1.50039 -3.88429 0
M  V30 3109 H 293.718 0.911913 -5.26866 0
M  V30 3110 H 294.061 1.75201 -3.77638 0
M  V30 3111 H 294.594 0.0651744 -3.97747 0
M  V30 3112 H 291.333 -1.84057 -6.29129 0
M  V30 3113 H 290.853 -0.153625 -5.99603 0
M  V30 3114 H 292.532 -0.540363 -6.4474 0
M  V30 3115 N 292.664 1.56529 -0.183458 0
M  V30 3116 C 293.574 2.22144 0.754272 0
M  V30 3117 C 294.59 1.21684 1.24374 0
M  V30 3118 O 295.766 1.54385 1.29333 0
M  V30 3119 C 292.831 2.85884 1.96141 0
M  V30 3120 C 291.892 4.01579 1.51765 0
M  V30 3121 C 291.125 4.6227 2.66725 0
M  V30 3122 O 291.348 4.21865 3.83909 0
M  V30 3123 O 290.282 5.51936 2.40104 0
M  V30 3124 H 294.108 3.02861 0.225527 0
M  V30 3125 H 291.693 1.49331 0.0453032 0
M  V30 3126 H 293.575 3.26253 2.66715 0
M  V30 3127 H 292.25 2.08154 2.47899 0
M  V30 3128 H 291.157 3.65856 0.781049 0
M  V30 3129 H 292.49 4.80938 1.04686 0
M  V30 3130 N 294.142 -0.090211 1.57342 0
M  V30 3131 C 295.372 -0.805055 1.90269 0
M  V30 3132 C 295.78 -1.72561 0.775842 0
M  V30 3133 O 295.123 -1.81839 -0.260843 0
M  V30 3134 C 295.185 -1.66734 3.18497 0
M  V30 3135 C 294.849 -0.918092 4.47683 0
M  V30 3136 C 295.846 -0.245674 5.19319 0
M  V30 3137 C 293.531 -0.890724 4.94339 0
M  V30 3138 C 295.525 0.444088 6.35851 0
M  V30 3139 C 293.212 -0.197179 6.10782 0
M  V30 3140 C 294.21 0.469044 6.81388 0
M  V30 3141 O 293.898 1.15146 7.95611 0
M  V30 3142 H 293.63 -0.235143 0.633785 0
M  V30 3143 H 296.184 -0.0703805 2.05279 0
M  V30 3144 H 294.414 -2.44437 2.99646 0
M  V30 3145 H 296.103 -2.25919 3.37217 0
M  V30 3146 H 296.869 -0.258246 4.84312 0
M  V30 3147 H 292.748 -1.39873 4.39268 0
M  V30 3148 H 296.292 0.964667 6.90898 0
M  V30 3149 H 292.189 -0.18247 6.45242 0
M  V30 3150 H 292.957 1.05885 8.11622 0
M  V30 3151 N 295.62 -1.53406 -0.361157 0
M  V30 3152 C 296.85 -1.73465 -1.1222 0
M  V30 3153 C 297.258 -0.465486 -1.83384 0
M  V30 3154 O 296.601 0.571611 -1.7458 0
M  V30 3155 C 296.663 -2.84834 -2.19339 0
M  V30 3156 C 296.327 -4.25038 -1.67903 0
M  V30 3157 C 297.324 -5.07231 -1.14074 0
M  V30 3158 C 295.009 -4.71464 -1.73282 0
M  V30 3159 C 297.003 -6.33942 -0.663068 0
M  V30 3160 C 294.69 -5.98153 -1.25127 0
M  V30 3161 C 295.688 -6.79223 -0.717296 0
M  V30 3162 O 295.376 -8.03533 -0.242865 0
M  V30 3163 H 295.108 -0.583526 -0.341283 0
M  V30 3164 H 297.662 -2.00964 -0.424591 0
M  V30 3165 H 295.892 -2.5282 -2.92607 0
M  V30 3166 H 297.581 -2.9303 -2.80871 0
M  V30 3167 H 298.347 -4.72534 -1.09254 0
M  V30 3168 H 294.226 -4.08432 -2.13786 0
M  V30 3169 H 297.77 -6.97167 -0.245612 0
M  V30 3170 H 293.667 -6.32347 -1.29642 0
M  V30 3171 H 294.435 -8.177 -0.361786 0
M  V30 3172 N 297.098 0.621204 -1.44841 0
M  V30 3173 C 298.514 0.94048 -1.28946 0
M  V30 3174 C 298.714 2.00154 -0.23249 0
M  V30 3175 O 297.77 2.49651 0.378237 0
M  V30 3176 C 299.083 1.39433 -2.66419 0
M  V30 3177 C 300.631 1.50927 -2.74208 0
M  V30 3178 C 301.106 1.99692 -4.12174 0
M  V30 3179 N 302.597 2.06947 -4.144 0
M  V30 3180 C 303.332 2.45871 -5.1801 0
M  V30 3181 N 302.828 2.83862 -6.31977 0
M  V30 3182 N 304.621 2.46092 -5.05366 0
M  V30 3183 H 296.772 -0.0803548 -2.12248 0
M  V30 3184 H 299.035 0.0266913 -0.947624 0
M  V30 3185 H 298.741 0.688925 -3.44887 0
M  V30 3186 H 298.615 2.36347 -2.93973 0
M  V30 3187 H 301.002 2.20561 -1.96053 0
M  V30 3188 H 301.083 0.523627 -2.50383 0
M  V30 3189 H 300.727 1.30649 -4.90809 0
M  V30 3190 H 300.657 2.99146 -4.33381 0
M  V30 3191 H 303.148 1.80232 -3.32152 0
M  V30 3192 H 303.461 3.12405 -7.0684 0
M  V30 3193 H 301.806 2.8159 -6.35399 0
M  V30 3194 H 304.997 2.1581 -4.15384 0
M  V30 3195 H 305.17 2.76102 -5.86235 0
M  V30 3196 N 298.576 1.31904 0.862503 0
M  V30 3197 C 299.523 1.20182 1.9704 0
M  V30 3198 C 300.493 0.0858247 1.65878 0
M  V30 3199 O 301.678 0.26 1.8902 0
M  V30 3200 C 298.818 0.922797 3.32533 0
M  V30 3201 C 297.931 2.12284 3.76244 0
M  V30 3202 C 297.066 1.77996 5.00491 0
M  V30 3203 C 296.105 2.94366 5.36671 0
M  V30 3204 N 295.242 2.60223 6.52095 0
M  V30 3205 H 300.082 2.14951 2.06398 0
M  V30 3206 H 297.619 1.06917 1.01031 0
M  V30 3207 H 299.577 0.741548 4.10557 0
M  V30 3208 H 298.207 0.0119227 3.22798 0
M  V30 3209 H 297.259 2.41461 2.9394 0
M  V30 3210 H 298.571 2.99357 3.98982 0
M  V30 3211 H 297.725 1.56377 5.862 0
M  V30 3212 H 296.464 0.881252 4.79672 0
M  V30 3213 H 295.469 3.16625 4.49476 0
M  V30 3214 H 296.694 3.84957 5.59451 0
M  V30 3215 H 294.64 1.72884 6.32809 0
M  V30 3216 H 294.557 3.40827 6.74814 0
M  V30 3217 H 295.825 2.42016 7.40978 0
M  V30 3218 N 300.054 -1.07777 1.14986 0
M  V30 3219 C 301.47 -1.32373 0.891596 0
M  V30 3220 C 301.67 -1.9609 -0.463788 0
M  V30 3221 O 300.726 -2.21801 -1.20667 0
M  V30 3222 C 302.039 -2.21905 2.02925 0
M  V30 3223 C 303.587 -2.35367 2.06329 0
M  V30 3224 C 304.062 -3.28245 3.19405 0
M  V30 3225 N 305.553 -3.35824 3.19024 0
M  V30 3226 C 306.288 -4.07739 4.03158 0
M  V30 3227 N 305.784 -4.82306 4.97346 0
M  V30 3228 N 307.577 -4.03635 3.91197 0
M  V30 3229 H 299.728 -0.648039 2.02273 0
M  V30 3230 H 301.991 -0.348149 0.881757 0
M  V30 3231 H 301.697 -1.82342 3.0074 0
M  V30 3232 H 301.571 -3.22407 1.95789 0
M  V30 3233 H 303.958 -2.74186 1.09116 0
M  V30 3234 H 304.039 -1.34585 2.17533 0
M  V30 3235 H 303.683 -2.90146 4.16867 0
M  V30 3236 H 303.613 -4.28971 3.05437 0
M  V30 3237 H 306.104 -2.8267 2.50811 0
M  V30 3238 H 306.417 -5.34661 5.57994 0
M  V30 3239 H 304.762 -4.81337 5.01338 0
M  V30 3240 H 307.953 -3.44491 3.16928 0
M  V30 3241 H 308.126 -4.59417 4.5699 0
M  V30 3242 N 301.532 -0.945985 -1.26051 0
M  V30 3243 C 302.78 -0.594941 -1.93145 0
M  V30 3244 C 303.101 0.86953 -1.7454 0
M  V30 3245 O 302.371 1.61838 -1.10387 0
M  V30 3246 H 300.951 -0.217044 -0.714773 0
M  V30 3247 H 303.613 -1.20235 -1.53393 0
M  V30 3248 H 302.709 -0.816835 -3.01221 0
M  V30 3249 N 303.011 1.40521 -0.713556 0
M  V30 3250 C 304.26 2.00155 -0.249192 0
M  V30 3251 C 304.573 1.57224 1.16362 0
M  V30 3252 O 305.779 2.09542 1.72639 0
M  V30 3253 C 304.235 3.5773 -0.3946 0
M  V30 3254 C 303.843 4.09635 -1.81392 0
M  V30 3255 C 305.587 4.24499 0.00907364 0
M  V30 3256 C 303.494 5.59707 -1.91003 0
M  V30 3257 H 302.424 0.74868 -0.0894114 0
M  V30 3258 H 305.075 1.60784 -0.884352 0
M  V30 3259 H 303.457 3.94792 0.30911 0
M  V30 3260 H 304.631 3.83955 -2.54785 0
M  V30 3261 H 302.946 3.55456 -2.16888 0
M  V30 3262 H 305.543 5.34683 -0.0420404 0
M  V30 3263 H 305.886 4.02824 1.05065 0
M  V30 3264 H 306.419 3.92536 -0.645007 0
M  V30 3265 H 303.158 5.86234 -2.93275 0
M  V30 3266 H 302.678 5.87258 -1.22019 0
M  V30 3267 H 304.357 6.24776 -1.6812 0
M  V30 3268 N 304.489 0.459591 1.5075 0
M  V30 3269 C 305.439 -0.358926 2.25157 0
M  V30 3270 C 306.423 -0.971285 1.28276 0
M  V30 3271 O 307.615 -0.885739 1.53244 0
M  V30 3272 C 304.744 -1.44695 3.11317 0
M  V30 3273 C 303.83 -0.842894 4.15639 0
M  V30 3274 N 304.221 0.0299373 5.05791 0
M  V30 3275 C 302.519 -1.10809 4.32015 0
M  V30 3276 C 303.22 0.371563 5.80512 0
M  V30 3277 N 302.196 -0.250409 5.43023 0
M  V30 3278 H 305.998 0.313636 2.92222 0
M  V30 3279 H 303.512 0.273021 1.60089 0
M  V30 3280 H 305.509 -2.04641 3.63218 0
M  V30 3281 H 304.169 -2.12162 2.45799 0
M  V30 3282 H 305.18 0.39797 5.16369 0
M  V30 3283 H 301.857 -1.7786 3.77719 0
M  V30 3284 H 303.247 1.08319 6.63111 0
M  V30 3285 N 305.967 -1.56429 0.191757 0
M  V30 3286 C 307.192 -2.02309 -0.456706 0
M  V30 3287 C 307.617 -1.07103 -1.5463 0
M  V30 3288 O 306.975 -0.0539677 -1.8122 0
M  V30 3289 C 307.023 -3.46654 -0.993159 0
M  V30 3290 O 306.127 -3.54559 -2.10622 0
M  V30 3291 H 305.468 -0.655303 -0.107114 0
M  V30 3292 H 307.998 -2.02364 0.301653 0
M  V30 3293 H 308.008 -3.86377 -1.31061 0
M  V30 3294 H 306.683 -4.1544 -0.195504 0
M  V30 3295 H 305.26 -3.26708 -1.79767 0
M  V30 3296 N 307.445 0.0818655 -1.57387 0
M  V30 3297 C 308.408 1.08265 -2.02018 0
M  V30 3298 C 309.408 1.32183 -0.915664 0
M  V30 3299 O 310.598 1.28073 -1.18081 0
M  V30 3300 C 307.73 2.42871 -2.39221 0
M  V30 3301 H 308.923 0.698204 -2.91659 0
M  V30 3302 H 306.476 0.327303 -1.52835 0
M  V30 3303 H 307.211 2.86167 -1.52575 0
M  V30 3304 H 306.996 2.26855 -3.19811 0
M  V30 3305 H 308.486 3.14826 -2.74362 0
M  V30 3306 N 308.923 1.53595 0.353017 0
M  V30 3307 C 310.172 1.69603 1.09168 0
M  V30 3308 C 310.485 0.460925 1.90092 0
M  V30 3309 O 311.691 0.501774 2.66823 0
M  V30 3310 C 310.147 2.99872 1.9901 0
M  V30 3311 C 309.755 4.30687 1.23339 0
M  V30 3312 C 311.499 3.25246 2.72792 0
M  V30 3313 C 309.406 5.52036 2.12156 0
M  V30 3314 H 308.336 0.631966 0.411261 0
M  V30 3315 H 310.987 1.80096 0.351802 0
M  V30 3316 H 309.369 2.83212 2.7678 0
M  V30 3317 H 310.543 4.58019 0.505456 0
M  V30 3318 H 308.858 4.11853 0.613663 0
M  V30 3319 H 311.455 4.13095 3.39495 0
M  V30 3320 H 311.798 2.41846 3.38846 0
M  V30 3321 H 312.331 3.42638 2.021 0
M  V30 3322 H 309.07 6.37951 1.50659 0
M  V30 3323 H 308.59 5.28966 2.82764 0
M  V30 3324 H 310.269 5.87313 2.71427 0
M  V30 3325 N 310.401 -0.613514 1.45168 0
M  V30 3326 C 311.678 -1.37263 1.39349 0
M  V30 3327 C 312.058 -2.11012 0.0610848 0
M  V30 3328 O 311.406 -2.07502 -0.956825 0
M  V30 3329 C 311.616 -2.3244 2.60332 0
M  V30 3330 C 312.964 -2.9523 3.05163 0
M  V30 3331 O 313.988 -2.42762 2.60663 0
M  V30 3332 O 312.847 -3.90454 3.82372 0
M  V30 3333 H 309.941 -0.615188 0.552696 0
M  V30 3334 H 312.487 -0.637097 1.57287 0
M  V30 3335 H 311.259 -1.77164 3.48896 0
M  V30 3336 H 310.882 -3.13383 2.44698 0
M  V30 3337 N 311.879 -1.3236 -0.855495 0
M  V30 3338 C 312.842 -1.21164 -1.94556 0
M  V30 3339 C 313.842 -0.134908 -1.60233 0
M  V30 3340 O 315.032 -0.385249 -1.69887 0
M  V30 3341 C 312.164 -0.863192 -3.29791 0
M  V30 3342 H 313.357 -2.18038 -2.05911 0
M  V30 3343 H 310.91 -1.16179 -1.04557 0
M  V30 3344 H 311.645 0.103769 -3.24134 0
M  V30 3345 H 311.43 -1.64166 -3.56078 0
M  V30 3346 H 312.92 -0.809156 -4.09686 0
M  V30 3347 N 313.357 1.07166 -1.15556 0
M  V30 3348 C 314.582 1.84053 -0.955988 0
M  V30 3349 C 315.007 1.81586 0.490739 0
M  V30 3350 O 314.365 1.21018 1.34997 0
M  V30 3351 C 314.413 3.28957 -1.47714 0
M  V30 3352 O 313.517 4.06795 -0.677593 0
M  V30 3353 H 312.858 0.569842 -0.340847 0
M  V30 3354 H 315.388 1.35178 -1.53584 0
M  V30 3355 H 315.398 3.79788 -1.4908 0
M  V30 3356 H 314.073 3.30068 -2.53037 0
M  V30 3357 H 312.65 3.6561 -0.733721 0
M  V30 3358 N 314.835 0.952656 1.25548 0
M  V30 3359 C 315.767 0.428609 2.25157 0
M  V30 3360 C 316.78 -0.454428 1.56329 0
M  V30 3361 O 317.969 -0.263023 1.76552 0
M  V30 3362 C 315.069 -0.401972 3.36508 0
M  V30 3363 C 314.242 0.467601 4.34893 0
M  V30 3364 C 313.301 -0.30445 5.25319 0
M  V30 3365 O 312.327 0.296473 5.68427 0
M  V30 3366 N 313.529 -1.59805 5.5807 0
M  V30 3367 H 316.294 1.28497 2.70756 0
M  V30 3368 H 313.855 0.822798 1.39433 0
M  V30 3369 H 315.847 -0.926134 3.9396 0
M  V30 3370 H 314.417 -1.15918 2.90313 0
M  V30 3371 H 313.637 1.17288 3.76347 0
M  V30 3372 H 314.925 1.06119 4.97611 0
M  V30 3373 H 314.323 -2.10823 5.24948 0
M  V30 3374 H 312.88 -2.06822 6.18116 0
M  V30 3375 N 316.313 -1.40141 0.720998 0
M  V30 3376 C 317.541 -2.05096 0.272656 0
M  V30 3377 C 317.956 -1.54334 -1.0875 0
M  V30 3378 O 317.313 -0.702211 -1.6845 0
M  V30 3379 C 317.364 -3.60636 0.249835 0
M  V30 3380 O 317.085 -4.09526 1.55629 0
M  V30 3381 C 318.586 -4.42772 -0.216396 0
M  V30 3382 H 315.806 -0.659897 0.121558 0
M  V30 3383 H 318.35 -1.79449 0.980723 0
M  V30 3384 H 316.505 -3.85232 -0.409237 0
M  V30 3385 H 316.919 -5.03758 1.4604 0
M  V30 3386 H 318.393 -5.51702 -0.181212 0
M  V30 3387 H 318.87 -4.20756 -1.25941 0
M  V30 3388 H 319.476 -4.23294 0.412596 0
M  V30 3389 N 317.792 -0.46758 -1.50504 0
M  V30 3390 C 319.203 -0.0116166 -1.86696 0
M  V30 3391 C 319.554 1.39202 -1.38265 0
M  V30 3392 O 318.679 2.0313 -0.746132 0
M  V30 3393 C 319.274 -0.0143044 -3.38797 0
M  V30 3394 C 317.833 0.386175 -3.74414 0
M  V30 3395 C 316.98 -0.401287 -2.74381 0
M  V30 3396 H 319.931 -0.682022 -1.43297 0
M  V30 3397 H 319.952 0.788641 -3.72237 0
M  V30 3398 H 319.464 -1.03602 -3.74016 0
M  V30 3399 H 317.565 1.41237 -3.44794 0
M  V30 3400 H 317.678 0.0899596 -4.79016 0
M  V30 3401 H 316.042 0.144536 -2.5429 0
M  V30 3402 H 316.825 -1.42244 -3.12444 0
M  V30 3403 N 319.27 1.56325 -0.20005 0
M  V30 3404 C 320.547 1.89484 0.48529 0
M  V30 3405 C 320.927 1.1143 1.79294 0
M  V30 3406 O 320.275 0.216919 2.27468 0
M  V30 3407 C 320.485 3.41923 0.699243 0
M  V30 3408 C 321.833 4.12256 1.01638 0
M  V30 3409 O 322.857 3.47402 0.786792 0
M  V30 3410 O 321.716 5.26887 1.45095 0
M  V30 3411 H 318.81 0.787144 0.253639 0
M  V30 3412 H 321.356 1.67985 -0.240633 0
M  V30 3413 H 320.128 3.90658 -0.224008 0
M  V30 3414 H 319.751 3.69131 1.47744 0
M  V30 3415 N 320.748 -0.0735177 1.57428 0
M  V30 3416 C 321.994 -0.774145 1.87443 0
M  V30 3417 C 322.327 -1.77311 0.792103 0
M  V30 3418 O 321.602 -1.93492 -0.197793 0
M  V30 3419 C 321.885 -1.48367 3.28115 0
M  V30 3420 C 321.738 -0.501227 4.46999 0
M  V30 3421 C 323.057 -2.429 3.66998 0
M  V30 3422 H 320.176 -0.279971 0.681752 0
M  V30 3423 H 322.818 -0.0373616 1.89963 0
M  V30 3424 H 320.968 -2.11171 3.26097 0
M  V30 3425 H 322.64 0.121468 4.6114 0
M  V30 3426 H 320.883 0.183593 4.33411 0
M  V30 3427 H 321.554 -1.03526 5.42205 0
M  V30 3428 H 324.03 -1.90175 3.70098 0
M  V30 3429 H 322.906 -2.89549 4.66318 0
M  V30 3430 H 323.167 -3.27628 2.96837 0
M  V30 3431 N 322.226 -1.5378 -0.344866 0
M  V30 3432 C 323.472 -1.71216 -1.08687 0
M  V30 3433 C 323.805 -0.473281 -1.88345 0
M  V30 3434 O 323.08 0.52968 -1.87149 0
M  V30 3435 C 323.363 -2.97486 -2.02914 0
M  V30 3436 C 323.216 -4.31579 -1.26727 0
M  V30 3437 C 324.535 -3.19422 -3.0275 0
M  V30 3438 H 321.654 -0.62301 -0.393735 0
M  V30 3439 H 324.296 -1.8645 -0.365563 0
M  V30 3440 H 322.446 -2.84629 -2.64421 0
M  V30 3441 H 324.118 -4.56284 -0.67845 0
M  V30 3442 H 322.361 -4.30049 -0.569273 0
M  V30 3443 H 323.032 -5.16106 -1.95803 0
M  V30 3444 H 325.508 -3.316 -2.51357 0
M  V30 3445 H 324.384 -4.09169 -3.65885 0
M  V30 3446 H 324.645 -2.35656 -3.74057 0
M  V30 3447 N 323.704 0.605807 -1.45491 0
M  V30 3448 C 324.951 1.36476 -1.49601 0
M  V30 3449 C 325.279 1.94007 -0.138452 0
M  V30 3450 O 324.534 1.75638 0.863114 0
M  V30 3451 C 324.833 2.53012 -2.52428 0
M  V30 3452 C 324.499 2.13617 -3.97087 0
M  V30 3453 C 323.161 2.02587 -4.36477 0
M  V30 3454 C 325.513 1.82899 -4.88055 0
M  V30 3455 C 322.841 1.59064 -5.64726 0
M  V30 3456 C 325.193 1.40861 -6.16718 0
M  V30 3457 C 323.857 1.28391 -6.55036 0
M  V30 3458 H 323.127 0.499402 -0.547429 0
M  V30 3459 H 325.774 0.684546 -1.78847 0
M  V30 3460 H 324.079 3.26379 -2.16758 0
M  V30 3461 H 325.776 3.1124 -2.52845 0
M  V30 3462 H 322.366 2.23129 -3.65939 0
M  V30 3463 H 326.55 1.90317 -4.58359 0
M  V30 3464 H 321.806 1.48034 -5.93208 0
M  V30 3465 H 325.98 1.16138 -6.86648 0
M  V30 3466 H 323.607 0.944403 -7.54311 0
M  V30 3467 N 325.182 1.32811 0.848464 0
M  V30 3468 C 326.145 1.22194 1.9391 0
M  V30 3469 C 327.145 0.143404 1.60159 0
M  V30 3470 O 328.335 0.394253 1.6968 0
M  V30 3471 C 325.467 0.88067 3.29328 0
M  V30 3472 H 326.66 2.19127 2.04752 0
M  V30 3473 H 324.213 1.16731 1.0394 0
M  V30 3474 H 324.948 -0.0865776 3.24184 0
M  V30 3475 H 324.733 1.66052 3.55203 0
M  V30 3476 H 326.223 0.830871 4.09251 0
M  V30 3477 N 326.66 -1.06551 1.16123 0
M  V30 3478 C 327.885 -1.83544 0.965735 0
M  V30 3479 C 328.31 -1.81843 -0.481102 0
M  V30 3480 O 327.668 -1.21732 -1.34354 0
M  V30 3481 C 327.716 -3.28169 1.49457 0
M  V30 3482 O 326.82 -4.0643 0.699157 0
M  V30 3483 H 326.161 -0.568026 0.343864 0
M  V30 3484 H 328.691 -1.34362 1.54299 0
M  V30 3485 H 328.701 -3.78992 1.51092 0
M  V30 3486 H 327.376 -3.28722 2.54784 0
M  V30 3487 H 325.953 -3.65216 0.7531 0
M  V30 3488 N 328.138 -0.959301 -1.25041 0
M  V30 3489 C 329.387 -0.612254 -1.92183 0
M  V30 3490 C 329.7 0.855347 -1.75907 0
M  V30 3491 O 330.906 1.31256 -2.37664 0
M  V30 3492 C 329.362 -1.04435 -3.44414 0
M  V30 3493 C 328.97 -2.53482 -3.69393 0
M  V30 3494 C 330.714 -0.770055 -4.17457 0
M  V30 3495 C 328.621 -2.90468 -5.15153 0
M  V30 3496 H 327.551 -0.225279 -0.719559 0
M  V30 3497 H 330.202 -1.16438 -1.41825 0
M  V30 3498 H 328.584 -0.4206 -3.9376 0
M  V30 3499 H 329.758 -3.20916 -3.30681 0
M  V30 3500 H 328.073 -2.78432 -3.0962 0
M  V30 3501 H 330.67 -1.02249 -5.24832 0
M  V30 3502 H 331.013 0.293611 -4.15263 0
M  V30 3503 H 331.546 -1.35437 -3.74034 0
M  V30 3504 H 328.285 -3.95871 -5.22462 0
M  V30 3505 H 327.805 -2.27711 -5.54894 0
M  V30 3506 H 329.484 -2.79914 -5.83315 0
M  V30 3507 N 329.616 1.39756 -0.72842 0
M  V30 3508 C 330.546 2.33289 -0.0991354 0
M  V30 3509 C 331.527 1.53568 0.731489 0
M  V30 3510 O 332.712 1.81987 0.677807 0
M  V30 3511 C 329.842 3.3763 0.813834 0
M  V30 3512 C 328.796 4.2791 0.0878663 0
M  V30 3513 C 328.122 5.22894 1.11741 0
M  V30 3514 C 329.422 5.11314 -1.06563 0
M  V30 3515 H 331.116 2.86163 -0.880408 0
M  V30 3516 H 328.662 1.37591 -0.424819 0
M  V30 3517 H 330.615 4.0201 1.26355 0
M  V30 3518 H 329.339 2.83181 1.62715 0
M  V30 3519 H 327.998 3.65 -0.342159 0
M  V30 3520 H 327.646 4.64744 1.92412 0
M  V30 3521 H 327.346 5.84143 0.636477 0
M  V30 3522 H 328.87 5.90151 1.56697 0
M  V30 3523 H 330.284 5.69076 -0.694671 0
M  V30 3524 H 328.681 5.81671 -1.47577 0
M  V30 3525 H 329.751 4.46534 -1.89038 0
M  V30 3526 N 331.094 0.475555 1.50254 0
M  V30 3527 C 332.057 -0.305016 2.27161 0
M  V30 3528 C 333.057 -0.916519 1.32123 0
M  V30 3529 O 334.247 -0.785003 1.5551 0
M  V30 3530 C 331.379 -1.43496 3.09227 0
M  V30 3531 H 332.572 0.369511 2.97615 0
M  V30 3532 H 330.125 0.229747 1.54602 0
M  V30 3533 H 330.86 -2.14441 2.43281 0
M  V30 3534 H 330.645 -1.00223 3.79075 0
M  V30 3535 H 332.135 -1.98548 3.67381 0
M  V30 3536 N 332.573 -1.56217 0.208337 0
M  V30 3537 C 333.536 -2.18455 -0.693557 0
M  V30 3538 C 334.536 -1.14268 -1.13135 0
M  V30 3539 O 335.726 -1.39577 -1.0423 0
M  V30 3540 C 332.858 -2.79727 -1.94848 0
M  V30 3541 H 334.051 -2.99519 -0.15114 0
M  V30 3542 H 331.604 -1.56245 -0.041287 0
M  V30 3543 H 332.339 -2.02497 -2.53309 0
M  V30 3544 H 332.124 -3.56009 -1.64316 0
M  V30 3545 H 333.614 -3.27475 -2.59133 0
M  V30 3546 N 334.051 0.0651679 -1.57465 0
M  V30 3547 C 335.298 0.763063 -1.87573 0
M  V30 3548 C 335.626 1.77242 -0.800961 0
M  V30 3549 O 334.881 1.94651 0.202316 0
M  V30 3550 C 335.18 1.50081 -3.24362 0
M  V30 3551 C 334.846 0.630816 -4.46466 0
M  V30 3552 C 333.508 0.391082 -4.79608 0
M  V30 3553 C 335.86 0.0279465 -5.21193 0
M  V30 3554 C 333.188 -0.460894 -5.84887 0
M  V30 3555 C 335.54 -0.811522 -6.27373 0
M  V30 3556 C 334.204 -1.06106 -6.59013 0
M  V30 3557 H 333.474 0.279224 -0.686378 0
M  V30 3558 H 336.121 0.0236726 -1.91485 0
M  V30 3559 H 334.426 2.31258 -3.16271 0
M  V30 3560 H 336.123 2.04571 -3.44894 0
M  V30 3561 H 332.713 0.8278 -4.2053 0
M  V30 3562 H 336.897 0.200262 -4.95896 0
M  V30 3563 H 332.153 -0.662907 -6.07796 0
M  V30 3564 H 336.327 -1.28537 -6.84435 0
M  V30 3565 H 333.954 -1.723 -7.40417 0
M  V30 3566 N 335.529 1.53961 0.336706 0
M  V30 3567 C 336.754 1.75797 1.10046 0
M  V30 3568 C 337.179 0.498985 1.81361 0
M  V30 3569 O 336.537 -0.548769 1.72795 0
M  V30 3570 C 336.585 2.94257 2.08436 0
M  V30 3571 O 335.689 2.64883 3.16087 0
M  V30 3572 H 335.03 0.582936 0.317934 0
M  V30 3573 H 337.56 2.00945 0.38501 0
M  V30 3574 H 337.57 3.21237 2.51537 0
M  V30 3575 H 336.245 3.85564 1.55927 0
M  V30 3576 H 334.822 2.48812 2.77753 0
M  V30 3577 N 337.007 -0.598083 1.45811 0
M  V30 3578 C 337.954 -1.7082 1.55207 0
M  V30 3579 C 338.924 -1.61278 0.39732 0
M  V30 3580 O 340.109 -1.80717 0.612038 0
M  V30 3581 C 337.249 -3.09144 1.53376 0
M  V30 3582 C 336.362 -3.29423 2.79472 0
M  V30 3583 C 335.497 -4.57907 2.69248 0
M  V30 3584 C 334.536 -4.71476 3.90354 0
M  V30 3585 N 333.673 -5.9127 3.78608 0
M  V30 3586 H 338.513 -1.62125 2.50039 0
M  V30 3587 H 336.05 -0.790389 1.24062 0
M  V30 3588 H 338.008 -3.89186 1.50301 0
M  V30 3589 H 336.638 -3.16773 0.620876 0
M  V30 3590 H 335.69 -2.43091 2.92594 0
M  V30 3591 H 337.002 -3.3532 3.69272 0
M  V30 3592 H 336.156 -5.46157 2.64192 0
M  V30 3593 H 334.895 -4.54423 1.77063 0
M  V30 3594 H 333.9 -3.81648 3.95759 0
M  V30 3595 H 335.125 -4.76751 4.83617 0
M  V30 3596 H 333.071 -5.88813 2.89199 0
M  V30 3597 H 332.988 -5.98369 4.6205 0
M  V30 3598 H 334.256 -6.81992 3.77501 0
M  V30 3599 N 338.485 -1.33259 -0.841409 0
M  V30 3600 C 339.448 -1.23221 -1.9326 0
M  V30 3601 C 340.448 -0.151895 -1.60081 0
M  V30 3602 O 341.638 -0.403246 -1.69468 0
M  V30 3603 C 338.77 -0.898123 -3.28856 0
M  V30 3604 H 339.963 -2.2021 -2.03587 0
M  V30 3605 H 337.516 -1.17281 -1.03319 0
M  V30 3606 H 338.251 0.0693841 -3.24226 0
M  V30 3607 H 338.036 -1.67934 -3.54317 0
M  V30 3608 H 339.526 -0.852563 -4.08805 0
M  V30 3609 N 339.963 1.05934 -1.16686 0
M  V30 3610 C 341.191 1.8249 -0.974929 0
M  V30 3611 C 341.606 1.82679 0.476861 0
M  V30 3612 O 340.963 1.2486 1.33103 0
M  V30 3613 C 341.014 3.28943 -1.49929 0
M  V30 3614 O 340.735 3.28886 -2.89423 0
M  V30 3615 C 342.236 4.22215 -1.35089 0
M  V30 3616 H 339.456 0.575295 -0.345365 0
M  V30 3617 H 342 1.33631 -1.548 0
M  V30 3618 H 340.155 3.751 -0.968423 0
M  V30 3619 H 340.569 4.20493 -3.13506 0
M  V30 3620 H 342.043 5.22987 -1.76603 0
M  V30 3621 H 342.52 4.38195 -0.296935 0
M  V30 3622 H 343.126 3.81907 -1.87155 0
M  V30 3623 N 341.441 0.965919 1.2453 0
M  V30 3624 C 342.681 0.634656 1.94297 0
M  V30 3625 C 343.045 -0.814822 1.73852 0
M  V30 3626 O 344.246 -1.25622 2.3764 0
M  V30 3627 C 342.517 0.99702 3.43212 0
M  V30 3628 S 344.076 0.780038 4.31811 0
M  V30 3629 H 340.894 0.232893 0.671775 0
M  V30 3630 H 343.496 1.24249 1.50938 0
M  V30 3631 H 342.2 2.04886 3.55598 0
M  V30 3632 H 341.731 0.379888 3.91562 0
M  V30 3633 H 343.746 -0.343512 4.9501 0
M  V30 3634 N 342.919 -1.39368 0.735821 0
M  V30 3635 C 343.866 -2.30599 0.0963825 0
M  V30 3636 C 344.836 -1.49257 -0.728794 0
M  V30 3637 O 346.021 -1.77941 -0.688588 0
M  V30 3638 C 343.161 -3.35596 -0.804305 0
M  V30 3639 C 342.274 -4.31987 0.0335761 0
M  V30 3640 C 341.409 -5.24053 -0.868461 0
M  V30 3641 C 340.448 -6.12095 -0.0258776 0
M  V30 3642 N 339.585 -6.96514 -0.883893 0
M  V30 3643 H 344.425 -2.8471 0.880002 0
M  V30 3644 H 341.962 -1.40188 0.445619 0
M  V30 3645 H 343.92 -3.95062 -1.34096 0
M  V30 3646 H 342.55 -2.82938 -1.55389 0
M  V30 3647 H 341.602 -3.74133 0.68766 0
M  V30 3648 H 342.914 -4.94074 0.685036 0
M  V30 3649 H 342.068 -5.88549 -1.47293 0
M  V30 3650 H 340.807 -4.62289 -1.5537 0
M  V30 3651 H 339.812 -5.4661 0.591386 0
M  V30 3652 H 341.037 -6.75923 0.656156 0
M  V30 3653 H 338.983 -6.37318 -1.55441 0
M  V30 3654 H 338.9 -7.55448 -0.288931 0
M  V30 3655 H 340.168 -7.65439 -1.4739 0
M  V30 3656 N 344.397 -0.483516 -1.5 0
M  V30 3657 C 345.674 0.129337 -1.95172 0
M  V30 3658 C 346.054 1.55802 -1.4244 0
M  V30 3659 O 345.402 2.19625 -0.630649 0
M  V30 3660 C 345.612 0.0599251 -3.48949 0
M  V30 3661 C 346.96 0.242617 -4.23906 0
M  V30 3662 O 347.984 0.135933 -3.55941 0
M  V30 3663 O 346.843 0.459454 -5.44565 0
M  V30 3664 H 343.937 0.104887 -0.820322 0
M  V30 3665 H 346.483 -0.544807 -1.60717 0
M  V30 3666 H 345.255 -0.937079 -3.79914 0
M  V30 3667 H 344.878 0.774984 -3.89974 0
M  V30 3668 N 345.875 1.56104 -0.216619 0
M  V30 3669 C 346.805 2.23063 0.690296 0
M  V30 3670 C 347.786 1.20072 1.20485 0
M  V30 3671 O 348.971 1.48643 1.24976 0
M  V30 3672 C 346.101 2.90672 1.90072 0
M  V30 3673 C 345.055 4.00092 1.5202 0
M  V30 3674 C 344.381 4.54972 2.80899 0
M  V30 3675 C 345.681 5.17398 0.71391 0
M  V30 3676 H 347.375 2.99109 0.132038 0
M  V30 3677 H 344.921 1.43866 0.0620664 0
M  V30 3678 H 346.874 3.36204 2.54057 0
M  V30 3679 H 345.598 2.12066 2.48386 0
M  V30 3680 H 344.257 3.55283 0.903839 0
M  V30 3681 H 343.905 3.73102 3.37348 0
M  V30 3682 H 343.605 5.28817 2.56176 0
M  V30 3683 H 345.129 5.0322 3.45836 0
M  V30 3684 H 346.543 5.59342 1.25735 0
M  V30 3685 H 344.94 5.97444 0.563951 0
M  V30 3686 H 346.01 4.84088 -0.280527 0
M  V30 3687 N 347.353 -0.0568162 1.57498 0
M  V30 3688 C 348.599 -0.75422 1.88253 0
M  V30 3689 C 348.932 -1.76461 0.810865 0
M  V30 3690 O 348.207 -1.93691 -0.177259 0
M  V30 3691 C 348.49 -1.44878 3.2967 0
M  V30 3692 C 348.343 -0.453789 4.47505 0
M  V30 3693 C 349.662 -2.38994 3.69554 0
M  V30 3694 H 346.781 -0.272724 0.684683 0
M  V30 3695 H 349.423 -0.0172113 1.89992 0
M  V30 3696 H 347.573 -2.077 3.28318 0
M  V30 3697 H 349.245 0.170371 4.60985 0
M  V30 3698 H 347.488 0.229552 4.33192 0
M  V30 3699 H 348.159 -0.977699 5.43273 0
M  V30 3700 H 350.635 -1.86239 3.72095 0
M  V30 3701 H 349.511 -2.84587 4.69363 0
M  V30 3702 H 349.772 -3.24461 3.00296 0
M  V30 3703 N 348.832 -1.54138 -0.328536 0
M  V30 3704 C 349.765 -1.78014 -1.4278 0
M  V30 3705 C 350.743 -0.629889 -1.49904 0
M  V30 3706 O 351.927 -0.866763 -1.6739 0
M  V30 3707 C 349.054 -1.89225 -2.80912 0
M  V30 3708 C 348.1 -3.11483 -2.91343 0
M  V30 3709 S 348.933 -4.70201 -2.56263 0
M  V30 3710 C 350.089 -4.84312 -3.96476 0
M  V30 3711 H 350.322 -2.70974 -1.22313 0
M  V30 3712 H 347.855 -1.45197 -0.525084 0
M  V30 3713 H 349.813 -1.9637 -3.60485 0
M  V30 3714 H 348.474 -0.972518 -2.98665 0
M  V30 3715 H 347.667 -3.16046 -3.92595 0
M  V30 3716 H 347.269 -3.02642 -2.19736 0
M  V30 3717 H 349.561 -4.66643 -4.91173 0
M  V30 3718 H 350.504 -5.86411 -3.96898 0
M  V30 3719 H 350.912 -4.12652 -3.85199 0
M  V30 3720 N 350.31 0.590341 -1.46126 0
M  V30 3721 C 351.557 1.34882 -1.5104 0
M  V30 3722 C 351.885 1.93849 -0.159021 0
M  V30 3723 O 351.14 1.76544 0.844436 0
M  V30 3724 C 351.439 2.5032 -2.55097 0
M  V30 3725 C 351.105 2.09394 -3.99331 0
M  V30 3726 C 349.767 1.97947 -4.38601 0
M  V30 3727 C 352.119 1.77712 -4.89967 0
M  V30 3728 C 349.447 1.53065 -5.66381 0
M  V30 3729 C 351.799 1.34312 -6.18177 0
M  V30 3730 C 350.463 1.21436 -6.56361 0
M  V30 3731 H 349.733 0.493568 -0.552695 0
M  V30 3732 H 352.38 0.665539 -1.79563 0
M  V30 3733 H 350.685 3.24062 -2.20207 0
M  V30 3734 H 352.382 3.08541 -2.56132 0
M  V30 3735 H 348.972 2.19235 -3.68285 0
M  V30 3736 H 353.156 1.85445 -4.60352 0
M  V30 3737 H 348.412 1.41733 -5.94745 0
M  V30 3738 H 352.586 1.08849 -6.87841 0
M  V30 3739 H 350.213 0.864345 -7.5527 0
M  V30 3740 N 351.788 1.33704 0.83433 0
M  V30 3741 C 353.037 1.24763 1.58484 0
M  V30 3742 C 353.35 -0.183775 1.94735 0
M  V30 3743 O 354.556 -0.395234 2.68608 0
M  V30 3744 C 353.012 2.18638 2.85876 0
M  V30 3745 C 352.62 3.66974 2.56971 0
M  V30 3746 C 354.364 2.18581 3.63899 0
M  V30 3747 C 352.271 4.5275 3.80488 0
M  V30 3748 H 351.201 0.463425 0.594772 0
M  V30 3749 H 353.852 1.58797 0.919551 0
M  V30 3750 H 352.234 1.77542 3.5397 0
M  V30 3751 H 353.408 4.16538 1.9706 0
M  V30 3752 H 351.723 3.69366 1.92244 0
M  V30 3753 H 354.32 2.79894 4.55591 0
M  V30 3754 H 354.663 1.18207 3.99165 0
M  V30 3755 H 355.196 2.58062 3.02735 0
M  V30 3756 H 351.935 5.54017 3.5035 0
M  V30 3757 H 351.455 4.07927 4.39722 0
M  V30 3758 H 353.134 4.66784 4.4802 0
M  V30 3759 O 353.305 -0.972346 1.28948 0
M  V30 3760 H 353.996 -1.59791 1.09484 0
M  V30 END ATOM
M  V30 BEGIN BOND
M  V30 END BOND
M  V30 END CTAB
M  END
$$$$
