drugbank_target|Q00796 Sorbitol dehydrogenase (DB00157; DB04478)
 OpenBabel12092119283D

  0  0  0     0  0            999 V3000
M  V30 BEGIN CTAB
M  V30 COUNTS 5429 5485 0 0 0
M  V30 BEGIN ATOM
M  V30 1 H -0.908 1.98254 -0.117106 0
M  V30 2 N 0 1.576 0 0
M  V30 3 C 0.933 2.03868 1.02534 0
M  V30 4 C 1.911 0.928543 1.3348 0
M  V30 5 O 3.095 1.19667 1.45644 0
M  V30 6 C 0.222 2.43627 2.35294 0
M  V30 7 C -0.732 3.65373 2.2001 0
M  V30 8 S 0.101 5.13292 1.52614 0
M  V30 9 C 1.257 5.56322 2.86805 0
M  V30 10 H 1.49 2.90518 0.631377 0
M  V30 11 H -0.977 1.52953 0.210867 0
M  V30 12 H 0.981 2.67203 3.11629 0
M  V30 13 H -0.358 1.57376 2.7183 0
M  V30 14 H -1.165 3.90944 3.18086 0
M  V30 15 H -1.563 3.418 1.51819 0
M  V30 16 H 0.729 5.58782 3.83104 0
M  V30 17 H 1.672 6.56266 2.65933 0
M  V30 18 H 2.08 4.83886 2.90714 0
M  V30 19 N 1.4781 -0.272755 1.55222 0
M  V30 20 C 2.4411 -1.32041 1.87344 0
M  V30 21 C 3.4411 -1.42342 0.74803 0
M  V30 22 O 4.6311 -1.41488 1.0162 0
M  V30 23 C 1.7631 -2.70173 2.07893 0
M  V30 24 H 2.9561 -1.04789 2.80997 0
M  V30 25 H 0.5091 -0.51083 1.47717 0
M  V30 26 H 1.2441 -3.02605 1.16622 0
M  V30 27 H 1.0291 -2.64082 2.89833 0
M  V30 28 H 2.5191 -3.45869 2.34017 0
M  V30 29 N 2.9562 -1.48159 -0.537278 0
M  V30 30 C 3.9192 -1.61665 -1.62472 0
M  V30 31 C 4.9192 -0.490395 -1.5314 0
M  V30 32 O 6.1092 -0.755998 -1.5694 0
M  V30 33 C 3.2412 -1.57997 -3.02076 0
M  V30 34 H 4.4342 -2.58621 -1.51839 0
M  V30 35 H 1.9872 -1.36647 -0.758771 0
M  V30 36 H 2.7222 -0.624913 -3.18222 0
M  V30 37 H 2.5072 -2.39755 -3.10258 0
M  V30 38 H 3.9972 -1.70627 -3.81151 0
M  V30 39 N 4.4343 0.785586 -1.36625 0
M  V30 40 C 5.3973 1.87999 -1.31107 0
M  V30 41 C 6.3973 1.59316 -0.217959 0
M  V30 42 O 7.5873 1.67656 -0.472977 0
M  V30 43 C 4.7193 3.24861 -1.03334 0
M  V30 44 H 5.9123 1.94307 -2.2844 0
M  V30 45 H 3.4653 0.983813 -1.21453 0
M  V30 46 H 4.2003 3.24235 -0.0647432 0
M  V30 47 H 3.9853 3.4707 -1.82441 0
M  V30 48 H 5.4753 4.04929 -1.02088 0
M  V30 49 N 5.9124 1.20967 1.01018 0
M  V30 50 C 6.8754 0.965918 2.07853 0
M  V30 51 C 7.8754 -0.0610545 1.60684 0
M  V30 52 O 9.0654 0.175681 1.73312 0
M  V30 53 C 6.1974 0.455513 3.37843 0
M  V30 54 H 7.3904 1.91365 2.3091 0
M  V30 55 H 4.9434 1.02594 1.17916 0
M  V30 56 H 5.6784 -0.497381 3.20463 0
M  V30 57 H 5.4634 1.19622 3.73407 0
M  V30 58 H 6.9534 0.304667 4.16487 0
M  V30 59 N 7.3905 -1.2043 1.01659 0
M  V30 60 C 8.3375 -2.23215 0.586822 0
M  V30 61 C 9.3075 -1.61382 -0.393085 0
M  V30 62 O 10.4925 -1.88544 -0.292525 0
M  V30 63 C 7.6325 -3.45032 -0.0687464 0
M  V30 64 C 6.7455 -4.21296 0.955724 0
M  V30 65 C 5.8805 -5.30507 0.271208 0
M  V30 66 C 4.9195 -5.98515 1.28244 0
M  V30 67 N 4.0565 -6.99316 0.62459 0
M  V30 68 H 8.8965 -2.59336 1.46796 0
M  V30 69 H 6.4335 -1.27431 0.734836 0
M  V30 70 H 8.3915 -4.1459 -0.465965 0
M  V30 71 H 7.0215 -3.09604 -0.913529 0
M  V30 72 H 6.0735 -3.50803 1.4711 0
M  V30 73 H 7.3855 -4.6803 1.72479 0
M  V30 74 H 6.5395 -6.06428 -0.18151 0
M  V30 75 H 5.2785 -4.8481 -0.530163 0
M  V30 76 H 4.2835 -5.21355 1.74554 0
M  V30 77 H 5.5085 -6.46298 2.08509 0
M  V30 78 H 3.4545 -6.55812 -0.156914 0
M  V30 79 H 3.3715 -7.44178 1.33172 0
M  V30 80 H 4.6395 -7.79255 0.195462 0
M  V30 81 N 8.8686 -0.792821 -1.36206 0
M  V30 82 C 10.2796 -0.429513 -1.81692 0
M  V30 83 C 10.6306 1.04695 -1.65932 0
M  V30 84 O 9.7556 1.81256 -1.18218 0
M  V30 85 C 10.3506 -0.772831 -3.29868 0
M  V30 86 C 8.9096 -0.462307 -3.7355 0
M  V30 87 C 8.0566 -1.00569 -2.5842 0
M  V30 88 H 11.0076 -0.985672 -1.24379 0
M  V30 89 H 11.0286 -0.0651928 -3.80444 0
M  V30 90 H 10.5406 -1.84747 -3.41307 0
M  V30 91 H 8.6416 0.604158 -3.67669 0
M  V30 92 H 8.7546 -0.985299 -4.68859 0
M  V30 93 H 7.1186 -0.428734 -2.51066 0
M  V30 94 H 7.9016 -2.08616 -2.72643 0
M  V30 95 N 10.3467 1.47872 -0.545128 0
M  V30 96 C 11.2947 2.31533 0.222512 0
M  V30 97 C 12.2887 1.42177 0.920985 0
M  V30 98 O 13.4947 1.59005 0.843645 0
M  V30 99 H 9.8697 0.746519 0.0906278 0
M  V30 100 H 11.8407 2.94139 -0.50246 0
M  V30 101 C 10.5897 3.2457 1.24699 0
M  V30 102 H 9.9127 3.93283 0.718944 0
M  V30 103 H 11.3527 3.85963 1.75523 0
M  V30 104 C 9.8117 2.47237 2.28856 0
M  V30 105 O 10.3417 2.20808 3.35569 0
M  V30 106 N 8.5477 2.08461 2.02466 0
M  V30 107 H 8.0947 2.30155 1.157 0
M  V30 108 H 8.0527 1.57033 2.72375 0
M  V30 109 N 11.8248 0.280983 1.55075 0
M  V30 110 C 12.7728 -0.619864 2.24188 0
M  V30 111 C 13.7668 -1.15315 1.24092 0
M  V30 112 O 14.9728 -1.1061 1.42005 0
M  V30 113 H 11.3478 -0.218459 0.719569 0
M  V30 114 H 13.3188 -0.0141831 2.98397 0
M  V30 115 C 12.0678 -1.7899 2.98091 0
M  V30 116 H 11.3908 -1.38874 3.74905 0
M  V30 117 H 12.8308 -2.39672 3.49762 0
M  V30 118 C 11.2898 -2.68192 2.03899 0
M  V30 119 O 11.8198 -3.6872 1.594 0
M  V30 120 N 10.0258 -2.35488 1.70275 0
M  V30 121 H 9.5728 -1.53787 2.06658 0
M  V30 122 H 9.5308 -2.95442 1.07524 0
M  V30 123 N 13.3029 -1.57598 0.00835791 0
M  V30 124 C 14.2329 -2.1198 -0.979113 0
M  V30 125 C 15.2139 -1.03091 -1.35301 0
M  V30 126 O 16.3989 -1.30818 -1.43528 0
M  V30 127 C 13.5289 -2.62995 -2.26828 0
M  V30 128 C 12.4829 -3.76485 -2.03576 0
M  V30 129 C 11.8089 -4.13846 -3.38579 0
M  V30 130 C 13.1089 -5.0342 -1.39161 0
M  V30 131 H 14.8029 -2.94738 -0.526281 0
M  V30 132 H 12.3489 -1.41783 -0.251704 0
M  V30 133 H 14.3019 -2.99669 -2.96271 0
M  V30 134 H 13.0259 -1.7737 -2.7424 0
M  V30 135 H 11.6849 -3.40217 -1.36557 0
M  V30 136 H 11.3329 -3.25232 -3.83709 0
M  V30 137 H 11.0329 -4.90312 -3.23834 0
M  V30 138 H 12.5569 -4.53086 -4.09323 0
M  V30 139 H 13.9709 -5.37812 -1.98573 0
M  V30 140 H 12.3679 -5.84746 -1.34878 0
M  V30 141 H 13.4379 -4.83548 -0.361868 0
M  V30 142 N 14.781 0.264519 -1.55364 0
M  V30 143 C 16.006 1.01726 -1.80739 0
M  V30 144 C 16.431 1.78836 -0.583044 0
M  V30 145 O 15.789 1.75167 0.467566 0
M  V30 146 C 15.837 1.94482 -3.03659 0
M  V30 147 O 14.941 3.03386 -2.7934 0
M  V30 148 H 14.282 0.290395 -0.597132 0
M  V30 149 H 16.812 0.290854 -2.02522 0
M  V30 150 H 16.822 2.36278 -3.32621 0
M  V30 151 H 15.497 1.37772 -3.92418 0
M  V30 152 H 14.074 2.65844 -2.61498 0
M  V30 153 N 16.2591 1.48442 0.529413 0
M  V30 154 C 17.1891 1.65902 1.64313 0
M  V30 155 C 18.1701 0.507897 1.6234 0
M  V30 156 O 19.3551 0.740503 1.79528 0
M  V30 157 C 16.4851 1.69911 3.02898 0
M  V30 158 C 15.4391 2.8453 3.19729 0
M  V30 159 C 14.7651 2.73629 4.59381 0
M  V30 160 C 16.0651 4.25821 3.02447 0
M  V30 161 H 17.7591 2.5914 1.49955 0
M  V30 162 H 15.3051 1.24709 0.719982 0
M  V30 163 H 17.2581 1.80715 3.80684 0
M  V30 164 H 15.9821 0.732524 3.18279 0
M  V30 165 H 14.6411 2.73283 2.44361 0
M  V30 166 H 14.2891 1.74938 4.71599 0
M  V30 167 H 13.9891 3.50541 4.71588 0
M  V30 168 H 15.5131 2.86401 5.39265 0
M  V30 169 H 16.9271 4.37898 3.70024 0
M  V30 170 H 15.3241 5.03735 3.26146 0
M  V30 171 H 16.3941 4.42244 1.98867 0
M  V30 172 N 17.7372 -0.778329 1.37039 0
M  V30 173 C 18.9832 -1.53892 1.32079 0
M  V30 174 C 19.3162 -1.9396 -0.0965386 0
M  V30 175 O 18.5912 -1.63568 -1.05242 0
M  V30 176 C 18.8742 -2.80847 2.25382 0
M  V30 177 C 18.7272 -2.47076 3.75864 0
M  V30 178 C 20.0462 -3.82741 2.1725 0
M  V30 179 H 17.1652 -0.558303 0.48111 0
M  V30 180 H 19.8072 -0.893397 1.67685 0
M  V30 181 H 17.9572 -3.35931 1.95148 0
M  V30 182 H 19.6292 -1.97957 4.16666 0
M  V30 183 H 17.8722 -1.79863 3.94755 0
M  V30 184 H 18.5432 -3.37798 4.36574 0
M  V30 185 H 21.0192 -3.37133 2.43887 0
M  V30 186 H 19.8952 -4.69303 2.84686 0
M  V30 187 H 20.1562 -4.2652 1.16331 0
M  V30 188 N 19.2153 -1.21501 -1.00376 0
M  V30 189 C 20.4613 -1.03452 -1.74429 0
M  V30 190 C 20.7943 0.430764 -1.89362 0
M  V30 191 O 20.0693 1.31962 -1.42886 0
M  V30 192 C 20.3523 -1.73375 -3.15615 0
M  V30 193 C 20.2053 -3.27431 -3.08397 0
M  V30 194 C 21.5243 -1.47732 -4.14564 0
M  V30 195 H 18.6433 -0.377226 -0.633143 0
M  V30 196 H 21.2853 -1.49693 -1.17013 0
M  V30 197 H 19.4353 -1.34064 -3.64636 0
M  V30 198 H 21.1073 -3.76119 -2.67081 0
M  V30 199 H 19.3503 -3.5767 -2.45468 0
M  V30 200 H 20.0213 -3.71524 -4.08258 0
M  V30 201 H 22.4973 -1.8186 -3.74254 0
M  V30 202 H 21.3733 -1.99169 -5.11491 0
M  V30 203 H 21.6343 -0.407589 -4.40217 0
M  V30 204 N 20.6934 1.19889 -1.02296 0
M  V30 205 C 21.6434 2.20777 -0.56934 0
M  V30 206 C 22.6274 1.56379 0.378741 0
M  V30 207 O 23.8194 1.75859 0.200673 0
M  V30 208 C 20.9484 3.43196 0.0845077 0
M  V30 209 C 20.0344 4.14749 -0.88566 0
M  V30 210 N 20.4254 4.62584 -2.04573 0
M  V30 211 C 18.7234 4.40347 -0.707835 0
M  V30 212 C 19.4244 5.17466 -2.65714 0
M  V30 213 N 18.4004 5.0791 -1.93723 0
M  V30 214 H 22.2024 2.55434 -1.45365 0
M  V30 215 H 19.7164 1.35897 -0.88915 0
M  V30 216 H 21.7134 4.14707 0.427067 0
M  V30 217 H 20.3734 3.10042 0.964574 0
M  V30 218 H 21.3844 4.57597 -2.4254 0
M  V30 219 H 18.0614 4.17317 0.12364 0
M  V30 220 H 19.4514 5.64808 -3.63925 0
M  V30 221 N 22.1715 0.800033 1.35784 0
M  V30 222 C 23.4195 0.376597 1.9856 0
M  V30 223 C 23.7405 -1.05812 1.63795 0
M  V30 224 O 23.0105 -1.73103 0.917171 0
M  V30 225 H 21.5905 0.136261 0.734467 0
M  V30 226 H 24.2525 1.02442 1.65806 0
M  V30 227 H 23.3485 0.477002 3.08433 0
M  V30 228 N 23.6496 -1.47581 0.552962 0
M  V30 229 C 25.0606 -1.86324 0.118463 0
M  V30 230 C 25.4116 -1.46006 -1.3106 0
M  V30 231 O 24.5366 -0.861182 -1.98526 0
M  V30 232 C 25.1316 -3.3816 0.20821 0
M  V30 233 C 23.6906 -3.7601 -0.171226 0
M  V30 234 C 22.8376 -2.71634 0.557686 0
M  V30 235 H 25.7886 -1.39159 0.762928 0
M  V30 236 H 25.8096 -3.76141 -0.574278 0
M  V30 237 H 25.3216 -3.67473 1.24841 0
M  V30 238 H 23.4226 -3.52313 -1.21269 0
M  V30 239 H 23.5356 -4.78745 0.184379 0
M  V30 240 H 21.8996 -2.547 0.00125792 0
M  V30 241 H 22.6826 -3.0379 1.59896 0
M  V30 242 N 25.1277 -0.289203 -1.54924 0
M  V30 243 C 26.3757 0.322879 -1.99504 0
M  V30 244 C 26.6967 1.55313 -1.1791 0
M  V30 245 O 25.9667 1.94001 -0.272097 0
M  V30 246 H 24.5467 0.122291 -0.736922 0
M  V30 247 H 27.2087 -0.397802 -1.90797 0
M  V30 248 H 26.3047 0.603061 -3.06218 0
M  V30 249 N 26.6058 1.57591 -0.0167156 0
M  V30 250 C 27.8828 1.82547 0.702564 0
M  V30 251 C 28.2628 0.898018 1.91047 0
M  V30 252 O 27.6108 -0.0493456 2.28447 0
M  V30 253 C 27.8208 3.31459 1.09251 0
M  V30 254 C 29.1688 3.97622 1.48937 0
M  V30 255 O 30.1928 3.35881 1.18584 0
M  V30 256 O 29.0518 5.06415 2.05442 0
M  V30 257 H 26.1458 0.752268 0.343544 0
M  V30 258 H 28.6918 1.69644 -0.0434495 0
M  V30 259 H 27.4638 3.9061 0.23227 0
M  V30 260 H 27.0868 3.49422 1.89709 0
M  V30 261 N 28.0839 -0.256276 1.55502 0
M  V30 262 C 29.0139 -1.32102 1.92539 0
M  V30 263 C 29.9949 -1.50684 0.789194 0
M  V30 264 O 31.1799 -1.63449 1.04872 0
M  V30 265 C 28.3099 -2.67752 2.21192 0
M  V30 266 C 27.2639 -2.63878 3.36975 0
M  V30 267 C 26.5899 -4.03236 3.51147 0
M  V30 268 C 27.8899 -2.21682 4.72921 0
M  V30 269 H 29.5839 -1.01351 2.81724 0
M  V30 270 H 27.1299 -0.486105 1.35547 0
M  V30 271 H 29.0829 -3.42365 2.45691 0
M  V30 272 H 27.8069 -3.0012 1.28824 0
M  V30 273 H 26.4659 -1.91722 3.12471 0
M  V30 274 H 26.1139 -4.32854 2.56216 0
M  V30 275 H 25.8139 -4.01535 4.29003 0
M  V30 276 H 27.3379 -4.79563 3.77957 0
M  V30 277 H 28.7519 -2.86023 4.96854 0
M  V30 278 H 27.1489 -2.3111 5.53812 0
M  V30 279 H 28.2189 -1.16833 4.70615 0
M  V30 280 N 29.562 -1.4872 -0.521534 0
M  V30 281 C 30.978 -1.35028 -0.850855 0
M  V30 282 C 31.178 -0.367712 -1.98116 0
M  V30 283 O 30.234 0.208037 -2.51642 0
M  V30 284 C 31.547 -2.75263 -1.21041 0
M  V30 285 C 33.095 -2.83813 -1.31981 0
M  V30 286 C 33.57 -4.24769 -1.71276 0
M  V30 287 N 35.061 -4.27482 -1.78363 0
M  V30 288 C 35.796 -5.33494 -2.1017 0
M  V30 289 N 35.292 -6.49775 -2.40343 0
M  V30 290 N 37.085 -5.20894 -2.11248 0
M  V30 291 H 29.236 -2.11214 0.22413 0
M  V30 292 H 31.499 -0.947252 0.0376439 0
M  V30 293 H 31.205 -3.48765 -0.453415 0
M  V30 294 H 31.079 -3.09327 -2.15863 0
M  V30 295 H 33.466 -2.10561 -2.06756 0
M  V30 296 H 33.547 -2.53358 -0.352596 0
M  V30 297 H 33.191 -4.9854 -0.970588 0
M  V30 298 H 33.121 -4.52673 -2.69062 0
M  V30 299 H 35.612 -3.43611 -1.57288 0
M  V30 300 H 35.925 -7.26402 -2.63743 0
M  V30 301 H 34.27 -6.53035 -2.37844 0
M  V30 302 H 37.461 -4.29065 -1.87139 0
M  V30 303 H 37.634 -6.03612 -2.35704 0
M  V30 304 N 31.0401 0.771051 -1.3745 0
M  V30 305 C 31.9701 1.89827 -1.3597 0
M  V30 306 C 32.9511 1.68562 -0.228216 0
M  V30 307 O 34.1361 1.8941 -0.428675 0
M  V30 308 C 31.2661 3.2712 -1.16662 0
M  V30 309 C 30.2201 3.6295 -2.2683 0
M  V30 310 C 29.5461 4.98791 -1.92644 0
M  V30 311 C 30.8461 3.69627 -3.69017 0
M  V30 312 H 32.5401 1.91323 -2.30295 0
M  V30 313 H 30.0861 0.919082 -1.10855 0
M  V30 314 H 32.0391 4.05615 -1.14256 0
M  V30 315 H 30.7631 3.26059 -0.187926 0
M  V30 316 H 29.4221 2.86763 -2.28392 0
M  V30 317 H 29.0701 4.94271 -0.933021 0
M  V30 318 H 28.7701 5.23733 -2.66416 0
M  V30 319 H 30.2941 5.79685 -1.91826 0
M  V30 320 H 31.7081 4.38273 -3.69581 0
M  V30 321 H 30.1051 4.06067 -4.41848 0
M  V30 322 H 31.1751 2.70273 -4.02592 0
M  V30 323 N 32.5182 1.22032 0.997298 0
M  V30 324 C 33.4282 1.00271 2.12092 0
M  V30 325 C 34.4442 -0.047621 1.73935 0
M  V30 326 O 35.6202 0.144136 2.00884 0
M  V30 327 C 32.6852 0.578449 3.4184 0
M  V30 328 C 31.7462 1.70189 3.94125 0
M  V30 329 C 30.9792 1.29778 5.17681 0
M  V30 330 O 31.2022 0.174676 5.70132 0
M  V30 331 O 30.1362 2.11261 5.63607 0
M  V30 332 H 33.9622 1.94398 2.3333 0
M  V30 333 H 31.5472 1.00587 1.10465 0
M  V30 334 H 33.4292 0.351998 4.19927 0
M  V30 335 H 32.1042 -0.334019 3.21972 0
M  V30 336 H 31.0112 1.98282 3.1723 0
M  V30 337 H 32.3442 2.59206 4.18417 0
M  V30 338 N 33.9963 -1.19345 1.0293 0
M  V30 339 C 34.9443 -2.24621 0.604001 0
M  V30 340 C 35.9383 -1.65452 -0.363587 0
M  V30 341 O 37.1443 -1.78497 -0.23212 0
M  V30 342 H 33.5193 -0.730858 0.177061 0
M  V30 343 H 35.4903 -2.5781 1.50255 0
M  V30 344 C 34.2393 -3.47688 -0.0289127 0
M  V30 345 H 33.5623 -3.93505 0.706651 0
M  V30 346 H 35.0023 -4.23011 -0.289432 0
M  V30 347 C 33.4613 -3.11817 -1.2756 0
M  V30 348 O 33.9913 -3.2451 -2.36762 0
M  V30 349 N 32.1973 -2.66246 -1.16453 0
M  V30 350 H 31.7443 -2.56118 -0.275914 0
M  V30 351 H 31.7023 -2.42617 -1.99961 0
M  V30 352 N 35.4744 -0.807222 -1.35358 0
M  V30 353 C 36.7044 -0.399796 -2.02695 0
M  V30 354 C 37.1124 0.994176 -1.60974 0
M  V30 355 O 36.4554 1.65209 -0.803226 0
M  V30 356 C 36.5174 -0.404445 -3.57218 0
M  V30 357 C 36.1814 -1.74904 -4.22206 0
M  V30 358 C 37.1784 -2.70743 -4.4384 0
M  V30 359 C 34.8634 -2.03322 -4.5931 0
M  V30 360 C 36.8574 -3.93183 -5.01683 0
M  V30 361 C 34.5444 -3.26026 -5.16866 0
M  V30 362 C 35.5424 -4.20774 -5.37994 0
M  V30 363 O 35.2304 -5.41312 -5.94337 0
M  V30 364 H 34.9624 -0.160517 -0.656666 0
M  V30 365 H 37.5164 -1.09235 -1.73945 0
M  V30 366 H 35.7464 0.344707 -3.85161 0
M  V30 367 H 37.4354 -0.0192429 -4.05895 0
M  V30 368 H 38.2014 -2.5008 -4.15554 0
M  V30 369 H 34.0804 -1.30384 -4.42178 0
M  V30 370 H 37.6244 -4.6715 -5.1809 0
M  V30 371 H 33.5214 -3.46559 -5.44579 0
M  V30 372 H 34.2894 -5.42618 -6.12787 0
M  V30 373 N 36.9525 1.47285 -0.560781 0
M  V30 374 C 38.3635 1.86258 -0.128343 0
M  V30 375 C 38.7145 1.46699 1.30284 0
M  V30 376 O 37.8395 0.871698 1.98067 0
M  V30 377 C 38.4345 3.38044 -0.22614 0
M  V30 378 C 36.9935 3.76096 0.151283 0
M  V30 379 C 36.1405 2.71335 -0.572084 0
M  V30 380 H 39.0915 1.38752 -0.770297 0
M  V30 381 H 39.1125 3.76441 0.554322 0
M  V30 382 H 38.6245 3.66806 -1.26788 0
M  V30 383 H 36.7255 3.52951 1.19399 0
M  V30 384 H 36.8385 4.78641 -0.209765 0
M  V30 385 H 35.2025 2.54696 -0.0147653 0
M  V30 386 H 35.9855 3.02938 -1.61504 0
M  V30 387 N 38.4306 0.297415 1.54768 0
M  V30 388 C 39.6796 -0.313669 1.99246 0
M  V30 389 C 39.9926 -1.55281 1.18942 0
M  V30 390 O 41.1986 -2.23825 1.5367 0
M  V30 391 C 39.6546 -0.609407 3.54703 0
M  V30 392 C 39.2626 0.611192 4.43811 0
M  V30 393 C 41.0066 -1.18188 4.07715 0
M  V30 394 C 38.9136 0.288805 5.90694 0
M  V30 395 H 37.8436 -0.120979 0.744231 0
M  V30 396 H 40.4946 0.40556 1.78962 0
M  V30 397 H 38.8766 -1.38813 3.70873 0
M  V30 398 H 40.0506 1.3875 4.39414 0
M  V30 399 H 38.3656 1.10205 4.01552 0
M  V30 400 H 40.9626 -1.43727 5.15021 0
M  V30 401 H 41.3056 -2.12299 3.58099 0
M  V30 402 H 41.8386 -0.464944 3.95074 0
M  V30 403 H 38.5776 1.19838 6.44453 0
M  V30 404 H 38.0976 -0.450305 5.98107 0
M  V30 405 H 39.7766 -0.110933 6.46905 0
M  V30 406 N 39.9087 -1.5758 0.0250728 0
M  V30 407 C 41.3197 -1.79476 -0.514323 0
M  V30 408 C 41.6707 -0.934956 -1.72491 0
M  V30 409 O 40.7957 -0.144245 -2.15919 0
M  V30 410 C 41.3907 -3.25503 -0.939842 0
M  V30 411 C 39.9497 -3.48408 -1.42438 0
M  V30 412 C 39.0967 -2.74583 -0.387201 0
M  V30 413 H 42.0477 -1.567 0.25113 0
M  V30 414 H 42.0687 -3.34992 -1.80445 0
M  V30 415 H 41.5807 -3.88056 -0.0585628 0
M  V30 416 H 39.6817 -2.91103 -2.32572 0
M  V30 417 H 39.7947 -4.57119 -1.43455 0
M  V30 418 H 38.1587 -2.39942 -0.854409 0
M  V30 419 H 38.9417 -3.39849 0.485543 0
M  V30 420 N 41.3868 0.248026 -1.55636 0
M  V30 421 C 42.2968 1.32859 -1.93354 0
M  V30 422 C 43.3128 1.52719 -0.833838 0
M  V30 423 O 44.4888 1.66363 -1.13513 0
M  V30 424 C 41.5538 2.66337 -2.21958 0
M  V30 425 C 40.6148 2.55008 -3.45354 0
M  V30 426 C 39.8478 3.82121 -3.72584 0
M  V30 427 O 40.0708 4.83951 -3.01907 0
M  V30 428 O 39.0048 3.80822 -4.6611 0
M  V30 429 H 42.8308 1.03862 -2.85388 0
M  V30 430 H 40.4158 0.448686 -1.42503 0
M  V30 431 H 42.2978 3.45216 -2.4167 0
M  V30 432 H 40.9728 2.95068 -1.33103 0
M  V30 433 H 39.8798 1.7442 -3.30951 0
M  V30 434 H 41.2128 2.31222 -4.34508 0
M  V30 435 N 42.8649 1.48995 0.513639 0
M  V30 436 C 44.2759 1.5119 1.09537 0
M  V30 437 C 44.6269 0.290906 1.94031 0
M  V30 438 O 43.7519 -0.60049 2.07902 0
M  V30 439 C 44.3469 2.73964 1.99322 0
M  V30 440 C 42.9059 2.78978 2.52682 0
M  V30 441 C 42.0529 2.44934 1.30009 0
M  V30 442 H 45.0039 1.55875 0.298125 0
M  V30 443 H 45.0249 2.53409 2.83838 0
M  V30 444 H 44.5369 3.62813 1.37799 0
M  V30 445 H 42.6379 1.94378 3.1788 0
M  V30 446 H 42.7509 3.8083 2.90698 0
M  V30 447 H 41.1149 1.9644 1.62122 0
M  V30 448 H 41.8979 3.36043 0.702131 0
M  V30 449 N 44.343 -0.763751 1.37857 0
M  V30 450 C 45.591 -1.51957 1.33243 0
M  V30 451 C 45.912 -1.94835 -0.0801709 0
M  V30 452 O 45.182 -1.66894 -1.02582 0
M  V30 453 H 43.762 -0.563626 0.49024 0
M  V30 454 H 46.424 -0.908504 1.7243 0
M  V30 455 H 45.52 -2.41523 1.97669 0
M  V30 456 N 45.8211 -1.22559 -0.990812 0
M  V30 457 C 47.2321 -1.04791 -1.54518 0
M  V30 458 C 47.5831 0.387998 -1.92325 0
M  V30 459 O 46.7081 1.27328 -1.74976 0
M  V30 460 C 47.3031 -1.896 -2.80779 0
M  V30 461 C 45.8621 -1.76124 -3.32652 0
M  V30 462 C 45.0091 -1.8594 -2.05722 0
M  V30 463 H 47.9601 -1.36374 -0.811662 0
M  V30 464 H 47.9811 -1.41464 -3.53225 0
M  V30 465 H 47.4931 -2.94101 -2.53231 0
M  V30 466 H 45.5941 -0.743643 -3.65104 0
M  V30 467 H 45.7071 -2.58913 -4.03114 0
M  V30 468 H 44.0711 -1.29403 -2.19379 0
M  V30 469 H 44.8541 -2.91976 -1.80568 0
M  V30 470 N 47.2992 1.18797 -1.03562 0
M  V30 471 C 48.2472 2.24297 -0.615905 0
M  V30 472 C 49.2412 1.65643 0.354808 0
M  V30 473 O 50.4472 1.78618 0.22265 0
M  V30 474 H 46.8222 0.729909 -0.180934 0
M  V30 475 H 48.7932 2.5701 -1.5162 0
M  V30 476 C 47.5422 3.47698 0.0104735 0
M  V30 477 H 46.8652 3.93125 -0.727509 0
M  V30 478 H 48.3052 4.23159 0.266995 0
M  V30 479 C 46.7642 3.12489 1.25905 0
M  V30 480 O 47.2942 3.25761 2.35038 0
M  V30 481 N 45.5002 2.6686 1.15039 0
M  V30 482 H 45.0472 2.56261 0.262328 0
M  V30 483 H 45.0052 2.43674 1.98672 0
M  V30 484 N 48.7773 0.814389 1.34928 0
M  V30 485 C 49.6873 0.231978 2.3345 0
M  V30 486 C 50.7033 -0.629139 1.62228 0
M  V30 487 O 51.8793 -0.539052 1.94052 0
M  V30 488 C 48.9443 -0.603482 3.41407 0
M  V30 489 C 48.0053 0.279037 4.28392 0
M  V30 490 C 47.2383 -0.516643 5.31193 0
M  V30 491 O 47.4613 -1.75068 5.4287 0
M  V30 492 O 46.3953 0.0965652 6.01823 0
M  V30 493 H 50.2213 1.04721 2.85074 0
M  V30 494 H 47.8063 0.576343 1.37836 0
M  V30 495 H 49.6883 -1.07908 4.0735 0
M  V30 496 H 48.3633 -1.39618 2.92042 0
M  V30 497 H 47.2703 0.801948 3.65403 0
M  V30 498 H 48.6033 1.03588 4.81176 0
M  V30 499 N 50.2554 -1.46986 0.568584 0
M  V30 500 C 51.5014 -2.02741 0.0488709 0
M  V30 501 C 51.8344 -1.44077 -1.30214 0
M  V30 502 O 51.1094 -0.600552 -1.84996 0
M  V30 503 C 51.3924 -3.60086 -0.032047 0
M  V30 504 C 51.2454 -4.29162 1.34686 0
M  V30 505 C 52.5644 -4.33838 -0.739798 0
M  V30 506 H 49.6834 -0.736749 0.0192338 0
M  V30 507 H 52.3254 -1.75289 0.733065 0
M  V30 508 H 50.4754 -3.83606 -0.61473 0
M  V30 509 H 52.1474 -4.16948 1.97362 0
M  V30 510 H 50.3904 -3.89073 1.91846 0
M  V30 511 H 51.0614 -5.37826 1.24285 0
M  V30 512 H 53.5374 -4.15378 -0.244939 0
M  V30 513 H 52.4134 -5.43537 -0.765406 0
M  V30 514 H 52.6744 -4.03875 -1.79827 0
M  V30 515 N 51.7335 -0.305618 -1.54608 0
M  V30 516 C 52.6635 0.561482 -2.26649 0
M  V30 517 C 53.6445 1.13415 -1.26772 0
M  V30 518 O 54.8295 1.16262 -1.55553 0
M  V30 519 C 51.9595 1.73122 -3.01075 0
M  V30 520 C 50.9135 1.2887 -4.08138 0
M  V30 521 C 50.2395 2.54396 -4.70305 0
M  V30 522 C 51.5395 0.416578 -5.20636 0
M  V30 523 H 53.2335 -0.0393902 -2.99374 0
M  V30 524 H 50.7795 -0.020385 -1.43986 0
M  V30 525 H 52.7325 2.34396 -3.50195 0
M  V30 526 H 51.4565 2.3584 -2.25936 0
M  V30 527 H 50.1155 0.698991 -3.59875 0
M  V30 528 H 49.7635 3.15439 -3.918 0
M  V30 529 H 49.4635 2.25486 -5.42614 0
M  V30 530 H 50.9875 3.16464 -5.2219 0
M  V30 531 H 52.4015 0.935116 -5.65622 0
M  V30 532 H 50.7985 0.221046 -5.99693 0
M  V30 533 H 51.8685 -0.557162 -4.81688 0
M  V30 534 N 53.2116 1.57565 -0.0334293 0
M  V30 535 C 54.1416 2.13511 0.945265 0
M  V30 536 C 55.1226 1.05231 1.33643 0
M  V30 537 O 56.3076 1.33084 1.41429 0
M  V30 538 C 53.4376 2.6657 2.22616 0
M  V30 539 C 52.3916 3.79676 1.97561 0
M  V30 540 C 51.7176 4.1918 3.31952 0
M  V30 541 C 53.0176 5.0557 1.31135 0
M  V30 542 H 54.7116 2.95538 0.479325 0
M  V30 543 H 52.2576 1.42166 0.229115 0
M  V30 544 H 54.2106 3.04344 2.91466 0
M  V30 545 H 52.9346 1.8171 2.71384 0
M  V30 546 H 51.5936 3.42347 1.31127 0
M  V30 547 H 51.2416 3.31296 3.78487 0
M  V30 548 H 50.9416 4.95402 3.15992 0
M  V30 549 H 52.4656 4.59541 4.02063 0
M  V30 550 H 53.8796 5.40903 1.89992 0
M  V30 551 H 52.2766 5.86818 1.25559 0
M  V30 552 H 53.3466 4.84062 0.284894 0
M  V30 553 N 54.6897 -0.239769 1.55765 0
M  V30 554 C 56.1057 -0.588624 1.48349 0
M  V30 555 C 56.3057 -1.88005 0.72502 0
M  V30 556 O 55.3617 -2.51186 0.257269 0
M  V30 557 C 56.6747 -0.68474 2.928 0
M  V30 558 C 58.2227 -0.77659 3.03213 0
M  V30 559 C 58.6977 -0.904207 4.48986 0
M  V30 560 N 60.1887 -0.968896 4.52953 0
M  V30 561 C 60.9237 -1.08703 5.63002 0
M  V30 562 N 60.4197 -1.17026 6.82845 0
M  V30 563 N 62.2127 -1.12074 5.50814 0
M  V30 564 H 54.3637 0.607911 2.03515 0
M  V30 565 H 56.6267 0.21083 0.924259 0
M  V30 566 H 56.3327 0.194284 3.51163 0
M  V30 567 H 56.2067 -1.55435 3.43686 0
M  V30 568 H 58.5937 -1.64606 2.44926 0
M  V30 569 H 58.6747 0.118315 2.55526 0
M  V30 570 H 58.3187 -0.0392633 5.07885 0
M  V30 571 H 58.2487 -1.81426 4.9436 0
M  V30 572 H 60.7397 -0.915633 3.6664 0
M  V30 573 H 61.0527 -1.25966 7.62465 0
M  V30 574 H 59.3977 -1.13971 6.85591 0
M  V30 575 H 62.5887 -1.05226 4.5612 0
M  V30 576 H 62.7617 -1.20936 6.36615 0
M  V30 577 N 56.1678 -1.49265 -0.50573 0
M  V30 578 C 57.1008 -1.60183 -1.62532 0
M  V30 579 C 58.0788 -0.451107 -1.56217 0
M  V30 580 O 59.2628 -0.666016 -1.76342 0
M  V30 581 C 56.3898 -1.55238 -3.01029 0
M  V30 582 C 55.4358 -2.7545 -3.25621 0
M  V30 583 S 56.2688 -4.37174 -3.09256 0
M  V30 584 C 57.4248 -4.34866 -4.50158 0
M  V30 585 H 57.6578 -2.54894 -1.53025 0
M  V30 586 H 55.1908 -1.38098 -0.690535 0
M  V30 587 H 57.1488 -1.53071 -3.80893 0
M  V30 588 H 55.8098 -0.618238 -3.07956 0
M  V30 589 H 55.0028 -2.68197 -4.26716 0
M  V30 590 H 54.6048 -2.75005 -2.53472 0
M  V30 591 H 56.8968 -4.06295 -5.42154 0
M  V30 592 H 57.8398 -5.36223 -4.62462 0
M  V30 593 H 58.2478 -3.65007 -4.30616 0
M  V30 594 N 57.6459 0.756429 -1.3826 0
M  V30 595 C 58.5959 1.86069 -1.31766 0
M  V30 596 C 59.5799 1.59621 -0.202483 0
M  V30 597 O 60.7719 1.7149 -0.438211 0
M  V30 598 C 57.9009 3.23742 -1.1422 0
M  V30 599 C 56.9869 3.56091 -2.30348 0
M  V30 600 N 57.3779 3.59517 -3.55783 0
M  V30 601 C 55.6759 3.86341 -2.22838 0
M  V30 602 C 56.3769 3.89052 -4.32451 0
M  V30 603 N 55.3529 4.05736 -3.61772 0
M  V30 604 H 59.1549 1.86992 -2.26741 0
M  V30 605 H 56.6689 0.953643 -1.31451 0
M  V30 606 H 58.6659 4.02761 -1.07652 0
M  V30 607 H 57.3259 3.24073 -0.201763 0
M  V30 608 H 58.3369 3.41347 -3.89491 0
M  V30 609 H 55.0139 3.94404 -1.36937 0
M  V30 610 H 56.4039 3.98349 -5.4108 0
M  V30 611 N 59.124 1.23083 0.984299 0
M  V30 612 C 60.349 1.088 1.76571 0
M  V30 613 C 60.774 -0.356657 1.84688 0
M  V30 614 O 60.132 -1.25788 1.30565 0
M  V30 615 C 60.18 1.71371 3.17277 0
M  V30 616 O 59.284 0.973213 4.00752 0
M  V30 617 H 58.625 0.381599 0.543395 0
M  V30 618 H 61.155 1.63057 1.23587 0
M  V30 619 H 61.165 1.76449 3.67872 0
M  V30 620 H 59.84 2.76493 3.10684 0
M  V30 621 H 58.417 0.999078 3.59267 0
M  V30 622 N 60.6021 -1.18246 1.0419 0
M  V30 623 C 61.8481 -1.88536 0.747122 0
M  V30 624 C 62.1811 -1.80223 -0.723409 0
M  V30 625 O 61.4561 -1.20337 -1.52804 0
M  V30 626 C 61.7391 -3.38968 1.21544 0
M  V30 627 C 61.5921 -3.56084 2.74816 0
M  V30 628 C 62.9111 -4.32648 0.806482 0
M  V30 629 H 60.0301 -0.684619 0.272883 0
M  V30 630 H 62.6721 -1.39113 1.29413 0
M  V30 631 H 60.8221 -3.8119 0.750081 0
M  V30 632 H 62.4941 -3.22946 3.29399 0
M  V30 633 H 60.7371 -2.98699 3.14582 0
M  V30 634 H 61.4081 -4.61639 3.02644 0
M  V30 635 H 63.8841 -3.98211 1.20695 0
M  V30 636 H 62.7601 -5.36462 1.1619 0
M  V30 637 H 63.0211 -4.41146 -0.29029 0
M  V30 638 N 62.0802 -0.821533 -1.34494 0
M  V30 639 C 63.3282 -0.408139 -1.97936 0
M  V30 640 C 63.6492 1.03193 -1.65457 0
M  V30 641 O 62.9192 1.71622 -0.944595 0
M  V30 642 H 61.4992 -0.147928 -0.732206 0
M  V30 643 H 64.1612 -1.05067 -1.64155 0
M  V30 644 H 63.2572 -0.52601 -3.07635 0
M  V30 645 N 63.5583 1.46682 -0.576371 0
M  V30 646 C 64.8073 2.01619 -0.0572825 0
M  V30 647 C 65.1203 1.45417 1.30818 0
M  V30 648 O 66.3263 1.92133 1.91825 0
M  V30 649 C 64.7823 3.59863 -0.0518371 0
M  V30 650 C 64.3903 4.25059 -1.41523 0
M  V30 651 C 66.1343 4.2248 0.413639 0
M  V30 652 C 64.0413 5.75364 -1.36785 0
M  V30 653 H 62.9713 0.753794 -0.0176448 0
M  V30 654 H 65.6223 1.68481 -0.727076 0
M  V30 655 H 64.0043 3.90048 0.683994 0
M  V30 656 H 65.1783 4.06491 -2.17029 0
M  V30 657 H 63.4933 3.7451 -1.8202 0
M  V30 658 H 66.0903 5.3265 0.467779 0
M  V30 659 H 66.4333 3.90976 1.42982 0
M  V30 660 H 66.9663 3.96897 -0.267929 0
M  V30 661 H 63.7053 6.11518 -2.36063 0
M  V30 662 H 63.2253 5.96214 -0.654895 0
M  V30 663 H 64.9043 6.37955 -1.07805 0
M  V30 664 N 65.0364 0.313813 1.54444 0
M  V30 665 C 66.2764 -0.292389 2.02298 0
M  V30 666 C 66.6404 -1.50105 1.19719 0
M  V30 667 O 67.8414 -2.17947 1.5733 0
M  V30 668 C 66.1124 -0.627682 3.51845 0
M  V30 669 S 67.6714 -1.21493 4.21646 0
M  V30 670 H 64.4894 -0.0890247 0.705405 0
M  V30 671 H 67.0914 0.444668 1.90376 0
M  V30 672 H 65.7954 0.260265 4.09574 0
M  V30 673 H 65.3264 -1.39519 3.67829 0
M  V30 674 H 67.3414 -2.5022 4.28491 0
M  V30 675 N 66.5145 -1.57545 0.0417849 0
M  V30 676 C 67.7625 -1.91937 -0.632829 0
M  V30 677 C 68.0835 -0.919978 -1.71934 0
M  V30 678 O 67.3535 0.0366064 -1.95866 0
M  V30 679 H 65.9335 -0.708493 -0.236742 0
M  V30 680 H 68.5955 -1.9468 0.0925745 0
M  V30 681 H 67.6915 -2.92912 -1.07746 0
M  V30 682 N 67.9926 0.231505 -1.5589 0
M  V30 683 C 69.2176 0.978689 -1.82856 0
M  V30 684 C 69.6426 1.77559 -0.620846 0
M  V30 685 O 69.0006 1.76119 0.430305 0
M  V30 686 C 69.0486 1.87997 -3.07716 0
M  V30 687 O 68.1526 2.97393 -2.85712 0
M  V30 688 H 67.4936 0.277663 -0.603158 0
M  V30 689 H 70.0236 0.24783 -2.03093 0
M  V30 690 H 70.0336 2.2917 -3.37558 0
M  V30 691 H 68.7086 1.29417 -3.95252 0
M  V30 692 H 67.2856 2.60238 -2.67078 0
M  V30 693 N 69.4707 1.49531 0.497807 0
M  V30 694 C 70.7477 1.49682 1.25915 0
M  V30 695 C 71.1277 0.226339 2.09883 0
M  V30 696 O 70.4757 -0.791189 2.14365 0
M  V30 697 C 70.6857 2.77755 2.11313 0
M  V30 698 C 72.0337 3.27371 2.70395 0
M  V30 699 O 73.0577 2.78894 2.21578 0
M  V30 700 O 71.9167 4.11808 3.59272 0
M  V30 701 H 69.0107 0.599228 0.56996 0
M  V30 702 H 71.5567 1.61798 0.511816 0
M  V30 703 H 70.3287 3.61713 1.49264 0
M  V30 704 H 69.9517 2.68515 2.93233 0
M  V30 705 N 70.9488 -0.749086 1.3866 0
M  V30 706 C 72.1948 -1.51056 1.35314 0
M  V30 707 C 72.5278 -1.94121 -0.0553751 0
M  V30 708 O 71.8028 -1.65763 -1.01749 0
M  V30 709 C 72.0858 -2.76003 2.31288 0
M  V30 710 C 71.9388 -2.39047 3.8102 0
M  V30 711 C 73.2578 -3.78046 2.2532 0
M  V30 712 H 70.3768 -0.547972 0.492844 0
M  V30 713 H 73.0188 -0.857628 1.69543 0
M  V30 714 H 71.1688 -3.31716 2.02229 0
M  V30 715 H 72.8408 -1.89074 4.20771 0
M  V30 716 H 71.0838 -1.71449 3.98482 0
M  V30 717 H 71.7548 -3.28462 4.4364 0
M  V30 718 H 74.2308 -3.31884 2.50983 0
M  V30 719 H 73.1068 -4.63159 2.94576 0
M  V30 720 H 73.3678 -4.23957 1.25352 0
M  V30 721 N 72.4269 -1.23603 -0.977757 0
M  V30 722 C 73.3769 -0.986664 -2.05545 0
M  V30 723 C 74.3609 0.0683009 -1.60755 0
M  V30 724 O 75.5529 -0.144162 -1.76412 0
M  V30 725 C 72.6819 -0.582623 -3.3832 0
M  V30 726 C 71.7679 -1.67313 -3.89701 0
M  V30 727 N 72.1589 -2.90394 -4.14132 0
M  V30 728 C 70.4569 -1.54832 -4.18262 0
M  V30 729 C 71.1579 -3.61017 -4.56116 0
M  V30 730 N 70.1339 -2.8854 -4.60701 0
M  V30 731 H 73.9359 -1.92139 -2.22396 0
M  V30 732 H 71.4499 -1.1358 -1.16074 0
M  V30 733 H 73.4469 -0.38524 -4.15116 0
M  V30 734 H 72.1069 0.34503 -3.22862 0
M  V30 735 H 73.1179 -3.26673 -4.01877 0
M  V30 736 H 69.7949 -0.687969 -4.11793 0
M  V30 737 H 71.1849 -4.66544 -4.83514 0
M  V30 738 N 73.905 1.17692 -1.04816 0
M  V30 739 C 75.135 1.91508 -0.775128 0
M  V30 740 C 75.543 1.76844 0.67253 0
M  V30 741 O 74.886 1.10057 1.47082 0
M  V30 742 C 74.948 3.43167 -1.0713 0
M  V30 743 C 74.612 3.81612 -2.51438 0
M  V30 744 C 75.609 3.84772 -3.49638 0
M  V30 745 C 73.294 4.12687 -2.86348 0
M  V30 746 C 75.288 4.18469 -4.80794 0
M  V30 747 C 72.975 4.46053 -4.17708 0
M  V30 748 C 73.973 4.48921 -5.14741 0
M  V30 749 O 73.661 4.81504 -6.43746 0
M  V30 750 H 73.393 0.614575 -0.281555 0
M  V30 751 H 75.947 1.50206 -1.40098 0
M  V30 752 H 74.177 3.84745 -0.388342 0
M  V30 753 H 75.866 3.98239 -0.784883 0
M  V30 754 H 76.632 3.60893 -3.24008 0
M  V30 755 H 72.511 4.09627 -2.11486 0
M  V30 756 H 76.055 4.20623 -5.56527 0
M  V30 757 H 71.952 4.69393 -4.43103 0
M  V30 758 H 72.72 4.99377 -6.4851 0
M  V30 759 N 75.3831 0.828654 1.34056 0
M  V30 760 C 76.6291 0.429279 1.98818 0
M  V30 761 C 76.9841 -0.998011 1.64492 0
M  V30 762 O 76.2771 -1.68652 0.909228 0
M  V30 763 C 76.4711 0.575226 3.52741 0
M  V30 764 C 76.3001 2.01515 4.02022 0
M  V30 765 C 75.0701 2.64825 4.30344 0
M  V30 766 C 77.2681 2.98261 4.18981 0
M  V30 767 N 75.2501 3.99998 4.65698 0
M  V30 768 C 76.6211 4.18356 4.57578 0
M  V30 769 C 78.6761 2.94802 4.01243 0
M  V30 770 C 77.3791 5.35454 4.80293 0
M  V30 771 C 79.4051 4.11121 4.25128 0
M  V30 772 C 78.7671 5.29969 4.64018 0
M  V30 773 H 74.8661 0.205304 0.754569 0
M  V30 774 H 77.4501 1.07457 1.62361 0
M  V30 775 H 75.6211 -0.0401962 3.88379 0
M  V30 776 H 77.3531 0.148292 4.04428 0
M  V30 777 H 74.1081 2.16027 4.21461 0
M  V30 778 H 74.5321 4.69653 4.87601 0
M  V30 779 H 79.1741 2.04054 3.70299 0
M  V30 780 H 76.8921 6.26755 5.10102 0
M  V30 781 H 80.4781 4.0985 4.12934 0
M  V30 782 H 79.3581 6.18479 4.82134 0
M  V30 783 N 76.8612 -1.46375 0.584142 0
M  V30 784 C 77.7712 -2.34115 -0.150728 0
M  V30 785 C 78.7872 -1.49838 -0.884567 0
M  V30 786 O 79.9632 -1.82704 -0.847429 0
M  V30 787 C 77.0282 -3.2705 -1.15062 0
M  V30 788 C 76.0892 -4.27228 -0.421293 0
M  V30 789 C 75.3222 -5.15722 -1.37355 0
M  V30 790 O 75.5452 -5.07176 -2.61014 0
M  V30 791 O 74.4792 -5.95383 -0.883355 0
M  V30 792 H 78.3052 -2.98309 0.569708 0
M  V30 793 H 75.8902 -1.45373 0.344535 0
M  V30 794 H 77.7722 -3.84381 -1.72712 0
M  V30 795 H 76.4472 -2.65451 -1.8525 0
M  V30 796 H 75.3542 -3.7358 0.197085 0
M  V30 797 H 76.6872 -4.91616 0.239641 0
M  V30 798 N 78.3393 -0.321999 -1.54275 0
M  V30 799 C 79.5693 0.282642 -2.04658 0
M  V30 800 C 79.9773 1.46453 -1.19784 0
M  V30 801 O 79.3203 1.82367 -0.220932 0
M  V30 802 C 79.3823 0.781857 -3.50895 0
M  V30 803 C 79.0463 -0.277517 -4.56157 0
M  V30 804 C 80.0433 -1.11307 -5.07845 0
M  V30 805 C 77.7283 -0.425256 -5.00497 0
M  V30 806 C 79.7223 -2.08211 -6.02434 0
M  V30 807 C 77.4093 -1.39771 -5.94901 0
M  V30 808 C 78.4073 -2.2246 -6.45756 0
M  V30 809 O 78.0953 -3.18054 -7.38307 0
M  V30 810 H 77.8273 0.0622636 -0.673126 0
M  V30 811 H 80.3813 -0.465792 -2.00049 0
M  V30 812 H 78.6113 1.58118 -3.52896 0
M  V30 813 H 80.3003 1.30467 -3.84361 0
M  V30 814 H 81.0663 -1.00991 -4.74369 0
M  V30 815 H 76.9453 0.20847 -4.60528 0
M  V30 816 H 80.4893 -2.72791 -6.42052 0
M  V30 817 H 76.3863 -1.50152 -6.27794 0
M  V30 818 H 77.1543 -3.13275 -7.56175 0
M  V30 819 N 79.8174 1.5752 -0.0501392 0
M  V30 820 C 81.0654 1.9227 0.622642 0
M  V30 821 C 81.3864 0.929083 1.71444 0
M  V30 822 O 80.6564 -0.0262186 1.95882 0
M  V30 823 H 79.2364 0.709739 0.232981 0
M  V30 824 H 81.8984 1.94628 -0.102898 0
M  V30 825 H 80.9944 2.93479 1.06191 0
M  V30 826 N 81.2955 -0.223234 1.56011 0
M  V30 827 C 82.7115 -0.572856 1.48965 0
M  V30 828 C 82.9115 -1.87225 0.74492 0
M  V30 829 O 81.9675 -2.50899 0.283896 0
M  V30 830 C 83.2805 -0.653646 2.9351 0
M  V30 831 C 84.8285 -0.744386 3.0402 0
M  V30 832 C 85.3035 -0.856535 4.49919 0
M  V30 833 N 86.7945 -0.9208 4.53955 0
M  V30 834 C 87.5295 -1.02726 5.64123 0
M  V30 835 N 87.0255 -1.09777 6.84047 0
M  V30 836 N 88.8185 -1.06226 5.51971 0
M  V30 837 H 80.9695 0.629462 2.02858 0
M  V30 838 H 83.2325 0.220621 0.921971 0
M  V30 839 H 82.9385 0.231518 3.50937 0
M  V30 840 H 82.8125 -1.51781 3.45315 0
M  V30 841 H 85.1995 -1.61999 2.46658 0
M  V30 842 H 85.2805 0.14541 2.55386 0
M  V30 843 H 84.9245 0.0146069 5.07898 0
M  V30 844 H 84.8545 -1.76172 4.96257 0
M  V30 845 H 87.3455 -0.876694 3.6759 0
M  V30 846 H 87.6585 -1.17872 7.63758 0
M  V30 847 H 86.0035 -1.06693 6.86762 0
M  V30 848 H 89.1945 -1.00382 4.5721 0
M  V30 849 H 89.3675 -1.14177 6.37862 0
M  V30 850 N 82.7736 -1.49793 -0.48987 0
M  V30 851 C 84.0226 -1.59085 -1.23995 0
M  V30 852 C 84.3356 -0.287907 -1.9347 0
M  V30 853 O 85.5416 -0.259506 -2.70257 0
M  V30 854 C 83.9976 -2.80736 -2.252 0
M  V30 855 C 83.6056 -4.17833 -1.61614 0
M  V30 856 C 85.3496 -2.99364 -3.00967 0
M  V30 857 C 83.2566 -5.30693 -2.60996 0
M  V30 858 H 82.1866 -0.592372 -0.466488 0
M  V30 859 H 84.8376 -1.76197 -0.51252 0
M  V30 860 H 83.2196 -2.57142 -3.01154 0
M  V30 861 H 84.3936 -4.51608 -0.915774 0
M  V30 862 H 82.7086 -4.04656 -0.981977 0
M  V30 863 H 85.3056 -3.80851 -3.75308 0
M  V30 864 H 85.6486 -2.10356 -3.59244 0
M  V30 865 H 86.1816 -3.2305 -2.32128 0
M  V30 866 H 82.9206 -6.21796 -2.07485 0
M  V30 867 H 82.4406 -5.01359 -3.2924 0
M  V30 868 H 84.1196 -5.6049 -3.23202 0
M  V30 869 N 84.2517 0.741722 -1.39055 0
M  V30 870 C 85.4997 1.49818 -1.35643 0
M  V30 871 C 85.8207 1.94938 0.0491642 0
M  V30 872 O 85.0907 1.68505 0.999141 0
M  V30 873 H 83.6707 0.555755 -0.499144 0
M  V30 874 H 86.3327 0.880957 -1.73854 0
M  V30 875 H 85.4287 2.38348 -2.01486 0
M  V30 876 N 85.7298 1.2412 0.971189 0
M  V30 877 C 86.6778 1.02812 2.08644 0
M  V30 878 C 87.6718 -0.0358403 1.69362 0
M  V30 879 O 88.8778 0.118429 1.7961 0
M  V30 880 H 85.2528 0.315428 0.682649 0
M  V30 881 H 87.2238 1.97397 2.23779 0
M  V30 882 C 85.9728 0.645874 3.41649 0
M  V30 883 H 85.2958 1.45632 3.72332 0
M  V30 884 H 86.7358 0.536366 4.20594 0
M  V30 885 C 85.1948 -0.646713 3.30635 0
M  V30 886 O 85.7248 -1.69338 3.64263 0
M  V30 887 N 83.9308 -0.626115 2.83775 0
M  V30 888 H 83.4778 0.225988 2.56607 0
M  V30 889 H 83.4358 -1.49117 2.76788 0
M  V30 890 N 87.2079 -1.17134 1.05439 0
M  V30 891 C 88.4549 -1.87456 0.765942 0
M  V30 892 C 88.7829 -1.81189 -0.707153 0
M  V30 893 O 88.0379 -1.21633 -1.5331 0
M  V30 894 C 88.3369 -3.36833 1.19491 0
M  V30 895 C 88.0029 -3.63301 2.67063 0
M  V30 896 C 86.6649 -3.70234 3.07376 0
M  V30 897 C 89.0169 -3.74575 3.62413 0
M  V30 898 C 86.3449 -3.85933 4.41896 0
M  V30 899 C 88.6969 -3.91793 4.9667 0
M  V30 900 C 87.3609 -3.96966 5.36633 0
M  V30 901 H 86.6309 -0.685948 0.280278 0
M  V30 902 H 89.2779 -1.38556 1.32192 0
M  V30 903 H 87.5829 -3.87807 0.557969 0
M  V30 904 H 89.2799 -3.89611 0.948893 0
M  V30 905 H 85.8699 -3.58532 2.34846 0
M  V30 906 H 90.0539 -3.68537 3.32406 0
M  V30 907 H 85.3099 -3.88187 4.72357 0
M  V30 908 H 89.4839 -3.99458 5.70444 0
M  V30 909 H 87.1109 -4.08883 6.40874 0
M  V30 910 N 88.686 -0.835752 -1.33615 0
M  V30 911 C 89.935 -0.426289 -1.97144 0
M  V30 912 C 90.248 1.01912 -1.66953 0
M  V30 913 O 91.454 1.53311 -2.24072 0
M  V30 914 C 89.91 -0.711321 -3.52801 0
M  V30 915 C 89.518 -2.1712 -3.91871 0
M  V30 916 C 91.262 -0.368654 -4.22896 0
M  V30 917 C 89.169 -2.40044 -5.40493 0
M  V30 918 H 88.099 -0.15567 -0.737755 0
M  V30 919 H 90.75 -1.0239 -1.52278 0
M  V30 920 H 89.132 -0.0433766 -3.95976 0
M  V30 921 H 90.306 -2.87936 -3.59763 0
M  V30 922 H 88.621 -2.47654 -3.34749 0
M  V30 923 H 91.218 -0.517601 -5.32189 0
M  V30 924 H 91.561 0.688078 -4.10574 0
M  V30 925 H 92.094 -0.991702 -3.8524 0
M  V30 926 H 88.833 -3.44271 -5.57815 0
M  V30 927 H 88.353 -1.73785 -5.74072 0
M  V30 928 H 90.032 -2.23042 -6.0734 0
M  V30 929 N 90.1641 1.46063 -0.591896 0
M  V30 930 C 91.4101 2.02638 -0.0811191 0
M  V30 931 C 91.7431 1.4613 1.27905 0
M  V30 932 O 91.0181 0.629908 1.84017 0
M  V30 933 C 91.3011 3.60091 -0.0252436 0
M  V30 934 C 91.1541 4.26965 -1.41496 0
M  V30 935 C 92.4731 4.3496 0.670685 0
M  V30 936 H 89.5921 0.73635 -0.0309524 0
M  V30 937 H 92.2341 1.741 -0.760859 0
M  V30 938 H 90.3841 3.84535 0.553624 0
M  V30 939 H 92.0561 4.13756 -2.0397 0
M  V30 940 H 90.2991 3.85971 -1.98011 0
M  V30 941 H 90.9701 5.35781 -1.32825 0
M  V30 942 H 93.4461 4.15716 0.178825 0
M  V30 943 H 92.3221 5.44686 0.678837 0
M  V30 944 H 92.5831 4.06685 1.73379 0
M  V30 945 N 91.6422 0.330177 1.54103 0
M  V30 946 C 92.5892 -0.532762 2.24567 0
M  V30 947 C 93.5592 -1.10635 1.23892 0
M  V30 948 O 94.7442 -1.14546 1.5259 0
M  V30 949 C 91.8842 -1.6845 3.01195 0
M  V30 950 C 90.9972 -1.13951 4.167 0
M  V30 951 C 90.1322 -2.25746 4.80845 0
M  V30 952 C 89.1712 -1.6853 5.88442 0
M  V30 953 N 88.3082 -2.74014 6.46421 0
M  V30 954 H 93.1482 0.0746905 2.97906 0
M  V30 955 H 90.6852 0.048632 1.4702 0
M  V30 956 H 92.6432 -2.36234 3.43874 0
M  V30 957 H 91.2732 -2.26314 2.30178 0
M  V30 958 H 90.3252 -0.35301 3.78758 0
M  V30 959 H 91.6372 -0.680892 4.94131 0
M  V30 960 H 90.7912 -3.01422 5.26526 0
M  V30 961 H 89.5302 -2.74947 4.0281 0
M  V30 962 H 88.5352 -0.913543 5.42157 0
M  V30 963 H 89.7602 -1.20198 6.68378 0
M  V30 964 H 87.7062 -3.22494 5.71256 0
M  V30 965 H 87.6232 -2.32735 7.19285 0
M  V30 966 H 88.8912 -3.49499 6.96757 0
M  V30 967 N 93.1203 -1.57491 0.0584922 0
M  V30 968 C 94.0673 -2.11958 -0.913376 0
M  V30 969 C 95.0373 -1.02875 -1.30407 0
M  V30 970 O 96.2223 -1.30464 -1.39226 0
M  V30 971 C 93.3623 -2.67497 -2.18035 0
M  V30 972 C 92.4753 -3.90691 -1.84349 0
M  V30 973 C 91.6103 -4.3452 -3.05559 0
M  V30 974 C 90.6493 -5.50395 -2.67827 0
M  V30 975 N 89.7863 -5.89244 -3.81754 0
M  V30 976 H 94.6263 -2.94704 -0.442017 0
M  V30 977 H 92.1633 -1.45643 -0.206545 0
M  V30 978 H 94.1213 -2.978 -2.92183 0
M  V30 979 H 92.7513 -1.87537 -2.62735 0
M  V30 980 H 91.8033 -3.66934 -1.00319 0
M  V30 981 H 93.1153 -4.7489 -1.5258 0
M  V30 982 H 92.2693 -4.66414 -3.87998 0
M  V30 983 H 91.0083 -3.49147 -3.40511 0
M  V30 984 H 90.0133 -5.18165 -1.83806 0
M  V30 985 H 91.2383 -6.3749 -2.34059 0
M  V30 986 H 89.1843 -5.06823 -4.16493 0
M  V30 987 H 89.1013 -6.68151 -3.53708 0
M  V30 988 H 90.3693 -6.25756 -4.64811 0
M  V30 989 N 94.5984 0.214957 -1.56127 0
M  V30 990 C 96.0094 0.781386 -1.69562 0
M  V30 991 C 96.3604 1.84707 -0.66165 0
M  V30 992 O 95.4854 2.156 0.185927 0
M  V30 993 C 96.0804 1.42411 -3.07416 0
M  V30 994 C 94.6394 1.93786 -3.22683 0
M  V30 995 C 93.7864 0.800438 -2.65496 0
M  V30 996 H 96.7374 -0.00980633 -1.58697 0
M  V30 997 H 96.7584 2.29309 -3.0364 0
M  V30 998 H 96.2704 0.64826 -3.82648 0
M  V30 999 H 94.3714 2.74152 -2.52332 0
M  V30 1000 H 94.4844 2.1133 -4.29973 0
M  V30 1001 H 92.8484 1.2095 -2.2415 0
M  V30 1002 H 93.6314 0.0371471 -3.4328 0
M  V30 1003 N 96.0765 1.50051 0.48192 0
M  V30 1004 C 97.0095 1.62749 1.59963 0
M  V30 1005 C 97.9875 0.475903 1.5548 0
M  V30 1006 O 99.1715 0.693986 1.7526 0
M  V30 1007 C 96.2985 1.60008 2.98522 0
M  V30 1008 C 95.3445 2.80596 3.21198 0
M  V30 1009 S 96.1775 4.42038 3.02262 0
M  V30 1010 C 97.3335 4.41973 4.43182 0
M  V30 1011 H 97.5665 2.57296 1.4895 0
M  V30 1012 H 95.0995 1.39179 0.668477 0
M  V30 1013 H 97.0575 1.59112 3.78409 0
M  V30 1014 H 95.7185 0.667153 3.06933 0
M  V30 1015 H 94.9115 2.74952 4.22395 0
M  V30 1016 H 94.5135 2.79003 2.49065 0
M  V30 1017 H 96.8055 4.14868 5.35622 0
M  V30 1018 H 97.7485 5.43512 4.53873 0
M  V30 1019 H 98.1565 3.71812 4.24755 0
M  V30 1020 N 97.5546 -0.734337 1.39446 0
M  V30 1021 C 98.8006 -1.49613 1.36908 0
M  V30 1022 C 99.1336 -1.94169 -0.0347829 0
M  V30 1023 O 98.4086 -1.66833 -0.999847 0
M  V30 1024 C 98.6916 -2.73534 2.34203 0
M  V30 1025 C 98.5446 -2.34993 3.83534 0
M  V30 1026 C 99.8636 -3.75635 2.29317 0
M  V30 1027 H 96.9826 -0.542714 0.498629 0
M  V30 1028 H 99.6246 -0.839597 1.70443 0
M  V30 1029 H 97.7746 -3.29553 2.05736 0
M  V30 1030 H 99.4466 -1.84601 4.22753 0
M  V30 1031 H 97.6896 -1.67213 4.00278 0
M  V30 1032 H 98.3606 -3.23738 4.47099 0
M  V30 1033 H 100.837 -3.29203 2.54489 0
M  V30 1034 H 99.7126 -4.60008 2.99472 0
M  V30 1035 H 99.9736 -4.22603 1.29842 0
M  V30 1036 N 99.0327 -1.24633 -0.964593 0
M  V30 1037 C 99.9627 -1.06611 -2.07741 0
M  V30 1038 C 100.944 0.0218666 -1.70086 0
M  V30 1039 O 102.129 -0.145793 -1.93652 0
M  V30 1040 C 99.2587 -0.673444 -3.40708 0
M  V30 1041 C 98.2127 -1.71054 -3.92332 0
M  V30 1042 C 97.5387 -1.17285 -5.21678 0
M  V30 1043 C 98.8387 -3.10718 -4.19824 0
M  V30 1044 H 100.533 -1.99693 -2.23076 0
M  V30 1045 H 98.0787 -0.96152 -1.07195 0
M  V30 1046 H 100.032 -0.534345 -4.17998 0
M  V30 1047 H 98.7557 0.293073 -3.25282 0
M  V30 1048 H 97.4147 -1.83791 -3.17201 0
M  V30 1049 H 97.0627 -0.196847 -5.02615 0
M  V30 1050 H 96.7627 -1.86592 -5.57187 0
M  V30 1051 H 98.2867 -1.04593 -6.01575 0
M  V30 1052 H 99.7007 -3.01192 -4.87808 0
M  V30 1053 H 98.0977 -3.77406 -4.66567 0
M  V30 1054 H 99.1677 -3.58524 -3.26479 0
M  V30 1055 N 100.511 1.16574 -1.06058 0
M  V30 1056 C 101.759 1.86677 -0.77434 0
M  V30 1057 C 102.08 1.81959 0.701147 0
M  V30 1058 O 101.35 1.2515 1.50713 0
M  V30 1059 H 99.9298 0.691134 -0.283449 0
M  V30 1060 H 102.592 1.41378 -1.34158 0
M  V30 1061 H 101.688 2.92181 -1.09711 0
M  V30 1062 N 101.989 0.842826 1.3317 0
M  V30 1063 C 102.939 0.250877 2.26616 0
M  V30 1064 C 103.923 -0.596427 1.49437 0
M  V30 1065 O 105.115 -0.447747 1.71243 0
M  V30 1066 C 102.244 -0.569779 3.38539 0
M  V30 1067 C 101.33 0.289254 4.23112 0
M  V30 1068 N 101.721 1.36987 4.86897 0
M  V30 1069 C 100.019 0.0769631 4.45934 0
M  V30 1070 C 100.72 1.89737 5.49886 0
M  V30 1071 N 99.6959 1.19827 5.30229 0
M  V30 1072 H 103.498 1.07718 2.73448 0
M  V30 1073 H 101.012 0.687693 1.47121 0
M  V30 1074 H 103.009 -1.01018 4.04476 0
M  V30 1075 H 101.669 -1.39401 2.93253 0
M  V30 1076 H 102.68 1.75277 4.87338 0
M  V30 1077 H 99.3569 -0.713507 4.11358 0
M  V30 1078 H 100.747 2.80253 6.10662 0
M  V30 1079 N 103.467 -1.45747 0.599634 0
M  V30 1080 C 104.377 -2.34262 -0.125888 0
M  V30 1081 C 105.393 -1.50768 -0.868625 0
M  V30 1082 O 106.569 -1.83592 -0.828003 0
M  V30 1083 C 103.634 -3.28252 -1.11587 0
M  V30 1084 C 102.695 -4.27651 -0.375956 0
M  V30 1085 C 101.928 -5.1715 -1.31877 0
M  V30 1086 O 102.151 -5.09916 -2.55621 0
M  V30 1087 O 101.085 -5.96286 -0.820157 0
M  V30 1088 H 104.911 -2.97688 0.601315 0
M  V30 1089 H 102.496 -1.44999 0.359934 0
M  V30 1090 H 104.378 -3.86191 -1.68626 0
M  V30 1091 H 103.053 -2.67401 -1.82424 0
M  V30 1092 H 101.96 -3.7335 0.236698 0
M  V30 1093 H 103.293 -4.91334 0.29177 0
M  V30 1094 N 104.945 -0.338344 -1.53925 0
M  V30 1095 C 105.908 0.508299 -2.23493 0
M  V30 1096 C 106.908 1.03175 -1.23335 0
M  V30 1097 O 108.098 0.921826 -1.47811 0
M  V30 1098 C 105.23 1.70754 -2.95052 0
M  V30 1099 H 106.423 -0.100058 -2.99733 0
M  V30 1100 H 103.976 -0.0896198 -1.56043 0
M  V30 1101 H 104.711 2.35474 -2.22986 0
M  V30 1102 H 104.496 1.33946 -3.68512 0
M  V30 1103 H 105.986 2.30818 -3.48013 0
M  V30 1104 N 106.423 1.57458 -0.0668435 0
M  V30 1105 C 107.648 1.9804 0.616027 0
M  V30 1106 C 108.073 0.944771 1.62652 0
M  V30 1107 O 107.431 -0.0902094 1.81075 0
M  V30 1108 C 107.479 3.37665 1.26549 0
M  V30 1109 O 106.583 3.36701 2.38131 0
M  V30 1110 H 105.924 0.644719 0.158849 0
M  V30 1111 H 108.454 2.04121 -0.139891 0
M  V30 1112 H 108.464 3.7474 1.6135 0
M  V30 1113 H 107.139 4.12573 0.525016 0
M  V30 1114 H 105.716 3.1139 2.0516 0
M  V30 1115 N 107.901 -0.206675 1.56239 0
M  V30 1116 C 109.149 -0.927007 1.79586 0
M  V30 1117 C 109.47 -1.8427 0.637929 0
M  V30 1118 O 108.74 -1.92849 -0.344398 0
M  V30 1119 H 107.32 -0.345292 0.662407 0
M  V30 1120 H 109.982 -0.21496 1.93711 0
M  V30 1121 H 109.078 -1.52501 2.72305 0
M  V30 1122 N 109.379 -1.50304 -0.473955 0
M  V30 1123 C 110.607 -1.64902 -1.24959 0
M  V30 1124 C 111.022 -0.331198 -1.85872 0
M  V30 1125 O 110.379 0.68652 -1.69095 0
M  V30 1126 C 110.43 -2.73803 -2.36038 0
M  V30 1127 O 110.151 -4.00477 -1.77624 0
M  V30 1128 C 111.652 -2.99349 -3.26964 0
M  V30 1129 H 108.872 -0.554383 -0.378022 0
M  V30 1130 H 111.416 -1.9651 -0.566054 0
M  V30 1131 H 109.571 -2.44898 -3.00173 0
M  V30 1132 H 109.985 -4.60678 -2.5075 0
M  V30 1133 H 111.459 -3.79217 -4.01121 0
M  V30 1134 H 111.936 -2.10307 -3.85574 0
M  V30 1135 H 112.542 -3.29774 -2.68569 0
M  V30 1136 N 110.857 0.726932 -1.39834 0
M  V30 1137 C 112.103 1.48884 -1.377 0
M  V30 1138 C 112.436 1.94185 0.0244852 0
M  V30 1139 O 111.711 1.67361 0.990986 0
M  V30 1140 C 111.994 2.72288 -2.3565 0
M  V30 1141 C 111.847 2.32956 -3.84775 0
M  V30 1142 C 113.166 3.74414 -2.31306 0
M  V30 1143 H 110.285 0.540062 -0.5015 0
M  V30 1144 H 112.927 0.830547 -1.70886 0
M  V30 1145 H 111.077 3.28457 -2.07481 0
M  V30 1146 H 112.749 1.82356 -4.23726 0
M  V30 1147 H 110.992 1.65088 -4.01159 0
M  V30 1148 H 111.663 3.21362 -4.4881 0
M  V30 1149 H 114.139 3.27849 -2.56231 0
M  V30 1150 H 113.015 4.58414 -3.01907 0
M  V30 1151 H 113.276 4.21909 -1.32081 0
M  V30 1152 N 112.336 1.25143 0.95797 0
M  V30 1153 C 113.246 1.06968 2.08794 0
M  V30 1154 C 114.262 0.00773911 1.73998 0
M  V30 1155 O 115.438 0.207972 2.00323 0
M  V30 1156 C 112.503 0.68691 3.39827 0
M  V30 1157 C 111.564 1.82641 3.88511 0
M  V30 1158 C 110.797 1.46181 5.1329 0
M  V30 1159 O 111.02 0.355971 5.69288 0
M  V30 1160 O 109.954 2.29085 5.566 0
M  V30 1161 H 113.78 2.01723 2.27027 0
M  V30 1162 H 111.365 1.04051 1.07209 0
M  V30 1163 H 113.247 0.485417 4.18595 0
M  V30 1164 H 111.922 -0.231417 3.22872 0
M  V30 1165 H 110.829 2.08274 3.10762 0
M  V30 1166 H 112.162 2.72386 4.09959 0
M  V30 1167 N 113.814 -1.1601 1.06675 0
M  V30 1168 C 114.761 -2.20525 0.680967 0
M  V30 1169 C 115.731 -1.62904 -0.324283 0
M  V30 1170 O 116.916 -1.89615 -0.212294 0
M  V30 1171 C 114.056 -3.45013 0.0776551 0
M  V30 1172 C 113.169 -4.16863 1.13355 0
M  V30 1173 C 112.304 -5.2888 0.49597 0
M  V30 1174 C 111.343 -5.92537 1.53513 0
M  V30 1175 N 110.48 -6.96038 0.920631 0
M  V30 1176 H 115.32 -2.52876 1.57663 0
M  V30 1177 H 112.857 -1.24199 0.788223 0
M  V30 1178 H 114.815 -4.16193 -0.289704 0
M  V30 1179 H 113.445 -3.132 -0.781393 0
M  V30 1180 H 112.497 -3.44248 1.61857 0
M  V30 1181 H 113.809 -4.60294 1.92174 0
M  V30 1182 H 112.963 -6.06653 0.0758604 0
M  V30 1183 H 111.702 -4.86622 -0.324062 0
M  V30 1184 H 110.707 -5.13482 1.9651 0
M  V30 1185 H 111.932 -6.36873 2.35733 0
M  V30 1186 H 109.878 -6.55888 0.12138 0
M  V30 1187 H 109.795 -7.3786 1.64616 0
M  V30 1188 H 111.063 -7.77725 0.525795 0
M  V30 1189 N 115.292 -0.849877 -1.32721 0
M  V30 1190 C 116.538 -0.451591 -1.97708 0
M  V30 1191 C 116.871 0.989175 -1.6712 0
M  V30 1192 O 116.146 1.69334 -0.956891 0
M  V30 1193 C 116.429 -0.685598 -3.53513 0
M  V30 1194 C 116.282 -2.17444 -3.93749 0
M  V30 1195 C 117.601 -0.138874 -4.39881 0
M  V30 1196 H 114.72 -0.16555 -0.718166 0
M  V30 1197 H 117.362 -1.06742 -1.57182 0
M  V30 1198 H 115.512 -0.161416 -3.88165 0
M  V30 1199 H 117.184 -2.76433 -3.693 0
M  V30 1200 H 115.427 -2.65476 -3.43081 0
M  V30 1201 H 116.098 -2.28888 -5.02309 0
M  V30 1202 H 118.574 -0.587068 -4.11938 0
M  V30 1203 H 117.45 -0.332213 -5.47894 0
M  V30 1204 H 117.711 0.95806 -4.31594 0
M  V30 1205 N 116.77 1.45427 -0.607355 0
M  V30 1206 C 118.018 2.01841 -0.102253 0
M  V30 1207 C 118.339 1.47832 1.27164 0
M  V30 1208 O 117.609 0.672497 1.83995 0
M  V30 1209 H 116.189 0.746188 -0.0348101 0
M  V30 1210 H 118.851 1.78229 -0.7887 0
M  V30 1211 H 117.947 3.12057 -0.0518585 0
M  V30 1212 N 118.248 0.346503 1.53744 0
M  V30 1213 C 119.473 -0.253074 2.0585 0
M  V30 1214 C 119.898 -1.43202 1.21962 0
M  V30 1215 O 119.256 -1.79783 0.234073 0
M  V30 1216 C 119.304 -0.643193 3.54817 0
M  V30 1217 O 118.408 -1.74286 3.73762 0
M  V30 1218 H 117.749 -0.0413583 0.662711 0
M  V30 1219 H 120.279 0.501574 1.98357 0
M  V30 1220 H 120.289 -0.919526 3.97503 0
M  V30 1221 H 118.964 0.218966 4.15323 0
M  V30 1222 H 117.541 -1.46356 3.42979 0
M  V30 1223 N 119.726 -1.57421 0.075193 0
M  V30 1224 C 120.951 -1.98364 -0.605515 0
M  V30 1225 C 121.376 -0.953383 -1.62149 0
M  V30 1226 O 120.734 0.0806053 -1.81121 0
M  V30 1227 C 120.782 -3.38332 -1.24756 0
M  V30 1228 O 119.886 -3.37959 -2.36342 0
M  V30 1229 H 119.227 -0.645553 -0.155428 0
M  V30 1230 H 121.757 -2.04044 0.150714 0
M  V30 1231 H 121.767 -3.75591 -1.5936 0
M  V30 1232 H 120.442 -4.12846 -0.503129 0
M  V30 1233 H 119.019 -3.12474 -2.03506 0
M  V30 1234 N 121.204 0.198386 -1.56346 0
M  V30 1235 C 122.45 0.920648 -1.80698 0
M  V30 1236 C 122.783 1.83045 -0.648697 0
M  V30 1237 O 122.058 1.91308 0.350925 0
M  V30 1238 C 122.341 1.73971 -3.15287 0
M  V30 1239 C 122.194 0.85485 -4.41602 0
M  V30 1240 C 123.513 2.71296 -3.46535 0
M  V30 1241 H 120.632 0.333261 -0.657348 0
M  V30 1242 H 123.274 0.188198 -1.89066 0
M  V30 1243 H 121.424 2.36416 -3.08285 0
M  V30 1244 H 123.096 0.245362 -4.60647 0
M  V30 1245 H 121.339 0.161398 -4.335 0
M  V30 1246 H 122.01 1.46286 -5.32264 0
M  V30 1247 H 124.486 2.18983 -3.53816 0
M  V30 1248 H 123.362 3.2569 -4.41834 0
M  V30 1249 H 123.623 3.5018 -2.69864 0
M  V30 1250 N 122.682 1.50554 0.465978 0
M  V30 1251 C 123.629 1.6979 1.56333 0
M  V30 1252 C 124.599 0.539239 1.57103 0
M  V30 1253 O 125.784 0.770401 1.74555 0
M  V30 1254 C 122.924 1.80273 2.94271 0
M  V30 1255 C 122.037 3.07674 3.0325 0
M  V30 1256 C 121.172 3.08922 4.32135 0
M  V30 1257 C 120.211 4.30755 4.34875 0
M  V30 1258 N 119.348 4.29714 5.55239 0
M  V30 1259 H 124.188 2.63472 1.39235 0
M  V30 1260 H 121.725 1.30602 0.676873 0
M  V30 1261 H 123.683 1.84332 3.74269 0
M  V30 1262 H 122.313 0.900258 3.09992 0
M  V30 1263 H 121.365 3.13062 2.16094 0
M  V30 1264 H 122.677 3.97642 3.01135 0
M  V30 1265 H 121.831 3.11738 5.20485 0
M  V30 1266 H 120.57 2.16792 4.36866 0
M  V30 1267 H 119.575 4.28146 3.44922 0
M  V30 1268 H 120.8 5.24117 4.31831 0
M  V30 1269 H 118.746 3.4044 5.60746 0
M  V30 1270 H 118.663 5.13456 5.54886 0
M  V30 1271 H 119.931 4.36683 6.457 0
M  V30 1272 N 124.16 -0.719506 1.40217 0
M  V30 1273 C 125.11 -1.8251 1.36653 0
M  V30 1274 C 126.094 -1.59028 0.244732 0
M  V30 1275 O 127.286 -1.70268 0.483524 0
M  V30 1276 C 124.415 -3.20599 1.22763 0
M  V30 1277 C 123.501 -3.49858 2.39708 0
M  V30 1278 N 123.892 -3.49957 3.6519 0
M  V30 1279 C 122.19 -3.80297 2.33002 0
M  V30 1280 C 122.891 -3.77449 4.42614 0
M  V30 1281 N 121.867 -3.96002 3.72402 0
M  V30 1282 H 125.669 -1.80914 2.31619 0
M  V30 1283 H 123.183 -0.918455 1.33933 0
M  V30 1284 H 125.18 -3.99766 1.18292 0
M  V30 1285 H 123.84 -3.23424 0.287614 0
M  V30 1286 H 124.851 -3.309 3.98404 0
M  V30 1287 H 121.528 -3.90635 1.47346 0
M  V30 1288 H 122.918 -3.83863 5.51451 0
M  V30 1289 N 125.638 -1.25649 -0.95132 0
M  V30 1290 C 126.568 -1.08808 -2.06599 0
M  V30 1291 C 127.549 0.00382547 -1.701 0
M  V30 1292 O 128.734 -0.166325 -1.93486 0
M  V30 1293 C 125.864 -0.709542 -3.39975 0
M  V30 1294 C 124.818 -1.75206 -3.90496 0
M  V30 1295 C 124.144 -1.22811 -5.20405 0
M  V30 1296 C 125.444 -3.15153 -4.16504 0
M  V30 1297 H 127.138 -2.02048 -2.20946 0
M  V30 1298 H 124.684 -0.972835 -1.06169 0
M  V30 1299 H 126.637 -0.578649 -4.17408 0
M  V30 1300 H 125.361 0.258556 -3.25575 0
M  V30 1301 H 124.02 -1.87145 -3.15234 0
M  V30 1302 H 123.668 -0.250145 -5.02378 0
M  V30 1303 H 123.368 -1.92492 -5.55176 0
M  V30 1304 H 124.892 -1.10968 -6.00432 0
M  V30 1305 H 126.306 -3.06349 -4.84586 0
M  V30 1306 H 124.703 -3.82333 -4.62538 0
M  V30 1307 H 125.773 -3.61966 -3.22658 0
M  V30 1308 N 127.117 1.15442 -1.07289 0
M  V30 1309 C 128.064 2.20161 -0.692653 0
M  V30 1310 C 129.034 1.63073 0.31564 0
M  V30 1311 O 130.219 1.89725 0.202235 0
M  V30 1312 C 127.359 3.44967 -0.0959509 0
M  V30 1313 C 126.472 4.16256 -1.15564 0
M  V30 1314 C 125.607 5.28609 -0.524011 0
M  V30 1315 C 124.646 5.91715 -1.56653 0
M  V30 1316 N 123.783 6.9554 -0.957531 0
M  V30 1317 H 128.623 2.52037 -1.59002 0
M  V30 1318 H 126.16 1.2378 -0.794798 0
M  V30 1319 H 128.118 4.16341 0.267628 0
M  V30 1320 H 126.748 3.1361 0.764772 0
M  V30 1321 H 125.8 3.43385 -1.6368 0
M  V30 1322 H 127.112 4.59268 -1.94613 0
M  V30 1323 H 126.266 6.06604 -0.108032 0
M  V30 1324 H 125.005 4.86787 0.29825 0
M  V30 1325 H 124.01 5.12433 -1.9923 0
M  V30 1326 H 125.235 6.35614 -2.39107 0
M  V30 1327 H 123.181 6.55814 -0.156162 0
M  V30 1328 H 123.098 7.36977 -1.68526 0
M  V30 1329 H 124.366 7.77435 -0.567032 0
M  V30 1330 N 128.595 0.856903 1.32268 0
M  V30 1331 C 130.006 0.515711 1.79436 0
M  V30 1332 C 130.357 -0.966586 1.70738 0
M  V30 1333 O 129.482 -1.75409 1.26731 0
M  V30 1334 C 130.077 0.929335 3.25805 0
M  V30 1335 C 128.636 0.640006 3.70919 0
M  V30 1336 C 127.783 1.12784 2.53328 0
M  V30 1337 H 130.734 1.04389 1.19535 0
M  V30 1338 H 130.755 0.246633 3.797 0
M  V30 1339 H 130.267 2.00821 3.32103 0
M  V30 1340 H 128.368 -0.428051 3.70133 0
M  V30 1341 H 128.481 1.20788 4.63624 0
M  V30 1342 H 126.845 0.548033 2.48734 0
M  V30 1343 H 127.628 2.21387 2.62379 0
M  V30 1344 N 130.073 -1.45103 0.615059 0
M  V30 1345 C 131.321 -2.01784 0.112955 0
M  V30 1346 C 131.642 -1.48504 -1.26378 0
M  V30 1347 O 130.912 -0.682245 -1.83636 0
M  V30 1348 H 129.492 -0.745993 0.0387668 0
M  V30 1349 H 132.154 -1.77808 0.798141 0
M  V30 1350 H 131.25 -3.12025 0.0684069 0
M  V30 1351 N 131.551 -0.354651 -1.53558 0
M  V30 1352 C 132.828 0.294281 -1.93374 0
M  V30 1353 C 133.208 1.67313 -1.28723 0
M  V30 1354 O 132.556 2.24179 -0.442247 0
M  V30 1355 C 132.766 0.355445 -3.47185 0
M  V30 1356 C 134.114 0.601007 -4.20325 0
M  V30 1357 O 135.138 0.437106 -3.53508 0
M  V30 1358 O 133.997 0.919322 -5.38712 0
M  V30 1359 H 131.091 0.174033 -0.808481 0
M  V30 1360 H 133.637 -0.406638 -1.64756 0
M  V30 1361 H 132.409 -0.611729 -3.86489 0
M  V30 1362 H 132.032 1.1027 -3.82003 0
M  V30 1363 N 133.029 1.57378 -0.0835403 0
M  V30 1364 C 134.445 1.57246 0.273109 0
M  V30 1365 C 134.645 1.09385 1.69225 0
M  V30 1366 O 133.701 0.765051 2.40631 0
M  V30 1367 C 135.014 3.00614 0.0720628 0
M  V30 1368 C 136.562 3.12684 0.1407 0
M  V30 1369 C 137.037 4.57989 -0.0322094 0
M  V30 1370 N 138.528 4.63194 0.0230085 0
M  V30 1371 C 139.263 5.73335 -0.0861941 0
M  V30 1372 N 138.759 6.9235 -0.24958 0
M  V30 1373 N 140.552 5.62093 -0.0282886 0
M  V30 1374 H 132.703 1.86801 -1.0109 0
M  V30 1375 H 134.966 0.861687 -0.395222 0
M  V30 1376 H 134.672 3.39786 -0.907662 0
M  V30 1377 H 134.546 3.68193 0.81936 0
M  V30 1378 H 136.933 2.73391 1.11092 0
M  V30 1379 H 137.014 2.47719 -0.637896 0
M  V30 1380 H 136.658 4.97973 -0.999247 0
M  V30 1381 H 136.588 5.21 0.765937 0
M  V30 1382 H 139.079 3.77613 0.14722 0
M  V30 1383 H 139.392 7.72117 -0.324733 0
M  V30 1384 H 137.737 6.94415 -0.285097 0
M  V30 1385 H 140.928 4.67997 0.0981408 0
M  V30 1386 H 141.101 6.47895 -0.116845 0
M  V30 1387 N 134.507 -0.190092 1.56449 0
M  V30 1388 C 135.753 -0.911052 1.81184 0
M  V30 1389 C 136.086 -1.82699 0.658396 0
M  V30 1390 O 135.361 -1.91491 -0.340775 0
M  V30 1391 C 135.644 -1.72297 3.16205 0
M  V30 1392 C 135.497 -0.831419 4.42049 0
M  V30 1393 C 136.816 -2.69454 3.47969 0
M  V30 1394 H 133.935 -0.32977 0.659106 0
M  V30 1395 H 136.577 -0.178169 1.89163 0
M  V30 1396 H 134.727 -2.34778 3.09534 0
M  V30 1397 H 136.399 -0.220929 4.60771 0
M  V30 1398 H 134.642 -0.138406 4.33579 0
M  V30 1399 H 135.313 -1.43461 5.33032 0
M  V30 1400 H 137.789 -2.17104 3.54972 0
M  V30 1401 H 136.665 -3.23342 4.43555 0
M  V30 1402 H 136.926 -3.48744 2.71717 0
M  V30 1403 N 135.985 -1.50799 -0.457987 0
M  V30 1404 C 136.948 -1.7005 -1.53674 0
M  V30 1405 C 137.948 -0.570881 -1.50325 0
M  V30 1406 O 139.138 -0.838126 -1.52712 0
M  V30 1407 C 136.27 -1.73788 -2.93276 0
M  V30 1408 H 137.463 -2.66306 -1.37917 0
M  V30 1409 H 135.016 -1.40477 -0.685271 0
M  V30 1410 H 135.751 -0.792717 -3.14462 0
M  V30 1411 H 135.536 -2.55864 -2.97113 0
M  V30 1412 H 137.026 -1.90591 -3.71571 0
M  V30 1413 N 137.463 0.71206 -1.40597 0
M  V30 1414 C 138.712 1.46754 -1.38369 0
M  V30 1415 C 139.025 1.95598 0.0097839 0
M  V30 1416 O 140.231 2.71059 0.154677 0
M  V30 1417 C 138.687 2.65289 -2.43207 0
M  V30 1418 C 138.295 2.23301 -3.88382 0
M  V30 1419 C 140.039 3.43008 -2.50091 0
M  V30 1420 C 137.946 3.38696 -4.84808 0
M  V30 1421 H 136.876 0.55118 -0.514506 0
M  V30 1422 H 139.527 0.774616 -1.66349 0
M  V30 1423 H 137.909 3.36769 -2.08332 0
M  V30 1424 H 139.083 1.59218 -4.32419 0
M  V30 1425 H 137.398 1.58618 -3.85006 0
M  V30 1426 H 139.995 4.28881 -3.1932 0
M  V30 1427 H 140.338 3.87065 -1.53253 0
M  V30 1428 H 140.871 2.78574 -2.83974 0
M  V30 1429 H 137.61 2.99668 -5.82992 0
M  V30 1430 H 137.13 4.01683 -4.45433 0
M  V30 1431 H 138.809 4.04712 -5.04794 0
M  V30 1432 N 138.941 1.26152 0.944643 0
M  V30 1433 C 139.851 1.09176 2.07648 0
M  V30 1434 C 140.867 0.0261935 1.7398 0
M  V30 1435 O 142.043 0.229208 2.00091 0
M  V30 1436 C 139.108 0.722915 3.39079 0
M  V30 1437 C 138.169 1.86752 3.86552 0
M  V30 1438 C 137.402 1.51617 5.11711 0
M  V30 1439 O 137.625 0.416331 5.68879 0
M  V30 1440 O 136.559 2.34975 5.54139 0
M  V30 1441 H 140.385 2.0412 2.24875 0
M  V30 1442 H 137.97 1.05182 1.061 0
M  V30 1443 H 139.852 0.529787 4.18056 0
M  V30 1444 H 138.527 -0.197159 3.23099 0
M  V30 1445 H 137.434 2.11558 3.08535 0
M  V30 1446 H 138.767 2.76719 4.07047 0
M  V30 1447 N 140.419 -1.14872 1.07899 0
M  V30 1448 C 141.83 -1.67367 0.827363 0
M  V30 1449 C 142.181 -1.85236 -0.646693 0
M  V30 1450 O 141.306 -1.55974 -1.50004 0
M  V30 1451 C 141.901 -3.04016 1.49532 0
M  V30 1452 C 140.46 -3.53566 1.29106 0
M  V30 1453 C 139.607 -2.29161 1.56143 0
M  V30 1454 H 142.558 -0.990083 1.24028 0
M  V30 1455 H 142.579 -3.69219 0.919643 0
M  V30 1456 H 142.091 -2.90978 2.56814 0
M  V30 1457 H 140.192 -3.71835 0.238713 0
M  V30 1458 H 140.305 -4.34661 2.01511 0
M  V30 1459 H 138.669 -2.34978 0.982717 0
M  V30 1460 H 139.452 -2.18705 2.64619 0
M  V30 1461 N 141.898 -0.863906 -1.31812 0
M  V30 1462 C 143.146 -0.470904 -1.96537 0
M  V30 1463 C 143.467 0.978771 -1.68657 0
M  V30 1464 O 142.737 1.6853 -0.998717 0
M  V30 1465 H 141.317 -0.171148 -0.72713 0
M  V30 1466 H 143.979 -1.10236 -1.60729 0
M  V30 1467 H 143.075 -0.623616 -3.05806 0
M  V30 1468 N 143.376 1.44774 -0.622745 0
M  V30 1469 C 144.339 2.29069 0.0774015 0
M  V30 1470 C 145.339 1.4059 0.780461 0
M  V30 1471 O 146.529 1.62551 0.626322 0
M  V30 1472 C 143.661 3.21974 1.12006 0
M  V30 1473 H 144.854 2.92459 -0.663901 0
M  V30 1474 H 142.407 1.51548 -0.382486 0
M  V30 1475 H 143.142 2.63417 1.89162 0
M  V30 1476 H 142.927 3.87168 0.619951 0
M  V30 1477 H 144.417 3.85318 1.60995 0
M  V30 1478 N 144.854 0.36279 1.53368 0
M  V30 1479 C 146.265 -0.117022 1.86333 0
M  V30 1480 C 146.616 -1.48397 1.28347 0
M  V30 1481 O 145.741 -2.07787 0.604428 0
M  V30 1482 C 146.336 -0.21912 3.38091 0
M  V30 1483 C 144.895 -0.643184 3.70864 0
M  V30 1484 C 144.042 0.211318 2.76494 0
M  V30 1485 H 146.993 0.581687 1.47655 0
M  V30 1486 H 147.014 -1.04319 3.6592 0
M  V30 1487 H 146.526 0.775902 3.80265 0
M  V30 1488 H 144.627 -1.64654 3.34245 0
M  V30 1489 H 144.74 -0.41973 4.77258 0
M  V30 1490 H 143.104 -0.319367 2.5269 0
M  V30 1491 H 143.887 1.20383 3.21501 0
M  V30 1492 N 146.332 -1.57332 0.0918853 0
M  V30 1493 C 147.748 -1.57389 -0.264766 0
M  V30 1494 C 147.948 -1.10281 -1.68643 0
M  V30 1495 O 147.004 -0.777801 -2.40222 0
M  V30 1496 C 148.317 -3.00648 -0.0561195 0
M  V30 1497 C 149.865 -3.12754 -0.124116 0
M  V30 1498 C 150.34 -4.57965 0.0564972 0
M  V30 1499 N 151.831 -4.632 0.00155611 0
M  V30 1500 C 152.566 -5.73281 0.116598 0
M  V30 1501 N 152.062 -6.92208 0.286294 0
M  V30 1502 N 153.855 -5.6207 0.0580973 0
M  V30 1503 H 146.006 -1.86262 1.02079 0
M  V30 1504 H 148.269 -0.859579 0.399786 0
M  V30 1505 H 147.975 -3.393 0.925669 0
M  V30 1506 H 147.849 -3.68623 -0.799823 0
M  V30 1507 H 150.236 -2.73976 -1.09641 0
M  V30 1508 H 150.317 -2.47377 0.651024 0
M  V30 1509 H 149.961 -4.97436 1.02564 0
M  V30 1510 H 149.891 -5.21399 -0.738297 0
M  V30 1511 H 152.382 -3.77686 -0.127192 0
M  V30 1512 H 152.695 -7.71934 0.365676 0
M  V30 1513 H 151.04 -6.94254 0.32192 0
M  V30 1514 H 154.231 -4.68043 -0.0733204 0
M  V30 1515 H 154.404 -6.47824 0.151203 0
M  V30 1516 N 147.81 0.181792 -1.56548 0
M  V30 1517 C 148.72 1.24538 -1.98815 0
M  V30 1518 C 149.736 1.49045 -0.897861 0
M  V30 1519 O 150.912 1.61399 -1.20467 0
M  V30 1520 C 147.977 2.56683 -2.33055 0
M  V30 1521 C 147.038 2.40131 -3.55859 0
M  V30 1522 C 146.271 3.65975 -3.88456 0
M  V30 1523 O 146.494 4.70711 -3.22161 0
M  V30 1524 O 145.428 3.6071 -4.81842 0
M  V30 1525 H 149.254 0.916647 -2.89536 0
M  V30 1526 H 146.839 0.387842 -1.44278 0
M  V30 1527 H 148.721 3.34655 -2.56094 0
M  V30 1528 H 147.396 2.89157 -1.45498 0
M  V30 1529 H 146.303 1.60226 -3.38051 0
M  V30 1530 H 147.636 2.12585 -4.43924 0
M  V30 1531 N 149.288 1.51039 0.449983 0
M  V30 1532 C 150.236 1.71995 1.5659 0
M  V30 1533 C 151.23 0.586029 1.5894 0
M  V30 1534 O 152.436 0.76709 1.62837 0
M  V30 1535 H 148.811 0.543233 0.520001 0
M  V30 1536 H 150.782 2.65562 1.36085 0
M  V30 1537 C 149.531 1.8506 2.9436 0
M  V30 1538 H 148.854 2.71712 2.93279 0
M  V30 1539 H 150.294 2.0374 3.71842 0
M  V30 1540 C 148.753 0.607277 3.31382 0
M  V30 1541 O 149.283 -0.243903 4.00959 0
M  V30 1542 N 147.489 0.455073 2.87015 0
M  V30 1543 H 147.036 1.14879 2.30566 0
M  V30 1544 H 146.994 -0.375611 3.12148 0
M  V30 1545 N 150.766 -0.704594 1.40972 0
M  V30 1546 C 152.043 -1.45847 1.30338 0
M  V30 1547 C 152.423 -2.10973 -0.0732344 0
M  V30 1548 O 151.771 -2.00997 -1.08685 0
M  V30 1549 C 151.981 -2.48525 2.45023 0
M  V30 1550 C 153.329 -3.1404 2.8577 0
M  V30 1551 O 154.353 -2.58848 2.44696 0
M  V30 1552 O 153.212 -4.13981 3.56766 0
M  V30 1553 H 150.306 -0.649092 0.512454 0
M  V30 1554 H 152.852 -0.735836 1.52917 0
M  V30 1555 H 151.624 -1.98994 3.36923 0
M  V30 1556 H 151.247 -3.2831 2.24272 0
M  V30 1557 N 152.244 -1.26651 -0.937939 0
M  V30 1558 C 153.154 -1.10276 -2.07066 0
M  V30 1559 C 154.17 -0.0354197 -1.73964 0
M  V30 1560 O 155.346 -0.239816 -1.99967 0
M  V30 1561 C 152.411 -0.740887 -3.38691 0
M  V30 1562 C 151.472 -1.88799 -3.85556 0
M  V30 1563 C 150.705 -1.54329 -5.10899 0
M  V30 1564 O 150.928 -0.446494 -5.6865 0
M  V30 1565 O 149.862 -2.37911 -5.52885 0
M  V30 1566 H 153.688 -2.05309 -2.23789 0
M  V30 1567 H 151.273 -1.05743 -1.0554 0
M  V30 1568 H 153.155 -0.55195 -4.1777 0
M  V30 1569 H 151.83 0.180022 -3.23199 0
M  V30 1570 H 150.737 -2.13191 -3.07409 0
M  V30 1571 H 152.07 -2.78874 -4.05574 0
M  V30 1572 N 153.722 1.14298 -1.08507 0
M  V30 1573 C 154.969 1.85359 -0.815373 0
M  V30 1574 C 155.297 1.83001 0.658865 0
M  V30 1575 O 154.552 1.25655 1.50031 0
M  V30 1576 C 154.851 3.33547 -1.28379 0
M  V30 1577 C 154.517 3.56093 -2.76602 0
M  V30 1578 C 153.179 3.61955 -3.17084 0
M  V30 1579 C 155.531 3.64834 -3.72217 0
M  V30 1580 C 152.859 3.74082 -4.51973 0
M  V30 1581 C 155.211 3.78487 -5.06883 0
M  V30 1582 C 153.875 3.82598 -5.46969 0
M  V30 1583 H 153.145 0.678276 -0.298366 0
M  V30 1584 H 155.792 1.35002 -1.35819 0
M  V30 1585 H 154.097 3.86191 -0.660593 0
M  V30 1586 H 155.794 3.86959 -1.05186 0
M  V30 1587 H 152.384 3.52179 -2.4427 0
M  V30 1588 H 156.568 3.59595 -3.42061 0
M  V30 1589 H 151.824 3.75527 -4.82483 0
M  V30 1590 H 155.998 3.84193 -5.80834 0
M  V30 1591 H 153.625 3.91747 -6.51489 0
M  V30 1592 N 155.201 0.870884 1.31352 0
M  V30 1593 C 156.441 0.488783 1.9847 0
M  V30 1594 C 156.805 -0.941536 1.67329 0
M  V30 1595 O 158.006 -1.42903 2.27667 0
M  V30 1596 C 156.277 0.739688 3.49662 0
M  V30 1597 S 157.836 0.457582 4.36408 0
M  V30 1598 H 154.654 0.18242 0.6872 0
M  V30 1599 H 157.256 1.12711 1.59739 0
M  V30 1600 H 155.96 1.77944 3.69816 0
M  V30 1601 H 155.491 0.0883905 3.93301 0
M  V30 1602 H 157.506 -0.709752 4.91098 0
M  V30 1603 N 156.679 -1.44442 0.630414 0
M  V30 1604 C 157.626 -2.30678 -0.0749355 0
M  V30 1605 C 158.596 -1.4344 -0.837502 0
M  V30 1606 O 159.781 -1.72343 -0.818684 0
M  V30 1607 C 156.921 -3.28706 -1.05103 0
M  V30 1608 C 156.034 -4.31046 -0.286954 0
M  V30 1609 C 155.169 -5.16167 -1.2548 0
M  V30 1610 C 154.208 -6.10216 -0.479843 0
M  V30 1611 N 153.345 -6.88039 -1.39811 0
M  V30 1612 H 158.185 -2.90454 0.666386 0
M  V30 1613 H 155.722 -1.43107 0.340404 0
M  V30 1614 H 157.68 -3.84027 -1.63031 0
M  V30 1615 H 156.31 -2.70632 -1.75949 0
M  V30 1616 H 155.362 -3.78203 0.408243 0
M  V30 1617 H 156.674 -4.97794 0.316657 0
M  V30 1618 H 155.828 -5.76002 -1.90544 0
M  V30 1619 H 154.567 -4.49491 -1.89233 0
M  V30 1620 H 153.572 -5.49491 0.184295 0
M  V30 1621 H 154.797 -6.78928 0.152965 0
M  V30 1622 H 152.743 -6.24032 -2.02287 0
M  V30 1623 H 152.66 -7.51223 -0.848508 0
M  V30 1624 H 153.928 -7.52397 -2.03762 0
M  V30 1625 N 158.157 -0.370918 -1.53173 0
M  V30 1626 C 159.09 0.516727 -2.22273 0
M  V30 1627 C 160.068 1.07877 -1.21661 0
M  V30 1628 O 161.252 1.13389 -1.50583 0
M  V30 1629 C 158.379 1.71346 -2.92161 0
M  V30 1630 C 157.425 1.27838 -4.0689 0
M  V30 1631 S 158.258 0.275217 -5.34792 0
M  V30 1632 C 159.414 1.47816 -6.08195 0
M  V30 1633 H 159.647 -0.0701054 -2.97217 0
M  V30 1634 H 157.18 -0.155038 -1.5362 0
M  V30 1635 H 159.138 2.39988 -3.3304 0
M  V30 1636 H 157.799 2.27156 -2.16931 0
M  V30 1637 H 156.992 2.17141 -4.54825 0
M  V30 1638 H 156.594 0.671105 -3.6793 0
M  V30 1639 H 158.886 2.40831 -6.33251 0
M  V30 1640 H 159.829 1.04008 -7.0042 0
M  V30 1641 H 160.237 1.68663 -5.38714 0
M  V30 1642 N 159.635 1.57281 -0.100228 0
M  V30 1643 C 160.883 1.94153 0.561157 0
M  V30 1644 C 161.204 0.983157 1.68401 0
M  V30 1645 O 160.474 0.0361132 1.95867 0
M  V30 1646 H 159.054 0.716791 0.210283 0
M  V30 1647 H 161.716 1.94202 -0.164765 0
M  V30 1648 H 160.812 2.96709 0.968008 0
M  V30 1649 N 161.113 -0.173488 1.56642 0
M  V30 1650 C 162.529 -0.525174 1.50712 0
M  V30 1651 C 162.729 -1.8476 0.804107 0
M  V30 1652 O 161.785 -2.49869 0.363574 0
M  V30 1653 C 163.098 -0.559937 2.95441 0
M  V30 1654 C 164.646 -0.647288 3.06234 0
M  V30 1655 C 165.121 -0.712963 4.52417 0
M  V30 1656 N 166.612 -0.775911 4.56655 0
M  V30 1657 C 167.347 -0.847264 5.67106 0
M  V30 1658 N 166.843 -0.879585 6.87194 0
M  V30 1659 N 168.636 -0.886117 5.55071 0
M  V30 1660 H 160.787 0.693681 2.00753 0
M  V30 1661 H 163.05 0.249841 0.914485 0
M  V30 1662 H 162.756 0.343049 3.50023 0
M  V30 1663 H 162.63 -1.40718 3.49969 0
M  V30 1664 H 165.017 -1.5407 2.51687 0
M  V30 1665 H 165.098 0.226586 2.54794 0
M  V30 1666 H 164.742 0.176183 5.07594 0
M  V30 1667 H 164.672 -1.60295 5.0161 0
M  V30 1668 H 167.163 -0.759304 3.70193 0
M  V30 1669 H 167.476 -0.935144 7.67121 0
M  V30 1670 H 165.821 -0.847898 6.89808 0
M  V30 1671 H 169.012 -0.857853 4.60172 0
M  V30 1672 H 169.185 -0.938263 6.41171 0
M  V30 1673 N 162.591 -1.51276 -0.441967 0
M  V30 1674 C 163.821 -1.67273 -1.21257 0
M  V30 1675 C 164.229 -0.367624 -1.85594 0
M  V30 1676 O 163.572 0.663349 -1.71305 0
M  V30 1677 C 163.634 -2.72807 -2.34129 0
M  V30 1678 C 163.298 -4.1554 -1.90198 0
M  V30 1679 C 164.295 -5.00471 -1.40801 0
M  V30 1680 C 161.98 -4.61616 -1.9803 0
M  V30 1681 C 163.974 -6.29536 -0.998174 0
M  V30 1682 C 161.661 -5.90679 -1.56658 0
M  V30 1683 C 162.659 -6.74466 -1.07633 0
M  V30 1684 O 162.347 -8.01116 -0.668459 0
M  V30 1685 H 162.079 -0.564614 -0.371734 0
M  V30 1686 H 164.633 -1.9843 -0.530521 0
M  V30 1687 H 162.863 -2.36954 -3.05597 0
M  V30 1688 H 164.552 -2.77729 -2.96009 0
M  V30 1689 H 165.318 -4.66079 -1.34148 0
M  V30 1690 H 161.197 -3.96526 -2.35135 0
M  V30 1691 H 164.741 -6.94885 -0.61482 0
M  V30 1692 H 160.638 -6.24586 -1.62979 0
M  V30 1693 H 161.406 -8.14633 -0.794722 0
M  V30 1694 N 164.069 0.697108 -1.41344 0
M  V30 1695 C 165.017 1.83237 -1.43272 0
M  V30 1696 C 166.011 1.66522 -0.310947 0
M  V30 1697 O 167.217 1.73402 -0.482899 0
M  V30 1698 H 163.592 0.603802 -0.448249 0
M  V30 1699 H 165.563 1.78727 -2.38954 0
M  V30 1700 C 164.312 3.21245 -1.33029 0
M  V30 1701 H 163.635 3.34723 -2.18633 0
M  V30 1702 H 165.075 4.00763 -1.38439 0
M  V30 1703 C 163.534 3.36873 -0.0424635 0
M  V30 1704 O 164.064 3.91177 0.913421 0
M  V30 1705 N 162.27 2.90581 0.0331145 0
M  V30 1706 H 161.817 2.46577 -0.745506 0
M  V30 1707 H 161.775 3.01416 0.894199 0
M  V30 1708 N 165.547 1.27147 0.931209 0
M  V30 1709 C 166.477 1.12081 2.04842 0
M  V30 1710 C 167.458 0.0232364 1.70084 0
M  V30 1711 O 168.643 0.197085 1.93197 0
M  V30 1712 C 165.773 0.76354 3.38803 0
M  V30 1713 C 164.727 1.81396 3.87659 0
M  V30 1714 C 164.053 1.31075 5.18385 0
M  V30 1715 C 165.353 3.21739 4.11438 0
M  V30 1716 H 167.047 2.05537 2.17703 0
M  V30 1717 H 164.593 0.989603 1.04608 0
M  V30 1718 H 166.546 0.644982 4.16435 0
M  V30 1719 H 165.27 -0.206727 3.25945 0
M  V30 1720 H 163.929 1.92136 3.12217 0
M  V30 1721 H 163.577 0.330037 5.01916 0
M  V30 1722 H 163.277 2.013 5.52044 0
M  V30 1723 H 164.801 1.20506 5.98591 0
M  V30 1724 H 166.215 3.14019 4.79651 0
M  V30 1725 H 164.612 3.89644 4.56397 0
M  V30 1726 H 165.682 3.67054 3.16859 0
M  V30 1727 N 167.025 -1.13721 1.09112 0
M  V30 1728 C 168.25 -1.89314 0.847053 0
M  V30 1729 C 168.675 -1.78416 -0.595774 0
M  V30 1730 O 168.033 -1.12942 -1.41823 0
M  V30 1731 C 168.081 -3.3701 1.28284 0
M  V30 1732 O 167.185 -4.10054 0.439267 0
M  V30 1733 H 166.526 -0.588745 0.307044 0
M  V30 1734 H 169.056 -1.43902 1.45442 0
M  V30 1735 H 169.066 -3.87834 1.26683 0
M  V30 1736 H 167.741 -3.4426 2.33363 0
M  V30 1737 H 166.318 -3.69266 0.519312 0
M  V30 1738 N 168.503 -0.877838 -1.30888 0
M  V30 1739 C 169.914 -0.544193 -1.78593 0
M  V30 1740 C 170.265 0.939301 -1.72254 0
M  V30 1741 O 169.39 1.7337 -1.29505 0
M  V30 1742 C 169.985 -0.98105 -3.24285 0
M  V30 1743 C 168.544 -0.698935 -3.69854 0
M  V30 1744 C 167.691 -1.168 -2.51502 0
M  V30 1745 H 170.642 -1.06278 -1.17859 0
M  V30 1746 H 170.663 -0.307009 -3.79259 0
M  V30 1747 H 170.175 -2.06079 -3.28866 0
M  V30 1748 H 168.276 0.369112 -3.70767 0
M  V30 1749 H 168.389 -1.28148 -4.61644 0
M  V30 1750 H 166.753 -0.587535 -2.47831 0
M  V30 1751 H 167.536 -2.25533 -2.58824 0
M  V30 1752 N 169.982 1.44106 -0.638065 0
M  V30 1753 C 171.207 2.0685 -0.150916 0
M  V30 1754 C 171.632 1.47417 1.16833 0
M  V30 1755 O 170.99 0.578264 1.71831 0
M  V30 1756 C 171.038 3.60555 -0.05708 0
M  V30 1757 O 170.142 4.00465 0.984972 0
M  V30 1758 H 169.483 0.658151 -0.0879399 0
M  V30 1759 H 172.013 1.84865 -0.876707 0
M  V30 1760 H 172.023 4.07789 0.131232 0
M  V30 1761 H 170.698 4.03193 -1.02021 0
M  V30 1762 H 169.275 3.64849 0.770672 0
M  V30 1763 N 171.46 0.379036 1.52974 0
M  V30 1764 C 172.709 -0.207612 2.00629 0
M  V30 1765 C 173.022 -1.48758 1.27006 0
M  V30 1766 O 174.228 -2.15365 1.65318 0
M  V30 1767 C 172.684 -0.42053 3.57435 0
M  V30 1768 C 172.292 0.845587 4.39948 0
M  V30 1769 C 174.036 -0.964102 4.13407 0
M  V30 1770 C 171.943 0.601513 5.88333 0
M  V30 1771 H 170.873 -0.0813591 0.749598 0
M  V30 1772 H 173.524 0.499853 1.76561 0
M  V30 1773 H 171.906 -1.18959 3.7771 0
M  V30 1774 H 173.08 1.61848 4.31442 0
M  V30 1775 H 171.395 1.31336 3.95145 0
M  V30 1776 H 173.992 -1.16225 5.21916 0
M  V30 1777 H 174.335 -1.93019 3.68849 0
M  V30 1778 H 174.868 -0.25487 3.96983 0
M  V30 1779 H 171.607 1.53831 6.37194 0
M  V30 1780 H 171.127 -0.132628 5.99653 0
M  V30 1781 H 172.806 0.232134 6.46583 0
M  V30 1782 N 172.938 -1.57226 0.108567 0
M  V30 1783 C 174.185 -1.94833 -0.551943 0
M  V30 1784 C 174.513 -0.991204 -1.67348 0
M  V30 1785 O 173.768 -0.0131878 -1.95696 0
M  V30 1786 C 174.067 -3.38911 -1.13463 0
M  V30 1787 C 173.733 -4.50696 -0.135509 0
M  V30 1788 C 172.395 -4.80998 0.139252 0
M  V30 1789 C 174.747 -5.18333 0.545957 0
M  V30 1790 C 172.075 -5.76259 1.10194 0
M  V30 1791 C 174.427 -6.14627 1.49721 0
M  V30 1792 C 173.091 -6.43327 1.78006 0
M  V30 1793 H 172.361 -0.712944 -0.20197 0
M  V30 1794 H 175.008 -1.90582 0.18726 0
M  V30 1795 H 173.313 -3.39805 -1.95037 0
M  V30 1796 H 175.01 -3.65317 -1.65362 0
M  V30 1797 H 171.6 -4.27087 -0.359846 0
M  V30 1798 H 175.784 -4.95087 0.346842 0
M  V30 1799 H 171.04 -5.96804 1.32795 0
M  V30 1800 H 175.214 -6.66126 2.03099 0
M  V30 1801 H 172.841 -7.1695 2.52759 0
M  V30 1802 N 174.416 0.165178 -1.56732 0
M  V30 1803 C 175.663 0.880807 -1.8234 0
M  V30 1804 C 175.991 1.81977 -0.686621 0
M  V30 1805 O 175.246 1.92971 0.325697 0
M  V30 1806 C 175.545 1.70405 -3.1416 0
M  V30 1807 C 175.211 0.913475 -4.4155 0
M  V30 1808 C 173.873 0.695303 -4.7615 0
M  V30 1809 C 176.225 0.359349 -5.1996 0
M  V30 1810 C 173.553 -0.0879947 -5.86634 0
M  V30 1811 C 175.905 -0.410893 -6.31264 0
M  V30 1812 C 174.569 -0.639808 -6.64427 0
M  V30 1813 H 173.839 0.32231 -0.667231 0
M  V30 1814 H 176.486 0.145402 -1.90947 0
M  V30 1815 H 174.791 2.50903 -3.00923 0
M  V30 1816 H 176.488 2.26091 -3.31186 0
M  V30 1817 H 173.078 1.09357 -4.14414 0
M  V30 1818 H 177.262 0.515228 -4.93618 0
M  V30 1819 H 172.518 -0.27503 -6.10781 0
M  V30 1820 H 176.692 -0.847494 -6.91224 0
M  V30 1821 H 174.319 -1.24864 -7.49875 0
M  V30 1822 N 175.894 1.51508 0.433938 0
M  V30 1823 C 177.134 1.66006 1.19253 0
M  V30 1824 C 177.498 0.369868 1.88404 0
M  V30 1825 O 178.699 0.39066 2.65946 0
M  V30 1826 C 176.97 2.83229 2.17981 0
M  V30 1827 S 178.529 3.18075 3.02281 0
M  V30 1828 H 175.347 0.584821 0.404358 0
M  V30 1829 H 177.949 1.89425 0.48357 0
M  V30 1830 H 176.653 3.75407 1.65824 0
M  V30 1831 H 176.184 2.6201 2.93453 0
M  V30 1832 H 178.199 2.64772 4.19655 0
M  V30 1833 N 177.372 -0.689602 1.41712 0
M  V30 1834 C 178.335 -1.78521 1.43746 0
M  V30 1835 C 179.335 -1.57436 0.327191 0
M  V30 1836 O 180.525 -1.64 0.587348 0
M  V30 1837 C 177.657 -3.16971 1.25467 0
M  V30 1838 H 178.85 -1.78108 2.41283 0
M  V30 1839 H 176.403 -0.89781 1.27942 0
M  V30 1840 H 177.138 -3.23019 0.287948 0
M  V30 1841 H 176.923 -3.33678 2.05917 0
M  V30 1842 H 178.413 -3.96935 1.2974 0
M  V30 1843 N 178.85 -1.27639 -0.924453 0
M  V30 1844 C 180.078 -1.16989 -1.70649 0
M  V30 1845 C 180.493 0.272869 -1.86818 0
M  V30 1846 O 179.85 1.18549 -1.38753 0
M  V30 1847 C 179.901 -1.85229 -3.10439 0
M  V30 1848 O 179.622 -3.23868 -2.95028 0
M  V30 1849 C 181.123 -1.80746 -4.04779 0
M  V30 1850 H 178.343 -0.406595 -0.53378 0
M  V30 1851 H 180.887 -1.68569 -1.15778 0
M  V30 1852 H 179.042 -1.37545 -3.6216 0
M  V30 1853 H 179.456 -3.57889 -3.83426 0
M  V30 1854 H 180.93 -2.33101 -5.00368 0
M  V30 1855 H 181.407 -0.777499 -4.32263 0
M  V30 1856 H 182.013 -2.28059 -3.58984 0
M  V30 1857 N 180.328 1.1314 -1.09713 0
M  V30 1858 C 181.739 1.66029 -0.853885 0
M  V30 1859 C 182.09 1.86241 0.617142 0
M  V30 1860 O 181.215 1.5834 1.47503 0
M  V30 1861 C 181.81 3.01599 -1.5435 0
M  V30 1862 C 180.369 3.51467 -1.34714 0
M  V30 1863 C 179.516 2.26648 -1.59769 0
M  V30 1864 H 182.467 0.970226 -1.25588 0
M  V30 1865 H 182.488 3.67709 -0.978267 0
M  V30 1866 H 182 2.86856 -2.6141 0
M  V30 1867 H 180.101 3.71408 -0.297838 0
M  V30 1868 H 180.214 4.314 -2.08401 0
M  V30 1869 H 178.578 2.33385 -1.01998 0
M  V30 1870 H 179.361 2.14467 -2.68065 0
M  V30 1871 N 181.806 0.884767 1.30421 0
M  V30 1872 C 183.217 0.553656 1.78302 0
M  V30 1873 C 183.568 -0.930153 1.7275 0
M  V30 1874 O 182.693 -1.72681 1.30423 0
M  V30 1875 C 183.288 0.998234 3.2376 0
M  V30 1876 C 181.847 0.71854 3.69478 0
M  V30 1877 C 180.994 1.18132 2.50879 0
M  V30 1878 H 183.945 1.06901 1.17294 0
M  V30 1879 H 183.966 0.327118 3.79091 0
M  V30 1880 H 183.478 2.0782 3.27769 0
M  V30 1881 H 181.579 -0.349444 3.70958 0
M  V30 1882 H 181.692 1.30595 4.60958 0
M  V30 1883 H 180.056 0.600669 2.47516 0
M  V30 1884 H 180.839 2.26902 2.57624 0
M  V30 1885 N 183.284 -1.43765 0.645699 0
M  V30 1886 C 184.561 -1.9541 0.0862963 0
M  V30 1887 C 184.941 -1.58725 -1.39175 0
M  V30 1888 O 184.289 -0.868581 -2.11348 0
M  V30 1889 C 184.499 -3.47488 0.324565 0
M  V30 1890 C 185.847 -4.24001 0.225497 0
M  V30 1891 O 186.871 -3.55274 0.256715 0
M  V30 1892 O 185.73 -5.46313 0.142801 0
M  V30 1893 H 182.824 -0.826882 -0.0139483 0
M  V30 1894 H 185.37 -1.53743 0.718415 0
M  V30 1895 H 184.142 -3.67289 1.3496 0
M  V30 1896 H 183.765 -3.96135 -0.340987 0
M  V30 1897 N 184.763 -0.387143 -1.52771 0
M  V30 1898 C 186.04 0.253197 -1.93954 0
M  V30 1899 C 186.42 1.64545 -1.32243 0
M  V30 1900 O 185.768 2.23191 -0.489699 0
M  V30 1901 C 185.978 0.281722 -3.47861 0
M  V30 1902 C 187.326 0.511715 -4.21505 0
M  V30 1903 O 188.35 0.362023 -3.54356 0
M  V30 1904 O 187.209 0.804847 -5.40541 0
M  V30 1905 H 184.303 0.156845 -0.811991 0
M  V30 1906 H 186.849 -0.441494 -1.63856 0
M  V30 1907 H 185.621 -0.693571 -3.85104 0
M  V30 1908 H 185.244 1.02142 -3.84256 0
M  V30 1909 N 186.241 1.57166 -0.116904 0
M  V30 1910 C 187.489 1.94737 0.540533 0
M  V30 1911 C 187.81 1.00096 1.67349 0
M  V30 1912 O 187.08 0.0568854 1.95817 0
M  V30 1913 H 185.66 0.718981 0.202669 0
M  V30 1914 H 188.322 1.94017 -0.185353 0
M  V30 1915 H 187.418 2.97719 0.936483 0
M  V30 1916 N 187.719 -0.156864 1.56817 0
M  V30 1917 C 188.667 -1.21319 1.98455 0
M  V30 1918 C 189.661 -1.45025 0.875444 0
M  V30 1919 O 190.867 -1.45435 1.0606 0
M  V30 1920 H 187.242 -0.408142 0.631605 0
M  V30 1921 H 189.213 -0.835244 2.86472 0
M  V30 1922 C 187.962 -2.54148 2.37285 0
M  V30 1923 H 187.285 -2.36733 3.22176 0
M  V30 1924 H 188.725 -3.26712 2.70251 0
M  V30 1925 C 187.184 -3.13967 1.22173 0
M  V30 1926 O 187.714 -3.98357 0.517149 0
M  V30 1927 N 185.92 -2.7327 0.988536 0
M  V30 1928 H 185.467 -2.04744 1.56326 0
M  V30 1929 H 185.425 -3.13628 0.220209 0
M  V30 1930 N 189.197 -1.51736 -0.425897 0
M  V30 1931 C 190.127 -1.76827 -1.52494 0
M  V30 1932 C 191.108 -0.618524 -1.58456 0
M  V30 1933 O 192.293 -0.862416 -1.74 0
M  V30 1934 C 189.423 -1.90374 -2.90474 0
M  V30 1935 C 188.377 -3.0588 -2.99369 0
M  V30 1936 C 187.703 -3.04625 -4.3944 0
M  V30 1937 C 189.003 -4.45644 -2.72394 0
M  V30 1938 H 190.697 -2.68855 -1.31748 0
M  V30 1939 H 188.243 -1.29372 -0.632362 0
M  V30 1940 H 190.196 -2.0651 -3.6733 0
M  V30 1941 H 188.92 -0.95004 -3.12477 0
M  V30 1942 H 187.579 -2.89467 -2.24954 0
M  V30 1943 H 187.227 -2.0701 -4.58428 0
M  V30 1944 H 186.927 -3.82195 -4.46319 0
M  V30 1945 H 188.451 -3.22869 -5.18255 0
M  V30 1946 H 189.865 -4.62348 -3.38979 0
M  V30 1947 H 188.262 -5.25006 -2.9067 0
M  V30 1948 H 189.332 -4.54893 -1.67929 0
M  V30 1949 N 190.675 0.682077 -1.42076 0
M  V30 1950 C 191.915 1.45424 -1.43636 0
M  V30 1951 C 192.279 1.91939 -0.0484001 0
M  V30 1952 O 193.48 2.6873 0.0612514 0
M  V30 1953 C 191.751 2.62427 -2.42625 0
M  V30 1954 S 193.31 3.51379 -2.62827 0
M  V30 1955 H 190.128 0.496779 -0.508657 0
M  V30 1956 H 192.73 0.794645 -1.78621 0
M  V30 1957 H 191.434 2.26481 -3.42249 0
M  V30 1958 H 190.965 3.33266 -2.09039 0
M  V30 1959 H 192.98 4.58141 -1.9058 0
M  V30 1960 N 192.153 1.28127 0.917671 0
M  V30 1961 C 193.569 1.05749 1.19538 0
M  V30 1962 C 193.769 -0.202633 2.00479 0
M  V30 1963 O 192.825 -0.905382 2.3571 0
M  V30 1964 C 194.138 2.30273 1.93378 0
M  V30 1965 C 195.686 2.35412 2.06277 0
M  V30 1966 C 196.161 3.59692 2.83524 0
M  V30 1967 N 197.652 3.60309 2.91087 0
M  V30 1968 C 198.387 4.53147 3.51348 0
M  V30 1969 N 197.883 5.563 4.12919 0
M  V30 1970 N 199.676 4.40751 3.48849 0
M  V30 1971 H 191.827 2.09024 0.377184 0
M  V30 1972 H 194.09 0.919798 0.22951 0
M  V30 1973 H 193.796 3.22055 1.41328 0
M  V30 1974 H 193.67 2.36378 2.93947 0
M  V30 1975 H 196.057 1.4413 2.57508 0
M  V30 1976 H 196.138 2.33304 1.04895 0
M  V30 1977 H 195.782 4.51316 2.32973 0
M  V30 1978 H 195.712 3.59054 3.85211 0
M  V30 1979 H 198.203 2.85714 2.47338 0
M  V30 1980 H 198.516 6.2329 4.56869 0
M  V30 1981 H 196.861 5.60131 4.11435 0
M  V30 1982 H 200.052 3.59367 2.99955 0
M  V30 1983 H 200.225 5.13291 3.9552 0
M  V30 1984 N 193.631 -1.12557 1.10312 0
M  V30 1985 C 194.878 -1.84038 0.844759 0
M  V30 1986 C 195.206 -1.84026 -0.629668 0
M  V30 1987 O 194.461 -1.28026 -1.48013 0
M  V30 1988 C 194.76 -3.31462 1.33669 0
M  V30 1989 C 194.426 -3.51647 2.82232 0
M  V30 1990 C 193.088 -3.56864 3.22802 0
M  V30 1991 C 195.44 -3.58867 3.77974 0
M  V30 1992 C 192.768 -3.66844 4.57867 0
M  V30 1993 C 195.12 -3.70375 5.1284 0
M  V30 1994 C 193.784 -3.73848 5.52986 0
M  V30 1995 H 193.054 -0.673444 0.309119 0
M  V30 1996 H 195.701 -1.32824 1.37949 0
M  V30 1997 H 194.006 -3.85091 0.721949 0
M  V30 1998 H 195.703 -3.85236 1.11329 0
M  V30 1999 H 192.293 -3.48249 2.49842 0
M  V30 2000 H 196.477 -3.54107 3.47738 0
M  V30 2001 H 191.733 -3.67804 4.88396 0
M  V30 2002 H 195.907 -3.74904 5.86873 0
M  V30 2003 H 193.534 -3.81333 6.57639 0
M  V30 2004 N 195.109 -0.891671 -1.2995 0
M  V30 2005 C 196.339 -0.527893 -1.99742 0
M  V30 2006 C 196.747 0.88979 -1.66971 0
M  V30 2007 O 196.09 1.59766 -0.906667 0
M  V30 2008 C 196.152 -0.630804 -3.53922 0
M  V30 2009 C 195.816 -2.01401 -4.10228 0
M  V30 2010 C 196.813 -2.98422 -4.25724 0
M  V30 2011 C 194.498 -2.32121 -4.45449 0
M  V30 2012 C 196.492 -4.24293 -4.75662 0
M  V30 2013 C 194.179 -3.58237 -4.95086 0
M  V30 2014 C 195.177 -4.54137 -5.10146 0
M  V30 2015 O 194.865 -5.78014 -5.58708 0
M  V30 2016 H 194.597 -0.201953 -0.645129 0
M  V30 2017 H 197.151 -1.20076 -1.66646 0
M  V30 2018 H 195.381 0.0990616 -3.86573 0
M  V30 2019 H 197.07 -0.277338 -4.04951 0
M  V30 2020 H 197.836 -2.76001 -3.98809 0
M  V30 2021 H 193.715 -1.5824 -4.32991 0
M  V30 2022 H 197.259 -4.99153 -4.87332 0
M  V30 2023 H 193.156 -3.80491 -5.21437 0
M  V30 2024 H 193.924 -5.8049 -5.77039 0
M  V30 2025 N 196.587 1.43421 -0.653314 0
M  V30 2026 C 197.534 2.30768 0.0382271 0
M  V30 2027 C 198.504 1.44755 0.814576 0
M  V30 2028 O 199.689 1.73624 0.791162 0
M  V30 2029 C 196.829 3.30336 0.998599 0
M  V30 2030 C 195.942 4.31448 0.218342 0
M  V30 2031 C 195.077 5.18098 1.17252 0
M  V30 2032 C 194.116 6.10902 0.382702 0
M  V30 2033 N 193.253 6.90176 1.28848 0
M  V30 2034 H 198.093 2.89357 -0.712511 0
M  V30 2035 H 195.63 1.42548 -0.363128 0
M  V30 2036 H 197.588 3.86572 1.56901 0
M  V30 2037 H 196.218 2.73397 1.71621 0
M  V30 2038 H 195.27 3.77506 -0.46836 0
M  V30 2039 H 196.582 4.97227 -0.395812 0
M  V30 2040 H 195.736 5.7896 1.81356 0
M  V30 2041 H 194.475 4.52444 1.82058 0
M  V30 2042 H 193.48 5.49128 -0.27169 0
M  V30 2043 H 194.705 6.78598 -0.260957 0
M  V30 2044 H 192.651 6.27171 1.92334 0
M  V30 2045 H 192.568 7.52478 0.728887 0
M  V30 2046 H 193.836 7.55543 1.91766 0
M  V30 2047 N 198.065 0.39524 1.52563 0
M  V30 2048 C 199.015 -0.4541 2.23432 0
M  V30 2049 C 199.999 -1.02482 1.24042 0
M  V30 2050 O 201.191 -0.949938 1.49349 0
M  V30 2051 C 198.32 -1.57769 3.049 0
M  V30 2052 C 197.406 -1.01842 4.1169 0
M  V30 2053 N 197.797 -0.184613 5.05463 0
M  V30 2054 C 196.095 -1.29033 4.26927 0
M  V30 2055 C 196.796 0.125013 5.81566 0
M  V30 2056 N 195.772 -0.480498 5.41472 0
M  V30 2057 H 199.574 0.189413 2.93289 0
M  V30 2058 H 197.088 0.204877 1.61102 0
M  V30 2059 H 199.085 -2.19862 3.54212 0
M  V30 2060 H 197.745 -2.22397 2.36579 0
M  V30 2061 H 198.756 0.178602 5.17592 0
M  V30 2062 H 195.433 -1.93721 3.69836 0
M  V30 2063 H 196.823 0.800962 6.67109 0
M  V30 2064 N 199.544 -1.57102 0.125237 0
M  V30 2065 C 200.492 -2.16905 -0.839927 0
M  V30 2066 C 201.486 -1.11998 -1.27094 0
M  V30 2067 O 202.692 -1.3029 -1.24195 0
M  V30 2068 H 199.067 -0.694252 -0.288995 0
M  V30 2069 H 201.038 -2.96774 -0.311115 0
M  V30 2070 C 199.787 -2.78795 -2.07771 0
M  V30 2071 H 199.11 -3.59221 -1.755 0
M  V30 2072 H 200.55 -3.2417 -2.73295 0
M  V30 2073 C 199.009 -1.76193 -2.87155 0
M  V30 2074 O 199.539 -1.21909 -3.82755 0
M  V30 2075 N 197.745 -1.45991 -2.51267 0
M  V30 2076 H 197.292 -1.90325 -1.73592 0
M  V30 2077 H 197.25 -0.775844 -3.04677 0
M  V30 2078 N 201.022 0.148545 -1.56898 0
M  V30 2079 C 201.985 1.16736 -1.97244 0
M  V30 2080 C 202.985 1.35947 -0.858777 0
M  V30 2081 O 204.175 1.32966 -1.12542 0
M  V30 2082 C 201.307 2.52798 -2.28705 0
M  V30 2083 H 202.5 0.821279 -2.88435 0
M  V30 2084 H 200.053 0.391831 -1.51309 0
M  V30 2085 H 200.788 2.92381 -1.403 0
M  V30 2086 H 200.573 2.40216 -3.09901 0
M  V30 2087 H 202.063 3.26179 -2.60762 0
M  V30 2088 N 202.5 1.5196 0.417844 0
M  V30 2089 C 203.463 1.74065 1.49111 0
M  V30 2090 C 204.463 0.610537 1.48758 0
M  V30 2091 O 205.653 0.87832 1.50437 0
M  V30 2092 C 202.785 1.81502 2.88565 0
M  V30 2093 H 203.978 2.69869 1.30807 0
M  V30 2094 H 201.531 1.42244 0.647785 0
M  V30 2095 H 202.266 0.875813 3.1225 0
M  V30 2096 H 202.051 2.63651 2.90225 0
M  V30 2097 H 203.541 2.00376 3.66387 0
M  V30 2098 N 203.978 -0.674533 1.42435 0
M  V30 2099 C 205.225 -1.43459 1.42919 0
M  V30 2100 C 205.553 -1.94446 0.0457312 0
M  V30 2101 O 204.808 -1.7132 -0.94593 0
M  V30 2102 C 205.107 -2.64767 2.40069 0
M  V30 2103 C 204.773 -2.3232 3.86443 0
M  V30 2104 C 203.435 -2.23182 4.26314 0
M  V30 2105 C 205.787 -2.05977 4.78773 0
M  V30 2106 C 203.115 -1.85827 5.56494 0
M  V30 2107 C 205.467 -1.70125 6.09295 0
M  V30 2108 C 204.131 -1.59498 6.48164 0
M  V30 2109 H 203.401 -0.524952 0.522978 0
M  V30 2110 H 206.048 -0.769097 1.75377 0
M  V30 2111 H 204.353 -3.36349 2.00939 0
M  V30 2112 H 206.05 -3.22949 2.37707 0
M  V30 2113 H 202.64 -2.40334 3.54877 0
M  V30 2114 H 206.824 -2.11969 4.48757 0
M  V30 2115 H 202.08 -1.76168 5.8547 0
M  V30 2116 H 206.254 -1.48767 6.80324 0
M  V30 2117 H 203.881 -1.30322 7.48946 0
M  V30 2118 N 205.456 -1.28612 -0.910864 0
M  V30 2119 C 206.696 -1.1719 -1.67469 0
M  V30 2120 C 207.06 0.274441 -1.90028 0
M  V30 2121 O 208.261 0.511425 -2.6389 0
M  V30 2122 C 206.532 -1.95137 -2.99427 0
M  V30 2123 S 208.091 -2.00122 -3.90508 0
M  V30 2124 H 204.909 -0.41806 -0.575106 0
M  V30 2125 H 207.511 -1.6275 -1.08317 0
M  V30 2126 H 206.215 -2.99381 -2.80712 0
M  V30 2127 H 205.746 -1.50137 -3.63624 0
M  V30 2128 H 207.761 -1.10981 -4.8363 0
M  V30 2129 N 206.934 1.1197 -1.10907 0
M  V30 2130 C 208.164 1.8713 -0.875553 0
M  V30 2131 C 208.572 1.8016 0.577843 0
M  V30 2132 O 207.915 1.17699 1.41042 0
M  V30 2133 C 207.977 3.37005 -1.2517 0
M  V30 2134 C 207.641 3.67748 -2.71313 0
M  V30 2135 C 208.638 3.65698 -3.69542 0
M  V30 2136 C 206.323 3.96928 -3.07821 0
M  V30 2137 C 208.317 3.92395 -5.023 0
M  V30 2138 C 206.004 4.23284 -4.40765 0
M  V30 2139 C 207.002 4.21005 -5.37814 0
M  V30 2140 O 206.69 4.46704 -6.68364 0
M  V30 2141 H 206.422 0.598786 -0.313737 0
M  V30 2142 H 208.976 1.42568 -1.47863 0
M  V30 2143 H 207.206 3.82146 -0.591741 0
M  V30 2144 H 208.895 3.93519 -0.994877 0
M  V30 2145 H 209.661 3.43211 -3.42682 0
M  V30 2146 H 205.54 3.97841 -2.32902 0
M  V30 2147 H 209.084 3.90531 -5.78041 0
M  V30 2148 H 204.981 4.45246 -4.67361 0
M  V30 2149 H 205.749 4.64299 -6.74069 0
M  V30 2150 N 208.412 0.89855 1.29475 0
M  V30 2151 C 209.359 0.373819 2.27753 0
M  V30 2152 C 210.329 -0.543444 1.56958 0
M  V30 2153 O 211.514 -0.468934 1.84948 0
M  V30 2154 C 208.654 -0.393648 3.42848 0
M  V30 2155 C 207.767 0.554379 4.28428 0
M  V30 2156 C 206.902 -0.230026 5.30702 0
M  V30 2157 C 205.941 0.712599 6.07938 0
M  V30 2158 N 205.078 -0.0373283 7.0209 0
M  V30 2159 H 209.918 1.21699 2.72017 0
M  V30 2160 H 207.455 0.611456 1.33789 0
M  V30 2161 H 209.413 -0.85466 4.08352 0
M  V30 2162 H 208.043 -1.20128 2.99615 0
M  V30 2163 H 207.095 1.13391 3.63107 0
M  V30 2164 H 208.407 1.27597 4.82204 0
M  V30 2165 H 207.561 -0.752288 6.02018 0
M  V30 2166 H 206.3 -0.984758 4.77654 0
M  V30 2167 H 205.305 1.24637 5.35486 0
M  V30 2168 H 206.53 1.46664 6.63074 0
M  V30 2169 H 204.476 -0.774348 6.51414 0
M  V30 2170 H 204.393 0.624374 7.53417 0
M  V30 2171 H 205.661 -0.539891 7.77628 0
M  V30 2172 N 209.89 -1.43072 0.660911 0
M  V30 2173 C 210.82 -2.33497 -0.0122829 0
M  V30 2174 C 211.801 -1.49903 -0.803925 0
M  V30 2175 O 212.986 -1.78546 -0.763864 0
M  V30 2176 C 210.116 -3.33363 -0.973994 0
M  V30 2177 C 209.07 -4.27003 -0.291928 0
M  V30 2178 C 208.396 -5.16967 -1.36562 0
M  V30 2179 C 209.696 -5.15816 0.820462 0
M  V30 2180 H 211.39 -2.90038 0.742873 0
M  V30 2181 H 208.936 -1.39461 0.358688 0
M  V30 2182 H 210.889 -3.95524 -1.45392 0
M  V30 2183 H 209.613 -2.75095 -1.7604 0
M  V30 2184 H 208.272 -3.66217 0.167623 0
M  V30 2185 H 207.92 -4.55034 -2.14366 0
M  V30 2186 H 207.62 -5.80441 -0.914454 0
M  V30 2187 H 209.144 -5.82003 -1.84675 0
M  V30 2188 H 210.558 -5.71742 0.422366 0
M  V30 2189 H 208.955 -5.8805 1.19656 0
M  V30 2190 H 210.025 -4.55045 1.67518 0
M  V30 2191 N 211.368 -0.403325 -1.52352 0
M  V30 2192 C 212.779 0.0675782 -1.86578 0
M  V30 2193 C 213.13 1.44941 -1.32236 0
M  V30 2194 O 212.255 2.06112 -0.659307 0
M  V30 2195 C 212.85 0.129404 -3.38553 0
M  V30 2196 C 211.409 0.544629 -3.72439 0
M  V30 2197 C 210.556 -0.284551 -2.75836 0
M  V30 2198 H 213.507 -0.620631 -1.46061 0
M  V30 2199 H 213.528 0.94581 -3.68558 0
M  V30 2200 H 213.04 -0.87645 -3.78074 0
M  V30 2201 H 211.141 1.55734 -3.38493 0
M  V30 2202 H 211.254 0.293046 -4.78203 0
M  V30 2203 H 209.618 0.252258 -2.53448 0
M  V30 2204 H 210.401 -1.28865 -3.18196 0
M  V30 2205 N 212.846 1.57033 -0.133567 0
M  V30 2206 C 214.123 1.87256 0.56522 0
M  V30 2207 C 214.503 1.03726 1.83859 0
M  V30 2208 O 213.851 0.120247 2.28183 0
M  V30 2209 C 214.061 3.3865 0.843636 0
M  V30 2210 C 215.409 4.07574 1.19032 0
M  V30 2211 O 216.433 3.43752 0.933429 0
M  V30 2212 O 215.292 5.20259 1.67312 0
M  V30 2213 H 212.386 0.775678 0.286796 0
M  V30 2214 H 214.932 1.68855 -0.169168 0
M  V30 2215 H 213.704 3.91257 -0.0581149 0
M  V30 2216 H 213.327 3.62532 1.63268 0
M  V30 2217 N 214.325 -0.140222 1.56975 0
M  V30 2218 C 215.273 -1.19207 1.99731 0
M  V30 2219 C 216.267 -1.44089 0.890777 0
M  V30 2220 O 217.473 -1.44301 1.07597 0
M  V30 2221 H 213.848 -0.40142 0.635898 0
M  V30 2222 H 215.819 -0.804813 2.87342 0
M  V30 2223 C 214.568 -2.51617 2.39967 0
M  V30 2224 H 213.891 -2.33303 3.24669 0
M  V30 2225 H 215.331 -3.23827 2.73701 0
M  V30 2226 C 213.79 -3.12654 1.25496 0
M  V30 2227 O 214.32 -3.97786 0.559371 0
M  V30 2228 N 212.526 -2.72206 1.01746 0
M  V30 2229 H 212.073 -2.03074 1.58489 0
M  V30 2230 H 212.031 -3.13377 0.253461 0
M  V30 2231 N 215.803 -1.52179 -0.40978 0
M  V30 2232 C 217.049 -1.66453 -1.15851 0
M  V30 2233 C 217.382 -0.392972 -1.90182 0
M  V30 2234 O 216.657 0.608579 -1.84734 0
M  V30 2235 C 216.94 -2.88612 -2.15349 0
M  V30 2236 C 216.793 -4.25815 -1.44918 0
M  V30 2237 C 218.112 -3.06294 -3.16026 0
M  V30 2238 H 215.231 -0.60575 -0.419805 0
M  V30 2239 H 217.873 -1.84732 -0.444314 0
M  V30 2240 H 216.023 -2.73158 -2.76255 0
M  V30 2241 H 217.695 -4.52995 -0.871365 0
M  V30 2242 H 215.938 -4.27247 -0.751159 0
M  V30 2243 H 216.609 -5.07337 -2.17516 0
M  V30 2244 H 219.085 -3.20641 -2.65195 0
M  V30 2245 H 217.961 -3.93283 -3.8291 0
M  V30 2246 H 218.222 -2.19579 -3.83715 0
M  V30 2247 N 217.281 0.66697 -1.42791 0
M  V30 2248 C 218.509 1.45505 -1.47091 0
M  V30 2249 C 218.924 1.8861 -0.0845873 0
M  V30 2250 O 218.281 1.58632 0.90234 0
M  V30 2251 C 218.332 2.69906 -2.40485 0
M  V30 2252 O 218.053 2.28608 -3.73725 0
M  V30 2253 C 219.554 3.63396 -2.53886 0
M  V30 2254 H 216.774 0.447459 -0.500022 0
M  V30 2255 H 219.318 0.818866 -1.8739 0
M  V30 2256 H 217.473 3.29696 -2.03419 0
M  V30 2257 H 217.887 3.08997 -4.23817 0
M  V30 2258 H 219.361 4.47387 -3.2334 0
M  V30 2259 H 219.838 4.09824 -1.57927 0
M  V30 2260 H 220.444 3.09495 -2.91706 0
M  V30 2261 N 218.759 1.29093 0.90403 0
M  V30 2262 C 220.006 1.16813 1.65411 0
M  V30 2263 C 220.334 -0.28128 1.92455 0
M  V30 2264 O 219.589 -1.22006 1.53013 0
M  V30 2265 C 219.888 1.92224 3.01305 0
M  V30 2266 C 219.554 3.41968 2.93885 0
M  V30 2267 C 218.216 3.82807 2.91569 0
M  V30 2268 C 220.568 4.37409 2.83413 0
M  V30 2269 C 217.896 5.1741 2.76594 0
M  V30 2270 C 220.248 5.72097 2.69977 0
M  V30 2271 C 218.912 6.12199 2.66024 0
M  V30 2272 H 218.182 0.42745 0.605283 0
M  V30 2273 H 220.829 1.59981 1.05254 0
M  V30 2274 H 219.134 1.41635 3.65304 0
M  V30 2275 H 220.831 1.80131 3.58265 0
M  V30 2276 H 217.421 3.09504 2.96488 0
M  V30 2277 H 221.605 4.06813 2.84283 0
M  V30 2278 H 216.861 5.47596 2.71935 0
M  V30 2279 H 221.035 6.45704 2.60844 0
M  V30 2280 H 218.662 7.16448 2.54178 0
M  V30 2281 N 220.237 -1.11381 1.11499 0
M  V30 2282 C 221.147 -2.21019 0.786628 0
M  V30 2283 C 222.163 -1.72597 -0.220507 0
M  V30 2284 O 223.339 -2.01321 -0.0565251 0
M  V30 2285 C 220.404 -3.459 0.235333 0
M  V30 2286 C 219.465 -4.09107 1.30115 0
M  V30 2287 C 218.698 -5.28027 0.776068 0
M  V30 2288 O 218.921 -5.6904 -0.393661 0
M  V30 2289 O 217.855 -5.81835 1.54114 0
M  V30 2290 H 221.681 -2.51521 1.70209 0
M  V30 2291 H 219.266 -1.19928 0.890928 0
M  V30 2292 H 221.148 -4.21346 -0.067715 0
M  V30 2293 H 219.823 -3.17049 -0.652828 0
M  V30 2294 H 218.73 -3.35391 1.65722 0
M  V30 2295 H 220.063 -4.42139 2.16273 0
M  V30 2296 N 221.715 -0.905404 -1.28997 0
M  V30 2297 C 222.625 -0.392246 -2.31298 0
M  V30 2298 C 223.641 0.515889 -1.66176 0
M  V30 2299 O 224.817 0.404093 -1.97304 0
M  V30 2300 C 221.882 0.36686 -3.44754 0
M  V30 2301 C 220.943 -0.573485 -4.25452 0
M  V30 2302 C 220.176 0.149488 -5.33491 0
M  V30 2303 O 220.399 1.37255 -5.5364 0
M  V30 2304 O 219.333 -0.510919 -5.99728 0
M  V30 2305 H 223.159 -1.2411 -2.77183 0
M  V30 2306 H 220.744 -0.669926 -1.33538 0
M  V30 2307 H 222.626 0.795907 -4.13816 0
M  V30 2308 H 221.301 1.19169 -3.00966 0
M  V30 2309 H 220.208 -1.05176 -3.59011 0
M  V30 2310 H 221.541 -1.36489 -4.72897 0
M  V30 2311 N 223.193 1.4272 -0.668489 0
M  V30 2312 C 224.441 2.01226 -0.187769 0
M  V30 2313 C 224.762 1.53092 1.2078 0
M  V30 2314 O 224.032 0.74993 1.80977 0
M  V30 2315 H 222.612 0.744041 -0.0664272 0
M  V30 2316 H 225.274 1.74723 -0.863583 0
M  V30 2317 H 224.37 3.11556 -0.184166 0
M  V30 2318 N 224.671 0.411399 1.52136 0
M  V30 2319 C 225.634 -0.401089 2.25663 0
M  V30 2320 C 226.634 -0.971732 1.28117 0
M  V30 2321 O 227.824 -0.850254 1.52041 0
M  V30 2322 C 224.956 -1.56483 3.02863 0
M  V30 2323 H 226.149 0.24295 2.98914 0
M  V30 2324 H 223.702 0.163968 1.55438 0
M  V30 2325 H 224.437 -2.24567 2.33967 0
M  V30 2326 H 224.222 -1.16211 3.74483 0
M  V30 2327 H 225.712 -2.13951 3.58629 0
M  V30 2328 N 226.149 -1.5696 0.141893 0
M  V30 2329 C 227.079 -2.19516 -0.795936 0
M  V30 2330 C 228.06 -1.14187 -1.26077 0
M  V30 2331 O 229.245 -1.42511 -1.31925 0
M  V30 2332 C 226.375 -2.81272 -2.03723 0
M  V30 2333 C 225.329 -3.92384 -1.70936 0
M  V30 2334 C 224.655 -4.41052 -3.02287 0
M  V30 2335 C 225.955 -5.13403 -0.959954 0
M  V30 2336 H 227.649 -2.98138 -0.274596 0
M  V30 2337 H 225.195 -1.43406 -0.130636 0
M  V30 2338 H 227.148 -3.237 -2.69808 0
M  V30 2339 H 225.872 -1.99973 -2.58221 0
M  V30 2340 H 224.531 -3.50566 -1.07232 0
M  V30 2341 H 224.179 -3.56582 -3.54765 0
M  V30 2342 H 223.879 -5.15993 -2.81114 0
M  V30 2343 H 225.403 -4.86146 -3.69451 0
M  V30 2344 H 226.817 -5.52706 -1.52279 0
M  V30 2345 H 225.214 -5.94073 -0.848357 0
M  V30 2346 H 226.284 -4.84875 0.0492434 0
M  V30 2347 N 227.627 0.131896 -1.57047 0
M  V30 2348 C 228.876 0.84044 -1.83356 0
M  V30 2349 C 229.189 1.81646 -0.725535 0
M  V30 2350 O 230.395 2.57025 -0.874659 0
M  V30 2351 C 228.851 1.54528 -3.25037 0
M  V30 2352 C 228.459 0.610902 -4.43815 0
M  V30 2353 C 230.203 2.23972 -3.60606 0
M  V30 2354 C 228.11 1.31823 -5.76521 0
M  V30 2355 H 227.04 0.317599 -0.683847 0
M  V30 2356 H 229.691 0.0931561 -1.83263 0
M  V30 2357 H 228.073 2.33873 -3.19561 0
M  V30 2358 H 229.247 -0.148407 -4.60561 0
M  V30 2359 H 227.562 0.0241016 -4.16393 0
M  V30 2360 H 230.159 2.77558 -4.57018 0
M  V30 2361 H 230.502 3.01173 -2.87403 0
M  V30 2362 H 231.035 1.51529 -3.6781 0
M  V30 2363 H 227.774 0.587771 -6.52859 0
M  V30 2364 H 227.294 2.04987 -5.63685 0
M  V30 2365 H 228.973 1.855 -6.19838 0
M  V30 2366 N 229.106 1.52395 0.401703 0
M  V30 2367 C 230.016 1.7917 1.51444 0
M  V30 2368 C 231.032 0.677691 1.6026 0
M  V30 2369 O 232.208 0.963909 1.76835 0
M  V30 2370 C 229.273 1.94347 2.87107 0
M  V30 2371 C 228.334 3.18257 2.88116 0
M  V30 2372 C 227.567 3.32701 4.17308 0
M  V30 2373 O 227.79 2.52238 5.11598 0
M  V30 2374 O 226.724 4.25891 4.25324 0
M  V30 2375 H 230.55 2.73633 1.31752 0
M  V30 2376 H 228.135 1.3733 0.588296 0
M  V30 2377 H 230.017 2.06109 3.67555 0
M  V30 2378 H 228.692 1.03073 3.06851 0
M  V30 2379 H 227.599 3.11947 2.06494 0
M  V30 2380 H 228.932 4.09336 2.73322 0
M  V30 2381 N 230.584 -0.659388 1.43143 0
M  V30 2382 C 231.995 -1.24041 1.39537 0
M  V30 2383 C 232.346 -1.95963 0.0963364 0
M  V30 2384 O 231.471 -2.00892 -0.804438 0
M  V30 2385 C 232.066 -2.25601 2.52764 0
M  V30 2386 C 230.625 -2.79195 2.52443 0
M  V30 2387 C 229.772 -1.53743 2.30778 0
M  V30 2388 H 232.723 -0.451792 1.52133 0
M  V30 2389 H 232.744 -3.07651 2.23899 0
M  V30 2390 H 232.256 -1.73226 3.47296 0
M  V30 2391 H 230.357 -3.35649 1.61773 0
M  V30 2392 H 230.47 -3.2716 3.50004 0
M  V30 2393 H 228.834 -1.80869 1.79328 0
M  V30 2394 H 229.617 -1.03312 3.27386 0
M  V30 2395 N 232.062 -1.29571 -0.897171 0
M  V30 2396 C 232.992 -1.17473 -2.01798 0
M  V30 2397 C 233.973 -0.068323 -1.69963 0
M  V30 2398 O 235.158 -0.248239 -1.92607 0
M  V30 2399 C 232.288 -0.853099 -3.36659 0
M  V30 2400 C 231.242 -1.9161 -3.82713 0
M  V30 2401 C 230.568 -1.44773 -5.14728 0
M  V30 2402 C 231.868 -3.32535 -4.02763 0
M  V30 2403 H 233.562 -2.11237 -2.12177 0
M  V30 2404 H 231.108 -1.01699 -1.01948 0
M  V30 2405 H 233.061 -0.755165 -4.14578 0
M  V30 2406 H 231.785 0.120236 -3.26379 0
M  V30 2407 H 230.444 -2.00346 -3.07013 0
M  V30 2408 H 230.092 -0.462995 -5.00865 0
M  V30 2409 H 229.792 -2.15865 -5.46513 0
M  V30 2410 H 231.316 -1.36334 -5.95185 0
M  V30 2411 H 232.73 -3.26626 -4.71156 0
M  V30 2412 H 231.127 -4.01607 -4.45905 0
M  V30 2413 H 232.197 -3.75326 -3.07016 0
M  V30 2414 N 233.54 1.10788 -1.12088 0
M  V30 2415 C 234.765 1.87002 -0.896949 0
M  V30 2416 C 235.19 1.79933 0.548261 0
M  V30 2417 O 234.548 1.16662 1.38779 0
M  V30 2418 C 234.596 3.3349 -1.37174 0
M  V30 2419 O 233.7 4.08745 -0.547831 0
M  V30 2420 H 233.041 0.580397 -0.322545 0
M  V30 2421 H 235.571 1.39996 -1.49206 0
M  V30 2422 H 235.581 3.84339 -1.36922 0
M  V30 2423 H 234.256 3.37951 -2.42408 0
M  V30 2424 H 232.833 3.6776 -0.617034 0
M  V30 2425 N 235.018 0.912232 1.28515 0
M  V30 2426 C 236.264 0.545405 1.95328 0
M  V30 2427 C 236.597 -0.908313 1.71649 0
M  V30 2428 O 235.872 -1.64575 1.03659 0
M  V30 2429 C 236.155 0.853483 3.4984 0
M  V30 2430 C 236.008 2.35982 3.82926 0
M  V30 2431 C 237.327 0.348589 4.38717 0
M  V30 2432 H 234.446 0.199626 0.709449 0
M  V30 2433 H 237.088 1.1412 1.5191 0
M  V30 2434 H 235.238 0.34643 3.86952 0
M  V30 2435 H 236.91 2.93738 3.55691 0
M  V30 2436 H 235.153 2.81543 3.30024 0
M  V30 2437 H 235.824 2.52593 4.90816 0
M  V30 2438 H 238.3 0.78294 4.08668 0
M  V30 2439 H 237.176 0.593242 5.45685 0
M  V30 2440 H 237.437 -0.751049 4.35674 0
M  V30 2441 N 236.496 -1.42363 0.676048 0
M  V30 2442 C 237.744 -2.01123 0.198437 0
M  V30 2443 C 238.065 -1.53731 -1.19966 0
M  V30 2444 O 237.335 -0.759518 -1.80577 0
M  V30 2445 H 235.915 -0.743678 0.0703721 0
M  V30 2446 H 238.577 -1.74263 0.872837 0
M  V30 2447 H 237.673 -3.11454 0.200686 0
M  V30 2448 N 237.974 -0.419461 -1.51915 0
M  V30 2449 C 239.223 0.154346 -2.01109 0
M  V30 2450 C 239.536 1.45338 -1.30905 0
M  V30 2451 O 240.742 2.10906 -1.7097 0
M  V30 2452 C 239.198 0.325615 -3.58424 0
M  V30 2453 C 238.806 -0.961934 -4.37551 0
M  V30 2454 C 240.55 0.854155 -4.15818 0
M  V30 2455 C 238.457 -0.757287 -5.86531 0
M  V30 2456 H 237.387 0.0614563 -0.751491 0
M  V30 2457 H 240.038 -0.54649 -1.75173 0
M  V30 2458 H 238.42 1.08903 -3.80731 0
M  V30 2459 H 239.594 -1.7323 -4.26999 0
M  V30 2460 H 237.909 -1.41766 -3.91524 0
M  V30 2461 H 240.506 1.02346 -5.24814 0
M  V30 2462 H 240.849 1.83172 -3.73837 0
M  V30 2463 H 241.382 0.149528 -3.97519 0
M  V30 2464 H 238.121 -1.70671 -6.32892 0
M  V30 2465 H 237.641 -0.0264061 -5.99794 0
M  V30 2466 H 239.32 -0.403482 -6.45741 0
M  V30 2467 N 239.452 1.56882 -0.150215 0
M  V30 2468 C 240.402 2.13501 0.800071 0
M  V30 2469 C 241.386 1.06368 1.20726 0
M  V30 2470 O 242.578 1.32538 1.17314 0
M  V30 2471 C 239.707 2.76271 2.03787 0
M  V30 2472 C 238.793 3.90533 1.65364 0
M  V30 2473 N 239.184 4.96259 0.977794 0
M  V30 2474 C 237.482 4.013 1.94613 0
M  V30 2475 C 238.183 5.76286 0.791794 0
M  V30 2476 N 237.159 5.27163 1.32666 0
M  V30 2477 H 240.961 2.92615 0.274517 0
M  V30 2478 H 238.475 1.62319 0.0512144 0
M  V30 2479 H 240.472 3.15197 2.72867 0
M  V30 2480 H 239.132 1.98631 2.56857 0
M  V30 2481 H 240.143 5.13953 0.638193 0
M  V30 2482 H 236.82 3.3474 2.4951 0
M  V30 2483 H 238.21 6.71401 0.258894 0
M  V30 2484 N 240.93 -0.123565 1.57115 0
M  V30 2485 C 241.893 -1.13583 1.99076 0
M  V30 2486 C 242.893 -1.34564 0.880296 0
M  V30 2487 O 244.083 -1.31158 1.14644 0
M  V30 2488 C 241.215 -2.49128 2.32698 0
M  V30 2489 H 242.408 -0.775287 2.89706 0
M  V30 2490 H 239.961 -0.36771 1.51913 0
M  V30 2491 H 240.696 -2.90111 1.44934 0
M  V30 2492 H 240.481 -2.35255 3.13684 0
M  V30 2493 H 241.971 -3.2199 2.65918 0
M  V30 2494 N 242.408 -1.52605 -0.393616 0
M  V30 2495 C 243.648 -1.6911 -1.1481 0
M  V30 2496 C 244.012 -0.41969 -1.87357 0
M  V30 2497 O 245.213 -0.461034 -2.64817 0
M  V30 2498 C 243.484 -2.88909 -2.10395 0
M  V30 2499 S 245.043 -3.25977 -2.93742 0
M  V30 2500 H 241.861 -0.595337 -0.38871 0
M  V30 2501 H 244.463 -1.90641 -0.433178 0
M  V30 2502 H 243.167 -3.79672 -1.55812 0
M  V30 2503 H 242.698 -2.69698 -2.86403 0
M  V30 2504 H 244.713 -2.75806 -4.12487 0
M  V30 2505 N 243.887 0.651787 -1.4349 0
M  V30 2506 C 245.303 0.96762 -1.26922 0
M  V30 2507 C 245.503 2.00602 -0.189982 0
M  V30 2508 O 244.559 2.48793 0.431107 0
M  V30 2509 C 245.872 1.45052 -2.63401 0
M  V30 2510 C 247.42 1.5671 -2.70945 0
M  V30 2511 C 247.895 2.0839 -4.07845 0
M  V30 2512 N 249.386 2.1569 -4.09917 0
M  V30 2513 C 250.121 2.56804 -5.12679 0
M  V30 2514 N 249.617 2.97203 -6.25813 0
M  V30 2515 N 251.41 2.56756 -5.00033 0
M  V30 2516 H 243.561 -0.0353158 -2.12371 0
M  V30 2517 H 245.824 0.0467858 -0.946845 0
M  V30 2518 H 245.53 0.761926 -3.43348 0
M  V30 2519 H 245.404 2.42529 -2.88894 0
M  V30 2520 H 247.791 2.2467 -1.9133 0
M  V30 2521 H 247.872 0.57662 -2.49216 0
M  V30 2522 H 247.516 1.41031 -4.87927 0
M  V30 2523 H 247.446 3.08271 -4.26938 0
M  V30 2524 H 249.937 1.87237 -3.28254 0
M  V30 2525 H 250.25 3.27328 -7.00055 0
M  V30 2526 H 248.595 2.95004 -6.29283 0
M  V30 2527 H 251.786 2.24572 -4.10713 0
M  V30 2528 H 251.959 2.88475 -5.80247 0
M  V30 2529 N 245.365 1.30045 0.890287 0
M  V30 2530 C 246.781 1.08261 1.17268 0
M  V30 2531 C 246.981 -0.160063 2.00863 0
M  V30 2532 O 246.037 -0.855181 2.37577 0
M  V30 2533 C 247.35 2.34323 1.8845 0
M  V30 2534 C 248.898 2.39735 2.01237 0
M  V30 2535 C 249.373 3.65625 2.7583 0
M  V30 2536 N 250.864 3.66402 2.83379 0
M  V30 2537 C 251.599 4.60498 3.41657 0
M  V30 2538 N 251.095 5.64933 4.01026 0
M  V30 2539 N 252.888 4.48051 3.39421 0
M  V30 2540 H 245.039 2.09777 0.332762 0
M  V30 2541 H 247.302 0.92446 0.209948 0
M  V30 2542 H 247.008 3.2498 1.34465 0
M  V30 2543 H 246.882 2.4256 2.88867 0
M  V30 2544 H 249.269 1.4956 2.54393 0
M  V30 2545 H 249.35 2.35476 0.999232 0
M  V30 2546 H 248.994 4.56156 2.23347 0
M  V30 2547 H 248.924 3.67144 3.77509 0
M  V30 2548 H 251.415 2.90896 2.41222 0
M  V30 2549 H 251.728 6.32841 4.43545 0
M  V30 2550 H 250.073 5.68732 3.99461 0
M  V30 2551 H 253.264 3.65649 2.92264 0
M  V30 2552 H 253.437 5.21565 3.84544 0
M  V30 2553 N 246.843 -1.10192 1.12674 0
M  V30 2554 C 248.091 -1.81845 0.881861 0
M  V30 2555 C 248.412 -1.85737 -0.593867 0
M  V30 2556 O 247.682 -1.33724 -1.4316 0
M  V30 2557 H 246.262 -0.673432 0.323261 0
M  V30 2558 H 248.924 -1.33316 1.42172 0
M  V30 2559 H 248.02 -2.85288 1.2656 0
M  V30 2560 N 248.321 -0.919034 -1.28029 0
M  V30 2561 C 249.569 -0.553838 -1.94363 0
M  V30 2562 C 249.89 0.906357 -1.72656 0
M  V30 2563 O 249.16 1.64143 -1.0693 0
M  V30 2564 H 247.74 -0.201834 -0.719216 0
M  V30 2565 H 250.402 -1.16954 -1.55909 0
M  V30 2566 H 249.498 -0.752758 -3.02886 0
M  V30 2567 N 249.799 1.42003 -0.683588 0
M  V30 2568 C 251.045 2.01712 -0.209825 0
M  V30 2569 C 251.378 1.53968 1.18353 0
M  V30 2570 O 250.653 0.745661 1.79639 0
M  V30 2571 C 250.936 3.59202 -0.254197 0
M  V30 2572 C 250.789 4.17102 -1.68363 0
M  V30 2573 C 252.108 4.38344 0.392709 0
M  V30 2574 H 249.227 0.732891 -0.0777189 0
M  V30 2575 H 251.869 1.68909 -0.87004 0
M  V30 2576 H 250.019 3.87278 0.307954 0
M  V30 2577 H 251.691 3.99946 -2.29871 0
M  V30 2578 H 249.934 3.72597 -2.22157 0
M  V30 2579 H 250.605 5.26249 -1.6663 0
M  V30 2580 H 253.081 4.16011 -0.0859162 0
M  V30 2581 H 251.957 5.47901 0.331063 0
M  V30 2582 H 252.218 4.16887 1.47164 0
M  V30 2583 N 251.277 0.427512 1.51691 0
M  V30 2584 C 252.505 -0.141191 2.06418 0
M  V30 2585 C 252.92 -1.37303 1.29589 0
M  V30 2586 O 252.277 -1.79059 0.352732 0
M  V30 2587 C 252.328 -0.473266 3.58389 0
M  V30 2588 O 252.049 0.709673 4.32314 0
M  V30 2589 C 253.55 -1.09371 4.29596 0
M  V30 2590 H 250.77 -0.0122747 0.670888 0
M  V30 2591 H 253.314 0.603764 1.95384 0
M  V30 2592 H 251.469 -1.16812 3.69369 0
M  V30 2593 H 251.883 0.42807 5.2275 0
M  V30 2594 H 253.357 -1.27613 5.37046 0
M  V30 2595 H 253.834 -2.072 3.87253 0
M  V30 2596 H 254.44 -0.43853 4.23033 0
M  V30 2597 N 252.755 -1.56801 0.158532 0
M  V30 2598 C 253.685 -2.20347 -0.772609 0
M  V30 2599 C 254.666 -1.15518 -1.24859 0
M  V30 2600 O 255.851 -1.43902 -1.30406 0
M  V30 2601 C 252.981 -2.83417 -2.00729 0
M  V30 2602 C 251.935 -3.94174 -1.66765 0
M  V30 2603 C 251.261 -4.44233 -2.97592 0
M  V30 2604 C 252.561 -5.14392 -0.905447 0
M  V30 2605 H 254.255 -2.98413 -0.242959 0
M  V30 2606 H 251.801 -1.43537 -0.115419 0
M  V30 2607 H 253.754 -3.26543 -2.6636 0
M  V30 2608 H 252.478 -2.02701 -2.56086 0
M  V30 2609 H 251.137 -3.51684 -1.03508 0
M  V30 2610 H 250.785 -3.60325 -3.50963 0
M  V30 2611 H 250.485 -5.18945 -2.75626 0
M  V30 2612 H 252.009 -4.90037 -3.64274 0
M  V30 2613 H 253.423 -5.5429 -1.46408 0
M  V30 2614 H 251.82 -5.9494 -0.7853 0
M  V30 2615 H 252.89 -4.84795 0.100668 0
M  V30 2616 N 254.233 0.115231 -1.57178 0
M  V30 2617 C 255.481 0.820727 -1.84685 0
M  V30 2618 C 255.802 1.80237 -0.744279 0
M  V30 2619 O 255.072 1.94529 0.231375 0
M  V30 2620 H 253.652 0.306084 -0.681411 0
M  V30 2621 H 256.314 0.101656 -1.94635 0
M  V30 2622 H 255.41 1.36366 -2.80733 0
M  V30 2623 N 255.711 1.52812 0.385517 0
M  V30 2624 C 256.661 1.74219 1.47078 0
M  V30 2625 C 257.645 0.59632 1.49442 0
M  V30 2626 O 258.837 0.85428 1.5502 0
M  V30 2627 C 255.966 1.9176 2.84751 0
M  V30 2628 C 255.052 3.12289 2.86943 0
M  V30 2629 N 255.443 4.34575 2.58802 0
M  V30 2630 C 253.741 3.12605 3.1811 0
M  V30 2631 C 254.442 5.162 2.68166 0
M  V30 2632 N 253.418 4.51964 3.02043 0
M  V30 2633 H 257.22 2.6639 1.24152 0
M  V30 2634 H 254.734 1.51166 0.593504 0
M  V30 2635 H 256.731 2.05218 3.62893 0
M  V30 2636 H 255.391 1.00805 3.08656 0
M  V30 2637 H 256.402 4.62649 2.32759 0
M  V30 2638 H 253.079 2.31472 3.47458 0
M  V30 2639 H 254.469 6.23689 2.49923 0
M  V30 2640 N 257.189 -0.644168 1.43834 0
M  V30 2641 C 258.136 -1.75671 1.49694 0
M  V30 2642 C 259.106 -1.6246 0.345809 0
M  V30 2643 O 260.291 -1.82573 0.554234 0
M  V30 2644 C 257.431 -3.13867 1.43463 0
M  V30 2645 C 256.544 -3.38147 2.6885 0
M  V30 2646 C 255.679 -4.66241 2.54544 0
M  V30 2647 C 254.718 -4.83657 3.75157 0
M  V30 2648 N 253.855 -6.03016 3.59605 0
M  V30 2649 H 258.695 -1.69998 2.44754 0
M  V30 2650 H 256.232 -0.829458 1.21484 0
M  V30 2651 H 258.19 -3.9377 1.37843 0
M  V30 2652 H 256.82 -3.18588 0.519783 0
M  V30 2653 H 255.872 -2.52276 2.84712 0
M  V30 2654 H 257.184 -3.46899 3.58417 0
M  V30 2655 H 256.338 -5.54285 2.46683 0
M  V30 2656 H 255.077 -4.59826 1.62516 0
M  V30 2657 H 254.082 -3.94046 3.83416 0
M  V30 2658 H 255.307 -4.91896 4.68204 0
M  V30 2659 H 253.253 -5.97715 2.7032 0
M  V30 2660 H 253.17 -6.12766 4.42779 0
M  V30 2661 H 254.438 -6.93657 3.55613 0
M  V30 2662 N 258.668 -1.30515 -0.883378 0
M  V30 2663 C 259.914 -1.19607 -1.63774 0
M  V30 2664 C 260.247 0.248314 -1.92606 0
M  V30 2665 O 259.522 1.17742 -1.54813 0
M  V30 2666 C 259.805 -2.02669 -2.97653 0
M  V30 2667 C 259.658 -3.55335 -2.75784 0
M  V30 2668 C 260.977 -1.86573 -3.98596 0
M  V30 2669 H 258.096 -0.435856 -0.594305 0
M  V30 2670 H 260.738 -1.60165 -1.02212 0
M  V30 2671 H 258.888 -1.68208 -3.50197 0
M  V30 2672 H 260.56 -3.99863 -2.30016 0
M  V30 2673 H 258.803 -3.79438 -2.1026 0
M  V30 2674 H 259.474 -4.08745 -3.70988 0
M  V30 2675 H 261.95 -2.16703 -3.55217 0
M  V30 2676 H 260.826 -2.47014 -4.90179 0
M  V30 2677 H 261.087 -0.825321 -4.34328 0
M  V30 2678 N 260.146 1.09593 -1.13257 0
M  V30 2679 C 261.076 2.18214 -0.830946 0
M  V30 2680 C 262.057 1.68812 0.208966 0
M  V30 2681 O 263.242 1.9408 0.0682666 0
M  V30 2682 C 260.372 3.46051 -0.294296 0
M  V30 2683 C 259.326 4.08778 -1.26826 0
M  V30 2684 C 258.652 5.31419 -0.591449 0
M  V30 2685 C 259.952 4.51476 -2.62615 0
M  V30 2686 H 261.646 2.43703 -1.73923 0
M  V30 2687 H 259.192 1.17128 -0.837675 0
M  V30 2688 H 261.145 4.2134 -0.0709606 0
M  V30 2689 H 259.869 3.20079 0.649366 0
M  V30 2690 H 258.528 3.35505 -1.47756 0
M  V30 2691 H 258.176 5.01727 0.357633 0
M  V30 2692 H 257.876 5.74341 -1.24123 0
M  V30 2693 H 259.4 6.09433 -0.377355 0
M  V30 2694 H 260.814 5.17999 -2.45663 0
M  V30 2695 H 259.211 5.05277 -3.23752 0
M  V30 2696 H 260.281 3.63962 -3.20406 0
M  V30 2697 N 261.624 0.925811 1.2754 0
M  V30 2698 C 262.87 0.566092 1.94739 0
M  V30 2699 C 263.203 -0.890057 1.72603 0
M  V30 2700 O 262.478 -1.63467 1.05399 0
M  V30 2701 C 262.761 0.89054 3.48915 0
M  V30 2702 C 262.614 2.4003 3.80402 0
M  V30 2703 C 263.933 0.395101 4.38323 0
M  V30 2704 H 261.052 0.20714 0.707292 0
M  V30 2705 H 263.694 1.15725 1.50691 0
M  V30 2706 H 261.844 0.387452 3.86563 0
M  V30 2707 H 263.516 2.97494 3.52555 0
M  V30 2708 H 261.759 2.85028 3.2702 0
M  V30 2709 H 262.43 2.57785 4.8811 0
M  V30 2710 H 264.906 0.826241 4.07814 0
M  V30 2711 H 263.782 0.651086 5.45025 0
M  V30 2712 H 264.043 -0.704798 4.36446 0
M  V30 2713 N 263.102 -1.41638 0.69111 0
M  V30 2714 C 264.342 -2.03166 0.224291 0
M  V30 2715 C 264.706 -1.53537 -1.15284 0
M  V30 2716 O 265.907 -2.0696 -1.71525 0
M  V30 2717 C 264.178 -3.56342 0.274758 0
M  V30 2718 S 265.737 -4.3864 -0.118669 0
M  V30 2719 H 262.555 -0.705188 0.0907263 0
M  V30 2720 H 265.157 -1.7314 0.907895 0
M  V30 2721 H 263.861 -3.89958 1.2791 0
M  V30 2722 H 263.392 -3.91063 -0.428142 0
M  V30 2723 H 265.407 -4.77549 -1.34764 0
M  V30 2724 N 264.58 -0.43555 -1.51462 0
M  V30 2725 C 265.828 0.131254 -2.01673 0
M  V30 2726 C 266.149 1.43368 -1.32177 0
M  V30 2727 O 265.419 1.90524 -0.455769 0
M  V30 2728 H 263.999 0.0514954 -0.745223 0
M  V30 2729 H 266.661 -0.577847 -1.86137 0
M  V30 2730 H 265.757 0.308446 -3.10572 0
M  V30 2731 N 266.058 1.56714 -0.166846 0
M  V30 2732 C 267.021 2.16539 0.751232 0
M  V30 2733 C 268.021 1.11228 1.16125 0
M  V30 2734 O 269.211 1.36765 1.07894 0
M  V30 2735 C 266.343 2.74462 2.02196 0
M  V30 2736 H 267.536 2.99013 0.230499 0
M  V30 2737 H 265.089 1.56081 0.0826982 0
M  V30 2738 H 265.824 1.95709 2.58589 0
M  V30 2739 H 265.609 3.51527 1.73698 0
M  V30 2740 H 267.099 3.20489 2.67725 0
M  V30 2741 N 267.536 -0.106894 1.57237 0
M  V30 2742 C 268.784 -0.810921 1.85117 0
M  V30 2743 C 269.105 -1.7984 0.753827 0
M  V30 2744 O 268.375 -1.94649 -0.221056 0
M  V30 2745 H 266.955 -0.302466 0.683025 0
M  V30 2746 H 269.617 -0.0913324 1.94686 0
M  V30 2747 H 268.713 -1.34875 2.81452 0
M  V30 2748 N 269.014 -1.53014 -0.377408 0
M  V30 2749 C 270.425 -1.60438 -0.954798 0
M  V30 2750 C 270.776 -0.464418 -1.90624 0
M  V30 2751 O 269.901 0.41087 -2.12464 0
M  V30 2752 C 270.496 -2.90797 -1.73847 0
M  V30 2753 C 269.055 -3.00595 -2.26538 0
M  V30 2754 C 268.202 -2.55645 -1.07429 0
M  V30 2755 H 271.153 -1.57926 -0.156575 0
M  V30 2756 H 271.174 -2.77935 -2.5987 0
M  V30 2757 H 270.686 -3.73746 -1.04574 0
M  V30 2758 H 268.787 -2.22208 -2.99089 0
M  V30 2759 H 268.9 -4.05456 -2.5523 0
M  V30 2760 H 267.264 -2.10239 -1.43777 0
M  V30 2761 H 268.047 -3.41 -0.396728 0
M  V30 2762 N 270.492 0.636531 -1.44174 0
M  V30 2763 C 271.741 1.39213 -1.45954 0
M  V30 2764 C 272.054 1.95374 -0.0939119 0
M  V30 2765 O 273.26 2.71498 0.0107767 0
M  V30 2766 C 271.716 2.52025 -2.56927 0
M  V30 2767 C 271.324 2.024 -3.99673 0
M  V30 2768 C 273.068 3.29269 -2.67922 0
M  V30 2769 C 270.975 3.12521 -5.0208 0
M  V30 2770 H 269.905 0.523132 -0.542999 0
M  V30 2771 H 272.556 0.685349 -1.70221 0
M  V30 2772 H 270.938 3.25253 -2.25891 0
M  V30 2773 H 272.112 1.36073 -4.40251 0
M  V30 2774 H 270.427 1.37987 -3.92872 0
M  V30 2775 H 273.024 4.11352 -3.41605 0
M  V30 2776 H 273.367 3.78397 -1.73555 0
M  V30 2777 H 273.9 2.63129 -2.98342 0
M  V30 2778 H 270.639 2.68343 -5.98057 0
M  V30 2779 H 270.159 3.77507 -4.66099 0
M  V30 2780 H 271.838 3.77385 -5.25538 0
M  V30 2781 N 271.97 1.30982 0.876444 0
M  V30 2782 C 273.218 1.20058 1.62575 0
M  V30 2783 C 273.539 -0.242947 1.93481 0
M  V30 2784 O 272.809 -1.1619 1.57724 0
M  V30 2785 H 271.389 0.44135 0.602677 0
M  V30 2786 H 274.051 1.64222 1.04962 0
M  V30 2787 H 273.147 1.76762 2.57219 0
M  V30 2788 N 273.449 -1.08991 1.13837 0
M  V30 2789 C 274.382 -2.15049 0.763477 0
M  V30 2790 C 275.36 -1.60629 -0.252398 0
M  V30 2791 O 276.544 -1.87958 -0.142853 0
M  V30 2792 C 273.671 -3.38441 0.132545 0
M  V30 2793 C 272.717 -4.11596 1.11763 0
M  V30 2794 S 273.55 -4.6521 2.65216 0
M  V30 2795 C 274.706 -5.91896 2.03495 0
M  V30 2796 H 274.939 -2.46518 1.66182 0
M  V30 2797 H 272.472 -1.21008 0.958976 0
M  V30 2798 H 274.43 -4.09883 -0.225074 0
M  V30 2799 H 273.091 -3.05182 -0.743135 0
M  V30 2800 H 272.284 -5.00121 0.624076 0
M  V30 2801 H 271.886 -3.46038 1.41894 0
M  V30 2802 H 274.178 -6.63156 1.38675 0
M  V30 2803 H 275.121 -6.45938 2.9012 0
M  V30 2804 H 275.529 -5.44625 1.48471 0
M  V30 2805 N 274.927 -0.932562 -1.27047 0
M  V30 2806 C 276.173 -0.576412 -1.94436 0
M  V30 2807 C 276.506 0.880891 -1.73072 0
M  V30 2808 O 275.781 1.62905 -1.06264 0
M  V30 2809 C 276.064 -0.909031 -3.48437 0
M  V30 2810 C 275.917 -2.42044 -3.79123 0
M  V30 2811 C 277.236 -0.418341 -4.38107 0
M  V30 2812 H 274.355 -0.210888 -0.706184 0
M  V30 2813 H 276.997 -1.16522 -1.50075 0
M  V30 2814 H 275.147 -0.407947 -3.86352 0
M  V30 2815 H 276.819 -2.99359 -3.50973 0
M  V30 2816 H 275.062 -2.86758 -3.25503 0
M  V30 2817 H 275.733 -2.6037 -4.86736 0
M  V30 2818 H 278.209 -0.847856 -4.0737 0
M  V30 2819 H 277.085 -0.679981 -5.44672 0
M  V30 2820 H 277.346 0.681642 -4.36814 0
M  V30 2821 N 276.405 1.4127 -0.698611 0
M  V30 2822 C 277.633 2.05503 -0.239992 0
M  V30 2823 C 278.048 1.52584 1.11191 0
M  V30 2824 O 277.405 0.675323 1.69545 0
M  V30 2825 C 277.456 3.60987 -0.192429 0
M  V30 2826 O 277.177 4.1195 -1.49094 0
M  V30 2827 C 278.678 4.42371 0.28681 0
M  V30 2828 H 275.898 0.661748 -0.111045 0
M  V30 2829 H 278.442 1.80987 -0.95205 0
M  V30 2830 H 276.597 3.84533 0.470472 0
M  V30 2831 H 277.011 5.06018 -1.38007 0
M  V30 2832 H 278.485 5.51344 0.26896 0
M  V30 2833 H 278.962 4.18699 1.32619 0
M  V30 2834 H 279.568 4.23897 -0.345201 0
M  V30 2835 N 277.883 0.443576 1.51229 0
M  V30 2836 C 278.813 -0.355142 2.30783 0
M  V30 2837 C 279.794 -1.0154 1.36468 0
M  V30 2838 O 280.979 -1.01785 1.65389 0
M  V30 2839 C 278.109 -1.45312 3.15439 0
M  V30 2840 C 277.063 -0.916002 4.18083 0
M  V30 2841 C 276.389 -2.1102 4.91299 0
M  V30 2842 C 277.689 0.0538602 5.22272 0
M  V30 2843 H 279.383 0.308767 2.97804 0
M  V30 2844 H 276.929 0.149937 1.43217 0
M  V30 2845 H 278.882 -2.01914 3.69876 0
M  V30 2846 H 277.606 -2.14541 2.46252 0
M  V30 2847 H 276.265 -0.372145 3.64706 0
M  V30 2848 H 275.913 -2.78882 4.18609 0
M  V30 2849 H 275.613 -1.75717 5.60712 0
M  V30 2850 H 277.137 -2.68164 5.48562 0
M  V30 2851 H 278.551 -0.422069 5.71744 0
M  V30 2852 H 276.948 0.319776 5.99247 0
M  V30 2853 H 278.018 0.98858 4.74716 0
M  V30 2854 N 279.361 -1.56624 0.175154 0
M  V30 2855 C 280.291 -2.21155 -0.749195 0
M  V30 2856 C 281.272 -1.16836 -1.23626 0
M  V30 2857 O 282.457 -1.45277 -1.28873 0
M  V30 2858 C 279.587 -2.8553 -1.97711 0
M  V30 2859 C 278.541 -3.95921 -1.62575 0
M  V30 2860 C 277.867 -4.47365 -2.92864 0
M  V30 2861 C 279.167 -5.15323 -0.850838 0
M  V30 2862 H 280.861 -2.98653 -0.211295 0
M  V30 2863 H 278.407 -1.43651 -0.100188 0
M  V30 2864 H 280.36 -3.2935 -2.62881 0
M  V30 2865 H 279.084 -2.05406 -2.53921 0
M  V30 2866 H 277.743 -3.52762 -0.997719 0
M  V30 2867 H 277.391 -3.64027 -3.47122 0
M  V30 2868 H 277.091 -5.21839 -2.70106 0
M  V30 2869 H 278.615 -4.93873 -3.59056 0
M  V30 2870 H 280.029 -5.55812 -1.40521 0
M  V30 2871 H 278.426 -5.95739 -0.722154 0
M  V30 2872 H 279.496 -4.84661 0.152082 0
M  V30 2873 N 280.839 0.0985539 -1.57292 0
M  V30 2874 C 282.085 0.803867 -1.86188 0
M  V30 2875 C 282.418 1.78549 -0.763794 0
M  V30 2876 O 281.693 1.93153 0.22855 0
M  V30 2877 C 281.976 1.53568 -3.25713 0
M  V30 2878 C 281.829 0.572277 -4.46145 0
M  V30 2879 C 283.148 2.48708 -3.63087 0
M  V30 2880 H 280.267 0.290781 -0.677211 0
M  V30 2881 H 282.909 0.0675783 -1.8988 0
M  V30 2882 H 281.059 2.16332 -3.22696 0
M  V30 2883 H 282.731 -0.0480894 -4.61275 0
M  V30 2884 H 280.974 -0.114618 -4.33649 0
M  V30 2885 H 281.645 1.12139 -5.40489 0
M  V30 2886 H 284.121 1.96039 -3.67026 0
M  V30 2887 H 282.997 2.96932 -4.61652 0
M  V30 2888 H 283.258 3.32309 -2.91588 0
M  V30 2889 N 282.317 1.53212 0.369288 0
M  V30 2890 C 283.28 1.7872 1.43498 0
M  V30 2891 C 284.28 0.657554 1.46741 0
M  V30 2892 O 285.47 0.925736 1.47566 0
M  V30 2893 C 282.602 1.90591 2.82645 0
M  V30 2894 H 283.795 2.73894 1.22156 0
M  V30 2895 H 281.348 1.44233 0.602203 0
M  V30 2896 H 282.083 0.974709 3.09306 0
M  V30 2897 H 281.868 2.72751 2.8169 0
M  V30 2898 H 283.358 2.11931 3.59826 0
M  V30 2899 N 283.795 -0.628877 1.44509 0
M  V30 2900 C 284.742 -1.74074 1.51549 0
M  V30 2901 C 285.712 -1.62084 0.363021 0
M  V30 2902 O 286.897 -1.81975 0.573567 0
M  V30 2903 C 284.037 -3.12328 1.46784 0
M  V30 2904 C 283.15 -3.35277 2.72422 0
M  V30 2905 C 282.285 -4.63515 2.59475 0
M  V30 2906 C 281.324 -4.7965 3.80266 0
M  V30 2907 N 280.461 -5.99168 3.65981 0
M  V30 2908 H 285.301 -1.67392 2.46544 0
M  V30 2909 H 282.838 -0.816527 1.22357 0
M  V30 2910 H 284.796 -3.92286 1.42012 0
M  V30 2911 H 283.426 -3.18018 0.553544 0
M  V30 2912 H 282.478 -2.49242 2.87372 0
M  V30 2913 H 283.79 -3.43078 3.62076 0
M  V30 2914 H 282.944 -5.51638 2.52548 0
M  V30 2915 H 281.683 -4.58076 1.67384 0
M  V30 2916 H 280.688 -3.89957 3.87574 0
M  V30 2917 H 281.913 -4.86902 4.73395 0
M  V30 2918 H 279.859 -5.94814 2.76644 0
M  V30 2919 H 279.776 -6.08035 4.49254 0
M  V30 2920 H 281.044 -6.89846 3.6295 0
M  V30 2921 N 285.273 -1.31445 -0.869486 0
M  V30 2922 C 286.236 -1.19094 -1.9583 0
M  V30 2923 C 287.236 -0.117906 -1.60367 0
M  V30 2924 O 288.426 -0.367208 -1.70286 0
M  V30 2925 C 285.558 -0.828165 -3.30688 0
M  V30 2926 H 286.751 -2.15842 -2.08212 0
M  V30 2927 H 284.304 -1.15063 -1.05784 0
M  V30 2928 H 285.039 0.138142 -3.24006 0
M  V30 2929 H 284.824 -1.6038 -3.578 0
M  V30 2930 H 286.314 -0.765658 -4.10521 0
M  V30 2931 N 286.751 1.08385 -1.14413 0
M  V30 2932 C 287.684 2.14642 -0.774871 0
M  V30 2933 C 288.662 1.60761 0.243876 0
M  V30 2934 O 289.846 1.88031 0.132883 0
M  V30 2935 C 286.973 3.38366 -0.150491 0
M  V30 2936 C 286.019 4.10997 -1.13945 0
M  V30 2937 S 286.852 4.63797 -2.67679 0
M  V30 2938 C 288.008 5.90808 -2.06631 0
M  V30 2939 H 288.241 2.45633 -1.67487 0
M  V30 2940 H 285.774 1.20498 -0.96538 0
M  V30 2941 H 287.732 4.09996 0.203334 0
M  V30 2942 H 286.393 3.05572 0.72694 0
M  V30 2943 H 285.586 4.99783 -0.65059 0
M  V30 2944 H 285.188 3.4528 -1.43727 0
M  V30 2945 H 287.48 6.62411 -1.4219 0
M  V30 2946 H 288.423 6.4439 -2.93542 0
M  V30 2947 H 288.831 5.4383 -1.51357 0
M  V30 2948 N 288.23 0.939286 1.26551 0
M  V30 2949 C 289.478 0.58469 1.93457 0
M  V30 2950 C 289.799 -0.878774 1.74076 0
M  V30 2951 O 289.069 -1.62421 1.09528 0
M  V30 2952 H 287.649 0.21325 0.715914 0
M  V30 2953 H 290.311 1.1942 1.54029 0
M  V30 2954 H 289.407 0.800849 3.0165 0
M  V30 2955 N 289.708 -1.40897 0.706093 0
M  V30 2956 C 290.671 -2.29131 0.0562841 0
M  V30 2957 C 291.671 -1.44901 -0.697166 0
M  V30 2958 O 292.861 -1.65926 -0.530484 0
M  V30 2959 C 289.993 -3.27957 -0.93043 0
M  V30 2960 H 291.186 -2.88091 0.833284 0
M  V30 2961 H 288.739 -1.4906 0.470192 0
M  V30 2962 H 289.474 -2.73997 -1.73482 0
M  V30 2963 H 289.259 -3.90124 -0.393166 0
M  V30 2964 H 290.749 -3.94049 -1.38256 0
M  V30 2965 N 291.186 -0.45159 -1.50991 0
M  V30 2966 C 292.149 0.341117 -2.26647 0
M  V30 2967 C 293.149 0.937422 -1.30649 0
M  V30 2968 O 294.339 0.809644 -1.54241 0
M  V30 2969 C 291.471 1.48398 -3.06905 0
M  V30 2970 H 292.664 -0.322117 -2.98165 0
M  V30 2971 H 290.217 -0.205122 -1.54948 0
M  V30 2972 H 290.952 2.18284 -2.39838 0
M  V30 2973 H 290.737 1.06241 -3.77432 0
M  V30 2974 H 292.227 2.04367 -3.64176 0
M  V30 2975 N 292.664 1.56529 -0.183458 0
M  V30 2976 C 293.596 2.15747 0.773697 0
M  V30 2977 C 294.609 1.1162 1.1851 0
M  V30 2978 O 295.798 1.3876 1.12285 0
M  V30 2979 C 292.898 2.6952 2.05456 0
M  V30 2980 C 292.071 3.98429 1.8048 0
M  V30 2981 C 291.13 4.37145 2.92901 0
M  V30 2982 O 290.156 5.04791 2.6301 0
M  V30 2983 N 291.358 3.99695 4.2098 0
M  V30 2984 H 294.123 2.98505 0.26736 0
M  V30 2985 H 291.684 1.619 -0.0010878 0
M  V30 2986 H 293.676 2.92412 2.79781 0
M  V30 2987 H 292.246 1.91282 2.47245 0
M  V30 2988 H 291.466 3.8379 0.899947 0
M  V30 2989 H 292.754 4.82597 1.61175 0
M  V30 2990 H 292.152 3.4526 4.48121 0
M  V30 2991 H 290.709 4.27562 4.9197 0
M  V30 2992 N 294.142 -0.090211 1.57342 0
M  V30 2993 C 295.388 -0.793982 1.86611 0
M  V30 2994 C 295.721 -1.78142 0.773252 0
M  V30 2995 O 294.996 -1.93271 -0.218304 0
M  V30 2996 C 295.279 -1.51839 3.26523 0
M  V30 2997 C 295.132 -0.548609 4.46442 0
M  V30 2998 C 296.451 -2.46779 3.64401 0
M  V30 2999 H 293.57 -0.287186 0.678744 0
M  V30 3000 H 296.212 -0.0575076 1.89913 0
M  V30 3001 H 294.362 -2.14617 3.23839 0
M  V30 3002 H 296.034 0.0725513 4.61243 0
M  V30 3003 H 294.277 0.137614 4.33582 0
M  V30 3004 H 294.948 -1.09271 5.41076 0
M  V30 3005 H 297.424 -1.94089 3.68061 0
M  V30 3006 H 296.3 -2.94479 4.63221 0
M  V30 3007 H 296.561 -3.30758 2.93346 0
M  V30 3008 N 295.62 -1.53406 -0.361157 0
M  V30 3009 C 296.866 -1.70054 -1.10496 0
M  V30 3010 C 297.199 -0.453278 -1.88836 0
M  V30 3011 O 296.474 0.5495 -1.86576 0
M  V30 3012 C 296.757 -2.95317 -2.06058 0
M  V30 3013 C 296.61 -4.3021 -1.31298 0
M  V30 3014 C 297.929 -3.16193 -3.06121 0
M  V30 3015 H 295.048 -0.618799 -0.400321 0
M  V30 3016 H 297.69 -1.86052 -0.385318 0
M  V30 3017 H 295.84 -2.81809 -2.67425 0
M  V30 3018 H 297.512 -4.55538 -0.726807 0
M  V30 3019 H 295.755 -4.29421 -0.614853 0
M  V30 3020 H 296.426 -5.14 -2.01265 0
M  V30 3021 H 298.902 -3.28916 -2.5486 0
M  V30 3022 H 297.778 -4.05266 -3.70204 0
M  V30 3023 H 298.039 -2.31676 -3.76535 0
M  V30 3024 N 297.098 0.621204 -1.44841 0
M  V30 3025 C 298.344 1.3826 -1.48365 0
M  V30 3026 C 298.677 1.93831 -0.119624 0
M  V30 3027 O 297.952 1.74251 0.864111 0
M  V30 3028 C 298.235 2.54058 -2.55199 0
M  V30 3029 C 298.088 2.03772 -4.00995 0
M  V30 3030 C 299.407 3.56225 -2.58442 0
M  V30 3031 H 296.526 0.501374 -0.540179 0
M  V30 3032 H 299.168 0.7015 -1.76576 0
M  V30 3033 H 297.318 3.12162 -2.31274 0
M  V30 3034 H 298.99 1.50423 -4.36086 0
M  V30 3035 H 297.233 1.34876 -4.12299 0
M  V30 3036 H 297.904 2.87185 -4.71411 0
M  V30 3037 H 300.38 3.07939 -2.79844 0
M  V30 3038 H 299.256 4.34756 -3.3508 0
M  V30 3039 H 299.517 4.10949 -1.63013 0
M  V30 3040 N 298.576 1.31904 0.862503 0
M  V30 3041 C 299.804 1.24998 1.64873 0
M  V30 3042 C 300.219 -0.183425 1.87907 0
M  V30 3043 O 299.576 -1.11794 1.44251 0
M  V30 3044 C 299.627 1.99829 3.01248 0
M  V30 3045 O 299.348 3.37575 2.79239 0
M  V30 3046 C 300.849 1.99852 3.95694 0
M  V30 3047 H 298.069 0.431599 0.513773 0
M  V30 3048 H 300.613 1.73901 1.07604 0
M  V30 3049 H 298.768 1.54668 3.55185 0
M  V30 3050 H 299.182 3.75776 3.65914 0
M  V30 3051 H 300.656 2.56709 4.88676 0
M  V30 3052 H 301.133 0.982852 4.28062 0
M  V30 3053 H 301.739 2.44926 3.47694 0
M  V30 3054 N 300.054 -1.07777 1.14986 0
M  V30 3055 C 301.331 -1.7699 0.832695 0
M  V30 3056 C 301.711 -2.001 -0.672561 0
M  V30 3057 O 301.059 -1.61598 -1.6155 0
M  V30 3058 C 301.269 -3.08139 1.63863 0
M  V30 3059 C 302.617 -3.8256 1.84208 0
M  V30 3060 O 303.641 -3.17939 1.60603 0
M  V30 3061 O 302.5 -4.98612 2.23714 0
M  V30 3062 H 299.594 -0.768389 0.305791 0
M  V30 3063 H 302.14 -1.14182 1.25541 0
M  V30 3064 H 300.912 -2.86909 2.6608 0
M  V30 3065 H 300.535 -3.78678 1.21197 0
M  V30 3066 N 301.532 -0.945985 -1.26051 0
M  V30 3067 C 302.462 -0.477172 -2.28572 0
M  V30 3068 C 303.443 0.472032 -1.63419 0
M  V30 3069 O 304.628 0.372853 -1.90587 0
M  V30 3070 C 301.758 0.253975 -3.4637 0
M  V30 3071 C 300.712 -0.609135 -4.23643 0
M  V30 3072 C 300.038 0.252252 -5.34105 0
M  V30 3073 C 301.338 -1.8829 -4.8718 0
M  V30 3074 H 303.032 -1.33402 -2.68038 0
M  V30 3075 H 300.578 -0.642904 -1.28852 0
M  V30 3076 H 302.531 0.593016 -4.17207 0
M  V30 3077 H 301.255 1.145 -3.05871 0
M  V30 3078 H 299.914 -0.931138 -3.54578 0
M  V30 3079 H 299.562 1.14278 -4.89846 0
M  V30 3080 H 299.262 -0.32188 -5.86718 0
M  V30 3081 H 300.786 0.586454 -6.07777 0
M  V30 3082 H 302.2 -1.61081 -5.50205 0
M  V30 3083 H 300.597 -2.40199 -5.49931 0
M  V30 3084 H 301.667 -2.59134 -4.09851 0
M  V30 3085 N 303.011 1.40521 -0.713556 0
M  V30 3086 C 304.236 2.05759 -0.26035 0
M  V30 3087 C 304.661 1.53403 1.08854 0
M  V30 3088 O 304.019 0.668535 1.68524 0
M  V30 3089 C 304.067 3.59745 -0.248122 0
M  V30 3090 O 303.171 4.05123 0.77131 0
M  V30 3091 H 302.512 0.652564 -0.122703 0
M  V30 3092 H 305.042 1.79958 -0.973467 0
M  V30 3093 H 305.052 4.07911 -0.0851129 0
M  V30 3094 H 303.727 3.97218 -1.2325 0
M  V30 3095 H 302.304 3.68422 0.57619 0
M  V30 3096 N 304.489 0.459591 1.5075 0
M  V30 3097 C 305.452 -0.329093 2.26825 0
M  V30 3098 C 306.452 -0.930481 1.31144 0
M  V30 3099 O 307.642 -0.801453 1.54669 0
M  V30 3100 C 304.774 -1.46768 3.07688 0
M  V30 3101 H 305.967 0.337924 2.9799 0
M  V30 3102 H 303.52 0.213336 1.54837 0
M  V30 3103 H 304.255 -2.17009 2.40993 0
M  V30 3104 H 304.04 -1.04238 3.77991 0
M  V30 3105 H 305.53 -2.02433 3.65254 0
M  V30 3106 N 305.967 -1.56429 0.191757 0
M  V30 3107 C 307.195 -2.01867 -0.453586 0
M  V30 3108 C 307.61 -1.07191 -1.5542 0
M  V30 3109 O 306.967 -0.0762108 -1.82341 0
M  V30 3110 C 307.018 -3.47017 -1.013 0
M  V30 3111 O 306.739 -4.38078 0.0437005 0
M  V30 3112 C 308.24 -4.07956 -1.73456 0
M  V30 3113 H 305.46 -0.661211 -0.114199 0
M  V30 3114 H 308.004 -2.02295 0.299483 0
M  V30 3115 H 306.159 -3.47298 -1.71647 0
M  V30 3116 H 306.573 -5.23178 -0.372212 0
M  V30 3117 H 308.047 -5.1138 -2.07833 0
M  V30 3118 H 308.524 -3.51222 -2.63704 0
M  V30 3119 H 309.13 -4.11437 -1.07702 0
M  V30 3120 N 307.445 0.0818655 -1.57387 0
M  V30 3121 C 308.861 0.436412 -1.53517 0
M  V30 3122 C 309.061 1.79758 -0.910459 0
M  V30 3123 O 308.117 2.47324 -0.508636 0
M  V30 3124 C 309.43 0.386734 -2.98203 0
M  V30 3125 C 310.978 0.467644 -3.09487 0
M  V30 3126 C 311.453 0.447978 -4.55804 0
M  V30 3127 N 312.944 0.508348 -4.60402 0
M  V30 3128 C 313.679 0.515184 -5.71081 0
M  V30 3129 N 313.175 0.477435 -6.91153 0
M  V30 3130 N 314.968 0.560988 -5.59294 0
M  V30 3131 H 307.119 -0.809546 -1.96367 0
M  V30 3132 H 309.382 -0.302733 -0.898363 0
M  V30 3133 H 309.088 -0.546539 -3.47427 0
M  V30 3134 H 308.962 1.20075 -3.57578 0
M  V30 3135 H 311.349 1.39134 -2.60242 0
M  V30 3136 H 311.43 -0.374753 -2.5304 0
M  V30 3137 H 311.074 -0.471826 -5.05704 0
M  V30 3138 H 311.004 1.30777 -5.10103 0
M  V30 3139 H 313.495 0.54218 -3.7399 0
M  V30 3140 H 313.808 0.486299 -7.71268 0
M  V30 3141 H 312.153 0.444278 -6.93579 0
M  V30 3142 H 315.344 0.5881 -4.64391 0
M  V30 3143 H 315.517 0.562846 -6.45551 0
M  V30 3144 N 308.923 1.53595 0.353017 0
M  V30 3145 C 309.853 1.83902 1.43883 0
M  V30 3146 C 310.834 0.693421 1.55324 0
M  V30 3147 O 312.019 0.944452 1.69687 0
M  V30 3148 C 309.149 2.04016 2.8106 0
M  V30 3149 C 308.103 3.19814 2.84434 0
M  V30 3150 C 307.429 3.25244 4.24406 0
M  V30 3151 C 308.729 4.58133 2.50822 0
M  V30 3152 H 310.423 2.74835 1.1877 0
M  V30 3153 H 307.969 1.32242 0.569917 0
M  V30 3154 H 309.922 2.238 3.57059 0
M  V30 3155 H 308.646 1.09804 3.07588 0
M  V30 3156 H 307.305 2.9987 2.10887 0
M  V30 3157 H 306.953 2.28646 4.48029 0
M  V30 3158 H 306.653 4.03054 4.27576 0
M  V30 3159 H 308.177 3.47228 5.0226 0
M  V30 3160 H 309.591 4.77995 3.16534 0
M  V30 3161 H 307.988 5.38276 2.6529 0
M  V30 3162 H 309.058 4.62387 1.46034 0
M  V30 3163 N 310.401 -0.613514 1.45168 0
M  V30 3164 C 311.626 -1.40437 1.52618 0
M  V30 3165 C 312.051 -1.87438 0.157707 0
M  V30 3166 O 311.409 -1.59791 -0.856537 0
M  V30 3167 C 311.457 -2.58894 2.51011 0
M  V30 3168 O 310.561 -3.59326 2.02382 0
M  V30 3169 H 309.902 -0.419506 0.514695 0
M  V30 3170 H 312.432 -0.747215 1.90467 0
M  V30 3171 H 312.442 -3.06214 2.69624 0
M  V30 3172 H 311.117 -2.24032 3.50403 0
M  V30 3173 H 309.694 -3.18695 1.93618 0
M  V30 3174 N 311.879 -1.3236 -0.855495 0
M  V30 3175 C 312.826 -1.21225 -1.964 0
M  V30 3176 C 313.796 -0.0946204 -1.6583 0
M  V30 3177 O 314.981 -0.27002 -1.8888 0
M  V30 3178 C 312.121 -0.940419 -3.32039 0
M  V30 3179 C 311.234 -2.14276 -3.75113 0
M  V30 3180 C 310.369 -1.80648 -4.9954 0
M  V30 3181 C 309.408 -2.97208 -5.35102 0
M  V30 3182 N 308.545 -2.63678 -6.50706 0
M  V30 3183 H 313.385 -2.16042 -2.05255 0
M  V30 3184 H 310.922 -1.07451 -1.00463 0
M  V30 3185 H 312.88 -0.763311 -4.10158 0
M  V30 3186 H 311.51 -0.0290413 -3.22787 0
M  V30 3187 H 310.562 -2.43017 -2.92655 0
M  V30 3188 H 311.874 -3.01468 -3.97389 0
M  V30 3189 H 311.028 -1.59484 -5.85363 0
M  V30 3190 H 309.767 -0.906678 -4.79198 0
M  V30 3191 H 308.772 -3.19004 -4.47791 0
M  V30 3192 H 309.997 -3.87918 -5.57401 0
M  V30 3193 H 307.943 -1.76238 -6.31883 0
M  V30 3194 H 307.86 -3.444 -6.72997 0
M  V30 3195 H 309.128 -2.45942 -7.39684 0
M  V30 3196 N 313.357 1.07166 -1.15556 0
M  V30 3197 C 314.32 2.12589 -0.856644 0
M  V30 3198 C 315.32 1.6015 0.14444 0
M  V30 3199 O 316.51 1.7399 -0.0854163 0
M  V30 3200 C 313.642 3.39753 -0.279405 0
M  V30 3201 H 314.835 2.40539 -1.79112 0
M  V30 3202 H 312.388 1.23086 -0.963298 0
M  V30 3203 H 313.123 3.17447 0.663174 0
M  V30 3204 H 312.908 3.79117 -1.00063 0
M  V30 3205 H 314.398 4.17507 -0.0879113 0
M  V30 3206 N 314.835 0.952656 1.25548 0
M  V30 3207 C 315.782 0.47008 2.25962 0
M  V30 3208 C 316.752 -0.476384 1.59122 0
M  V30 3209 O 317.937 -0.39007 1.8677 0
M  V30 3210 C 315.077 -0.247881 3.44209 0
M  V30 3211 C 314.19 0.735591 4.25691 0
M  V30 3212 C 313.325 -0.0047306 5.312 0
M  V30 3213 C 312.364 0.969805 6.04368 0
M  V30 3214 N 311.501 0.260486 7.01617 0
M  V30 3215 H 316.341 1.33126 2.66611 0
M  V30 3216 H 313.878 0.66765 1.31076 0
M  V30 3217 H 315.836 -0.680695 4.1161 0
M  V30 3218 H 314.466 -1.07312 3.0444 0
M  V30 3219 H 313.518 1.28689 3.57971 0
M  V30 3220 H 314.83 1.47934 4.76358 0
M  V30 3221 H 313.984 -0.496275 6.04667 0
M  V30 3222 H 312.723 -0.781282 4.81401 0
M  V30 3223 H 311.728 1.47237 5.29718 0
M  V30 3224 H 312.953 1.74655 6.56256 0
M  V30 3225 H 310.899 -0.497364 6.54112 0
M  V30 3226 H 310.816 0.943362 7.50091 0
M  V30 3227 H 312.084 -0.209587 7.79218 0
M  V30 3228 N 316.313 -1.40141 0.720998 0
M  V30 3229 C 317.223 -2.34486 0.0731031 0
M  V30 3230 C 318.239 -1.57587 -0.737723 0
M  V30 3231 O 319.415 -1.89949 -0.669429 0
M  V30 3232 C 316.48 -3.36528 -0.833656 0
M  V30 3233 C 315.541 -4.29298 -0.0121673 0
M  V30 3234 C 314.774 -5.26466 -0.875742 0
M  V30 3235 O 314.997 -5.29745 -2.11485 0
M  V30 3236 O 313.931 -6.01092 -0.31185 0
M  V30 3237 H 317.757 -2.9152 0.851444 0
M  V30 3238 H 315.342 -1.41427 0.481527 0
M  V30 3239 H 317.224 -3.99093 -1.35289 0
M  V30 3240 H 315.899 -2.81899 -1.59105 0
M  V30 3241 H 314.806 -3.70001 0.552262 0
M  V30 3242 H 316.139 -4.87094 0.707129 0
M  V30 3243 N 317.792 -0.46758 -1.50504 0
M  V30 3244 C 319.041 0.0902868 -2.01498 0
M  V30 3245 C 319.354 1.411 -1.35463 0
M  V30 3246 O 320.56 2.0536 -1.77594 0
M  V30 3247 C 319.016 0.21142 -3.59278 0
M  V30 3248 C 318.624 -1.10065 -4.34269 0
M  V30 3249 C 320.368 0.721433 -4.18325 0
M  V30 3250 C 318.275 -0.943505 -5.83825 0
M  V30 3251 H 317.205 0.037517 -0.753066 0
M  V30 3252 H 319.856 -0.601943 -1.73346 0
M  V30 3253 H 318.238 0.967352 -3.84003 0
M  V30 3254 H 319.412 -1.86726 -4.21272 0
M  V30 3255 H 317.727 -1.5415 -3.86816 0
M  V30 3256 H 320.324 0.85598 -5.27804 0
M  V30 3257 H 320.667 1.71186 -3.79475 0
M  V30 3258 H 321.2 0.0229843 -3.97793 0
M  V30 3259 H 317.939 -1.90719 -6.27141 0
M  V30 3260 H 317.459 -0.217213 -5.99407 0
M  V30 3261 H 319.138 -0.608715 -6.4413 0
M  V30 3262 N 319.27 1.56325 -0.20005 0
M  V30 3263 C 320.518 1.97329 0.436547 0
M  V30 3264 C 320.839 1.08826 1.61808 0
M  V30 3265 O 320.109 0.160604 1.95241 0
M  V30 3266 H 318.689 0.728714 0.164272 0
M  V30 3267 H 321.351 1.92761 -0.287937 0
M  V30 3268 H 320.447 3.02264 0.777353 0
M  V30 3269 N 320.748 -0.0735177 1.57428 0
M  V30 3270 C 321.711 -1.07192 2.02589 0
M  V30 3271 C 322.711 -1.31695 0.922661 0
M  V30 3272 O 323.901 -1.27445 1.18758 0
M  V30 3273 C 321.033 -2.41599 2.40506 0
M  V30 3274 H 322.226 -0.682727 2.92025 0
M  V30 3275 H 319.779 -0.319193 1.53006 0
M  V30 3276 H 320.514 -2.85354 1.5409 0
M  V30 3277 H 320.299 -2.25156 3.21009 0
M  V30 3278 H 321.789 -3.13367 2.76027 0
M  V30 3279 N 322.226 -1.5378 -0.344866 0
M  V30 3280 C 323.503 -1.61589 -1.10219 0
M  V30 3281 C 323.883 -0.436316 -2.06542 0
M  V30 3282 O 323.231 0.571543 -2.21237 0
M  V30 3283 C 323.441 -2.97602 -1.82301 0
M  V30 3284 C 324.789 -3.5291 -2.36093 0
M  V30 3285 O 325.813 -2.99768 -1.924 0
M  V30 3286 O 324.672 -4.45859 -3.16026 0
M  V30 3287 H 321.766 -0.653522 -0.506792 0
M  V30 3288 H 324.312 -1.66126 -0.346465 0
M  V30 3289 H 323.084 -3.74893 -1.12121 0
M  V30 3290 H 322.707 -2.9665 -2.64735 0
M  V30 3291 N 323.704 0.605807 -1.45491 0
M  V30 3292 C 324.634 1.72709 -1.57143 0
M  V30 3293 C 325.615 1.6476 -0.422884 0
M  V30 3294 O 326.8 1.83132 -0.646247 0
M  V30 3295 C 323.93 3.11316 -1.53948 0
M  V30 3296 C 322.884 3.34077 -2.67537 0
M  V30 3297 C 322.21 4.72975 -2.49397 0
M  V30 3298 C 323.51 3.24158 -4.09535 0
M  V30 3299 H 325.204 1.63214 -2.51001 0
M  V30 3300 H 322.75 0.78379 -1.208 0
M  V30 3301 H 324.703 3.89557 -1.60696 0
M  V30 3302 H 323.427 3.21655 -0.566205 0
M  V30 3303 H 322.086 2.58227 -2.6022 0
M  V30 3304 H 321.734 4.8005 -1.50205 0
M  V30 3305 H 321.434 4.8916 -3.25571 0
M  V30 3306 H 322.958 5.53414 -2.58002 0
M  V30 3307 H 324.372 3.92271 -4.18086 0
M  V30 3308 H 322.769 3.51872 -4.86113 0
M  V30 3309 H 323.839 2.2157 -4.31317 0
M  V30 3310 N 325.182 1.32811 0.848464 0
M  V30 3311 C 326.428 1.23907 1.60546 0
M  V30 3312 C 326.761 -0.197161 1.93197 0
M  V30 3313 O 326.036 -1.13596 1.5788 0
M  V30 3314 C 326.319 2.10489 2.92175 0
M  V30 3315 C 326.172 3.62522 2.66266 0
M  V30 3316 C 327.491 1.97075 3.93509 0
M  V30 3317 H 324.61 0.451459 0.58254 0
M  V30 3318 H 327.252 1.62818 0.979296 0
M  V30 3319 H 325.402 1.77434 3.45614 0
M  V30 3320 H 327.074 4.05821 2.19334 0
M  V30 3321 H 325.317 3.84879 2.00126 0
M  V30 3322 H 325.988 4.18437 3.6002 0
M  V30 3323 H 328.464 2.26045 3.49346 0
M  V30 3324 H 327.34 2.59923 4.83457 0
M  V30 3325 H 327.601 0.940186 4.31987 0
M  V30 3326 N 326.66 -1.06551 1.16123 0
M  V30 3327 C 327.59 -2.15935 0.88851 0
M  V30 3328 C 328.571 -1.69306 -0.164135 0
M  V30 3329 O 329.756 -1.94193 -0.0167857 0
M  V30 3330 C 326.886 -3.45149 0.385942 0
M  V30 3331 C 325.84 -4.05271 1.3762 0
M  V30 3332 C 325.166 -5.29664 0.732137 0
M  V30 3333 C 326.466 -4.44355 2.74493 0
M  V30 3334 H 328.16 -2.39006 1.80323 0
M  V30 3335 H 325.706 -1.14866 0.868435 0
M  V30 3336 H 327.659 -4.21004 0.182647 0
M  V30 3337 H 326.383 -3.21689 -0.564274 0
M  V30 3338 H 325.042 -3.3147 1.56599 0
M  V30 3339 H 324.69 -5.02499 -0.224483 0
M  V30 3340 H 324.39 -5.70848 1.39307 0
M  V30 3341 H 325.914 -6.08218 0.538802 0
M  V30 3342 H 327.328 -5.11303 2.59311 0
M  V30 3343 H 325.725 -4.96515 3.37035 0
M  V30 3344 H 326.795 -3.55339 3.29943 0
M  V30 3345 N 328.138 -0.959301 -1.25041 0
M  V30 3346 C 329.07 -0.440543 -2.24926 0
M  V30 3347 C 330.083 0.446131 -1.56568 0
M  V30 3348 O 331.272 0.253657 -1.76689 0
M  V30 3349 C 328.372 0.38412 -3.36716 0
M  V30 3350 C 327.545 -0.490658 -4.34639 0
M  V30 3351 C 326.604 0.276587 -5.25473 0
M  V30 3352 O 325.63 -0.326614 -5.68262 0
M  V30 3353 N 326.832 1.56844 -5.5891 0
M  V30 3354 H 329.597 -1.29931 -2.70071 0
M  V30 3355 H 327.158 -0.830181 -1.38995 0
M  V30 3356 H 329.15 0.905228 -3.94446 0
M  V30 3357 H 327.72 1.14377 -2.90924 0
M  V30 3358 H 326.94 -1.19282 -3.7572 0
M  V30 3359 H 328.228 -1.08756 -4.97041 0
M  V30 3360 H 327.626 2.08036 -5.26059 0
M  V30 3361 H 326.183 2.03541 -6.19205 0
M  V30 3362 N 329.616 1.39756 -0.72842 0
M  V30 3363 C 330.865 1.99879 -0.270407 0
M  V30 3364 C 331.178 1.58449 1.14688 0
M  V30 3365 O 332.384 2.11362 1.70407 0
M  V30 3366 C 330.84 3.57292 -0.43252 0
M  V30 3367 C 330.448 4.07688 -1.85727 0
M  V30 3368 C 332.192 4.24485 -0.0359507 0
M  V30 3369 C 330.099 5.5765 -1.96928 0
M  V30 3370 H 329.029 0.747689 -0.0973472 0
M  V30 3371 H 331.68 1.59837 -0.901355 0
M  V30 3372 H 330.062 3.95097 0.267219 0
M  V30 3373 H 331.236 3.81231 -2.58843 0
M  V30 3374 H 329.551 3.53135 -2.20646 0
M  V30 3375 H 332.148 5.34609 -0.0987484 0
M  V30 3376 H 332.491 4.03915 1.00787 0
M  V30 3377 H 333.024 3.9183 -0.686604 0
M  V30 3378 H 329.763 5.8309 -2.99476 0
M  V30 3379 H 329.283 5.8593 -1.28241 0
M  V30 3380 H 330.962 6.22957 -1.74737 0
M  V30 3381 N 331.094 0.475555 1.50254 0
M  V30 3382 C 332.319 -0.0777042 2.07254 0
M  V30 3383 C 332.744 -1.3235 1.3366 0
M  V30 3384 O 332.102 -1.77152 0.385597 0
M  V30 3385 C 332.15 -0.340169 3.58992 0
M  V30 3386 O 331.254 -1.41982 3.87188 0
M  V30 3387 H 330.595 0.0149556 0.663832 0
M  V30 3388 H 333.125 0.667878 1.93392 0
M  V30 3389 H 333.135 -0.579332 4.03866 0
M  V30 3390 H 331.81 0.570167 4.11973 0
M  V30 3391 H 330.387 -1.16762 3.54148 0
M  V30 3392 N 332.573 -1.56217 0.208337 0
M  V30 3393 C 333.52 -2.19699 -0.707192 0
M  V30 3394 C 334.49 -1.14836 -1.20008 0
M  V30 3395 O 335.675 -1.4314 -1.26157 0
M  V30 3396 C 332.815 -2.87061 -1.91546 0
M  V30 3397 C 331.928 -4.06483 -1.46271 0
M  V30 3398 C 331.063 -4.61665 -2.62752 0
M  V30 3399 C 330.102 -5.73417 -2.14147 0
M  V30 3400 N 329.239 -6.22948 -3.23853 0
M  V30 3401 H 334.079 -2.97575 -0.159111 0
M  V30 3402 H 331.616 -1.46948 -0.0667874 0
M  V30 3403 H 333.574 -3.24294 -2.62468 0
M  V30 3404 H 332.204 -2.11725 -2.43664 0
M  V30 3405 H 331.256 -3.74825 -0.648886 0
M  V30 3406 H 332.568 -4.87271 -1.06622 0
M  V30 3407 H 331.722 -5.01272 -3.41776 0
M  V30 3408 H 330.461 -3.80013 -3.05682 0
M  V30 3409 H 329.466 -5.33326 -1.33581 0
M  V30 3410 H 330.691 -6.56897 -1.72232 0
M  V30 3411 H 328.637 -5.44213 -3.6629 0
M  V30 3412 H 328.554 -6.98823 -2.88414 0
M  V30 3413 H 329.822 -6.6721 -4.03052 0
M  V30 3414 N 334.051 0.0651679 -1.57465 0
M  V30 3415 C 334.961 1.09448 -2.07505 0
M  V30 3416 C 335.977 1.41974 -1.00595 0
M  V30 3417 O 337.153 1.52018 -1.32107 0
M  V30 3418 C 334.218 2.38689 -2.51453 0
M  V30 3419 C 333.279 2.13073 -3.72691 0
M  V30 3420 C 332.512 3.36152 -4.14533 0
M  V30 3421 O 332.735 4.45517 -3.56189 0
M  V30 3422 O 331.669 3.23974 -5.07272 0
M  V30 3423 H 335.495 0.69935 -2.95538 0
M  V30 3424 H 333.08 0.279752 -1.46757 0
M  V30 3425 H 334.962 3.14736 -2.80212 0
M  V30 3426 H 333.637 2.77568 -1.66546 0
M  V30 3427 H 332.544 1.34709 -3.49005 0
M  V30 3428 H 333.877 1.79071 -4.5847 0
M  V30 3429 N 335.529 1.53961 0.336706 0
M  V30 3430 C 336.754 1.75797 1.10046 0
M  V30 3431 C 337.179 0.498985 1.81361 0
M  V30 3432 O 336.537 -0.548769 1.72795 0
M  V30 3433 C 336.585 2.94257 2.08436 0
M  V30 3434 O 335.689 2.64883 3.16087 0
M  V30 3435 H 335.03 0.582936 0.317934 0
M  V30 3436 H 337.56 2.00945 0.38501 0
M  V30 3437 H 337.57 3.21237 2.51537 0
M  V30 3438 H 336.245 3.85564 1.55927 0
M  V30 3439 H 334.822 2.48812 2.77753 0
M  V30 3440 N 337.007 -0.598083 1.45811 0
M  V30 3441 C 338.418 -1.18011 1.44673 0
M  V30 3442 C 338.769 -1.95378 0.179364 0
M  V30 3443 O 337.894 -2.04124 -0.718509 0
M  V30 3444 C 338.489 -2.14677 2.62105 0
M  V30 3445 C 337.048 -2.68236 2.64057 0
M  V30 3446 C 336.195 -1.43816 2.37091 0
M  V30 3447 H 339.146 -0.38686 1.53913 0
M  V30 3448 H 339.167 -2.97878 2.36746 0
M  V30 3449 H 338.679 -1.5834 3.5433 0
M  V30 3450 H 336.78 -3.28486 1.75864 0
M  V30 3451 H 336.893 -3.12021 3.63566 0
M  V30 3452 H 335.257 -1.731 1.86838 0
M  V30 3453 H 336.04 -0.893333 3.31473 0
M  V30 3454 N 338.485 -1.33259 -0.841409 0
M  V30 3455 C 339.417 -1.19136 -1.95804 0
M  V30 3456 C 340.43 -0.122965 -1.62335 0
M  V30 3457 O 341.619 -0.373154 -1.74556 0
M  V30 3458 C 338.719 -0.804268 -3.29218 0
M  V30 3459 C 337.892 -1.96376 -3.90839 0
M  V30 3460 C 336.951 -1.55806 -5.02604 0
M  V30 3461 O 335.977 -2.27203 -5.21888 0
M  V30 3462 N 337.179 -0.461609 -5.78662 0
M  V30 3463 H 339.944 -2.15326 -2.08458 0
M  V30 3464 H 337.505 -1.25971 -1.017 0
M  V30 3465 H 339.497 -0.51501 -4.0141 0
M  V30 3466 H 338.067 0.0668809 -3.12528 0
M  V30 3467 H 337.287 -2.41879 -3.11269 0
M  V30 3468 H 338.575 -2.73966 -4.28742 0
M  V30 3469 H 337.973 0.132343 -5.65545 0
M  V30 3470 H 336.53 -0.232013 -6.51387 0
M  V30 3471 N 339.963 1.05934 -1.16686 0
M  V30 3472 C 340.873 2.17014 -0.891183 0
M  V30 3473 C 341.889 1.73453 0.137907 0
M  V30 3474 O 343.065 2.01361 -0.039592 0
M  V30 3475 C 340.13 3.44384 -0.400099 0
M  V30 3476 C 339.191 4.02433 -1.49486 0
M  V30 3477 C 338.424 5.23723 -1.02711 0
M  V30 3478 O 338.647 5.7027 0.121716 0
M  V30 3479 O 337.581 5.7382 -1.81699 0
M  V30 3480 H 341.407 2.43113 -1.82015 0
M  V30 3481 H 338.992 1.15541 -0.947132 0
M  V30 3482 H 340.874 4.21189 -0.133392 0
M  V30 3483 H 339.549 3.19802 0.500817 0
M  V30 3484 H 338.456 3.27102 -1.81535 0
M  V30 3485 H 339.789 4.31317 -2.37121 0
M  V30 3486 N 341.441 0.965919 1.2453 0
M  V30 3487 C 342.69 0.622437 1.91856 0
M  V30 3488 C 343.003 -0.846006 1.76358 0
M  V30 3489 O 344.209 -1.29993 2.38357 0
M  V30 3490 C 342.665 1.0626 3.43856 0
M  V30 3491 C 342.273 2.55437 3.68043 0
M  V30 3492 C 344.017 0.792183 4.17043 0
M  V30 3493 C 341.924 2.93196 5.13605 0
M  V30 3494 H 340.854 0.229092 0.718354 0
M  V30 3495 H 343.505 1.17189 1.41206 0
M  V30 3496 H 341.887 0.441476 3.93531 0
M  V30 3497 H 343.061 3.22665 3.28974 0
M  V30 3498 H 341.376 2.8007 3.08139 0
M  V30 3499 H 343.973 1.05031 5.24283 0
M  V30 3500 H 344.316 -0.271584 4.15413 0
M  V30 3501 H 344.849 1.37419 3.73311 0
M  V30 3502 H 341.588 3.98636 5.20355 0
M  V30 3503 H 341.108 2.30651 5.53679 0
M  V30 3504 H 342.787 2.83004 5.81823 0
M  V30 3505 N 342.919 -1.39368 0.735821 0
M  V30 3506 C 343.882 -2.2896 0.104874 0
M  V30 3507 C 344.882 -1.46347 -0.666274 0
M  V30 3508 O 346.072 -1.67014 -0.49517 0
M  V30 3509 C 343.204 -3.29857 -0.860656 0
M  V30 3510 H 344.397 -2.86259 0.894205 0
M  V30 3511 H 341.95 -1.48029 0.501704 0
M  V30 3512 H 342.685 -2.77615 -1.67631 0
M  V30 3513 H 342.47 -3.9087 -0.310327 0
M  V30 3514 H 343.96 -3.96893 -1.29867 0
M  V30 3515 N 344.397 -0.483516 -1.5 0
M  V30 3516 C 345.813 -0.138404 -1.58999 0
M  V30 3517 C 346.013 1.35597 -1.4905 0
M  V30 3518 O 345.069 2.13039 -1.35539 0
M  V30 3519 C 346.382 -0.699658 -2.92447 0
M  V30 3520 C 347.93 -0.664195 -3.05872 0
M  V30 3521 C 348.405 -1.20321 -4.41913 0
M  V30 3522 N 349.896 -1.16315 -4.48358 0
M  V30 3523 C 350.631 -1.55058 -5.52037 0
M  V30 3524 N 350.127 -2.01311 -6.62907 0
M  V30 3525 N 351.92 -1.46584 -5.42651 0
M  V30 3526 H 344.071 -1.45529 -1.5471 0
M  V30 3527 H 346.334 -0.60258 -0.731848 0
M  V30 3528 H 346.04 -1.747 -3.05242 0
M  V30 3529 H 345.914 -0.150194 -3.76901 0
M  V30 3530 H 348.301 0.374272 -2.92717 0
M  V30 3531 H 348.382 -1.25061 -2.23144 0
M  V30 3532 H 348.026 -2.24037 -4.55818 0
M  V30 3533 H 347.956 -0.592896 -5.23252 0
M  V30 3534 H 350.447 -0.824058 -3.68806 0
M  V30 3535 H 350.76 -2.2899 -7.38095 0
M  V30 3536 H 349.105 -2.05273 -6.63994 0
M  V30 3537 H 352.296 -1.10281 -4.54924 0
M  V30 3538 H 352.469 -1.77103 -6.23329 0
M  V30 3539 N 345.875 1.56104 -0.216619 0
M  V30 3540 C 346.822 2.2007 0.695531 0
M  V30 3541 C 347.792 1.15471 1.19397 0
M  V30 3542 O 348.977 1.43807 1.25396 0
M  V30 3543 C 346.117 2.88073 1.90021 0
M  V30 3544 C 345.23 4.07253 1.44113 0
M  V30 3545 C 344.365 4.63052 2.603 0
M  V30 3546 C 343.404 5.74545 2.11103 0
M  V30 3547 N 342.541 6.24656 3.20545 0
M  V30 3548 H 347.381 2.97655 0.143327 0
M  V30 3549 H 344.918 1.46982 0.0589934 0
M  V30 3550 H 346.876 3.25681 2.60745 0
M  V30 3551 H 345.506 2.13015 2.42538 0
M  V30 3552 H 344.558 3.75164 0.628999 0
M  V30 3553 H 345.87 4.8783 1.04036 0
M  V30 3554 H 345.024 5.03078 3.39113 0
M  V30 3555 H 343.763 3.81628 3.03663 0
M  V30 3556 H 342.768 5.34027 1.3075 0
M  V30 3557 H 343.993 6.57801 1.68746 0
M  V30 3558 H 341.939 5.46148 3.63399 0
M  V30 3559 H 341.856 7.00343 2.84704 0
M  V30 3560 H 343.124 6.69338 3.99508 0
M  V30 3561 N 347.353 -0.0568162 1.57498 0
M  V30 3562 C 348.599 -0.75422 1.88253 0
M  V30 3563 C 348.932 -1.76461 0.810865 0
M  V30 3564 O 348.207 -1.93691 -0.177259 0
M  V30 3565 C 348.49 -1.44878 3.2967 0
M  V30 3566 C 348.343 -0.453789 4.47505 0
M  V30 3567 C 349.662 -2.38994 3.69554 0
M  V30 3568 H 346.781 -0.272724 0.684683 0
M  V30 3569 H 349.423 -0.0172113 1.89992 0
M  V30 3570 H 347.573 -2.077 3.28318 0
M  V30 3571 H 349.245 0.170371 4.60985 0
M  V30 3572 H 347.488 0.229552 4.33192 0
M  V30 3573 H 348.159 -0.977699 5.43273 0
M  V30 3574 H 350.635 -1.86239 3.72095 0
M  V30 3575 H 349.511 -2.84587 4.69363 0
M  V30 3576 H 349.772 -3.24461 3.00296 0
M  V30 3577 N 348.832 -1.54138 -0.328536 0
M  V30 3578 C 349.742 -1.86192 -1.42723 0
M  V30 3579 C 350.758 -0.753382 -1.56844 0
M  V30 3580 O 351.934 -1.04718 -1.72035 0
M  V30 3581 C 348.999 -2.07824 -2.77507 0
M  V30 3582 C 348.06 -3.31641 -2.72603 0
M  V30 3583 C 347.293 -3.52232 -4.00959 0
M  V30 3584 O 347.516 -2.7636 -4.9898 0
M  V30 3585 O 346.45 -4.45699 -4.0452 0
M  V30 3586 H 350.276 -2.79608 -1.18547 0
M  V30 3587 H 347.861 -1.3998 -0.522104 0
M  V30 3588 H 349.743 -2.23411 -3.57303 0
M  V30 3589 H 348.418 -1.17596 -3.01584 0
M  V30 3590 H 347.325 -3.21444 -1.91376 0
M  V30 3591 H 348.658 -4.2191 -2.53481 0
M  V30 3592 N 350.31 0.590341 -1.46126 0
M  V30 3593 C 351.558 1.34616 -1.50742 0
M  V30 3594 C 351.879 1.94363 -0.157486 0
M  V30 3595 O 351.149 1.78136 0.815136 0
M  V30 3596 H 349.729 0.499789 -0.555175 0
M  V30 3597 H 352.391 0.691953 -1.82203 0
M  V30 3598 H 351.487 2.15678 -2.25587 0
M  V30 3599 N 351.788 1.33704 0.83433 0
M  V30 3600 C 352.72 1.20172 1.9517 0
M  V30 3601 C 353.733 0.131572 1.62267 0
M  V30 3602 O 354.922 0.382406 1.74356 0
M  V30 3603 C 352.022 0.821716 3.28787 0
M  V30 3604 C 351.195 1.98446 3.89792 0
M  V30 3605 C 350.254 1.58469 5.01771 0
M  V30 3606 O 349.28 2.29968 5.20676 0
M  V30 3607 N 350.482 0.492291 5.78409 0
M  V30 3608 H 353.247 2.16429 2.07313 0
M  V30 3609 H 350.808 1.26509 1.0103 0
M  V30 3610 H 352.8 0.536291 4.01131 0
M  V30 3611 H 351.37 -0.0503058 3.1256 0
M  V30 3612 H 350.59 2.43526 3.09982 0
M  V30 3613 H 351.878 2.76236 4.27283 0
M  V30 3614 H 351.276 -0.102349 5.65607 0
M  V30 3615 H 349.833 0.266555 6.51255 0
M  V30 3616 N 353.266 -1.05314 1.17247 0
M  V30 3617 C 354.196 -2.1498 0.911362 0
M  V30 3618 C 355.177 -1.69471 -0.146169 0
M  V30 3619 O 356.362 -1.942 0.003812 0
M  V30 3620 C 353.492 -3.4472 0.422528 0
M  V30 3621 C 352.446 -4.03789 1.4191 0
M  V30 3622 C 351.772 -5.28858 0.788274 0
M  V30 3623 C 353.072 -4.41418 2.7919 0
M  V30 3624 H 354.766 -2.3708 1.82848 0
M  V30 3625 H 352.312 -1.13938 0.880569 0
M  V30 3626 H 354.265 -4.20787 0.227289 0
M  V30 3627 H 352.989 -3.22269 -0.530123 0
M  V30 3628 H 351.648 -3.2979 1.60106 0
M  V30 3629 H 351.296 -5.02709 -0.171173 0
M  V30 3630 H 350.996 -5.69338 1.45353 0
M  V30 3631 H 352.52 -6.07612 0.603282 0
M  V30 3632 H 353.934 -5.08524 2.64719 0
M  V30 3633 H 352.331 -4.92913 3.42282 0
M  V30 3634 H 353.401 -3.51819 3.33693 0
M  V30 3635 N 354.744 -0.972509 -1.24016 0
M  V30 3636 C 355.992 -0.635776 -1.91839 0
M  V30 3637 C 356.313 0.832312 -1.76345 0
M  V30 3638 O 355.583 1.5946 -1.13795 0
M  V30 3639 H 354.163 -0.232157 -0.710009 0
M  V30 3640 H 356.825 -1.23462 -1.50809 0
M  V30 3641 H 355.921 -0.880545 -2.99421 0
M  V30 3642 N 356.222 1.38976 -0.743202 0
M  V30 3643 C 357.462 2.02193 -0.29954 0
M  V30 3644 C 357.826 1.5771 1.09506 0
M  V30 3645 O 359.027 2.13184 1.63726 0
M  V30 3646 C 357.298 3.55077 -0.406822 0
M  V30 3647 S 358.857 4.38778 -0.0442109 0
M  V30 3648 H 355.675 0.701335 -0.116836 0
M  V30 3649 H 358.277 1.69651 -0.971529 0
M  V30 3650 H 356.981 3.84942 -1.42295 0
M  V30 3651 H 356.512 3.92383 0.282707 0
M  V30 3652 H 358.527 4.82222 1.16947 0
M  V30 3653 N 357.7 0.491464 1.49741 0
M  V30 3654 C 358.647 -0.292027 2.28945 0
M  V30 3655 C 359.617 -0.968973 1.34908 0
M  V30 3656 O 360.802 -0.97748 1.6386 0
M  V30 3657 C 357.942 -1.35617 3.17336 0
M  V30 3658 C 357.055 -0.691957 4.26422 0
M  V30 3659 C 356.19 -1.73572 5.02042 0
M  V30 3660 C 355.229 -1.05286 6.02977 0
M  V30 3661 N 354.366 -2.0404 6.71798 0
M  V30 3662 H 359.206 0.389654 2.95442 0
M  V30 3663 H 356.743 0.204003 1.45679 0
M  V30 3664 H 358.701 -1.98502 3.66951 0
M  V30 3665 H 357.331 -2.00674 2.52844 0
M  V30 3666 H 356.383 0.0499523 3.80367 0
M  V30 3667 H 357.695 -0.153946 4.98562 0
M  V30 3668 H 356.849 -2.43987 5.55478 0
M  V30 3669 H 355.588 -2.30757 4.29654 0
M  V30 3670 H 354.593 -0.334446 5.48782 0
M  V30 3671 H 355.818 -0.487636 6.77347 0
M  V30 3672 H 353.764 -2.60205 6.02187 0
M  V30 3673 H 353.681 -1.55279 7.39881 0
M  V30 3674 H 354.949 -2.73772 7.29842 0
M  V30 3675 N 359.178 -1.55987 0.224894 0
M  V30 3676 C 360.589 -1.84553 -0.282345 0
M  V30 3677 C 360.94 -1.14634 -1.59227 0
M  V30 3678 O 360.065 -0.417155 -2.12341 0
M  V30 3679 C 360.66 -3.348 -0.519062 0
M  V30 3680 C 359.219 -3.63671 -0.970604 0
M  V30 3681 C 358.366 -2.77277 -0.0355261 0
M  V30 3682 H 361.317 -1.52245 0.448006 0
M  V30 3683 H 361.338 -3.55187 -1.36463 0
M  V30 3684 H 360.85 -3.8566 0.43449 0
M  V30 3685 H 358.951 -3.1827 -1.9374 0
M  V30 3686 H 359.064 -4.71631 -0.842698 0
M  V30 3687 H 357.428 -2.48846 -0.542927 0
M  V30 3688 H 358.211 -3.30937 0.913003 0
M  V30 3689 N 360.656 0.0484629 -1.57525 0
M  V30 3690 C 361.566 1.07241 -2.08654 0
M  V30 3691 C 362.582 1.409 -1.02095 0
M  V30 3692 O 363.758 1.50609 -1.33712 0
M  V30 3693 C 360.823 2.36008 -2.5397 0
M  V30 3694 C 359.884 2.09108 -3.7493 0
M  V30 3695 C 359.117 3.31736 -4.18075 0
M  V30 3696 O 359.34 4.41714 -3.60895 0
M  V30 3697 O 358.274 3.18576 -5.10679 0
M  V30 3698 H 362.1 0.667965 -2.96263 0
M  V30 3699 H 359.685 0.26417 -1.47046 0
M  V30 3700 H 361.567 3.11747 -2.83535 0
M  V30 3701 H 360.242 2.75786 -1.69481 0
M  V30 3702 H 359.149 1.31 -3.50414 0
M  V30 3703 H 360.482 1.74198 -4.60343 0
M  V30 3704 N 362.134 1.5431 0.320358 0
M  V30 3705 C 363.38 1.72924 1.05949 0
M  V30 3706 C 363.713 0.503185 1.87568 0
M  V30 3707 O 362.988 -0.499839 1.87968 0
M  V30 3708 C 363.271 3.00676 1.98156 0
M  V30 3709 C 363.124 4.3354 1.19845 0
M  V30 3710 C 364.443 3.24198 2.9763 0
M  V30 3711 H 361.562 0.629195 0.383774 0
M  V30 3712 H 364.204 1.87008 0.335854 0
M  V30 3713 H 362.354 2.888 2.59859 0
M  V30 3714 H 364.026 4.57305 0.605773 0
M  V30 3715 H 362.269 4.309 0.500784 0
M  V30 3716 H 362.94 5.19156 1.87567 0
M  V30 3717 H 365.416 3.35557 2.4605 0
M  V30 3718 H 364.292 4.14938 3.59329 0
M  V30 3719 H 364.553 2.41577 3.7026 0
M  V30 3720 N 363.613 -0.582584 1.46437 0
M  V30 3721 C 364.841 -1.36682 1.55324 0
M  V30 3722 C 365.256 -1.87796 0.194409 0
M  V30 3723 O 364.613 -1.63623 -0.808318 0
M  V30 3724 C 364.664 -2.55426 2.55812 0
M  V30 3725 O 364.385 -2.0643 3.86417 0
M  V30 3726 C 365.886 -3.47976 2.74641 0
M  V30 3727 H 363.106 -0.417545 0.525259 0
M  V30 3728 H 365.65 -0.708219 1.91845 0
M  V30 3729 H 363.805 -3.17275 2.22295 0
M  V30 3730 H 364.219 -2.83762 4.41111 0
M  V30 3731 H 365.693 -4.27775 3.48874 0
M  V30 3732 H 366.17 -3.99919 1.81553 0
M  V30 3733 H 366.776 -2.91962 3.09255 0
M  V30 3734 N 365.091 -1.34144 -0.827227 0
M  V30 3735 C 366.34 -1.25602 -1.5782 0
M  V30 3736 C 366.653 0.173445 -1.94829 0
M  V30 3737 O 367.859 0.380984 -2.68814 0
M  V30 3738 C 366.315 -2.20151 -2.84713 0
M  V30 3739 C 365.923 -3.68331 -2.55021 0
M  V30 3740 C 367.667 -2.20508 -3.62735 0
M  V30 3741 C 365.574 -4.54762 -3.78082 0
M  V30 3742 H 364.504 -0.466573 -0.592306 0
M  V30 3743 H 367.155 -1.59283 -0.911116 0
M  V30 3744 H 365.537 -1.79417 -3.53023 0
M  V30 3745 H 366.711 -4.17577 -1.94849 0
M  V30 3746 H 365.026 -3.7038 -1.90283 0
M  V30 3747 H 367.623 -2.82306 -4.54101 0
M  V30 3748 H 367.966 -1.20322 -3.98533 0
M  V30 3749 H 368.499 -2.59664 -3.01362 0
M  V30 3750 H 365.238 -5.55867 -3.47407 0
M  V30 3751 H 364.758 -4.10254 -4.37552 0
M  V30 3752 H 366.437 -4.69153 -4.45538 0
M  V30 3753 N 366.569 1.04691 -1.17803 0
M  V30 3754 C 367.479 2.16057 -0.914151 0
M  V30 3755 C 368.495 1.73589 0.119503 0
M  V30 3756 O 369.671 2.01308 -0.0609468 0
M  V30 3757 C 366.736 3.4394 -0.436603 0
M  V30 3758 C 365.797 4.00825 -1.53746 0
M  V30 3759 C 365.03 5.22604 -1.0826 0
M  V30 3760 O 365.253 5.70367 0.0612244 0
M  V30 3761 O 364.187 5.7186 -1.87775 0
M  V30 3762 H 368.013 2.41169 -1.84584 0
M  V30 3763 H 365.598 1.1453 -0.959334 0
M  V30 3764 H 367.48 4.21024 -0.178057 0
M  V30 3765 H 366.155 3.20316 0.466869 0
M  V30 3766 H 365.062 3.25158 -1.84995 0
M  V30 3767 H 366.395 4.28778 -2.41683 0
M  V30 3768 N 368.047 0.979072 1.23499 0
M  V30 3769 C 369.287 0.655228 1.93613 0
M  V30 3770 C 369.651 -0.796336 1.74707 0
M  V30 3771 O 370.852 -1.23094 2.38959 0
M  V30 3772 C 369.123 1.03337 3.42135 0
M  V30 3773 S 370.682 0.825793 4.3096 0
M  V30 3774 H 367.5 0.240004 0.669267 0
M  V30 3775 H 370.102 1.25843 1.49612 0
M  V30 3776 H 368.806 2.08646 3.53405 0
M  V30 3777 H 368.337 0.421397 3.91137 0
M  V30 3778 H 370.352 -0.290991 4.95346 0
M  V30 3779 N 369.525 -1.3858 0.750561 0
M  V30 3780 C 370.753 -2.04471 0.316098 0
M  V30 3781 C 371.168 -1.56606 -1.05452 0
M  V30 3782 O 370.525 -0.737784 -1.66922 0
M  V30 3783 C 370.576 -3.60025 0.326275 0
M  V30 3784 O 370.297 -4.06133 1.6428 0
M  V30 3785 C 371.798 -4.43131 -0.122429 0
M  V30 3786 H 369.018 -0.65717 0.135528 0
M  V30 3787 H 371.562 -1.77329 1.01857 0
M  V30 3788 H 369.717 -3.86014 -0.327431 0
M  V30 3789 H 370.131 -5.00547 1.56693 0
M  V30 3790 H 371.605 -5.51963 -0.0641473 0
M  V30 3791 H 372.082 -4.23333 -1.16988 0
M  V30 3792 H 372.688 -4.22323 0.50229 0
M  V30 3793 N 371.003 -0.499398 -1.49478 0
M  V30 3794 C 372.251 0.0455996 -2.02049 0
M  V30 3795 C 372.572 1.37633 -1.38138 0
M  V30 3796 O 371.842 1.8842 -0.536166 0
M  V30 3797 H 370.422 0.0198416 -0.746736 0
M  V30 3798 H 373.084 -0.656274 -1.83519 0
M  V30 3799 H 372.18 0.176445 -3.11601 0
M  V30 3800 N 372.481 1.55866 -0.233164 0
M  V30 3801 C 373.444 2.1953 0.658715 0
M  V30 3802 C 374.444 1.16053 1.11303 0
M  V30 3803 O 375.634 1.41218 1.01996 0
M  V30 3804 C 372.766 2.82791 1.90373 0
M  V30 3805 H 373.959 2.99721 0.10347 0
M  V30 3806 H 371.512 1.56291 0.0164245 0
M  V30 3807 H 372.247 2.06501 2.50056 0
M  V30 3808 H 372.032 3.58578 1.58632 0
M  V30 3809 H 373.522 3.31556 2.53891 0
M  V30 3810 N 373.959 -0.0401083 1.57549 0
M  V30 3811 C 374.869 -1.06133 2.0922 0
M  V30 3812 C 375.885 -1.40356 1.0284 0
M  V30 3813 O 377.061 -1.49897 1.34509 0
M  V30 3814 C 374.126 -2.34658 2.55218 0
M  V30 3815 C 373.187 -2.07117 3.76033 0
M  V30 3816 C 372.42 -3.29514 4.19829 0
M  V30 3817 O 372.643 -4.39794 3.63232 0
M  V30 3818 O 371.577 -3.15863 5.12362 0
M  V30 3819 H 375.403 -0.652244 2.96613 0
M  V30 3820 H 372.988 -0.256368 1.47184 0
M  V30 3821 H 374.87 -3.10239 2.85184 0
M  V30 3822 H 373.545 -2.74883 1.70941 0
M  V30 3823 H 372.452 -1.29139 3.51104 0
M  V30 3824 H 373.785 -1.71754 4.61261 0
M  V30 3825 N 375.437 -1.54477 -0.31217 0
M  V30 3826 C 376.4 -1.83923 -1.36766 0
M  V30 3827 C 377.4 -0.711563 -1.44199 0
M  V30 3828 O 378.59 -0.979866 -1.44029 0
M  V30 3829 C 375.722 -2.0095 -2.75376 0
M  V30 3830 H 376.915 -2.78239 -1.11906 0
M  V30 3831 H 374.468 -1.46369 -0.548257 0
M  V30 3832 H 375.203 -1.08883 -3.05475 0
M  V30 3833 H 374.988 -2.83018 -2.71373 0
M  V30 3834 H 376.478 -2.2514 -3.51713 0
M  V30 3835 N 376.915 0.57481 -1.46744 0
M  V30 3836 C 378.14 1.36341 -1.56288 0
M  V30 3837 C 378.565 1.86954 -0.207347 0
M  V30 3838 O 377.923 1.62006 0.813871 0
M  V30 3839 C 377.971 2.52147 -2.57787 0
M  V30 3840 O 377.075 3.53834 -2.11838 0
M  V30 3841 H 376.416 0.405713 -0.525636 0
M  V30 3842 H 378.946 0.696453 -1.92382 0
M  V30 3843 H 378.956 2.98958 -2.77648 0
M  V30 3844 H 377.631 2.14663 -3.5622 0
M  V30 3845 H 376.208 3.1345 -2.01999 0
M  V30 3846 N 378.394 1.34581 0.820102 0
M  V30 3847 C 379.643 1.26437 1.57151 0
M  V30 3848 C 379.956 -0.163111 1.94919 0
M  V30 3849 O 381.162 -0.366722 2.69012 0
M  V30 3850 C 379.618 2.21658 2.83541 0
M  V30 3851 C 379.226 3.69679 2.53065 0
M  V30 3852 C 380.97 2.22428 3.61561 0
M  V30 3853 C 378.877 4.56761 3.75664 0
M  V30 3854 H 377.807 0.469707 0.589823 0
M  V30 3855 H 380.458 1.59763 0.902656 0
M  V30 3856 H 378.84 1.81287 3.52067 0
M  V30 3857 H 380.014 4.18605 1.92631 0
M  V30 3858 H 378.329 3.71384 1.88316 0
M  V30 3859 H 380.926 2.8471 4.52597 0
M  V30 3860 H 381.269 1.22434 3.97889 0
M  V30 3861 H 381.802 2.61259 2.99981 0
M  V30 3862 H 378.541 5.57702 3.44454 0
M  V30 3863 H 378.061 4.12568 4.35371 0
M  V30 3864 H 379.74 4.71509 4.43044 0
M  V30 3865 N 379.872 -1.04064 1.18357 0
M  V30 3866 C 380.804 -2.12114 0.868358 0
M  V30 3867 C 381.817 -1.62247 -0.134045 0
M  V30 3868 O 383.006 -1.78253 0.0937933 0
M  V30 3869 C 380.106 -3.37773 0.276132 0
M  V30 3870 C 379.279 -4.16874 1.3242 0
M  V30 3871 C 378.338 -5.20861 0.747662 0
M  V30 3872 O 377.364 -5.51141 1.42239 0
M  V30 3873 N 378.566 -5.78715 -0.454823 0
M  V30 3874 H 381.331 -2.39748 1.79836 0
M  V30 3875 H 378.892 -1.20258 1.08396 0
M  V30 3876 H 380.884 -4.04513 -0.123133 0
M  V30 3877 H 379.454 -3.07581 -0.557895 0
M  V30 3878 H 378.674 -3.45456 1.89878 0
M  V30 3879 H 379.962 -4.66516 2.03078 0
M  V30 3880 H 379.36 -5.56415 -1.02073 0
M  V30 3881 H 377.917 -6.46921 -0.79601 0
M  V30 3882 N 381.35 -0.985608 -1.22978 0
M  V30 3883 C 382.313 -0.535071 -2.22867 0
M  V30 3884 C 383.313 0.378123 -1.56291 0
M  V30 3885 O 384.503 0.171092 -1.73358 0
M  V30 3886 C 381.635 0.222702 -3.40172 0
M  V30 3887 H 382.828 -1.41835 -2.6424 0
M  V30 3888 H 380.381 -0.772042 -1.35901 0
M  V30 3889 H 381.116 1.12229 -3.04262 0
M  V30 3890 H 380.901 -0.43288 -3.89703 0
M  V30 3891 H 382.391 0.526335 -4.1427 0
M  V30 3892 N 382.828 1.3818 -0.7579 0
M  V30 3893 C 384.076 1.99624 -0.315361 0
M  V30 3894 C 384.397 1.60464 1.10799 0
M  V30 3895 O 383.667 0.863507 1.75842 0
M  V30 3896 H 382.247 0.73831 -0.113611 0
M  V30 3897 H 384.909 1.68878 -0.972952 0
M  V30 3898 H 384.005 3.09754 -0.381931 0
M  V30 3899 N 384.306 0.507319 1.49211 0
M  V30 3900 C 385.555 -0.0368315 2.01666 0
M  V30 3901 C 385.868 -1.37459 1.39156 0
M  V30 3902 O 387.074 -2.00579 1.82976 0
M  V30 3903 C 385.53 -0.116089 3.59713 0
M  V30 3904 C 385.138 1.2154 4.31198 0
M  V30 3905 C 386.882 -0.610268 4.2009 0
M  V30 3906 C 384.789 1.09796 5.81119 0
M  V30 3907 H 383.719 -0.0175376 0.753796 0
M  V30 3908 H 386.37 0.647691 1.71689 0
M  V30 3909 H 384.752 -0.8652 3.86433 0
M  V30 3910 H 385.926 1.9783 4.16173 0
M  V30 3911 H 384.241 1.64352 3.82593 0
M  V30 3912 H 386.838 -0.715742 5.29888 0
M  V30 3913 H 387.181 -1.61064 3.8388 0
M  V30 3914 H 387.714 0.0824916 3.97714 0
M  V30 3915 H 384.453 2.0728 6.21864 0
M  V30 3916 H 383.973 0.376058 5.9862 0
M  V30 3917 H 385.652 0.779281 6.4229 0
M  V30 3918 N 385.784 -1.5574 0.241426 0
M  V30 3919 C 387.014 -2.02913 -0.38857 0
M  V30 3920 C 387.422 -1.12014 -1.52478 0
M  V30 3921 O 386.765 -0.125903 -1.83268 0
M  V30 3922 C 386.827 -3.4636 -0.963075 0
M  V30 3923 C 386.491 -4.56982 0.0401916 0
M  V30 3924 C 387.488 -5.12941 0.847766 0
M  V30 3925 C 385.173 -5.0203 0.164699 0
M  V30 3926 C 387.167 -6.12437 1.76636 0
M  V30 3927 C 384.854 -6.01358 1.0868 0
M  V30 3928 C 385.852 -6.5644 1.88616 0
M  V30 3929 O 385.54 -7.53831 2.79273 0
M  V30 3930 H 385.272 -0.668983 -0.0971452 0
M  V30 3931 H 387.826 -2.02198 0.361248 0
M  V30 3932 H 386.056 -3.44206 -1.76235 0
M  V30 3933 H 387.745 -3.77065 -1.50257 0
M  V30 3934 H 388.511 -4.78974 0.762133 0
M  V30 3935 H 384.39 -4.58824 -0.447411 0
M  V30 3936 H 387.934 -6.55355 2.39071 0
M  V30 3937 H 383.831 -6.34746 1.17338 0
M  V30 3938 H 384.599 -7.71428 2.73572 0
M  V30 3939 N 387.262 0.0317525 -1.57568 0
M  V30 3940 C 388.225 1.01783 -2.0536 0
M  V30 3941 C 389.225 1.29203 -0.957253 0
M  V30 3942 O 390.415 1.24251 -1.22095 0
M  V30 3943 C 387.547 2.35137 -2.46827 0
M  V30 3944 H 388.74 0.605062 -2.93733 0
M  V30 3945 H 386.293 0.278514 -1.53799 0
M  V30 3946 H 387.028 2.81168 -1.61602 0
M  V30 3947 H 386.813 2.16566 -3.26866 0
M  V30 3948 H 388.303 3.05938 -2.84239 0
M  V30 3949 N 388.74 1.54641 0.303973 0
M  V30 3950 C 389.968 1.77768 1.05858 0
M  V30 3951 C 390.383 0.535722 1.8104 0
M  V30 3952 O 389.74 -0.494337 1.75677 0
M  V30 3953 C 389.791 2.9834 2.04146 0
M  V30 3954 O 389.512 4.17736 1.32015 0
M  V30 3955 C 391.013 3.33832 2.91669 0
M  V30 3956 H 388.233 0.592961 0.314067 0
M  V30 3957 H 390.777 2.01583 0.344149 0
M  V30 3958 H 388.932 2.76742 2.71096 0
M  V30 3959 H 389.346 4.85693 1.97998 0
M  V30 3960 H 390.82 4.21448 3.56491 0
M  V30 3961 H 391.297 2.51857 3.59812 0
M  V30 3962 H 391.903 3.57579 2.30254 0
M  V30 3963 N 390.218 -0.567019 1.47046 0
M  V30 3964 C 391.634 -0.891975 1.32348 0
M  V30 3965 C 391.834 -1.99154 0.306616 0
M  V30 3966 O 390.89 -2.50883 -0.28532 0
M  V30 3967 C 392.203 -1.29449 2.7141 0
M  V30 3968 C 393.751 -1.40646 2.79621 0
M  V30 3969 C 394.226 -1.84257 4.19301 0
M  V30 3970 N 395.717 -1.91424 4.21795 0
M  V30 3971 C 396.452 -2.26476 5.26779 0
M  V30 3972 N 395.948 -2.60211 6.42077 0
M  V30 3973 N 397.741 -2.27166 5.14152 0
M  V30 3974 H 389.892 0.159074 2.11803 0
M  V30 3975 H 392.155 0.00849752 0.947962 0
M  V30 3976 H 391.861 -0.560448 3.47206 0
M  V30 3977 H 391.735 -2.25273 3.02542 0
M  V30 3978 H 394.122 -2.13133 2.04104 0
M  V30 3979 H 394.203 -0.430339 2.52154 0
M  V30 3980 H 393.847 -1.12343 4.95319 0
M  V30 3981 H 393.777 -2.82855 4.44185 0
M  V30 3982 H 396.268 -1.6778 3.38612 0
M  V30 3983 H 396.581 -2.85956 7.17948 0
M  V30 3984 H 394.926 -2.57813 6.45413 0
M  V30 3985 H 398.117 -2.00244 4.23107 0
M  V30 3986 H 398.29 -2.54154 5.96079 0
M  V30 3987 N 391.696 -1.35014 -0.812953 0
M  V30 3988 C 392.921 -1.31187 -1.60639 0
M  V30 3989 C 393.346 0.109382 -1.87782 0
M  V30 3990 O 392.704 1.07424 -1.46047 0
M  V30 3991 C 392.752 -2.11809 -2.91838 0
M  V30 3992 O 391.856 -1.49444 -3.8437 0
M  V30 3993 H 391.197 -0.450084 -0.488181 0
M  V30 3994 H 393.727 -1.77963 -1.00947 0
M  V30 3995 H 393.737 -2.23531 -3.41318 0
M  V30 3996 H 392.412 -3.15137 -2.71407 0
M  V30 3997 H 390.989 -1.46524 -3.42907 0
M  V30 3998 N 393.175 1.03435 -1.18907 0
M  V30 3999 C 394.423 1.76394 -0.986382 0
M  V30 4000 C 394.744 1.88883 0.484567 0
M  V30 4001 O 394.014 1.41843 1.3512 0
M  V30 4002 H 392.594 0.65344 -0.361975 0
M  V30 4003 H 395.256 1.248 -1.49703 0
M  V30 4004 H 394.352 2.77424 -1.42978 0
M  V30 4005 N 394.653 0.992116 1.22453 0
M  V30 4006 C 395.901 0.666215 1.90804 0
M  V30 4007 C 396.222 -0.804152 1.77647 0
M  V30 4008 O 395.492 -1.57629 1.16318 0
M  V30 4009 H 394.072 0.243423 0.706225 0
M  V30 4010 H 396.734 1.25845 1.48825 0
M  V30 4011 H 395.83 0.928069 2.97982 0
M  V30 4012 N 396.131 -1.37776 0.765217 0
M  V30 4013 C 397.079 -2.32209 0.134798 0
M  V30 4014 C 398.073 -1.54607 -0.692315 0
M  V30 4015 O 399.279 -1.70052 -0.590109 0
M  V30 4016 H 395.654 -0.751591 0.0248005 0
M  V30 4017 H 397.625 -2.8297 0.947119 0
M  V30 4018 C 396.374 -3.39841 -0.735063 0
M  V30 4019 H 395.697 -3.99654 -0.107991 0
M  V30 4020 H 397.137 -4.08296 -1.14326 0
M  V30 4021 C 395.596 -2.79378 -1.88281 0
M  V30 4022 O 396.126 -2.69608 -2.97783 0
M  V30 4023 N 394.332 -2.37016 -1.68142 0
M  V30 4024 H 393.879 -2.45162 -0.790772 0
M  V30 4025 H 393.837 -1.96905 -2.45104 0
M  V30 4026 N 397.609 -0.515225 -1.4894 0
M  V30 4027 C 398.539 0.244628 -2.32215 0
M  V30 4028 C 399.52 0.949136 -1.41157 0
M  V30 4029 O 400.705 0.937783 -1.70057 0
M  V30 4030 C 397.835 1.30096 -3.22013 0
M  V30 4031 C 396.789 0.715486 -4.21977 0
M  V30 4032 C 396.115 1.87339 -5.00808 0
M  V30 4033 C 397.415 -0.302982 -5.2142 0
M  V30 4034 H 399.109 -0.450501 -2.95991 0
M  V30 4035 H 396.655 -0.218098 -1.42339 0
M  V30 4036 H 398.608 1.84037 -3.79089 0
M  V30 4037 H 397.332 2.02547 -2.56207 0
M  V30 4038 H 395.991 0.197715 -3.66066 0
M  V30 4039 H 395.639 2.58592 -4.31438 0
M  V30 4040 H 395.339 1.48764 -5.68457 0
M  V30 4041 H 396.863 2.41686 -5.60732 0
M  V30 4042 H 398.277 0.148802 -5.73107 0
M  V30 4043 H 396.674 -0.60532 -5.97039 0
M  V30 4044 H 397.744 -1.21395 -4.69459 0
M  V30 4045 N 399.087 1.5561 -0.249682 0
M  V30 4046 C 400.333 1.99306 0.374841 0
M  V30 4047 C 400.666 1.13767 1.57387 0
M  V30 4048 O 399.941 0.201711 1.93451 0
M  V30 4049 C 400.224 3.51507 0.781986 0
M  V30 4050 C 400.077 4.4781 -0.422629 0
M  V30 4051 C 401.396 4.08884 1.62793 0
M  V30 4052 H 398.515 0.724572 0.134773 0
M  V30 4053 H 401.157 1.86719 -0.351549 0
M  V30 4054 H 399.307 3.62363 1.4009 0
M  V30 4055 H 400.979 4.48931 -1.06108 0
M  V30 4056 H 399.222 4.20518 -1.06524 0
M  V30 4057 H 399.893 5.51919 -0.0943766 0
M  V30 4058 H 402.369 4.01147 1.10547 0
M  V30 4059 H 401.245 5.1564 1.88166 0
M  V30 4060 H 401.506 3.57515 2.60068 0
M  V30 4061 N 400.565 -0.0233959 1.57583 0
M  V30 4062 C 401.495 -1.02162 2.09965 0
M  V30 4063 C 402.476 -1.3735 1.00344 0
M  V30 4064 O 403.661 -1.46135 1.27899 0
M  V30 4065 C 400.791 -2.32081 2.58371 0
M  V30 4066 C 399.745 -2.1112 3.72307 0
M  V30 4067 C 399.071 -3.46848 4.06941 0
M  V30 4068 C 400.371 -1.49276 5.00514 0
M  V30 4069 H 402.065 -0.585557 2.93618 0
M  V30 4070 H 399.611 -0.280218 1.41247 0
M  V30 4071 H 401.564 -3.02249 2.93639 0
M  V30 4072 H 400.288 -2.77758 1.71808 0
M  V30 4073 H 398.947 -1.43384 3.37397 0
M  V30 4074 H 398.595 -3.90184 3.17436 0
M  V30 4075 H 398.295 -3.33646 4.83688 0
M  V30 4076 H 399.819 -4.18369 4.44747 0
M  V30 4077 H 401.233 -2.09368 5.33702 0
M  V30 4078 H 399.63 -1.46632 5.8191 0
M  V30 4079 H 400.7 -0.459217 4.82721 0
M  V30 4080 N 402.043 -1.548 -0.295768 0
M  V30 4081 C 403.289 -1.74588 -1.03184 0
M  V30 4082 C 403.622 -0.532962 -1.86744 0
M  V30 4083 O 402.897 0.469872 -1.88739 0
M  V30 4084 C 403.18 -3.03791 -1.93347 0
M  V30 4085 C 403.033 -4.35392 -1.12933 0
M  V30 4086 C 404.352 -3.28892 -2.92435 0
M  V30 4087 H 401.471 -0.635221 -0.373715 0
M  V30 4088 H 404.113 -1.87519 -0.30606 0
M  V30 4089 H 402.263 -2.92898 -2.55232 0
M  V30 4090 H 403.935 -4.58211 -0.532943 0
M  V30 4091 H 402.178 -4.31642 -0.432168 0
M  V30 4092 H 402.849 -5.22074 -1.79284 0
M  V30 4093 H 405.325 -3.39429 -2.4068 0
M  V30 4094 H 404.201 -4.20603 -3.52682 0
M  V30 4095 H 404.462 -2.47437 -3.6637 0
M  V30 4096 N 403.521 0.559213 -1.47345 0
M  V30 4097 C 404.769 1.31388 -1.53563 0
M  V30 4098 C 405.09 1.93985 -0.198678 0
M  V30 4099 O 404.36 1.79825 0.777167 0
M  V30 4100 H 402.94 0.487901 -0.565652 0
M  V30 4101 H 405.602 0.65315 -1.8363 0
M  V30 4102 H 404.698 2.10844 -2.30111 0
M  V30 4103 N 404.999 1.35443 0.805782 0
M  V30 4104 C 405.929 1.31095 1.93226 0
M  V30 4105 C 406.91 0.185244 1.69088 0
M  V30 4106 O 408.095 0.380332 1.90439 0
M  V30 4107 C 405.225 1.08299 3.29983 0
M  V30 4108 C 404.179 2.17519 3.68605 0
M  V30 4109 C 403.505 1.79887 5.03532 0
M  V30 4110 C 404.805 3.5949 3.78898 0
M  V30 4111 H 406.499 2.25352 1.97122 0
M  V30 4112 H 404.045 1.0848 0.946996 0
M  V30 4113 H 405.998 1.03897 4.08391 0
M  V30 4114 H 404.722 0.104885 3.26432 0
M  V30 4115 H 403.381 2.2102 2.92482 0
M  V30 4116 H 403.029 0.80693 4.96485 0
M  V30 4117 H 402.729 2.53001 5.30344 0
M  V30 4118 H 404.253 1.77011 5.84379 0
M  V30 4119 H 405.667 3.58307 4.47536 0
M  V30 4120 H 404.064 4.31371 4.1718 0
M  V30 4121 H 405.134 3.95584 2.80431 0
M  V30 4122 N 406.477 -1.02803 1.19454 0
M  V30 4123 C 407.725 -1.75869 0.995722 0
M  V30 4124 C 408.046 -1.89138 -0.474543 0
M  V30 4125 O 407.316 -1.42558 -1.34366 0
M  V30 4126 H 405.896 -0.651511 0.365435 0
M  V30 4127 H 408.558 -1.24004 1.50363 0
M  V30 4128 H 407.654 -2.76661 1.44447 0
M  V30 4129 N 407.956 -0.998596 -1.21925 0
M  V30 4130 C 409.181 -0.696015 -1.95372 0
M  V30 4131 C 409.606 0.733826 -1.73195 0
M  V30 4132 O 408.964 1.50242 -1.01474 0
M  V30 4133 C 409.012 -1.01466 -3.4603 0
M  V30 4134 O 408.116 -0.116415 -4.12236 0
M  V30 4135 H 407.457 -0.259938 -0.611006 0
M  V30 4136 H 409.987 -1.33711 -1.54863 0
M  V30 4137 H 409.997 -0.958855 -3.96573 0
M  V30 4138 H 408.672 -2.05653 -3.61497 0
M  V30 4139 H 407.249 -0.228193 -3.72201 0
M  V30 4140 N 409.434 1.37368 -0.772513 0
M  V30 4141 C 410.344 2.34053 -0.160081 0
M  V30 4142 C 411.36 1.60216 0.678728 0
M  V30 4143 O 412.536 1.92303 0.59847 0
M  V30 4144 C 409.601 3.3939 0.708182 0
M  V30 4145 C 408.662 4.29048 -0.147172 0
M  V30 4146 C 407.895 5.29354 0.679744 0
M  V30 4147 O 408.118 5.3723 1.91678 0
M  V30 4148 O 407.052 6.01835 0.0885444 0
M  V30 4149 H 410.878 2.88159 -0.959053 0
M  V30 4150 H 408.463 1.39543 -0.533685 0
M  V30 4151 H 410.345 4.03839 1.20384 0
M  V30 4152 H 409.02 2.8761 1.48533 0
M  V30 4153 H 407.927 3.67697 -0.689205 0
M  V30 4154 H 409.26 4.84134 -0.887423 0
M  V30 4155 N 410.912 0.523116 1.48665 0
M  V30 4156 C 411.845 -0.290518 2.26343 0
M  V30 4157 C 412.823 -0.950913 1.31895 0
M  V30 4158 O 414.007 -0.976662 1.61225 0
M  V30 4159 C 411.134 -1.41088 3.07915 0
M  V30 4160 C 410.18 -0.862597 4.17686 0
M  V30 4161 S 411.013 0.264135 5.34848 0
M  V30 4162 C 412.169 -0.858864 6.19979 0
M  V30 4163 H 412.402 0.368726 2.95005 0
M  V30 4164 H 409.935 0.30878 1.51281 0
M  V30 4165 H 411.893 -2.0527 3.55492 0
M  V30 4166 H 410.554 -2.04182 2.38681 0
M  V30 4167 H 409.747 -1.70287 4.74361 0
M  V30 4168 H 409.349 -0.297595 3.72814 0
M  V30 4169 H 411.641 -1.7591 6.54264 0
M  V30 4170 H 412.584 -0.330244 7.07329 0
M  V30 4171 H 412.992 -1.13617 5.52948 0
M  V30 4172 N 412.39 -1.55475 0.257931 0
M  V30 4173 C 413.618 -2.03609 -0.367559 0
M  V30 4174 C 414.033 -1.13687 -1.50734 0
M  V30 4175 O 413.39 -0.153479 -1.81853 0
M  V30 4176 C 413.441 -3.51001 -0.864908 0
M  V30 4177 O 413.162 -4.37499 0.229465 0
M  V30 4178 C 414.663 -4.14946 -1.55997 0
M  V30 4179 H 411.883 -0.665459 -0.0860521 0
M  V30 4180 H 414.427 -2.00843 0.385014 0
M  V30 4181 H 412.582 -3.54266 -1.56762 0
M  V30 4182 H 412.996 -5.24286 -0.14998 0
M  V30 4183 H 414.47 -5.19735 -1.85956 0
M  V30 4184 H 414.947 -3.6209 -2.4857 0
M  V30 4185 H 415.553 -4.15635 -0.901543 0
M  V30 4186 N 413.868 0.0150385 -1.57593 0
M  V30 4187 C 415.096 0.714395 -1.94175 0
M  V30 4188 C 415.511 1.68135 -0.858841 0
M  V30 4189 O 414.868 1.81766 0.163567 0
M  V30 4190 C 414.919 1.45933 -3.30735 0
M  V30 4191 O 414.64 0.531167 -4.34868 0
M  V30 4192 C 416.141 2.25456 -3.81686 0
M  V30 4193 H 413.361 0.199923 -0.640525 0
M  V30 4194 H 415.905 -0.0316096 -2.04476 0
M  V30 4195 H 414.06 2.15709 -3.21789 0
M  V30 4196 H 414.474 1.05509 -5.13778 0
M  V30 4197 H 415.948 2.731 -4.79709 0
M  V30 4198 H 416.425 3.07485 -3.13607 0
M  V30 4199 H 417.031 1.60727 -3.9376 0
M  V30 4200 N 415.346 1.54954 0.287554 0
M  V30 4201 C 416.592 1.75132 1.02257 0
M  V30 4202 C 416.925 0.542858 1.86458 0
M  V30 4203 O 416.2 -0.459856 1.88986 0
M  V30 4204 C 416.483 3.04812 1.91733 0
M  V30 4205 C 416.336 4.35985 1.10622 0
M  V30 4206 C 417.655 3.30438 2.90687 0
M  V30 4207 H 414.774 0.637194 0.370341 0
M  V30 4208 H 417.416 1.87678 0.296111 0
M  V30 4209 H 415.566 2.94247 2.53675 0
M  V30 4210 H 417.238 4.58487 0.508636 0
M  V30 4211 H 415.481 4.31865 0.409271 0
M  V30 4212 H 416.152 5.23017 1.76513 0
M  V30 4213 H 418.628 3.40701 2.38877 0
M  V30 4214 H 417.504 4.22467 3.50447 0
M  V30 4215 H 417.765 2.49377 3.65053 0
M  V30 4216 N 416.824 -0.551391 1.4764 0
M  V30 4217 C 418.235 -1.13349 1.48354 0
M  V30 4218 C 418.586 -1.94709 0.241432 0
M  V30 4219 O 417.711 -2.06306 -0.653205 0
M  V30 4220 C 418.306 -2.0623 2.68802 0
M  V30 4221 C 416.865 -2.597 2.72457 0
M  V30 4222 C 416.012 -1.36201 2.41546 0
M  V30 4223 H 418.963 -0.337698 1.55065 0
M  V30 4224 H 418.984 -2.90196 2.46103 0
M  V30 4225 H 418.496 -1.46987 3.59188 0
M  V30 4226 H 416.597 -3.22724 1.86225 0
M  V30 4227 H 416.71 -3.00296 3.73308 0
M  V30 4228 H 415.074 -1.67068 1.9225 0
M  V30 4229 H 415.857 -0.787425 3.34147 0
M  V30 4230 N 418.302 -1.35869 -0.798587 0
M  V30 4231 C 419.232 -1.32118 -1.92528 0
M  V30 4232 C 420.213 -0.194209 -1.68988 0
M  V30 4233 O 421.398 -0.390426 -1.90235 0
M  V30 4234 C 418.528 -1.10047 -3.29404 0
M  V30 4235 C 417.482 -2.19471 -3.67446 0
M  V30 4236 C 416.808 -1.82555 -5.02571 0
M  V30 4237 C 418.108 -3.61495 -3.76987 0
M  V30 4238 H 419.802 -2.26394 -1.95924 0
M  V30 4239 H 417.348 -1.08981 -0.94123 0
M  V30 4240 H 419.301 -1.06061 -4.07835 0
M  V30 4241 H 418.025 -0.122195 -3.26371 0
M  V30 4242 H 416.684 -2.22568 -2.91306 0
M  V30 4243 H 416.332 -0.833249 -4.9605 0
M  V30 4244 H 416.032 -2.5581 -5.28995 0
M  V30 4245 H 417.556 -1.80108 -5.83432 0
M  V30 4246 H 418.97 -3.60676 -4.4563 0
M  V30 4247 H 417.367 -4.33577 -4.14887 0
M  V30 4248 H 418.437 -3.97065 -2.78329 0
M  V30 4249 N 419.78 1.02168 -1.19998 0
M  V30 4250 C 420.71 2.12488 -0.96804 0
M  V30 4251 C 421.691 1.69799 0.101185 0
M  V30 4252 O 422.876 1.94121 -0.0552993 0
M  V30 4253 C 420.006 3.43479 -0.513776 0
M  V30 4254 C 418.96 3.99884 -1.52566 0
M  V30 4255 C 418.286 5.26582 -0.928214 0
M  V30 4256 C 419.586 4.33861 -2.90795 0
M  V30 4257 H 421.28 2.32149 -1.89069 0
M  V30 4258 H 418.826 1.11564 -0.910468 0
M  V30 4259 H 420.779 4.20036 -0.338774 0
M  V30 4260 H 419.503 3.23561 0.444493 0
M  V30 4261 H 418.162 3.25429 -1.68794 0
M  V30 4262 H 417.81 5.02986 0.0378289 0
M  V30 4263 H 417.51 5.65284 -1.60397 0
M  V30 4264 H 419.034 6.05799 -0.764167 0
M  V30 4265 H 420.448 5.01327 -2.78109 0
M  V30 4266 H 418.845 4.83664 -3.55231 0
M  V30 4267 H 419.915 3.42848 -3.42904 0
M  V30 4268 N 421.258 1.00505 1.21394 0
M  V30 4269 C 422.208 0.536503 2.21598 0
M  V30 4270 C 423.192 -0.401914 1.55799 0
M  V30 4271 O 424.384 -0.226757 1.75541 0
M  V30 4272 C 421.513 -0.135446 3.43033 0
M  V30 4273 C 420.599 0.823992 4.16018 0
M  V30 4274 N 420.99 1.97683 4.6557 0
M  V30 4275 C 419.288 0.642387 4.4135 0
M  V30 4276 C 419.989 2.58003 5.21354 0
M  V30 4277 N 418.965 1.86162 5.1073 0
M  V30 4278 H 422.767 1.41557 2.57563 0
M  V30 4279 H 420.281 0.868878 1.37202 0
M  V30 4280 H 422.278 -0.488584 4.14027 0
M  V30 4281 H 420.938 -1.01049 3.08576 0
M  V30 4282 H 421.949 2.3572 4.61147 0
M  V30 4283 H 418.626 -0.185578 4.17087 0
M  V30 4284 H 420.016 3.555 5.70149 0
M  V30 4285 N 422.737 -1.36956 0.779787 0
M  V30 4286 C 423.7 -2.2851 0.177662 0
M  V30 4287 C 424.7 -1.48393 -0.619377 0
M  V30 4288 O 425.89 -1.68505 -0.441785 0
M  V30 4289 C 423.022 -3.32428 -0.755279 0
M  V30 4290 H 424.215 -2.83269 0.984823 0
M  V30 4291 H 421.768 -1.46358 0.548544 0
M  V30 4292 H 422.503 -2.82808 -1.58714 0
M  V30 4293 H 422.288 -3.91659 -0.185817 0
M  V30 4294 H 423.778 -4.00824 -1.17174 0
M  V30 4295 N 424.215 -0.530993 -1.48385 0
M  V30 4296 C 425.178 0.220497 -2.28137 0
M  V30 4297 C 426.178 0.866851 -1.35434 0
M  V30 4298 O 427.368 0.726746 -1.58316 0
M  V30 4299 C 424.5 1.31921 -3.1434 0
M  V30 4300 H 425.693 -0.479714 -2.96038 0
M  V30 4301 H 423.246 -0.286968 -1.53643 0
M  V30 4302 H 423.981 2.05264 -2.51072 0
M  V30 4303 H 423.766 0.86085 -3.82533 0
M  V30 4304 H 425.256 1.84776 -3.74497 0
M  V30 4305 N 425.693 1.55336 -0.266172 0
M  V30 4306 C 426.942 1.98574 0.353749 0
M  V30 4307 C 427.255 1.15789 1.57646 0
M  V30 4308 O 428.461 1.49129 2.26876 0
M  V30 4309 C 426.917 3.53403 0.680747 0
M  V30 4310 C 426.525 4.44953 -0.52165 0
M  V30 4311 C 428.269 4.05251 1.26379 0
M  V30 4312 C 426.176 5.91156 -0.169736 0
M  V30 4313 H 425.106 0.741643 0.135949 0
M  V30 4314 H 427.757 1.79743 -0.369421 0
M  V30 4315 H 426.139 3.68001 1.46257 0
M  V30 4316 H 427.313 4.42121 -1.29869 0
M  V30 4317 H 425.628 4.03691 -1.02093 0
M  V30 4318 H 428.225 5.12021 1.54074 0
M  V30 4319 H 428.568 3.53749 2.19471 0
M  V30 4320 H 429.101 3.94057 0.544447 0
M  V30 4321 H 425.84 6.46736 -1.0683 0
M  V30 4322 H 425.36 5.97079 0.570717 0
M  V30 4323 H 427.039 6.4655 0.241245 0
M  V30 4324 N 427.171 -0.0066808 1.57599 0
M  V30 4325 C 428.587 -0.36267 1.55425 0
M  V30 4326 C 428.787 -1.75209 0.995187 0
M  V30 4327 O 427.843 -2.44616 0.626058 0
M  V30 4328 C 429.156 -0.244017 2.99708 0
M  V30 4329 C 430.704 -0.319451 3.11366 0
M  V30 4330 C 431.179 -0.229998 4.57422 0
M  V30 4331 N 432.67 -0.288105 4.62303 0
M  V30 4332 C 433.405 -0.242127 5.72889 0
M  V30 4333 N 432.901 -0.147133 6.92644 0
M  V30 4334 N 434.694 -0.293502 5.61333 0
M  V30 4335 H 426.845 0.902314 1.92281 0
M  V30 4336 H 429.108 0.34525 0.882896 0
M  V30 4337 H 428.814 0.711678 3.44424 0
M  V30 4338 H 428.688 -1.02877 3.629 0
M  V30 4339 H 431.075 -1.26559 2.66584 0
M  V30 4340 H 431.156 0.495055 2.50964 0
M  V30 4341 H 430.8 0.712566 5.02877 0
M  V30 4342 H 430.73 -1.0629 5.15761 0
M  V30 4343 H 433.221 -0.363126 3.76151 0
M  V30 4344 H 433.534 -0.117763 7.7271 0
M  V30 4345 H 431.879 -0.112857 6.94908 0
M  V30 4346 H 435.07 -0.365864 4.66668 0
M  V30 4347 H 435.243 -0.254204 6.47501 0
M  V30 4348 N 428.649 -1.55105 -0.279332 0
M  V30 4349 C 429.559 -1.90638 -1.36727 0
M  V30 4350 C 430.575 -0.802899 -1.54368 0
M  V30 4351 O 431.751 -1.10138 -1.68616 0
M  V30 4352 C 428.816 -2.16547 -2.70755 0
M  V30 4353 C 427.877 -3.40146 -2.61915 0
M  V30 4354 C 427.11 -3.6481 -3.8955 0
M  V30 4355 O 427.333 -2.92095 -4.89935 0
M  V30 4356 O 426.267 -4.58343 -3.90135 0
M  V30 4357 H 430.093 -2.83237 -1.09591 0
M  V30 4358 H 427.678 -1.4157 -0.477306 0
M  V30 4359 H 429.56 -2.34665 -3.50014 0
M  V30 4360 H 428.235 -1.27131 -2.9769 0
M  V30 4361 H 427.142 -3.2737 -1.81052 0
M  V30 4362 H 428.475 -4.29761 -2.3993 0
M  V30 4363 N 430.127 0.543554 -1.4793 0
M  V30 4364 C 431.373 1.30201 -1.55485 0
M  V30 4365 C 431.706 1.92925 -0.222201 0
M  V30 4366 O 430.981 1.78586 0.77053 0
M  V30 4367 C 431.264 2.40174 -2.68307 0
M  V30 4368 C 431.117 1.8223 -4.11233 0
M  V30 4369 C 432.436 3.42024 -2.76961 0
M  V30 4370 H 429.555 0.472036 -0.565996 0
M  V30 4371 H 432.197 0.606914 -1.80046 0
M  V30 4372 H 430.347 2.99463 -2.47495 0
M  V30 4373 H 432.019 1.27096 -4.43446 0
M  V30 4374 H 430.262 1.12832 -4.18869 0
M  V30 4375 H 430.933 2.61793 -4.85972 0
M  V30 4376 H 433.409 2.92672 -2.95774 0
M  V30 4377 H 432.285 4.16383 -3.57654 0
M  V30 4378 H 432.546 4.0173 -1.84568 0
M  V30 4379 N 431.605 1.3629 0.791371 0
M  V30 4380 C 432.882 1.20962 1.53712 0
M  V30 4381 C 433.262 -0.205021 2.10102 0
M  V30 4382 O 432.61 -1.21042 1.93807 0
M  V30 4383 C 432.82 2.29002 2.63361 0
M  V30 4384 C 434.168 2.65572 3.31295 0
M  V30 4385 O 435.192 2.2803 2.73643 0
M  V30 4386 O 434.051 3.3018 4.35481 0
M  V30 4387 H 431.145 0.47086 0.679867 0
M  V30 4388 H 433.691 1.48016 0.830021 0
M  V30 4389 H 432.463 3.2382 2.19674 0
M  V30 4390 H 432.086 2.03303 3.41692 0
M  V30 4391 N 433.083 -1.0153 1.20538 0
M  V30 4392 C 434.332 -1.74558 1.01057 0
M  V30 4393 C 434.645 -1.90168 -0.457756 0
M  V30 4394 O 435.851 -2.60301 -0.771722 0
M  V30 4395 C 434.307 -3.13963 1.75941 0
M  V30 4396 C 433.915 -3.06361 3.26875 0
M  V30 4397 C 435.659 -3.91191 1.64832 0
M  V30 4398 C 433.566 -4.40782 3.94291 0
M  V30 4399 H 432.496 -0.654417 0.374505 0
M  V30 4400 H 435.147 -1.13521 1.44171 0
M  V30 4401 H 433.529 -3.75549 1.25614 0
M  V30 4402 H 434.703 -2.54074 3.84425 0
M  V30 4403 H 433.018 -2.42625 3.38411 0
M  V30 4404 H 435.615 -4.90644 2.12539 0
M  V30 4405 H 435.958 -4.11884 0.604745 0
M  V30 4406 H 436.491 -3.36236 2.12579 0
M  V30 4407 H 433.23 -4.25292 4.98805 0
M  V30 4408 H 432.75 -4.9307 3.41529 0
M  V30 4409 H 434.429 -5.09621 3.98617 0
M  V30 4410 N 434.561 -1.01147 -1.20859 0
M  V30 4411 C 435.508 -0.577354 -2.23462 0
M  V30 4412 C 436.478 0.399922 -1.61214 0
M  V30 4413 O 437.663 0.300515 -1.88419 0
M  V30 4414 C 434.803 0.083372 -3.44999 0
M  V30 4415 C 433.916 -0.937856 -4.21697 0
M  V30 4416 C 433.051 -0.248717 -5.30617 0
M  V30 4417 C 432.09 -1.25705 -5.99053 0
M  V30 4418 N 431.227 -0.594939 -6.99575 0
M  V30 4419 H 436.067 -1.45695 -2.59956 0
M  V30 4420 H 433.604 -0.729428 -1.27741 0
M  V30 4421 H 435.562 0.483535 -4.14388 0
M  V30 4422 H 434.192 0.926645 -3.09214 0
M  V30 4423 H 433.244 -1.45622 -3.51423 0
M  V30 4424 H 434.556 -1.70493 -4.68757 0
M  V30 4425 H 433.71 0.207215 -6.06346 0
M  V30 4426 H 432.449 0.55071 -4.84581 0
M  V30 4427 H 431.454 -1.72343 -5.2209 0
M  V30 4428 H 432.679 -2.05767 -6.47176 0
M  V30 4429 H 430.625 0.184713 -6.5574 0
M  V30 4430 H 430.542 -1.30017 -7.44736 0
M  V30 4431 H 431.81 -0.162427 -7.79331 0
M  V30 4432 N 436.039 1.36541 -0.78704 0
M  V30 4433 C 437.287 1.98911 -0.357633 0
M  V30 4434 C 437.608 1.62778 1.07371 0
M  V30 4435 O 436.878 0.900612 1.73971 0
M  V30 4436 H 435.458 0.735734 -0.129246 0
M  V30 4437 H 438.12 1.66776 -1.00855 0
M  V30 4438 H 437.216 3.08874 -0.447549 0
M  V30 4439 N 437.518 0.538854 1.48102 0
M  V30 4440 C 438.764 0.00801365 2.02798 0
M  V30 4441 C 439.097 -1.3309 1.41424 0
M  V30 4442 O 438.372 -1.86169 0.563158 0
M  V30 4443 C 438.655 -0.104589 3.59948 0
M  V30 4444 C 438.508 1.26012 4.31788 0
M  V30 4445 C 439.827 -0.827055 4.32259 0
M  V30 4446 H 436.946 0.00438624 0.736987 0
M  V30 4447 H 439.588 0.6976 1.7673 0
M  V30 4448 H 437.738 -0.691893 3.82289 0
M  V30 4449 H 439.41 1.88922 4.2084 0
M  V30 4450 H 437.653 1.83968 3.92859 0
M  V30 4451 H 438.324 1.13424 5.40221 0
M  V30 4452 H 440.8 -0.328578 4.14801 0
M  V30 4453 H 439.676 -0.87476 5.41885 0
M  V30 4454 H 439.937 -1.87927 4.0017 0
M  V30 4455 N 438.996 -1.55193 0.274407 0
M  V30 4456 C 440.243 -1.99581 -0.342579 0
M  V30 4457 C 440.571 -1.1628 -1.55914 0
M  V30 4458 O 439.826 -0.22029 -1.94456 0
M  V30 4459 C 440.125 -3.49019 -0.769458 0
M  V30 4460 C 439.791 -4.49598 0.342389 0
M  V30 4461 C 438.453 -4.76821 0.647686 0
M  V30 4462 C 440.805 -5.0964 1.09163 0
M  V30 4463 C 438.133 -5.61354 1.70581 0
M  V30 4464 C 440.485 -5.95323 2.13948 0
M  V30 4465 C 439.149 -6.20867 2.45113 0
M  V30 4466 H 438.419 -0.730319 -0.125358 0
M  V30 4467 H 441.066 -1.87529 0.387971 0
M  V30 4468 H 439.371 -3.58544 -1.57967 0
M  V30 4469 H 441.068 -3.8077 -1.25757 0
M  V30 4470 H 437.658 -4.28496 0.094318 0
M  V30 4471 H 441.842 -4.88632 0.869024 0
M  V30 4472 H 437.098 -5.79392 1.9523 0
M  V30 4473 H 441.272 -6.40881 2.72478 0
M  V30 4474 H 438.899 -6.86162 3.27239 0
M  V30 4475 N 440.474 -0.00167713 -1.576 0
M  V30 4476 C 441.89 0.354422 -1.55615 0
M  V30 4477 C 442.09 1.74679 -1.00447 0
M  V30 4478 O 441.146 2.4428 -0.639022 0
M  V30 4479 C 442.459 0.22812 -2.99833 0
M  V30 4480 C 444.007 0.302934 -3.11531 0
M  V30 4481 C 444.482 0.205737 -4.57538 0
M  V30 4482 N 445.973 0.263584 -4.62449 0
M  V30 4483 C 446.708 0.211742 -5.73009 0
M  V30 4484 N 446.204 0.110399 -6.92712 0
M  V30 4485 N 447.997 0.263729 -5.61481 0
M  V30 4486 H 440.148 -0.912498 -1.918 0
M  V30 4487 H 442.411 -0.349928 -0.881053 0
M  V30 4488 H 442.117 -0.729934 -3.44042 0
M  V30 4489 H 441.991 1.00951 -3.6344 0
M  V30 4490 H 444.378 1.25143 -2.67251 0
M  V30 4491 H 444.459 -0.508357 -2.50698 0
M  V30 4492 H 444.103 -0.739225 -5.02492 0
M  V30 4493 H 444.033 1.03554 -5.16318 0
M  V30 4494 H 446.524 0.343173 -3.76339 0
M  V30 4495 H 446.837 0.0767828 -7.72762 0
M  V30 4496 H 445.182 0.0760025 -6.94958 0
M  V30 4497 H 448.373 0.34111 -4.66855 0
M  V30 4498 H 448.546 0.219862 -6.47627 0
M  V30 4499 N 441.952 1.55251 0.271103 0
M  V30 4500 C 443.182 1.79713 1.01916 0
M  V30 4501 C 443.59 0.571613 1.80359 0
M  V30 4502 O 442.933 -0.468853 1.77616 0
M  V30 4503 C 442.995 2.97138 2.02359 0
M  V30 4504 C 442.659 4.34104 1.42837 0
M  V30 4505 C 443.656 5.13019 0.843071 0
M  V30 4506 C 441.341 4.80765 1.455 0
M  V30 4507 C 443.335 6.36729 0.292333 0
M  V30 4508 C 441.022 6.0443 0.900402 0
M  V30 4509 C 442.02 6.8225 0.32007 0
M  V30 4510 O 441.708 8.03582 -0.226031 0
M  V30 4511 H 441.44 0.602431 0.306681 0
M  V30 4512 H 443.994 2.03097 0.306701 0
M  V30 4513 H 442.224 2.6945 2.77369 0
M  V30 4514 H 443.913 3.08907 2.63309 0
M  V30 4515 H 444.679 4.781 0.815178 0
M  V30 4516 H 440.558 4.20202 1.89609 0
M  V30 4517 H 444.102 6.97414 -0.161274 0
M  V30 4518 H 439.999 6.3883 0.925541 0
M  V30 4519 H 440.767 8.18418 -0.115572 0
M  V30 4520 N 443.43 -0.535701 1.48216 0
M  V30 4521 C 444.67 -1.30238 1.57536 0
M  V30 4522 C 445.034 -1.90479 0.241229 0
M  V30 4523 O 446.235 -2.67983 0.20938 0
M  V30 4524 C 444.506 -2.3669 2.67792 0
M  V30 4525 S 446.065 -3.23159 2.9684 0
M  V30 4526 H 442.883 -0.443093 0.556048 0
M  V30 4527 H 445.485 -0.610937 1.85709 0
M  V30 4528 H 444.189 -1.90905 3.63296 0
M  V30 4529 H 443.72 -3.10548 2.41502 0
M  V30 4530 H 445.735 -4.36647 2.35699 0
M  V30 4531 N 444.908 -1.36708 -0.784132 0
M  V30 4532 C 445.856 -1.31533 -1.91838 0
M  V30 4533 C 446.85 -0.206205 -1.6814 0
M  V30 4534 O 448.056 -0.373519 -1.76082 0
M  V30 4535 H 444.431 -0.409613 -0.630651 0
M  V30 4536 H 446.402 -2.2731 -1.9332 0
M  V30 4537 C 445.151 -1.12679 -3.28936 0
M  V30 4538 H 444.474 -1.97274 -3.4774 0
M  V30 4539 H 445.914 -1.13106 -4.08636 0
M  V30 4540 C 444.373 0.168281 -3.36479 0
M  V30 4541 O 444.903 1.15625 -3.84699 0
M  V30 4542 N 443.109 0.214762 -2.89805 0
M  V30 4543 H 442.656 -0.589852 -2.50756 0
M  V30 4544 H 442.614 1.08094 -2.95234 0
M  V30 4545 N 446.386 1.0089 -1.21074 0
M  V30 4546 C 447.614 1.78191 -1.05145 0
M  V30 4547 C 448.029 1.84537 0.398952 0
M  V30 4548 O 447.386 1.30393 1.27687 0
M  V30 4549 C 447.437 3.22288 -1.63746 0
M  V30 4550 O 447.158 3.16315 -3.03111 0
M  V30 4551 C 448.659 4.16106 -1.52875 0
M  V30 4552 H 445.879 0.560129 -0.369454 0
M  V30 4553 H 448.423 1.26945 -1.60328 0
M  V30 4554 H 446.578 3.70655 -1.12664 0
M  V30 4555 H 446.992 4.06817 -3.31059 0
M  V30 4556 H 448.466 5.15026 -1.98626 0
M  V30 4557 H 448.943 4.36541 -0.482521 0
M  V30 4558 H 449.549 3.73625 -2.03185 0
M  V30 4559 N 447.864 1.01787 1.20321 0
M  V30 4560 C 449.11 0.718699 1.90279 0
M  V30 4561 C 449.465 -0.743669 1.77447 0
M  V30 4562 O 448.758 -1.53345 1.14874 0
M  V30 4563 C 448.952 1.09076 3.40349 0
M  V30 4564 C 448.781 2.58775 3.67784 0
M  V30 4565 C 447.551 3.25578 3.86428 0
M  V30 4566 C 449.749 3.56966 3.70243 0
M  V30 4567 N 447.731 4.64495 4.01395 0
M  V30 4568 C 449.102 4.8145 3.90649 0
M  V30 4569 C 451.157 3.5092 3.53213 0
M  V30 4570 C 449.86 6.00619 3.95789 0
M  V30 4571 C 451.886 4.69493 3.59625 0
M  V30 4572 C 451.248 5.92786 3.80505 0
M  V30 4573 H 447.347 0.31468 0.715891 0
M  V30 4574 H 449.931 1.30295 1.44677 0
M  V30 4575 H 448.102 0.534839 3.847 0
M  V30 4576 H 449.834 0.744997 3.97784 0
M  V30 4577 H 446.589 2.76003 3.84862 0
M  V30 4578 H 447.013 5.36624 4.12752 0
M  V30 4579 H 451.655 2.56593 3.36035 0
M  V30 4580 H 449.373 6.95326 4.11762 0
M  V30 4581 H 452.959 4.66432 3.47754 0
M  V30 4582 H 451.839 6.83003 3.85327 0
M  V30 4583 N 449.342 -1.36122 0.79427 0
M  V30 4584 C 450.753 -1.81646 0.431446 0
M  V30 4585 C 451.104 -1.66043 -1.04518 0
M  V30 4586 O 450.229 -1.1841 -1.8113 0
M  V30 4587 C 450.824 -3.29785 0.776341 0
M  V30 4588 C 449.383 -3.73501 0.466282 0
M  V30 4589 C 448.53 -2.58313 1.00844 0
M  V30 4590 H 451.481 -1.24274 0.986995 0
M  V30 4591 H 451.502 -3.80437 0.0692413 0
M  V30 4592 H 451.014 -3.4111 1.8511 0
M  V30 4593 H 449.115 -3.67733 -0.600245 0
M  V30 4594 H 449.228 -4.68754 0.990288 0
M  V30 4595 H 447.592 -2.5102 0.431406 0
M  V30 4596 H 448.375 -2.72421 2.08906 0
M  V30 4597 N 450.82 -0.546701 -1.47814 0
M  V30 4598 C 452.066 -0.0187684 -2.02791 0
M  V30 4599 C 452.399 1.32338 -1.42128 0
M  V30 4600 O 451.674 1.85867 -0.573023 0
M  V30 4601 C 451.957 0.0854985 -3.59998 0
M  V30 4602 C 451.81 -1.283 -4.31114 0
M  V30 4603 C 453.129 0.80412 -4.32691 0
M  V30 4604 H 450.248 -0.0082946 -0.736953 0
M  V30 4605 H 452.89 -0.706962 -1.76358 0
M  V30 4606 H 451.04 0.671609 -3.82651 0
M  V30 4607 H 452.712 -1.91151 -4.19832 0
M  V30 4608 H 450.955 -1.86049 -3.91878 0
M  V30 4609 H 451.626 -1.16287 -5.39612 0
M  V30 4610 H 454.102 0.306576 -4.14969 0
M  V30 4611 H 452.978 0.846011 -5.42341 0
M  V30 4612 H 453.239 1.85802 -4.01161 0
M  V30 4613 N 452.299 1.55045 -0.282633 0
M  V30 4614 C 453.262 2.21515 0.588539 0
M  V30 4615 C 454.262 1.19535 1.07554 0
M  V30 4616 O 455.452 1.44391 0.974514 0
M  V30 4617 C 452.584 2.88704 1.8128 0
M  V30 4618 H 453.777 2.99899 0.00806397 0
M  V30 4619 H 451.33 1.56265 -0.0333067 0
M  V30 4620 H 452.065 2.14352 2.43359 0
M  V30 4621 H 451.85 3.63443 1.47144 0
M  V30 4622 H 453.34 3.39465 2.43214 0
M  V30 4623 N 453.777 0.010035 1.57597 0
M  V30 4624 C 455.026 -0.671945 1.90178 0
M  V30 4625 C 455.339 -1.74376 0.886131 0
M  V30 4626 O 456.545 -2.48107 1.10252 0
M  V30 4627 C 455.001 -1.24636 3.3763 0
M  V30 4628 C 454.609 -0.208838 4.47513 0
M  V30 4629 C 456.353 -1.90595 3.79307 0
M  V30 4630 C 454.26 -0.793814 5.86048 0
M  V30 4631 H 453.19 -0.25474 0.709665 0
M  V30 4632 H 455.841 0.0722206 1.83358 0
M  V30 4633 H 454.223 -2.04152 3.3932 0
M  V30 4634 H 455.397 0.562463 4.57354 0
M  V30 4635 H 453.712 0.350889 4.14919 0
M  V30 4636 H 456.309 -2.35284 4.80151 0
M  V30 4637 H 456.652 -2.74074 3.13352 0
M  V30 4638 H 457.185 -1.17798 3.79958 0
M  V30 4639 H 453.924 0.00240855 6.555 0
M  V30 4640 H 453.444 -1.53404 5.79851 0
M  V30 4641 H 455.123 -1.2894 6.34022 0
M  V30 4642 N 455.255 -1.55392 -0.262866 0
M  V30 4643 C 456.48 -1.80847 -1.01533 0
M  V30 4644 C 456.905 -0.584946 -1.78774 0
M  V30 4645 O 456.263 0.465701 -1.75217 0
M  V30 4646 C 456.311 -3.03866 -1.94159 0
M  V30 4647 O 455.415 -2.79662 -3.03089 0
M  V30 4648 H 454.756 -0.597441 -0.289759 0
M  V30 4649 H 457.286 -2.02553 -0.288698 0
M  V30 4650 H 457.296 -3.32872 -2.35924 0
M  V30 4651 H 455.971 -3.92564 -1.37354 0
M  V30 4652 H 454.548 -2.61781 -2.65566 0
M  V30 4653 N 456.733 0.527833 -1.48498 0
M  V30 4654 C 457.666 1.64892 -1.57753 0
M  V30 4655 C 458.644 1.5687 -0.427867 0
M  V30 4656 O 459.828 1.77311 -0.639764 0
M  V30 4657 C 456.955 3.03301 -1.50752 0
M  V30 4658 C 456.001 3.29675 -2.70586 0
M  V30 4659 S 456.834 3.15712 -4.32535 0
M  V30 4660 C 457.99 4.56564 -4.28136 0
M  V30 4661 H 458.223 1.56792 -2.52594 0
M  V30 4662 H 455.756 0.710959 -1.37057 0
M  V30 4663 H 457.714 3.83123 -1.474 0
M  V30 4664 H 456.375 3.08839 -0.572454 0
M  V30 4665 H 455.568 4.3065 -2.61833 0
M  V30 4666 H 455.17 2.57526 -2.71212 0
M  V30 4667 H 457.462 5.48126 -3.98201 0
M  V30 4668 H 458.405 4.70371 -5.29298 0
M  V30 4669 H 458.813 4.35987 -3.58574 0
M  V30 4670 N 458.211 1.37122 0.776871 0
M  V30 4671 C 459.141 1.35164 1.90402 0
M  V30 4672 C 460.122 0.221069 1.68657 0
M  V30 4673 O 461.307 0.420642 1.8959 0
M  V30 4674 C 458.437 1.15274 3.27611 0
M  V30 4675 C 457.391 2.25289 3.63908 0
M  V30 4676 C 456.717 1.90527 4.99603 0
M  V30 4677 C 458.017 3.67446 3.71188 0
M  V30 4678 H 459.711 2.29482 1.92297 0
M  V30 4679 H 457.257 1.10465 0.923773 0
M  V30 4680 H 459.21 1.12536 4.06096 0
M  V30 4681 H 457.934 0.174102 3.26136 0
M  V30 4682 H 456.593 2.27174 2.87728 0
M  V30 4683 H 456.241 0.91206 4.94662 0
M  V30 4684 H 455.941 2.64193 5.24858 0
M  V30 4685 H 457.465 1.89367 5.80493 0
M  V30 4686 H 458.879 3.67719 4.39836 0
M  V30 4687 H 457.276 4.40123 4.07936 0
M  V30 4688 H 458.346 4.01443 2.71977 0
M  V30 4689 N 459.689 -1.00246 1.21608 0
M  V30 4690 C 460.652 -2.07233 0.979133 0
M  V30 4691 C 461.652 -1.6072 -0.0508219 0
M  V30 4692 O 462.842 -1.73196 0.186712 0
M  V30 4693 C 459.974 -3.37546 0.477016 0
M  V30 4694 H 461.167 -2.29687 1.92831 0
M  V30 4695 H 458.72 -1.17261 1.03342 0
M  V30 4696 H 459.455 -3.20773 -0.476966 0
M  V30 4697 H 459.24 -3.72638 1.21997 0
M  V30 4698 H 460.73 -4.16285 0.331181 0
M  V30 4699 N 461.167 -1.02423 -1.1978 0
M  V30 4700 C 462.392 -0.7373 -1.93852 0
M  V30 4701 C 462.817 0.696923 -1.74713 0
M  V30 4702 O 462.175 1.48056 -1.04638 0
M  V30 4703 C 462.223 -1.08783 -3.438 0
M  V30 4704 O 461.327 -0.20383 -4.11896 0
M  V30 4705 H 460.668 -0.27284 -0.605355 0
M  V30 4706 H 463.198 -1.36966 -1.51992 0
M  V30 4707 H 463.208 -1.04276 -3.9445 0
M  V30 4708 H 461.883 -2.13274 -3.57053 0
M  V30 4709 H 460.46 -0.307091 -3.71633 0
M  V30 4710 N 462.645 1.35699 -0.801477 0
M  V30 4711 C 463.592 2.29876 -0.206294 0
M  V30 4712 C 464.562 1.52565 0.656752 0
M  V30 4713 O 465.747 1.81024 0.602906 0
M  V30 4714 C 462.887 3.39052 0.643272 0
M  V30 4715 C 462 4.31335 -0.239644 0
M  V30 4716 C 461.135 5.27599 0.61744 0
M  V30 4717 C 460.174 6.11521 -0.26619 0
M  V30 4718 N 459.311 6.99938 0.550571 0
M  V30 4719 H 464.151 2.80187 -1.01484 0
M  V30 4720 H 461.688 1.37902 -0.511997 0
M  V30 4721 H 463.646 4.0101 1.15094 0
M  V30 4722 H 462.276 2.9003 1.41713 0
M  V30 4723 H 461.328 3.70426 -0.865381 0
M  V30 4724 H 462.64 4.90243 -0.919985 0
M  V30 4725 H 461.794 5.94906 1.19045 0
M  V30 4726 H 460.533 4.69176 1.33137 0
M  V30 4727 H 459.538 5.43166 -0.851507 0
M  V30 4728 H 460.763 6.72022 -0.9779 0
M  V30 4729 H 458.709 6.44008 1.24856 0
M  V30 4730 H 458.626 7.55966 -0.071832 0
M  V30 4731 H 459.894 7.71599 1.10702 0
M  V30 4732 N 464.123 0.554532 1.47522 0
M  V30 4733 C 465.348 0.0322661 2.07375 0
M  V30 4734 C 465.773 -1.25079 1.40488 0
M  V30 4735 O 465.131 -1.74859 0.47896 0
M  V30 4736 C 465.179 -0.149397 3.6029 0
M  V30 4737 O 464.283 -1.21259 3.9417 0
M  V30 4738 H 463.624 0.0501228 0.662106 0
M  V30 4739 H 466.154 0.769452 1.8958 0
M  V30 4740 H 466.164 -0.364437 4.06369 0
M  V30 4741 H 464.839 0.787743 4.08372 0
M  V30 4742 H 463.416 -0.97825 3.5984 0
M  V30 4743 N 465.601 -1.54893 0.290851 0
M  V30 4744 C 466.847 -2.0023 -0.321867 0
M  V30 4745 C 467.18 -1.179 -1.54316 0
M  V30 4746 O 466.455 -0.25293 -1.92848 0
M  V30 4747 C 466.738 -3.53456 -0.688515 0
M  V30 4748 C 466.591 -4.46532 0.541209 0
M  V30 4749 C 467.91 -4.13057 -1.51895 0
M  V30 4750 H 465.029 -0.727891 -0.115515 0
M  V30 4751 H 467.671 -1.85722 0.400931 0
M  V30 4752 H 465.821 -3.6595 -1.30433 0
M  V30 4753 H 467.493 -4.4596 1.17973 0
M  V30 4754 H 465.736 -4.17545 1.17636 0
M  V30 4755 H 466.407 -5.51475 0.240675 0
M  V30 4756 H 468.883 -4.03937 -0.99872 0
M  V30 4757 H 467.759 -5.20448 -1.74429 0
M  V30 4758 H 468.02 -3.64284 -2.50498 0
M  V30 4759 N 467.08 -0.0183926 -1.57589 0
M  V30 4760 C 468.028 0.985111 -2.10709 0
M  V30 4761 C 469.022 1.34397 -1.0312 0
M  V30 4762 O 470.228 1.32746 -1.21567 0
M  V30 4763 H 466.603 0.335418 -0.673052 0
M  V30 4764 H 468.574 0.511689 -2.9398 0
M  V30 4765 C 467.323 2.26202 -2.64061 0
M  V30 4766 H 466.646 1.9946 -3.4649 0
M  V30 4767 H 468.086 2.94652 -3.04887 0
M  V30 4768 C 466.545 2.98444 -1.5631 0
M  V30 4769 O 467.075 3.90142 -0.956674 0
M  V30 4770 N 465.281 2.6059 -1.28612 0
M  V30 4771 H 464.828 1.86101 -1.78112 0
M  V30 4772 H 464.786 3.09238 -0.567406 0
M  V30 4773 N 468.558 1.5553 0.254621 0
M  V30 4774 C 469.804 1.77262 0.985193 0
M  V30 4775 C 470.137 0.582286 1.85265 0
M  V30 4776 O 469.412 -0.419666 1.89919 0
M  V30 4777 C 469.695 3.0881 1.85225 0
M  V30 4778 C 469.548 4.38233 1.0135 0
M  V30 4779 C 470.867 3.3653 2.83612 0
M  V30 4780 H 467.986 0.644906 0.356742 0
M  V30 4781 H 470.628 1.88264 0.256236 0
M  V30 4782 H 468.778 2.99562 2.47376 0
M  V30 4783 H 470.45 4.59463 0.411269 0
M  V30 4784 H 468.693 4.32636 0.317574 0
M  V30 4785 H 469.364 5.26644 1.65379 0
M  V30 4786 H 471.84 3.45691 2.31596 0
M  V30 4787 H 470.716 4.29805 3.41407 0
M  V30 4788 H 470.977 2.57064 3.59681 0
M  V30 4789 N 470.036 -0.519951 1.48776 0
M  V30 4790 C 470.983 -1.62352 1.64044 0
M  V30 4791 C 471.953 -1.58945 0.482251 0
M  V30 4792 O 473.138 -1.77219 0.706971 0
M  V30 4793 C 470.278 -3.00579 1.69547 0
M  V30 4794 C 469.391 -3.14145 2.96541 0
M  V30 4795 C 468.526 -4.42991 2.93142 0
M  V30 4796 C 467.565 -4.50122 4.14797 0
M  V30 4797 N 466.702 -5.7037 4.09418 0
M  V30 4798 H 471.542 -1.48643 2.58281 0
M  V30 4799 H 469.079 -0.723516 1.28077 0
M  V30 4800 H 471.037 -3.80671 1.70719 0
M  V30 4801 H 469.667 -3.13036 0.787918 0
M  V30 4802 H 468.719 -2.27239 3.05068 0
M  V30 4803 H 470.031 -3.15275 3.86527 0
M  V30 4804 H 469.185 -5.31385 2.92772 0
M  V30 4805 H 467.924 -4.44398 2.00902 0
M  V30 4806 H 466.929 -3.60133 4.15433 0
M  V30 4807 H 468.154 -4.50445 5.08208 0
M  V30 4808 H 466.1 -5.72655 3.20004 0
M  V30 4809 H 466.017 -5.73036 4.93119 0
M  V30 4810 H 467.285 -6.61023 4.13121 0
M  V30 4811 N 471.514 -1.37532 -0.769588 0
M  V30 4812 C 472.925 -1.29382 -1.346 0
M  V30 4813 C 473.276 0.0576039 -1.96115 0
M  V30 4814 O 472.401 0.95947 -1.93967 0
M  V30 4815 C 472.996 -2.34298 -2.44724 0
M  V30 4816 C 471.555 -2.29776 -2.98128 0
M  V30 4817 C 470.702 -2.18013 -1.71364 0
M  V30 4818 H 473.653 -1.48123 -0.56968 0
M  V30 4819 H 473.674 -1.99089 -3.24259 0
M  V30 4820 H 473.186 -3.32645 -1.99922 0
M  V30 4821 H 471.287 -1.34959 -3.47299 0
M  V30 4822 H 471.4 -3.23276 -3.53595 0
M  V30 4823 H 469.764 -1.64595 -1.94372 0
M  V30 4824 H 470.547 -3.18278 -1.28662 0
M  V30 4825 N 472.992 0.995999 -1.22138 0
M  V30 4826 C 473.922 2.10387 -1.01289 0
M  V30 4827 C 474.903 1.69975 0.0651454 0
M  V30 4828 O 476.088 1.9396 -0.0964628 0
M  V30 4829 C 473.218 3.42312 -0.586517 0
M  V30 4830 C 472.172 3.96558 -1.61014 0
M  V30 4831 C 471.498 5.24494 -1.0397 0
M  V30 4832 C 472.798 4.27595 -2.99933 0
M  V30 4833 H 474.492 2.28086 -1.93951 0
M  V30 4834 H 472.038 1.09607 -0.933928 0
M  V30 4835 H 473.991 4.19223 -0.427793 0
M  V30 4836 H 472.715 3.24431 0.375761 0
M  V30 4837 H 471.374 3.21776 -1.75658 0
M  V30 4838 H 471.022 5.02953 -0.0688703 0
M  V30 4839 H 470.722 5.61755 -1.72352 0
M  V30 4840 H 472.246 6.04042 -0.892494 0
M  V30 4841 H 473.66 4.95315 -2.8868 0
M  V30 4842 H 472.057 4.76021 -3.6541 0
M  V30 4843 H 473.127 3.35498 -3.50099 0
M  V30 4844 N 474.47 1.03057 1.19235 0
M  V30 4845 C 475.716 0.729098 1.89241 0
M  V30 4846 C 476.049 -0.740573 1.79525 0
M  V30 4847 O 475.324 -1.53946 1.18874 0
M  V30 4848 C 475.607 1.18304 3.40112 0
M  V30 4849 C 475.46 2.71406 3.5869 0
M  V30 4850 C 476.779 0.765161 4.33397 0
M  V30 4851 H 473.898 0.266338 0.687192 0
M  V30 4852 H 476.54 1.28079 1.40341 0
M  V30 4853 H 474.69 0.713672 3.81889 0
M  V30 4854 H 476.362 3.26303 3.26074 0
M  V30 4855 H 474.605 3.11717 3.01687 0
M  V30 4856 H 475.276 2.98225 4.64506 0
M  V30 4857 H 477.752 1.16889 3.99345 0
M  V30 4858 H 476.628 1.11065 5.37546 0
M  V30 4859 H 476.889 -0.332372 4.40849 0
M  V30 4860 N 475.948 -1.35272 0.808662 0
M  V30 4861 C 477.176 -2.02946 0.402537 0
M  V30 4862 C 477.591 -1.60937 -0.987147 0
M  V30 4863 O 476.948 -0.807917 -1.63643 0
M  V30 4864 C 476.999 -3.58317 0.47868 0
M  V30 4865 O 476.72 -3.98799 1.81358 0
M  V30 4866 C 478.221 -4.43251 0.0656281 0
M  V30 4867 H 475.441 -0.650831 0.163279 0
M  V30 4868 H 477.985 -1.72849 1.09286 0
M  V30 4869 H 476.14 -3.87055 -0.163415 0
M  V30 4870 H 476.554 -4.93451 1.77781 0
M  V30 4871 H 478.028 -5.51738 0.170017 0
M  V30 4872 H 478.505 -4.27913 -0.989278 0
M  V30 4873 H 479.111 -4.19813 0.68096 0
M  V30 4874 N 477.426 -0.562348 -1.47226 0
M  V30 4875 C 478.376 0.202967 -2.27095 0
M  V30 4876 C 479.36 0.880611 -1.34663 0
M  V30 4877 O 480.552 0.778069 -1.58981 0
M  V30 4878 C 477.681 1.22906 -3.20545 0
M  V30 4879 C 476.767 0.554566 -4.20459 0
M  V30 4880 N 477.158 -0.378295 -5.04383 0
M  V30 4881 C 475.456 0.807854 -4.38623 0
M  V30 4882 C 476.157 -0.770583 -5.76573 0
M  V30 4883 N 475.133 -0.124263 -5.43458 0
M  V30 4884 H 478.935 -0.514196 -2.89367 0
M  V30 4885 H 476.449 -0.382655 -1.57827 0
M  V30 4886 H 478.446 1.79134 -3.76453 0
M  V30 4887 H 477.106 1.94726 -2.59831 0
M  V30 4888 H 478.117 -0.75274 -5.124 0
M  V30 4889 H 474.794 1.51418 -3.89075 0
M  V30 4890 H 476.184 -1.53742 -6.54074 0
M  V30 4891 N 478.904 1.54736 -0.299062 0
M  V30 4892 C 480.32 1.59507 0.0543849 0
M  V30 4893 C 480.52 1.31606 1.52585 0
M  V30 4894 O 479.576 1.08853 2.27832 0
M  V30 4895 C 480.889 2.98751 -0.34181 0
M  V30 4896 C 482.437 3.1165 -0.290414 0
M  V30 4897 C 482.912 4.53199 -0.661402 0
M  V30 4898 N 484.403 4.59114 -0.613863 0
M  V30 4899 C 485.138 5.66709 -0.873417 0
M  V30 4900 N 484.634 6.82349 -1.19884 0
M  V30 4901 N 486.427 5.56369 -0.800608 0
M  V30 4902 H 478.578 1.71133 -1.25806 0
M  V30 4903 H 480.841 0.799186 -0.509908 0
M  V30 4904 H 480.547 3.24085 -1.36608 0
M  V30 4905 H 480.421 3.75961 0.305508 0
M  V30 4906 H 482.808 2.86066 0.724605 0
M  V30 4907 H 482.889 2.366 -0.972327 0
M  V30 4908 H 482.533 4.79513 -1.67422 0
M  V30 4909 H 482.463 5.26583 0.0425612 0
M  V30 4910 H 484.954 3.76053 -0.3732 0
M  V30 4911 H 485.267 7.60326 -1.38291 0
M  V30 4912 H 483.612 6.83906 -1.23685 0
M  V30 4913 H 486.803 4.64904 -0.546045 0
M  V30 4914 H 486.976 6.40139 -1.00626 0
M  V30 4915 N 480.382 0.0267497 1.57577 0
M  V30 4916 C 481.629 -0.652404 1.91703 0
M  V30 4917 C 481.957 -1.72271 0.902936 0
M  V30 4918 O 481.212 -1.955 -0.0884843 0
M  V30 4919 C 481.511 -1.30914 3.3256 0
M  V30 4920 C 481.177 -0.369441 4.49384 0
M  V30 4921 C 479.839 -0.110791 4.81072 0
M  V30 4922 C 482.191 0.275971 5.20469 0
M  V30 4923 C 479.519 0.801116 5.81205 0
M  V30 4924 C 481.871 1.17592 6.21575 0
M  V30 4925 C 480.535 1.44348 6.51705 0
M  V30 4926 H 479.805 -0.238732 0.70149 0
M  V30 4927 H 482.452 0.0880091 1.91298 0
M  V30 4928 H 480.757 -2.12425 3.29216 0
M  V30 4929 H 482.454 -1.84115 3.56234 0
M  V30 4930 H 479.044 -0.581211 4.24641 0
M  V30 4931 H 483.228 0.0892 4.9622 0
M  V30 4932 H 478.484 1.01614 6.02897 0
M  V30 4933 H 482.658 1.68223 6.75777 0
M  V30 4934 H 480.285 2.15176 7.29111 0
M  V30 4935 N 481.861 -1.55662 -0.24637 0
M  V30 4936 C 483.272 -1.67953 -0.81539 0
M  V30 4937 C 483.623 -0.624302 -1.86002 0
M  V30 4938 O 482.748 0.229328 -2.15181 0
M  V30 4939 C 483.343 -3.04484 -1.48576 0
M  V30 4940 C 481.902 -3.18713 -2.00248 0
M  V30 4941 C 481.049 -2.6383 -0.853766 0
M  V30 4942 H 484 -1.58685 -0.0221692 0
M  V30 4943 H 484.021 -2.98959 -2.3538 0
M  V30 4944 H 483.533 -3.81264 -0.725222 0
M  V30 4945 H 481.634 -2.46757 -2.79181 0
M  V30 4946 H 481.747 -4.25628 -2.1995 0
M  V30 4947 H 480.111 -2.21667 -1.25442 0
M  V30 4948 H 480.894 -3.43135 -0.106302 0
M  V30 4949 N 483.339 0.512053 -1.4905 0
M  V30 4950 C 484.269 1.62365 -1.67809 0
M  V30 4951 C 485.25 1.61737 -0.526809 0
M  V30 4952 O 486.435 1.78651 -0.761404 0
M  V30 4953 C 483.565 3.00895 -1.73435 0
M  V30 4954 C 482.519 3.16387 -2.88242 0
M  V30 4955 C 481.845 4.56157 -2.78971 0
M  V30 4956 C 483.145 2.97457 -4.29321 0
M  V30 4957 H 484.839 1.46921 -2.60873 0
M  V30 4958 H 482.385 0.705379 -1.2554 0
M  V30 4959 H 484.338 3.78549 -1.85145 0
M  V30 4960 H 483.062 3.17403 -0.769619 0
M  V30 4961 H 481.721 2.41155 -2.76116 0
M  V30 4962 H 481.369 4.69525 -1.8043 0
M  V30 4963 H 481.069 4.67465 -3.5602 0
M  V30 4964 H 482.593 5.35886 -2.92675 0
M  V30 4965 H 484.007 3.64888 -4.42187 0
M  V30 4966 H 482.404 3.20245 -5.07507 0
M  V30 4967 H 483.474 1.93692 -4.44535 0
M  V30 4968 N 484.817 1.37938 0.762283 0
M  V30 4969 C 485.727 1.36681 1.90671 0
M  V30 4970 C 486.743 0.265078 1.71969 0
M  V30 4971 O 487.919 0.502055 1.95042 0
M  V30 4972 C 484.984 1.18211 3.25925 0
M  V30 4973 C 484.045 2.3811 3.57214 0
M  V30 4974 C 483.278 2.20512 4.86014 0
M  V30 4975 O 483.501 1.19429 5.57757 0
M  V30 4976 O 482.435 3.08911 5.16583 0
M  V30 4977 H 486.261 2.33091 1.94685 0
M  V30 4978 H 483.846 1.18767 0.906356 0
M  V30 4979 H 485.728 1.09937 4.06807 0
M  V30 4980 H 484.403 0.248807 3.22742 0
M  V30 4981 H 483.31 2.51958 2.76529 0
M  V30 4982 H 484.643 3.30041 3.65149 0
M  V30 4983 N 486.295 -0.989507 1.22664 0
M  V30 4984 C 487.242 -2.08024 0.999733 0
M  V30 4985 C 488.212 -1.65909 -0.0797047 0
M  V30 4986 O 489.397 -1.90669 0.0705715 0
M  V30 4987 C 486.537 -3.40067 0.587234 0
M  V30 4988 C 485.65 -3.95505 1.73781 0
M  V30 4989 C 484.785 -5.15722 1.27297 0
M  V30 4990 C 483.824 -5.63305 2.39488 0
M  V30 4991 N 482.961 -6.74758 1.94026 0
M  V30 4992 H 487.801 -2.26768 1.9334 0
M  V30 4993 H 485.338 -1.11171 0.963297 0
M  V30 4994 H 487.296 -4.15899 0.329227 0
M  V30 4995 H 485.926 -3.21314 -0.309426 0
M  V30 4996 H 484.978 -3.16513 2.11006 0
M  V30 4997 H 486.29 -4.26797 2.58158 0
M  V30 4998 H 485.444 -5.98854 0.972546 0
M  V30 4999 H 484.183 -4.86061 0.399445 0
M  V30 5000 H 483.188 -4.78759 2.70315 0
M  V30 5001 H 484.413 -5.94988 3.27362 0
M  V30 5002 H 482.359 -6.46874 1.09041 0
M  V30 5003 H 482.276 -7.05386 2.71968 0
M  V30 5004 H 483.544 -7.61387 1.67062 0
M  V30 5005 N 487.773 -1.03688 -1.18687 0
M  V30 5006 C 488.736 -0.629115 -2.20397 0
M  V30 5007 C 489.736 0.311495 -1.57754 0
M  V30 5008 O 490.926 0.0974107 -1.73927 0
M  V30 5009 C 488.058 0.0782231 -3.4081 0
M  V30 5010 H 489.251 -1.52915 -2.57987 0
M  V30 5011 H 486.804 -0.828988 -1.32505 0
M  V30 5012 H 487.539 0.992233 -3.08748 0
M  V30 5013 H 487.324 -0.597776 -3.87517 0
M  V30 5014 H 488.814 0.350156 -4.16129 0
M  V30 5015 N 489.251 1.34841 -0.815825 0
M  V30 5016 C 490.181 2.32187 -0.247298 0
M  V30 5017 C 491.162 1.5791 0.632344 0
M  V30 5018 O 492.347 1.8593 0.560698 0
M  V30 5019 C 489.477 3.42122 0.597466 0
M  V30 5020 C 488.431 4.27602 -0.184446 0
M  V30 5021 C 487.757 5.28942 0.782609 0
M  V30 5022 C 489.057 5.03502 -1.38865 0
M  V30 5023 H 490.751 2.79985 -1.06061 0
M  V30 5024 H 488.297 1.34611 -0.511461 0
M  V30 5025 H 490.25 4.09232 1.00533 0
M  V30 5026 H 488.974 2.92956 1.44376 0
M  V30 5027 H 487.633 3.62085 -0.573592 0
M  V30 5028 H 487.281 4.7604 1.62466 0
M  V30 5029 H 486.981 5.87008 0.263695 0
M  V30 5030 H 488.505 5.98922 1.18848 0
M  V30 5031 H 489.919 5.63506 -1.05518 0
M  V30 5032 H 488.316 5.71108 -1.8427 0
M  V30 5033 H 489.386 4.33608 -2.17054 0
M  V30 5034 N 490.729 0.570148 1.46925 0
M  V30 5035 C 491.639 -0.173061 2.33961 0
M  V30 5036 C 492.655 -0.898825 1.48987 0
M  V30 5037 O 493.831 -0.864825 1.81887 0
M  V30 5038 C 490.896 -1.18177 3.25937 0
M  V30 5039 C 489.957 -0.462041 4.26806 0
M  V30 5040 C 489.19 -1.4227 5.14388 0
M  V30 5041 O 489.413 -2.65842 5.04662 0
M  V30 5042 O 488.347 -0.940127 5.94513 0
M  V30 5043 H 492.173 0.541216 2.98839 0
M  V30 5044 H 489.758 0.330647 1.45695 0
M  V30 5045 H 491.64 -1.76372 3.82715 0
M  V30 5046 H 490.315 -1.87774 2.63671 0
M  V30 5047 H 489.222 0.161429 3.73752 0
M  V30 5048 H 490.555 0.192719 4.91823 0
M  V30 5049 N 492.207 -1.54576 0.307264 0
M  V30 5050 C 493.17 -2.22423 -0.553224 0
M  V30 5051 C 494.17 -1.21231 -1.05639 0
M  V30 5052 O 495.36 -1.45923 -0.951419 0
M  V30 5053 C 492.492 -2.91552 -1.76664 0
M  V30 5054 H 493.685 -2.99874 0.0396484 0
M  V30 5055 H 491.238 -1.56192 0.0581629 0
M  V30 5056 H 491.973 -2.18196 -2.39918 0
M  V30 5057 H 491.758 -3.65738 -1.41343 0
M  V30 5058 H 493.248 -3.43292 -2.37783 0
M  V30 5059 N 493.685 -0.035106 -1.57561 0
M  V30 5060 C 494.932 0.642229 -1.92046 0
M  V30 5061 C 495.26 1.7179 -0.91206 0
M  V30 5062 O 494.515 1.95544 0.0781153 0
M  V30 5063 C 494.814 1.29149 -3.3325 0
M  V30 5064 C 494.48 0.345604 -4.49574 0
M  V30 5065 C 493.142 0.0852775 -4.81124 0
M  V30 5066 C 495.494 -0.303569 -5.20315 0
M  V30 5067 C 492.822 -0.831927 -5.80772 0
M  V30 5068 C 495.174 -1.20886 -6.20942 0
M  V30 5069 C 493.838 -1.47802 -6.50931 0
M  V30 5070 H 493.108 0.235008 -0.702746 0
M  V30 5071 H 495.755 -0.0981529 -1.91248 0
M  V30 5072 H 494.06 2.10676 -3.30337 0
M  V30 5073 H 495.757 1.82223 -3.57205 0
M  V30 5074 H 492.347 0.558683 -4.24943 0
M  V30 5075 H 496.531 -0.115515 -4.96166 0
M  V30 5076 H 491.787 -1.0481 -6.02349 0
M  V30 5077 H 495.961 -1.71804 -6.74875 0
M  V30 5078 H 493.588 -2.19039 -7.2796 0
M  V30 5079 N 495.163 1.55791 0.238111 0
M  V30 5080 C 496.073 1.94196 1.31625 0
M  V30 5081 C 497.089 0.843545 1.52185 0
M  V30 5082 O 498.265 1.1457 1.65637 0
M  V30 5083 C 495.33 2.2365 2.64918 0
M  V30 5084 C 494.391 3.46971 2.52804 0
M  V30 5085 C 493.624 3.7501 3.79741 0
M  V30 5086 O 493.847 3.04982 4.82019 0
M  V30 5087 O 492.781 4.68525 3.77846 0
M  V30 5088 H 496.607 2.86044 1.02043 0
M  V30 5089 H 494.192 1.42786 0.439603 0
M  V30 5090 H 496.074 2.43863 3.4367 0
M  V30 5091 H 494.749 1.34979 2.94215 0
M  V30 5092 H 493.656 3.32055 1.72309 0
M  V30 5093 H 494.989 4.35971 2.28451 0
M  V30 5094 N 496.642 -0.504142 1.49319 0
M  V30 5095 C 497.87 -1.28256 1.62351 0
M  V30 5096 C 498.285 -1.86502 0.293682 0
M  V30 5097 O 497.642 -1.67678 -0.720449 0
M  V30 5098 C 497.693 -2.41507 2.68992 0
M  V30 5099 O 497.414 -1.85656 3.96817 0
M  V30 5100 C 498.915 -3.32929 2.927 0
M  V30 5101 H 496.135 -0.389115 0.546654 0
M  V30 5102 H 498.679 -0.605531 1.95329 0
M  V30 5103 H 496.834 -3.05046 2.38801 0
M  V30 5104 H 497.248 -2.59981 4.55533 0
M  V30 5105 H 498.722 -4.0868 3.71058 0
M  V30 5106 H 499.199 -3.89733 2.02496 0
M  V30 5107 H 499.805 -2.75158 3.24296 0
M  V30 5108 N 498.12 -1.38341 -0.754957 0
M  V30 5109 C 499.367 -1.34473 -1.51404 0
M  V30 5110 C 499.695 0.0656458 -1.94389 0
M  V30 5111 O 498.95 1.04244 -1.65625 0
M  V30 5112 C 499.249 -2.2452 -2.78075 0
M  V30 5113 C 498.915 -3.72512 -2.54059 0
M  V30 5114 C 497.577 -4.1284 -2.47218 0
M  V30 5115 C 499.929 -4.66197 -2.33044 0
M  V30 5116 C 497.257 -5.44945 -2.17376 0
M  V30 5117 C 499.609 -5.98558 -2.04723 0
M  V30 5118 C 498.273 -6.37972 -1.96337 0
M  V30 5119 H 497.543 -0.492072 -0.554027 0
M  V30 5120 H 500.19 -1.70687 -0.868223 0
M  V30 5121 H 498.495 -1.81357 -3.473 0
M  V30 5122 H 500.192 -2.18832 -3.36026 0
M  V30 5123 H 496.782 -3.40538 -2.60253 0
M  V30 5124 H 500.966 -4.35888 -2.37309 0
M  V30 5125 H 496.222 -5.74426 -2.09391 0
M  V30 5126 H 500.396 -6.70693 -1.87465 0
M  V30 5127 H 498.023 -7.40258 -1.72978 0
M  V30 5128 N 499.598 0.982988 -1.23187 0
M  V30 5129 C 500.545 2.07491 -1.01075 0
M  V30 5130 C 501.515 1.65949 0.070905 0
M  V30 5131 O 502.7 1.90629 -0.0806822 0
M  V30 5132 C 499.84 3.39751 -0.605261 0
M  V30 5133 C 498.953 3.94578 -1.75876 0
M  V30 5134 C 498.088 5.15039 -1.3003 0
M  V30 5135 C 497.127 5.62027 -2.42472 0
M  V30 5136 N 496.264 6.73719 -1.97602 0
M  V30 5137 H 501.104 2.25739 -1.9454 0
M  V30 5138 H 498.641 1.10659 -0.969179 0
M  V30 5139 H 500.599 4.15719 -0.351279 0
M  V30 5140 H 499.229 3.21473 0.292382 0
M  V30 5141 H 498.281 3.1539 -2.12681 0
M  V30 5142 H 499.593 4.25422 -2.60418 0
M  V30 5143 H 498.747 5.9833 -1.00429 0
M  V30 5144 H 497.486 4.85843 -0.425216 0
M  V30 5145 H 496.491 4.77318 -2.7285 0
M  V30 5146 H 497.716 5.93244 -3.30512 0
M  V30 5147 H 495.662 6.46287 -1.1247 0
M  V30 5148 H 495.579 7.03934 -2.75705 0
M  V30 5149 H 496.847 7.6049 -1.71098 0
M  V30 5150 N 501.076 1.04316 1.18135 0
M  V30 5151 C 502.023 0.636398 2.21853 0
M  V30 5152 C 502.993 -0.357039 1.62217 0
M  V30 5153 O 504.178 -0.250453 1.89149 0
M  V30 5154 C 501.318 0.00812779 3.45099 0
M  V30 5155 C 500.431 1.04933 4.19062 0
M  V30 5156 C 499.566 0.389313 5.29771 0
M  V30 5157 C 498.605 1.41544 5.9551 0
M  V30 5158 N 497.742 0.78021 6.97751 0
M  V30 5159 H 502.582 1.52536 2.56002 0
M  V30 5160 H 500.119 0.76304 1.25762 0
M  V30 5161 H 502.077 -0.373497 4.15525 0
M  V30 5162 H 500.707 -0.844336 3.11562 0
M  V30 5163 H 499.759 1.54888 3.47439 0
M  V30 5164 H 501.071 1.82862 4.64072 0
M  V30 5165 H 500.225 -0.0463805 6.06682 0
M  V30 5166 H 498.964 -0.422038 4.8587 0
M  V30 5167 H 497.969 1.86124 5.17337 0
M  V30 5168 H 499.194 2.22854 6.41493 0
M  V30 5169 H 497.14 -0.0107899 6.55999 0
M  V30 5170 H 497.057 1.49716 7.41027 0
M  V30 5171 H 498.325 0.368996 7.78626 0
M  V30 5172 N 502.554 -1.34406 0.822964 0
M  V30 5173 C 503.802 -1.97892 0.410245 0
M  V30 5174 C 504.123 -1.65567 -1.03017 0
M  V30 5175 O 503.393 -0.94642 -1.71522 0
M  V30 5176 H 501.973 -0.732049 0.148707 0
M  V30 5177 H 504.635 -1.64043 1.05242 0
M  V30 5178 H 503.731 -3.07579 0.529284 0
M  V30 5179 N 504.032 -0.577932 -1.46621 0
M  V30 5180 C 504.962 0.145917 -2.33044 0
M  V30 5181 C 505.943 0.888412 -1.45056 0
M  V30 5182 O 507.128 0.864812 -1.73881 0
M  V30 5183 C 504.258 1.16322 -3.27241 0
M  V30 5184 C 503.212 0.535868 -4.24632 0
M  V30 5185 C 502.538 1.65929 -5.08303 0
M  V30 5186 C 503.838 -0.523861 -5.19666 0
M  V30 5187 H 505.532 -0.575636 -2.93814 0
M  V30 5188 H 503.078 -0.278272 -1.41286 0
M  V30 5189 H 505.031 1.67793 -3.86553 0
M  V30 5190 H 503.755 1.91498 -2.64567 0
M  V30 5191 H 502.414 0.0422759 -3.66576 0
M  V30 5192 H 502.062 2.40061 -4.42018 0
M  V30 5193 H 501.762 1.2452 -5.74255 0
M  V30 5194 H 503.286 2.17686 -5.70478 0
M  V30 5195 H 504.7 -0.0944059 -5.73222 0
M  V30 5196 H 503.097 -0.858 -5.93935 0
M  V30 5197 H 504.167 -1.41197 -4.63887 0
M  V30 5198 N 505.51 1.54411 -0.315457 0
M  V30 5199 C 506.758 2.00023 0.288971 0
M  V30 5200 C 507.079 1.20529 1.5329 0
M  V30 5201 O 506.349 0.304986 1.93511 0
M  V30 5202 H 504.929 0.738891 0.109766 0
M  V30 5203 H 507.591 1.90094 -0.430129 0
M  V30 5204 H 506.687 3.07198 0.550999 0
M  V30 5205 N 506.988 0.0434614 1.5754 0
M  V30 5206 C 507.918 -0.931651 2.14109 0
M  V30 5207 C 508.899 -1.32971 1.06079 0
M  V30 5208 O 510.084 -1.40579 1.33982 0
M  V30 5209 C 507.214 -2.20914 2.67982 0
M  V30 5210 C 506.168 -1.95139 3.80926 0
M  V30 5211 C 505.494 -3.29276 4.21285 0
M  V30 5212 C 506.794 -1.27913 5.06395 0
M  V30 5213 H 508.488 -0.460497 2.95837 0
M  V30 5214 H 506.034 -0.220058 1.42309 0
M  V30 5215 H 507.987 -2.89522 3.06194 0
M  V30 5216 H 506.711 -2.70221 1.83434 0
M  V30 5217 H 505.37 -1.28945 3.43175 0
M  V30 5218 H 505.018 -3.76369 3.33699 0
M  V30 5219 H 504.718 -3.12831 4.97404 0
M  V30 5220 H 506.242 -3.99129 4.62091 0
M  V30 5221 H 507.656 -1.86544 5.42102 0
M  V30 5222 H 506.053 -1.2182 5.87605 0
M  V30 5223 H 507.123 -0.254066 4.84234 0
M  V30 5224 N 508.466 -1.55915 -0.229846 0
M  V30 5225 C 509.413 -1.91734 -1.28478 0
M  V30 5226 C 510.383 -0.773539 -1.46988 0
M  V30 5227 O 511.568 -1.02871 -1.60693 0
M  V30 5228 C 508.708 -2.23224 -2.63182 0
M  V30 5229 C 507.821 -3.50497 -2.52539 0
M  V30 5230 C 506.956 -3.71474 -3.79711 0
M  V30 5231 C 505.995 -4.92289 -3.63755 0
M  V30 5232 N 505.132 -5.09698 -4.82858 0
M  V30 5233 H 509.972 -2.81692 -0.972308 0
M  V30 5234 H 507.509 -1.39429 -0.468815 0
M  V30 5235 H 509.467 -2.3949 -3.41614 0
M  V30 5236 H 508.097 -1.36451 -2.92542 0
M  V30 5237 H 507.149 -3.4247 -1.65585 0
M  V30 5238 H 508.461 -4.39079 -2.36666 0
M  V30 5239 H 507.615 -3.87791 -4.66586 0
M  V30 5240 H 506.354 -2.81157 -3.985 0
M  V30 5241 H 505.359 -4.7593 -2.75264 0
M  V30 5242 H 506.584 -5.84083 -3.46445 0
M  V30 5243 H 504.53 -4.22322 -5.01976 0
M  V30 5244 H 504.447 -5.92399 -4.69681 0
M  V30 5245 H 505.715 -5.30443 -5.71183 0
M  V30 5246 N 509.944 0.496216 -1.49584 0
M  V30 5247 C 511.193 1.24668 -1.58558 0
M  V30 5248 C 511.506 1.9359 -0.279703 0
M  V30 5249 O 512.712 2.70365 -0.248048 0
M  V30 5250 C 511.168 2.26388 -2.79779 0
M  V30 5251 C 510.776 1.63384 -4.17145 0
M  V30 5252 C 512.52 3.02233 -2.98086 0
M  V30 5253 C 510.427 2.63243 -5.29582 0
M  V30 5254 H 509.357 0.468995 -0.590389 0
M  V30 5255 H 512.008 0.519985 -1.75978 0
M  V30 5256 H 510.39 3.02241 -2.55863 0
M  V30 5257 H 511.564 0.93491 -4.51216 0
M  V30 5258 H 509.879 0.999121 -4.04236 0
M  V30 5259 H 512.476 3.76919 -3.79257 0
M  V30 5260 H 512.819 3.60132 -2.08831 0
M  V30 5261 H 513.352 2.33495 -3.22063 0
M  V30 5262 H 510.091 2.10119 -6.20911 0
M  V30 5263 H 509.611 3.31363 -4.99959 0
M  V30 5264 H 511.29 3.25575 -5.59115 0
M  V30 5265 N 511.423 1.38739 0.74761 0
M  V30 5266 C 512.356 1.3083 1.86972 0
M  V30 5267 C 513.334 0.184229 1.61553 0
M  V30 5268 O 514.518 0.36256 1.8498 0
M  V30 5269 C 511.645 1.02854 3.22705 0
M  V30 5270 C 510.691 2.17281 3.67003 0
M  V30 5271 S 511.524 3.79468 3.77842 0
M  V30 5272 C 512.68 3.53692 5.16385 0
M  V30 5273 H 512.913 2.258 1.93395 0
M  V30 5274 H 510.446 1.24646 0.911199 0
M  V30 5275 H 512.404 0.87397 4.01089 0
M  V30 5276 H 511.065 0.0959295 3.13953 0
M  V30 5277 H 510.258 1.93267 4.65472 0
M  V30 5278 H 509.86 2.28876 2.9579 0
M  V30 5279 H 512.152 3.10176 6.02327 0
M  V30 5280 H 513.095 4.51576 5.45422 0
M  V30 5281 H 513.503 2.8807 4.85464 0
M  V30 5282 N 512.901 -0.976442 1.23707 0
M  V30 5283 C 513.831 -2.08749 1.04624 0
M  V30 5284 C 514.812 -1.70057 -0.0380956 0
M  V30 5285 O 515.997 -1.93782 0.127308 0
M  V30 5286 C 513.127 -3.41335 0.640902 0
M  V30 5287 C 512.081 -3.93947 1.67302 0
M  V30 5288 C 511.407 -5.22774 1.12301 0
M  V30 5289 C 512.707 -4.22769 3.06697 0
M  V30 5290 H 514.401 -2.24972 1.97555 0
M  V30 5291 H 511.947 -1.08108 0.951247 0
M  V30 5292 H 513.9 -4.18489 0.494434 0
M  V30 5293 H 512.624 -3.24988 -0.324099 0
M  V30 5294 H 511.283 -3.18941 1.80755 0
M  V30 5295 H 510.931 -5.0278 0.148877 0
M  V30 5296 H 510.631 -5.58942 1.81267 0
M  V30 5297 H 512.155 -6.02546 0.988479 0
M  V30 5298 H 513.569 -4.90659 2.96524 0
M  V30 5299 H 511.966 -4.70147 3.72937 0
M  V30 5300 H 513.036 -3.29885 3.55392 0
M  V30 5301 N 514.379 -1.04941 -1.1758 0
M  V30 5302 C 515.326 -0.648155 -2.21512 0
M  V30 5303 C 516.296 0.348431 -1.62404 0
M  V30 5304 O 517.481 0.240419 -1.89279 0
M  V30 5305 C 514.621 -0.0264291 -3.4509 0
M  V30 5306 C 513.734 -1.07154 -4.185 0
M  V30 5307 C 512.869 -0.417403 -5.29558 0
M  V30 5308 C 511.908 -1.447 -5.94751 0
M  V30 5309 N 511.045 -0.817203 -6.97328 0
M  V30 5310 H 515.885 -1.53891 -2.55189 0
M  V30 5311 H 513.422 -0.769699 -1.25356 0
M  V30 5312 H 515.38 0.351456 -4.15717 0
M  V30 5313 H 514.01 0.827802 -3.12005 0
M  V30 5314 H 513.062 -1.56728 -3.46613 0
M  V30 5315 H 514.374 -1.8532 -4.63096 0
M  V30 5316 H 513.528 0.0142061 -6.06698 0
M  V30 5317 H 512.267 0.396265 -4.86087 0
M  V30 5318 H 511.272 -1.88865 -5.16343 0
M  V30 5319 H 512.497 -2.26252 -6.40302 0
M  V30 5320 H 510.443 -0.0239995 -6.55996 0
M  V30 5321 H 510.36 -1.53644 -7.40223 0
M  V30 5322 H 511.628 -0.410283 -7.7842 0
M  V30 5323 N 515.857 1.33968 -0.830081 0
M  V30 5324 C 517.097 1.99879 -0.427521 0
M  V30 5325 C 517.461 1.64355 0.992546 0
M  V30 5326 O 518.662 2.23164 1.49837 0
M  V30 5327 C 516.933 3.51771 -0.631815 0
M  V30 5328 S 518.492 4.37608 -0.323168 0
M  V30 5329 H 515.31 0.692485 -0.161202 0
M  V30 5330 H 517.912 1.63129 -1.07745 0
M  V30 5331 H 516.616 3.75113 -1.66488 0
M  V30 5332 H 516.147 3.93386 0.0325936 0
M  V30 5333 H 518.162 4.88683 0.860432 0
M  V30 5334 N 517.335 0.585699 1.46312 0
M  V30 5335 C 518.612 0.00542031 1.95599 0
M  V30 5336 C 518.992 -1.45619 1.52834 0
M  V30 5337 O 518.34 -2.14759 0.780446 0
M  V30 5338 C 518.55 0.180601 3.48532 0
M  V30 5339 C 519.898 0.049979 4.24571 0
M  V30 5340 O 520.922 0.109589 3.56031 0
M  V30 5341 O 519.781 -0.0832226 5.46437 0
M  V30 5342 H 516.875 -0.0481281 0.825598 0
M  V30 5343 H 519.421 0.654227 1.56582 0
M  V30 5344 H 518.193 1.19657 3.72556 0
M  V30 5345 H 517.816 -0.504498 3.94386 0
M  V30 5346 N 518.813 -1.54241 0.323641 0
M  V30 5347 C 520.224 -1.85975 -0.164405 0
M  V30 5348 C 520.575 -1.24529 -1.51615 0
M  V30 5349 O 519.7 -0.551351 -2.09258 0
M  V30 5350 C 520.295 -3.37424 -0.305091 0
M  V30 5351 C 518.854 -3.69107 -0.737358 0
M  V30 5352 C 518.001 -2.76942 0.140884 0
M  V30 5353 H 520.952 -1.49088 0.543922 0
M  V30 5354 H 520.973 -3.63147 -1.13598 0
M  V30 5355 H 520.485 -3.82116 0.678876 0
M  V30 5356 H 518.586 -3.29947 -1.73107 0
M  V30 5357 H 518.699 -4.76035 -0.541053 0
M  V30 5358 H 517.063 -2.51795 -0.383572 0
M  V30 5359 H 517.846 -3.24461 1.12162 0
M  V30 5360 N 520.291 -0.0518155 -1.57515 0
M  V30 5361 C 521.516 0.634896 -1.97443 0
M  V30 5362 C 521.941 1.63546 -0.929207 0
M  V30 5363 O 521.299 1.80981 0.107484 0
M  V30 5364 C 521.347 1.29765 -3.36442 0
M  V30 5365 O 520.451 2.41333 -3.34413 0
M  V30 5366 H 519.792 0.164994 -0.643174 0
M  V30 5367 H 522.322 -0.120407 -2.04245 0
M  V30 5368 H 522.332 1.64918 -3.73184 0
M  V30 5369 H 521.007 0.564361 -4.12053 0
M  V30 5370 H 519.584 2.08122 -3.09418 0
M  V30 5371 N 521.769 1.56035 0.221574 0
M  V30 5372 C 523.046 1.69837 0.970301 0
M  V30 5373 C 523.426 0.599065 2.02421 0
M  V30 5374 O 522.774 -0.393929 2.25079 0
M  V30 5375 C 522.984 3.11148 1.58076 0
M  V30 5376 C 524.332 3.70555 2.07302 0
M  V30 5377 O 525.356 3.14109 1.6797 0
M  V30 5378 O 524.215 4.69562 2.79596 0
M  V30 5379 H 521.309 0.691727 0.453257 0
M  V30 5380 H 523.855 1.68353 0.213358 0
M  V30 5381 H 522.627 3.82617 0.819759 0
M  V30 5382 H 522.25 3.16749 2.40324 0
M  V30 5383 N 523.247 -0.488276 1.49845 0
M  V30 5384 C 524.179 -1.60539 1.63584 0
M  V30 5385 C 525.192 -1.5434 0.517972 0
M  V30 5386 O 526.381 -1.60041 0.790516 0
M  V30 5387 C 523.481 -2.99374 1.58835 0
M  V30 5388 C 522.654 -3.30624 2.86368 0
M  V30 5389 C 521.713 -4.4893 2.74496 0
M  V30 5390 O 520.739 -4.50085 3.48443 0
M  V30 5391 N 521.941 -5.49591 1.86894 0
M  V30 5392 H 524.706 -1.49176 2.59936 0
M  V30 5393 H 522.267 -0.67639 1.47094 0
M  V30 5394 H 524.259 -3.76459 1.48529 0
M  V30 5395 H 522.829 -3.04595 0.702892 0
M  V30 5396 H 522.049 -2.42314 3.1093 0
M  V30 5397 H 523.337 -3.48305 3.70892 0
M  V30 5398 H 522.735 -5.51467 1.26097 0
M  V30 5399 H 521.292 -6.25728 1.82503 0
M  V30 5400 N 524.725 -1.39134 -0.740242 0
M  V30 5401 C 525.673 -1.3757 -1.87556 0
M  V30 5402 C 526.667 -0.259593 -1.67399 0
M  V30 5403 O 527.873 -0.429349 -1.74804 0
M  V30 5404 H 524.248 -0.42947 -0.6173 0
M  V30 5405 H 526.219 -2.33345 -1.85991 0
M  V30 5406 C 524.968 -1.23087 -3.25184 0
M  V30 5407 H 524.291 -2.08237 -3.41288 0
M  V30 5408 H 525.731 -1.26049 -4.0483 0
M  V30 5409 C 524.19 0.0611471 -3.36845 0
M  V30 5410 O 524.72 1.03328 -3.88183 0
M  V30 5411 N 522.926 0.122454 -2.90342 0
M  V30 5412 H 522.473 -0.669329 -2.48752 0
M  V30 5413 H 522.431 0.986463 -2.98523 0
M  V30 5414 N 526.204 0.969867 -1.24223 0
M  V30 5415 C 527.615 1.52717 -1.07399 0
M  V30 5416 C 527.966 1.92956 0.355298 0
M  V30 5417 O 527.091 1.77112 1.2434 0
M  V30 5418 C 527.686 2.77521 -1.94339 0
M  V30 5419 C 526.245 3.29615 -1.81744 0
M  V30 5420 C 525.392 2.02537 -1.89405 0
M  V30 5421 H 528.343 0.788399 -1.37732 0
M  V30 5422 H 528.364 3.50773 -1.47439 0
M  V30 5423 H 527.876 2.48203 -2.98357 0
M  V30 5424 H 525.977 3.63789 -0.805505 0
M  V30 5425 H 526.09 3.98661 -2.65718 0
M  V30 5426 H 524.454 2.17151 -1.33108 0
M  V30 5427 H 525.237 1.75587 -2.94999 0
M  V30 5428 O 527.721 1.18047 1.10214 0
M  V30 5429 H 528.412 0.921332 1.70385 0
M  V30 END ATOM
M  V30 BEGIN BOND
M  V30 END BOND
M  V30 END CTAB
M  END
$$$$
