drugbank_target|P19320 Vascular cell adhesion protein 1 (DB00898; DB01136; DB05399; DB11338)
 OpenBabel12092119483D

  0  0  0     0  0            999 V3000
M  V30 BEGIN CTAB
M  V30 COUNTS 11445 11542 0 0 0
M  V30 BEGIN ATOM
M  V30 1 H -0.908 1.98254 -0.117106 0
M  V30 2 N 0 1.576 0 0
M  V30 3 C 0.933 2.03868 1.02534 0
M  V30 4 C 1.911 0.928543 1.3348 0
M  V30 5 O 3.095 1.19667 1.45644 0
M  V30 6 C 0.222 2.43627 2.35294 0
M  V30 7 C -0.732 3.65373 2.2001 0
M  V30 8 S 0.101 5.13292 1.52614 0
M  V30 9 C 1.257 5.56322 2.86805 0
M  V30 10 H 1.49 2.90518 0.631377 0
M  V30 11 H -0.977 1.52953 0.210867 0
M  V30 12 H 0.981 2.67203 3.11629 0
M  V30 13 H -0.358 1.57376 2.7183 0
M  V30 14 H -1.165 3.90944 3.18086 0
M  V30 15 H -1.563 3.418 1.51819 0
M  V30 16 H 0.729 5.58782 3.83104 0
M  V30 17 H 1.672 6.56266 2.65933 0
M  V30 18 H 2.08 4.83886 2.90714 0
M  V30 19 N 1.4781 -0.272755 1.55222 0
M  V30 20 C 2.8891 -0.84378 1.66545 0
M  V30 21 C 3.2401 -1.87035 0.592641 0
M  V30 22 O 2.3651 -2.14761 -0.265818 0
M  V30 23 C 2.9601 -1.53723 3.01918 0
M  V30 24 C 1.5191 -2.05628 3.15268 0
M  V30 25 C 0.6661 -0.898424 2.62343 0
M  V30 26 H 3.6171 -0.0490998 1.58624 0
M  V30 27 H 3.6381 -2.40421 2.94921 0
M  V30 28 H 3.1501 -0.78983 3.79978 0
M  V30 29 H 1.2511 -2.83329 2.41983 0
M  V30 30 H 1.3641 -2.27142 4.21833 0
M  V30 31 H -0.2719 -1.29186 2.19506 0
M  V30 32 H 0.5111 -0.164528 3.42906 0
M  V30 33 N 2.9562 -1.48159 -0.537278 0
M  V30 34 C 4.2042 -1.55497 -1.29094 0
M  V30 35 C 4.5252 -0.227454 -1.93669 0
M  V30 36 O 3.7952 0.750386 -1.80959 0
M  V30 37 H 2.3752 -0.572832 -0.47945 0
M  V30 38 H 5.0372 -1.84579 -0.625818 0
M  V30 39 H 4.1332 -2.33216 -2.07405 0
M  V30 40 N 4.4343 0.785586 -1.36625 0
M  V30 41 C 5.3813 1.89838 -1.31264 0
M  V30 42 C 6.3513 1.65115 -0.180633 0
M  V30 43 O 7.5363 1.87222 -0.36777 0
M  V30 44 C 4.6763 3.26706 -1.11163 0
M  V30 45 C 3.7893 3.63476 -2.33472 0
M  V30 46 C 2.9243 4.89481 -2.06353 0
M  V30 47 C 1.9633 5.18941 -3.24602 0
M  V30 48 N 1.1003 6.36131 -2.97123 0
M  V30 49 H 5.9403 1.93756 -2.26413 0
M  V30 50 H 3.4773 0.947454 -1.12524 0
M  V30 51 H 5.4353 4.05639 -0.975337 0
M  V30 52 H 4.0653 3.222 -0.196674 0
M  V30 53 H 3.1173 2.79636 -2.57891 0
M  V30 54 H 4.4293 3.81193 -3.21704 0
M  V30 55 H 3.5833 5.76288 -1.89675 0
M  V30 56 H 2.3223 4.73841 -1.15437 0
M  V30 57 H 1.3273 4.30615 -3.41834 0
M  V30 58 H 2.5523 5.36498 -4.16349 0
M  V30 59 H 0.4983 6.21875 -2.08823 0
M  V30 60 H 0.4153 6.54198 -3.78894 0
M  V30 61 H 1.6833 7.2591 -2.84033 0
M  V30 62 N 5.9124 1.20967 1.01018 0
M  V30 63 C 6.8454 0.907578 2.09376 0
M  V30 64 C 7.8234 -0.142868 1.61971 0
M  V30 65 O 9.0074 -0.0150391 1.88494 0
M  V30 66 C 6.1344 0.361791 3.36762 0
M  V30 67 C 5.1804 1.39423 4.03068 0
M  V30 68 S 6.0134 2.96159 4.4615 0
M  V30 69 C 7.1694 2.43173 5.7673 0
M  V30 70 H 7.4024 1.82519 2.34678 0
M  V30 71 H 4.9354 1.03884 1.14225 0
M  V30 72 H 6.8934 0.0534523 4.10465 0
M  V30 73 H 5.5544 -0.53443 3.0952 0
M  V30 74 H 4.7474 0.961853 4.94737 0
M  V30 75 H 4.3494 1.65038 3.35617 0
M  V30 76 H 6.6414 1.83335 6.52223 0
M  V30 77 H 7.5844 3.33264 6.24773 0
M  V30 78 H 7.9924 1.85069 5.33301 0
M  V30 79 N 7.3905 -1.2043 1.01659 0
M  V30 80 C 8.6365 -1.90079 0.706963 0
M  V30 81 C 8.9695 -1.78648 -0.761474 0
M  V30 82 O 8.2445 -1.17069 -1.55323 0
M  V30 83 C 8.5275 -3.41469 1.14327 0
M  V30 84 C 8.3805 -3.61833 2.67201 0
M  V30 85 C 9.6995 -4.34261 0.714529 0
M  V30 86 H 6.8185 -0.690254 0.2583 0
M  V30 87 H 9.4605 -1.41826 1.26433 0
M  V30 88 H 7.6105 -3.82696 0.669056 0
M  V30 89 H 9.2825 -3.2986 3.22475 0
M  V30 90 H 7.5255 -3.05304 3.08175 0
M  V30 91 H 8.1965 -4.67955 2.92783 0
M  V30 92 H 10.6725 -4.00682 1.12221 0
M  V30 93 H 9.5485 -5.38806 1.04784 0
M  V30 94 H 9.8095 -4.40431 -0.383799 0
M  V30 95 N 8.8686 -0.792821 -1.36206 0
M  V30 96 C 10.1146 -0.36733 -1.99446 0
M  V30 97 C 10.4476 1.05917 -1.62774 0
M  V30 98 O 9.7226 1.7324 -0.88421 0
M  V30 99 C 10.0056 -0.535044 -3.56103 0
M  V30 100 C 9.8586 -2.00548 -4.02617 0
M  V30 101 C 11.1776 0.0478191 -4.40074 0
M  V30 102 H 8.2966 -0.134941 -0.724541 0
M  V30 103 H 10.9386 -0.999794 -1.61568 0
M  V30 104 H 9.0886 0.00336329 -3.885 0
M  V30 105 H 10.7606 -2.60521 -3.80692 0
M  V30 106 H 9.0036 -2.50686 -3.54032 0
M  V30 107 H 9.6746 -2.07377 -5.11565 0
M  V30 108 H 12.1506 -0.411822 -4.14057 0
M  V30 109 H 11.0266 -0.0995336 -5.4881 0
M  V30 110 H 11.2876 1.14025 -4.27142 0
M  V30 111 N 10.3467 1.47872 -0.545128 0
M  V30 112 C 11.5957 2.01695 -0.0145033 0
M  V30 113 C 11.9087 1.42609 1.33873 0
M  V30 114 O 13.1147 1.88021 1.95858 0
M  V30 115 C 11.5707 3.59892 0.0245068 0
M  V30 116 C 11.1787 4.27966 -1.32475 0
M  V30 117 C 12.9227 4.21507 0.50316 0
M  V30 118 C 10.8297 5.78136 -1.2455 0
M  V30 119 H 9.7597 0.753998 -0.00165172 0
M  V30 120 H 12.4107 1.69985 -0.691175 0
M  V30 121 H 10.7927 3.88509 0.766575 0
M  V30 122 H 11.9667 4.11003 -2.08357 0
M  V30 123 H 10.2817 3.78286 -1.74036 0
M  V30 124 H 12.8787 5.31538 0.580656 0
M  V30 125 H 13.2217 3.87855 1.51243 0
M  V30 126 H 13.7547 3.97376 -0.183681 0
M  V30 127 H 10.4937 6.16388 -2.23039 0
M  V30 128 H 10.0137 5.97469 -0.528282 0
M  V30 129 H 11.6927 6.40099 -0.942488 0
M  V30 130 N 11.8248 0.280983 1.55075 0
M  V30 131 C 12.7548 -0.597469 2.25727 0
M  V30 132 C 13.7358 -1.15417 1.24952 0
M  V30 133 O 14.9208 -1.18722 1.53684 0
M  V30 134 C 12.0508 -1.7789 2.98283 0
M  V30 135 C 11.0048 -1.35347 4.06036 0
M  V30 136 C 10.3308 -2.61846 4.66198 0
M  V30 137 C 11.6308 -0.499354 5.19907 0
M  V30 138 H 13.3248 -0.00824265 2.99399 0
M  V30 139 H 10.8708 -0.0025244 1.44 0
M  V30 140 H 12.8238 -2.39937 3.46422 0
M  V30 141 H 11.5478 -2.39405 2.22155 0
M  V30 142 H 10.2068 -0.756156 3.58717 0
M  V30 143 H 9.8548 -3.21632 3.86732 0
M  V30 144 H 9.5548 -2.3409 5.38958 0
M  V30 145 H 11.0788 -3.24732 5.1709 0
M  V30 146 H 12.4928 -1.02498 5.64063 0
M  V30 147 H 10.8898 -0.316424 5.99265 0
M  V30 148 H 11.9598 0.480459 4.82514 0
M  V30 149 N 13.3029 -1.57598 0.00835791 0
M  V30 150 C 14.5509 -1.90551 -0.6734 0
M  V30 151 C 14.8719 -0.883301 -1.73847 0
M  V30 152 O 14.1419 0.0781442 -1.95744 0
M  V30 153 H 12.7219 -0.703312 -0.251717 0
M  V30 154 H 15.3839 -1.94833 0.0512592 0
M  V30 155 H 14.4799 -2.9056 -1.13935 0
M  V30 156 N 14.781 0.264519 -1.55364 0
M  V30 157 C 15.744 1.31046 -1.88042 0
M  V30 158 C 16.744 1.41943 -0.755569 0
M  V30 159 O 17.934 1.40947 -1.02369 0
M  V30 160 C 15.066 2.69067 -2.09323 0
M  V30 161 H 16.259 1.03297 -2.81549 0
M  V30 162 H 13.812 0.502989 -1.47986 0
M  V30 163 H 14.547 3.01982 -1.18226 0
M  V30 164 H 14.332 2.62542 -2.91229 0
M  V30 165 H 15.822 3.44623 -2.35848 0
M  V30 166 N 16.2591 1.48442 0.529413 0
M  V30 167 C 17.4841 1.60406 1.31471 0
M  V30 168 C 17.9091 0.264738 1.86228 0
M  V30 169 O 17.2671 -0.763668 1.64432 0
M  V30 170 C 17.3151 2.65419 2.44101 0
M  V30 171 O 16.4191 2.22618 3.47153 0
M  V30 172 H 15.7601 0.537863 0.389357 0
M  V30 173 H 18.2901 1.94432 0.636965 0
M  V30 174 H 18.3001 2.86709 2.90279 0
M  V30 175 H 16.9751 3.62652 2.03608 0
M  V30 176 H 15.5521 2.11543 3.0709 0
M  V30 177 N 17.7372 -0.778329 1.37039 0
M  V30 178 C 18.6852 -1.91278 1.32345 0
M  V30 179 C 19.6792 -1.68051 0.213331 0
M  V30 180 O 20.8852 -1.75922 0.38098 0
M  V30 181 H 17.2602 -0.628909 0.412283 0
M  V30 182 H 19.2312 -1.92355 2.28127 0
M  V30 183 C 17.9802 -3.28455 1.14073 0
M  V30 184 H 17.3032 -3.46901 1.98746 0
M  V30 185 H 18.7432 -4.08152 1.14837 0
M  V30 186 C 17.2022 -3.36548 -0.154015 0
M  V30 187 O 17.7322 -3.85186 -1.13993 0
M  V30 188 N 15.9382 -2.89894 -0.202475 0
M  V30 189 H 15.4852 -2.50504 0.600476 0
M  V30 190 H 15.4432 -2.9569 -1.06841 0
M  V30 191 N 19.2153 -1.21501 -1.00376 0
M  V30 192 C 20.4643 -1.02718 -1.73586 0
M  V30 193 C 20.7773 0.439589 -1.90596 0
M  V30 194 O 21.9833 0.746848 -2.61026 0
M  V30 195 C 20.4393 -1.78929 -3.1227 0
M  V30 196 C 20.0473 -3.29783 -3.03228 0
M  V30 197 C 21.7913 -1.68557 -3.89601 0
M  V30 198 C 19.6983 -3.98479 -4.36999 0
M  V30 199 H 18.6283 -0.380733 -0.650814 0
M  V30 200 H 21.2793 -1.45248 -1.1214 0
M  V30 201 H 19.6613 -1.29192 -3.74333 0
M  V30 202 H 20.8353 -3.86832 -2.50395 0
M  V30 203 H 19.1503 -3.40711 -2.39385 0
M  V30 204 H 21.7473 -2.17211 -4.88593 0
M  V30 205 H 22.0903 -0.644021 -4.11288 0
M  V30 206 H 22.6233 -2.15778 -3.34193 0
M  V30 207 H 19.3623 -5.02841 -4.20513 0
M  V30 208 H 18.8823 -3.46219 -4.89788 0
M  V30 209 H 20.5613 -4.03462 -5.05794 0
M  V30 210 N 20.6934 1.19889 -1.02296 0
M  V30 211 C 21.6234 2.25141 -0.619174 0
M  V30 212 C 22.6044 1.66051 0.368915 0
M  V30 213 O 23.7894 1.92546 0.252941 0
M  V30 214 C 20.9194 3.4728 0.0368783 0
M  V30 215 C 19.8734 4.19005 -0.872865 0
M  V30 216 C 19.1994 5.34637 -0.0822402 0
M  V30 217 C 20.4994 4.74452 -2.18387 0
M  V30 218 H 22.1934 2.59171 -1.49903 0
M  V30 219 H 19.7394 1.24579 -0.722222 0
M  V30 220 H 21.6924 4.20098 0.330958 0
M  V30 221 H 20.4164 3.12433 0.95149 0
M  V30 222 H 19.0754 3.48061 -1.15105 0
M  V30 223 H 18.7234 4.96034 0.83422 0
M  V30 224 H 18.4234 5.83557 -0.688149 0
M  V30 225 H 19.9474 6.10255 0.205238 0
M  V30 226 H 21.3614 5.39055 -1.95172 0
M  V30 227 H 19.7584 5.33834 -2.74119 0
M  V30 228 H 20.8284 3.92844 -2.84257 0
M  V30 229 N 22.1715 0.800033 1.35784 0
M  V30 230 C 23.4175 0.38701 1.99684 0
M  V30 231 C 23.7725 -1.03268 1.62338 0
M  V30 232 O 23.0655 -1.70543 0.87325 0
M  V30 233 C 23.2595 0.500276 3.53881 0
M  V30 234 C 23.0885 1.92942 4.06206 0
M  V30 235 C 21.8585 2.55637 4.35865 0
M  V30 236 C 24.0565 2.89307 4.25213 0
M  V30 237 N 22.0385 3.9003 4.74078 0
M  V30 238 C 23.4095 4.08556 4.66349 0
M  V30 239 C 25.4645 2.86225 4.07406 0
M  V30 240 C 24.1675 5.25146 4.91543 0
M  V30 241 C 26.1935 4.02011 4.33752 0
M  V30 242 C 25.5555 5.20007 4.75155 0
M  V30 243 H 21.6545 0.189252 0.758754 0
M  V30 244 H 24.2385 1.03988 1.64604 0
M  V30 245 H 22.4095 -0.122568 3.88207 0
M  V30 246 H 24.1415 0.0624733 4.04652 0
M  V30 247 H 20.8965 2.07039 4.25948 0
M  V30 248 H 21.3205 4.59205 4.97454 0
M  V30 249 H 25.9625 1.96154 3.74544 0
M  V30 250 H 23.6805 6.15794 5.23281 0
M  V30 251 H 27.2665 4.00999 4.21534 0
M  V30 252 H 26.1465 6.08113 4.95145 0
M  V30 253 N 23.6496 -1.47581 0.552962 0
M  V30 254 C 24.8986 -2.01684 0.0251995 0
M  V30 255 C 25.2116 -1.43317 -1.33115 0
M  V30 256 O 26.4176 -1.89057 -1.94858 0
M  V30 257 C 24.8736 -3.599 -0.00542052 0
M  V30 258 C 24.4816 -4.27257 1.34742 0
M  V30 259 C 26.2256 -4.21768 -0.4808 0
M  V30 260 C 24.1326 -5.77467 1.27614 0
M  V30 261 H 23.0626 -0.753979 0.00565033 0
M  V30 262 H 25.7136 -1.69616 0.70018 0
M  V30 263 H 24.0956 -3.88911 -0.745961 0
M  V30 264 H 25.2696 -4.09893 2.10534 0
M  V30 265 H 23.5846 -3.77358 1.76039 0
M  V30 266 H 26.1816 -5.31838 -0.55246 0
M  V30 267 H 26.5246 -3.88651 -1.49184 0
M  V30 268 H 27.0576 -3.97273 0.204752 0
M  V30 269 H 23.7966 -6.15196 2.26304 0
M  V30 270 H 23.3166 -5.9718 0.55996 0
M  V30 271 H 24.9956 -6.3959 0.976421 0
M  V30 272 N 25.1277 -0.289203 -1.54924 0
M  V30 273 C 26.0607 0.633823 -2.19221 0
M  V30 274 C 27.0387 1.14174 -1.15772 0
M  V30 275 O 28.2227 1.21211 -1.44361 0
M  V30 276 C 25.3497 1.86592 -2.82668 0
M  V30 277 C 24.3957 1.49227 -3.99542 0
M  V30 278 S 25.2287 0.558312 -5.32582 0
M  V30 279 C 26.3847 1.79847 -5.99505 0
M  V30 280 H 26.6177 0.0875416 -2.97171 0
M  V30 281 H 24.1507 -0.0733899 -1.54225 0
M  V30 282 H 26.1087 2.57305 -3.19851 0
M  V30 283 H 24.7697 2.38335 -2.04585 0
M  V30 284 H 23.9627 2.40945 -4.42676 0
M  V30 285 H 23.5647 0.865193 -3.63855 0
M  V30 286 H 25.8567 2.7406 -6.19595 0
M  V30 287 H 26.7997 1.4099 -6.93922 0
M  V30 288 H 27.2077 1.96982 -5.29016 0
M  V30 289 N 26.6058 1.57591 -0.0167156 0
M  V30 290 C 27.8528 1.91283 0.664597 0
M  V30 291 C 28.1808 0.891949 1.72842 0
M  V30 292 O 27.4358 -0.100931 1.9544 0
M  V30 293 C 27.7348 3.3172 1.33029 0
M  V30 294 C 27.4008 4.4914 0.398047 0
M  V30 295 C 26.0628 4.80992 0.141421 0
M  V30 296 C 28.4148 5.20634 -0.242825 0
M  V30 297 C 25.7428 5.81703 -0.764092 0
M  V30 298 C 28.0948 6.22311 -1.13632 0
M  V30 299 C 26.7588 6.52611 -1.40196 0
M  V30 300 H 26.0288 0.699956 0.243193 0
M  V30 301 H 28.6758 1.9135 -0.0758267 0
M  V30 302 H 26.9808 3.27856 2.14517 0
M  V30 303 H 28.6778 3.55055 1.86379 0
M  V30 304 H 25.2678 4.24262 0.608238 0
M  V30 305 H 29.4518 4.96267 -0.0576019 0
M  V30 306 H 24.7078 6.03532 -0.977732 0
M  V30 307 H 28.8818 6.76834 -1.63917 0
M  V30 308 H 26.5088 7.30467 -2.10529 0
M  V30 309 N 28.0839 -0.256276 1.55502 0
M  V30 310 C 29.0469 -1.30047 1.88734 0
M  V30 311 C 30.0469 -1.4154 0.763086 0
M  V30 312 O 31.2369 -1.40403 1.03115 0
M  V30 313 C 28.3689 -2.67953 2.10747 0
M  V30 314 H 29.5619 -1.01802 2.82093 0
M  V30 315 H 27.1149 -0.495134 1.4825 0
M  V30 316 H 27.8499 -3.01351 1.19825 0
M  V30 317 H 27.6349 -2.60993 2.92617 0
M  V30 318 H 29.1249 -3.43368 2.37673 0
M  V30 319 N 29.562 -1.4872 -0.521534 0
M  V30 320 C 30.525 -1.63379 -1.60748 0
M  V30 321 C 31.525 -0.50661 -1.52611 0
M  V30 322 O 32.715 -0.772601 -1.5613 0
M  V30 323 C 29.847 -1.61192 -3.00383 0
M  V30 324 H 31.04 -2.60217 -1.49087 0
M  V30 325 H 28.593 -1.37444 -0.744235 0
M  V30 326 H 29.328 -0.65863 -3.17541 0
M  V30 327 H 29.113 -2.43032 -3.07698 0
M  V30 328 H 30.603 -1.7466 -3.7932 0
M  V30 329 N 31.0401 0.771051 -1.3745 0
M  V30 330 C 32.2651 1.56529 -1.36065 0
M  V30 331 C 32.6901 1.88029 0.0515859 0
M  V30 332 O 32.0481 1.49282 1.02882 0
M  V30 333 C 32.0961 2.85187 -2.20683 0
M  V30 334 O 31.2001 3.79593 -1.61193 0
M  V30 335 H 30.5411 0.47411 -0.464883 0
M  V30 336 H 33.0711 0.954269 -1.80983 0
M  V30 337 H 33.0811 3.34283 -2.33921 0
M  V30 338 H 31.7561 2.61588 -3.23334 0
M  V30 339 H 30.3331 3.38239 -1.56999 0
M  V30 340 N 32.5182 1.22032 0.997298 0
M  V30 341 C 33.4502 0.944263 2.08845 0
M  V30 342 C 34.4632 -0.0754663 1.62625 0
M  V30 343 O 35.6522 0.157994 1.77799 0
M  V30 344 C 32.7522 0.397723 3.36558 0
M  V30 345 C 31.9252 1.47362 4.11829 0
M  V30 346 C 30.9842 0.934951 5.17827 0
M  V30 347 O 30.0102 1.62016 5.45655 0
M  V30 348 N 31.2122 -0.245895 5.79979 0
M  V30 349 H 33.9772 1.88363 2.33109 0
M  V30 350 H 31.5382 1.12661 1.16272 0
M  V30 351 H 33.5302 0.0227771 4.04694 0
M  V30 352 H 32.1002 -0.446646 3.09393 0
M  V30 353 H 31.3202 2.02208 3.38386 0
M  V30 354 H 32.6082 2.19764 4.58891 0
M  V30 355 H 32.0062 -0.819475 5.59733 0
M  V30 356 H 30.5632 -0.562272 6.4937 0
M  V30 357 N 33.9963 -1.19345 1.0293 0
M  V30 358 C 34.9593 -2.20793 0.615069 0
M  V30 359 C 35.9593 -1.57553 -0.321533 0
M  V30 360 O 37.1493 -1.73862 -0.108483 0
M  V30 361 C 34.2813 -3.40754 -0.0999222 0
M  V30 362 H 35.4743 -2.58955 1.51269 0
M  V30 363 H 33.0273 -1.3303 0.820534 0
M  V30 364 H 33.7623 -3.0811 -1.01187 0
M  V30 365 H 33.5473 -3.87889 0.57309 0
M  V30 366 H 35.0373 -4.15898 -0.376645 0
M  V30 367 N 35.4744 -0.807222 -1.35358 0
M  V30 368 C 36.7214 -0.387888 -1.9875 0
M  V30 369 C 37.0494 1.04509 -1.64037 0
M  V30 370 O 36.3044 1.73986 -0.895946 0
M  V30 371 C 36.6034 -0.519036 -3.53611 0
M  V30 372 C 36.2694 -1.91542 -4.08194 0
M  V30 373 C 34.9314 -2.29745 -4.22813 0
M  V30 374 C 37.2834 -2.82896 -4.37744 0
M  V30 375 C 34.6114 -3.58668 -4.643 0
M  V30 376 C 36.9634 -4.11265 -4.8067 0
M  V30 377 C 35.6274 -4.49466 -4.93494 0
M  V30 378 H 34.8974 -0.141938 -0.727279 0
M  V30 379 H 37.5444 -1.02814 -1.6156 0
M  V30 380 H 35.8494 0.204658 -3.91265 0
M  V30 381 H 37.5464 -0.175345 -4.00616 0
M  V30 382 H 34.1364 -1.60862 -3.97268 0
M  V30 383 H 38.3204 -2.54629 -4.26002 0
M  V30 384 H 33.5764 -3.88113 -4.72418 0
M  V30 385 H 37.7504 -4.82153 -5.02496 0
M  V30 386 H 35.3774 -5.49418 -5.25399 0
M  V30 387 N 36.9525 1.47285 -0.560781 0
M  V30 388 C 37.8995 2.30058 0.18491 0
M  V30 389 C 38.8695 1.39281 0.904986 0
M  V30 390 O 40.0545 1.68241 0.899979 0
M  V30 391 C 37.1945 3.23317 1.20666 0
M  V30 392 C 36.3075 4.29186 0.492285 0
M  V30 393 C 35.4425 5.09592 1.49964 0
M  V30 394 C 34.4815 6.07232 0.770439 0
M  V30 395 N 33.6185 6.80584 1.72479 0
M  V30 396 H 38.4585 2.93302 -0.527048 0
M  V30 397 H 35.9955 1.44568 -0.271738 0
M  V30 398 H 37.9535 3.75811 1.81168 0
M  V30 399 H 36.5835 2.61929 1.88661 0
M  V30 400 H 35.6355 3.7972 -0.227333 0
M  V30 401 H 36.9475 4.98738 -0.0787929 0
M  V30 402 H 36.1015 5.66254 2.17809 0
M  V30 403 H 34.8405 4.3995 2.10464 0
M  V30 404 H 33.8455 5.49745 0.0780846 0
M  V30 405 H 35.0705 6.78884 0.171134 0
M  V30 406 H 33.0165 6.1367 2.3183 0
M  V30 407 H 32.9335 7.46319 1.20596 0
M  V30 408 H 34.2015 7.41818 2.39428 0
M  V30 409 N 38.4306 0.297415 1.54768 0
M  V30 410 C 39.6796 -0.313669 1.99246 0
M  V30 411 C 39.9926 -1.55281 1.18942 0
M  V30 412 O 41.1986 -2.23825 1.5367 0
M  V30 413 C 39.6546 -0.609407 3.54703 0
M  V30 414 C 39.2626 0.611192 4.43811 0
M  V30 415 C 41.0066 -1.18188 4.07715 0
M  V30 416 C 38.9136 0.288805 5.90694 0
M  V30 417 H 37.8436 -0.120979 0.744231 0
M  V30 418 H 40.4946 0.40556 1.78962 0
M  V30 419 H 38.8766 -1.38813 3.70873 0
M  V30 420 H 40.0506 1.3875 4.39414 0
M  V30 421 H 38.3656 1.10205 4.01552 0
M  V30 422 H 40.9626 -1.43727 5.15021 0
M  V30 423 H 41.3056 -2.12299 3.58099 0
M  V30 424 H 41.8386 -0.464944 3.95074 0
M  V30 425 H 38.5776 1.19838 6.44453 0
M  V30 426 H 38.0976 -0.450305 5.98107 0
M  V30 427 H 39.7766 -0.110933 6.46905 0
M  V30 428 N 39.9087 -1.5758 0.0250728 0
M  V30 429 C 40.8187 -2.1343 -0.973905 0
M  V30 430 C 41.8347 -1.08556 -1.35984 0
M  V30 431 O 43.0107 -1.40592 -1.44207 0
M  V30 432 C 40.0757 -2.64703 -2.23904 0
M  V30 433 C 39.1367 -3.84276 -1.91391 0
M  V30 434 C 38.3697 -4.33095 -3.11873 0
M  V30 435 O 38.5927 -3.81107 -4.24398 0
M  V30 436 O 37.5267 -5.24984 -2.94406 0
M  V30 437 H 41.3527 -2.99057 -0.529036 0
M  V30 438 H 38.9377 -1.48118 -0.195288 0
M  V30 439 H 40.8197 -2.97769 -2.98181 0
M  V30 440 H 39.4947 -1.82161 -2.6758 0
M  V30 441 H 38.4017 -3.56143 -1.14511 0
M  V30 442 H 39.7347 -4.67968 -1.52534 0
M  V30 443 N 41.3868 0.248026 -1.55636 0
M  V30 444 C 42.6148 0.993808 -1.81469 0
M  V30 445 C 43.0298 1.78991 -0.60064 0
M  V30 446 O 42.3868 1.77345 0.430682 0
M  V30 447 C 42.4378 1.93258 -3.05506 0
M  V30 448 O 42.1588 1.16869 -4.22224 0
M  V30 449 C 43.6598 2.79444 -3.4413 0
M  V30 450 H 40.8798 0.292486 -0.603898 0
M  V30 451 H 43.4238 0.271253 -2.02693 0
M  V30 452 H 41.5788 2.60943 -2.86335 0
M  V30 453 H 41.9928 1.80359 -4.92515 0
M  V30 454 H 43.4668 3.41066 -4.34026 0
M  V30 455 H 43.9438 3.50499 -2.64665 0
M  V30 456 H 44.5498 2.17214 -3.65648 0
M  V30 457 N 42.8649 1.48995 0.513639 0
M  V30 458 C 44.0929 1.61531 1.29288 0
M  V30 459 C 44.5079 0.281801 1.86685 0
M  V30 460 O 43.8649 -0.731111 1.67215 0
M  V30 461 C 43.9159 2.67449 2.43215 0
M  V30 462 O 43.6369 3.95626 1.88179 0
M  V30 463 C 45.1379 2.90575 3.34785 0
M  V30 464 H 42.3579 0.544165 0.392588 0
M  V30 465 H 44.9019 1.9494 0.617956 0
M  V30 466 H 43.0569 2.36853 3.0656 0
M  V30 467 H 43.4709 4.53868 2.62876 0
M  V30 468 H 44.9449 3.68449 4.11035 0
M  V30 469 H 45.4219 2.00011 3.91015 0
M  V30 470 H 46.0279 3.22538 2.77218 0
M  V30 471 N 44.343 -0.763751 1.37857 0
M  V30 472 C 45.754 -1.3405 1.29952 0
M  V30 473 C 46.105 -1.96138 -0.0492898 0
M  V30 474 O 45.23 -1.94372 -0.951239 0
M  V30 475 C 45.825 -2.43729 2.35333 0
M  V30 476 C 44.384 -2.97151 2.31037 0
M  V30 477 C 43.531 -1.70438 2.18738 0
M  V30 478 H 46.482 -0.563396 1.48363 0
M  V30 479 H 46.503 -3.23412 2.00462 0
M  V30 480 H 46.015 -1.9851 3.33489 0
M  V30 481 H 44.116 -3.46724 1.3643 0
M  V30 482 H 44.229 -3.52221 3.24772 0
M  V30 483 H 42.593 -1.93673 1.65418 0
M  V30 484 H 43.376 -1.27312 3.18821 0
M  V30 485 N 45.8211 -1.22559 -0.990812 0
M  V30 486 C 46.7311 -1.01394 -2.11557 0
M  V30 487 C 47.7471 0.0383962 -1.73958 0
M  V30 488 O 48.9231 -0.154787 -2.00804 0
M  V30 489 C 45.9881 -0.596569 -3.41529 0
M  V30 490 C 45.0491 -1.72276 -3.93217 0
M  V30 491 C 44.2821 -1.32521 -5.16985 0
M  V30 492 O 44.5051 -0.204909 -5.70032 0
M  V30 493 O 43.4391 -2.14247 -5.62478 0
M  V30 494 H 47.2651 -1.95633 -2.32296 0
M  V30 495 H 44.8501 -1.01172 -1.0993 0
M  V30 496 H 46.7321 -0.374263 -4.19735 0
M  V30 497 H 45.4071 0.316939 -3.22145 0
M  V30 498 H 44.3141 -1.99961 -3.16174 0
M  V30 499 H 45.6471 -2.61421 -4.17037 0
M  V30 500 N 47.2992 1.18797 -1.03562 0
M  V30 501 C 48.5242 1.9314 -0.755764 0
M  V30 502 C 48.9492 1.7537 0.68022 0
M  V30 503 O 48.3072 1.06046 1.47051 0
M  V30 504 C 48.3552 3.42747 -1.12058 0
M  V30 505 O 47.4592 4.11683 -0.243124 0
M  V30 506 H 46.8002 0.602724 -0.278604 0
M  V30 507 H 49.3302 1.50678 -1.3841 0
M  V30 508 H 49.3402 3.93437 -1.08035 0
M  V30 509 H 48.0152 3.55002 -2.16672 0
M  V30 510 H 46.5922 3.71323 -0.342539 0
M  V30 511 N 48.7773 0.814389 1.34928 0
M  V30 512 C 50.1933 0.499084 1.51596 0
M  V30 513 C 50.3933 -0.978319 1.76157 0
M  V30 514 O 49.4493 -1.76309 1.80752 0
M  V30 515 C 50.7623 1.35121 2.68631 0
M  V30 516 C 52.3103 1.34746 2.82511 0
M  V30 517 C 52.7853 2.18388 4.0258 0
M  V30 518 N 54.2763 2.15966 4.09772 0
M  V30 519 C 55.0113 2.77437 5.01813 0
M  V30 520 N 54.5073 3.47866 5.99134 0
M  V30 521 N 56.3003 2.67037 4.94619 0
M  V30 522 H 48.4513 1.7711 1.17243 0
M  V30 523 H 50.7143 0.754256 0.574284 0
M  V30 524 H 50.4203 2.40001 2.57085 0
M  V30 525 H 50.2943 1.00991 3.63429 0
M  V30 526 H 52.6813 0.30648 2.93504 0
M  V30 527 H 52.7623 1.72869 1.88547 0
M  V30 528 H 52.4063 3.2253 3.92347 0
M  V30 529 H 52.3363 1.77621 4.9574 0
M  V30 530 H 54.8273 1.64729 3.40107 0
M  V30 531 H 55.1403 3.92038 6.65977 0
M  V30 532 H 53.4853 3.51972 5.99284 0
M  V30 533 H 56.6763 2.11597 4.17546 0
M  V30 534 H 56.8493 3.15232 5.66156 0
M  V30 535 N 50.2554 -1.46986 0.568584 0
M  V30 536 C 51.4854 -2.0653 0.0539173 0
M  V30 537 C 51.8934 -1.42004 -1.25026 0
M  V30 538 O 51.2364 -0.514541 -1.76347 0
M  V30 539 C 51.2984 -3.58938 -0.200854 0
M  V30 540 C 50.9624 -4.45572 1.01559 0
M  V30 541 C 51.9594 -4.82986 1.92407 0
M  V30 542 C 49.6444 -4.8692 1.23346 0
M  V30 543 C 51.6384 -5.60559 3.03402 0
M  V30 544 C 49.3254 -5.64255 2.34649 0
M  V30 545 C 50.3234 -6.00986 3.24507 0
M  V30 546 O 50.0114 -6.76761 4.33878 0
M  V30 547 H 49.7434 -0.674292 0.0480234 0
M  V30 548 H 52.2974 -1.89812 0.784896 0
M  V30 549 H 50.5274 -3.73911 -0.986279 0
M  V30 550 H 52.2164 -4.0046 -0.662294 0
M  V30 551 H 52.9824 -4.51633 1.76785 0
M  V30 552 H 48.8614 -4.57789 0.543178 0
M  V30 553 H 52.4054 -5.89147 3.73565 0
M  V30 554 H 48.3024 -5.95021 2.5024 0
M  V30 555 H 49.0704 -6.95168 4.32068 0
M  V30 556 N 51.7335 -0.305618 -1.54608 0
M  V30 557 C 52.6635 0.561482 -2.26649 0
M  V30 558 C 53.6445 1.13415 -1.26772 0
M  V30 559 O 54.8295 1.16262 -1.55553 0
M  V30 560 C 51.9595 1.73122 -3.01075 0
M  V30 561 C 50.9135 1.2887 -4.08138 0
M  V30 562 C 50.2395 2.54396 -4.70305 0
M  V30 563 C 51.5395 0.416578 -5.20636 0
M  V30 564 H 53.2335 -0.0393902 -2.99374 0
M  V30 565 H 50.7795 -0.020385 -1.43986 0
M  V30 566 H 52.7325 2.34396 -3.50195 0
M  V30 567 H 51.4565 2.3584 -2.25936 0
M  V30 568 H 50.1155 0.698991 -3.59875 0
M  V30 569 H 49.7635 3.15439 -3.918 0
M  V30 570 H 49.4635 2.25486 -5.42614 0
M  V30 571 H 50.9875 3.16464 -5.2219 0
M  V30 572 H 52.4015 0.935116 -5.65622 0
M  V30 573 H 50.7985 0.221046 -5.99693 0
M  V30 574 H 51.8685 -0.557162 -4.81688 0
M  V30 575 N 53.2116 1.57565 -0.0334293 0
M  V30 576 C 54.1746 2.09393 0.932048 0
M  V30 577 C 55.1746 1.00986 1.25134 0
M  V30 578 O 56.3646 1.27129 1.19096 0
M  V30 579 C 53.4966 2.56338 2.2473 0
M  V30 580 H 54.6896 2.95984 0.483085 0
M  V30 581 H 52.2426 1.54819 0.21468 0
M  V30 582 H 52.9776 1.7309 2.74245 0
M  V30 583 H 52.7626 3.35542 2.02865 0
M  V30 584 H 54.2526 2.96646 2.93923 0
M  V30 585 N 54.6897 -0.239769 1.55765 0
M  V30 586 C 55.6217 -1.32001 1.87372 0
M  V30 587 C 56.6347 -1.43944 0.760522 0
M  V30 588 O 57.8237 -1.45167 1.0387 0
M  V30 589 C 54.9237 -2.69779 2.05115 0
M  V30 590 C 54.0967 -2.80014 3.36022 0
M  V30 591 C 53.1557 -3.98684 3.4342 0
M  V30 592 O 52.1817 -3.87877 4.16582 0
M  V30 593 N 53.3837 -5.12176 2.73232 0
M  V30 594 H 56.1487 -1.0522 2.80622 0
M  V30 595 H 53.7097 -0.429857 1.56089 0
M  V30 596 H 55.7017 -3.47517 2.07399 0
M  V30 597 H 54.2717 -2.89237 1.18577 0
M  V30 598 H 53.4917 -1.88896 3.45994 0
M  V30 599 H 54.7797 -2.83808 4.22292 0
M  V30 600 H 54.1777 -5.2385 2.13536 0
M  V30 601 H 52.7347 -5.88022 2.81199 0
M  V30 602 N 56.1678 -1.49265 -0.50573 0
M  V30 603 C 57.4168 -1.57761 -1.25675 0
M  V30 604 C 57.7298 -0.267371 -1.93764 0
M  V30 605 O 58.9358 -0.230827 -2.70517 0
M  V30 606 C 57.3918 -2.78332 -2.28165 0
M  V30 607 C 56.9998 -4.16096 -1.66037 0
M  V30 608 C 58.7438 -2.96155 -3.04125 0
M  V30 609 C 56.6508 -5.27895 -2.6661 0
M  V30 610 H 55.5808 -0.587391 -0.472745 0
M  V30 611 H 58.2318 -1.75644 -0.53118 0
M  V30 612 H 56.6138 -2.53934 -3.03865 0
M  V30 613 H 57.7878 -4.50612 -0.963622 0
M  V30 614 H 56.1028 -4.03591 -1.02484 0
M  V30 615 H 58.6998 -3.76849 -3.79327 0
M  V30 616 H 59.0428 -2.06534 -3.61455 0
M  V30 617 H 59.5758 -3.2057 -2.35541 0
M  V30 618 H 56.3148 -6.1956 -2.14068 0
M  V30 619 H 55.8348 -4.97839 -3.34539 0
M  V30 620 H 57.5138 -5.57031 -3.29129 0
M  V30 621 N 57.6459 0.756429 -1.3826 0
M  V30 622 C 58.8939 1.51248 -1.34047 0
M  V30 623 C 59.2149 1.94875 0.0698372 0
M  V30 624 O 58.4849 1.67436 1.01696 0
M  V30 625 H 57.0649 0.561018 -0.493222 0
M  V30 626 H 59.7269 0.899347 -1.7291 0
M  V30 627 H 58.8229 2.40472 -1.98947 0
M  V30 628 N 59.124 1.23083 0.984299 0
M  V30 629 C 60.401 0.9689 1.69917 0
M  V30 630 C 60.781 -0.513604 2.04757 0
M  V30 631 O 60.129 -1.48383 1.73767 0
M  V30 632 C 60.339 1.87518 2.94343 0
M  V30 633 C 61.687 2.13636 3.6694 0
M  V30 634 O 62.711 1.85036 3.04368 0
M  V30 635 O 61.57 2.62119 4.79537 0
M  V30 636 H 58.664 0.365095 0.742048 0
M  V30 637 H 61.21 1.34107 1.03987 0
M  V30 638 H 59.982 2.87756 2.65164 0
M  V30 639 H 59.605 1.50514 3.6801 0
M  V30 640 N 60.6021 -1.18246 1.0419 0
M  V30 641 C 61.8271 -1.92736 0.765996 0
M  V30 642 C 62.2521 -1.75728 -0.67091 0
M  V30 643 O 61.6101 -1.06825 -1.46486 0
M  V30 644 C 61.6581 -3.42148 1.13875 0
M  V30 645 O 60.7621 -4.11548 0.264954 0
M  V30 646 H 60.1031 -0.601238 0.281797 0
M  V30 647 H 62.6331 -1.49942 1.39207 0
M  V30 648 H 62.6431 -3.92858 1.1012 0
M  V30 649 H 61.3181 -3.53848 2.18551 0
M  V30 650 H 59.8951 -3.71137 0.362226 0
M  V30 651 N 62.0802 -0.821533 -1.34494 0
M  V30 652 C 63.3262 -0.409552 -1.98622 0
M  V30 653 C 63.6592 1.0244 -1.64984 0
M  V30 654 O 62.9342 1.71325 -0.920758 0
M  V30 655 C 63.2172 -0.610458 -3.54888 0
M  V30 656 C 63.0702 -2.09043 -3.98273 0
M  V30 657 C 64.3892 -0.0455379 -4.40076 0
M  V30 658 H 61.5082 -0.15028 -0.721516 0
M  V30 659 H 64.1502 -1.03384 -1.59411 0
M  V30 660 H 62.3002 -0.079044 -3.8842 0
M  V30 661 H 63.9722 -2.68537 -3.75081 0
M  V30 662 H 62.2152 -2.58139 -3.48635 0
M  V30 663 H 62.8862 -2.18182 -5.07051 0
M  V30 664 H 65.3622 -0.499557 -4.1309 0
M  V30 665 H 64.2382 -0.215922 -5.48475 0
M  V30 666 H 64.4992 1.04939 -4.29465 0
M  V30 667 N 63.5583 1.46682 -0.576371 0
M  V30 668 C 64.7833 2.07304 -0.0630475 0
M  V30 669 C 65.2083 1.42329 1.2298 0
M  V30 670 O 64.5663 0.504865 1.74129 0
M  V30 671 C 64.6143 3.60472 0.095895 0
M  V30 672 O 63.7183 3.95927 1.15394 0
M  V30 673 H 63.0593 0.661288 -0.0599463 0
M  V30 674 H 65.5893 1.88417 -0.797511 0
M  V30 675 H 65.5993 4.06865 0.304071 0
M  V30 676 H 64.2743 4.07157 -0.84828 0
M  V30 677 H 62.8513 3.61252 0.924724 0
M  V30 678 N 65.0364 0.313813 1.54444 0
M  V30 679 C 65.9664 -0.549454 2.26943 0
M  V30 680 C 66.9474 -1.12741 1.27372 0
M  V30 681 O 68.1324 -1.15436 1.56167 0
M  V30 682 C 65.2624 -1.71523 3.01989 0
M  V30 683 C 64.2164 -1.26703 4.08816 0
M  V30 684 C 63.5424 -2.51898 4.71647 0
M  V30 685 C 64.8424 -0.388962 5.2085 0
M  V30 686 H 66.5364 0.0552661 2.99349 0
M  V30 687 H 64.0824 0.0280207 1.43973 0
M  V30 688 H 66.0354 -2.32535 3.51433 0
M  V30 689 H 64.7594 -2.34639 2.27183 0
M  V30 690 H 63.4184 -0.679896 3.6024 0
M  V30 691 H 63.0664 -3.13356 3.93468 0
M  V30 692 H 62.7664 -2.22605 5.43802 0
M  V30 693 H 64.2904 -3.1369 5.23861 0
M  V30 694 H 65.7044 -0.905107 5.6611 0
M  V30 695 H 64.1014 -0.18924 5.99802 0
M  V30 696 H 65.1714 0.582699 4.81386 0
M  V30 697 N 66.5145 -1.57545 0.0417849 0
M  V30 698 C 67.7425 -1.96624 -0.643928 0
M  V30 699 C 68.1575 -0.918897 -1.64929 0
M  V30 700 O 67.5145 0.0979323 -1.82237 0
M  V30 701 C 67.5655 -3.35781 -1.33914 0
M  V30 702 O 67.2865 -4.365 -0.374048 0
M  V30 703 C 68.7875 -3.89566 -2.1155 0
M  V30 704 H 66.0075 -0.647316 -0.176702 0
M  V30 705 H 68.5515 -2.04229 0.105304 0
M  V30 706 H 66.7065 -3.29357 -2.03968 0
M  V30 707 H 67.1205 -5.17248 -0.869179 0
M  V30 708 H 68.5945 -4.89242 -2.55628 0
M  V30 709 H 69.0715 -3.24488 -2.9598 0
M  V30 710 H 69.6775 -3.99298 -1.46427 0
M  V30 711 N 67.9926 0.231505 -1.5589 0
M  V30 712 C 69.2326 0.964533 -1.80211 0
M  V30 713 C 69.5966 1.81926 -0.613744 0
M  V30 714 O 70.7976 2.58526 -0.736045 0
M  V30 715 C 69.0686 1.78956 -3.09369 0
M  V30 716 S 70.6276 2.57959 -3.54969 0
M  V30 717 H 67.4456 0.324173 -0.632798 0
M  V30 718 H 70.0476 0.230985 -1.94131 0
M  V30 719 H 68.7516 1.15161 -3.93911 0
M  V30 720 H 68.2826 2.56559 -2.9823 0
M  V30 721 H 70.2976 3.81309 -3.17519 0
M  V30 722 N 69.4707 1.49531 0.497807 0
M  V30 723 C 70.6957 1.63159 1.28039 0
M  V30 724 C 71.1207 0.30418 1.85624 0
M  V30 725 O 70.4787 -0.728618 1.66015 0
M  V30 726 C 70.5267 2.70537 2.38416 0
M  V30 727 O 69.6307 2.29931 3.42353 0
M  V30 728 H 68.9717 0.546001 0.377861 0
M  V30 729 H 71.5017 1.9574 0.59558 0
M  V30 730 H 71.5117 2.92802 2.84132 0
M  V30 731 H 70.1867 3.6689 1.95869 0
M  V30 732 H 68.7637 2.18009 3.02533 0
M  V30 733 N 70.9488 -0.749086 1.3866 0
M  V30 734 C 72.1768 -1.53834 1.38358 0
M  V30 735 C 72.5918 -1.88783 -0.0255219 0
M  V30 736 O 71.9488 -1.53101 -0.993292 0
M  V30 737 C 71.9998 -2.83468 2.2434 0
M  V30 738 O 71.7208 -2.50008 3.5976 0
M  V30 739 C 73.2218 -3.7758 2.32267 0
M  V30 740 H 70.4418 -0.47585 0.473083 0
M  V30 741 H 72.9858 -0.926726 1.82297 0
M  V30 742 H 71.1408 -3.40995 1.83851 0
M  V30 743 H 71.5548 -3.33182 4.05081 0
M  V30 744 H 73.0288 -4.65478 2.96706 0
M  V30 745 H 73.5058 -4.18334 1.33765 0
M  V30 746 H 74.1118 -3.25976 2.73166 0
M  V30 747 N 72.4269 -1.23603 -0.977757 0
M  V30 748 C 73.6549 -1.09646 -1.75458 0
M  V30 749 C 74.0699 0.351859 -1.85492 0
M  V30 750 O 73.4269 1.24327 -1.336 0
M  V30 751 C 73.4779 -1.71895 -3.18016 0
M  V30 752 O 73.1989 -3.11063 -3.08498 0
M  V30 753 C 74.6999 -1.63415 -4.12081 0
M  V30 754 H 71.9199 -0.38359 -0.550545 0
M  V30 755 H 74.4639 -1.63507 -1.22824 0
M  V30 756 H 72.6189 -1.22061 -3.67668 0
M  V30 757 H 73.0329 -3.41305 -3.9826 0
M  V30 758 H 74.5069 -2.11669 -5.09804 0
M  V30 759 H 74.9839 -0.593462 -4.35172 0
M  V30 760 H 75.5899 -2.12628 -3.68334 0
M  V30 761 N 73.905 1.17692 -1.04816 0
M  V30 762 C 75.153 1.87488 -0.754497 0
M  V30 763 C 75.474 1.81205 0.720407 0
M  V30 764 O 74.744 1.23544 1.52032 0
M  V30 765 H 73.324 0.694101 -0.276102 0
M  V30 766 H 75.986 1.42793 -1.32651 0
M  V30 767 H 75.082 2.93328 -1.06606 0
M  V30 768 N 75.3831 0.828654 1.34056 0
M  V30 769 C 76.6231 0.425394 1.99924 0
M  V30 770 C 76.9871 -0.994294 1.64249 0
M  V30 771 O 78.1881 -1.50074 2.23005 0
M  V30 772 C 76.4591 0.628071 3.51838 0
M  V30 773 S 78.0181 0.318511 4.37642 0
M  V30 774 H 74.8361 0.160465 0.692656 0
M  V30 775 H 77.4381 1.07572 1.63244 0
M  V30 776 H 76.1421 1.66089 3.7529 0
M  V30 777 H 75.6731 -0.0367799 3.93383 0
M  V30 778 H 77.6881 -0.865632 4.88591 0
M  V30 779 N 76.8612 -1.46375 0.584142 0
M  V30 780 C 77.7712 -2.34115 -0.150728 0
M  V30 781 C 78.7872 -1.49838 -0.884567 0
M  V30 782 O 79.9632 -1.82704 -0.847429 0
M  V30 783 C 77.0282 -3.2705 -1.15062 0
M  V30 784 C 76.0892 -4.27228 -0.421293 0
M  V30 785 C 75.3222 -5.15722 -1.37355 0
M  V30 786 O 75.5452 -5.07176 -2.61014 0
M  V30 787 O 74.4792 -5.95383 -0.883355 0
M  V30 788 H 78.3052 -2.98309 0.569708 0
M  V30 789 H 75.8902 -1.45373 0.344535 0
M  V30 790 H 77.7722 -3.84381 -1.72712 0
M  V30 791 H 76.4472 -2.65451 -1.8525 0
M  V30 792 H 75.3542 -3.7358 0.197085 0
M  V30 793 H 76.6872 -4.91616 0.239641 0
M  V30 794 N 78.3393 -0.321999 -1.54275 0
M  V30 795 C 79.5643 0.285791 -2.05422 0
M  V30 796 C 79.9893 1.45124 -1.19669 0
M  V30 797 O 79.3473 1.80132 -0.205441 0
M  V30 798 C 79.3953 0.69956 -3.53749 0
M  V30 799 O 78.4993 1.8021 -3.70942 0
M  V30 800 H 77.8403 0.0518962 -0.661969 0
M  V30 801 H 80.3703 -0.469954 -1.9913 0
M  V30 802 H 80.3803 0.982649 -3.9599 0
M  V30 803 H 79.0553 -0.152864 -4.15619 0
M  V30 804 H 77.6323 1.51794 -3.40607 0
M  V30 805 N 79.8174 1.5752 -0.0501392 0
M  V30 806 C 81.2284 1.80271 0.485705 0
M  V30 807 C 81.5794 0.96228 1.70981 0
M  V30 808 O 80.7044 0.178578 2.15662 0
M  V30 809 C 81.2994 3.26957 0.887938 0
M  V30 810 C 79.8584 3.5063 1.36877 0
M  V30 811 C 79.0054 2.75165 0.343468 0
M  V30 812 H 81.9564 1.56281 -0.276028 0
M  V30 813 H 81.9774 3.37821 1.75093 0
M  V30 814 H 81.4894 3.881 -0.0031809 0
M  V30 815 H 79.5904 2.94766 2.27911 0
M  V30 816 H 79.7034 4.59343 1.36164 0
M  V30 817 H 78.0674 2.4127 0.816128 0
M  V30 818 H 78.8504 3.39034 -0.539548 0
M  V30 819 N 81.2955 -0.223234 1.56011 0
M  V30 820 C 82.5425 -0.947875 1.78946 0
M  V30 821 C 82.8705 -1.844 0.618608 0
M  V30 822 O 82.1255 -1.91629 -0.397093 0
M  V30 823 C 82.4245 -1.81948 3.0762 0
M  V30 824 C 82.0905 -1.07672 4.37856 0
M  V30 825 C 80.7525 -0.871544 4.73242 0
M  V30 826 C 83.1045 -0.552081 5.18268 0
M  V30 827 C 80.4325 -0.129791 5.86556 0
M  V30 828 C 82.7845 0.17632 6.32354 0
M  V30 829 C 81.4485 0.39277 6.66343 0
M  V30 830 H 80.7185 -0.346852 0.654809 0
M  V30 831 H 83.3655 -0.216171 1.90276 0
M  V30 832 H 81.6705 -2.61899 2.91404 0
M  V30 833 H 83.3675 -2.38227 3.22566 0
M  V30 834 H 79.9575 -1.24662 4.1007 0
M  V30 835 H 84.1415 -0.698076 4.91366 0
M  V30 836 H 79.3975 0.048153 6.11381 0
M  V30 837 H 83.5715 0.590367 6.93893 0
M  V30 838 H 81.1985 0.969466 7.53993 0
M  V30 839 N 82.7736 -1.49793 -0.48987 0
M  V30 840 C 84.0206 -1.59841 -1.24327 0
M  V30 841 C 84.3486 -0.290135 -1.92324 0
M  V30 842 O 83.6036 0.722749 -1.81865 0
M  V30 843 C 83.9026 -2.71488 -2.32441 0
M  V30 844 C 83.5686 -4.12614 -1.81826 0
M  V30 845 C 82.2306 -4.51017 -1.67742 0
M  V30 846 C 84.5826 -5.00892 -1.4407 0
M  V30 847 C 81.9106 -5.75459 -1.14297 0
M  V30 848 C 84.2626 -6.25863 -0.920742 0
M  V30 849 C 82.9266 -6.63086 -0.766383 0
M  V30 850 H 82.1966 -0.584899 -0.454944 0
M  V30 851 H 84.8436 -1.83663 -0.542215 0
M  V30 852 H 83.1486 -2.4168 -3.0838 0
M  V30 853 H 84.8456 -2.76469 -2.90458 0
M  V30 854 H 81.4356 -3.82307 -1.93751 0
M  V30 855 H 85.6196 -4.7187 -1.53794 0
M  V30 856 H 80.8756 -6.02989 -1.01068 0
M  V30 857 H 85.0496 -6.9364 -0.619448 0
M  V30 858 H 82.6766 -7.59393 -0.350083 0
M  V30 859 N 84.2517 0.741722 -1.39055 0
M  V30 860 C 85.4767 1.53607 -1.39354 0
M  V30 861 C 85.9017 1.88096 0.0116905 0
M  V30 862 O 85.2597 1.5143 0.996924 0
M  V30 863 C 85.3077 2.80441 -2.26682 0
M  V30 864 O 84.4117 3.76088 -1.69208 0
M  V30 865 H 83.7527 0.464142 -0.474835 0
M  V30 866 H 86.2827 0.915665 -1.82967 0
M  V30 867 H 86.2927 3.29246 -2.40959 0
M  V30 868 H 84.9677 2.5467 -3.2881 0
M  V30 869 H 83.5447 3.34833 -1.64138 0
M  V30 870 N 85.7298 1.2412 0.971189 0
M  V30 871 C 86.9758 1.09048 1.71698 0
M  V30 872 C 87.3308 -0.367442 1.88859 0
M  V30 873 O 86.6238 -1.26792 1.43646 0
M  V30 874 C 86.8178 1.75983 3.11071 0
M  V30 875 C 86.6468 3.28133 3.07504 0
M  V30 876 C 85.4168 3.97331 3.1218 0
M  V30 877 C 87.6148 4.24773 2.89952 0
M  V30 878 N 85.5968 5.3639 2.98596 0
M  V30 879 C 86.9678 5.50806 2.84627 0
M  V30 880 C 89.0228 4.15392 2.74506 0
M  V30 881 C 87.7258 6.68533 2.65437 0
M  V30 882 C 89.7518 5.32793 2.56682 0
M  V30 883 C 89.1138 6.57756 2.52063 0
M  V30 884 H 85.2128 0.453632 0.636979 0
M  V30 885 H 87.7968 1.56983 1.15171 0
M  V30 886 H 85.9678 1.30566 3.65796 0
M  V30 887 H 87.6998 1.53803 3.74335 0
M  V30 888 H 84.4548 3.48473 3.20724 0
M  V30 889 H 84.8788 6.09321 2.95054 0
M  V30 890 H 89.5208 3.19543 2.76861 0
M  V30 891 H 87.2388 7.64509 2.61825 0
M  V30 892 H 90.8248 5.27383 2.4568 0
M  V30 893 H 89.7048 7.4707 2.38446 0
M  V30 894 N 87.2079 -1.17134 1.05439 0
M  V30 895 C 88.6239 -1.39454 0.776201 0
M  V30 896 C 88.8239 -1.91454 -0.628307 0
M  V30 897 O 87.8799 -2.10777 -1.39031 0
M  V30 898 C 89.1929 -2.38305 1.83388 0
M  V30 899 C 90.7409 -2.52006 1.85639 0
M  V30 900 C 91.2159 -3.54133 2.90437 0
M  V30 901 N 92.7069 -3.61653 2.89415 0
M  V30 902 C 93.4419 -4.4044 3.67152 0
M  V30 903 N 92.9379 -5.22721 4.54681 0
M  V30 904 N 94.7309 -4.35337 3.55581 0
M  V30 905 H 86.8819 -0.817134 1.96053 0
M  V30 906 H 89.1449 -0.421626 0.849079 0
M  V30 907 H 88.8509 -2.07173 2.84204 0
M  V30 908 H 88.7249 -3.37841 1.67761 0
M  V30 909 H 91.1119 -2.82447 0.85486 0
M  V30 910 H 91.1929 -1.52537 2.05344 0
M  V30 911 H 90.8369 -3.24431 3.90777 0
M  V30 912 H 90.7669 -4.53313 2.67983 0
M  V30 913 H 93.2579 -3.02909 2.25952 0
M  V30 914 H 93.5709 -5.80027 5.10674 0
M  V30 915 H 91.9159 -5.22093 4.58741 0
M  V30 916 H 95.1069 -3.70112 2.86592 0
M  V30 917 H 95.2799 -4.96494 4.1641 0
M  V30 918 N 88.686 -0.835752 -1.33615 0
M  V30 919 C 89.914 -0.443344 -2.02094 0
M  V30 920 C 90.329 0.954522 -1.62894 0
M  V30 921 O 89.686 1.61982 -0.840723 0
M  V30 922 C 89.737 -0.550775 -3.5728 0
M  V30 923 O 89.458 -1.89356 -3.95065 0
M  V30 924 C 90.959 -0.154919 -4.43029 0
M  V30 925 H 88.179 -0.176359 -0.647409 0
M  V30 926 H 90.723 -1.12746 -1.70612 0
M  V30 927 H 88.878 0.0853997 -3.87306 0
M  V30 928 H 89.292 -1.87687 -4.89769 0
M  V30 929 H 90.766 -0.281144 -5.51284 0
M  V30 930 H 91.243 0.902863 -4.2982 0
M  V30 931 H 91.849 -0.765404 -4.18356 0
M  V30 932 N 90.1641 1.46063 -0.591896 0
M  V30 933 C 91.0961 2.28539 0.174001 0
M  V30 934 C 92.1091 1.39047 0.846753 0
M  V30 935 O 93.2981 1.63564 0.714774 0
M  V30 936 C 90.3981 3.14347 1.26645 0
M  V30 937 C 89.5711 4.32021 0.683856 0
M  V30 938 C 88.6301 4.99157 1.66518 0
M  V30 939 O 87.6561 5.56458 1.19763 0
M  V30 940 N 88.8581 4.97005 2.99943 0
M  V30 941 H 91.6231 2.94911 -0.533633 0
M  V30 942 H 89.1841 1.56077 -0.430294 0
M  V30 943 H 91.1761 3.56125 1.92242 0
M  V30 944 H 89.7461 2.49988 1.87682 0
M  V30 945 H 88.9661 3.93915 -0.1498 0
M  V30 946 H 90.2541 5.08059 0.274567 0
M  V30 947 H 89.6521 4.51714 3.40545 0
M  V30 948 H 88.2091 5.42696 3.61004 0
M  V30 949 N 91.6422 0.330177 1.54103 0
M  V30 950 C 92.8912 -0.271336 1.99867 0
M  V30 951 C 93.2042 -1.52723 1.22209 0
M  V30 952 O 94.4102 -2.20515 1.58383 0
M  V30 953 C 92.8662 -0.534032 3.55916 0
M  V30 954 C 92.4742 0.705193 4.42415 0
M  V30 955 C 94.2182 -1.09514 4.1013 0
M  V30 956 C 92.1252 0.414035 5.89949 0
M  V30 957 H 91.0552 -0.105166 0.74663 0
M  V30 958 H 93.7062 0.443429 1.78062 0
M  V30 959 H 92.0882 -1.30915 3.73734 0
M  V30 960 H 93.2622 1.4804 4.36372 0
M  V30 961 H 91.5772 1.18698 3.99124 0
M  V30 962 H 94.1742 -1.3277 5.17954 0
M  V30 963 H 94.5172 -2.04656 3.62521 0
M  V30 964 H 95.0502 -0.381038 3.95971 0
M  V30 965 H 91.7892 1.33481 6.41766 0
M  V30 966 H 91.3092 -0.323336 5.98928 0
M  V30 967 H 92.9882 0.0263105 6.46995 0
M  V30 968 N 93.1203 -1.57491 0.0584922 0
M  V30 969 C 94.3973 -1.84346 -0.653918 0
M  V30 970 C 94.7773 -0.948355 -1.88599 0
M  V30 971 O 94.1253 -0.0112403 -2.28497 0
M  V30 972 C 94.3353 -3.34239 -1.00425 0
M  V30 973 C 95.6833 -4.01431 -1.38342 0
M  V30 974 O 96.7073 -3.38907 -1.09637 0
M  V30 975 O 95.5663 -5.11683 -1.91943 0
M  V30 976 H 92.6603 -0.761112 -0.323478 0
M  V30 977 H 95.2063 -1.6947 0.0884125 0
M  V30 978 H 93.9783 -3.91089 -0.128625 0
M  V30 979 H 93.6013 -3.54329 -1.80378 0
M  V30 980 N 94.5984 0.214957 -1.56127 0
M  V30 981 C 95.8234 0.95924 -1.83884 0
M  V30 982 C 96.2484 1.7689 -0.639644 0
M  V30 983 O 95.6064 1.76566 0.411601 0
M  V30 984 C 95.6544 1.84723 -3.09693 0
M  V30 985 O 94.7584 2.94346 -2.8885 0
M  V30 986 H 94.0994 0.27125 -0.606069 0
M  V30 987 H 96.6294 0.226276 -2.03345 0
M  V30 988 H 96.6394 2.25576 -3.39969 0
M  V30 989 H 95.3144 1.25218 -3.96602 0
M  V30 990 H 93.8914 2.57391 -2.69823 0
M  V30 991 N 96.0765 1.50051 0.48192 0
M  V30 992 C 97.4875 1.5348 1.06305 0
M  V30 993 C 97.8385 0.331997 1.93371 0
M  V30 994 O 96.9635 -0.556256 2.09129 0
M  V30 995 C 97.5585 2.7813 1.93466 0
M  V30 996 C 96.1175 2.84275 2.46707 0
M  V30 997 C 95.2645 2.47637 1.24785 0
M  V30 998 H 98.2155 1.56472 0.264995 0
M  V30 999 H 98.2365 2.59372 2.78399 0
M  V30 1000 H 97.7485 3.65654 1.30072 0
M  V30 1001 H 95.8495 2.01077 3.13686 0
M  V30 1002 H 95.9625 3.8691 2.82555 0
M  V30 1003 H 94.3265 1.99835 1.57918 0
M  V30 1004 H 95.1095 3.37457 0.630694 0
M  V30 1005 N 97.5546 -0.734337 1.39446 0
M  V30 1006 C 98.4846 -1.86155 1.40955 0
M  V30 1007 C 99.4656 -1.67898 0.272827 0
M  V30 1008 O 100.651 -1.88207 0.478743 0
M  V30 1009 C 97.7806 -3.23912 1.25294 0
M  V30 1010 C 96.7346 -3.56808 2.36373 0
M  V30 1011 C 96.0606 -4.93508 2.058 0
M  V30 1012 C 97.3606 -3.59713 3.78687 0
M  V30 1013 H 99.0546 -1.8515 2.35287 0
M  V30 1014 H 96.6006 -0.889367 1.13253 0
M  V30 1015 H 98.5536 -4.02443 1.2497 0
M  V30 1016 H 97.2776 -3.25446 0.274308 0
M  V30 1017 H 95.9366 -2.80606 2.35914 0
M  V30 1018 H 95.5846 -4.91623 1.06374 0
M  V30 1019 H 95.2846 -5.16486 2.80208 0
M  V30 1020 H 96.8086 -5.74396 2.07128 0
M  V30 1021 H 98.2226 -4.2832 3.81071 0
M  V30 1022 H 96.6196 -3.94209 4.52459 0
M  V30 1023 H 97.6896 -2.59504 4.09617 0
M  V30 1024 N 99.0327 -1.24633 -0.964593 0
M  V30 1025 C 99.9807 -1.03917 -2.08096 0
M  V30 1026 C 100.975 0.0268581 -1.69379 0
M  V30 1027 O 102.181 -0.127952 -1.79545 0
M  V30 1028 H 98.5557 -0.319044 -0.680966 0
M  V30 1029 H 100.527 -1.98581 -2.22729 0
M  V30 1030 C 99.2757 -0.663983 -3.41301 0
M  V30 1031 H 98.5987 -1.47605 -3.71555 0
M  V30 1032 H 100.039 -0.558663 -4.20303 0
M  V30 1033 C 98.4977 0.629169 -3.30973 0
M  V30 1034 O 99.0277 1.67404 -3.65156 0
M  V30 1035 N 97.2337 0.611057 -2.84103 0
M  V30 1036 H 96.7807 -0.239593 -2.56483 0
M  V30 1037 H 96.7387 1.47647 -2.77575 0
M  V30 1038 N 100.511 1.16574 -1.06058 0
M  V30 1039 C 101.759 1.86677 -0.77434 0
M  V30 1040 C 102.08 1.81959 0.701147 0
M  V30 1041 O 101.35 1.2515 1.50713 0
M  V30 1042 H 99.9298 0.691134 -0.283449 0
M  V30 1043 H 102.592 1.41378 -1.34158 0
M  V30 1044 H 101.688 2.92181 -1.09711 0
M  V30 1045 N 101.989 0.842826 1.3317 0
M  V30 1046 C 102.936 0.276885 2.29133 0
M  V30 1047 C 103.906 -0.609527 1.54512 0
M  V30 1048 O 105.091 -0.546955 1.82792 0
M  V30 1049 C 102.231 -0.538707 3.40869 0
M  V30 1050 C 101.344 0.372169 4.30394 0
M  V30 1051 C 100.479 -0.454908 5.29249 0
M  V30 1052 C 99.5179 0.45411 6.10413 0
M  V30 1053 N 98.6549 -0.335075 7.013 0
M  V30 1054 H 103.495 1.10052 2.76934 0
M  V30 1055 H 101.032 0.554161 1.36262 0
M  V30 1056 H 102.99 -1.02709 4.0436 0
M  V30 1057 H 101.62 -1.32727 2.9425 0
M  V30 1058 H 100.672 0.97888 3.6759 0
M  V30 1059 H 101.984 1.0703 4.87182 0
M  V30 1060 H 101.138 -1.00695 5.98285 0
M  V30 1061 H 99.8769 -1.18646 4.73048 0
M  V30 1062 H 98.8819 1.01813 5.40291 0
M  V30 1063 H 100.107 1.18409 6.68697 0
M  V30 1064 H 98.0529 -1.04994 6.47543 0
M  V30 1065 H 97.9699 0.304262 7.55387 0
M  V30 1066 H 99.2379 -0.869224 7.74638 0
M  V30 1067 N 103.467 -1.45747 0.599634 0
M  V30 1068 C 104.713 -2.02592 0.0918643 0
M  V30 1069 C 105.046 -1.46806 -1.27128 0
M  V30 1070 O 104.321 -0.639658 -1.83681 0
M  V30 1071 C 104.604 -3.60073 0.0443398 0
M  V30 1072 C 104.457 -4.26208 1.43759 0
M  V30 1073 C 105.776 -4.35309 -0.647608 0
M  V30 1074 H 102.895 -0.736175 0.034857 0
M  V30 1075 H 105.537 -1.73694 0.770081 0
M  V30 1076 H 103.687 -3.84823 -0.533224 0
M  V30 1077 H 105.359 -4.12668 2.06162 0
M  V30 1078 H 103.602 -3.84916 2.00056 0
M  V30 1079 H 104.273 -5.35069 1.35665 0
M  V30 1080 H 106.749 -4.15805 -0.156776 0
M  V30 1081 H 105.625 -5.45038 -0.649942 0
M  V30 1082 H 105.886 -4.07598 -1.71219 0
M  V30 1083 N 104.945 -0.338344 -1.53925 0
M  V30 1084 C 106.173 0.261298 -2.05243 0
M  V30 1085 C 106.588 1.44625 -1.21363 0
M  V30 1086 O 105.945 1.80811 -0.247736 0
M  V30 1087 C 105.996 0.681412 -3.5502 0
M  V30 1088 O 105.717 -0.456414 -4.35716 0
M  V30 1089 C 107.218 1.34232 -4.22489 0
M  V30 1090 H 104.438 0.0513685 -0.669031 0
M  V30 1091 H 106.982 -0.488822 -1.98572 0
M  V30 1092 H 105.137 1.38148 -3.61931 0
M  V30 1093 H 105.551 -0.122564 -5.24357 0
M  V30 1094 H 107.025 1.58708 -5.28693 0
M  V30 1095 H 107.502 2.29426 -3.74514 0
M  V30 1096 H 108.108 0.684424 -4.19757 0
M  V30 1097 N 106.423 1.57458 -0.0668435 0
M  V30 1098 C 107.371 2.13639 0.919851 0
M  V30 1099 C 108.365 1.07204 1.31163 0
M  V30 1100 O 109.571 1.25591 1.28945 0
M  V30 1101 H 105.946 0.683048 0.314562 0
M  V30 1102 H 107.917 2.95415 0.421047 0
M  V30 1103 C 106.666 2.70892 2.17975 0
M  V30 1104 H 105.989 3.5246 1.88711 0
M  V30 1105 H 107.429 3.13803 2.85138 0
M  V30 1106 C 105.888 1.65414 2.93496 0
M  V30 1107 O 106.418 1.07619 3.87015 0
M  V30 1108 N 104.624 1.36564 2.56512 0
M  V30 1109 H 104.171 1.83751 1.80536 0
M  V30 1110 H 104.129 0.66223 3.07347 0
M  V30 1111 N 107.901 -0.206675 1.56239 0
M  V30 1112 C 108.811 -1.27686 1.96808 0
M  V30 1113 C 109.827 -1.50455 0.874035 0
M  V30 1114 O 111.003 -1.63295 1.17884 0
M  V30 1115 C 108.068 -2.60358 2.28942 0
M  V30 1116 C 107.129 -2.45762 3.51994 0
M  V30 1117 C 106.362 -3.72108 3.82585 0
M  V30 1118 O 106.585 -4.75776 3.14631 0
M  V30 1119 O 105.519 -3.6833 4.76043 0
M  V30 1120 H 109.345 -0.962593 2.88041 0
M  V30 1121 H 106.93 -0.410746 1.43643 0
M  V30 1122 H 108.812 -3.38687 2.50737 0
M  V30 1123 H 107.487 -2.91435 1.4088 0
M  V30 1124 H 106.394 -1.65584 3.35459 0
M  V30 1125 H 107.727 -2.19621 4.40486 0
M  V30 1126 N 109.379 -1.50304 -0.473955 0
M  V30 1127 C 110.627 -1.60832 -1.22382 0
M  V30 1128 C 110.948 -0.30939 -1.9253 0
M  V30 1129 O 110.218 0.67296 -1.83978 0
M  V30 1130 H 108.798 -0.592652 -0.454723 0
M  V30 1131 H 111.46 -1.87068 -0.546968 0
M  V30 1132 H 110.556 -2.41803 -1.97327 0
M  V30 1133 N 110.857 0.726932 -1.39834 0
M  V30 1134 C 112.085 1.51613 -1.40787 0
M  V30 1135 C 112.5 1.88799 -0.00451505 0
M  V30 1136 O 111.857 1.54662 0.968809 0
M  V30 1137 C 111.908 2.79863 -2.28821 0
M  V30 1138 O 111.629 2.44253 -3.63692 0
M  V30 1139 C 113.13 3.73837 -2.38245 0
M  V30 1140 H 110.35 0.468264 -0.480593 0
M  V30 1141 H 112.894 0.897607 -1.83748 0
M  V30 1142 H 111.049 3.38027 -1.89252 0
M  V30 1143 H 111.463 3.26695 -4.1033 0
M  V30 1144 H 112.937 4.60699 -3.04073 0
M  V30 1145 H 113.414 4.16153 -1.40403 0
M  V30 1146 H 114.02 3.21589 -2.78317 0
M  V30 1147 N 112.336 1.25143 0.95797 0
M  V30 1148 C 113.564 1.12424 1.73691 0
M  V30 1149 C 113.979 -0.322304 1.86029 0
M  V30 1150 O 113.336 -1.22186 1.35561 0
M  V30 1151 C 113.387 1.76933 3.15241 0
M  V30 1152 O 113.108 3.15932 3.03511 0
M  V30 1153 C 114.609 1.6995 4.09429 0
M  V30 1154 H 111.829 0.3923 0.544373 0
M  V30 1155 H 114.373 1.6544 1.20207 0
M  V30 1156 H 112.528 1.27895 3.6568 0
M  V30 1157 H 112.942 3.47598 3.9278 0
M  V30 1158 H 114.416 2.19753 5.06372 0
M  V30 1159 H 114.893 0.662619 4.34173 0
M  V30 1160 H 115.499 2.18461 3.64904 0
M  V30 1161 N 113.814 -1.1601 1.06675 0
M  V30 1162 C 115.039 -1.91068 0.806706 0
M  V30 1163 C 115.464 -1.77112 -0.633485 0
M  V30 1164 O 114.822 -1.09908 -1.44187 0
M  V30 1165 C 114.87 -3.39655 1.21106 0
M  V30 1166 O 113.974 -4.10893 0.352189 0
M  V30 1167 H 113.315 -0.595125 0.294486 0
M  V30 1168 H 115.845 -1.46955 1.42356 0
M  V30 1169 H 115.855 -3.90434 1.18428 0
M  V30 1170 H 114.53 -3.49132 2.26008 0
M  V30 1171 H 113.107 -3.70285 0.440868 0
M  V30 1172 N 115.292 -0.849877 -1.32721 0
M  V30 1173 C 116.52 -0.464754 -2.01613 0
M  V30 1174 C 116.935 0.937191 -1.63897 0
M  V30 1175 O 116.292 1.61081 -0.857856 0
M  V30 1176 C 116.343 -0.588638 -3.56675 0
M  V30 1177 O 116.064 -1.93535 -3.93034 0
M  V30 1178 C 117.565 -0.2019 -4.4284 0
M  V30 1179 H 114.785 -0.183215 -0.645502 0
M  V30 1180 H 117.329 -1.1455 -1.69407 0
M  V30 1181 H 115.484 0.0443159 -3.87375 0
M  V30 1182 H 115.898 -1.92871 -4.87751 0
M  V30 1183 H 117.372 -0.339599 -5.50954 0
M  V30 1184 H 117.849 0.857224 -4.30753 0
M  V30 1185 H 118.455 -0.809733 -4.17521 0
M  V30 1186 N 116.77 1.45427 -0.607355 0
M  V30 1187 C 117.7 2.3329 0.0989352 0
M  V30 1188 C 118.681 1.46816 0.859007 0
M  V30 1189 O 119.866 1.75588 0.829604 0
M  V30 1190 C 116.996 3.29518 1.09705 0
M  V30 1191 C 115.95 4.25626 0.450206 0
M  V30 1192 C 115.276 5.11542 1.55655 0
M  V30 1193 C 116.576 5.18505 -0.628455 0
M  V30 1194 H 118.27 2.92595 -0.634716 0
M  V30 1195 H 115.816 1.40696 -0.306681 0
M  V30 1196 H 117.769 3.89855 1.59971 0
M  V30 1197 H 116.493 2.68372 1.86129 0
M  V30 1198 H 115.152 3.66586 -0.0315886 0
M  V30 1199 H 114.8 4.46765 2.31107 0
M  V30 1200 H 114.5 5.76647 1.12925 0
M  V30 1201 H 116.024 5.74748 2.06148 0
M  V30 1202 H 117.438 5.72916 -0.209877 0
M  V30 1203 H 115.835 5.92085 -0.977489 0
M  V30 1204 H 116.905 4.60948 -1.50514 0
M  V30 1205 N 118.248 0.346503 1.53744 0
M  V30 1206 C 119.476 -0.25041 2.05379 0
M  V30 1207 C 119.891 -1.43979 1.22129 0
M  V30 1208 O 119.248 -1.80677 0.257321 0
M  V30 1209 C 119.299 -0.662575 3.55376 0
M  V30 1210 O 119.02 0.479515 4.35468 0
M  V30 1211 C 120.521 -1.31989 4.23195 0
M  V30 1212 H 117.741 -0.0478198 0.669294 0
M  V30 1213 H 120.285 0.499346 1.9831 0
M  V30 1214 H 118.44 -1.36227 3.62658 0
M  V30 1215 H 118.854 0.15037 5.24284 0
M  V30 1216 H 120.328 -1.55902 5.29527 0
M  V30 1217 H 120.805 -2.27436 3.75725 0
M  V30 1218 H 121.411 -0.662154 4.20114 0
M  V30 1219 N 119.726 -1.57421 0.075193 0
M  V30 1220 C 120.659 -2.08528 -0.926904 0
M  V30 1221 C 121.637 -0.991171 -1.28898 0
M  V30 1222 O 122.821 -1.26479 -1.39769 0
M  V30 1223 C 119.948 -2.54576 -2.23402 0
M  V30 1224 C 118.994 -3.75454 -2.02327 0
M  V30 1225 S 119.827 -5.19989 -1.27951 0
M  V30 1226 C 120.983 -5.69372 -2.59935 0
M  V30 1227 H 121.216 -2.932 -0.492048 0
M  V30 1228 H 118.749 -1.53785 -0.137651 0
M  V30 1229 H 120.707 -2.81767 -2.98526 0
M  V30 1230 H 119.368 -1.70166 -2.64012 0
M  V30 1231 H 118.561 -4.05675 -2.99071 0
M  V30 1232 H 118.163 -3.48654 -1.35339 0
M  V30 1233 H 120.455 -5.76424 -3.56008 0
M  V30 1234 H 121.398 -6.68207 -2.34319 0
M  V30 1235 H 121.806 -4.97205 -2.67296 0
M  V30 1236 N 121.204 0.198386 -1.56346 0
M  V30 1237 C 122.152 1.26538 -1.95169 0
M  V30 1238 C 123.146 1.47295 -0.836685 0
M  V30 1239 O 124.352 1.48195 -1.02167 0
M  V30 1240 H 120.727 0.424744 -0.620561 0
M  V30 1241 H 122.698 0.910904 -2.84157 0
M  V30 1242 C 121.447 2.6035 -2.30463 0
M  V30 1243 H 120.77 2.45192 -3.15786 0
M  V30 1244 H 122.21 3.33762 -2.61494 0
M  V30 1245 C 120.669 3.17096 -1.13806 0
M  V30 1246 O 121.199 3.99588 -0.41135 0
M  V30 1247 N 119.405 2.75795 -0.915736 0
M  V30 1248 H 118.952 2.08816 -1.50843 0
M  V30 1249 H 118.91 3.14101 -0.136979 0
M  V30 1250 N 122.682 1.50554 0.465978 0
M  V30 1251 C 124.093 1.54599 1.04671 0
M  V30 1252 C 124.444 0.352488 1.93008 0
M  V30 1253 O 123.569 -0.534044 2.09707 0
M  V30 1254 C 124.164 2.80166 1.90505 0
M  V30 1255 C 122.723 2.86876 2.43678 0
M  V30 1256 C 121.87 2.48947 1.22151 0
M  V30 1257 H 124.821 1.56744 0.248384 0
M  V30 1258 H 124.842 2.62311 2.75633 0
M  V30 1259 H 124.354 3.67013 1.26186 0
M  V30 1260 H 122.455 2.04393 3.11536 0
M  V30 1261 H 122.568 3.89885 2.78436 0
M  V30 1262 H 120.932 2.01498 1.5579 0
M  V30 1263 H 121.715 3.38107 0.594866 0
M  V30 1264 N 124.16 -0.719506 1.40217 0
M  V30 1265 C 125.406 -1.48152 1.38488 0
M  V30 1266 C 125.739 -1.94195 -0.0141867 0
M  V30 1267 O 125.014 -1.67884 -0.982096 0
M  V30 1268 C 125.297 -2.71035 2.37091 0
M  V30 1269 C 125.15 -2.30912 3.86005 0
M  V30 1270 C 126.469 -3.73182 2.33288 0
M  V30 1271 H 123.588 -0.537395 0.504357 0
M  V30 1272 H 126.23 -0.821472 1.71324 0
M  V30 1273 H 124.38 -3.27352 2.0922 0
M  V30 1274 H 126.052 -1.80107 4.24687 0
M  V30 1275 H 124.295 -1.62958 4.02029 0
M  V30 1276 H 124.966 -3.18978 4.50508 0
M  V30 1277 H 127.442 -3.26485 2.57966 0
M  V30 1278 H 126.318 -4.56806 3.04334 0
M  V30 1279 H 126.579 -4.21202 1.34317 0
M  V30 1280 N 125.638 -1.25649 -0.95132 0
M  V30 1281 C 126.863 -1.13443 -1.73624 0
M  V30 1282 C 127.288 0.307565 -1.85568 0
M  V30 1283 O 126.646 1.22282 -1.33854 0
M  V30 1284 C 126.694 -1.79723 -3.12621 0
M  V30 1285 O 125.798 -1.07912 -3.98031 0
M  V30 1286 H 125.139 -0.395872 -0.533086 0
M  V30 1287 H 127.669 -1.66276 -1.1922 0
M  V30 1288 H 127.679 -1.86141 -3.63064 0
M  V30 1289 H 126.354 -2.84633 -3.03244 0
M  V30 1290 H 124.931 -1.09398 -3.56492 0
M  V30 1291 N 127.117 1.15442 -1.07289 0
M  V30 1292 C 128.364 1.86213 -0.795668 0
M  V30 1293 C 128.692 1.82291 0.678238 0
M  V30 1294 O 127.947 1.24057 1.51355 0
M  V30 1295 C 128.246 3.3489 -1.24834 0
M  V30 1296 C 127.912 3.59007 -2.72809 0
M  V30 1297 C 126.574 3.65298 -3.13227 0
M  V30 1298 C 128.926 3.68762 -3.68326 0
M  V30 1299 C 126.254 3.78854 -4.4798 0
M  V30 1300 C 128.606 3.83842 -5.0284 0
M  V30 1301 C 127.27 3.88378 -5.4288 0
M  V30 1302 H 126.54 0.681403 -0.291155 0
M  V30 1303 H 129.187 1.36435 -1.34379 0
M  V30 1304 H 127.492 3.8687 -0.619595 0
M  V30 1305 H 129.189 3.88052 -1.01076 0
M  V30 1306 H 125.779 3.5475 -2.40521 0
M  V30 1307 H 129.963 3.63202 -3.38227 0
M  V30 1308 H 125.219 3.80623 -4.78472 0
M  V30 1309 H 129.393 3.90332 -5.76727 0
M  V30 1310 H 127.02 3.98635 -6.47298 0
M  V30 1311 N 128.595 0.856903 1.32268 0
M  V30 1312 C 129.843 0.460474 1.96784 0
M  V30 1313 C 130.164 -0.987701 1.68135 0
M  V30 1314 O 129.434 -1.69058 0.989765 0
M  V30 1315 H 128.014 0.167289 0.728027 0
M  V30 1316 H 130.676 1.09383 1.61312 0
M  V30 1317 H 129.772 0.60739 3.06133 0
M  V30 1318 N 130.073 -1.45103 0.615059 0
M  V30 1319 C 131.021 -2.32331 -0.111791 0
M  V30 1320 C 132.015 -1.46409 -0.852102 0
M  V30 1321 O 133.221 -1.62849 -0.766821 0
M  V30 1322 H 129.596 -0.749993 -0.0549072 0
M  V30 1323 H 131.567 -2.91407 0.642225 0
M  V30 1324 C 130.316 -3.3015 -1.09071 0
M  V30 1325 H 129.639 -3.96265 -0.530485 0
M  V30 1326 H 131.079 -3.93898 -1.56908 0
M  V30 1327 C 129.538 -2.57875 -2.168 0
M  V30 1328 O 130.068 -2.36567 -3.24652 0
M  V30 1329 N 128.274 -2.17884 -1.92289 0
M  V30 1330 H 127.821 -2.35413 -1.04587 0
M  V30 1331 H 127.779 -1.6985 -2.64572 0
M  V30 1332 N 131.551 -0.354651 -1.53558 0
M  V30 1333 C 132.461 0.50515 -2.29097 0
M  V30 1334 C 133.477 1.10223 -1.34636 0
M  V30 1335 O 134.653 1.11553 -1.67684 0
M  V30 1336 C 131.718 1.63479 -3.05738 0
M  V30 1337 C 130.779 1.06636 -4.15845 0
M  V30 1338 C 130.012 2.14217 -4.88822 0
M  V30 1339 O 130.235 3.35137 -4.61562 0
M  V30 1340 O 129.169 1.77887 -5.75013 0
M  V30 1341 H 132.995 -0.109237 -3.03503 0
M  V30 1342 H 130.58 -0.119357 -1.48922 0
M  V30 1343 H 132.462 2.2918 -3.5363 0
M  V30 1344 H 131.137 2.23478 -2.34178 0
M  V30 1345 H 130.044 0.373565 -3.7223 0
M  V30 1346 H 131.377 0.511081 -4.89539 0
M  V30 1347 N 133.029 1.57378 -0.0835403 0
M  V30 1348 C 133.979 2.09916 0.889905 0
M  V30 1349 C 134.963 1.01151 1.25129 0
M  V30 1350 O 136.155 1.27443 1.2283 0
M  V30 1351 C 133.284 2.67379 2.15322 0
M  V30 1352 C 132.37 3.83167 1.81779 0
M  V30 1353 N 132.761 4.91665 1.18739 0
M  V30 1354 C 131.059 3.92685 2.11459 0
M  V30 1355 C 131.76 5.72409 1.0355 0
M  V30 1356 N 130.736 5.21062 1.54906 0
M  V30 1357 H 134.538 2.91188 0.398378 0
M  V30 1358 H 132.052 1.61956 0.120013 0
M  V30 1359 H 134.049 3.0334 2.8599 0
M  V30 1360 H 132.709 1.87558 2.65051 0
M  V30 1361 H 133.72 5.10784 0.855604 0
M  V30 1362 H 130.397 3.23856 2.63483 0
M  V30 1363 H 131.787 6.69699 0.543425 0
M  V30 1364 N 134.507 -0.190092 1.56449 0
M  V30 1365 C 135.732 -0.929864 1.85387 0
M  V30 1366 C 136.157 -1.7585 0.667704 0
M  V30 1367 O 135.515 -1.77198 -0.383459 0
M  V30 1368 C 135.563 -1.79773 3.12593 0
M  V30 1369 O 134.667 -2.89713 2.93496 0
M  V30 1370 H 134.008 -0.261574 0.610307 0
M  V30 1371 H 136.538 -0.193896 2.03679 0
M  V30 1372 H 136.548 -2.20139 3.43515 0
M  V30 1373 H 135.223 -1.18892 3.98544 0
M  V30 1374 H 133.8 -2.53065 2.73884 0
M  V30 1375 N 135.985 -1.50799 -0.457987 0
M  V30 1376 C 137.215 -1.65977 -1.23025 0
M  V30 1377 C 137.623 -0.347918 -1.85974 0
M  V30 1378 O 136.966 0.68148 -1.70592 0
M  V30 1379 C 137.028 -2.70309 -2.3701 0
M  V30 1380 C 136.692 -4.135 -1.94594 0
M  V30 1381 C 137.689 -4.98949 -1.46101 0
M  V30 1382 C 135.374 -4.5949 -2.02915 0
M  V30 1383 C 137.368 -6.28442 -1.06489 0
M  V30 1384 C 135.055 -5.88984 -1.62914 0
M  V30 1385 C 136.053 -6.73286 -1.1478 0
M  V30 1386 O 135.741 -8.00362 -0.75339 0
M  V30 1387 H 135.473 -0.56064 -0.377702 0
M  V30 1388 H 138.027 -1.97857 -0.551537 0
M  V30 1389 H 136.257 -2.337 -3.08093 0
M  V30 1390 H 137.946 -2.74574 -2.98938 0
M  V30 1391 H 138.712 -4.6463 -1.39084 0
M  V30 1392 H 134.591 -3.94009 -2.39328 0
M  V30 1393 H 138.135 -6.94194 -0.688488 0
M  V30 1394 H 134.032 -6.22822 -1.69595 0
M  V30 1395 H 134.8 -8.13744 -0.88108 0
M  V30 1396 N 137.463 0.71206 -1.40597 0
M  V30 1397 C 138.393 1.83889 -1.43899 0
M  V30 1398 C 139.374 1.67442 -0.299504 0
M  V30 1399 O 140.559 1.87421 -0.508624 0
M  V30 1400 C 137.689 3.21877 -1.30431 0
M  V30 1401 C 136.643 3.53002 -2.42019 0
M  V30 1402 C 135.969 4.90172 -2.13626 0
M  V30 1403 C 137.269 3.53643 -3.84362 0
M  V30 1404 H 138.963 1.81383 -2.38203 0
M  V30 1405 H 136.509 0.871237 -1.14654 0
M  V30 1406 H 138.462 4.00404 -1.31357 0
M  V30 1407 H 137.186 3.24968 -0.326049 0
M  V30 1408 H 135.845 2.76818 -2.40349 0
M  V30 1409 H 135.493 4.89869 -1.14182 0
M  V30 1410 H 135.193 5.11962 -2.88389 0
M  V30 1411 H 136.717 5.71028 -2.1624 0
M  V30 1412 H 138.131 4.22203 -3.87837 0
M  V30 1413 H 136.528 3.86961 -4.58673 0
M  V30 1414 H 137.598 2.52954 -4.13693 0
M  V30 1415 N 138.941 1.26152 0.944643 0
M  V30 1416 C 140.181 1.12708 1.70517 0
M  V30 1417 C 140.545 -0.324727 1.89234 0
M  V30 1418 O 141.746 -0.581211 2.62441 0
M  V30 1419 C 140.017 1.8713 3.04495 0
M  V30 1420 S 141.576 1.89698 3.95677 0
M  V30 1421 H 138.394 0.402665 0.585988 0
M  V30 1422 H 140.996 1.59821 1.12594 0
M  V30 1423 H 139.7 2.91833 2.88551 0
M  V30 1424 H 139.231 1.40444 3.67477 0
M  V30 1425 H 141.246 0.981198 4.86402 0
M  V30 1426 N 140.419 -1.14872 1.07899 0
M  V30 1427 C 141.647 -1.89661 0.82683 0
M  V30 1428 C 142.062 -1.78312 -0.620519 0
M  V30 1429 O 141.419 -1.13888 -1.42604 0
M  V30 1430 C 141.47 -3.39817 1.23316 0
M  V30 1431 O 141.191 -3.50845 2.62372 0
M  V30 1432 C 142.692 -4.31615 1.0111 0
M  V30 1433 H 139.912 -0.60092 0.298557 0
M  V30 1434 H 142.456 -1.4551 1.43691 0
M  V30 1435 H 140.611 -3.8161 0.667286 0
M  V30 1436 H 141.025 -4.44076 2.79101 0
M  V30 1437 H 142.499 -5.35367 1.34486 0
M  V30 1438 H 142.976 -4.39169 -0.0522168 0
M  V30 1439 H 143.582 -3.95572 1.56215 0
M  V30 1440 N 141.898 -0.863906 -1.31812 0
M  V30 1441 C 142.861 -0.320212 -2.26952 0
M  V30 1442 C 143.861 0.525369 -1.51975 0
M  V30 1443 O 145.051 0.335547 -1.70938 0
M  V30 1444 C 142.183 0.545919 -3.365 0
M  V30 1445 H 143.376 -1.16004 -2.76556 0
M  V30 1446 H 140.929 -0.638995 -1.42641 0
M  V30 1447 H 141.664 1.40718 -2.92179 0
M  V30 1448 H 141.449 -0.0594674 -3.92055 0
M  V30 1449 H 142.939 0.918796 -4.07367 0
M  V30 1450 N 143.376 1.44774 -0.622745 0
M  V30 1451 C 144.604 2.06487 -0.130722 0
M  V30 1452 C 145.019 1.46476 1.19123 0
M  V30 1453 O 144.376 0.584502 1.72887 0
M  V30 1454 C 144.427 3.615 -0.000807207 0
M  V30 1455 O 144.148 4.19274 -1.27048 0
M  V30 1456 C 145.649 4.40229 0.520898 0
M  V30 1457 H 142.869 0.666704 -0.0758106 0
M  V30 1458 H 145.413 1.85779 -0.854774 0
M  V30 1459 H 143.568 3.81498 0.673643 0
M  V30 1460 H 143.982 5.12622 -1.1099 0
M  V30 1461 H 145.456 5.49144 0.560838 0
M  V30 1462 H 145.933 4.1108 1.54627 0
M  V30 1463 H 146.539 4.25131 -0.120018 0
M  V30 1464 N 144.854 0.36279 1.53368 0
M  V30 1465 C 146.094 -0.227882 2.03126 0
M  V30 1466 C 146.458 -1.4622 1.24434 0
M  V30 1467 O 147.659 -2.12831 1.64184 0
M  V30 1468 C 145.93 -0.515427 3.53664 0
M  V30 1469 S 147.489 -1.08017 4.25297 0
M  V30 1470 H 144.307 -0.0665377 0.70788 0
M  V30 1471 H 146.909 0.50501 1.88865 0
M  V30 1472 H 145.613 0.390436 4.08539 0
M  V30 1473 H 145.144 -1.27747 3.72081 0
M  V30 1474 H 147.159 -2.36462 4.36234 0
M  V30 1475 N 146.332 -1.57332 0.0918853 0
M  V30 1476 C 147.242 -2.17368 -0.882505 0
M  V30 1477 C 148.258 -1.14226 -1.31257 0
M  V30 1478 O 149.434 -1.46582 -1.38115 0
M  V30 1479 C 146.499 -2.73962 -2.12476 0
M  V30 1480 C 145.56 -3.92048 -1.7492 0
M  V30 1481 C 144.793 -4.45933 -2.93223 0
M  V30 1482 O 145.016 -3.98764 -4.07852 0
M  V30 1483 O 143.95 -5.36999 -2.71875 0
M  V30 1484 H 147.776 -3.01031 -0.40172 0
M  V30 1485 H 145.361 -1.48813 -0.132291 0
M  V30 1486 H 147.243 -3.10147 -2.85283 0
M  V30 1487 H 145.918 -1.93347 -2.59613 0
M  V30 1488 H 144.825 -3.6068 -0.993025 0
M  V30 1489 H 146.158 -4.74017 -1.32548 0
M  V30 1490 N 147.81 0.181792 -1.56548 0
M  V30 1491 C 149.035 0.920019 -1.85877 0
M  V30 1492 C 149.46 1.75494 -0.677021 0
M  V30 1493 O 148.818 1.77399 0.374056 0
M  V30 1494 C 148.866 1.78112 -3.13542 0
M  V30 1495 O 147.97 2.88152 -2.95029 0
M  V30 1496 H 147.311 0.258334 -0.611686 0
M  V30 1497 H 149.841 0.183092 -2.03779 0
M  V30 1498 H 149.851 2.18314 -3.44678 0
M  V30 1499 H 148.526 1.16777 -3.99169 0
M  V30 1500 H 147.103 2.51609 -2.75222 0
M  V30 1501 N 149.288 1.51039 0.449983 0
M  V30 1502 C 150.704 1.38934 0.785462 0
M  V30 1503 C 150.904 0.461817 1.96136 0
M  V30 1504 O 149.96 -0.0877389 2.52348 0
M  V30 1505 C 151.273 2.80724 1.0777 0
M  V30 1506 C 152.821 2.89787 1.1829 0
M  V30 1507 C 153.296 4.32457 1.50815 0
M  V30 1508 N 154.787 4.35505 1.57764 0
M  V30 1509 C 155.522 5.42914 1.84477 0
M  V30 1510 N 155.018 6.60502 2.09068 0
M  V30 1511 N 156.811 5.3038 1.86155 0
M  V30 1512 H 148.962 2.09904 -0.324647 0
M  V30 1513 H 151.225 0.944378 -0.0827957 0
M  V30 1514 H 150.931 3.50531 0.286498 0
M  V30 1515 H 150.805 3.19273 2.00859 0
M  V30 1516 H 153.192 2.20186 1.96474 0
M  V30 1517 H 153.273 2.54752 0.231314 0
M  V30 1518 H 152.917 5.02603 0.731622 0
M  V30 1519 H 152.847 4.64995 2.47158 0
M  V30 1520 H 155.338 3.50724 1.40715 0
M  V30 1521 H 155.651 7.38158 2.28785 0
M  V30 1522 H 153.996 6.63639 2.06416 0
M  V30 1523 H 157.187 4.37505 1.66454 0
M  V30 1524 H 157.36 6.1417 2.06637 0
M  V30 1525 N 150.766 -0.704594 1.40972 0
M  V30 1526 C 151.713 -1.81862 1.42109 0
M  V30 1527 C 152.683 -1.63781 0.276593 0
M  V30 1528 O 153.868 -1.84759 0.4763 0
M  V30 1529 C 151.008 -3.19669 1.30022 0
M  V30 1530 C 150.121 -3.49246 2.54267 0
M  V30 1531 C 149.256 -4.76618 2.3454 0
M  V30 1532 C 148.295 -4.99133 3.54306 0
M  V30 1533 N 147.432 -6.17726 3.33706 0
M  V30 1534 H 152.272 -1.80226 2.37324 0
M  V30 1535 H 149.809 -0.880238 1.17857 0
M  V30 1536 H 151.767 -3.99263 1.21018 0
M  V30 1537 H 150.397 -3.20506 0.384192 0
M  V30 1538 H 149.449 -2.64125 2.73756 0
M  V30 1539 H 150.761 -3.61788 3.43381 0
M  V30 1540 H 149.915 -5.64249 2.22952 0
M  V30 1541 H 148.654 -4.66305 1.42867 0
M  V30 1542 H 147.659 -4.09953 3.66359 0
M  V30 1543 H 148.884 -5.11311 4.4692 0
M  V30 1544 H 146.83 -6.08642 2.44725 0
M  V30 1545 H 146.747 -6.30995 4.16391 0
M  V30 1546 H 148.015 -7.08115 3.25873 0
M  V30 1547 N 152.244 -1.26651 -0.937939 0
M  V30 1548 C 153.174 -1.10993 -2.05433 0
M  V30 1549 C 154.155 -0.0142161 -1.70094 0
M  V30 1550 O 155.34 -0.186837 -1.93299 0
M  V30 1551 C 152.47 -0.745561 -3.39203 0
M  V30 1552 C 151.424 -1.79337 -3.88616 0
M  V30 1553 C 150.75 -1.28324 -5.19073 0
M  V30 1554 C 152.05 -3.19553 -4.13138 0
M  V30 1555 H 153.744 -2.0438 -2.1879 0
M  V30 1556 H 151.29 -0.984041 -1.05131 0
M  V30 1557 H 153.243 -0.622888 -4.16771 0
M  V30 1558 H 151.967 0.22401 -3.25831 0
M  V30 1559 H 150.626 -1.90477 -3.13231 0
M  V30 1560 H 150.274 -0.303414 -5.02084 0
M  V30 1561 H 149.974 -1.98369 -5.53103 0
M  V30 1562 H 151.498 -1.1733 -5.99221 0
M  V30 1563 H 152.912 -3.11471 -4.81309 0
M  V30 1564 H 151.309 -3.87218 -4.58457 0
M  V30 1565 H 152.379 -3.65368 -3.18801 0
M  V30 1566 N 153.722 1.14298 -1.08507 0
M  V30 1567 C 154.632 2.23027 -0.727753 0
M  V30 1568 C 155.648 1.71952 0.26619 0
M  V30 1569 O 156.824 2.011 0.109882 0
M  V30 1570 C 153.889 3.46403 -0.143541 0
M  V30 1571 C 152.95 4.12413 -1.19223 0
M  V30 1572 C 152.183 5.29899 -0.635798 0
M  V30 1573 O 152.406 5.67796 0.544393 0
M  V30 1574 O 151.34 5.85717 -1.38634 0
M  V30 1575 H 155.166 2.55945 -1.63481 0
M  V30 1576 H 152.751 1.22248 -0.858817 0
M  V30 1577 H 154.633 4.21018 0.179404 0
M  V30 1578 H 153.308 3.15206 0.736659 0
M  V30 1579 H 152.215 3.39667 -1.56772 0
M  V30 1580 H 153.548 4.47718 -2.04474 0
M  V30 1581 N 155.201 0.870884 1.31352 0
M  V30 1582 C 156.148 0.325425 2.28494 0
M  V30 1583 C 157.118 -0.576615 1.5577 0
M  V30 1584 O 158.303 -0.508059 1.83911 0
M  V30 1585 C 155.443 -0.466283 3.41935 0
M  V30 1586 C 154.556 0.463378 4.29508 0
M  V30 1587 C 153.691 -0.342544 5.30094 0
M  V30 1588 C 152.73 0.583486 6.09313 0
M  V30 1589 N 151.867 -0.186244 7.01853 0
M  V30 1590 H 156.707 1.15901 2.74538 0
M  V30 1591 H 154.244 0.58294 1.35056 0
M  V30 1592 H 156.202 -0.941085 4.06447 0
M  V30 1593 H 154.832 -1.26456 2.97 0
M  V30 1594 H 153.884 1.05663 3.65431 0
M  V30 1595 H 155.196 1.1734 4.84802 0
M  V30 1596 H 154.35 -0.879816 6.00287 0
M  V30 1597 H 153.089 -1.08585 4.75458 0
M  V30 1598 H 152.094 1.13251 5.3801 0
M  V30 1599 H 153.319 1.32566 6.66035 0
M  V30 1600 H 151.265 -0.912348 6.49625 0
M  V30 1601 H 151.182 0.464422 7.54572 0
M  V30 1602 H 152.45 -0.704716 7.76308 0
M  V30 1603 N 156.679 -1.44442 0.630414 0
M  V30 1604 C 157.927 -2.01653 0.134351 0
M  V30 1605 C 158.248 -1.49836 -1.24796 0
M  V30 1606 O 157.518 -0.701684 -1.82902 0
M  V30 1607 H 156.098 -0.74554 0.0466769 0
M  V30 1608 H 158.76 -1.76952 0.816955 0
M  V30 1609 H 157.856 -3.11935 0.101498 0
M  V30 1610 N 158.157 -0.370918 -1.53173 0
M  V30 1611 C 159.406 0.218249 -2.00516 0
M  V30 1612 C 159.719 1.49429 -1.26215 0
M  V30 1613 O 160.925 2.16239 -1.64174 0
M  V30 1614 C 159.381 0.43948 -3.57207 0
M  V30 1615 C 158.989 -0.822244 -4.4039 0
M  V30 1616 C 160.733 0.986012 -4.1289 0
M  V30 1617 C 158.64 -0.570304 -5.88644 0
M  V30 1618 H 157.57 0.0853333 -0.749156 0
M  V30 1619 H 160.221 -0.490483 -1.76823 0
M  V30 1620 H 158.603 1.20961 -3.77074 0
M  V30 1621 H 159.777 -1.59557 -4.32294 0
M  V30 1622 H 158.092 -1.29238 -3.95836 0
M  V30 1623 H 160.689 1.18991 -5.21292 0
M  V30 1624 H 161.032 1.94972 -3.6782 0
M  V30 1625 H 161.565 0.27592 -3.96842 0
M  V30 1626 H 158.304 -1.50449 -6.38001 0
M  V30 1627 H 157.824 0.164427 -5.99575 0
M  V30 1628 H 159.503 -0.19784 -6.46697 0
M  V30 1629 N 159.635 1.57281 -0.100228 0
M  V30 1630 C 160.567 2.11342 0.886972 0
M  V30 1631 C 161.58 1.05182 1.24261 0
M  V30 1632 O 162.769 1.32613 1.19483 0
M  V30 1633 C 159.869 2.5825 2.19454 0
M  V30 1634 C 159.042 3.88302 2.01346 0
M  V30 1635 C 158.101 4.21004 3.15661 0
M  V30 1636 O 157.127 4.9014 2.89398 0
M  V30 1637 N 158.329 3.76818 4.41575 0
M  V30 1638 H 161.094 2.96668 0.425216 0
M  V30 1639 H 158.655 1.61678 0.0847334 0
M  V30 1640 H 160.647 2.7717 2.94888 0
M  V30 1641 H 159.217 1.77907 2.57037 0
M  V30 1642 H 158.437 3.7848 1.10212 0
M  V30 1643 H 159.725 4.73375 1.8653 0
M  V30 1644 H 159.123 3.2102 4.65792 0
M  V30 1645 H 157.68 4.00882 5.13942 0
M  V30 1646 N 161.113 -0.173488 1.56642 0
M  V30 1647 C 162.359 -0.891784 1.8214 0
M  V30 1648 C 162.692 -1.8199 0.677736 0
M  V30 1649 O 161.967 -1.91842 -0.320446 0
M  V30 1650 C 162.25 -1.68933 3.18015 0
M  V30 1651 C 162.103 -0.784487 4.42906 0
M  V30 1652 C 163.422 -2.65748 3.50808 0
M  V30 1653 H 160.541 -0.322761 0.662567 0
M  V30 1654 H 163.183 -0.158095 1.89341 0
M  V30 1655 H 161.333 -2.31482 3.12007 0
M  V30 1656 H 163.005 -0.172046 4.60979 0
M  V30 1657 H 161.248 -0.0924117 4.33702 0
M  V30 1658 H 161.919 -1.37799 5.34524 0
M  V30 1659 H 164.395 -2.13327 3.57255 0
M  V30 1660 H 163.271 -3.18619 4.4696 0
M  V30 1661 H 163.532 -3.45842 2.75401 0
M  V30 1662 N 162.591 -1.51276 -0.441967 0
M  V30 1663 C 163.501 -1.75092 -1.56141 0
M  V30 1664 C 164.517 -0.634963 -1.62001 0
M  V30 1665 O 165.693 -0.916686 -1.79329 0
M  V30 1666 C 162.758 -1.86666 -2.92158 0
M  V30 1667 C 161.819 -3.10506 -2.96453 0
M  V30 1668 C 161.052 -3.21519 -4.25982 0
M  V30 1669 O 161.275 -2.38586 -5.18105 0
M  V30 1670 O 160.209 -4.14465 -4.36466 0
M  V30 1671 H 164.035 -2.70044 -1.38961 0
M  V30 1672 H 161.62 -1.35722 -0.624499 0
M  V30 1673 H 163.502 -1.96292 -3.72891 0
M  V30 1674 H 162.177 -0.949014 -3.09476 0
M  V30 1675 H 161.084 -3.06363 -2.14692 0
M  V30 1676 H 162.417 -4.01945 -2.84079 0
M  V30 1677 N 164.069 0.697108 -1.41344 0
M  V30 1678 C 165.318 1.45279 -1.39918 0
M  V30 1679 C 165.631 1.95597 -0.0109624 0
M  V30 1680 O 166.837 2.71208 0.125919 0
M  V30 1681 C 165.293 2.62695 -2.46007 0
M  V30 1682 C 164.901 2.19169 -3.90729 0
M  V30 1683 C 166.645 3.40336 -2.53715 0
M  V30 1684 C 164.552 3.33535 -4.88373 0
M  V30 1685 H 163.482 0.545692 -0.520323 0
M  V30 1686 H 166.133 0.756929 -1.67161 0
M  V30 1687 H 164.515 3.34541 -2.11892 0
M  V30 1688 H 165.689 1.54623 -4.34083 0
M  V30 1689 H 164.004 1.54525 -3.86666 0
M  V30 1690 H 166.601 4.2547 -3.2385 0
M  V30 1691 H 166.944 3.85418 -1.5735 0
M  V30 1692 H 167.477 2.75546 -2.86913 0
M  V30 1693 H 164.216 2.93468 -5.86137 0
M  V30 1694 H 163.736 3.96936 -4.49668 0
M  V30 1695 H 165.415 3.99335 -5.09059 0
M  V30 1696 N 165.547 1.27147 0.931209 0
M  V30 1697 C 166.777 1.15914 1.71019 0
M  V30 1698 C 167.185 -0.287112 1.87009 0
M  V30 1699 O 166.528 -1.20761 1.38429 0
M  V30 1700 C 166.59 1.76647 3.13107 0
M  V30 1701 C 166.254 3.25807 3.20467 0
M  V30 1702 C 167.251 4.22489 3.02983 0
M  V30 1703 C 164.936 3.66452 3.43538 0
M  V30 1704 C 166.93 5.57794 3.08454 0
M  V30 1705 C 164.617 5.01888 3.48643 0
M  V30 1706 C 165.615 5.97369 3.31119 0
M  V30 1707 O 165.303 7.30337 3.35952 0
M  V30 1708 H 165.035 0.404062 0.54195 0
M  V30 1709 H 167.589 1.68457 1.17521 0
M  V30 1710 H 165.819 1.18578 3.68071 0
M  V30 1711 H 167.508 1.60179 3.72958 0
M  V30 1712 H 168.274 3.92425 2.85004 0
M  V30 1713 H 164.153 2.92611 3.5623 0
M  V30 1714 H 167.697 6.32298 2.94694 0
M  V30 1715 H 163.594 5.31609 3.66145 0
M  V30 1716 H 164.362 7.38739 3.5243 0
M  V30 1717 N 167.025 -1.13721 1.09112 0
M  V30 1718 C 168.25 -1.89314 0.847053 0
M  V30 1719 C 168.675 -1.78416 -0.595774 0
M  V30 1720 O 168.033 -1.12942 -1.41823 0
M  V30 1721 C 168.081 -3.3701 1.28284 0
M  V30 1722 O 167.185 -4.10054 0.439267 0
M  V30 1723 H 166.526 -0.588745 0.307044 0
M  V30 1724 H 169.056 -1.43902 1.45442 0
M  V30 1725 H 169.066 -3.87834 1.26683 0
M  V30 1726 H 167.741 -3.4426 2.33363 0
M  V30 1727 H 166.318 -3.69266 0.519312 0
M  V30 1728 N 168.503 -0.877838 -1.30888 0
M  V30 1729 C 169.75 -0.492696 -1.96415 0
M  V30 1730 C 170.078 0.956671 -1.69346 0
M  V30 1731 O 169.333 1.68993 -0.986913 0
M  V30 1732 C 169.632 -0.705748 -3.50363 0
M  V30 1733 C 169.298 -2.1291 -3.97467 0
M  V30 1734 C 167.96 -2.51834 -4.1004 0
M  V30 1735 C 170.312 -3.05702 -4.22132 0
M  V30 1736 C 167.64 -3.82775 -4.44635 0
M  V30 1737 C 169.992 -4.36166 -4.58194 0
M  V30 1738 C 168.656 -4.74993 -4.68975 0
M  V30 1739 H 167.926 -0.18029 -0.718733 0
M  V30 1740 H 170.573 -1.11233 -1.55883 0
M  V30 1741 H 168.878 -0.00303058 -3.918 0
M  V30 1742 H 170.575 -0.387456 -3.99124 0
M  V30 1743 H 167.165 -1.81694 -3.88182 0
M  V30 1744 H 171.349 -2.76853 -4.11906 0
M  V30 1745 H 166.605 -4.12609 -4.51181 0
M  V30 1746 H 170.779 -5.08111 -4.76231 0
M  V30 1747 H 168.406 -5.76495 -4.95537 0
M  V30 1748 N 169.982 1.44106 -0.638065 0
M  V30 1749 C 171.393 1.85316 -0.226894 0
M  V30 1750 C 171.744 1.53399 1.22324 0
M  V30 1751 O 170.869 0.975463 1.93167 0
M  V30 1752 C 171.464 3.3637 -0.405013 0
M  V30 1753 C 170.023 3.76369 -0.0482902 0
M  V30 1754 C 169.17 2.67921 -0.715108 0
M  V30 1755 H 172.121 1.34474 -0.842764 0
M  V30 1756 H 172.142 3.7885 0.354 0
M  V30 1757 H 171.654 3.59569 -1.46053 0
M  V30 1758 H 169.755 3.58784 1.00522 0
M  V30 1759 H 169.868 4.76856 -0.463187 0
M  V30 1760 H 168.232 2.54259 -0.149753 0
M  V30 1761 H 169.015 2.93951 -1.77335 0
M  V30 1762 N 171.46 0.379036 1.52974 0
M  V30 1763 C 172.407 -0.461048 2.26148 0
M  V30 1764 C 173.377 -1.06637 1.27349 0
M  V30 1765 O 174.562 -1.09633 1.56157 0
M  V30 1766 C 171.702 -1.58782 3.06402 0
M  V30 1767 C 170.815 -1.00636 4.20115 0
M  V30 1768 C 169.95 -2.10334 4.87784 0
M  V30 1769 C 168.989 -1.49724 5.93506 0
M  V30 1770 N 168.126 -2.5331 6.54812 0
M  V30 1771 H 172.966 0.169429 2.97518 0
M  V30 1772 H 170.503 0.0953806 1.4679 0
M  V30 1773 H 172.461 -2.25174 3.51215 0
M  V30 1774 H 171.091 -2.18876 2.37261 0
M  V30 1775 H 170.143 -0.232332 3.7969 0
M  V30 1776 H 171.455 -0.523343 4.96047 0
M  V30 1777 H 170.609 -2.84519 5.35849 0
M  V30 1778 H 169.348 -2.61992 4.11353 0
M  V30 1779 H 168.353 -0.740598 5.44789 0
M  V30 1780 H 169.578 -0.988732 6.71864 0
M  V30 1781 H 167.524 -3.04156 5.81227 0
M  V30 1782 H 167.441 -2.09734 7.26325 0
M  V30 1783 H 168.709 -3.27155 7.07524 0
M  V30 1784 N 172.938 -1.57226 0.108567 0
M  V30 1785 C 174.215 -1.86333 -0.594939 0
M  V30 1786 C 174.595 -1.00788 -1.85486 0
M  V30 1787 O 173.943 -0.0839293 -2.28346 0
M  V30 1788 C 174.153 -3.37265 -0.897405 0
M  V30 1789 C 175.501 -4.05629 -1.25501 0
M  V30 1790 O 176.525 -3.42224 -0.987998 0
M  V30 1791 O 175.384 -5.17531 -1.75567 0
M  V30 1792 H 172.478 -0.771018 -0.2991 0
M  V30 1793 H 175.024 -1.69102 0.142283 0
M  V30 1794 H 173.796 -3.913 -0.00413806 0
M  V30 1795 H 173.419 -3.59889 -1.69014 0
M  V30 1796 N 174.416 0.165178 -1.56732 0
M  V30 1797 C 175.827 0.727046 -1.71962 0
M  V30 1798 C 176.178 1.82508 -0.720078 0
M  V30 1799 O 175.303 2.16082 0.117242 0
M  V30 1800 C 175.898 1.32559 -3.11791 0
M  V30 1801 C 174.457 1.83422 -3.28684 0
M  V30 1802 C 173.604 0.715567 -2.67908 0
M  V30 1803 H 176.555 -0.0602896 -1.58585 0
M  V30 1804 H 176.576 2.19533 -3.10782 0
M  V30 1805 H 176.088 0.526195 -3.84516 0
M  V30 1806 H 174.189 2.65986 -2.60926 0
M  V30 1807 H 174.302 1.97543 -4.36478 0
M  V30 1808 H 172.666 1.13758 -2.27884 0
M  V30 1809 H 173.449 -0.0720836 -3.43224 0
M  V30 1810 N 175.894 1.51508 0.433938 0
M  V30 1811 C 176.804 1.75917 1.5521 0
M  V30 1812 C 177.82 0.643545 1.61662 0
M  V30 1813 O 178.996 0.926183 1.7884 0
M  V30 1814 C 176.061 1.88213 2.91164 0
M  V30 1815 C 175.122 3.12074 2.94802 0
M  V30 1816 C 174.355 3.23774 4.24271 0
M  V30 1817 O 174.578 2.4133 5.16833 0
M  V30 1818 O 173.512 4.16774 4.34262 0
M  V30 1819 H 177.338 2.70777 1.37527 0
M  V30 1820 H 174.923 1.36051 0.617293 0
M  V30 1821 H 176.805 1.98267 3.71845 0
M  V30 1822 H 175.48 0.965413 3.08968 0
M  V30 1823 H 174.387 3.07497 2.13065 0
M  V30 1824 H 175.72 4.03446 2.81943 0
M  V30 1825 N 177.372 -0.689602 1.41712 0
M  V30 1826 C 178.621 -1.44534 1.40686 0
M  V30 1827 C 178.934 -1.95588 0.0213352 0
M  V30 1828 O 180.14 -2.71271 -0.111534 0
M  V30 1829 C 178.596 -2.61387 2.47396 0
M  V30 1830 C 178.204 -2.17094 3.91885 0
M  V30 1831 C 179.948 -3.38986 2.55517 0
M  V30 1832 C 177.855 -3.3094 4.90135 0
M  V30 1833 H 176.785 -0.542925 0.52321 0
M  V30 1834 H 179.436 -0.748054 1.6756 0
M  V30 1835 H 177.818 -3.33412 2.13664 0
M  V30 1836 H 178.992 -1.52318 4.34897 0
M  V30 1837 H 177.307 -1.52473 3.8748 0
M  V30 1838 H 179.904 -4.23747 3.26102 0
M  V30 1839 H 180.247 -3.84578 1.59391 0
M  V30 1840 H 180.78 -2.74021 2.8837 0
M  V30 1841 H 177.519 -2.90355 5.87685 0
M  V30 1842 H 177.039 -3.94546 4.51767 0
M  V30 1843 H 178.718 -3.9663 5.11169 0
M  V30 1844 N 178.85 -1.27639 -0.924453 0
M  V30 1845 C 179.8 -1.07295 -2.01176 0
M  V30 1846 C 180.784 5.77352e-05 -1.609 0
M  V30 1847 O 181.976 -0.218855 -1.75642 0
M  V30 1848 C 179.105 -0.725592 -3.35544 0
M  V30 1849 C 178.191 -1.83691 -3.82254 0
M  V30 1850 N 178.582 -3.07697 -4.01443 0
M  V30 1851 C 176.88 -1.72433 -4.11319 0
M  V30 1852 C 177.581 -3.80037 -4.40394 0
M  V30 1853 N 176.557 -3.0782 -4.48049 0
M  V30 1854 H 180.359 -2.01399 -2.14046 0
M  V30 1855 H 177.873 -1.18401 -1.11153 0
M  V30 1856 H 179.87 -0.560959 -4.13109 0
M  V30 1857 H 178.53 0.207782 -3.24034 0
M  V30 1858 H 179.541 -3.43424 -3.8766 0
M  V30 1859 H 176.218 -0.862005 -4.08504 0
M  V30 1860 H 177.608 -4.86632 -4.63291 0
M  V30 1861 N 180.328 1.1314 -1.09713 0
M  V30 1862 C 181.258 2.20748 -0.761102 0
M  V30 1863 C 182.239 1.68061 0.262566 0
M  V30 1864 O 183.424 1.93765 0.129977 0
M  V30 1865 C 180.554 3.46812 -0.184054 0
M  V30 1866 C 179.508 4.12606 -1.13757 0
M  V30 1867 C 178.834 5.33031 -0.422083 0
M  V30 1868 C 180.134 4.59603 -2.48118 0
M  V30 1869 H 181.828 2.49113 -1.66082 0
M  V30 1870 H 179.374 1.19734 -0.799987 0
M  V30 1871 H 181.327 4.21353 0.0631215 0
M  V30 1872 H 180.051 3.17851 0.750868 0
M  V30 1873 H 178.71 3.40036 -1.37007 0
M  V30 1874 H 178.358 5.00335 0.517072 0
M  V30 1875 H 178.058 5.77999 -1.05788 0
M  V30 1876 H 179.582 6.10325 -0.183277 0
M  V30 1877 H 180.996 5.25552 -2.29059 0
M  V30 1878 H 179.393 5.15321 -3.07514 0
M  V30 1879 H 180.463 3.73971 -3.08665 0
M  V30 1880 N 181.806 0.884767 1.30421 0
M  V30 1881 C 183.031 0.517288 2.00845 0
M  V30 1882 C 183.456 -0.886779 1.65885 0
M  V30 1883 O 182.814 -1.58768 0.875354 0
M  V30 1884 C 182.862 0.698994 3.5376 0
M  V30 1885 O 181.966 -0.255208 4.1161 0
M  V30 1886 H 181.307 0.203872 0.631927 0
M  V30 1887 H 183.837 1.19225 1.66272 0
M  V30 1888 H 183.847 0.597912 4.03595 0
M  V30 1889 H 182.522 1.72271 3.78544 0
M  V30 1890 H 181.099 -0.10784 3.72744 0
M  V30 1891 N 183.284 -1.43765 0.645699 0
M  V30 1892 C 184.532 -2.01499 0.155731 0
M  V30 1893 C 184.853 -1.51151 -1.232 0
M  V30 1894 O 184.123 -0.721044 -1.82148 0
M  V30 1895 H 182.703 -0.745003 0.0545817 0
M  V30 1896 H 185.365 -1.76075 0.835677 0
M  V30 1897 H 184.461 -3.1181 0.134577 0
M  V30 1898 N 184.763 -0.387143 -1.52771 0
M  V30 1899 C 186.174 0.0873634 -1.86495 0
M  V30 1900 C 186.525 1.46336 -1.30691 0
M  V30 1901 O 185.65 2.068 -0.637409 0
M  V30 1902 C 186.245 0.165305 -3.38396 0
M  V30 1903 C 184.804 0.584101 -3.7184 0
M  V30 1904 C 183.951 -0.255279 -2.76122 0
M  V30 1905 H 186.902 -0.605104 -1.46711 0
M  V30 1906 H 186.923 0.984848 -3.67534 0
M  V30 1907 H 186.435 -0.836301 -3.78982 0
M  V30 1908 H 184.536 1.59315 -3.36823 0
M  V30 1909 H 184.649 0.343749 -4.77865 0
M  V30 1910 H 183.013 0.279126 -2.53166 0
M  V30 1911 H 183.796 -1.25482 -3.19545 0
M  V30 1912 N 186.241 1.57166 -0.116904 0
M  V30 1913 C 187.171 2.18222 0.830759 0
M  V30 1914 C 188.152 1.12167 1.27877 0
M  V30 1915 O 189.337 1.40394 1.34176 0
M  V30 1916 C 186.467 2.77996 2.08172 0
M  V30 1917 C 185.421 3.89614 1.77157 0
M  V30 1918 C 184.747 4.36187 3.09265 0
M  V30 1919 C 186.047 5.1181 1.04151 0
M  V30 1920 H 187.741 2.97664 0.321992 0
M  V30 1921 H 185.287 1.4318 0.153434 0
M  V30 1922 H 187.24 3.19366 2.74924 0
M  V30 1923 H 185.964 1.9584 2.6137 0
M  V30 1924 H 184.623 3.48816 1.12796 0
M  V30 1925 H 184.271 3.50893 3.60393 0
M  V30 1926 H 183.971 5.11455 2.89288 0
M  V30 1927 H 185.495 4.80207 3.77139 0
M  V30 1928 H 186.909 5.50214 1.61052 0
M  V30 1929 H 185.306 5.92648 0.942762 0
M  V30 1930 H 186.376 4.84892 0.0279022 0
M  V30 1931 N 187.719 -0.156864 1.56817 0
M  V30 1932 C 188.629 -1.2136 2.00771 0
M  V30 1933 C 189.645 -1.47598 0.921459 0
M  V30 1934 O 190.821 -1.59462 1.2302 0
M  V30 1935 C 187.886 -2.52943 2.37109 0
M  V30 1936 C 186.947 -2.34439 3.59634 0
M  V30 1937 C 186.18 -3.59748 3.94229 0
M  V30 1938 O 186.403 -4.65526 3.29609 0
M  V30 1939 O 185.337 -3.52998 4.8752 0
M  V30 1940 H 189.163 -0.870468 2.90958 0
M  V30 1941 H 186.748 -0.36484 1.44877 0
M  V30 1942 H 188.63 -3.30538 2.61386 0
M  V30 1943 H 187.305 -2.86806 1.5008 0
M  V30 1944 H 186.212 -1.54828 3.40557 0
M  V30 1945 H 187.545 -2.05496 4.4725 0
M  V30 1946 N 189.197 -1.51736 -0.425897 0
M  V30 1947 C 190.16 -1.73271 -1.50032 0
M  V30 1948 C 191.16 -0.602639 -1.4908 0
M  V30 1949 O 192.35 -0.87033 -1.509 0
M  V30 1950 C 189.482 -1.79969 -2.89523 0
M  V30 1951 H 190.675 -2.69172 -1.32237 0
M  V30 1952 H 188.228 -1.41899 -0.65532 0
M  V30 1953 H 188.963 -0.859241 -3.1271 0
M  V30 1954 H 188.748 -2.62109 -2.91619 0
M  V30 1955 H 190.238 -1.9843 -3.67444 0
M  V30 1956 N 190.675 0.682077 -1.42076 0
M  V30 1957 C 191.923 1.4393 -1.41876 0
M  V30 1958 C 192.244 1.94971 -0.0335599 0
M  V30 1959 O 191.514 1.72591 0.926773 0
M  V30 1960 H 190.094 0.534085 -0.522267 0
M  V30 1961 H 192.756 0.806427 -1.77434 0
M  V30 1962 H 191.852 2.29588 -2.11414 0
M  V30 1963 N 192.153 1.28127 0.917671 0
M  V30 1964 C 193.1 1.11717 2.0196 0
M  V30 1965 C 194.07 0.0153929 1.66093 0
M  V30 1966 O 195.255 0.179596 1.89953 0
M  V30 1967 C 192.395 0.780927 3.36148 0
M  V30 1968 C 191.508 1.96135 3.84909 0
M  V30 1969 C 190.643 1.56609 5.0759 0
M  V30 1970 C 189.682 2.71339 5.48673 0
M  V30 1971 N 188.819 2.32332 6.62545 0
M  V30 1972 H 193.659 2.06003 2.15329 0
M  V30 1973 H 191.196 1.02535 1.05475 0
M  V30 1974 H 193.154 0.56675 4.13333 0
M  V30 1975 H 191.784 -0.124998 3.22558 0
M  V30 1976 H 190.836 2.28777 3.03916 0
M  V30 1977 H 192.148 2.82165 4.1132 0
M  V30 1978 H 191.302 1.31374 5.92305 0
M  V30 1979 H 190.041 0.677014 4.82978 0
M  V30 1980 H 189.046 2.97276 4.62501 0
M  V30 1981 H 190.271 3.60882 5.75274 0
M  V30 1982 H 188.217 1.45889 6.39572 0
M  V30 1983 H 188.134 3.11899 6.88662 0
M  V30 1984 H 189.402 2.10371 7.50576 0
M  V30 1985 N 193.631 -1.12557 1.10312 0
M  V30 1986 C 195.042 -1.65574 0.862678 0
M  V30 1987 C 195.393 -1.86566 -0.607256 0
M  V30 1988 O 194.518 -1.59121 -1.46662 0
M  V30 1989 C 195.113 -3.00776 1.55947 0
M  V30 1990 C 193.672 -3.50748 1.36576 0
M  V30 1991 C 192.819 -2.25797 1.60968 0
M  V30 1992 H 195.77 -0.963552 1.26101 0
M  V30 1993 H 195.791 -3.67185 0.997753 0
M  V30 1994 H 195.303 -2.85465 2.62928 0
M  V30 1995 H 193.404 -3.71245 0.317531 0
M  V30 1996 H 193.517 -4.30289 2.10686 0
M  V30 1997 H 191.881 -2.32841 1.03234 0
M  V30 1998 H 192.664 -2.13043 2.69198 0
M  V30 1999 N 195.109 -0.891671 -1.2995 0
M  V30 2000 C 196.358 -0.509521 -1.95158 0
M  V30 2001 C 196.671 0.947388 -1.71125 0
M  V30 2002 O 197.877 1.43669 -2.30372 0
M  V30 2003 C 196.333 -0.860315 -3.49466 0
M  V30 2004 C 195.941 -2.33545 -3.8231 0
M  V30 2005 C 197.685 -0.547687 -4.20952 0
M  V30 2006 C 195.592 -2.62752 -5.29826 0
M  V30 2007 H 194.522 -0.18682 -0.730489 0
M  V30 2008 H 197.173 -1.08756 -1.47798 0
M  V30 2009 H 195.555 -0.211285 -3.95436 0
M  V30 2010 H 196.729 -3.02936 -3.47227 0
M  V30 2011 H 195.044 -2.61629 -3.23944 0
M  V30 2012 H 197.641 -0.742854 -5.29515 0
M  V30 2013 H 197.984 0.51332 -4.13123 0
M  V30 2014 H 198.517 -1.1542 -3.80688 0
M  V30 2015 H 195.256 -3.6762 -5.42712 0
M  V30 2016 H 194.776 -1.97977 -5.66185 0
M  V30 2017 H 196.455 -2.48601 -5.97333 0
M  V30 2018 N 196.587 1.43421 -0.653314 0
M  V30 2019 C 197.815 2.06163 -0.174491 0
M  V30 2020 C 198.23 1.48969 1.1599 0
M  V30 2021 O 197.587 0.621042 1.71608 0
M  V30 2022 C 197.638 3.61417 -0.0774865 0
M  V30 2023 O 197.359 4.16485 -1.35912 0
M  V30 2024 C 198.86 4.41235 0.427402 0
M  V30 2025 H 196.08 0.664946 -0.0899353 0
M  V30 2026 H 198.624 1.83924 -0.893988 0
M  V30 2027 H 196.779 3.82841 0.59257 0
M  V30 2028 H 197.193 5.10153 -1.21839 0
M  V30 2029 H 198.667 5.5021 0.44423 0
M  V30 2030 H 199.144 4.14268 1.45873 0
M  V30 2031 H 199.75 4.2478 -0.210167 0
M  V30 2032 N 198.065 0.39524 1.52563 0
M  V30 2033 C 199.311 -0.185318 2.01952 0
M  V30 2034 C 199.644 -1.45964 1.28095 0
M  V30 2035 O 198.919 -1.90689 0.38315 0
M  V30 2036 C 199.202 -0.447193 3.57312 0
M  V30 2037 C 199.055 0.842828 4.41833 0
M  V30 2038 C 200.374 -1.23529 4.22408 0
M  V30 2039 H 197.493 -0.0658788 0.73405 0
M  V30 2040 H 200.135 0.525975 1.82575 0
M  V30 2041 H 198.285 -1.05312 3.73954 0
M  V30 2042 H 199.957 1.4795 4.36931 0
M  V30 2043 H 198.2 1.45686 4.08605 0
M  V30 2044 H 198.871 0.614165 5.48573 0
M  V30 2045 H 201.347 -0.722445 4.0978 0
M  V30 2046 H 200.223 -1.38727 5.3108 0
M  V30 2047 H 200.484 -2.25213 3.80436 0
M  V30 2048 N 199.544 -1.57102 0.125237 0
M  V30 2049 C 200.491 -2.15641 -0.822655 0
M  V30 2050 C 201.461 -1.08313 -1.25927 0
M  V30 2051 O 202.646 -1.36251 -1.33567 0
M  V30 2052 C 199.786 -2.76504 -2.06494 0
M  V30 2053 C 198.899 -3.98158 -1.67612 0
M  V30 2054 C 198.034 -4.47088 -2.86854 0
M  V30 2055 C 197.073 -5.6126 -2.44242 0
M  V30 2056 N 196.21 -6.04905 -3.56419 0
M  V30 2057 H 201.05 -2.96313 -0.316625 0
M  V30 2058 H 198.587 -1.46388 -0.144588 0
M  V30 2059 H 200.545 -3.09925 -2.79289 0
M  V30 2060 H 199.175 -1.98512 -2.54545 0
M  V30 2061 H 198.227 -3.70858 -0.846661 0
M  V30 2062 H 199.539 -4.80934 -1.32301 0
M  V30 2063 H 198.693 -4.82451 -3.67867 0
M  V30 2064 H 197.432 -3.63275 -3.25396 0
M  V30 2065 H 196.437 -5.25495 -1.61663 0
M  V30 2066 H 197.662 -6.46843 -2.0681 0
M  V30 2067 H 195.608 -5.24032 -3.94623 0
M  V30 2068 H 195.525 -6.82552 -3.25051 0
M  V30 2069 H 196.793 -6.44907 -4.37853 0
M  V30 2070 N 201.022 0.148545 -1.56898 0
M  V30 2071 C 202.262 0.86765 -1.85071 0
M  V30 2072 C 202.626 1.78417 -0.709317 0
M  V30 2073 O 203.827 2.54261 -0.872049 0
M  V30 2074 C 202.098 1.62306 -3.1842 0
M  V30 2075 S 203.657 2.3878 -3.68143 0
M  V30 2076 H 200.475 0.290174 -0.649092 0
M  V30 2077 H 203.077 0.127755 -1.95082 0
M  V30 2078 H 201.781 0.941192 -3.99462 0
M  V30 2079 H 201.312 2.4039 -3.1141 0
M  V30 2080 H 203.327 3.63942 -3.37285 0
M  V30 2081 N 202.5 1.5196 0.417844 0
M  V30 2082 C 203.725 1.69717 1.1921 0
M  V30 2083 C 204.15 0.402148 1.83751 0
M  V30 2084 O 203.508 -0.639593 1.69643 0
M  V30 2085 C 203.556 2.82794 2.2374 0
M  V30 2086 O 202.66 2.47756 3.29683 0
M  V30 2087 H 202.001 0.565263 0.348387 0
M  V30 2088 H 204.531 1.98621 0.490985 0
M  V30 2089 H 204.541 3.07452 2.68212 0
M  V30 2090 H 203.216 3.76756 1.76146 0
M  V30 2091 H 201.793 2.33739 2.90552 0
M  V30 2092 N 203.978 -0.674533 1.42435 0
M  V30 2093 C 205.224 -1.43671 1.43131 0
M  V30 2094 C 205.557 -1.94142 0.0476021 0
M  V30 2095 O 204.832 -1.70924 -0.928188 0
M  V30 2096 C 205.115 -2.63355 2.45594 0
M  V30 2097 C 204.968 -2.18514 3.93156 0
M  V30 2098 C 206.287 -3.65571 2.45043 0
M  V30 2099 H 203.406 -0.521077 0.521198 0
M  V30 2100 H 206.048 -0.766551 1.7385 0
M  V30 2101 H 204.198 -3.2053 2.19528 0
M  V30 2102 H 205.87 -1.66504 4.30202 0
M  V30 2103 H 204.113 -1.50086 4.07009 0
M  V30 2104 H 204.784 -3.04484 4.60428 0
M  V30 2105 H 207.26 -3.18113 2.68223 0
M  V30 2106 H 206.136 -4.46893 3.18713 0
M  V30 2107 H 206.397 -4.16716 1.47649 0
M  V30 2108 N 205.456 -1.28612 -0.910864 0
M  V30 2109 C 206.419 -1.12803 -1.9952 0
M  V30 2110 C 207.419 -0.0668264 -1.60661 0
M  V30 2111 O 208.609 -0.312847 -1.71368 0
M  V30 2112 C 205.741 -0.72254 -3.33155 0
M  V30 2113 H 206.934 -2.09109 -2.14973 0
M  V30 2114 H 204.487 -1.11639 -1.09391 0
M  V30 2115 H 205.222 0.241152 -3.23402 0
M  V30 2116 H 205.007 -1.48916 -3.62721 0
M  V30 2117 H 206.497 -0.634666 -4.12749 0
M  V30 2118 N 206.934 1.1197 -1.10907 0
M  V30 2119 C 208.211 1.79959 -0.766432 0
M  V30 2120 C 208.591 1.97466 0.746363 0
M  V30 2121 O 207.939 1.55491 1.67436 0
M  V30 2122 C 208.149 3.14009 -1.52314 0
M  V30 2123 C 209.497 3.89134 -1.69883 0
M  V30 2124 O 210.521 3.2368 -1.48692 0
M  V30 2125 O 209.38 5.06572 -2.05054 0
M  V30 2126 H 206.474 0.779208 -0.277062 0
M  V30 2127 H 209.02 1.18762 -1.21217 0
M  V30 2128 H 207.792 2.96587 -2.55249 0
M  V30 2129 H 207.415 3.82915 -1.07059 0
M  V30 2130 N 208.412 0.89855 1.29475 0
M  V30 2131 C 209.658 0.524658 1.95896 0
M  V30 2132 C 209.991 -0.926468 1.70676 0
M  V30 2133 O 209.266 -1.65665 1.01908 0
M  V30 2134 C 209.549 0.81633 3.50725 0
M  V30 2135 C 209.402 2.31907 3.85408 0
M  V30 2136 C 210.721 0.302038 4.39062 0
M  V30 2137 H 207.84 0.19209 0.711527 0
M  V30 2138 H 210.482 1.12502 1.53112 0
M  V30 2139 H 208.632 0.305369 3.87298 0
M  V30 2140 H 210.304 2.89949 3.58786 0
M  V30 2141 H 208.547 2.78027 3.32992 0
M  V30 2142 H 209.218 2.47373 4.93468 0
M  V30 2143 H 211.694 0.739551 4.09475 0
M  V30 2144 H 210.57 0.535331 5.46283 0
M  V30 2145 H 210.831 -0.797216 4.34853 0
M  V30 2146 N 209.89 -1.43072 0.660911 0
M  V30 2147 C 211.12 -2.05769 0.185153 0
M  V30 2148 C 211.528 -1.49668 -1.15742 0
M  V30 2149 O 210.871 -0.625649 -1.72717 0
M  V30 2150 C 210.933 -3.59489 0.0278237 0
M  V30 2151 C 210.597 -4.38212 1.2969 0
M  V30 2152 C 211.594 -4.69772 2.22734 0
M  V30 2153 C 209.279 -4.7809 1.54063 0
M  V30 2154 C 211.273 -5.40129 3.38437 0
M  V30 2155 C 208.96 -5.4819 2.70058 0
M  V30 2156 C 209.958 -5.79132 3.62071 0
M  V30 2157 O 209.646 -6.47798 4.76039 0
M  V30 2158 H 209.378 -0.669873 0.0908086 0
M  V30 2159 H 211.932 -1.84436 0.90402 0
M  V30 2160 H 210.162 -3.79426 -0.746489 0
M  V30 2161 H 211.851 -4.03862 -0.406275 0
M  V30 2162 H 212.617 -4.39476 2.05149 0
M  V30 2163 H 208.496 -4.53408 0.833215 0
M  V30 2164 H 212.04 -5.64198 4.10277 0
M  V30 2165 H 207.937 -5.77902 2.87574 0
M  V30 2166 H 208.705 -6.66283 4.75404 0
M  V30 2167 N 211.368 -0.403325 -1.52352 0
M  V30 2168 C 212.779 0.0675782 -1.86578 0
M  V30 2169 C 213.13 1.44941 -1.32236 0
M  V30 2170 O 212.255 2.06112 -0.659307 0
M  V30 2171 C 212.85 0.129404 -3.38553 0
M  V30 2172 C 211.409 0.544629 -3.72439 0
M  V30 2173 C 210.556 -0.284551 -2.75836 0
M  V30 2174 H 213.507 -0.620631 -1.46061 0
M  V30 2175 H 213.528 0.94581 -3.68558 0
M  V30 2176 H 213.04 -0.87645 -3.78074 0
M  V30 2177 H 211.141 1.55734 -3.38493 0
M  V30 2178 H 211.254 0.293046 -4.78203 0
M  V30 2179 H 209.618 0.252258 -2.53448 0
M  V30 2180 H 210.401 -1.28865 -3.18196 0
M  V30 2181 N 212.846 1.57033 -0.133567 0
M  V30 2182 C 214.093 1.95686 0.520877 0
M  V30 2183 C 214.421 1.0177 1.6575 0
M  V30 2184 O 213.676 0.0443195 1.9565 0
M  V30 2185 C 213.975 3.40674 1.08057 0
M  V30 2186 C 213.641 4.50855 0.0637899 0
M  V30 2187 C 212.303 4.80716 -0.215757 0
M  V30 2188 C 214.655 5.17398 -0.62835 0
M  V30 2189 C 211.983 5.74433 -1.19348 0
M  V30 2190 C 214.335 6.12167 -1.5948 0
M  V30 2191 C 212.999 6.40414 -1.88218 0
M  V30 2192 H 212.269 0.716067 0.190602 0
M  V30 2193 H 214.916 1.9026 -0.217556 0
M  V30 2194 H 213.221 3.42865 1.89606 0
M  V30 2195 H 214.918 3.67902 1.59529 0
M  V30 2196 H 211.508 4.27605 0.291855 0
M  V30 2197 H 215.692 4.94472 -0.425562 0
M  V30 2198 H 210.948 5.94616 -1.42272 0
M  V30 2199 H 215.122 6.6281 -2.13671 0
M  V30 2200 H 212.749 7.12838 -2.64133 0
M  V30 2201 N 214.325 -0.140222 1.56975 0
M  V30 2202 C 215.602 -0.880769 1.74648 0
M  V30 2203 C 215.982 -1.99036 0.703404 0
M  V30 2204 O 215.33 -2.26821 -0.27648 0
M  V30 2205 C 215.54 -1.417 3.18939 0
M  V30 2206 C 216.888 -1.87774 3.80823 0
M  V30 2207 O 217.912 -1.51427 3.2241 0
M  V30 2208 O 216.771 -2.54827 4.83452 0
M  V30 2209 H 213.865 -0.416713 0.714338 0
M  V30 2210 H 216.411 -0.125618 1.69234 0
M  V30 2211 H 215.183 -0.619902 3.86359 0
M  V30 2212 H 214.806 -2.23546 3.28805 0
M  V30 2213 N 215.803 -1.52179 -0.40978 0
M  V30 2214 C 217.219 -1.40968 -0.74835 0
M  V30 2215 C 217.419 -0.513657 -1.94843 0
M  V30 2216 O 216.475 0.0208026 -2.52491 0
M  V30 2217 C 217.788 -2.83483 -1.0029 0
M  V30 2218 C 219.336 -2.92821 -1.10565 0
M  V30 2219 C 219.811 -4.36303 -1.39296 0
M  V30 2220 N 221.302 -4.39535 -1.46162 0
M  V30 2221 C 222.037 -5.47614 -1.70018 0
M  V30 2222 N 221.533 -6.65812 -1.91483 0
M  V30 2223 N 223.326 -5.35129 -1.72027 0
M  V30 2224 H 215.477 -2.0897 0.380186 0
M  V30 2225 H 217.74 -0.94185 0.107805 0
M  V30 2226 H 217.446 -3.51168 -0.193461 0
M  V30 2227 H 217.32 -3.24487 -1.92323 0
M  V30 2228 H 219.707 -2.25318 -1.90568 0
M  V30 2229 H 219.788 -2.55276 -0.16369 0
M  V30 2230 H 219.432 -5.04366 -0.598109 0
M  V30 2231 H 219.362 -4.71385 -2.34743 0
M  V30 2232 H 221.853 -3.54332 -1.31367 0
M  V30 2233 H 222.166 -7.43964 -2.09134 0
M  V30 2234 H 220.511 -6.68879 -1.88749 0
M  V30 2235 H 223.702 -4.41764 -1.54796 0
M  V30 2236 H 223.875 -6.19433 -1.9028 0
M  V30 2237 N 217.281 0.66697 -1.42791 0
M  V30 2238 C 218.211 1.79218 -1.49677 0
M  V30 2239 C 219.192 1.66405 -0.352623 0
M  V30 2240 O 220.377 1.85708 -0.567993 0
M  V30 2241 C 217.507 3.17565 -1.40605 0
M  V30 2242 C 216.461 3.45124 -2.53127 0
M  V30 2243 C 215.787 4.83127 -2.29112 0
M  V30 2244 C 217.087 3.41236 -3.95418 0
M  V30 2245 H 218.781 1.73713 -2.43853 0
M  V30 2246 H 216.327 0.83432 -1.17367 0
M  V30 2247 H 218.28 3.96022 -1.44029 0
M  V30 2248 H 217.004 3.23767 -0.429271 0
M  V30 2249 H 215.663 2.69031 -2.49034 0
M  V30 2250 H 215.311 4.85988 -1.29709 0
M  V30 2251 H 215.011 5.02528 -3.04531 0
M  V30 2252 H 216.535 5.63859 -2.34297 0
M  V30 2253 H 217.949 4.09651 -4.01073 0
M  V30 2254 H 216.346 3.72173 -4.70752 0
M  V30 2255 H 217.416 2.39665 -4.21532 0
M  V30 2256 N 218.759 1.29093 0.90403 0
M  V30 2257 C 219.669 1.15727 2.0407 0
M  V30 2258 C 220.685 0.0815308 1.73809 0
M  V30 2259 O 221.861 0.292749 1.99261 0
M  V30 2260 C 218.926 0.830424 3.36608 0
M  V30 2261 C 217.987 1.98955 3.80415 0
M  V30 2262 C 217.22 1.6782 5.06628 0
M  V30 2263 O 217.443 0.597105 5.67266 0
M  V30 2264 O 216.377 2.52486 5.46383 0
M  V30 2265 H 220.203 2.11171 2.18267 0
M  V30 2266 H 217.788 1.08504 1.027 0
M  V30 2267 H 219.67 0.662521 4.16159 0
M  V30 2268 H 218.345 -0.0942678 3.23563 0
M  V30 2269 H 217.252 2.21267 3.01648 0
M  V30 2270 H 218.585 2.89529 3.98037 0
M  V30 2271 N 220.237 -1.11381 1.11499 0
M  V30 2272 C 221.486 -1.82494 0.858993 0
M  V30 2273 C 221.799 -1.85605 -0.617278 0
M  V30 2274 O 223.005 -2.52824 -0.989552 0
M  V30 2275 C 221.461 -3.27745 1.48699 0
M  V30 2276 C 221.069 -3.32961 2.99735 0
M  V30 2277 C 222.813 -4.03754 1.31085 0
M  V30 2278 C 220.72 -4.72612 3.55516 0
M  V30 2279 H 219.65 -0.683802 0.317696 0
M  V30 2280 H 222.301 -1.25331 1.34031 0
M  V30 2281 H 220.683 -3.84844 0.933339 0
M  V30 2282 H 221.857 -2.85741 3.61509 0
M  V30 2283 H 220.172 -2.70433 3.16631 0
M  V30 2284 H 222.769 -5.06891 1.70192 0
M  V30 2285 H 223.112 -4.15527 0.253496 0
M  V30 2286 H 223.645 -3.53043 1.83318 0
M  V30 2287 H 220.384 -4.66036 4.60967 0
M  V30 2288 H 219.904 -5.2024 2.98513 0
M  V30 2289 H 221.583 -5.4157 3.53992 0
M  V30 2290 N 221.715 -0.905404 -1.28997 0
M  V30 2291 C 222.992 -0.453513 -1.9027 0
M  V30 2292 C 223.372 1.06721 -1.82137 0
M  V30 2293 O 222.72 1.91159 -1.25182 0
M  V30 2294 C 222.93 -0.974494 -3.35119 0
M  V30 2295 C 224.278 -1.0216 -4.12127 0
M  V30 2296 O 225.302 -0.922557 -3.44046 0
M  V30 2297 O 224.161 -1.17121 -5.33802 0
M  V30 2298 H 221.255 -0.142347 -0.814657 0
M  V30 2299 H 223.801 -0.995642 -1.37423 0
M  V30 2300 H 222.573 -2.01848 -3.35221 0
M  V30 2301 H 222.196 -0.412706 -3.95452 0
M  V30 2302 N 223.193 1.4272 -0.668489 0
M  V30 2303 C 224.123 2.335 -0.000100175 0
M  V30 2304 C 225.104 1.50328 0.795964 0
M  V30 2305 O 226.289 1.78949 0.754385 0
M  V30 2306 C 223.419 3.33874 0.956302 0
M  V30 2307 C 222.373 4.27152 0.269278 0
M  V30 2308 C 221.699 5.17684 1.33818 0
M  V30 2309 C 222.999 5.15373 -0.847805 0
M  V30 2310 H 224.693 2.89639 -0.758244 0
M  V30 2311 H 222.239 1.39269 -0.366079 0
M  V30 2312 H 224.192 3.9629 1.43292 0
M  V30 2313 H 222.916 2.76025 1.74579 0
M  V30 2314 H 221.575 3.66123 -0.187042 0
M  V30 2315 H 221.223 4.56165 2.1195 0
M  V30 2316 H 220.923 5.80918 0.883659 0
M  V30 2317 H 222.447 5.82974 1.81586 0
M  V30 2318 H 223.861 5.7151 -0.452681 0
M  V30 2319 H 222.258 5.87407 -1.22773 0
M  V30 2320 H 223.328 4.5415 -1.69929 0
M  V30 2321 N 224.671 0.411399 1.52136 0
M  V30 2322 C 225.601 -0.404015 2.29978 0
M  V30 2323 C 226.582 -1.04412 1.34284 0
M  V30 2324 O 227.767 -1.0527 1.63192 0
M  V30 2325 C 224.897 -1.5197 3.12286 0
M  V30 2326 C 223.851 -1.00448 4.16046 0
M  V30 2327 C 223.177 -2.21393 4.86712 0
M  V30 2328 C 224.477 -0.0569336 5.22269 0
M  V30 2329 H 226.171 0.245529 2.98392 0
M  V30 2330 H 223.717 0.119525 1.43503 0
M  V30 2331 H 225.67 -2.09715 3.6551 0
M  V30 2332 H 224.394 -2.19716 2.41646 0
M  V30 2333 H 223.053 -0.449421 3.63835 0
M  V30 2334 H 222.701 -2.87699 4.12599 0
M  V30 2335 H 222.401 -1.87571 5.56858 0
M  V30 2336 H 223.925 -2.7974 5.4275 0
M  V30 2337 H 225.339 -0.54325 5.7072 0
M  V30 2338 H 223.736 0.192594 5.99791 0
M  V30 2339 H 224.806 0.887663 4.76706 0
M  V30 2340 N 226.149 -1.5696 0.141893 0
M  V30 2341 C 227.096 -2.16501 -0.799737 0
M  V30 2342 C 228.066 -1.09643 -1.24771 0
M  V30 2343 O 229.251 -1.3766 -1.32115 0
M  V30 2344 C 226.391 -2.78679 -2.03549 0
M  V30 2345 C 225.504 -3.99914 -1.6338 0
M  V30 2346 C 224.639 -4.50106 -2.82096 0
M  V30 2347 C 223.678 -5.63819 -2.38275 0
M  V30 2348 N 222.815 -6.08651 -3.49983 0
M  V30 2349 H 227.655 -2.96632 -0.285179 0
M  V30 2350 H 225.192 -1.46533 -0.129053 0
M  V30 2351 H 227.15 -3.1287 -2.75986 0
M  V30 2352 H 225.78 -2.012 -2.52425 0
M  V30 2353 H 224.832 -3.71735 -0.807279 0
M  V30 2354 H 226.144 -4.82311 -1.27192 0
M  V30 2355 H 225.298 -4.86325 -3.62729 0
M  V30 2356 H 224.037 -3.66706 -3.21525 0
M  V30 2357 H 223.042 -5.2718 -1.56081 0
M  V30 2358 H 224.267 -6.49 -1.99938 0
M  V30 2359 H 222.213 -5.28188 -3.89042 0
M  V30 2360 H 222.13 -6.85961 -3.17794 0
M  V30 2361 H 223.398 -6.49515 -4.30988 0
M  V30 2362 N 227.627 0.131896 -1.57047 0
M  V30 2363 C 228.875 0.840269 -1.83804 0
M  V30 2364 C 229.196 1.81017 -0.72512 0
M  V30 2365 O 228.466 1.94272 0.251995 0
M  V30 2366 H 227.046 0.313294 -0.678127 0
M  V30 2367 H 229.708 0.122294 -1.94516 0
M  V30 2368 H 228.804 1.39335 -2.79271 0
M  V30 2369 N 229.106 1.52395 0.401703 0
M  V30 2370 C 230.383 1.57387 1.16141 0
M  V30 2371 C 230.763 0.359359 2.08019 0
M  V30 2372 O 230.111 -0.65326 2.18963 0
M  V30 2373 C 230.321 2.90631 1.93221 0
M  V30 2374 C 231.669 3.43904 2.49028 0
M  V30 2375 O 232.693 2.92421 2.03393 0
M  V30 2376 O 231.552 4.33823 3.32356 0
M  V30 2377 H 228.646 0.634262 0.530698 0
M  V30 2378 H 231.192 1.64725 0.407883 0
M  V30 2379 H 229.964 3.70473 1.25958 0
M  V30 2380 H 229.587 2.8662 2.75563 0
M  V30 2381 N 230.584 -0.659388 1.43143 0
M  V30 2382 C 231.534 -1.7655 1.44271 0
M  V30 2383 C 232.518 -1.57847 0.311961 0
M  V30 2384 O 233.71 -1.68064 0.555306 0
M  V30 2385 C 230.839 -3.15104 1.36251 0
M  V30 2386 C 229.925 -3.39377 2.54331 0
M  V30 2387 N 230.316 -3.34153 3.79704 0
M  V30 2388 C 228.614 -3.70072 2.48922 0
M  V30 2389 C 229.315 -3.58337 4.58225 0
M  V30 2390 N 228.291 -3.79851 3.88863 0
M  V30 2391 H 232.093 -1.70928 2.39083 0
M  V30 2392 H 229.607 -0.860823 1.37708 0
M  V30 2393 H 231.604 -3.94389 1.35141 0
M  V30 2394 H 230.264 -3.21913 0.424531 0
M  V30 2395 H 231.275 -3.13704 4.1208 0
M  V30 2396 H 227.952 -3.84034 1.63781 0
M  V30 2397 H 229.342 -3.60129 5.67236 0
M  V30 2398 N 232.062 -1.29571 -0.897171 0
M  V30 2399 C 232.992 -1.17473 -2.01798 0
M  V30 2400 C 233.973 -0.068323 -1.69963 0
M  V30 2401 O 235.158 -0.248239 -1.92607 0
M  V30 2402 C 232.288 -0.853099 -3.36659 0
M  V30 2403 C 231.242 -1.9161 -3.82713 0
M  V30 2404 C 230.568 -1.44773 -5.14728 0
M  V30 2405 C 231.868 -3.32535 -4.02763 0
M  V30 2406 H 233.562 -2.11237 -2.12177 0
M  V30 2407 H 231.108 -1.01699 -1.01948 0
M  V30 2408 H 233.061 -0.755165 -4.14578 0
M  V30 2409 H 231.785 0.120236 -3.26379 0
M  V30 2410 H 230.444 -2.00346 -3.07013 0
M  V30 2411 H 230.092 -0.462995 -5.00865 0
M  V30 2412 H 229.792 -2.15865 -5.46513 0
M  V30 2413 H 231.316 -1.36334 -5.95185 0
M  V30 2414 H 232.73 -3.26626 -4.71156 0
M  V30 2415 H 231.127 -4.01607 -4.45905 0
M  V30 2416 H 232.197 -3.75326 -3.07016 0
M  V30 2417 N 233.54 1.10788 -1.12088 0
M  V30 2418 C 234.473 2.16237 -0.729168 0
M  V30 2419 C 235.451 1.60207 0.277921 0
M  V30 2420 O 236.635 1.87707 0.172737 0
M  V30 2421 C 233.762 3.38609 -0.0786848 0
M  V30 2422 C 232.808 4.13322 -1.05201 0
M  V30 2423 S 233.641 4.69371 -2.57781 0
M  V30 2424 C 234.797 5.95058 -1.94053 0
M  V30 2425 H 235.03 2.4913 -1.62239 0
M  V30 2426 H 232.563 1.22519 -0.939603 0
M  V30 2427 H 234.521 4.09473 0.290254 0
M  V30 2428 H 233.182 3.03962 0.791593 0
M  V30 2429 H 232.375 5.01051 -0.544433 0
M  V30 2430 H 231.977 3.48251 -1.36371 0
M  V30 2431 H 234.269 6.65278 -1.28107 0
M  V30 2432 H 235.212 6.50472 -2.79807 0
M  V30 2433 H 235.62 5.46918 -1.39787 0
M  V30 2434 N 235.018 0.912232 1.28515 0
M  V30 2435 C 235.965 0.397954 2.27343 0
M  V30 2436 C 236.935 -0.526766 1.57526 0
M  V30 2437 O 238.12 -0.449292 1.85435 0
M  V30 2438 C 235.26 -0.357263 3.43246 0
M  V30 2439 C 234.373 0.599788 4.27816 0
M  V30 2440 C 233.508 -0.173725 5.30916 0
M  V30 2441 C 232.547 0.777039 6.07148 0
M  V30 2442 N 231.684 0.0371398 7.0209 0
M  V30 2443 H 236.524 1.24577 2.70711 0
M  V30 2444 H 234.061 0.625612 1.33133 0
M  V30 2445 H 236.019 -0.8113 4.09236 0
M  V30 2446 H 234.649 -1.16943 3.00872 0
M  V30 2447 H 233.701 1.17235 3.61884 0
M  V30 2448 H 235.013 1.32704 4.80823 0
M  V30 2449 H 234.167 -0.688394 6.02782 0
M  V30 2450 H 232.906 -0.934041 4.78672 0
M  V30 2451 H 231.911 1.3031 5.34134 0
M  V30 2452 H 233.136 1.53689 6.61481 0
M  V30 2453 H 231.082 -0.705213 6.52198 0
M  V30 2454 H 230.999 0.704249 7.52713 0
M  V30 2455 H 232.267 -0.457383 7.78157 0
M  V30 2456 N 236.496 -1.42363 0.676048 0
M  V30 2457 C 237.721 -2.06377 0.205705 0
M  V30 2458 C 238.146 -1.50463 -1.12883 0
M  V30 2459 O 237.504 -0.623619 -1.70237 0
M  V30 2460 C 237.552 -3.60277 0.152655 0
M  V30 2461 O 236.656 -4.02935 -0.87845 0
M  V30 2462 H 235.997 -0.655588 0.105359 0
M  V30 2463 H 238.527 -1.82475 0.925412 0
M  V30 2464 H 238.537 -4.07993 -0.0230675 0
M  V30 2465 H 237.212 -4.00346 1.12675 0
M  V30 2466 H 235.789 -3.66764 -0.673668 0
M  V30 2467 N 237.974 -0.419461 -1.51915 0
M  V30 2468 C 238.906 0.43646 -2.25006 0
M  V30 2469 C 239.919 1.00149 -1.28351 0
M  V30 2470 O 241.108 0.898674 -1.54227 0
M  V30 2471 C 238.208 1.6206 -2.9764 0
M  V30 2472 C 237.381 1.17763 -4.21249 0
M  V30 2473 C 236.44 2.22985 -4.76617 0
M  V30 2474 O 235.466 1.83151 -5.38929 0
M  V30 2475 N 236.668 3.55271 -4.59089 0
M  V30 2476 H 239.433 -0.18989 -2.99098 0
M  V30 2477 H 236.994 -0.247386 -1.59999 0
M  V30 2478 H 238.986 2.32038 -3.31573 0
M  V30 2479 H 237.556 2.15266 -2.2667 0
M  V30 2480 H 236.776 0.305582 -3.93014 0
M  V30 2481 H 238.064 0.858781 -5.015 0
M  V30 2482 H 237.462 3.90377 -4.09417 0
M  V30 2483 H 236.019 4.21195 -4.97432 0
M  V30 2484 N 239.452 1.56882 -0.150215 0
M  V30 2485 C 240.362 2.20494 0.801222 0
M  V30 2486 C 241.378 1.19019 1.26927 0
M  V30 2487 O 242.554 1.51607 1.32579 0
M  V30 2488 C 239.619 2.81659 2.02161 0
M  V30 2489 C 238.68 3.9827 1.60249 0
M  V30 2490 C 237.913 4.56508 2.7647 0
M  V30 2491 O 238.136 4.13627 3.92771 0
M  V30 2492 O 237.07 5.46719 2.51757 0
M  V30 2493 H 240.896 3.02315 0.289717 0
M  V30 2494 H 238.481 1.49202 0.0769684 0
M  V30 2495 H 240.363 3.20522 2.73576 0
M  V30 2496 H 239.038 2.02849 2.52258 0
M  V30 2497 H 237.945 3.64117 0.858477 0
M  V30 2498 H 239.278 4.78609 1.14864 0
M  V30 2499 N 240.93 -0.123565 1.57115 0
M  V30 2500 C 242.177 -0.832153 1.84612 0
M  V30 2501 C 242.505 -1.80093 0.734627 0
M  V30 2502 O 241.76 -1.93766 -0.27442 0
M  V30 2503 C 242.059 -1.62016 3.18568 0
M  V30 2504 C 241.725 -0.796084 4.43817 0
M  V30 2505 C 240.387 -0.568816 4.77826 0
M  V30 2506 C 242.739 -0.221364 5.2073 0
M  V30 2507 C 240.067 0.243499 5.86194 0
M  V30 2508 C 242.419 0.578117 6.29953 0
M  V30 2509 C 241.083 0.815744 6.62497 0
M  V30 2510 H 240.353 -0.304507 0.675542 0
M  V30 2511 H 243 -0.0947248 1.91266 0
M  V30 2512 H 241.305 -2.42837 3.0747 0
M  V30 2513 H 243.002 -2.17231 3.37064 0
M  V30 2514 H 239.592 -0.983307 4.17168 0
M  V30 2515 H 243.776 -0.384173 4.94811 0
M  V30 2516 H 239.032 0.436871 6.09837 0
M  V30 2517 H 243.206 1.03046 6.88734 0
M  V30 2518 H 240.833 1.44701 7.46301 0
M  V30 2519 N 242.408 -1.52605 -0.393616 0
M  V30 2520 C 243.338 -1.80022 -1.48709 0
M  V30 2521 C 244.319 -0.651995 -1.57108 0
M  V30 2522 O 245.504 -0.89913 -1.72132 0
M  V30 2523 C 242.634 -1.96492 -2.86371 0
M  V30 2524 C 241.588 -3.12161 -2.92813 0
M  V30 2525 C 240.914 -3.13877 -4.3288 0
M  V30 2526 C 242.214 -4.51322 -2.6288 0
M  V30 2527 H 243.908 -2.71589 -1.26015 0
M  V30 2528 H 241.454 -1.30684 -0.604778 0
M  V30 2529 H 243.407 -2.14255 -3.62867 0
M  V30 2530 H 242.131 -1.01611 -3.10391 0
M  V30 2531 H 240.79 -2.94173 -2.18764 0
M  V30 2532 H 240.438 -2.16687 -4.53933 0
M  V30 2533 H 240.138 -3.91576 -4.38112 0
M  V30 2534 H 241.662 -3.33789 -5.1129 0
M  V30 2535 H 243.076 -4.69435 -3.29096 0
M  V30 2536 H 241.473 -5.31053 -2.79468 0
M  V30 2537 H 242.543 -4.58353 -1.58242 0
M  V30 2538 N 243.887 0.651787 -1.4349 0
M  V30 2539 C 244.797 1.79368 -1.5121 0
M  V30 2540 C 245.813 1.69361 -0.399093 0
M  V30 2541 O 246.989 1.90505 -0.653431 0
M  V30 2542 C 244.054 3.15653 -1.43401 0
M  V30 2543 C 243.115 3.37446 -2.65384 0
M  V30 2544 C 242.348 4.67229 -2.57939 0
M  V30 2545 O 242.571 5.46676 -1.62792 0
M  V30 2546 O 241.505 4.90773 -3.48462 0
M  V30 2547 H 245.331 1.7581 -2.47638 0
M  V30 2548 H 242.916 0.810447 -1.25507 0
M  V30 2549 H 244.798 3.96935 -1.41494 0
M  V30 2550 H 243.473 3.19798 -0.501085 0
M  V30 2551 H 242.38 2.55923 -2.72863 0
M  V30 2552 H 243.713 3.38148 -3.57654 0
M  V30 2553 N 245.365 1.30045 0.890287 0
M  V30 2554 C 246.642 1.09227 1.62262 0
M  V30 2555 C 247.022 -0.360305 2.08002 0
M  V30 2556 O 246.37 -1.35084 1.84295 0
M  V30 2557 C 246.58 2.08835 2.79623 0
M  V30 2558 C 247.928 2.40266 3.50082 0
M  V30 2559 O 248.952 2.07104 2.89804 0
M  V30 2560 O 247.811 2.96967 4.58773 0
M  V30 2561 H 244.905 0.419132 0.712922 0
M  V30 2562 H 247.451 1.41451 0.937529 0
M  V30 2563 H 246.223 3.06633 2.43089 0
M  V30 2564 H 245.846 1.77397 3.55832 0
M  V30 2565 N 246.843 -1.10192 1.12674 0
M  V30 2566 C 247.806 -2.14786 0.799979 0
M  V30 2567 C 248.806 -1.59711 -0.18685 0
M  V30 2568 O 249.996 -1.74156 0.0392558 0
M  V30 2569 C 247.128 -3.40374 0.189228 0
M  V30 2570 H 248.321 -2.45203 1.72671 0
M  V30 2571 H 245.874 -1.25597 0.930326 0
M  V30 2572 H 246.609 -3.15577 -0.747107 0
M  V30 2573 H 246.394 -3.81637 0.899766 0
M  V30 2574 H 247.884 -4.17594 -0.0228143 0
M  V30 2575 N 248.321 -0.919034 -1.28029 0
M  V30 2576 C 249.598 -0.473668 -1.89778 0
M  V30 2577 C 249.978 1.04783 -1.83259 0
M  V30 2578 O 249.326 1.8982 -1.27202 0
M  V30 2579 C 249.536 -1.00998 -3.34066 0
M  V30 2580 C 250.884 -1.06525 -4.1102 0
M  V30 2581 O 251.908 -0.958996 -3.43048 0
M  V30 2582 O 250.767 -1.22776 -5.3253 0
M  V30 2583 H 247.861 -0.15098 -0.813101 0
M  V30 2584 H 250.407 -1.01016 -1.36359 0
M  V30 2585 H 249.179 -2.05392 -3.33061 0
M  V30 2586 H 248.802 -0.454626 -3.94992 0
M  V30 2587 N 249.799 1.42003 -0.683588 0
M  V30 2588 C 251.215 1.55625 -0.353976 0
M  V30 2589 C 251.415 1.66151 1.14 0
M  V30 2590 O 250.471 1.63329 1.92561 0
M  V30 2591 C 251.784 2.80171 -1.092 0
M  V30 2592 C 253.332 2.93954 -1.07518 0
M  V30 2593 C 253.807 4.21372 -1.79471 0
M  V30 2594 N 255.298 4.28303 -1.76381 0
M  V30 2595 C 256.033 5.25729 -2.28904 0
M  V30 2596 N 255.529 6.29254 -2.89846 0
M  V30 2597 N 257.322 5.17586 -2.19228 0
M  V30 2598 H 249.473 1.33415 -1.6527 0
M  V30 2599 H 251.736 0.64282 -0.696769 0
M  V30 2600 H 251.442 2.78561 -2.14701 0
M  V30 2601 H 251.316 3.7133 -0.662862 0
M  V30 2602 H 253.703 2.95086 -0.028475 0
M  V30 2603 H 253.784 2.04002 -1.54328 0
M  V30 2604 H 253.428 4.21001 -2.84114 0
M  V30 2605 H 253.358 5.10275 -1.30104 0
M  V30 2606 H 255.849 3.54119 -1.31939 0
M  V30 2607 H 256.162 6.99964 -3.27522 0
M  V30 2608 H 254.507 6.29791 -2.93919 0
M  V30 2609 H 257.698 4.35631 -1.71299 0
M  V30 2610 H 257.871 5.93348 -2.60466 0
M  V30 2611 N 251.277 0.427512 1.51691 0
M  V30 2612 C 252.224 -0.388867 2.275 0
M  V30 2613 C 253.194 -1.02532 1.30677 0
M  V30 2614 O 254.379 -1.0461 1.59566 0
M  V30 2615 C 251.519 -1.48954 3.11298 0
M  V30 2616 C 250.632 -0.872194 4.23104 0
M  V30 2617 C 249.767 -1.94709 4.94228 0
M  V30 2618 C 248.806 -1.30766 5.97969 0
M  V30 2619 N 247.943 -2.32349 6.62539 0
M  V30 2620 H 252.783 0.263997 2.96828 0
M  V30 2621 H 250.32 0.142033 1.46413 0
M  V30 2622 H 252.278 -2.13887 3.58201 0
M  V30 2623 H 250.908 -2.11217 2.44105 0
M  V30 2624 H 249.96 -0.111419 3.80237 0
M  V30 2625 H 251.272 -0.365264 4.97461 0
M  V30 2626 H 250.426 -2.67327 5.44629 0
M  V30 2627 H 249.165 -2.48773 4.1948 0
M  V30 2628 H 248.17 -0.566902 5.4687 0
M  V30 2629 H 249.395 -0.774483 6.74669 0
M  V30 2630 H 247.341 -2.85511 5.90609 0
M  V30 2631 H 247.258 -1.8652 7.3263 0
M  V30 2632 H 248.526 -3.04481 7.17574 0
M  V30 2633 N 252.755 -1.56801 0.158532 0
M  V30 2634 C 253.98 -2.01295 -0.499516 0
M  V30 2635 C 254.405 -1.03799 -1.56867 0
M  V30 2636 O 253.763 -0.0155162 -1.81293 0
M  V30 2637 C 253.811 -3.44469 -1.06647 0
M  V30 2638 O 252.915 -3.50012 -2.18095 0
M  V30 2639 H 252.256 -0.652884 -0.12099 0
M  V30 2640 H 254.786 -2.02958 0.258661 0
M  V30 2641 H 254.796 -3.8351 -1.39227 0
M  V30 2642 H 253.471 -4.14932 -0.283581 0
M  V30 2643 H 252.048 -3.22822 -1.86656 0
M  V30 2644 N 254.233 0.115231 -1.57178 0
M  V30 2645 C 255.163 1.1423 -2.03651 0
M  V30 2646 C 256.144 1.42967 -0.921655 0
M  V30 2647 O 257.329 1.53343 -1.19162 0
M  V30 2648 C 254.459 2.4675 -2.44401 0
M  V30 2649 C 253.413 2.32467 -3.59365 0
M  V30 2650 C 252.739 3.69984 -3.86026 0
M  V30 2651 C 254.039 1.78203 -4.90959 0
M  V30 2652 H 255.733 0.755749 -2.89705 0
M  V30 2653 H 253.279 0.362093 -1.39373 0
M  V30 2654 H 255.232 3.18854 -2.75517 0
M  V30 2655 H 253.956 2.87302 -1.55322 0
M  V30 2656 H 252.615 1.62811 -3.28463 0
M  V30 2657 H 252.263 4.08028 -2.94147 0
M  V30 2658 H 251.963 3.61279 -4.63412 0
M  V30 2659 H 253.487 4.43587 -4.19599 0
M  V30 2660 H 254.901 2.40128 -5.20587 0
M  V30 2661 H 253.298 1.8031 -5.72371 0
M  V30 2662 H 254.368 0.739876 -4.79222 0
M  V30 2663 N 255.711 1.52812 0.385517 0
M  V30 2664 C 256.621 1.80766 1.49535 0
M  V30 2665 C 257.637 0.694651 1.59532 0
M  V30 2666 O 258.813 0.982611 1.75803 0
M  V30 2667 C 255.878 1.97381 2.85029 0
M  V30 2668 C 254.939 3.21295 2.84724 0
M  V30 2669 C 254.172 3.37108 4.13756 0
M  V30 2670 O 254.395 2.5765 5.08893 0
M  V30 2671 O 253.329 4.30378 4.20783 0
M  V30 2672 H 257.155 2.75015 1.28842 0
M  V30 2673 H 254.74 1.37946 0.573697 0
M  V30 2674 H 256.622 2.09996 3.65349 0
M  V30 2675 H 255.297 1.06322 3.05741 0
M  V30 2676 H 254.204 3.1412 2.03174 0
M  V30 2677 H 255.537 4.12212 2.68965 0
M  V30 2678 N 257.189 -0.644168 1.43834 0
M  V30 2679 C 258.417 -1.43147 1.49387 0
M  V30 2680 C 258.832 -1.88452 0.114583 0
M  V30 2681 O 258.189 -1.60047 -0.876989 0
M  V30 2682 C 258.24 -2.66046 2.44748 0
M  V30 2683 O 257.961 -2.22633 3.77314 0
M  V30 2684 C 259.462 -3.59311 2.59635 0
M  V30 2685 H 256.682 -0.439447 0.507077 0
M  V30 2686 H 259.226 -0.78895 1.88669 0
M  V30 2687 H 257.381 -3.26418 2.08638 0
M  V30 2688 H 257.795 -3.02216 4.28679 0
M  V30 2689 H 259.269 -4.42187 3.30416 0
M  V30 2690 H 259.746 -4.07259 1.64427 0
M  V30 2691 H 260.352 -3.04816 2.96593 0
M  V30 2692 N 258.668 -1.30515 -0.883378 0
M  V30 2693 C 259.615 -1.17032 -1.98927 0
M  V30 2694 C 260.585 -0.0594241 -1.65994 0
M  V30 2695 O 261.77 -0.229895 -1.8941 0
M  V30 2696 C 258.91 -0.869777 -3.33959 0
M  V30 2697 C 258.023 -2.06271 -3.79574 0
M  V30 2698 C 257.158 -1.70011 -5.03259 0
M  V30 2699 C 256.197 -2.8579 -5.41286 0
M  V30 2700 N 255.334 -2.49816 -6.56153 0
M  V30 2701 H 260.174 -2.1164 -2.09792 0
M  V30 2702 H 257.711 -1.05296 -1.02719 0
M  V30 2703 H 259.669 -0.676138 -4.11685 0
M  V30 2704 H 258.299 0.0394332 -3.22776 0
M  V30 2705 H 257.351 -2.36755 -2.97744 0
M  V30 2706 H 258.663 -2.92971 -4.03694 0
M  V30 2707 H 257.817 -1.47032 -5.88614 0
M  V30 2708 H 256.556 -0.804829 -4.81013 0
M  V30 2709 H 255.561 -3.09434 -4.54456 0
M  V30 2710 H 256.786 -3.76008 -5.65504 0
M  V30 2711 H 254.732 -1.62795 -6.35479 0
M  V30 2712 H 254.649 -3.30048 -6.8015 0
M  V30 2713 H 255.917 -2.30197 -7.44735 0
M  V30 2714 N 260.146 1.09593 -1.13257 0
M  V30 2715 C 261.371 1.8604 -0.916732 0
M  V30 2716 C 261.796 1.80504 0.529146 0
M  V30 2717 O 261.154 1.18127 1.37534 0
M  V30 2718 C 261.202 3.32017 -1.40703 0
M  V30 2719 O 260.306 4.08141 -0.591153 0
M  V30 2720 H 259.647 0.576943 -0.328683 0
M  V30 2721 H 262.177 1.38405 -1.50682 0
M  V30 2722 H 262.187 3.82865 -1.4099 0
M  V30 2723 H 260.862 3.35361 -2.45979 0
M  V30 2724 H 259.439 3.67084 -0.656005 0
M  V30 2725 N 261.624 0.925811 1.2754 0
M  V30 2726 C 262.554 0.440748 2.29303 0
M  V30 2727 C 263.535 -0.497971 1.62648 0
M  V30 2728 O 264.72 -0.403126 1.8997 0
M  V30 2729 C 261.85 -0.309048 3.45922 0
M  V30 2730 C 260.804 0.54166 4.24559 0
M  V30 2731 C 260.13 -0.337191 5.33636 0
M  V30 2732 C 261.43 1.80516 4.90114 0
M  V30 2733 H 263.124 1.29121 2.70126 0
M  V30 2734 H 260.67 0.622323 1.29858 0
M  V30 2735 H 262.623 -0.659315 4.1621 0
M  V30 2736 H 261.347 -1.19352 3.04011 0
M  V30 2737 H 260.006 0.874609 3.56014 0
M  V30 2738 H 259.654 -1.22056 4.87966 0
M  V30 2739 H 259.354 0.228497 5.87156 0
M  V30 2740 H 260.878 -0.683072 6.06767 0
M  V30 2741 H 262.292 1.52307 5.52698 0
M  V30 2742 H 260.689 2.3142 5.53683 0
M  V30 2743 H 261.759 2.52581 4.13921 0
M  V30 2744 N 263.102 -1.41638 0.69111 0
M  V30 2745 C 264.012 -2.34588 0.0233487 0
M  V30 2746 C 265.028 -1.55987 -0.770984 0
M  V30 2747 O 266.204 -1.88486 -0.709569 0
M  V30 2748 C 263.269 -3.34684 -0.904851 0
M  V30 2749 C 262.33 -4.29176 -0.103225 0
M  V30 2750 C 261.563 -5.2449 -0.987216 0
M  V30 2751 O 261.786 -5.2514 -2.22674 0
M  V30 2752 O 260.72 -6.00295 -0.439281 0
M  V30 2753 H 264.546 -2.93261 0.789416 0
M  V30 2754 H 262.131 -1.42417 0.45142 0
M  V30 2755 H 264.013 -3.96133 -1.43724 0
M  V30 2756 H 262.688 -2.78461 -1.65049 0
M  V30 2757 H 261.595 -3.71089 0.473655 0
M  V30 2758 H 262.928 -4.88484 0.60365 0
M  V30 2759 N 264.58 -0.43555 -1.51462 0
M  V30 2760 C 265.826 0.131709 -2.02372 0
M  V30 2761 C 266.159 1.42516 -1.3192 0
M  V30 2762 O 265.434 1.89606 -0.433573 0
M  V30 2763 C 265.717 0.352301 -3.58373 0
M  V30 2764 C 265.57 -0.959676 -4.39443 0
M  V30 2765 C 266.889 1.12286 -4.25535 0
M  V30 2766 H 264.008 0.0463936 -0.735538 0
M  V30 2767 H 266.65 -0.574197 -1.81116 0
M  V30 2768 H 264.8 0.9536 -3.76615 0
M  V30 2769 H 266.472 -1.59482 -4.32855 0
M  V30 2770 H 264.715 -1.56468 -4.04599 0
M  V30 2771 H 265.386 -0.759394 -5.46752 0
M  V30 2772 H 267.862 0.613545 -4.11552 0
M  V30 2773 H 266.738 1.24598 -5.34571 0
M  V30 2774 H 266.999 2.15048 -3.86273 0
M  V30 2775 N 266.058 1.56714 -0.166846 0
M  V30 2776 C 267.286 2.0112 0.485644 0
M  V30 2777 C 267.701 1.04705 1.57106 0
M  V30 2778 O 267.058 0.0471923 1.82439 0
M  V30 2779 C 267.109 3.45361 1.06808 0
M  V30 2780 O 266.83 4.38092 0.0259995 0
M  V30 2781 C 268.331 4.05145 1.79924 0
M  V30 2782 H 265.551 0.65931 0.124704 0
M  V30 2783 H 268.095 2.02746 -0.267262 0
M  V30 2784 H 266.25 3.44524 1.7715 0
M  V30 2785 H 266.664 5.22519 0.455398 0
M  V30 2786 H 268.138 5.08009 2.15942 0
M  V30 2787 H 268.615 3.46982 2.69258 0
M  V30 2788 H 269.221 4.09672 1.14234 0
M  V30 2789 N 267.536 -0.106894 1.57237 0
M  V30 2790 C 268.783 -0.812526 1.85484 0
M  V30 2791 C 269.111 -1.79304 0.753687 0
M  V30 2792 O 268.366 -1.94047 -0.253853 0
M  V30 2793 C 268.665 -1.58628 3.20268 0
M  V30 2794 C 268.331 -0.748967 4.44636 0
M  V30 2795 C 266.993 -0.518104 4.78403 0
M  V30 2796 C 269.345 -0.166122 5.20935 0
M  V30 2797 C 266.673 0.305659 5.85903 0
M  V30 2798 C 269.025 0.644899 6.29304 0
M  V30 2799 C 267.689 0.885965 6.61594 0
M  V30 2800 H 266.959 -0.297324 0.678734 0
M  V30 2801 H 269.606 -0.0744332 1.91355 0
M  V30 2802 H 267.911 -2.39562 3.10028 0
M  V30 2803 H 269.608 -2.13643 3.39349 0
M  V30 2804 H 266.198 -0.939006 4.18187 0
M  V30 2805 H 270.382 -0.33167 4.95191 0
M  V30 2806 H 265.638 0.501528 6.0934 0
M  V30 2807 H 269.812 1.10345 6.87602 0
M  V30 2808 H 267.439 1.52609 7.44725 0
M  V30 2809 N 269.014 -1.53014 -0.377408 0
M  V30 2810 C 270.242 -1.72515 -1.14219 0
M  V30 2811 C 270.657 -0.448735 -1.8339 0
M  V30 2812 O 270.014 0.577592 -1.73119 0
M  V30 2813 C 270.065 -2.8826 -2.18148 0
M  V30 2814 O 269.786 -4.10962 -1.51795 0
M  V30 2815 C 271.287 -3.19536 -3.07264 0
M  V30 2816 H 268.507 -0.577301 -0.342001 0
M  V30 2817 H 271.051 -1.99712 -0.439935 0
M  V30 2818 H 269.206 -2.63492 -2.83991 0
M  V30 2819 H 269.62 -4.75693 -2.20945 0
M  V30 2820 H 271.094 -4.03959 -3.76193 0
M  V30 2821 H 271.571 -2.34403 -3.71419 0
M  V30 2822 H 272.177 -3.46186 -2.47053 0
M  V30 2823 N 270.492 0.636531 -1.44174 0
M  V30 2824 C 271.903 1.21806 -1.41493 0
M  V30 2825 C 272.254 1.95785 -0.1275 0
M  V30 2826 O 271.379 2.02147 0.772376 0
M  V30 2827 C 271.974 2.21551 -2.56321 0
M  V30 2828 C 270.533 2.75143 -2.56853 0
M  V30 2829 C 269.68 1.50052 -2.33195 0
M  V30 2830 H 272.631 0.427531 -1.52833 0
M  V30 2831 H 272.652 3.0405 -2.28765 0
M  V30 2832 H 272.164 1.67679 -3.50008 0
M  V30 2833 H 270.265 3.33033 -1.67093 0
M  V30 2834 H 270.378 3.2155 -3.55165 0
M  V30 2835 H 268.742 1.77993 -1.82183 0
M  V30 2836 H 269.525 0.980903 -3.28988 0
M  V30 2837 N 271.97 1.30982 0.876444 0
M  V30 2838 C 273.216 1.20474 1.63138 0
M  V30 2839 C 273.549 -0.238096 1.92735 0
M  V30 2840 O 272.824 -1.1692 1.55435 0
M  V30 2841 C 273.107 2.04244 2.96574 0
M  V30 2842 C 272.96 3.56793 2.73896 0
M  V30 2843 C 274.279 1.88684 3.97601 0
M  V30 2844 H 271.398 0.439001 0.591985 0
M  V30 2845 H 274.04 1.60704 1.01361 0
M  V30 2846 H 272.19 1.70063 3.493 0
M  V30 2847 H 273.862 4.01077 2.27892 0
M  V30 2848 H 272.105 3.80548 2.08245 0
M  V30 2849 H 272.776 4.10706 3.68815 0
M  V30 2850 H 275.252 2.18584 3.54062 0
M  V30 2851 H 274.128 2.4961 4.88862 0
M  V30 2852 H 274.389 0.848343 4.33884 0
M  V30 2853 N 273.449 -1.08991 1.13837 0
M  V30 2854 C 274.698 -1.80631 0.897509 0
M  V30 2855 C 275.011 -1.86872 -0.57777 0
M  V30 2856 O 276.217 -2.54866 -0.935701 0
M  V30 2857 C 274.673 -3.24517 1.55618 0
M  V30 2858 C 274.281 -3.26529 3.0673 0
M  V30 2859 C 276.025 -4.00882 1.3962 0
M  V30 2860 C 273.932 -4.64965 3.65461 0
M  V30 2861 H 272.862 -0.67691 0.332129 0
M  V30 2862 H 275.513 -1.2246 1.3666 0
M  V30 2863 H 273.895 -3.82778 1.01476 0
M  V30 2864 H 275.069 -2.78008 3.67489 0
M  V30 2865 H 273.384 -2.63656 3.22296 0
M  V30 2866 H 275.981 -5.03167 1.80906 0
M  V30 2867 H 276.324 -4.14896 0.341578 0
M  V30 2868 H 276.857 -3.49075 1.90766 0
M  V30 2869 H 273.596 -4.56153 4.70749 0
M  V30 2870 H 273.116 -5.13792 3.09481 0
M  V30 2871 H 274.795 -5.3394 3.654 0
M  V30 2872 N 274.927 -0.932562 -1.27047 0
M  V30 2873 C 275.837 -0.441219 -2.30414 0
M  V30 2874 C 276.853 0.480525 -1.67233 0
M  V30 2875 O 278.029 0.362151 -1.98117 0
M  V30 2876 C 275.094 0.293651 -3.45454 0
M  V30 2877 C 274.155 -0.663601 -4.2414 0
M  V30 2878 C 273.388 0.0362932 -5.33688 0
M  V30 2879 O 273.611 1.2548 -5.56427 0
M  V30 2880 O 272.545 -0.638015 -5.98509 0
M  V30 2881 H 276.371 -1.29962 -2.74488 0
M  V30 2882 H 273.956 -0.6981 -1.32087 0
M  V30 2883 H 275.838 0.707951 -4.15411 0
M  V30 2884 H 274.513 1.12758 -3.03426 0
M  V30 2885 H 273.42 -1.12768 -3.56699 0
M  V30 2886 H 274.753 -1.46489 -4.69896 0
M  V30 2887 N 276.405 1.4127 -0.698611 0
M  V30 2888 C 277.682 1.94955 -0.158762 0
M  V30 2889 C 278.062 1.63781 1.33188 0
M  V30 2890 O 277.41 0.946423 2.07979 0
M  V30 2891 C 277.62 3.46044 -0.453309 0
M  V30 2892 C 278.968 4.22872 -0.382707 0
M  V30 2893 O 279.992 3.54076 -0.388396 0
M  V30 2894 O 278.851 5.45407 -0.345463 0
M  V30 2895 H 275.945 0.82683 -0.0167505 0
M  V30 2896 H 278.491 1.50971 -0.77498 0
M  V30 2897 H 277.263 3.62028 -1.48498 0
M  V30 2898 H 276.886 3.97128 0.19373 0
M  V30 2899 N 277.883 0.443576 1.51229 0
M  V30 2900 C 279.132 -0.122332 2.01329 0
M  V30 2901 C 279.445 -1.43237 1.33201 0
M  V30 2902 O 280.651 -2.0816 1.74304 0
M  V30 2903 C 279.107 -0.268551 3.58897 0
M  V30 2904 C 278.715 1.03142 4.35965 0
M  V30 2905 C 280.459 -0.787894 4.17124 0
M  V30 2906 C 278.366 0.850504 5.85252 0
M  V30 2907 H 277.296 -0.0494929 0.752374 0
M  V30 2908 H 279.947 0.574289 1.74282 0
M  V30 2909 H 278.329 -1.02832 3.82415 0
M  V30 2910 H 279.503 1.80001 4.24189 0
M  V30 2911 H 277.818 1.47977 3.89219 0
M  V30 2912 H 280.415 -0.939841 5.26375 0
M  V30 2913 H 280.758 -1.77201 3.76703 0
M  V30 2914 H 281.291 -0.0862669 3.97706 0
M  V30 2915 H 278.03 1.80718 6.30096 0
M  V30 2916 H 277.55 0.121825 5.99676 0
M  V30 2917 H 279.229 0.506163 6.45017 0
M  V30 2918 N 279.361 -1.56624 0.175154 0
M  V30 2919 C 280.609 -1.96609 -0.467885 0
M  V30 2920 C 280.93 -1.06238 -1.63519 0
M  V30 2921 O 280.2 -0.129523 -1.95471 0
M  V30 2922 H 278.78 -0.726008 -0.175845 0
M  V30 2923 H 281.442 -1.93195 0.257234 0
M  V30 2924 H 280.538 -3.00989 -0.825342 0
M  V30 2925 N 280.839 0.0985539 -1.57292 0
M  V30 2926 C 281.786 1.11981 -2.01814 0
M  V30 2927 C 282.756 1.39999 -0.89384 0
M  V30 2928 O 283.941 1.5152 -1.15958 0
M  V30 2929 C 281.081 2.43577 -2.44467 0
M  V30 2930 C 280.194 2.2232 -3.70402 0
M  V30 2931 C 279.329 3.4729 -4.01949 0
M  V30 2932 C 278.368 3.2128 -5.21005 0
M  V30 2933 N 277.505 4.38507 -5.48321 0
M  V30 2934 H 282.345 0.733149 -2.88841 0
M  V30 2935 H 279.882 0.350482 -1.42864 0
M  V30 2936 H 281.84 3.20373 -2.6724 0
M  V30 2937 H 280.47 2.80097 -1.60455 0
M  V30 2938 H 279.522 1.36343 -3.55126 0
M  V30 2939 H 280.834 1.99089 -4.57345 0
M  V30 2940 H 279.988 4.32495 -4.25479 0
M  V30 2941 H 278.727 3.73572 -3.13521 0
M  V30 2942 H 277.732 2.34468 -4.97298 0
M  V30 2943 H 278.957 2.96348 -6.11028 0
M  V30 2944 H 276.903 4.64871 -4.62851 0
M  V30 2945 H 276.82 4.18455 -6.29628 0
M  V30 2946 H 278.088 5.24787 -5.76385 0
M  V30 2947 N 282.317 1.53212 0.369288 0
M  V30 2948 C 283.563 1.69466 1.11397 0
M  V30 2949 C 283.896 0.443257 1.89074 0
M  V30 2950 O 283.171 -0.559386 1.86282 0
M  V30 2951 C 283.454 2.9422 2.07621 0
M  V30 2952 C 283.307 4.29508 1.33577 0
M  V30 2953 C 284.626 3.14565 3.07794 0
M  V30 2954 H 281.745 0.616667 0.403597 0
M  V30 2955 H 284.387 1.85845 0.395179 0
M  V30 2956 H 282.537 2.80387 2.68916 0
M  V30 2957 H 284.209 4.55147 0.750955 0
M  V30 2958 H 282.452 4.29088 0.637618 0
M  V30 2959 H 283.123 5.12926 2.03989 0
M  V30 2960 H 285.599 3.2756 2.56601 0
M  V30 2961 H 284.475 4.03297 3.72348 0
M  V30 2962 H 284.736 2.29675 3.77759 0
M  V30 2963 N 283.795 -0.628877 1.44509 0
M  V30 2964 C 284.725 -1.75187 1.54376 0
M  V30 2965 C 285.706 -1.65411 0.396618 0
M  V30 2966 O 286.891 -1.84137 0.617031 0
M  V30 2967 C 284.021 -3.13725 1.48976 0
M  V30 2968 C 282.975 -3.38291 2.62189 0
M  V30 2969 C 282.301 -4.76883 2.41841 0
M  V30 2970 C 283.601 -3.30632 4.04326 0
M  V30 2971 H 285.295 -1.67187 2.48373 0
M  V30 2972 H 282.841 -0.802909 1.19538 0
M  V30 2973 H 284.794 -3.92064 1.54478 0
M  V30 2974 H 283.518 -3.22515 0.514961 0
M  V30 2975 H 282.177 -2.62334 2.56079 0
M  V30 2976 H 281.825 -4.82378 1.42548 0
M  V30 2977 H 281.525 -4.94278 3.17747 0
M  V30 2978 H 283.049 -5.57449 2.49165 0
M  V30 2979 H 284.463 -3.98873 4.11793 0
M  V30 2980 H 282.86 -3.59561 4.80454 0
M  V30 2981 H 283.93 -2.28404 4.27738 0
M  V30 2982 N 285.273 -1.31445 -0.869486 0
M  V30 2983 C 286.519 -1.21337 -1.62496 0
M  V30 2984 C 286.852 0.227872 -1.92858 0
M  V30 2985 O 286.127 1.16094 -1.56053 0
M  V30 2986 C 286.41 -2.05814 -2.95487 0
M  V30 2987 C 286.263 -3.5824 -2.72 0
M  V30 2988 C 287.582 -1.9079 -3.96594 0
M  V30 2989 H 284.701 -0.442135 -0.589649 0
M  V30 2990 H 287.343 -1.6124 -1.00507 0
M  V30 2991 H 285.493 -1.71913 -3.48394 0
M  V30 2992 H 287.165 -4.0228 -2.25762 0
M  V30 2993 H 285.408 -3.81647 -2.06224 0
M  V30 2994 H 286.079 -4.12657 -3.66631 0
M  V30 2995 H 288.555 -2.20459 -3.52898 0
M  V30 2996 H 287.431 -2.52199 -4.87531 0
M  V30 2997 H 287.692 -0.871341 -4.33428 0
M  V30 2998 N 286.751 1.08385 -1.14413 0
M  V30 2999 C 287.991 1.8238 -0.922868 0
M  V30 3000 C 288.355 1.84225 0.540842 0
M  V30 3001 O 289.556 2.53985 0.880058 0
M  V30 3002 C 287.827 3.24048 -1.50757 0
M  V30 3003 S 289.386 4.14917 -1.4279 0
M  V30 3004 H 286.204 0.628524 -0.332384 0
M  V30 3005 H 288.806 1.30278 -1.45766 0
M  V30 3006 H 287.51 3.20288 -2.56601 0
M  V30 3007 H 287.041 3.81224 -0.971178 0
M  V30 3008 H 289.056 4.94473 -0.413582 0
M  V30 3009 N 288.23 0.939286 1.26551 0
M  V30 3010 C 289.646 0.641304 1.46149 0
M  V30 3011 C 289.846 -0.805964 1.84679 0
M  V30 3012 O 288.902 -1.58278 1.96734 0
M  V30 3013 C 290.215 1.6011 2.54529 0
M  V30 3014 C 291.763 1.6106 2.68382 0
M  V30 3015 C 292.238 2.55765 3.79932 0
M  V30 3016 N 293.729 2.5404 3.87322 0
M  V30 3017 C 294.464 3.24004 4.73085 0
M  V30 3018 N 293.96 4.03388 5.63249 0
M  V30 3019 N 295.753 3.12965 4.66914 0
M  V30 3020 H 287.904 1.87478 0.998285 0
M  V30 3021 H 290.167 0.805559 0.499779 0
M  V30 3022 H 289.873 2.63412 2.33039 0
M  V30 3023 H 289.747 1.35171 3.52149 0
M  V30 3024 H 292.134 0.584835 2.89247 0
M  V30 3025 H 292.215 1.90053 1.71212 0
M  V30 3026 H 291.859 3.58458 3.5982 0
M  V30 3027 H 291.789 2.24063 4.76554 0
M  V30 3028 H 294.28 1.96396 3.22858 0
M  V30 3029 H 294.593 4.5373 6.25579 0
M  V30 3030 H 292.938 4.07489 5.63008 0
M  V30 3031 H 296.129 2.50432 3.95476 0
M  V30 3032 H 296.302 3.67759 5.33533 0
M  V30 3033 N 289.708 -1.40897 0.706093 0
M  V30 3034 C 290.671 -2.29131 0.0562841 0
M  V30 3035 C 291.671 -1.44901 -0.697166 0
M  V30 3036 O 292.861 -1.65926 -0.530484 0
M  V30 3037 C 289.993 -3.27957 -0.93043 0
M  V30 3038 H 291.186 -2.88091 0.833284 0
M  V30 3039 H 288.739 -1.4906 0.470192 0
M  V30 3040 H 289.474 -2.73997 -1.73482 0
M  V30 3041 H 289.259 -3.90124 -0.393166 0
M  V30 3042 H 290.749 -3.94049 -1.38256 0
M  V30 3043 N 291.186 -0.45159 -1.50991 0
M  V30 3044 C 292.133 0.352625 -2.2809 0
M  V30 3045 C 293.103 1.0044 -1.32291 0
M  V30 3046 O 294.288 1.02058 -1.6121 0
M  V30 3047 C 291.428 1.43983 -3.13629 0
M  V30 3048 C 290.541 0.804772 -4.24438 0
M  V30 3049 C 289.676 1.86822 -4.97263 0
M  V30 3050 C 288.715 1.21236 -5.99973 0
M  V30 3051 N 287.852 2.2178 -6.66152 0
M  V30 3052 H 292.692 -0.311186 -2.96371 0
M  V30 3053 H 290.229 -0.165308 -1.46168 0
M  V30 3054 H 292.187 2.08161 -3.61559 0
M  V30 3055 H 290.817 2.07307 -2.47434 0
M  V30 3056 H 289.869 0.0509129 -3.80366 0
M  V30 3057 H 291.181 0.286076 -4.97979 0
M  V30 3058 H 290.335 2.58628 -5.48813 0
M  V30 3059 H 289.074 2.42068 -4.23385 0
M  V30 3060 H 288.079 0.479828 -5.47702 0
M  V30 3061 H 289.304 0.667051 -6.75816 0
M  V30 3062 H 287.25 2.76079 -5.95077 0
M  V30 3063 H 287.167 1.74841 -7.35504 0
M  V30 3064 H 288.435 2.93026 -7.22327 0
M  V30 3065 N 292.664 1.56529 -0.183458 0
M  V30 3066 C 293.594 2.21549 0.737456 0
M  V30 3067 C 294.575 1.17489 1.23005 0
M  V30 3068 O 295.76 1.45959 1.281 0
M  V30 3069 C 292.89 2.86575 1.96194 0
M  V30 3070 C 291.844 3.96778 1.60473 0
M  V30 3071 C 291.17 4.48911 2.90487 0
M  V30 3072 C 292.47 5.15767 0.823497 0
M  V30 3073 H 294.164 2.98761 0.195453 0
M  V30 3074 H 291.71 1.43702 0.0925686 0
M  V30 3075 H 293.663 3.30739 2.61131 0
M  V30 3076 H 292.387 2.06749 2.52828 0
M  V30 3077 H 291.046 3.53286 0.978997 0
M  V30 3078 H 290.694 3.65862 3.45186 0
M  V30 3079 H 290.394 5.23265 2.67335 0
M  V30 3080 H 291.918 4.95771 3.56432 0
M  V30 3081 H 293.332 5.56549 1.37571 0
M  V30 3082 H 291.729 5.96114 0.690551 0
M  V30 3083 H 292.799 4.84574 -0.177782 0
M  V30 3084 N 294.142 -0.090211 1.57342 0
M  V30 3085 C 295.092 -1.11557 1.98844 0
M  V30 3086 C 296.076 -1.35503 0.867624 0
M  V30 3087 O 297.268 -1.36113 1.13148 0
M  V30 3088 C 294.397 -2.43446 2.42051 0
M  V30 3089 C 293.483 -2.22853 3.60828 0
M  V30 3090 N 293.874 -1.72141 4.75606 0
M  V30 3091 C 292.172 -2.53401 3.67021 0
M  V30 3092 C 292.873 -1.65932 5.57531 0
M  V30 3093 N 291.849 -2.11323 5.00843 0
M  V30 3094 H 295.651 -0.716499 2.85032 0
M  V30 3095 H 293.165 -0.297567 1.59651 0
M  V30 3096 H 295.162 -3.17644 2.70014 0
M  V30 3097 H 293.822 -2.84087 1.57241 0
M  V30 3098 H 294.833 -1.41268 4.98261 0
M  V30 3099 H 291.51 -2.97532 2.92884 0
M  V30 3100 H 292.9 -1.27733 6.59647 0
M  V30 3101 N 295.62 -1.53406 -0.361157 0
M  V30 3102 C 296.869 -1.69022 -1.10066 0
M  V30 3103 C 297.182 -0.450838 -1.90333 0
M  V30 3104 O 298.388 -0.487617 -2.67085 0
M  V30 3105 C 296.844 -2.98812 -2.00598 0
M  V30 3106 C 296.452 -4.30027 -1.25621 0
M  V30 3107 C 298.196 -3.23795 -2.74513 0
M  V30 3108 C 296.103 -5.50903 -2.1508 0
M  V30 3109 H 295.033 -0.629776 -0.414606 0
M  V30 3110 H 297.684 -1.79907 -0.361348 0
M  V30 3111 H 296.066 -2.8174 -2.78278 0
M  V30 3112 H 297.24 -4.57745 -0.529739 0
M  V30 3113 H 295.555 -4.11522 -0.635496 0
M  V30 3114 H 298.152 -4.11289 -3.41681 0
M  V30 3115 H 298.495 -2.40045 -3.40123 0
M  V30 3116 H 299.028 -3.41561 -2.03914 0
M  V30 3117 H 295.767 -6.37143 -1.54041 0
M  V30 3118 H 295.287 -5.27459 -2.85565 0
M  V30 3119 H 296.966 -5.85865 -2.74538 0
M  V30 3120 N 297.098 0.621204 -1.44841 0
M  V30 3121 C 298.375 1.38 -1.38619 0
M  V30 3122 C 298.755 2.11041 -0.0498935 0
M  V30 3123 O 298.103 2.06992 0.967816 0
M  V30 3124 C 298.313 2.33817 -2.59096 0
M  V30 3125 C 299.661 2.96844 -3.03593 0
M  V30 3126 O 300.685 2.44141 -2.59371 0
M  V30 3127 O 299.544 3.92476 -3.80296 0
M  V30 3128 H 296.638 0.61811 -0.549426 0
M  V30 3129 H 299.184 0.645429 -1.56947 0
M  V30 3130 H 297.956 1.79012 -3.47952 0
M  V30 3131 H 297.579 3.14676 -2.43032 0
M  V30 3132 N 298.576 1.31904 0.862503 0
M  V30 3133 C 299.486 1.22161 2.00285 0
M  V30 3134 C 300.502 0.136785 1.73462 0
M  V30 3135 O 301.678 0.355994 1.98229 0
M  V30 3136 C 298.743 0.937093 3.33796 0
M  V30 3137 C 297.804 2.10957 3.73893 0
M  V30 3138 C 297.037 1.83853 5.01033 0
M  V30 3139 O 297.26 0.777274 5.65079 0
M  V30 3140 O 296.194 2.69741 5.38074 0
M  V30 3141 H 300.02 2.18008 2.11439 0
M  V30 3142 H 297.605 1.11716 0.991957 0
M  V30 3143 H 299.487 0.794583 4.13841 0
M  V30 3144 H 298.162 0.00871894 3.23699 0
M  V30 3145 H 297.069 2.30752 2.94456 0
M  V30 3146 H 298.402 3.02046 3.88625 0
M  V30 3147 N 300.054 -1.07777 1.14986 0
M  V30 3148 C 300.987 -2.14228 0.786243 0
M  V30 3149 C 301.965 -1.60888 -0.235347 0
M  V30 3150 O 303.149 -1.88099 -0.122909 0
M  V30 3151 C 300.276 -3.38281 0.168433 0
M  V30 3152 C 299.322 -4.10387 1.16123 0
M  V30 3153 S 300.155 -4.62371 2.70135 0
M  V30 3154 C 301.311 -5.89704 2.09762 0
M  V30 3155 H 301.544 -2.44741 1.68787 0
M  V30 3156 H 299.077 -1.19984 0.971756 0
M  V30 3157 H 301.035 -4.10098 -0.181588 0
M  V30 3158 H 299.696 -3.05953 -0.710725 0
M  V30 3159 H 298.889 -4.99431 0.677086 0
M  V30 3160 H 298.491 -3.44513 1.45556 0
M  V30 3161 H 300.783 -6.61648 1.45701 0
M  V30 3162 H 301.726 -6.42824 2.96955 0
M  V30 3163 H 302.134 -5.4302 1.54239 0
M  V30 3164 N 301.532 -0.945985 -1.26051 0
M  V30 3165 C 302.809 -0.513816 -1.88731 0
M  V30 3166 C 303.189 1.00872 -1.8544 0
M  V30 3167 O 302.537 1.8708 -1.312 0
M  V30 3168 C 302.747 -1.08062 -3.31849 0
M  V30 3169 C 304.095 -1.1522 -4.08668 0
M  V30 3170 O 305.119 -1.03155 -3.40936 0
M  V30 3171 O 303.978 -1.34044 -5.29806 0
M  V30 3172 H 301.072 -0.168193 -0.809716 0
M  V30 3173 H 303.618 -1.03886 -1.34186 0
M  V30 3174 H 302.39 -2.1241 -3.2863 0
M  V30 3175 H 302.013 -0.538307 -3.93939 0
M  V30 3176 N 303.011 1.40521 -0.713556 0
M  V30 3177 C 304.236 2.05759 -0.26035 0
M  V30 3178 C 304.661 1.53403 1.08854 0
M  V30 3179 O 304.019 0.668535 1.68524 0
M  V30 3180 C 304.067 3.59745 -0.248122 0
M  V30 3181 O 303.171 4.05123 0.77131 0
M  V30 3182 H 302.512 0.652564 -0.122703 0
M  V30 3183 H 305.042 1.79958 -0.973467 0
M  V30 3184 H 305.052 4.07911 -0.0851129 0
M  V30 3185 H 303.727 3.97218 -1.2325 0
M  V30 3186 H 302.304 3.68422 0.57619 0
M  V30 3187 N 304.489 0.459591 1.5075 0
M  V30 3188 C 305.735 -0.0994966 2.02556 0
M  V30 3189 C 306.068 -1.40399 1.3417 0
M  V30 3190 O 305.343 -1.88892 0.463683 0
M  V30 3191 C 305.626 -0.295242 3.58888 0
M  V30 3192 C 305.479 1.02947 4.37861 0
M  V30 3193 C 306.798 -1.05502 4.27267 0
M  V30 3194 H 303.917 -0.034686 0.736183 0
M  V30 3195 H 306.559 0.602938 1.8018 0
M  V30 3196 H 304.709 -0.893563 3.78084 0
M  V30 3197 H 306.381 1.66348 4.30263 0
M  V30 3198 H 304.624 1.62885 4.02058 0
M  V30 3199 H 305.295 0.846281 5.45474 0
M  V30 3200 H 307.771 -0.547993 4.12476 0
M  V30 3201 H 306.647 -1.16077 5.36486 0
M  V30 3202 H 306.908 -2.08875 3.89645 0
M  V30 3203 N 305.967 -1.56429 0.191757 0
M  V30 3204 C 307.378 -1.83912 -0.321428 0
M  V30 3205 C 307.729 -1.11231 -1.61623 0
M  V30 3206 O 306.854 -0.37202 -2.13178 0
M  V30 3207 C 307.449 -3.33624 -0.589961 0
M  V30 3208 C 306.008 -3.6153 -1.04753 0
M  V30 3209 C 305.155 -2.7714 -0.0943327 0
M  V30 3210 H 308.106 -1.53161 0.415612 0
M  V30 3211 H 308.127 -3.52213 -1.43966 0
M  V30 3212 H 307.639 -3.86495 0.352588 0
M  V30 3213 H 305.74 -3.14089 -2.00447 0
M  V30 3214 H 305.853 -4.69737 -0.942549 0
M  V30 3215 H 304.217 -2.47638 -0.595589 0
M  V30 3216 H 305 -3.32799 0.842601 0
M  V30 3217 N 307.445 0.0818655 -1.57387 0
M  V30 3218 C 308.673 0.796108 -1.9097 0
M  V30 3219 C 309.088 1.71626 -0.786757 0
M  V30 3220 O 308.445 1.80908 0.240513 0
M  V30 3221 C 308.496 1.59829 -3.24248 0
M  V30 3222 O 308.217 0.715131 -4.32224 0
M  V30 3223 C 309.718 2.41442 -3.7178 0
M  V30 3224 H 306.938 0.22691 -0.631469 0
M  V30 3225 H 309.482 0.0551439 -2.04426 0
M  V30 3226 H 307.637 2.29163 -3.12351 0
M  V30 3227 H 308.051 1.27205 -5.08841 0
M  V30 3228 H 309.525 2.932 -4.67694 0
M  V30 3229 H 310.002 3.2051 -3.00283 0
M  V30 3230 H 310.608 1.77283 -3.86589 0
M  V30 3231 N 308.923 1.53595 0.353017 0
M  V30 3232 C 310.169 1.70638 1.09593 0
M  V30 3233 C 310.502 0.463286 1.88593 0
M  V30 3234 O 309.777 -0.539597 1.86865 0
M  V30 3235 C 310.06 2.96406 2.04489 0
M  V30 3236 C 309.913 4.30901 1.29014 0
M  V30 3237 C 311.232 3.17812 3.0444 0
M  V30 3238 H 308.351 0.620913 0.397034 0
M  V30 3239 H 310.993 1.86254 0.375446 0
M  V30 3240 H 309.143 2.83223 2.65927 0
M  V30 3241 H 310.815 4.55917 0.702638 0
M  V30 3242 H 309.058 4.29741 0.592071 0
M  V30 3243 H 309.729 5.1506 1.98537 0
M  V30 3244 H 312.205 3.30263 2.53112 0
M  V30 3245 H 311.081 4.07223 3.6805 0
M  V30 3246 H 311.342 2.33669 3.75301 0
M  V30 3247 N 310.401 -0.613514 1.45168 0
M  V30 3248 C 311.817 -0.933629 1.29443 0
M  V30 3249 C 312.017 -2.00028 0.243101 0
M  V30 3250 O 311.073 -2.49848 -0.364992 0
M  V30 3251 C 312.386 -1.38018 2.67155 0
M  V30 3252 C 313.934 -1.49471 2.75004 0
M  V30 3253 C 314.409 -1.97503 4.13227 0
M  V30 3254 N 315.9 -2.04746 4.15491 0
M  V30 3255 C 316.635 -2.43121 5.19307 0
M  V30 3256 N 316.131 -2.80506 6.33473 0
M  V30 3257 N 317.924 -2.43408 5.06664 0
M  V30 3258 H 310.075 0.0916097 2.12202 0
M  V30 3259 H 312.338 -0.0216655 0.947752 0
M  V30 3260 H 312.044 -0.670625 3.45247 0
M  V30 3261 H 311.918 -2.34784 2.95222 0
M  V30 3262 H 314.305 -2.19519 1.9722 0
M  V30 3263 H 314.386 -0.510342 2.50657 0
M  V30 3264 H 314.03 -1.28045 4.91495 0
M  V30 3265 H 313.96 -2.96843 4.34962 0
M  V30 3266 H 316.451 -1.78468 3.33103 0
M  V30 3267 H 316.764 -3.08652 7.08487 0
M  V30 3268 H 315.109 -2.78216 6.36884 0
M  V30 3269 H 318.3 -2.13604 4.16523 0
M  V30 3270 H 318.473 -2.72989 5.87691 0
M  V30 3271 N 311.879 -1.3236 -0.855495 0
M  V30 3272 C 312.811 -1.17052 -1.97057 0
M  V30 3273 C 313.824 -0.10574 -1.62456 0
M  V30 3274 O 315.013 -0.354619 -1.74942 0
M  V30 3275 C 312.113 -0.769305 -3.30053 0
M  V30 3276 C 311.286 -1.9222 -3.929 0
M  V30 3277 C 310.345 -1.50466 -5.04228 0
M  V30 3278 O 309.371 -2.21655 -5.24269 0
M  V30 3279 N 310.573 -0.400209 -5.79119 0
M  V30 3280 H 313.338 -2.13103 -2.1073 0
M  V30 3281 H 310.899 -1.24885 -1.0303 0
M  V30 3282 H 312.891 -0.472407 -4.01933 0
M  V30 3283 H 311.461 0.100025 -3.1244 0
M  V30 3284 H 310.681 -2.38563 -3.13817 0
M  V30 3285 H 311.969 -2.69403 -4.31624 0
M  V30 3286 H 311.367 0.192319 -5.65373 0
M  V30 3287 H 309.924 -0.162912 -6.51596 0
M  V30 3288 N 313.357 1.07166 -1.15556 0
M  V30 3289 C 314.32 2.12589 -0.856644 0
M  V30 3290 C 315.32 1.6015 0.14444 0
M  V30 3291 O 316.51 1.7399 -0.0854163 0
M  V30 3292 C 313.642 3.39753 -0.279405 0
M  V30 3293 H 314.835 2.40539 -1.79112 0
M  V30 3294 H 312.388 1.23086 -0.963298 0
M  V30 3295 H 313.123 3.17447 0.663174 0
M  V30 3296 H 312.908 3.79117 -1.00063 0
M  V30 3297 H 314.398 4.17507 -0.0879113 0
M  V30 3298 N 314.835 0.952656 1.25548 0
M  V30 3299 C 316.081 0.607272 1.93494 0
M  V30 3300 C 316.414 -0.853245 1.74452 0
M  V30 3301 O 315.689 -1.61194 1.08843 0
M  V30 3302 C 315.972 0.96435 3.46947 0
M  V30 3303 C 315.825 2.48045 3.75225 0
M  V30 3304 C 317.144 0.487987 4.37386 0
M  V30 3305 H 314.263 0.222096 0.702739 0
M  V30 3306 H 316.905 1.18895 1.48203 0
M  V30 3307 H 315.055 0.469361 3.85654 0
M  V30 3308 H 316.727 3.04905 3.46166 0
M  V30 3309 H 314.97 2.919 3.209 0
M  V30 3310 H 315.641 2.6808 4.82532 0
M  V30 3311 H 318.117 0.912558 4.0597 0
M  V30 3312 H 316.993 0.766547 5.43521 0
M  V30 3313 H 317.254 -0.612063 4.37843 0
M  V30 3314 N 316.313 -1.40141 0.720998 0
M  V30 3315 C 317.26 -2.30688 0.071919 0
M  V30 3316 C 318.23 -1.48476 -0.744584 0
M  V30 3317 O 319.415 -1.77201 -0.707423 0
M  V30 3318 C 316.555 -3.34724 -0.839855 0
M  V30 3319 C 315.668 -4.31998 -0.0122438 0
M  V30 3320 C 314.803 -5.23102 -0.923995 0
M  V30 3321 C 313.842 -6.12033 -0.0907969 0
M  V30 3322 N 312.979 -6.95537 -0.957718 0
M  V30 3323 H 317.819 -2.85628 0.849755 0
M  V30 3324 H 315.356 -1.40653 0.430726 0
M  V30 3325 H 317.314 -3.93618 -1.38279 0
M  V30 3326 H 315.944 -2.81274 -1.58381 0
M  V30 3327 H 314.996 -3.74841 0.64794 0
M  V30 3328 H 316.308 -4.94772 0.632595 0
M  V30 3329 H 315.462 -5.86953 -1.53527 0
M  V30 3330 H 314.201 -4.60615 -1.60264 0
M  V30 3331 H 313.206 -5.47207 0.533377 0
M  V30 3332 H 314.431 -6.76581 0.584428 0
M  V30 3333 H 312.377 -6.35633 -1.62192 0
M  V30 3334 H 312.294 -7.55099 -0.36904 0
M  V30 3335 H 313.562 -7.63832 -1.555 0
M  V30 3336 N 317.792 -0.46758 -1.50504 0
M  V30 3337 C 318.702 0.33382 -2.32213 0
M  V30 3338 C 319.718 0.999323 -1.42441 0
M  V30 3339 O 320.894 0.988068 -1.75497 0
M  V30 3340 C 317.959 1.4035 -3.17022 0
M  V30 3341 C 317.02 0.754961 -4.2261 0
M  V30 3342 C 316.253 1.77367 -5.03365 0
M  V30 3343 O 316.476 2.99976 -4.8515 0
M  V30 3344 O 315.41 1.34744 -5.86624 0
M  V30 3345 H 319.236 -0.334067 -3.01857 0
M  V30 3346 H 316.821 -0.229496 -1.47627 0
M  V30 3347 H 318.703 2.02318 -3.69656 0
M  V30 3348 H 317.378 2.05492 -2.5011 0
M  V30 3349 H 316.285 0.0964244 -3.73976 0
M  V30 3350 H 317.618 0.146545 -4.91982 0
M  V30 3351 N 319.27 1.56325 -0.20005 0
M  V30 3352 C 320.2 2.22318 0.713916 0
M  V30 3353 C 321.181 1.18788 1.21752 0
M  V30 3354 O 322.366 1.47309 1.26545 0
M  V30 3355 C 319.496 2.88639 1.93144 0
M  V30 3356 C 318.45 3.98457 1.56255 0
M  V30 3357 C 317.776 4.51967 2.85709 0
M  V30 3358 C 319.076 5.16612 0.768747 0
M  V30 3359 H 320.77 2.98952 0.163755 0
M  V30 3360 H 318.316 1.43792 0.0773219 0
M  V30 3361 H 320.269 3.33491 2.57608 0
M  V30 3362 H 318.993 2.09419 2.50621 0
M  V30 3363 H 317.652 3.54305 0.941471 0
M  V30 3364 H 317.3 3.69503 3.41287 0
M  V30 3365 H 317 5.26071 2.6177 0
M  V30 3366 H 318.524 4.99523 3.51154 0
M  V30 3367 H 319.938 5.57977 1.3166 0
M  V30 3368 H 318.335 5.96812 0.627286 0
M  V30 3369 H 319.405 4.84358 -0.229168 0
M  V30 3370 N 320.748 -0.0735177 1.57428 0
M  V30 3371 C 321.68 -1.11423 2.00294 0
M  V30 3372 C 322.693 -1.35084 0.908637 0
M  V30 3373 O 323.882 -1.33355 1.18654 0
M  V30 3374 C 320.982 -2.46548 2.32523 0
M  V30 3375 C 320.155 -2.42867 3.63778 0
M  V30 3376 C 319.214 -3.60087 3.83697 0
M  V30 3377 O 318.24 -3.41595 4.55304 0
M  V30 3378 N 319.442 -4.80372 3.25919 0
M  V30 3379 H 322.207 -0.749206 2.90184 0
M  V30 3380 H 319.768 -0.262195 1.59763 0
M  V30 3381 H 321.76 -3.23607 2.43024 0
M  V30 3382 H 320.33 -2.75059 1.48531 0
M  V30 3383 H 319.55 -1.51206 3.64047 0
M  V30 3384 H 320.838 -2.37506 4.49965 0
M  V30 3385 H 320.236 -4.983 2.67795 0
M  V30 3386 H 318.793 -5.54948 3.41871 0
M  V30 3387 N 322.226 -1.5378 -0.344866 0
M  V30 3388 C 323.472 -1.71216 -1.08687 0
M  V30 3389 C 323.805 -0.473281 -1.88345 0
M  V30 3390 O 323.08 0.52968 -1.87149 0
M  V30 3391 C 323.363 -2.97486 -2.02914 0
M  V30 3392 C 323.216 -4.31579 -1.26727 0
M  V30 3393 C 324.535 -3.19422 -3.0275 0
M  V30 3394 H 321.654 -0.62301 -0.393735 0
M  V30 3395 H 324.296 -1.8645 -0.365563 0
M  V30 3396 H 322.446 -2.84629 -2.64421 0
M  V30 3397 H 324.118 -4.56284 -0.67845 0
M  V30 3398 H 322.361 -4.30049 -0.569273 0
M  V30 3399 H 323.032 -5.16106 -1.95803 0
M  V30 3400 H 325.508 -3.316 -2.51357 0
M  V30 3401 H 324.384 -4.09169 -3.65885 0
M  V30 3402 H 324.645 -2.35656 -3.74057 0
M  V30 3403 N 323.704 0.605807 -1.45491 0
M  V30 3404 C 324.934 1.38934 -1.52908 0
M  V30 3405 C 325.342 1.88513 -0.161086 0
M  V30 3406 O 324.685 1.62962 0.847891 0
M  V30 3407 C 324.747 2.62737 -2.45376 0
M  V30 3408 C 324.411 2.34785 -3.92078 0
M  V30 3409 C 325.408 1.95038 -4.8193 0
M  V30 3410 C 323.093 2.47642 -4.37011 0
M  V30 3411 C 325.087 1.68511 -6.14722 0
M  V30 3412 C 322.774 2.20728 -5.69844 0
M  V30 3413 C 323.772 1.81225 -6.58519 0
M  V30 3414 O 323.46 1.54627 -7.88889 0
M  V30 3415 H 323.192 0.431629 -0.520262 0
M  V30 3416 H 325.746 0.74573 -1.91384 0
M  V30 3417 H 323.976 3.29824 -2.01874 0
M  V30 3418 H 325.665 3.24783 -2.43456 0
M  V30 3419 H 326.431 1.84639 -4.48479 0
M  V30 3420 H 322.31 2.77356 -3.68232 0
M  V30 3421 H 325.854 1.37602 -6.83894 0
M  V30 3422 H 321.751 2.30744 -6.02849 0
M  V30 3423 H 322.519 1.68665 -8.00933 0
M  V30 3424 N 325.182 1.32811 0.848464 0
M  V30 3425 C 326.431 1.23075 1.59798 0
M  V30 3426 C 326.744 -0.204419 1.94529 0
M  V30 3427 O 327.95 -0.423701 2.68173 0
M  V30 3428 C 326.406 2.15594 2.88179 0
M  V30 3429 C 326.014 3.64228 2.60849 0
M  V30 3430 C 327.758 2.14709 3.66197 0
M  V30 3431 C 325.665 4.48689 3.85269 0
M  V30 3432 H 324.595 0.457091 0.599653 0
M  V30 3433 H 327.246 1.57813 0.936342 0
M  V30 3434 H 325.628 1.73778 3.55833 0
M  V30 3435 H 326.802 4.14424 2.01467 0
M  V30 3436 H 325.117 3.67306 1.96151 0
M  V30 3437 H 327.714 2.75046 4.58534 0
M  V30 3438 H 328.057 1.13966 4.00397 0
M  V30 3439 H 328.59 2.54837 3.05455 0
M  V30 3440 H 325.329 5.5027 3.56207 0
M  V30 3441 H 324.849 4.03241 4.44024 0
M  V30 3442 H 326.528 4.62006 4.52946 0
M  V30 3443 N 326.66 -1.06551 1.16123 0
M  V30 3444 C 327.885 -1.83544 0.965735 0
M  V30 3445 C 328.31 -1.81843 -0.481102 0
M  V30 3446 O 327.668 -1.21732 -1.34354 0
M  V30 3447 C 327.716 -3.28169 1.49457 0
M  V30 3448 O 326.82 -4.0643 0.699157 0
M  V30 3449 H 326.161 -0.568026 0.343864 0
M  V30 3450 H 328.691 -1.34362 1.54299 0
M  V30 3451 H 328.701 -3.78992 1.51092 0
M  V30 3452 H 327.376 -3.28722 2.54784 0
M  V30 3453 H 325.953 -3.65216 0.7531 0
M  V30 3454 N 328.138 -0.959301 -1.25041 0
M  V30 3455 C 329.549 -0.65667 -1.74771 0
M  V30 3456 C 329.9 0.827852 -1.77879 0
M  V30 3457 O 329.025 1.64783 -1.40269 0
M  V30 3458 C 329.62 -1.1853 -3.1739 0
M  V30 3459 C 328.179 -0.932734 -3.6466 0
M  V30 3460 C 327.326 -1.32558 -2.43564 0
M  V30 3461 H 330.277 -1.13558 -1.10862 0
M  V30 3462 H 330.298 -0.547582 -3.76539 0
M  V30 3463 H 329.81 -2.26576 -3.15095 0
M  V30 3464 H 327.911 0.13257 -3.72364 0
M  V30 3465 H 328.024 -1.57248 -4.52559 0
M  V30 3466 H 326.388 -0.743956 -2.43593 0
M  V30 3467 H 327.171 -2.41537 -2.43957 0
M  V30 3468 N 329.616 1.39756 -0.72842 0
M  V30 3469 C 330.563 2.30647 -0.0841519 0
M  V30 3470 C 331.533 1.48869 0.7367 0
M  V30 3471 O 332.718 1.77574 0.698015 0
M  V30 3472 C 329.858 3.35165 0.822091 0
M  V30 3473 C 328.971 4.31999 -0.0106663 0
M  V30 3474 C 328.106 5.23585 0.896241 0
M  V30 3475 C 327.145 6.12072 0.0583381 0
M  V30 3476 N 326.282 6.96035 0.920818 0
M  V30 3477 H 331.122 2.85173 -0.864891 0
M  V30 3478 H 328.659 1.40422 -0.438179 0
M  V30 3479 H 330.617 3.94345 1.36189 0
M  V30 3480 H 329.247 2.8211 1.56888 0
M  V30 3481 H 328.299 3.74492 -0.66781 0
M  V30 3482 H 329.611 4.9443 -0.658825 0
M  V30 3483 H 328.765 5.87759 1.50412 0
M  V30 3484 H 327.504 4.61459 1.57819 0
M  V30 3485 H 326.509 5.46916 -0.562389 0
M  V30 3486 H 327.734 6.76261 -0.6203 0
M  V30 3487 H 325.68 6.36485 1.58818 0
M  V30 3488 H 325.597 7.55284 0.32899 0
M  V30 3489 H 326.865 7.64646 1.51447 0
M  V30 3490 N 331.094 0.475555 1.50254 0
M  V30 3491 C 332.042 -0.330276 2.30243 0
M  V30 3492 C 333.036 -0.986306 1.37726 0
M  V30 3493 O 334.242 -0.9169 1.54897 0
M  V30 3494 H 330.617 -0.125353 0.741479 0
M  V30 3495 H 332.588 0.364702 2.96163 0
M  V30 3496 C 331.337 -1.39704 3.18399 0
M  V30 3497 H 330.66 -0.901621 3.89501 0
M  V30 3498 H 332.1 -1.93336 3.77355 0
M  V30 3499 C 330.559 -2.4014 2.36293 0
M  V30 3500 O 331.089 -3.45504 2.04914 0
M  V30 3501 N 329.295 -2.1197 1.98789 0
M  V30 3502 H 328.842 -1.2631 2.24507 0
M  V30 3503 H 328.8 -2.79403 1.44157 0
M  V30 3504 N 332.573 -1.56217 0.208337 0
M  V30 3505 C 333.801 -2.02337 -0.43215 0
M  V30 3506 C 334.216 -1.08834 -1.54275 0
M  V30 3507 O 333.573 -0.0955462 -1.8225 0
M  V30 3508 C 333.624 -3.48072 -0.976138 0
M  V30 3509 O 333.345 -4.38007 0.0901621 0
M  V30 3510 C 334.846 -4.09773 -1.69119 0
M  V30 3511 H 332.066 -0.662385 -0.10718 0
M  V30 3512 H 334.61 -2.01966 0.320923 0
M  V30 3513 H 332.765 -3.49099 -1.67954 0
M  V30 3514 H 333.179 -5.23543 -0.316701 0
M  V30 3515 H 334.653 -5.13556 -2.02397 0
M  V30 3516 H 335.13 -3.53999 -2.59964 0
M  V30 3517 H 335.736 -4.12556 -1.03332 0
M  V30 3518 N 334.051 0.0651679 -1.57465 0
M  V30 3519 C 335.297 0.764193 -1.87851 0
M  V30 3520 C 335.63 1.76889 -0.801495 0
M  V30 3521 O 334.905 1.93594 0.187528 0
M  V30 3522 C 335.188 1.46625 -3.28897 0
M  V30 3523 C 335.041 0.477515 -4.47258 0
M  V30 3524 C 336.36 2.4095 -3.68281 0
M  V30 3525 H 333.479 0.276351 -0.683227 0
M  V30 3526 H 336.121 0.0272868 -1.8998 0
M  V30 3527 H 334.271 2.09438 -3.27212 0
M  V30 3528 H 335.943 -0.145922 -4.61069 0
M  V30 3529 H 334.186 -0.206576 -4.33308 0
M  V30 3530 H 334.857 1.0065 -5.42746 0
M  V30 3531 H 337.333 1.88209 -3.71102 0
M  V30 3532 H 336.209 2.87072 -4.67847 0
M  V30 3533 H 336.47 3.26049 -2.98571 0
M  V30 3534 N 335.529 1.53961 0.336706 0
M  V30 3535 C 336.778 1.70751 1.07363 0
M  V30 3536 C 337.091 0.481061 1.89592 0
M  V30 3537 O 338.297 0.530046 2.66276 0
M  V30 3538 C 336.753 3.01965 1.95818 0
M  V30 3539 C 336.361 4.31971 1.18764 0
M  V30 3540 C 338.105 3.28121 2.69327 0
M  V30 3541 C 336.012 5.54255 2.06289 0
M  V30 3542 H 334.942 0.636292 0.404535 0
M  V30 3543 H 337.593 1.80459 0.332681 0
M  V30 3544 H 335.975 2.86132 2.7376 0
M  V30 3545 H 337.149 4.5853 0.456849 0
M  V30 3546 H 335.464 4.12481 0.569946 0
M  V30 3547 H 338.061 4.16673 3.35094 0
M  V30 3548 H 338.404 2.45426 3.36261 0
M  V30 3549 H 338.937 3.44762 1.98454 0
M  V30 3550 H 335.676 6.39513 1.43885 0
M  V30 3551 H 335.196 5.31935 2.77138 0
M  V30 3552 H 336.875 5.90159 2.65182 0
M  V30 3553 N 337.007 -0.598083 1.45811 0
M  V30 3554 C 338.232 -1.3881 1.54099 0
M  V30 3555 C 338.657 -1.8726 0.177578 0
M  V30 3556 O 338.015 -1.6069 -0.839541 0
M  V30 3557 C 338.063 -2.56217 2.53743 0
M  V30 3558 O 337.167 -3.5716 2.06182 0
M  V30 3559 H 336.508 -0.414024 0.519115 0
M  V30 3560 H 339.038 -0.726971 1.91249 0
M  V30 3561 H 339.048 -3.03337 2.72856 0
M  V30 3562 H 337.723 -2.20303 3.5276 0
M  V30 3563 H 336.3 -3.16624 1.96987 0
M  V30 3564 N 338.485 -1.33259 -0.841409 0
M  V30 3565 C 339.731 -1.24757 -1.59886 0
M  V30 3566 C 340.064 0.186913 -1.93298 0
M  V30 3567 O 339.339 1.12757 -1.5848 0
M  V30 3568 C 339.622 -2.12036 -2.91055 0
M  V30 3569 C 339.475 -3.63929 -2.6434 0
M  V30 3570 C 340.794 -1.9916 -3.92458 0
M  V30 3571 H 337.913 -0.454542 -0.580138 0
M  V30 3572 H 340.555 -1.63335 -0.970647 0
M  V30 3573 H 338.705 -1.79265 -3.44669 0
M  V30 3574 H 340.377 -4.06978 -2.17178 0
M  V30 3575 H 338.62 -3.85935 -1.98082 0
M  V30 3576 H 339.291 -4.20341 -3.57796 0
M  V30 3577 H 341.767 -2.27895 -3.48143 0
M  V30 3578 H 340.643 -2.62484 -4.82072 0
M  V30 3579 H 340.904 -0.963082 -4.31482 0
M  V30 3580 N 339.963 1.05934 -1.16686 0
M  V30 3581 C 340.911 2.15603 -0.872817 0
M  V30 3582 C 341.905 1.68647 0.159576 0
M  V30 3583 O 343.111 1.79995 0.0132125 0
M  V30 3584 H 339.486 0.703885 -0.264671 0
M  V30 3585 H 341.457 2.37613 -1.80507 0
M  V30 3586 C 340.206 3.45457 -0.394344 0
M  V30 3587 H 339.529 3.81984 -1.18019 0
M  V30 3588 H 340.969 4.2339 -0.227408 0
M  V30 3589 C 339.428 3.25021 0.88673 0
M  V30 3590 O 339.958 3.50906 1.95519 0
M  V30 3591 N 338.164 2.78437 0.831925 0
M  V30 3592 H 337.711 2.57572 -0.0377619 0
M  V30 3593 H 337.669 2.65144 1.68956 0
M  V30 3594 N 341.441 0.965919 1.2453 0
M  V30 3595 C 342.852 0.665929 1.7442 0
M  V30 3596 C 343.203 -0.818407 1.78316 0
M  V30 3597 O 342.328 -1.64037 1.41141 0
M  V30 3598 C 342.923 1.20211 3.16757 0
M  V30 3599 C 341.482 0.952059 3.6416 0
M  V30 3600 C 340.629 1.33848 2.42858 0
M  V30 3601 H 343.58 1.14144 1.10258 0
M  V30 3602 H 343.601 0.567544 3.76244 0
M  V30 3603 H 343.113 2.28244 3.13889 0
M  V30 3604 H 341.214 -0.112821 3.72429 0
M  V30 3605 H 341.327 1.59645 4.51719 0
M  V30 3606 H 339.691 0.756864 2.43195 0
M  V30 3607 H 340.474 2.42827 2.42673 0
M  V30 3608 N 342.919 -1.39368 0.735821 0
M  V30 3609 C 344.144 -2.05319 0.293052 0
M  V30 3610 C 344.569 -1.55115 -1.064 0
M  V30 3611 O 343.927 -0.695261 -1.67439 0
M  V30 3612 C 343.975 -3.59305 0.305323 0
M  V30 3613 O 343.079 -4.06299 -0.706761 0
M  V30 3614 H 342.42 -0.650529 0.13307 0
M  V30 3615 H 344.95 -1.78386 1.00197 0
M  V30 3616 H 344.96 -4.07724 0.149997 0
M  V30 3617 H 343.635 -3.95207 1.29553 0
M  V30 3618 H 342.212 -3.69292 -0.517504 0
M  V30 3619 N 344.397 -0.483516 -1.5 0
M  V30 3620 C 345.625 0.0644831 -2.06799 0
M  V30 3621 C 346.04 1.32399 -1.34596 0
M  V30 3622 O 345.397 1.77626 -0.418946 0
M  V30 3623 C 345.448 0.339927 -3.59898 0
M  V30 3624 O 345.169 -0.869635 -4.29382 0
M  V30 3625 C 346.67 0.933515 -4.33359 0
M  V30 3626 H 343.89 -0.0126333 -0.670881 0
M  V30 3627 H 346.434 -0.675864 -1.93009 0
M  V30 3628 H 344.589 1.03022 -3.7345 0
M  V30 3629 H 345.003 -0.62179 -5.20801 0
M  V30 3630 H 346.477 1.07593 -5.41413 0
M  V30 3631 H 346.954 1.92685 -3.94676 0
M  V30 3632 H 347.56 0.281221 -4.24369 0
M  V30 3633 N 345.875 1.56104 -0.216619 0
M  V30 3634 C 346.822 2.2007 0.695531 0
M  V30 3635 C 347.792 1.15471 1.19397 0
M  V30 3636 O 348.977 1.43807 1.25396 0
M  V30 3637 C 346.117 2.88073 1.90021 0
M  V30 3638 C 345.23 4.07253 1.44113 0
M  V30 3639 C 344.365 4.63052 2.603 0
M  V30 3640 C 343.404 5.74545 2.11103 0
M  V30 3641 N 342.541 6.24656 3.20545 0
M  V30 3642 H 347.381 2.97655 0.143327 0
M  V30 3643 H 344.918 1.46982 0.0589934 0
M  V30 3644 H 346.876 3.25681 2.60745 0
M  V30 3645 H 345.506 2.13015 2.42538 0
M  V30 3646 H 344.558 3.75164 0.628999 0
M  V30 3647 H 345.87 4.8783 1.04036 0
M  V30 3648 H 345.024 5.03078 3.39113 0
M  V30 3649 H 343.763 3.81628 3.03663 0
M  V30 3650 H 342.768 5.34027 1.3075 0
M  V30 3651 H 343.993 6.57801 1.68746 0
M  V30 3652 H 341.939 5.46148 3.63399 0
M  V30 3653 H 341.856 7.00343 2.84704 0
M  V30 3654 H 343.124 6.69338 3.99508 0
M  V30 3655 N 347.353 -0.0568162 1.57498 0
M  V30 3656 C 348.283 -1.06593 2.0775 0
M  V30 3657 C 349.264 -1.39448 0.974082 0
M  V30 3658 O 350.449 -1.48815 1.24771 0
M  V30 3659 C 347.579 -2.37509 2.5339 0
M  V30 3660 C 346.533 -2.1897 3.67745 0
M  V30 3661 C 345.859 -3.55402 3.99492 0
M  V30 3662 C 347.159 -1.59859 4.97235 0
M  V30 3663 H 348.853 -0.647706 2.9231 0
M  V30 3664 H 346.399 -0.310116 1.40621 0
M  V30 3665 H 348.352 -3.08409 2.87162 0
M  V30 3666 H 347.076 -2.8134 1.65878 0
M  V30 3667 H 345.735 -1.50508 3.3428 0
M  V30 3668 H 345.383 -3.9683 3.09088 0
M  V30 3669 H 345.083 -3.43831 4.76502 0
M  V30 3670 H 346.607 -4.27708 4.35773 0
M  V30 3671 H 348.021 -2.20642 5.29141 0
M  V30 3672 H 346.418 -1.58942 5.78669 0
M  V30 3673 H 347.488 -0.561506 4.81638 0
M  V30 3674 N 348.832 -1.54138 -0.328536 0
M  V30 3675 C 349.764 -1.79509 -1.4251 0
M  V30 3676 C 350.777 -0.67688 -1.48061 0
M  V30 3677 O 351.966 -0.953898 -1.50874 0
M  V30 3678 C 349.066 -1.89337 -2.81078 0
M  V30 3679 C 348.239 -3.19443 -2.98789 0
M  V30 3680 C 347.298 -3.20036 -4.17688 0
M  V30 3681 O 346.324 -3.93697 -4.11086 0
M  V30 3682 N 347.526 -2.43467 -5.26976 0
M  V30 3683 H 350.291 -2.74139 -1.21111 0
M  V30 3684 H 347.852 -1.53373 -0.518499 0
M  V30 3685 H 349.844 -1.87167 -3.58818 0
M  V30 3686 H 348.414 -1.01826 -2.95551 0
M  V30 3687 H 347.634 -3.34614 -2.08391 0
M  V30 3688 H 348.922 -4.05354 -3.07515 0
M  V30 3689 H 348.32 -1.83201 -5.35214 0
M  V30 3690 H 346.877 -2.4708 -6.03154 0
M  V30 3691 N 350.31 0.590341 -1.46126 0
M  V30 3692 C 351.22 1.72793 -1.58681 0
M  V30 3693 C 352.236 1.67516 -0.470566 0
M  V30 3694 O 353.412 1.87562 -0.733642 0
M  V30 3695 C 350.477 3.09287 -1.5666 0
M  V30 3696 C 349.538 3.25886 -2.79458 0
M  V30 3697 C 348.771 4.55869 -2.77524 0
M  V30 3698 O 348.994 5.3928 -1.85832 0
M  V30 3699 O 347.928 4.75552 -3.68964 0
M  V30 3700 H 351.754 1.65149 -2.54872 0
M  V30 3701 H 349.339 0.756486 -1.28832 0
M  V30 3702 H 351.221 3.90577 -1.58202 0
M  V30 3703 H 349.896 3.17385 -0.636271 0
M  V30 3704 H 348.803 2.44119 -2.83472 0
M  V30 3705 H 350.136 3.22675 -3.71674 0
M  V30 3706 N 351.788 1.33704 0.83433 0
M  V30 3707 C 353.036 1.25169 1.58673 0
M  V30 3708 C 353.357 -0.18127 1.94156 0
M  V30 3709 O 352.627 -1.11113 1.6134 0
M  V30 3710 H 351.207 0.4603 0.58833 0
M  V30 3711 H 353.869 1.67478 0.996847 0
M  V30 3712 H 352.965 1.84856 2.51465 0
M  V30 3713 N 353.266 -1.05314 1.17247 0
M  V30 3714 C 354.514 -1.77941 0.958194 0
M  V30 3715 C 354.835 -1.88089 -0.514556 0
M  V30 3716 O 354.105 -1.39676 -1.37359 0
M  V30 3717 H 352.685 -0.659116 0.351533 0
M  V30 3718 H 355.347 -1.27166 1.47699 0
M  V30 3719 H 354.443 -2.79663 1.38546 0
M  V30 3720 N 354.744 -0.972509 -1.24016 0
M  V30 3721 C 355.969 -0.654417 -1.96805 0
M  V30 3722 C 356.394 0.770398 -1.716 0
M  V30 3723 O 355.752 1.52361 -0.982647 0
M  V30 3724 C 355.8 -0.941031 -3.48105 0
M  V30 3725 O 354.904 -0.0289472 -4.1239 0
M  V30 3726 H 354.245 -0.24692 -0.616382 0
M  V30 3727 H 356.775 -1.30396 -1.57664 0
M  V30 3728 H 356.785 -0.87452 -3.98517 0
M  V30 3729 H 355.46 -1.97939 -3.65777 0
M  V30 3730 H 354.037 -0.149192 -3.72601 0
M  V30 3731 N 356.222 1.38976 -0.743202 0
M  V30 3732 C 357.468 2.0064 -0.295189 0
M  V30 3733 C 357.801 1.5885 1.11716 0
M  V30 3734 O 357.076 0.821181 1.76315 0
M  V30 3735 C 357.359 3.578 -0.406318 0
M  V30 3736 C 357.212 4.09586 -1.85903 0
M  V30 3737 C 358.531 4.39616 0.206439 0
M  V30 3738 H 355.65 0.728935 -0.108733 0
M  V30 3739 H 358.292 1.65067 -0.940897 0
M  V30 3740 H 356.442 3.88235 0.143419 0
M  V30 3741 H 358.114 3.89837 -2.46627 0
M  V30 3742 H 356.357 3.6284 -2.3776 0
M  V30 3743 H 357.028 5.18708 -1.888 0
M  V30 3744 H 359.504 4.15273 -0.262283 0
M  V30 3745 H 358.38 5.48812 0.0983819 0
M  V30 3746 H 358.641 4.22754 1.2935 0
M  V30 3747 N 357.7 0.491464 1.49741 0
M  V30 3748 C 358.928 -0.0535151 2.06831 0
M  V30 3749 C 359.343 -1.31683 1.35296 0
M  V30 3750 O 358.7 -1.77402 0.42836 0
M  V30 3751 C 358.751 -0.320835 3.60073 0
M  V30 3752 O 358.472 0.892394 4.28915 0
M  V30 3753 C 359.973 -0.910519 4.33848 0
M  V30 3754 H 357.193 0.0161909 0.670805 0
M  V30 3755 H 359.737 0.68609 1.92647 0
M  V30 3756 H 357.892 -1.0104 3.73991 0
M  V30 3757 H 358.306 0.649401 5.20464 0
M  V30 3758 H 359.78 -1.04721 5.41976 0
M  V30 3759 H 360.257 -1.90589 3.95692 0
M  V30 3760 H 360.863 -0.258712 4.24512 0
M  V30 3761 N 359.178 -1.55987 0.224894 0
M  V30 3762 C 360.111 -2.16413 -0.723929 0
M  V30 3763 C 361.089 -1.10952 -1.18863 0
M  V30 3764 O 362.273 -1.39225 -1.27077 0
M  V30 3765 C 359.4 -2.74711 -1.98121 0
M  V30 3766 C 358.446 -3.9303 -1.6562 0
M  V30 3767 S 359.279 -5.29817 -0.778058 0
M  V30 3768 C 360.435 -5.91555 -2.04483 0
M  V30 3769 H 360.668 -2.96555 -0.210347 0
M  V30 3770 H 358.201 -1.54397 0.00955457 0
M  V30 3771 H 360.159 -3.08938 -2.70311 0
M  V30 3772 H 358.82 -1.94555 -2.46591 0
M  V30 3773 H 358.013 -4.32334 -2.59043 0
M  V30 3774 H 357.615 -3.59966 -1.01491 0
M  V30 3775 H 359.907 -6.07732 -2.99446 0
M  V30 3776 H 360.85 -6.87498 -1.69563 0
M  V30 3777 H 361.258 -5.20419 -2.18688 0
M  V30 3778 N 360.656 0.0484629 -1.57525 0
M  V30 3779 C 361.884 0.755421 -1.92616 0
M  V30 3780 C 362.299 1.69919 -0.822984 0
M  V30 3781 O 361.656 1.81378 0.202085 0
M  V30 3782 C 361.707 1.52915 -3.27566 0
M  V30 3783 O 361.428 0.62329 -4.33644 0
M  V30 3784 C 362.929 2.33502 -3.76818 0
M  V30 3785 H 360.149 0.213465 -0.63614 0
M  V30 3786 H 362.693 0.0117698 -2.04497 0
M  V30 3787 H 360.848 2.22486 -3.17142 0
M  V30 3788 H 361.262 1.16383 -5.11425 0
M  V30 3789 H 362.736 2.83214 -4.73808 0
M  V30 3790 H 363.213 3.14068 -3.07014 0
M  V30 3791 H 363.819 1.69043 -3.90262 0
M  V30 3792 N 362.134 1.5431 0.320358 0
M  V30 3793 C 363.374 1.74395 1.0661 0
M  V30 3794 C 363.738 0.508602 1.85141 0
M  V30 3795 O 364.939 0.586856 2.62316 0
M  V30 3796 C 363.21 2.98619 1.96371 0
M  V30 3797 S 364.769 3.39621 2.77854 0
M  V30 3798 H 361.587 0.613204 0.359863 0
M  V30 3799 H 364.189 1.9249 0.341727 0
M  V30 3800 H 362.893 3.86673 1.3752 0
M  V30 3801 H 362.424 2.83055 2.73209 0
M  V30 3802 H 364.439 2.95172 3.98858 0
M  V30 3803 N 363.613 -0.582584 1.46437 0
M  V30 3804 C 364.838 -1.37168 1.55563 0
M  V30 3805 C 365.263 -1.87061 0.19743 0
M  V30 3806 O 364.621 -1.61572 -0.822451 0
M  V30 3807 C 364.669 -2.53511 2.56446 0
M  V30 3808 O 363.773 -3.54953 2.09958 0
M  V30 3809 H 363.114 -0.408494 0.523477 0
M  V30 3810 H 365.644 -0.706646 1.9201 0
M  V30 3811 H 365.654 -3.00426 2.76058 0
M  V30 3812 H 364.329 -2.16549 3.55076 0
M  V30 3813 H 362.906 -3.14516 2.00334 0
M  V30 3814 N 365.091 -1.34144 -0.827227 0
M  V30 3815 C 366.316 -1.29476 -1.62021 0
M  V30 3816 C 366.741 0.129292 -1.87655 0
M  V30 3817 O 366.099 1.08967 -1.449 0
M  V30 3818 C 366.147 -2.08702 -2.94068 0
M  V30 3819 O 365.251 -1.45359 -3.85933 0
M  V30 3820 H 364.592 -0.444881 -0.492927 0
M  V30 3821 H 367.122 -1.76882 -1.02829 0
M  V30 3822 H 367.132 -2.19898 -3.43669 0
M  V30 3823 H 365.807 -3.12241 -2.74734 0
M  V30 3824 H 364.384 -1.42879 -3.44442 0
M  V30 3825 N 366.569 1.04691 -1.17803 0
M  V30 3826 C 367.479 2.16057 -0.914151 0
M  V30 3827 C 368.495 1.73589 0.119503 0
M  V30 3828 O 369.671 2.01308 -0.0609468 0
M  V30 3829 C 366.736 3.4394 -0.436603 0
M  V30 3830 C 365.797 4.00825 -1.53746 0
M  V30 3831 C 365.03 5.22604 -1.0826 0
M  V30 3832 O 365.253 5.70367 0.0612244 0
M  V30 3833 O 364.187 5.7186 -1.87775 0
M  V30 3834 H 368.013 2.41169 -1.84584 0
M  V30 3835 H 365.598 1.1453 -0.959334 0
M  V30 3836 H 367.48 4.21024 -0.178057 0
M  V30 3837 H 366.155 3.20316 0.466869 0
M  V30 3838 H 365.062 3.25158 -1.84995 0
M  V30 3839 H 366.395 4.28778 -2.41683 0
M  V30 3840 N 368.047 0.979072 1.23499 0
M  V30 3841 C 369.295 0.645941 1.91499 0
M  V30 3842 C 369.616 -0.822948 1.76784 0
M  V30 3843 O 368.886 -1.58854 1.14639 0
M  V30 3844 H 367.466 0.235919 0.708767 0
M  V30 3845 H 370.128 1.2426 1.50152 0
M  V30 3846 H 369.224 0.896411 2.9895 0
M  V30 3847 N 369.525 -1.3858 0.750561 0
M  V30 3848 C 370.455 -2.33102 0.136237 0
M  V30 3849 C 371.436 -1.54713 -0.706965 0
M  V30 3850 O 372.621 -1.83043 -0.648769 0
M  V30 3851 C 369.751 -3.38882 -0.760017 0
M  V30 3852 C 368.705 -4.27995 -0.0197785 0
M  V30 3853 C 368.031 -5.24605 -1.03408 0
M  V30 3854 C 369.331 -5.09554 1.14684 0
M  V30 3855 H 371.025 -2.84726 0.925822 0
M  V30 3856 H 368.571 -1.36898 0.446654 0
M  V30 3857 H 370.524 -4.0397 -1.19943 0
M  V30 3858 H 369.248 -2.85734 -1.58189 0
M  V30 3859 H 367.907 -3.64409 0.400184 0
M  V30 3860 H 367.555 -4.67746 -1.84994 0
M  V30 3861 H 367.255 -5.85081 -0.543464 0
M  V30 3862 H 368.779 -5.9257 -1.47288 0
M  V30 3863 H 370.193 -5.67899 0.785118 0
M  V30 3864 H 368.59 -5.7925 1.56812 0
M  V30 3865 H 369.66 -4.4347 1.96118 0
M  V30 3866 N 371.003 -0.499398 -1.49478 0
M  V30 3867 C 372.414 -0.051215 -1.8663 0
M  V30 3868 C 372.765 1.36238 -1.41186 0
M  V30 3869 O 371.89 2.01502 -0.789051 0
M  V30 3870 C 372.485 -0.0861651 -3.3869 0
M  V30 3871 C 371.044 0.30667 -3.75149 0
M  V30 3872 C 370.191 -0.459397 -2.73468 0
M  V30 3873 H 373.142 -0.712264 -1.41818 0
M  V30 3874 H 373.163 0.709507 -3.73826 0
M  V30 3875 H 372.675 -1.11512 -3.71735 0
M  V30 3876 H 370.776 1.33892 -3.47712 0
M  V30 3877 H 370.889 -0.0116669 -4.79099 0
M  V30 3878 H 369.253 0.0905645 -2.54539 0
M  V30 3879 H 370.036 -1.4884 -3.09357 0
M  V30 3880 N 372.481 1.55866 -0.233164 0
M  V30 3881 C 373.444 2.1953 0.658715 0
M  V30 3882 C 374.444 1.16053 1.11303 0
M  V30 3883 O 375.634 1.41218 1.01996 0
M  V30 3884 C 372.766 2.82791 1.90373 0
M  V30 3885 H 373.959 2.99721 0.10347 0
M  V30 3886 H 371.512 1.56291 0.0164245 0
M  V30 3887 H 372.247 2.06501 2.50056 0
M  V30 3888 H 372.032 3.58578 1.58632 0
M  V30 3889 H 373.522 3.31556 2.53891 0
M  V30 3890 N 373.959 -0.0401083 1.57549 0
M  V30 3891 C 375.37 -0.588097 1.77196 0
M  V30 3892 C 375.721 -1.76209 0.862832 0
M  V30 3893 O 374.846 -2.16331 0.0548389 0
M  V30 3894 C 375.441 -1.07363 3.21339 0
M  V30 3895 C 374 -1.56723 3.42221 0
M  V30 3896 C 373.147 -0.50041 2.72747 0
M  V30 3897 H 376.098 0.186119 1.57605 0
M  V30 3898 H 376.119 -1.94143 3.27244 0
M  V30 3899 H 375.631 -0.218975 3.87482 0
M  V30 3900 H 373.732 -2.4441 2.81237 0
M  V30 3901 H 373.845 -1.62234 4.50796 0
M  V30 3902 H 372.209 -0.952894 2.36203 0
M  V30 3903 H 372.992 0.344599 3.41566 0
M  V30 3904 N 375.437 -1.54477 -0.31217 0
M  V30 3905 C 376.347 -1.87695 -1.4074 0
M  V30 3906 C 377.363 -0.769975 -1.56036 0
M  V30 3907 O 378.539 -1.06537 -1.70915 0
M  V30 3908 C 375.604 -2.10755 -2.75287 0
M  V30 3909 C 374.665 -3.34514 -2.69071 0
M  V30 3910 C 373.898 -3.56465 -3.97201 0
M  V30 3911 O 374.121 -2.81637 -4.96021 0
M  V30 3912 O 373.055 -4.49964 -3.9977 0
M  V30 3913 H 376.881 -2.80849 -1.15574 0
M  V30 3914 H 374.466 -1.40526 -0.507228 0
M  V30 3915 H 376.348 -2.27188 -3.54913 0
M  V30 3916 H 375.023 -1.20788 -3.0032 0
M  V30 3917 H 373.93 -3.23456 -1.87955 0
M  V30 3918 H 375.263 -4.24575 -2.48992 0
M  V30 3919 N 376.915 0.57481 -1.46744 0
M  V30 3920 C 378.164 1.32898 -1.51727 0
M  V30 3921 C 378.477 1.948 -0.176692 0
M  V30 3922 O 379.683 2.71299 -0.104385 0
M  V30 3923 C 378.139 2.40901 -2.67385 0
M  V30 3924 C 377.747 1.85266 -4.07898 0
M  V30 3925 C 379.491 3.17609 -2.81646 0
M  V30 3926 C 377.398 2.90945 -5.14883 0
M  V30 3927 H 376.328 0.499631 -0.564699 0
M  V30 3928 H 378.979 0.612536 -1.72975 0
M  V30 3929 H 377.361 3.15379 -2.39483 0
M  V30 3930 H 378.535 1.17278 -4.45626 0
M  V30 3931 H 376.85 1.21199 -3.98371 0
M  V30 3932 H 379.447 3.96493 -3.58744 0
M  V30 3933 H 379.79 3.70696 -1.89448 0
M  V30 3934 H 380.323 2.50239 -3.09233 0
M  V30 3935 H 377.062 2.42736 -6.089 0
M  V30 3936 H 376.582 3.57398 -4.81691 0
M  V30 3937 H 378.261 3.54755 -5.41071 0
M  V30 3938 N 378.394 1.34581 0.820102 0
M  V30 3939 C 379.641 1.27096 1.57648 0
M  V30 3940 C 379.969 -0.158317 1.93855 0
M  V30 3941 O 379.224 -1.12028 1.60463 0
M  V30 3942 C 379.523 2.10997 2.8847 0
M  V30 3943 C 379.189 3.59966 2.71543 0
M  V30 3944 C 377.851 4.00575 2.66634 0
M  V30 3945 C 380.203 4.54548 2.55021 0
M  V30 3946 C 377.531 5.33953 2.43128 0
M  V30 3947 C 379.883 5.88109 2.33047 0
M  V30 3948 C 378.547 6.27878 2.26552 0
M  V30 3949 H 377.817 0.465078 0.576874 0
M  V30 3950 H 380.464 1.6635 0.948671 0
M  V30 3951 H 378.769 1.6458 3.55557 0
M  V30 3952 H 380.466 2.0255 3.46084 0
M  V30 3953 H 377.056 3.27733 2.76205 0
M  V30 3954 H 381.24 4.24069 2.57835 0
M  V30 3955 H 376.496 5.63781 2.3656 0
M  V30 3956 H 380.67 6.60985 2.19251 0
M  V30 3957 H 378.297 7.31162 2.081 0
M  V30 3958 N 379.872 -1.04064 1.18357 0
M  V30 3959 C 381.118 -1.77658 0.990412 0
M  V30 3960 C 381.473 -1.86446 -0.474944 0
M  V30 3961 O 380.766 -1.36153 -1.34807 0
M  V30 3962 C 380.96 -3.20634 1.57888 0
M  V30 3963 C 380.789 -3.25782 3.09994 0
M  V30 3964 C 379.559 -3.34411 3.7881 0
M  V30 3965 C 381.757 -3.13791 4.0748 0
M  V30 3966 N 379.739 -3.28809 5.18418 0
M  V30 3967 C 381.11 -3.15689 5.33611 0
M  V30 3968 C 383.165 -2.97833 3.98998 0
M  V30 3969 C 381.868 -3.03268 6.52243 0
M  V30 3970 C 383.894 -2.86759 5.17227 0
M  V30 3971 C 383.256 -2.893 6.4225 0
M  V30 3972 H 379.355 -0.661901 0.416427 0
M  V30 3973 H 381.939 -1.23968 1.50133 0
M  V30 3974 H 380.11 -3.7267 1.09414 0
M  V30 3975 H 381.842 -3.82525 1.32124 0
M  V30 3976 H 378.597 -3.40144 3.29543 0
M  V30 3977 H 379.021 -3.29448 5.91433 0
M  V30 3978 H 383.663 -2.94698 3.03171 0
M  V30 3979 H 381.381 -3.05156 7.48268 0
M  V30 3980 H 384.967 -2.75465 5.12455 0
M  V30 3981 H 383.847 -2.80818 7.32196 0
M  V30 3982 N 381.35 -0.985608 -1.22978 0
M  V30 3983 C 382.575 -0.675254 -1.961 0
M  V30 3984 C 383 0.752154 -1.72407 0
M  V30 3985 O 382.358 1.5131 -0.998751 0
M  V30 3986 C 382.406 -0.977899 -3.47087 0
M  V30 3987 O 381.51 -0.072685 -4.12336 0
M  V30 3988 H 380.851 -0.253443 -0.613728 0
M  V30 3989 H 383.381 -1.32061 -1.56272 0
M  V30 3990 H 383.391 -0.916739 -3.97567 0
M  V30 3991 H 382.066 -2.01807 -3.63657 0
M  V30 3992 H 380.643 -0.188703 -3.72422 0
M  V30 3993 N 382.828 1.3818 -0.7579 0
M  V30 3994 C 383.775 2.30416 -0.133057 0
M  V30 3995 C 384.745 1.50398 0.704957 0
M  V30 3996 O 385.93 1.79014 0.660192 0
M  V30 3997 C 383.07 3.36834 0.750813 0
M  V30 3998 C 382.183 4.31879 -0.102297 0
M  V30 3999 C 381.318 5.25368 0.784979 0
M  V30 4000 C 380.357 6.12058 -0.0715046 0
M  V30 4001 N 379.494 6.97832 0.772972 0
M  V30 4002 H 384.334 2.83274 -0.925186 0
M  V30 4003 H 381.871 1.39461 -0.467866 0
M  V30 4004 H 383.829 3.97145 1.27794 0
M  V30 4005 H 382.459 2.85374 1.50868 0
M  V30 4006 H 381.511 3.72991 -0.747095 0
M  V30 4007 H 382.823 4.92921 -0.763552 0
M  V30 4008 H 381.977 5.90818 1.37911 0
M  V30 4009 H 380.716 4.64703 1.47996 0
M  V30 4010 H 379.721 5.456 -0.678272 0
M  V30 4011 H 380.946 6.74793 -0.763606 0
M  V30 4012 H 378.892 6.3971 1.45282 0
M  V30 4013 H 378.809 7.55812 0.168709 0
M  V30 4014 H 380.077 7.67687 1.35194 0
M  V30 4015 N 384.306 0.507319 1.49211 0
M  V30 4016 C 385.253 -0.267728 2.29242 0
M  V30 4017 C 386.223 -0.954609 1.35928 0
M  V30 4018 O 387.408 -0.960046 1.64887 0
M  V30 4019 C 384.548 -1.32243 3.18756 0
M  V30 4020 C 383.661 -0.64669 4.27132 0
M  V30 4021 C 382.796 -1.68238 5.03855 0
M  V30 4022 C 381.835 -0.98885 6.0406 0
M  V30 4023 N 380.972 -1.96903 6.73924 0
M  V30 4024 H 385.812 0.420968 2.95012 0
M  V30 4025 H 383.349 0.219443 1.45454 0
M  V30 4026 H 385.307 -1.94599 3.69036 0
M  V30 4027 H 383.937 -1.97981 2.54958 0
M  V30 4028 H 382.989 0.0902926 3.80293 0
M  V30 4029 H 384.301 -0.101058 4.98698 0
M  V30 4030 H 383.455 -2.38081 5.58034 0
M  V30 4031 H 382.194 -2.26187 4.32077 0
M  V30 4032 H 381.199 -0.276222 5.49106 0
M  V30 4033 H 382.424 -0.415767 6.77826 0
M  V30 4034 H 380.37 -2.53803 6.04913 0
M  V30 4035 H 380.287 -1.47423 7.41487 0
M  V30 4036 H 381.555 -2.66015 7.32705 0
M  V30 4037 N 385.784 -1.5574 0.241426 0
M  V30 4038 C 386.714 -2.24133 -0.654722 0
M  V30 4039 C 387.695 -1.21974 -1.1856 0
M  V30 4040 O 388.88 -1.50612 -1.22595 0
M  V30 4041 C 386.01 -2.93659 -1.85423 0
M  V30 4042 C 384.964 -4.0246 -1.45636 0
M  V30 4043 C 384.29 -4.59383 -2.73626 0
M  V30 4044 C 385.59 -5.18468 -0.631506 0
M  V30 4045 H 387.284 -2.99281 -0.0844353 0
M  V30 4046 H 384.83 -1.43947 -0.0391707 0
M  V30 4047 H 386.783 -3.40203 -2.48676 0
M  V30 4048 H 385.507 -2.15991 -2.44981 0
M  V30 4049 H 384.166 -3.56676 -0.847202 0
M  V30 4050 H 383.814 -3.78422 -3.3137 0
M  V30 4051 H 383.514 -5.32826 -2.4773 0
M  V30 4052 H 385.038 -5.08658 -3.37786 0
M  V30 4053 H 386.452 -5.61272 -1.1682 0
M  V30 4054 H 384.849 -5.98266 -0.468831 0
M  V30 4055 H 385.919 -4.8358 0.357506 0
M  V30 4056 N 387.262 0.0317525 -1.57568 0
M  V30 4057 C 388.539 0.758366 -1.803 0
M  V30 4058 C 388.919 1.93718 -0.838845 0
M  V30 4059 O 388.267 2.28187 0.119571 0
M  V30 4060 C 388.477 1.19392 -3.27943 0
M  V30 4061 C 389.825 1.61094 -3.92854 0
M  V30 4062 O 390.849 1.28857 -3.32076 0
M  V30 4063 O 389.708 2.20918 -4.99858 0
M  V30 4064 H 386.802 0.366514 -0.741348 0
M  V30 4065 H 389.348 0.00873765 -1.69698 0
M  V30 4066 H 388.12 0.352275 -3.89711 0
M  V30 4067 H 387.743 2.00365 -3.43424 0
M  V30 4068 N 388.74 1.54641 0.303973 0
M  V30 4069 C 389.688 1.86137 1.39484 0
M  V30 4070 C 390.682 0.734854 1.52631 0
M  V30 4071 O 391.888 0.918803 1.54784 0
M  V30 4072 H 388.263 0.590324 0.465856 0
M  V30 4073 H 390.234 2.77324 1.10154 0
M  V30 4074 C 388.983 2.12274 2.75382 0
M  V30 4075 H 388.306 2.98429 2.66046 0
M  V30 4076 H 389.746 2.38254 3.5073 0
M  V30 4077 C 388.205 0.920365 3.24085 0
M  V30 4078 O 388.735 0.139377 4.01458 0
M  V30 4079 N 386.941 0.726566 2.81371 0
M  V30 4080 H 386.488 1.36332 2.18567 0
M  V30 4081 H 386.446 -0.0763799 3.14307 0
M  V30 4082 N 390.218 -0.567019 1.47046 0
M  V30 4083 C 391.466 -1.322 1.52864 0
M  V30 4084 C 391.787 -1.94088 0.188388 0
M  V30 4085 O 391.057 -1.7941 -0.786693 0
M  V30 4086 H 389.637 -0.490894 0.563056 0
M  V30 4087 H 392.299 -0.662879 1.83281 0
M  V30 4088 H 391.395 -2.12062 2.2899 0
M  V30 4089 N 391.696 -1.35014 -0.812953 0
M  V30 4090 C 392.644 -1.27435 -1.94585 0
M  V30 4091 C 393.638 -0.170494 -1.6854 0
M  V30 4092 O 394.844 -0.336085 -1.76835 0
M  V30 4093 H 391.219 -0.396144 -0.639198 0
M  V30 4094 H 393.19 -2.23158 -1.98098 0
M  V30 4095 C 391.939 -1.05677 -3.31252 0
M  V30 4096 H 391.262 -1.89853 -3.51846 0
M  V30 4097 H 392.702 -1.04413 -4.10943 0
M  V30 4098 C 391.161 0.239615 -3.36047 0
M  V30 4099 O 391.691 1.23759 -3.8216 0
M  V30 4100 N 389.897 0.276186 -2.89285 0
M  V30 4101 H 389.444 -0.53653 -2.51951 0
M  V30 4102 H 389.402 1.14332 -2.92875 0
M  V30 4103 N 393.175 1.03435 -1.18907 0
M  V30 4104 C 394.105 2.13503 -0.945448 0
M  V30 4105 C 395.086 1.69682 0.119189 0
M  V30 4106 O 396.271 1.94169 -0.034707 0
M  V30 4107 C 393.401 3.44004 -0.477316 0
M  V30 4108 C 392.355 4.0148 -1.48316 0
M  V30 4109 C 391.681 5.27537 -0.872311 0
M  V30 4110 C 392.981 4.36921 -2.86177 0
M  V30 4111 H 394.675 2.34141 -1.86597 0
M  V30 4112 H 392.221 1.12523 -0.898584 0
M  V30 4113 H 394.174 4.20372 -0.294204 0
M  V30 4114 H 392.898 3.23072 0.478786 0
M  V30 4115 H 391.557 3.27201 -1.65332 0
M  V30 4116 H 391.205 5.02917 0.0911752 0
M  V30 4117 H 390.905 5.66954 -1.54393 0
M  V30 4118 H 392.429 6.06576 -0.699871 0
M  V30 4119 H 393.843 5.04248 -2.72776 0
M  V30 4120 H 392.24 4.87405 -3.50081 0
M  V30 4121 H 393.31 3.46466 -3.39248 0
M  V30 4122 N 394.653 0.992116 1.22453 0
M  V30 4123 C 395.585 0.500024 2.23679 0
M  V30 4124 C 396.598 -0.404463 1.57696 0
M  V30 4125 O 397.787 -0.206722 1.77299 0
M  V30 4126 C 394.887 -0.294711 3.37616 0
M  V30 4127 C 394.06 0.605723 4.33186 0
M  V30 4128 C 393.119 -0.13717 5.26021 0
M  V30 4129 O 392.145 0.477164 5.67196 0
M  V30 4130 N 393.347 -1.4197 5.62872 0
M  V30 4131 H 396.112 1.37045 2.66531 0
M  V30 4132 H 393.673 0.866741 1.36745 0
M  V30 4133 H 395.665 -0.800329 3.96707 0
M  V30 4134 H 394.235 -1.06623 2.93854 0
M  V30 4135 H 393.455 1.29202 3.72425 0
M  V30 4136 H 394.743 1.21896 4.93983 0
M  V30 4137 H 394.141 -1.94015 5.31389 0
M  V30 4138 H 392.698 -1.87052 6.24383 0
M  V30 4139 N 396.131 -1.37776 0.765217 0
M  V30 4140 C 397.081 -2.2768 0.12075 0
M  V30 4141 C 398.065 -1.45778 -0.680988 0
M  V30 4142 O 399.257 -1.684 -0.545033 0
M  V30 4143 C 396.386 -3.34722 -0.762626 0
M  V30 4144 C 395.472 -4.24074 0.0465881 0
M  V30 4145 N 395.863 -4.93939 1.08892 0
M  V30 4146 C 394.161 -4.45643 -0.178418 0
M  V30 4147 C 394.862 -5.59845 1.57951 0
M  V30 4148 N 393.838 -5.36218 0.892797 0
M  V30 4149 H 397.64 -2.79166 0.918889 0
M  V30 4150 H 395.154 -1.50816 0.602353 0
M  V30 4151 H 397.151 -3.98031 -1.24005 0
M  V30 4152 H 395.811 -2.84793 -1.55959 0
M  V30 4153 H 396.822 -4.96572 1.47095 0
M  V30 4154 H 393.499 -4.06599 -0.9478 0
M  V30 4155 H 394.889 -6.25703 2.44838 0
M  V30 4156 N 397.609 -0.515225 -1.4894 0
M  V30 4157 C 398.539 0.244628 -2.32215 0
M  V30 4158 C 399.52 0.949136 -1.41157 0
M  V30 4159 O 400.705 0.937783 -1.70057 0
M  V30 4160 C 397.835 1.30096 -3.22013 0
M  V30 4161 C 396.789 0.715486 -4.21977 0
M  V30 4162 C 396.115 1.87339 -5.00808 0
M  V30 4163 C 397.415 -0.302982 -5.2142 0
M  V30 4164 H 399.109 -0.450501 -2.95991 0
M  V30 4165 H 396.655 -0.218098 -1.42339 0
M  V30 4166 H 398.608 1.84037 -3.79089 0
M  V30 4167 H 397.332 2.02547 -2.56207 0
M  V30 4168 H 395.991 0.197715 -3.66066 0
M  V30 4169 H 395.639 2.58592 -4.31438 0
M  V30 4170 H 395.339 1.48764 -5.68457 0
M  V30 4171 H 396.863 2.41686 -5.60732 0
M  V30 4172 H 398.277 0.148802 -5.73107 0
M  V30 4173 H 396.674 -0.60532 -5.97039 0
M  V30 4174 H 397.744 -1.21395 -4.69459 0
M  V30 4175 N 399.087 1.5561 -0.249682 0
M  V30 4176 C 400.312 2.03865 0.381305 0
M  V30 4177 C 400.737 1.12769 1.50548 0
M  V30 4178 O 400.095 0.121189 1.80895 0
M  V30 4179 C 400.143 3.50101 0.863816 0
M  V30 4180 O 399.247 3.62132 1.97318 0
M  V30 4181 H 398.588 0.658827 0.0827194 0
M  V30 4182 H 401.118 2.01105 -0.376552 0
M  V30 4183 H 401.128 3.90975 1.1663 0
M  V30 4184 H 399.803 4.1588 0.0411816 0
M  V30 4185 H 398.38 3.33155 1.67517 0
M  V30 4186 N 400.565 -0.0233959 1.57583 0
M  V30 4187 C 401.813 -0.711654 1.89156 0
M  V30 4188 C 402.134 -1.75591 0.848096 0
M  V30 4189 O 401.404 -1.95547 -0.117566 0
M  V30 4190 H 399.984 -0.265835 0.698098 0
M  V30 4191 H 402.646 0.0119948 1.94896 0
M  V30 4192 H 401.742 -1.19766 2.88206 0
M  V30 4193 N 402.043 -1.548 -0.295768 0
M  V30 4194 C 402.991 -1.86874 -1.38495 0
M  V30 4195 C 403.985 -0.742938 -1.52239 0
M  V30 4196 O 405.191 -0.926999 -1.54294 0
M  V30 4197 H 401.566 -0.592786 -0.462719 0
M  V30 4198 H 403.537 -2.77904 -1.08682 0
M  V30 4199 C 402.286 -2.13732 -2.74252 0
M  V30 4200 H 401.609 -2.99835 -2.64459 0
M  V30 4201 H 403.049 -2.4011 -3.49461 0
M  V30 4202 C 401.508 -0.937539 -3.23592 0
M  V30 4203 O 402.038 -0.160665 -4.01379 0
M  V30 4204 N 400.244 -0.741478 -2.80981 0
M  V30 4205 H 399.791 -1.37489 -2.1784 0
M  V30 4206 H 399.749 0.0597103 -3.14343 0
M  V30 4207 N 403.521 0.559213 -1.47345 0
M  V30 4208 C 404.484 1.64854 -1.59235 0
M  V30 4209 C 405.484 1.53851 -0.467607 0
M  V30 4210 O 406.674 1.58045 -0.732617 0
M  V30 4211 C 403.806 3.04388 -1.53496 0
M  V30 4212 H 404.999 1.55662 -2.56339 0
M  V30 4213 H 402.552 0.778973 -1.35505 0
M  V30 4214 H 403.287 3.19115 -0.577604 0
M  V30 4215 H 403.072 3.13783 -2.35123 0
M  V30 4216 H 404.562 3.83642 -1.6495 0
M  V30 4217 N 404.999 1.35443 0.805782 0
M  V30 4218 C 406.227 1.31878 1.59423 0
M  V30 4219 C 406.642 -0.103562 1.88516 0
M  V30 4220 O 405.999 -1.05575 1.48863 0
M  V30 4221 C 406.05 2.12426 2.92502 0
M  V30 4222 O 405.771 3.49115 2.6467 0
M  V30 4223 C 407.272 2.16455 3.86862 0
M  V30 4224 H 404.492 0.453002 0.495005 0
M  V30 4225 H 407.036 1.78309 1.00131 0
M  V30 4226 H 405.191 1.69593 3.48306 0
M  V30 4227 H 405.605 3.90957 3.49647 0
M  V30 4228 H 407.079 2.77204 4.77349 0
M  V30 4229 H 407.556 1.16352 4.23508 0
M  V30 4230 H 408.162 2.59453 3.36993 0
M  V30 4231 N 406.477 -1.02803 1.19454 0
M  V30 4232 C 407.407 -2.12999 0.956758 0
M  V30 4233 C 408.388 -1.69743 -0.110188 0
M  V30 4234 O 409.573 -1.94148 0.0450038 0
M  V30 4235 C 406.703 -3.43746 0.495553 0
M  V30 4236 C 405.657 -4.00688 1.50443 0
M  V30 4237 C 404.983 -5.27067 0.900275 0
M  V30 4238 C 406.283 -4.35397 2.8849 0
M  V30 4239 H 407.977 -2.33148 1.87836 0
M  V30 4240 H 405.523 -1.12045 0.904539 0
M  V30 4241 H 407.476 -4.2021 0.316493 0
M  V30 4242 H 406.2 -3.23321 -0.461646 0
M  V30 4243 H 404.859 -3.2632 1.67065 0
M  V30 4244 H 404.507 -5.02959 -0.064503 0
M  V30 4245 H 404.207 -5.66127 1.57397 0
M  V30 4246 H 405.731 -6.06196 0.73203 0
M  V30 4247 H 407.145 -5.02795 2.75446 0
M  V30 4248 H 405.542 -4.85541 3.52661 0
M  V30 4249 H 406.612 -3.44662 3.41081 0
M  V30 4250 N 407.956 -0.998596 -1.21925 0
M  V30 4251 C 409.184 -0.696286 -1.94832 0
M  V30 4252 C 409.599 0.740032 -1.73692 0
M  V30 4253 O 408.956 1.5 -1.03953 0
M  V30 4254 C 409.007 -0.999833 -3.47398 0
M  V30 4255 O 408.728 -2.37972 -3.67833 0
M  V30 4256 C 410.229 -0.716025 -4.37479 0
M  V30 4257 H 407.449 -0.257111 -0.619786 0
M  V30 4258 H 409.993 -1.33491 -1.54921 0
M  V30 4259 H 408.148 -0.406918 -3.85257 0
M  V30 4260 H 408.562 -2.48338 -4.61983 0
M  V30 4261 H 410.036 -0.978642 -5.43256 0
M  V30 4262 H 410.513 0.349968 -4.37803 0
M  V30 4263 H 411.119 -1.29025 -4.05256 0
M  V30 4264 N 409.434 1.37368 -0.772513 0
M  V30 4265 C 410.364 2.32856 -0.173304 0
M  V30 4266 C 411.345 1.55818 0.682262 0
M  V30 4267 O 412.53 1.84052 0.619566 0
M  V30 4268 C 409.66 3.40048 0.706007 0
M  V30 4269 C 408.614 4.27973 -0.0483144 0
M  V30 4270 C 407.94 5.26184 0.950491 0
M  V30 4271 C 409.24 5.07665 -1.22776 0
M  V30 4272 H 410.934 2.83217 -0.971002 0
M  V30 4273 H 408.48 1.3617 -0.468377 0
M  V30 4274 H 410.433 4.05827 1.13501 0
M  V30 4275 H 409.157 2.88214 1.53623 0
M  V30 4276 H 407.816 3.63726 -0.458107 0
M  V30 4277 H 407.464 4.7063 1.77529 0
M  V30 4278 H 407.164 5.85872 0.450314 0
M  V30 4279 H 408.688 5.94838 1.37842 0
M  V30 4280 H 410.102 5.66578 -0.875366 0
M  V30 4281 H 408.499 5.76681 -1.66007 0
M  V30 4282 H 409.569 4.40294 -2.03149 0
M  V30 4283 N 410.912 0.523116 1.48665 0
M  V30 4284 C 412.161 -0.01544 2.01694 0
M  V30 4285 C 412.474 -1.35975 1.40606 0
M  V30 4286 O 413.68 -1.98627 1.85093 0
M  V30 4287 C 412.136 -0.0779303 3.59816 0
M  V30 4288 C 411.744 1.26107 4.29885 0
M  V30 4289 C 413.488 -0.565678 4.20714 0
M  V30 4290 C 411.395 1.15954 5.79921 0
M  V30 4291 H 410.325 -0.00954163 0.75394 0
M  V30 4292 H 412.976 0.665865 1.70993 0
M  V30 4293 H 411.358 -0.824165 3.87329 0
M  V30 4294 H 412.532 2.02233 4.14051 0
M  V30 4295 H 410.847 1.68401 3.80828 0
M  V30 4296 H 413.444 -0.6595 5.30617 0
M  V30 4297 H 413.787 -1.56984 3.85567 0
M  V30 4298 H 414.32 0.12467 3.97605 0
M  V30 4299 H 411.059 2.13864 6.19631 0
M  V30 4300 H 410.579 0.439529 5.98187 0
M  V30 4301 H 412.258 0.847361 6.41427 0
M  V30 4302 N 412.39 -1.55475 0.257931 0
M  V30 4303 C 413.353 -2.20551 -0.623706 0
M  V30 4304 C 414.353 -1.17809 -1.09443 0
M  V30 4305 O 415.543 -1.42823 -0.997362 0
M  V30 4306 C 412.675 -2.85784 -1.8585 0
M  V30 4307 H 413.868 -2.99848 -0.0557743 0
M  V30 4308 H 411.421 -1.56298 0.0084422 0
M  V30 4309 H 412.156 -2.10453 -2.46739 0
M  V30 4310 H 411.941 -3.61057 -1.52907 0
M  V30 4311 H 413.431 -3.35553 -2.48584 0
M  V30 4312 N 413.868 0.0150385 -1.57593 0
M  V30 4313 C 414.801 1.04475 -2.0288 0
M  V30 4314 C 415.779 1.3436 -0.915764 0
M  V30 4315 O 416.963 1.46779 -1.18271 0
M  V30 4316 C 414.09 2.37608 -2.41371 0
M  V30 4317 C 413.136 2.23487 -3.63257 0
M  V30 4318 S 413.969 1.57505 -5.11813 0
M  V30 4319 C 415.125 2.921 -5.5356 0
M  V30 4320 H 415.358 0.65907 -2.89903 0
M  V30 4321 H 412.891 0.225452 -1.52745 0
M  V30 4322 H 414.849 3.14165 -2.64217 0
M  V30 4323 H 413.51 2.7332 -1.54775 0
M  V30 4324 H 412.703 3.21802 -3.87891 0
M  V30 4325 H 412.305 1.55074 -3.40335 0
M  V30 4326 H 414.597 3.88419 -5.55101 0
M  V30 4327 H 415.54 2.72184 -6.53698 0
M  V30 4328 H 415.948 2.95318 -4.8109 0
M  V30 4329 N 415.346 1.54954 0.287554 0
M  V30 4330 C 416.762 1.46469 0.633964 0
M  V30 4331 C 416.962 0.666865 1.90145 0
M  V30 4332 O 416.018 0.179906 2.51858 0
M  V30 4333 C 417.331 2.90556 0.774454 0
M  V30 4334 C 418.879 3.00681 0.869462 0
M  V30 4335 C 419.354 4.45993 1.04184 0
M  V30 4336 N 420.845 4.4976 1.10772 0
M  V30 4337 C 421.58 5.59393 1.25964 0
M  V30 4338 N 421.076 6.78923 1.37968 0
M  V30 4339 N 422.869 5.47107 1.28959 0
M  V30 4340 H 415.02 2.05288 -0.545041 0
M  V30 4341 H 417.283 0.930305 -0.182308 0
M  V30 4342 H 416.989 3.51594 -0.086207 0
M  V30 4343 H 416.863 3.38743 1.6593 0
M  V30 4344 H 419.25 2.39749 1.7206 0
M  V30 4345 H 419.331 2.55769 -0.0396831 0
M  V30 4346 H 418.975 5.07524 0.195422 0
M  V30 4347 H 418.905 4.88548 1.96542 0
M  V30 4348 H 421.396 3.63651 1.02794 0
M  V30 4349 H 421.709 7.58231 1.49353 0
M  V30 4350 H 420.054 6.81763 1.34999 0
M  V30 4351 H 423.245 4.52668 1.19202 0
M  V30 4352 H 423.418 6.32595 1.40455 0
M  V30 4353 N 416.824 -0.551391 1.4764 0
M  V30 4354 C 417.757 -1.6738 1.5511 0
M  V30 4355 C 418.735 -1.5753 0.402856 0
M  V30 4356 O 419.919 -1.78307 0.611475 0
M  V30 4357 C 417.046 -3.05661 1.45908 0
M  V30 4358 C 416.092 -3.33938 2.65307 0
M  V30 4359 S 416.925 -3.22553 4.27457 0
M  V30 4360 C 418.081 -4.63317 4.20818 0
M  V30 4361 H 418.314 -1.6079 2.50068 0
M  V30 4362 H 415.847 -0.732674 1.35909 0
M  V30 4363 H 417.805 -3.8542 1.41286 0
M  V30 4364 H 416.466 -3.09711 0.523248 0
M  V30 4365 H 415.659 -4.34761 2.54948 0
M  V30 4366 H 415.261 -2.61809 2.67081 0
M  V30 4367 H 417.553 -5.54391 3.89431 0
M  V30 4368 H 418.496 -4.78732 5.21748 0
M  V30 4369 H 418.904 -4.41636 3.51593 0
M  V30 4370 N 418.302 -1.35869 -0.798587 0
M  V30 4371 C 419.212 -1.31578 -1.94228 0
M  V30 4372 C 420.228 -0.21939 -1.72611 0
M  V30 4373 O 421.404 -0.450167 -1.96305 0
M  V30 4374 C 418.469 -1.09528 -3.28944 0
M  V30 4375 C 417.53 -2.28556 -3.63402 0
M  V30 4376 C 416.763 -2.07549 -4.9169 0
M  V30 4377 O 416.986 -1.046 -5.60727 0
M  V30 4378 O 415.92 -2.95106 -5.24591 0
M  V30 4379 H 419.746 -2.27847 -2.00796 0
M  V30 4380 H 417.331 -1.16322 -0.937526 0
M  V30 4381 H 419.213 -0.991127 -4.09579 0
M  V30 4382 H 417.888 -0.16315 -3.23289 0
M  V30 4383 H 416.795 -2.44538 -2.83112 0
M  V30 4384 H 418.128 -3.20244 -3.73771 0
M  V30 4385 N 419.78 1.02168 -1.19998 0
M  V30 4386 C 421.057 1.72816 -0.916191 0
M  V30 4387 C 421.437 2.03081 0.576325 0
M  V30 4388 O 420.785 1.69122 1.53656 0
M  V30 4389 C 420.995 2.9997 -1.78378 0
M  V30 4390 C 422.343 3.73336 -2.02251 0
M  V30 4391 O 423.367 3.09914 -1.75589 0
M  V30 4392 O 422.226 4.87371 -2.47249 0
M  V30 4393 H 419.32 0.752924 -0.342103 0
M  V30 4394 H 421.866 1.08062 -1.30846 0
M  V30 4395 H 420.638 2.73888 -2.79466 0
M  V30 4396 H 420.261 3.72464 -1.39126 0
M  V30 4397 N 421.258 1.00505 1.21394 0
M  V30 4398 C 422.483 0.706367 1.95001 0
M  V30 4399 C 422.908 -0.72463 1.73582 0
M  V30 4400 O 422.266 -1.49702 1.0227 0
M  V30 4401 C 422.314 1.03299 3.45487 0
M  V30 4402 O 421.418 0.138275 4.12168 0
M  V30 4403 H 420.759 0.263175 0.609619 0
M  V30 4404 H 423.289 1.34531 1.54151 0
M  V30 4405 H 423.299 0.979872 3.96059 0
M  V30 4406 H 421.974 2.07567 3.60401 0
M  V30 4407 H 420.551 0.247928 3.72075 0
M  V30 4408 N 422.737 -1.36956 0.779787 0
M  V30 4409 C 423.985 -1.99097 0.347079 0
M  V30 4410 C 424.306 -1.62206 -1.08232 0
M  V30 4411 O 423.576 -0.891373 -1.74446 0
M  V30 4412 H 422.156 -0.736409 0.125342 0
M  V30 4413 H 424.818 -1.67308 0.999696 0
M  V30 4414 H 423.914 -3.09107 0.431162 0
M  V30 4415 N 424.215 -0.530993 -1.48385 0
M  V30 4416 C 425.464 0.00474348 -2.01699 0
M  V30 4417 C 425.777 1.35227 -1.41325 0
M  V30 4418 O 426.983 1.97643 -1.86144 0
M  V30 4419 C 425.439 0.0588473 -3.59852 0
M  V30 4420 C 425.047 -1.28385 -4.2921 0
M  V30 4421 C 426.791 0.543358 -4.21008 0
M  V30 4422 C 424.698 -1.19028 -5.79298 0
M  V30 4423 H 423.628 0.00554317 -0.75398 0
M  V30 4424 H 426.279 -0.674924 -1.70637 0
M  V30 4425 H 424.661 0.803612 -3.8776 0
M  V30 4426 H 425.835 -2.04426 -4.12973 0
M  V30 4427 H 424.15 -1.70418 -3.7993 0
M  V30 4428 H 426.747 0.631351 -5.3096 0
M  V30 4429 H 427.09 1.54937 -3.86394 0
M  V30 4430 H 427.623 -0.145754 -3.97533 0
M  V30 4431 H 424.362 -2.17147 -6.18488 0
M  V30 4432 H 423.882 -0.471246 -5.97946 0
M  V30 4433 H 425.561 -0.881365 -6.40969 0
M  V30 4434 N 425.693 1.55336 -0.266172 0
M  V30 4435 C 426.923 2.03506 0.356239 0
M  V30 4436 C 427.331 1.14426 1.50676 0
M  V30 4437 O 426.674 0.155043 1.83045 0
M  V30 4438 C 426.736 3.47848 0.90785 0
M  V30 4439 C 426.4 4.56861 -0.112888 0
M  V30 4440 C 427.397 5.11528 -0.929264 0
M  V30 4441 C 425.082 5.01704 -0.244546 0
M  V30 4442 C 427.076 6.09549 -1.86357 0
M  V30 4443 C 424.763 5.99553 -1.18234 0
M  V30 4444 C 425.761 6.53356 -1.99036 0
M  V30 4445 O 425.449 7.49293 -2.91231 0
M  V30 4446 H 425.181 0.670444 0.08649 0
M  V30 4447 H 427.735 2.01598 -0.39337 0
M  V30 4448 H 425.965 3.46967 1.70737 0
M  V30 4449 H 427.654 3.79407 1.44239 0
M  V30 4450 H 428.42 4.77701 -0.838237 0
M  V30 4451 H 424.299 4.59477 0.374359 0
M  V30 4452 H 427.843 6.51469 -2.49467 0
M  V30 4453 H 423.74 6.32799 -1.27421 0
M  V30 4454 H 424.508 7.66978 -2.8581 0
M  V30 4455 N 427.171 -0.0066808 1.57599 0
M  V30 4456 C 428.417 -0.693947 1.90558 0
M  V30 4457 C 428.75 -1.73792 0.866594 0
M  V30 4458 O 428.025 -1.94156 -0.115548 0
M  V30 4459 C 428.308 -1.34317 3.34112 0
M  V30 4460 C 428.161 -0.311189 4.48722 0
M  V30 4461 C 429.48 -2.27116 3.7697 0
M  V30 4462 H 426.599 -0.250803 0.693013 0
M  V30 4463 H 429.241 0.043242 1.89951 0
M  V30 4464 H 427.391 -1.9715 3.3476 0
M  V30 4465 H 429.063 0.316944 4.6021 0
M  V30 4466 H 427.306 0.367253 4.32243 0
M  V30 4467 H 427.977 -0.804366 5.46108 0
M  V30 4468 H 430.453 -1.74306 3.77831 0
M  V30 4469 H 429.329 -2.69511 4.78179 0
M  V30 4470 H 429.59 -3.14743 3.10466 0
M  V30 4471 N 428.649 -1.55105 -0.279332 0
M  V30 4472 C 429.889 -1.7716 -1.01949 0
M  V30 4473 C 430.253 -0.557511 -1.83728 0
M  V30 4474 O 431.454 -0.656198 -2.60667 0
M  V30 4475 C 429.725 -3.0372 -1.88385 0
M  V30 4476 S 431.284 -3.46868 -2.68752 0
M  V30 4477 H 428.102 -0.62253 -0.343478 0
M  V30 4478 H 430.704 -1.93329 -0.290572 0
M  V30 4479 H 429.408 -3.90184 -1.2722 0
M  V30 4480 H 428.939 -2.902 -2.65608 0
M  V30 4481 H 430.954 -3.05643 -3.90892 0
M  V30 4482 N 430.127 0.543554 -1.4793 0
M  V30 4483 C 431.037 1.67657 -1.64098 0
M  V30 4484 C 432.053 1.65934 -0.523622 0
M  V30 4485 O 433.229 1.85133 -0.792943 0
M  V30 4486 C 430.294 3.04146 -1.66421 0
M  V30 4487 C 429.355 3.16831 -2.89684 0
M  V30 4488 C 428.588 4.46809 -2.91886 0
M  V30 4489 O 428.811 5.33095 -2.02895 0
M  V30 4490 O 427.745 4.63573 -3.83906 0
M  V30 4491 H 431.571 1.56957 -2.59997 0
M  V30 4492 H 429.156 0.715116 -1.31173 0
M  V30 4493 H 431.038 3.85346 -1.70548 0
M  V30 4494 H 429.713 3.152 -0.736923 0
M  V30 4495 H 428.62 2.34977 -2.91095 0
M  V30 4496 H 429.953 3.10687 -3.81752 0
M  V30 4497 N 431.605 1.3629 0.791371 0
M  V30 4498 C 432.853 1.30154 1.5461 0
M  V30 4499 C 433.174 -0.119409 1.94634 0
M  V30 4500 O 432.444 -1.05924 1.64794 0
M  V30 4501 H 431.024 0.478784 0.573389 0
M  V30 4502 H 433.686 1.70565 0.94306 0
M  V30 4503 H 432.782 1.92762 2.45457 0
M  V30 4504 N 433.083 -1.0153 1.20538 0
M  V30 4505 C 434.329 -1.75408 1.01783 0
M  V30 4506 C 434.662 -1.88943 -0.448814 0
M  V30 4507 O 433.937 -1.4162 -1.33319 0
M  V30 4508 C 434.22 -3.17255 1.70356 0
M  V30 4509 C 434.073 -3.11508 3.24473 0
M  V30 4510 C 435.392 -4.15955 1.43769 0
M  V30 4511 H 432.511 -0.636713 0.371167 0
M  V30 4512 H 435.153 -1.18436 1.4857 0
M  V30 4513 H 433.303 -3.65898 1.30578 0
M  V30 4514 H 434.975 -2.70658 3.73553 0
M  V30 4515 H 433.218 -2.4887 3.55311 0
M  V30 4516 H 433.889 -4.11784 3.67611 0
M  V30 4517 H 436.365 -3.75973 1.7828 0
M  V30 4518 H 435.241 -5.13368 1.94279 0
M  V30 4519 H 435.502 -4.40586 0.365564 0
M  V30 4520 N 434.561 -1.01147 -1.20859 0
M  V30 4521 C 435.509 -0.57059 -2.25493 0
M  V30 4522 C 436.503 0.388109 -1.64894 0
M  V30 4523 O 437.709 0.258592 -1.78133 0
M  V30 4524 H 434.084 -0.166191 -0.733406 0
M  V30 4525 H 436.055 -1.46411 -2.60012 0
M  V30 4526 C 434.804 0.0805241 -3.47607 0
M  V30 4527 H 434.127 -0.648156 -3.94511 0
M  V30 4528 H 435.567 0.352197 -4.22535 0
M  V30 4529 C 434.026 1.32175 -3.09889 0
M  V30 4530 O 434.556 2.41553 -3.20959 0
M  V30 4531 N 432.762 1.20392 -2.64488 0
M  V30 4532 H 432.309 0.313905 -2.5568 0
M  V30 4533 H 432.267 2.03541 -2.39621 0
M  V30 4534 N 436.039 1.36541 -0.78704 0
M  V30 4535 C 436.969 2.32659 -0.197992 0
M  V30 4536 C 437.95 1.56533 0.665697 0
M  V30 4537 O 439.135 1.84698 0.60001 0
M  V30 4538 C 436.265 3.40778 0.669901 0
M  V30 4539 C 435.219 4.27897 -0.0937039 0
M  V30 4540 C 434.545 5.27163 0.894629 0
M  V30 4541 C 435.845 5.06334 -1.28154 0
M  V30 4542 H 437.539 2.82171 -1.00099 0
M  V30 4543 H 435.085 1.35665 -0.482793 0
M  V30 4544 H 437.038 4.07008 1.09191 0
M  V30 4545 H 435.762 2.89827 1.50558 0
M  V30 4546 H 434.421 3.6322 -0.49666 0
M  V30 4547 H 434.069 4.72486 1.72527 0
M  V30 4548 H 433.769 5.86317 0.388149 0
M  V30 4549 H 435.293 5.96266 1.31525 0
M  V30 4550 H 436.707 5.65617 -0.93541 0
M  V30 4551 H 435.104 5.74888 -1.72115 0
M  V30 4552 H 436.174 4.38114 -2.07807 0
M  V30 4553 N 437.518 0.538854 1.48102 0
M  V30 4554 C 438.767 0.0059532 2.01699 0
M  V30 4555 C 439.08 -1.34476 1.42041 0
M  V30 4556 O 440.286 -1.96653 1.87189 0
M  V30 4557 C 438.742 -0.0397627 3.59878 0
M  V30 4558 C 438.35 1.30659 4.28523 0
M  V30 4559 C 440.094 -0.521024 4.2129 0
M  V30 4560 C 438.001 1.22098 5.78659 0
M  V30 4561 H 436.931 -0.00154456 0.753998 0
M  V30 4562 H 439.582 0.683963 1.70277 0
M  V30 4563 H 437.964 -0.783037 3.88181 0
M  V30 4564 H 439.138 2.06613 4.11883 0
M  V30 4565 H 437.453 1.7243 3.79021 0
M  V30 4566 H 440.05 -0.603184 5.31287 0
M  V30 4567 H 440.393 -1.52885 3.8721 0
M  V30 4568 H 440.926 0.166834 3.9745 0
M  V30 4569 H 437.665 2.20424 6.17328 0
M  V30 4570 H 437.185 0.50295 5.97688 0
M  V30 4571 H 438.864 0.915345 6.40492 0
M  V30 4572 N 438.996 -1.55193 0.274407 0
M  V30 4573 C 440.244 -1.99187 -0.341902 0
M  V30 4574 C 440.565 -1.16422 -1.56431 0
M  V30 4575 O 439.835 -0.253573 -1.94252 0
M  V30 4576 H 438.415 -0.735721 -0.129317 0
M  V30 4577 H 441.077 -1.91168 0.379578 0
M  V30 4578 H 440.173 -3.05629 -0.632253 0
M  V30 4579 N 440.474 -0.00167713 -1.576 0
M  V30 4580 C 441.421 0.989195 -2.08527 0
M  V30 4581 C 442.391 1.34031 -0.981065 0
M  V30 4582 O 443.576 1.43839 -1.2536 0
M  V30 4583 C 440.716 2.27537 -2.59463 0
M  V30 4584 C 439.829 1.98314 -3.83791 0
M  V30 4585 C 438.964 3.21025 -4.23222 0
M  V30 4586 C 438.003 2.87495 -5.40382 0
M  V30 4587 N 437.14 4.02749 -5.75098 0
M  V30 4588 H 441.98 0.547973 -2.92919 0
M  V30 4589 H 439.517 0.258917 -1.44803 0
M  V30 4590 H 441.475 3.02729 -2.87073 0
M  V30 4591 H 440.105 2.69325 -1.77943 0
M  V30 4592 H 439.157 1.13482 -3.63078 0
M  V30 4593 H 440.469 1.69601 -4.69081 0
M  V30 4594 H 439.623 4.04561 -4.52123 0
M  V30 4595 H 438.362 3.52877 -3.36644 0
M  V30 4596 H 437.367 2.02367 -5.11202 0
M  V30 4597 H 438.592 2.56889 -6.28637 0
M  V30 4598 H 436.538 4.34494 -4.91478 0
M  V30 4599 H 436.455 3.77566 -6.54966 0
M  V30 4600 H 437.723 4.87068 -6.08592 0
M  V30 4601 N 441.952 1.55251 0.271103 0
M  V30 4602 C 442.9 1.89054 1.35504 0
M  V30 4603 C 443.894 0.767064 1.51038 0
M  V30 4604 O 445.1 0.951429 1.528 0
M  V30 4605 H 441.475 0.600072 0.45323 0
M  V30 4606 H 443.446 2.79598 1.04247 0
M  V30 4607 C 442.195 2.18068 2.70817 0
M  V30 4608 H 441.518 3.04005 2.59656 0
M  V30 4609 H 442.958 2.4564 3.45597 0
M  V30 4610 C 441.417 0.988901 3.2206 0
M  V30 4611 O 441.947 0.224501 4.01072 0
M  V30 4612 N 440.153 0.786085 2.79766 0
M  V30 4613 H 439.7 1.40937 2.15626 0
M  V30 4614 H 439.658 -0.00969349 3.14399 0
M  V30 4615 N 443.43 -0.535701 1.48216 0
M  V30 4616 C 444.846 -0.863701 1.3421 0
M  V30 4617 C 445.046 -1.98458 0.34879 0
M  V30 4618 O 444.102 -2.51432 -0.23204 0
M  V30 4619 C 445.415 -1.23662 2.74095 0
M  V30 4620 C 446.963 -1.34683 2.82541 0
M  V30 4621 C 447.438 -1.75322 4.23115 0
M  V30 4622 N 448.929 -1.82434 4.2576 0
M  V30 4623 C 449.664 -2.15252 5.31464 0
M  V30 4624 N 449.16 -2.46533 6.47452 0
M  V30 4625 N 450.953 -2.16209 5.18855 0
M  V30 4626 H 443.104 0.203965 2.11418 0
M  V30 4627 H 445.367 0.0286033 0.947568 0
M  V30 4628 H 445.073 -0.486674 3.48316 0
M  V30 4629 H 444.947 -2.18805 3.07253 0
M  V30 4630 H 447.334 -2.08756 2.08579 0
M  V30 4631 H 447.415 -0.376756 2.5301 0
M  V30 4632 H 447.059 -1.01812 4.97591 0
M  V30 4633 H 446.989 -2.7337 4.50085 0
M  V30 4634 H 449.48 -1.6056 3.42095 0
M  V30 4635 H 449.793 -2.70662 7.23852 0
M  V30 4636 H 448.138 -2.44065 6.50736 0
M  V30 4637 H 451.329 -1.91224 4.2726 0
M  V30 4638 H 451.502 -2.41453 6.01335 0
M  V30 4639 N 444.908 -1.36708 -0.784132 0
M  V30 4640 C 445.855 -1.31466 -1.89698 0
M  V30 4641 C 446.825 -0.18239 -1.65096 0
M  V30 4642 O 448.01 -0.369762 -1.87183 0
M  V30 4643 C 445.15 -1.1151 -3.26588 0
M  V30 4644 C 444.263 -2.33859 -3.63227 0
M  V30 4645 C 443.398 -2.06873 -4.89262 0
M  V30 4646 C 442.437 -3.25154 -5.18595 0
M  V30 4647 N 441.574 -2.978 -6.35814 0
M  V30 4648 H 446.414 -2.26619 -1.93515 0
M  V30 4649 H 443.951 -1.12625 -0.946256 0
M  V30 4650 H 445.909 -0.979653 -4.05535 0
M  V30 4651 H 444.539 -0.200103 -3.22179 0
M  V30 4652 H 443.591 -2.58188 -2.79362 0
M  V30 4653 H 444.903 -3.22109 -3.8085 0
M  V30 4654 H 444.057 -1.90289 -5.76086 0
M  V30 4655 H 442.796 -1.15942 -4.73718 0
M  V30 4656 H 441.801 -3.42292 -4.30251 0
M  V30 4657 H 443.026 -4.1692 -5.36055 0
M  V30 4658 H 440.972 -2.09485 -6.21653 0
M  V30 4659 H 440.889 -3.7959 -6.53794 0
M  V30 4660 H 442.157 -2.84805 -7.25607 0
M  V30 4661 N 446.386 1.0089 -1.21074 0
M  V30 4662 C 447.296 2.13039 -0.982425 0
M  V30 4663 C 448.312 1.73881 0.0642161 0
M  V30 4664 O 449.488 2.01012 -0.12496 0
M  V30 4665 C 446.553 3.42377 -0.545803 0
M  V30 4666 C 445.614 3.95731 -1.6642 0
M  V30 4667 C 444.847 5.18896 -1.24832 0
M  V30 4668 O 445.07 5.70273 -0.120265 0
M  V30 4669 O 444.004 5.65597 -2.05873 0
M  V30 4670 H 447.83 2.35175 -1.92163 0
M  V30 4671 H 445.415 1.1142 -0.995285 0
M  V30 4672 H 447.297 4.20244 -0.311912 0
M  V30 4673 H 445.972 3.21639 0.364727 0
M  V30 4674 H 444.879 3.19108 -1.95246 0
M  V30 4675 H 446.212 4.20872 -2.55201 0
M  V30 4676 N 447.864 1.01787 1.20321 0
M  V30 4677 C 449.11 0.708985 1.90003 0
M  V30 4678 C 449.443 -0.759572 1.78729 0
M  V30 4679 O 448.718 -1.55198 1.17234 0
M  V30 4680 C 449.001 1.1469 3.41348 0
M  V30 4681 C 448.854 2.67586 3.61549 0
M  V30 4682 C 450.173 0.71915 4.34185 0
M  V30 4683 H 447.292 0.259034 0.689978 0
M  V30 4684 H 449.934 1.26584 1.41692 0
M  V30 4685 H 448.084 0.673128 3.82624 0
M  V30 4686 H 449.756 3.22826 3.29517 0
M  V30 4687 H 447.999 3.085 3.04976 0
M  V30 4688 H 448.67 2.93281 4.67643 0
M  V30 4689 H 451.146 1.12647 4.00562 0
M  V30 4690 H 450.022 1.05358 5.38694 0
M  V30 4691 H 450.283 -0.379111 4.40472 0
M  V30 4692 N 449.342 -1.36122 0.79427 0
M  V30 4693 C 450.252 -2.33769 0.197296 0
M  V30 4694 C 451.268 -1.61276 -0.653153 0
M  V30 4695 O 452.444 -1.9323 -0.5678 0
M  V30 4696 C 449.509 -3.40474 -0.654098 0
M  V30 4697 C 448.57 -4.28759 0.215411 0
M  V30 4698 C 447.803 -5.30368 -0.595443 0
M  V30 4699 O 448.026 -5.40211 -1.83107 0
M  V30 4700 O 446.96 -6.019 0.00721351 0
M  V30 4701 H 450.786 -2.86597 1.00478 0
M  V30 4702 H 448.371 -1.38676 0.555818 0
M  V30 4703 H 450.253 -4.05703 -1.13944 0
M  V30 4704 H 448.928 -2.89937 -1.43938 0
M  V30 4705 H 447.835 -3.66554 0.747615 0
M  V30 4706 H 449.168 -4.82661 0.964332 0
M  V30 4707 N 450.82 -0.546701 -1.47814 0
M  V30 4708 C 451.75 0.195317 -2.32682 0
M  V30 4709 C 452.731 0.918981 -1.43139 0
M  V30 4710 O 453.916 0.901501 -1.72008 0
M  V30 4711 C 451.046 1.23237 -3.247 0
M  V30 4712 C 450 0.625818 -4.234 0
M  V30 4713 C 449.326 1.76674 -5.04669 0
M  V30 4714 C 450.626 -0.413515 -5.2066 0
M  V30 4715 H 452.32 -0.513184 -2.94969 0
M  V30 4716 H 449.866 -0.248241 -1.41844 0
M  V30 4717 H 451.819 1.75955 -3.82907 0
M  V30 4718 H 450.543 1.97067 -2.60446 0
M  V30 4719 H 449.202 0.120023 -3.66403 0
M  V30 4720 H 448.85 2.49383 -4.36826 0
M  V30 4721 H 448.55 1.36673 -5.71484 0
M  V30 4722 H 450.074 2.29738 -5.65732 0
M  V30 4723 H 451.488 0.0272042 -5.73294 0
M  V30 4724 H 449.885 -0.731825 -5.95621 0
M  V30 4725 H 450.955 -1.31325 -4.66778 0
M  V30 4726 N 452.299 1.55045 -0.282633 0
M  V30 4727 C 453.548 1.98938 0.332667 0
M  V30 4728 C 453.861 1.17455 1.56409 0
M  V30 4729 O 455.067 1.51527 2.25282 0
M  V30 4730 C 453.523 3.54105 0.643226 0
M  V30 4731 C 453.131 4.44374 -0.568814 0
M  V30 4732 C 454.875 4.06569 1.22074 0
M  V30 4733 C 452.782 5.90943 -0.232426 0
M  V30 4734 H 451.712 0.743043 0.128075 0
M  V30 4735 H 454.363 1.79341 -0.388464 0
M  V30 4736 H 452.745 3.69532 1.42346 0
M  V30 4737 H 453.919 4.40718 -1.34551 0
M  V30 4738 H 452.234 4.02585 -1.06369 0
M  V30 4739 H 454.831 5.13626 1.48635 0
M  V30 4740 H 455.174 3.56057 2.15707 0
M  V30 4741 H 455.707 3.94612 0.502621 0
M  V30 4742 H 452.446 6.45567 -1.13683 0
M  V30 4743 H 451.966 5.9765 0.507357 0
M  V30 4744 H 453.645 6.4677 0.172657 0
M  V30 4745 N 453.777 0.010035 1.57597 0
M  V30 4746 C 455.023 -0.673697 1.91283 0
M  V30 4747 C 455.356 -1.72863 0.884979 0
M  V30 4748 O 454.631 -1.94268 -0.0949487 0
M  V30 4749 C 454.914 -1.30766 3.35518 0
M  V30 4750 C 454.767 -0.263578 4.49027 0
M  V30 4751 C 456.086 -2.23105 3.79358 0
M  V30 4752 H 453.205 -0.243439 0.695634 0
M  V30 4753 H 455.847 0.0633864 1.89894 0
M  V30 4754 H 453.997 -1.93588 3.36832 0
M  V30 4755 H 455.669 0.365738 4.59848 0
M  V30 4756 H 453.912 0.413077 4.31829 0
M  V30 4757 H 454.583 -0.746398 5.4693 0
M  V30 4758 H 457.059 -1.70289 3.79659 0
M  V30 4759 H 455.935 -2.64424 4.81011 0
M  V30 4760 H 456.196 -3.11433 3.13787 0
M  V30 4761 N 455.255 -1.55392 -0.262866 0
M  V30 4762 C 456.187 -1.85392 -1.34768 0
M  V30 4763 C 457.2 -0.739069 -1.45057 0
M  V30 4764 O 458.389 -1.01703 -1.46693 0
M  V30 4765 C 455.489 -2.01088 -2.72795 0
M  V30 4766 C 454.662 -3.31828 -2.84972 0
M  V30 4767 C 453.721 -3.37464 -4.03738 0
M  V30 4768 O 452.747 -4.10778 -3.94018 0
M  V30 4769 N 453.949 -2.65599 -5.16176 0
M  V30 4770 H 456.714 -2.79029 -1.09375 0
M  V30 4771 H 454.275 -1.55434 -0.452981 0
M  V30 4772 H 456.267 -2.02217 -3.50557 0
M  V30 4773 H 454.837 -1.1427 -2.90966 0
M  V30 4774 H 454.057 -3.43152 -1.94012 0
M  V30 4775 H 455.345 -4.18032 -2.90045 0
M  V30 4776 H 454.743 -2.05736 -5.26962 0
M  V30 4777 H 453.3 -2.72439 -5.92132 0
M  V30 4778 N 456.733 0.527833 -1.48498 0
M  V30 4779 C 457.643 1.65907 -1.65867 0
M  V30 4780 C 458.659 1.6537 -0.541192 0
M  V30 4781 O 459.835 1.84282 -0.812534 0
M  V30 4782 C 456.9 3.02364 -1.69637 0
M  V30 4783 C 455.961 3.1374 -2.93028 0
M  V30 4784 C 455.194 4.43688 -2.96609 0
M  V30 4785 O 455.417 5.30913 -2.08538 0
M  V30 4786 O 454.351 4.59475 -3.88802 0
M  V30 4787 H 458.177 1.5419 -2.61647 0
M  V30 4788 H 455.762 0.701163 -1.31924 0
M  V30 4789 H 457.644 3.83515 -1.74625 0
M  V30 4790 H 456.319 3.14401 -0.770312 0
M  V30 4791 H 455.226 2.31877 -2.93571 0
M  V30 4792 H 456.559 3.06621 -3.85026 0
M  V30 4793 N 458.211 1.37122 0.776871 0
M  V30 4794 C 459.158 1.3247 1.88998 0
M  V30 4795 C 460.128 0.191143 1.64997 0
M  V30 4796 O 461.313 0.379683 1.86984 0
M  V30 4797 C 458.453 1.13241 3.25992 0
M  V30 4798 C 457.566 2.35782 3.61982 0
M  V30 4799 C 456.701 2.09465 4.88158 0
M  V30 4800 C 455.74 3.279 5.16864 0
M  V30 4801 N 454.877 3.01167 6.34226 0
M  V30 4802 H 459.717 2.27642 1.9231 0
M  V30 4803 H 457.254 1.13125 0.94027 0
M  V30 4804 H 459.212 1.00115 4.0501 0
M  V30 4805 H 457.842 0.217186 3.22069 0
M  V30 4806 H 456.894 2.59666 2.77989 0
M  V30 4807 H 458.206 3.24125 3.79137 0
M  V30 4808 H 457.36 1.93341 5.75069 0
M  V30 4809 H 456.099 1.18452 4.73097 0
M  V30 4810 H 455.104 3.44569 4.2843 0
M  V30 4811 H 456.329 4.19757 5.33836 0
M  V30 4812 H 454.275 2.12779 6.20533 0
M  V30 4813 H 454.192 3.83052 6.51772 0
M  V30 4814 H 455.46 2.88649 7.24087 0
M  V30 4815 N 459.689 -1.00246 1.21608 0
M  V30 4816 C 461.1 -1.55511 1.03312 0
M  V30 4817 C 461.451 -1.91946 -0.406332 0
M  V30 4818 O 460.576 -1.73753 -1.28992 0
M  V30 4819 C 461.171 -2.82576 1.86913 0
M  V30 4820 C 459.73 -3.34318 1.72941 0
M  V30 4821 C 458.877 -2.07487 1.83968 0
M  V30 4822 H 461.828 -0.824638 1.35593 0
M  V30 4823 H 461.849 -3.54559 1.38087 0
M  V30 4824 H 461.361 -2.56026 2.91672 0
M  V30 4825 H 459.462 -3.65797 0.70877 0
M  V30 4826 H 459.575 -4.05566 2.55055 0
M  V30 4827 H 457.939 -2.20603 1.27304 0
M  V30 4828 H 458.722 -1.83346 2.9024 0
M  V30 4829 N 461.167 -1.02423 -1.1978 0
M  V30 4830 C 462.414 -0.717988 -1.89344 0
M  V30 4831 C 462.742 0.753036 -1.79331 0
M  V30 4832 O 461.997 1.56355 -1.17692 0
M  V30 4833 C 462.296 -1.1088 -3.39765 0
M  V30 4834 C 461.962 -2.57731 -3.6998 0
M  V30 4835 C 460.624 -2.97854 -3.77937 0
M  V30 4836 C 462.976 -3.52763 -3.83677 0
M  V30 4837 C 460.304 -4.31931 -3.97054 0
M  V30 4838 C 462.656 -4.86538 -4.04306 0
M  V30 4839 C 461.32 -5.26356 -4.10494 0
M  V30 4840 H 460.59 -0.26273 -0.692859 0
M  V30 4841 H 463.237 -1.28623 -1.41875 0
M  V30 4842 H 461.542 -0.459094 -3.89101 0
M  V30 4843 H 463.239 -0.849432 -3.919 0
M  V30 4844 H 459.829 -2.25646 -3.64393 0
M  V30 4845 H 464.013 -3.2292 -3.76877 0
M  V30 4846 H 459.269 -4.62324 -4.00083 0
M  V30 4847 H 463.443 -5.60093 -4.13846 0
M  V30 4848 H 461.07 -6.3026 -4.2506 0
M  V30 4849 N 462.645 1.35699 -0.801477 0
M  V30 4850 C 463.873 2.03157 -0.391768 0
M  V30 4851 C 464.288 1.60412 0.995668 0
M  V30 4852 O 463.645 0.799228 1.64069 0
M  V30 4853 C 463.696 3.58566 -0.459671 0
M  V30 4854 O 463.417 3.99756 -1.7924 0
M  V30 4855 C 464.918 4.4328 -0.0421205 0
M  V30 4856 H 462.138 0.651688 -0.159825 0
M  V30 4857 H 464.682 1.73426 -1.08368 0
M  V30 4858 H 462.837 3.86963 0.183939 0
M  V30 4859 H 463.251 4.94387 -1.75162 0
M  V30 4860 H 464.725 5.51821 -0.140754 0
M  V30 4861 H 465.202 4.27383 1.01196 0
M  V30 4862 H 465.808 4.20168 -0.658687 0
M  V30 4863 N 464.123 0.554532 1.47522 0
M  V30 4864 C 465.369 0.0295227 2.02779 0
M  V30 4865 C 465.702 -1.31582 1.42828 0
M  V30 4866 O 464.977 -1.85561 0.582872 0
M  V30 4867 C 465.26 -0.0664057 3.60039 0
M  V30 4868 C 465.113 1.30585 4.30427 0
M  V30 4869 C 466.432 -0.781162 4.33112 0
M  V30 4870 H 463.551 0.0122027 0.736899 0
M  V30 4871 H 466.193 0.716305 1.7598 0
M  V30 4872 H 464.343 -0.651307 3.83002 0
M  V30 4873 H 466.015 1.93374 4.18813 0
M  V30 4874 H 464.258 1.88125 3.90886 0
M  V30 4875 H 464.929 1.19147 5.38988 0
M  V30 4876 H 467.405 -0.284565 4.15126 0
M  V30 4877 H 466.281 -0.817237 5.42782 0
M  V30 4878 H 466.542 -1.83672 4.0214 0
M  V30 4879 N 465.601 -1.54893 0.290851 0
M  V30 4880 C 466.511 -2.26812 -0.59945 0
M  V30 4881 C 467.527 -1.29963 -1.15696 0
M  V30 4882 O 468.703 -1.62928 -1.18391 0
M  V30 4883 C 465.768 -2.98716 -1.75982 0
M  V30 4884 C 464.829 -4.1108 -1.2374 0
M  V30 4885 C 464.062 -4.79546 -2.34246 0
M  V30 4886 O 464.285 -4.47309 -3.53936 0
M  V30 4887 O 463.219 -5.67165 -2.01512 0
M  V30 4888 H 467.045 -3.03696 -0.0163561 0
M  V30 4889 H 464.63 -1.49289 0.0576755 0
M  V30 4890 H 466.512 -3.43851 -2.43607 0
M  V30 4891 H 465.187 -2.24737 -2.3297 0
M  V30 4892 H 464.094 -3.70367 -0.527163 0
M  V30 4893 H 465.427 -4.87007 -0.71307 0
M  V30 4894 N 467.08 -0.0183926 -1.57589 0
M  V30 4895 C 468.329 0.66185 -1.90532 0
M  V30 4896 C 468.642 1.73904 -0.895366 0
M  V30 4897 O 469.848 2.47518 -1.11566 0
M  V30 4898 C 468.304 1.22844 -3.38286 0
M  V30 4899 C 467.912 0.185103 -4.47617 0
M  V30 4900 C 469.656 1.88581 -3.80312 0
M  V30 4901 C 467.563 0.762723 -5.86461 0
M  V30 4902 H 466.493 0.250972 -0.711006 0
M  V30 4903 H 469.144 -0.0819435 -1.83317 0
M  V30 4904 H 467.526 2.0235 -3.40398 0
M  V30 4905 H 468.7 -0.58671 -4.5705 0
M  V30 4906 H 467.015 -0.372889 -4.14727 0
M  V30 4907 H 469.612 2.32735 -4.81392 0
M  V30 4908 H 469.955 2.72408 -3.14801 0
M  V30 4909 H 470.488 1.15782 -3.80578 0
M  V30 4910 H 467.227 -0.0371713 -6.55489 0
M  V30 4911 H 466.747 1.50327 -5.80656 0
M  V30 4912 H 468.426 1.25576 -6.34697 0
M  V30 4913 N 468.558 1.5553 0.254621 0
M  V30 4914 C 469.783 1.81383 1.00573 0
M  V30 4915 C 470.208 0.594419 1.78461 0
M  V30 4916 O 469.566 -0.456403 1.75461 0
M  V30 4917 C 469.614 3.04892 1.92545 0
M  V30 4918 O 468.718 2.81266 3.01601 0
M  V30 4919 H 468.059 0.598969 0.286587 0
M  V30 4920 H 470.589 2.02703 0.277952 0
M  V30 4921 H 470.599 3.34119 2.34155 0
M  V30 4922 H 469.274 3.93287 1.3527 0
M  V30 4923 H 467.851 2.63185 2.64174 0
M  V30 4924 N 470.036 -0.519951 1.48776 0
M  V30 4925 C 471.447 -1.10177 1.50725 0
M  V30 4926 C 471.798 -1.94153 0.282678 0
M  V30 4927 O 470.923 -2.07645 -0.609298 0
M  V30 4928 C 471.518 -2.00482 2.73116 0
M  V30 4929 C 470.077 -2.53862 2.77905 0
M  V30 4930 C 469.224 -1.31047 2.44381 0
M  V30 4931 H 472.175 -0.30473 1.55747 0
M  V30 4932 H 472.196 -2.8491 2.52203 0
M  V30 4933 H 471.708 -1.39335 3.62225 0
M  V30 4934 H 469.809 -3.18702 1.93029 0
M  V30 4935 H 469.922 -2.9231 3.79594 0
M  V30 4936 H 468.286 -1.62953 1.95751 0
M  V30 4937 H 469.069 -0.71637 3.35743 0
M  V30 4938 N 471.514 -1.37532 -0.769588 0
M  V30 4939 C 472.762 -1.32597 -1.5252 0
M  V30 4940 C 473.083 0.0884294 -1.94799 0
M  V30 4941 O 472.353 1.03289 -1.66458 0
M  V30 4942 H 470.933 -0.487846 -0.565699 0
M  V30 4943 H 473.595 -1.72044 -0.915806 0
M  V30 4944 H 472.691 -1.96643 -2.42359 0
M  V30 4945 N 472.992 0.995999 -1.22138 0
M  V30 4946 C 474.403 1.54961 -1.04135 0
M  V30 4947 C 474.754 1.92159 0.396147 0
M  V30 4948 O 473.879 1.74435 1.28069 0
M  V30 4949 C 474.474 2.81581 -1.88408 0
M  V30 4950 C 473.033 3.33396 -1.74712 0
M  V30 4951 C 472.18 2.06509 -1.85066 0
M  V30 4952 H 475.131 0.817436 -1.36028 0
M  V30 4953 H 475.152 3.53822 -1.39966 0
M  V30 4954 H 474.664 2.54476 -2.93025 0
M  V30 4955 H 472.765 3.65416 -0.728159 0
M  V30 4956 H 472.878 4.04208 -2.57202 0
M  V30 4957 H 471.242 2.19925 -1.28472 0
M  V30 4958 H 472.025 1.81804 -2.91208 0
M  V30 4959 N 474.47 1.03057 1.19235 0
M  V30 4960 C 475.886 0.747947 1.40989 0
M  V30 4961 C 476.086 -0.666752 1.90149 0
M  V30 4962 O 475.142 -1.43249 2.07933 0
M  V30 4963 C 476.455 1.7855 2.41951 0
M  V30 4964 C 478.003 1.80524 2.55695 0
M  V30 4965 C 478.478 2.83243 3.59913 0
M  V30 4966 N 479.969 2.8207 3.67411 0
M  V30 4967 C 480.704 3.58204 4.47747 0
M  V30 4968 N 480.2 4.44057 5.31775 0
M  V30 4969 N 481.993 3.46738 4.42413 0
M  V30 4970 H 474.144 1.94367 0.856468 0
M  V30 4971 H 476.407 0.840412 0.438647 0
M  V30 4972 H 476.113 2.79973 2.12857 0
M  V30 4973 H 475.987 1.6092 3.41152 0
M  V30 4974 H 478.374 0.79778 2.84112 0
M  V30 4975 H 478.455 2.02229 1.56643 0
M  V30 4976 H 478.099 3.84161 3.32239 0
M  V30 4977 H 478.029 2.58795 4.5862 0
M  V30 4978 H 480.52 2.19803 3.074 0
M  V30 4979 H 480.833 4.98884 5.90199 0
M  V30 4980 H 479.178 4.48129 5.3123 0
M  V30 4981 H 482.369 2.79077 3.75811 0
M  V30 4982 H 482.542 4.06322 5.04783 0
M  V30 4983 N 475.948 -1.35272 0.808662 0
M  V30 4984 C 477.197 -1.97963 0.386483 0
M  V30 4985 C 477.51 -1.64866 -1.05255 0
M  V30 4986 O 478.716 -2.20937 -1.57794 0
M  V30 4987 C 477.172 -3.54162 0.640096 0
M  V30 4988 C 476.78 -3.96166 2.0918 0
M  V30 4989 C 478.524 -4.23553 0.283376 0
M  V30 4990 C 476.431 -5.4522 2.29106 0
M  V30 4991 H 475.361 -0.740742 0.140774 0
M  V30 4992 H 478.012 -1.5431 0.993012 0
M  V30 4993 H 476.394 -3.95983 -0.0364117 0
M  V30 4994 H 477.568 -3.65491 2.80629 0
M  V30 4995 H 475.883 -3.3967 2.40859 0
M  V30 4996 H 478.48 -5.33124 0.410273 0
M  V30 4997 H 478.823 -4.09105 -0.770659 0
M  V30 4998 H 479.356 -3.8716 0.913884 0
M  V30 4999 H 476.095 -5.64638 3.32962 0
M  V30 5000 H 475.615 -5.77457 1.62184 0
M  V30 5001 H 477.294 -6.1171 2.1076 0
M  V30 5002 N 477.426 -0.562348 -1.47226 0
M  V30 5003 C 478.389 0.172056 -2.28553 0
M  V30 5004 C 479.389 0.837928 -1.37242 0
M  V30 5005 O 480.579 0.693001 -1.59822 0
M  V30 5006 C 477.711 1.25223 -3.17068 0
M  V30 5007 H 478.904 -0.542401 -2.94954 0
M  V30 5008 H 476.457 -0.319493 -1.53 0
M  V30 5009 H 477.192 1.99892 -2.55369 0
M  V30 5010 H 476.977 0.779515 -3.84273 0
M  V30 5011 H 478.467 1.76791 -3.78332 0
M  V30 5012 N 478.904 1.54736 -0.299062 0
M  V30 5013 C 479.867 2.22127 0.565012 0
M  V30 5014 C 480.867 1.20669 1.06281 0
M  V30 5015 O 482.057 1.45417 0.959145 0
M  V30 5016 C 479.189 2.90611 1.78208 0
M  V30 5017 H 480.382 2.99891 -0.0237448 0
M  V30 5018 H 477.935 1.5622 -0.0498788 0
M  V30 5019 H 478.67 2.16921 2.41072 0
M  V30 5020 H 478.455 3.64984 1.43281 0
M  V30 5021 H 479.945 3.42026 2.396 0
M  V30 5022 N 480.382 0.0267497 1.57577 0
M  V30 5023 C 481.314 -0.984594 2.06974 0
M  V30 5024 C 482.327 -1.29032 0.992705 0
M  V30 5025 O 483.516 -1.25539 1.26895 0
M  V30 5026 C 480.616 -2.31262 2.47732 0
M  V30 5027 C 479.789 -2.1924 3.78487 0
M  V30 5028 C 478.848 -3.34956 4.05821 0
M  V30 5029 O 477.874 -3.11948 4.76106 0
M  V30 5030 N 479.076 -4.58672 3.55809 0
M  V30 5031 H 481.841 -0.563143 2.94362 0
M  V30 5032 H 479.402 -0.160061 1.61107 0
M  V30 5033 H 481.394 -3.07496 2.63112 0
M  V30 5034 H 479.964 -2.65056 1.65723 0
M  V30 5035 H 479.184 -1.27747 3.72927 0
M  V30 5036 H 480.472 -2.08409 4.64158 0
M  V30 5037 H 479.87 -4.8026 2.98942 0
M  V30 5038 H 478.427 -5.32083 3.76472 0
M  V30 5039 N 481.861 -1.55662 -0.24637 0
M  V30 5040 C 483.11 -1.7672 -0.972254 0
M  V30 5041 C 483.423 -0.59078 -1.86465 0
M  V30 5042 O 484.629 -0.684391 -2.62732 0
M  V30 5043 C 483.085 -3.12869 -1.7788 0
M  V30 5044 C 482.693 -4.38161 -0.933768 0
M  V30 5045 C 484.437 -3.43265 -2.49738 0
M  V30 5046 C 482.344 -5.6534 -1.73623 0
M  V30 5047 H 481.274 -0.658795 -0.366749 0
M  V30 5048 H 483.925 -1.82092 -0.226902 0
M  V30 5049 H 482.307 -3.01606 -2.56612 0
M  V30 5050 H 483.481 -4.60413 -0.188736 0
M  V30 5051 H 481.796 -4.15102 -0.328488 0
M  V30 5052 H 484.393 -4.35501 -3.10231 0
M  V30 5053 H 484.736 -2.64614 -3.2138 0
M  V30 5054 H 485.269 -3.55746 -1.78016 0
M  V30 5055 H 482.008 -6.46814 -1.06354 0
M  V30 5056 H 481.528 -5.47188 -2.45653 0
M  V30 5057 H 483.207 -6.04616 -2.30323 0
M  V30 5058 N 483.339 0.512053 -1.4905 0
M  V30 5059 C 484.587 1.26436 -1.57665 0
M  V30 5060 C 484.908 1.93255 -0.260293 0
M  V30 5061 O 484.178 1.82206 0.719564 0
M  V30 5062 H 482.758 0.469658 -0.580888 0
M  V30 5063 H 485.42 0.594398 -1.85615 0
M  V30 5064 H 484.516 2.03417 -2.36702 0
M  V30 5065 N 484.817 1.37938 0.762283 0
M  V30 5066 C 486.094 1.24196 1.51112 0
M  V30 5067 C 486.474 -0.160409 2.1049 0
M  V30 5068 O 485.822 -1.16904 1.96331 0
M  V30 5069 C 486.032 2.34537 2.58445 0
M  V30 5070 C 487.38 2.7254 3.25588 0
M  V30 5071 O 488.404 2.33783 2.68745 0
M  V30 5072 O 487.263 3.39343 4.28379 0
M  V30 5073 H 484.357 0.485175 0.669727 0
M  V30 5074 H 486.903 1.49743 0.798438 0
M  V30 5075 H 485.675 3.28406 2.12756 0
M  V30 5076 H 485.298 2.10505 3.37303 0
M  V30 5077 N 486.295 -0.989507 1.22664 0
M  V30 5078 C 487.52 -1.77031 1.08051 0
M  V30 5079 C 487.945 -1.84535 -0.364483 0
M  V30 5080 O 487.303 -1.3003 -1.2634 0
M  V30 5081 C 487.351 -3.18 1.70024 0
M  V30 5082 O 486.455 -4.01161 0.956216 0
M  V30 5083 H 485.796 -0.545008 0.379292 0
M  V30 5084 H 488.326 -1.24277 1.62531 0
M  V30 5085 H 488.336 -3.68616 1.74888 0
M  V30 5086 H 487.011 -3.11853 2.75174 0
M  V30 5087 H 485.588 -3.59687 0.98384 0
M  V30 5088 N 487.773 -1.03688 -1.18687 0
M  V30 5089 C 489.019 -0.739123 -1.88851 0
M  V30 5090 C 489.352 0.731042 -1.79915 0
M  V30 5091 O 488.627 1.53313 -1.19688 0
M  V30 5092 C 488.91 -1.20106 -3.3948 0
M  V30 5093 C 488.763 -2.73304 -3.57246 0
M  V30 5094 C 490.082 -0.788134 -4.32986 0
M  V30 5095 H 487.201 -0.269978 -0.68577 0
M  V30 5096 H 489.843 -1.28822 -1.3966 0
M  V30 5097 H 487.993 -0.733915 -3.81505 0
M  V30 5098 H 489.665 -3.28027 -3.24339 0
M  V30 5099 H 487.908 -3.13313 -3.00029 0
M  V30 5100 H 488.579 -3.00684 -4.62918 0
M  V30 5101 H 491.055 -1.19005 -3.98719 0
M  V30 5102 H 489.931 -1.13915 -5.36949 0
M  V30 5103 H 490.192 0.308988 -4.41019 0
M  V30 5104 N 489.251 1.34841 -0.815825 0
M  V30 5105 C 490.184 2.27504 -0.178062 0
M  V30 5106 C 491.162 1.48542 0.661373 0
M  V30 5107 O 492.346 1.77779 0.626653 0
M  V30 5108 C 489.473 3.30246 0.752002 0
M  V30 5109 C 488.519 4.26499 -0.00899172 0
M  V30 5110 S 489.352 5.18169 -1.35134 0
M  V30 5111 C 490.508 6.24449 -0.42596 0
M  V30 5112 H 490.741 2.81248 -0.963684 0
M  V30 5113 H 488.274 1.41781 -0.611355 0
M  V30 5114 H 490.232 3.89933 1.28308 0
M  V30 5115 H 488.893 2.75363 1.51109 0
M  V30 5116 H 488.086 4.99146 0.697766 0
M  V30 5117 H 487.688 3.7103 -0.470396 0
M  V30 5118 H 489.98 6.76404 0.385234 0
M  V30 5119 H 490.923 6.99156 -1.1219 0
M  V30 5120 H 491.331 5.64497 -0.0175461 0
M  V30 5121 N 490.729 0.570148 1.46925 0
M  V30 5122 C 491.659 -0.158274 2.32963 0
M  V30 5123 C 492.64 -0.896093 1.44583 0
M  V30 5124 O 493.825 -0.874022 1.7342 0
M  V30 5125 C 490.955 -1.18055 3.26619 0
M  V30 5126 C 489.909 -0.558379 4.24342 0
M  V30 5127 C 489.235 -1.68623 5.07415 0
M  V30 5128 C 490.535 0.496295 5.19937 0
M  V30 5129 H 492.229 0.560046 2.94115 0
M  V30 5130 H 489.775 0.270775 1.41431 0
M  V30 5131 H 491.728 -1.69841 3.85658 0
M  V30 5132 H 490.452 -1.92899 2.63548 0
M  V30 5133 H 489.111 -0.0617157 3.66548 0
M  V30 5134 H 488.759 -2.42402 4.40738 0
M  V30 5135 H 488.459 -1.27564 5.73586 0
M  V30 5136 H 489.983 -2.20709 5.69315 0
M  V30 5137 H 491.397 0.0640052 5.73264 0
M  V30 5138 H 489.794 0.82649 5.94381 0
M  V30 5139 H 490.864 1.38735 4.6463 0
M  V30 5140 N 492.207 -1.54576 0.307264 0
M  V30 5141 C 493.435 -2.04675 -0.302597 0
M  V30 5142 C 493.85 -1.18425 -1.47041 0
M  V30 5143 O 493.207 -0.211257 -1.81273 0
M  V30 5144 C 493.258 -3.53575 -0.752801 0
M  V30 5145 O 492.979 -4.36547 0.368536 0
M  V30 5146 C 494.48 -4.19699 -1.42717 0
M  V30 5147 H 491.7 -0.66786 -0.0648374 0
M  V30 5148 H 494.244 -1.99516 0.448716 0
M  V30 5149 H 492.399 -3.59074 -1.45412 0
M  V30 5150 H 492.813 -5.24497 0.0168937 0
M  V30 5151 H 494.287 -5.25388 -1.69327 0
M  V30 5152 H 494.764 -3.69815 -2.36925 0
M  V30 5153 H 495.37 -4.18293 -0.768856 0
M  V30 5154 N 493.685 -0.035106 -1.57561 0
M  V30 5155 C 494.925 0.646316 -1.93913 0
M  V30 5156 C 495.289 1.68947 -0.912185 0
M  V30 5157 O 496.49 2.42381 -1.1621 0
M  V30 5158 C 494.761 1.24136 -3.35149 0
M  V30 5159 S 496.32 1.94302 -3.93436 0
M  V30 5160 H 493.138 0.212642 -0.678457 0
M  V30 5161 H 495.74 -0.100203 -1.95243 0
M  V30 5162 H 494.444 0.46979 -4.07702 0
M  V30 5163 H 493.975 2.02505 -3.37276 0
M  V30 5164 H 495.99 3.22205 -3.77357 0
M  V30 5165 N 495.163 1.55791 0.238111 0
M  V30 5166 C 496.388 1.8244 0.986432 0
M  V30 5167 C 496.813 0.613314 1.7782 0
M  V30 5168 O 496.171 -0.437767 1.75935 0
M  V30 5169 C 496.219 3.06917 1.893 0
M  V30 5170 O 495.323 2.84449 2.98601 0
M  V30 5171 H 494.664 0.601975 0.280218 0
M  V30 5172 H 497.194 2.02987 0.256437 0
M  V30 5173 H 497.204 3.36583 2.30598 0
M  V30 5174 H 495.879 3.947 1.31091 0
M  V30 5175 H 494.456 2.65972 2.61368 0
M  V30 5176 N 496.642 -0.504142 1.49319 0
M  V30 5177 C 497.888 -1.26033 1.58882 0
M  V30 5178 C 498.221 -1.92268 0.273274 0
M  V30 5179 O 497.496 -1.80567 -0.72291 0
M  V30 5180 C 497.779 -2.32976 2.7458 0
M  V30 5181 C 497.632 -1.71263 4.1592 0
M  V30 5182 C 498.951 -3.34561 2.85932 0
M  V30 5183 H 496.07 -0.456863 0.578312 0
M  V30 5184 H 498.712 -0.558965 1.81592 0
M  V30 5185 H 496.862 -2.92796 2.55348 0
M  V30 5186 H 498.534 -1.15294 4.4666 0
M  V30 5187 H 496.777 -1.01686 4.21714 0
M  V30 5188 H 497.448 -2.48816 4.92742 0
M  V30 5189 H 499.924 -2.84727 3.0343 0
M  V30 5190 H 498.8 -4.06754 3.68568 0
M  V30 5191 H 499.061 -3.96695 1.95154 0
M  V30 5192 N 498.12 -1.38341 -0.754957 0
M  V30 5193 C 499.053 -1.29837 -1.87663 0
M  V30 5194 C 500.031 -0.175659 -1.61648 0
M  V30 5195 O 501.215 -0.352745 -1.8517 0
M  V30 5196 C 498.342 -1.01141 -3.23246 0
M  V30 5197 C 497.388 -2.15331 -3.6815 0
M  V30 5198 S 498.221 -3.77459 -3.79849 0
M  V30 5199 C 499.377 -3.50948 -5.18253 0
M  V30 5200 H 499.61 -2.24771 -1.9459 0
M  V30 5201 H 497.143 -1.24161 -0.917796 0
M  V30 5202 H 499.101 -0.852687 -4.01546 0
M  V30 5203 H 497.762 -0.0792784 -3.14 0
M  V30 5204 H 496.955 -1.90795 -4.6649 0
M  V30 5205 H 496.557 -2.27304 -2.97 0
M  V30 5206 H 498.849 -3.06977 -6.03963 0
M  V30 5207 H 499.792 -4.48677 -5.47809 0
M  V30 5208 H 500.2 -2.85492 -4.86985 0
M  V30 5209 N 499.598 0.982988 -1.23187 0
M  V30 5210 C 500.846 1.72052 -1.06031 0
M  V30 5211 C 501.167 1.90769 0.404019 0
M  V30 5212 O 500.437 1.47446 1.28982 0
M  V30 5213 H 499.017 0.637499 -0.389363 0
M  V30 5214 H 501.679 1.18338 -1.54862 0
M  V30 5215 H 500.775 2.7111 -1.54615 0
M  V30 5216 N 501.076 1.04316 1.18135 0
M  V30 5217 C 502.316 0.756937 1.89868 0
M  V30 5218 C 502.68 -0.702609 1.78682 0
M  V30 5219 O 503.881 -1.10255 2.45148 0
M  V30 5220 C 502.152 1.21327 3.36176 0
M  V30 5221 S 503.711 1.05307 4.25976 0
M  V30 5222 H 500.529 0.275143 0.655604 0
M  V30 5223 H 503.131 1.33597 1.42731 0
M  V30 5224 H 501.835 2.27086 3.41848 0
M  V30 5225 H 501.366 0.628137 3.88353 0
M  V30 5226 H 503.381 -0.0280093 4.96192 0
M  V30 5227 N 502.554 -1.34406 0.822964 0
M  V30 5228 C 503.464 -2.33298 0.246838 0
M  V30 5229 C 504.48 -1.62625 -0.618797 0
M  V30 5230 O 505.656 -1.94391 -0.526685 0
M  V30 5231 C 502.721 -3.41785 -0.581731 0
M  V30 5232 C 501.782 -4.28206 0.306309 0
M  V30 5233 C 501.015 -5.31512 -0.48281 0
M  V30 5234 O 501.238 -5.43973 -1.71607 0
M  V30 5235 O 500.172 -6.01749 0.134884 0
M  V30 5236 H 503.998 -2.84401 1.06534 0
M  V30 5237 H 501.583 -1.37466 0.585108 0
M  V30 5238 H 503.465 -4.08028 -1.05313 0
M  V30 5239 H 502.14 -2.92925 -1.37756 0
M  V30 5240 H 501.047 -3.64885 0.825199 0
M  V30 5241 H 502.38 -4.80507 1.06649 0
M  V30 5242 N 504.032 -0.577932 -1.46621 0
M  V30 5243 C 505.257 -0.0652536 -2.07297 0
M  V30 5244 C 505.682 1.22828 -1.4246 0
M  V30 5245 O 505.04 1.74075 -0.506718 0
M  V30 5246 C 505.088 0.0920589 -3.60482 0
M  V30 5247 O 504.192 1.14972 -3.96049 0
M  V30 5248 H 503.533 -0.06065 -0.661224 0
M  V30 5249 H 506.063 -0.799515 -1.88332 0
M  V30 5250 H 506.073 0.299741 -4.06897 0
M  V30 5251 H 504.748 -0.852612 -4.07067 0
M  V30 5252 H 503.325 0.920879 -3.61351 0
M  V30 5253 N 505.51 1.54411 -0.315457 0
M  V30 5254 C 506.921 1.85885 0.174265 0
M  V30 5255 C 507.272 1.23723 1.52273 0
M  V30 5256 O 506.397 0.540246 2.09548 0
M  V30 5257 C 506.992 3.37257 0.322981 0
M  V30 5258 C 505.551 3.68711 0.756922 0
M  V30 5259 C 504.698 2.77013 -0.126195 0
M  V30 5260 H 507.649 1.49374 -0.536007 0
M  V30 5261 H 507.67 3.62539 1.15522 0
M  V30 5262 H 507.182 3.82471 -0.658602 0
M  V30 5263 H 505.283 3.29024 1.74854 0
M  V30 5264 H 505.396 4.75741 0.566291 0
M  V30 5265 H 503.76 2.51588 0.39692 0
M  V30 5266 H 504.543 3.25051 -1.1044 0
M  V30 5267 N 506.988 0.0434614 1.5754 0
M  V30 5268 C 508.213 -0.645358 1.97104 0
M  V30 5269 C 508.638 -1.64037 0.920521 0
M  V30 5270 O 507.996 -1.80922 -0.11708 0
M  V30 5271 C 508.044 -1.31547 3.35749 0
M  V30 5272 O 507.148 -2.43103 3.33129 0
M  V30 5273 H 506.489 -0.168403 0.64229 0
M  V30 5274 H 509.019 0.109573 2.04306 0
M  V30 5275 H 509.029 -1.66895 3.72304 0
M  V30 5276 H 507.704 -0.586205 4.11748 0
M  V30 5277 H 506.281 -2.0976 3.0831 0
M  V30 5278 N 508.466 -1.55915 -0.229846 0
M  V30 5279 C 509.713 -1.78542 -0.955452 0
M  V30 5280 C 510.041 -0.610785 -1.84661 0
M  V30 5281 O 509.296 0.405213 -1.91459 0
M  V30 5282 C 509.595 -3.06845 -1.8325 0
M  V30 5283 C 509.261 -4.37395 -1.09528 0
M  V30 5284 C 507.923 -4.72868 -0.891598 0
M  V30 5285 C 510.275 -5.18029 -0.574046 0
M  V30 5286 C 507.603 -5.86496 -0.154655 0
M  V30 5287 C 509.955 -6.32423 0.149513 0
M  V30 5288 C 508.619 -6.66504 0.364519 0
M  V30 5289 H 507.889 -0.653333 -0.349625 0
M  V30 5290 H 510.536 -1.90183 -0.224235 0
M  V30 5291 H 508.841 -2.90291 -2.63132 0
M  V30 5292 H 510.538 -3.21553 -2.39592 0
M  V30 5293 H 507.128 -4.09538 -1.26399 0
M  V30 5294 H 511.312 -4.91066 -0.718899 0
M  V30 5295 H 506.568 -6.11396 0.0222356 0
M  V30 5296 H 510.742 -6.94137 0.560947 0
M  V30 5297 H 508.369 -7.54397 0.937495 0
M  V30 5298 N 509.944 0.496216 -1.49584 0
M  V30 5299 C 511.169 1.27865 -1.63295 0
M  V30 5300 C 511.594 1.85592 -0.306156 0
M  V30 5301 O 510.952 1.66092 0.726851 0
M  V30 5302 C 511 2.38128 -2.7079 0
M  V30 5303 O 510.104 3.42108 -2.30296 0
M  V30 5304 H 509.445 0.377279 -0.546403 0
M  V30 5305 H 511.975 0.593497 -1.95803 0
M  V30 5306 H 511.985 2.8382 -2.93104 0
M  V30 5307 H 510.66 1.95479 -3.67098 0
M  V30 5308 H 509.237 3.02301 -2.18331 0
M  V30 5309 N 511.423 1.38739 0.74761 0
M  V30 5310 C 512.669 1.3648 1.50814 0
M  V30 5311 C 513.024 -0.0431982 1.92351 0
M  V30 5312 O 512.317 -1.0071 1.62997 0
M  V30 5313 C 512.511 2.25992 2.7688 0
M  V30 5314 C 512.34 3.75354 2.47668 0
M  V30 5315 C 511.11 4.44348 2.40589 0
M  V30 5316 C 513.308 4.67642 2.14046 0
M  V30 5317 N 511.29 5.79114 2.03715 0
M  V30 5318 C 512.661 5.90965 1.87512 0
M  V30 5319 C 514.716 4.55787 2.00407 0
M  V30 5320 C 513.419 7.03759 1.48714 0
M  V30 5321 C 515.445 5.68491 1.63011 0
M  V30 5322 C 514.807 6.90879 1.37353 0
M  V30 5323 H 510.906 0.554695 0.551214 0
M  V30 5324 H 513.49 1.7418 0.870033 0
M  V30 5325 H 511.661 1.9047 3.3849 0
M  V30 5326 H 513.393 2.14815 3.42982 0
M  V30 5327 H 510.148 3.97634 2.57262 0
M  V30 5328 H 510.572 6.504 1.87906 0
M  V30 5329 H 515.214 3.61712 2.18916 0
M  V30 5330 H 512.932 7.97746 1.28945 0
M  V30 5331 H 516.518 5.613 1.53081 0
M  V30 5332 H 515.398 7.76609 1.08848 0
M  V30 5333 N 512.901 -0.976442 1.23707 0
M  V30 5334 C 514.317 -1.24341 1.00058 0
M  V30 5335 C 514.517 -1.99315 -0.295932 0
M  V30 5336 O 513.573 -2.3123 -1.01435 0
M  V30 5337 C 514.886 -2.03909 2.21001 0
M  V30 5338 C 516.434 -2.17034 2.25534 0
M  V30 5339 C 516.909 -2.99994 3.46075 0
M  V30 5340 N 518.4 -3.07578 3.46338 0
M  V30 5341 C 519.135 -3.72104 4.36264 0
M  V30 5342 N 518.631 -4.3842 5.36432 0
M  V30 5343 N 520.424 -3.69029 4.23998 0
M  V30 5344 H 512.575 -0.47428 2.07037 0
M  V30 5345 H 514.838 -0.272167 0.908091 0
M  V30 5346 H 514.544 -1.56198 3.15111 0
M  V30 5347 H 514.418 -3.04654 2.22409 0
M  V30 5348 H 516.805 -2.63951 1.31961 0
M  V30 5349 H 516.886 -1.15664 2.28156 0
M  V30 5350 H 516.53 -2.53772 4.39957 0
M  V30 5351 H 516.46 -4.01541 3.40694 0
M  V30 5352 H 518.951 -2.60397 2.73865 0
M  V30 5353 H 519.264 -4.85447 6.013 0
M  V30 5354 H 517.609 -4.37116 5.40328 0
M  V30 5355 H 520.8 -3.16392 3.44984 0
M  V30 5356 H 520.973 -4.19034 4.94282 0
M  V30 5357 N 514.379 -1.04941 -1.1758 0
M  V30 5358 C 515.607 -0.778294 -1.91703 0
M  V30 5359 C 516.022 0.665697 -1.76675 0
M  V30 5360 O 515.379 1.45456 -1.10222 0
M  V30 5361 C 515.43 -1.14628 -3.42845 0
M  V30 5362 O 515.151 -2.53359 -3.57409 0
M  V30 5363 C 516.652 -0.900931 -4.34049 0
M  V30 5364 H 513.872 -0.283167 -0.608323 0
M  V30 5365 H 516.416 -1.39942 -1.49119 0
M  V30 5366 H 514.571 -0.569953 -3.83184 0
M  V30 5367 H 514.985 -2.67709 -4.51035 0
M  V30 5368 H 516.459 -1.20817 -5.38616 0
M  V30 5369 H 516.936 0.163966 -4.38894 0
M  V30 5370 H 517.542 -1.46097 -3.99419 0
M  V30 5371 N 515.857 1.33968 -0.830081 0
M  V30 5372 C 516.789 2.28194 -0.21448 0
M  V30 5373 C 517.802 1.5135 0.599752 0
M  V30 5374 O 518.991 1.73286 0.42826 0
M  V30 5375 C 516.091 3.31221 0.717356 0
M  V30 5376 C 515.264 4.37365 -0.055613 0
M  V30 5377 C 514.323 5.2011 0.798231 0
M  V30 5378 O 513.349 5.68691 0.240616 0
M  V30 5379 N 514.551 5.40523 2.11695 0
M  V30 5380 H 517.316 2.81662 -1.02405 0
M  V30 5381 H 514.877 1.46568 -0.687713 0
M  V30 5382 H 516.869 3.83477 1.29334 0
M  V30 5383 H 515.439 2.78095 1.42765 0
M  V30 5384 H 514.659 3.85727 -0.812936 0
M  V30 5385 H 515.947 5.05397 -0.587444 0
M  V30 5386 H 515.345 5.0274 2.59363 0
M  V30 5387 H 513.902 5.95871 2.64162 0
M  V30 5388 N 517.335 0.585699 1.46312 0
M  V30 5389 C 518.584 0.0701192 2.01578 0
M  V30 5390 C 518.897 -1.29889 1.46247 0
M  V30 5391 O 520.103 -1.90598 1.93351 0
M  V30 5392 C 518.559 0.0747499 3.59822 0
M  V30 5393 C 518.167 1.44226 4.24149 0
M  V30 5394 C 519.911 -0.38673 4.22735 0
M  V30 5395 C 517.818 1.40446 5.74481 0
M  V30 5396 H 516.748 0.0224441 0.753666 0
M  V30 5397 H 519.399 0.737789 1.68015 0
M  V30 5398 H 517.781 -0.659144 3.90476 0
M  V30 5399 H 518.955 2.19612 4.05101 0
M  V30 5400 H 517.27 1.84401 3.73343 0
M  V30 5401 H 519.867 -0.433853 5.32937 0
M  V30 5402 H 520.21 -1.40489 3.91878 0
M  V30 5403 H 520.743 0.293195 3.96718 0
M  V30 5404 H 517.482 2.39952 6.10003 0
M  V30 5405 H 517.002 0.692845 5.95785 0
M  V30 5406 H 518.681 1.11865 6.37256 0
M  V30 5407 N 518.813 -1.54241 0.323641 0
M  V30 5408 C 520.09 -1.92741 -0.333181 0
M  V30 5409 C 520.47 -1.25326 -1.69872 0
M  V30 5410 O 519.818 -0.396991 -2.25025 0
M  V30 5411 C 520.028 -3.46399 -0.425322 0
M  V30 5412 C 521.376 -4.19029 -0.68557 0
M  V30 5413 O 522.4 -3.52555 -0.50824 0
M  V30 5414 O 521.259 -5.36751 -1.02767 0
M  V30 5415 H 518.353 -0.804811 -0.190286 0
M  V30 5416 H 520.899 -1.65542 0.373361 0
M  V30 5417 H 519.671 -3.87643 0.533737 0
M  V30 5418 H 519.294 -3.79704 -1.17944 0
M  V30 5419 N 520.291 -0.0518155 -1.57515 0
M  V30 5420 C 521.516 0.634896 -1.97443 0
M  V30 5421 C 521.941 1.63546 -0.929207 0
M  V30 5422 O 521.299 1.80981 0.107484 0
M  V30 5423 C 521.347 1.29765 -3.36442 0
M  V30 5424 O 520.451 2.41333 -3.34413 0
M  V30 5425 H 519.792 0.164994 -0.643174 0
M  V30 5426 H 522.322 -0.120407 -2.04245 0
M  V30 5427 H 522.332 1.64918 -3.73184 0
M  V30 5428 H 521.007 0.564361 -4.12053 0
M  V30 5429 H 519.584 2.08122 -3.09418 0
M  V30 5430 N 521.769 1.56035 0.221574 0
M  V30 5431 C 523.18 1.69229 0.788567 0
M  V30 5432 C 523.531 0.653814 1.84986 0
M  V30 5433 O 522.656 -0.195065 2.15519 0
M  V30 5434 C 523.251 3.06809 1.43713 0
M  V30 5435 C 521.81 3.21858 1.95152 0
M  V30 5436 C 520.957 2.65155 0.811685 0
M  V30 5437 H 523.908 1.587 -0.00307894 0
M  V30 5438 H 523.929 3.02666 2.30594 0
M  V30 5439 H 523.441 3.82369 0.664475 0
M  V30 5440 H 521.542 2.51167 2.7522 0
M  V30 5441 H 521.655 4.29073 2.1315 0
M  V30 5442 H 520.019 2.23635 1.21899 0
M  V30 5443 H 520.802 3.43261 0.0516987 0
M  V30 5444 N 523.247 -0.488276 1.49845 0
M  V30 5445 C 524.177 -1.59675 1.70371 0
M  V30 5446 C 525.158 -1.60878 0.552473 0
M  V30 5447 O 526.343 -1.77417 0.78973 0
M  V30 5448 C 523.473 -2.98098 1.782 0
M  V30 5449 C 522.427 -3.11761 2.93239 0
M  V30 5450 C 521.753 -4.51661 2.86193 0
M  V30 5451 C 523.053 -2.90589 4.33999 0
M  V30 5452 H 524.747 -1.42752 2.63177 0
M  V30 5453 H 522.293 -0.685317 1.26647 0
M  V30 5454 H 524.246 -3.75555 1.91144 0
M  V30 5455 H 522.97 -3.16138 0.820018 0
M  V30 5456 H 521.629 -2.36732 2.79917 0
M  V30 5457 H 521.277 -4.66595 1.87877 0
M  V30 5458 H 520.977 -4.61742 3.63412 0
M  V30 5459 H 522.501 -5.31162 3.01163 0
M  V30 5460 H 523.915 -3.57807 4.47936 0
M  V30 5461 H 522.312 -3.1213 5.12538 0
M  V30 5462 H 523.382 -1.86595 4.4756 0
M  V30 5463 N 524.725 -1.39134 -0.740242 0
M  V30 5464 C 525.95 -1.39518 -1.53459 0
M  V30 5465 C 526.375 0.00968883 -1.88098 0
M  V30 5466 O 525.733 0.995312 -1.51536 0
M  V30 5467 C 525.781 -2.26981 -2.802 0
M  V30 5468 O 524.885 -1.69609 -3.75908 0
M  V30 5469 H 524.226 -0.475328 -0.463637 0
M  V30 5470 H 526.756 -1.83064 -0.913717 0
M  V30 5471 H 526.766 -2.41309 -3.28989 0
M  V30 5472 H 525.441 -3.29081 -2.5432 0
M  V30 5473 H 524.018 -1.64495 -3.34658 0
M  V30 5474 N 526.204 0.969867 -1.24223 0
M  V30 5475 C 527.452 1.70918 -1.0785 0
M  V30 5476 C 527.773 1.91186 0.383763 0
M  V30 5477 O 527.043 1.48806 1.27411 0
M  V30 5478 H 525.623 0.633334 -0.396103 0
M  V30 5479 H 528.285 1.16689 -1.56108 0
M  V30 5480 H 527.381 2.69455 -1.57482 0
M  V30 5481 N 527.682 1.05563 1.17022 0
M  V30 5482 C 528.629 0.659893 2.21165 0
M  V30 5483 C 529.599 -0.339813 1.62587 0
M  V30 5484 O 530.784 -0.230378 1.89404 0
M  V30 5485 C 527.924 0.0447297 3.45071 0
M  V30 5486 C 527.037 1.09372 4.17926 0
M  V30 5487 C 526.172 0.445481 5.29329 0
M  V30 5488 C 525.211 1.47852 5.93975 0
M  V30 5489 N 524.348 0.854172 6.96885 0
M  V30 5490 H 529.188 1.55243 2.54369 0
M  V30 5491 H 526.725 0.776336 1.24946 0
M  V30 5492 H 528.683 -0.329404 4.15898 0
M  V30 5493 H 527.313 -0.811244 3.1244 0
M  V30 5494 H 526.365 1.58564 3.45777 0
M  V30 5495 H 527.677 1.87773 4.62107 0
M  V30 5496 H 526.831 0.0179688 6.06697 0
M  V30 5497 H 525.57 -0.370481 4.86291 0
M  V30 5498 H 524.575 1.91601 5.15334 0
M  V30 5499 H 525.8 2.29645 6.39093 0
M  V30 5500 H 523.746 0.0587882 6.55974 0
M  V30 5501 H 523.663 1.57567 7.39397 0
M  V30 5502 H 524.931 0.451559 7.78191 0
M  V30 5503 N 529.16 -1.33526 0.837174 0
M  V30 5504 C 530.406 -1.9813 0.432704 0
M  V30 5505 C 530.739 -1.66168 -1.00508 0
M  V30 5506 O 530.014 -0.94069 -1.70239 0
M  V30 5507 C 530.297 -3.54151 0.651834 0
M  V30 5508 C 530.15 -3.95806 2.13676 0
M  V30 5509 C 531.469 -4.39993 0.0968937 0
M  V30 5510 H 528.588 -0.719713 0.15869 0
M  V30 5511 H 531.23 -1.58193 1.05237 0
M  V30 5512 H 529.38 -3.88301 0.124369 0
M  V30 5513 H 531.052 -3.71921 2.72896 0
M  V30 5514 H 529.295 -3.45599 2.62191 0
M  V30 5515 H 529.966 -5.0447 2.24084 0
M  V30 5516 H 532.442 -4.12479 0.547733 0
M  V30 5517 H 531.318 -5.48186 0.279917 0
M  V30 5518 H 531.579 -4.3066 -0.9992 0
M  V30 5519 N 530.638 -0.59345 -1.46 0
M  V30 5520 C 532.054 -0.255965 -1.57534 0
M  V30 5521 C 532.254 1.24167 -1.58697 0
M  V30 5522 O 531.31 2.02398 -1.50968 0
M  V30 5523 C 532.623 -0.91466 -2.86451 0
M  V30 5524 C 534.171 -0.889253 -3.00102 0
M  V30 5525 C 534.646 -1.52769 -4.3177 0
M  V30 5526 N 536.137 -1.49253 -4.38495 0
M  V30 5527 C 536.872 -1.9558 -5.39014 0
M  V30 5528 N 536.368 -2.49929 -6.46148 0
M  V30 5529 N 538.161 -1.86432 -5.30282 0
M  V30 5530 H 530.312 -1.56604 -1.43489 0
M  V30 5531 H 532.575 -0.655207 -0.685133 0
M  V30 5532 H 532.281 -1.96861 -2.91442 0
M  V30 5533 H 532.155 -0.429356 -3.74748 0
M  V30 5534 H 534.542 0.156111 -2.94687 0
M  V30 5535 H 534.623 -1.41268 -2.13253 0
M  V30 5536 H 534.267 -2.57231 -4.37944 0
M  V30 5537 H 534.197 -0.979398 -5.17412 0
M  V30 5538 H 536.688 -1.09536 -3.61677 0
M  V30 5539 H 537.001 -2.83109 -7.19075 0
M  V30 5540 H 535.346 -2.53961 -6.46938 0
M  V30 5541 H 538.537 -1.43722 -4.4549 0
M  V30 5542 H 538.71 -2.22852 -6.08474 0
M  V30 5543 N 532.116 1.54067 -0.331816 0
M  V30 5544 C 533.341 2.05599 0.272705 0
M  V30 5545 C 533.766 1.2059 1.44359 0
M  V30 5546 O 533.124 0.216907 1.79998 0
M  V30 5547 C 533.172 3.54188 0.677021 0
M  V30 5548 O 532.276 3.72082 1.77844 0
M  V30 5549 H 531.617 0.662286 0.0476801 0
M  V30 5550 H 534.147 1.98826 -0.482624 0
M  V30 5551 H 534.157 3.96608 0.957415 0
M  V30 5552 H 532.832 4.15513 -0.179325 0
M  V30 5553 H 531.409 3.41566 1.49622 0
M  V30 5554 N 533.594 0.0601682 1.57485 0
M  V30 5555 C 534.504 -0.926121 2.15546 0
M  V30 5556 C 535.52 -1.33532 1.11558 0
M  V30 5557 O 536.696 -1.4104 1.4377 0
M  V30 5558 C 533.761 -2.17952 2.69625 0
M  V30 5559 C 532.822 -1.82783 3.88444 0
M  V30 5560 C 532.055 -3.02148 4.39935 0
M  V30 5561 O 532.278 -4.15803 3.90466 0
M  V30 5562 O 531.212 -2.82639 5.31412 0
M  V30 5563 H 535.038 -0.462289 3.00161 0
M  V30 5564 H 532.623 -0.162246 1.48516 0
M  V30 5565 H 534.505 -2.91474 3.04337 0
M  V30 5566 H 533.18 -2.63456 1.88077 0
M  V30 5567 H 532.087 -1.06549 3.58606 0
M  V30 5568 H 533.42 -1.42072 4.7125 0
M  V30 5569 N 535.072 -1.5615 -0.213296 0
M  V30 5570 C 536.32 -1.79191 -0.934612 0
M  V30 5571 C 536.641 -0.630112 -1.84539 0
M  V30 5572 O 535.911 0.35257 -1.92701 0
M  V30 5573 H 534.491 -0.660937 -0.348097 0
M  V30 5574 H 537.153 -1.93618 -0.22317 0
M  V30 5575 H 536.249 -2.71656 -1.53654 0
M  V30 5576 N 536.55 0.480323 -1.50102 0
M  V30 5577 C 537.778 1.25657 -1.64371 0
M  V30 5578 C 538.193 1.86011 -0.323316 0
M  V30 5579 O 537.55 1.68803 0.693682 0
M  V30 5580 C 537.601 2.37197 -2.728 0
M  V30 5581 O 537.322 1.7932 -3.9972 0
M  V30 5582 C 538.823 3.2823 -2.9796 0
M  V30 5583 H 536.043 0.380369 -0.552775 0
M  V30 5584 H 538.587 0.574379 -1.96268 0
M  V30 5585 H 536.742 3.01208 -2.43623 0
M  V30 5586 H 537.156 2.52701 -4.59611 0
M  V30 5587 H 538.63 4.02725 -3.77513 0
M  V30 5588 H 539.107 3.86462 -2.08671 0
M  V30 5589 H 539.713 2.69964 -3.28633 0
M  V30 5590 N 538.028 1.39524 0.732853 0
M  V30 5591 C 538.976 1.38563 1.86824 0
M  V30 5592 C 539.97 0.268467 1.67259 0
M  V30 5593 O 541.176 0.438613 1.74574 0
M  V30 5594 H 537.551 0.432737 0.615014 0
M  V30 5595 H 539.522 2.34328 1.84751 0
M  V30 5596 C 538.271 1.2481 3.24527 0
M  V30 5597 H 537.594 2.10044 3.40179 0
M  V30 5598 H 539.034 1.28194 4.04156 0
M  V30 5599 C 537.493 -0.0432825 3.36872 0
M  V30 5600 O 538.023 -1.01268 3.88726 0
M  V30 5601 N 536.229 -0.107055 2.90403 0
M  V30 5602 H 535.776 0.682512 2.48394 0
M  V30 5603 H 535.734 -0.970618 2.99042 0
M  V30 5604 N 539.506 -0.963266 1.24736 0
M  V30 5605 C 540.731 -1.74699 1.11781 0
M  V30 5606 C 541.156 -1.85267 -0.325258 0
M  V30 5607 O 540.514 -1.32681 -1.23553 0
M  V30 5608 C 540.562 -3.14322 1.76731 0
M  V30 5609 O 539.666 -3.99043 1.04109 0
M  V30 5610 H 539.007 -0.53684 0.390767 0
M  V30 5611 H 541.537 -1.20801 1.65131 0
M  V30 5612 H 541.547 -3.64824 1.82668 0
M  V30 5613 H 540.222 -3.05946 2.81726 0
M  V30 5614 H 538.799 -3.5752 1.05991 0
M  V30 5615 N 540.985 -1.06182 -1.16461 0
M  V30 5616 C 542.213 -0.798583 -1.90867 0
M  V30 5617 C 542.628 0.646921 -1.77371 0
M  V30 5618 O 541.985 1.44279 -1.11758 0
M  V30 5619 C 542.036 -1.18258 -3.4161 0
M  V30 5620 O 541.757 -2.57135 -3.54701 0
M  V30 5621 C 543.258 -0.946917 -4.33069 0
M  V30 5622 H 540.478 -0.289603 -0.605286 0
M  V30 5623 H 543.022 -1.41515 -1.47627 0
M  V30 5624 H 541.177 -0.610562 -3.82558 0
M  V30 5625 H 541.591 -2.72477 -4.4817 0
M  V30 5626 H 543.065 -1.26523 -5.37304 0
M  V30 5627 H 543.542 0.117406 -4.39043 0
M  V30 5628 H 544.148 -1.50326 -3.97847 0
M  V30 5629 N 542.463 1.3308 -0.844243 0
M  V30 5630 C 543.393 2.3161 -0.296493 0
M  V30 5631 C 544.374 1.59215 0.598707 0
M  V30 5632 O 545.559 1.87077 0.521134 0
M  V30 5633 C 542.689 3.43313 0.524762 0
M  V30 5634 C 541.643 4.27115 -0.275106 0
M  V30 5635 C 540.969 5.30483 0.670236 0
M  V30 5636 C 542.269 5.00443 -1.49514 0
M  V30 5637 H 543.963 2.77672 -1.11976 0
M  V30 5638 H 541.509 1.33496 -0.539899 0
M  V30 5639 H 543.462 4.11273 0.918298 0
M  V30 5640 H 542.186 2.95952 1.3813 0
M  V30 5641 H 540.845 3.60787 -0.650267 0
M  V30 5642 H 540.493 4.79379 1.52332 0
M  V30 5643 H 540.193 5.87435 0.139123 0
M  V30 5644 H 541.717 6.01308 1.06117 0
M  V30 5645 H 543.131 5.61141 -1.17447 0
M  V30 5646 H 541.528 5.67071 -1.96343 0
M  V30 5647 H 542.598 4.28906 -2.26202 0
M  V30 5648 N 543.941 0.601185 1.45683 0
M  V30 5649 C 545.169 0.100054 2.06658 0
M  V30 5650 C 545.584 -1.21285 1.44691 0
M  V30 5651 O 544.941 -1.73735 0.558772 0
M  V30 5652 C 544.992 -0.0528579 3.61461 0
M  V30 5653 O 544.713 1.20809 4.21114 0
M  V30 5654 C 546.214 -0.586193 4.39407 0
M  V30 5655 H 543.434 0.065905 0.667756 0
M  V30 5656 H 545.978 0.827101 1.87028 0
M  V30 5657 H 544.133 -0.730203 3.80456 0
M  V30 5658 H 544.547 1.03368 5.14213 0
M  V30 5659 H 546.021 -0.642297 5.4825 0
M  V30 5660 H 546.498 -1.60713 4.0874 0
M  V30 5661 H 547.104 0.0568935 4.25262 0
M  V30 5662 N 545.419 -1.53889 0.339982 0
M  V30 5663 C 546.349 -2.27843 -0.510856 0
M  V30 5664 C 547.33 -1.29267 -1.10563 0
M  V30 5665 O 548.515 -1.58104 -1.12768 0
M  V30 5666 C 545.645 -3.04857 -1.66372 0
M  V30 5667 C 544.599 -4.10907 -1.19746 0
M  V30 5668 C 543.925 -4.75855 -2.43857 0
M  V30 5669 C 545.225 -5.21435 -0.300501 0
M  V30 5670 H 546.919 -2.99212 0.106067 0
M  V30 5671 H 544.465 -1.43904 0.0524533 0
M  V30 5672 H 546.418 -3.5533 -2.26537 0
M  V30 5673 H 545.142 -2.31133 -2.30749 0
M  V30 5674 H 543.801 -3.61342 -0.618654 0
M  V30 5675 H 543.449 -3.9873 -3.06633 0
M  V30 5676 H 543.149 -5.47502 -2.13343 0
M  V30 5677 H 544.673 -5.2911 -3.04754 0
M  V30 5678 H 546.087 -5.67565 -0.80889 0
M  V30 5679 H 544.484 -6.00036 -0.0874076 0
M  V30 5680 H 545.554 -4.80328 0.664321 0
M  V30 5681 N 546.897 -0.0685191 -1.57451 0
M  V30 5682 C 548.122 0.613919 -1.98106 0
M  V30 5683 C 548.547 1.62551 -0.946501 0
M  V30 5684 O 547.905 1.81085 0.0882824 0
M  V30 5685 C 547.953 1.26189 -3.378 0
M  V30 5686 O 547.057 2.37773 -3.36954 0
M  V30 5687 H 546.398 0.158163 -0.644888 0
M  V30 5688 H 548.928 -0.142063 -2.04106 0
M  V30 5689 H 548.938 1.60951 -3.74912 0
M  V30 5690 H 547.613 0.520625 -4.12629 0
M  V30 5691 H 546.19 2.04829 -3.11608 0
M  V30 5692 N 548.375 1.56261 0.205012 0
M  V30 5693 C 549.786 1.70056 0.770574 0
M  V30 5694 C 550.137 0.673398 1.84282 0
M  V30 5695 O 549.262 -0.172196 2.15714 0
M  V30 5696 C 549.857 3.08316 1.40451 0
M  V30 5697 C 548.416 3.2391 1.91727 0
M  V30 5698 C 547.563 2.66001 0.783516 0
M  V30 5699 H 550.514 1.58688 -0.019911 0
M  V30 5700 H 550.535 3.05094 2.27371 0
M  V30 5701 H 550.047 3.83053 0.623882 0
M  V30 5702 H 548.148 2.54072 2.7254 0
M  V30 5703 H 548.261 4.3131 2.08588 0
M  V30 5704 H 546.625 2.24915 1.19521 0
M  V30 5705 H 547.408 3.43297 0.0152883 0
M  V30 5706 N 549.853 -0.472356 1.50355 0
M  V30 5707 C 551.099 -1.22634 1.6152 0
M  V30 5708 C 551.432 -1.91645 0.313995 0
M  V30 5709 O 550.707 -1.82059 -0.684446 0
M  V30 5710 C 550.99 -2.27099 2.7946 0
M  V30 5711 C 550.843 -1.62402 4.19459 0
M  V30 5712 C 552.162 -3.28421 2.92964 0
M  V30 5713 H 549.281 -0.444494 0.587873 0
M  V30 5714 H 551.923 -0.520321 1.82737 0
M  V30 5715 H 550.073 -2.87314 2.61501 0
M  V30 5716 H 551.745 -1.05793 4.49005 0
M  V30 5717 H 549.988 -0.927184 4.23776 0
M  V30 5718 H 550.659 -2.38309 4.97909 0
M  V30 5719 H 553.135 -2.78227 3.09401 0
M  V30 5720 H 552.011 -3.98845 3.77113 0
M  V30 5721 H 552.272 -3.92467 2.03525 0
M  V30 5722 N 551.331 -1.39911 -0.725443 0
M  V30 5723 C 552.556 -1.41137 -1.5197 0
M  V30 5724 C 552.981 -0.010262 -1.88097 0
M  V30 5725 O 552.339 0.979184 -1.52583 0
M  V30 5726 C 552.387 -2.2994 -2.77777 0
M  V30 5727 O 551.491 -1.73586 -3.74088 0
M  V30 5728 H 550.832 -0.480219 -0.458569 0
M  V30 5729 H 553.362 -1.84023 -0.894249 0
M  V30 5730 H 553.372 -2.44785 -3.26411 0
M  V30 5731 H 552.047 -3.31759 -2.50816 0
M  V30 5732 H 550.624 -1.68035 -3.32894 0
M  V30 5733 N 552.809 0.956637 -1.25245 0
M  V30 5734 C 554.056 1.701 -1.09874 0
M  V30 5735 C 554.384 1.91128 0.36062 0
M  V30 5736 O 553.639 1.47837 1.28229 0
M  V30 5737 C 553.938 3.08996 -1.79601 0
M  V30 5738 C 553.604 3.07774 -3.29523 0
M  V30 5739 C 552.266 3.07149 -3.70423 0
M  V30 5740 C 554.618 3.01257 -4.25316 0
M  V30 5741 C 551.946 2.97752 -5.0553 0
M  V30 5742 C 554.298 2.93403 -5.60444 0
M  V30 5743 C 552.962 2.91111 -6.00675 0
M  V30 5744 H 552.232 0.62244 -0.402056 0
M  V30 5745 H 554.879 1.1178 -1.55491 0
M  V30 5746 H 553.184 3.70848 -1.26408 0
M  V30 5747 H 554.881 3.65407 -1.65162 0
M  V30 5748 H 551.471 3.09032 -2.9698 0
M  V30 5749 H 555.655 3.00861 -3.9471 0
M  V30 5750 H 550.911 2.94346 -5.35883 0
M  V30 5751 H 555.085 2.87321 -6.34366 0
M  V30 5752 H 552.712 2.83586 -7.05325 0
M  V30 5753 N 554.287 1.06798 1.15896 0
M  V30 5754 C 555.197 0.694564 2.24083 0
M  V30 5755 C 556.213 -0.291687 1.71538 0
M  V30 5756 O 557.389 -0.139723 2.00915 0
M  V30 5757 C 554.454 0.0921014 3.46578 0
M  V30 5758 C 553.515 1.13087 4.14137 0
M  V30 5759 C 552.748 0.557064 5.30785 0
M  V30 5760 O 552.971 -0.628623 5.66925 0
M  V30 5761 O 551.905 1.29924 5.8771 0
M  V30 5762 H 555.731 1.59663 2.58344 0
M  V30 5763 H 553.316 0.840575 1.2351 0
M  V30 5764 H 555.198 -0.241884 4.20705 0
M  V30 5765 H 553.873 -0.78337 3.14078 0
M  V30 5766 H 552.78 1.51712 3.41957 0
M  V30 5767 H 554.113 1.97805 4.50704 0
M  V30 5768 N 555.766 -1.3263 0.851289 0
M  V30 5769 C 556.714 -2.30882 0.282202 0
M  V30 5770 C 557.708 -1.58697 -0.592589 0
M  V30 5771 O 558.914 -1.73461 -0.480768 0
M  V30 5772 H 555.289 -0.748492 0.0725487 0
M  V30 5773 H 557.26 -2.76374 1.12516 0
M  V30 5774 C 556.009 -3.43828 -0.517449 0
M  V30 5775 H 555.332 -3.99532 0.146392 0
M  V30 5776 H 556.772 -4.1474 -0.88128 0
M  V30 5777 C 555.231 -2.90786 -1.70133 0
M  V30 5778 O 555.761 -2.88 -2.80034 0
M  V30 5779 N 553.967 -2.4723 -1.52728 0
M  V30 5780 H 553.514 -2.49695 -0.633257 0
M  V30 5781 H 553.472 -2.12094 -2.32085 0
M  V30 5782 N 557.244 -0.608902 -1.45362 0
M  V30 5783 C 558.154 0.110969 -2.34337 0
M  V30 5784 C 559.17 0.859007 -1.51318 0
M  V30 5785 O 560.346 0.816296 -1.84116 0
M  V30 5786 C 557.411 1.09494 -3.28956 0
M  V30 5787 C 556.472 0.348718 -4.27881 0
M  V30 5788 C 555.705 1.28582 -5.17979 0
M  V30 5789 O 555.928 2.52369 -5.11533 0
M  V30 5790 O 554.862 0.782172 -5.96796 0
M  V30 5791 H 558.688 -0.620258 -2.97299 0
M  V30 5792 H 556.273 -0.36916 -1.44767 0
M  V30 5793 H 558.155 1.66163 -3.87257 0
M  V30 5794 H 556.83 1.80717 -2.68557 0
M  V30 5795 H 555.737 -0.260465 -3.73192 0
M  V30 5796 H 557.07 -0.323049 -4.91139 0
M  V30 5797 N 558.722 1.53707 -0.348139 0
M  V30 5798 C 559.672 2.2193 0.522592 0
M  V30 5799 C 560.656 1.20831 1.06248 0
M  V30 5800 O 561.848 1.46357 0.995415 0
M  V30 5801 C 558.977 2.99904 1.6707 0
M  V30 5802 C 558.063 4.08364 1.14454 0
M  V30 5803 N 558.454 5.04656 0.339958 0
M  V30 5804 C 556.752 4.22757 1.421 0
M  V30 5805 C 557.453 5.81675 0.0538806 0
M  V30 5806 N 556.429 5.39739 0.646776 0
M  V30 5807 H 560.231 2.93733 -0.099135 0
M  V30 5808 H 557.745 1.61656 -0.15524 0
M  V30 5809 H 559.742 3.47284 2.30651 0
M  V30 5810 H 558.402 2.29629 2.29566 0
M  V30 5811 H 559.413 5.17896 -0.0193552 0
M  V30 5812 H 556.09 3.63704 2.05002 0
M  V30 5813 H 557.48 6.69256 -0.595443 0
M  V30 5814 N 560.2 0.0768682 1.57412 0
M  V30 5815 C 561.425 -0.603404 1.98428 0
M  V30 5816 C 561.85 -1.62047 0.955108 0
M  V30 5817 O 561.208 -1.81129 -0.0786778 0
M  V30 5818 C 561.256 -1.24396 3.38464 0
M  V30 5819 O 560.36 -2.35982 3.3821 0
M  V30 5820 H 559.701 -0.154741 0.645718 0
M  V30 5821 H 562.231 0.152885 2.04028 0
M  V30 5822 H 562.241 -1.5896 3.7576 0
M  V30 5823 H 560.916 -0.498735 4.12899 0
M  V30 5824 H 559.493 -2.03173 3.1269 0
M  V30 5825 N 561.678 -1.56367 -0.196722 0
M  V30 5826 C 562.908 -1.84371 -0.932254 0
M  V30 5827 C 563.316 -0.657013 -1.77426 0
M  V30 5828 O 562.659 0.383576 -1.79651 0
M  V30 5829 C 562.721 -3.06454 -1.87952 0
M  V30 5830 C 562.385 -4.40425 -1.21962 0
M  V30 5831 C 563.382 -5.16457 -0.597343 0
M  V30 5832 C 561.067 -4.8716 -1.22396 0
M  V30 5833 C 563.061 -6.37399 0.0117913 0
M  V30 5834 C 560.748 -6.08038 -0.610995 0
M  V30 5835 C 561.746 -6.83 0.00580487 0
M  V30 5836 O 561.434 -8.01589 0.609173 0
M  V30 5837 H 561.166 -0.616377 -0.277589 0
M  V30 5838 H 563.72 -2.04329 -0.209452 0
M  V30 5839 H 561.95 -2.82377 -2.64197 0
M  V30 5840 H 563.639 -3.21118 -2.48271 0
M  V30 5841 H 564.405 -4.81445 -0.586142 0
M  V30 5842 H 560.284 -4.2877 -1.69345 0
M  V30 5843 H 563.828 -6.9585 0.493836 0
M  V30 5844 H 559.725 -6.42519 -0.619693 0
M  V30 5845 H 560.493 -8.16935 0.505919 0
M  V30 5846 N 563.156 0.464375 -1.50603 0
M  V30 5847 C 564.086 1.56944 -1.72889 0
M  V30 5848 C 565.067 1.59979 -0.577997 0
M  V30 5849 O 566.252 1.76138 -0.817855 0
M  V30 5850 C 563.382 2.95225 -1.8292 0
M  V30 5851 C 562.336 3.07056 -2.98162 0
M  V30 5852 C 561.662 4.47051 -2.93343 0
M  V30 5853 C 562.962 2.83648 -4.38567 0
M  V30 5854 H 564.656 1.38547 -2.65415 0
M  V30 5855 H 562.202 0.665082 -1.27721 0
M  V30 5856 H 564.155 3.72467 -1.97095 0
M  V30 5857 H 562.879 3.14793 -0.870209 0
M  V30 5858 H 561.538 2.32248 -2.83648 0
M  V30 5859 H 561.186 4.63547 -1.95276 0
M  V30 5860 H 560.886 4.55902 -3.70712 0
M  V30 5861 H 562.41 5.26304 -3.09575 0
M  V30 5862 H 563.824 3.50636 -4.53572 0
M  V30 5863 H 562.221 3.03937 -5.17438 0
M  V30 5864 H 563.291 1.79451 -4.50472 0
M  V30 5865 N 564.634 1.40294 0.718013 0
M  V30 5866 C 565.874 1.39888 1.49032 0
M  V30 5867 C 566.238 -0.000462935 1.92 0
M  V30 5868 O 567.439 -0.129622 2.68487 0
M  V30 5869 C 565.71 2.35868 2.68516 0
M  V30 5870 S 567.269 2.53799 3.57954 0
M  V30 5871 H 564.087 0.495849 0.509563 0
M  V30 5872 H 566.689 1.76541 0.839846 0
M  V30 5873 H 565.393 3.36375 2.35117 0
M  V30 5874 H 564.924 2.0049 3.38478 0
M  V30 5875 H 566.939 1.78859 4.62843 0
M  V30 5876 N 566.112 -0.949982 1.2575 0
M  V30 5877 C 567.34 -1.72972 1.13527 0
M  V30 5878 C 567.755 -1.8623 -0.310453 0
M  V30 5879 O 567.112 -1.36336 -1.2132 0
M  V30 5880 C 567.163 -3.14108 1.78936 0
M  V30 5881 O 566.884 -3.01493 3.17858 0
M  V30 5882 C 568.385 -4.08338 1.72554 0
M  V30 5883 H 565.605 -0.541864 0.395758 0
M  V30 5884 H 568.149 -1.19151 1.66202 0
M  V30 5885 H 566.304 -3.64858 1.30221 0
M  V30 5886 H 566.718 -3.90559 3.50092 0
M  V30 5887 H 568.192 -5.04963 2.22973 0
M  V30 5888 H 568.669 -4.33742 0.690251 0
M  V30 5889 H 569.275 -3.63506 2.2078 0
M  V30 5890 N 567.59 -1.07411 -1.15328 0
M  V30 5891 C 568.836 -0.798831 -1.86404 0
M  V30 5892 C 569.169 0.673433 -1.8215 0
M  V30 5893 O 568.444 1.49428 -1.24505 0
M  V30 5894 C 568.727 -1.30846 -3.35487 0
M  V30 5895 C 568.58 -2.84532 -3.4837 0
M  V30 5896 C 569.899 -0.925486 -4.30259 0
M  V30 5897 H 567.018 -0.291659 -0.676834 0
M  V30 5898 H 569.66 -1.332 -1.35491 0
M  V30 5899 H 567.81 -0.854916 -3.78977 0
M  V30 5900 H 569.482 -3.3818 -3.13739 0
M  V30 5901 H 567.725 -3.22699 -2.8991 0
M  V30 5902 H 568.396 -3.15259 -4.53118 0
M  V30 5903 H 570.872 -1.3163 -3.94731 0
M  V30 5904 H 569.748 -1.3094 -5.33053 0
M  V30 5905 H 570.009 0.168525 -4.41779 0
M  V30 5906 N 569.068 1.32177 -0.85831 0
M  V30 5907 C 570.296 2.01313 -0.477582 0
M  V30 5908 C 570.711 1.6449 0.926736 0
M  V30 5909 O 570.068 0.868096 1.60531 0
M  V30 5910 C 570.119 3.56293 -0.611337 0
M  V30 5911 O 569.84 3.91794 -1.96034 0
M  V30 5912 C 571.341 4.42702 -0.230093 0
M  V30 5913 H 568.561 0.644323 -0.187322 0
M  V30 5914 H 571.105 1.68674 -1.15626 0
M  V30 5915 H 569.26 3.87395 0.0196494 0
M  V30 5916 H 569.674 4.86513 -1.95973 0
M  V30 5917 H 571.148 5.50727 -0.374674 0
M  V30 5918 H 571.625 4.3129 0.829779 0
M  V30 5919 H 572.231 4.16997 -0.836302 0
M  V30 5920 N 570.547 0.616602 1.45037 0
M  V30 5921 C 571.787 0.118453 2.04056 0
M  V30 5922 C 572.151 -1.23104 1.47341 0
M  V30 5923 O 573.352 -1.82044 1.97771 0
M  V30 5924 C 571.623 0.0892842 3.57288 0
M  V30 5925 S 573.182 -0.346361 4.37431 0
M  V30 5926 H 570 0.0539728 0.708948 0
M  V30 5927 H 572.602 0.816731 1.77623 0
M  V30 5928 H 571.306 1.07481 3.96076 0
M  V30 5929 H 570.837 -0.630703 3.88311 0
M  V30 5930 H 572.852 -1.59389 4.69904 0
M  V30 5931 N 572.025 -1.5352 0.356285 0
M  V30 5932 C 573.273 -2.00719 -0.235837 0
M  V30 5933 C 573.594 -1.24551 -1.5004 0
M  V30 5934 O 572.864 -0.356185 -1.92635 0
M  V30 5935 H 571.444 -0.741542 -0.0901366 0
M  V30 5936 H 574.106 -1.88887 0.480378 0
M  V30 5937 H 573.202 -3.08551 -0.469357 0
M  V30 5938 N 573.503 -0.0852151 -1.57369 0
M  V30 5939 C 574.453 0.88767 -2.10011 0
M  V30 5940 C 575.437 1.25021 -1.01285 0
M  V30 5941 O 576.629 1.22694 -1.27574 0
M  V30 5942 C 573.758 2.15037 -2.67608 0
M  V30 5943 C 572.844 1.81371 -3.83361 0
M  V30 5944 N 573.235 1.18216 -4.91791 0
M  V30 5945 C 571.533 2.11041 -3.92909 0
M  V30 5946 C 572.234 1.02941 -5.72519 0
M  V30 5947 N 571.21 1.54351 -5.21226 0
M  V30 5948 H 575.012 0.395279 -2.9123 0
M  V30 5949 H 572.526 0.11829 -1.61969 0
M  V30 5950 H 574.523 2.85667 -3.03644 0
M  V30 5951 H 573.183 2.64851 -1.8784 0
M  V30 5952 H 574.194 0.850168 -5.10874 0
M  V30 5953 H 570.871 2.63138 -3.24136 0
M  V30 5954 H 572.261 0.536298 -6.69756 0
M  V30 5955 N 574.981 1.5647 0.188427 0
M  V30 5956 C 575.928 1.95073 1.23349 0
M  V30 5957 C 576.898 0.812238 1.44886 0
M  V30 5958 O 578.083 1.07095 1.57909 0
M  V30 5959 C 575.223 2.30124 2.57171 0
M  V30 5960 C 574.336 3.57069 2.43157 0
M  V30 5961 C 573.471 3.81411 3.69729 0
M  V30 5962 C 572.51 5.0176 3.50575 0
M  V30 5963 N 571.647 5.22321 4.69175 0
M  V30 5964 H 576.487 2.84171 0.89728 0
M  V30 5965 H 574.024 1.40623 0.431683 0
M  V30 5966 H 575.982 2.48463 3.35145 0
M  V30 5967 H 574.612 1.44159 2.88822 0
M  V30 5968 H 573.664 3.4674 1.56447 0
M  V30 5969 H 574.976 4.452 2.24942 0
M  V30 5970 H 574.13 4.00026 4.56141 0
M  V30 5971 H 572.869 2.91624 3.90905 0
M  V30 5972 H 571.874 4.83061 2.62549 0
M  V30 5973 H 573.099 5.93063 3.30837 0
M  V30 5974 H 571.045 4.35483 4.90602 0
M  V30 5975 H 570.962 6.04643 4.53809 0
M  V30 5976 H 572.23 5.45401 5.56919 0
M  V30 5977 N 576.459 -0.456382 1.50847 0
M  V30 5978 C 577.406 -1.55249 1.70782 0
M  V30 5979 C 578.376 -1.56757 0.549231 0
M  V30 5980 O 579.561 -1.74061 0.7815 0
M  V30 5981 C 576.701 -2.93118 1.82143 0
M  V30 5982 C 575.814 -3.01285 3.09598 0
M  V30 5983 C 574.949 -4.30159 3.11667 0
M  V30 5984 C 573.988 -4.32124 4.33515 0
M  V30 5985 N 573.125 -5.52492 4.3324 0
M  V30 5986 H 577.965 -1.37555 2.64353 0
M  V30 5987 H 575.502 -0.668543 1.3103 0
M  V30 5988 H 577.46 -3.73088 1.86711 0
M  V30 5989 H 576.09 -3.09413 0.919978 0
M  V30 5990 H 575.142 -2.14096 3.14431 0
M  V30 5991 H 576.454 -2.98597 3.99551 0
M  V30 5992 H 575.608 -5.18489 3.15046 0
M  V30 5993 H 574.347 -4.35477 2.1957 0
M  V30 5994 H 573.352 -3.42189 4.30333 0
M  V30 5995 H 574.577 -4.28485 5.26856 0
M  V30 5996 H 572.523 -5.58567 3.44004 0
M  V30 5997 H 572.44 -5.51605 5.16979 0
M  V30 5998 H 573.708 -6.42906 4.40786 0
M  V30 5999 N 577.937 -1.40673 -0.710563 0
M  V30 6000 C 578.867 -1.44095 -1.83736 0
M  V30 6001 C 579.848 -0.301286 -1.67411 0
M  V30 6002 O 581.033 -0.510618 -1.87367 0
M  V30 6003 C 578.163 -1.30773 -3.21738 0
M  V30 6004 C 577.117 -2.42395 -3.52745 0
M  V30 6005 C 576.443 -2.14147 -4.89944 0
M  V30 6006 C 577.743 -3.84738 -3.53234 0
M  V30 6007 H 579.437 -2.38396 -1.81129 0
M  V30 6008 H 576.983 -1.14746 -0.870017 0
M  V30 6009 H 578.936 -1.31783 -4.00264 0
M  V30 6010 H 577.66 -0.329507 -3.24934 0
M  V30 6011 H 576.319 -2.40643 -2.76562 0
M  V30 6012 H 575.967 -1.14703 -4.89747 0
M  V30 6013 H 575.667 -2.88934 -5.11655 0
M  V30 6014 H 577.191 -2.16848 -5.70797 0
M  V30 6015 H 578.605 -3.88286 -4.2179 0
M  V30 6016 H 577.002 -4.59085 -3.86473 0
M  V30 6017 H 578.072 -4.13962 -2.52514 0
M  V30 6018 N 579.415 0.9433 -1.26252 0
M  V30 6019 C 580.325 2.07532 -1.09397 0
M  V30 6020 C 581.341 1.73977 -0.0280449 0
M  V30 6021 O 582.517 2.00067 -0.231337 0
M  V30 6022 C 579.582 3.39002 -0.726523 0
M  V30 6023 C 578.643 3.86353 -1.87163 0
M  V30 6024 C 577.876 5.11549 -1.52162 0
M  V30 6025 O 578.099 5.68834 -0.422385 0
M  V30 6026 O 577.033 5.53889 -2.35565 0
M  V30 6027 H 580.859 2.24658 -2.04359 0
M  V30 6028 H 578.444 1.05988 -1.05295 0
M  V30 6029 H 580.326 4.18 -0.534236 0
M  V30 6030 H 579.001 3.2312 0.193721 0
M  V30 6031 H 577.908 3.0831 -2.11886 0
M  V30 6032 H 579.241 4.06752 -2.77152 0
M  V30 6033 N 580.893 1.08022 1.14757 0
M  V30 6034 C 581.84 0.706657 2.19716 0
M  V30 6035 C 582.81 -0.30525 1.63271 0
M  V30 6036 O 583.995 -0.19015 1.8985 0
M  V30 6037 C 581.135 0.117914 3.44898 0
M  V30 6038 C 580.248 1.18212 4.15512 0
M  V30 6039 C 579.383 0.557659 5.28265 0
M  V30 6040 C 578.422 1.60418 5.90705 0
M  V30 6041 N 577.559 1.0018 6.94916 0
M  V30 6042 H 582.399 1.60603 2.51019 0
M  V30 6043 H 579.936 0.802664 1.23271 0
M  V30 6044 H 581.894 -0.241112 4.16503 0
M  V30 6045 H 580.524 -0.744788 3.1409 0
M  V30 6046 H 579.576 1.65863 3.42335 0
M  V30 6047 H 580.888 1.97533 4.5802 0
M  V30 6048 H 580.042 0.146654 6.06523 0
M  V30 6049 H 578.781 -0.267249 4.86967 0
M  V30 6050 H 577.786 2.02489 5.11154 0
M  V30 6051 H 579.011 2.43149 6.34078 0
M  V30 6052 H 576.957 0.197917 6.55701 0
M  V30 6053 H 576.874 1.73216 7.35889 0
M  V30 6054 H 578.142 0.616523 7.77058 0
M  V30 6055 N 582.371 -1.3172 0.865308 0
M  V30 6056 C 583.619 -1.96487 0.472995 0
M  V30 6057 C 583.94 -1.68761 -0.976975 0
M  V30 6058 O 583.21 -1.00051 -1.68424 0
M  V30 6059 H 581.79 -0.726947 0.171922 0
M  V30 6060 H 584.452 -1.60612 1.10407 0
M  V30 6061 H 583.548 -3.0574 0.62687 0
M  V30 6062 N 583.85 -0.624285 -1.44708 0
M  V30 6063 C 585.099 -0.123539 -2.01321 0
M  V30 6064 C 585.412 1.25966 -1.49639 0
M  V30 6065 O 586.618 1.85405 -1.98336 0
M  V30 6066 C 585.074 -0.170124 -3.59498 0
M  V30 6067 C 584.682 -1.55421 -4.20176 0
M  V30 6068 C 586.426 0.274513 -4.23611 0
M  V30 6069 C 584.332 -1.55628 -5.70556 0
M  V30 6070 H 583.263 -0.0424183 -0.752806 0
M  V30 6071 H 585.913 -0.782076 -1.65999 0
M  V30 6072 H 584.296 0.555385 -3.92086 0
M  V30 6073 H 585.47 -2.30276 -3.99136 0
M  V30 6074 H 583.784 -1.94235 -3.68323 0
M  V30 6075 H 586.382 0.292402 -5.339 0
M  V30 6076 H 586.725 1.3005 -3.95465 0
M  V30 6077 H 587.258 -0.398275 -3.95801 0
M  V30 6078 H 583.997 -2.56041 -6.03426 0
M  V30 6079 H 583.517 -0.850563 -5.93739 0
M  V30 6080 H 585.196 -1.28721 -6.34066 0
M  V30 6081 N 585.328 1.53329 -0.364422 0
M  V30 6082 C 586.26 2.23286 0.517293 0
M  V30 6083 C 587.273 1.24657 1.04711 0
M  V30 6084 O 588.462 1.50887 0.95369 0
M  V30 6085 C 585.562 2.91604 1.72685 0
M  V30 6086 C 584.735 4.1673 1.32873 0
M  V30 6087 C 583.794 4.68269 2.40022 0
M  V30 6088 O 582.82 5.31976 2.02461 0
M  V30 6089 N 584.022 4.45983 3.7159 0
M  V30 6090 H 586.787 2.99588 -0.0819391 0
M  V30 6091 H 584.348 1.60787 -0.189544 0
M  V30 6092 H 586.34 3.22992 2.4384 0
M  V30 6093 H 584.91 2.18763 2.23297 0
M  V30 6094 H 584.13 3.91657 0.447069 0
M  V30 6095 H 585.418 4.98078 1.03902 0
M  V30 6096 H 584.816 3.95077 4.04883 0
M  V30 6097 H 583.373 4.81924 4.38854 0
M  V30 6098 N 586.806 0.0935595 1.57322 0
M  V30 6099 C 588.052 -0.571355 1.94585 0
M  V30 6100 C 588.385 -1.67929 0.975366 0
M  V30 6101 O 587.66 -1.94498 0.00816206 0
M  V30 6102 C 587.943 -1.12797 3.41978 0
M  V30 6103 C 587.796 -0.0251881 4.49793 0
M  V30 6104 C 589.115 -2.02682 3.90651 0
M  V30 6105 H 586.234 -0.206223 0.70756 0
M  V30 6106 H 588.876 0.163956 1.89291 0
M  V30 6107 H 587.026 -1.75461 3.4662 0
M  V30 6108 H 588.698 0.608979 4.57263 0
M  V30 6109 H 586.941 0.641399 4.29032 0
M  V30 6110 H 587.612 -0.455433 5.50118 0
M  V30 6111 H 590.088 -1.49925 3.88152 0
M  V30 6112 H 588.964 -2.38555 4.94351 0
M  V30 6113 H 589.225 -2.94362 3.29854 0
M  V30 6114 N 588.284 -1.56567 -0.180126 0
M  V30 6115 C 589.194 -1.98947 -1.24327 0
M  V30 6116 C 590.21 -0.899446 -1.4895 0
M  V30 6117 O 591.386 -1.20639 -1.61271 0
M  V30 6118 C 588.451 -2.33328 -2.56435 0
M  V30 6119 C 587.512 -3.56114 -2.39752 0
M  V30 6120 C 586.745 -3.88845 -3.65561 0
M  V30 6121 O 586.968 -3.22662 -4.70368 0
M  V30 6122 O 585.902 -4.82226 -3.60197 0
M  V30 6123 H 589.728 -2.89634 -0.913565 0
M  V30 6124 H 587.313 -1.44319 -0.386306 0
M  V30 6125 H 589.195 -2.5645 -3.34382 0
M  V30 6126 H 587.87 -1.45806 -2.89002 0
M  V30 6127 H 586.777 -3.38221 -1.59866 0
M  V30 6128 H 588.11 -4.4415 -2.12113 0
M  V30 6129 N 589.762 0.448376 -1.51087 0
M  V30 6130 C 590.692 1.55102 -1.74544 0
M  V30 6131 C 591.673 1.59357 -0.594932 0
M  V30 6132 O 592.858 1.75261 -0.836491 0
M  V30 6133 C 589.988 2.93268 -1.86041 0
M  V30 6134 C 588.942 3.03877 -3.01402 0
M  V30 6135 C 588.268 4.43914 -2.98068 0
M  V30 6136 C 589.568 2.7898 -4.41551 0
M  V30 6137 H 591.262 1.35724 -2.66869 0
M  V30 6138 H 588.808 0.651498 -1.28419 0
M  V30 6139 H 590.761 3.70356 -2.01034 0
M  V30 6140 H 589.485 3.13853 -0.903548 0
M  V30 6141 H 588.144 2.29227 -2.86096 0
M  V30 6142 H 587.792 4.6145 -2.00182 0
M  V30 6143 H 587.492 4.51944 -3.75527 0
M  V30 6144 H 589.016 5.22991 -3.1514 0
M  V30 6145 H 590.43 3.45805 -4.57265 0
M  V30 6146 H 588.827 2.98431 -5.20633 0
M  V30 6147 H 589.897 1.74663 -4.5235 0
M  V30 6148 N 591.24 1.41047 0.703093 0
M  V30 6149 C 592.47 1.43133 1.48985 0
M  V30 6150 C 592.878 0.0328537 1.89171 0
M  V30 6151 O 592.221 -0.956469 1.56835 0
M  V30 6152 C 592.283 2.26991 2.78775 0
M  V30 6153 C 591.947 3.7525 2.60837 0
M  V30 6154 C 592.944 4.67591 2.27276 0
M  V30 6155 C 590.629 4.19208 2.76712 0
M  V30 6156 C 592.623 6.01877 2.09817 0
M  V30 6157 C 590.31 5.53561 2.5887 0
M  V30 6158 C 591.308 6.4471 2.25472 0
M  V30 6159 O 590.996 7.76584 2.07778 0
M  V30 6160 H 590.728 0.489788 0.465922 0
M  V30 6161 H 593.282 1.85886 0.873822 0
M  V30 6162 H 591.512 1.79038 3.42757 0
M  V30 6163 H 593.201 2.20867 3.40547 0
M  V30 6164 H 593.967 4.34923 2.14633 0
M  V30 6165 H 589.846 3.48572 3.01693 0
M  V30 6166 H 593.39 6.72986 1.83671 0
M  V30 6167 H 589.287 5.85811 2.71102 0
M  V30 6168 H 590.055 7.87649 2.22601 0
M  V30 6169 N 592.718 -0.936591 1.26751 0
M  V30 6170 C 593.943 -1.72288 1.15462 0
M  V30 6171 C 594.368 -1.85915 -0.285887 0
M  V30 6172 O 593.726 -1.35272 -1.20711 0
M  V30 6173 C 593.774 -3.10503 1.83359 0
M  V30 6174 O 592.878 -3.96745 1.1255 0
M  V30 6175 H 592.219 -0.52843 0.402067 0
M  V30 6176 H 594.749 -1.17271 1.67656 0
M  V30 6177 H 594.759 -3.60867 1.90365 0
M  V30 6178 H 593.434 -2.99901 2.88153 0
M  V30 6179 H 592.011 -3.55191 1.13551 0
M  V30 6180 N 594.196 -1.08629 -1.14182 0
M  V30 6181 C 595.443 -0.817345 -1.85272 0
M  V30 6182 C 595.771 0.656917 -1.83071 0
M  V30 6183 O 595.026 1.49897 -1.25815 0
M  V30 6184 C 595.325 -1.28734 -3.3341 0
M  V30 6185 C 594.991 -2.76981 -3.55798 0
M  V30 6186 C 593.653 -3.17469 -3.61617 0
M  V30 6187 C 596.005 -3.72605 -3.64438 0
M  V30 6188 C 593.333 -4.52371 -3.736 0
M  V30 6189 C 595.685 -5.07286 -3.77947 0
M  V30 6190 C 594.349 -5.47376 -3.82016 0
M  V30 6191 H 593.619 -0.299088 -0.677958 0
M  V30 6192 H 596.266 -1.35962 -1.34857 0
M  V30 6193 H 594.571 -0.664702 -3.8612 0
M  V30 6194 H 596.268 -1.05598 -3.86846 0
M  V30 6195 H 592.858 -2.44644 -3.51919 0
M  V30 6196 H 597.042 -3.42443 -3.5923 0
M  V30 6197 H 592.298 -4.82882 -3.75013 0
M  V30 6198 H 596.472 -5.81243 -3.83575 0
M  V30 6199 H 594.099 -6.51906 -3.91054 0
M  V30 6200 N 595.674 1.31259 -0.872281 0
M  V30 6201 C 597.085 1.78822 -0.536617 0
M  V30 6202 C 597.436 1.71855 0.946594 0
M  V30 6203 O 596.561 1.28769 1.73918 0
M  V30 6204 C 597.156 3.24698 -0.967294 0
M  V30 6205 C 595.715 3.70147 -0.683251 0
M  V30 6206 C 594.862 2.51994 -1.15733 0
M  V30 6207 H 597.813 1.18308 -1.05777 0
M  V30 6208 H 597.834 3.79386 -0.290929 0
M  V30 6209 H 597.346 3.29737 -2.04683 0
M  V30 6210 H 595.447 3.70607 0.384825 0
M  V30 6211 H 595.56 4.62183 -1.2619 0
M  V30 6212 H 593.924 2.48078 -0.577024 0
M  V30 6213 H 594.707 2.59778 -2.24434 0
M  V30 6214 N 597.152 0.631951 1.44375 0
M  V30 6215 C 598.568 0.297642 1.568 0
M  V30 6216 C 598.768 -1.19916 1.61934 0
M  V30 6217 O 597.824 -1.98324 1.56281 0
M  V30 6218 C 599.137 0.990286 2.83926 0
M  V30 6219 C 600.685 0.968507 2.97639 0
M  V30 6220 C 601.16 1.64163 4.27568 0
M  V30 6221 N 602.651 1.60826 4.34384 0
M  V30 6222 C 603.386 2.09802 5.33639 0
M  V30 6223 N 602.882 2.66973 6.39294 0
M  V30 6224 N 604.675 2.00426 5.25153 0
M  V30 6225 H 596.826 1.60353 1.39286 0
M  V30 6226 H 599.089 0.673142 0.667521 0
M  V30 6227 H 598.795 2.04519 2.8612 0
M  V30 6228 H 598.669 0.528563 3.73478 0
M  V30 6229 H 601.056 -0.0779247 2.94997 0
M  V30 6230 H 601.137 1.46873 2.09433 0
M  V30 6231 H 600.781 2.68752 4.3097 0
M  V30 6232 H 600.711 1.11624 5.14634 0
M  V30 6233 H 603.202 1.19087 3.58646 0
M  V30 6234 H 603.515 3.02074 7.11316 0
M  V30 6235 H 601.86 2.71024 6.39977 0
M  V30 6236 H 605.051 1.55483 4.41523 0
M  V30 6237 H 605.224 2.38906 6.02352 0
M  V30 6238 N 598.631 -1.53133 0.372548 0
M  V30 6239 C 599.908 -1.93704 -0.271693 0
M  V30 6240 C 600.288 -1.30667 -1.65799 0
M  V30 6241 O 599.636 -0.46838 -2.23648 0
M  V30 6242 C 599.846 -3.47576 -0.314903 0
M  V30 6243 C 601.194 -4.20998 -0.551912 0
M  V30 6244 O 602.218 -3.53994 -0.39582 0
M  V30 6245 O 601.077 -5.39748 -0.85639 0
M  V30 6246 H 598.171 -0.810457 -0.164586 0
M  V30 6247 H 600.717 -1.6427 0.425838 0
M  V30 6248 H 599.489 -3.85749 0.656792 0
M  V30 6249 H 599.112 -3.83264 -1.05804 0
M  V30 6250 N 600.109 -0.101901 -1.5727 0
M  V30 6251 C 601.52 0.426173 -1.81771 0
M  V30 6252 C 601.871 1.67725 -1.01797 0
M  V30 6253 O 600.996 2.14958 -0.249386 0
M  V30 6254 C 601.591 0.779962 -3.297 0
M  V30 6255 C 600.15 1.25275 -3.54941 0
M  V30 6256 C 599.297 0.252814 -2.76145 0
M  V30 6257 H 602.248 -0.32726 -1.55289 0
M  V30 6258 H 602.269 1.63891 -3.43395 0
M  V30 6259 H 601.781 -0.130778 -3.8788 0
M  V30 6260 H 599.882 2.18097 -3.021 0
M  V30 6261 H 599.995 1.20988 -4.63572 0
M  V30 6262 H 598.359 0.736362 -2.43823 0
M  V30 6263 H 599.142 -0.650724 -3.37076 0
M  V30 6264 N 601.587 1.56661 0.17182 0
M  V30 6265 C 602.497 1.99604 1.2327 0
M  V30 6266 C 603.513 0.907333 1.4847 0
M  V30 6267 O 604.689 1.21492 1.60629 0
M  V30 6268 C 601.754 2.34685 2.55194 0
M  V30 6269 C 600.815 3.57381 2.3786 0
M  V30 6270 C 600.048 3.90779 3.63494 0
M  V30 6271 O 600.271 3.25152 4.6865 0
M  V30 6272 O 599.205 4.84129 3.57634 0
M  V30 6273 H 603.031 2.90114 0.898192 0
M  V30 6274 H 600.616 1.44522 0.378647 0
M  V30 6275 H 602.498 2.5822 3.33017 0
M  V30 6276 H 601.173 1.47336 2.88225 0
M  V30 6277 H 600.08 3.39064 1.5807 0
M  V30 6278 H 601.413 4.45268 2.09754 0
M  V30 6279 N 603.065 -0.440357 1.51323 0
M  V30 6280 C 604.314 -1.18697 1.63076 0
M  V30 6281 C 604.627 -1.92418 0.35136 0
M  V30 6282 O 605.833 -2.69258 0.348221 0
M  V30 6283 C 604.289 -2.15849 2.87988 0
M  V30 6284 C 603.897 -1.47789 4.22921 0
M  V30 6285 C 605.641 -2.90962 3.09098 0
M  V30 6286 C 603.548 -2.43407 5.38987 0
M  V30 6287 H 602.478 -0.44676 0.607389 0
M  V30 6288 H 605.129 -0.454313 1.77787 0
M  V30 6289 H 603.511 -2.92537 2.66905 0
M  V30 6290 H 604.685 -0.7668 4.54375 0
M  V30 6291 H 603 -0.848404 4.07665 0
M  V30 6292 H 605.597 -3.62584 3.92985 0
M  V30 6293 H 605.94 -3.52133 2.22053 0
M  V30 6294 H 606.473 -2.21381 3.30507 0
M  V30 6295 H 603.212 -1.86929 6.28282 0
M  V30 6296 H 602.732 -3.12579 5.11913 0
M  V30 6297 H 604.411 -3.046 5.70813 0
M  V30 6298 N 604.543 -1.41418 -0.695603 0
M  V30 6299 C 605.453 -1.45622 -1.83933 0
M  V30 6300 C 606.469 -0.346825 -1.70508 0
M  V30 6301 O 607.645 -0.59454 -1.92424 0
M  V30 6302 C 604.71 -1.33627 -3.19914 0
M  V30 6303 C 603.771 -2.54882 -3.45447 0
M  V30 6304 C 603.004 -2.43449 -4.7494 0
M  V30 6305 O 603.227 -1.45905 -5.51424 0
M  V30 6306 O 602.161 -3.33206 -5.01256 0
M  V30 6307 H 605.987 -2.42114 -1.83342 0
M  V30 6308 H 603.572 -1.22956 -0.848658 0
M  V30 6309 H 605.454 -1.29221 -4.01098 0
M  V30 6310 H 604.129 -0.402508 -3.21188 0
M  V30 6311 H 603.036 -2.64865 -2.64192 0
M  V30 6312 H 604.369 -3.47087 -3.48987 0
M  V30 6313 N 606.021 0.929856 -1.27246 0
M  V30 6314 C 606.954 2.03069 -1.04106 0
M  V30 6315 C 607.932 1.62556 0.0378417 0
M  V30 6316 O 609.116 1.88197 -0.106869 0
M  V30 6317 C 606.243 3.33718 -0.578778 0
M  V30 6318 C 605.289 3.93209 -1.65193 0
M  V30 6319 S 606.122 4.26068 -3.24386 0
M  V30 6320 C 607.278 5.598 -2.79954 0
M  V30 6321 H 607.511 2.22386 -1.97311 0
M  V30 6322 H 605.044 1.07269 -1.11053 0
M  V30 6323 H 607.002 4.09261 -0.31874 0
M  V30 6324 H 605.663 3.12328 0.333182 0
M  V30 6325 H 604.856 4.87482 -1.27973 0
M  V30 6326 H 604.458 3.24243 -1.86393 0
M  V30 6327 H 606.75 6.39004 -2.25123 0
M  V30 6328 H 607.693 6.01917 -3.72963 0
M  V30 6329 H 608.101 5.20219 -2.19164 0
M  V30 6330 N 607.499 1.09233 1.13605 0
M  V30 6331 C 608.724 0.849067 1.89224 0
M  V30 6332 C 609.149 -0.593875 1.78479 0
M  V30 6333 O 608.507 -1.41703 1.13092 0
M  V30 6334 C 608.555 1.28642 3.36873 0
M  V30 6335 O 607.659 0.44363 4.10007 0
M  V30 6336 H 607 0.30767 0.588417 0
M  V30 6337 H 609.53 1.45595 1.43748 0
M  V30 6338 H 609.54 1.27096 3.87699 0
M  V30 6339 H 608.215 2.33729 3.44011 0
M  V30 6340 H 606.792 0.523241 3.69211 0
M  V30 6341 N 608.977 -1.30795 0.87923 0
M  V30 6342 C 610.225 -1.95974 0.493809 0
M  V30 6343 C 610.546 -1.69787 -0.959021 0
M  V30 6344 O 609.816 -1.01832 -1.67353 0
M  V30 6345 H 608.396 -0.725083 0.179622 0
M  V30 6346 H 611.058 -1.59432 1.12105 0
M  V30 6347 H 610.154 -3.05058 0.659263 0
M  V30 6348 N 610.455 -0.639598 -1.44038 0
M  V30 6349 C 611.703 -0.147188 -2.01563 0
M  V30 6350 C 612.024 1.2384 -1.50628 0
M  V30 6351 O 611.294 1.82452 -0.713316 0
M  V30 6352 H 609.874 -0.0514231 -0.745228 0
M  V30 6353 H 612.536 -0.828205 -1.76428 0
M  V30 6354 H 611.632 -0.121358 -3.11864 0
M  V30 6355 N 611.933 1.52934 -0.380664 0
M  V30 6356 C 612.863 2.29118 0.450268 0
M  V30 6357 C 613.844 1.32153 1.07096 0
M  V30 6358 O 615.029 1.61038 1.08537 0
M  V30 6359 C 612.159 3.09161 1.58231 0
M  V30 6360 C 611.113 4.13938 1.0881 0
M  V30 6361 C 610.439 4.82153 2.31155 0
M  V30 6362 C 611.739 5.22048 0.162146 0
M  V30 6363 H 613.433 2.98826 -0.185361 0
M  V30 6364 H 610.979 1.43715 -0.0905886 0
M  V30 6365 H 612.932 3.61211 2.17036 0
M  V30 6366 H 611.656 2.3717 2.2454 0
M  V30 6367 H 610.315 3.62855 0.522633 0
M  V30 6368 H 609.963 4.06719 2.95953 0
M  V30 6369 H 609.663 5.52966 1.98752 0
M  V30 6370 H 611.187 5.37004 2.90618 0
M  V30 6371 H 612.601 5.6951 0.658126 0
M  V30 6372 H 610.998 6.00057 -0.0717122 0
M  V30 6373 H 612.068 4.78398 -0.791438 0
M  V30 6374 N 613.412 0.11024 1.57214 0
M  V30 6375 C 614.658 -0.550684 1.9518 0
M  V30 6376 C 614.991 -1.66885 0.993122 0
M  V30 6377 O 614.266 -1.94479 0.0287907 0
M  V30 6378 C 614.549 -1.09163 3.43155 0
M  V30 6379 C 614.402 0.0225198 4.49794 0
M  V30 6380 C 615.721 -1.98527 3.92778 0
M  V30 6381 H 612.84 -0.198706 0.709708 0
M  V30 6382 H 615.482 0.184024 1.89107 0
M  V30 6383 H 613.632 -1.71775 3.48462 0
M  V30 6384 H 615.304 0.657443 4.56591 0
M  V30 6385 H 613.547 0.686868 4.28328 0
M  V30 6386 H 614.218 -0.39706 5.5057 0
M  V30 6387 H 616.694 -1.458 3.8972 0
M  V30 6388 H 615.57 -2.33298 4.96853 0
M  V30 6389 H 615.831 -2.90846 3.32958 0
M  V30 6390 N 614.89 -1.56749 -0.16351 0
M  V30 6391 C 615.838 -1.97939 -1.22159 0
M  V30 6392 C 616.832 -0.869288 -1.45395 0
M  V30 6393 O 618.038 -1.05443 -1.45883 0
M  V30 6394 H 614.413 -0.629869 -0.410815 0
M  V30 6395 H 616.384 -2.86115 -0.847381 0
M  V30 6396 C 615.133 -2.36206 -2.55151 0
M  V30 6397 H 614.456 -3.2117 -2.38097 0
M  V30 6398 H 615.896 -2.68863 -3.27854 0
M  V30 6399 C 614.355 -1.20841 -3.14482 0
M  V30 6400 O 614.885 -0.500258 -3.98573 0
M  V30 6401 N 613.091 -0.976943 -2.73686 0
M  V30 6402 H 612.638 -1.55457 -2.05404 0
M  V30 6403 H 612.596 -0.206912 -3.13718 0
M  V30 6404 N 616.368 0.432326 -1.51554 0
M  V30 6405 C 617.616 1.17901 -1.64146 0
M  V30 6406 C 617.937 1.91604 -0.362367 0
M  V30 6407 O 617.207 1.85764 0.621968 0
M  V30 6408 H 615.787 0.438206 -0.604966 0
M  V30 6409 H 618.449 0.495172 -1.88505 0
M  V30 6410 H 617.545 1.90584 -2.47152 0
M  V30 6411 N 617.846 1.41785 0.688094 0
M  V30 6412 C 619.071 1.45117 1.48175 0
M  V30 6413 C 619.496 0.060129 1.88004 0
M  V30 6414 O 618.854 -0.938385 1.55126 0
M  V30 6415 C 618.902 2.37224 2.71583 0
M  V30 6416 O 618.006 1.83443 3.69354 0
M  V30 6417 H 617.347 0.492208 0.445676 0
M  V30 6418 H 619.877 1.86329 0.845145 0
M  V30 6419 H 619.887 2.53353 3.19806 0
M  V30 6420 H 618.562 3.38293 2.41931 0
M  V30 6421 H 617.139 1.76802 3.28322 0
M  V30 6422 N 619.324 -0.923095 1.27737 0
M  V30 6423 C 620.549 -1.71054 1.17283 0
M  V30 6424 C 620.974 -1.86208 -0.266153 0
M  V30 6425 O 620.332 -1.36545 -1.1927 0
M  V30 6426 C 620.38 -3.0854 1.86642 0
M  V30 6427 O 619.484 -3.95528 1.16752 0
M  V30 6428 H 618.825 -0.524136 0.407649 0
M  V30 6429 H 621.355 -1.15487 1.6889 0
M  V30 6430 H 621.365 -3.58828 1.94182 0
M  V30 6431 H 620.04 -2.96828 2.91317 0
M  V30 6432 H 618.617 -3.53967 1.17312 0
M  V30 6433 N 620.802 -1.09834 -1.13024 0
M  V30 6434 C 622.048 -0.83819 -1.84668 0
M  V30 6435 C 622.381 0.634645 -1.83537 0
M  V30 6436 O 621.656 1.46753 -1.27647 0
M  V30 6437 C 621.939 -1.37933 -3.32636 0
M  V30 6438 C 621.792 -2.91857 -3.42257 0
M  V30 6439 C 623.111 -1.01654 -4.28199 0
M  V30 6440 H 620.23 -0.30595 -0.670495 0
M  V30 6441 H 622.872 -1.36044 -1.32635 0
M  V30 6442 H 621.022 -0.935111 -3.77078 0
M  V30 6443 H 622.694 -3.44759 -3.06495 0
M  V30 6444 H 620.937 -3.28776 -2.83 0
M  V30 6445 H 621.608 -3.24799 -4.46329 0
M  V30 6446 H 624.084 -1.39973 -3.9185 0
M  V30 6447 H 622.96 -1.42217 -5.30156 0
M  V30 6448 H 623.221 0.0747794 -4.42037 0
M  V30 6449 N 622.28 1.30327 -0.886154 0
M  V30 6450 C 623.508 2.00254 -0.520176 0
M  V30 6451 C 623.923 1.66419 0.891637 0
M  V30 6452 O 623.28 0.901951 1.58654 0
M  V30 6453 C 623.331 3.54916 -0.686775 0
M  V30 6454 O 623.052 3.87547 -2.04301 0
M  V30 6455 C 624.553 4.42115 -0.323945 0
M  V30 6456 H 621.773 0.640204 -0.200947 0
M  V30 6457 H 624.317 1.66183 -1.19178 0
M  V30 6458 H 622.472 3.8735 -0.0625273 0
M  V30 6459 H 622.886 4.82247 -2.06249 0
M  V30 6460 H 624.36 5.49808 -0.491407 0
M  V30 6461 H 624.837 4.32953 0.73811 0
M  V30 6462 H 625.443 4.15129 -0.924565 0
M  V30 6463 N 623.758 0.647228 1.43697 0
M  V30 6464 C 625.004 0.158422 2.0218 0
M  V30 6465 C 625.337 -1.22233 1.50907 0
M  V30 6466 O 624.612 -1.81478 0.699702 0
M  V30 6467 C 624.895 0.1627 3.59732 0
M  V30 6468 C 624.748 1.57694 4.21251 0
M  V30 6469 C 626.067 -0.504138 4.37203 0
M  V30 6470 H 623.186 0.059042 0.734631 0
M  V30 6471 H 625.828 0.826772 1.71069 0
M  V30 6472 H 623.978 -0.406414 3.86368 0
M  V30 6473 H 625.65 2.19618 4.05667 0
M  V30 6474 H 623.893 2.12603 3.7813 0
M  V30 6475 H 624.564 1.53183 5.3032 0
M  V30 6476 H 627.04 -0.0199841 4.16095 0
M  V30 6477 H 625.916 -0.470394 5.46881 0
M  V30 6478 H 626.177 -1.57726 4.13007 0
M  V30 6479 N 625.236 -1.5273 0.388769 0
M  V30 6480 C 626.461 -2.0647 -0.19621 0
M  V30 6481 C 626.886 -1.25865 -1.39784 0
M  V30 6482 O 626.244 -0.283562 -1.79069 0
M  V30 6483 C 626.292 -3.56456 -0.5451 0
M  V30 6484 O 625.396 -3.78426 -1.63912 0
M  V30 6485 H 624.737 -0.663599 -0.023067 0
M  V30 6486 H 627.267 -1.96898 0.556084 0
M  V30 6487 H 627.277 -3.99888 -0.809557 0
M  V30 6488 H 625.952 -4.14561 0.333417 0
M  V30 6489 H 624.529 -3.46884 -1.36842 0
M  V30 6490 N 626.714 -0.118576 -1.57153 0
M  V30 6491 C 627.954 0.542618 -1.97066 0
M  V30 6492 C 628.318 1.63874 -1.00046 0
M  V30 6493 O 629.519 2.3588 -1.28895 0
M  V30 6494 C 627.79 1.06196 -3.41258 0
M  V30 6495 S 629.349 1.73174 -4.03183 0
M  V30 6496 H 626.167 0.17638 -0.688775 0
M  V30 6497 H 628.769 -0.203556 -1.94437 0
M  V30 6498 H 627.473 0.253016 -4.09619 0
M  V30 6499 H 627.004 1.84342 -3.47536 0
M  V30 6500 H 629.019 3.01749 -3.93906 0
M  V30 6501 N 628.193 1.56834 0.155195 0
M  V30 6502 C 629.14 1.97646 1.19184 0
M  V30 6503 C 630.11 0.842788 1.4313 0
M  V30 6504 O 631.295 1.1042 1.55602 0
M  V30 6505 C 628.435 2.35527 2.52232 0
M  V30 6506 C 627.548 3.62147 2.35529 0
M  V30 6507 C 626.683 3.89167 3.61555 0
M  V30 6508 C 625.722 5.09084 3.39853 0
M  V30 6509 N 624.859 5.32156 4.5799 0
M  V30 6510 H 629.699 2.8601 0.836802 0
M  V30 6511 H 627.236 1.41507 0.401758 0
M  V30 6512 H 629.194 2.55516 3.29799 0
M  V30 6513 H 627.824 1.50253 2.85699 0
M  V30 6514 H 626.876 3.4998 1.49057 0
M  V30 6515 H 628.188 4.49871 2.15448 0
M  V30 6516 H 627.342 4.09611 4.47553 0
M  V30 6517 H 626.081 2.9985 3.84632 0
M  V30 6518 H 625.086 4.88522 2.52243 0
M  V30 6519 H 626.311 5.99947 3.18183 0
M  V30 6520 H 624.257 4.45791 4.81255 0
M  V30 6521 H 624.174 6.14133 4.40882 0
M  V30 6522 H 625.442 5.57091 5.45225 0
M  V30 6523 N 629.671 -0.424282 1.51781 0
M  V30 6524 C 630.917 -1.17434 1.6534 0
M  V30 6525 C 631.25 -1.90549 0.374806 0
M  V30 6526 O 630.525 -1.84145 -0.626179 0
M  V30 6527 C 630.808 -2.18093 2.86544 0
M  V30 6528 C 630.661 -1.48975 4.24413 0
M  V30 6529 C 631.98 -3.18934 3.03264 0
M  V30 6530 H 629.099 -0.425566 0.601716 0
M  V30 6531 H 631.741 -0.461921 1.84299 0
M  V30 6532 H 629.891 -2.78849 2.7051 0
M  V30 6533 H 631.563 -0.914551 4.52143 0
M  V30 6534 H 629.806 -0.791893 4.26511 0
M  V30 6535 H 630.477 -2.22347 5.05238 0
M  V30 6536 H 632.953 -2.68243 3.18096 0
M  V30 6537 H 631.829 -3.86645 3.89611 0
M  V30 6538 H 632.09 -3.85793 2.15908 0
M  V30 6539 N 631.149 -1.42148 -0.680565 0
M  V30 6540 C 632.56 -1.3768 -1.26099 0
M  V30 6541 C 632.911 -0.0672348 -1.96085 0
M  V30 6542 O 632.036 0.834172 -1.99676 0
M  V30 6543 C 632.631 -2.49387 -2.29328 0
M  V30 6544 C 631.19 -2.4827 -2.82911 0
M  V30 6545 C 630.337 -2.2847 -1.57152 0
M  V30 6546 H 633.288 -1.51446 -0.474326 0
M  V30 6547 H 633.309 -2.19307 -3.10941 0
M  V30 6548 H 632.821 -3.44686 -1.78363 0
M  V30 6549 H 630.922 -1.56773 -3.38013 0
M  V30 6550 H 631.035 -3.45109 -3.3232 0
M  V30 6551 H 629.399 -1.76623 -1.83511 0
M  V30 6552 H 630.182 -3.25816 -1.0816 0
M  V30 6553 N 632.627 0.916307 -1.28225 0
M  V30 6554 C 633.852 1.7043 -1.18188 0
M  V30 6555 C 634.277 1.86346 0.256274 0
M  V30 6556 O 633.635 1.37175 1.18544 0
M  V30 6557 C 633.683 3.07546 -1.88275 0
M  V30 6558 O 632.787 3.94904 -1.18848 0
M  V30 6559 H 632.128 0.521967 -0.410423 0
M  V30 6560 H 634.658 1.14589 -1.69501 0
M  V30 6561 H 634.668 3.57793 -1.96082 0
M  V30 6562 H 633.343 2.95279 -2.92887 0
M  V30 6563 H 631.92 3.53339 -1.19187 0
M  V30 6564 N 634.105 1.10431 1.1244 0
M  V30 6565 C 635.351 0.847972 1.84221 0
M  V30 6566 C 635.684 -0.624903 1.83871 0
M  V30 6567 O 634.959 -1.46074 1.28423 0
M  V30 6568 C 635.242 1.39695 3.319 0
M  V30 6569 C 635.095 2.93668 3.40704 0
M  V30 6570 C 636.414 1.03924 4.27654 0
M  V30 6571 H 633.533 0.309502 0.668863 0
M  V30 6572 H 636.175 1.36745 1.31912 0
M  V30 6573 H 634.325 0.955095 3.76577 0
M  V30 6574 H 635.997 3.46379 3.04662 0
M  V30 6575 H 634.24 3.30272 2.81252 0
M  V30 6576 H 634.911 3.27162 4.446 0
M  V30 6577 H 637.387 1.42049 3.91102 0
M  V30 6578 H 636.263 1.45027 5.29394 0
M  V30 6579 H 636.524 -0.051336 4.4207 0
M  V30 6580 N 635.583 -1.29855 0.893053 0
M  V30 6581 C 636.813 -1.99686 0.530019 0
M  V30 6582 C 637.221 -1.67066 -0.888012 0
M  V30 6583 O 636.564 -0.908366 -1.5967 0
M  V30 6584 C 636.626 -3.53855 0.63457 0
M  V30 6585 C 636.29 -4.10013 2.01837 0
M  V30 6586 C 637.287 -4.25406 2.98874 0
M  V30 6587 C 634.972 -4.45202 2.32595 0
M  V30 6588 C 636.966 -4.7521 4.24799 0
M  V30 6589 C 634.653 -4.94704 3.58763 0
M  V30 6590 C 635.651 -5.09662 4.5468 0
M  V30 6591 O 635.339 -5.58093 5.78608 0
M  V30 6592 H 635.071 -0.644913 0.20264 0
M  V30 6593 H 637.625 -1.66518 1.20253 0
M  V30 6594 H 635.855 -3.86583 -0.0949477 0
M  V30 6595 H 637.544 -4.04922 0.281648 0
M  V30 6596 H 638.31 -3.98515 2.76425 0
M  V30 6597 H 634.189 -4.32822 1.58701 0
M  V30 6598 H 637.733 -4.86801 4.99671 0
M  V30 6599 H 633.63 -5.21032 3.81046 0
M  V30 6600 H 634.398 -5.7642 5.81104 0
M  V30 6601 N 637.061 -0.65484 -1.43351 0
M  V30 6602 C 638.472 -0.248506 -1.85039 0
M  V30 6603 C 638.823 1.20526 -1.54816 0
M  V30 6604 O 637.948 1.92016 -0.99794 0
M  V30 6605 C 638.543 -0.444241 -3.35875 0
M  V30 6606 C 637.102 -0.0922108 -3.76287 0
M  V30 6607 C 636.249 -0.746327 -2.67068 0
M  V30 6608 H 639.2 -0.8584 -1.33481 0
M  V30 6609 H 639.221 0.309762 -3.79237 0
M  V30 6610 H 638.733 -1.50239 -3.5784 0
M  V30 6611 H 636.834 0.96328 -3.59933 0
M  V30 6612 H 636.947 -0.518807 -4.76283 0
M  V30 6613 H 635.311 -0.179416 -2.54067 0
M  V30 6614 H 636.094 -1.80754 -2.91861 0
M  V30 6615 N 638.539 1.52521 -0.396863 0
M  V30 6616 C 639.469 2.29582 0.425941 0
M  V30 6617 C 640.45 1.33281 1.05689 0
M  V30 6618 O 641.635 1.62181 1.06823 0
M  V30 6619 C 638.765 3.10821 1.54943 0
M  V30 6620 C 637.719 4.15069 1.04413 0
M  V30 6621 C 637.045 4.84578 2.26028 0
M  V30 6622 C 638.345 5.22191 0.106767 0
M  V30 6623 H 640.039 2.98612 -0.217045 0
M  V30 6624 H 637.585 1.43611 -0.105826 0
M  V30 6625 H 639.538 3.63492 2.13193 0
M  V30 6626 H 638.262 2.39538 2.22011 0
M  V30 6627 H 636.921 3.63389 0.484118 0
M  V30 6628 H 636.569 4.09835 2.91623 0
M  V30 6629 H 636.269 5.55043 1.92876 0
M  V30 6630 H 637.793 5.40056 2.84906 0
M  V30 6631 H 639.207 5.70176 0.597685 0
M  V30 6632 H 637.604 5.99947 -0.135352 0
M  V30 6633 H 638.674 4.77531 -0.842134 0
M  V30 6634 N 640.017 0.126909 1.57088 0
M  V30 6635 C 641.294 -0.573152 1.87014 0
M  V30 6636 C 641.674 -1.84297 1.02945 0
M  V30 6637 O 641.022 -2.28232 0.110573 0
M  V30 6638 C 641.232 -0.857984 3.38289 0
M  V30 6639 C 642.58 -1.20759 4.07066 0
M  V30 6640 O 643.604 -0.947992 3.43353 0
M  V30 6641 O 642.463 -1.69516 5.19545 0
M  V30 6642 H 639.557 -0.290082 0.774456 0
M  V30 6643 H 642.103 0.162008 1.68925 0
M  V30 6644 H 640.875 0.0415286 3.91278 0
M  V30 6645 H 640.498 -1.64803 3.61837 0
M  V30 6646 N 641.495 -1.56914 -0.146875 0
M  V30 6647 C 642.911 -1.51582 -0.499518 0
M  V30 6648 C 643.111 -0.83535 -1.83369 0
M  V30 6649 O 642.167 -0.405932 -2.49216 0
M  V30 6650 C 643.48 -2.96349 -0.509711 0
M  V30 6651 C 645.028 -3.07288 -0.595217 0
M  V30 6652 C 645.503 -4.53562 -0.636071 0
M  V30 6653 N 646.994 -4.57906 -0.69829 0
M  V30 6654 C 647.729 -5.68462 -0.750886 0
M  V30 6655 N 647.225 -6.88588 -0.76282 0
M  V30 6656 N 649.018 -5.56496 -0.791777 0
M  V30 6657 H 641.169 -1.99547 0.727656 0
M  V30 6658 H 643.432 -0.910113 0.265327 0
M  V30 6659 H 643.138 -3.4939 0.402409 0
M  V30 6660 H 643.012 -3.52307 -1.34758 0
M  V30 6661 H 645.399 -2.54266 -1.49776 0
M  V30 6662 H 645.48 -2.54373 0.2698 0
M  V30 6663 H 645.124 -5.07222 0.262313 0
M  V30 6664 H 645.054 -5.04259 -1.51758 0
M  V30 6665 H 647.545 -3.71429 -0.696362 0
M  V30 6666 H 647.858 -7.68598 -0.804804 0
M  V30 6667 H 646.203 -6.91148 -0.730694 0
M  V30 6668 H 649.394 -4.61562 -0.779624 0
M  V30 6669 H 649.567 -6.42671 -0.829301 0
M  V30 6670 N 642.974 0.416227 -1.52004 0
M  V30 6671 C 643.904 1.51365 -1.77795 0
M  V30 6672 C 644.885 1.58059 -0.628601 0
M  V30 6673 O 646.07 1.73447 -0.873478 0
M  V30 6674 C 643.2 2.89256 -1.92219 0
M  V30 6675 C 642.154 2.97415 -3.0778 0
M  V30 6676 C 641.48 4.37492 -3.07417 0
M  V30 6677 C 642.78 2.69551 -4.47369 0
M  V30 6678 H 644.474 1.30033 -2.69688 0
M  V30 6679 H 642.02 0.624112 -1.29772 0
M  V30 6680 H 643.973 3.66008 -2.08845 0
M  V30 6681 H 642.697 3.11866 -0.969917 0
M  V30 6682 H 641.356 2.23107 -2.90893 0
M  V30 6683 H 641.004 4.571 -2.09925 0
M  V30 6684 H 640.704 4.43877 -3.85029 0
M  V30 6685 H 642.228 5.16188 -3.26162 0
M  V30 6686 H 643.642 3.36028 -4.64497 0
M  V30 6687 H 642.039 2.87321 -5.26846 0
M  V30 6688 H 643.109 1.65029 -4.55953 0
M  V30 6689 N 644.452 1.42507 0.673017 0
M  V30 6690 C 645.362 1.4853 1.81593 0
M  V30 6691 C 646.378 0.373907 1.69935 0
M  V30 6692 O 647.554 0.625078 1.91454 0
M  V30 6693 C 644.619 1.387 3.17747 0
M  V30 6694 C 643.68 2.60346 3.41348 0
M  V30 6695 C 642.913 2.50975 4.71007 0
M  V30 6696 O 643.136 1.54659 5.49033 0
M  V30 6697 O 642.07 3.41138 4.95892 0
M  V30 6698 H 645.896 2.45001 1.79467 0
M  V30 6699 H 643.481 1.2429 0.82899 0
M  V30 6700 H 645.363 1.35586 3.98992 0
M  V30 6701 H 644.038 0.453555 3.20507 0
M  V30 6702 H 642.945 2.69034 2.59945 0
M  V30 6703 H 644.278 3.52595 3.43421 0
M  V30 6704 N 645.93 -0.909495 1.28709 0
M  V30 6705 C 647.179 -1.65365 1.15487 0
M  V30 6706 C 647.492 -1.93364 -0.294941 0
M  V30 6707 O 648.698 -2.65905 -0.548338 0
M  V30 6708 C 647.154 -2.97923 2.01916 0
M  V30 6709 C 646.762 -2.77556 3.51663 0
M  V30 6710 C 648.506 -3.75814 1.97393 0
M  V30 6711 C 646.413 -4.0578 4.30229 0
M  V30 6712 H 645.343 -0.620323 0.42862 0
M  V30 6713 H 647.994 -1.00894 1.53273 0
M  V30 6714 H 646.376 -3.63552 1.5699 0
M  V30 6715 H 647.55 -2.2058 4.04575 0
M  V30 6716 H 645.865 -2.13072 3.57756 0
M  V30 6717 H 648.462 -4.70866 2.53357 0
M  V30 6718 H 648.805 -4.05277 0.951643 0
M  V30 6719 H 649.338 -3.1701 2.40311 0
M  V30 6720 H 646.077 -3.81488 5.33055 0
M  V30 6721 H 645.597 -4.62351 3.82089 0
M  V30 6722 H 647.276 -4.74004 4.40374 0
M  V30 6723 N 647.408 -1.11026 -1.11852 0
M  V30 6724 C 648.318 -0.777252 -2.2135 0
M  V30 6725 C 649.334 0.227821 -1.72502 0
M  V30 6726 O 650.51 0.0650587 -2.01295 0
M  V30 6727 C 647.575 -0.220668 -3.45997 0
M  V30 6728 C 646.636 -1.2838 -4.09655 0
M  V30 6729 C 645.869 -0.753678 -5.28352 0
M  V30 6730 O 646.092 0.417779 -5.68868 0
M  V30 6731 O 645.026 -1.51647 -5.82483 0
M  V30 6732 H 648.852 -1.69141 -2.5224 0
M  V30 6733 H 646.437 -0.885836 -1.20305 0
M  V30 6734 H 648.319 0.0855756 -4.21313 0
M  V30 6735 H 646.994 0.666262 -3.16769 0
M  V30 6736 H 645.901 -1.64299 -3.3609 0
M  V30 6737 H 647.234 -2.14396 -4.43052 0
M  V30 6738 N 648.886 1.2938 -0.899927 0
M  V30 6739 C 649.816 2.30144 -0.39446 0
M  V30 6740 C 650.797 1.61611 0.530639 0
M  V30 6741 O 651.982 1.89119 0.441319 0
M  V30 6742 C 649.112 3.45229 0.37868 0
M  V30 6743 C 648.066 4.25564 -0.456012 0
M  V30 6744 C 647.392 5.32848 0.444637 0
M  V30 6745 C 648.692 4.93651 -1.70605 0
M  V30 6746 H 650.386 2.72673 -1.23653 0
M  V30 6747 H 647.932 1.31086 -0.596034 0
M  V30 6748 H 649.885 4.14797 0.743037 0
M  V30 6749 H 648.609 3.01545 1.25453 0
M  V30 6750 H 647.268 3.57704 -0.802704 0
M  V30 6751 H 646.916 4.85408 1.31863 0
M  V30 6752 H 646.616 5.87497 -0.110154 0
M  V30 6753 H 648.14 6.05268 0.805182 0
M  V30 6754 H 649.554 5.55655 -1.41141 0
M  V30 6755 H 647.951 5.58233 -2.20217 0
M  V30 6756 H 649.021 4.18926 -2.4419 0
M  V30 6757 N 650.364 0.662433 1.43002 0
M  V30 6758 C 651.294 -0.00979809 2.33498 0
M  V30 6759 C 652.275 -0.802329 1.49989 0
M  V30 6760 O 653.46 -0.761964 1.78627 0
M  V30 6761 C 650.59 -0.970446 3.33466 0
M  V30 6762 C 649.544 -0.287383 4.27034 0
M  V30 6763 C 648.87 -1.36012 5.17112 0
M  V30 6764 C 650.17 0.82595 5.15728 0
M  V30 6765 H 651.864 0.745959 2.89958 0
M  V30 6766 H 649.41 0.360172 1.39423 0
M  V30 6767 H 651.363 -1.44971 3.95679 0
M  V30 6768 H 650.087 -1.75748 2.75282 0
M  V30 6769 H 648.746 0.17152 3.66199 0
M  V30 6770 H 648.394 -2.13882 4.55262 0
M  V30 6771 H 648.094 -0.908276 5.80538 0
M  V30 6772 H 649.618 -1.84056 5.82199 0
M  V30 6773 H 651.032 0.42845 5.71697 0
M  V30 6774 H 649.429 1.20282 5.87922 0
M  V30 6775 H 650.499 1.68003 4.54866 0
M  V30 6776 N 651.842 -1.52309 0.404946 0
M  V30 6777 C 652.789 -2.26898 -0.422597 0
M  V30 6778 C 653.759 -1.2914 -1.04461 0
M  V30 6779 O 654.944 -1.57996 -1.06967 0
M  V30 6780 C 652.084 -3.09053 -1.53559 0
M  V30 6781 C 651.197 -4.21762 -0.934908 0
M  V30 6782 C 650.332 -4.91283 -2.02025 0
M  V30 6783 C 649.371 -5.95962 -1.39628 0
M  V30 6784 N 648.508 -6.59017 -2.42159 0
M  V30 6785 H 653.348 -2.97188 0.219903 0
M  V30 6786 H 650.885 -1.46607 0.120282 0
M  V30 6787 H 652.843 -3.54987 -2.19181 0
M  V30 6788 H 651.473 -2.40942 -2.14818 0
M  V30 6789 H 650.525 -3.80029 -0.167854 0
M  V30 6790 H 651.837 -4.96864 -0.439073 0
M  V30 6791 H 650.991 -5.40601 -2.75383 0
M  V30 6792 H 649.73 -4.15741 -2.54973 0
M  V30 6793 H 648.735 -5.45968 -0.648023 0
M  V30 6794 H 649.96 -6.73445 -0.874553 0
M  V30 6795 H 647.906 -5.86306 -2.94247 0
M  V30 6796 H 647.823 -7.2978 -1.97376 0
M  V30 6797 H 649.091 -7.12974 -3.15099 0
M  V30 6798 N 653.32 -0.135238 -1.57019 0
M  V30 6799 C 654.568 0.51777 -1.95355 0
M  V30 6800 C 654.889 1.6617 -1.02042 0
M  V30 6801 O 654.159 1.95738 -0.0797343 0
M  V30 6802 H 652.739 0.194264 -0.721298 0
M  V30 6803 H 655.401 -0.207983 -1.93787 0
M  V30 6804 H 654.497 0.901675 -2.98791 0
M  V30 6805 N 654.798 1.5699 0.138552 0
M  V30 6806 C 655.708 2.02174 1.19008 0
M  V30 6807 C 656.724 0.938622 1.46512 0
M  V30 6808 O 657.9 1.24872 1.58016 0
M  V30 6809 C 654.965 2.40045 2.50159 0
M  V30 6810 C 654.026 3.62346 2.30226 0
M  V30 6811 C 653.259 3.98401 3.55123 0
M  V30 6812 O 653.482 3.35019 4.61647 0
M  V30 6813 O 652.416 4.91606 3.47285 0
M  V30 6814 H 656.242 2.91954 0.836452 0
M  V30 6815 H 653.827 1.45293 0.347907 0
M  V30 6816 H 655.709 2.65225 3.27465 0
M  V30 6817 H 654.384 1.53417 2.85035 0
M  V30 6818 H 653.291 3.42341 1.50843 0
M  V30 6819 H 654.624 4.49617 2.00262 0
M  V30 6820 N 656.276 -0.40816 1.52223 0
M  V30 6821 C 657.504 -1.17672 1.70179 0
M  V30 6822 C 657.919 -1.84257 0.411696 0
M  V30 6823 O 657.276 -1.7192 -0.612354 0
M  V30 6824 C 657.327 -2.23911 2.83806 0
M  V30 6825 O 657.048 -1.60044 4.0782 0
M  V30 6826 C 658.549 -3.1364 3.13281 0
M  V30 6827 H 655.769 -0.353562 0.570293 0
M  V30 6828 H 658.313 -0.480083 1.98785 0
M  V30 6829 H 656.468 -2.89242 2.57717 0
M  V30 6830 H 656.882 -2.30484 4.71145 0
M  V30 6831 H 658.356 -3.84255 3.96298 0
M  V30 6832 H 658.833 -3.76066 2.26872 0
M  V30 6833 H 659.439 -2.53977 3.41139 0
M  V30 6834 N 657.755 -1.42862 -0.66545 0
M  V30 6835 C 659.004 -1.43119 -1.42126 0
M  V30 6836 C 659.317 -0.0545297 -1.95524 0
M  V30 6837 O 660.523 0.0654747 -2.71421 0
M  V30 6838 C 658.979 -2.51797 -2.5715 0
M  V30 6839 C 658.587 -3.95514 -2.10411 0
M  V30 6840 C 660.331 -2.61233 -3.346 0
M  V30 6841 C 658.238 -4.95682 -3.22573 0
M  V30 6842 H 657.168 -0.532349 -0.533966 0
M  V30 6843 H 659.819 -1.68806 -0.719506 0
M  V30 6844 H 658.201 -2.19292 -3.29738 0
M  V30 6845 H 659.375 -4.3742 -1.44915 0
M  V30 6846 H 657.69 -3.90012 -1.45874 0
M  V30 6847 H 660.287 -3.33248 -4.18151 0
M  V30 6848 H 660.63 -1.65896 -3.81817 0
M  V30 6849 H 661.163 -2.9298 -2.69087 0
M  V30 6850 H 657.902 -5.92529 -2.80338 0
M  V30 6851 H 657.422 -4.58399 -3.86821 0
M  V30 6852 H 659.101 -5.17828 -3.87896 0
M  V30 6853 N 659.233 0.902656 -1.29189 0
M  V30 6854 C 660.163 2.02294 -1.16616 0
M  V30 6855 C 661.144 1.6999 -0.0611175 0
M  V30 6856 O 662.329 1.9271 -0.240072 0
M  V30 6857 C 659.459 3.37018 -0.83882 0
M  V30 6858 C 658.413 3.83522 -1.89986 0
M  V30 6859 C 657.739 5.15337 -1.42589 0
M  V30 6860 C 659.039 4.04169 -3.30824 0
M  V30 6861 H 660.733 2.13071 -2.10336 0
M  V30 6862 H 658.279 1.02378 -1.01266 0
M  V30 6863 H 660.232 4.14895 -0.737584 0
M  V30 6864 H 658.956 3.26325 0.134071 0
M  V30 6865 H 657.615 3.07859 -1.99043 0
M  V30 6866 H 657.263 5.01056 -0.441759 0
M  V30 6867 H 656.963 5.47423 -2.13547 0
M  V30 6868 H 658.487 5.95758 -1.3381 0
M  V30 6869 H 659.901 4.72537 -3.24626 0
M  V30 6870 H 658.298 4.47604 -3.99713 0
M  V30 6871 H 659.368 3.08604 -3.74021 0
M  V30 6872 N 660.711 1.11618 1.11262 0
M  V30 6873 C 661.621 0.78898 2.20935 0
M  V30 6874 C 662.637 -0.21867 1.7262 0
M  V30 6875 O 663.813 -0.0543826 2.01327 0
M  V30 6876 C 660.878 0.239014 3.45875 0
M  V30 6877 C 659.939 1.3055 4.08968 0
M  V30 6878 C 659.172 0.781687 5.27944 0
M  V30 6879 O 659.395 -0.387605 5.69082 0
M  V30 6880 O 658.329 1.54734 5.81671 0
M  V30 6881 H 662.155 1.70477 2.51339 0
M  V30 6882 H 659.74 0.892203 1.19834 0
M  V30 6883 H 661.622 -0.0632312 4.21353 0
M  V30 6884 H 660.297 -0.649454 3.17118 0
M  V30 6885 H 659.204 1.66079 3.35214 0
M  V30 6886 H 660.537 2.16743 4.41909 0
M  V30 6887 N 662.189 -1.289 0.906776 0
M  V30 6888 C 663.137 -2.29477 0.379873 0
M  V30 6889 C 664.131 -1.61068 -0.524747 0
M  V30 6890 O 665.337 -1.75344 -0.406765 0
M  V30 6891 H 661.712 -0.744742 0.10423 0
M  V30 6892 H 663.683 -2.71353 1.24137 0
M  V30 6893 C 662.432 -3.45713 -0.371154 0
M  V30 6894 H 661.755 -3.98551 0.315716 0
M  V30 6895 H 663.195 -4.18105 -0.704581 0
M  V30 6896 C 661.654 -2.9774 -1.57646 0
M  V30 6897 O 662.184 -2.99618 -2.67567 0
M  V30 6898 N 660.39 -2.53485 -1.42105 0
M  V30 6899 H 659.937 -2.52156 -0.526783 0
M  V30 6900 H 659.895 -2.21747 -2.22881 0
M  V30 6901 N 663.667 -0.670007 -1.42649 0
M  V30 6902 C 664.916 -0.187526 -2.00826 0
M  V30 6903 C 665.229 1.21142 -1.53571 0
M  V30 6904 O 666.435 1.79001 -2.04134 0
M  V30 6905 C 664.891 -0.284409 -3.58774 0
M  V30 6906 C 664.499 -1.6871 -4.15019 0
M  V30 6907 C 666.243 0.139605 -4.2427 0
M  V30 6908 C 664.15 -1.73701 -5.65316 0
M  V30 6909 H 663.08 -0.0663468 -0.751075 0
M  V30 6910 H 665.731 -0.834492 -1.63427 0
M  V30 6911 H 664.113 0.430364 -3.93655 0
M  V30 6912 H 665.287 -2.42857 -3.91608 0
M  V30 6913 H 663.602 -2.05855 -3.61957 0
M  V30 6914 H 666.199 0.122398 -5.3456 0
M  V30 6915 H 666.542 1.17403 -3.99402 0
M  V30 6916 H 667.075 -0.523995 -3.94334 0
M  V30 6917 H 663.814 -2.75109 -5.94975 0
M  V30 6918 H 663.334 -1.03903 -5.90732 0
M  V30 6919 H 665.013 -1.48829 -6.2965 0
M  V30 6920 N 665.145 1.52092 -0.413018 0
M  V30 6921 C 666.055 2.30858 0.417318 0
M  V30 6922 C 667.071 1.38746 1.05003 0
M  V30 6923 O 668.247 1.71821 1.05069 0
M  V30 6924 C 665.312 3.11756 1.51687 0
M  V30 6925 C 664.373 4.19613 0.906825 0
M  V30 6926 C 663.606 4.96644 1.95399 0
M  V30 6927 O 663.829 4.7402 3.17271 0
M  V30 6928 O 662.763 5.81385 1.55805 0
M  V30 6929 H 666.589 3.02865 -0.225028 0
M  V30 6930 H 664.174 1.48358 -0.176126 0
M  V30 6931 H 666.056 3.62122 2.15512 0
M  V30 6932 H 664.731 2.42539 2.14375 0
M  V30 6933 H 663.638 3.73385 0.231183 0
M  V30 6934 H 664.971 4.91134 0.323814 0
M  V30 6935 N 666.623 0.143563 1.56945 0
M  V30 6936 C 667.87 -0.508407 1.96014 0
M  V30 6937 C 668.198 -1.65099 1.02824 0
M  V30 6938 O 667.453 -1.95618 0.0567764 0
M  V30 6939 C 667.752 -1.05885 3.41355 0
M  V30 6940 C 667.418 -0.0350809 4.50886 0
M  V30 6941 C 666.08 0.246362 4.80569 0
M  V30 6942 C 668.432 0.661282 5.16988 0
M  V30 6943 C 665.76 1.23003 5.73661 0
M  V30 6944 C 668.112 1.63375 6.11139 0
M  V30 6945 C 666.776 1.92292 6.39203 0
M  V30 6946 H 666.046 -0.186039 0.717266 0
M  V30 6947 H 668.693 0.229667 1.90118 0
M  V30 6948 H 666.998 -1.87419 3.44066 0
M  V30 6949 H 668.695 -1.57183 3.6891 0
M  V30 6950 H 665.285 -0.264622 4.27782 0
M  V30 6951 H 669.469 0.457038 4.94191 0
M  V30 6952 H 664.725 1.46056 5.93698 0
M  V30 6953 H 668.899 2.17887 6.61436 0
M  V30 6954 H 666.526 2.68666 7.11142 0
M  V30 6955 N 668.101 -1.57061 -0.130224 0
M  V30 6956 C 669.031 -2.02552 -1.16168 0
M  V30 6957 C 670.012 -0.907971 -1.4384 0
M  V30 6958 O 671.197 -1.17693 -1.54473 0
M  V30 6959 C 668.327 -2.42035 -2.49071 0
M  V30 6960 C 667.281 -3.5713 -2.35886 0
M  V30 6961 C 666.607 -3.82478 -3.7365 0
M  V30 6962 C 667.907 -4.89236 -1.8288 0
M  V30 6963 H 669.601 -2.8897 -0.783359 0
M  V30 6964 H 667.147 -1.39021 -0.375376 0
M  V30 6965 H 669.1 -2.72462 -3.21469 0
M  V30 6966 H 667.824 -1.52573 -2.88771 0
M  V30 6967 H 666.483 -3.26895 -1.65938 0
M  V30 6968 H 666.131 -2.9024 -4.10816 0
M  V30 6969 H 665.831 -4.59944 -3.65685 0
M  V30 6970 H 667.355 -4.15347 -4.47571 0
M  V30 6971 H 668.769 -5.18272 -2.45085 0
M  V30 6972 H 667.166 -5.70624 -1.85763 0
M  V30 6973 H 668.236 -4.78494 -0.785571 0
M  V30 6974 N 669.579 0.400081 -1.52437 0
M  V30 6975 C 670.489 1.51253 -1.79331 0
M  V30 6976 C 671.505 1.60188 -0.679396 0
M  V30 6977 O 672.681 1.76733 -0.965791 0
M  V30 6978 C 669.746 2.869 -1.94652 0
M  V30 6979 C 668.807 2.87777 -3.18564 0
M  V30 6980 C 668.04 4.16954 -3.33145 0
M  V30 6981 O 668.263 5.11329 -2.52783 0
M  V30 6982 O 667.197 4.2487 -4.26343 0
M  V30 6983 H 671.023 1.31461 -2.73773 0
M  V30 6984 H 668.608 0.586834 -1.37392 0
M  V30 6985 H 670.49 3.67336 -2.065 0
M  V30 6986 H 669.165 3.06741 -1.034 0
M  V30 6987 H 668.072 2.06162 -3.12167 0
M  V30 6988 H 669.405 2.72886 -4.09627 0
M  V30 6989 N 671.057 1.43213 0.657864 0
M  V30 6990 C 672.334 1.35063 1.41483 0
M  V30 6991 C 672.714 -0.0038314 2.111 0
M  V30 6992 O 672.062 -1.02018 2.04462 0
M  V30 6993 C 672.272 2.53061 2.40335 0
M  V30 6994 C 673.62 2.9594 3.04474 0
M  V30 6995 O 674.644 2.53074 2.50663 0
M  V30 6996 O 673.503 3.70184 4.02027 0
M  V30 6997 H 670.597 0.533517 0.631893 0
M  V30 6998 H 673.143 1.55253 0.685162 0
M  V30 6999 H 671.915 3.43283 1.87809 0
M  V30 7000 H 671.538 2.34945 3.20759 0
M  V30 7001 N 672.536 -0.895792 1.29666 0
M  V30 7002 C 673.764 -1.68001 1.20761 0
M  V30 7003 C 674.179 -1.87379 -0.231187 0
M  V30 7004 O 673.536 -1.41359 -1.15429 0
M  V30 7005 C 673.587 -3.06236 1.92098 0
M  V30 7006 O 673.308 -2.8774 3.30359 0
M  V30 7007 C 674.809 -4.00652 1.89717 0
M  V30 7008 H 672.029 -0.524591 0.418384 0
M  V30 7009 H 674.573 -1.11995 1.71106 0
M  V30 7010 H 672.728 -3.59007 1.45578 0
M  V30 7011 H 673.142 -3.75359 3.66342 0
M  V30 7012 H 674.616 -4.95051 2.44189 0
M  V30 7013 H 675.093 -4.30424 0.873595 0
M  V30 7014 H 675.699 -3.53815 2.35998 0
M  V30 7015 N 674.014 -1.12206 -1.10668 0
M  V30 7016 C 675.291 -0.787382 -1.79052 0
M  V30 7017 C 675.671 0.723267 -1.98323 0
M  V30 7018 O 675.019 1.6561 -1.57434 0
M  V30 7019 C 675.229 -1.55968 -3.1221 0
M  V30 7020 C 676.577 -1.74413 -3.87125 0
M  V30 7021 O 677.601 -1.5246 -3.21923 0
M  V30 7022 O 676.46 -2.10952 -5.04144 0
M  V30 7023 H 673.554 -0.286137 -0.775922 0
M  V30 7024 H 676.1 -1.22595 -1.1734 0
M  V30 7025 H 674.872 -2.58692 -2.93588 0
M  V30 7026 H 674.495 -1.1152 -3.8164 0
M  V30 7027 N 675.492 1.28418 -0.913599 0
M  V30 7028 C 676.425 2.25557 -0.346328 0
M  V30 7029 C 677.403 1.53038 0.549366 0
M  V30 7030 O 678.587 1.81937 0.493055 0
M  V30 7031 C 675.714 3.34915 0.504961 0
M  V30 7032 C 674.76 4.25257 -0.325334 0
M  V30 7033 S 675.593 5.06718 -1.73198 0
M  V30 7034 C 676.749 6.19569 -0.887988 0
M  V30 7035 H 676.982 2.73325 -1.16965 0
M  V30 7036 H 674.515 1.36855 -0.714841 0
M  V30 7037 H 676.473 3.98376 0.990301 0
M  V30 7038 H 675.134 2.85814 1.30267 0
M  V30 7039 H 674.327 5.02947 0.325589 0
M  V30 7040 H 673.929 3.66519 -0.744321 0
M  V30 7041 H 676.221 6.77398 -0.117568 0
M  V30 7042 H 677.164 6.88908 -1.63742 0
M  V30 7043 H 677.572 5.62812 -0.436228 0
M  V30 7044 N 676.97 0.677563 1.42291 0
M  V30 7045 C 677.917 0.000947061 2.308 0
M  V30 7046 C 678.887 -0.789889 1.46116 0
M  V30 7047 O 680.072 -0.761578 1.74942 0
M  V30 7048 C 677.212 -0.942387 3.31984 0
M  V30 7049 C 676.325 -0.14508 4.31756 0
M  V30 7050 C 675.46 -1.08442 5.20013 0
M  V30 7051 C 674.499 -0.278958 6.11464 0
M  V30 7052 N 673.636 -1.17115 6.92263 0
M  V30 7053 H 678.476 0.761521 2.88106 0
M  V30 7054 H 676.013 0.38727 1.41911 0
M  V30 7055 H 677.971 -1.50317 3.89179 0
M  V30 7056 H 676.601 -1.66956 2.76271 0
M  V30 7057 H 675.653 0.532368 3.76656 0
M  V30 7058 H 676.965 0.48015 4.96484 0
M  V30 7059 H 676.119 -1.71504 5.81955 0
M  V30 7060 H 674.858 -1.74353 4.55469 0
M  V30 7061 H 673.863 0.364856 5.48588 0
M  V30 7062 H 675.088 0.376099 6.78058 0
M  V30 7063 H 673.034 -1.81661 6.30345 0
M  V30 7064 H 672.951 -0.601063 7.53607 0
M  V30 7065 H 674.219 -1.78915 7.58689 0
M  V30 7066 N 678.448 -1.51871 0.421078 0
M  V30 7067 C 679.673 -2.0684 -0.152371 0
M  V30 7068 C 680.098 -1.28802 -1.37083 0
M  V30 7069 O 679.456 -0.321482 -1.78427 0
M  V30 7070 C 679.504 -3.57532 -0.469368 0
M  V30 7071 O 678.608 -3.81818 -1.55848 0
M  V30 7072 H 677.949 -0.663939 -0.00898586 0
M  V30 7073 H 680.479 -1.95674 0.597724 0
M  V30 7074 H 680.489 -4.01515 -0.724553 0
M  V30 7075 H 679.164 -4.13761 0.421276 0
M  V30 7076 H 677.741 -3.49709 -1.29453 0
M  V30 7077 N 679.926 -0.151884 -1.56866 0
M  V30 7078 C 680.856 0.781943 -2.20018 0
M  V30 7079 C 681.837 1.25347 -1.14987 0
M  V30 7080 O 683.022 1.31015 -1.43348 0
M  V30 7081 C 680.152 2.01928 -2.82564 0
M  V30 7082 C 679.106 1.68434 -3.93464 0
M  V30 7083 C 678.432 2.99472 -4.42968 0
M  V30 7084 C 679.732 0.927244 -5.14003 0
M  V30 7085 H 681.426 0.255607 -2.98307 0
M  V30 7086 H 678.972 0.121502 -1.43486 0
M  V30 7087 H 680.925 2.67741 -3.25411 0
M  V30 7088 H 679.649 2.56943 -2.01614 0
M  V30 7089 H 678.308 1.04998 -3.51242 0
M  V30 7090 H 677.956 3.52488 -3.58834 0
M  V30 7091 H 677.656 2.77823 -5.17772 0
M  V30 7092 H 679.18 3.66348 -4.88489 0
M  V30 7093 H 680.594 1.48756 -5.53665 0
M  V30 7094 H 678.991 0.810513 -5.94601 0
M  V30 7095 H 680.061 -0.0801163 -4.84834 0
M  V30 7096 N 681.404 1.57128 0.121893 0
M  V30 7097 C 682.314 2.03425 1.16857 0
M  V30 7098 C 683.33 0.954108 1.45509 0
M  V30 7099 O 684.506 1.26541 1.56682 0
M  V30 7100 C 681.571 2.42685 2.47599 0
M  V30 7101 C 680.632 3.64767 2.2637 0
M  V30 7102 C 679.865 4.02145 3.50878 0
M  V30 7103 O 680.088 3.39897 4.58068 0
M  V30 7104 O 679.022 4.95262 3.42051 0
M  V30 7105 H 682.848 2.92825 0.80544 0
M  V30 7106 H 680.433 1.45654 0.332477 0
M  V30 7107 H 682.315 2.68684 3.24634 0
M  V30 7108 H 680.99 1.56432 2.83392 0
M  V30 7109 H 679.897 3.43922 1.47203 0
M  V30 7110 H 681.23 4.51716 1.95482 0
M  V30 7111 N 682.882 -0.391992 1.52647 0
M  V30 7112 C 683.83 -1.4991 1.77848 0
M  V30 7113 C 684.824 -1.56587 0.646282 0
M  V30 7114 O 686.03 -1.59789 0.828698 0
M  V30 7115 H 682.405 -0.498883 0.56269 0
M  V30 7116 H 684.376 -1.25847 2.70564 0
M  V30 7117 C 683.125 -2.87081 1.96163 0
M  V30 7118 H 682.448 -2.82692 2.82711 0
M  V30 7119 H 683.888 -3.63792 2.17787 0
M  V30 7120 C 682.347 -3.28822 0.733348 0
M  V30 7121 O 682.877 -4.01598 -0.0906481 0
M  V30 7122 N 681.083 -2.85068 0.564317 0
M  V30 7123 H 680.63 -2.26012 1.23598 0
M  V30 7124 H 680.588 -3.13355 -0.256166 0
M  V30 7125 N 684.36 -1.4356 -0.65026 0
M  V30 7126 C 685.307 -1.48948 -1.76304 0
M  V30 7127 C 686.277 -0.338919 -1.62605 0
M  V30 7128 O 687.462 -0.54649 -1.82806 0
M  V30 7129 C 684.602 -1.42131 -3.14472 0
M  V30 7130 C 683.715 -2.67415 -3.39284 0
M  V30 7131 C 682.85 -2.52565 -4.67316 0
M  V30 7132 C 681.889 -3.73103 -4.85243 0
M  V30 7133 N 681.026 -3.57046 -6.04535 0
M  V30 7134 H 685.866 -2.44032 -1.71034 0
M  V30 7135 H 683.403 -1.21131 -0.834601 0
M  V30 7136 H 685.361 -1.36172 -3.94351 0
M  V30 7137 H 683.991 -0.506273 -3.18805 0
M  V30 7138 H 683.043 -2.8364 -2.53481 0
M  V30 7139 H 684.355 -3.56943 -3.48415 0
M  V30 7140 H 683.509 -2.44331 -5.55326 0
M  V30 7141 H 682.248 -1.60566 -4.60511 0
M  V30 7142 H 681.253 -3.81743 -3.95667 0
M  V30 7143 H 682.478 -4.66115 -4.93876 0
M  V30 7144 H 680.424 -2.67783 -5.98856 0
M  V30 7145 H 680.341 -4.40178 -6.14638 0
M  V30 7146 H 681.609 -3.52669 -6.95158 0
M  V30 7147 N 685.838 0.888903 -1.30139 0
M  V30 7148 C 687.063 1.67884 -1.21777 0
M  V30 7149 C 687.488 1.86848 0.216689 0
M  V30 7150 O 686.846 1.39659 1.15608 0
M  V30 7151 C 686.894 3.03483 -1.94757 0
M  V30 7152 O 685.998 3.92294 -1.27198 0
M  V30 7153 H 685.339 0.513144 -0.421402 0
M  V30 7154 H 687.869 1.10968 -1.71893 0
M  V30 7155 H 687.879 3.53553 -2.03627 0
M  V30 7156 H 686.554 2.89 -2.99085 0
M  V30 7157 H 685.131 3.50732 -1.26655 0
M  V30 7158 N 687.317 1.12792 1.10072 0
M  V30 7159 C 688.247 0.821688 2.18565 0
M  V30 7160 C 689.228 -0.21612 1.68721 0
M  V30 7161 O 690.413 -0.0764932 1.94049 0
M  V30 7162 C 687.543 0.279624 3.46172 0
M  V30 7163 C 686.497 1.25092 4.09312 0
M  V30 7164 C 685.823 0.568916 5.31665 0
M  V30 7165 C 687.123 2.60699 4.52585 0
M  V30 7166 H 688.817 1.72888 2.44438 0
M  V30 7167 H 686.363 0.832702 1.17482 0
M  V30 7168 H 688.316 0.053099 4.21367 0
M  V30 7169 H 687.04 -0.662929 3.19801 0
M  V30 7170 H 685.699 1.46332 3.36129 0
M  V30 7171 H 685.347 -0.378898 5.01571 0
M  V30 7172 H 685.047 1.21687 5.74862 0
M  V30 7173 H 686.571 0.351517 6.09587 0
M  V30 7174 H 687.985 2.43465 5.19035 0
M  V30 7175 H 686.382 3.21608 5.06644 0
M  V30 7176 H 687.452 3.1886 3.65317 0
M  V30 7177 N 688.795 -1.27931 0.920396 0
M  V30 7178 C 689.705 -2.30824 0.419212 0
M  V30 7179 C 690.721 -1.66767 -0.496461 0
M  V30 7180 O 691.897 -1.97763 -0.38104 0
M  V30 7181 C 688.962 -3.45158 -0.326601 0
M  V30 7182 C 688.023 -4.24754 0.623098 0
M  V30 7183 C 687.256 -5.33629 -0.0872172 0
M  V30 7184 O 687.479 -5.55204 -1.30784 0
M  V30 7185 O 686.413 -5.99091 0.580875 0
M  V30 7186 H 690.239 -2.75716 1.27337 0
M  V30 7187 H 687.824 -1.32747 0.685465 0
M  V30 7188 H 689.706 -4.14716 -0.747559 0
M  V30 7189 H 688.381 -3.02336 -1.15648 0
M  V30 7190 H 687.288 -3.57759 1.09359 0
M  V30 7191 H 688.621 -4.71272 1.41998 0
M  V30 7192 N 690.273 -0.685099 -1.4193 0
M  V30 7193 C 691.206 0.0371639 -2.2817 0
M  V30 7194 C 692.184 0.798436 -1.41647 0
M  V30 7195 O 693.368 0.791428 -1.71081 0
M  V30 7196 C 690.495 1.05993 -3.21688 0
M  V30 7197 C 689.541 0.393043 -4.24685 0
M  V30 7198 S 690.374 -0.856921 -5.28599 0
M  V30 7199 C 691.53 0.164508 -6.25684 0
M  V30 7200 H 691.763 -0.694305 -2.89079 0
M  V30 7201 H 689.296 -0.474999 -1.46912 0
M  V30 7202 H 691.254 1.64489 -3.76103 0
M  V30 7203 H 689.915 1.7639 -2.59895 0
M  V30 7204 H 689.108 1.16513 -4.90348 0
M  V30 7205 H 688.71 -0.118589 -3.73812 0
M  V30 7206 H 691.002 1.02106 -6.69762 0
M  V30 7207 H 691.945 -0.457917 -7.06618 0
M  V30 7208 H 692.353 0.514596 -5.6215 0
M  V30 7209 N 691.751 1.51645 -0.429126 0
M  V30 7210 C 692.979 2.06433 0.138994 0
M  V30 7211 C 693.394 1.29735 1.37165 0
M  V30 7212 O 692.751 0.354638 1.79021 0
M  V30 7213 C 692.802 3.58439 0.469452 0
M  V30 7214 O 692.523 4.32238 -0.714273 0
M  V30 7215 C 694.024 4.29712 1.08914 0
M  V30 7216 H 691.244 0.6709 0.0115608 0
M  V30 7217 H 693.788 1.9532 -0.605843 0
M  V30 7218 H 691.943 3.69494 1.16419 0
M  V30 7219 H 692.357 5.22704 -0.433633 0
M  V30 7220 H 693.831 5.37182 1.27042 0
M  V30 7221 H 694.308 3.87473 2.06788 0
M  V30 7222 H 694.914 4.2308 0.434028 0
M  V30 7223 N 693.229 0.160201 1.56784 0
M  V30 7224 C 694.476 -0.487588 1.96542 0
M  V30 7225 C 694.804 -1.63999 1.04569 0
M  V30 7226 O 694.059 -1.95546 0.0775211 0
M  V30 7227 C 694.358 -1.02259 3.42459 0
M  V30 7228 C 694.024 0.0127436 4.50898 0
M  V30 7229 C 692.686 0.297318 4.80281 0
M  V30 7230 C 695.038 0.716078 5.16257 0
M  V30 7231 C 692.366 1.29081 5.72324 0
M  V30 7232 C 694.718 1.69847 6.09372 0
M  V30 7233 C 693.382 1.99061 6.37127 0
M  V30 7234 H 692.652 -0.178421 0.719199 0
M  V30 7235 H 695.299 0.249818 1.89864 0
M  V30 7236 H 693.604 -1.8376 3.46034 0
M  V30 7237 H 695.301 -1.53261 3.70556 0
M  V30 7238 H 691.891 -0.219235 4.28039 0
M  V30 7239 H 696.075 0.509428 4.93679 0
M  V30 7240 H 691.331 1.52344 5.92116 0
M  V30 7241 H 695.505 2.2489 6.59088 0
M  V30 7242 H 693.132 2.76194 7.08252 0
M  V30 7243 N 694.707 -1.5719 -0.113559 0
M  V30 7244 C 695.956 -1.84325 -0.818984 0
M  V30 7245 C 696.269 -0.746685 -1.80787 0
M  V30 7246 O 697.475 -0.904596 -2.55987 0
M  V30 7247 C 695.931 -3.26818 -1.50724 0
M  V30 7248 C 695.539 -4.44498 -0.559065 0
M  V30 7249 C 697.283 -3.63196 -2.19748 0
M  V30 7250 C 695.19 -5.7802 -1.25086 0
M  V30 7251 H 694.12 -0.687507 -0.309596 0
M  V30 7252 H 696.771 -1.8336 -0.0717621 0
M  V30 7253 H 695.153 -3.22269 -2.30128 0
M  V30 7254 H 696.327 -4.60356 0.202146 0
M  V30 7255 H 694.642 -4.16393 0.024495 0
M  V30 7256 H 697.239 -4.60226 -2.72206 0
M  V30 7257 H 697.582 -2.90899 -2.97798 0
M  V30 7258 H 698.115 -3.69553 -1.47226 0
M  V30 7259 H 694.854 -6.53501 -0.511539 0
M  V30 7260 H 694.374 -5.66038 -1.98395 0
M  V30 7261 H 696.053 -6.2196 -1.78253 0
M  V30 7262 N 696.185 0.383891 -1.52853 0
M  V30 7263 C 697.596 0.961591 -1.60032 0
M  V30 7264 C 697.947 1.90819 -0.456333 0
M  V30 7265 O 697.072 2.12288 0.419873 0
M  V30 7266 C 697.667 1.75078 -2.90057 0
M  V30 7267 C 696.226 2.2781 -2.99632 0
M  V30 7268 C 695.373 1.08512 -2.55187 0
M  V30 7269 H 698.324 0.163269 -1.57858 0
M  V30 7270 H 698.345 2.61046 -2.7683 0
M  V30 7271 H 697.857 1.06157 -3.73299 0
M  V30 7272 H 695.958 3.00028 -2.20939 0
M  V30 7273 H 696.071 2.56947 -4.0437 0
M  V30 7274 H 694.435 1.44667 -2.09627 0
M  V30 7275 H 695.218 0.41118 -3.40829 0
M  V30 7276 N 697.663 1.43903 0.642637 0
M  V30 7277 C 698.891 1.4954 1.42988 0
M  V30 7278 C 699.306 0.116588 1.8844 0
M  V30 7279 O 698.663 -0.875285 1.60141 0
M  V30 7280 C 698.714 2.45031 2.65785 0
M  V30 7281 O 698.435 3.77551 2.22232 0
M  V30 7282 C 699.936 2.60017 3.59035 0
M  V30 7283 H 697.156 0.507544 0.438907 0
M  V30 7284 H 699.7 1.88752 0.786942 0
M  V30 7285 H 697.855 2.08985 3.26196 0
M  V30 7286 H 698.269 4.29001 3.01759 0
M  V30 7287 H 699.743 3.30887 4.41835 0
M  V30 7288 H 700.22 1.64861 4.07084 0
M  V30 7289 H 700.826 2.96918 3.045 0
M  V30 7290 N 699.141 -0.881989 1.30609 0
M  V30 7291 C 700.39 -1.62878 1.18969 0
M  V30 7292 C 700.703 -1.93946 -0.253859 0
M  V30 7293 O 701.909 -2.67008 -0.491813 0
M  V30 7294 C 700.365 -2.93573 2.0819 0
M  V30 7295 C 699.973 -2.70034 3.57471 0
M  V30 7296 C 701.717 -3.71543 2.0532 0
M  V30 7297 C 699.624 -3.96563 4.38739 0
M  V30 7298 H 698.554 -0.611092 0.441682 0
M  V30 7299 H 701.205 -0.976201 1.55379 0
M  V30 7300 H 699.587 -3.6014 1.64666 0
M  V30 7301 H 700.761 -2.11949 4.09163 0
M  V30 7302 H 699.076 -2.05435 3.62195 0
M  V30 7303 H 701.673 -4.65386 2.63288 0
M  V30 7304 H 702.016 -4.03167 1.03739 0
M  V30 7305 H 702.549 -3.11842 2.46981 0
M  V30 7306 H 699.288 -3.70095 5.41027 0
M  V30 7307 H 698.808 -4.54142 3.9181 0
M  V30 7308 H 700.487 -4.64557 4.50329 0
M  V30 7309 N 700.619 -1.13374 -1.09472 0
M  V30 7310 C 701.529 -0.824029 -2.19652 0
M  V30 7311 C 702.545 0.19118 -1.72947 0
M  V30 7312 O 703.721 0.0223464 -2.01388 0
M  V30 7313 C 700.786 -0.294009 -3.45451 0
M  V30 7314 C 699.847 -1.3704 -4.0684 0
M  V30 7315 C 699.08 -0.86558 -5.26634 0
M  V30 7316 O 699.303 0.29702 -5.69626 0
M  V30 7317 O 698.237 -1.63968 -5.79136 0
M  V30 7318 H 702.063 -1.74454 -2.48595 0
M  V30 7319 H 699.648 -0.911155 -1.18399 0
M  V30 7320 H 701.53 -0.00381039 -4.214 0
M  V30 7321 H 700.205 0.598921 -3.18111 0
M  V30 7322 H 699.112 -1.71391 -3.3253 0
M  V30 7323 H 700.445 -2.23746 -4.38405 0
M  V30 7324 N 702.098 1.27442 -0.927168 0
M  V30 7325 C 703.375 1.89473 -0.485742 0
M  V30 7326 C 703.755 1.83922 1.03614 0
M  V30 7327 O 703.103 1.28409 1.89007 0
M  V30 7328 C 703.313 3.33417 -1.03123 0
M  V30 7329 C 704.661 4.10333 -1.0914 0
M  V30 7330 O 705.685 3.4243 -0.98082 0
M  V30 7331 O 704.544 5.31737 -1.26165 0
M  V30 7332 H 701.638 0.812124 -0.156154 0
M  V30 7333 H 704.184 1.35713 -1.01882 0
M  V30 7334 H 702.956 3.31747 -2.07508 0
M  V30 7335 H 702.579 3.94695 -0.479767 0
M  V30 7336 N 703.576 0.692616 1.41565 0
M  V30 7337 C 704.804 0.231279 2.05603 0
M  V30 7338 C 705.219 -1.11837 1.52111 0
M  V30 7339 O 704.576 -1.6983 0.66813 0
M  V30 7340 C 704.627 0.177125 3.61066 0
M  V30 7341 O 704.348 1.47346 4.12578 0
M  V30 7342 C 705.849 -0.30556 4.42246 0
M  V30 7343 H 703.069 0.108238 0.662213 0
M  V30 7344 H 705.613 0.944369 1.81389 0
M  V30 7345 H 703.768 -0.486769 3.8433 0
M  V30 7346 H 704.182 1.35861 5.06599 0
M  V30 7347 H 705.656 -0.29233 5.51225 0
M  V30 7348 H 706.133 -1.34393 4.18133 0
M  V30 7349 H 706.739 0.327229 4.24039 0
M  V30 7350 N 705.054 -1.51416 0.437162 0
M  V30 7351 C 706.302 -2.01687 -0.129108 0
M  V30 7352 C 706.623 -1.32329 -1.43227 0
M  V30 7353 O 705.893 -0.457796 -1.90476 0
M  V30 7354 H 704.473 -0.745277 -0.0507023 0
M  V30 7355 H 707.135 -1.86075 0.579828 0
M  V30 7356 H 706.231 -3.10605 -0.305141 0
M  V30 7357 N 706.532 -0.168513 -1.56696 0
M  V30 7358 C 707.479 0.762875 -2.17828 0
M  V30 7359 C 708.449 1.22892 -1.11745 0
M  V30 7360 O 709.634 1.29759 -1.39883 0
M  V30 7361 C 706.774 1.9879 -2.82093 0
M  V30 7362 C 705.887 1.56568 -4.02629 0
M  V30 7363 C 705.022 2.74416 -4.54829 0
M  V30 7364 C 704.061 2.28671 -5.67782 0
M  V30 7365 N 703.198 3.39602 -6.14504 0
M  V30 7366 H 708.038 0.23479 -2.97074 0
M  V30 7367 H 705.575 0.104163 -1.46731 0
M  V30 7368 H 707.533 2.70636 -3.17509 0
M  V30 7369 H 706.163 2.48973 -2.05456 0
M  V30 7370 H 705.215 0.744067 -3.73052 0
M  V30 7371 H 706.527 1.18988 -4.844 0
M  V30 7372 H 705.681 3.54423 -4.92412 0
M  V30 7373 H 704.42 3.15254 -3.7211 0
M  V30 7374 H 703.425 1.4711 -5.29753 0
M  V30 7375 H 704.65 1.88894 -6.52301 0
M  V30 7376 H 702.596 3.80021 -5.34715 0
M  V30 7377 H 702.513 3.06105 -6.91257 0
M  V30 7378 H 703.781 4.19902 -6.56737 0
M  V30 7379 N 708.01 1.57248 0.105221 0
M  V30 7380 C 708.973 2.00388 1.11252 0
M  V30 7381 C 709.973 0.89594 1.33527 0
M  V30 7382 O 711.163 1.16166 1.29811 0
M  V30 7383 C 708.295 2.35589 2.46395 0
M  V30 7384 H 709.488 2.90591 0.741424 0
M  V30 7385 H 707.041 1.52332 0.349956 0
M  V30 7386 H 707.776 1.4831 2.884 0
M  V30 7387 H 707.561 3.16408 2.31578 0
M  V30 7388 H 709.051 2.69658 3.18864 0
M  V30 7389 N 709.488 -0.375779 1.53054 0
M  V30 7390 C 710.418 -1.46598 1.81745 0
M  V30 7391 C 711.399 -1.56337 0.670286 0
M  V30 7392 O 712.584 -1.71071 0.919158 0
M  V30 7393 C 709.714 -2.84058 1.99821 0
M  V30 7394 C 708.668 -2.8915 3.15557 0
M  V30 7395 C 707.994 -4.29187 3.18908 0
M  V30 7396 C 709.294 -2.57595 4.54359 0
M  V30 7397 H 710.988 -1.22837 2.73041 0
M  V30 7398 H 708.534 -0.589485 1.31381 0
M  V30 7399 H 710.487 -3.60342 2.18475 0
M  V30 7400 H 709.211 -3.09184 1.05226 0
M  V30 7401 H 707.87 -2.15316 2.96706 0
M  V30 7402 H 707.518 -4.51374 2.2197 0
M  V30 7403 H 707.218 -4.33512 3.96662 0
M  V30 7404 H 708.742 -5.07359 3.39734 0
M  V30 7405 H 710.156 -3.23595 4.73243 0
M  V30 7406 H 708.553 -2.73252 5.34279 0
M  V30 7407 H 709.623 -1.52882 4.60169 0
M  V30 7408 N 710.966 -1.44241 -0.634997 0
M  V30 7409 C 712.212 -1.47038 -1.39669 0
M  V30 7410 C 712.545 -0.101122 -1.93937 0
M  V30 7411 O 711.82 0.880699 -1.73418 0
M  V30 7412 C 712.103 -2.52763 -2.56482 0
M  V30 7413 C 711.956 -3.99032 -2.07589 0
M  V30 7414 C 713.275 -2.55031 -3.58674 0
M  V30 7415 H 710.394 -0.53537 -0.506506 0
M  V30 7416 H 713.036 -1.75898 -0.718317 0
M  V30 7417 H 711.186 -2.28284 -3.14354 0
M  V30 7418 H 712.858 -4.3463 -1.54577 0
M  V30 7419 H 711.101 -4.10994 -1.38804 0
M  V30 7420 H 711.772 -4.68649 -2.91671 0
M  V30 7421 H 714.248 -2.76893 -3.10595 0
M  V30 7422 H 713.124 -3.30916 -4.37934 0
M  V30 7423 H 713.385 -1.59085 -4.12486 0
M  V30 7424 N 712.444 0.87505 -1.31075 0
M  V30 7425 C 713.684 1.64174 -1.21763 0
M  V30 7426 C 714.048 1.90713 0.221933 0
M  V30 7427 O 715.249 2.652 0.438458 0
M  V30 7428 C 713.52 2.93932 -2.0332 0
M  V30 7429 S 715.079 3.84841 -2.10815 0
M  V30 7430 H 711.897 0.563358 -0.433761 0
M  V30 7431 H 714.499 1.03788 -1.65675 0
M  V30 7432 H 713.203 2.72349 -3.07009 0
M  V30 7433 H 712.734 3.59345 -1.60108 0
M  V30 7434 H 714.749 4.80385 -1.24276 0
M  V30 7435 N 713.922 1.13953 1.08869 0
M  V30 7436 C 714.854 0.779906 2.15523 0
M  V30 7437 C 715.867 -0.20102 1.61554 0
M  V30 7438 O 717.056 0.0200049 1.78489 0
M  V30 7439 C 714.156 0.136226 3.38626 0
M  V30 7440 C 713.329 1.15069 4.21993 0
M  V30 7441 C 712.388 0.531645 5.23507 0
M  V30 7442 O 711.414 1.19327 5.56552 0
M  V30 7443 N 712.616 -0.693734 5.7634 0
M  V30 7444 H 715.381 1.69769 2.46979 0
M  V30 7445 H 712.942 1.03331 1.24637 0
M  V30 7446 H 714.934 -0.290295 4.03658 0
M  V30 7447 H 713.504 -0.684603 3.05011 0
M  V30 7448 H 712.724 1.75431 3.53012 0
M  V30 7449 H 714.012 1.83614 4.74514 0
M  V30 7450 H 713.41 -1.24994 5.51718 0
M  V30 7451 H 711.967 -1.06283 6.43076 0
M  V30 7452 N 715.4 -1.26948 0.933913 0
M  V30 7453 C 716.363 -2.24889 0.442457 0
M  V30 7454 C 717.363 -1.54594 -0.442426 0
M  V30 7455 O 718.553 -1.72502 -0.242629 0
M  V30 7456 C 715.685 -3.3896 -0.363173 0
M  V30 7457 H 716.878 -2.69879 1.30787 0
M  V30 7458 H 714.431 -1.38978 0.715187 0
M  V30 7459 H 715.166 -2.99361 -1.24714 0
M  V30 7460 H 714.951 -3.9116 0.271366 0
M  V30 7461 H 716.441 -4.11739 -0.697186 0
M  V30 7462 N 716.879 -0.700114 -1.41195 0
M  V30 7463 C 717.826 -0.0376652 -2.30769 0
M  V30 7464 C 718.796 0.766544 -1.47354 0
M  V30 7465 O 719.981 0.73365 -1.76131 0
M  V30 7466 C 717.121 0.889452 -3.33441 0
M  V30 7467 C 716.234 0.076373 -4.31932 0
M  V30 7468 C 715.369 1.00155 -5.21673 0
M  V30 7469 C 714.408 0.181644 -6.1183 0
M  V30 7470 N 713.545 1.06087 -6.94039 0
M  V30 7471 H 718.385 -0.80726 -2.86858 0
M  V30 7472 H 715.922 -0.409798 -1.41277 0
M  V30 7473 H 717.88 1.44107 -3.91522 0
M  V30 7474 H 716.51 1.6254 -2.78892 0
M  V30 7475 H 715.562 -0.592223 -3.75762 0
M  V30 7476 H 716.874 -0.559076 -4.95657 0
M  V30 7477 H 716.028 1.62223 -5.8461 0
M  V30 7478 H 714.767 1.67085 -4.58186 0
M  V30 7479 H 713.772 -0.452085 -5.47938 0
M  V30 7480 H 714.997 -0.483925 -6.77374 0
M  V30 7481 H 712.943 1.7161 -6.33156 0
M  V30 7482 H 712.86 0.481094 -7.54468 0
M  V30 7483 H 714.128 1.66822 -7.6144 0
M  V30 7484 N 718.357 1.51182 -0.445186 0
M  V30 7485 C 719.287 2.30821 0.352686 0
M  V30 7486 C 720.268 1.36576 1.01395 0
M  V30 7487 O 721.453 1.65497 1.01609 0
M  V30 7488 C 718.583 3.15593 1.44976 0
M  V30 7489 C 717.537 4.1818 0.911553 0
M  V30 7490 C 716.863 4.91523 2.10497 0
M  V30 7491 C 718.163 5.22266 -0.059418 0
M  V30 7492 H 719.857 2.97771 -0.311936 0
M  V30 7493 H 717.403 1.43201 -0.151461 0
M  V30 7494 H 719.356 3.70091 2.01521 0
M  V30 7495 H 718.08 2.4648 2.14278 0
M  V30 7496 H 716.739 3.64746 0.368264 0
M  V30 7497 H 716.387 4.18906 2.78437 0
M  V30 7498 H 716.087 5.60898 1.7512 0
M  V30 7499 H 717.611 5.48847 2.6758 0
M  V30 7500 H 719.025 5.71789 0.415985 0
M  V30 7501 H 717.422 5.99213 -0.326152 0
M  V30 7502 H 718.492 4.7461 -0.993631 0
M  V30 7503 N 719.835 0.176821 1.56605 0
M  V30 7504 C 720.785 -0.763718 2.14829 0
M  V30 7505 C 721.769 -1.18903 1.08401 0
M  V30 7506 O 722.961 -1.15048 1.3451 0
M  V30 7507 C 720.09 -1.99069 2.7969 0
M  V30 7508 C 719.176 -1.58711 3.93283 0
M  V30 7509 N 719.567 -0.893423 4.97847 0
M  V30 7510 C 717.865 -1.87774 4.04545 0
M  V30 7511 C 718.566 -0.693866 5.77547 0
M  V30 7512 N 717.542 -1.23699 5.29339 0
M  V30 7513 H 721.344 -0.224811 2.93039 0
M  V30 7514 H 718.858 -0.0236563 1.62383 0
M  V30 7515 H 720.855 -2.67478 3.19783 0
M  V30 7516 H 719.515 -2.53449 2.02962 0
M  V30 7517 H 720.526 -0.550868 5.14962 0
M  V30 7518 H 717.203 -2.43793 3.38927 0
M  V30 7519 H 718.593 -0.144899 6.71744 0
M  V30 7520 N 721.313 -1.57302 -0.09688 0
M  V30 7521 C 722.562 -1.85183 -0.799388 0
M  V30 7522 C 722.875 -0.765818 -1.79985 0
M  V30 7523 O 724.081 -0.931696 -2.55013 0
M  V30 7524 C 722.537 -3.28399 -1.47249 0
M  V30 7525 C 722.145 -4.45066 -0.511888 0
M  V30 7526 C 723.889 -3.65506 -2.15883 0
M  V30 7527 C 721.796 -5.79315 -1.18948 0
M  V30 7528 H 720.726 -0.690752 -0.302287 0
M  V30 7529 H 723.377 -1.83425 -0.0523104 0
M  V30 7530 H 721.759 -3.24692 -2.26697 0
M  V30 7531 H 722.933 -4.60116 0.250962 0
M  V30 7532 H 721.248 -4.16343 0.0686576 0
M  V30 7533 H 723.845 -4.63087 -2.67309 0
M  V30 7534 H 724.188 -2.94041 -2.94696 0
M  V30 7535 H 724.721 -3.71094 -1.43298 0
M  V30 7536 H 721.46 -6.54007 -0.442198 0
M  V30 7537 H 720.98 -5.68111 -1.9238 0
M  V30 7538 H 722.659 -6.23816 -1.71646 0
M  V30 7539 N 722.791 0.367657 -1.53252 0
M  V30 7540 C 724.068 1.12606 -1.59935 0
M  V30 7541 C 724.448 2.07167 -0.405606 0
M  V30 7542 O 723.796 2.20364 0.604323 0
M  V30 7543 C 724.006 1.86699 -2.94863 0
M  V30 7544 C 725.354 2.41306 -3.49366 0
M  V30 7545 O 726.378 1.96828 -2.96879 0
M  V30 7546 O 725.237 3.2261 -4.41118 0
M  V30 7547 H 722.331 0.516438 -0.645926 0
M  V30 7548 H 724.877 0.371088 -1.65593 0
M  V30 7549 H 723.649 1.17674 -3.73187 0
M  V30 7550 H 723.272 2.6911 -2.92687 0
M  V30 7551 N 724.269 1.44576 0.627338 0
M  V30 7552 C 725.546 1.38033 1.38586 0
M  V30 7553 C 725.926 0.0409468 2.1106 0
M  V30 7554 O 725.274 -0.976582 2.0658 0
M  V30 7555 C 725.484 2.58102 2.34913 0
M  V30 7556 C 726.832 3.02332 2.98129 0
M  V30 7557 O 727.856 2.58334 2.45238 0
M  V30 7558 O 726.715 3.78628 3.94085 0
M  V30 7559 H 723.809 0.546801 0.620434 0
M  V30 7560 H 726.355 1.56672 0.652077 0
M  V30 7561 H 725.127 3.4719 1.80485 0
M  V30 7562 H 724.75 2.41696 3.15703 0
M  V30 7563 N 725.747 -0.868086 1.31537 0
M  V30 7564 C 726.68 -1.97871 1.13676 0
M  V30 7565 C 727.658 -1.62551 0.0397589 0
M  V30 7566 O 728.842 -1.87473 0.196539 0
M  V30 7567 C 725.969 -3.30577 0.73734 0
M  V30 7568 C 725.015 -3.8488 1.83765 0
M  V30 7569 S 725.848 -4.10106 3.44345 0
M  V30 7570 C 727.004 -5.45806 3.06344 0
M  V30 7571 H 727.237 -2.12719 2.07697 0
M  V30 7572 H 724.77 -1.01849 1.16044 0
M  V30 7573 H 726.728 -4.07274 0.513641 0
M  V30 7574 H 725.389 -3.13562 -0.183787 0
M  V30 7575 H 724.582 -4.80821 1.51085 0
M  V30 7576 H 724.184 -3.14981 2.01651 0
M  V30 7577 H 726.476 -6.27535 2.55354 0
M  V30 7578 H 727.419 -5.83437 4.01257 0
M  V30 7579 H 727.827 -5.0917 2.43734 0
M  V30 7580 N 727.225 -1.14528 -1.08264 0
M  V30 7581 C 728.135 -0.84728 -2.18765 0
M  V30 7582 C 729.151 0.172826 -1.7314 0
M  V30 7583 O 730.327 0.000985336 -2.014 0
M  V30 7584 C 727.392 -0.330633 -3.4512 0
M  V30 7585 C 726.453 -1.41348 -4.05363 0
M  V30 7586 C 725.686 -0.921387 -5.25686 0
M  V30 7587 O 725.909 0.236587 -5.69909 0
M  V30 7588 O 724.843 -1.70101 -5.77364 0
M  V30 7589 H 728.669 -1.7708 -2.46731 0
M  V30 7590 H 726.254 -0.923661 -1.17426 0
M  V30 7591 H 728.136 -0.0485053 -4.21372 0
M  V30 7592 H 726.811 0.565147 -3.18728 0
M  V30 7593 H 725.718 -1.74908 -3.30693 0
M  V30 7594 H 727.051 -2.28383 -4.36007 0
M  V30 7595 N 728.703 1.26451 -0.940633 0
M  V30 7596 C 729.95 1.93778 -0.587909 0
M  V30 7597 C 730.278 1.73811 0.872935 0
M  V30 7598 O 729.533 1.06816 1.63978 0
M  V30 7599 C 729.832 3.46503 -0.875794 0
M  V30 7600 C 729.498 3.86609 -2.32043 0
M  V30 7601 C 728.16 3.97269 -2.71534 0
M  V30 7602 C 730.512 4.0672 -3.25927 0
M  V30 7603 C 727.84 4.25436 -4.04006 0
M  V30 7604 C 730.192 4.36375 -4.57995 0
M  V30 7605 C 728.856 4.45249 -4.97302 0
M  V30 7606 H 728.126 0.709084 -0.215131 0
M  V30 7607 H 730.773 1.50272 -1.18704 0
M  V30 7608 H 729.078 3.91319 -0.194124 0
M  V30 7609 H 730.775 3.96759 -0.581665 0
M  V30 7610 H 727.365 3.78858 -2.00411 0
M  V30 7611 H 731.549 3.97912 -2.96614 0
M  V30 7612 H 726.805 4.30519 -4.34124 0
M  V30 7613 H 730.979 4.50882 -5.30734 0
M  V30 7614 H 728.606 4.66829 -5.99979 0
M  V30 7615 N 730.181 0.707592 1.40822 0
M  V30 7616 C 731.091 0.0507246 2.34545 0
M  V30 7617 C 732.107 -0.752727 1.56876 0
M  V30 7618 O 733.283 -0.687524 1.89302 0
M  V30 7619 C 730.348 -0.865731 3.35717 0
M  V30 7620 C 729.409 -0.0531313 4.29267 0
M  V30 7621 C 728.642 -0.925939 5.25606 0
M  V30 7622 O 728.865 -2.16531 5.27703 0
M  V30 7623 O 727.799 -0.369194 6.00767 0
M  V30 7624 H 731.625 0.823587 2.9232 0
M  V30 7625 H 729.21 0.46801 1.4188 0
M  V30 7626 H 731.092 -1.39091 3.97783 0
M  V30 7627 H 729.767 -1.61788 2.80368 0
M  V30 7628 H 728.674 0.516931 3.70511 0
M  V30 7629 H 730.007 0.660617 4.87747 0
M  V30 7630 N 731.66 -1.50943 0.453197 0
M  V30 7631 C 733.071 -1.86699 -0.00619892 0
M  V30 7632 C 733.422 -1.3693 -1.40515 0
M  V30 7633 O 732.547 -0.726715 -2.03833 0
M  V30 7634 C 733.142 -3.38795 -0.018025 0
M  V30 7635 C 731.701 -3.74028 -0.421885 0
M  V30 7636 C 730.848 -2.74752 0.375087 0
M  V30 7637 H 733.799 -1.43942 0.668317 0
M  V30 7638 H 733.82 -3.71468 -0.824125 0
M  V30 7639 H 733.332 -3.74988 1.00028 0
M  V30 7640 H 731.433 -3.43431 -1.44521 0
M  V30 7641 H 731.546 -4.78908 -0.135664 0
M  V30 7642 H 729.91 -2.5414 -0.168794 0
M  V30 7643 H 730.693 -3.13787 1.39256 0
M  V30 7644 N 733.138 -0.185124 -1.56509 0
M  V30 7645 C 734.085 0.739729 -2.18624 0
M  V30 7646 C 735.055 1.217 -1.13042 0
M  V30 7647 O 736.24 1.28268 -1.41251 0
M  V30 7648 C 733.38 1.95787 -2.84186 0
M  V30 7649 C 732.493 1.52289 -4.04267 0
M  V30 7650 C 731.628 2.69576 -4.57714 0
M  V30 7651 C 730.667 2.22636 -5.70175 0
M  V30 7652 N 729.804 3.33065 -6.18071 0
M  V30 7653 H 734.644 0.203269 -2.97306 0
M  V30 7654 H 732.181 0.0885946 -1.46833 0
M  V30 7655 H 734.139 2.67253 -3.20361 0
M  V30 7656 H 732.769 2.4678 -2.08085 0
M  V30 7657 H 731.821 0.704458 -3.7382 0
M  V30 7658 H 733.133 1.13843 -4.85635 0
M  V30 7659 H 732.287 3.4918 -4.96143 0
M  V30 7660 H 731.026 3.1129 -3.75433 0
M  V30 7661 H 730.031 1.41483 -5.31284 0
M  V30 7662 H 731.256 1.81964 -6.54267 0
M  V30 7663 H 729.202 3.74328 -5.38715 0
M  V30 7664 H 729.119 2.98756 -6.94464 0
M  V30 7665 H 730.387 4.12912 -6.61153 0
M  V30 7666 N 734.616 1.57351 0.0885366 0
M  V30 7667 C 735.548 1.99221 1.13329 0
M  V30 7668 C 736.561 0.895705 1.35945 0
M  V30 7669 O 737.75 1.17376 1.34481 0
M  V30 7670 C 734.85 2.3016 2.48756 0
M  V30 7671 C 734.023 3.61444 2.46327 0
M  V30 7672 C 733.082 3.80244 3.63732 0
M  V30 7673 O 732.108 4.52024 3.45924 0
M  V30 7674 N 733.31 3.2132 4.8346 0
M  V30 7675 H 736.075 2.89456 0.776862 0
M  V30 7676 H 733.636 1.59505 0.277428 0
M  V30 7677 H 735.628 2.39925 3.25911 0
M  V30 7678 H 734.198 1.459 2.76464 0
M  V30 7679 H 733.418 3.62588 1.54673 0
M  V30 7680 H 734.706 4.47678 2.41789 0
M  V30 7681 H 734.104 2.63028 5.00832 0
M  V30 7682 H 732.661 3.3656 5.58185 0
M  V30 7683 N 736.094 -0.359525 1.53444 0
M  V30 7684 C 737.51 -0.701599 1.43352 0
M  V30 7685 C 737.71 -1.93049 0.577439 0
M  V30 7686 O 736.766 -2.52423 0.0622224 0
M  V30 7687 C 738.079 -0.90915 2.86627 0
M  V30 7688 C 739.627 -1.00878 2.96298 0
M  V30 7689 C 740.102 -1.24876 4.40647 0
M  V30 7690 N 741.593 -1.31632 4.44103 0
M  V30 7691 C 742.328 -1.51922 5.52908 0
M  V30 7692 N 741.824 -1.69489 6.71748 0
M  V30 7693 N 743.617 -1.54341 5.40496 0
M  V30 7694 H 735.768 0.448685 2.07607 0
M  V30 7695 H 738.031 0.138713 0.937797 0
M  V30 7696 H 737.737 -0.0778997 3.51614 0
M  V30 7697 H 737.611 -1.81551 3.30634 0
M  V30 7698 H 739.998 -1.83057 2.31461 0
M  V30 7699 H 740.079 -0.0796721 2.55676 0
M  V30 7700 H 739.723 -0.431961 5.0606 0
M  V30 7701 H 739.653 -2.19118 4.78848 0
M  V30 7702 H 742.144 -1.19646 3.5846 0
M  V30 7703 H 742.457 -1.84561 7.50438 0
M  V30 7704 H 740.802 -1.66655 6.74723 0
M  V30 7705 H 743.993 -1.40188 4.46615 0
M  V30 7706 H 744.166 -1.69812 6.25354 0
M  V30 7707 N 737.572 -1.44907 -0.619662 0
M  V30 7708 C 738.504 -1.48652 -1.74457 0
M  V30 7709 C 739.517 -0.378596 -1.58337 0
M  V30 7710 O 740.706 -0.644987 -1.6644 0
M  V30 7711 C 737.806 -1.31568 -3.12319 0
M  V30 7712 C 736.979 -2.55816 -3.54792 0
M  V30 7713 C 736.038 -2.33465 -4.71573 0
M  V30 7714 O 735.064 -3.07015 -4.79302 0
M  V30 7715 N 736.266 -1.37254 -5.6404 0
M  V30 7716 H 739.031 -2.45632 -1.71712 0
M  V30 7717 H 736.592 -1.40492 -0.804582 0
M  V30 7718 H 738.584 -1.14445 -3.88181 0
M  V30 7719 H 737.154 -0.429095 -3.09641 0
M  V30 7720 H 736.374 -2.88137 -2.69018 0
M  V30 7721 H 737.662 -3.38431 -3.79924 0
M  V30 7722 H 737.06 -0.765309 -5.60499 0
M  V30 7723 H 735.617 -1.26106 -6.39485 0
M  V30 7724 N 739.05 0.861098 -1.31996 0
M  V30 7725 C 740.275 1.65264 -1.2531 0
M  V30 7726 C 740.7 1.87265 0.177007 0
M  V30 7727 O 740.058 1.4208 1.12619 0
M  V30 7728 C 740.106 2.99284 -2.0115 0
M  V30 7729 O 739.21 3.89508 -1.3549 0
M  V30 7730 H 738.551 0.50409 -0.432192 0
M  V30 7731 H 741.081 1.07297 -1.74208 0
M  V30 7732 H 741.091 3.49154 -2.11081 0
M  V30 7733 H 739.766 2.82591 -3.05148 0
M  V30 7734 H 738.343 3.47966 -1.34066 0
M  V30 7735 N 740.528 1.15101 1.07655 0
M  V30 7736 C 741.756 0.947731 1.83918 0
M  V30 7737 C 742.171 -0.503927 1.81951 0
M  V30 7738 O 741.528 -1.34941 1.2287 0
M  V30 7739 C 741.579 1.4503 3.31132 0
M  V30 7740 O 741.3 2.84508 3.33146 0
M  V30 7741 C 742.801 1.28806 4.24174 0
M  V30 7742 H 740.021 0.336786 0.580358 0
M  V30 7743 H 742.565 1.52799 1.35914 0
M  V30 7744 H 740.72 0.912632 3.76497 0
M  V30 7745 H 741.134 3.0723 4.251 0
M  V30 7746 H 742.608 1.6882 5.25551 0
M  V30 7747 H 743.085 0.231851 4.38588 0
M  V30 7748 H 743.691 1.81465 3.84643 0
M  V30 7749 N 742.006 -1.2595 0.947325 0
M  V30 7750 C 742.938 -2.25336 0.41906 0
M  V30 7751 C 743.951 -1.56135 -0.461051 0
M  V30 7752 O 745.14 -1.76438 -0.270505 0
M  V30 7753 C 742.24 -3.36334 -0.416233 0
M  V30 7754 C 741.413 -4.35088 0.449162 0
M  V30 7755 C 740.472 -5.25185 -0.326716 0
M  V30 7756 O 739.498 -5.68548 0.272374 0
M  V30 7757 N 740.7 -5.57388 -1.6217 0
M  V30 7758 H 743.465 -2.71298 1.27348 0
M  V30 7759 H 741.026 -1.39781 0.81688 0
M  V30 7760 H 743.018 -3.93564 -0.942826 0
M  V30 7761 H 741.588 -2.89819 -1.17148 0
M  V30 7762 H 740.808 -3.76841 1.15692 0
M  V30 7763 H 742.096 -4.98056 1.04008 0
M  V30 7764 H 741.494 -5.2405 -2.13046 0
M  V30 7765 H 740.051 -6.17234 -2.0944 0
M  V30 7766 N 743.484 -0.715051 -1.40445 0
M  V30 7767 C 744.712 -0.263959 -2.05209 0
M  V30 7768 C 745.127 1.09403 -1.53871 0
M  V30 7769 O 744.484 1.68746 -0.695064 0
M  V30 7770 C 744.535 -0.234545 -3.60738 0
M  V30 7771 O 744.256 -1.53891 -4.10182 0
M  V30 7772 C 745.757 0.235164 -4.42676 0
M  V30 7773 H 742.977 -0.11876 -0.660407 0
M  V30 7774 H 745.521 -0.973107 -1.79864 0
M  V30 7775 H 743.676 0.425563 -3.85055 0
M  V30 7776 H 744.09 -1.43903 -5.04373 0
M  V30 7777 H 745.564 0.204598 -5.51621 0
M  V30 7778 H 746.041 1.27724 -4.20218 0
M  V30 7779 H 746.647 -0.394649 -4.23465 0
M  V30 7780 N 744.962 1.50701 -0.461195 0
M  V30 7781 C 745.892 2.31182 0.328184 0
M  V30 7782 C 746.873 1.37644 0.999408 0
M  V30 7783 O 748.058 1.66565 0.99848 0
M  V30 7784 C 745.188 3.17113 1.41621 0
M  V30 7785 C 744.142 4.19124 0.867148 0
M  V30 7786 C 743.468 4.93728 2.05272 0
M  V30 7787 C 744.768 5.22174 -0.114808 0
M  V30 7788 H 746.462 2.97423 -0.343501 0
M  V30 7789 H 744.008 1.43033 -0.166641 0
M  V30 7790 H 745.961 3.72208 1.97584 0
M  V30 7791 H 744.685 2.48739 2.11652 0
M  V30 7792 H 743.344 3.65116 0.329557 0
M  V30 7793 H 742.992 4.21835 2.73978 0
M  V30 7794 H 742.692 5.62724 1.69161 0
M  V30 7795 H 744.216 5.51654 2.61744 0
M  V30 7796 H 745.63 5.72198 0.355316 0
M  V30 7797 H 744.027 5.98833 -0.389689 0
M  V30 7798 H 745.097 4.7353 -1.04391 0
M  V30 7799 N 746.441 0.193421 1.56409 0
M  V30 7800 C 747.671 -0.450783 2.01622 0
M  V30 7801 C 748.079 -1.5585 1.07273 0
M  V30 7802 O 747.422 -1.83569 0.0694875 0
M  V30 7803 C 747.484 -1.06913 3.43235 0
M  V30 7804 C 747.148 -0.100352 4.5689 0
M  V30 7805 C 748.145 0.689633 5.15306 0
M  V30 7806 C 745.83 0.0102436 5.02299 0
M  V30 7807 C 747.824 1.5772 6.17579 0
M  V30 7808 C 745.511 0.901368 6.04416 0
M  V30 7809 C 746.509 1.68341 6.61929 0
M  V30 7810 O 746.197 2.5596 7.62063 0
M  V30 7811 H 745.929 -0.117671 0.66568 0
M  V30 7812 H 748.483 0.2989 2.03214 0
M  V30 7813 H 746.713 -1.86736 3.38624 0
M  V30 7814 H 748.402 -1.61781 3.72266 0
M  V30 7815 H 749.168 0.614485 4.81092 0
M  V30 7816 H 745.047 -0.58829 4.57231 0
M  V30 7817 H 748.591 2.18805 6.62397 0
M  V30 7818 H 744.488 0.977637 6.38054 0
M  V30 7819 H 745.256 2.49721 7.79475 0
M  V30 7820 N 747.919 -1.57396 -0.0801906 0
M  V30 7821 C 749.165 -1.87113 -0.782083 0
M  V30 7822 C 749.498 -0.78458 -1.77646 0
M  V30 7823 O 748.773 0.205993 -1.93406 0
M  V30 7824 C 749.056 -3.27483 -1.49756 0
M  V30 7825 C 748.909 -4.46782 -0.520171 0
M  V30 7826 C 750.228 -3.65965 -2.44454 0
M  V30 7827 H 747.347 -0.680559 -0.282858 0
M  V30 7828 H 749.989 -1.89946 -0.0454139 0
M  V30 7829 H 748.139 -3.25199 -2.12551 0
M  V30 7830 H 749.811 -4.61187 0.101919 0
M  V30 7831 H 748.054 -4.33485 0.165219 0
M  V30 7832 H 748.725 -5.41761 -1.05824 0
M  V30 7833 H 751.201 -3.69289 -1.91742 0
M  V30 7834 H 750.077 -4.65086 -2.91524 0
M  V30 7835 H 750.338 -2.95446 -3.28883 0
M  V30 7836 N 749.397 0.351382 -1.53633 0
M  V30 7837 C 750.345 1.45142 -1.8176 0
M  V30 7838 C 751.339 1.54819 -0.687571 0
M  V30 7839 O 752.545 1.57536 -0.870772 0
M  V30 7840 H 748.92 0.483789 -0.575719 0
M  V30 7841 H 750.891 1.1863 -2.73806 0
M  V30 7842 C 749.64 2.81779 -2.03706 0
M  V30 7843 H 748.963 2.75097 -2.90107 0
M  V30 7844 H 750.403 3.5789 -2.27356 0
M  V30 7845 C 748.862 3.26762 -0.820271 0
M  V30 7846 O 749.392 4.01697 -0.0158603 0
M  V30 7847 N 747.598 2.83472 -0.639699 0
M  V30 7848 H 747.145 2.22655 -1.29547 0
M  V30 7849 H 747.103 3.13924 0.172995 0
M  V30 7850 N 750.875 1.45233 0.611969 0
M  V30 7851 C 752.121 1.49242 1.37312 0
M  V30 7852 C 752.454 0.131963 1.93751 0
M  V30 7853 O 751.729 -0.852999 1.74798 0
M  V30 7854 C 752.012 2.56811 2.52428 0
M  V30 7855 C 751.865 4.02284 2.01215 0
M  V30 7856 C 753.184 2.60705 3.54572 0
M  V30 7857 H 750.303 0.54336 0.497925 0
M  V30 7858 H 752.945 1.77019 0.690242 0
M  V30 7859 H 751.095 2.33256 3.10683 0
M  V30 7860 H 752.767 4.37035 1.47643 0
M  V30 7861 H 751.01 4.1315 1.32248 0
M  V30 7862 H 751.681 4.7323 2.84178 0
M  V30 7863 H 754.157 2.81799 3.06151 0
M  V30 7864 H 753.033 3.37841 4.32614 0
M  V30 7865 H 753.294 1.65627 4.09903 0
M  V30 7866 N 752.353 -0.854086 1.3245 0
M  V30 7867 C 753.316 -1.94427 1.21371 0
M  V30 7868 C 754.316 -1.60219 0.136613 0
M  V30 7869 O 755.506 -1.69846 0.387057 0
M  V30 7870 C 752.638 -3.29698 0.866701 0
M  V30 7871 H 753.831 -2.05679 2.18257 0
M  V30 7872 H 751.384 -1.04434 1.1629 0
M  V30 7873 H 752.119 -3.24145 -0.100319 0
M  V30 7874 H 751.904 -3.55903 1.64545 0
M  V30 7875 H 753.394 -4.09599 0.813515 0
M  V30 7876 N 753.831 -1.1567 -1.07043 0
M  V30 7877 C 755.242 -0.942408 -1.61169 0
M  V30 7878 C 755.593 0.515537 -1.89306 0
M  V30 7879 O 754.718 1.38726 -1.66084 0
M  V30 7880 C 755.313 -1.70431 -2.92812 0
M  V30 7881 C 753.872 -1.53521 -3.43669 0
M  V30 7882 C 753.019 -1.7179 -2.17678 0
M  V30 7883 H 755.97 -1.3065 -0.9009 0
M  V30 7884 H 755.991 -1.17566 -3.61882 0
M  V30 7885 H 755.503 -2.76538 -2.72302 0
M  V30 7886 H 753.604 -0.498224 -3.69254 0
M  V30 7887 H 753.717 -2.31422 -4.19501 0
M  V30 7888 H 752.081 -1.14468 -2.27529 0
M  V30 7889 H 752.864 -2.79269 -1.99659 0
M  V30 7890 N 755.309 1.25446 -0.953992 0
M  V30 7891 C 756.725 1.4539 -0.658316 0
M  V30 7892 C 756.925 1.85607 0.784356 0
M  V30 7893 O 755.981 1.98568 1.55972 0
M  V30 7894 C 757.294 2.52643 -1.6307 0
M  V30 7895 C 758.842 2.66484 -1.64181 0
M  V30 7896 C 759.317 3.76921 -2.60182 0
M  V30 7897 N 760.808 3.84331 -2.58542 0
M  V30 7898 C 761.543 4.69271 -3.29503 0
M  V30 7899 N 761.039 5.58503 -4.09934 0
M  V30 7900 N 762.832 4.6323 -3.18393 0
M  V30 7901 H 754.983 0.976337 -1.8863 0
M  V30 7902 H 757.246 0.490343 -0.811337 0
M  V30 7903 H 756.952 2.29949 -2.66114 0
M  V30 7904 H 756.826 3.50547 -1.39271 0
M  V30 7905 H 759.213 2.88545 -0.618552 0
M  V30 7906 H 759.294 1.68982 -1.92038 0
M  V30 7907 H 758.938 3.55612 -3.62633 0
M  V30 7908 H 758.868 4.73906 -2.29609 0
M  V30 7909 H 761.359 3.20544 -2.0015 0
M  V30 7910 H 761.672 6.20241 -4.61 0
M  V30 7911 H 760.017 5.58214 -4.14032 0
M  V30 7912 H 763.208 3.92527 -2.5503 0
M  V30 7913 H 763.381 5.29204 -3.73961 0
M  V30 7914 N 756.787 0.722489 1.40064 0
M  V30 7915 C 758.064 0.191829 1.94657 0
M  V30 7916 C 758.444 -1.30389 1.66018 0
M  V30 7917 O 757.792 -2.06342 0.981588 0
M  V30 7918 C 758.002 0.511978 3.45224 0
M  V30 7919 C 759.35 0.454426 4.22161 0
M  V30 7920 O 760.374 0.448438 3.53366 0
M  V30 7921 O 759.233 0.437986 5.44742 0
M  V30 7922 H 756.327 0.0307821 0.826427 0
M  V30 7923 H 758.873 0.800493 1.49634 0
M  V30 7924 H 757.645 1.54622 3.59455 0
M  V30 7925 H 757.268 -0.126296 3.97399 0
M  V30 7926 N 758.265 -1.50454 0.469181 0
M  V30 7927 C 759.493 -2.06729 -0.0842134 0
M  V30 7928 C 759.908 -1.33326 -1.33677 0
M  V30 7929 O 759.265 -0.401977 -1.78018 0
M  V30 7930 C 759.316 -3.59557 -0.374253 0
M  V30 7931 O 759.037 -4.30192 0.828622 0
M  V30 7932 C 760.538 -4.32449 -0.974824 0
M  V30 7933 H 757.758 -0.670971 0.006231 0
M  V30 7934 H 760.302 -1.93645 0.657415 0
M  V30 7935 H 758.457 -3.7245 -1.06581 0
M  V30 7936 H 758.871 -5.21371 0.572066 0
M  V30 7937 H 760.345 -5.40361 -1.12755 0
M  V30 7938 H 760.822 -3.92819 -1.96442 0
M  V30 7939 H 761.428 -4.24082 -0.321703 0
M  V30 7940 N 759.743 -0.201713 -1.56304 0
M  V30 7941 C 760.971 0.440723 -2.02152 0
M  V30 7942 C 761.386 1.54735 -1.08179 0
M  V30 7943 O 760.743 1.82289 -0.0878196 0
M  V30 7944 C 760.794 0.990884 -3.47655 0
M  V30 7945 O 760.515 -0.0715937 -4.38041 0
M  V30 7946 C 762.016 1.70854 -4.09052 0
M  V30 7947 H 759.236 0.109987 -0.661924 0
M  V30 7948 H 761.78 -0.312358 -2.021 0
M  V30 7949 H 759.935 1.69432 -3.48384 0
M  V30 7950 H 760.349 0.338892 -5.23404 0
M  V30 7951 H 761.823 2.04572 -5.12693 0
M  V30 7952 H 762.3 2.61462 -3.52894 0
M  V30 7953 H 762.906 1.0508 -4.12114 0
M  V30 7954 N 761.222 1.57436 0.0718424 0
M  V30 7955 C 762.468 1.87525 0.772149 0
M  V30 7956 C 762.801 0.79399 1.77227 0
M  V30 7957 O 762.076 -0.195733 1.93513 0
M  V30 7958 C 762.359 3.28272 1.48018 0
M  V30 7959 C 762.212 4.47052 0.49647 0
M  V30 7960 C 763.531 3.67256 2.42509 0
M  V30 7961 H 760.65 0.682049 0.279245 0
M  V30 7962 H 763.292 1.89967 0.03534 0
M  V30 7963 H 761.442 3.26321 2.10824 0
M  V30 7964 H 763.114 4.61127 -0.126375 0
M  V30 7965 H 761.357 4.33392 -0.188205 0
M  V30 7966 H 762.028 5.42315 1.02949 0
M  V30 7967 H 764.504 3.70301 1.89781 0
M  V30 7968 H 763.38 4.66626 2.89053 0
M  V30 7969 H 763.641 2.97186 3.27312 0
M  V30 7970 N 762.7 -0.34323 1.53817 0
M  V30 7971 C 763.63 -1.42709 1.84814 0
M  V30 7972 C 764.611 -1.5488 0.703297 0
M  V30 7973 O 765.796 -1.69082 0.955237 0
M  V30 7974 C 762.926 -2.79756 2.05801 0
M  V30 7975 C 761.88 -2.82392 3.21619 0
M  V30 7976 C 761.206 -4.22326 3.2794 0
M  V30 7977 C 762.506 -2.479 4.59721 0
M  V30 7978 H 764.2 -1.17018 2.75585 0
M  V30 7979 H 761.746 -0.561485 1.32602 0
M  V30 7980 H 763.699 -3.55627 2.26069 0
M  V30 7981 H 762.423 -3.06883 1.11761 0
M  V30 7982 H 761.082 -2.08974 3.01207 0
M  V30 7983 H 760.73 -4.46564 2.31494 0
M  V30 7984 H 760.43 -4.25001 4.05768 0
M  V30 7985 H 761.954 -5.00039 3.50419 0
M  V30 7986 H 763.368 -3.13484 4.80001 0
M  V30 7987 H 761.765 -2.61857 5.39954 0
M  V30 7988 H 762.835 -1.43087 4.63308 0
M  V30 7989 N 764.178 -1.45556 -0.604258 0
M  V30 7990 C 765.424 -1.49968 -1.36519 0
M  V30 7991 C 765.757 -0.142236 -1.93678 0
M  V30 7992 O 765.032 0.843717 -1.75247 0
M  V30 7993 C 765.315 -2.58146 -2.51063 0
M  V30 7994 C 765.168 -4.03346 -1.99078 0
M  V30 7995 C 766.487 -2.62581 -3.53184 0
M  V30 7996 H 763.606 -0.545993 -0.495036 0
M  V30 7997 H 766.248 -1.77382 -0.680845 0
M  V30 7998 H 764.398 -2.34901 -3.09441 0
M  V30 7999 H 766.07 -4.37811 -1.45323 0
M  V30 8000 H 764.313 -4.13845 -1.30055 0
M  V30 8001 H 764.984 -4.74731 -2.81664 0
M  V30 8002 H 767.46 -2.83419 -3.04652 0
M  V30 8003 H 766.336 -3.40131 -4.30816 0
M  V30 8004 H 766.597 -1.67798 -4.09019 0
M  V30 8005 N 765.656 0.84705 -1.32902 0
M  V30 8006 C 766.881 1.63925 -1.27056 0
M  V30 8007 C 767.306 1.87443 0.157136 0
M  V30 8008 O 766.664 1.43266 1.11106 0
M  V30 8009 C 766.712 2.97134 -2.04313 0
M  V30 8010 O 765.816 3.88049 -1.39614 0
M  V30 8011 H 765.157 0.499477 -0.437514 0
M  V30 8012 H 767.687 1.05443 -1.75336 0
M  V30 8013 H 767.697 3.46896 -2.14772 0
M  V30 8014 H 766.372 2.79339 -3.08128 0
M  V30 8015 H 764.949 3.46525 -1.3775 0
M  V30 8016 N 767.134 1.16236 1.06428 0
M  V30 8017 C 768.545 0.950942 1.60667 0
M  V30 8018 C 768.896 -0.505491 1.89576 0
M  V30 8019 O 768.021 -1.37843 1.66818 0
M  V30 8020 C 768.616 1.71982 2.91904 0
M  V30 8021 C 767.175 1.55342 3.4285 0
M  V30 8022 C 766.322 1.72942 2.16763 0
M  V30 8023 H 769.273 1.31126 0.893959 0
M  V30 8024 H 769.294 1.19483 3.61253 0
M  V30 8025 H 768.806 2.77978 2.70831 0
M  V30 8026 H 766.907 0.5178 3.68985 0
M  V30 8027 H 767.02 2.33643 4.18267 0
M  V30 8028 H 765.384 1.15673 2.26918 0
M  V30 8029 H 766.167 2.80324 1.98175 0
M  V30 8030 N 768.612 -1.24939 0.960631 0
M  V30 8031 C 769.837 -1.9742 0.635608 0
M  V30 8032 C 770.262 -1.70857 -0.786737 0
M  V30 8033 O 769.62 -0.968063 -1.53291 0
M  V30 8034 C 769.668 -3.48987 0.907771 0
M  V30 8035 O 768.772 -4.12399 -0.0104053 0
M  V30 8036 H 768.113 -0.61871 0.241027 0
M  V30 8037 H 770.643 -1.58901 1.28886 0
M  V30 8038 H 770.653 -3.99334 0.836453 0
M  V30 8039 H 769.328 -3.6765 1.94439 0
M  V30 8040 H 767.905 -3.72727 0.113631 0
M  V30 8041 N 770.09 -0.729906 -1.39679 0
M  V30 8042 C 771.315 -0.284345 -2.05442 0
M  V30 8043 C 771.74 1.07056 -1.54663 0
M  V30 8044 O 771.098 1.67732 -0.688157 0
M  V30 8045 C 771.146 -0.290089 -3.59431 0
M  V30 8046 O 770.25 0.723978 -4.05995 0
M  V30 8047 H 769.591 -0.130311 -0.651088 0
M  V30 8048 H 772.121 -0.994403 -1.78809 0
M  V30 8049 H 772.131 -0.132712 -4.07784 0
M  V30 8050 H 770.806 -1.27877 -3.95753 0
M  V30 8051 H 769.383 0.533154 -3.69069 0
M  V30 8052 N 771.568 1.50203 -0.477153 0
M  V30 8053 C 772.817 2.01551 0.0774548 0
M  V30 8054 C 773.13 1.36359 1.40234 0
M  V30 8055 O 774.336 1.78898 2.04225 0
M  V30 8056 C 772.792 3.59406 0.188539 0
M  V30 8057 C 772.4 4.3356 -1.12828 0
M  V30 8058 C 774.144 4.18776 0.694782 0
M  V30 8059 C 772.051 5.83213 -0.98066 0
M  V30 8060 H 770.981 0.75329 0.0327212 0
M  V30 8061 H 773.632 1.72959 -0.612969 0
M  V30 8062 H 772.014 3.84611 0.942881 0
M  V30 8063 H 773.188 4.20074 -1.89405 0
M  V30 8064 H 771.503 3.85827 -1.5661 0
M  V30 8065 H 774.1 5.28338 0.822356 0
M  V30 8066 H 774.443 3.80557 1.68766 0
M  V30 8067 H 774.976 3.978 -0.00234519 0
M  V30 8068 H 771.715 6.25914 -1.94709 0
M  V30 8069 H 771.235 5.99256 -0.255375 0
M  V30 8070 H 772.914 6.4373 -0.649717 0
M  V30 8071 N 773.046 0.209999 1.56195 0
M  V30 8072 C 773.976 -0.699746 2.22769 0
M  V30 8073 C 774.957 -1.20993 1.1956 0
M  V30 8074 O 776.142 -1.25605 1.48112 0
M  V30 8075 C 773.272 -1.91302 2.89863 0
M  V30 8076 C 772.226 -1.53715 3.99444 0
M  V30 8077 C 771.552 -2.82826 4.53777 0
M  V30 8078 C 772.852 -0.735836 5.17091 0
M  V30 8079 H 774.546 -0.144716 2.9905 0
M  V30 8080 H 772.092 -0.0681645 1.43839 0
M  V30 8081 H 774.045 -2.5548 3.35124 0
M  V30 8082 H 772.769 -2.49283 2.11011 0
M  V30 8083 H 771.428 -0.918892 3.54897 0
M  V30 8084 H 771.076 -3.38927 3.71669 0
M  V30 8085 H 770.776 -2.58415 5.27727 0
M  V30 8086 H 772.3 -3.47966 5.01749 0
M  V30 8087 H 773.714 -1.28105 5.58804 0
M  V30 8088 H 772.111 -0.589272 5.972 0
M  V30 8089 H 773.181 0.260004 4.84202 0
M  V30 8090 N 774.524 -1.57472 -0.0634922 0
M  V30 8091 C 775.434 -2.07621 -1.09227 0
M  V30 8092 C 776.45 -1.00746 -1.41867 0
M  V30 8093 O 777.626 -1.32269 -1.51878 0
M  V30 8094 C 774.691 -2.51707 -2.38421 0
M  V30 8095 C 773.752 -3.72917 -2.12676 0
M  V30 8096 C 772.985 -4.14891 -3.3571 0
M  V30 8097 O 773.208 -3.56663 -4.45137 0
M  V30 8098 O 772.142 -5.07616 -3.23434 0
M  V30 8099 H 775.968 -2.95612 -0.696205 0
M  V30 8100 H 773.553 -1.46787 -0.27819 0
M  V30 8101 H 775.435 -2.80547 -3.14438 0
M  V30 8102 H 774.11 -1.66842 -2.77391 0
M  V30 8103 H 773.017 -3.49148 -1.34337 0
M  V30 8104 H 774.35 -4.5866 -1.78583 0
M  V30 8105 N 776.003 0.335068 -1.53997 0
M  V30 8106 C 776.913 1.43511 -1.85585 0
M  V30 8107 C 777.929 1.57162 -0.746726 0
M  V30 8108 O 779.105 1.72477 -1.03988 0
M  V30 8109 C 776.17 2.78386 -2.06646 0
M  V30 8110 C 775.231 2.74007 -3.30483 0
M  V30 8111 C 774.464 4.02449 -3.50529 0
M  V30 8112 O 774.687 5.00147 -2.74242 0
M  V30 8113 O 773.621 4.06405 -4.4398 0
M  V30 8114 H 777.447 1.19731 -2.79102 0
M  V30 8115 H 775.032 0.528033 -1.39758 0
M  V30 8116 H 776.914 3.58247 -2.21894 0
M  V30 8117 H 775.589 3.0208 -1.16317 0
M  V30 8118 H 774.496 1.92736 -3.2063 0
M  V30 8119 H 775.829 2.55267 -4.20832 0
M  V30 8120 N 777.481 1.45874 0.596531 0
M  V30 8121 C 778.729 1.5017 1.35253 0
M  V30 8122 C 779.05 0.149246 1.94428 0
M  V30 8123 O 778.32 -0.82268 1.77789 0
M  V30 8124 H 776.9 0.553052 0.502138 0
M  V30 8125 H 779.562 1.81908 0.699671 0
M  V30 8126 H 778.658 2.24671 2.16632 0
M  V30 8127 N 778.959 -0.83999 1.33349 0
M  V30 8128 C 780.184 -1.63249 1.27924 0
M  V30 8129 C 780.609 -1.87523 -0.147193 0
M  V30 8130 O 779.967 -1.43853 -1.10345 0
M  V30 8131 C 780.015 -2.96046 2.05886 0
M  V30 8132 O 779.119 -3.87303 1.4167 0
M  V30 8133 H 778.46 -0.49715 0.440157 0
M  V30 8134 H 780.99 -1.04512 1.75893 0
M  V30 8135 H 781 -3.45752 2.16609 0
M  V30 8136 H 779.675 -2.77701 3.09605 0
M  V30 8137 H 778.252 -3.45789 1.39585 0
M  V30 8138 N 780.437 -1.16799 -1.0581 0
M  V30 8139 C 781.662 -0.977402 -1.82925 0
M  V30 8140 C 782.087 0.469514 -1.82146 0
M  V30 8141 O 781.445 1.33576 -1.22585 0
M  V30 8142 C 781.493 -1.51543 -3.27211 0
M  V30 8143 O 780.597 -0.725021 -4.05977 0
M  V30 8144 H 779.938 -0.347474 -0.565825 0
M  V30 8145 H 782.468 -1.55151 -1.33376 0
M  V30 8146 H 782.478 -1.53502 -3.78023 0
M  V30 8147 H 781.153 -2.56872 -3.27093 0
M  V30 8148 H 779.73 -0.77634 -3.64729 0
M  V30 8149 N 781.915 1.24427 -0.967243 0
M  V30 8150 C 783.161 1.92772 -0.629812 0
M  V30 8151 C 783.494 1.75436 0.832827 0
M  V30 8152 O 782.769 1.10716 1.59913 0
M  V30 8153 C 783.052 3.45798 -1.00477 0
M  V30 8154 C 782.905 3.72304 -2.52407 0
M  V30 8155 C 784.224 4.36787 -0.538999 0
M  V30 8156 H 781.343 0.700099 -0.230282 0
M  V30 8157 H 783.985 1.46805 -1.20616 0
M  V30 8158 H 782.135 3.8508 -0.514336 0
M  V30 8159 H 783.807 3.42584 -3.08924 0
M  V30 8160 H 782.05 3.17472 -2.95625 0
M  V30 8161 H 782.721 4.7937 -2.73693 0
M  V30 8162 H 785.197 4.04877 -0.959874 0
M  V30 8163 H 784.073 5.4259 -0.829926 0
M  V30 8164 H 784.334 4.38527 0.560923 0
M  V30 8165 N 783.393 0.737304 1.3929 0
M  V30 8166 C 784.341 0.0879867 2.32434 0
M  V30 8167 C 785.335 -0.723324 1.53181 0
M  V30 8168 O 786.541 -0.624251 1.68829 0
M  V30 8169 H 782.916 0.00965277 0.751938 0
M  V30 8170 H 784.887 0.889915 2.84821 0
M  V30 8171 C 783.636 -0.803384 3.38291 0
M  V30 8172 H 782.959 -0.18849 3.99355 0
M  V30 8173 H 784.399 -1.22528 4.0591 0
M  V30 8174 C 782.858 -1.93872 2.75527 0
M  V30 8175 O 783.388 -3.03154 2.63553 0
M  V30 8176 N 781.594 -1.72883 2.3358 0
M  V30 8177 H 781.141 -0.840005 2.43519 0
M  V30 8178 H 781.099 -2.49021 1.91927 0
M  V30 8179 N 784.871 -1.49948 0.485112 0
M  V30 8180 C 785.804 -2.25531 -0.348027 0
M  V30 8181 C 786.782 -1.29433 -0.984172 0
M  V30 8182 O 787.966 -1.58687 -1.01738 0
M  V30 8183 C 785.093 -3.04225 -1.48878 0
M  V30 8184 C 784.139 -4.15355 -0.968616 0
M  V30 8185 S 784.972 -5.35347 0.127934 0
M  V30 8186 C 786.128 -6.17593 -1.01637 0
M  V30 8187 H 786.361 -2.95847 0.293529 0
M  V30 8188 H 783.894 -1.52018 0.27018 0
M  V30 8189 H 785.852 -3.50153 -2.14251 0
M  V30 8190 H 784.513 -2.33407 -2.1019 0
M  V30 8191 H 783.706 -4.69873 -1.82305 0
M  V30 8192 H 783.308 -3.71936 -0.392377 0
M  V30 8193 H 785.6 -6.49576 -1.92503 0
M  V30 8194 H 786.543 -7.0626 -0.510149 0
M  V30 8195 H 786.951 -5.49877 -1.27653 0
M  V30 8196 N 786.349 -0.21828 -1.56081 0
M  V30 8197 C 787.577 0.419258 -2.02608 0
M  V30 8198 C 787.992 1.53578 -1.09814 0
M  V30 8199 O 787.349 1.82185 -0.107149 0
M  V30 8200 C 787.4 0.953955 -3.48686 0
M  V30 8201 O 787.121 -0.11805 -4.37941 0
M  V30 8202 C 788.622 1.66506 -4.10841 0
M  V30 8203 H 785.842 0.10296 -0.663054 0
M  V30 8204 H 788.386 -0.333776 -2.01758 0
M  V30 8205 H 786.541 1.65727 -3.50162 0
M  V30 8206 H 786.955 0.283359 -5.23734 0
M  V30 8207 H 788.429 1.99123 -5.14834 0
M  V30 8208 H 788.906 2.57705 -3.55647 0
M  V30 8209 H 789.512 1.00703 -4.13206 0
M  V30 8210 N 787.827 1.57504 0.0551401 0
M  V30 8211 C 789.067 1.89895 0.756252 0
M  V30 8212 C 789.431 0.813983 1.73892 0
M  V30 8213 O 790.632 1.02145 2.48636 0
M  V30 8214 C 788.903 3.27494 1.43116 0
M  V30 8215 S 790.462 3.81669 2.16504 0
M  V30 8216 H 787.28 0.665173 0.251129 0
M  V30 8217 H 789.882 1.95496 0.0117193 0
M  V30 8218 H 788.586 4.04345 0.702391 0
M  V30 8219 H 788.117 3.25132 2.21479 0
M  V30 8220 H 790.132 3.58295 3.43277 0
M  V30 8221 N 789.305 -0.326896 1.54172 0
M  V30 8222 C 790.235 -1.40741 1.86317 0
M  V30 8223 C 791.216 -1.54125 0.719684 0
M  V30 8224 O 792.401 -1.6806 0.973117 0
M  V30 8225 C 789.531 -2.77557 2.08757 0
M  V30 8226 C 788.485 -2.78965 3.24596 0
M  V30 8227 C 787.811 -4.18824 3.32401 0
M  V30 8228 C 789.111 -2.4301 4.62324 0
M  V30 8229 H 790.805 -1.14088 2.76811 0
M  V30 8230 H 788.351 -0.547389 1.3319 0
M  V30 8231 H 790.304 -3.53209 2.29829 0
M  V30 8232 H 789.028 -3.0568 1.15009 0
M  V30 8233 H 787.687 -2.05767 3.03406 0
M  V30 8234 H 787.335 -4.44083 2.36218 0
M  V30 8235 H 787.035 -4.20673 4.10253 0
M  V30 8236 H 788.559 -4.96294 3.55703 0
M  V30 8237 H 789.973 -3.08375 4.83299 0
M  V30 8238 H 788.37 -2.56116 5.42701 0
M  V30 8239 H 789.44 -1.38165 4.64799 0
M  V30 8240 N 790.784 -1.46188 -0.588786 0
M  V30 8241 C 792.009 -1.5498 -1.37826 0
M  V30 8242 C 792.434 -0.189498 -1.87143 0
M  V30 8243 O 791.792 0.829293 -1.61222 0
M  V30 8244 C 791.84 -2.55369 -2.54596 0
M  V30 8245 O 790.944 -2.08452 -3.55839 0
M  V30 8246 H 790.285 -0.521741 -0.41071 0
M  V30 8247 H 792.815 -1.91708 -0.714779 0
M  V30 8248 H 792.825 -2.74782 -3.01594 0
M  V30 8249 H 791.5 -3.54155 -2.18052 0
M  V30 8250 H 790.077 -1.98999 -3.15363 0
M  V30 8251 N 792.262 0.832906 -1.33792 0
M  V30 8252 C 793.194 1.95042 -1.2038 0
M  V30 8253 C 794.207 1.62253 -0.133299 0
M  V30 8254 O 795.396 1.74315 -0.384261 0
M  V30 8255 C 792.496 3.287 -0.825215 0
M  V30 8256 C 791.669 3.89581 -1.98861 0
M  V30 8257 C 790.728 5.01602 -1.59003 0
M  V30 8258 O 789.754 5.20431 -2.30522 0
M  V30 8259 N 790.956 5.78356 -0.498446 0
M  V30 8260 H 793.721 2.07083 -2.16649 0
M  V30 8261 H 791.282 1.00896 -1.26616 0
M  V30 8262 H 793.274 4.01074 -0.540559 0
M  V30 8263 H 791.844 3.12565 0.0469796 0
M  V30 8264 H 791.064 3.09723 -2.43856 0
M  V30 8265 H 792.352 4.26989 -2.76691 0
M  V30 8266 H 791.75 5.65618 0.0963297 0
M  V30 8267 H 790.307 6.51226 -0.273485 0
M  V30 8268 N 793.74 1.17359 1.05189 0
M  V30 8269 C 794.988 0.960087 1.77839 0
M  V30 8270 C 795.309 -0.512554 1.88143 0
M  V30 8271 O 794.579 -1.3721 1.39822 0
M  V30 8272 H 793.159 0.352234 0.658741 0
M  V30 8273 H 795.821 1.47834 1.27008 0
M  V30 8274 H 794.917 1.38843 2.79516 0
M  V30 8275 N 795.218 -1.23913 0.973828 0
M  V30 8276 C 796.465 -1.92151 0.639079 0
M  V30 8277 C 796.793 -1.76064 -0.826545 0
M  V30 8278 O 796.048 -1.11126 -1.61088 0
M  V30 8279 C 796.347 -3.4406 0.967356 0
M  V30 8280 C 796.013 -3.80321 2.42212 0
M  V30 8281 C 794.675 -3.8993 2.81971 0
M  V30 8282 C 797.027 -3.97935 3.36596 0
M  V30 8283 C 794.355 -4.14575 4.15144 0
M  V30 8284 C 796.707 -4.24079 4.69404 0
M  V30 8285 C 795.371 -4.31908 5.08932 0
M  V30 8286 H 794.641 -0.70313 0.233856 0
M  V30 8287 H 797.288 -1.47072 1.22646 0
M  V30 8288 H 795.593 -3.90667 0.297807 0
M  V30 8289 H 797.29 -3.95077 0.686654 0
M  V30 8290 H 793.88 -3.73411 2.10385 0
M  V30 8291 H 798.064 -3.89908 3.07059 0
M  V30 8292 H 793.32 -4.18858 4.45385 0
M  V30 8293 H 797.494 -4.36652 5.42502 0
M  V30 8294 H 795.121 -4.50758 6.12145 0
M  V30 8295 N 796.696 -0.74468 -1.38897 0
M  V30 8296 C 798.107 -0.36568 -1.83084 0
M  V30 8297 C 798.458 1.10436 -1.62168 0
M  V30 8298 O 797.583 1.85281 -1.11804 0
M  V30 8299 C 798.178 -0.656946 -3.3237 0
M  V30 8300 C 796.737 -0.331329 -3.74939 0
M  V30 8301 C 795.884 -0.914661 -2.61781 0
M  V30 8302 H 798.835 -0.941551 -1.27752 0
M  V30 8303 H 798.856 0.0679546 -3.80439 0
M  V30 8304 H 798.368 -1.72693 -3.47561 0
M  V30 8305 H 796.469 0.732426 -3.6533 0
M  V30 8306 H 796.582 -0.820655 -4.72019 0
M  V30 8307 H 794.946 -0.34063 -2.52412 0
M  V30 8308 H 795.729 -1.98949 -2.79775 0
M  V30 8309 N 798.174 1.49689 -0.493057 0
M  V30 8310 C 799.137 2.27502 0.278485 0
M  V30 8311 C 800.137 1.33184 0.901037 0
M  V30 8312 O 801.327 1.56415 0.766801 0
M  V30 8313 C 798.459 3.10881 1.39878 0
M  V30 8314 H 799.652 2.97163 -0.404219 0
M  V30 8315 H 797.205 1.54324 -0.247774 0
M  V30 8316 H 797.94 2.45767 2.11587 0
M  V30 8317 H 797.725 3.80219 0.957924 0
M  V30 8318 H 799.215 3.69673 1.94247 0
M  V30 8319 N 799.652 0.226554 1.55963 0
M  V30 8320 C 801.063 -0.280381 1.84583 0
M  V30 8321 C 801.414 -1.59105 1.14804 0
M  V30 8322 O 800.539 -2.12297 0.419414 0
M  V30 8323 C 801.134 -0.515499 3.34855 0
M  V30 8324 C 799.693 -0.966733 3.63774 0
M  V30 8325 C 798.84 -0.0325753 2.77281 0
M  V30 8326 H 801.791 0.449626 1.52197 0
M  V30 8327 H 801.812 -1.36085 3.55332 0
M  V30 8328 H 801.324 0.438594 3.85614 0
M  V30 8329 H 799.425 -1.93401 3.18476 0
M  V30 8330 H 799.538 -0.837679 4.7172 0
M  V30 8331 H 797.902 -0.540279 2.48904 0
M  V30 8332 H 798.685 0.916524 3.30839 0
M  V30 8333 N 801.13 -1.57531 -0.0467866 0
M  V30 8334 C 802.077 -2.05387 -1.05285 0
M  V30 8335 C 803.047 -0.939385 -1.36985 0
M  V30 8336 O 804.232 -1.20877 -1.47626 0
M  V30 8337 C 801.372 -2.52343 -2.35408 0
M  V30 8338 C 800.485 -3.77512 -2.10022 0
M  V30 8339 C 799.62 -4.1315 -3.33887 0
M  V30 8340 C 798.659 -5.31286 -3.03976 0
M  V30 8341 N 797.796 -5.62441 -4.20243 0
M  V30 8342 H 802.636 -2.91095 -0.637788 0
M  V30 8343 H 800.173 -1.43939 -0.303322 0
M  V30 8344 H 802.131 -2.77628 -3.11413 0
M  V30 8345 H 800.761 -1.69577 -2.7467 0
M  V30 8346 H 799.813 -3.59417 -1.24594 0
M  V30 8347 H 801.125 -4.63644 -1.83945 0
M  V30 8348 H 800.279 -4.39469 -4.18273 0
M  V30 8349 H 799.018 -3.25634 -3.63062 0
M  V30 8350 H 798.023 -5.04738 -2.17991 0
M  V30 8351 H 799.248 -6.20441 -2.76098 0
M  V30 8352 H 797.194 -4.77885 -4.49402 0
M  V30 8353 H 797.111 -6.43046 -3.97528 0
M  V30 8354 H 798.379 -5.93327 -5.05553 0
M  V30 8355 N 802.608 0.318715 -1.54344 0
M  V30 8356 C 803.857 1.05363 -1.71993 0
M  V30 8357 C 804.17 1.89018 -0.503155 0
M  V30 8358 O 805.376 2.65639 -0.561085 0
M  V30 8359 C 803.832 1.92281 -3.0423 0
M  V30 8360 C 803.44 1.13715 -4.33328 0
M  V30 8361 C 805.184 2.65479 -3.31242 0
M  V30 8362 C 803.091 1.99806 -5.56625 0
M  V30 8363 H 802.021 0.397081 -0.64097 0
M  V30 8364 H 804.672 0.311598 -1.80835 0
M  V30 8365 H 803.054 2.70402 -2.89307 0
M  V30 8366 H 804.228 0.403305 -4.59032 0
M  V30 8367 H 802.543 0.521769 -4.13118 0
M  V30 8368 H 805.14 3.30209 -4.20555 0
M  V30 8369 H 805.483 3.33374 -2.49334 0
M  V30 8370 H 806.016 1.94417 -3.47054 0
M  V30 8371 H 802.755 1.36411 -6.41149 0
M  V30 8372 H 802.275 2.70911 -5.35133 0
M  V30 8373 H 803.954 2.58277 -5.93213 0
M  V30 8374 N 804.086 1.46499 0.581025 0
M  V30 8375 C 805.016 1.60052 1.70017 0
M  V30 8376 C 805.997 0.450788 1.64018 0
M  V30 8377 O 807.182 0.677237 1.82009 0
M  V30 8378 C 804.312 1.5921 3.08658 0
M  V30 8379 C 803.266 2.73169 3.29488 0
M  V30 8380 C 802.592 2.57389 4.68674 0
M  V30 8381 C 803.892 4.14978 3.1716 0
M  V30 8382 H 805.586 2.53735 1.5893 0
M  V30 8383 H 803.132 1.22113 0.763173 0
M  V30 8384 H 805.085 1.67285 3.86773 0
M  V30 8385 H 803.809 0.620718 3.20647 0
M  V30 8386 H 802.468 2.64566 2.53773 0
M  V30 8387 H 802.116 1.58331 4.77431 0
M  V30 8388 H 801.816 3.33826 4.83564 0
M  V30 8389 H 803.34 2.67358 5.48956 0
M  V30 8390 H 804.754 4.24684 3.85119 0
M  V30 8391 H 803.151 4.92016 3.4357 0
M  V30 8392 H 804.221 4.35016 2.14218 0
M  V30 8393 N 805.565 -0.825799 1.34232 0
M  V30 8394 C 806.811 -1.58379 1.27623 0
M  V30 8395 C 807.166 -1.91789 -0.15323 0
M  V30 8396 O 806.459 -1.56965 -1.09875 0
M  V30 8397 C 806.653 -2.89362 2.09772 0
M  V30 8398 C 806.482 -2.68747 3.60562 0
M  V30 8399 C 805.252 -2.6563 4.29848 0
M  V30 8400 C 807.45 -2.40463 4.54623 0
M  V30 8401 N 805.432 -2.3653 5.66504 0
M  V30 8402 C 806.803 -2.21032 5.79262 0
M  V30 8403 C 808.858 -2.26168 4.43568 0
M  V30 8404 C 807.561 -1.88754 6.94093 0
M  V30 8405 C 809.587 -1.95284 5.58228 0
M  V30 8406 C 808.949 -1.76674 6.81884 0
M  V30 8407 H 805.048 -0.582062 0.522234 0
M  V30 8408 H 807.632 -0.968308 1.68914 0
M  V30 8409 H 805.803 -3.48838 1.70783 0
M  V30 8410 H 807.535 -3.54716 1.94831 0
M  V30 8411 H 804.29 -2.79601 3.82257 0
M  V30 8412 H 804.714 -2.24827 6.38578 0
M  V30 8413 H 809.356 -2.39262 3.48588 0
M  V30 8414 H 807.074 -1.74397 7.89057 0
M  V30 8415 H 810.66 -1.84959 5.51617 0
M  V30 8416 H 809.54 -1.53123 7.69105 0
M  V30 8417 N 807.043 -1.17915 -1.04565 0
M  V30 8418 C 808.268 -0.996749 -1.81878 0
M  V30 8419 C 808.693 0.450169 -1.82634 0
M  V30 8420 O 808.051 1.32268 -1.23995 0
M  V30 8421 C 808.099 -1.55005 -3.25585 0
M  V30 8422 O 807.203 -0.76804 -4.05185 0
M  V30 8423 H 806.544 -0.353456 -0.562108 0
M  V30 8424 H 809.074 -1.56557 -1.31723 0
M  V30 8425 H 809.084 -1.57503 -3.76373 0
M  V30 8426 H 807.759 -2.60327 -3.2435 0
M  V30 8427 H 806.336 -0.81498 -3.63885 0
M  V30 8428 N 808.521 1.23394 -0.980386 0
M  V30 8429 C 809.937 1.43961 -0.689008 0
M  V30 8430 C 810.137 1.87229 0.744809 0
M  V30 8431 O 809.193 2.01831 1.51725 0
M  V30 8432 C 810.506 2.49128 -1.68392 0
M  V30 8433 C 812.054 2.62941 -1.69796 0
M  V30 8434 C 812.529 3.71317 -2.68118 0
M  V30 8435 N 814.02 3.7876 -2.66636 0
M  V30 8436 C 814.755 4.62176 -3.39383 0
M  V30 8437 N 814.251 5.49682 -4.21688 0
M  V30 8438 N 816.044 4.56372 -3.28147 0
M  V30 8439 H 808.195 0.936106 -1.90659 0
M  V30 8440 H 810.458 0.473023 -0.821555 0
M  V30 8441 H 810.164 2.24252 -2.70931 0
M  V30 8442 H 810.038 3.47514 -1.46675 0
M  V30 8443 H 812.425 2.87168 -0.679617 0
M  V30 8444 H 812.506 1.64871 -1.95579 0
M  V30 8445 H 812.15 3.4784 -3.70095 0
M  V30 8446 H 812.08 4.68929 -2.3961 0
M  V30 8447 H 814.571 3.16226 -2.06904 0
M  V30 8448 H 814.884 6.10323 -4.74053 0
M  V30 8449 H 813.229 5.49306 -4.25779 0
M  V30 8450 H 816.42 3.87029 -2.63299 0
M  V30 8451 H 816.593 5.21153 -3.85102 0
M  V30 8452 N 809.999 0.752036 1.385 0
M  V30 8453 C 810.931 0.0835089 2.29048 0
M  V30 8454 C 811.944 -0.685402 1.47669 0
M  V30 8455 O 813.133 -0.526748 1.70551 0
M  V30 8456 C 810.233 -0.905772 3.26572 0
M  V30 8457 C 809.406 -0.194828 4.36966 0
M  V30 8458 C 808.465 -1.09464 5.14688 0
M  V30 8459 O 807.491 -0.565743 5.66381 0
M  V30 8460 N 808.693 -2.42287 5.2752 0
M  V30 8461 H 811.458 0.861142 2.87062 0
M  V30 8462 H 809.019 0.602689 1.50264 0
M  V30 8463 H 811.011 -1.51072 3.75446 0
M  V30 8464 H 809.581 -1.58449 2.69467 0
M  V30 8465 H 808.801 0.590812 3.89747 0
M  V30 8466 H 810.089 0.297189 5.07931 0
M  V30 8467 H 809.487 -2.87715 4.8707 0
M  V30 8468 H 808.044 -2.97836 5.79773 0
M  V30 8469 N 811.477 -1.49425 0.500989 0
M  V30 8470 C 812.407 -2.31971 -0.266775 0
M  V30 8471 C 813.388 -1.40245 -0.962563 0
M  V30 8472 O 814.573 -1.69154 -0.953968 0
M  V30 8473 C 811.703 -3.20757 -1.33163 0
M  V30 8474 C 810.657 -4.21275 -0.75572 0
M  V30 8475 C 809.983 -4.98997 -1.92109 0
M  V30 8476 C 811.283 -5.21686 0.253213 0
M  V30 8477 H 812.977 -2.96408 0.422237 0
M  V30 8478 H 810.523 -1.4254 0.204505 0
M  V30 8479 H 812.476 -3.77315 -1.87646 0
M  V30 8480 H 811.2 -2.54263 -2.04983 0
M  V30 8481 H 809.859 -3.65861 -0.232637 0
M  V30 8482 H 809.507 -4.28951 -2.62698 0
M  V30 8483 H 809.207 -5.67011 -1.54182 0
M  V30 8484 H 810.731 -5.584 -2.47026 0
M  V30 8485 H 812.145 -5.72939 -0.203483 0
M  V30 8486 H 810.542 -5.9759 0.548322 0
M  V30 8487 H 811.612 -4.70596 1.16909 0
M  V30 8488 N 812.955 -0.234822 -1.55841 0
M  V30 8489 C 814.366 0.270588 -1.84729 0
M  V30 8490 C 814.717 1.58494 -1.15646 0
M  V30 8491 O 813.842 2.12071 -0.430667 0
M  V30 8492 C 814.437 0.497733 -3.35124 0
M  V30 8493 C 812.996 0.947428 -3.64281 0
M  V30 8494 C 812.143 0.01787 -2.77294 0
M  V30 8495 H 815.094 -0.457691 -1.51957 0
M  V30 8496 H 815.115 1.34199 -3.56049 0
M  V30 8497 H 814.627 -0.459037 -3.85376 0
M  V30 8498 H 812.728 1.91709 -3.19497 0
M  V30 8499 H 812.841 0.812651 -4.72158 0
M  V30 8500 H 811.205 0.527071 -2.49187 0
M  V30 8501 H 811.988 -0.934056 -3.30349 0
M  V30 8502 N 814.433 1.57553 0.0384317 0
M  V30 8503 C 815.381 2.07021 1.06043 0
M  V30 8504 C 816.375 0.982078 1.38028 0
M  V30 8505 O 817.581 1.16702 1.37042 0
M  V30 8506 H 813.956 0.660522 0.359464 0
M  V30 8507 H 815.927 2.91944 0.617339 0
M  V30 8508 C 814.676 2.55734 2.35574 0
M  V30 8509 H 813.999 3.39074 2.11822 0
M  V30 8510 H 815.439 2.94066 3.05452 0
M  V30 8511 C 813.898 1.45449 3.03885 0
M  V30 8512 O 814.428 0.815402 3.93337 0
M  V30 8513 N 812.634 1.19134 2.65058 0
M  V30 8514 H 812.181 1.71288 1.92401 0
M  V30 8515 H 812.139 0.455554 3.11082 0
M  V30 8516 N 815.911 -0.310526 1.54511 0
M  V30 8517 C 817.159 -1.04484 1.72996 0
M  V30 8518 C 817.48 -1.88118 0.513479 0
M  V30 8519 O 816.75 -1.90119 -0.472384 0
M  V30 8520 H 815.33 -0.388747 0.637875 0
M  V30 8521 H 817.992 -0.343811 1.91844 0
M  V30 8522 H 817.088 -1.70341 2.61515 0
M  V30 8523 N 817.389 -1.46805 -0.573248 0
M  V30 8524 C 818.299 -1.60687 -1.70929 0
M  V30 8525 C 819.315 -0.490084 -1.66956 0
M  V30 8526 O 820.491 -0.755482 -1.86693 0
M  V30 8527 C 817.556 -1.60259 -3.07438 0
M  V30 8528 C 816.617 -2.83242 -3.22603 0
M  V30 8529 C 815.85 -2.82825 -4.52599 0
M  V30 8530 O 816.073 -1.92113 -5.37074 0
M  V30 8531 O 815.007 -3.74489 -4.71213 0
M  V30 8532 H 818.833 -2.56782 -1.62163 0
M  V30 8533 H 816.418 -1.29706 -0.741399 0
M  V30 8534 H 818.3 -1.6275 -3.88704 0
M  V30 8535 H 816.975 -0.673268 -3.16621 0
M  V30 8536 H 815.882 -2.86302 -2.40794 0
M  V30 8537 H 817.215 -3.75415 -3.18315 0
M  V30 8538 N 818.867 0.818669 -1.34668 0
M  V30 8539 C 819.797 1.94468 -1.29245 0
M  V30 8540 C 820.778 1.69257 -0.169101 0
M  V30 8541 O 821.963 1.90794 -0.362143 0
M  V30 8542 C 819.093 3.31001 -1.05145 0
M  V30 8543 C 818.047 3.70663 -2.13992 0
M  V30 8544 C 817.373 5.05226 -1.75074 0
M  V30 8545 C 818.673 3.82312 -3.55858 0
M  V30 8546 H 820.367 1.99263 -2.2346 0
M  V30 8547 H 817.913 0.957304 -1.07572 0
M  V30 8548 H 819.866 4.09364 -0.999949 0
M  V30 8549 H 818.59 3.26517 -0.0737312 0
M  V30 8550 H 817.249 2.94578 -2.18219 0
M  V30 8551 H 816.897 4.97233 -0.759518 0
M  V30 8552 H 816.597 5.32734 -2.47928 0
M  V30 8553 H 818.121 5.86042 -1.71427 0
M  V30 8554 H 819.535 4.50935 -3.5402 0
M  V30 8555 H 817.932 4.21278 -4.2737 0
M  V30 8556 H 819.002 2.84193 -3.9289 0
M  V30 8557 N 820.346 1.18468 1.03938 0
M  V30 8558 C 821.278 0.870615 2.12021 0
M  V30 8559 C 822.291 -0.132318 1.62261 0
M  V30 8560 O 823.48 0.0956901 1.78243 0
M  V30 8561 C 820.58 0.279727 3.37744 0
M  V30 8562 C 819.753 1.32863 4.16733 0
M  V30 8563 C 818.812 0.753204 5.20781 0
M  V30 8564 O 817.838 1.42825 5.5099 0
M  V30 8565 N 819.04 -0.448664 5.78764 0
M  V30 8566 H 821.805 1.80091 2.39556 0
M  V30 8567 H 819.366 1.08524 1.20142 0
M  V30 8568 H 821.358 -0.118829 4.04526 0
M  V30 8569 H 819.928 -0.554621 3.07641 0
M  V30 8570 H 819.148 1.90245 3.45254 0
M  V30 8571 H 820.436 2.03574 4.66299 0
M  V30 8572 H 819.834 -1.01481 5.56523 0
M  V30 8573 H 818.391 -0.789125 6.47005 0
M  V30 8574 N 821.824 -1.22873 0.986916 0
M  V30 8575 C 823.235 -1.73264 0.695438 0
M  V30 8576 C 823.586 -1.79679 -0.788023 0
M  V30 8577 O 822.711 -1.43905 -1.61618 0
M  V30 8578 C 823.306 -3.14671 1.2557 0
M  V30 8579 C 821.865 -3.62492 1.01373 0
M  V30 8580 C 821.012 -2.40551 1.37951 0
M  V30 8581 H 823.963 -1.08304 1.15999 0
M  V30 8582 H 823.984 -3.75226 0.631322 0
M  V30 8583 H 823.496 -3.0997 2.33539 0
M  V30 8584 H 821.597 -3.72567 -0.0495917 0
M  V30 8585 H 821.71 -4.48944 1.67289 0
M  V30 8586 H 820.074 -2.41875 0.798033 0
M  V30 8587 H 820.857 -2.38516 2.46911 0
M  V30 8588 N 823.302 -0.75937 -1.38099 0
M  V30 8589 C 824.232 -0.151077 -2.33011 0
M  V30 8590 C 825.213 0.697099 -1.5516 0
M  V30 8591 O 826.398 0.637101 -1.83452 0
M  V30 8592 C 823.528 0.738423 -3.39359 0
M  V30 8593 C 822.482 -0.0074741 -4.27999 0
M  V30 8594 C 821.808 1.00066 -5.25253 0
M  V30 8595 C 823.108 -1.17926 -5.08813 0
M  V30 8596 H 824.802 -0.943933 -2.84131 0
M  V30 8597 H 822.348 -0.455362 -1.36611 0
M  V30 8598 H 824.301 1.17369 -4.04725 0
M  V30 8599 H 823.025 1.56366 -2.86735 0
M  V30 8600 H 821.684 -0.423379 -3.64147 0
M  V30 8601 H 821.332 1.82012 -4.68914 0
M  V30 8602 H 821.032 0.506199 -5.85416 0
M  V30 8603 H 822.556 1.43512 -5.93495 0
M  V30 8604 H 823.97 -0.821262 -5.67387 0
M  V30 8605 H 822.367 -1.60497 -5.78239 0
M  V30 8606 H 823.437 -1.98938 -4.42212 0
M  V30 8607 N 824.78 1.49157 -0.508906 0
M  V30 8608 C 826.005 2.07376 0.0315182 0
M  V30 8609 C 826.43 1.36575 1.2934 0
M  V30 8610 O 825.788 0.424963 1.76249 0
M  V30 8611 C 825.836 3.59661 0.260118 0
M  V30 8612 O 824.94 3.90255 1.33322 0
M  V30 8613 H 824.281 0.663334 -0.029739 0
M  V30 8614 H 826.811 1.91857 -0.710791 0
M  V30 8615 H 826.821 4.05056 0.489225 0
M  V30 8616 H 825.496 4.10601 -0.661794 0
M  V30 8617 H 824.073 3.56661 1.08844 0
M  V30 8618 N 826.258 0.243083 1.55714 0
M  V30 8619 C 827.168 -0.668913 2.24862 0
M  V30 8620 C 828.184 -1.19638 1.26344 0
M  V30 8621 O 829.36 -1.23345 1.5921 0
M  V30 8622 C 826.425 -1.85084 2.93163 0
M  V30 8623 C 825.486 -1.36323 4.07081 0
M  V30 8624 C 824.719 -2.48882 4.72116 0
M  V30 8625 O 824.942 -3.67523 4.36214 0
M  V30 8626 O 823.876 -2.18857 5.60701 0
M  V30 8627 H 827.702 -0.109737 3.03502 0
M  V30 8628 H 825.287 0.0117411 1.49395 0
M  V30 8629 H 827.169 -2.54065 3.36197 0
M  V30 8630 H 825.844 -2.39771 2.17466 0
M  V30 8631 H 824.751 -0.640804 3.68571 0
M  V30 8632 H 826.084 -0.86249 4.84584 0
M  V30 8633 N 827.736 -1.57571 -0.0300757 0
M  V30 8634 C 828.684 -2.0758 -1.04944 0
M  V30 8635 C 829.678 -0.989384 -1.37505 0
M  V30 8636 O 830.884 -1.17427 -1.36422 0
M  V30 8637 H 827.259 -0.662419 -0.355956 0
M  V30 8638 H 829.23 -2.92268 -0.601848 0
M  V30 8639 C 827.979 -2.5698 -2.34215 0
M  V30 8640 H 827.302 -3.40193 -2.10021 0
M  V30 8641 H 828.742 -2.95682 -3.03888 0
M  V30 8642 C 827.201 -1.47059 -3.03109 0
M  V30 8643 O 827.731 -0.83625 -3.92899 0
M  V30 8644 N 825.937 -1.20538 -2.64422 0
M  V30 8645 H 825.484 -1.72305 -1.9149 0
M  V30 8646 H 825.442 -0.472045 -3.10836 0
M  V30 8647 N 829.214 0.302327 -1.54673 0
M  V30 8648 C 830.177 1.35592 -1.8479 0
M  V30 8649 C 831.177 1.43743 -0.72073 0
M  V30 8650 O 832.367 1.43402 -0.989017 0
M  V30 8651 C 829.499 2.74091 -2.02699 0
M  V30 8652 H 830.692 1.10132 -2.78946 0
M  V30 8653 H 828.245 0.538926 -1.46715 0
M  V30 8654 H 828.98 3.04775 -1.10826 0
M  V30 8655 H 828.765 2.69565 -2.8474 0
M  V30 8656 H 830.255 3.50272 -2.27374 0
M  V30 8657 N 830.692 1.47107 0.565454 0
M  V30 8658 C 831.92 1.56909 1.3486 0
M  V30 8659 C 832.335 0.216312 1.87557 0
M  V30 8660 O 831.692 -0.789168 1.64555 0
M  V30 8661 C 831.743 2.58776 2.52423 0
M  V30 8662 O 831.464 3.888 2.01906 0
M  V30 8663 C 832.965 2.78683 3.44747 0
M  V30 8664 H 830.185 0.530096 0.411387 0
M  V30 8665 H 832.729 1.92658 0.685782 0
M  V30 8666 H 830.884 2.25983 3.1466 0
M  V30 8667 H 831.298 4.44393 2.78595 0
M  V30 8668 H 832.772 3.53842 4.23674 0
M  V30 8669 H 833.249 1.86208 3.97773 0
M  V30 8670 H 833.855 3.12641 2.88333 0
M  V30 8671 N 832.17 -0.811516 1.35101 0
M  V30 8672 C 833.1 -1.9378 1.30275 0
M  V30 8673 C 834.081 -1.69165 0.178075 0
M  V30 8674 O 835.266 -1.90599 0.372256 0
M  V30 8675 C 832.396 -3.30439 1.06899 0
M  V30 8676 C 831.35 -3.69523 2.15955 0
M  V30 8677 C 830.676 -5.0429 1.77751 0
M  V30 8678 C 831.976 -3.80419 3.57881 0
M  V30 8679 H 833.67 -1.98075 2.24514 0
M  V30 8680 H 831.216 -0.951586 1.08078 0
M  V30 8681 H 833.169 -4.08828 1.02164 0
M  V30 8682 H 831.893 -3.26473 0.0910462 0
M  V30 8683 H 830.552 -2.93416 2.19778 0
M  V30 8684 H 830.2 -4.96823 0.785876 0
M  V30 8685 H 829.9 -5.31411 2.5075 0
M  V30 8686 H 831.424 -5.85125 1.74533 0
M  V30 8687 H 832.838 -4.49051 3.56407 0
M  V30 8688 H 831.235 -4.19005 4.29598 0
M  V30 8689 H 832.305 -2.82105 3.94391 0
M  V30 8690 N 833.648 -1.19017 -1.03309 0
M  V30 8691 C 834.876 -1.01534 -1.80273 0
M  V30 8692 C 835.291 0.43605 -1.83696 0
M  V30 8693 O 834.648 1.30288 -1.27794 0
M  V30 8694 C 834.699 -1.5722 -3.25522 0
M  V30 8695 O 834.42 -2.96677 -3.22358 0
M  V30 8696 C 835.921 -1.4446 -4.19102 0
M  V30 8697 H 833.141 -0.358094 -0.567459 0
M  V30 8698 H 835.685 -1.57738 -1.3015 0
M  V30 8699 H 833.84 -1.05174 -3.7285 0
M  V30 8700 H 834.254 -3.22795 -4.13405 0
M  V30 8701 H 835.728 -1.88209 -5.18923 0
M  V30 8702 H 836.205 -0.394471 -4.37425 0
M  V30 8703 H 836.811 -1.95616 -3.77643 0
M  V30 8704 N 835.127 1.22348 -0.993418 0
M  V30 8705 C 836.057 2.26584 -0.564088 0
M  V30 8706 C 837.038 1.65102 0.409298 0
M  V30 8707 O 838.223 1.91872 0.299819 0
M  V30 8708 C 835.353 3.47087 0.121554 0
M  V30 8709 C 834.307 4.21009 -0.770429 0
M  V30 8710 C 833.633 5.34678 0.0481586 0
M  V30 8711 C 834.933 4.79636 -2.06752 0
M  V30 8712 H 836.627 2.62749 -1.43538 0
M  V30 8713 H 834.173 1.26303 -0.691628 0
M  V30 8714 H 836.126 4.19166 0.433303 0
M  V30 8715 H 834.85 3.1002 1.0274 0
M  V30 8716 H 833.509 3.50764 -1.06583 0
M  V30 8717 H 833.157 4.93852 0.954933 0
M  V30 8718 H 832.857 5.85061 -0.545641 0
M  V30 8719 H 834.381 6.09573 0.353991 0
M  V30 8720 H 835.795 5.43654 -1.81969 0
M  V30 8721 H 834.192 5.4036 -2.61019 0
M  V30 8722 H 835.262 3.99659 -2.74592 0
M  V30 8723 N 836.605 0.766683 1.37694 0
M  V30 8724 C 837.854 0.325425 1.99057 0
M  V30 8725 C 838.167 -1.10275 1.61551 0
M  V30 8726 O 839.373 -1.64513 2.1598 0
M  V30 8727 C 837.829 0.530886 3.55963 0
M  V30 8728 C 837.437 1.96899 4.02411 0
M  V30 8729 C 839.181 0.152997 4.24224 0
M  V30 8730 C 837.088 2.12232 5.52007 0
M  V30 8731 H 836.018 0.117929 0.744721 0
M  V30 8732 H 838.669 0.945091 1.5729 0
M  V30 8733 H 837.051 -0.158162 3.95684 0
M  V30 8734 H 838.225 2.69258 3.73948 0
M  V30 8735 H 836.54 2.303 3.46916 0
M  V30 8736 H 839.137 0.24614 5.34133 0
M  V30 8737 H 839.48 -0.896096 4.06541 0
M  V30 8738 H 840.013 0.794398 3.89787 0
M  V30 8739 H 836.752 3.15442 5.7461 0
M  V30 8740 H 836.272 1.4435 5.82171 0
M  V30 8741 H 837.951 1.9185 6.17902 0
M  V30 8742 N 838.083 -1.48885 0.516809 0
M  V30 8743 C 839.308 -2.0739 -0.0205201 0
M  V30 8744 C 839.733 -1.37259 -1.28614 0
M  V30 8745 O 839.091 -0.434304 -1.76021 0
M  V30 8746 C 839.139 -3.59793 -0.24104 0
M  V30 8747 O 838.243 -3.90957 -1.31251 0
M  V30 8748 H 837.584 -0.663167 0.0332564 0
M  V30 8749 H 840.114 -1.91477 0.720956 0
M  V30 8750 H 840.124 -4.0531 -0.467737 0
M  V30 8751 H 838.799 -4.10244 0.68356 0
M  V30 8752 H 837.376 -3.57234 -1.06951 0
M  V30 8753 N 839.561 -0.251338 -1.55583 0
M  V30 8754 C 840.789 0.376187 -2.03451 0
M  V30 8755 C 841.204 1.51215 -1.13047 0
M  V30 8756 O 840.561 1.81917 -0.145769 0
M  V30 8757 C 840.612 0.879779 -3.50631 0
M  V30 8758 O 840.333 -0.210917 -4.37592 0
M  V30 8759 C 841.834 1.57754 -4.14281 0
M  V30 8760 H 839.054 0.0888722 -0.665089 0
M  V30 8761 H 841.598 -0.376497 -2.01004 0
M  V30 8762 H 839.753 1.58263 -3.53598 0
M  V30 8763 H 840.167 0.172203 -5.24217 0
M  V30 8764 H 841.641 1.88158 -5.18942 0
M  V30 8765 H 842.118 2.50103 -3.61034 0
M  V30 8766 H 842.724 0.919154 -4.15249 0
M  V30 8767 N 841.039 1.57585 0.0217189 0
M  V30 8768 C 841.986 2.07036 1.02004 0
M  V30 8769 C 842.956 0.96106 1.35473 0
M  V30 8770 O 844.141 1.23211 1.45684 0
M  V30 8771 C 841.281 2.56056 2.31364 0
M  V30 8772 C 840.394 3.80805 2.03989 0
M  V30 8773 C 839.529 4.18409 3.27272 0
M  V30 8774 C 838.568 5.36055 2.95486 0
M  V30 8775 N 837.705 5.69056 4.11242 0
M  V30 8776 H 842.545 2.92073 0.591396 0
M  V30 8777 H 840.082 1.44403 0.280384 0
M  V30 8778 H 842.04 2.82548 3.06957 0
M  V30 8779 H 840.67 1.73925 2.71937 0
M  V30 8780 H 839.722 3.61354 1.1886 0
M  V30 8781 H 841.034 4.66512 1.76546 0
M  V30 8782 H 840.188 4.46068 4.11228 0
M  V30 8783 H 838.927 3.31369 3.57835 0
M  V30 8784 H 837.932 5.08142 2.09933 0
M  V30 8785 H 839.157 6.24755 2.66193 0
M  V30 8786 H 837.103 4.84974 4.41742 0
M  V30 8787 H 837.02 6.49288 3.87247 0
M  V30 8788 H 838.288 6.01295 4.96049 0
M  V30 8789 N 842.517 -0.29412 1.54831 0
M  V30 8790 C 843.45 -1.38779 1.81151 0
M  V30 8791 C 844.428 -1.48464 0.663124 0
M  V30 8792 O 845.612 -1.65418 0.903835 0
M  V30 8793 C 842.739 -2.76627 1.95436 0
M  V30 8794 C 841.785 -2.84333 3.17895 0
M  V30 8795 S 842.618 -2.45726 4.75793 0
M  V30 8796 C 843.774 -3.85589 4.93023 0
M  V30 8797 H 844.007 -1.16246 2.73631 0
M  V30 8798 H 841.54 -0.492611 1.46331 0
M  V30 8799 H 843.498 -3.56021 2.04351 0
M  V30 8800 H 842.159 -2.96425 1.03881 0
M  V30 8801 H 841.352 -3.85457 3.24713 0
M  V30 8802 H 840.954 -2.1294 3.07461 0
M  V30 8803 H 843.246 -4.80656 4.77468 0
M  V30 8804 H 844.189 -3.83737 5.95107 0
M  V30 8805 H 844.597 -3.75911 4.21131 0
M  V30 8806 N 843.995 -1.47404 -0.557645 0
M  V30 8807 C 844.905 -1.62491 -1.69216 0
M  V30 8808 C 845.921 -0.507764 -1.66426 0
M  V30 8809 O 847.097 -0.775241 -1.85882 0
M  V30 8810 C 844.162 -1.63511 -3.05721 0
M  V30 8811 C 843.223 -2.86648 -3.1958 0
M  V30 8812 C 842.456 -2.87609 -4.49574 0
M  V30 8813 O 842.679 -1.97799 -5.35006 0
M  V30 8814 O 841.613 -3.79465 -4.67215 0
M  V30 8815 H 845.439 -2.58487 -1.59431 0
M  V30 8816 H 843.024 -1.30485 -0.7276 0
M  V30 8817 H 844.906 -1.66863 -3.86956 0
M  V30 8818 H 843.581 -0.706812 -3.15889 0
M  V30 8819 H 842.488 -2.8884 -2.37744 0
M  V30 8820 H 843.821 -3.7877 -3.14316 0
M  V30 8821 N 845.473 0.80434 -1.35529 0
M  V30 8822 C 846.75 1.5486 -1.1949 0
M  V30 8823 C 847.13 2.09897 0.22506 0
M  V30 8824 O 846.478 1.92643 1.22886 0
M  V30 8825 C 846.688 2.65535 -2.26478 0
M  V30 8826 C 848.036 3.33814 -2.62399 0
M  V30 8827 O 849.06 2.75807 -2.25409 0
M  V30 8828 O 847.919 4.38612 -3.26009 0
M  V30 8829 H 845.013 0.68433 -0.464351 0
M  V30 8830 H 847.559 0.844107 -1.47217 0
M  V30 8831 H 846.331 2.22754 -3.21709 0
M  V30 8832 H 845.954 3.43617 -2.00033 0
M  V30 8833 N 846.951 1.19563 1.02676 0
M  V30 8834 C 848.176 1.02556 1.80269 0
M  V30 8835 C 848.601 -0.421056 1.83327 0
M  V30 8836 O 847.959 -1.30279 1.26084 0
M  V30 8837 C 848.007 1.60165 3.23078 0
M  V30 8838 O 847.111 0.832404 4.03912 0
M  V30 8839 H 846.452 0.362354 0.556413 0
M  V30 8840 H 848.982 1.58633 1.29216 0
M  V30 8841 H 848.992 1.6347 3.7382 0
M  V30 8842 H 847.667 2.65454 3.20167 0
M  V30 8843 H 846.244 0.872768 3.62543 0
M  V30 8844 N 848.429 -1.21819 0.999893 0
M  V30 8845 C 849.677 -1.90375 0.678351 0
M  V30 8846 C 849.998 -1.78155 -0.792824 0
M  V30 8847 O 849.268 -1.17319 -1.56885 0
M  V30 8848 H 847.848 -0.704661 0.247915 0
M  V30 8849 H 850.51 -1.48021 1.2679 0
M  V30 8850 H 849.606 -2.97385 0.947023 0
M  V30 8851 N 849.908 -0.773975 -1.37286 0
M  V30 8852 C 851.154 -0.339809 -1.99933 0
M  V30 8853 C 851.487 1.0815 -1.61299 0
M  V30 8854 O 850.762 1.74442 -0.860252 0
M  V30 8855 C 851.045 -0.485919 -3.56806 0
M  V30 8856 C 850.898 -1.9498 -4.05343 0
M  V30 8857 C 852.217 0.108461 -4.39966 0
M  V30 8858 H 849.336 -0.124944 -0.726332 0
M  V30 8859 H 851.978 -0.977433 -1.6293 0
M  V30 8860 H 850.128 0.0569023 -3.88458 0
M  V30 8861 H 851.8 -2.5525 -3.84246 0
M  V30 8862 H 850.043 -2.45784 -3.57453 0
M  V30 8863 H 850.714 -2.00308 -5.14374 0
M  V30 8864 H 853.19 -0.354722 -4.14585 0
M  V30 8865 H 852.066 -0.0238926 -5.48895 0
M  V30 8866 H 852.327 1.19901 -4.25531 0
M  V30 8867 N 851.386 1.48609 -0.524698 0
M  V30 8868 C 852.616 2.06599 0.00741868 0
M  V30 8869 C 853.024 1.3823 1.29186 0
M  V30 8870 O 852.367 0.461962 1.77797 0
M  V30 8871 C 852.429 3.58184 0.307324 0
M  V30 8872 C 852.093 4.48391 -0.882864 0
M  V30 8873 C 853.09 4.88485 -1.77984 0
M  V30 8874 C 850.775 4.90367 -1.08837 0
M  V30 8875 C 852.769 5.69319 -2.86627 0
M  V30 8876 C 850.456 5.70972 -2.17794 0
M  V30 8877 C 851.454 6.10355 -3.06523 0
M  V30 8878 O 851.142 6.89343 -4.13596 0
M  V30 8879 H 850.874 0.675421 -0.0279846 0
M  V30 8880 H 853.428 1.92058 -0.7282 0
M  V30 8881 H 851.658 3.70818 1.09685 0
M  V30 8882 H 853.347 3.98318 0.780886 0
M  V30 8883 H 854.113 4.56682 -1.63299 0
M  V30 8884 H 849.992 4.592 -0.407035 0
M  V30 8885 H 853.536 5.99978 -3.55911 0
M  V30 8886 H 849.433 6.02188 -2.32465 0
M  V30 8887 H 850.201 7.07689 -4.1124 0
M  V30 8888 N 852.864 0.259585 1.55447 0
M  V30 8889 C 853.794 -0.62852 2.24882 0
M  V30 8890 C 854.775 -1.17128 1.23349 0
M  V30 8891 O 855.96 -1.20829 1.52033 0
M  V30 8892 C 853.09 -1.81983 2.95803 0
M  V30 8893 C 852.044 -1.40929 4.04132 0
M  V30 8894 C 851.37 -2.68246 4.62545 0
M  V30 8895 C 852.67 -0.570956 5.1917 0
M  V30 8896 H 854.364 -0.0495021 2.99359 0
M  V30 8897 H 851.91 -0.0223688 1.43983 0
M  V30 8898 H 853.863 -2.44689 3.43082 0
M  V30 8899 H 852.587 -2.42444 2.18835 0
M  V30 8900 H 851.246 -0.805519 3.57641 0
M  V30 8901 H 850.894 -3.26931 3.82263 0
M  V30 8902 H 850.594 -2.41495 5.35681 0
M  V30 8903 H 852.118 -3.31827 5.12565 0
M  V30 8904 H 853.532 -1.10262 5.62597 0
M  V30 8905 H 851.929 -0.398979 5.98772 0
M  V30 8906 H 852.999 0.413918 4.8313 0
M  V30 8907 N 854.342 -1.57594 -0.0133615 0
M  V30 8908 C 855.582 -1.91834 -0.705639 0
M  V30 8909 C 855.946 -0.859801 -1.71672 0
M  V30 8910 O 857.147 -1.08702 -2.4584 0
M  V30 8911 C 855.418 -3.31174 -1.34383 0
M  V30 8912 S 856.977 -3.87275 -2.06309 0
M  V30 8913 H 853.795 -0.671598 -0.233404 0
M  V30 8914 H 856.397 -1.95459 0.0401173 0
M  V30 8915 H 855.101 -4.06065 -0.594939 0
M  V30 8916 H 854.632 -3.3089 -2.12781 0
M  V30 8917 H 856.647 -3.67271 -3.33657 0
M  V30 8918 N 855.82 0.285905 -1.54985 0
M  V30 8919 C 856.73 1.37534 -1.90057 0
M  V30 8920 C 857.746 1.54707 -0.796348 0
M  V30 8921 O 858.922 1.69082 -1.09423 0
M  V30 8922 C 855.987 2.7167 -2.15398 0
M  V30 8923 C 855.048 2.63354 -3.39033 0
M  V30 8924 C 854.281 3.91093 -3.63155 0
M  V30 8925 O 854.504 4.91169 -2.90015 0
M  V30 8926 O 853.438 3.92075 -4.56685 0
M  V30 8927 H 857.264 1.10791 -2.8277 0
M  V30 8928 H 854.849 0.483303 -1.41367 0
M  V30 8929 H 856.731 3.51006 -2.33179 0
M  V30 8930 H 855.406 2.98226 -1.25868 0
M  V30 8931 H 854.313 1.82438 -3.26599 0
M  V30 8932 H 855.646 2.41749 -4.2874 0
M  V30 8933 N 857.298 1.47698 0.54982 0
M  V30 8934 C 858.546 1.54397 1.30407 0
M  V30 8935 C 858.867 0.211026 1.93855 0
M  V30 8936 O 858.137 -0.765701 1.80316 0
M  V30 8937 H 856.717 0.568747 0.484289 0
M  V30 8938 H 859.379 1.84042 0.641444 0
M  V30 8939 H 858.475 2.31449 2.09375 0
M  V30 8940 N 858.776 -0.797141 1.35954 0
M  V30 8941 C 860.025 -1.54983 1.29086 0
M  V30 8942 C 860.338 -1.95167 -0.130003 0
M  V30 8943 O 861.544 -2.69596 -0.32101 0
M  V30 8944 C 860 -2.79738 2.26439 0
M  V30 8945 C 859.608 -2.46753 3.73921 0
M  V30 8946 C 861.352 -3.57733 2.28533 0
M  V30 8947 C 859.259 -3.67858 4.63071 0
M  V30 8948 H 858.189 -0.581766 0.479651 0
M  V30 8949 H 860.84 -0.87541 1.61273 0
M  V30 8950 H 859.222 -3.48939 1.87236 0
M  V30 8951 H 860.396 -1.85499 4.21814 0
M  V30 8952 H 858.711 -1.81985 3.74527 0
M  V30 8953 H 861.308 -4.47699 2.92351 0
M  V30 8954 H 861.651 -3.95754 1.29169 0
M  V30 8955 H 862.184 -2.95504 2.66313 0
M  V30 8956 H 858.923 -3.34939 5.63468 0
M  V30 8957 H 858.443 -4.28305 4.19898 0
M  V30 8958 H 860.122 -4.34977 4.78961 0
M  V30 8959 N 860.254 -1.20106 -1.0204 0
M  V30 8960 C 861.202 -0.943231 -2.12617 0
M  V30 8961 C 862.196 0.104042 -1.6908 0
M  V30 8962 O 863.402 -0.0459732 -1.79941 0
M  V30 8963 H 859.777 -0.28767 -0.694802 0
M  V30 8964 H 861.748 -1.88221 -2.3155 0
M  V30 8965 C 860.497 -0.50771 -3.43973 0
M  V30 8966 H 859.82 -1.30514 -3.77897 0
M  V30 8967 H 861.26 -0.366486 -4.22413 0
M  V30 8968 C 859.719 0.77939 -3.27761 0
M  V30 8969 O 860.249 1.83876 -3.57145 0
M  V30 8970 N 858.455 0.739931 -2.81022 0
M  V30 8971 H 858.002 -0.122426 -2.57309 0
M  V30 8972 H 857.96 1.60147 -2.70556 0
M  V30 8973 N 861.732 1.21287 -1.00634 0
M  V30 8974 C 862.664 2.2308 -0.526094 0
M  V30 8975 C 863.677 1.58157 0.386031 0
M  V30 8976 O 864.866 1.77528 0.186016 0
M  V30 8977 C 861.966 3.37937 0.255289 0
M  V30 8978 C 861.139 4.32449 -0.656236 0
M  V30 8979 C 860.198 5.26145 0.0757714 0
M  V30 8980 O 859.224 5.66601 -0.543325 0
M  V30 8981 N 860.426 5.6449 1.35391 0
M  V30 8982 H 863.191 2.64913 -1.40147 0
M  V30 8983 H 860.752 1.35724 -0.882641 0
M  V30 8984 H 862.744 3.97614 0.753977 0
M  V30 8985 H 861.314 2.95078 1.03187 0
M  V30 8986 H 860.534 3.70892 -1.3354 0
M  V30 8987 H 861.822 4.92526 -1.27653 0
M  V30 8988 H 861.22 5.33617 1.878 0
M  V30 8989 H 859.777 6.26524 1.79753 0
M  V30 8990 N 863.21 0.781244 1.36873 0
M  V30 8991 C 864.173 0.180094 2.28491 0
M  V30 8992 C 865.173 -0.617798 1.48458 0
M  V30 8993 O 866.363 -0.439991 1.68552 0
M  V30 8994 C 863.495 -0.751741 3.32508 0
M  V30 8995 H 864.688 0.987837 2.83164 0
M  V30 8996 H 862.241 0.550102 1.463 0
M  V30 8997 H 862.976 -1.58413 2.82977 0
M  V30 8998 H 862.761 -0.181649 3.91679 0
M  V30 8999 H 864.251 -1.16748 4.00949 0
M  V30 9000 N 864.689 -1.48329 0.532571 0
M  V30 9001 C 865.937 -2.021 -0.000581206 0
M  V30 9002 C 866.258 -1.4117 -1.34522 0
M  V30 9003 O 865.528 -0.578005 -1.87179 0
M  V30 9004 H 864.108 -0.746993 -0.00320281 0
M  V30 9005 H 866.77 -1.82011 0.696991 0
M  V30 9006 H 865.866 -3.11917 -0.106991 0
M  V30 9007 N 866.167 -0.267825 -1.55308 0
M  V30 9008 C 867.583 0.0865107 -1.59365 0
M  V30 9009 C 867.783 1.55205 -1.28505 0
M  V30 9010 O 866.839 2.29978 -1.04241 0
M  V30 9011 C 868.152 -0.28155 -2.99379 0
M  V30 9012 C 869.7 -0.227565 -3.12172 0
M  V30 9013 C 870.175 -0.569959 -4.5444 0
M  V30 9014 N 871.666 -0.521238 -4.60258 0
M  V30 9015 C 872.401 -0.759061 -5.68354 0
M  V30 9016 N 871.897 -1.06112 -6.84626 0
M  V30 9017 N 873.69 -0.688351 -5.57869 0
M  V30 9018 H 865.841 -1.22332 -1.73633 0
M  V30 9019 H 868.104 -0.493703 -0.809297 0
M  V30 9020 H 867.81 -1.3005 -3.26772 0
M  V30 9021 H 867.684 0.381192 -3.75269 0
M  V30 9022 H 870.071 0.782093 -2.84548 0
M  V30 9023 H 870.152 -0.924461 -2.38511 0
M  V30 9024 H 869.796 -1.57727 -4.82788 0
M  V30 9025 H 869.726 0.148646 -5.2639 0
M  V30 9026 H 872.217 -0.297359 -3.76728 0
M  V30 9027 H 872.53 -1.22945 -7.62958 0
M  V30 9028 H 870.875 -1.09881 -6.86259 0
M  V30 9029 H 874.066 -0.452268 -4.6591 0
M  V30 9030 H 874.239 -0.877081 -6.42037 0
M  V30 9031 N 867.645 1.57599 0.00500368 0
M  V30 9032 C 868.87 1.95026 0.705663 0
M  V30 9033 C 869.295 0.869643 1.6679 0
M  V30 9034 O 868.653 -0.172659 1.80476 0
M  V30 9035 C 868.701 3.31545 1.4181 0
M  V30 9036 O 867.805 3.25495 2.53232 0
M  V30 9037 H 867.146 0.636808 0.188074 0
M  V30 9038 H 869.676 2.04547 -0.046696 0
M  V30 9039 H 869.686 3.66996 1.78265 0
M  V30 9040 H 868.361 4.09751 0.712543 0
M  V30 9041 H 866.938 3.01714 2.19142 0
M  V30 9042 N 869.123 -0.277682 1.55134 0
M  V30 9043 C 870.539 -0.624625 1.46869 0
M  V30 9044 C 870.739 -1.89717 0.678958 0
M  V30 9045 O 869.795 -2.51739 0.195939 0
M  V30 9046 C 871.108 -0.755937 2.91043 0
M  V30 9047 C 872.656 -0.850299 3.01229 0
M  V30 9048 C 873.131 -1.01343 4.46647 0
M  V30 9049 N 874.622 -1.07906 4.50456 0
M  V30 9050 C 875.357 -1.224 5.60184 0
M  V30 9051 N 874.853 -1.33642 6.79788 0
M  V30 9052 N 876.646 -1.25473 5.47917 0
M  V30 9053 H 868.797 0.558102 2.04937 0
M  V30 9054 H 871.06 0.188228 0.929125 0
M  V30 9055 H 870.766 0.108593 3.51532 0
M  V30 9056 H 870.64 -1.6377 3.39793 0
M  V30 9057 H 873.027 -1.7053 2.40839 0
M  V30 9058 H 873.108 0.0559681 2.55739 0
M  V30 9059 H 872.752 -0.163102 5.07638 0
M  V30 9060 H 872.682 -1.93427 4.89789 0
M  V30 9061 H 875.173 -1.00477 3.64298 0
M  V30 9062 H 875.486 -1.44522 7.59166 0
M  V30 9063 H 873.831 -1.30655 6.82608 0
M  V30 9064 H 877.022 -1.16317 4.53418 0
M  V30 9065 H 877.195 -1.36424 6.33476 0
M  V30 9066 N 870.601 -1.47988 -0.541979 0
M  V30 9067 C 871.548 -1.61615 -1.6477 0
M  V30 9068 C 872.518 -0.458602 -1.59644 0
M  V30 9069 O 873.703 -0.680585 -1.78249 0
M  V30 9070 C 870.843 -1.65066 -3.03063 0
M  V30 9071 C 869.956 -2.91845 -3.18513 0
M  V30 9072 C 869.091 -2.86534 -4.47294 0
M  V30 9073 C 868.13 -4.0807 -4.5623 0
M  V30 9074 N 867.267 -4.00905 -5.76385 0
M  V30 9075 H 872.107 -2.56046 -1.52461 0
M  V30 9076 H 869.644 -1.26989 -0.742449 0
M  V30 9077 H 871.602 -1.65049 -3.83164 0
M  V30 9078 H 870.232 -0.74136 -3.14171 0
M  V30 9079 H 869.284 -3.01661 -2.31743 0
M  V30 9080 H 870.596 -3.81804 -3.20978 0
M  V30 9081 H 869.75 -2.84851 -5.35672 0
M  V30 9082 H 868.489 -1.94283 -4.47332 0
M  V30 9083 H 867.494 -4.10041 -3.66261 0
M  V30 9084 H 868.719 -5.01465 -4.5794 0
M  V30 9085 H 866.665 -3.11467 -5.77342 0
M  V30 9086 H 866.582 -4.84557 -5.80293 0
M  V30 9087 H 867.85 -4.03263 -6.67083 0
M  V30 9088 N 872.079 0.78992 -1.36375 0
M  V30 9089 C 872.989 1.93386 -1.32812 0
M  V30 9090 C 874.005 1.72468 -0.230377 0
M  V30 9091 O 875.181 1.96014 -0.462657 0
M  V30 9092 C 872.246 3.2824 -1.11621 0
M  V30 9093 C 871.307 3.61939 -2.30865 0
M  V30 9094 C 870.54 4.90359 -2.10675 0
M  V30 9095 O 870.763 5.6005 -1.08168 0
M  V30 9096 O 869.697 5.22702 -2.9844 0
M  V30 9097 H 873.523 1.99342 -2.29121 0
M  V30 9098 H 871.108 0.9301 -1.16917 0
M  V30 9099 H 872.99 4.08939 -1.01719 0
M  V30 9100 H 871.665 3.23178 -0.183732 0
M  V30 9101 H 870.572 2.81549 -2.46335 0
M  V30 9102 H 871.905 3.71725 -3.22617 0
M  V30 9103 N 873.557 1.20646 1.01402 0
M  V30 9104 C 874.803 1.0197 1.753 0
M  V30 9105 C 875.136 -0.446803 1.8899 0
M  V30 9106 O 874.411 -1.33169 1.41762 0
M  V30 9107 C 874.694 1.70693 3.17074 0
M  V30 9108 C 874.547 3.24805 3.11162 0
M  V30 9109 C 875.866 1.44212 4.15802 0
M  V30 9110 H 872.985 0.371844 0.636318 0
M  V30 9111 H 875.627 1.48696 1.18277 0
M  V30 9112 H 873.777 1.30968 3.65759 0
M  V30 9113 H 875.449 3.73841 2.70261 0
M  V30 9114 H 873.692 3.55576 2.48492 0
M  V30 9115 H 874.363 3.68049 4.11393 0
M  V30 9116 H 876.839 1.7868 3.75783 0
M  V30 9117 H 875.715 1.94825 5.13161 0
M  V30 9118 H 875.976 0.370252 4.40547 0
M  V30 9119 N 875.035 -1.20752 1.01276 0
M  V30 9120 C 875.945 -2.27079 0.589277 0
M  V30 9121 C 876.961 -1.6999 -0.371389 0
M  V30 9122 O 878.137 -2.00044 -0.233294 0
M  V30 9123 C 875.202 -3.4663 -0.0696715 0
M  V30 9124 C 874.263 -4.18962 0.936454 0
M  V30 9125 C 873.496 -5.32806 0.308856 0
M  V30 9126 O 873.719 -5.63376 -0.8924 0
M  V30 9127 O 872.653 -5.93131 1.02367 0
M  V30 9128 H 876.479 -2.6551 1.47438 0
M  V30 9129 H 874.064 -1.27297 0.782045 0
M  V30 9130 H 875.946 -4.19119 -0.437873 0
M  V30 9131 H 874.621 -3.10082 -0.929029 0
M  V30 9132 H 873.528 -3.48661 1.35595 0
M  V30 9133 H 874.861 -4.59441 1.76565 0
M  V30 9134 N 876.513 -0.788492 -1.36457 0
M  V30 9135 C 877.443 -0.200468 -2.32638 0
M  V30 9136 C 878.424 0.664031 -1.56603 0
M  V30 9137 O 879.609 0.598045 -1.84762 0
M  V30 9138 C 876.739 0.666274 -3.40849 0
M  V30 9139 C 875.693 -0.0982574 -4.27887 0
M  V30 9140 C 875.019 0.889018 -5.27258 0
M  V30 9141 C 876.319 -1.28692 -5.06197 0
M  V30 9142 H 878.013 -1.00399 -2.82065 0
M  V30 9143 H 875.559 -0.484237 -1.35614 0
M  V30 9144 H 877.512 1.08757 -4.07124 0
M  V30 9145 H 876.236 1.50249 -2.89987 0
M  V30 9146 H 874.895 -0.500525 -3.63167 0
M  V30 9147 H 874.543 1.72024 -4.7267 0
M  V30 9148 H 874.243 0.381909 -5.86358 0
M  V30 9149 H 875.767 1.30891 -5.96406 0
M  V30 9150 H 877.181 -0.941429 -5.65517 0
M  V30 9151 H 875.578 -1.72726 -5.74705 0
M  V30 9152 H 876.648 -2.08273 -4.37893 0
M  V30 9153 N 877.991 1.48044 -0.54043 0
M  V30 9154 C 879.24 2.01698 -0.00809961 0
M  V30 9155 C 879.553 1.42184 1.34325 0
M  V30 9156 O 880.759 1.87398 1.96454 0
M  V30 9157 C 879.215 3.59882 0.035933 0
M  V30 9158 C 878.823 4.28384 -1.31115 0
M  V30 9159 C 880.567 4.21346 0.51654 0
M  V30 9160 C 878.474 5.78529 -1.22714 0
M  V30 9161 H 877.404 0.754 0.000742174 0
M  V30 9162 H 880.055 1.70204 -0.685775 0
M  V30 9163 H 878.437 3.88264 0.778906 0
M  V30 9164 H 879.611 4.11663 -2.07051 0
M  V30 9165 H 877.926 3.78837 -1.72834 0
M  V30 9166 H 880.523 5.31351 0.597529 0
M  V30 9167 H 880.866 3.87373 1.52473 0
M  V30 9168 H 881.399 3.97432 -0.171064 0
M  V30 9169 H 878.138 6.17093 -2.21081 0
M  V30 9170 H 877.658 5.97634 -0.50931 0
M  V30 9171 H 879.337 6.40395 -0.92216 0
M  V30 9172 N 879.47 0.276058 1.55163 0
M  V30 9173 C 880.719 -0.341098 1.98795 0
M  V30 9174 C 881.032 -1.56905 1.16791 0
M  V30 9175 O 882.238 -2.25922 1.50571 0
M  V30 9176 C 880.694 -0.658231 3.5383 0
M  V30 9177 C 880.302 0.549972 4.44611 0
M  V30 9178 C 882.046 -1.23796 4.06048 0
M  V30 9179 C 879.953 0.207373 5.91036 0
M  V30 9180 H 878.883 -0.131224 0.742493 0
M  V30 9181 H 881.534 0.380858 1.79504 0
M  V30 9182 H 879.916 -1.43911 3.68925 0
M  V30 9183 H 881.09 1.32681 4.41285 0
M  V30 9184 H 879.405 1.04661 4.03032 0
M  V30 9185 H 882.002 -1.50811 5.12991 0
M  V30 9186 H 882.345 -2.17214 3.55139 0
M  V30 9187 H 882.878 -0.519345 3.94395 0
M  V30 9188 H 879.617 1.10946 6.46043 0
M  V30 9189 H 879.137 -0.532687 5.9743 0
M  V30 9190 H 880.816 -0.200072 6.46691 0
M  V30 9191 N 880.948 -1.576 0.00335426 0
M  V30 9192 C 881.88 -2.0549 -1.01521 0
M  V30 9193 C 882.893 -0.973441 -1.30491 0
M  V30 9194 O 884.082 -1.25017 -1.27409 0
M  V30 9195 C 881.182 -2.44272 -2.34914 0
M  V30 9196 C 880.355 -3.75191 -2.24835 0
M  V30 9197 C 879.414 -4.00804 -3.40944 0
M  V30 9198 O 878.44 -4.71423 -3.18981 0
M  V30 9199 N 879.642 -3.48961 -4.63904 0
M  V30 9200 H 882.407 -2.93493 -0.60678 0
M  V30 9201 H 879.968 -1.60851 -0.18396 0
M  V30 9202 H 881.96 -2.58518 -3.11369 0
M  V30 9203 H 880.53 -1.6177 -2.67487 0
M  V30 9204 H 879.75 -3.70989 -1.3327 0
M  V30 9205 H 881.038 -4.61013 -2.15277 0
M  V30 9206 H 880.436 -2.9178 -4.84645 0
M  V30 9207 H 878.993 -3.68531 -5.37613 0
M  V30 9208 N 882.426 0.269451 -1.5528 0
M  V30 9209 C 883.672 1.00206 -1.76314 0
M  V30 9210 C 884.005 1.85812 -0.564581 0
M  V30 9211 O 883.28 1.89509 0.437769 0
M  V30 9212 C 883.563 1.88163 -3.07029 0
M  V30 9213 C 883.416 1.05527 -4.37246 0
M  V30 9214 C 884.735 2.8681 -3.33808 0
M  V30 9215 H 881.854 0.36288 -0.641473 0
M  V30 9216 H 884.496 0.274188 -1.88011 0
M  V30 9217 H 882.646 2.50224 -2.97187 0
M  V30 9218 H 884.318 0.455094 -4.5905 0
M  V30 9219 H 882.561 0.358842 -4.32313 0
M  V30 9220 H 883.232 1.70397 -5.25042 0
M  V30 9221 H 885.708 2.34884 -3.43466 0
M  V30 9222 H 884.584 3.45492 -4.26528 0
M  V30 9223 H 884.845 3.62118 -2.5362 0
M  V30 9224 N 883.904 1.48273 0.534124 0
M  V30 9225 C 885.132 1.59734 1.31501 0
M  V30 9226 C 885.547 0.256047 1.87056 0
M  V30 9227 O 884.904 -0.754086 1.66192 0
M  V30 9228 C 884.955 2.64072 2.46877 0
M  V30 9229 O 884.676 3.92995 1.93613 0
M  V30 9230 C 886.177 2.85933 3.38758 0
M  V30 9231 H 883.397 0.538703 0.40005 0
M  V30 9232 H 885.941 1.9407 0.644762 0
M  V30 9233 H 884.096 2.32606 3.09795 0
M  V30 9234 H 884.51 4.50203 2.69106 0
M  V30 9235 H 885.984 3.62749 4.16073 0
M  V30 9236 H 886.461 1.94603 3.93734 0
M  V30 9237 H 887.067 3.18687 2.81636 0
M  V30 9238 N 885.382 -0.782676 1.36792 0
M  V30 9239 C 886.793 -1.35828 1.28092 0
M  V30 9240 C 887.144 -1.96052 -0.076315 0
M  V30 9241 O 886.269 -1.93042 -0.977935 0
M  V30 9242 C 886.864 -2.46949 2.31952 0
M  V30 9243 C 885.423 -3.00307 2.2692 0
M  V30 9244 C 884.57 -1.73436 2.16368 0
M  V30 9245 H 887.521 -0.583788 1.47572 0
M  V30 9246 H 887.542 -3.26144 1.95986 0
M  V30 9247 H 887.054 -2.03087 3.30722 0
M  V30 9248 H 885.155 -3.48571 1.31639 0
M  V30 9249 H 885.268 -3.56663 3.19887 0
M  V30 9250 H 883.632 -1.95934 1.62733 0
M  V30 9251 H 884.415 -1.31693 3.17036 0
M  V30 9252 N 886.86 -1.21182 -1.00761 0
M  V30 9253 C 887.807 -0.968741 -2.09485 0
M  V30 9254 C 888.777 0.104325 -1.65772 0
M  V30 9255 O 889.962 -0.0422587 -1.90753 0
M  V30 9256 C 887.102 -0.536686 -3.40901 0
M  V30 9257 C 886.215 -1.6789 -3.98041 0
M  V30 9258 C 885.35 -1.19627 -5.17555 0
M  V30 9259 C 884.389 -2.31099 -5.66798 0
M  V30 9260 N 883.526 -1.83988 -6.77564 0
M  V30 9261 H 888.366 -1.89952 -2.29613 0
M  V30 9262 H 885.903 -0.946688 -1.12589 0
M  V30 9263 H 887.861 -0.26745 -4.16342 0
M  V30 9264 H 886.491 0.357092 -3.20819 0
M  V30 9265 H 885.543 -2.06284 -3.19611 0
M  V30 9266 H 886.855 -2.51794 -4.30582 0
M  V30 9267 H 886.009 -0.883539 -6.00232 0
M  V30 9268 H 884.748 -0.327244 -4.86601 0
M  V30 9269 H 883.753 -2.63178 -4.82719 0
M  V30 9270 H 884.978 -3.18493 -5.99782 0
M  V30 9271 H 882.924 -0.994257 -6.48422 0
M  V30 9272 H 882.841 -2.61466 -7.09346 0
M  V30 9273 H 884.109 -1.55741 -7.63783 0
M  V30 9274 N 888.338 1.20213 -1.01915 0
M  V30 9275 C 889.615 1.85348 -0.62495 0
M  V30 9276 C 889.995 1.91101 0.896854 0
M  V30 9277 O 889.343 1.42075 1.78961 0
M  V30 9278 C 889.553 3.24849 -1.27571 0
M  V30 9279 C 890.901 4.01107 -1.39277 0
M  V30 9280 O 891.925 3.34211 -1.23212 0
M  V30 9281 O 890.784 5.20914 -1.6526 0
M  V30 9282 H 887.878 0.798303 -0.215965 0
M  V30 9283 H 890.424 1.27782 -1.11669 0
M  V30 9284 H 889.196 3.1544 -2.31545 0
M  V30 9285 H 888.819 3.90049 -0.77122 0
M  V30 9286 N 889.816 0.795718 1.36037 0
M  V30 9287 C 891.065 0.367575 1.98322 0
M  V30 9288 C 891.378 -1.06823 1.63854 0
M  V30 9289 O 892.584 -1.59895 2.19421 0
M  V30 9290 C 891.04 0.606272 3.54757 0
M  V30 9291 C 890.648 2.0539 3.98144 0
M  V30 9292 C 892.392 0.242947 4.23804 0
M  V30 9293 C 890.299 2.23893 5.47381 0
M  V30 9294 H 889.229 0.133699 0.742052 0
M  V30 9295 H 891.88 0.978242 1.5525 0
M  V30 9296 H 890.262 -0.0741957 3.9593 0
M  V30 9297 H 891.436 2.77129 3.68152 0
M  V30 9298 H 889.751 2.37607 3.41953 0
M  V30 9299 H 892.348 0.359382 5.33491 0
M  V30 9300 H 892.691 -0.809661 4.08351 0
M  V30 9301 H 893.224 0.876899 3.88015 0
M  V30 9302 H 889.963 3.27559 5.6779 0
M  V30 9303 H 889.483 1.56666 5.78978 0
M  V30 9304 H 891.162 2.04914 6.13693 0
M  V30 9305 N 891.294 -1.47756 0.548274 0
M  V30 9306 C 892.241 -2.29893 -0.204408 0
M  V30 9307 C 893.211 -1.38509 -0.916761 0
M  V30 9308 O 894.396 -1.67472 -0.91421 0
M  V30 9309 C 891.536 -3.22282 -1.23403 0
M  V30 9310 C 890.649 -4.28753 -0.528654 0
M  V30 9311 C 889.784 -5.08303 -1.54279 0
M  V30 9312 C 888.823 -6.06557 -0.821893 0
M  V30 9313 N 887.96 -6.79098 -1.78243 0
M  V30 9314 H 892.8 -2.93739 0.502163 0
M  V30 9315 H 890.337 -1.44793 0.259471 0
M  V30 9316 H 892.295 -3.74262 -1.84348 0
M  V30 9317 H 890.925 -2.6032 -1.90875 0
M  V30 9318 H 889.977 -3.79899 0.195132 0
M  V30 9319 H 891.289 -4.98787 0.0365066 0
M  V30 9320 H 890.443 -5.64388 -2.22602 0
M  V30 9321 H 889.182 -4.3815 -2.14186 0
M  V30 9322 H 888.187 -5.49659 -0.12469 0
M  V30 9323 H 889.412 -6.78715 -0.228685 0
M  V30 9324 H 887.358 -6.11682 -2.37025 0
M  V30 9325 H 887.275 -7.4527 -1.26919 0
M  V30 9326 H 888.543 -7.39762 -2.45709 0
M  V30 9327 N 892.772 -0.284283 -1.55015 0
M  V30 9328 C 893.702 0.592663 -2.25853 0
M  V30 9329 C 894.683 1.15151 -1.25197 0
M  V30 9330 O 895.868 1.18395 -1.53936 0
M  V30 9331 C 892.998 1.77254 -2.98661 0
M  V30 9332 C 891.952 1.34482 -4.06323 0
M  V30 9333 C 891.278 2.60853 -4.66754 0
M  V30 9334 C 892.578 0.488288 -5.20013 0
M  V30 9335 H 894.272 0.00187041 -2.994 0
M  V30 9336 H 891.818 -0.000540402 -1.44 0
M  V30 9337 H 893.771 2.39199 -3.46932 0
M  V30 9338 H 892.495 2.38931 -2.22664 0
M  V30 9339 H 891.154 0.748519 -3.58877 0
M  V30 9340 H 890.802 3.20808 -3.87416 0
M  V30 9341 H 890.502 2.32942 -5.39455 0
M  V30 9342 H 892.026 3.23631 -5.1778 0
M  V30 9343 H 893.44 1.01298 -5.6428 0
M  V30 9344 H 891.837 0.303669 -5.99331 0
M  V30 9345 H 892.907 -0.490727 -4.8241 0
M  V30 9346 N 894.251 1.57596 -0.0117121 0
M  V30 9347 C 895.479 1.9536 0.681334 0
M  V30 9348 C 895.894 0.887255 1.66653 0
M  V30 9349 O 895.251 -0.132692 1.82017 0
M  V30 9350 C 895.302 3.33165 1.40298 0
M  V30 9351 O 895.023 4.35707 0.45728 0
M  V30 9352 C 896.524 3.85458 2.18946 0
M  V30 9353 H 893.744 0.643826 0.189023 0
M  V30 9354 H 896.288 2.04392 -0.066311 0
M  V30 9355 H 894.443 3.25404 2.10216 0
M  V30 9356 H 894.857 5.15495 0.96773 0
M  V30 9357 H 896.331 4.84275 2.64918 0
M  V30 9358 H 896.808 3.18781 3.02118 0
M  V30 9359 H 897.414 3.96431 1.5402 0
M  V30 9360 N 895.729 -0.261212 1.5542 0
M  V30 9361 C 896.692 -1.30645 1.8832 0
M  V30 9362 C 897.692 -1.41782 0.758588 0
M  V30 9363 O 898.882 -1.40729 1.02669 0
M  V30 9364 C 896.014 -2.6862 2.09895 0
M  V30 9365 H 897.207 -1.02698 2.81768 0
M  V30 9366 H 894.76 -0.499838 1.48092 0
M  V30 9367 H 895.495 -3.0173 1.18868 0
M  V30 9368 H 895.28 -2.61921 2.91787 0
M  V30 9369 H 896.77 -3.44121 2.36581 0
M  V30 9370 N 897.207 -1.48554 -0.526253 0
M  V30 9371 C 898.454 -1.56761 -1.28188 0
M  V30 9372 C 898.782 -0.24315 -1.92974 0
M  V30 9373 O 898.037 0.766883 -1.80048 0
M  V30 9374 C 898.336 -2.65739 -2.38993 0
M  V30 9375 C 898.002 -4.08057 -1.91834 0
M  V30 9376 C 896.664 -4.46792 -1.78691 0
M  V30 9377 C 899.016 -4.9723 -1.56242 0
M  V30 9378 C 896.344 -5.72501 -1.28296 0
M  V30 9379 C 898.696 -6.23432 -1.07309 0
M  V30 9380 C 897.36 -6.6102 -0.927853 0
M  V30 9381 H 896.63 -0.573631 -0.469072 0
M  V30 9382 H 899.277 -1.82287 -0.586842 0
M  V30 9383 H 897.582 -2.34088 -3.14181 0
M  V30 9384 H 899.279 -2.69304 -2.97113 0
M  V30 9385 H 895.869 -3.77469 -2.03016 0
M  V30 9386 H 900.053 -4.67979 -1.65255 0
M  V30 9387 H 895.309 -6.00345 -1.15742 0
M  V30 9388 H 899.483 -6.91923 -0.788412 0
M  V30 9389 H 897.11 -7.58314 -0.535162 0
M  V30 9390 N 898.685 0.775411 -1.37205 0
M  V30 9391 C 900.096 1.35147 -1.28811 0
M  V30 9392 C 900.447 1.96089 0.0659168 0
M  V30 9393 O 899.572 1.93558 0.967684 0
M  V30 9394 C 900.167 2.45715 -2.33258 0
M  V30 9395 C 898.726 2.99099 -2.2851 0
M  V30 9396 C 897.873 1.72286 -2.17285 0
M  V30 9397 H 900.824 0.575954 -1.4788 0
M  V30 9398 H 900.845 3.251 -1.97712 0
M  V30 9399 H 900.357 2.01331 -3.31795 0
M  V30 9400 H 898.458 3.47868 -1.33485 0
M  V30 9401 H 898.571 3.54962 -3.21774 0
M  V30 9402 H 896.935 1.95068 -1.6377 0
M  V30 9403 H 897.718 1.3001 -3.1773 0
M  V30 9404 N 900.163 1.21714 1.00117 0
M  V30 9405 C 901.388 1.06357 1.78054 0
M  V30 9406 C 901.813 -0.382075 1.84179 0
M  V30 9407 O 901.171 -1.27575 1.28819 0
M  V30 9408 C 901.219 1.66982 3.19608 0
M  V30 9409 O 900.323 0.917892 4.02055 0
M  V30 9410 H 899.664 0.374074 0.548602 0
M  V30 9411 H 902.194 1.61338 1.25822 0
M  V30 9412 H 902.204 1.71363 3.70268 0
M  V30 9413 H 900.879 2.72185 3.14465 0
M  V30 9414 H 899.456 0.949473 3.6061 0
M  V30 9415 N 901.641 -1.19671 1.02551 0
M  V30 9416 C 902.551 -2.26441 0.613329 0
M  V30 9417 C 903.567 -1.70375 -0.353339 0
M  V30 9418 O 904.743 -2.0028 -0.212064 0
M  V30 9419 C 901.808 -3.46684 -0.0329028 0
M  V30 9420 C 900.869 -4.17945 0.980837 0
M  V30 9421 C 900.102 -5.32448 0.36535 0
M  V30 9422 O 900.325 -5.64291 -0.832596 0
M  V30 9423 O 899.259 -5.92012 1.08652 0
M  V30 9424 H 903.085 -2.63932 1.50246 0
M  V30 9425 H 900.67 -1.2646 0.795502 0
M  V30 9426 H 902.552 -4.1956 -0.393395 0
M  V30 9427 H 901.227 -3.1105 -0.896089 0
M  V30 9428 H 900.134 -3.47204 1.39286 0
M  V30 9429 H 901.467 -4.57542 1.81428 0
M  V30 9430 N 903.119 -0.802921 -1.35613 0
M  V30 9431 C 904.344 -0.392846 -2.03645 0
M  V30 9432 C 904.769 0.987075 -1.6012 0
M  V30 9433 O 904.127 1.63849 -0.776101 0
M  V30 9434 C 904.175 -0.480208 -3.57388 0
M  V30 9435 O 903.279 0.507751 -4.09262 0
M  V30 9436 H 902.62 -0.16464 -0.643265 0
M  V30 9437 H 905.15 -1.08779 -1.73287 0
M  V30 9438 H 905.16 -0.348683 -4.06507 0
M  V30 9439 H 903.835 -1.48675 -3.88418 0
M  V30 9440 H 902.412 0.336769 -3.71376 0
M  V30 9441 N 904.597 1.47463 -0.556102 0
M  V30 9442 C 905.843 2.02775 -0.0316806 0
M  V30 9443 C 906.176 1.42967 1.3143 0
M  V30 9444 O 905.451 0.584847 1.85499 0
M  V30 9445 C 905.734 3.60046 0.0625742 0
M  V30 9446 C 905.587 4.30288 -1.31043 0
M  V30 9447 C 906.906 4.33195 0.776553 0
M  V30 9448 H 904.025 0.736886 -0.0129869 0
M  V30 9449 H 906.667 1.75904 -0.718177 0
M  V30 9450 H 904.817 3.83071 0.647231 0
M  V30 9451 H 906.489 4.18607 -1.9382 0
M  V30 9452 H 904.732 3.90685 -1.8854 0
M  V30 9453 H 905.403 5.38861 -1.1972 0
M  V30 9454 H 907.879 4.15156 0.280147 0
M  V30 9455 H 906.755 5.42869 0.81146 0
M  V30 9456 H 907.016 4.02336 1.83244 0
M  V30 9457 N 906.075 0.2925 1.54862 0
M  V30 9458 C 907.022 -0.587365 2.23201 0
M  V30 9459 C 907.992 -1.13623 1.21157 0
M  V30 9460 O 909.177 -1.18233 1.49752 0
M  V30 9461 C 906.317 -1.75745 2.96998 0
M  V30 9462 C 905.43 -1.24078 4.13798 0
M  V30 9463 C 904.565 -2.37405 4.75197 0
M  V30 9464 C 903.604 -1.82829 5.84157 0
M  V30 9465 N 902.741 -2.89696 6.39547 0
M  V30 9466 H 907.581 0.00202207 2.98 0
M  V30 9467 H 905.118 0.012766 1.47094 0
M  V30 9468 H 907.076 -2.44549 3.38011 0
M  V30 9469 H 905.706 -2.3186 2.24591 0
M  V30 9470 H 904.758 -0.445268 3.77785 0
M  V30 9471 H 906.07 -0.801186 4.92324 0
M  V30 9472 H 905.224 -3.14172 5.19019 0
M  V30 9473 H 903.963 -2.84688 3.95985 0
M  V30 9474 H 902.968 -1.04548 5.39768 0
M  V30 9475 H 904.193 -1.36461 6.65248 0
M  V30 9476 H 902.139 -3.36328 5.63222 0
M  V30 9477 H 902.056 -2.50206 7.13395 0
M  V30 9478 H 903.324 -3.66386 6.88027 0
M  V30 9479 N 907.553 -1.57587 0.0200696 0
M  V30 9480 C 908.463 -2.13119 -0.980676 0
M  V30 9481 C 909.479 -1.08124 -1.36328 0
M  V30 9482 O 910.655 -1.40134 -1.44653 0
M  V30 9483 C 907.72 -2.63991 -2.24743 0
M  V30 9484 C 906.781 -3.83667 -1.9261 0
M  V30 9485 C 906.014 -4.32103 -3.13246 0
M  V30 9486 O 906.237 -3.79758 -4.25606 0
M  V30 9487 O 905.171 -5.24047 -2.96072 0
M  V30 9488 H 908.997 -2.98887 -0.538528 0
M  V30 9489 H 906.582 -1.48055 -0.19999 0
M  V30 9490 H 908.464 -2.9682 -2.99125 0
M  V30 9491 H 907.139 -1.81311 -2.68157 0
M  V30 9492 H 906.046 -3.55778 -1.15641 0
M  V30 9493 H 907.379 -4.67482 -1.54019 0
M  V30 9494 N 909.032 0.252966 -1.55557 0
M  V30 9495 C 910.28 0.979912 -1.76754 0
M  V30 9496 C 910.601 1.86083 -0.582944 0
M  V30 9497 O 909.871 1.91742 0.401497 0
M  V30 9498 H 908.451 0.364805 -0.651864 0
M  V30 9499 H 911.113 0.272372 -1.92987 0
M  V30 9500 H 910.209 1.60518 -2.67657 0
M  V30 9501 N 910.51 1.48831 0.518367 0
M  V30 9502 C 911.787 1.47933 1.27966 0
M  V30 9503 C 912.167 0.197393 2.10175 0
M  V30 9504 O 911.515 -0.820656 2.13255 0
M  V30 9505 C 911.725 2.74816 2.15121 0
M  V30 9506 C 913.073 3.23613 2.74881 0
M  V30 9507 O 914.097 2.75814 2.254 0
M  V30 9508 O 912.956 4.06818 3.64913 0
M  V30 9509 H 910.05 0.591316 0.578164 0
M  V30 9510 H 912.596 1.61077 0.534065 0
M  V30 9511 H 911.368 3.59621 1.54234 0
M  V30 9512 H 910.991 2.64449 2.96905 0
M  V30 9513 N 911.988 -0.768124 1.37614 0
M  V30 9514 C 913.216 -1.55726 1.36224 0
M  V30 9515 C 913.631 -1.8873 -0.0515357 0
M  V30 9516 O 912.988 -1.51718 -1.0143 0
M  V30 9517 C 913.039 -2.86533 2.20412 0
M  V30 9518 O 912.76 -2.54942 3.56281 0
M  V30 9519 C 914.261 -3.80745 2.27041 0
M  V30 9520 H 911.481 -0.482325 0.46648 0
M  V30 9521 H 914.025 -0.95176 1.81002 0
M  V30 9522 H 912.18 -3.43496 1.79134 0
M  V30 9523 H 912.594 -3.38732 4.00451 0
M  V30 9524 H 914.068 -4.69523 2.90263 0
M  V30 9525 H 914.545 -4.20138 1.27987 0
M  V30 9526 H 915.151 -3.2971 2.68647 0
M  V30 9527 N 913.466 -1.22244 -0.994698 0
M  V30 9528 C 914.712 -1.04746 -1.73655 0
M  V30 9529 C 915.045 0.41668 -1.89677 0
M  V30 9530 O 914.32 1.30897 -1.43862 0
M  V30 9531 C 914.603 -1.75716 -3.14318 0
M  V30 9532 C 914.456 -3.29714 -3.05955 0
M  V30 9533 C 915.775 -1.50809 -4.13455 0
M  V30 9534 H 912.894 -0.381921 -0.630322 0
M  V30 9535 H 915.536 -1.50559 -1.15897 0
M  V30 9536 H 913.686 -1.3677 -3.63629 0
M  V30 9537 H 915.358 -3.78093 -2.64279 0
M  V30 9538 H 913.601 -3.59484 -2.42804 0
M  V30 9539 H 914.272 -3.74547 -4.05485 0
M  V30 9540 H 916.748 -1.84636 -3.72892 0
M  V30 9541 H 915.624 -2.02964 -5.09997 0
M  V30 9542 H 915.885 -0.440292 -4.39902 0
M  V30 9543 N 914.944 1.19125 -1.03184 0
M  V30 9544 C 916.193 1.8821 -0.725264 0
M  V30 9545 C 916.506 1.80674 0.749411 0
M  V30 9546 O 917.712 2.45037 1.16915 0
M  V30 9547 C 916.168 3.37607 -1.24697 0
M  V30 9548 C 915.776 3.53693 -2.74964 0
M  V30 9549 C 917.52 4.12149 -1.01652 0
M  V30 9550 C 915.427 4.97001 -3.20538 0
M  V30 9551 H 914.357 0.704916 -0.267599 0
M  V30 9552 H 917.008 1.34663 -1.24652 0
M  V30 9553 H 915.39 3.90569 -0.653614 0
M  V30 9554 H 916.564 3.11046 -3.39981 0
M  V30 9555 H 914.879 2.92544 -2.96322 0
M  V30 9556 H 917.476 5.17837 -1.33226 0
M  V30 9557 H 917.819 4.16274 0.0465712 0
M  V30 9558 H 918.352 3.65334 -1.57403 0
M  V30 9559 H 915.091 4.9804 -4.26189 0
M  V30 9560 H 914.611 5.40398 -2.60251 0
M  V30 9561 H 916.29 5.65669 -3.14049 0
M  V30 9562 N 916.422 0.810101 1.35185 0
M  V30 9563 C 917.671 0.388589 1.97921 0
M  V30 9564 C 917.984 -1.05079 1.64978 0
M  V30 9565 O 919.19 -1.57559 2.21105 0
M  V30 9566 C 917.646 0.643864 3.54094 0
M  V30 9567 C 917.254 2.09602 3.95943 0
M  V30 9568 C 918.998 0.287883 4.23523 0
M  V30 9569 C 916.905 2.29686 5.44976 0
M  V30 9570 H 915.835 0.141562 0.740592 0
M  V30 9571 H 918.486 0.994653 1.54204 0
M  V30 9572 H 916.868 -0.0321978 3.95987 0
M  V30 9573 H 918.042 2.81018 3.65192 0
M  V30 9574 H 916.357 2.4122 3.39414 0
M  V30 9575 H 918.954 0.415946 5.3308 0
M  V30 9576 H 919.297 -0.766305 4.09186 0
M  V30 9577 H 919.83 0.918004 3.87063 0
M  V30 9578 H 916.569 3.33563 5.64284 0
M  V30 9579 H 916.089 1.62798 5.77284 0
M  V30 9580 H 917.768 2.11411 6.11485 0
M  V30 9581 N 917.9 -1.47166 0.563914 0
M  V30 9582 C 919.125 -2.0735 0.0454698 0
M  V30 9583 C 919.55 -1.41281 -1.24182 0
M  V30 9584 O 918.908 -0.490084 -1.7455 0
M  V30 9585 C 918.956 -3.60378 -0.126453 0
M  V30 9586 O 918.06 -3.94934 -1.18746 0
M  V30 9587 H 917.401 -0.661773 0.0543377 0
M  V30 9588 H 919.931 -1.89086 0.781508 0
M  V30 9589 H 919.941 -4.06593 -0.338554 0
M  V30 9590 H 918.616 -4.07862 0.81373 0
M  V30 9591 H 917.193 -3.60455 -0.955318 0
M  V30 9592 N 919.378 -0.300708 -1.54705 0
M  V30 9593 C 920.618 0.30953 -2.02043 0
M  V30 9594 C 920.982 1.51114 -1.18442 0
M  V30 9595 O 922.183 2.19273 -1.55477 0
M  V30 9596 C 920.454 0.657489 -3.513 0
M  V30 9597 S 922.013 1.25063 -4.206 0
M  V30 9598 H 918.831 0.0950019 -0.704624 0
M  V30 9599 H 921.433 -0.428512 -1.90746 0
M  V30 9600 H 920.137 -0.225532 -4.0978 0
M  V30 9601 H 919.668 1.42633 -3.66633 0
M  V30 9602 H 921.683 2.53844 -4.26354 0
M  V30 9603 N 920.856 1.57574 -0.0284266 0
M  V30 9604 C 922.084 1.96071 0.660575 0
M  V30 9605 C 922.499 0.904881 1.65703 0
M  V30 9606 O 921.856 -0.113379 1.82147 0
M  V30 9607 C 921.907 3.34634 1.36756 0
M  V30 9608 O 921.628 4.36167 0.411041 0
M  V30 9609 C 923.129 3.87758 2.14845 0
M  V30 9610 H 920.349 0.645794 0.182183 0
M  V30 9611 H 922.893 2.04311 -0.0879858 0
M  V30 9612 H 921.048 3.27616 2.06753 0
M  V30 9613 H 921.462 5.16493 0.913 0
M  V30 9614 H 922.936 4.87058 2.59767 0
M  V30 9615 H 923.413 3.21967 2.9872 0
M  V30 9616 H 924.019 3.98043 1.49807 0
M  V30 9617 N 922.334 -0.244713 1.55689 0
M  V30 9618 C 923.574 -0.979776 1.79387 0
M  V30 9619 C 923.938 -1.8244 0.598298 0
M  V30 9620 O 925.139 -2.59141 0.7141 0
M  V30 9621 C 923.41 -1.81573 3.07841 0
M  V30 9622 S 924.969 -2.60959 3.52769 0
M  V30 9623 H 921.787 -0.329526 0.630027 0
M  V30 9624 H 924.389 -0.247435 1.93928 0
M  V30 9625 H 923.093 -1.18497 3.92921 0
M  V30 9626 H 922.624 -2.59078 2.96044 0
M  V30 9627 H 924.639 -3.83987 3.14275 0
M  V30 9628 N 923.813 -1.49104 -0.510467 0
M  V30 9629 C 925.061 -1.578 -1.26268 0
M  V30 9630 C 925.382 -0.262349 -1.93227 0
M  V30 9631 O 924.652 0.717624 -1.82283 0
M  V30 9632 H 923.232 -0.581387 -0.46904 0
M  V30 9633 H 925.894 -1.85678 -0.592423 0
M  V30 9634 H 924.99 -2.36919 -2.03165 0
M  V30 9635 N 925.291 0.760815 -1.38019 0
M  V30 9636 C 926.239 1.89578 -1.34771 0
M  V30 9637 C 927.233 1.67766 -0.234714 0
M  V30 9638 O 928.439 1.75423 -0.403352 0
M  V30 9639 H 924.814 0.623608 -0.420258 0
M  V30 9640 H 926.785 1.89434 -2.30558 0
M  V30 9641 C 925.534 3.26976 -1.18246 0
M  V30 9642 H 924.857 3.44342 -2.03147 0
M  V30 9643 H 926.297 4.06657 -1.20026 0
M  V30 9644 C 924.756 3.36717 0.111145 0
M  V30 9645 O 925.286 3.86607 1.09079 0
M  V30 9646 N 923.492 2.90128 0.165542 0
M  V30 9647 H 923.039 2.49719 -0.632328 0
M  V30 9648 H 922.997 2.97026 1.03067 0
M  V30 9649 N 926.769 1.22769 0.988202 0
M  V30 9650 C 928.015 1.05665 1.73097 0
M  V30 9651 C 928.348 -0.406615 1.89895 0
M  V30 9652 O 927.623 -1.30132 1.44554 0
M  V30 9653 C 927.906 1.77381 3.13382 0
M  V30 9654 C 927.759 3.31332 3.04203 0
M  V30 9655 C 929.078 1.52999 4.12649 0
M  V30 9656 H 926.197 0.385258 0.628288 0
M  V30 9657 H 928.839 1.51171 1.15097 0
M  V30 9658 H 926.989 1.38696 3.62899 0
M  V30 9659 H 928.661 3.79489 2.6227 0
M  V30 9660 H 926.904 3.60767 2.40894 0
M  V30 9661 H 927.575 3.76692 4.03493 0
M  V30 9662 H 930.051 1.86611 3.71908 0
M  V30 9663 H 928.927 2.05666 5.08913 0
M  V30 9664 H 929.188 0.463615 4.39662 0
M  V30 9665 N 928.247 -1.18576 1.03814 0
M  V30 9666 C 929.658 -1.70159 0.768299 0
M  V30 9667 C 930.009 -1.8286 -0.711106 0
M  V30 9668 O 929.134 -1.5063 -1.55369 0
M  V30 9669 C 929.729 -3.09062 1.38804 0
M  V30 9670 C 928.288 -3.57866 1.16656 0
M  V30 9671 C 927.435 -2.34484 1.48029 0
M  V30 9672 H 930.386 -1.03287 1.20488 0
M  V30 9673 H 930.407 -3.72211 0.7899 0
M  V30 9674 H 929.919 -2.99785 2.46476 0
M  V30 9675 H 928.02 -3.72442 0.108471 0
M  V30 9676 H 928.133 -4.41445 1.8618 0
M  V30 9677 H 926.497 -2.38273 0.899902 0
M  V30 9678 H 927.28 -2.27829 2.56805 0
M  V30 9679 N 929.725 -0.817259 -1.34754 0
M  V30 9680 C 930.635 -0.236946 -2.334 0
M  V30 9681 C 931.651 0.625685 -1.62361 0
M  V30 9682 O 932.827 0.534921 -1.94166 0
M  V30 9683 C 929.892 0.596215 -3.41535 0
M  V30 9684 C 928.953 -0.288154 -4.28332 0
M  V30 9685 C 928.186 0.505337 -5.31302 0
M  V30 9686 O 928.409 1.73912 -5.43241 0
M  V30 9687 O 927.343 -0.109374 -6.01801 0
M  V30 9688 H 931.169 -1.05327 -2.84851 0
M  V30 9689 H 928.754 -0.579275 -1.37713 0
M  V30 9690 H 930.636 1.07041 -4.07578 0
M  V30 9691 H 929.311 1.38997 -2.92338 0
M  V30 9692 H 928.218 -0.809724 -3.65232 0
M  V30 9693 H 929.551 -1.04612 -4.80955 0
M  V30 9694 N 931.203 1.46865 -0.571711 0
M  V30 9695 C 932.431 2.06818 -0.0583975 0
M  V30 9696 C 932.846 1.42218 1.24175 0
M  V30 9697 O 932.203 0.523655 1.74826 0
M  V30 9698 C 932.254 3.61281 0.125673 0
M  V30 9699 O 931.975 4.23462 -1.123 0
M  V30 9700 C 933.476 4.38137 0.674604 0
M  V30 9701 H 930.696 0.668948 -0.052438 0
M  V30 9702 H 933.24 1.88656 -0.789251 0
M  V30 9703 H 931.395 3.78908 0.806707 0
M  V30 9704 H 931.809 5.16192 -0.929869 0
M  V30 9705 H 933.283 5.46845 0.752626 0
M  V30 9706 H 933.76 4.05419 1.68915 0
M  V30 9707 H 934.366 4.2529 0.0287979 0
M  V30 9708 N 932.681 0.308908 1.54543 0
M  V30 9709 C 933.927 -0.291311 2.01303 0
M  V30 9710 C 934.282 -1.50917 1.19339 0
M  V30 9711 O 933.575 -1.89776 0.263724 0
M  V30 9712 C 933.769 -0.691522 3.50646 0
M  V30 9713 C 933.598 0.486007 4.47066 0
M  V30 9714 C 932.368 0.980515 4.95695 0
M  V30 9715 C 934.566 1.33352 4.96711 0
M  V30 9716 N 932.548 2.12398 5.75986 0
M  V30 9717 C 933.919 2.32436 5.74781 0
M  V30 9718 C 935.974 1.36298 4.78881 0
M  V30 9719 C 934.677 3.34252 6.36921 0
M  V30 9720 C 936.703 2.36976 5.41845 0
M  V30 9721 C 936.065 3.34789 6.19755 0
M  V30 9722 H 932.164 -0.0708418 0.778785 0
M  V30 9723 H 934.748 0.440621 1.89649 0
M  V30 9724 H 932.919 -1.39261 3.62575 0
M  V30 9725 H 934.651 -1.27196 3.84192 0
M  V30 9726 H 931.406 0.55419 4.70346 0
M  V30 9727 H 931.83 2.70036 6.20814 0
M  V30 9728 H 936.472 0.620472 4.18222 0
M  V30 9729 H 934.19 4.09417 6.96709 0
M  V30 9730 H 937.776 2.40039 5.29974 0
M  V30 9731 H 936.656 4.11418 6.67611 0
M  V30 9732 N 934.159 -1.57557 0.0367827 0
M  V30 9733 C 935.408 -1.91291 -0.639569 0
M  V30 9734 C 935.721 -0.915601 -1.72847 0
M  V30 9735 O 936.927 -1.14447 -2.46199 0
M  V30 9736 C 935.383 -3.39697 -1.18888 0
M  V30 9737 C 934.991 -4.47803 -0.132851 0
M  V30 9738 C 936.735 -3.82487 -1.8413 0
M  V30 9739 C 934.642 -5.87311 -0.694229 0
M  V30 9740 H 933.572 -0.713886 -0.242658 0
M  V30 9741 H 936.223 -1.83209 0.103332 0
M  V30 9742 H 934.605 -3.42736 -1.98363 0
M  V30 9743 H 935.779 -4.56334 0.640009 0
M  V30 9744 H 934.094 -4.14264 0.421264 0
M  V30 9745 H 936.691 -4.84076 -2.27101 0
M  V30 9746 H 937.034 -3.17959 -2.68716 0
M  V30 9747 H 937.567 -3.81903 -1.11332 0
M  V30 9748 H 934.306 -6.55401 0.113667 0
M  V30 9749 H 933.826 -5.82371 -1.4354 0
M  V30 9750 H 935.505 -6.36119 -1.1816 0
M  V30 9751 N 935.637 0.236453 -1.55816 0
M  V30 9752 C 936.886 0.960981 -1.77336 0
M  V30 9753 C 937.199 1.86085 -0.602641 0
M  V30 9754 O 938.405 2.62291 -0.701106 0
M  V30 9755 C 936.861 1.75884 -3.13995 0
M  V30 9756 C 936.469 0.905849 -4.38746 0
M  V30 9757 C 938.213 2.47548 -3.44848 0
M  V30 9758 C 936.12 1.7002 -5.66434 0
M  V30 9759 H 935.05 0.362547 -0.661117 0
M  V30 9760 H 937.701 0.215303 -1.82233 0
M  V30 9761 H 936.083 2.54687 -3.03234 0
M  V30 9762 H 937.257 0.159415 -4.60524 0
M  V30 9763 H 935.572 0.30205 -4.15303 0
M  V30 9764 H 938.169 3.07452 -4.37467 0
M  V30 9765 H 938.512 3.19689 -2.66655 0
M  V30 9766 H 939.045 1.75747 -3.56872 0
M  V30 9767 H 935.784 1.02234 -6.47479 0
M  V30 9768 H 935.304 2.42164 -5.48741 0
M  V30 9769 H 936.983 2.26469 -6.0607 0
M  V30 9770 N 937.115 1.49373 0.502552 0
M  V30 9771 C 938.045 1.68839 1.61294 0
M  V30 9772 C 939.026 0.537096 1.61398 0
M  V30 9773 O 940.211 0.772764 1.78163 0
M  V30 9774 C 937.341 1.75347 2.99784 0
M  V30 9775 C 936.295 2.90251 3.14545 0
M  V30 9776 C 935.621 2.8187 4.54371 0
M  V30 9777 C 936.921 4.31207 2.94717 0
M  V30 9778 H 938.615 2.61803 1.45257 0
M  V30 9779 H 936.161 1.25987 0.697371 0
M  V30 9780 H 938.114 1.87552 3.77362 0
M  V30 9781 H 936.838 0.789814 3.16906 0
M  V30 9782 H 935.497 2.77646 2.39392 0
M  V30 9783 H 935.145 1.83416 4.68367 0
M  V30 9784 H 934.845 3.5899 4.65188 0
M  V30 9785 H 936.369 2.96081 5.34012 0
M  V30 9786 H 937.783 4.44501 3.62065 0
M  V30 9787 H 936.18 5.09536 3.17007 0
M  V30 9788 H 937.25 4.45759 1.90857 0
M  V30 9789 N 938.594 -0.753485 1.38421 0
M  V30 9790 C 939.541 -1.86723 1.35659 0
M  V30 9791 C 940.511 -1.64648 0.219121 0
M  V30 9792 O 941.696 -1.86313 0.411366 0
M  V30 9793 C 938.836 -3.24023 1.18758 0
M  V30 9794 C 937.949 -3.57928 2.41892 0
M  V30 9795 C 937.084 -4.84532 2.17721 0
M  V30 9796 C 936.123 -5.11224 3.36626 0
M  V30 9797 N 935.26 -6.29023 3.11889 0
M  V30 9798 H 940.1 -1.88419 2.30873 0
M  V30 9799 H 937.637 -0.920934 1.14705 0
M  V30 9800 H 939.595 -4.03252 1.06974 0
M  V30 9801 H 938.225 -3.21654 0.27182 0
M  V30 9802 H 937.277 -2.73541 2.64347 0
M  V30 9803 H 938.589 -3.73581 3.30513 0
M  V30 9804 H 937.743 -5.71704 2.03074 0
M  V30 9805 H 936.482 -4.71018 1.26465 0
M  V30 9806 H 935.487 -4.2252 3.51791 0
M  V30 9807 H 936.712 -5.26635 4.28757 0
M  V30 9808 H 934.658 -6.16832 2.2328 0
M  V30 9809 H 934.575 -6.45177 3.9406 0
M  V30 9810 H 935.843 -7.19083 3.00898 0
M  V30 9811 N 940.072 -1.23292 -0.981677 0
M  V30 9812 C 941.019 -1.01296 -2.07383 0
M  V30 9813 C 941.989 0.069139 -1.65956 0
M  V30 9814 O 943.174 -0.0827108 -1.90621 0
M  V30 9815 C 940.314 -0.608876 -3.39686 0
M  V30 9816 C 939.427 -1.76296 -3.9439 0
M  V30 9817 C 938.562 -1.30578 -5.14901 0
M  V30 9818 C 937.601 -2.4307 -5.61768 0
M  V30 9819 N 936.738 -1.98319 -6.73509 0
M  V30 9820 H 941.578 -1.9478 -2.25532 0
M  V30 9821 H 939.115 -0.970356 -1.10555 0
M  V30 9822 H 941.073 -0.355702 -4.15681 0
M  V30 9823 H 939.703 0.288961 -3.21504 0
M  V30 9824 H 938.755 -2.13017 -3.15163 0
M  V30 9825 H 940.067 -2.60871 -4.25145 0
M  V30 9826 H 939.221 -1.01066 -5.98223 0
M  V30 9827 H 937.96 -0.430386 -4.85797 0
M  V30 9828 H 936.965 -2.73358 -4.77028 0
M  V30 9829 H 938.19 -3.31144 -5.92892 0
M  V30 9830 H 936.136 -1.13157 -6.46167 0
M  V30 9831 H 936.053 -2.76454 -7.0364 0
M  V30 9832 H 937.321 -1.71907 -7.60308 0
M  V30 9833 N 941.55 1.18024 -1.04442 0
M  V30 9834 C 942.497 2.21785 -0.638759 0
M  V30 9835 C 943.467 1.62255 0.355312 0
M  V30 9836 O 944.652 1.89176 0.24844 0
M  V30 9837 C 941.792 3.45098 -0.0118002 0
M  V30 9838 C 940.905 4.1895 -1.05379 0
M  V30 9839 C 940.04 5.2973 -0.394951 0
M  V30 9840 C 939.079 5.95359 -1.42178 0
M  V30 9841 N 938.216 6.97668 -0.787635 0
M  V30 9842 H 943.056 2.55839 -1.52808 0
M  V30 9843 H 940.593 1.25681 -0.764378 0
M  V30 9844 H 942.551 4.15564 0.369075 0
M  V30 9845 H 941.181 3.11652 0.84102 0
M  V30 9846 H 940.233 3.47274 -1.55258 0
M  V30 9847 H 941.545 4.63877 -1.83355 0
M  V30 9848 H 940.699 6.06687 0.0399244 0
M  V30 9849 H 939.438 4.85915 0.416867 0
M  V30 9850 H 938.443 5.17139 -1.86675 0
M  V30 9851 H 939.668 6.41255 -2.23536 0
M  V30 9852 H 937.614 6.56 0.00380893 0
M  V30 9853 H 937.531 7.40867 -1.50505 0
M  V30 9854 H 938.799 7.78586 -0.377282 0
M  V30 9855 N 943.028 0.824394 1.34319 0
M  V30 9856 C 943.991 0.252696 2.27803 0
M  V30 9857 C 944.991 -0.570254 1.50349 0
M  V30 9858 O 946.181 -0.386145 1.69866 0
M  V30 9859 C 943.313 -0.645575 3.34731 0
M  V30 9860 H 944.506 1.07742 2.79878 0
M  V30 9861 H 942.059 0.596367 1.44475 0
M  V30 9862 H 942.794 -1.4933 2.87873 0
M  V30 9863 H 942.579 -0.0569478 3.92059 0
M  V30 9864 H 944.069 -1.03933 4.0446 0
M  V30 9865 N 944.506 -1.46559 0.579492 0
M  V30 9866 C 945.416 -2.34066 -0.15816 0
M  V30 9867 C 946.432 -1.49556 -0.88932 0
M  V30 9868 O 947.608 -1.82434 -0.853226 0
M  V30 9869 C 944.673 -3.26683 -1.161 0
M  V30 9870 C 943.734 -4.27092 -0.434855 0
M  V30 9871 C 942.967 -5.15283 -1.38992 0
M  V30 9872 O 943.19 -5.06345 -2.62623 0
M  V30 9873 O 942.124 -5.95099 -0.902253 0
M  V30 9874 H 945.95 -2.98488 0.560234 0
M  V30 9875 H 943.535 -1.45482 0.339918 0
M  V30 9876 H 945.417 -3.8383 -1.73932 0
M  V30 9877 H 944.092 -2.64862 -1.86091 0
M  V30 9878 H 942.999 -3.73641 0.185224 0
M  V30 9879 H 944.332 -4.9169 0.224031 0
M  V30 9880 N 945.984 -0.3171 -1.54377 0
M  V30 9881 C 947.212 0.289558 -2.04864 0
M  V30 9882 C 947.627 1.46284 -1.19359 0
M  V30 9883 O 946.984 1.81135 -0.222795 0
M  V30 9884 C 947.035 0.730273 -3.54047 0
M  V30 9885 O 946.756 -0.396325 -4.36304 0
M  V30 9886 C 948.257 1.40041 -4.20599 0
M  V30 9887 H 945.477 0.0605836 -0.668259 0
M  V30 9888 H 948.021 -0.461411 -1.99227 0
M  V30 9889 H 946.176 1.43123 -3.59992 0
M  V30 9890 H 946.59 -0.0502901 -5.24476 0
M  V30 9891 H 948.064 1.65979 -5.26455 0
M  V30 9892 H 948.541 2.34565 -3.71316 0
M  V30 9893 H 949.147 0.742206 -4.18774 0
M  V30 9894 N 947.462 1.57535 -0.0451378 0
M  V30 9895 C 948.71 1.92071 0.628743 0
M  V30 9896 C 949.031 0.923635 1.71738 0
M  V30 9897 O 948.301 -0.0324376 1.95873 0
M  V30 9898 H 946.881 0.708995 0.235233 0
M  V30 9899 H 949.543 1.9466 -0.0967177 0
M  V30 9900 H 948.639 2.9314 1.07123 0
M  V30 9901 N 948.94 -0.228186 1.55939 0
M  V30 9902 C 950.217 -0.977492 1.69424 0
M  V30 9903 C 950.597 -2.02674 0.590479 0
M  V30 9904 O 949.945 -2.2491 -0.403467 0
M  V30 9905 C 950.155 -1.59394 3.10475 0
M  V30 9906 C 951.503 -2.08871 3.69673 0
M  V30 9907 O 952.527 -1.693 3.13394 0
M  V30 9908 O 951.386 -2.81584 4.68372 0
M  V30 9909 H 948.48 -0.456185 0.6898 0
M  V30 9910 H 951.026 -0.220492 1.68261 0
M  V30 9911 H 949.798 -0.835971 3.82266 0
M  V30 9912 H 949.421 -2.41665 3.15727 0
M  V30 9913 N 950.418 -1.49637 -0.494624 0
M  V30 9914 C 951.646 -1.63164 -1.2722 0
M  V30 9915 C 952.061 -0.305552 -1.86311 0
M  V30 9916 O 951.418 0.709758 -1.68133 0
M  V30 9917 C 951.469 -2.70524 -2.39789 0
M  V30 9918 O 951.19 -3.97991 -1.83126 0
M  V30 9919 C 952.691 -2.94814 -3.31058 0
M  V30 9920 H 949.911 -0.54912 -0.385627 0
M  V30 9921 H 952.455 -1.95711 -0.593081 0
M  V30 9922 H 950.61 -2.40738 -3.03519 0
M  V30 9923 H 951.024 -4.57179 -2.57075 0
M  V30 9924 H 952.498 -3.73653 -4.06309 0
M  V30 9925 H 952.975 -2.04974 -3.88436 0
M  V30 9926 H 953.581 -3.26042 -2.73088 0
M  V30 9927 N 951.896 0.746133 -1.38819 0
M  V30 9928 C 953.142 1.50768 -1.35635 0
M  V30 9929 C 953.475 1.94132 0.0512435 0
M  V30 9930 O 952.75 1.65979 1.01396 0
M  V30 9931 C 953.033 2.7551 -2.31875 0
M  V30 9932 C 952.886 2.38236 -3.81528 0
M  V30 9933 C 954.205 3.77566 -2.26124 0
M  V30 9934 H 951.324 0.546922 -0.494009 0
M  V30 9935 H 953.966 0.854017 -1.69725 0
M  V30 9936 H 952.116 3.31285 -2.02935 0
M  V30 9937 H 953.788 1.88178 -4.21173 0
M  V30 9938 H 952.031 1.70601 -3.98846 0
M  V30 9939 H 952.702 3.27517 -4.44339 0
M  V30 9940 H 955.178 3.31349 -2.51689 0
M  V30 9941 H 954.054 4.62531 -2.95561 0
M  V30 9942 H 954.315 4.23689 -1.26254 0
M  V30 9943 N 953.375 1.23811 0.975125 0
M  V30 9944 C 954.305 1.04846 2.08638 0
M  V30 9945 C 955.286 -0.0362859 1.70061 0
M  V30 9946 O 956.471 0.12937 1.93769 0
M  V30 9947 C 953.601 0.644534 3.41267 0
M  V30 9948 C 952.555 1.67722 3.93768 0
M  V30 9949 C 951.881 1.12857 5.22654 0
M  V30 9950 C 953.181 3.07147 4.22443 0
M  V30 9951 H 954.875 1.97795 2.24761 0
M  V30 9952 H 952.421 0.952397 1.08006 0
M  V30 9953 H 954.374 0.498887 4.18436 0
M  V30 9954 H 953.098 -0.320641 3.25022 0
M  V30 9955 H 951.757 1.81095 3.18748 0
M  V30 9956 H 951.405 0.154227 5.02764 0
M  V30 9957 H 951.105 1.81862 5.58749 0
M  V30 9958 H 952.629 0.994891 6.0244 0
M  V30 9959 H 954.043 2.97045 4.90344 0
M  V30 9960 H 952.44 3.73437 4.6975 0
M  V30 9961 H 953.51 3.55743 3.29507 0
M  V30 9962 N 954.853 -1.17469 1.05066 0
M  V30 9963 C 955.8 -2.21443 0.650512 0
M  V30 9964 C 956.77 -1.62441 -0.346702 0
M  V30 9965 O 957.955 -1.89305 -0.238404 0
M  V30 9966 C 955.095 -3.45087 0.0301014 0
M  V30 9967 C 954.208 -4.18385 1.07599 0
M  V30 9968 C 953.343 -5.29513 0.423038 0
M  V30 9969 C 952.382 -5.94596 1.45333 0
M  V30 9970 N 951.519 -6.97241 0.824623 0
M  V30 9971 H 956.359 -2.55025 1.54163 0
M  V30 9972 H 953.896 -1.25274 0.771032 0
M  V30 9973 H 955.854 -4.15754 -0.347032 0
M  V30 9974 H 954.484 -3.12093 -0.824481 0
M  V30 9975 H 953.536 -3.46446 1.57097 0
M  V30 9976 H 954.848 -4.62899 1.85813 0
M  V30 9977 H 954.002 -6.067 -0.00774975 0
M  V30 9978 H 952.741 -4.86129 -0.391092 0
M  V30 9979 H 951.746 -5.16142 1.89415 0
M  V30 9980 H 952.971 -6.40061 2.26934 0
M  V30 9981 H 950.917 -6.55993 0.0309804 0
M  V30 9982 H 950.834 -7.40059 1.54432 0
M  V30 9983 H 952.102 -7.78375 0.418567 0
M  V30 9984 N 956.331 -0.831506 -1.3388 0
M  V30 9985 C 957.556 -0.435954 -2.02766 0
M  V30 9986 C 957.981 0.952889 -1.62178 0
M  V30 9987 O 957.339 1.62166 -0.810681 0
M  V30 9988 C 957.387 -0.555907 -3.56289 0
M  V30 9989 O 956.491 0.420826 -4.10247 0
M  V30 9990 H 955.832 -0.178248 -0.639628 0
M  V30 9991 H 958.362 -1.1243 -1.70941 0
M  V30 9992 H 958.372 -0.434831 -4.05676 0
M  V30 9993 H 957.047 -1.56881 -3.85177 0
M  V30 9994 H 955.624 0.257919 -3.72007 0
M  V30 9995 N 957.809 1.4625 -0.587256 0
M  V30 9996 C 959.058 2.01571 -0.0722643 0
M  V30 9997 C 959.371 1.46385 1.29733 0
M  V30 9998 O 960.577 1.93554 1.90392 0
M  V30 9999 C 959.033 3.59814 -0.078579 0
M  V30 10000 C 958.641 4.23996 -1.44678 0
M  V30 10001 C 960.385 4.22776 0.382231 0
M  V30 10002 C 958.292 5.74332 -1.41057 0
M  V30 10003 H 957.222 0.753642 -0.0232461 0
M  V30 10004 H 959.873 1.67936 -0.739577 0
M  V30 10005 H 958.255 3.90546 0.654988 0
M  V30 10006 H 959.429 4.04867 -2.20043 0
M  V30 10007 H 957.744 3.73147 -1.84799 0
M  V30 10008 H 960.341 5.32983 0.428182 0
M  V30 10009 H 960.684 3.92027 1.40072 0
M  V30 10010 H 961.217 3.96687 -0.297417 0
M  V30 10011 H 957.956 6.09747 -2.40601 0
M  V30 10012 H 957.476 5.95711 -0.699185 0
M  V30 10013 H 959.155 6.37137 -1.12543 0
M  V30 10014 N 959.287 0.325282 1.54207 0
M  V30 10015 C 960.564 -0.33113 1.92777 0
M  V30 10016 C 960.944 -1.69739 1.25506 0
M  V30 10017 O 960.292 -2.24983 0.399385 0
M  V30 10018 C 960.502 -0.421636 3.46444 0
M  V30 10019 C 961.85 -0.681111 4.19101 0
M  V30 10020 O 962.874 -0.504488 3.52609 0
M  V30 10021 O 961.733 -1.02196 5.3686 0
M  V30 10022 H 958.827 -0.18943 0.805013 0
M  V30 10023 H 961.373 0.375123 1.65502 0
M  V30 10024 H 960.145 0.537862 3.87586 0
M  V30 10025 H 959.768 -1.1754 3.79829 0
M  V30 10026 N 960.765 -1.57509 0.0534917 0
M  V30 10027 C 962.013 -1.92402 -0.618548 0
M  V30 10028 C 962.334 -0.93273 -1.71246 0
M  V30 10029 O 961.604 0.0220495 -1.95888 0
M  V30 10030 H 960.184 -0.710233 -0.23147 0
M  V30 10031 H 962.846 -1.94606 0.10704 0
M  V30 10032 H 961.942 -2.93704 -1.05566 0
M  V30 10033 N 962.243 0.219913 -1.56058 0
M  V30 10034 C 963.206 1.25606 -1.91718 0
M  V30 10035 C 964.206 1.39721 -0.795912 0
M  V30 10036 O 965.396 1.37958 -1.06364 0
M  V30 10037 C 962.528 2.62961 -2.16943 0
M  V30 10038 H 963.721 0.951909 -2.84392 0
M  V30 10039 H 961.274 0.460398 -1.49365 0
M  V30 10040 H 962.009 2.98472 -1.26826 0
M  V30 10041 H 961.794 2.54093 -2.98629 0
M  V30 10042 H 963.284 3.37727 -2.45622 0
M  V30 10043 N 963.721 1.49897 0.486681 0
M  V30 10044 C 964.951 1.63599 1.2617 0
M  V30 10045 C 965.359 0.312365 1.86604 0
M  V30 10046 O 964.702 -0.713911 1.6926 0
M  V30 10047 C 964.764 2.65736 2.42125 0
M  V30 10048 C 964.428 4.09711 2.0245 0
M  V30 10049 C 965.425 4.9607 1.55596 0
M  V30 10050 C 963.11 4.55534 2.11647 0
M  V30 10051 C 965.104 6.26295 1.18462 0
M  V30 10052 C 962.791 5.85768 1.74124 0
M  V30 10053 C 963.789 6.70973 1.27608 0
M  V30 10054 O 963.477 7.98778 0.905991 0
M  V30 10055 H 963.209 0.55333 0.388332 0
M  V30 10056 H 965.763 1.96768 0.589195 0
M  V30 10057 H 963.993 2.27778 3.12497 0
M  V30 10058 H 965.682 2.68819 3.04123 0
M  V30 10059 H 966.448 4.61891 1.47925 0
M  V30 10060 H 962.327 3.8937 2.46803 0
M  V30 10061 H 965.871 6.92754 0.820839 0
M  V30 10062 H 961.768 6.19473 1.8145 0
M  V30 10063 H 962.536 8.11914 1.03621 0
M  V30 10064 N 965.199 -0.738761 1.39212 0
M  V30 10065 C 966.427 -1.52801 1.39497 0
M  V30 10066 C 966.842 -1.88797 -0.0114917 0
M  V30 10067 O 966.199 -1.53835 -0.981887 0
M  V30 10068 C 966.25 -2.81793 2.2644 0
M  V30 10069 O 965.971 -2.47328 3.61608 0
M  V30 10070 C 967.472 -3.75844 2.35067 0
M  V30 10071 H 964.692 -0.472322 0.476606 0
M  V30 10072 H 967.236 -0.913153 1.8298 0
M  V30 10073 H 965.391 -3.3962 1.8638 0
M  V30 10074 H 965.805 -3.30162 4.07545 0
M  V30 10075 H 967.279 -4.6326 3.00157 0
M  V30 10076 H 967.756 -4.17329 1.3687 0
M  V30 10077 H 968.362 -3.23937 2.75581 0
M  V30 10078 N 966.677 -1.24326 -0.968545 0
M  V30 10079 C 967.926 -1.07647 -1.70572 0
M  V30 10080 C 968.239 0.384821 -1.91777 0
M  V30 10081 O 969.445 0.671782 -2.63058 0
M  V30 10082 C 967.901 -1.87799 -3.07017 0
M  V30 10083 C 967.509 -3.38333 -2.93658 0
M  V30 10084 C 969.253 -1.79647 -3.84613 0
M  V30 10085 C 967.16 -4.10831 -4.25407 0
M  V30 10086 H 966.09 -0.399216 -0.639642 0
M  V30 10087 H 968.741 -1.484 -1.07934 0
M  V30 10088 H 967.123 -1.3986 -3.7048 0
M  V30 10089 H 968.297 -3.93845 -2.39213 0
M  V30 10090 H 966.612 -3.47427 -2.29528 0
M  V30 10091 H 969.209 -2.31116 -4.82172 0
M  V30 10092 H 969.552 -0.761553 -4.09275 0
M  V30 10093 H 970.085 -2.25261 -3.27875 0
M  V30 10094 H 966.824 -5.14679 -4.05939 0
M  V30 10095 H 966.344 -3.60105 -4.79671 0
M  V30 10096 H 968.023 -4.17783 -4.94031 0
M  V30 10097 N 968.156 1.1691 -1.05688 0
M  V30 10098 C 969.572 1.39288 -0.779167 0
M  V30 10099 C 969.772 1.91587 0.624231 0
M  V30 10100 O 968.828 2.11072 1.38582 0
M  V30 10101 C 970.141 2.37914 -1.83895 0
M  V30 10102 C 971.689 2.51611 -1.86175 0
M  V30 10103 C 972.164 3.53514 -2.9119 0
M  V30 10104 N 973.655 3.61036 -2.90184 0
M  V30 10105 C 974.39 4.39657 -3.68088 0
M  V30 10106 N 973.886 5.21752 -4.55793 0
M  V30 10107 N 975.679 4.3458 -3.56507 0
M  V30 10108 H 967.83 0.81296 -1.96226 0
M  V30 10109 H 970.093 0.419818 -0.849975 0
M  V30 10110 H 969.799 2.06568 -2.84645 0
M  V30 10111 H 969.673 3.37483 -1.68479 0
M  V30 10112 H 972.06 2.82264 -0.86087 0
M  V30 10113 H 972.141 1.52099 -2.05668 0
M  V30 10114 H 971.785 3.23599 -3.91467 0
M  V30 10115 H 971.715 4.52742 -2.68947 0
M  V30 10116 H 974.206 3.02428 -2.26596 0
M  V30 10117 H 974.519 5.78939 -5.11907 0
M  V30 10118 H 972.864 5.21116 -4.59851 0
M  V30 10119 H 976.055 3.69501 -2.87379 0
M  V30 10120 H 976.228 4.95607 -4.17466 0
M  V30 10121 N 969.634 0.838594 1.33437 0
M  V30 10122 C 970.581 0.269609 2.2922 0
M  V30 10123 C 971.551 -0.614429 1.54318 0
M  V30 10124 O 972.736 -0.552756 1.82618 0
M  V30 10125 C 969.876 -0.549527 3.40697 0
M  V30 10126 C 968.989 0.358502 4.3051 0
M  V30 10127 C 968.124 -0.471709 5.29101 0
M  V30 10128 C 967.163 0.434728 6.10554 0
M  V30 10129 N 966.3 -0.357339 7.0119 0
M  V30 10130 H 971.14 1.09172 2.77282 0
M  V30 10131 H 968.677 0.549832 1.36438 0
M  V30 10132 H 970.635 -1.03992 4.04032 0
M  V30 10133 H 969.265 -1.33661 2.93828 0
M  V30 10134 H 968.317 0.967204 3.67899 0
M  V30 10135 H 969.629 1.05483 4.87519 0
M  V30 10136 H 968.783 -1.02594 5.97963 0
M  V30 10137 H 967.522 -1.20147 4.72669 0
M  V30 10138 H 966.527 1.00097 5.40611 0
M  V30 10139 H 967.752 1.16285 6.6907 0
M  V30 10140 H 965.698 -1.07049 6.47207 0
M  V30 10141 H 965.615 0.280277 7.5548 0
M  V30 10142 H 966.883 -0.893814 7.74359 0
M  V30 10143 N 971.112 -1.45937 0.595003 0
M  V30 10144 C 972.075 -2.2888 -0.121102 0
M  V30 10145 C 973.075 -1.39075 -0.807149 0
M  V30 10146 O 974.265 -1.61326 -0.657228 0
M  V30 10147 C 971.397 -3.19778 -1.1813 0
M  V30 10148 H 972.59 -2.93673 0.607968 0
M  V30 10149 H 970.143 -1.5225 0.353495 0
M  V30 10150 H 970.878 -2.59759 -1.94154 0
M  V30 10151 H 970.663 -3.85914 -0.693724 0
M  V30 10152 H 972.153 -3.82176 -1.68319 0
M  V30 10153 N 972.59 -0.333456 -1.54032 0
M  V30 10154 C 973.522 0.562174 -2.22199 0
M  V30 10155 C 974.535 1.07202 -1.22522 0
M  V30 10156 O 975.724 0.983897 -1.48935 0
M  V30 10157 C 972.824 1.78525 -2.88066 0
M  V30 10158 C 971.997 1.41242 -4.13968 0
M  V30 10159 C 971.056 2.49408 -4.63338 0
M  V30 10160 O 970.082 2.13138 -5.27789 0
M  V30 10161 N 971.284 3.805 -4.38406 0
M  V30 10162 H 974.049 -0.0215629 -2.99692 0
M  V30 10163 H 971.61 -0.157111 -1.61136 0
M  V30 10164 H 973.602 2.50298 -3.18014 0
M  V30 10165 H 972.172 2.2766 -2.14219 0
M  V30 10166 H 971.392 0.525887 -3.90676 0
M  V30 10167 H 972.68 1.13916 -4.95884 0
M  V30 10168 H 972.078 4.12761 -3.86839 0
M  V30 10169 H 970.635 4.48474 -4.72984 0
M  V30 10170 N 974.068 1.57479 -0.061844 0
M  V30 10171 C 974.998 2.15181 0.9066 0
M  V30 10172 C 975.979 1.07624 1.31724 0
M  V30 10173 O 977.164 1.35614 1.39006 0
M  V30 10174 C 974.294 2.70542 2.17771 0
M  V30 10175 C 973.248 3.83178 1.9068 0
M  V30 10176 C 972.574 4.25099 3.24337 0
M  V30 10177 C 973.874 5.07853 1.21994 0
M  V30 10178 H 975.568 2.96355 0.42594 0
M  V30 10179 H 973.114 1.42556 0.203435 0
M  V30 10180 H 975.067 3.09552 2.85929 0
M  V30 10181 H 973.791 1.86575 2.68062 0
M  V30 10182 H 972.45 3.44656 1.24931 0
M  V30 10183 H 972.098 3.38069 3.72449 0
M  V30 10184 H 971.798 5.01021 3.07005 0
M  V30 10185 H 973.322 4.66718 3.93709 0
M  V30 10186 H 974.736 5.44242 1.80204 0
M  V30 10187 H 973.133 5.88987 1.14954 0
M  V30 10188 H 974.203 4.84497 0.197536 0
M  V30 10189 N 975.546 -0.211634 1.56173 0
M  V30 10190 C 976.493 -1.26231 1.93221 0
M  V30 10191 C 977.463 -1.46076 0.790641 0
M  V30 10192 O 978.648 -1.59482 1.04739 0
M  V30 10193 C 975.788 -2.60559 2.26281 0
M  V30 10194 C 974.901 -2.48431 3.5342 0
M  V30 10195 C 974.036 -3.7535 3.7588 0
M  V30 10196 C 973.075 -3.57985 4.96501 0
M  V30 10197 N 972.212 -4.76877 5.15299 0
M  V30 10198 H 977.052 -0.939367 2.82807 0
M  V30 10199 H 974.589 -0.452511 1.39967 0
M  V30 10200 H 976.547 -3.38796 2.43461 0
M  V30 10201 H 975.177 -2.9093 1.39855 0
M  V30 10202 H 974.229 -1.61577 3.44379 0
M  V30 10203 H 975.541 -2.31526 4.41811 0
M  V30 10204 H 974.695 -4.62029 3.9321 0
M  V30 10205 H 973.434 -3.95191 2.85788 0
M  V30 10206 H 972.439 -2.69691 4.79111 0
M  V30 10207 H 973.664 -3.39605 5.88086 0
M  V30 10208 H 971.61 -4.97013 4.28152 0
M  V30 10209 H 971.527 -4.62735 5.9784 0
M  V30 10210 H 972.795 -5.64954 5.37073 0
M  V30 10211 N 977.024 -1.50153 -0.478725 0
M  V30 10212 C 978.301 -1.51274 -1.23999 0
M  V30 10213 C 978.681 -0.253048 -2.09578 0
M  V30 10214 O 978.029 0.763827 -2.15355 0
M  V30 10215 C 978.239 -2.80423 -2.07759 0
M  V30 10216 C 979.587 -3.30788 -2.66204 0
M  V30 10217 O 980.611 -2.81693 -2.18008 0
M  V30 10218 O 979.47 -4.1635 -3.53999 0
M  V30 10219 H 976.564 -0.606438 -0.562283 0
M  V30 10220 H 979.11 -1.62436 -0.491171 0
M  V30 10221 H 977.882 -3.63584 -1.44645 0
M  V30 10222 H 977.505 -2.72228 -2.89789 0
M  V30 10223 N 978.502 0.731368 -1.39602 0
M  V30 10224 C 979.465 1.8271 -1.38383 0
M  V30 10225 C 980.465 1.58338 -0.280309 0
M  V30 10226 O 981.655 1.65671 -0.538402 0
M  V30 10227 C 978.787 3.20556 -1.16002 0
M  V30 10228 H 979.98 1.85193 -2.35889 0
M  V30 10229 H 977.533 0.935396 -1.2522 0
M  V30 10230 H 978.268 3.23732 -0.191927 0
M  V30 10231 H 978.053 3.39643 -1.9592 0
M  V30 10232 H 979.543 4.00612 -1.17899 0
M  V30 10233 N 979.98 1.24838 0.961938 0
M  V30 10234 C 981.228 1.08936 1.70227 0
M  V30 10235 C 981.549 -0.371582 1.91427 0
M  V30 10236 O 980.819 -1.26461 1.49614 0
M  V30 10237 H 979.399 0.400128 0.630799 0
M  V30 10238 H 982.061 1.56848 1.15692 0
M  V30 10239 H 981.157 1.59195 2.68446 0
M  V30 10240 N 981.458 -1.16348 1.06306 0
M  V30 10241 C 982.704 -1.87158 0.781007 0
M  V30 10242 C 983.037 -1.81499 -0.690784 0
M  V30 10243 O 982.312 -1.23074 -1.50609 0
M  V30 10244 C 982.595 -3.3672 1.27639 0
M  V30 10245 C 982.448 -3.51069 2.81194 0
M  V30 10246 C 983.767 -4.31122 0.884388 0
M  V30 10247 H 980.886 -0.679586 0.285187 0
M  V30 10248 H 983.528 -1.36756 1.31901 0
M  V30 10249 H 981.678 -3.79775 0.818715 0
M  V30 10250 H 983.35 -3.16952 3.35171 0
M  V30 10251 H 981.593 -2.92976 3.19918 0
M  V30 10252 H 982.264 -4.56105 3.10921 0
M  V30 10253 H 984.74 -3.95969 1.27858 0
M  V30 10254 H 983.616 -5.34279 1.25847 0
M  V30 10255 H 983.877 -4.41598 -0.210673 0
M  V30 10256 N 982.937 -0.845659 -1.3299 0
M  V30 10257 C 984.167 -0.457686 -2.01467 0
M  V30 10258 C 984.575 0.947664 -1.63756 0
M  V30 10259 O 983.918 1.62841 -0.850213 0
M  V30 10260 C 983.98 -0.506589 -3.55913 0
M  V30 10261 C 983.644 -1.86924 -4.17023 0
M  V30 10262 C 984.641 -2.83344 -4.35904 0
M  V30 10263 C 982.326 -2.16394 -4.53298 0
M  V30 10264 C 984.32 -4.07391 -4.90216 0
M  V30 10265 C 982.007 -3.40695 -5.07316 0
M  V30 10266 C 983.005 -4.3601 -5.25722 0
M  V30 10267 O 982.693 -5.58112 -5.7859 0
M  V30 10268 H 982.425 -0.179258 -0.651799 0
M  V30 10269 H 984.979 -1.14172 -1.70745 0
M  V30 10270 H 983.209 0.234253 -3.8599 0
M  V30 10271 H 984.898 -0.135487 -4.05674 0
M  V30 10272 H 985.664 -2.61879 -4.08221 0
M  V30 10273 H 981.543 -1.42994 -4.38262 0
M  V30 10274 H 985.087 -4.81796 -5.04498 0
M  V30 10275 H 980.984 -3.62014 -5.3443 0
M  V30 10276 H 981.752 -5.59946 -5.96995 0
M  V30 10277 N 984.415 1.45619 -0.602734 0
M  V30 10278 C 985.325 2.34288 0.120902 0
M  V30 10279 C 986.341 1.50952 0.865414 0
M  V30 10280 O 987.517 1.83768 0.824094 0
M  V30 10281 C 984.582 3.28489 1.10888 0
M  V30 10282 C 983.643 4.2773 0.366853 0
M  V30 10283 C 982.876 5.17429 1.30776 0
M  V30 10284 O 983.099 5.10459 2.54535 0
M  V30 10285 O 982.033 5.96459 0.807464 0
M  V30 10286 H 985.859 2.97559 -0.60765 0
M  V30 10287 H 983.444 1.44922 -0.363019 0
M  V30 10288 H 985.326 3.86549 1.67803 0
M  V30 10289 H 984.001 2.67789 1.81854 0
M  V30 10290 H 982.908 3.73299 -0.244643 0
M  V30 10291 H 984.241 4.91271 -0.302226 0
M  V30 10292 N 985.893 0.34162 1.53853 0
M  V30 10293 C 987.133 -0.255853 2.02792 0
M  V30 10294 C 987.497 -1.47921 1.22407 0
M  V30 10295 O 988.698 -2.15073 1.61236 0
M  V30 10296 C 986.969 -0.564117 3.5292 0
M  V30 10297 S 988.528 -1.13868 4.23768 0
M  V30 10298 H 985.346 -0.0762867 0.706896 0
M  V30 10299 H 987.948 0.478934 1.89543 0
M  V30 10300 H 986.652 0.334098 4.09038 0
M  V30 10301 H 986.183 -1.32862 3.70285 0
M  V30 10302 H 988.198 -2.42451 4.32934 0
M  V30 10303 N 987.371 -1.57444 0.0701946 0
M  V30 10304 C 988.281 -2.16132 -0.912377 0
M  V30 10305 C 989.297 -1.12406 -1.32819 0
M  V30 10306 O 990.473 -1.44665 -1.40121 0
M  V30 10307 C 987.538 -2.71008 -2.16231 0
M  V30 10308 C 986.599 -3.896 -1.80306 0
M  V30 10309 C 985.832 -4.4185 -2.9934 0
M  V30 10310 O 986.055 -3.93106 -4.13309 0
M  V30 10311 O 984.989 -5.33201 -2.7925 0
M  V30 10312 H 988.815 -3.00449 -0.443167 0
M  V30 10313 H 986.4 -1.48617 -0.152786 0
M  V30 10314 H 988.282 -3.06186 -2.8953 0
M  V30 10315 H 986.957 -1.8975 -2.62253 0
M  V30 10316 H 985.864 -3.59277 -1.04264 0
M  V30 10317 H 987.197 -4.72145 -1.39068 0
M  V30 10318 N 988.849 0.203349 -1.56283 0
M  V30 10319 C 990.074 0.945548 -1.84592 0
M  V30 10320 C 990.499 1.7641 -0.652772 0
M  V30 10321 O 989.857 1.76867 0.398468 0
M  V30 10322 C 989.905 1.82416 -3.11057 0
M  V30 10323 O 989.009 2.92191 -2.9103 0
M  V30 10324 H 988.35 0.266739 -0.608068 0
M  V30 10325 H 990.88 0.211158 -2.03507 0
M  V30 10326 H 990.89 2.23044 -3.41636 0
M  V30 10327 H 989.565 1.22267 -3.97522 0
M  V30 10328 H 988.142 2.55378 -2.71728 0
M  V30 10329 N 990.327 1.50405 0.470755 0
M  V30 10330 C 991.274 1.69293 1.56871 0
M  V30 10331 C 992.244 0.534248 1.57274 0
M  V30 10332 O 993.429 0.764855 1.74799 0
M  V30 10333 C 990.569 1.79338 2.94842 0
M  V30 10334 C 989.682 3.06709 3.04226 0
M  V30 10335 C 988.817 3.07548 4.33114 0
M  V30 10336 C 987.856 4.29372 4.36241 0
M  V30 10337 N 986.993 4.27949 5.56601 0
M  V30 10338 H 991.833 2.63029 1.40071 0
M  V30 10339 H 989.37 1.30386 0.681016 0
M  V30 10340 H 991.328 1.83143 3.74853 0
M  V30 10341 H 989.958 0.890411 3.10277 0
M  V30 10342 H 989.01 3.12374 2.17086 0
M  V30 10343 H 990.322 3.96684 3.02396 0
M  V30 10344 H 989.476 3.10084 5.21472 0
M  V30 10345 H 988.215 2.15404 4.37553 0
M  V30 10346 H 987.22 4.27048 3.4628 0
M  V30 10347 H 988.445 5.22743 4.33493 0
M  V30 10348 H 986.391 3.38658 5.61824 0
M  V30 10349 H 986.308 5.11692 5.56513 0
M  V30 10350 H 987.576 4.34631 6.47083 0
M  V30 10351 N 991.805 -0.723954 1.39988 0
M  V30 10352 C 992.753 -1.85938 1.39749 0
M  V30 10353 C 993.747 -1.67085 0.279112 0
M  V30 10354 O 994.953 -1.74291 0.44972 0
M  V30 10355 H 991.328 -0.612246 0.436644 0
M  V30 10356 H 993.299 -1.83255 2.355 0
M  V30 10357 C 992.048 -3.23726 1.26874 0
M  V30 10358 H 991.371 -3.38835 2.12206 0
M  V30 10359 H 992.811 -4.03332 1.30765 0
M  V30 10360 C 991.27 -3.36893 -0.0218317 0
M  V30 10361 O 991.8 -3.89363 -0.987905 0
M  V30 10362 N 990.006 -2.90465 -0.0885618 0
M  V30 10363 H 989.553 -2.47954 0.698314 0
M  V30 10364 H 989.511 -2.99654 -0.951557 0
M  V30 10365 N 993.283 -1.25346 -0.955304 0
M  V30 10366 C 994.23 -1.05672 -2.05188 0
M  V30 10367 C 995.2 0.0339217 -1.66065 0
M  V30 10368 O 996.385 -0.123126 -1.90402 0
M  V30 10369 C 993.525 -0.680791 -3.38318 0
M  V30 10370 C 992.638 -1.84622 -3.90562 0
M  V30 10371 C 991.773 -1.41471 -5.12015 0
M  V30 10372 C 990.812 -2.54931 -5.56486 0
M  V30 10373 N 989.949 -2.1256 -6.69151 0
M  V30 10374 H 994.789 -1.9952 -2.2135 0
M  V30 10375 H 992.326 -0.993588 -1.08472 0
M  V30 10376 H 994.284 -0.443794 -4.14833 0
M  V30 10377 H 992.914 0.2207 -3.22045 0
M  V30 10378 H 991.966 -2.19654 -3.10574 0
M  V30 10379 H 993.278 -2.6983 -4.19515 0
M  V30 10380 H 992.432 -1.13732 -5.95945 0
M  V30 10381 H 991.171 -0.533334 -4.84775 0
M  V30 10382 H 990.176 -2.83415 -4.71122 0
M  V30 10383 H 991.401 -3.43645 -5.85734 0
M  V30 10384 H 989.347 -1.26838 -6.43621 0
M  V30 10385 H 989.264 -2.91317 -6.97618 0
M  V30 10386 H 990.532 -1.87996 -7.5649 0
M  V30 10387 N 994.761 1.15782 -1.06922 0
M  V30 10388 C 996.007 1.86741 -0.790922 0
M  V30 10389 C 996.34 1.81863 0.681149 0
M  V30 10390 O 995.615 1.23871 1.49954 0
M  V30 10391 C 995.898 3.36038 -1.29422 0
M  V30 10392 C 995.751 3.49573 -2.83052 0
M  V30 10393 C 997.07 4.30647 -0.907239 0
M  V30 10394 H 994.189 0.678064 -0.288787 0
M  V30 10395 H 996.831 1.36054 -1.32624 0
M  V30 10396 H 994.981 3.79336 -0.838843 0
M  V30 10397 H 996.653 3.1517 -3.36847 0
M  V30 10398 H 994.896 2.91275 -3.21467 0
M  V30 10399 H 995.567 4.5445 -3.13335 0
M  V30 10400 H 998.043 3.95286 -1.29956 0
M  V30 10401 H 996.919 5.33604 -1.28679 0
M  V30 10402 H 997.18 4.41703 0.187251 0
M  V30 10403 N 996.239 0.8527 1.3254 0
M  V30 10404 C 997.487 0.454224 1.96929 0
M  V30 10405 C 997.808 -0.993034 1.67821 0
M  V30 10406 O 997.078 -1.69371 0.984393 0
M  V30 10407 H 995.658 0.164977 0.728554 0
M  V30 10408 H 998.32 1.0887 1.61658 0
M  V30 10409 H 997.416 0.597667 3.06324 0
M  V30 10410 N 997.718 -1.45297 0.610449 0
M  V30 10411 C 998.943 -2.07101 0.111414 0
M  V30 10412 C 999.368 -1.45161 -1.19625 0
M  V30 10413 O 998.726 -0.545368 -1.72903 0
M  V30 10414 C 998.774 -3.60598 -0.0117372 0
M  V30 10415 O 997.878 -3.98512 -1.06122 0
M  V30 10416 H 997.219 -0.659709 0.075364 0
M  V30 10417 H 999.749 -1.86504 0.841269 0
M  V30 10418 H 999.759 -4.07464 -0.209028 0
M  V30 10419 H 998.434 -4.05067 0.943076 0
M  V30 10420 H 997.011 -3.63312 -0.840158 0
M  V30 10421 N 999.196 -0.349774 -1.5367 0
M  V30 10422 C 1000.13 0.538575 -2.22782 0
M  V30 10423 C 1001.14 1.05896 -1.23652 0
M  V30 10424 O 1002.33 0.968045 -1.4997 0
M  V30 10425 C 999.43 1.7546 -2.89943 0
M  V30 10426 C 998.603 1.36843 -4.15443 0
M  V30 10427 C 997.662 2.4448 -4.65957 0
M  V30 10428 O 996.688 2.07528 -5.3002 0
M  V30 10429 N 997.89 3.75829 -4.42417 0
M  V30 10430 H 1000.65 -0.053348 -2.99653 0
M  V30 10431 H 998.216 -0.174193 -1.6096 0
M  V30 10432 H 1000.21 2.46911 -3.20651 0
M  V30 10433 H 998.778 2.25375 -2.16622 0
M  V30 10434 H 997.998 0.484421 -3.91212 0
M  V30 10435 H 999.286 1.0865 -4.97064 0
M  V30 10436 H 998.684 4.08635 -3.91196 0
M  V30 10437 H 997.241 4.43432 -4.77714 0
M  V30 10438 N 1000.67 1.57404 -0.0785433 0
M  V30 10439 C 1001.6 2.16131 0.883726 0
M  V30 10440 C 1002.58 1.09015 1.30575 0
M  V30 10441 O 1003.77 1.3708 1.37559 0
M  V30 10442 C 1000.9 2.72836 2.1489 0
M  V30 10443 C 999.854 3.85178 1.86605 0
M  V30 10444 C 999.18 4.28516 3.1981 0
M  V30 10445 C 1000.48 5.09118 1.16601 0
M  V30 10446 H 1002.17 2.9679 0.394484 0
M  V30 10447 H 999.72 1.42763 0.188304 0
M  V30 10448 H 1001.67 3.12567 2.8263 0
M  V30 10449 H 1000.4 1.89408 2.66068 0
M  V30 10450 H 999.056 3.45962 1.21268 0
M  V30 10451 H 998.704 3.42 3.68843 0
M  V30 10452 H 998.404 5.04249 3.01674 0
M  V30 10453 H 999.928 4.70868 3.88737 0
M  V30 10454 H 1001.34 5.46123 1.74422 0
M  V30 10455 H 999.739 5.90173 1.087 0
M  V30 10456 H 1000.81 4.8468 0.146138 0
M  V30 10457 N 1002.15 -0.195058 1.56388 0
M  V30 10458 C 1003.57 -0.545894 1.49974 0
M  V30 10459 C 1003.77 -1.85851 0.778568 0
M  V30 10460 O 1002.82 -2.50346 0.329105 0
M  V30 10461 C 1004.14 -0.600599 2.94641 0
M  V30 10462 C 1005.68 -0.689429 3.05313 0
M  V30 10463 C 1006.16 -0.775243 4.51391 0
M  V30 10464 N 1007.65 -0.838769 4.55542 0
M  V30 10465 C 1008.39 -0.925337 5.65884 0
M  V30 10466 N 1007.88 -0.974204 6.85916 0
M  V30 10467 N 1009.67 -0.962528 5.53798 0
M  V30 10468 H 1001.83 0.66595 2.0169 0
M  V30 10469 H 1004.09 0.237215 0.917842 0
M  V30 10470 H 1003.79 0.29478 3.50462 0
M  V30 10471 H 1003.67 -1.45528 3.47996 0
M  V30 10472 H 1006.06 -1.57524 2.4954 0
M  V30 10473 H 1006.14 0.191451 2.55083 0
M  V30 10474 H 1005.78 0.106215 5.07789 0
M  V30 10475 H 1005.71 -1.67193 4.99354 0
M  V30 10476 H 1008.2 -0.810249 3.69112 0
M  V30 10477 H 1008.51 -1.04077 7.6576 0
M  V30 10478 H 1006.86 -0.942881 6.88574 0
M  V30 10479 H 1010.05 -0.921188 4.58946 0
M  V30 10480 H 1010.22 -1.02653 6.39817 0
M  V30 10481 N 1003.63 -1.50653 -0.462772 0
M  V30 10482 C 1004.85 -1.66103 -1.24196 0
M  V30 10483 C 1005.28 -0.347421 -1.84864 0
M  V30 10484 O 1004.64 0.689673 -1.6767 0
M  V30 10485 C 1004.69 -2.76027 -2.32037 0
M  V30 10486 O 1003.79 -2.37859 -3.36893 0
M  V30 10487 H 1003.13 -0.554672 -0.365014 0
M  V30 10488 H 1005.66 -1.97076 -0.549734 0
M  V30 10489 H 1005.67 -2.99354 -2.77221 0
M  V30 10490 H 1004.35 -3.71361 -1.87253 0
M  V30 10491 H 1002.92 -2.2501 -2.97363 0
M  V30 10492 N 1005.11 0.71652 -1.4037 0
M  V30 10493 C 1006.04 1.84345 -1.43315 0
M  V30 10494 C 1007.02 1.67537 -0.294186 0
M  V30 10495 O 1008.2 1.87582 -0.502671 0
M  V30 10496 C 1005.33 3.2229 -1.29408 0
M  V30 10497 C 1004.29 3.53769 -2.40897 0
M  V30 10498 C 1003.61 4.90847 -2.12068 0
M  V30 10499 C 1004.91 3.54862 -3.83237 0
M  V30 10500 H 1006.61 1.82138 -2.37626 0
M  V30 10501 H 1004.15 0.874873 -1.14376 0
M  V30 10502 H 1006.11 4.00819 -1.30085 0
M  V30 10503 H 1004.83 3.2507 -0.31573 0
M  V30 10504 H 1003.49 2.77579 -2.39469 0
M  V30 10505 H 1003.14 4.90229 -1.12626 0
M  V30 10506 H 1002.84 5.12875 -2.86762 0
M  V30 10507 H 1004.36 5.71711 -2.14426 0
M  V30 10508 H 1005.78 4.23432 -3.86494 0
M  V30 10509 H 1004.17 3.88416 -4.57442 0
M  V30 10510 H 1005.24 2.54266 -4.12888 0
M  V30 10511 N 1006.59 1.25851 0.948643 0
M  V30 10512 C 1007.81 1.13711 1.72851 0
M  V30 10513 C 1008.23 -0.308471 1.86263 0
M  V30 10514 O 1007.59 -1.21175 1.36465 0
M  V30 10515 C 1007.64 1.79271 3.13918 0
M  V30 10516 O 1007.36 3.18179 3.01154 0
M  V30 10517 C 1008.86 1.72988 4.08154 0
M  V30 10518 H 1006.08 0.396334 0.541443 0
M  V30 10519 H 1008.62 1.66329 1.18974 0
M  V30 10520 H 1006.78 1.30609 3.64719 0
M  V30 10521 H 1007.19 3.50507 3.90186 0
M  V30 10522 H 1008.67 2.2351 5.04725 0
M  V30 10523 H 1009.14 0.694866 4.33668 0
M  V30 10524 H 1009.75 2.21166 3.63271 0
M  V30 10525 N 1008.06 -1.15214 1.07534 0
M  V30 10526 C 1008.99 -2.2216 0.718837 0
M  V30 10527 C 1009.98 -1.6753 -0.29459 0
M  V30 10528 O 1011.16 -1.93481 -0.166931 0
M  V30 10529 C 1008.29 -3.471 0.117836 0
M  V30 10530 C 1007.24 -4.14701 1.05862 0
M  V30 10531 C 1006.57 -5.3374 0.320284 0
M  V30 10532 C 1007.87 -4.64254 2.39302 0
M  V30 10533 H 1009.56 -2.52237 1.61297 0
M  V30 10534 H 1007.11 -1.21239 0.776992 0
M  V30 10535 H 1009.06 -4.21156 -0.143519 0
M  V30 10536 H 1007.79 -3.16361 -0.811389 0
M  V30 10537 H 1006.45 -3.42589 1.30493 0
M  V30 10538 H 1006.09 -4.99257 -0.61246 0
M  V30 10539 H 1005.79 -5.79912 0.947381 0
M  V30 10540 H 1007.32 -6.10563 0.0667721 0
M  V30 10541 H 1008.73 -5.29827 2.18988 0
M  V30 10542 H 1007.13 -5.21095 2.97623 0
M  V30 10543 H 1008.2 -3.79793 3.01472 0
M  V30 10544 N 1009.54 -0.859717 -1.32086 0
M  V30 10545 C 1010.82 -0.386665 -1.9174 0
M  V30 10546 C 1011.2 1.13028 -1.78292 0
M  V30 10547 O 1010.55 1.95422 -1.18417 0
M  V30 10548 C 1010.76 -0.856648 -3.38323 0
M  V30 10549 C 1012.11 -0.87678 -4.15449 0
M  V30 10550 O 1013.13 -0.80162 -3.47063 0
M  V30 10551 O 1011.99 -0.98373 -5.37573 0
M  V30 10552 H 1009.08 -0.113758 -0.819139 0
M  V30 10553 H 1011.63 -0.946952 -1.40822 0
M  V30 10554 H 1010.4 -1.89996 -3.42078 0
M  V30 10555 H 1010.02 -0.274095 -3.96654 0
M  V30 10556 N 1011.02 1.44971 -0.618145 0
M  V30 10557 C 1012.27 2.02458 -0.117656 0
M  V30 10558 C 1012.6 1.48413 1.25248 0
M  V30 10559 O 1011.87 0.662997 1.82851 0
M  V30 10560 C 1012.16 3.59987 -0.0901897 0
M  V30 10561 C 1012.01 4.24343 -1.49175 0
M  V30 10562 C 1013.33 4.36099 0.592121 0
M  V30 10563 H 1010.45 0.735672 -0.0442291 0
M  V30 10564 H 1013.09 1.727 -0.792138 0
M  V30 10565 H 1011.24 3.85471 0.484175 0
M  V30 10566 H 1012.91 4.10009 -2.114 0
M  V30 10567 H 1011.16 3.82337 -2.04941 0
M  V30 10568 H 1011.83 5.33298 -1.42468 0
M  V30 10569 H 1014.3 4.1597 0.103813 0
M  V30 10570 H 1013.18 5.45822 0.580481 0
M  V30 10571 H 1013.44 4.09746 1.66015 0
M  V30 10572 N 1012.5 0.357919 1.53482 0
M  V30 10573 C 1013.43 -0.526753 2.23065 0
M  V30 10574 C 1014.44 -1.05239 1.24212 0
M  V30 10575 O 1015.63 -0.960078 1.50482 0
M  V30 10576 C 1012.73 -1.73919 2.9087 0
M  V30 10577 C 1011.91 -1.34638 4.16163 0
M  V30 10578 C 1010.96 -2.42005 4.67247 0
M  V30 10579 O 1009.99 -2.04714 5.31113 0
M  V30 10580 N 1011.19 -3.73478 4.44404 0
M  V30 10581 H 1013.96 0.0692386 2.9962 0
M  V30 10582 H 1011.52 0.182726 1.60866 0
M  V30 10583 H 1013.51 -2.45207 3.21956 0
M  V30 10584 H 1012.08 -2.24223 2.17814 0
M  V30 10585 H 1011.3 -0.463667 3.91464 0
M  V30 10586 H 1012.59 -1.06012 4.97633 0
M  V30 10587 H 1011.99 -4.06555 3.93357 0
M  V30 10588 H 1010.54 -4.40893 4.80059 0
M  V30 10589 N 1013.98 -1.5736 0.0868897 0
M  V30 10590 C 1015.22 -1.9367 -0.577598 0
M  V30 10591 C 1015.55 -0.968844 -1.69229 0
M  V30 10592 O 1014.82 -0.0195061 -1.9589 0
M  V30 10593 H 1013.4 -0.714983 -0.216353 0
M  V30 10594 H 1016.06 -1.94335 0.148294 0
M  V30 10595 H 1015.15 -2.95877 -0.993128 0
M  V30 10596 N 1015.45 0.186762 -1.56489 0
M  V30 10597 C 1016.87 0.537933 -1.50261 0
M  V30 10598 C 1017.07 1.85435 -0.788414 0
M  V30 10599 O 1016.13 2.50168 -0.342377 0
M  V30 10600 C 1017.44 0.584965 -2.94955 0
M  V30 10601 C 1018.99 0.673228 -3.05674 0
M  V30 10602 C 1019.46 0.751294 -4.51796 0
M  V30 10603 N 1020.95 0.814599 -4.55981 0
M  V30 10604 C 1021.69 0.895313 -5.66367 0
M  V30 10605 N 1021.18 0.937814 -6.86423 0
M  V30 10606 N 1022.98 0.933145 -5.543 0
M  V30 10607 H 1015.13 -0.676636 -2.01334 0
M  V30 10608 H 1017.39 -0.242079 -0.916571 0
M  V30 10609 H 1017.1 -0.313361 -3.50301 0
M  V30 10610 H 1016.97 1.4368 -3.48763 0
M  V30 10611 H 1019.36 1.56198 -2.50372 0
M  V30 10612 H 1019.44 -0.204976 -2.54977 0
M  V30 10613 H 1019.08 -0.133143 -5.07725 0
M  V30 10614 H 1019.01 1.64542 -5.00233 0
M  V30 10615 H 1021.5 0.790662 -3.69536 0
M  V30 10616 H 1021.82 1.00015 -7.66301 0
M  V30 10617 H 1020.16 0.906351 -6.89065 0
M  V30 10618 H 1023.35 0.896836 -4.59428 0
M  V30 10619 H 1023.53 0.992588 -6.40353 0
M  V30 10620 N 1016.93 1.50896 0.454776 0
M  V30 10621 C 1017.84 1.73762 1.5762 0
M  V30 10622 C 1018.86 0.621206 1.62533 0
M  V30 10623 O 1020.03 0.901449 1.801 0
M  V30 10624 C 1017.1 1.84183 2.9373 0
M  V30 10625 C 1016.16 3.07982 2.99075 0
M  V30 10626 C 1015.39 3.17896 4.28693 0
M  V30 10627 O 1015.62 2.34184 5.20109 0
M  V30 10628 O 1014.55 4.10749 4.39964 0
M  V30 10629 H 1018.38 2.68856 1.41245 0
M  V30 10630 H 1015.96 1.35187 0.635984 0
M  V30 10631 H 1017.84 1.93123 3.74542 0
M  V30 10632 H 1016.52 0.922742 3.10269 0
M  V30 10633 H 1015.43 3.04531 2.17282 0
M  V30 10634 H 1016.76 3.99523 2.87476 0
M  V30 10635 N 1018.41 -0.709066 1.40748 0
M  V30 10636 C 1019.36 -1.84445 1.41714 0
M  V30 10637 C 1020.35 -1.66779 0.296818 0
M  V30 10638 O 1021.56 -1.73805 0.468181 0
M  V30 10639 H 1017.93 -0.607581 0.443114 0
M  V30 10640 H 1019.9 -1.80747 2.3743 0
M  V30 10641 C 1018.65 -3.22362 1.303 0
M  V30 10642 H 1017.98 -3.36565 2.15787 0
M  V30 10643 H 1019.42 -4.01922 1.35036 0
M  V30 10644 C 1017.88 -3.36897 0.0139015 0
M  V30 10645 O 1018.41 -3.90389 -0.946553 0
M  V30 10646 N 1016.61 -2.90543 -0.0577491 0
M  V30 10647 H 1016.16 -2.472 0.724574 0
M  V30 10648 H 1016.12 -3.00647 -0.919721 0
M  V30 10649 N 1019.89 -1.26353 -0.941956 0
M  V30 10650 C 1020.84 -1.07654 -2.06188 0
M  V30 10651 C 1021.83 -0.00369741 -1.694 0
M  V30 10652 O 1023.04 -0.160316 -1.79285 0
M  V30 10653 H 1019.41 -0.331274 -0.675101 0
M  V30 10654 H 1021.38 -2.02566 -2.19111 0
M  V30 10655 C 1020.13 -0.725436 -3.40048 0
M  V30 10656 H 1019.46 -1.54283 -3.68832 0
M  V30 10657 H 1020.9 -0.634383 -4.19227 0
M  V30 10658 C 1019.35 0.569369 -3.32054 0
M  V30 10659 O 1019.88 1.60791 -3.68116 0
M  V30 10660 N 1018.09 0.559714 -2.85159 0
M  V30 10661 H 1017.64 -0.285817 -2.56009 0
M  V30 10662 H 1017.6 1.42617 -2.80193 0
M  V30 10663 N 1021.37 1.14642 -1.08144 0
M  V30 10664 C 1022.31 2.1964 -0.708995 0
M  V30 10665 C 1023.28 1.63303 0.303512 0
M  V30 10666 O 1024.47 1.8987 0.18813 0
M  V30 10667 C 1021.61 3.44886 -0.121585 0
M  V30 10668 C 1020.72 4.15386 -1.18654 0
M  V30 10669 C 1019.86 5.28205 -0.56328 0
M  V30 10670 C 1018.9 5.90534 -1.61046 0
M  V30 10671 N 1018.03 6.94809 -1.00919 0
M  V30 10672 H 1022.87 2.50848 -1.6087 0
M  V30 10673 H 1020.41 1.23185 -0.803975 0
M  V30 10674 H 1022.37 4.16528 0.23668 0
M  V30 10675 H 1021 3.14169 0.741445 0
M  V30 10676 H 1020.05 3.42159 -1.66227 0
M  V30 10677 H 1021.36 4.57809 -1.9802 0
M  V30 10678 H 1020.52 6.06507 -0.153109 0
M  V30 10679 H 1019.26 4.86995 0.262066 0
M  V30 10680 H 1018.26 5.10938 -2.03033 0
M  V30 10681 H 1019.49 6.33819 -2.43824 0
M  V30 10682 H 1017.43 6.5568 -0.204894 0
M  V30 10683 H 1017.35 7.35704 -1.73999 0
M  V30 10684 H 1018.62 7.76992 -0.624792 0
M  V30 10685 N 1022.85 0.866709 1.31628 0
M  V30 10686 C 1024.12 0.396828 1.91532 0
M  V30 10687 C 1024.5 -1.12081 1.78889 0
M  V30 10688 O 1023.85 -1.94791 1.19452 0
M  V30 10689 C 1024.06 0.874578 3.37864 0
M  V30 10690 C 1025.41 0.8988 4.14978 0
M  V30 10691 O 1026.43 0.820014 3.46633 0
M  V30 10692 O 1025.29 1.01223 5.37044 0
M  V30 10693 H 1022.39 0.1181 0.818524 0
M  V30 10694 H 1024.93 0.954407 1.40318 0
M  V30 10695 H 1023.7 1.91807 3.41066 0
M  V30 10696 H 1023.33 0.295126 3.96503 0
M  V30 10697 N 1024.32 -1.44642 0.625825 0
M  V30 10698 C 1025.55 -2.06159 0.13492 0
M  V30 10699 C 1025.96 -1.46801 -1.19357 0
M  V30 10700 O 1025.3 -0.583345 -1.74192 0
M  V30 10701 C 1025.37 -3.5945 -0.0598481 0
M  V30 10702 C 1025.03 -4.41244 1.18965 0
M  V30 10703 C 1026.03 -4.75064 2.11212 0
M  V30 10704 C 1023.71 -4.81705 1.42359 0
M  V30 10705 C 1025.71 -5.48221 3.25165 0
M  V30 10706 C 1023.39 -5.54612 2.5661 0
M  V30 10707 C 1024.39 -5.87789 3.4784 0
M  V30 10708 O 1024.08 -6.59213 4.60101 0
M  V30 10709 H 1023.81 -0.671888 0.0744464 0
M  V30 10710 H 1026.37 -1.86586 0.858775 0
M  V30 10711 H 1024.6 -3.77493 -0.838792 0
M  V30 10712 H 1026.28 -4.02751 -0.504639 0
M  V30 10713 H 1027.05 -4.44348 1.94371 0
M  V30 10714 H 1022.93 -4.55305 0.722401 0
M  V30 10715 H 1026.47 -5.74035 3.96396 0
M  V30 10716 H 1022.37 -5.84743 2.73396 0
M  V30 10717 H 1023.14 -6.77678 4.59015 0
M  V30 10718 N 1025.8 -0.366053 -1.5329 0
M  V30 10719 C 1027.05 0.223493 -2.01263 0
M  V30 10720 C 1027.38 1.48736 -1.25331 0
M  V30 10721 O 1026.63 1.92805 -0.335341 0
M  V30 10722 C 1026.93 0.560906 -3.52971 0
M  V30 10723 C 1026.6 -0.60869 -4.46773 0
M  V30 10724 C 1025.26 -0.929609 -4.72135 0
M  V30 10725 C 1027.61 -1.39225 -5.02261 0
M  V30 10726 C 1024.94 -2.03606 -5.50238 0
M  V30 10727 C 1027.29 -2.48912 -5.81572 0
M  V30 10728 C 1025.95 -2.81538 -6.05221 0
M  V30 10729 H 1025.22 0.0817818 -0.736473 0
M  V30 10730 H 1027.87 -0.498613 -1.84895 0
M  V30 10731 H 1026.18 1.36403 -3.67289 0
M  V30 10732 H 1027.87 1.02931 -3.87564 0
M  V30 10733 H 1024.46 -0.348529 -4.27181 0
M  V30 10734 H 1028.65 -1.15757 -4.82612 0
M  V30 10735 H 1023.9 -2.29281 -5.6678 0
M  V30 10736 H 1028.08 -3.10044 -6.23575 0
M  V30 10737 H 1025.7 -3.67396 -6.65525 0
M  V30 10738 N 1027.28 1.57312 -0.0952337 0
M  V30 10739 C 1028.5 1.99119 0.580206 0
M  V30 10740 C 1028.93 0.973955 1.60922 0
M  V30 10741 O 1028.29 -0.0575338 1.81209 0
M  V30 10742 C 1028.34 3.39893 1.20438 0
M  V30 10743 O 1027.44 3.40941 2.32019 0
M  V30 10744 H 1026.78 0.64748 0.147195 0
M  V30 10745 H 1029.31 2.03836 -0.176686 0
M  V30 10746 H 1029.32 3.7759 1.54564 0
M  V30 10747 H 1028 4.13453 0.450514 0
M  V30 10748 H 1026.57 3.1504 1.9951 0
M  V30 10749 N 1028.76 -0.17846 1.56586 0
M  V30 10750 C 1030.17 -0.741599 1.71339 0
M  V30 10751 C 1030.52 -1.83112 0.704579 0
M  V30 10752 O 1029.64 -2.15975 -0.135557 0
M  V30 10753 C 1030.24 -1.35198 3.10656 0
M  V30 10754 C 1028.8 -1.86202 3.27118 0
M  V30 10755 C 1027.95 -0.738255 2.67292 0
M  V30 10756 H 1030.9 0.0468424 1.58631 0
M  V30 10757 H 1030.92 -2.2216 3.0891 0
M  V30 10758 H 1030.43 -0.558776 3.84056 0
M  V30 10759 H 1028.53 -2.68188 2.58661 0
M  V30 10760 H 1028.64 -2.01237 4.34788 0
M  V30 10761 H 1027.01 -1.15686 2.26912 0
M  V30 10762 H 1027.79 0.0429821 3.43273 0
M  V30 10763 N 1030.24 -1.51135 -0.446768 0
M  V30 10764 C 1031.15 -1.74595 -1.56696 0
M  V30 10765 C 1032.16 -0.629816 -1.62201 0
M  V30 10766 O 1033.34 -0.910987 -1.79619 0
M  V30 10767 C 1030.4 -1.85738 -2.9275 0
M  V30 10768 C 1029.46 -3.09564 -2.97437 0
M  V30 10769 C 1028.7 -3.20165 -4.27001 0
M  V30 10770 O 1028.92 -2.36939 -5.1886 0
M  V30 10771 O 1027.85 -4.13077 -4.3778 0
M  V30 10772 H 1031.68 -2.69601 -1.39817 0
M  V30 10773 H 1029.26 -1.35523 -0.628805 0
M  V30 10774 H 1031.15 -1.95107 -3.73512 0
M  V30 10775 H 1029.82 -0.939184 -3.09776 0
M  V30 10776 H 1028.73 -3.05679 -2.15664 0
M  V30 10777 H 1030.06 -4.01041 -2.85353 0
M  V30 10778 N 1031.71 0.701592 -1.41122 0
M  V30 10779 C 1032.64 1.82815 -1.45262 0
M  V30 10780 C 1033.62 1.67215 -0.311939 0
M  V30 10781 O 1034.81 1.87038 -0.522538 0
M  V30 10782 C 1031.94 3.20899 -1.32819 0
M  V30 10783 C 1030.89 3.51194 -2.44636 0
M  V30 10784 C 1030.22 4.8857 -2.17263 0
M  V30 10785 C 1031.52 3.50777 -3.86979 0
M  V30 10786 H 1033.21 1.79608 -2.39544 0
M  V30 10787 H 1030.76 0.862693 -1.15298 0
M  V30 10788 H 1032.71 3.99417 -1.34329 0
M  V30 10789 H 1031.44 3.24717 -0.350191 0
M  V30 10790 H 1030.1 2.75024 -2.42399 0
M  V30 10791 H 1029.74 4.89007 -1.17819 0
M  V30 10792 H 1029.44 5.09805 -2.92186 0
M  V30 10793 H 1030.97 5.69405 -2.20478 0
M  V30 10794 H 1032.38 4.19309 -3.90964 0
M  V30 10795 H 1030.78 3.83542 -4.61536 0
M  V30 10796 H 1031.85 2.49873 -4.15562 0
M  V30 10797 N 1033.19 1.2685 0.935242 0
M  V30 10798 C 1034.12 1.1143 2.05196 0
M  V30 10799 C 1035.1 0.0178362 1.70091 0
M  V30 10800 O 1036.29 0.190951 1.93259 0
M  V30 10801 C 1033.42 0.752779 3.39044 0
M  V30 10802 C 1032.37 1.80164 3.88233 0
M  V30 10803 C 1031.7 1.29428 5.18799 0
M  V30 10804 C 1033 3.20431 4.12457 0
M  V30 10805 H 1034.69 2.04845 2.18355 0
M  V30 10806 H 1032.24 0.986276 1.04922 0
M  V30 10807 H 1034.19 0.631757 4.16637 0
M  V30 10808 H 1032.91 -0.217075 3.25878 0
M  V30 10809 H 1031.57 1.91144 3.12825 0
M  V30 10810 H 1031.22 0.3141 5.02018 0
M  V30 10811 H 1030.92 1.99546 5.5268 0
M  V30 10812 H 1032.45 1.18605 5.9897 0
M  V30 10813 H 1033.86 3.12495 4.80645 0
M  V30 10814 H 1032.26 3.88193 4.57631 0
M  V30 10815 H 1033.33 3.66046 3.18023 0
M  V30 10816 N 1034.67 -1.14067 1.0875 0
M  V30 10817 C 1035.92 -1.85459 0.82053 0
M  V30 10818 C 1036.25 -1.82923 -0.65213 0
M  V30 10819 O 1035.52 -1.26241 -1.47965 0
M  V30 10820 C 1035.81 -3.33937 1.34752 0
M  V30 10821 C 1035.66 -3.45026 2.88578 0
M  V30 10822 C 1036.98 -4.2915 0.975636 0
M  V30 10823 H 1034.1 -0.673384 0.299538 0
M  V30 10824 H 1036.74 -1.33927 1.34772 0
M  V30 10825 H 1034.89 -3.77953 0.899086 0
M  V30 10826 H 1036.56 -3.09771 3.41818 0
M  V30 10827 H 1034.81 -2.86124 3.26061 0
M  V30 10828 H 1035.48 -4.49408 3.20526 0
M  V30 10829 H 1037.95 -3.93168 1.36228 0
M  V30 10830 H 1036.83 -5.31489 1.37152 0
M  V30 10831 H 1037.09 -4.41945 -0.116956 0
M  V30 10832 N 1036.15 -0.873678 -1.31166 0
M  V30 10833 C 1037.08 -0.348011 -2.30892 0
M  V30 10834 C 1038.06 0.563092 -1.60509 0
M  V30 10835 O 1039.24 0.479332 -1.88192 0
M  V30 10836 C 1036.37 0.448158 -3.44396 0
M  V30 10837 C 1035.33 -0.370179 -4.26396 0
M  V30 10838 C 1034.65 0.551903 -5.31844 0
M  V30 10839 C 1035.95 -1.60624 -4.96988 0
M  V30 10840 H 1037.65 -1.18134 -2.75109 0
M  V30 10841 H 1035.19 -0.569502 -1.3226 0
M  V30 10842 H 1037.15 0.826458 -4.13216 0
M  V30 10843 H 1035.87 1.31503 -2.98956 0
M  V30 10844 H 1034.53 -0.730472 -3.59249 0
M  V30 10845 H 1034.18 1.41616 -4.82653 0
M  V30 10846 H 1033.88 0.00823478 -5.87599 0
M  V30 10847 H 1035.4 0.926965 -6.03523 0
M  V30 10848 H 1036.82 -1.29917 -5.58386 0
M  V30 10849 H 1035.21 -2.08926 -5.62557 0
M  V30 10850 H 1036.28 -2.357 -4.23761 0
M  V30 10851 N 1037.63 1.44308 -0.633487 0
M  V30 10852 C 1038.86 2.06085 -0.145852 0
M  V30 10853 C 1039.26 1.47432 1.18577 0
M  V30 10854 O 1038.61 0.592575 1.7388 0
M  V30 10855 C 1038.67 3.59477 0.0407848 0
M  V30 10856 C 1038.33 4.40607 -1.21304 0
M  V30 10857 C 1039.33 4.73937 -2.13728 0
M  V30 10858 C 1037.02 4.80943 -1.44911 0
M  V30 10859 C 1039.01 5.46489 -3.28068 0
M  V30 10860 C 1036.7 5.53243 -2.59548 0
M  V30 10861 C 1037.69 5.85936 -3.50953 0
M  V30 10862 O 1037.38 6.56764 -4.6359 0
M  V30 10863 H 1037.11 0.671484 -0.0780085 0
M  V30 10864 H 1039.67 1.86128 -0.868658 0
M  V30 10865 H 1037.9 3.77933 0.818761 0
M  V30 10866 H 1039.59 4.03013 0.483273 0
M  V30 10867 H 1040.35 4.43311 -1.96725 0
M  V30 10868 H 1036.23 4.54915 -0.746537 0
M  V30 10869 H 1039.78 5.71924 -3.99435 0
M  V30 10870 H 1035.67 5.83285 -2.76493 0
M  V30 10871 H 1036.44 6.75234 -4.62602 0
M  V30 10872 N 1039.1 0.374177 1.53094 0
M  V30 10873 C 1040.35 -0.212816 2.01379 0
M  V30 10874 C 1040.68 -1.48069 1.26118 0
M  V30 10875 O 1039.93 -1.92625 0.345561 0
M  V30 10876 C 1040.23 -0.542179 3.53264 0
M  V30 10877 C 1039.9 0.632375 4.46444 0
M  V30 10878 C 1038.56 0.954635 4.71636 0
M  V30 10879 C 1040.91 1.41887 5.01515 0
M  V30 10880 C 1038.24 2.06521 5.4915 0
M  V30 10881 C 1040.59 2.51993 5.80243 0
M  V30 10882 C 1039.26 2.84744 6.03719 0
M  V30 10883 H 1038.53 -0.0778749 0.736897 0
M  V30 10884 H 1041.17 0.508412 1.84628 0
M  V30 10885 H 1039.48 -1.34454 3.68007 0
M  V30 10886 H 1041.18 -1.00874 3.88105 0
M  V30 10887 H 1037.77 0.371179 4.2699 0
M  V30 10888 H 1041.95 1.18315 4.81991 0
M  V30 10889 H 1037.21 2.32284 5.65557 0
M  V30 10890 H 1041.38 3.13346 6.21922 0
M  V30 10891 H 1039.01 3.70921 6.63568 0
M  V30 10892 N 1040.58 -1.57259 0.103575 0
M  V30 10893 C 1041.55 -2.13337 -0.837859 0
M  V30 10894 C 1042.55 -1.06459 -1.20512 0
M  V30 10895 O 1043.74 -1.32307 -1.13316 0
M  V30 10896 C 1040.87 -2.66093 -2.13089 0
M  V30 10897 H 1042.06 -2.97842 -0.350775 0
M  V30 10898 H 1039.61 -1.55621 -0.145511 0
M  V30 10899 H 1040.35 -1.85133 -2.66264 0
M  V30 10900 H 1040.13 -3.44244 -1.87719 0
M  V30 10901 H 1041.62 -3.09443 -2.80419 0
M  V30 10902 N 1042.06 0.170153 -1.56679 0
M  V30 10903 C 1043.29 0.90618 -1.86556 0
M  V30 10904 C 1043.71 1.74986 -0.690044 0
M  V30 10905 O 1043.07 1.77672 0.360862 0
M  V30 10906 C 1043.12 1.75777 -3.14857 0
M  V30 10907 O 1042.22 2.85952 -2.97162 0
M  V30 10908 H 1041.56 0.253781 -0.613589 0
M  V30 10909 H 1044.09 0.167943 -2.0391 0
M  V30 10910 H 1044.1 2.15747 -3.46291 0
M  V30 10911 H 1042.78 1.13807 -4.00026 0
M  V30 10912 H 1041.35 2.49557 -2.77084 0
M  V30 10913 N 1043.54 1.5137 0.438746 0
M  V30 10914 C 1044.76 1.68058 1.21537 0
M  V30 10915 C 1045.19 0.376787 1.84288 0
M  V30 10916 O 1044.55 -0.662911 1.68746 0
M  V30 10917 C 1044.59 2.79684 2.27616 0
M  V30 10918 O 1043.7 2.43189 3.33066 0
M  V30 10919 H 1043.04 0.560408 0.356144 0
M  V30 10920 H 1045.57 1.97926 0.518311 0
M  V30 10921 H 1045.58 3.03726 2.72423 0
M  V30 10922 H 1044.25 3.74293 1.81321 0
M  V30 10923 H 1042.83 2.29713 2.93746 0
M  V30 10924 N 1045.02 -0.694098 1.41492 0
M  V30 10925 C 1045.95 -1.82042 1.46229 0
M  V30 10926 C 1046.93 -1.67047 0.320803 0
M  V30 10927 O 1048.11 -1.86758 0.53245 0
M  V30 10928 C 1045.24 -3.2019 1.34519 0
M  V30 10929 C 1044.2 -3.49892 2.46495 0
M  V30 10930 C 1043.52 -4.87411 2.1985 0
M  V30 10931 C 1044.82 -3.4872 3.88834 0
M  V30 10932 H 1046.52 -1.78335 2.40493 0
M  V30 10933 H 1044.06 -0.856566 1.15754 0
M  V30 10934 H 1046.02 -3.98699 1.36445 0
M  V30 10935 H 1044.74 -3.24527 0.367406 0
M  V30 10936 H 1043.4 -2.73734 2.43854 0
M  V30 10937 H 1043.05 -4.88375 1.20411 0
M  V30 10938 H 1042.75 -5.08248 2.94885 0
M  V30 10939 H 1044.27 -5.68228 2.23494 0
M  V30 10940 H 1045.68 -4.1723 3.93182 0
M  V30 10941 H 1044.08 -3.81089 4.63564 0
M  V30 10942 H 1045.15 -2.47665 4.16881 0
M  V30 10943 N 1046.49 -1.27344 -0.928501 0
M  V30 10944 C 1047.74 -1.13019 -1.67061 0
M  V30 10945 C 1048.06 0.323614 -1.92904 0
M  V30 10946 O 1049.26 0.587752 -2.65062 0
M  V30 10947 C 1047.72 -1.97471 -3.00887 0
M  V30 10948 C 1047.33 -3.47504 -2.82746 0
M  V30 10949 C 1049.07 -1.91792 -3.78703 0
M  V30 10950 C 1046.98 -4.24158 -4.12122 0
M  V30 10951 H 1045.91 -0.419364 -0.626618 0
M  V30 10952 H 1048.56 -1.51759 -1.03158 0
M  V30 10953 H 1046.94 -1.51576 -3.65843 0
M  V30 10954 H 1048.11 -4.01256 -2.26562 0
M  V30 10955 H 1046.43 -3.54554 -2.18359 0
M  V30 10956 H 1049.03 -2.46339 -4.74575 0
M  V30 10957 H 1049.37 -0.891375 -4.06645 0
M  V30 10958 H 1049.9 -2.35578 -3.20543 0
M  V30 10959 H 1046.64 -5.27333 -3.89359 0
M  V30 10960 H 1046.16 -3.75183 -4.67972 0
M  V30 10961 H 1047.84 -4.33288 -4.80489 0
M  V30 10962 N 1047.97 1.13488 -1.09353 0
M  V30 10963 C 1049.22 1.841 -0.82401 0
M  V30 10964 C 1049.53 1.84393 0.652586 0
M  V30 10965 O 1050.74 2.5089 1.03762 0
M  V30 10966 C 1049.2 3.30523 -1.42418 0
M  V30 10967 C 1048.8 3.38621 -2.93326 0
M  V30 10968 C 1050.55 4.06182 -1.23356 0
M  V30 10969 C 1048.46 4.79311 -3.46432 0
M  V30 10970 H 1047.39 0.68974 -0.304589 0
M  V30 10971 H 1050.04 1.27866 -1.31615 0
M  V30 10972 H 1048.42 3.86555 -0.859727 0
M  V30 10973 H 1049.59 2.92587 -3.5599 0
M  V30 10974 H 1047.91 2.76426 -3.11412 0
M  V30 10975 H 1050.5 5.10047 -1.60488 0
M  V30 10976 H 1050.85 4.15936 -0.174152 0
M  V30 10977 H 1051.38 3.56477 -1.76547 0
M  V30 10978 H 1048.12 4.74748 -4.5199 0
M  V30 10979 H 1047.64 5.25842 -2.8853 0
M  V30 10980 H 1049.32 5.48227 -3.43593 0
M  V30 10981 N 1049.45 0.880621 1.30701 0
M  V30 10982 C 1050.86 0.547993 1.78477 0
M  V30 10983 C 1051.21 -0.935633 1.72454 0
M  V30 10984 O 1050.34 -1.73094 1.29874 0
M  V30 10985 C 1050.93 0.98795 3.24076 0
M  V30 10986 C 1049.49 0.706805 3.69704 0
M  V30 10987 C 1048.64 1.17335 2.51252 0
M  V30 10988 H 1051.59 1.06528 1.17633 0
M  V30 10989 H 1051.61 0.31508 3.79193 0
M  V30 10990 H 1051.12 2.06778 3.28427 0
M  V30 10991 H 1049.22 -0.36122 3.70845 0
M  V30 10992 H 1049.34 1.2913 4.6137 0
M  V30 10993 H 1047.7 0.592808 2.47705 0
M  V30 10994 H 1048.48 2.26083 2.58343 0
M  V30 10995 N 1050.93 -1.4397 0.641131 0
M  V30 10996 C 1051.89 -2.29149 -0.0482243 0
M  V30 10997 C 1052.89 -1.41572 -0.762495 0
M  V30 10998 O 1054.08 -1.63335 -0.605571 0
M  V30 10999 C 1051.21 -3.23375 -1.07896 0
M  V30 11000 H 1052.41 -2.9159 0.70109 0
M  V30 11001 H 1049.96 -1.51048 0.401754 0
M  V30 11002 H 1050.7 -2.65804 -1.85792 0
M  V30 11003 H 1050.48 -3.87926 -0.570597 0
M  V30 11004 H 1051.97 -3.87337 -1.56075 0
M  V30 11005 N 1052.41 -0.382291 -1.52893 0
M  V30 11006 C 1053.66 0.203342 -2.00672 0
M  V30 11007 C 1053.97 1.48487 -1.27322 0
M  V30 11008 O 1055.18 2.15013 -1.65776 0
M  V30 11009 C 1053.63 0.412922 -3.57523 0
M  V30 11010 C 1053.24 -0.854949 -4.39767 0
M  V30 11011 C 1054.98 0.955301 -4.13611 0
M  V30 11012 C 1052.89 -0.614033 -5.88204 0
M  V30 11013 H 1051.82 0.0797635 -0.749769 0
M  V30 11014 H 1054.47 -0.50361 -1.76454 0
M  V30 11015 H 1052.85 1.18155 -3.77962 0
M  V30 11016 H 1054.03 -1.62765 -4.31096 0
M  V30 11017 H 1052.34 -1.32176 -3.94865 0
M  V30 11018 H 1054.94 1.15114 -5.22162 0
M  V30 11019 H 1055.28 1.92233 -3.69259 0
M  V30 11020 H 1055.82 0.24642 -3.97036 0
M  V30 11021 H 1052.55 -1.55187 -6.36865 0
M  V30 11022 H 1052.07 0.119865 -5.9968 0
M  V30 11023 H 1053.75 -0.245895 -6.46533 0
M  V30 11024 N 1053.89 1.57202 -0.111913 0
M  V30 11025 C 1055.13 1.94565 0.546713 0
M  V30 11026 C 1055.45 0.995644 1.67666 0
M  V30 11027 O 1054.72 0.0506681 1.95834 0
M  V30 11028 H 1053.3 0.718334 0.204951 0
M  V30 11029 H 1055.97 1.94074 -0.179193 0
M  V30 11030 H 1055.06 2.9742 0.945931 0
M  V30 11031 N 1055.36 -0.161842 1.56767 0
M  V30 11032 C 1056.3 -1.22927 1.9226 0
M  V30 11033 C 1057.27 -1.42309 0.786562 0
M  V30 11034 O 1058.46 -1.57163 1.04078 0
M  V30 11035 C 1055.59 -2.59069 2.18177 0
M  V30 11036 C 1054.63 -2.56368 3.40849 0
M  V30 11037 S 1055.46 -2.04518 4.94907 0
M  V30 11038 C 1056.62 -3.42418 5.23928 0
M  V30 11039 H 1056.85 -0.926377 2.82499 0
M  V30 11040 H 1054.39 -0.366822 1.49979 0
M  V30 11041 H 1056.34 -3.37421 2.33789 0
M  V30 11042 H 1055.01 -2.86554 1.28629 0
M  V30 11043 H 1054.2 -3.56551 3.56213 0
M  V30 11044 H 1053.8 -1.86116 3.24402 0
M  V30 11045 H 1056.09 -4.38461 5.16486 0
M  V30 11046 H 1057.04 -3.3192 6.25487 0
M  V30 11047 H 1057.44 -3.38868 4.51474 0
M  V30 11048 N 1056.84 -1.516 -0.430713 0
M  V30 11049 C 1058.09 -1.63829 -1.17657 0
M  V30 11050 C 1058.4 -0.363605 -1.92191 0
M  V30 11051 O 1059.61 -0.365358 -2.6903 0
M  V30 11052 C 1058.07 -2.89357 -2.14011 0
M  V30 11053 C 1057.67 -4.23854 -1.45094 0
M  V30 11054 C 1059.42 -3.10944 -2.88988 0
M  V30 11055 C 1057.32 -5.40526 -2.3997 0
M  V30 11056 H 1056.25 -0.610221 -0.442884 0
M  V30 11057 H 1058.91 -1.78073 -0.442984 0
M  V30 11058 H 1057.29 -2.68762 -2.90832 0
M  V30 11059 H 1058.46 -4.54854 -0.737853 0
M  V30 11060 H 1056.78 -4.08197 -0.822429 0
M  V30 11061 H 1059.37 -3.95286 -3.60074 0
M  V30 11062 H 1059.72 -2.24291 -3.50712 0
M  V30 11063 H 1060.25 -3.3191 -2.19272 0
M  V30 11064 H 1056.99 -6.29459 -1.82925 0
M  V30 11065 H 1056.51 -5.13893 -3.09313 0
M  V30 11066 H 1058.19 -5.72741 -3.00959 0
M  V30 11067 N 1058.32 0.686584 -1.41858 0
M  V30 11068 C 1059.57 1.44235 -1.40994 0
M  V30 11069 C 1059.88 1.95583 -0.0254979 0
M  V30 11070 O 1061.09 2.71294 0.10576 0
M  V30 11071 C 1059.54 2.6086 -2.47952 0
M  V30 11072 C 1059.15 2.16259 -3.92347 0
M  V30 11073 C 1060.9 3.38441 -2.56237 0
M  V30 11074 C 1058.8 3.29896 -4.90838 0
M  V30 11075 H 1057.73 0.54181 -0.524364 0
M  V30 11076 H 1060.38 0.744486 -1.67719 0
M  V30 11077 H 1058.77 3.32957 -2.14373 0
M  V30 11078 H 1059.94 1.51392 -4.35221 0
M  V30 11079 H 1058.25 1.51648 -3.87804 0
M  V30 11080 H 1060.85 4.23052 -3.27003 0
M  V30 11081 H 1061.19 3.84238 -1.6021 0
M  V30 11082 H 1061.73 2.73406 -2.88953 0
M  V30 11083 H 1058.47 2.89104 -5.88302 0
M  V30 11084 H 1057.99 3.93584 -4.52606 0
M  V30 11085 H 1059.67 3.95541 -5.12012 0
M  V30 11086 N 1059.8 1.27835 0.921735 0
M  V30 11087 C 1061.03 1.17182 1.70153 0
M  V30 11088 C 1061.44 -0.273207 1.87217 0
M  V30 11089 O 1060.78 -1.19729 1.39322 0
M  V30 11090 C 1060.84 1.78969 3.11786 0
M  V30 11091 C 1060.5 3.28179 3.18037 0
M  V30 11092 C 1061.5 4.24729 2.99835 0
M  V30 11093 C 1059.19 3.68995 3.40805 0
M  V30 11094 C 1061.18 5.60071 3.04301 0
M  V30 11095 C 1058.87 5.04465 3.44904 0
M  V30 11096 C 1059.87 5.99813 3.2667 0
M  V30 11097 O 1059.55 7.32813 3.30515 0
M  V30 11098 H 1059.29 0.408079 0.538932 0
M  V30 11099 H 1061.84 1.69326 1.16266 0
M  V30 11100 H 1060.07 1.2131 3.6718 0
M  V30 11101 H 1061.76 1.62946 3.71757 0
M  V30 11102 H 1062.52 3.94533 2.8208 0
M  V30 11103 H 1058.4 2.9525 3.54045 0
M  V30 11104 H 1061.95 6.34471 2.89987 0
M  V30 11105 H 1057.84 5.34315 3.62185 0
M  V30 11106 H 1058.61 7.41338 3.4693 0
M  V30 11107 N 1061.28 -1.12907 1.09954 0
M  V30 11108 C 1062.52 -1.84306 0.838912 0
M  V30 11109 C 1062.85 -1.83825 -0.635508 0
M  V30 11110 O 1062.11 -1.27556 -1.48418 0
M  V30 11111 C 1062.4 -3.31885 1.32616 0
M  V30 11112 C 1062.07 -3.52542 2.81114 0
M  V30 11113 C 1060.73 -3.57888 3.21667 0
M  V30 11114 C 1063.08 -3.60065 3.76833 0
M  V30 11115 C 1060.41 -3.68296 4.567 0
M  V30 11116 C 1062.76 -3.72001 5.11662 0
M  V30 11117 C 1061.43 -3.75602 5.51797 0
M  V30 11118 H 1060.7 -0.674422 0.30698 0
M  V30 11119 H 1063.35 -1.33261 1.37527 0
M  V30 11120 H 1061.65 -3.85318 0.709719 0
M  V30 11121 H 1063.35 -3.85588 1.10105 0
M  V30 11122 H 1059.94 -3.4904 2.48735 0
M  V30 11123 H 1064.12 -3.55209 3.46612 0
M  V30 11124 H 1059.38 -3.69352 4.87226 0
M  V30 11125 H 1063.55 -3.76765 5.8568 0
M  V30 11126 H 1061.18 -3.83419 6.56425 0
M  V30 11127 N 1062.75 -0.88754 -1.30232 0
M  V30 11128 C 1063.72 -0.361095 -2.26338 0
M  V30 11129 C 1064.72 0.497871 -1.52898 0
M  V30 11130 O 1065.91 0.30466 -1.71515 0
M  V30 11131 C 1063.04 0.485135 -3.3743 0
M  V30 11132 H 1064.23 -1.20973 -2.74419 0
M  V30 11133 H 1061.78 -0.664619 -1.41466 0
M  V30 11134 H 1062.52 1.35425 -2.9467 0
M  V30 11135 H 1062.3 -0.130173 -3.91884 0
M  V30 11136 H 1063.79 0.845169 -4.08958 0
M  V30 11137 N 1064.23 1.43628 -0.648757 0
M  V30 11138 C 1065.65 1.56442 -0.315921 0
M  V30 11139 C 1065.85 1.63322 1.18018 0
M  V30 11140 O 1064.9 1.58585 1.96487 0
M  V30 11141 C 1066.22 2.82751 -1.02335 0
M  V30 11142 C 1067.77 2.96488 -1.00318 0
M  V30 11143 C 1068.24 4.25623 -1.69142 0
M  V30 11144 N 1069.73 4.32477 -1.65885 0
M  V30 11145 C 1070.47 5.31154 -2.16016 0
M  V30 11146 N 1069.96 6.36135 -2.74415 0
M  V30 11147 N 1071.76 5.22778 -2.06541 0
M  V30 11148 H 1063.91 1.37405 -1.61968 0
M  V30 11149 H 1066.17 0.65962 -0.680886 0
M  V30 11150 H 1065.88 2.83714 -2.07844 0
M  V30 11151 H 1065.75 3.72836 -0.572114 0
M  V30 11152 H 1068.14 2.95068 0.0434919 0
M  V30 11153 H 1068.22 2.07704 -1.49307 0
M  V30 11154 H 1067.86 4.27804 -2.73763 0
M  V30 11155 H 1067.79 5.13296 -1.17622 0
M  V30 11156 H 1070.28 3.57232 -1.23264 0
M  V30 11157 H 1070.6 7.07743 -3.10355 0
M  V30 11158 H 1068.94 6.36771 -2.78474 0
M  V30 11159 H 1072.13 4.39678 -1.60625 0
M  V30 11160 H 1072.3 5.99523 -2.45919 0
M  V30 11161 N 1065.71 0.390394 1.52688 0
M  V30 11162 C 1066.66 -0.444229 2.26485 0
M  V30 11163 C 1067.63 -1.05688 1.28138 0
M  V30 11164 O 1068.81 -1.0847 1.56968 0
M  V30 11165 C 1065.95 -1.56501 3.07574 0
M  V30 11166 C 1065.07 -0.975111 4.20851 0
M  V30 11167 C 1064.2 -2.06704 4.89333 0
M  V30 11168 C 1063.24 -1.45309 5.94602 0
M  V30 11169 N 1062.38 -2.48437 6.56676 0
M  V30 11170 H 1067.22 0.191535 2.97384 0
M  V30 11171 H 1064.75 0.106287 1.46716 0
M  V30 11172 H 1066.71 -2.22558 3.52879 0
M  V30 11173 H 1065.34 -2.17107 2.38881 0
M  V30 11174 H 1064.39 -0.204109 3.79852 0
M  V30 11175 H 1065.71 -0.486465 4.96422 0
M  V30 11176 H 1064.86 -2.80528 5.37949 0
M  V30 11177 H 1063.6 -2.58928 4.13289 0
M  V30 11178 H 1062.6 -0.700091 5.45324 0
M  V30 11179 H 1063.83 -0.938775 6.7258 0
M  V30 11180 H 1061.77 -2.99829 5.83471 0
M  V30 11181 H 1061.69 -2.04331 7.27863 0
M  V30 11182 H 1062.96 -3.21888 7.09935 0
M  V30 11183 N 1067.19 -1.57141 0.120249 0
M  V30 11184 C 1068.15 -2.14213 -0.815185 0
M  V30 11185 C 1069.15 -1.07731 -1.19376 0
M  V30 11186 O 1070.34 -1.33502 -1.11906 0
M  V30 11187 C 1067.47 -2.68339 -2.10255 0
M  V30 11188 H 1068.67 -2.98197 -0.319166 0
M  V30 11189 H 1066.22 -1.55767 -0.128997 0
M  V30 11190 H 1066.95 -1.87946 -2.64285 0
M  V30 11191 H 1066.74 -3.46216 -1.84057 0
M  V30 11192 H 1068.23 -3.124 -2.77121 0
M  V30 11193 N 1068.67 0.153526 -1.5685 0
M  V30 11194 C 1069.61 1.20896 -1.98713 0
M  V30 11195 C 1070.61 1.44839 -0.878529 0
M  V30 11196 O 1071.81 1.45208 -1.0637 0
M  V30 11197 H 1068.19 0.406797 -0.632472 0
M  V30 11198 H 1070.16 0.829145 -2.86649 0
M  V30 11199 C 1068.91 2.53642 -2.37825 0
M  V30 11200 H 1068.23 2.36047 -3.22679 0
M  V30 11201 H 1069.67 3.26136 -2.70946 0
M  V30 11202 C 1068.13 3.13706 -1.22841 0
M  V30 11203 O 1068.66 3.98246 -0.525626 0
M  V30 11204 N 1066.87 2.73059 -0.99435 0
M  V30 11205 H 1066.41 2.0441 -1.56761 0
M  V30 11206 H 1066.37 3.1358 -0.226883 0
M  V30 11207 N 1070.14 1.51827 0.422667 0
M  V30 11208 C 1071.08 1.68901 1.53453 0
M  V30 11209 C 1072.06 0.536549 1.53492 0
M  V30 11210 O 1073.24 0.762226 1.72402 0
M  V30 11211 C 1070.37 1.71599 2.92013 0
M  V30 11212 C 1069.41 2.92984 3.0994 0
M  V30 11213 S 1070.25 4.53559 2.84683 0
M  V30 11214 C 1071.4 4.59024 4.25498 0
M  V30 11215 H 1071.63 2.62943 1.38739 0
M  V30 11216 H 1069.17 1.41695 0.613347 0
M  V30 11217 H 1071.13 1.73838 3.71874 0
M  V30 11218 H 1069.79 0.787083 3.04079 0
M  V30 11219 H 1068.98 2.91315 4.1128 0
M  V30 11220 H 1068.58 2.88562 2.37924 0
M  V30 11221 H 1070.87 4.35567 5.18929 0
M  V30 11222 H 1071.82 5.60904 4.32195 0
M  V30 11223 H 1072.22 3.88193 4.09837 0
M  V30 11224 N 1071.62 -0.679052 1.4222 0
M  V30 11225 C 1072.57 -1.79269 1.45366 0
M  V30 11226 C 1073.54 -1.63255 0.306089 0
M  V30 11227 O 1074.72 -1.8387 0.509548 0
M  V30 11228 C 1071.86 -3.17272 1.35766 0
M  V30 11229 C 1070.98 -3.44603 2.60525 0
M  V30 11230 C 1070.11 -4.7231 2.43098 0
M  V30 11231 C 1069.15 -4.92661 3.63251 0
M  V30 11232 N 1068.29 -6.11606 3.44794 0
M  V30 11233 H 1073.13 -1.75916 2.40536 0
M  V30 11234 H 1070.67 -0.858836 1.19425 0
M  V30 11235 H 1072.62 -3.97015 1.282 0
M  V30 11236 H 1071.25 -3.1976 0.441939 0
M  V30 11237 H 1070.31 -2.59144 2.78475 0
M  V30 11238 H 1071.62 -3.55536 3.49851 0
M  V30 11239 H 1070.77 -5.60136 2.33093 0
M  V30 11240 H 1069.51 -4.63652 1.51255 0
M  V30 11241 H 1068.52 -4.03278 3.73693 0
M  V30 11242 H 1069.74 -5.03167 4.5607 0
M  V30 11243 H 1067.69 -6.04129 2.55663 0
M  V30 11244 H 1067.6 -6.23381 4.27705 0
M  V30 11245 H 1068.87 -7.02122 3.38592 0
M  V30 11246 N 1073.1 -1.28322 -0.914942 0
M  V30 11247 C 1074.35 -1.15179 -1.66067 0
M  V30 11248 C 1074.67 0.300279 -1.92674 0
M  V30 11249 O 1073.94 1.20821 -1.54205 0
M  V30 11250 H 1072.52 -0.423264 -0.615513 0
M  V30 11251 H 1075.18 -1.61034 -1.09791 0
M  V30 11252 H 1074.28 -1.69048 -2.62353 0
M  V30 11253 N 1074.58 1.12322 -1.10551 0
M  V30 11254 C 1075.8 1.8822 -0.871093 0
M  V30 11255 C 1076.23 1.7916 0.573005 0
M  V30 11256 O 1075.59 1.14738 1.40374 0
M  V30 11257 C 1075.63 3.35349 -1.32565 0
M  V30 11258 O 1074.74 4.09461 -0.49145 0
M  V30 11259 H 1074.08 0.584787 -0.314516 0
M  V30 11260 H 1076.61 1.42039 -1.47262 0
M  V30 11261 H 1076.62 3.86189 -1.31612 0
M  V30 11262 H 1075.29 3.4126 -2.37728 0
M  V30 11263 H 1073.87 3.68575 -0.566294 0
M  V30 11264 N 1076.06 0.894434 1.2976 0
M  V30 11265 C 1077.29 0.532143 1.99629 0
M  V30 11266 C 1077.69 -0.886234 1.6716 0
M  V30 11267 O 1077.04 -1.59573 0.910065 0
M  V30 11268 C 1077.1 0.638335 3.53787 0
M  V30 11269 C 1076.76 2.02273 4.09798 0
M  V30 11270 C 1077.76 2.99327 4.25087 0
M  V30 11271 C 1075.45 2.33069 4.44954 0
M  V30 11272 C 1077.44 4.25304 4.74758 0
M  V30 11273 C 1075.13 3.59289 4.94322 0
M  V30 11274 C 1076.12 4.55222 5.09178 0
M  V30 11275 O 1075.81 5.79202 5.57477 0
M  V30 11276 H 1075.54 0.203326 0.644697 0
M  V30 11277 H 1078.1 1.2043 1.6639 0
M  V30 11278 H 1076.33 -0.0908338 3.86593 0
M  V30 11279 H 1078.02 0.285956 4.04891 0
M  V30 11280 H 1078.78 2.76849 3.9822 0
M  V30 11281 H 1074.66 1.59162 4.32653 0
M  V30 11282 H 1078.21 5.00189 4.86269 0
M  V30 11283 H 1074.1 3.816 5.20626 0
M  V30 11284 H 1074.87 5.81717 5.75802 0
M  V30 11285 N 1077.53 -1.43282 0.656365 0
M  V30 11286 C 1078.76 -2.06641 0.177245 0
M  V30 11287 C 1079.18 -1.48893 -1.14946 0
M  V30 11288 O 1078.54 -0.600099 -1.7108 0
M  V30 11289 C 1078.59 -3.60453 0.10299 0
M  V30 11290 O 1077.69 -4.01687 -0.933895 0
M  V30 11291 H 1077.04 -0.656978 0.096314 0
M  V30 11292 H 1079.57 -1.83733 0.900178 0
M  V30 11293 H 1079.58 -4.07923 -0.079291 0
M  V30 11294 H 1078.25 -4.01861 1.07147 0
M  V30 11295 H 1076.83 -3.65801 -0.724148 0
M  V30 11296 N 1079.01 -0.398486 -1.52479 0
M  V30 11297 C 1079.94 0.423498 -2.29627 0
M  V30 11298 C 1080.92 1.05547 -1.33394 0
M  V30 11299 O 1082.11 1.0665 -1.62294 0
M  V30 11300 C 1079.24 1.54612 -3.10986 0
M  V30 11301 C 1078.19 1.03971 -4.15179 0
M  V30 11302 C 1077.52 2.25512 -4.84818 0
M  V30 11303 C 1078.82 0.10121 -5.22202 0
M  V30 11304 H 1080.51 -0.220222 -2.98589 0
M  V30 11305 H 1078.06 -0.107355 -1.43599 0
M  V30 11306 H 1080.01 2.12806 -3.63719 0
M  V30 11307 H 1078.74 2.21756 -2.39774 0
M  V30 11308 H 1077.4 0.480251 -3.63441 0
M  V30 11309 H 1077.04 2.91187 -4.10145 0
M  V30 11310 H 1076.74 1.92285 -5.55248 0
M  V30 11311 H 1078.27 2.84331 -5.40359 0
M  V30 11312 H 1079.68 0.591617 -5.70239 0
M  V30 11313 H 1078.08 -0.141737 -5.99933 0
M  V30 11314 H 1079.15 -0.847216 -4.77441 0
M  V30 11315 N 1080.49 1.57075 -0.12858 0
M  V30 11316 C 1081.74 1.9581 0.527868 0
M  V30 11317 C 1082.07 1.01253 1.65715 0
M  V30 11318 O 1081.35 0.0514853 1.94432 0
M  V30 11319 C 1081.63 3.44406 1.05151 0
M  V30 11320 C 1081.48 4.49737 -0.0750113 0
M  V30 11321 C 1082.8 3.95069 1.9393 0
M  V30 11322 H 1079.92 0.711978 0.19041 0
M  V30 11323 H 1082.56 1.88879 -0.206081 0
M  V30 11324 H 1080.71 3.50443 1.67697 0
M  V30 11325 H 1082.38 4.55793 -0.710685 0
M  V30 11326 H 1080.63 4.27497 -0.736809 0
M  V30 11327 H 1081.3 5.50996 0.332779 0
M  V30 11328 H 1083.77 3.91395 1.41241 0
M  V30 11329 H 1082.65 4.99542 2.27484 0
M  V30 11330 H 1082.91 3.36329 2.86941 0
M  V30 11331 N 1081.97 -0.145205 1.5693 0
M  V30 11332 C 1082.88 -1.19864 2.01667 0
M  V30 11333 C 1083.9 -1.46909 0.932402 0
M  V30 11334 O 1085.07 -1.58543 1.24201 0
M  V30 11335 C 1082.14 -2.51174 2.38982 0
M  V30 11336 C 1081.2 -2.3176 3.61366 0
M  V30 11337 C 1080.43 -3.56809 3.96892 0
M  V30 11338 O 1080.65 -4.63063 3.33059 0
M  V30 11339 O 1079.59 -3.49366 4.9013 0
M  V30 11340 H 1083.41 -0.848821 2.91597 0
M  V30 11341 H 1081 -0.354063 1.45144 0
M  V30 11342 H 1082.88 -3.28587 2.63835 0
M  V30 11343 H 1081.56 -2.85683 1.52207 0
M  V30 11344 H 1080.46 -1.52293 3.41698 0
M  V30 11345 H 1081.8 -2.02167 4.48764 0
M  V30 11346 N 1083.45 -1.52049 -0.414609 0
M  V30 11347 C 1084.41 -1.74382 -1.4874 0
M  V30 11348 C 1085.41 -0.613701 -1.48628 0
M  V30 11349 O 1086.6 -0.88152 -1.50249 0
M  V30 11350 C 1083.73 -1.82116 -2.88178 0
M  V30 11351 H 1084.93 -2.70147 -1.30233 0
M  V30 11352 H 1082.48 -1.42382 -0.644756 0
M  V30 11353 H 1083.21 -0.882457 -3.12063 0
M  V30 11354 H 1083 -2.64268 -2.89663 0
M  V30 11355 H 1084.49 -2.01155 -3.65959 0
M  V30 11356 N 1084.93 0.6715 -1.42579 0
M  V30 11357 C 1085.86 1.79703 -1.42266 0
M  V30 11358 C 1086.87 1.59599 -0.321268 0
M  V30 11359 O 1088.06 1.68657 -0.584564 0
M  V30 11360 C 1085.16 3.16859 -1.20224 0
M  V30 11361 C 1084.33 3.63783 -2.42859 0
M  V30 11362 C 1083.39 4.79683 -2.16312 0
M  V30 11363 O 1082.42 4.90058 -2.89537 0
M  V30 11364 N 1083.62 5.68622 -1.16831 0
M  V30 11365 H 1086.38 1.80455 -2.39282 0
M  V30 11366 H 1083.95 0.854708 -1.375 0
M  V30 11367 H 1085.94 3.92054 -1.00376 0
M  V30 11368 H 1084.51 3.10987 -0.317188 0
M  V30 11369 H 1083.73 2.7923 -2.78252 0
M  V30 11370 H 1085.02 3.91877 -3.24514 0
M  V30 11371 H 1084.41 5.62894 -0.562746 0
M  V30 11372 H 1082.97 6.43615 -1.0297 0
M  V30 11373 N 1086.4 1.28806 0.908124 0
M  V30 11374 C 1087.35 1.13215 2.01125 0
M  V30 11375 C 1088.32 0.0277357 1.66077 0
M  V30 11376 O 1089.51 0.193707 1.89814 0
M  V30 11377 C 1086.65 0.805887 3.35558 0
M  V30 11378 C 1085.76 1.9899 3.83441 0
M  V30 11379 C 1084.89 1.60376 5.06412 0
M  V30 11380 C 1083.93 2.75409 5.46641 0
M  V30 11381 N 1083.07 2.37249 6.60801 0
M  V30 11382 H 1087.91 2.07598 2.13792 0
M  V30 11383 H 1085.45 1.03316 1.0471 0
M  V30 11384 H 1087.4 0.597451 4.129 0
M  V30 11385 H 1086.03 -0.101023 3.22642 0
M  V30 11386 H 1085.09 2.31029 3.02208 0
M  V30 11387 H 1086.4 2.85214 4.09212 0
M  V30 11388 H 1085.55 1.35772 5.91313 0
M  V30 11389 H 1084.29 0.712888 4.82462 0
M  V30 11390 H 1083.3 3.00705 4.60279 0
M  V30 11391 H 1084.52 3.65148 5.72577 0
M  V30 11392 H 1082.47 1.50638 6.3847 0
M  V30 11393 H 1082.38 3.17008 6.86325 0
M  V30 11394 H 1083.65 2.15943 7.48992 0
M  V30 11395 N 1087.88 -1.11734 1.11145 0
M  V30 11396 C 1089.11 -1.87755 0.881062 0
M  V30 11397 C 1089.53 -1.79461 -0.563496 0
M  V30 11398 O 1088.89 -1.15481 -1.39763 0
M  V30 11399 C 1088.94 -3.34641 1.34342 0
M  V30 11400 O 1088.04 -4.09195 0.513157 0
M  V30 11401 H 1087.38 -0.583111 0.317613 0
M  V30 11402 H 1089.91 -1.41256 1.48013 0
M  V30 11403 H 1089.92 -3.85486 1.33658 0
M  V30 11404 H 1088.6 -3.39994 2.39534 0
M  V30 11405 H 1087.17 -3.68269 0.585833 0
M  V30 11406 N 1089.36 -0.901303 -1.29284 0
M  V30 11407 C 1090.31 -0.378666 -2.27672 0
M  V30 11408 C 1091.28 0.540102 -1.57074 0
M  V30 11409 O 1092.46 0.464997 -1.85047 0
M  V30 11410 C 1089.6 0.38635 -3.42931 0
M  V30 11411 C 1088.71 -0.563496 -4.28309 0
M  V30 11412 C 1087.85 0.218731 -5.30749 0
M  V30 11413 C 1086.89 -0.725536 -6.07785 0
M  V30 11414 N 1086.03 0.0223854 -7.02096 0
M  V30 11415 H 1090.87 -1.22277 -2.71758 0
M  V30 11416 H 1088.4 -0.614302 -1.33659 0
M  V30 11417 H 1090.36 0.845967 -4.08533 0
M  V30 11418 H 1088.99 1.1949 -2.9987 0
M  V30 11419 H 1088.04 -1.14163 -3.62865 0
M  V30 11420 H 1089.35 -1.28623 -4.81931 0
M  V30 11421 H 1088.51 0.739473 -6.02177 0
M  V30 11422 H 1087.25 0.97459 -4.77863 0
M  V30 11423 H 1086.25 -1.25776 -5.3522 0
M  V30 11424 H 1087.48 -1.48075 -6.6276 0
M  V30 11425 H 1085.42 0.760482 -6.51577 0
M  V30 11426 H 1085.34 -0.640408 -7.53283 0
M  V30 11427 H 1086.61 0.523339 -7.77741 0
M  V30 11428 N 1090.84 1.42931 -0.663954 0
M  V30 11429 C 1092.08 2.01982 -0.182007 0
M  V30 11430 C 1092.42 1.52323 1.20463 0
M  V30 11431 O 1091.69 0.720834 1.80649 0
M  V30 11432 C 1091.97 3.59518 -0.204671 0
M  V30 11433 C 1091.83 4.19382 -1.62599 0
M  V30 11434 C 1093.15 4.37762 0.45308 0
M  V30 11435 H 1090.27 0.733892 -0.0676115 0
M  V30 11436 H 1092.91 1.70092 -0.84668 0
M  V30 11437 H 1091.06 3.86816 0.361295 0
M  V30 11438 H 1092.73 4.03076 -2.24337 0
M  V30 11439 H 1090.97 3.75623 -2.17001 0
M  V30 11440 H 1091.64 5.28496 -1.59362 0
M  V30 11441 H 1094.12 4.1609 -0.0285774 0
M  V30 11442 H 1093 5.47392 0.406538 0
M  V30 11443 H 1093.26 4.1482 1.52895 0
M  V30 11444 O 1092.35 0.548716 1.51893 0
M  V30 11445 H 1093.05 0.043897 1.9365 0
M  V30 END ATOM
M  V30 BEGIN BOND
M  V30 END BOND
M  V30 END CTAB
M  END
$$$$
