drugbank_target|Q99250 Sodium channel protein type 2 subunit alpha (DB00273; DB00555; DB00564; DB01069; DB09085; DB09088; DB09342; DB09345; DB11186; DB13746)
 OpenBabel12092120043D

  0  0  0     0  0            999 V3000
M  V30 BEGIN CTAB
M  V30 COUNTS 32106 32456 0 0 0
M  V30 BEGIN ATOM
M  V30 1 H -0.908 1.98254 -0.117106 0
M  V30 2 N 0 1.576 0 0
M  V30 3 C 0.933 2.03868 1.02534 0
M  V30 4 C 1.911 0.928543 1.3348 0
M  V30 5 O 3.095 1.19667 1.45644 0
M  V30 6 C 0.222 2.43627 2.35294 0
M  V30 7 C -0.732 3.65373 2.2001 0
M  V30 8 S 0.101 5.13292 1.52614 0
M  V30 9 C 1.257 5.56322 2.86805 0
M  V30 10 H 1.49 2.90518 0.631377 0
M  V30 11 H -0.977 1.52953 0.210867 0
M  V30 12 H 0.981 2.67203 3.11629 0
M  V30 13 H -0.358 1.57376 2.7183 0
M  V30 14 H -1.165 3.90944 3.18086 0
M  V30 15 H -1.563 3.418 1.51819 0
M  V30 16 H 0.729 5.58782 3.83104 0
M  V30 17 H 1.672 6.56266 2.65933 0
M  V30 18 H 2.08 4.83886 2.90714 0
M  V30 19 N 1.4781 -0.272755 1.55222 0
M  V30 20 C 2.4411 -1.32041 1.87344 0
M  V30 21 C 3.4411 -1.42342 0.74803 0
M  V30 22 O 4.6311 -1.41488 1.0162 0
M  V30 23 C 1.7631 -2.70173 2.07893 0
M  V30 24 H 2.9561 -1.04789 2.80997 0
M  V30 25 H 0.5091 -0.51083 1.47717 0
M  V30 26 H 1.2441 -3.02605 1.16622 0
M  V30 27 H 1.0291 -2.64082 2.89833 0
M  V30 28 H 2.5191 -3.45869 2.34017 0
M  V30 29 N 2.9562 -1.48159 -0.537278 0
M  V30 30 C 3.8882 -1.58218 -1.65831 0
M  V30 31 C 4.9012 -0.466948 -1.5596 0
M  V30 32 O 6.0902 -0.73747 -1.62553 0
M  V30 33 C 3.1902 -1.48906 -3.04434 0
M  V30 34 C 2.3632 -2.75343 -3.3986 0
M  V30 35 C 1.4222 -2.59588 -4.57712 0
M  V30 36 O 0.4482 -3.33457 -4.61297 0
M  V30 37 N 1.6502 -1.68724 -5.55439 0
M  V30 38 H 4.4152 -2.54891 -1.57641 0
M  V30 39 H 1.9762 -1.4479 -0.724386 0
M  V30 40 H 3.9682 -1.36072 -3.81139 0
M  V30 41 H 2.5382 -0.602368 -3.06741 0
M  V30 42 H 1.7582 -3.02795 -2.52406 0
M  V30 43 H 3.0462 -3.5924 -3.60311 0
M  V30 44 H 2.4442 -1.07898 -5.55315 0
M  V30 45 H 1.0012 -1.61832 -6.3139 0
M  V30 46 N 4.4343 0.785586 -1.36625 0
M  V30 47 C 5.6593 1.57963 -1.34397 0
M  V30 48 C 6.0843 1.87964 0.071526 0
M  V30 49 O 5.4423 1.48182 1.0446 0
M  V30 50 C 5.4903 2.87511 -2.17646 0
M  V30 51 O 4.5943 3.81281 -1.57158 0
M  V30 52 H 3.9353 0.479014 -0.459828 0
M  V30 53 H 6.4653 0.973411 -1.79961 0
M  V30 54 H 6.4753 3.36745 -2.30362 0
M  V30 55 H 5.1503 2.65002 -3.20541 0
M  V30 56 H 3.7273 3.39885 -1.53403 0
M  V30 57 N 5.9124 1.20967 1.01018 0
M  V30 58 C 7.1584 1.02526 1.74975 0
M  V30 59 C 7.4914 -0.4408 1.89131 0
M  V30 60 O 6.7664 -1.32718 1.42184 0
M  V30 61 C 7.0494 1.71699 3.1653 0
M  V30 62 C 6.9024 3.25791 3.10129 0
M  V30 63 C 8.2214 1.45531 4.15342 0
M  V30 64 H 5.3404 0.373863 0.635134 0
M  V30 65 H 7.9824 1.49071 1.17805 0
M  V30 66 H 6.1324 1.32128 3.65341 0
M  V30 67 H 7.8044 3.74697 2.69072 0
M  V30 68 H 6.0474 3.56363 2.47362 0
M  V30 69 H 6.7184 3.69353 4.10222 0
M  V30 70 H 9.1944 1.79872 3.75213 0
M  V30 71 H 8.0704 1.96453 5.1254 0
M  V30 72 H 8.3314 0.384237 4.40427 0
M  V30 73 N 7.3905 -1.2043 1.01659 0
M  V30 74 C 8.3205 -2.25466 0.607226 0
M  V30 75 C 9.3015 -1.65853 -0.377716 0
M  V30 76 O 10.4865 -1.92409 -0.263149 0
M  V30 77 C 7.6165 -3.47256 -0.0552949 0
M  V30 78 C 6.5705 -4.19462 0.850632 0
M  V30 79 C 5.8965 -5.34673 0.0538859 0
M  V30 80 C 7.1965 -4.75603 2.15868 0
M  V30 81 H 8.8905 -2.59962 1.48526 0
M  V30 82 H 6.4365 -1.2496 0.715605 0
M  V30 83 H 8.3895 -4.19917 -0.353233 0
M  V30 84 H 7.1135 -3.11924 -0.968045 0
M  V30 85 H 5.7725 -3.48667 1.13257 0
M  V30 86 H 5.4205 -4.95585 -0.860514 0
M  V30 87 H 5.1205 -5.83913 0.657192 0
M  V30 88 H 6.6445 -6.10138 -0.237598 0
M  V30 89 H 8.0585 -5.40083 1.92311 0
M  V30 90 H 6.4555 -5.3528 2.71284 0
M  V30 91 H 7.5255 -3.94346 2.82169 0
M  V30 92 N 8.8686 -0.792821 -1.36206 0
M  V30 93 C 10.1146 -0.36733 -1.99446 0
M  V30 94 C 10.4476 1.05917 -1.62774 0
M  V30 95 O 9.7226 1.7324 -0.88421 0
M  V30 96 C 10.0056 -0.535044 -3.56103 0
M  V30 97 C 9.8586 -2.00548 -4.02617 0
M  V30 98 C 11.1776 0.0478191 -4.40074 0
M  V30 99 H 8.2966 -0.134941 -0.724541 0
M  V30 100 H 10.9386 -0.999794 -1.61568 0
M  V30 101 H 9.0886 0.00336329 -3.885 0
M  V30 102 H 10.7606 -2.60521 -3.80692 0
M  V30 103 H 9.0036 -2.50686 -3.54032 0
M  V30 104 H 9.6746 -2.07377 -5.11565 0
M  V30 105 H 12.1506 -0.411822 -4.14057 0
M  V30 106 H 11.0266 -0.0995336 -5.4881 0
M  V30 107 H 11.2876 1.14025 -4.27142 0
M  V30 108 N 10.3467 1.47872 -0.545128 0
M  V30 109 C 11.7577 1.86384 -0.108581 0
M  V30 110 C 12.1087 1.45309 1.31832 0
M  V30 111 O 11.2337 0.850641 1.9898 0
M  V30 112 C 11.8287 3.38265 -0.190274 0
M  V30 113 C 10.3877 3.75914 0.191164 0
M  V30 114 C 9.5347 2.71926 -0.543273 0
M  V30 115 H 12.4857 1.39561 -0.755537 0
M  V30 116 H 12.5067 3.75831 0.594217 0
M  V30 117 H 12.0187 3.6813 -1.2289 0
M  V30 118 H 10.1197 3.51665 1.23136 0
M  V30 119 H 10.2327 4.78836 -0.158987 0
M  V30 120 H 8.5967 2.54697 0.0122495 0
M  V30 121 H 9.3797 3.04634 -1.58282 0
M  V30 122 N 11.8248 0.280983 1.55075 0
M  V30 123 C 13.2358 -0.215629 1.85451 0
M  V30 124 C 13.5868 -1.54991 1.203 0
M  V30 125 O 12.7118 -2.10699 0.493435 0
M  V30 126 C 13.3068 -0.398026 3.36454 0
M  V30 127 C 11.8658 -0.838866 3.66933 0
M  V30 128 C 11.0128 0.064458 2.77225 0
M  V30 129 H 13.9638 0.502601 1.50531 0
M  V30 130 H 13.9848 -1.23569 3.59876 0
M  V30 131 H 13.4968 0.573241 3.83843 0
M  V30 132 H 11.5978 -1.8214 3.25048 0
M  V30 133 H 11.7108 -0.672123 4.74362 0
M  V30 134 H 10.0748 -0.452863 2.50642 0
M  V30 135 H 10.8578 1.03172 3.2743 0
M  V30 136 N 13.3029 -1.57598 0.00835791 0
M  V30 137 C 14.5509 -1.90551 -0.6734 0
M  V30 138 C 14.8719 -0.883301 -1.73847 0
M  V30 139 O 14.1419 0.0781442 -1.95744 0
M  V30 140 H 12.7219 -0.703312 -0.251717 0
M  V30 141 H 15.3839 -1.94833 0.0512592 0
M  V30 142 H 14.4799 -2.9056 -1.13935 0
M  V30 143 N 14.781 0.264519 -1.55364 0
M  V30 144 C 16.192 0.834936 -1.6699 0
M  V30 145 C 16.543 1.86718 -0.602552 0
M  V30 146 O 15.668 2.14899 0.254425 0
M  V30 147 C 16.263 1.5212 -3.02729 0
M  V30 148 C 14.822 2.03954 -3.16354 0
M  V30 149 C 13.969 0.884498 -2.62815 0
M  V30 150 H 16.92 0.0406869 -1.58648 0
M  V30 151 H 16.941 2.38853 -2.96191 0
M  V30 152 H 16.453 0.769668 -3.80392 0
M  V30 153 H 14.554 2.82041 -2.43482 0
M  V30 154 H 14.667 2.24902 -4.23032 0
M  V30 155 H 13.031 1.2802 -2.20188 0
M  V30 156 H 13.814 0.14634 -3.42988 0
M  V30 157 N 16.2591 1.48442 0.529413 0
M  V30 158 C 17.5361 1.46978 1.29062 0
M  V30 159 C 17.9161 0.181769 2.10316 0
M  V30 160 O 17.2641 -0.836481 2.12639 0
M  V30 161 C 17.4741 2.7321 2.17157 0
M  V30 162 C 18.8221 3.21562 2.77278 0
M  V30 163 O 19.8461 2.74131 2.27444 0
M  V30 164 O 18.7051 4.04094 3.67927 0
M  V30 165 H 15.7991 0.587003 0.582543 0
M  V30 166 H 18.3451 1.60676 0.546021 0
M  V30 167 H 17.1171 3.58465 1.56903 0
M  V30 168 H 16.7401 2.62235 2.98862 0
M  V30 169 N 17.7372 -0.778329 1.37039 0
M  V30 170 C 18.9622 -1.57248 1.35233 0
M  V30 171 C 19.3872 -1.87999 -0.0615568 0
M  V30 172 O 18.7452 -1.48734 -1.03672 0
M  V30 173 C 18.7932 -2.86353 2.19167 0
M  V30 174 O 17.8972 -3.80442 1.59178 0
M  V30 175 H 17.2382 -0.476569 0.462362 0
M  V30 176 H 19.7682 -0.963853 1.80474 0
M  V30 177 H 19.7782 -3.35519 2.32145 0
M  V30 178 H 18.4532 -2.63299 3.21942 0
M  V30 179 H 17.0302 -3.39067 1.55203 0
M  V30 180 N 19.2153 -1.21501 -1.00376 0
M  V30 181 C 20.4623 -1.03299 -1.74171 0
M  V30 182 C 20.7903 0.433326 -1.89612 0
M  V30 183 O 20.0453 1.33779 -1.42834 0
M  V30 184 C 20.3443 -1.67673 -3.15627 0
M  V30 185 C 20.0103 -3.17533 -3.2013 0
M  V30 186 C 18.6723 -3.58427 -3.21067 0
M  V30 187 C 21.0243 -4.13504 -3.17275 0
M  V30 188 C 18.3523 -4.93794 -3.16835 0
M  V30 189 C 20.7043 -5.48834 -3.14585 0
M  V30 190 C 19.3683 -5.89123 -3.13831 0
M  V30 191 H 18.6383 -0.377999 -0.637336 0
M  V30 192 H 21.2853 -1.51111 -1.17634 0
M  V30 193 H 19.5903 -1.12158 -3.75404 0
M  V30 194 H 21.2873 -1.51091 -3.71446 0
M  V30 195 H 17.8773 -2.84965 -3.20145 0
M  V30 196 H 22.0613 -3.82936 -3.15711 0
M  V30 197 H 17.3173 -5.24255 -3.1459 0
M  V30 198 H 21.4913 -6.22934 -3.1133 0
M  V30 199 H 19.1183 -6.93984 -3.10307 0
M  V30 200 N 20.6934 1.19889 -1.02296 0
M  V30 201 C 22.1094 1.41462 -0.738954 0
M  V30 202 C 22.3094 1.89721 0.678846 0
M  V30 203 O 21.3654 2.07016 1.4457 0
M  V30 204 C 22.6784 2.43083 -1.77005 0
M  V30 205 C 24.2264 2.5684 -1.78892 0
M  V30 206 C 24.7014 3.61709 -2.80945 0
M  V30 207 N 26.1924 3.69199 -2.79725 0
M  V30 208 C 26.9274 4.50019 -3.55345 0
M  V30 209 N 26.4234 5.34592 -4.40662 0
M  V30 210 N 28.2164 4.44612 -3.43914 0
M  V30 211 H 20.3674 0.868827 -1.93817 0
M  V30 212 H 22.6304 0.44399 -0.837602 0
M  V30 213 H 22.3364 2.14636 -2.78612 0
M  V30 214 H 22.2104 3.4217 -1.58744 0
M  V30 215 H 24.5974 2.84614 -0.779674 0
M  V30 216 H 24.6784 1.57927 -2.01228 0
M  V30 217 H 24.3224 3.34678 -3.82038 0
M  V30 218 H 24.2524 4.60259 -2.5587 0
M  V30 219 H 26.7434 3.08794 -2.17842 0
M  V30 220 H 27.0564 5.93363 -4.95116 0
M  V30 221 H 25.4014 5.34073 -4.44737 0
M  V30 222 H 28.5924 3.7758 -2.76679 0
M  V30 223 H 28.7654 5.0736 -4.031 0
M  V30 224 N 22.1715 0.800033 1.35784 0
M  V30 225 C 23.4185 0.377342 1.98953 0
M  V30 226 C 23.7465 -1.05378 1.6348 0
M  V30 227 O 23.0015 -1.74459 0.886707 0
M  V30 228 C 23.3005 0.500276 3.53881 0
M  V30 229 C 22.9665 1.89375 4.09204 0
M  V30 230 C 21.6285 2.27499 4.24025 0
M  V30 231 C 23.9805 2.8057 4.39238 0
M  V30 232 C 21.3085 3.562 4.66195 0
M  V30 233 C 23.6605 4.0871 4.82844 0
M  V30 234 C 22.3245 4.46843 4.95871 0
M  V30 235 H 21.5945 0.138079 0.728021 0
M  V30 236 H 24.2415 1.01955 1.62103 0
M  V30 237 H 22.5465 -0.225405 3.91151 0
M  V30 238 H 24.2435 0.154097 4.00704 0
M  V30 239 H 20.8335 1.58753 3.98115 0
M  V30 240 H 25.0175 2.52367 4.27346 0
M  V30 241 H 20.2735 3.85602 4.74469 0
M  V30 242 H 24.4475 4.79481 5.05046 0
M  V30 243 H 22.0745 5.46623 5.28306 0
M  V30 244 N 23.6496 -1.47581 0.552962 0
M  V30 245 C 24.8966 -2.02482 0.0273243 0
M  V30 246 C 25.2246 -1.42776 -1.32081 0
M  V30 247 O 24.4796 -0.571393 -1.87173 0
M  V30 248 C 24.7786 -3.57199 -0.119728 0
M  V30 249 C 24.4446 -4.35804 1.15697 0
M  V30 250 C 23.1066 -4.57 1.50681 0
M  V30 251 C 25.4586 -4.81167 2.00319 0
M  V30 252 C 22.7866 -5.20807 2.70142 0
M  V30 253 C 25.1386 -5.46293 3.18978 0
M  V30 254 C 23.8026 -5.65722 3.54281 0
M  V30 255 H 23.0726 -0.740933 0.00999866 0
M  V30 256 H 25.7196 -1.77302 0.72362 0
M  V30 257 H 24.0246 -3.81348 -0.89896 0
M  V30 258 H 25.7216 -3.97324 -0.541718 0
M  V30 259 H 22.3116 -4.19582 0.874561 0
M  V30 260 H 26.4956 -4.64574 1.74599 0
M  V30 261 H 21.7516 -5.34045 2.97668 0
M  V30 262 H 25.9256 -5.80407 3.84838 0
M  V30 263 H 23.5526 -6.14936 4.46942 0
M  V30 264 N 25.1277 -0.289203 -1.54924 0
M  V30 265 C 26.3557 0.326463 -2.04308 0
M  V30 266 C 26.7707 1.48413 -1.16701 0
M  V30 267 O 26.1277 1.81507 -0.190087 0
M  V30 268 C 26.1787 0.794014 -3.52672 0
M  V30 269 O 25.8997 -0.317564 -4.36948 0
M  V30 270 C 27.4007 1.47605 -4.18004 0
M  V30 271 H 24.6207 0.0726272 -0.667058 0
M  V30 272 H 27.1647 -0.425401 -2.00026 0
M  V30 273 H 25.3197 1.49593 -3.57352 0
M  V30 274 H 25.7337 0.0443186 -5.24481 0
M  V30 275 H 27.2077 1.75447 -5.23376 0
M  V30 276 H 27.6847 2.41224 -3.67025 0
M  V30 277 H 28.2907 0.81762 -4.17367 0
M  V30 278 N 26.6058 1.57591 -0.0167156 0
M  V30 279 C 28.0218 1.55946 0.339557 0
M  V30 280 C 28.2218 1.02109 1.73713 0
M  V30 281 O 27.2778 0.662303 2.43659 0
M  V30 282 C 28.5908 3.00037 0.199499 0
M  V30 283 C 30.1388 3.11805 0.273193 0
M  V30 284 C 30.6138 4.57713 0.162068 0
M  V30 285 N 32.1048 4.6268 0.219444 0
M  V30 286 C 32.8398 5.73185 0.157054 0
M  V30 287 N 32.3358 6.92786 0.0442936 0
M  V30 288 N 34.1288 5.61707 0.21014 0
M  V30 289 H 26.2798 1.90921 -0.930758 0
M  V30 290 H 28.5428 0.877674 -0.358319 0
M  V30 291 H 28.2488 3.4333 -0.76273 0
M  V30 292 H 28.1228 3.64387 0.974786 0
M  V30 293 H 30.5098 2.68433 1.22587 0
M  V30 294 H 30.5908 2.50201 -0.532256 0
M  V30 295 H 30.2348 5.01763 -0.78714 0
M  V30 296 H 30.1648 5.17283 0.986222 0
M  V30 297 H 32.6558 3.76649 0.307246 0
M  V30 298 H 32.9688 7.728 0.00304069 0
M  V30 299 H 31.3138 6.94999 0.00968457 0
M  V30 300 H 34.5048 4.6716 0.296546 0
M  V30 301 H 34.6778 6.47807 0.158054 0
M  V30 302 N 28.0839 -0.256276 1.55502 0
M  V30 303 C 28.9939 -1.33882 1.92647 0
M  V30 304 C 30.0099 -1.53159 0.825727 0
M  V30 305 O 31.1859 -1.66963 1.12629 0
M  V30 306 C 28.2509 -2.6751 2.20543 0
M  V30 307 C 27.3119 -2.56836 3.43997 0
M  V30 308 C 26.5449 -3.84092 3.70553 0
M  V30 309 O 26.7679 -4.85545 2.99336 0
M  V30 310 O 25.7019 -3.83288 4.64084 0
M  V30 311 H 29.5279 -1.05374 2.84833 0
M  V30 312 H 27.1129 -0.456237 1.42263 0
M  V30 313 H 28.9949 -3.46492 2.39835 0
M  V30 314 H 27.6699 -2.9577 1.31536 0
M  V30 315 H 26.5769 -1.76172 3.30021 0
M  V30 316 H 27.9099 -2.33523 4.33275 0
M  V30 317 N 29.562 -1.4872 -0.521534 0
M  V30 318 C 30.787 -1.61101 -1.30618 0
M  V30 319 C 31.212 -0.274611 -1.86085 0
M  V30 320 O 30.57 0.754937 -1.64834 0
M  V30 321 C 30.618 -2.66709 -2.4269 0
M  V30 322 O 29.722 -2.24456 -3.45967 0
M  V30 323 H 29.063 -0.539921 -0.386499 0
M  V30 324 H 31.593 -1.94767 -0.626645 0
M  V30 325 H 31.603 -2.88245 -2.88754 0
M  V30 326 H 30.278 -3.63727 -2.01682 0
M  V30 327 H 28.855 -2.13168 -3.05964 0
M  V30 328 N 31.0401 0.771051 -1.3745 0
M  V30 329 C 31.9701 1.89827 -1.3597 0
M  V30 330 C 32.9511 1.68562 -0.228216 0
M  V30 331 O 34.1361 1.8941 -0.428675 0
M  V30 332 C 31.2661 3.2712 -1.16662 0
M  V30 333 C 30.2201 3.6295 -2.2683 0
M  V30 334 C 29.5461 4.98791 -1.92644 0
M  V30 335 C 30.8461 3.69627 -3.69017 0
M  V30 336 H 32.5401 1.91323 -2.30295 0
M  V30 337 H 30.0861 0.919082 -1.10855 0
M  V30 338 H 32.0391 4.05615 -1.14256 0
M  V30 339 H 30.7631 3.26059 -0.187926 0
M  V30 340 H 29.4221 2.86763 -2.28392 0
M  V30 341 H 29.0701 4.94271 -0.933021 0
M  V30 342 H 28.7701 5.23733 -2.66416 0
M  V30 343 H 30.2941 5.79685 -1.91826 0
M  V30 344 H 31.7081 4.38273 -3.69581 0
M  V30 345 H 30.1051 4.06067 -4.41848 0
M  V30 346 H 31.1751 2.70273 -4.02592 0
M  V30 347 N 32.5182 1.22032 0.997298 0
M  V30 348 C 33.4812 0.987909 2.06816 0
M  V30 349 C 34.4812 -0.0440084 1.6074 0
M  V30 350 O 35.6712 0.194053 1.73116 0
M  V30 351 C 32.8032 0.49132 3.37341 0
M  V30 352 H 33.9962 1.93803 2.28868 0
M  V30 353 H 31.5492 1.03838 1.16822 0
M  V30 354 H 32.2842 -0.463364 3.20973 0
M  V30 355 H 32.0692 1.23575 3.72118 0
M  V30 356 H 33.5592 0.348824 4.16141 0
M  V30 357 N 33.9963 -1.19345 1.0293 0
M  V30 358 C 34.9593 -2.20793 0.615069 0
M  V30 359 C 35.9593 -1.57553 -0.321533 0
M  V30 360 O 37.1493 -1.73862 -0.108483 0
M  V30 361 C 34.2813 -3.40754 -0.0999222 0
M  V30 362 H 35.4743 -2.58955 1.51269 0
M  V30 363 H 33.0273 -1.3303 0.820534 0
M  V30 364 H 33.7623 -3.0811 -1.01187 0
M  V30 365 H 33.5473 -3.87889 0.57309 0
M  V30 366 H 35.0373 -4.15898 -0.376645 0
M  V30 367 N 35.4744 -0.807222 -1.35358 0
M  V30 368 C 36.7234 -0.384376 -1.98004 0
M  V30 369 C 37.0364 1.0543 -1.64754 0
M  V30 370 O 38.2424 1.58029 -2.20769 0
M  V30 371 C 36.6984 -0.636326 -3.5423 0
M  V30 372 C 36.3064 -2.08759 -3.96388 0
M  V30 373 C 38.0504 -0.278869 -4.23583 0
M  V30 374 C 35.9574 -2.28525 -5.45463 0
M  V30 375 H 34.8874 -0.139986 -0.740891 0
M  V30 376 H 37.5384 -0.991369 -1.54415 0
M  V30 377 H 35.9204 0.0406256 -3.95979 0
M  V30 378 H 37.0944 -2.8024 -3.6579 0
M  V30 379 H 35.4094 -2.40497 -3.39926 0
M  V30 380 H 38.0064 -0.404599 -5.33167 0
M  V30 381 H 38.3494 0.775012 -4.09022 0
M  V30 382 H 38.8824 -0.909764 -3.87257 0
M  V30 383 H 35.6214 -3.32361 -5.64992 0
M  V30 384 H 35.1414 -1.61569 -5.77629 0
M  V30 385 H 36.8204 -2.10109 -6.11934 0
M  V30 386 N 36.9525 1.47285 -0.560781 0
M  V30 387 C 37.8625 2.33846 0.187954 0
M  V30 388 C 38.8785 1.48412 0.908293 0
M  V30 389 O 40.0545 1.81332 0.876388 0
M  V30 390 C 37.1195 3.25178 1.2025 0
M  V30 391 C 36.1805 4.26504 0.489208 0
M  V30 392 C 35.4135 5.13472 1.45542 0
M  V30 393 O 35.6365 5.02959 2.6905 0
M  V30 394 O 34.5705 5.93902 0.977963 0
M  V30 395 H 38.3965 2.99177 -0.522177 0
M  V30 396 H 35.9815 1.45903 -0.321364 0
M  V30 397 H 37.8635 3.81584 1.78805 0
M  V30 398 H 36.5385 2.6247 1.89449 0
M  V30 399 H 35.4455 3.73847 -0.137627 0
M  V30 400 H 36.7785 4.91935 -0.161399 0
M  V30 401 N 38.4306 0.297415 1.54768 0
M  V30 402 C 39.3626 -0.613881 2.20826 0
M  V30 403 C 40.3756 -1.10032 1.19987 0
M  V30 404 O 41.5646 -1.01839 1.46598 0
M  V30 405 C 38.6646 -1.852 2.83821 0
M  V30 406 C 37.8376 -1.50865 4.10559 0
M  V30 407 C 36.8966 -2.60154 4.57391 0
M  V30 408 O 35.9226 -2.25398 5.2267 0
M  V30 409 N 37.1246 -3.90629 4.29406 0
M  V30 410 H 39.8896 -0.048389 2.99661 0
M  V30 411 H 37.4506 0.11946 1.61459 0
M  V30 412 H 39.4426 -2.57652 3.12086 0
M  V30 413 H 38.0126 -2.32597 2.08847 0
M  V30 414 H 37.2326 -0.616925 3.89343 0
M  V30 415 H 38.5206 -1.25458 4.9309 0
M  V30 416 H 37.9186 -4.21677 3.77101 0
M  V30 417 H 36.4756 -4.59391 4.62388 0
M  V30 418 N 39.9087 -1.5758 0.0250728 0
M  V30 419 C 41.3247 -1.56124 -0.331282 0
M  V30 420 C 41.5247 -1.03029 -1.73169 0
M  V30 421 O 40.5807 -0.675215 -2.43305 0
M  V30 422 C 41.8937 -3.00139 -0.183584 0
M  V30 423 C 43.4417 -3.11946 -0.256654 0
M  V30 424 C 43.9167 -4.57793 -0.137792 0
M  V30 425 N 45.4077 -4.6279 -0.194904 0
M  V30 426 C 46.1427 -5.7326 -0.126655 0
M  V30 427 N 45.6387 -6.928 -0.00755288 0
M  V30 428 N 47.4317 -5.61811 -0.180348 0
M  V30 429 H 39.5827 -1.90424 0.94087 0
M  V30 430 H 41.8457 -0.875761 0.362968 0
M  V30 431 H 41.5517 -3.4292 0.780927 0
M  V30 432 H 41.4257 -3.64899 -0.955448 0
M  V30 433 H 43.8127 -2.69079 -1.21162 0
M  V30 434 H 43.8937 -2.49915 0.545517 0
M  V30 435 H 43.5377 -5.01339 0.813739 0
M  V30 436 H 43.4677 -5.17798 -0.958775 0
M  V30 437 H 45.9587 -3.76807 -0.287267 0
M  V30 438 H 46.2717 -7.72791 0.0379428 0
M  V30 439 H 44.6167 -6.94995 0.0271731 0
M  V30 440 H 47.8077 -4.6731 -0.271767 0
M  V30 441 H 47.9807 -6.47882 -0.123697 0
M  V30 442 N 41.3868 0.248026 -1.55636 0
M  V30 443 C 42.6358 0.974134 -1.76617 0
M  V30 444 C 42.9488 1.86528 -0.588796 0
M  V30 445 O 44.1548 2.62805 -0.681594 0
M  V30 446 C 42.6108 1.78213 -3.12679 0
M  V30 447 C 42.2188 0.93843 -4.38061 0
M  V30 448 C 43.9628 2.50104 -3.42999 0
M  V30 449 C 41.8698 1.74225 -5.65155 0
M  V30 450 H 40.7998 0.36745 -0.658405 0
M  V30 451 H 43.4508 0.22884 -1.82067 0
M  V30 452 H 41.8328 2.56933 -3.01333 0
M  V30 453 H 43.0068 0.193635 -4.60393 0
M  V30 454 H 41.3218 0.332905 -4.15067 0
M  V30 455 H 43.9188 3.10694 -4.3517 0
M  V30 456 H 44.2618 3.21662 -2.64271 0
M  V30 457 H 44.7948 1.78395 -3.55556 0
M  V30 458 H 41.5338 1.07043 -6.46701 0
M  V30 459 H 41.0538 2.46235 -5.46926 0
M  V30 460 H 42.7328 2.30967 -6.0437 0
M  V30 461 N 42.8649 1.48995 0.513639 0
M  V30 462 C 43.8279 1.64229 1.59879 0
M  V30 463 C 44.8279 0.514696 1.5234 0
M  V30 464 O 46.0179 0.78087 1.55718 0
M  V30 465 C 43.1499 1.62783 2.99524 0
M  V30 466 H 44.3429 2.61004 1.47705 0
M  V30 467 H 41.8959 1.37837 0.736936 0
M  V30 468 H 42.6309 0.675461 3.17188 0
M  V30 469 H 42.4159 2.4466 3.06404 0
M  V30 470 H 43.9059 1.76669 3.78388 0
M  V30 471 N 44.343 -0.763751 1.37857 0
M  V30 472 C 45.253 -1.90817 1.36478 0
M  V30 473 C 46.269 -1.71997 0.263248 0
M  V30 474 O 47.445 -1.95095 0.499979 0
M  V30 475 C 44.51 -3.2605 1.17864 0
M  V30 476 C 43.571 -3.57467 2.3773 0
M  V30 477 C 42.804 -4.86249 2.19995 0
M  V30 478 O 43.027 -5.57884 1.18836 0
M  V30 479 O 41.961 -5.16911 3.08361 0
M  V30 480 H 45.787 -1.94933 2.32884 0
M  V30 481 H 43.372 -0.907619 1.1867 0
M  V30 482 H 45.254 -4.06924 1.09504 0
M  V30 483 H 43.929 -3.22769 0.245372 0
M  V30 484 H 42.836 -2.76796 2.51664 0
M  V30 485 H 44.169 -3.655 3.29652 0
M  V30 486 N 45.8211 -1.22559 -0.990812 0
M  V30 487 C 46.7311 -1.01394 -2.11557 0
M  V30 488 C 47.7471 0.0383962 -1.73958 0
M  V30 489 O 48.9231 -0.154787 -2.00804 0
M  V30 490 C 45.9881 -0.596569 -3.41529 0
M  V30 491 C 45.0491 -1.72276 -3.93217 0
M  V30 492 C 44.2821 -1.32521 -5.16985 0
M  V30 493 O 44.5051 -0.204909 -5.70032 0
M  V30 494 O 43.4391 -2.14247 -5.62478 0
M  V30 495 H 47.2651 -1.95633 -2.32296 0
M  V30 496 H 44.8501 -1.01172 -1.0993 0
M  V30 497 H 46.7321 -0.374263 -4.19735 0
M  V30 498 H 45.4071 0.316939 -3.22145 0
M  V30 499 H 44.3141 -1.99961 -3.16174 0
M  V30 500 H 45.6471 -2.61421 -4.17037 0
M  V30 501 N 47.2992 1.18797 -1.03562 0
M  V30 502 C 48.2462 2.22253 -0.622259 0
M  V30 503 C 49.2162 1.61987 0.36736 0
M  V30 504 O 50.4012 1.88986 0.262492 0
M  V30 505 C 47.5412 3.45097 0.0138462 0
M  V30 506 C 46.6542 4.19722 -1.02263 0
M  V30 507 C 45.7892 5.30009 -0.355573 0
M  V30 508 C 44.8282 5.96399 -1.37749 0
M  V30 509 N 43.9652 6.98234 -0.735766 0
M  V30 510 H 48.8052 2.56968 -1.50903 0
M  V30 511 H 46.3422 1.26245 -0.755017 0
M  V30 512 H 48.3002 4.15279 0.399948 0
M  V30 513 H 46.9302 3.11018 0.864158 0
M  V30 514 H 45.9822 3.48418 -1.52673 0
M  V30 515 H 47.2942 4.65227 -1.79903 0
M  V30 516 H 46.4482 6.0664 0.0850095 0
M  V30 517 H 45.1872 4.85592 0.452967 0
M  V30 518 H 44.1922 5.18512 -1.82826 0
M  V30 519 H 45.4172 6.42899 -2.18764 0
M  V30 520 H 43.3632 6.55979 0.0525597 0
M  V30 521 H 43.2802 7.41965 -1.44995 0
M  V30 522 H 44.5482 7.78845 -0.31941 0
M  V30 523 N 48.7773 0.814389 1.34928 0
M  V30 524 C 49.7403 0.235759 2.27984 0
M  V30 525 C 50.7403 -0.581412 1.49921 0
M  V30 526 O 51.9303 -0.398758 1.69575 0
M  V30 527 C 49.0623 -0.670433 3.34242 0
M  V30 528 H 50.2553 1.05659 2.80671 0
M  V30 529 H 47.8083 0.585614 1.44915 0
M  V30 530 H 48.5433 -1.51466 2.86755 0
M  V30 531 H 48.3283 -0.0860822 3.92005 0
M  V30 532 H 49.8183 -1.06935 4.03676 0
M  V30 533 N 50.2554 -1.46986 0.568584 0
M  V30 534 C 51.2024 -2.30153 -0.172707 0
M  V30 535 C 52.1724 -1.39759 -0.897586 0
M  V30 536 O 53.3574 -1.68716 -0.891044 0
M  V30 537 C 50.4974 -3.23952 -1.1895 0
M  V30 538 C 49.6104 -4.29441 -0.469517 0
M  V30 539 C 48.7454 -5.1038 -1.47259 0
M  V30 540 C 47.7844 -6.07632 -0.738225 0
M  V30 541 N 46.9214 -6.8149 -1.68868 0
M  V30 542 H 51.7614 -2.93019 0.542596 0
M  V30 543 H 49.2984 -1.44422 0.279401 0
M  V30 544 H 51.2564 -3.76767 -1.79173 0
M  V30 545 H 49.8864 -2.62926 -1.87269 0
M  V30 546 H 48.9384 -3.79594 0.247467 0
M  V30 547 H 50.2504 -4.98689 0.105241 0
M  V30 548 H 49.4044 -5.67402 -2.14803 0
M  V30 549 H 48.1434 -4.4106 -2.08128 0
M  V30 550 H 47.1484 -5.49778 -0.0489293 0
M  V30 551 H 48.3734 -6.78966 -0.135129 0
M  V30 552 H 46.3194 -6.14891 -2.28573 0
M  V30 553 H 46.2364 -7.46948 -1.16636 0
M  V30 554 H 47.5044 -7.43078 -2.3549 0
M  V30 555 N 51.7335 -0.305618 -1.54608 0
M  V30 556 C 53.1495 0.0476228 -1.59529 0
M  V30 557 C 53.3495 1.52025 -1.32252 0
M  V30 558 O 52.4055 2.27368 -1.09818 0
M  V30 559 C 53.7185 -0.354471 -2.98603 0
M  V30 560 C 55.2665 -0.303622 -3.11524 0
M  V30 561 C 55.7415 -0.680608 -4.52915 0
M  V30 562 N 57.2325 -0.63332 -4.5885 0
M  V30 563 C 57.9675 -0.897432 -5.66334 0
M  V30 564 N 57.4635 -1.22775 -6.81834 0
M  V30 565 N 59.2565 -0.824186 -5.56025 0
M  V30 566 H 51.4075 -1.2653 -1.70599 0
M  V30 567 H 53.6705 -0.513291 -0.797017 0
M  V30 568 H 53.3765 -1.3798 -3.23503 0
M  V30 569 H 53.2505 0.289568 -3.76087 0
M  V30 570 H 55.6375 0.712472 -2.8637 0
M  V30 571 H 55.7185 -0.982348 -2.36185 0
M  V30 572 H 55.3625 -1.69453 -4.78799 0
M  V30 573 H 55.2925 0.0202385 -5.26596 0
M  V30 574 H 57.7835 -0.389138 -3.75891 0
M  V30 575 H 58.0965 -1.41513 -7.59733 0
M  V30 576 H 56.4415 -1.26583 -6.83375 0
M  V30 577 H 59.6325 -0.565748 -4.64669 0
M  V30 578 H 59.8055 -1.03338 -6.39707 0
M  V30 579 N 53.2116 1.57565 -0.0334293 0
M  V30 580 C 54.6226 1.79746 0.504798 0
M  V30 581 C 54.9736 0.944091 1.71992 0
M  V30 582 O 54.0986 0.155694 2.15839 0
M  V30 583 C 54.6936 3.25997 0.922567 0
M  V30 584 C 53.2526 3.49159 1.40588 0
M  V30 585 C 52.3996 2.74785 0.372633 0
M  V30 586 H 55.3506 1.56565 -0.259436 0
M  V30 587 H 55.3716 3.35945 1.78666 0
M  V30 588 H 54.8836 3.88081 0.0379825 0
M  V30 589 H 52.9846 2.92332 2.31025 0
M  V30 590 H 53.0976 4.57873 1.41028 0
M  V30 591 H 51.4616 2.40391 0.841672 0
M  V30 592 H 52.2446 3.39587 -0.503559 0
M  V30 593 N 54.6897 -0.239769 1.55765 0
M  V30 594 C 55.6367 -1.29696 1.90913 0
M  V30 595 C 56.6067 -1.47478 0.764164 0
M  V30 596 O 57.7917 -1.61345 1.01845 0
M  V30 597 C 54.9317 -2.64598 2.21544 0
M  V30 598 C 54.0447 -2.54765 3.48882 0
M  V30 599 C 53.1797 -3.82069 3.69049 0
M  V30 600 C 52.2187 -3.66883 4.89963 0
M  V30 601 N 51.3557 -4.86094 5.06614 0
M  V30 602 H 56.1957 -0.990224 2.81067 0
M  V30 603 H 53.7327 -0.477684 1.39128 0
M  V30 604 H 55.6907 -3.43132 2.3731 0
M  V30 605 H 54.3207 -2.93405 1.34585 0
M  V30 606 H 53.3727 -1.67763 3.41409 0
M  V30 607 H 54.6847 -2.39457 4.37563 0
M  V30 608 H 53.8387 -4.69046 3.84812 0
M  V30 609 H 52.5777 -4.00282 2.78614 0
M  V30 610 H 51.5827 -2.78289 4.74168 0
M  V30 611 H 52.8077 -3.50157 5.81865 0
M  V30 612 H 50.7537 -5.04655 4.19117 0
M  V30 613 H 50.6707 -4.73443 5.89396 0
M  V30 614 H 51.9387 -5.74549 5.26795 0
M  V30 615 N 56.1678 -1.49265 -0.50573 0
M  V30 616 C 57.0998 -1.617 -1.62437 0
M  V30 617 C 58.1128 -0.499924 -1.54934 0
M  V30 618 O 59.3018 -0.771785 -1.60953 0
M  V30 619 C 56.4018 -1.5533 -3.01207 0
M  V30 620 C 55.5748 -2.8249 -3.33943 0
M  V30 621 C 54.6338 -2.69238 -4.52103 0
M  V30 622 O 53.6598 -3.43167 -4.5412 0
M  V30 623 N 54.8618 -1.80468 -5.51735 0
M  V30 624 H 57.6268 -2.58177 -1.52199 0
M  V30 625 H 55.1878 -1.46294 -0.693511 0
M  V30 626 H 57.1798 -1.44125 -3.78167 0
M  V30 627 H 55.7498 -0.667297 -3.05395 0
M  V30 628 H 54.9698 -3.08081 -2.45926 0
M  V30 629 H 56.2578 -3.66802 -3.5261 0
M  V30 630 H 55.6558 -1.19653 -5.52901 0
M  V30 631 H 54.2128 -1.75188 -6.27816 0
M  V30 632 N 57.6459 0.756429 -1.3826 0
M  V30 633 C 58.5559 1.9009 -1.37488 0
M  V30 634 C 59.5719 1.71855 -0.272366 0
M  V30 635 O 60.7479 1.94827 -0.510318 0
M  V30 636 C 57.8129 3.25421 -1.19592 0
M  V30 637 C 56.8739 3.56202 -2.39622 0
M  V30 638 C 56.1069 4.85075 -2.2257 0
M  V30 639 O 56.3299 5.57246 -1.21793 0
M  V30 640 O 55.2639 5.15269 -3.11098 0
M  V30 641 H 59.0899 1.93695 -2.33914 0
M  V30 642 H 56.6749 0.901313 -1.1915 0
M  V30 643 H 58.5569 4.06337 -1.11661 0
M  V30 644 H 57.2319 3.22634 -0.262486 0
M  V30 645 H 56.1389 2.75458 -2.53128 0
M  V30 646 H 57.4719 3.63747 -3.31586 0
M  V30 647 N 59.124 1.23083 0.984299 0
M  V30 648 C 60.54 0.992637 1.24975 0
M  V30 649 C 60.74 -0.308618 1.99123 0
M  V30 650 O 59.796 -1.02905 2.30579 0
M  V30 651 C 61.109 2.19698 2.05312 0
M  V30 652 C 62.657 2.24147 2.18465 0
M  V30 653 C 63.132 3.44157 3.02192 0
M  V30 654 N 64.623 3.44372 3.09777 0
M  V30 655 C 65.358 4.33886 3.74874 0
M  V30 656 N 64.854 5.3363 4.41827 0
M  V30 657 N 66.647 4.21639 3.71721 0
M  V30 658 H 58.798 2.06731 0.487453 0
M  V30 659 H 61.061 0.906339 0.277944 0
M  V30 660 H 60.767 3.1411 1.58201 0
M  V30 661 H 60.641 2.20465 3.06064 0
M  V30 662 H 63.028 1.30277 2.64786 0
M  V30 663 H 63.109 2.27415 1.17115 0
M  V30 664 H 62.753 4.38332 2.56568 0
M  V30 665 H 62.683 3.3813 4.03702 0
M  V30 666 H 65.174 2.72201 2.62135 0
M  V30 667 H 65.487 5.98196 4.89266 0
M  V30 668 H 63.832 5.37534 4.40548 0
M  V30 669 H 67.023 3.42962 3.18582 0
M  V30 670 H 67.196 4.91604 4.22173 0
M  V30 671 N 60.6021 -1.18246 1.0419 0
M  V30 672 C 61.5491 -2.2192 0.634037 0
M  V30 673 C 62.5191 -1.62179 -0.358765 0
M  V30 674 O 63.7041 -1.89122 -0.252466 0
M  V30 675 C 60.8441 -3.451 0.00445535 0
M  V30 676 C 59.9571 -4.19174 1.04487 0
M  V30 677 C 59.0921 -5.29813 0.383676 0
M  V30 678 C 58.1311 -5.9566 1.4091 0
M  V30 679 N 57.2681 -6.97834 0.772784 0
M  V30 680 H 62.1081 -2.56164 1.52263 0
M  V30 681 H 59.6451 -1.25843 0.761701 0
M  V30 682 H 61.6031 -4.15485 -0.377919 0
M  V30 683 H 60.2331 -3.11472 -0.847652 0
M  V30 684 H 59.2851 -3.47604 1.54518 0
M  V30 685 H 60.5971 -4.64267 1.82368 0
M  V30 686 H 59.7511 -6.06677 -0.0528366 0
M  V30 687 H 58.4901 -4.85825 -0.427208 0
M  V30 688 H 57.4951 -5.17535 1.85574 0
M  V30 689 H 58.7201 -6.4173 2.22171 0
M  V30 690 H 56.6661 -6.55998 -0.0177708 0
M  V30 691 H 56.5831 -7.41186 1.48928 0
M  V30 692 H 57.8511 -7.78665 0.36071 0
M  V30 693 N 62.0802 -0.821533 -1.34494 0
M  V30 694 C 63.3572 -0.33159 -1.92769 0
M  V30 695 C 63.7372 1.18088 -1.74981 0
M  V30 696 O 63.0852 1.98733 -1.12772 0
M  V30 697 C 63.2952 -0.759398 -3.40638 0
M  V30 698 C 64.6432 -0.757433 -4.1779 0
M  V30 699 O 65.6672 -0.70189 -3.49216 0
M  V30 700 O 64.5262 -0.829361 -5.4017 0
M  V30 701 H 61.6202 -0.0902502 -0.822061 0
M  V30 702 H 64.1662 -0.906231 -1.43477 0
M  V30 703 H 62.9382 -1.8012 -3.47379 0
M  V30 704 H 62.5612 -0.160378 -3.97276 0
M  V30 705 N 63.5583 1.46682 -0.576371 0
M  V30 706 C 64.4683 2.34032 0.163141 0
M  V30 707 C 65.4843 1.49367 0.892501 0
M  V30 708 O 66.6603 1.82252 0.857106 0
M  V30 709 C 63.7253 3.26435 1.16795 0
M  V30 710 C 62.7863 4.26998 0.443944 0
M  V30 711 C 62.0193 5.14986 1.40088 0
M  V30 712 O 62.2423 5.05785 2.637 0
M  V30 713 O 61.1763 5.94906 0.914917 0
M  V30 714 H 65.0023 2.98607 -0.55388 0
M  V30 715 H 62.5873 1.45554 -0.336821 0
M  V30 716 H 64.4693 3.83459 1.74748 0
M  V30 717 H 63.1443 2.64465 1.86655 0
M  V30 718 H 62.0513 3.7368 -0.177271 0
M  V30 719 H 63.3843 4.91736 -0.213566 0
M  V30 720 N 65.0364 0.313813 1.54444 0
M  V30 721 C 66.3134 -0.345447 1.92525 0
M  V30 722 C 66.6934 -1.70667 1.24242 0
M  V30 723 O 66.0414 -2.25273 0.382654 0
M  V30 724 C 66.2514 -0.44737 3.46121 0
M  V30 725 C 67.5994 -0.712238 4.18584 0
M  V30 726 O 68.6234 -0.530678 3.52225 0
M  V30 727 O 67.4824 -1.06183 5.36085 0
M  V30 728 H 64.5764 -0.195407 0.803583 0
M  V30 729 H 67.1224 0.362813 1.65776 0
M  V30 730 H 65.8944 0.509043 3.87975 0
M  V30 731 H 65.5174 -1.20359 3.78945 0
M  V30 732 N 66.5145 -1.57545 0.0417849 0
M  V30 733 C 67.7915 -1.83642 -0.673433 0
M  V30 734 C 68.1715 -0.928298 -1.89594 0
M  V30 735 O 67.5195 0.0129955 -2.28496 0
M  V30 736 C 67.7295 -3.33155 -1.03964 0
M  V30 737 C 69.0775 -3.99941 -1.42592 0
M  V30 738 O 70.1015 -3.37725 -1.13226 0
M  V30 739 O 68.9605 -5.09619 -1.9736 0
M  V30 740 H 66.0545 -0.757638 -0.331533 0
M  V30 741 H 68.6005 -1.69554 0.070433 0
M  V30 742 H 67.3725 -3.9093 -0.170098 0
M  V30 743 H 66.9955 -3.52396 -1.84126 0
M  V30 744 N 67.9926 0.231505 -1.5589 0
M  V30 745 C 68.9026 1.308 -1.94752 0
M  V30 746 C 69.9186 1.51826 -0.849989 0
M  V30 747 O 71.0946 1.6515 -1.15271 0
M  V30 748 C 68.1596 2.63968 -2.24771 0
M  V30 749 C 67.2206 2.51331 -3.48039 0
M  V30 750 C 66.4536 3.78148 -3.76616 0
M  V30 751 O 66.6766 4.80722 -3.07022 0
M  V30 752 O 65.6106 3.75857 -4.70123 0
M  V30 753 H 69.4366 1.0083 -2.86474 0
M  V30 754 H 67.0216 0.433547 -1.42971 0
M  V30 755 H 68.9036 3.42633 -2.45318 0
M  V30 756 H 67.5786 2.9364 -1.36225 0
M  V30 757 H 66.4856 1.709 -3.32782 0
M  V30 758 H 67.8186 2.26601 -4.36936 0
M  V30 759 N 69.4707 1.49531 0.497807 0
M  V30 760 C 70.4187 1.66926 1.61983 0
M  V30 761 C 71.4127 0.535167 1.60724 0
M  V30 762 O 72.6187 0.714896 1.65195 0
M  V30 763 H 68.9937 0.526415 0.537021 0
M  V30 764 H 70.9647 2.61098 1.44465 0
M  V30 765 C 69.7137 1.75602 3.00099 0
M  V30 766 H 69.0367 2.62244 3.01775 0
M  V30 767 H 70.4767 1.91807 3.78135 0
M  V30 768 C 68.9357 0.501543 3.33146 0
M  V30 769 O 69.4657 -0.371342 3.9998 0
M  V30 770 N 67.6717 0.363531 2.88317 0
M  V30 771 H 67.2187 1.07485 2.34104 0
M  V30 772 H 67.1767 -0.474728 3.10795 0
M  V30 773 N 70.9488 -0.749086 1.3866 0
M  V30 774 C 72.1968 -1.50535 1.34847 0
M  V30 775 C 72.5178 -1.94909 -0.0595016 0
M  V30 776 O 71.7878 -1.67973 -1.00806 0
M  V30 777 H 70.3678 -0.558395 0.49619 0
M  V30 778 H 73.0298 -0.890165 1.73384 0
M  V30 779 H 72.1258 -2.39413 2.00219 0
M  V30 780 N 72.4269 -1.23603 -0.977757 0
M  V30 781 C 73.8379 -1.06424 -1.53398 0
M  V30 782 C 74.1889 0.367578 -1.92726 0
M  V30 783 O 73.3139 1.25465 -1.76316 0
M  V30 784 C 73.9089 -1.92568 -2.78753 0
M  V30 785 C 72.4679 -1.79642 -3.30765 0
M  V30 786 C 71.6149 -1.88111 -2.03739 0
M  V30 787 H 74.5659 -1.37227 -0.797152 0
M  V30 788 H 74.5869 -1.45203 -3.51705 0
M  V30 789 H 74.0989 -2.96771 -2.50098 0
M  V30 790 H 72.1999 -0.782325 -3.64294 0
M  V30 791 H 72.3129 -2.63174 -4.00345 0
M  V30 792 H 70.6769 -1.31723 -2.17994 0
M  V30 793 H 71.4599 -2.93875 -1.77461 0
M  V30 794 N 73.905 1.17692 -1.04816 0
M  V30 795 C 74.852 2.21581 -0.645797 0
M  V30 796 C 75.822 1.62367 0.350159 0
M  V30 797 O 77.007 1.89254 0.242433 0
M  V30 798 C 74.147 3.45092 -0.0227568 0
M  V30 799 C 73.26 4.18613 -1.06709 0
M  V30 800 C 72.395 5.29602 -0.411767 0
M  V30 801 C 71.434 5.94904 -1.44067 0
M  V30 802 N 70.571 6.97414 -0.809781 0
M  V30 803 H 75.411 2.55353 -1.5362 0
M  V30 804 H 72.948 1.25438 -0.768364 0
M  V30 805 H 74.906 4.15679 0.35588 0
M  V30 806 H 73.536 3.11917 0.831122 0
M  V30 807 H 72.588 3.46779 -1.5636 0
M  V30 808 H 73.9 4.63293 -1.84827 0
M  V30 809 H 73.054 6.06696 0.0206623 0
M  V30 810 H 71.793 4.86045 0.401438 0
M  V30 811 H 70.798 5.16544 -1.88316 0
M  V30 812 H 72.023 6.40542 -2.25571 0
M  V30 813 H 69.969 6.55998 -0.0170186 0
M  V30 814 H 69.886 7.40386 -1.52856 0
M  V30 815 H 71.154 7.78463 -0.401999 0
M  V30 816 N 75.3831 0.828654 1.34056 0
M  V30 817 C 76.7941 0.477534 1.8049 0
M  V30 818 C 77.1451 -1.00258 1.6865 0
M  V30 819 O 76.2701 -1.78057 1.22982 0
M  V30 820 C 76.8651 0.860018 3.27703 0
M  V30 821 C 75.4241 0.561185 3.72193 0
M  V30 822 C 74.5711 1.07385 2.55663 0
M  V30 823 H 77.5221 1.0183 1.21722 0
M  V30 824 H 77.5431 0.166038 3.80138 0
M  V30 825 H 77.0551 1.93731 3.36288 0
M  V30 826 H 75.1561 -0.506465 3.69142 0
M  V30 827 H 75.2691 1.10926 4.66082 0
M  V30 828 H 73.6331 0.495149 2.49841 0
M  V30 829 H 74.4161 2.15771 2.67016 0
M  V30 830 N 76.8612 -1.46375 0.584142 0
M  V30 831 C 77.8092 -2.32042 -0.161047 0
M  V30 832 C 78.8032 -1.44569 -0.882966 0
M  V30 833 O 80.0092 -1.61186 -0.801191 0
M  V30 834 H 76.3842 -0.748659 -0.0708033 0
M  V30 835 H 78.3552 -2.92704 0.580269 0
M  V30 836 C 77.1042 -3.27762 -1.1605 0
M  V30 837 H 76.4272 -3.95051 -0.614419 0
M  V30 838 H 77.8672 -3.90481 -1.65228 0
M  V30 839 C 76.3262 -2.53218 -2.22221 0
M  V30 840 O 76.8562 -2.29628 -3.29597 0
M  V30 841 N 75.0622 -2.13756 -1.96868 0
M  V30 842 H 74.6092 -2.33142 -1.09557 0
M  V30 843 H 74.5672 -1.642 -2.68115 0
M  V30 844 N 78.3393 -0.321999 -1.54275 0
M  V30 845 C 79.5643 0.285791 -2.05422 0
M  V30 846 C 79.9893 1.45124 -1.19669 0
M  V30 847 O 79.3473 1.80132 -0.205441 0
M  V30 848 C 79.3953 0.69956 -3.53749 0
M  V30 849 O 78.4993 1.8021 -3.70942 0
M  V30 850 H 77.8403 0.0518962 -0.661969 0
M  V30 851 H 80.3703 -0.469954 -1.9913 0
M  V30 852 H 80.3803 0.982649 -3.9599 0
M  V30 853 H 79.0553 -0.152864 -4.15619 0
M  V30 854 H 77.6323 1.51794 -3.40607 0
M  V30 855 N 79.8174 1.5752 -0.0501392 0
M  V30 856 C 81.0944 1.83996 0.663685 0
M  V30 857 C 81.4744 0.938339 1.89099 0
M  V30 858 O 80.8224 -0.00087759 2.285 0
M  V30 859 C 81.0324 3.33702 1.02196 0
M  V30 860 C 82.3804 4.00691 1.40469 0
M  V30 861 O 83.4044 3.38321 1.11433 0
M  V30 862 O 82.2634 5.10658 1.94654 0
M  V30 863 H 79.3574 0.759385 0.32751 0
M  V30 864 H 81.9034 1.69514 -0.0794238 0
M  V30 865 H 80.6754 3.91015 0.149364 0
M  V30 866 H 80.2984 3.53368 1.82255 0
M  V30 867 N 81.2955 -0.223234 1.56011 0
M  V30 868 C 82.2255 -1.27988 1.95298 0
M  V30 869 C 83.2065 -1.48976 0.820979 0
M  V30 870 O 84.3915 -1.61188 1.08315 0
M  V30 871 C 81.5215 -2.63 2.26822 0
M  V30 872 C 80.4755 -2.56671 3.42497 0
M  V30 873 C 79.8015 -3.95697 3.59622 0
M  V30 874 C 81.1015 -2.11601 4.77517 0
M  V30 875 H 82.7955 -0.953525 2.8381 0
M  V30 876 H 80.3415 -0.457244 1.36548 0
M  V30 877 H 82.2945 -3.37077 2.52898 0
M  V30 878 H 81.0185 -2.9732 1.35161 0
M  V30 879 H 79.6775 -1.85051 3.16467 0
M  V30 880 H 79.3255 -4.27322 2.6534 0
M  V30 881 H 79.0255 -3.92345 4.37424 0
M  V30 882 H 80.5495 -4.71438 3.88044 0
M  V30 883 H 81.9635 -2.7542 5.02809 0
M  V30 884 H 80.3605 -2.19311 5.5859 0
M  V30 885 H 81.4305 -1.06824 4.72987 0
M  V30 886 N 82.7736 -1.49793 -0.48987 0
M  V30 887 C 83.6836 -1.70036 -1.61632 0
M  V30 888 C 84.6996 -0.583102 -1.63939 0
M  V30 889 O 85.8756 -0.859169 -1.82154 0
M  V30 890 C 82.9406 -1.77277 -2.97949 0
M  V30 891 C 82.0016 -3.00918 -3.06181 0
M  V30 892 C 81.2346 -3.07804 -4.35996 0
M  V30 893 O 81.4576 -2.21982 -5.25433 0
M  V30 894 O 80.3916 -4.00369 -4.49431 0
M  V30 895 H 84.2176 -2.65486 -1.47482 0
M  V30 896 H 81.8026 -1.33666 -0.667362 0
M  V30 897 H 83.6846 -1.84329 -3.78947 0
M  V30 898 H 82.3596 -0.850076 -3.12339 0
M  V30 899 H 81.2666 -2.99377 -2.2433 0
M  V30 900 H 82.5996 -3.92704 -2.96723 0
M  V30 901 N 84.2517 0.741722 -1.39055 0
M  V30 902 C 85.2147 1.83733 -1.37021 0
M  V30 903 C 86.2147 1.58542 -0.268534 0
M  V30 904 O 87.4047 1.66067 -0.526076 0
M  V30 905 C 84.5367 3.2141 -1.13617 0
M  V30 906 H 85.7297 1.86941 -2.34506 0
M  V30 907 H 83.2827 0.944676 -1.24521 0
M  V30 908 H 84.0177 3.23865 -0.167863 0
M  V30 909 H 83.8027 3.4109 -1.93391 0
M  V30 910 H 85.2927 4.01477 -1.14918 0
M  V30 911 N 85.7298 1.2412 0.971189 0
M  V30 912 C 86.9778 1.07668 1.71032 0
M  V30 913 C 87.2988 -0.385797 1.91146 0
M  V30 914 O 86.5688 -1.27569 1.4867 0
M  V30 915 H 85.1488 0.395429 0.633755 0
M  V30 916 H 87.8108 1.55984 1.16855 0
M  V30 917 H 86.9068 1.57195 2.69622 0
M  V30 918 N 87.2079 -1.17134 1.05439 0
M  V30 919 C 88.1549 -2.21235 0.657539 0
M  V30 920 C 89.1249 -1.62551 -0.341543 0
M  V30 921 O 90.3099 -1.89379 -0.232393 0
M  V30 922 C 87.4499 -3.45076 0.0410575 0
M  V30 923 C 86.5629 -4.18042 1.08927 0
M  V30 924 C 85.6979 -5.29376 0.439848 0
M  V30 925 C 84.7369 -5.94132 1.4722 0
M  V30 926 N 83.8739 -6.96975 0.846756 0
M  V30 927 H 88.7139 -2.54534 1.54972 0
M  V30 928 H 86.2509 -1.25028 0.775006 0
M  V30 929 H 88.2089 -4.15862 -0.33383 0
M  V30 930 H 86.8389 -3.12353 -0.814568 0
M  V30 931 H 85.8909 -3.45945 1.58196 0
M  V30 932 H 87.2029 -4.62306 1.87282 0
M  V30 933 H 86.3569 -6.06699 0.0115125 0
M  V30 934 H 85.0959 -4.86251 -0.375656 0
M  V30 935 H 84.1009 -5.15538 1.91052 0
M  V30 936 H 85.3259 -6.39337 2.28965 0
M  V30 937 H 83.2719 -6.5598 0.0518075 0
M  V30 938 H 83.1889 -7.39565 1.5678 0
M  V30 939 H 84.4569 -7.78239 0.443277 0
M  V30 940 N 88.686 -0.835752 -1.33615 0
M  V30 941 C 89.911 -0.442389 -2.02627 0
M  V30 942 C 90.336 0.947735 -1.62479 0
M  V30 943 O 89.694 1.61907 -0.815826 0
M  V30 944 C 89.742 -0.567216 -3.56111 0
M  V30 945 O 88.846 0.407799 -4.10379 0
M  V30 946 H 88.187 -0.180278 -0.639059 0
M  V30 947 H 90.717 -1.12972 -1.70583 0
M  V30 948 H 90.727 -0.447708 -4.05536 0
M  V30 949 H 89.402 -1.58103 -3.84677 0
M  V30 950 H 87.979 0.246107 -3.72087 0
M  V30 951 N 90.1641 1.46063 -0.591896 0
M  V30 952 C 91.0941 2.33172 0.123673 0
M  V30 953 C 92.0751 1.45897 0.87453 0
M  V30 954 O 93.2601 1.74698 0.848181 0
M  V30 955 C 90.3901 3.28336 1.13194 0
M  V30 956 C 89.3441 4.25124 0.495324 0
M  V30 957 C 88.6701 5.09863 1.61071 0
M  V30 958 C 89.9701 5.19143 -0.573425 0
M  V30 959 H 91.6641 2.93252 -0.603646 0
M  V30 960 H 89.2101 1.41014 -0.291741 0
M  V30 961 H 91.1631 3.88137 1.64097 0
M  V30 962 H 89.8871 2.66383 1.88965 0
M  V30 963 H 88.5461 3.66599 0.00729452 0
M  V30 964 H 88.1941 4.44288 2.35832 0
M  V30 965 H 87.8941 5.75417 1.19035 0
M  V30 966 H 89.4181 5.72529 2.12233 0
M  V30 967 H 90.8321 5.73106 -0.1491 0
M  V30 968 H 89.2291 5.93089 -0.914636 0
M  V30 969 H 90.2991 4.62519 -1.45617 0
M  V30 970 N 91.6422 0.330177 1.54103 0
M  V30 971 C 93.0532 -0.15652 1.86043 0
M  V30 972 C 93.4042 -1.51086 1.2517 0
M  V30 973 O 92.5292 -2.09023 0.560217 0
M  V30 974 C 93.1242 -0.290784 3.3755 0
M  V30 975 C 91.6832 -0.721705 3.69416 0
M  V30 976 C 90.8302 0.152622 2.7688 0
M  V30 977 H 93.7812 0.550237 1.48856 0
M  V30 978 H 93.8022 -1.12058 3.63625 0
M  V30 979 H 93.3142 0.695068 3.81825 0
M  V30 980 H 91.4152 -1.71706 3.30678 0
M  V30 981 H 91.5282 -0.520869 4.7626 0
M  V30 982 H 89.8922 -0.372894 2.51956 0
M  V30 983 H 90.6752 1.13536 3.23982 0
M  V30 984 N 93.1203 -1.57491 0.0584922 0
M  V30 985 C 94.3673 -1.92978 -0.613648 0
M  V30 986 C 94.6953 -0.937461 -1.70417 0
M  V30 987 O 93.9503 0.049078 -1.95638 0
M  V30 988 C 94.2493 -3.3513 -1.24188 0
M  V30 989 C 93.9153 -4.50037 -0.278826 0
M  V30 990 C 92.5773 -4.81198 -0.0138447 0
M  V30 991 C 94.9293 -5.19807 0.380777 0
M  V30 992 C 92.2573 -5.79473 0.918052 0
M  V30 993 C 94.6093 -6.19079 1.30091 0
M  V30 994 C 93.2733 -6.48665 1.57449 0
M  V30 995 H 92.5433 -0.706157 -0.22455 0
M  V30 996 H 95.1903 -1.91082 0.126533 0
M  V30 997 H 93.4953 -3.33429 -2.05749 0
M  V30 998 H 95.1923 -3.59871 -1.769 0
M  V30 999 H 91.7823 -4.25726 -0.495539 0
M  V30 1000 H 95.9663 -4.95939 0.189158 0
M  V30 1001 H 91.2223 -6.00727 1.1374 0
M  V30 1002 H 95.3963 -6.7225 1.81804 0
M  V30 1003 H 93.0233 -7.24628 2.29822 0
M  V30 1004 N 94.5984 0.214957 -1.56127 0
M  V30 1005 C 95.8474 0.936451 -1.78643 0
M  V30 1006 C 96.1604 1.85237 -0.628229 0
M  V30 1007 O 97.3664 2.613 -0.737186 0
M  V30 1008 C 95.8224 1.7154 -3.16389 0
M  V30 1009 C 95.4304 0.845299 -4.39953 0
M  V30 1010 C 97.1744 2.42772 -3.48227 0
M  V30 1011 C 95.0814 1.62198 -5.68723 0
M  V30 1012 H 94.0114 0.353401 -0.666051 0
M  V30 1013 H 96.6624 0.190169 -1.82512 0
M  V30 1014 H 95.0444 2.50484 -3.06715 0
M  V30 1015 H 96.2184 0.0959353 -4.607 0
M  V30 1016 H 94.5334 0.244789 -4.1568 0
M  V30 1017 H 97.1304 3.01394 -4.41663 0
M  V30 1018 H 97.4734 3.15984 -2.71035 0
M  V30 1019 H 98.0064 1.70813 -3.5926 0
M  V30 1020 H 94.7454 0.933011 -6.48826 0
M  V30 1021 H 94.2654 2.34579 -5.52026 0
M  V30 1022 H 95.9444 2.18095 -6.09133 0
M  V30 1023 N 96.0765 1.50051 0.48192 0
M  V30 1024 C 97.3065 1.63999 1.2565 0
M  V30 1025 C 97.7145 0.318288 1.86504 0
M  V30 1026 O 97.0575 -0.708534 1.69486 0
M  V30 1027 C 97.1195 2.66504 2.4128 0
M  V30 1028 C 96.7835 4.10352 2.01148 0
M  V30 1029 C 97.7805 4.96562 1.54021 0
M  V30 1030 C 95.4655 4.56203 2.10199 0
M  V30 1031 C 97.4595 6.26668 1.16473 0
M  V30 1032 C 95.1465 5.86318 1.72264 0
M  V30 1033 C 96.1445 6.71375 1.25477 0
M  V30 1034 O 95.8325 7.99062 0.880626 0
M  V30 1035 H 95.5645 0.55456 0.386574 0
M  V30 1036 H 98.1185 1.96954 0.582944 0
M  V30 1037 H 96.3485 2.28769 3.11772 0
M  V30 1038 H 98.0375 2.69783 3.03268 0
M  V30 1039 H 98.8035 4.62358 1.46458 0
M  V30 1040 H 94.6825 3.90152 2.45566 0
M  V30 1041 H 98.2265 6.93011 0.798841 0
M  V30 1042 H 94.1235 6.20046 1.79482 0
M  V30 1043 H 94.8915 8.12239 1.01043 0
M  V30 1044 N 97.5546 -0.734337 1.39446 0
M  V30 1045 C 98.8026 -1.49096 1.36436 0
M  V30 1046 C 99.1236 -1.94961 -0.0388255 0
M  V30 1047 O 98.3936 -1.69033 -0.990191 0
M  V30 1048 H 96.9736 -0.5531 0.502085 0
M  V30 1049 H 99.6356 -0.871725 1.74319 0
M  V30 1050 H 98.7316 -2.37276 2.02747 0
M  V30 1051 N 99.0327 -1.24633 -0.964593 0
M  V30 1052 C 100.31 -0.995809 -1.68354 0
M  V30 1053 C 100.69 0.480964 -2.05548 0
M  V30 1054 O 100.038 1.45599 -1.76105 0
M  V30 1055 C 100.248 -1.92177 -2.91323 0
M  V30 1056 C 101.596 -2.19446 -3.63495 0
M  V30 1057 O 102.62 -1.89855 -3.01386 0
M  V30 1058 O 101.479 -2.69714 -4.75307 0
M  V30 1059 H 98.5727 -0.376854 -0.736146 0
M  V30 1060 H 101.119 -1.35745 -1.0184 0
M  V30 1061 H 99.8907 -2.91938 -2.60553 0
M  V30 1062 H 99.5137 -1.56349 -3.65569 0
M  V30 1063 N 100.511 1.16574 -1.06058 0
M  V30 1064 C 101.76 1.86385 -0.770944 0
M  V30 1065 C 102.073 1.82448 0.705129 0
M  V30 1066 O 103.279 2.47815 1.10905 0
M  V30 1067 C 101.735 3.34466 -1.32893 0
M  V30 1068 C 101.343 3.46883 -2.83507 0
M  V30 1069 C 103.087 4.09548 -1.11672 0
M  V30 1070 C 100.994 4.89036 -3.32562 0
M  V30 1071 H 99.9238 0.698181 -0.284709 0
M  V30 1072 H 102.575 1.31583 -1.27899 0
M  V30 1073 H 100.957 3.88859 -0.748662 0
M  V30 1074 H 102.131 3.02663 -3.47465 0
M  V30 1075 H 100.446 2.85232 -3.03368 0
M  V30 1076 H 103.043 5.14434 -1.45814 0
M  V30 1077 H 103.386 4.16264 -0.0549535 0
M  V30 1078 H 103.919 3.61387 -1.66265 0
M  V30 1079 H 100.658 4.87499 -4.38207 0
M  V30 1080 H 100.178 5.3389 -2.73351 0
M  V30 1081 H 101.857 5.57843 -3.2775 0
M  V30 1082 N 101.989 0.842826 1.3317 0
M  V30 1083 C 103.4 0.496651 1.79973 0
M  V30 1084 C 103.751 -0.984641 1.69703 0
M  V30 1085 O 102.876 -1.76743 1.24863 0
M  V30 1086 C 103.471 0.894727 3.26772 0
M  V30 1087 C 102.03 0.600629 3.71577 0
M  V30 1088 C 101.177 1.10091 2.5451 0
M  V30 1089 H 104.128 1.03116 1.20635 0
M  V30 1090 H 104.149 0.206347 3.7994 0
M  V30 1091 H 103.661 1.97287 3.34215 0
M  V30 1092 H 101.762 -0.467284 3.69658 0
M  V30 1093 H 101.875 1.15863 4.64879 0
M  V30 1094 H 100.239 0.52162 2.49301 0
M  V30 1095 H 101.022 2.18591 2.64713 0
M  V30 1096 N 103.467 -1.45747 0.599634 0
M  V30 1097 C 104.878 -1.85853 0.177681 0
M  V30 1098 C 105.229 -1.50102 -1.26348 0
M  V30 1099 O 104.354 -0.923905 -1.95686 0
M  V30 1100 C 104.949 -3.37326 0.315688 0
M  V30 1101 C 103.508 -3.76365 -0.0515144 0
M  V30 1102 C 102.655 -2.69722 0.643822 0
M  V30 1103 H 105.606 -1.36661 0.806814 0
M  V30 1104 H 105.627 -3.77778 -0.454321 0
M  V30 1105 H 105.139 -3.63315 1.36468 0
M  V30 1106 H 103.24 -3.55993 -1.09999 0
M  V30 1107 H 103.353 -4.77916 0.336594 0
M  V30 1108 H 101.717 -2.54567 0.0822881 0
M  V30 1109 H 102.5 -2.98549 1.6948 0
M  V30 1110 N 104.945 -0.338344 -1.53925 0
M  V30 1111 C 105.855 0.529421 -2.28548 0
M  V30 1112 C 106.871 1.11645 -1.3346 0
M  V30 1113 O 108.047 1.13325 -1.66492 0
M  V30 1114 C 105.112 1.66713 -3.03987 0
M  V30 1115 C 104.173 1.11041 -4.14691 0
M  V30 1116 C 103.406 2.19389 -4.86522 0
M  V30 1117 O 103.629 3.40013 -4.57982 0
M  V30 1118 O 102.563 1.83976 -5.73094 0
M  V30 1119 H 106.389 -0.0770399 -3.03602 0
M  V30 1120 H 103.974 -0.103555 -1.49041 0
M  V30 1121 H 105.856 2.32918 -3.5118 0
M  V30 1122 H 104.531 2.25949 -2.31794 0
M  V30 1123 H 103.438 0.413024 -3.71813 0
M  V30 1124 H 104.771 0.562975 -4.8897 0
M  V30 1125 N 106.423 1.57458 -0.0668435 0
M  V30 1126 C 107.356 2.08033 0.93795 0
M  V30 1127 C 108.334 0.984321 1.29421 0
M  V30 1128 O 109.518 1.25736 1.40437 0
M  V30 1129 C 106.645 2.53388 2.24749 0
M  V30 1130 C 105.691 3.74376 2.04315 0
M  V30 1131 S 106.524 5.19303 1.30706 0
M  V30 1132 C 107.68 5.67986 2.62951 0
M  V30 1133 H 107.913 2.92935 0.50759 0
M  V30 1134 H 105.446 1.5371 0.145804 0
M  V30 1135 H 107.404 2.8018 3.00016 0
M  V30 1136 H 106.065 1.68763 2.64911 0
M  V30 1137 H 105.258 4.04083 3.01218 0
M  V30 1138 H 104.86 3.47931 1.37186 0
M  V30 1139 H 107.152 5.74528 3.5906 0
M  V30 1140 H 108.095 6.66955 2.3786 0
M  V30 1141 H 108.503 4.95781 2.69929 0
M  V30 1142 N 107.901 -0.206675 1.56239 0
M  V30 1143 C 109.147 -0.930218 1.80208 0
M  V30 1144 C 109.48 -1.83387 0.638981 0
M  V30 1145 O 108.755 -1.91119 -0.361066 0
M  V30 1146 C 109.038 -1.75641 3.1436 0
M  V30 1147 C 108.891 -0.878257 4.41142 0
M  V30 1148 C 110.21 -2.73129 3.45092 0
M  V30 1149 H 107.329 -0.336742 0.655571 0
M  V30 1150 H 109.971 -0.198222 1.88963 0
M  V30 1151 H 108.121 -2.38048 3.07027 0
M  V30 1152 H 109.793 -0.269787 4.6051 0
M  V30 1153 H 108.036 -0.184385 4.33408 0
M  V30 1154 H 108.707 -1.49106 5.3148 0
M  V30 1155 H 111.183 -2.20856 3.52649 0
M  V30 1156 H 110.059 -3.28028 4.40101 0
M  V30 1157 H 110.32 -3.51606 2.68003 0
M  V30 1158 N 109.379 -1.50304 -0.473955 0
M  V30 1159 C 110.604 -1.65175 -1.25427 0
M  V30 1160 C 111.029 -0.333673 -1.85117 0
M  V30 1161 O 110.387 0.702114 -1.67153 0
M  V30 1162 C 110.435 -2.74295 -2.34082 0
M  V30 1163 O 109.539 -2.35349 -3.38651 0
M  V30 1164 H 108.88 -0.551944 -0.369126 0
M  V30 1165 H 111.41 -1.96662 -0.564364 0
M  V30 1166 H 111.42 -2.97285 -2.79438 0
M  V30 1167 H 110.095 -3.69959 -1.90008 0
M  V30 1168 H 108.672 -2.22794 -2.99027 0
M  V30 1169 N 110.857 0.726932 -1.39834 0
M  V30 1170 C 112.103 1.48884 -1.377 0
M  V30 1171 C 112.436 1.94185 0.0244852 0
M  V30 1172 O 111.711 1.67361 0.990986 0
M  V30 1173 C 111.994 2.72288 -2.3565 0
M  V30 1174 C 111.847 2.32956 -3.84775 0
M  V30 1175 C 113.166 3.74414 -2.31306 0
M  V30 1176 H 110.285 0.540062 -0.5015 0
M  V30 1177 H 112.927 0.830547 -1.70886 0
M  V30 1178 H 111.077 3.28457 -2.07481 0
M  V30 1179 H 112.749 1.82356 -4.23726 0
M  V30 1180 H 110.992 1.65088 -4.01159 0
M  V30 1181 H 111.663 3.21362 -4.4881 0
M  V30 1182 H 114.139 3.27849 -2.56231 0
M  V30 1183 H 113.015 4.58414 -3.01907 0
M  V30 1184 H 113.276 4.21909 -1.32081 0
M  V30 1185 N 112.336 1.25143 0.95797 0
M  V30 1186 C 113.747 1.08851 1.51685 0
M  V30 1187 C 114.098 -0.33687 1.93286 0
M  V30 1188 O 113.223 -1.22644 1.7829 0
M  V30 1189 C 113.818 1.96978 2.75654 0
M  V30 1190 C 112.377 1.84881 3.27866 0
M  V30 1191 C 111.524 1.91329 2.0072 0
M  V30 1192 H 114.475 1.38478 0.77522 0
M  V30 1193 H 114.496 1.5078 3.4935 0
M  V30 1194 H 114.008 3.00712 2.45345 0
M  V30 1195 H 112.109 0.840182 3.63004 0
M  V30 1196 H 112.222 2.6951 3.96107 0
M  V30 1197 H 110.586 1.35174 2.15871 0
M  V30 1198 H 111.369 2.96661 1.72764 0
M  V30 1199 N 113.814 -1.1601 1.06675 0
M  V30 1200 C 114.744 -2.22688 0.702307 0
M  V30 1201 C 115.725 -1.67306 -0.307032 0
M  V30 1202 O 116.91 -1.93352 -0.181305 0
M  V30 1203 C 114.04 -3.47178 0.092038 0
M  V30 1204 C 112.994 -4.15477 1.02777 0
M  V30 1205 C 112.32 -5.33963 0.28061 0
M  V30 1206 C 113.62 -4.66019 2.35846 0
M  V30 1207 H 115.314 -2.53429 1.59419 0
M  V30 1208 H 112.86 -1.21813 0.767961 0
M  V30 1209 H 114.813 -4.21037 -0.174814 0
M  V30 1210 H 113.537 -3.15749 -0.834877 0
M  V30 1211 H 112.196 -3.43549 1.27944 0
M  V30 1212 H 111.844 -4.98788 -0.649545 0
M  V30 1213 H 111.544 -5.806 0.904258 0
M  V30 1214 H 113.068 -6.10596 0.021396 0
M  V30 1215 H 114.482 -5.3144 2.15045 0
M  V30 1216 H 112.879 -5.23293 2.93743 0
M  V30 1217 H 113.949 -3.82023 2.98641 0
M  V30 1218 N 115.292 -0.849877 -1.32721 0
M  V30 1219 C 116.202 -0.293791 -2.32753 0
M  V30 1220 C 117.218 0.585906 -1.63839 0
M  V30 1221 O 118.394 0.487413 -1.95413 0
M  V30 1222 C 115.459 0.512752 -3.42887 0
M  V30 1223 C 114.52 -0.39252 -4.27502 0
M  V30 1224 C 113.753 0.375625 -5.32377 0
M  V30 1225 O 113.976 1.60613 -5.4732 0
M  V30 1226 O 112.91 -0.256094 -6.01355 0
M  V30 1227 H 116.736 -1.12242 -2.82197 0
M  V30 1228 H 114.321 -0.612685 -1.36259 0
M  V30 1229 H 116.203 0.970704 -4.10067 0
M  V30 1230 H 114.878 1.31826 -2.95641 0
M  V30 1231 H 113.785 -0.898547 -3.63149 0
M  V30 1232 H 115.118 -1.16309 -4.7826 0
M  V30 1233 N 116.77 1.45427 -0.607355 0
M  V30 1234 C 118.047 1.9557 -0.0344566 0
M  V30 1235 C 118.427 1.54979 1.43334 0
M  V30 1236 O 117.775 0.812241 2.13576 0
M  V30 1237 C 117.985 3.48226 -0.232321 0
M  V30 1238 C 119.333 4.2445 -0.113001 0
M  V30 1239 O 120.357 3.55829 -0.162431 0
M  V30 1240 O 119.216 5.465 0.00209442 0
M  V30 1241 H 116.31 0.826222 0.0358667 0
M  V30 1242 H 118.856 1.55594 -0.6774 0
M  V30 1243 H 117.628 3.70739 -1.25174 0
M  V30 1244 H 117.251 3.95092 0.445896 0
M  V30 1245 N 118.248 0.346503 1.53744 0
M  V30 1246 C 119.178 -0.501193 2.28058 0
M  V30 1247 C 120.159 -1.10014 1.29734 0
M  V30 1248 O 121.344 -1.12097 1.58581 0
M  V30 1249 C 118.474 -1.65078 3.05559 0
M  V30 1250 C 117.428 -1.18003 4.11411 0
M  V30 1251 C 116.754 -2.41837 4.76884 0
M  V30 1252 C 118.054 -0.278394 5.21558 0
M  V30 1253 H 119.748 0.11875 2.99164 0
M  V30 1254 H 117.294 0.0585531 1.43881 0
M  V30 1255 H 119.247 -2.25028 3.56287 0
M  V30 1256 H 117.971 -2.29767 2.32109 0
M  V30 1257 H 116.63 -0.603331 3.61601 0
M  V30 1258 H 116.278 -3.0494 4.00026 0
M  V30 1259 H 115.978 -2.1102 5.48402 0
M  V30 1260 H 117.502 -3.02508 5.30397 0
M  V30 1261 H 118.916 -0.784823 5.67903 0
M  V30 1262 H 117.313 -0.0619707 6.00068 0
M  V30 1263 H 118.383 0.684677 4.80042 0
M  V30 1264 N 119.726 -1.57421 0.075193 0
M  V30 1265 C 121.003 -1.85029 -0.634329 0
M  V30 1266 C 121.383 -0.968305 -1.87582 0
M  V30 1267 O 120.731 -0.0354749 -2.28472 0
M  V30 1268 C 120.941 -3.35286 -0.968742 0
M  V30 1269 C 122.289 -4.02875 -1.34077 0
M  V30 1270 O 123.313 -3.40051 -1.06037 0
M  V30 1271 O 122.172 -5.13691 -1.86506 0
M  V30 1272 H 119.266 -0.7645 -0.315387 0
M  V30 1273 H 121.812 -1.69366 0.106382 0
M  V30 1274 H 120.584 -3.91203 -0.0871376 0
M  V30 1275 H 120.207 -3.56223 -1.7661 0
M  V30 1276 N 121.204 0.198386 -1.56346 0
M  V30 1277 C 122.615 0.763358 -1.70381 0
M  V30 1278 C 122.966 1.83995 -0.681203 0
M  V30 1279 O 122.091 2.15785 0.16305 0
M  V30 1280 C 122.686 1.39143 -3.08909 0
M  V30 1281 C 121.245 1.90352 -3.2472 0
M  V30 1282 C 120.392 0.772233 -2.6633 0
M  V30 1283 H 123.343 -0.0266377 -1.58678 0
M  V30 1284 H 123.364 2.26076 -3.06055 0
M  V30 1285 H 122.876 0.607638 -3.83314 0
M  V30 1286 H 120.977 2.71461 -2.55225 0
M  V30 1287 H 121.09 2.06757 -4.3219 0
M  V30 1288 H 119.454 1.18566 -2.2542 0
M  V30 1289 H 120.237 0.00073556 -3.433 0
M  V30 1290 N 122.682 1.50554 0.465978 0
M  V30 1291 C 123.912 1.65323 1.23903 0
M  V30 1292 C 124.32 0.338051 1.86155 0
M  V30 1293 O 123.663 -0.690518 1.70228 0
M  V30 1294 C 123.725 2.69048 2.3844 0
M  V30 1295 C 123.389 4.12462 1.96784 0
M  V30 1296 C 124.386 4.98168 1.48745 0
M  V30 1297 C 122.071 4.58407 2.05349 0
M  V30 1298 C 124.065 6.27868 1.0982 0
M  V30 1299 C 121.752 5.88112 1.66035 0
M  V30 1300 C 122.75 6.72668 1.18349 0
M  V30 1301 O 122.438 7.99951 0.795825 0
M  V30 1302 H 122.17 0.558629 0.38067 0
M  V30 1303 H 124.724 1.97561 0.562022 0
M  V30 1304 H 122.954 2.32062 3.09328 0
M  V30 1305 H 124.643 2.72985 3.0039 0
M  V30 1306 H 125.409 4.63885 1.41546 0
M  V30 1307 H 121.288 3.92735 2.41414 0
M  V30 1308 H 124.832 6.93819 0.725293 0
M  V30 1309 H 120.729 6.21914 1.72895 0
M  V30 1310 H 121.497 8.13265 0.924222 0
M  V30 1311 N 124.16 -0.719506 1.40217 0
M  V30 1312 C 125.39 -1.50646 1.41384 0
M  V30 1313 C 125.798 -1.89197 0.0107743 0
M  V30 1314 O 125.141 -1.55709 -0.974708 0
M  V30 1315 C 125.203 -2.81405 2.23722 0
M  V30 1316 C 124.867 -2.65199 3.72181 0
M  V30 1317 C 125.864 -2.32717 4.64907 0
M  V30 1318 C 123.549 -2.81586 4.1595 0
M  V30 1319 C 125.543 -2.16827 5.99387 0
M  V30 1320 C 123.23 -2.65313 5.50502 0
M  V30 1321 C 124.228 -2.32981 6.42035 0
M  V30 1322 O 123.916 -2.16827 7.74107 0
M  V30 1323 H 123.648 -0.471606 0.484318 0
M  V30 1324 H 126.202 -0.895456 1.84853 0
M  V30 1325 H 124.432 -3.44823 1.75026 0
M  V30 1326 H 126.121 -3.43102 2.16878 0
M  V30 1327 H 126.887 -2.19694 4.32388 0
M  V30 1328 H 122.766 -3.0574 3.45027 0
M  V30 1329 H 126.31 -1.91513 6.70797 0
M  V30 1330 H 122.207 -2.7792 5.82607 0
M  V30 1331 H 122.975 -2.31778 7.84998 0
M  V30 1332 N 125.638 -1.25649 -0.95132 0
M  V30 1333 C 126.887 -1.09988 -1.69073 0
M  V30 1334 C 127.2 0.358355 -1.92289 0
M  V30 1335 O 128.406 0.635466 -2.63958 0
M  V30 1336 C 126.862 -1.92012 -3.044 0
M  V30 1337 C 126.47 -3.42347 -2.88968 0
M  V30 1338 C 128.214 -1.8493 -3.82101 0
M  V30 1339 C 126.121 -4.16655 -4.19705 0
M  V30 1340 H 125.051 -0.407993 -0.63408 0
M  V30 1341 H 127.702 -1.49873 -1.05879 0
M  V30 1342 H 126.084 -1.44952 -3.68517 0
M  V30 1343 H 127.258 -3.97104 -2.33762 0
M  V30 1344 H 125.573 -3.50557 -2.24719 0
M  V30 1345 H 128.17 -2.37739 -4.78941 0
M  V30 1346 H 128.513 -0.817883 -4.08187 0
M  V30 1347 H 129.046 -2.29758 -3.2474 0
M  V30 1348 H 125.785 -5.20224 -3.98807 0
M  V30 1349 H 125.305 -3.66681 -4.74663 0
M  V30 1350 H 126.984 -4.24551 -4.88227 0
M  V30 1351 N 127.117 1.15442 -1.07289 0
M  V30 1352 C 128.065 2.22225 -0.686952 0
M  V30 1353 C 129.059 1.66688 0.30193 0
M  V30 1354 O 130.265 1.79236 0.165712 0
M  V30 1355 H 126.64 0.723783 -0.204064 0
M  V30 1356 H 128.611 2.52056 -1.5972 0
M  V30 1357 C 127.36 3.47556 -0.100149 0
M  V30 1358 H 126.683 3.90612 -0.852211 0
M  V30 1359 H 128.123 4.23794 0.132235 0
M  V30 1360 C 126.582 3.16337 1.159 0
M  V30 1361 O 127.112 3.33074 2.24555 0
M  V30 1362 N 125.318 2.70385 1.06491 0
M  V30 1363 H 124.865 2.56966 0.180668 0
M  V30 1364 H 124.823 2.49871 1.90819 0
M  V30 1365 N 128.595 0.856903 1.32268 0
M  V30 1366 C 129.542 0.301172 2.28827 0
M  V30 1367 C 130.512 -0.593104 1.5515 0
M  V30 1368 O 131.697 -0.527537 1.83362 0
M  V30 1369 C 128.837 -0.502523 3.41422 0
M  V30 1370 C 127.95 0.417797 4.29975 0
M  V30 1371 C 127.085 -0.398749 5.29701 0
M  V30 1372 C 126.124 0.518827 6.09897 0
M  V30 1373 N 125.261 -0.260674 7.01616 0
M  V30 1374 H 130.101 1.12983 2.75751 0
M  V30 1375 H 127.638 0.568582 1.35667 0
M  V30 1376 H 129.596 -0.984141 4.05426 0
M  V30 1377 H 128.226 -1.29599 2.95642 0
M  V30 1378 H 127.278 1.01781 3.66531 0
M  V30 1379 H 128.59 1.12191 4.86019 0
M  V30 1380 H 127.744 -0.943435 5.9932 0
M  V30 1381 H 126.483 -1.13622 4.7428 0
M  V30 1382 H 125.488 1.07538 5.39181 0
M  V30 1383 H 126.713 1.25495 6.67404 0
M  V30 1384 H 124.659 -0.981198 6.4862 0
M  V30 1385 H 124.576 0.384364 7.55022 0
M  V30 1386 H 125.844 -0.787014 7.75517 0
M  V30 1387 N 130.073 -1.45103 0.615059 0
M  V30 1388 C 131.02 -2.30586 -0.0993978 0
M  V30 1389 C 131.99 -1.42544 -0.852669 0
M  V30 1390 O 133.175 -1.71465 -0.836917 0
M  V30 1391 C 130.315 -3.27572 -1.08583 0
M  V30 1392 C 129.428 -4.30717 -0.332656 0
M  V30 1393 C 128.563 -5.14807 -1.30947 0
M  V30 1394 C 127.602 -6.09673 -0.544538 0
M  V30 1395 N 126.739 -6.86517 -1.47101 0
M  V30 1396 H 131.579 -2.91144 0.635542 0
M  V30 1397 H 129.116 -1.4346 0.325206 0
M  V30 1398 H 131.074 -3.82276 -1.67095 0
M  V30 1399 H 129.704 -2.68751 -1.78809 0
M  V30 1400 H 128.756 -3.78615 0.368107 0
M  V30 1401 H 130.068 -4.98102 0.263842 0
M  V30 1402 H 129.222 -5.73948 -1.96643 0
M  V30 1403 H 127.961 -4.47458 -1.9399 0
M  V30 1404 H 126.966 -5.49656 0.126003 0
M  V30 1405 H 128.191 -6.79052 0.080947 0
M  V30 1406 H 126.137 -6.21851 -2.08895 0
M  V30 1407 H 126.054 -7.50281 -0.928137 0
M  V30 1408 H 127.322 -7.50194 -2.11731 0
M  V30 1409 N 131.551 -0.354651 -1.53558 0
M  V30 1410 C 132.779 0.239515 -2.05509 0
M  V30 1411 C 133.194 1.4333 -1.2289 0
M  V30 1412 O 132.551 1.80538 -0.266899 0
M  V30 1413 C 132.602 0.643719 -3.55723 0
M  V30 1414 O 132.323 -0.502602 -4.35207 0
M  V30 1415 C 133.824 1.29743 -4.23889 0
M  V30 1416 H 131.044 0.0442697 -0.669538 0
M  V30 1417 H 133.588 -0.509856 -1.98042 0
M  V30 1418 H 131.743 1.34302 -3.63376 0
M  V30 1419 H 132.157 -0.178172 -5.24197 0
M  V30 1420 H 133.631 1.53091 -5.30346 0
M  V30 1421 H 134.108 2.25441 -3.76926 0
M  V30 1422 H 134.714 0.639865 -4.20459 0
M  V30 1423 N 133.029 1.57378 -0.0835403 0
M  V30 1424 C 134.276 1.9393 0.58287 0
M  V30 1425 C 134.604 0.964455 1.68904 0
M  V30 1426 O 133.859 -0.0179474 1.95692 0
M  V30 1427 C 134.158 3.37063 1.1884 0
M  V30 1428 C 133.824 4.50424 0.207194 0
M  V30 1429 C 132.486 4.81159 -0.0627115 0
M  V30 1430 C 134.838 5.19136 -0.463426 0
M  V30 1431 C 132.166 5.77939 -1.01012 0
M  V30 1432 C 134.518 6.16931 -1.39924 0
M  V30 1433 C 133.182 6.46078 -1.67749 0
M  V30 1434 H 132.452 0.70964 0.213287 0
M  V30 1435 H 135.099 1.90856 -0.156916 0
M  V30 1436 H 133.404 3.3666 2.00418 0
M  V30 1437 H 135.101 3.6264 1.71153 0
M  V30 1438 H 131.691 4.2646 0.427747 0
M  V30 1439 H 135.875 4.95576 -0.268034 0
M  V30 1440 H 131.131 5.98842 -1.23283 0
M  V30 1441 H 135.305 6.69273 -1.92476 0
M  V30 1442 H 132.932 7.2088 -2.41321 0
M  V30 1443 N 134.507 -0.190092 1.56449 0
M  V30 1444 C 135.756 -0.907912 1.80111 0
M  V30 1445 C 136.069 -1.84214 0.657619 0
M  V30 1446 O 137.275 -2.60094 0.778663 0
M  V30 1447 C 135.731 -1.66485 3.19078 0
M  V30 1448 C 135.339 -0.7752 4.41242 0
M  V30 1449 C 137.083 -2.37201 3.52045 0
M  V30 1450 C 134.99 -1.53129 5.71231 0
M  V30 1451 H 133.92 -0.34276 0.671589 0
M  V30 1452 H 136.571 -0.161109 1.82791 0
M  V30 1453 H 134.953 -2.45572 3.10661 0
M  V30 1454 H 136.127 -0.0226298 4.60794 0
M  V30 1455 H 134.442 -0.178627 4.16017 0
M  V30 1456 H 137.039 -2.94329 4.46402 0
M  V30 1457 H 137.382 -3.11632 2.76028 0
M  V30 1458 H 137.915 -1.65075 3.61932 0
M  V30 1459 H 134.654 -0.82967 6.50228 0
M  V30 1460 H 134.174 -2.25767 5.55688 0
M  V30 1461 H 135.853 -2.08377 6.12526 0
M  V30 1462 N 135.985 -1.50799 -0.457987 0
M  V30 1463 C 137.231 -1.62683 -1.21088 0
M  V30 1464 C 137.564 -0.332268 -1.91336 0
M  V30 1465 O 136.839 0.667043 -1.82704 0
M  V30 1466 C 137.122 -2.81615 -2.24422 0
M  V30 1467 C 136.975 -4.20989 -1.58392 0
M  V30 1468 C 138.294 -2.96085 -3.2561 0
M  V30 1469 H 135.413 -0.592087 -0.438864 0
M  V30 1470 H 138.055 -1.83225 -0.50286 0
M  V30 1471 H 136.205 -2.64231 -2.84806 0
M  V30 1472 H 137.877 -4.49994 -1.01504 0
M  V30 1473 H 136.12 -4.24641 -0.886704 0
M  V30 1474 H 136.791 -5.0016 -2.33547 0
M  V30 1475 H 139.267 -3.12042 -2.75262 0
M  V30 1476 H 138.143 -3.80902 -3.95228 0
M  V30 1477 H 138.404 -2.0726 -3.90507 0
M  V30 1478 N 137.463 0.71206 -1.40597 0
M  V30 1479 C 138.393 1.83889 -1.43899 0
M  V30 1480 C 139.374 1.67442 -0.299504 0
M  V30 1481 O 140.559 1.87421 -0.508624 0
M  V30 1482 C 137.689 3.21877 -1.30431 0
M  V30 1483 C 136.643 3.53002 -2.42019 0
M  V30 1484 C 135.969 4.90172 -2.13626 0
M  V30 1485 C 137.269 3.53643 -3.84362 0
M  V30 1486 H 138.963 1.81383 -2.38203 0
M  V30 1487 H 136.509 0.871237 -1.14654 0
M  V30 1488 H 138.462 4.00404 -1.31357 0
M  V30 1489 H 137.186 3.24968 -0.326049 0
M  V30 1490 H 135.845 2.76818 -2.40349 0
M  V30 1491 H 135.493 4.89869 -1.14182 0
M  V30 1492 H 135.193 5.11962 -2.88389 0
M  V30 1493 H 136.717 5.71028 -2.1624 0
M  V30 1494 H 138.131 4.22203 -3.87837 0
M  V30 1495 H 136.528 3.86961 -4.58673 0
M  V30 1496 H 137.598 2.52954 -4.13693 0
M  V30 1497 N 138.941 1.26152 0.944643 0
M  V30 1498 C 139.889 1.07215 2.06417 0
M  V30 1499 C 140.883 9.2007e-05 1.694 0
M  V30 1500 O 142.089 0.1565 1.79318 0
M  V30 1501 H 138.464 0.329837 0.675805 0
M  V30 1502 H 140.435 2.02099 2.19541 0
M  V30 1503 C 139.184 0.718197 3.40202 0
M  V30 1504 H 138.507 1.53497 3.69159 0
M  V30 1505 H 139.947 0.625459 4.19361 0
M  V30 1506 C 138.406 -0.576435 3.31932 0
M  V30 1507 O 138.936 -1.61574 3.67773 0
M  V30 1508 N 137.142 -0.565781 2.85039 0
M  V30 1509 H 136.689 0.280367 2.5607 0
M  V30 1510 H 136.647 -1.43213 2.79888 0
M  V30 1511 N 140.419 -1.14872 1.07899 0
M  V30 1512 C 141.366 -2.19791 0.704319 0
M  V30 1513 C 142.336 -1.63238 -0.306987 0
M  V30 1514 O 143.521 -1.8983 -0.192171 0
M  V30 1515 C 140.661 -3.44911 0.114244 0
M  V30 1516 C 139.774 -4.15637 1.1777 0
M  V30 1517 C 138.909 -5.28324 0.552037 0
M  V30 1518 C 137.948 -5.90875 1.59789 0
M  V30 1519 N 137.085 -6.95022 0.994404 0
M  V30 1520 H 141.925 -2.5119 1.60336 0
M  V30 1521 H 139.462 -1.23356 0.801352 0
M  V30 1522 H 141.42 -4.16477 -0.245544 0
M  V30 1523 H 140.05 -3.14011 -0.74813 0
M  V30 1524 H 139.102 -3.42512 1.65499 0
M  V30 1525 H 140.414 -4.5823 1.97046 0
M  V30 1526 H 139.568 -6.06538 0.1402 0
M  V30 1527 H 138.307 -4.86939 -0.272431 0
M  V30 1528 H 137.312 -5.11369 2.01945 0
M  V30 1529 H 138.537 -6.34337 2.42474 0
M  V30 1530 H 136.483 -6.55722 0.190939 0
M  V30 1531 H 136.4 -7.36073 1.72432 0
M  V30 1532 H 137.668 -7.77123 0.608253 0
M  V30 1533 N 141.898 -0.863906 -1.31812 0
M  V30 1534 C 143.146 -0.470904 -1.96537 0
M  V30 1535 C 143.467 0.978771 -1.68657 0
M  V30 1536 O 142.737 1.6853 -0.998717 0
M  V30 1537 H 141.317 -0.171148 -0.72713 0
M  V30 1538 H 143.979 -1.10236 -1.60729 0
M  V30 1539 H 143.075 -0.623616 -3.05806 0
M  V30 1540 N 143.376 1.44774 -0.622745 0
M  V30 1541 C 144.323 2.30635 0.0871679 0
M  V30 1542 C 145.293 1.42994 0.845097 0
M  V30 1543 O 146.478 1.71907 0.827812 0
M  V30 1544 C 143.618 3.28144 1.06844 0
M  V30 1545 C 142.731 4.30888 0.309809 0
M  V30 1546 C 141.866 5.15494 1.28215 0
M  V30 1547 C 140.905 6.09953 0.512198 0
M  V30 1548 N 140.042 6.87287 1.43458 0
M  V30 1549 H 144.882 2.90803 -0.650974 0
M  V30 1550 H 142.419 1.43286 -0.33281 0
M  V30 1551 H 144.377 3.83157 1.65066 0
M  V30 1552 H 143.007 2.69695 1.77382 0
M  V30 1553 H 142.059 3.78414 -0.388181 0
M  V30 1554 H 143.371 4.97955 -0.290254 0
M  V30 1555 H 142.525 5.74983 1.93596 0
M  V30 1556 H 141.264 4.48481 1.91614 0
M  V30 1557 H 140.269 5.49581 -0.155151 0
M  V30 1558 H 141.494 6.78999 -0.116958 0
M  V30 1559 H 139.44 6.2295 2.05594 0
M  V30 1560 H 139.357 7.50763 0.888335 0
M  V30 1561 H 140.625 7.51306 2.07749 0
M  V30 1562 N 144.854 0.36279 1.53368 0
M  V30 1563 C 145.817 -0.472679 2.24273 0
M  V30 1564 C 146.817 -1.012 1.24961 0
M  V30 1565 O 148.007 -0.898194 1.49259 0
M  V30 1566 C 145.139 -1.66039 2.97731 0
M  V30 1567 H 146.332 0.14773 2.99536 0
M  V30 1568 H 143.885 0.114434 1.55881 0
M  V30 1569 H 144.62 -2.31896 2.26704 0
M  V30 1570 H 144.405 -1.28066 3.70596 0
M  V30 1571 H 145.895 -2.25252 3.51641 0
M  V30 1572 N 146.332 -1.57332 0.0918853 0
M  V30 1573 C 147.581 -1.93412 -0.572249 0
M  V30 1574 C 147.894 -0.975515 -1.69538 0
M  V30 1575 O 149.1 -1.22991 -2.42045 0
M  V30 1576 C 147.556 -3.43648 -1.0693 0
M  V30 1577 C 147.164 -4.47994 0.0239049 0
M  V30 1578 C 148.908 -3.88695 -1.70635 0
M  V30 1579 C 146.815 -5.89381 -0.488319 0
M  V30 1580 H 145.745 -0.721939 -0.217532 0
M  V30 1581 H 148.396 -1.82735 0.167369 0
M  V30 1582 H 146.778 -3.49466 -1.8625 0
M  V30 1583 H 147.952 -4.53815 0.799277 0
M  V30 1584 H 146.267 -4.12536 0.565946 0
M  V30 1585 H 148.864 -4.91725 -2.10025 0
M  V30 1586 H 149.207 -3.27166 -2.57426 0
M  V30 1587 H 149.74 -3.85564 -0.979023 0
M  V30 1588 H 146.479 -6.54602 0.342906 0
M  V30 1589 H 145.999 -5.87037 -1.23077 0
M  V30 1590 H 147.678 -6.39863 -0.958317 0
M  V30 1591 N 147.81 0.181792 -1.56548 0
M  V30 1592 C 149.035 0.920019 -1.85877 0
M  V30 1593 C 149.46 1.75494 -0.677021 0
M  V30 1594 O 148.818 1.77399 0.374056 0
M  V30 1595 C 148.866 1.78112 -3.13542 0
M  V30 1596 O 147.97 2.88152 -2.95029 0
M  V30 1597 H 147.311 0.258334 -0.611686 0
M  V30 1598 H 149.841 0.183092 -2.03779 0
M  V30 1599 H 149.851 2.18314 -3.44678 0
M  V30 1600 H 148.526 1.16777 -3.99169 0
M  V30 1601 H 147.103 2.51609 -2.75222 0
M  V30 1602 N 149.288 1.51039 0.449983 0
M  V30 1603 C 150.704 1.38934 0.785462 0
M  V30 1604 C 150.904 0.461817 1.96136 0
M  V30 1605 O 149.96 -0.0877389 2.52348 0
M  V30 1606 C 151.273 2.80724 1.0777 0
M  V30 1607 C 152.821 2.89787 1.1829 0
M  V30 1608 C 153.296 4.32457 1.50815 0
M  V30 1609 N 154.787 4.35505 1.57764 0
M  V30 1610 C 155.522 5.42914 1.84477 0
M  V30 1611 N 155.018 6.60502 2.09068 0
M  V30 1612 N 156.811 5.3038 1.86155 0
M  V30 1613 H 148.962 2.09904 -0.324647 0
M  V30 1614 H 151.225 0.944378 -0.0827957 0
M  V30 1615 H 150.931 3.50531 0.286498 0
M  V30 1616 H 150.805 3.19273 2.00859 0
M  V30 1617 H 153.192 2.20186 1.96474 0
M  V30 1618 H 153.273 2.54752 0.231314 0
M  V30 1619 H 152.917 5.02603 0.731622 0
M  V30 1620 H 152.847 4.64995 2.47158 0
M  V30 1621 H 155.338 3.50724 1.40715 0
M  V30 1622 H 155.651 7.38158 2.28785 0
M  V30 1623 H 153.996 6.63639 2.06416 0
M  V30 1624 H 157.187 4.37505 1.66454 0
M  V30 1625 H 157.36 6.1417 2.06637 0
M  V30 1626 N 150.766 -0.704594 1.40972 0
M  V30 1627 C 152.013 -1.46458 1.39844 0
M  V30 1628 C 152.341 -1.94499 0.00447594 0
M  V30 1629 O 151.596 -1.69275 -0.982057 0
M  V30 1630 C 151.895 -2.698 2.34399 0
M  V30 1631 C 151.561 -2.40464 3.81429 0
M  V30 1632 C 150.223 -2.32174 4.21484 0
M  V30 1633 C 152.575 -2.16086 4.74296 0
M  V30 1634 C 149.903 -1.97589 5.52427 0
M  V30 1635 C 152.255 -1.83011 6.05549 0
M  V30 1636 C 150.919 -1.7321 6.44635 0
M  V30 1637 H 150.189 -0.535927 0.511725 0
M  V30 1638 H 152.836 -0.806124 1.73706 0
M  V30 1639 H 151.141 -3.40536 1.93759 0
M  V30 1640 H 152.838 -3.27919 2.30804 0
M  V30 1641 H 149.428 -2.47808 3.49699 0
M  V30 1642 H 153.612 -2.2144 4.4416 0
M  V30 1643 H 148.868 -1.88547 5.81601 0
M  V30 1644 H 153.042 -1.63164 6.77016 0
M  V30 1645 H 150.669 -1.46179 7.46013 0
M  V30 1646 N 152.244 -1.26651 -0.937939 0
M  V30 1647 C 153.469 -1.15279 -1.72411 0
M  V30 1648 C 153.894 0.287866 -1.85884 0
M  V30 1649 O 153.252 1.20855 -1.35143 0
M  V30 1650 C 153.3 -1.83028 -3.10698 0
M  V30 1651 O 152.404 -1.12128 -3.96864 0
M  V30 1652 H 151.745 -0.401504 -0.528858 0
M  V30 1653 H 154.275 -1.67531 -1.1745 0
M  V30 1654 H 154.285 -1.89981 -3.6107 0
M  V30 1655 H 152.96 -2.87833 -3.00208 0
M  V30 1656 H 151.537 -1.13173 -3.55312 0
M  V30 1657 N 153.722 1.14298 -1.08507 0
M  V30 1658 C 154.685 2.17607 -0.719711 0
M  V30 1659 C 155.685 1.58907 0.245997 0
M  V30 1660 O 156.875 1.74181 0.0254081 0
M  V30 1661 C 154.007 3.40842 -0.0627695 0
M  V30 1662 H 155.2 2.51443 -1.63452 0
M  V30 1663 H 152.753 1.28963 -0.88307 0
M  V30 1664 H 153.488 3.12587 0.863716 0
M  V30 1665 H 153.273 3.84713 -0.757504 0
M  V30 1666 H 154.763 4.17221 0.177786 0
M  V30 1667 N 155.201 0.870884 1.31352 0
M  V30 1668 C 156.429 0.49677 2.00848 0
M  V30 1669 C 156.844 -0.910998 1.65367 0
M  V30 1670 O 156.201 -1.59696 0.883374 0
M  V30 1671 C 156.252 0.645308 3.55694 0
M  V30 1672 O 155.973 1.99764 3.89905 0
M  V30 1673 C 157.474 0.272326 4.42463 0
M  V30 1674 H 154.694 0.193462 0.642506 0
M  V30 1675 H 157.238 1.1723 1.67563 0
M  V30 1676 H 155.393 0.0173176 3.87396 0
M  V30 1677 H 155.807 2.00607 4.84621 0
M  V30 1678 H 157.281 0.427208 5.50344 0
M  V30 1679 H 157.758 -0.788587 4.32062 0
M  V30 1680 H 158.364 0.876054 4.1618 0
M  V30 1681 N 156.679 -1.44442 0.630414 0
M  V30 1682 C 158.09 -1.85434 0.217063 0
M  V30 1683 C 158.441 -1.52748 -1.23136 0
M  V30 1684 O 157.566 -0.965205 -1.93682 0
M  V30 1685 C 158.161 -3.36581 0.387168 0
M  V30 1686 C 156.72 -3.76389 0.0283297 0
M  V30 1687 C 155.867 -2.68296 0.700889 0
M  V30 1688 H 158.818 -1.34919 0.83562 0
M  V30 1689 H 158.839 -3.78657 -0.374086 0
M  V30 1690 H 158.351 -3.60339 1.44144 0
M  V30 1691 H 156.452 -3.58246 -1.02423 0
M  V30 1692 H 156.565 -4.77095 0.437892 0
M  V30 1693 H 154.929 -2.54335 0.136267 0
M  V30 1694 H 155.712 -2.94887 1.75774 0
M  V30 1695 N 158.157 -0.370918 -1.53173 0
M  V30 1696 C 159.12 0.460778 -2.24521 0
M  V30 1697 C 160.12 1.00536 -1.25496 0
M  V30 1698 O 161.31 0.890266 -1.49733 0
M  V30 1699 C 158.442 1.64457 -2.98608 0
M  V30 1700 H 159.635 -0.163613 -2.99453 0
M  V30 1701 H 157.188 -0.122699 -1.55818 0
M  V30 1702 H 157.923 2.30691 -2.2793 0
M  V30 1703 H 157.708 1.26099 -3.7127 0
M  V30 1704 H 159.198 2.23384 -3.5283 0
M  V30 1705 N 159.635 1.57281 -0.100228 0
M  V30 1706 C 160.565 2.17328 0.853857 0
M  V30 1707 C 161.546 1.10804 1.2906 0
M  V30 1708 O 162.731 1.38963 1.35657 0
M  V30 1709 C 159.861 2.75772 2.11109 0
M  V30 1710 C 158.815 3.87713 1.81279 0
M  V30 1711 C 158.141 4.32882 3.13874 0
M  V30 1712 C 159.441 5.10677 1.09574 0
M  V30 1713 H 161.135 2.97305 0.353545 0
M  V30 1714 H 158.681 1.43009 0.168612 0
M  V30 1715 H 160.634 3.16433 2.78296 0
M  V30 1716 H 159.358 1.93057 2.63432 0
M  V30 1717 H 158.017 3.476 1.16489 0
M  V30 1718 H 157.665 3.47051 3.64095 0
M  V30 1719 H 157.365 5.08358 2.94696 0
M  V30 1720 H 158.889 4.7618 3.82211 0
M  V30 1721 H 160.303 5.48474 1.66879 0
M  V30 1722 H 158.7 5.91615 1.00557 0
M  V30 1723 H 159.77 4.84835 0.0793299 0
M  V30 1724 N 161.113 -0.173488 1.56642 0
M  V30 1725 C 162.343 -0.904781 1.85734 0
M  V30 1726 C 162.751 -1.76431 0.68328 0
M  V30 1727 O 162.094 -1.802 -0.356865 0
M  V30 1728 C 162.156 -1.83382 3.09211 0
M  V30 1729 C 161.82 -1.15411 4.42187 0
M  V30 1730 C 162.817 -0.520609 5.17287 0
M  V30 1731 C 160.502 -1.15151 4.88923 0
M  V30 1732 C 162.496 0.106412 6.37311 0
M  V30 1733 C 160.183 -0.520664 6.08878 0
M  V30 1734 C 161.181 0.107196 6.82916 0
M  V30 1735 O 160.869 0.728102 8.00596 0
M  V30 1736 H 160.601 -0.268408 0.62043 0
M  V30 1737 H 163.155 -0.179096 2.04618 0
M  V30 1738 H 161.385 -2.59976 2.86268 0
M  V30 1739 H 163.074 -2.43476 3.24768 0
M  V30 1740 H 163.84 -0.514606 4.82262 0
M  V30 1741 H 159.719 -1.62961 4.31236 0
M  V30 1742 H 163.263 0.597081 6.9504 0
M  V30 1743 H 159.16 -0.524242 6.43368 0
M  V30 1744 H 159.928 0.627138 8.16094 0
M  V30 1745 N 162.591 -1.51276 -0.441967 0
M  V30 1746 C 163.84 -1.6295 -1.18871 0
M  V30 1747 C 164.153 -0.349312 -1.92456 0
M  V30 1748 O 165.359 -0.345355 -2.69295 0
M  V30 1749 C 163.815 -2.87759 -2.16155 0
M  V30 1750 C 163.423 -4.22764 -1.48239 0
M  V30 1751 C 165.167 -3.08788 -2.91291 0
M  V30 1752 C 163.074 -5.38728 -2.4398 0
M  V30 1753 H 162.004 -0.606913 -0.447406 0
M  V30 1754 H 164.655 -1.77739 -0.456205 0
M  V30 1755 H 163.037 -2.66593 -2.92821 0
M  V30 1756 H 164.211 -4.54293 -0.771635 0
M  V30 1757 H 162.526 -4.07575 -0.852741 0
M  V30 1758 H 165.123 -3.92599 -3.63002 0
M  V30 1759 H 165.466 -2.21679 -3.5237 0
M  V30 1760 H 165.999 -3.30272 -2.21733 0
M  V30 1761 H 162.738 -6.28082 -1.87598 0
M  V30 1762 H 162.258 -5.1158 -3.13123 0
M  V30 1763 H 163.937 -5.70489 -3.05207 0
M  V30 1764 N 164.069 0.697108 -1.41344 0
M  V30 1765 C 164.999 1.82353 -1.45841 0
M  V30 1766 C 165.98 1.67115 -0.317247 0
M  V30 1767 O 167.165 1.86871 -0.528474 0
M  V30 1768 C 164.295 3.20476 -1.33838 0
M  V30 1769 C 163.249 3.50415 -2.4575 0
M  V30 1770 C 162.575 4.87878 -2.18813 0
M  V30 1771 C 163.875 3.49546 -3.88091 0
M  V30 1772 H 165.569 1.78846 -2.40113 0
M  V30 1773 H 163.115 0.859028 -1.15571 0
M  V30 1774 H 165.068 3.98988 -1.35596 0
M  V30 1775 H 163.792 3.24604 -0.360498 0
M  V30 1776 H 162.451 2.74253 -2.43271 0
M  V30 1777 H 162.099 4.8863 -1.19371 0
M  V30 1778 H 161.799 5.08875 -2.93803 0
M  V30 1779 H 163.323 5.68702 -2.22284 0
M  V30 1780 H 164.737 4.18066 -3.92293 0
M  V30 1781 H 163.134 3.82075 -4.62751 0
M  V30 1782 H 164.204 2.48552 -4.16353 0
M  V30 1783 N 165.547 1.27147 0.931209 0
M  V30 1784 C 166.775 1.16082 1.71267 0
M  V30 1785 C 167.19 -0.282772 1.8667 0
M  V30 1786 O 166.547 -1.19283 1.38122 0
M  V30 1787 C 166.598 1.8358 3.11417 0
M  V30 1788 O 166.319 3.22299 2.96741 0
M  V30 1789 C 167.82 1.78597 4.05732 0
M  V30 1790 H 165.04 0.403758 0.535929 0
M  V30 1791 H 167.584 1.67953 1.16671 0
M  V30 1792 H 165.739 1.35623 3.62885 0
M  V30 1793 H 166.153 3.55851 3.85319 0
M  V30 1794 H 167.627 2.30444 5.01597 0
M  V30 1795 H 168.104 0.754564 4.3267 0
M  V30 1796 H 168.71 2.26152 3.60188 0
M  V30 1797 N 167.025 -1.13721 1.09112 0
M  V30 1798 C 168.436 -1.6648 0.845068 0
M  V30 1799 C 168.787 -1.85911 -0.62701 0
M  V30 1800 O 167.912 -1.57556 -1.48341 0
M  V30 1801 C 168.507 -3.02413 1.52748 0
M  V30 1802 C 167.066 -3.52176 1.32849 0
M  V30 1803 C 166.213 -2.27492 1.58564 0
M  V30 1804 H 169.164 -0.976872 1.25072 0
M  V30 1805 H 169.185 -3.68223 0.958752 0
M  V30 1806 H 168.697 -2.88238 2.59885 0
M  V30 1807 H 166.798 -3.7156 0.278137 0
M  V30 1808 H 166.911 -4.32499 2.0611 0
M  V30 1809 H 165.275 -2.33923 1.00758 0
M  V30 1810 H 166.058 -2.15886 2.66924 0
M  V30 1811 N 168.503 -0.877838 -1.30888 0
M  V30 1812 C 169.75 -0.492696 -1.96415 0
M  V30 1813 C 170.078 0.956671 -1.69346 0
M  V30 1814 O 169.333 1.68993 -0.986913 0
M  V30 1815 C 169.632 -0.705748 -3.50363 0
M  V30 1816 C 169.298 -2.1291 -3.97467 0
M  V30 1817 C 167.96 -2.51834 -4.1004 0
M  V30 1818 C 170.312 -3.05702 -4.22132 0
M  V30 1819 C 167.64 -3.82775 -4.44635 0
M  V30 1820 C 169.992 -4.36166 -4.58194 0
M  V30 1821 C 168.656 -4.74993 -4.68975 0
M  V30 1822 H 167.926 -0.18029 -0.718733 0
M  V30 1823 H 170.573 -1.11233 -1.55883 0
M  V30 1824 H 168.878 -0.00303058 -3.918 0
M  V30 1825 H 170.575 -0.387456 -3.99124 0
M  V30 1826 H 167.165 -1.81694 -3.88182 0
M  V30 1827 H 171.349 -2.76853 -4.11906 0
M  V30 1828 H 166.605 -4.12609 -4.51181 0
M  V30 1829 H 170.779 -5.08111 -4.76231 0
M  V30 1830 H 168.406 -5.76495 -4.95537 0
M  V30 1831 N 169.982 1.44106 -0.638065 0
M  V30 1832 C 170.93 2.3248 0.0748149 0
M  V30 1833 C 171.924 1.47746 0.828702 0
M  V30 1834 O 173.13 1.64049 0.740816 0
M  V30 1835 H 169.505 0.750771 0.0429686 0
M  V30 1836 H 171.476 2.90348 -0.688504 0
M  V30 1837 C 170.225 3.31843 1.03805 0
M  V30 1838 H 169.548 3.97059 0.467375 0
M  V30 1839 H 170.988 3.96345 1.50622 0
M  V30 1840 C 169.447 2.61291 2.1267 0
M  V30 1841 O 169.977 2.41702 3.20847 0
M  V30 1842 N 168.183 2.20915 1.88798 0
M  V30 1843 H 167.73 2.37047 1.00829 0
M  V30 1844 H 167.688 1.74038 2.61836 0
M  V30 1845 N 171.46 0.379036 1.52974 0
M  V30 1846 C 172.871 -0.0972525 1.86447 0
M  V30 1847 C 173.222 -1.47027 1.29914 0
M  V30 1848 O 172.347 -2.07135 0.626433 0
M  V30 1849 C 172.942 -0.183248 3.38304 0
M  V30 1850 C 171.501 -0.603812 3.71525 0
M  V30 1851 C 170.648 0.240632 2.76254 0
M  V30 1852 H 173.599 0.597316 1.4703 0
M  V30 1853 H 173.62 -1.00432 3.67006 0
M  V30 1854 H 173.132 0.816191 3.79421 0
M  V30 1855 H 171.233 -1.61099 3.35973 0
M  V30 1856 H 171.346 -0.369086 4.77676 0
M  V30 1857 H 169.71 -0.292548 2.53014 0
M  V30 1858 H 170.493 1.23786 3.20206 0
M  V30 1859 N 172.938 -1.57226 0.108567 0
M  V30 1860 C 174.187 -1.94008 -0.551703 0
M  V30 1861 C 174.5 -0.993442 -1.68494 0
M  V30 1862 O 175.706 -1.25551 -2.40726 0
M  V30 1863 C 174.162 -3.44763 -1.03279 0
M  V30 1864 C 173.77 -4.47943 0.0714193 0
M  V30 1865 C 175.514 -3.90483 -1.66503 0
M  V30 1866 C 173.421 -5.89865 -0.425779 0
M  V30 1867 H 172.351 -0.724206 -0.209863 0
M  V30 1868 H 175.002 -1.82547 0.186741 0
M  V30 1869 H 173.384 -3.51422 -1.82533 0
M  V30 1870 H 174.558 -4.52942 0.847365 0
M  V30 1871 H 172.873 -4.11913 0.609669 0
M  V30 1872 H 175.47 -4.93925 -2.04798 0
M  V30 1873 H 175.813 -3.29877 -2.53942 0
M  V30 1874 H 176.346 -3.86581 -0.938074 0
M  V30 1875 H 173.085 -6.54202 0.412316 0
M  V30 1876 H 172.605 -5.88309 -1.16843 0
M  V30 1877 H 174.284 -6.40844 -0.890397 0
M  V30 1878 N 174.416 0.165178 -1.56732 0
M  V30 1879 C 175.832 0.517174 -1.50988 0
M  V30 1880 C 176.032 1.84331 -0.813894 0
M  V30 1881 O 175.088 2.49672 -0.37682 0
M  V30 1882 C 176.401 0.544261 -2.95733 0
M  V30 1883 C 177.949 0.631039 -3.06573 0
M  V30 1884 C 178.424 0.68896 -4.52788 0
M  V30 1885 N 179.915 0.751683 -4.5706 0
M  V30 1886 C 180.65 0.817177 -5.67547 0
M  V30 1887 N 180.146 0.843129 -6.8765 0
M  V30 1888 N 181.939 0.856668 -5.55534 0
M  V30 1889 H 174.09 -0.704318 -2.00382 0
M  V30 1890 H 176.353 -0.254687 -0.913148 0
M  V30 1891 H 176.059 -0.361607 -3.49836 0
M  V30 1892 H 175.933 1.3886 -3.5071 0
M  V30 1893 H 178.32 1.52733 -2.52501 0
M  V30 1894 H 178.401 -0.240095 -2.54671 0
M  V30 1895 H 178.045 -0.2031 -5.07494 0
M  V30 1896 H 177.975 1.57633 -5.02454 0
M  V30 1897 H 180.466 0.739661 -3.70591 0
M  V30 1898 H 180.779 0.894448 -7.67606 0
M  V30 1899 H 179.124 0.811304 -6.90248 0
M  V30 1900 H 182.315 0.833437 -4.60621 0
M  V30 1901 H 182.488 0.904247 -6.4166 0
M  V30 1902 N 175.894 1.51508 0.433938 0
M  V30 1903 C 176.841 1.73068 1.52696 0
M  V30 1904 C 177.811 0.572441 1.55924 0
M  V30 1905 O 178.996 0.807253 1.72882 0
M  V30 1906 C 176.136 1.86474 2.90381 0
M  V30 1907 C 175.249 3.14037 2.96656 0
M  V30 1908 C 174.384 3.18019 4.25485 0
M  V30 1909 C 173.423 4.39882 4.2564 0
M  V30 1910 N 172.56 4.41394 5.45999 0
M  V30 1911 H 177.4 2.66366 1.33615 0
M  V30 1912 H 174.937 1.32008 0.649018 0
M  V30 1913 H 176.895 1.92229 3.70275 0
M  V30 1914 H 175.525 0.965809 3.08013 0
M  V30 1915 H 174.577 3.17575 2.09404 0
M  V30 1916 H 175.889 4.0394 2.92633 0
M  V30 1917 H 175.043 3.22708 5.13755 0
M  V30 1918 H 173.782 2.2601 4.3217 0
M  V30 1919 H 172.787 4.35366 3.35763 0
M  V30 1920 H 174.012 5.33159 4.20617 0
M  V30 1921 H 171.958 3.52258 5.53399 0
M  V30 1922 H 171.875 5.25111 5.4387 0
M  V30 1923 H 173.143 4.50281 6.36292 0
M  V30 1924 N 177.372 -0.689602 1.41712 0
M  V30 1925 C 178.302 -1.81577 1.46806 0
M  V30 1926 C 179.283 -1.66945 0.326105 0
M  V30 1927 O 180.468 -1.86588 0.538377 0
M  V30 1928 C 177.598 -3.19762 1.35535 0
M  V30 1929 C 176.552 -3.49107 2.47605 0
M  V30 1930 C 175.878 -4.86711 2.21397 0
M  V30 1931 C 177.178 -3.47483 3.89939 0
M  V30 1932 H 178.872 -1.7757 2.41058 0
M  V30 1933 H 176.418 -0.852887 1.16025 0
M  V30 1934 H 178.371 -3.98263 1.3771 0
M  V30 1935 H 177.095 -3.24409 0.377708 0
M  V30 1936 H 175.754 -2.72959 2.44722 0
M  V30 1937 H 175.402 -4.8799 1.21961 0
M  V30 1938 H 175.102 -5.0731 2.96497 0
M  V30 1939 H 176.626 -5.67515 2.25297 0
M  V30 1940 H 178.04 -4.1598 3.94505 0
M  V30 1941 H 176.437 -3.79615 4.64771 0
M  V30 1942 H 177.507 -2.46341 4.17665 0
M  V30 1943 N 178.85 -1.27639 -0.924453 0
M  V30 1944 C 179.813 -1.10681 -2.00705 0
M  V30 1945 C 180.813 -0.0497823 -1.60723 0
M  V30 1946 O 182.003 -0.294654 -1.7169 0
M  V30 1947 C 179.135 -0.687164 -3.33902 0
M  V30 1948 H 180.328 -2.06817 -2.17179 0
M  V30 1949 H 177.881 -1.10473 -1.10569 0
M  V30 1950 H 178.616 0.275439 -3.23128 0
M  V30 1951 H 178.401 -1.45061 -3.6428 0
M  V30 1952 H 179.891 -0.590853 -4.13399 0
M  V30 1953 N 180.328 1.1314 -1.09713 0
M  V30 1954 C 181.577 1.83838 -0.829851 0
M  V30 1955 C 181.89 1.84599 0.646728 0
M  V30 1956 O 183.096 2.51218 1.02965 0
M  V30 1957 C 181.552 3.30069 -1.43466 0
M  V30 1958 C 181.16 3.37688 -2.94399 0
M  V30 1959 C 182.904 4.05788 -1.24645 0
M  V30 1960 C 180.811 4.78209 -3.47952 0
M  V30 1961 H 179.741 0.68877 -0.306777 0
M  V30 1962 H 182.392 1.27448 -1.3202 0
M  V30 1963 H 180.774 3.8628 -0.871996 0
M  V30 1964 H 181.948 2.91456 -3.56918 0
M  V30 1965 H 180.263 2.75436 -3.12289 0
M  V30 1966 H 182.86 5.09535 -1.62107 0
M  V30 1967 H 183.203 4.15878 -0.187357 0
M  V30 1968 H 183.736 3.55915 -1.77678 0
M  V30 1969 H 180.475 4.73311 -4.53495 0
M  V30 1970 H 179.995 5.24924 -2.90198 0
M  V30 1971 H 181.674 5.47133 -3.45332 0
M  V30 1972 N 181.806 0.884767 1.30421 0
M  V30 1973 C 182.753 0.349642 2.28136 0
M  V30 1974 C 183.723 -0.560061 1.56373 0
M  V30 1975 O 184.908 -0.488524 1.8444 0
M  V30 1976 C 182.048 -0.42999 3.42411 0
M  V30 1977 C 181.161 0.508907 4.28992 0
M  V30 1978 C 180.296 -0.286301 5.30428 0
M  V30 1979 C 179.335 0.648079 6.08659 0
M  V30 1980 N 178.472 -0.111792 7.02011 0
M  V30 1981 H 183.312 1.18807 2.73293 0
M  V30 1982 H 180.849 0.597231 1.3443 0
M  V30 1983 H 182.807 -0.897923 4.07423 0
M  V30 1984 H 181.437 -1.23299 2.98324 0
M  V30 1985 H 180.489 1.09533 3.64289 0
M  V30 1986 H 181.801 1.22475 4.8353 0
M  V30 1987 H 180.955 -0.816098 6.01186 0
M  V30 1988 H 179.694 -1.03536 4.76583 0
M  V30 1989 H 178.699 1.18951 5.36778 0
M  V30 1990 H 179.924 1.39623 6.64592 0
M  V30 1991 H 177.87 -0.843395 6.50556 0
M  V30 1992 H 177.787 0.544429 7.54037 0
M  V30 1993 H 179.055 -0.622339 7.77012 0
M  V30 1994 N 183.284 -1.43765 0.645699 0
M  V30 1995 C 184.533 -2.01116 0.153412 0
M  V30 1996 C 184.846 -1.51493 -1.23731 0
M  V30 1997 O 186.052 -2.01067 -1.8244 0
M  V30 1998 C 184.508 -3.59206 0.223473 0
M  V30 1999 C 184.116 -4.17823 1.61642 0
M  V30 2000 C 185.86 -4.23972 -0.211597 0
M  V30 2001 C 183.767 -5.68183 1.64081 0
M  V30 2002 H 182.697 -0.752093 0.0535891 0
M  V30 2003 H 185.348 -1.6482 0.806633 0
M  V30 2004 H 183.73 -3.92867 -0.497118 0
M  V30 2005 H 184.904 -3.95674 2.36176 0
M  V30 2006 H 183.219 -3.65399 1.99681 0
M  V30 2007 H 185.816 -5.34275 -0.213112 0
M  V30 2008 H 186.159 -3.97352 -1.24165 0
M  V30 2009 H 186.692 -3.95166 0.456988 0
M  V30 2010 H 183.431 -5.99559 2.64971 0
M  V30 2011 H 182.951 -5.9241 0.938611 0
M  V30 2012 H 184.63 -6.32085 1.3812 0
M  V30 2013 N 184.763 -0.387143 -1.52771 0
M  V30 2014 C 185.693 0.440551 -2.29306 0
M  V30 2015 C 186.674 1.06535 -1.32606 0
M  V30 2016 O 187.859 1.07853 -1.61497 0
M  V30 2017 C 184.989 1.56919 -3.09829 0
M  V30 2018 C 183.943 1.07054 -4.14395 0
M  V30 2019 C 183.269 2.29109 -4.83129 0
M  V30 2020 C 184.569 0.140015 -5.22112 0
M  V30 2021 H 186.263 -0.198026 -2.98744 0
M  V30 2022 H 183.809 -0.09668 -1.43675 0
M  V30 2023 H 185.762 2.15503 -3.62128 0
M  V30 2024 H 184.486 2.23532 -2.3812 0
M  V30 2025 H 183.145 0.507247 -3.63074 0
M  V30 2026 H 182.793 2.94227 -4.0797 0
M  V30 2027 H 182.493 1.96406 -5.53804 0
M  V30 2028 H 184.017 2.88339 -5.38231 0
M  V30 2029 H 185.431 0.633978 -5.69784 0
M  V30 2030 H 183.828 -0.0971485 -6.00021 0
M  V30 2031 H 184.898 -0.811711 -4.78058 0
M  V30 2032 N 186.241 1.57166 -0.116904 0
M  V30 2033 C 187.487 1.95412 0.542405 0
M  V30 2034 C 187.82 1.00019 1.66463 0
M  V30 2035 O 187.095 0.0370346 1.94465 0
M  V30 2036 C 187.378 3.43615 1.07708 0
M  V30 2037 C 187.231 4.49781 -0.0415868 0
M  V30 2038 C 188.55 3.93616 1.96861 0
M  V30 2039 H 185.669 0.710543 0.195696 0
M  V30 2040 H 188.311 1.89027 -0.192038 0
M  V30 2041 H 186.461 3.49187 1.70296 0
M  V30 2042 H 188.133 4.56308 -0.676793 0
M  V30 2043 H 186.376 4.28033 -0.705019 0
M  V30 2044 H 187.047 5.50733 0.373717 0
M  V30 2045 H 189.523 3.90335 1.44146 0
M  V30 2046 H 188.399 4.97838 2.3119 0
M  V30 2047 H 188.66 3.34188 2.89432 0
M  V30 2048 N 187.719 -0.156864 1.56817 0
M  V30 2049 C 188.669 -1.19891 1.93934 0
M  V30 2050 C 189.653 -1.39061 0.809372 0
M  V30 2051 O 190.845 -1.40789 1.07273 0
M  V30 2052 C 187.974 -2.53493 2.31508 0
M  V30 2053 C 187.06 -2.37957 3.51052 0
M  V30 2054 N 187.451 -1.92158 4.67877 0
M  V30 2055 C 185.749 -2.68739 3.55943 0
M  V30 2056 C 186.45 -1.8943 5.49992 0
M  V30 2057 N 185.426 -2.32375 4.91429 0
M  V30 2058 H 189.228 -0.836746 2.81737 0
M  V30 2059 H 186.742 -0.365012 1.58245 0
M  V30 2060 H 188.739 -3.28811 2.56299 0
M  V30 2061 H 187.399 -2.905 1.45051 0
M  V30 2062 H 188.41 -1.62274 4.91821 0
M  V30 2063 H 185.087 -3.09687 2.80001 0
M  V30 2064 H 186.477 -1.55596 6.53636 0
M  V30 2065 N 189.197 -1.51736 -0.425897 0
M  V30 2066 C 190.422 -1.69082 -1.20108 0
M  V30 2067 C 190.847 -0.392398 -1.83962 0
M  V30 2068 O 190.205 0.64858 -1.69302 0
M  V30 2069 C 190.253 -2.81604 -2.25237 0
M  V30 2070 O 189.357 -2.46004 -3.30992 0
M  V30 2071 H 188.698 -0.563408 -0.35138 0
M  V30 2072 H 191.228 -1.98358 -0.501512 0
M  V30 2073 H 191.238 -3.06025 -2.69838 0
M  V30 2074 H 189.913 -3.75817 -1.78142 0
M  V30 2075 H 188.49 -2.32195 -2.91787 0
M  V30 2076 N 190.675 0.682077 -1.42076 0
M  V30 2077 C 191.605 1.80796 -1.47767 0
M  V30 2078 C 192.586 1.6677 -0.334954 0
M  V30 2079 O 193.771 1.863 -0.548264 0
M  V30 2080 C 190.901 3.19038 -1.37229 0
M  V30 2081 C 189.855 3.47789 -2.49453 0
M  V30 2082 C 189.181 4.8553 -2.23975 0
M  V30 2083 C 190.481 3.45411 -3.91776 0
M  V30 2084 H 192.175 1.7629 -2.41997 0
M  V30 2085 H 189.721 0.846721 -1.16476 0
M  V30 2086 H 191.674 3.97528 -1.39821 0
M  V30 2087 H 190.398 3.24204 -0.394907 0
M  V30 2088 H 189.057 2.71657 -2.46166 0
M  V30 2089 H 188.705 4.87337 -1.24547 0
M  V30 2090 H 188.405 5.0573 -2.99184 0
M  V30 2091 H 189.929 5.66312 -2.28304 0
M  V30 2092 H 191.343 4.13882 -3.96705 0
M  V30 2093 H 189.74 3.77145 -4.66778 0
M  V30 2094 H 190.81 2.44122 -4.18966 0
M  V30 2095 N 192.153 1.28127 0.917671 0
M  V30 2096 C 193.4 1.15052 1.66641 0
M  V30 2097 C 193.728 -0.301677 1.92146 0
M  V30 2098 O 192.983 -1.23622 1.51711 0
M  V30 2099 C 193.282 1.89018 3.03327 0
M  V30 2100 C 192.948 3.38832 2.97496 0
M  V30 2101 C 191.61 3.79693 2.95613 0
M  V30 2102 C 193.962 4.34378 2.88036 0
M  V30 2103 C 191.29 5.14447 2.82066 0
M  V30 2104 C 193.642 5.69201 2.7603 0
M  V30 2105 C 192.306 6.09343 2.72502 0
M  V30 2106 H 191.576 0.421006 0.609783 0
M  V30 2107 H 194.223 1.58855 1.06945 0
M  V30 2108 H 192.528 1.37752 3.66785 0
M  V30 2109 H 194.225 1.76321 3.60156 0
M  V30 2110 H 190.815 3.06342 2.99754 0
M  V30 2111 H 194.999 4.03775 2.88581 0
M  V30 2112 H 190.255 5.44681 2.77728 0
M  V30 2113 H 194.429 6.42901 2.67678 0
M  V30 2114 H 192.056 7.13712 2.61762 0
M  V30 2115 N 193.631 -1.12557 1.10312 0
M  V30 2116 C 194.579 -2.20325 0.745629 0
M  V30 2117 C 195.573 -1.67429 -0.25763 0
M  V30 2118 O 196.779 -1.79612 -0.118132 0
M  V30 2119 H 193.154 -0.718118 0.223182 0
M  V30 2120 H 195.125 -2.47733 1.66346 0
M  V30 2121 C 193.874 -3.47168 0.192262 0
M  V30 2122 H 193.197 -3.88215 0.955475 0
M  V30 2123 H 194.637 -4.23995 -0.0198274 0
M  V30 2124 C 193.096 -3.19298 -1.07472 0
M  V30 2125 O 193.626 -3.3891 -2.15645 0
M  V30 2126 N 191.832 -2.73113 -0.992847 0
M  V30 2127 H 191.379 -2.57354 -0.112474 0
M  V30 2128 H 191.337 -2.54842 -1.84127 0
M  V30 2129 N 195.109 -0.891671 -1.2995 0
M  V30 2130 C 196.042 -0.307994 -2.26112 0
M  V30 2131 C 197.02 0.575262 -1.52084 0
M  V30 2132 O 198.204 0.523864 -1.81074 0
M  V30 2133 C 195.331 0.561734 -3.34009 0
M  V30 2134 C 194.377 -0.253107 -4.25748 0
M  V30 2135 S 195.21 -1.64572 -5.09584 0
M  V30 2136 C 196.366 -0.782699 -6.20987 0
M  V30 2137 H 196.599 -1.12309 -2.75271 0
M  V30 2138 H 194.132 -0.691509 -1.38049 0
M  V30 2139 H 196.09 1.05777 -3.96638 0
M  V30 2140 H 194.751 1.35099 -2.83561 0
M  V30 2141 H 193.944 0.410908 -5.02322 0
M  V30 2142 H 193.546 -0.682004 -3.67729 0
M  V30 2143 H 195.838 -0.00257476 -6.775 0
M  V30 2144 H 196.781 -1.52026 -6.91588 0
M  V30 2145 H 197.189 -0.340638 -5.63471 0
M  V30 2146 N 196.587 1.43421 -0.653314 0
M  V30 2147 C 197.517 2.33487 0.0246656 0
M  V30 2148 C 198.498 1.49475 0.811863 0
M  V30 2149 O 199.683 1.78139 0.773322 0
M  V30 2150 C 196.813 3.32841 0.99166 0
M  V30 2151 C 195.767 4.26842 0.314568 0
M  V30 2152 C 195.093 5.16236 1.39302 0
M  V30 2153 C 196.393 5.16243 -0.793095 0
M  V30 2154 H 198.087 2.90427 -0.727481 0
M  V30 2155 H 195.633 1.39649 -0.351287 0
M  V30 2156 H 197.586 3.94747 1.47487 0
M  V30 2157 H 196.31 2.74158 1.77497 0
M  V30 2158 H 194.969 3.663 -0.148199 0
M  V30 2159 H 194.617 4.53891 2.16776 0
M  V30 2160 H 194.317 5.79948 0.945223 0
M  V30 2161 H 195.841 5.81015 1.87759 0
M  V30 2162 H 197.255 5.71958 -0.392039 0
M  V30 2163 H 195.652 5.88676 -1.16536 0
M  V30 2164 H 196.722 4.55927 -1.65103 0
M  V30 2165 N 198.065 0.39524 1.52563 0
M  V30 2166 C 199.314 -0.186321 2.00838 0
M  V30 2167 C 199.627 -1.47402 1.28577 0
M  V30 2168 O 200.833 -2.13599 1.67593 0
M  V30 2169 C 199.289 -0.382595 3.57861 0
M  V30 2170 C 198.897 0.892202 4.39026 0
M  V30 2171 C 200.641 -0.9202 4.14406 0
M  V30 2172 C 198.548 0.66388 5.87662 0
M  V30 2173 H 197.478 -0.0734041 0.750418 0
M  V30 2174 H 200.129 0.518552 1.76021 0
M  V30 2175 H 198.511 -1.14946 3.7895 0
M  V30 2176 H 199.685 1.66414 4.29701 0
M  V30 2177 H 198 1.35519 3.9373 0
M  V30 2178 H 200.597 -1.10683 5.23119 0
M  V30 2179 H 200.94 -1.89096 3.70875 0
M  V30 2180 H 201.473 -0.212751 3.97231 0
M  V30 2181 H 198.212 1.6058 6.35527 0
M  V30 2182 H 197.732 -0.0690193 5.9976 0
M  V30 2183 H 199.411 0.300699 6.46301 0
M  V30 2184 N 199.544 -1.57102 0.125237 0
M  V30 2185 C 200.477 -2.11371 -0.860094 0
M  V30 2186 C 201.455 -1.03168 -1.25679 0
M  V30 2187 O 202.639 -1.30862 -1.35674 0
M  V30 2188 C 199.766 -2.61555 -2.1519 0
M  V30 2189 C 198.812 -3.81701 -1.9028 0
M  V30 2190 S 199.645 -5.23797 -1.11343 0
M  V30 2191 C 200.801 -5.77353 -2.41689 0
M  V30 2192 H 201.034 -2.94617 -0.39852 0
M  V30 2193 H 198.567 -1.54145 -0.0886555 0
M  V30 2194 H 200.525 -2.91122 -2.89411 0
M  V30 2195 H 199.186 -1.78479 -2.58465 0
M  V30 2196 H 198.379 -4.14985 -2.86014 0
M  V30 2197 H 197.981 -3.52783 -1.24178 0
M  V30 2198 H 200.273 -5.87458 -3.37489 0
M  V30 2199 H 201.216 -6.75323 -2.12942 0
M  V30 2200 H 201.624 -5.05457 -2.51342 0
M  V30 2201 N 201.022 0.148545 -1.56898 0
M  V30 2202 C 202.262 0.86765 -1.85071 0
M  V30 2203 C 202.626 1.78417 -0.709317 0
M  V30 2204 O 203.827 2.54261 -0.872049 0
M  V30 2205 C 202.098 1.62306 -3.1842 0
M  V30 2206 S 203.657 2.3878 -3.68143 0
M  V30 2207 H 200.475 0.290174 -0.649092 0
M  V30 2208 H 203.077 0.127755 -1.95082 0
M  V30 2209 H 201.781 0.941192 -3.99462 0
M  V30 2210 H 201.312 2.4039 -3.1141 0
M  V30 2211 H 203.327 3.63942 -3.37285 0
M  V30 2212 N 202.5 1.5196 0.417844 0
M  V30 2213 C 203.728 1.69426 1.18753 0
M  V30 2214 C 204.143 0.399955 1.84515 0
M  V30 2215 O 203.5 -0.623288 1.71527 0
M  V30 2216 C 203.551 2.82375 2.25714 0
M  V30 2217 O 203.272 4.06793 1.62638 0
M  V30 2218 C 204.773 3.11277 3.15628 0
M  V30 2219 H 201.993 0.568031 0.357186 0
M  V30 2220 H 204.537 1.98475 0.49273 0
M  V30 2221 H 202.692 2.5587 2.90877 0
M  V30 2222 H 203.106 4.69667 2.3348 0
M  V30 2223 H 204.58 3.93843 3.86771 0
M  V30 2224 H 205.057 2.24473 3.77503 0
M  V30 2225 H 205.663 3.39515 2.56144 0
M  V30 2226 N 203.978 -0.674533 1.42435 0
M  V30 2227 C 205.227 -1.43034 1.42212 0
M  V30 2228 C 205.54 -1.95555 0.0420788 0
M  V30 2229 O 206.746 -2.71374 -0.0827558 0
M  V30 2230 C 205.202 -2.58748 2.50155 0
M  V30 2231 C 204.81 -2.12925 3.94166 0
M  V30 2232 C 206.554 -3.36257 2.59098 0
M  V30 2233 C 204.461 -3.25723 4.93618 0
M  V30 2234 H 203.391 -0.537345 0.528939 0
M  V30 2235 H 206.042 -0.73024 1.68344 0
M  V30 2236 H 204.424 -3.31128 2.17188 0
M  V30 2237 H 205.598 -1.47697 4.36488 0
M  V30 2238 H 203.913 -1.48354 3.89076 0
M  V30 2239 H 206.51 -4.20264 3.30578 0
M  V30 2240 H 206.853 -3.82866 1.63461 0
M  V30 2241 H 207.386 -2.70947 2.9126 0
M  V30 2242 H 204.125 -2.84105 5.90732 0
M  V30 2243 H 203.645 -3.89732 4.55926 0
M  V30 2244 H 205.324 -3.91186 5.15347 0
M  V30 2245 N 205.456 -1.28612 -0.910864 0
M  V30 2246 C 206.386 -1.15326 -2.03032 0
M  V30 2247 C 207.367 -0.0502924 -1.70026 0
M  V30 2248 O 208.552 -0.227797 -1.92859 0
M  V30 2249 C 205.682 -0.817343 -3.37545 0
M  V30 2250 C 204.636 -1.8754 -3.84724 0
M  V30 2251 C 203.962 -1.39305 -5.16235 0
M  V30 2252 C 205.262 -3.28244 -4.06267 0
M  V30 2253 H 206.956 -2.08975 -2.14406 0
M  V30 2254 H 204.502 -1.00612 -1.03021 0
M  V30 2255 H 206.455 -0.711151 -4.15356 0
M  V30 2256 H 205.179 0.154846 -3.26233 0
M  V30 2257 H 203.838 -1.97079 -3.09121 0
M  V30 2258 H 203.486 -0.409846 -5.01328 0
M  V30 2259 H 203.186 -2.10057 -5.48771 0
M  V30 2260 H 204.71 -1.30014 -5.96598 0
M  V30 2261 H 206.124 -3.21611 -4.74594 0
M  V30 2262 H 204.521 -3.96855 -4.5014 0
M  V30 2263 H 205.591 -3.72048 -3.10979 0
M  V30 2264 N 206.934 1.1197 -1.10907 0
M  V30 2265 C 208.162 1.87402 -0.876824 0
M  V30 2266 C 208.577 1.79894 0.573025 0
M  V30 2267 O 207.934 1.17629 1.39534 0
M  V30 2268 C 207.985 3.36428 -1.32282 0
M  V30 2269 O 207.706 3.43765 -2.71582 0
M  V30 2270 C 209.207 4.28783 -1.12518 0
M  V30 2271 H 206.427 0.592793 -0.314384 0
M  V30 2272 H 208.971 1.41649 -1.47499 0
M  V30 2273 H 207.126 3.79706 -0.768229 0
M  V30 2274 H 207.54 4.3652 -2.90776 0
M  V30 2275 H 209.014 5.31613 -1.48633 0
M  V30 2276 H 209.491 4.39153 -0.0642394 0
M  V30 2277 H 210.097 3.91291 -1.66648 0
M  V30 2278 N 208.412 0.89855 1.29475 0
M  V30 2279 C 209.36 0.365253 2.29714 0
M  V30 2280 C 210.354 -0.534993 1.6073 0
M  V30 2281 O 211.56 -0.417921 1.75081 0
M  V30 2282 H 207.935 0.0994853 0.74539 0
M  V30 2283 H 209.906 1.22406 2.72138 0
M  V30 2284 C 208.655 -0.393159 3.4547 0
M  V30 2285 H 207.978 0.290332 3.98744 0
M  V30 2286 H 209.418 -0.731189 4.17648 0
M  V30 2287 C 207.877 -1.59539 2.9673 0
M  V30 2288 O 208.407 -2.69469 2.97908 0
M  V30 2289 N 206.613 -1.43716 2.52575 0
M  V30 2290 H 206.16 -0.542828 2.51816 0
M  V30 2291 H 206.118 -2.24288 2.20323 0
M  V30 2292 N 209.89 -1.43072 0.660911 0
M  V30 2293 C 211.13 -2.03596 0.181146 0
M  V30 2294 C 211.494 -1.51057 -1.18515 0
M  V30 2295 O 212.695 -2.03275 -1.75877 0
M  V30 2296 C 210.966 -3.56845 0.19911 0
M  V30 2297 S 212.525 -4.38289 -0.211684 0
M  V30 2298 H 209.343 -0.706954 0.0757479 0
M  V30 2299 H 211.945 -1.75027 0.870965 0
M  V30 2300 H 210.649 -3.92583 1.1961 0
M  V30 2301 H 210.18 -3.90067 -0.510996 0
M  V30 2302 H 212.195 -4.74583 -1.44863 0
M  V30 2303 N 211.368 -0.403325 -1.52352 0
M  V30 2304 C 212.614 0.174605 -2.02047 0
M  V30 2305 C 212.947 1.45282 -1.28867 0
M  V30 2306 O 212.222 1.90483 -0.393257 0
M  V30 2307 C 212.505 0.428238 -3.57545 0
M  V30 2308 C 212.358 -0.866248 -4.4138 0
M  V30 2309 C 213.677 1.21287 -4.23057 0
M  V30 2310 H 210.796 0.0619851 -0.734389 0
M  V30 2311 H 213.438 -0.53565 -1.82293 0
M  V30 2312 H 211.588 1.03327 -3.74507 0
M  V30 2313 H 213.26 -1.50265 -4.3614 0
M  V30 2314 H 211.503 -1.47851 -4.07827 0
M  V30 2315 H 212.174 -0.643249 -5.48239 0
M  V30 2316 H 214.65 0.700703 -4.10158 0
M  V30 2317 H 213.526 1.35909 -5.31808 0
M  V30 2318 H 213.787 2.23193 -3.81625 0
M  V30 2319 N 212.846 1.57033 -0.133567 0
M  V30 2320 C 214.093 1.95686 0.520877 0
M  V30 2321 C 214.421 1.0177 1.6575 0
M  V30 2322 O 213.676 0.0443195 1.9565 0
M  V30 2323 C 213.975 3.40674 1.08057 0
M  V30 2324 C 213.641 4.50855 0.0637899 0
M  V30 2325 C 212.303 4.80716 -0.215757 0
M  V30 2326 C 214.655 5.17398 -0.62835 0
M  V30 2327 C 211.983 5.74433 -1.19348 0
M  V30 2328 C 214.335 6.12167 -1.5948 0
M  V30 2329 C 212.999 6.40414 -1.88218 0
M  V30 2330 H 212.269 0.716067 0.190602 0
M  V30 2331 H 214.916 1.9026 -0.217556 0
M  V30 2332 H 213.221 3.42865 1.89606 0
M  V30 2333 H 214.918 3.67902 1.59529 0
M  V30 2334 H 211.508 4.27605 0.291855 0
M  V30 2335 H 215.692 4.94472 -0.425562 0
M  V30 2336 H 210.948 5.94616 -1.42272 0
M  V30 2337 H 215.122 6.6281 -2.13671 0
M  V30 2338 H 212.749 7.12838 -2.64133 0
M  V30 2339 N 214.325 -0.140222 1.56975 0
M  V30 2340 C 215.258 -1.20266 1.93936 0
M  V30 2341 C 216.236 -1.41212 0.806099 0
M  V30 2342 O 217.42 -1.55713 1.06234 0
M  V30 2343 C 214.547 -2.56037 2.21726 0
M  V30 2344 C 213.593 -2.51646 3.44349 0
M  V30 2345 S 214.426 -1.97678 4.97678 0
M  V30 2346 C 215.582 -3.35165 5.28597 0
M  V30 2347 H 215.815 -0.887358 2.83749 0
M  V30 2348 H 213.348 -0.346119 1.50471 0
M  V30 2349 H 215.306 -3.34167 2.38416 0
M  V30 2350 H 213.967 -2.84755 1.32566 0
M  V30 2351 H 213.16 -3.51608 3.61092 0
M  V30 2352 H 212.762 -1.81628 3.26936 0
M  V30 2353 H 215.054 -4.31302 5.2248 0
M  V30 2354 H 215.997 -3.23269 6.30002 0
M  V30 2355 H 216.405 -3.32614 4.56101 0
M  V30 2356 N 215.803 -1.52179 -0.40978 0
M  V30 2357 C 217.031 -1.70054 -1.17853 0
M  V30 2358 C 217.446 -0.409735 -1.843 0
M  V30 2359 O 216.803 0.614183 -1.71855 0
M  V30 2360 C 216.854 -2.83568 -2.24213 0
M  V30 2361 O 216.575 -4.0765 -1.60478 0
M  V30 2362 C 218.076 -3.12947 -3.13973 0
M  V30 2363 H 215.296 -0.569917 -0.354169 0
M  V30 2364 H 217.84 -1.98734 -0.482198 0
M  V30 2365 H 215.995 -2.57409 -2.89516 0
M  V30 2366 H 216.409 -4.70899 -2.30986 0
M  V30 2367 H 217.883 -3.95889 -3.84677 0
M  V30 2368 H 218.36 -2.26472 -3.76307 0
M  V30 2369 H 218.966 -3.40868 -2.5434 0
M  V30 2370 N 217.281 0.66697 -1.42791 0
M  V30 2371 C 218.214 1.79177 -1.41318 0
M  V30 2372 C 219.192 1.60234 -0.276401 0
M  V30 2373 O 220.376 1.82602 -0.46785 0
M  V30 2374 C 217.503 3.16289 -1.21157 0
M  V30 2375 C 216.549 3.53964 -2.37932 0
M  V30 2376 S 217.382 3.55501 -4.00474 0
M  V30 2377 C 218.538 4.95292 -3.8267 0
M  V30 2378 H 218.771 1.80153 -2.365 0
M  V30 2379 H 216.304 0.838357 -1.29657 0
M  V30 2380 H 218.262 3.95428 -1.10212 0
M  V30 2381 H 216.923 3.1289 -0.275481 0
M  V30 2382 H 216.116 4.53646 -2.19594 0
M  V30 2383 H 215.718 2.82204 -2.45432 0
M  V30 2384 H 218.01 5.83584 -3.44145 0
M  V30 2385 H 218.953 5.18679 -4.82055 0
M  V30 2386 H 219.361 4.68179 -3.15386 0
M  V30 2387 N 218.759 1.29093 0.90403 0
M  V30 2388 C 219.984 1.19809 1.69294 0
M  V30 2389 C 220.409 -0.238481 1.86582 0
M  V30 2390 O 219.767 -1.1723 1.383 0
M  V30 2391 C 219.815 1.91202 3.05736 0
M  V30 2392 O 218.919 1.22611 3.93752 0
M  V30 2393 H 218.26 0.415385 0.518027 0
M  V30 2394 H 220.79 1.70586 1.12967 0
M  V30 2395 H 220.8 1.99487 3.55906 0
M  V30 2396 H 219.475 2.95692 2.92471 0
M  V30 2397 H 218.052 1.22554 3.52186 0
M  V30 2398 N 220.237 -1.11381 1.11499 0
M  V30 2399 C 221.185 -2.19522 0.768956 0
M  V30 2400 C 222.179 -1.67693 -0.239857 0
M  V30 2401 O 223.385 -1.79727 -0.0990755 0
M  V30 2402 H 219.76 -0.715711 0.230786 0
M  V30 2403 H 221.731 -2.45954 1.68964 0
M  V30 2404 C 220.48 -3.46945 0.229073 0
M  V30 2405 H 219.803 -3.8718 0.996596 0
M  V30 2406 H 221.243 -4.23993 0.0251441 0
M  V30 2407 C 219.702 -3.2042 -1.04079 0
M  V30 2408 O 220.232 -3.41178 -2.12038 0
M  V30 2409 N 218.438 -2.74151 -0.963823 0
M  V30 2410 H 217.985 -2.57459 -0.0851722 0
M  V30 2411 H 217.943 -2.56781 -1.81414 0
M  V30 2412 N 221.715 -0.905404 -1.28997 0
M  V30 2413 C 223.126 -0.581953 -1.77398 0
M  V30 2414 C 223.477 0.902552 -1.74208 0
M  V30 2415 O 222.602 1.70584 -1.33154 0
M  V30 2416 C 223.197 -1.04961 -3.22131 0
M  V30 2417 C 221.756 -0.777229 -3.68288 0
M  V30 2418 C 220.903 -1.22109 -2.48967 0
M  V30 2419 H 223.854 -1.08754 -1.15578 0
M  V30 2420 H 223.875 -0.387387 -3.78523 0
M  V30 2421 H 223.387 -2.13008 -3.24421 0
M  V30 2422 H 221.488 0.290383 -3.71467 0
M  V30 2423 H 221.601 -1.37911 -4.58822 0
M  V30 2424 H 219.965 -0.639971 -2.46529 0
M  V30 2425 H 220.748 -2.30972 -2.53982 0
M  V30 2426 N 223.193 1.4272 -0.668489 0
M  V30 2427 C 224.604 1.84793 -0.266151 0
M  V30 2428 C 224.955 1.55959 1.19043 0
M  V30 2429 O 224.08 1.01622 1.91055 0
M  V30 2430 C 224.675 3.35436 -0.476271 0
M  V30 2431 C 223.234 3.76182 -0.128113 0
M  V30 2432 C 222.381 2.66344 -0.771777 0
M  V30 2433 H 225.332 1.32656 -0.871098 0
M  V30 2434 H 225.353 3.79515 0.273561 0
M  V30 2435 H 224.865 3.5639 -1.53647 0
M  V30 2436 H 222.966 3.60836 0.928891 0
M  V30 2437 H 223.079 4.75766 -0.564231 0
M  V30 2438 H 221.443 2.53885 -0.203652 0
M  V30 2439 H 222.226 2.90123 -1.83531 0
M  V30 2440 N 224.671 0.411399 1.52136 0
M  V30 2441 C 225.948 -0.222308 1.94333 0
M  V30 2442 C 226.328 -1.6242 1.34844 0
M  V30 2443 O 225.676 -2.22384 0.525145 0
M  V30 2444 C 225.886 -0.226345 3.48265 0
M  V30 2445 C 227.234 -0.444592 4.22266 0
M  V30 2446 O 228.258 -0.305602 3.54887 0
M  V30 2447 O 227.117 -0.718749 5.41753 0
M  V30 2448 H 224.211 -0.143907 0.814383 0
M  V30 2449 H 226.757 0.467506 1.63133 0
M  V30 2450 H 225.529 0.75475 3.83952 0
M  V30 2451 H 225.152 -0.960163 3.85832 0
M  V30 2452 N 226.149 -1.5696 0.141893 0
M  V30 2453 C 227.395 -1.97034 -0.504884 0
M  V30 2454 C 227.75 -1.02518 -1.62812 0
M  V30 2455 O 227.043 -0.0592943 -1.91508 0
M  V30 2456 C 227.237 -3.41242 -1.06249 0
M  V30 2457 C 227.066 -4.497 0.00519653 0
M  V30 2458 C 225.836 -5.03338 0.444873 0
M  V30 2459 C 228.034 -5.08122 0.794767 0
M  V30 2460 N 226.016 -5.95395 1.49593 0
M  V30 2461 C 227.387 -5.96339 1.69645 0
M  V30 2462 C 229.442 -4.9071 0.843122 0
M  V30 2463 C 228.145 -6.69009 2.64233 0
M  V30 2464 C 230.171 -5.64077 1.77681 0
M  V30 2465 C 229.533 -6.51999 2.66603 0
M  V30 2466 H 225.632 -0.766745 -0.153707 0
M  V30 2467 H 228.216 -1.93273 0.235313 0
M  V30 2468 H 226.387 -3.45606 -1.77231 0
M  V30 2469 H 228.119 -3.68389 -1.67546 0
M  V30 2470 H 224.874 -4.73576 0.0480959 0
M  V30 2471 H 225.298 -6.46128 2.02107 0
M  V30 2472 H 229.94 -4.22459 0.169732 0
M  V30 2473 H 227.658 -7.36492 3.32575 0
M  V30 2474 H 231.244 -5.52602 1.81996 0
M  V30 2475 H 230.124 -7.07775 3.37675 0
M  V30 2476 N 227.627 0.131896 -1.57047 0
M  V30 2477 C 228.855 0.856461 -1.88341 0
M  V30 2478 C 229.27 1.74042 -0.731757 0
M  V30 2479 O 228.627 1.80051 0.297945 0
M  V30 2480 C 228.678 1.70064 -3.18999 0
M  V30 2481 O 228.399 0.852278 -4.2973 0
M  V30 2482 C 229.9 2.53148 -3.63911 0
M  V30 2483 H 227.12 0.246885 -0.62393 0
M  V30 2484 H 229.664 0.120152 -2.04147 0
M  V30 2485 H 227.819 2.38984 -3.04902 0
M  V30 2486 H 228.233 1.43329 -5.04537 0
M  V30 2487 H 229.707 3.07931 -4.58129 0
M  V30 2488 H 230.184 3.29901 -2.89935 0
M  V30 2489 H 230.79 1.89492 -3.80753 0
M  V30 2490 N 229.106 1.52395 0.401703 0
M  V30 2491 C 230.053 1.76268 1.48991 0
M  V30 2492 C 231.023 0.605386 1.54675 0
M  V30 2493 O 232.208 0.843742 1.7113 0
M  V30 2494 C 229.348 1.92592 2.86361 0
M  V30 2495 C 228.461 3.20259 2.89928 0
M  V30 2496 C 227.596 3.26972 4.18644 0
M  V30 2497 C 226.635 4.48812 4.16214 0
M  V30 2498 N 225.772 4.52877 5.36514 0
M  V30 2499 H 230.612 2.6914 1.27935 0
M  V30 2500 H 228.149 1.33355 0.620871 0
M  V30 2501 H 230.107 2.0004 3.66115 0
M  V30 2502 H 228.737 1.03093 3.05895 0
M  V30 2503 H 227.789 3.21945 2.02621 0
M  V30 2504 H 229.101 4.10056 2.83999 0
M  V30 2505 H 228.255 3.33533 5.06794 0
M  V30 2506 H 226.994 2.35126 4.27278 0
M  V30 2507 H 225.999 4.4239 3.26453 0
M  V30 2508 H 227.224 5.41961 4.09213 0
M  V30 2509 H 225.17 3.63917 5.45802 0
M  V30 2510 H 225.087 5.36529 5.32609 0
M  V30 2511 H 226.355 4.63676 6.26597 0
M  V30 2512 N 230.584 -0.659388 1.43143 0
M  V30 2513 C 231.532 -1.79374 1.4808 0
M  V30 2514 C 232.526 -1.65639 0.354988 0
M  V30 2515 O 233.732 -1.7206 0.528704 0
M  V30 2516 H 230.107 -0.591705 0.4641 0
M  V30 2517 H 232.078 -1.72329 2.43609 0
M  V30 2518 C 230.827 -3.17606 1.41499 0
M  V30 2519 H 230.15 -3.28809 2.27431 0
M  V30 2520 H 231.59 -3.96951 1.49015 0
M  V30 2521 C 230.049 -3.36642 0.131765 0
M  V30 2522 O 230.579 -3.93461 -0.809386 0
M  V30 2523 N 228.785 -2.90567 0.0439396 0
M  V30 2524 H 228.332 -2.44513 0.810619 0
M  V30 2525 H 228.29 -3.03681 -0.813969 0
M  V30 2526 N 232.062 -1.29571 -0.897171 0
M  V30 2527 C 233.308 -1.17863 -1.65034 0
M  V30 2528 C 233.641 0.268729 -1.92332 0
M  V30 2529 O 232.916 1.19378 -1.53555 0
M  V30 2530 C 233.199 -1.995 -2.99786 0
M  V30 2531 C 233.052 -3.5239 -2.79538 0
M  V30 2532 C 234.371 -1.82335 -4.00552 0
M  V30 2533 H 231.49 -0.429528 -0.598895 0
M  V30 2534 H 234.132 -1.59072 -1.03905 0
M  V30 2535 H 232.282 -1.64485 -3.51962 0
M  V30 2536 H 233.954 -3.97401 -2.34244 0
M  V30 2537 H 232.197 -3.77187 -2.14273 0
M  V30 2538 H 232.868 -4.04787 -3.75302 0
M  V30 2539 H 235.344 -2.12924 -3.57495 0
M  V30 2540 H 234.22 -2.41801 -4.92771 0
M  V30 2541 H 234.481 -0.779209 -4.35179 0
M  V30 2542 N 233.54 1.10788 -1.12088 0
M  V30 2543 C 234.45 2.20599 -0.798338 0
M  V30 2544 C 235.466 1.72712 0.21135 0
M  V30 2545 O 236.642 2.01348 0.0458477 0
M  V30 2546 C 233.707 3.45771 -0.253674 0
M  V30 2547 C 232.768 4.08411 -1.32283 0
M  V30 2548 C 232.001 5.27608 -0.80406 0
M  V30 2549 O 232.224 5.69241 0.363478 0
M  V30 2550 O 231.158 5.8101 -1.57198 0
M  V30 2551 H 234.984 2.50614 -1.7154 0
M  V30 2552 H 232.569 1.19454 -0.897275 0
M  V30 2553 H 234.451 4.21376 0.0453691 0
M  V30 2554 H 233.126 3.1739 0.636005 0
M  V30 2555 H 232.033 3.34507 -1.67499 0
M  V30 2556 H 233.366 4.40986 -2.18614 0
M  V30 2557 N 235.018 0.912232 1.28515 0
M  V30 2558 C 236.248 0.559604 1.98877 0
M  V30 2559 C 236.656 -0.863113 1.68366 0
M  V30 2560 O 235.999 -1.58304 0.931969 0
M  V30 2561 C 236.061 0.68703 3.52874 0
M  V30 2562 C 235.725 2.07901 4.06972 0
M  V30 2563 C 236.722 3.05157 4.20922 0
M  V30 2564 C 234.407 2.39178 4.417 0
M  V30 2565 C 236.401 4.31806 4.68852 0
M  V30 2566 C 234.088 3.66068 4.89324 0
M  V30 2567 C 235.086 4.62195 5.02856 0
M  V30 2568 O 234.774 5.86829 5.49442 0
M  V30 2569 H 234.506 0.212191 0.641834 0
M  V30 2570 H 237.06 1.22712 1.64715 0
M  V30 2571 H 235.29 -0.0375486 3.86682 0
M  V30 2572 H 236.979 0.341727 4.04459 0
M  V30 2573 H 237.745 2.82311 3.94367 0
M  V30 2574 H 233.624 1.65109 4.30418 0
M  V30 2575 H 237.168 5.06842 4.79329 0
M  V30 2576 H 233.065 3.88739 5.15318 0
M  V30 2577 H 233.833 5.89597 5.6773 0
M  V30 2578 N 236.496 -1.42363 0.676048 0
M  V30 2579 C 237.724 -2.05859 0.207268 0
M  V30 2580 C 238.139 -1.50796 -1.13605 0
M  V30 2581 O 237.496 -0.648265 -1.70598 0
M  V30 2582 C 237.547 -3.61248 0.134975 0
M  V30 2583 O 237.268 -4.1427 1.42521 0
M  V30 2584 C 238.769 -4.41859 -0.357151 0
M  V30 2585 H 235.989 -0.663431 0.100503 0
M  V30 2586 H 238.533 -1.82479 0.923136 0
M  V30 2587 H 236.688 -3.83735 -0.531588 0
M  V30 2588 H 237.102 -5.0815 1.29939 0
M  V30 2589 H 238.576 -5.50847 -0.356641 0
M  V30 2590 H 239.053 -4.16536 -1.39264 0
M  V30 2591 H 239.659 -4.24392 0.27772 0
M  V30 2592 N 237.974 -0.419461 -1.51915 0
M  V30 2593 C 239.221 0.152939 -2.01922 0
M  V30 2594 C 239.549 1.4426 -1.30458 0
M  V30 2595 O 238.804 1.91514 -0.402593 0
M  V30 2596 C 239.103 0.437067 -3.54717 0
M  V30 2597 C 238.769 -0.764632 -4.44369 0
M  V30 2598 C 237.431 -1.09423 -4.68594 0
M  V30 2599 C 239.783 -1.56713 -4.97082 0
M  V30 2600 C 237.111 -2.22732 -5.42777 0
M  V30 2601 C 239.463 -2.69107 -5.72507 0
M  V30 2602 C 238.127 -3.02541 -5.95 0
M  V30 2603 H 237.397 0.0559644 -0.738884 0
M  V30 2604 H 240.044 -0.562998 -1.83037 0
M  V30 2605 H 238.349 1.23469 -3.71837 0
M  V30 2606 H 240.046 0.893083 -3.90928 0
M  V30 2607 H 236.636 -0.497775 -4.257 0
M  V30 2608 H 240.82 -1.32571 -4.78266 0
M  V30 2609 H 236.076 -2.48971 -5.58411 0
M  V30 2610 H 240.25 -3.31671 -6.12346 0
M  V30 2611 H 237.877 -3.90457 -6.52264 0
M  V30 2612 N 239.452 1.56882 -0.150215 0
M  V30 2613 C 240.68 2.00593 0.506948 0
M  V30 2614 C 241.095 1.03033 1.58208 0
M  V30 2615 O 240.452 0.0278396 1.82479 0
M  V30 2616 C 240.503 3.44209 1.10465 0
M  V30 2617 O 240.224 4.3804 0.0724636 0
M  V30 2618 C 241.725 4.03214 1.84211 0
M  V30 2619 H 238.945 0.65795 0.13169 0
M  V30 2620 H 241.489 2.03018 -0.245743 0
M  V30 2621 H 239.644 3.42625 1.80795 0
M  V30 2622 H 240.058 5.22007 0.510793 0
M  V30 2623 H 241.532 5.0569 2.21318 0
M  V30 2624 H 242.009 3.44107 2.72923 0
M  V30 2625 H 242.615 4.08437 1.18572 0
M  V30 2626 N 240.93 -0.123565 1.57115 0
M  V30 2627 C 242.178 -0.83051 1.84247 0
M  V30 2628 C 242.499 -1.80629 0.73471 0
M  V30 2629 O 241.769 -1.94403 -0.241688 0
M  V30 2630 H 240.349 -0.309694 0.679778 0
M  V30 2631 H 243.011 -0.111976 1.94578 0
M  V30 2632 H 242.107 -1.37852 2.80006 0
M  V30 2633 N 242.408 -1.52605 -0.393616 0
M  V30 2634 C 243.657 -1.66649 -1.13627 0
M  V30 2635 C 243.97 -0.410364 -1.91247 0
M  V30 2636 O 245.176 -0.430854 -2.68059 0
M  V30 2637 C 243.632 -2.9449 -2.06891 0
M  V30 2638 C 243.24 -4.27266 -1.34714 0
M  V30 2639 C 244.984 -3.17899 -2.81319 0
M  V30 2640 C 242.891 -5.46217 -2.26717 0
M  V30 2641 H 241.821 -0.62084 -0.427871 0
M  V30 2642 H 244.472 -1.791 -0.399428 0
M  V30 2643 H 242.854 -2.75774 -2.84191 0
M  V30 2644 H 244.028 -4.56518 -0.626714 0
M  V30 2645 H 242.343 -4.10081 -0.722643 0
M  V30 2646 H 244.94 -4.03949 -3.50328 0
M  V30 2647 H 245.283 -2.32777 -3.45139 0
M  V30 2648 H 245.816 -3.37159 -2.11113 0
M  V30 2649 H 242.555 -6.33733 -1.67521 0
M  V30 2650 H 242.075 -5.21283 -2.96689 0
M  V30 2651 H 243.754 -5.7991 -2.86903 0
M  V30 2652 N 243.887 0.651787 -1.4349 0
M  V30 2653 C 245.117 1.43728 -1.48411 0
M  V30 2654 C 245.525 1.8893 -0.10103 0
M  V30 2655 O 244.868 1.60182 0.899307 0
M  V30 2656 C 244.93 2.70411 -2.36893 0
M  V30 2657 C 244.594 2.4714 -3.8441 0
M  V30 2658 C 245.591 2.10271 -4.75481 0
M  V30 2659 C 243.276 2.6142 -4.28912 0
M  V30 2660 C 245.27 1.87982 -6.0905 0
M  V30 2661 C 242.957 2.38746 -5.62533 0
M  V30 2662 C 243.955 2.02083 -6.5242 0
M  V30 2663 O 243.643 1.79647 -7.8357 0
M  V30 2664 H 243.375 0.447962 -0.506267 0
M  V30 2665 H 245.929 0.80624 -1.88915 0
M  V30 2666 H 244.159 3.36079 -1.91278 0
M  V30 2667 H 245.848 3.32364 -2.33 0
M  V30 2668 H 246.614 1.98814 -4.42378 0
M  V30 2669 H 242.493 2.88931 -3.59222 0
M  V30 2670 H 246.037 1.5929 -6.7917 0
M  V30 2671 H 241.934 2.49806 -5.95203 0
M  V30 2672 H 242.702 1.9406 -7.95162 0
M  V30 2673 N 245.365 1.30045 0.890287 0
M  V30 2674 C 246.593 1.21472 1.67487 0
M  V30 2675 C 247.008 -0.223241 1.87476 0
M  V30 2676 O 246.365 -1.14828 1.41847 0
M  V30 2677 C 246.416 1.93394 3.05419 0
M  V30 2678 O 246.137 3.31576 2.86337 0
M  V30 2679 C 247.638 1.91414 3.99844 0
M  V30 2680 H 244.858 0.420604 0.522813 0
M  V30 2681 H 247.402 1.7158 1.11268 0
M  V30 2682 H 245.557 1.47099 3.58386 0
M  V30 2683 H 245.971 3.67929 3.73802 0
M  V30 2684 H 247.445 2.46285 4.94012 0
M  V30 2685 H 247.922 0.891833 4.3005 0
M  V30 2686 H 248.528 2.37496 3.52811 0
M  V30 2687 N 246.843 -1.10192 1.12674 0
M  V30 2688 C 248.09 -1.82205 0.883606 0
M  V30 2689 C 248.418 -1.8532 -0.590492 0
M  V30 2690 O 247.673 -1.31137 -1.45264 0
M  V30 2691 C 247.972 -3.28552 1.4067 0
M  V30 2692 C 247.638 -3.45582 2.89627 0
M  V30 2693 C 246.3 -3.49937 3.30299 0
M  V30 2694 C 248.652 -3.50768 3.85501 0
M  V30 2695 C 245.98 -3.57049 4.65546 0
M  V30 2696 C 248.332 -3.59414 5.20581 0
M  V30 2697 C 246.996 -3.62034 5.60792 0
M  V30 2698 H 246.266 -0.666735 0.323334 0
M  V30 2699 H 248.913 -1.29868 1.40736 0
M  V30 2700 H 247.218 -3.83473 0.80347 0
M  V30 2701 H 248.915 -3.82788 1.19475 0
M  V30 2702 H 245.505 -3.42871 2.57172 0
M  V30 2703 H 249.689 -3.46651 3.55171 0
M  V30 2704 H 244.945 -3.57361 4.96088 0
M  V30 2705 H 249.119 -3.62371 5.94693 0
M  V30 2706 H 246.746 -3.67298 6.6558 0
M  V30 2707 N 248.321 -0.919034 -1.28029 0
M  V30 2708 C 249.231 -0.416756 -2.30869 0
M  V30 2709 C 250.247 0.498235 -1.66714 0
M  V30 2710 O 251.423 0.383144 -1.97722 0
M  V30 2711 C 248.488 0.330274 -3.45123 0
M  V30 2712 C 247.549 -0.618578 -4.2482 0
M  V30 2713 C 246.782 0.0928959 -5.33619 0
M  V30 2714 O 247.005 1.31375 -5.55065 0
M  V30 2715 O 245.939 -0.574499 -5.99152 0
M  V30 2716 H 249.765 -1.27043 -2.75851 0
M  V30 2717 H 247.35 -0.684052 -1.3282 0
M  V30 2718 H 249.232 0.751972 -4.14636 0
M  V30 2719 H 247.907 1.1597 -3.02213 0
M  V30 2720 H 246.814 -1.08978 -3.57875 0
M  V30 2721 H 248.147 -1.41497 -4.71423 0
M  V30 2722 N 249.799 1.42003 -0.683588 0
M  V30 2723 C 251.024 2.06265 -0.216647 0
M  V30 2724 C 251.449 1.51059 1.12083 0
M  V30 2725 O 250.807 0.632638 1.69904 0
M  V30 2726 C 250.855 3.60191 -0.171759 0
M  V30 2727 O 249.959 4.03396 0.857069 0
M  V30 2728 H 249.3 0.65502 -0.108834 0
M  V30 2729 H 251.83 1.81982 -0.935077 0
M  V30 2730 H 251.84 4.08 0.0014303 0
M  V30 2731 H 250.515 3.99743 -1.14796 0
M  V30 2732 H 249.092 3.67117 0.654208 0
M  V30 2733 N 251.277 0.427512 1.51691 0
M  V30 2734 C 252.207 -0.3796 2.30394 0
M  V30 2735 C 253.188 -1.02982 1.35384 0
M  V30 2736 O 254.373 -1.03534 1.643 0
M  V30 2737 C 251.503 -1.48649 3.1388 0
M  V30 2738 C 250.457 -0.960294 4.17088 0
M  V30 2739 C 249.783 -2.16219 4.89033 0
M  V30 2740 C 251.083 -0.00153679 5.223 0
M  V30 2741 H 252.777 0.277164 2.98114 0
M  V30 2742 H 250.323 0.134739 1.43368 0
M  V30 2743 H 252.276 -2.05826 3.67714 0
M  V30 2744 H 251 -2.1714 2.43962 0
M  V30 2745 H 249.659 -0.410806 3.64291 0
M  V30 2746 H 249.307 -2.83307 4.15628 0
M  V30 2747 H 249.007 -1.81654 5.58816 0
M  V30 2748 H 250.531 -2.73968 5.45687 0
M  V30 2749 H 251.945 -0.482687 5.71264 0
M  V30 2750 H 250.342 0.256199 5.99553 0
M  V30 2751 H 251.412 0.938174 4.75738 0
M  V30 2752 N 252.755 -1.56801 0.158532 0
M  V30 2753 C 254.004 -1.95665 -0.489702 0
M  V30 2754 C 254.317 -1.04654 -1.65248 0
M  V30 2755 O 255.523 -1.33146 -2.3661 0
M  V30 2756 C 253.979 -3.47874 -0.922582 0
M  V30 2757 C 253.587 -4.47489 0.213893 0
M  V30 2758 C 255.331 -3.95583 -1.53996 0
M  V30 2759 C 253.238 -5.90921 -0.237903 0
M  V30 2760 H 252.168 -0.730516 -0.186716 0
M  V30 2761 H 254.819 -1.81861 0.244722 0
M  V30 2762 H 253.201 -3.57051 -1.71261 0
M  V30 2763 H 254.375 -4.50017 0.991036 0
M  V30 2764 H 252.69 -4.09764 0.740407 0
M  V30 2765 H 255.287 -5.0019 -1.8898 0
M  V30 2766 H 255.63 -3.37789 -2.43319 0
M  V30 2767 H 256.163 -3.8937 -0.814611 0
M  V30 2768 H 252.902 -6.52559 0.620236 0
M  V30 2769 H 252.422 -5.91729 -0.980676 0
M  V30 2770 H 254.101 -6.43352 -0.686067 0
M  V30 2771 N 254.233 0.115231 -1.57178 0
M  V30 2772 C 255.18 1.14115 -2.00615 0
M  V30 2773 C 256.15 1.40939 -0.878941 0
M  V30 2774 O 257.335 1.52741 -1.14345 0
M  V30 2775 C 254.475 2.46156 -2.4187 0
M  V30 2776 C 253.588 2.26236 -3.68024 0
M  V30 2777 C 252.723 3.51534 -3.98243 0
M  V30 2778 C 251.762 3.26787 -5.17568 0
M  V30 2779 N 250.899 4.44298 -5.43639 0
M  V30 2780 H 255.739 0.763743 -2.88047 0
M  V30 2781 H 253.276 0.365615 -1.42484 0
M  V30 2782 H 255.234 3.23189 -2.63827 0
M  V30 2783 H 253.864 2.81783 -1.57475 0
M  V30 2784 H 252.916 1.40102 -3.5366 0
M  V30 2785 H 254.228 2.03929 -4.55208 0
M  V30 2786 H 253.382 4.36984 -4.20868 0
M  V30 2787 H 252.121 3.76876 -3.09541 0
M  V30 2788 H 251.126 2.39729 -4.94783 0
M  V30 2789 H 252.351 3.02812 -6.0785 0
M  V30 2790 H 250.297 4.69754 -4.57895 0
M  V30 2791 H 250.214 4.25109 -6.25154 0
M  V30 2792 H 251.482 5.3087 -5.70786 0
M  V30 2793 N 255.711 1.52812 0.385517 0
M  V30 2794 C 256.96 1.67249 1.12741 0
M  V30 2795 C 257.273 0.4205 1.91027 0
M  V30 2796 O 258.479 0.445064 2.67827 0
M  V30 2797 C 256.935 2.95583 2.05326 0
M  V30 2798 C 256.543 4.27974 1.32447 0
M  V30 2799 C 258.287 3.19386 2.7963 0
M  V30 2800 C 256.194 5.47412 2.23818 0
M  V30 2801 H 255.124 0.6231 0.424573 0
M  V30 2802 H 257.775 1.79309 0.389924 0
M  V30 2803 H 256.157 2.77277 2.82725 0
M  V30 2804 H 257.331 4.56844 0.602495 0
M  V30 2805 H 255.646 4.10459 0.700885 0
M  V30 2806 H 258.243 4.05801 3.48181 0
M  V30 2807 H 258.586 2.34604 3.43899 0
M  V30 2808 H 259.119 3.38274 2.09322 0
M  V30 2809 H 255.858 6.34612 1.64157 0
M  V30 2810 H 255.378 5.22849 2.93921 0
M  V30 2811 H 257.057 5.81423 2.83824 0
M  V30 2812 N 257.189 -0.644168 1.43834 0
M  V30 2813 C 258.119 -1.76814 1.52509 0
M  V30 2814 C 259.1 -1.65823 0.379052 0
M  V30 2815 O 260.285 -1.84781 0.597466 0
M  V30 2816 C 257.415 -3.15288 1.4564 0
M  V30 2817 C 256.369 -3.41053 2.58586 0
M  V30 2818 C 255.695 -4.79421 2.36769 0
M  V30 2819 C 256.995 -3.34902 4.00797 0
M  V30 2820 H 258.689 -1.69812 2.46586 0
M  V30 2821 H 256.235 -0.815542 1.1868 0
M  V30 2822 H 258.188 -3.93681 1.50311 0
M  V30 2823 H 256.912 -3.23043 0.480725 0
M  V30 2824 H 255.571 -2.65035 2.53282 0
M  V30 2825 H 255.219 -4.83863 1.37424 0
M  V30 2826 H 254.919 -4.9762 3.12487 0
M  V30 2827 H 256.443 -5.6006 2.43238 0
M  V30 2828 H 257.857 -4.03218 4.07539 0
M  V30 2829 H 256.254 -3.64637 4.76613 0
M  V30 2830 H 257.324 -2.32928 4.25291 0
M  V30 2831 N 258.668 -1.30515 -0.883378 0
M  V30 2832 C 259.631 -1.1701 -1.97082 0
M  V30 2833 C 260.631 -0.10089 -1.60483 0
M  V30 2834 O 261.821 -0.349127 -1.70666 0
M  V30 2835 C 258.953 -0.793045 -3.31547 0
M  V30 2836 H 260.146 -2.13622 -2.10489 0
M  V30 2837 H 257.699 -1.13935 -1.06998 0
M  V30 2838 H 258.434 0.172499 -3.23841 0
M  V30 2839 H 258.219 -1.56576 -3.5948 0
M  V30 2840 H 259.709 -0.722073 -4.1131 0
M  V30 2841 N 260.146 1.09593 -1.13257 0
M  V30 2842 C 261.562 1.33775 -0.870423 0
M  V30 2843 C 261.762 1.95327 0.494926 0
M  V30 2844 O 260.818 2.19853 1.2418 0
M  V30 2845 C 262.131 2.25106 -1.99369 0
M  V30 2846 C 263.679 2.3862 -2.02558 0
M  V30 2847 C 264.154 3.33285 -3.14142 0
M  V30 2848 N 265.645 3.40857 -3.13641 0
M  V30 2849 C 266.38 4.14101 -3.96621 0
M  V30 2850 N 265.876 4.90157 -4.8961 0
M  V30 2851 N 267.669 4.09808 -3.84726 0
M  V30 2852 H 259.82 0.680136 -2.01216 0
M  V30 2853 H 262.083 0.362133 -0.876107 0
M  V30 2854 H 261.789 1.87103 -2.97801 0
M  V30 2855 H 261.663 3.25481 -1.90635 0
M  V30 2856 H 264.05 2.75887 -1.0474 0
M  V30 2857 H 264.131 1.38028 -2.15364 0
M  V30 2858 H 263.775 2.96741 -4.12198 0
M  V30 2859 H 263.705 4.33776 -2.98574 0
M  V30 2860 H 266.196 2.86624 -2.46282 0
M  V30 2861 H 266.509 5.4347 -5.49418 0
M  V30 2862 H 264.854 4.89251 -4.93617 0
M  V30 2863 H 268.045 3.4949 -3.11408 0
M  V30 2864 H 268.218 4.66629 -4.49623 0
M  V30 2865 N 261.624 0.925811 1.2754 0
M  V30 2866 C 262.872 0.564138 1.94067 0
M  V30 2867 C 263.193 -0.897188 1.73134 0
M  V30 2868 O 262.463 -1.63573 1.07799 0
M  V30 2869 H 261.043 0.205645 0.718136 0
M  V30 2870 H 263.705 1.1778 1.55287 0
M  V30 2871 H 262.801 0.76881 3.02483 0
M  V30 2872 N 263.102 -1.41638 0.69111 0
M  V30 2873 C 264.349 -2.01299 0.220193 0
M  V30 2874 C 264.677 -1.54715 -1.17871 0
M  V30 2875 O 263.932 -0.747193 -1.80874 0
M  V30 2876 C 264.231 -3.56714 0.221277 0
M  V30 2877 C 263.897 -4.22792 1.56709 0
M  V30 2878 C 262.559 -4.40557 1.93554 0
M  V30 2879 C 264.911 -4.59883 2.45268 0
M  V30 2880 C 262.239 -4.92688 3.18552 0
M  V30 2881 C 264.591 -5.13403 3.69595 0
M  V30 2882 C 263.255 -5.29379 4.06589 0
M  V30 2883 H 262.525 -0.736606 0.0805743 0
M  V30 2884 H 265.172 -1.69598 0.889319 0
M  V30 2885 H 263.477 -3.8818 -0.531391 0
M  V30 2886 H 265.174 -4.00678 -0.160547 0
M  V30 2887 H 261.764 -4.09336 1.2705 0
M  V30 2888 H 265.948 -4.45817 2.18084 0
M  V30 2889 H 261.204 -5.03242 3.47214 0
M  V30 2890 H 265.378 -5.41084 4.38407 0
M  V30 2891 H 263.005 -5.69537 5.03519 0
M  V30 2892 N 264.58 -0.43555 -1.51462 0
M  V30 2893 C 265.82 0.130708 -2.03982 0
M  V30 2894 C 266.184 1.40117 -1.31268 0
M  V30 2895 O 267.385 2.04755 -1.74152 0
M  V30 2896 C 265.656 0.346102 -3.5572 0
M  V30 2897 S 267.215 0.876022 -4.29967 0
M  V30 2898 H 264.033 0.0326881 -0.710248 0
M  V30 2899 H 266.635 -0.594544 -1.8624 0
M  V30 2900 H 265.339 -0.584911 -4.0621 0
M  V30 2901 H 264.87 1.09849 -3.77752 0
M  V30 2902 H 266.885 2.15379 -4.47019 0
M  V30 2903 N 266.058 1.56714 -0.166846 0
M  V30 2904 C 266.988 2.20754 0.760913 0
M  V30 2905 C 267.969 1.16178 1.24244 0
M  V30 2906 O 269.154 1.44592 1.29641 0
M  V30 2907 C 266.284 2.84478 1.99223 0
M  V30 2908 C 265.238 3.95053 1.64672 0
M  V30 2909 C 264.564 4.45805 2.95232 0
M  V30 2910 C 265.864 5.14865 0.878155 0
M  V30 2911 H 267.558 2.98537 0.22713 0
M  V30 2912 H 265.104 1.43596 0.107805 0
M  V30 2913 H 267.057 3.27951 2.64624 0
M  V30 2914 H 265.781 2.04056 2.55007 0
M  V30 2915 H 264.44 3.52228 1.01641 0
M  V30 2916 H 264.088 3.62181 3.49047 0
M  V30 2917 H 263.788 5.204 2.7287 0
M  V30 2918 H 265.312 4.91962 3.6167 0
M  V30 2919 H 266.726 5.55059 1.43466 0
M  V30 2920 H 265.123 5.95348 0.753738 0
M  V30 2921 H 266.193 4.84735 -0.126377 0
M  V30 2922 N 267.536 -0.106894 1.57237 0
M  V30 2923 C 268.446 -1.14911 2.0453 0
M  V30 2924 C 269.462 -1.44592 0.96795 0
M  V30 2925 O 270.638 -1.55468 1.2803 0
M  V30 2926 C 267.703 -2.45272 2.45036 0
M  V30 2927 C 266.764 -2.22879 3.66911 0
M  V30 2928 C 265.997 -3.47024 4.05475 0
M  V30 2929 O 266.22 -4.54804 3.44252 0
M  V30 2930 O 265.154 -3.3731 4.98504 0
M  V30 2931 H 268.98 -0.777461 2.9358 0
M  V30 2932 H 266.565 -0.318563 1.45964 0
M  V30 2933 H 268.447 -3.22055 2.71769 0
M  V30 2934 H 267.122 -2.81886 1.59129 0
M  V30 2935 H 266.029 -1.43915 3.45311 0
M  V30 2936 H 267.362 -1.91163 4.53561 0
M  V30 2937 N 269.014 -1.53014 -0.377408 0
M  V30 2938 C 270.291 -1.59215 -1.13622 0
M  V30 2939 C 270.671 -0.392407 -2.07421 0
M  V30 2940 O 270.019 0.618342 -2.19975 0
M  V30 2941 C 270.229 -2.93669 -1.88573 0
M  V30 2942 C 271.577 -3.47822 -2.43526 0
M  V30 2943 O 272.601 -2.9562 -1.98715 0
M  V30 2944 O 271.46 -4.39055 -3.25412 0
M  V30 2945 H 268.554 -0.642625 -0.52054 0
M  V30 2946 H 271.1 -1.65353 -0.381625 0
M  V30 2947 H 269.872 -3.7243 -1.20048 0
M  V30 2948 H 269.495 -2.90968 -2.70968 0
M  V30 2949 N 270.492 0.636531 -1.44174 0
M  V30 2950 C 271.739 1.39619 -1.46672 0
M  V30 2951 C 272.067 1.94257 -0.0972691 0
M  V30 2952 O 271.322 1.73768 0.900175 0
M  V30 2953 C 271.621 2.58309 -2.47005 0
M  V30 2954 C 271.287 2.21992 -3.92467 0
M  V30 2955 C 269.949 2.118 -4.32081 0
M  V30 2956 C 272.301 1.9321 -4.84065 0
M  V30 2957 C 269.629 1.71007 -5.61225 0
M  V30 2958 C 271.981 1.53911 -6.13591 0
M  V30 2959 C 270.645 1.42257 -6.52165 0
M  V30 2960 H 269.915 0.510902 -0.536712 0
M  V30 2961 H 272.562 0.722328 -1.77355 0
M  V30 2962 H 270.867 3.30903 -2.09786 0
M  V30 2963 H 272.564 3.16533 -2.46186 0
M  V30 2964 H 269.154 2.30841 -3.61124 0
M  V30 2965 H 273.338 1.99997 -4.54219 0
M  V30 2966 H 268.594 1.60583 -5.89935 0
M  V30 2967 H 272.768 1.30677 -6.8403 0
M  V30 2968 H 270.395 1.10419 -7.52138 0
M  V30 2969 N 271.97 1.30982 0.876444 0
M  V30 2970 C 273.198 1.23242 1.6619 0
M  V30 2971 C 273.613 -0.203345 1.87702 0
M  V30 2972 O 272.97 -1.13317 1.43057 0
M  V30 2973 C 273.021 1.96623 3.03351 0
M  V30 2974 O 272.742 3.34594 2.82804 0
M  V30 2975 C 274.243 1.95644 3.97792 0
M  V30 2976 H 271.463 0.426126 0.518322 0
M  V30 2977 H 274.007 1.7275 1.09442 0
M  V30 2978 H 272.162 1.50892 3.56806 0
M  V30 2979 H 272.576 3.71873 3.69879 0
M  V30 2980 H 274.05 2.51511 4.91372 0
M  V30 2981 H 274.527 0.937395 4.2908 0
M  V30 2982 H 275.133 2.41225 3.50272 0
M  V30 2983 N 273.449 -1.08991 1.13837 0
M  V30 2984 C 274.696 -1.81258 0.902882 0
M  V30 2985 C 275.024 -1.85936 -0.570803 0
M  V30 2986 O 274.279 -1.3267 -1.43865 0
M  V30 2987 C 274.578 -3.27042 1.44147 0
M  V30 2988 C 274.244 -3.4249 2.93276 0
M  V30 2989 C 272.906 -3.46414 3.33992 0
M  V30 2990 C 275.258 -3.4666 3.892 0
M  V30 2991 C 272.586 -3.52091 4.69307 0
M  V30 2992 C 274.938 -3.53872 5.24364 0
M  V30 2993 C 273.602 -3.56066 5.646 0
M  V30 2994 H 272.872 -0.663268 0.330388 0
M  V30 2995 H 275.519 -1.28368 1.42105 0
M  V30 2996 H 273.824 -3.82599 0.844097 0
M  V30 2997 H 275.521 -3.81499 1.23528 0
M  V30 2998 H 272.111 -3.40124 2.60794 0
M  V30 2999 H 276.295 -3.42865 3.58828 0
M  V30 3000 H 271.551 -3.52079 4.9985 0
M  V30 3001 H 275.725 -3.56043 5.98503 0
M  V30 3002 H 273.352 -3.60218 6.69438 0
M  V30 3003 N 274.927 -0.932562 -1.27047 0
M  V30 3004 C 275.857 -0.452902 -2.29066 0
M  V30 3005 C 276.838 0.489338 -1.62909 0
M  V30 3006 O 278.023 0.393046 -1.90181 0
M  V30 3007 C 275.153 0.290698 -3.46081 0
M  V30 3008 C 274.107 -0.564168 -4.24265 0
M  V30 3009 C 273.433 0.308886 -5.33807 0
M  V30 3010 C 274.733 -1.83112 -4.89149 0
M  V30 3011 H 276.427 -1.30552 -2.69437 0
M  V30 3012 H 273.973 -0.629201 -1.29526 0
M  V30 3013 H 275.926 0.637233 -4.16554 0
M  V30 3014 H 274.65 1.17738 -3.0464 0
M  V30 3015 H 273.309 -0.893477 -3.55545 0
M  V30 3016 H 272.957 1.19467 -4.88607 0
M  V30 3017 H 272.657 -0.259633 -5.87026 0
M  V30 3018 H 274.181 0.650884 -6.07121 0
M  V30 3019 H 275.595 -1.55236 -5.51883 0
M  V30 3020 H 273.992 -2.34353 -5.52448 0
M  V30 3021 H 275.062 -2.54772 -4.12576 0
M  V30 3022 N 276.405 1.4127 -0.698611 0
M  V30 3023 C 277.821 1.55241 -0.370462 0
M  V30 3024 C 278.021 1.67351 1.12231 0
M  V30 3025 O 277.077 1.65363 1.90818 0
M  V30 3026 C 278.39 2.78997 -1.12165 0
M  V30 3027 C 279.938 2.92797 -1.1063 0
M  V30 3028 C 280.413 4.19445 -1.8393 0
M  V30 3029 N 281.904 4.26409 -1.80914 0
M  V30 3030 C 282.639 5.23271 -2.34467 0
M  V30 3031 N 282.135 6.26145 -2.96504 0
M  V30 3032 N 283.928 5.15232 -2.24706 0
M  V30 3033 H 276.079 1.31654 -1.66676 0
M  V30 3034 H 278.342 0.635393 -0.703548 0
M  V30 3035 H 278.048 2.76268 -2.17644 0
M  V30 3036 H 277.922 3.70606 -0.702209 0
M  V30 3037 H 280.309 2.95039 -0.0597713 0
M  V30 3038 H 280.39 2.02353 -1.56483 0
M  V30 3039 H 280.034 4.17964 -2.88563 0
M  V30 3040 H 279.964 5.08866 -1.35509 0
M  V30 3041 H 282.455 3.527 -1.35687 0
M  V30 3042 H 282.768 6.96451 -3.34927 0
M  V30 3043 H 281.113 6.26638 -3.00583 0
M  V30 3044 H 284.304 4.33789 -1.7591 0
M  V30 3045 H 284.477 5.90552 -2.66745 0
M  V30 3046 N 277.883 0.443576 1.51229 0
M  V30 3047 C 279.16 -0.181038 1.9476 0
M  V30 3048 C 279.54 -1.59523 1.38259 0
M  V30 3049 O 278.888 -2.2122 0.572198 0
M  V30 3050 C 279.098 -0.152422 3.48667 0
M  V30 3051 C 280.446 -0.354923 4.23114 0
M  V30 3052 O 281.47 -0.230257 3.55455 0
M  V30 3053 O 280.329 -0.603674 5.43156 0
M  V30 3054 H 277.423 -0.1266 0.817252 0
M  V30 3055 H 279.969 0.502004 1.62105 0
M  V30 3056 H 278.741 0.836022 3.82265 0
M  V30 3057 H 278.364 -0.878107 3.87782 0
M  V30 3058 N 279.361 -1.56624 0.175154 0
M  V30 3059 C 280.772 -1.83561 -0.340916 0
M  V30 3060 C 281.123 -1.09511 -1.62794 0
M  V30 3061 O 280.248 -0.349389 -2.13561 0
M  V30 3062 C 280.843 -3.32979 -0.625313 0
M  V30 3063 C 279.402 -3.60399 -1.08581 0
M  V30 3064 C 278.549 -2.77024 -0.123722 0
M  V30 3065 H 281.5 -1.53593 0.399344 0
M  V30 3066 H 281.521 -3.50666 -1.47694 0
M  V30 3067 H 281.033 -3.86847 0.311575 0
M  V30 3068 H 279.134 -3.11945 -2.03767 0
M  V30 3069 H 279.247 -4.68711 -0.992317 0
M  V30 3070 H 277.611 -2.46993 -0.621821 0
M  V30 3071 H 278.394 -3.33674 0.807256 0
M  V30 3072 N 280.839 0.0985539 -1.57292 0
M  V30 3073 C 282.085 0.798769 -1.87059 0
M  V30 3074 C 282.44 1.76514 -0.76555 0
M  V30 3075 O 281.733 1.90181 0.232752 0
M  V30 3076 C 281.927 1.56927 -3.21105 0
M  V30 3077 C 281.756 0.679026 -4.44544 0
M  V30 3078 C 280.526 0.326071 -5.04247 0
M  V30 3079 C 282.724 -0.0124715 -5.14298 0
M  V30 3080 N 280.706 -0.572702 -6.11223 0
M  V30 3081 C 282.077 -0.769446 -6.15207 0
M  V30 3082 C 284.132 -0.0867545 -4.97824 0
M  V30 3083 C 282.835 -1.59376 -7.01421 0
M  V30 3084 C 284.861 -0.897955 -5.84543 0
M  V30 3085 C 284.223 -1.64306 -6.84969 0
M  V30 3086 H 280.322 0.268568 -0.734435 0
M  V30 3087 H 282.906 0.0614664 -1.94603 0
M  V30 3088 H 281.077 2.27748 -3.1462 0
M  V30 3089 H 282.809 2.21641 -3.38611 0
M  V30 3090 H 279.564 0.67295 -4.68795 0
M  V30 3091 H 279.988 -1.01454 -6.69355 0
M  V30 3092 H 284.63 0.474963 -4.20124 0
M  V30 3093 H 282.348 -2.16655 -7.78515 0
M  V30 3094 H 285.934 -0.958059 -5.73858 0
M  V30 3095 H 284.814 -2.26065 -7.50909 0
M  V30 3096 N 282.317 1.53212 0.369288 0
M  V30 3097 C 283.265 1.80054 1.47253 0
M  V30 3098 C 284.259 0.669456 1.55611 0
M  V30 3099 O 285.465 0.852328 1.58541 0
M  V30 3100 H 281.84 0.570034 0.490475 0
M  V30 3101 H 283.811 2.72403 1.21817 0
M  V30 3102 C 282.56 2.00403 2.84137 0
M  V30 3103 H 281.883 2.86876 2.78464 0
M  V30 3104 H 283.323 2.23164 3.60519 0
M  V30 3105 C 281.782 0.782081 3.27697 0
M  V30 3106 O 282.312 -0.0310205 4.01688 0
M  V30 3107 N 280.518 0.606573 2.84199 0
M  V30 3108 H 280.065 1.26939 2.24152 0
M  V30 3109 H 280.023 -0.20962 3.137 0
M  V30 3110 N 283.795 -0.628877 1.44509 0
M  V30 3111 C 285.041 -1.38863 1.48623 0
M  V30 3112 C 285.396 -1.92038 0.117933 0
M  V30 3113 O 284.689 -1.70853 -0.86716 0
M  V30 3114 C 284.883 -2.56995 2.48371 0
M  V30 3115 C 284.712 -2.15385 3.94765 0
M  V30 3116 C 283.482 -2.02558 4.62924 0
M  V30 3117 C 285.68 -1.74158 4.83915 0
M  V30 3118 N 283.662 -1.54534 5.94132 0
M  V30 3119 C 285.033 -1.37396 6.04584 0
M  V30 3120 C 287.088 -1.61559 4.7096 0
M  V30 3121 C 285.791 -0.892948 7.13736 0
M  V30 3122 C 287.817 -1.14862 5.80139 0
M  V30 3123 C 287.179 -0.790516 6.9995 0
M  V30 3124 H 283.278 -0.502858 0.59888 0
M  V30 3125 H 285.862 -0.72121 1.8085 0
M  V30 3126 H 284.033 -3.21362 2.1813 0
M  V30 3127 H 285.765 -3.23801 2.42766 0
M  V30 3128 H 282.52 -2.23082 4.1777 0
M  V30 3129 H 282.944 -1.32815 6.63844 0
M  V30 3130 H 287.586 -1.87876 3.78764 0
M  V30 3131 H 285.304 -0.617291 8.05739 0
M  V30 3132 H 288.89 -1.05569 5.72142 0
M  V30 3133 H 287.77 -0.434713 7.82994 0
M  V30 3134 N 285.273 -1.31445 -0.869486 0
M  V30 3135 C 286.203 -1.21727 -1.99261 0
M  V30 3136 C 287.184 -0.104359 -1.6978 0
M  V30 3137 O 288.369 -0.289038 -1.92037 0
M  V30 3138 C 285.499 -0.924317 -3.34774 0
M  V30 3139 C 284.453 -1.99685 -3.78563 0
M  V30 3140 C 283.779 -1.55658 -5.11541 0
M  V30 3141 C 285.079 -3.41003 -3.95619 0
M  V30 3142 H 286.773 -2.1569 -2.07649 0
M  V30 3143 H 284.319 -1.03839 -0.997675 0
M  V30 3144 H 286.272 -0.842934 -4.12883 0
M  V30 3145 H 284.996 0.0509793 -3.2656 0
M  V30 3146 H 283.655 -2.06813 -3.02694 0
M  V30 3147 H 283.303 -0.569132 -4.9977 0
M  V30 3148 H 283.003 -2.27409 -5.41811 0
M  V30 3149 H 284.527 -1.48928 -5.92159 0
M  V30 3150 H 285.941 -3.36547 -4.64122 0
M  V30 3151 H 284.338 -4.10975 -4.37286 0
M  V30 3152 H 285.408 -3.81754 -2.98985 0
M  V30 3153 N 286.751 1.08385 -1.14413 0
M  V30 3154 C 288.028 1.77429 -0.823297 0
M  V30 3155 C 288.408 1.9974 0.683163 0
M  V30 3156 O 287.756 1.60739 1.62405 0
M  V30 3157 C 287.966 3.09004 -1.62227 0
M  V30 3158 C 289.314 3.83532 -1.82177 0
M  V30 3159 O 290.338 3.18786 -1.58915 0
M  V30 3160 O 289.197 4.99792 -2.21067 0
M  V30 3161 H 286.291 0.769999 -0.301712 0
M  V30 3162 H 288.837 1.14846 -1.24934 0
M  V30 3163 H 287.609 2.88316 -2.64555 0
M  V30 3164 H 287.232 3.79316 -1.19187 0
M  V30 3165 N 288.23 0.939286 1.26551 0
M  V30 3166 C 289.477 0.585847 1.9384 0
M  V30 3167 C 289.805 -0.874784 1.73718 0
M  V30 3168 O 289.06 -1.64092 1.06642 0
M  V30 3169 C 289.359 0.872106 3.46596 0
M  V30 3170 C 289.025 2.31632 3.86856 0
M  V30 3171 C 287.687 2.71111 3.97558 0
M  V30 3172 C 290.039 3.25494 4.07066 0
M  V30 3173 C 287.367 4.03553 4.25866 0
M  V30 3174 C 289.719 4.57531 4.36862 0
M  V30 3175 C 288.383 4.96828 4.45778 0
M  V30 3176 H 287.653 0.214377 0.709312 0
M  V30 3177 H 290.3 1.18544 1.50398 0
M  V30 3178 H 288.605 0.18996 3.91339 0
M  V30 3179 H 290.302 0.577442 3.96821 0
M  V30 3180 H 286.892 2.00008 3.79071 0
M  V30 3181 H 291.076 2.9619 3.98227 0
M  V30 3182 H 286.332 4.33665 4.30981 0
M  V30 3183 H 290.506 5.30254 4.51446 0
M  V30 3184 H 288.133 5.99482 4.67468 0
M  V30 3185 N 289.708 -1.40897 0.706093 0
M  V30 3186 C 290.936 -2.05373 0.250887 0
M  V30 3187 C 291.351 -1.53172 -1.10381 0
M  V30 3188 O 290.708 -0.684305 -1.69185 0
M  V30 3189 C 290.759 -3.6088 0.211571 0
M  V30 3190 O 290.48 -4.11153 1.51276 0
M  V30 3191 C 291.981 -4.42517 -0.263346 0
M  V30 3192 H 289.201 -0.66115 0.114552 0
M  V30 3193 H 291.745 -1.80479 0.961635 0
M  V30 3194 H 289.9 -3.84777 -0.450073 0
M  V30 3195 H 290.314 -5.05279 1.40689 0
M  V30 3196 H 291.788 -5.51479 -0.239718 0
M  V30 3197 H 292.265 -4.19396 -1.30397 0
M  V30 3198 H 292.871 -4.23708 0.367677 0
M  V30 3199 N 291.186 -0.45159 -1.50991 0
M  V30 3200 C 292.432 0.110237 -2.025 0
M  V30 3201 C 292.765 1.41109 -1.33424 0
M  V30 3202 O 292.04 1.89135 -0.453659 0
M  V30 3203 C 292.323 0.314271 -3.58726 0
M  V30 3204 C 292.176 -1.00623 -4.38401 0
M  V30 3205 C 293.495 1.07767 -4.26702 0
M  V30 3206 H 290.614 0.0385897 -0.735989 0
M  V30 3207 H 293.256 -0.593374 -1.80497 0
M  V30 3208 H 291.406 0.913601 -3.77605 0
M  V30 3209 H 293.078 -1.64064 -4.31139 0
M  V30 3210 H 291.321 -1.6075 -4.02917 0
M  V30 3211 H 291.992 -0.817341 -5.45915 0
M  V30 3212 H 294.468 0.56986 -4.12179 0
M  V30 3213 H 293.344 1.18921 -5.35863 0
M  V30 3214 H 293.605 2.10939 -3.88532 0
M  V30 3215 N 292.664 1.56529 -0.183458 0
M  V30 3216 C 293.913 1.96419 0.458511 0
M  V30 3217 C 294.226 1.0727 1.63562 0
M  V30 3218 O 295.432 1.36893 2.34462 0
M  V30 3219 C 293.888 3.49298 0.867122 0
M  V30 3220 C 293.496 4.47092 -0.285057 0
M  V30 3221 C 295.24 3.97983 1.47683 0
M  V30 3222 C 293.147 5.91225 0.143862 0
M  V30 3223 H 292.077 0.733394 0.175071 0
M  V30 3224 H 294.728 1.81448 -0.273624 0
M  V30 3225 H 293.11 3.59731 1.65559 0
M  V30 3226 H 294.284 4.48383 -1.0625 0
M  V30 3227 H 292.599 4.08535 -0.805503 0
M  V30 3228 H 295.196 5.03134 1.80999 0
M  V30 3229 H 295.539 3.41618 2.37914 0
M  V30 3230 H 296.072 3.90617 0.752562 0
M  V30 3231 H 292.811 6.5149 -0.723974 0
M  V30 3232 H 292.331 5.93214 0.886413 0
M  V30 3233 H 294.01 6.44362 0.583628 0
M  V30 3234 N 294.142 -0.090211 1.57342 0
M  V30 3235 C 295.37 -0.806224 1.90546 0
M  V30 3236 C 295.785 -1.72041 0.777644 0
M  V30 3237 O 295.142 -1.80778 -0.250103 0
M  V30 3238 C 295.193 -1.61546 3.23396 0
M  V30 3239 O 294.914 -0.738043 4.31839 0
M  V30 3240 C 296.415 -2.4341 3.70495 0
M  V30 3241 H 293.635 -0.230256 0.630257 0
M  V30 3242 H 296.179 -0.0659843 2.04394 0
M  V30 3243 H 294.334 -2.30816 3.11131 0
M  V30 3244 H 294.748 -1.29901 5.08159 0
M  V30 3245 H 296.222 -2.95676 4.66133 0
M  V30 3246 H 296.699 -3.22098 2.98579 0
M  V30 3247 H 297.305 -1.79331 3.85643 0
M  V30 3248 N 295.62 -1.53406 -0.361157 0
M  V30 3249 C 296.867 -1.69802 -1.10333 0
M  V30 3250 C 297.195 -0.452087 -1.89173 0
M  V30 3251 O 296.45 0.566017 -1.87336 0
M  V30 3252 C 296.749 -2.90211 -2.08596 0
M  V30 3253 C 296.415 -4.26539 -1.46203 0
M  V30 3254 C 295.077 -4.6361 -1.28915 0
M  V30 3255 C 297.429 -5.113 -1.01101 0
M  V30 3256 C 294.757 -5.83075 -0.651157 0
M  V30 3257 C 297.109 -6.31415 -0.387007 0
M  V30 3258 C 295.773 -6.67195 -0.201657 0
M  V30 3259 H 295.043 -0.621351 -0.403737 0
M  V30 3260 H 297.69 -1.87598 -0.384609 0
M  V30 3261 H 295.995 -2.66946 -2.86788 0
M  V30 3262 H 297.692 -3.00091 -2.65982 0
M  V30 3263 H 294.282 -3.97352 -1.60653 0
M  V30 3264 H 298.466 -4.83206 -1.13249 0
M  V30 3265 H 293.722 -6.09385 -0.496006 0
M  V30 3266 H 297.896 -6.96394 -0.0293563 0
M  V30 3267 H 295.523 -7.59628 0.294766 0
M  V30 3268 N 297.098 0.621204 -1.44841 0
M  V30 3269 C 298.061 1.71459 -1.521 0
M  V30 3270 C 299.061 1.55696 -0.401933 0
M  V30 3271 O 300.251 1.61011 -0.664925 0
M  V30 3272 C 297.383 3.10624 -1.40447 0
M  V30 3273 H 298.576 1.66394 -2.49506 0
M  V30 3274 H 296.129 0.835745 -1.3208 0
M  V30 3275 H 296.864 3.21277 -0.441737 0
M  V30 3276 H 296.649 3.23473 -2.21602 0
M  V30 3277 H 298.139 3.90293 -1.4853 0
M  V30 3278 N 298.576 1.31904 0.862503 0
M  V30 3279 C 299.806 1.24817 1.64634 0
M  V30 3280 C 300.214 -0.187579 1.88268 0
M  V30 3281 O 299.557 -1.13253 1.44635 0
M  V30 3282 C 299.619 1.92996 3.03303 0
M  V30 3283 C 299.283 3.42336 3.02746 0
M  V30 3284 C 300.28 4.37956 2.80162 0
M  V30 3285 C 297.965 3.84147 3.2363 0
M  V30 3286 C 299.959 5.73361 2.78453 0
M  V30 3287 C 297.646 5.19663 3.21549 0
M  V30 3288 C 298.644 6.14081 2.98988 0
M  V30 3289 O 298.332 7.47118 2.96766 0
M  V30 3290 H 298.064 0.432222 0.519769 0
M  V30 3291 H 300.618 1.7445 1.08427 0
M  V30 3292 H 298.848 1.37922 3.61268 0
M  V30 3293 H 300.537 1.79723 3.63943 0
M  V30 3294 H 301.303 4.06981 2.63802 0
M  V30 3295 H 297.182 3.11083 3.40218 0
M  V30 3296 H 300.726 6.4703 2.60763 0
M  V30 3297 H 296.623 5.5027 3.37451 0
M  V30 3298 H 297.391 7.56382 3.12775 0
M  V30 3299 N 300.054 -1.07777 1.14986 0
M  V30 3300 C 301.3 -1.80557 0.923422 0
M  V30 3301 C 301.633 -1.86298 -0.548337 0
M  V30 3302 O 300.908 -1.34354 -1.40639 0
M  V30 3303 C 301.191 -3.25839 1.53299 0
M  V30 3304 C 301.044 -3.28269 3.07505 0
M  V30 3305 C 302.363 -4.22991 1.21518 0
M  V30 3306 H 299.482 -0.655493 0.336894 0
M  V30 3307 H 302.124 -1.26144 1.42083 0
M  V30 3308 H 300.274 -3.72306 1.10999 0
M  V30 3309 H 301.946 -2.90079 3.58681 0
M  V30 3310 H 300.189 -2.67355 3.4162 0
M  V30 3311 H 300.86 -4.30691 3.45266 0
M  V30 3312 H 303.336 -3.84894 1.581 0
M  V30 3313 H 302.212 -5.22945 1.66793 0
M  V30 3314 H 302.473 -4.41904 0.131505 0
M  V30 3315 N 301.532 -0.945985 -1.26051 0
M  V30 3316 C 302.76 -0.613025 -1.9761 0
M  V30 3317 C 303.175 0.813035 -1.70397 0
M  V30 3318 O 302.532 1.54274 -0.974979 0
M  V30 3319 C 302.583 -0.85159 -3.51326 0
M  V30 3320 O 302.304 -2.22157 -3.77595 0
M  V30 3321 C 303.805 -0.529831 -4.40122 0
M  V30 3322 H 301.025 -0.230593 -0.630133 0
M  V30 3323 H 303.569 -1.268 -1.60443 0
M  V30 3324 H 301.724 -0.243151 -3.86636 0
M  V30 3325 H 302.138 -2.2852 -4.721 0
M  V30 3326 H 303.612 -0.747348 -5.46917 0
M  V30 3327 H 304.089 0.535341 -4.35925 0
M  V30 3328 H 304.695 -1.11721 -4.10364 0
M  V30 3329 N 303.011 1.40521 -0.713556 0
M  V30 3330 C 303.921 2.34522 -0.0606667 0
M  V30 3331 C 304.937 1.57193 0.74607 0
M  V30 3332 O 306.113 1.89591 0.679493 0
M  V30 3333 C 303.178 3.36081 0.851491 0
M  V30 3334 C 302.239 4.29286 0.0349339 0
M  V30 3335 C 301.472 5.25994 0.903649 0
M  V30 3336 O 301.695 5.28616 2.14292 0
M  V30 3337 O 300.629 6.00918 0.343723 0
M  V30 3338 H 304.455 2.91968 -0.835972 0
M  V30 3339 H 302.04 1.41681 -0.47402 0
M  V30 3340 H 303.922 3.98369 1.37404 0
M  V30 3341 H 302.597 2.81052 1.60598 0
M  V30 3342 H 301.504 3.70289 -0.532633 0
M  V30 3343 H 302.837 4.87462 -0.681287 0
M  V30 3344 N 304.489 0.459591 1.5075 0
M  V30 3345 C 305.736 -0.0993495 2.02256 0
M  V30 3346 C 306.064 -1.40751 1.34237 0
M  V30 3347 O 305.319 -1.90379 0.453228 0
M  V30 3348 C 305.618 -0.342866 3.55752 0
M  V30 3349 C 305.284 0.88218 4.42186 0
M  V30 3350 C 303.946 1.21808 4.65528 0
M  V30 3351 C 306.298 1.69837 4.92752 0
M  V30 3352 C 303.626 2.37045 5.36681 0
M  V30 3353 C 305.978 2.84192 5.65171 0
M  V30 3354 C 304.642 3.1821 5.8677 0
M  V30 3355 H 303.912 -0.0363545 0.740108 0
M  V30 3356 H 306.559 0.611329 1.8148 0
M  V30 3357 H 304.864 -1.13567 3.7498 0
M  V30 3358 H 306.561 -0.789121 3.93159 0
M  V30 3359 H 303.151 0.610467 4.2423 0
M  V30 3360 H 307.335 1.45205 4.74583 0
M  V30 3361 H 302.591 2.63689 5.51614 0
M  V30 3362 H 306.765 3.4779 6.03337 0
M  V30 3363 H 304.392 4.07613 6.41682 0
M  V30 3364 N 305.967 -1.56429 0.191757 0
M  V30 3365 C 307.213 -1.97777 -0.448554 0
M  V30 3366 C 307.546 -1.07847 -1.61501 0
M  V30 3367 O 306.821 -0.129774 -1.94067 0
M  V30 3368 C 307.104 -3.48362 -0.911906 0
M  V30 3369 C 306.957 -4.4907 0.256136 0
M  V30 3370 C 308.276 -4.02561 -1.77857 0
M  V30 3371 H 305.395 -0.719071 -0.161572 0
M  V30 3372 H 308.037 -1.87896 0.282007 0
M  V30 3373 H 306.187 -3.56914 -1.53442 0
M  V30 3374 H 307.859 -4.5256 0.893733 0
M  V30 3375 H 306.102 -4.24181 0.908436 0
M  V30 3376 H 306.773 -5.51889 -0.11053 0
M  V30 3377 H 309.249 -3.96767 -1.25359 0
M  V30 3378 H 308.125 -5.08301 -2.07174 0
M  V30 3379 H 308.386 -3.47616 -2.73158 0
M  V30 3380 N 307.445 0.0818655 -1.57387 0
M  V30 3381 C 308.722 0.815343 -1.77796 0
M  V30 3382 C 309.102 1.96289 -0.77679 0
M  V30 3383 O 308.45 2.27691 0.192106 0
M  V30 3384 C 308.66 1.29765 -3.23978 0
M  V30 3385 C 310.008 1.7351 -3.8753 0
M  V30 3386 O 311.032 1.39356 -3.27808 0
M  V30 3387 O 309.891 2.36708 -4.92576 0
M  V30 3388 H 306.985 0.389914 -0.729312 0
M  V30 3389 H 309.531 0.0627213 -1.69584 0
M  V30 3390 H 308.303 0.47608 -3.88393 0
M  V30 3391 H 307.926 2.11189 -3.36875 0
M  V30 3392 N 308.923 1.53595 0.353017 0
M  V30 3393 C 309.853 1.83902 1.43883 0
M  V30 3394 C 310.834 0.693421 1.55324 0
M  V30 3395 O 312.019 0.944452 1.69687 0
M  V30 3396 C 309.149 2.04016 2.8106 0
M  V30 3397 C 308.103 3.19814 2.84434 0
M  V30 3398 C 307.429 3.25244 4.24406 0
M  V30 3399 C 308.729 4.58133 2.50822 0
M  V30 3400 H 310.423 2.74835 1.1877 0
M  V30 3401 H 307.969 1.32242 0.569917 0
M  V30 3402 H 309.922 2.238 3.57059 0
M  V30 3403 H 308.646 1.09804 3.07588 0
M  V30 3404 H 307.305 2.9987 2.10887 0
M  V30 3405 H 306.953 2.28646 4.48029 0
M  V30 3406 H 306.653 4.03054 4.27576 0
M  V30 3407 H 308.177 3.47228 5.0226 0
M  V30 3408 H 309.591 4.77995 3.16534 0
M  V30 3409 H 307.988 5.38276 2.6529 0
M  V30 3410 H 309.058 4.62387 1.46034 0
M  V30 3411 N 310.401 -0.613514 1.45168 0
M  V30 3412 C 311.649 -1.36997 1.48581 0
M  V30 3413 C 311.97 -1.94589 0.126545 0
M  V30 3414 O 311.24 -1.76816 -0.843372 0
M  V30 3415 H 309.82 -0.508558 0.547154 0
M  V30 3416 H 312.482 -0.720853 1.81079 0
M  V30 3417 H 311.578 -2.1924 2.22127 0
M  V30 3418 N 311.879 -1.3236 -0.855495 0
M  V30 3419 C 312.827 -1.2118 -1.9854 0
M  V30 3420 C 313.821 -0.116788 -1.68997 0
M  V30 3421 O 315.027 -0.279657 -1.77814 0
M  V30 3422 H 311.402 -0.375608 -0.651477 0
M  V30 3423 H 313.373 -2.16743 -2.05098 0
M  V30 3424 C 312.122 -0.950849 -3.34446 0
M  V30 3425 H 311.445 -1.78563 -3.57708 0
M  V30 3426 H 312.885 -0.912863 -4.14057 0
M  V30 3427 C 311.344 0.346404 -3.35114 0
M  V30 3428 O 311.874 1.35855 -3.7803 0
M  V30 3429 N 310.08 0.36808 -2.88259 0
M  V30 3430 H 309.627 -0.456102 -2.5353 0
M  V30 3431 H 309.585 1.23591 -2.89089 0
M  V30 3432 N 313.357 1.07166 -1.15556 0
M  V30 3433 C 314.603 1.80065 -0.932984 0
M  V30 3434 C 314.936 1.86586 0.53845 0
M  V30 3435 O 314.211 1.35098 1.39924 0
M  V30 3436 C 314.494 3.25022 -1.55025 0
M  V30 3437 C 314.347 3.26634 -3.09242 0
M  V30 3438 C 315.666 4.22341 -1.2376 0
M  V30 3439 H 312.785 0.653697 -0.340366 0
M  V30 3440 H 315.427 1.25389 -1.4275 0
M  V30 3441 H 313.577 3.71712 -1.12972 0
M  V30 3442 H 315.249 2.88173 -3.60214 0
M  V30 3443 H 313.492 2.65539 -3.43033 0
M  V30 3444 H 314.163 4.28854 -3.47546 0
M  V30 3445 H 316.639 3.8405 -1.60139 0
M  V30 3446 H 315.515 5.22053 -1.69564 0
M  V30 3447 H 315.776 4.41828 -0.154938 0
M  V30 3448 N 314.835 0.952656 1.25548 0
M  V30 3449 C 316.06 0.623025 1.97821 0
M  V30 3450 C 316.485 -0.7976 1.70352 0
M  V30 3451 O 315.843 -1.53905 0.958283 0
M  V30 3452 C 315.891 0.885532 3.49558 0
M  V30 3453 O 314.995 -0.0366641 4.12384 0
M  V30 3454 H 314.336 0.237082 0.620232 0
M  V30 3455 H 316.866 1.27871 1.59719 0
M  V30 3456 H 316.876 0.811009 3.99858 0
M  V30 3457 H 315.551 1.92094 3.6888 0
M  V30 3458 H 314.128 0.0898954 3.72792 0
M  V30 3459 N 316.313 -1.40141 0.720998 0
M  V30 3460 C 317.276 -2.29058 0.0805834 0
M  V30 3461 C 318.276 -1.45632 -0.681758 0
M  V30 3462 O 319.466 -1.6648 -0.512856 0
M  V30 3463 C 316.598 -3.28925 -0.895593 0
M  V30 3464 H 317.791 -2.87191 0.863793 0
M  V30 3465 H 315.344 -1.48553 0.485975 0
M  V30 3466 H 316.079 -2.75822 -1.70566 0
M  V30 3467 H 315.864 -3.90519 -0.351766 0
M  V30 3468 H 317.354 -3.95494 -1.34069 0
M  V30 3469 N 317.792 -0.46758 -1.50504 0
M  V30 3470 C 318.722 0.318381 -2.31319 0
M  V30 3471 C 319.703 0.993564 -1.38066 0
M  V30 3472 O 320.888 0.991411 -1.66987 0
M  V30 3473 C 318.018 1.40275 -3.17711 0
M  V30 3474 C 316.972 0.849373 -4.19487 0
M  V30 3475 C 316.298 2.03177 -4.94594 0
M  V30 3476 C 317.598 -0.136942 -5.2212 0
M  V30 3477 H 319.292 -0.356106 -2.97275 0
M  V30 3478 H 316.838 -0.172703 -1.42961 0
M  V30 3479 H 318.791 1.96004 -3.73042 0
M  V30 3480 H 317.515 2.10596 -2.49634 0
M  V30 3481 H 316.174 0.314076 -3.65252 0
M  V30 3482 H 315.822 2.72187 -4.22993 0
M  V30 3483 H 315.522 1.66774 -5.63436 0
M  V30 3484 H 317.046 2.59403 -5.52759 0
M  V30 3485 H 318.46 0.331056 -5.72343 0
M  V30 3486 H 316.857 -0.41507 -5.98663 0
M  V30 3487 H 317.927 -1.06398 -4.73083 0
M  V30 3488 N 319.27 1.56325 -0.20005 0
M  V30 3489 C 320.686 1.58839 0.155716 0
M  V30 3490 C 320.886 1.21636 1.60645 0
M  V30 3491 O 319.942 0.941437 2.34293 0
M  V30 3492 C 321.255 3.0032 -0.151124 0
M  V30 3493 C 322.803 3.12866 -0.0916284 0
M  V30 3494 C 323.278 4.56488 -0.371845 0
M  V30 3495 N 324.769 4.62089 -0.320641 0
M  V30 3496 C 325.504 5.71116 -0.511243 0
M  V30 3497 N 325 6.88592 -0.762461 0
M  V30 3498 N 326.793 5.60335 -0.445157 0
M  V30 3499 H 318.944 1.78788 -1.14668 0
M  V30 3500 H 321.207 0.829996 -0.458051 0
M  V30 3501 H 320.913 3.32117 -1.15721 0
M  V30 3502 H 320.787 3.73257 0.543986 0
M  V30 3503 H 323.174 2.80878 0.905065 0
M  V30 3504 H 323.255 2.42304 -0.81989 0
M  V30 3505 H 322.899 4.89189 -1.36588 0
M  V30 3506 H 322.829 5.25246 0.377362 0
M  V30 3507 H 325.32 3.77665 -0.13329 0
M  V30 3508 H 325.633 7.67581 -0.896576 0
M  V30 3509 H 323.978 6.90387 -0.799412 0
M  V30 3510 H 327.169 4.67436 -0.249278 0
M  V30 3511 H 327.342 6.45243 -0.597116 0
M  V30 3512 N 320.748 -0.0735177 1.57428 0
M  V30 3513 C 321.976 -0.785969 1.9139 0
M  V30 3514 C 322.391 -1.71207 0.795847 0
M  V30 3515 O 321.748 -1.81033 -0.230915 0
M  V30 3516 C 321.799 -1.58107 3.25091 0
M  V30 3517 O 321.52 -0.6922 4.32597 0
M  V30 3518 C 323.021 -2.39467 3.73055 0
M  V30 3519 H 320.241 -0.223558 0.632663 0
M  V30 3520 H 322.785 -0.044302 2.04452 0
M  V30 3521 H 320.94 -2.27503 3.13562 0
M  V30 3522 H 321.354 -1.24504 5.09508 0
M  V30 3523 H 322.828 -2.90716 4.69242 0
M  V30 3524 H 323.305 -3.18913 3.01979 0
M  V30 3525 H 323.911 -1.7523 3.87523 0
M  V30 3526 N 322.226 -1.5378 -0.344866 0
M  V30 3527 C 323.473 -1.70963 -1.08526 0
M  V30 3528 C 323.801 -0.472126 -1.88683 0
M  V30 3529 O 323.056 0.546116 -1.87926 0
M  V30 3530 C 323.355 -2.92407 -2.05506 0
M  V30 3531 C 323.021 -4.28066 -1.41671 0
M  V30 3532 C 321.683 -4.64951 -1.2399 0
M  V30 3533 C 324.035 -5.12344 -0.956726 0
M  V30 3534 C 321.363 -5.83733 -0.589277 0
M  V30 3535 C 323.715 -6.3179 -0.320015 0
M  V30 3536 C 322.379 -6.67372 -0.130881 0
M  V30 3537 H 321.649 -0.625598 -0.397124 0
M  V30 3538 H 324.296 -1.87995 -0.36469 0
M  V30 3539 H 322.601 -2.69973 -2.8394 0
M  V30 3540 H 324.298 -3.02895 -2.62784 0
M  V30 3541 H 320.888 -3.99034 -1.56429 0
M  V30 3542 H 325.072 -4.8438 -1.08118 0
M  V30 3543 H 320.328 -6.09877 -0.431344 0
M  V30 3544 H 324.502 -6.96386 0.0445072 0
M  V30 3545 H 322.129 -7.59273 0.375318 0
M  V30 3546 N 323.704 0.605807 -1.45491 0
M  V30 3547 C 325.12 0.926751 -1.29936 0
M  V30 3548 C 325.32 1.99896 -0.253706 0
M  V30 3549 O 324.376 2.50038 0.351737 0
M  V30 3550 C 325.689 1.36599 -2.67883 0
M  V30 3551 C 327.237 1.4801 -2.75793 0
M  V30 3552 C 327.712 1.95309 -4.14268 0
M  V30 3553 N 329.203 2.0254 -4.16571 0
M  V30 3554 C 329.938 2.40363 -5.20589 0
M  V30 3555 N 329.434 2.77143 -6.34952 0
M  V30 3556 N 331.227 2.40718 -5.07948 0
M  V30 3557 H 323.378 -0.102862 -2.12151 0
M  V30 3558 H 325.641 0.016639 -0.947854 0
M  V30 3559 H 325.347 0.652306 -3.45598 0
M  V30 3560 H 325.221 2.33215 -2.96463 0
M  V30 3561 H 327.608 2.1847 -1.98381 0
M  V30 3562 H 327.689 0.497041 -2.50925 0
M  V30 3563 H 327.333 1.25436 -4.92167 0
M  V30 3564 H 327.263 2.94532 -4.3653 0
M  V30 3565 H 329.754 1.76699 -3.34045 0
M  V30 3566 H 330.067 3.0489 -7.10114 0
M  V30 3567 H 328.412 2.74834 -6.3835 0
M  V30 3568 H 331.603 2.11392 -4.1765 0
M  V30 3569 H 331.776 2.69869 -5.89131 0
M  V30 3570 N 325.182 1.32811 0.848464 0
M  V30 3571 C 326.428 1.23907 1.60546 0
M  V30 3572 C 326.761 -0.197161 1.93197 0
M  V30 3573 O 326.036 -1.13596 1.5788 0
M  V30 3574 C 326.319 2.10489 2.92175 0
M  V30 3575 C 326.172 3.62522 2.66266 0
M  V30 3576 C 327.491 1.97075 3.93509 0
M  V30 3577 H 324.61 0.451459 0.58254 0
M  V30 3578 H 327.252 1.62818 0.979296 0
M  V30 3579 H 325.402 1.77434 3.45614 0
M  V30 3580 H 327.074 4.05821 2.19334 0
M  V30 3581 H 325.317 3.84879 2.00126 0
M  V30 3582 H 325.988 4.18437 3.6002 0
M  V30 3583 H 328.464 2.26045 3.49346 0
M  V30 3584 H 327.34 2.59923 4.83457 0
M  V30 3585 H 327.601 0.940186 4.31987 0
M  V30 3586 N 326.66 -1.06551 1.16123 0
M  V30 3587 C 327.59 -2.15935 0.88851 0
M  V30 3588 C 328.571 -1.69306 -0.164135 0
M  V30 3589 O 329.756 -1.94193 -0.0167857 0
M  V30 3590 C 326.886 -3.45149 0.385942 0
M  V30 3591 C 325.84 -4.05271 1.3762 0
M  V30 3592 C 325.166 -5.29664 0.732137 0
M  V30 3593 C 326.466 -4.44355 2.74493 0
M  V30 3594 H 328.16 -2.39006 1.80323 0
M  V30 3595 H 325.706 -1.14866 0.868435 0
M  V30 3596 H 327.659 -4.21004 0.182647 0
M  V30 3597 H 326.383 -3.21689 -0.564274 0
M  V30 3598 H 325.042 -3.3147 1.56599 0
M  V30 3599 H 324.69 -5.02499 -0.224483 0
M  V30 3600 H 324.39 -5.70848 1.39307 0
M  V30 3601 H 325.914 -6.08218 0.538802 0
M  V30 3602 H 327.328 -5.11303 2.59311 0
M  V30 3603 H 325.725 -4.96515 3.37035 0
M  V30 3604 H 326.795 -3.55339 3.29943 0
M  V30 3605 N 328.138 -0.959301 -1.25041 0
M  V30 3606 C 329.554 -0.664474 -1.4511 0
M  V30 3607 C 329.754 0.776481 -1.85938 0
M  V30 3608 O 328.81 1.55128 -1.99227 0
M  V30 3609 C 330.123 -1.64139 -2.5195 0
M  V30 3610 C 331.671 -1.65309 -2.65786 0
M  V30 3611 C 332.146 -2.61777 -3.75815 0
M  V30 3612 N 333.637 -2.60169 -3.83231 0
M  V30 3613 C 334.372 -3.31489 -4.6787 0
M  V30 3614 N 333.868 -4.12298 -5.56761 0
M  V30 3615 N 335.661 -3.20354 -4.61876 0
M  V30 3616 H 327.812 -1.89043 -0.968332 0
M  V30 3617 H 330.075 -0.813408 -0.4869 0
M  V30 3618 H 329.781 -2.67086 -2.28819 0
M  V30 3619 H 329.655 -1.40756 -3.49954 0
M  V30 3620 H 332.042 -0.630778 -2.8828 0
M  V30 3621 H 332.123 -1.92753 -1.68167 0
M  V30 3622 H 331.767 -3.64137 -3.54071 0
M  V30 3623 H 331.697 -2.31616 -4.72929 0
M  V30 3624 H 334.188 -2.01507 -3.19692 0
M  V30 3625 H 334.501 -4.63625 -6.18281 0
M  V30 3626 H 332.846 -4.16395 -5.56454 0
M  V30 3627 H 336.037 -2.56692 -3.91442 0
M  V30 3628 H 336.21 -3.76201 -5.27614 0
M  V30 3629 N 329.616 1.39756 -0.72842 0
M  V30 3630 C 330.579 2.29012 -0.0927297 0
M  V30 3631 C 331.579 1.45992 0.674025 0
M  V30 3632 O 332.769 1.66749 0.50402 0
M  V30 3633 C 329.901 3.29396 0.878137 0
M  V30 3634 H 331.094 2.86729 -0.879011 0
M  V30 3635 H 328.647 1.48293 -0.493847 0
M  V30 3636 H 329.382 2.76722 1.69101 0
M  V30 3637 H 329.167 3.907 0.331051 0
M  V30 3638 H 330.657 3.96199 1.3197 0
M  V30 3639 N 331.094 0.475555 1.50254 0
M  V30 3640 C 332.024 -0.30611 2.31485 0
M  V30 3641 C 333.005 -0.986228 1.38591 0
M  V30 3642 O 334.19 -0.982541 1.67511 0
M  V30 3643 C 331.32 -1.38588 3.1845 0
M  V30 3644 C 330.274 -0.827115 4.19932 0
M  V30 3645 C 329.6 -2.00551 4.95665 0
M  V30 3646 C 330.9 0.16463 5.2204 0
M  V30 3647 H 332.594 0.371866 2.97082 0
M  V30 3648 H 330.14 0.180282 1.42867 0
M  V30 3649 H 332.093 -1.94023 3.74076 0
M  V30 3650 H 330.817 -2.09269 2.50747 0
M  V30 3651 H 329.476 -0.294702 3.65414 0
M  V30 3652 H 329.124 -2.6994 4.2443 0
M  V30 3653 H 328.824 -1.63784 5.64313 0
M  V30 3654 H 330.348 -2.56468 5.54127 0
M  V30 3655 H 331.762 -0.300699 5.72511 0
M  V30 3656 H 330.159 0.446813 5.98434 0
M  V30 3657 H 331.229 1.08905 4.72512 0
M  V30 3658 N 332.573 -1.56217 0.208337 0
M  V30 3659 C 333.52 -2.19699 -0.707192 0
M  V30 3660 C 334.49 -1.14836 -1.20008 0
M  V30 3661 O 335.675 -1.4314 -1.26157 0
M  V30 3662 C 332.815 -2.87061 -1.91546 0
M  V30 3663 C 331.928 -4.06483 -1.46271 0
M  V30 3664 C 331.063 -4.61665 -2.62752 0
M  V30 3665 C 330.102 -5.73417 -2.14147 0
M  V30 3666 N 329.239 -6.22948 -3.23853 0
M  V30 3667 H 334.079 -2.97575 -0.159111 0
M  V30 3668 H 331.616 -1.46948 -0.0667874 0
M  V30 3669 H 333.574 -3.24294 -2.62468 0
M  V30 3670 H 332.204 -2.11725 -2.43664 0
M  V30 3671 H 331.256 -3.74825 -0.648886 0
M  V30 3672 H 332.568 -4.87271 -1.06622 0
M  V30 3673 H 331.722 -5.01272 -3.41776 0
M  V30 3674 H 330.461 -3.80013 -3.05682 0
M  V30 3675 H 329.466 -5.33326 -1.33581 0
M  V30 3676 H 330.691 -6.56897 -1.72232 0
M  V30 3677 H 328.637 -5.44213 -3.6629 0
M  V30 3678 H 328.554 -6.98823 -2.88414 0
M  V30 3679 H 329.822 -6.6721 -4.03052 0
M  V30 3680 N 334.051 0.0651679 -1.57465 0
M  V30 3681 C 335.279 0.775808 -1.91804 0
M  V30 3682 C 335.694 1.70782 -0.804916 0
M  V30 3683 O 335.051 1.81153 0.221311 0
M  V30 3684 C 335.102 1.56381 -3.25925 0
M  V30 3685 O 334.823 0.669248 -4.32958 0
M  V30 3686 C 336.324 2.37485 -3.7432 0
M  V30 3687 H 333.544 0.2202 -0.63384 0
M  V30 3688 H 336.088 0.0334587 -2.04473 0
M  V30 3689 H 334.243 2.25837 -3.14764 0
M  V30 3690 H 334.657 1.21801 -5.10162 0
M  V30 3691 H 336.131 2.88223 -4.70778 0
M  V30 3692 H 336.608 3.17307 -3.03666 0
M  V30 3693 H 337.214 1.73173 -3.88447 0
M  V30 3694 N 335.529 1.53961 0.336706 0
M  V30 3695 C 336.778 1.70751 1.07363 0
M  V30 3696 C 337.091 0.481061 1.89592 0
M  V30 3697 O 338.297 0.530046 2.66276 0
M  V30 3698 C 336.753 3.01965 1.95818 0
M  V30 3699 C 336.361 4.31971 1.18764 0
M  V30 3700 C 338.105 3.28121 2.69327 0
M  V30 3701 C 336.012 5.54255 2.06289 0
M  V30 3702 H 334.942 0.636292 0.404535 0
M  V30 3703 H 337.593 1.80459 0.332681 0
M  V30 3704 H 335.975 2.86132 2.7376 0
M  V30 3705 H 337.149 4.5853 0.456849 0
M  V30 3706 H 335.464 4.12481 0.569946 0
M  V30 3707 H 338.061 4.16673 3.35094 0
M  V30 3708 H 338.404 2.45426 3.36261 0
M  V30 3709 H 338.937 3.44762 1.98454 0
M  V30 3710 H 335.676 6.39513 1.43885 0
M  V30 3711 H 335.196 5.31935 2.77138 0
M  V30 3712 H 336.875 5.90159 2.65182 0
M  V30 3713 N 337.007 -0.598083 1.45811 0
M  V30 3714 C 338.232 -1.3881 1.54099 0
M  V30 3715 C 338.657 -1.8726 0.177578 0
M  V30 3716 O 338.015 -1.6069 -0.839541 0
M  V30 3717 C 338.063 -2.56217 2.53743 0
M  V30 3718 O 337.167 -3.5716 2.06182 0
M  V30 3719 H 336.508 -0.414024 0.519115 0
M  V30 3720 H 339.038 -0.726971 1.91249 0
M  V30 3721 H 339.048 -3.03337 2.72856 0
M  V30 3722 H 337.723 -2.20303 3.5276 0
M  V30 3723 H 336.3 -3.16624 1.96987 0
M  V30 3724 N 338.485 -1.33259 -0.841409 0
M  V30 3725 C 339.731 -1.24757 -1.59886 0
M  V30 3726 C 340.064 0.186913 -1.93298 0
M  V30 3727 O 339.339 1.12757 -1.5848 0
M  V30 3728 C 339.622 -2.12036 -2.91055 0
M  V30 3729 C 339.475 -3.63929 -2.6434 0
M  V30 3730 C 340.794 -1.9916 -3.92458 0
M  V30 3731 H 337.913 -0.454542 -0.580138 0
M  V30 3732 H 340.555 -1.63335 -0.970647 0
M  V30 3733 H 338.705 -1.79265 -3.44669 0
M  V30 3734 H 340.377 -4.06978 -2.17178 0
M  V30 3735 H 338.62 -3.85935 -1.98082 0
M  V30 3736 H 339.291 -4.20341 -3.57796 0
M  V30 3737 H 341.767 -2.27895 -3.48143 0
M  V30 3738 H 340.643 -2.62484 -4.82072 0
M  V30 3739 H 340.904 -0.963082 -4.31482 0
M  V30 3740 N 339.963 1.05934 -1.16686 0
M  V30 3741 C 341.212 1.78188 -0.945085 0
M  V30 3742 C 341.525 1.88338 0.528021 0
M  V30 3743 O 342.731 2.57258 0.867799 0
M  V30 3744 C 341.187 3.20277 -1.64167 0
M  V30 3745 C 340.795 3.18281 -3.15279 0
M  V30 3746 C 342.539 3.97039 -1.502 0
M  V30 3747 C 340.446 4.55112 -3.7766 0
M  V30 3748 H 339.376 0.667866 -0.349959 0
M  V30 3749 H 342.027 1.18794 -1.39858 0
M  V30 3750 H 340.409 3.79952 -1.11589 0
M  V30 3751 H 341.583 2.68167 -3.74731 0
M  V30 3752 H 339.898 2.55018 -3.29173 0
M  V30 3753 H 342.495 4.98194 -1.94183 0
M  V30 3754 H 342.838 4.13845 -0.451461 0
M  V30 3755 H 343.371 3.43894 -1.99954 0
M  V30 3756 H 340.11 4.43512 -4.82677 0
M  V30 3757 H 339.63 5.05406 -3.22994 0
M  V30 3758 H 341.309 5.24064 -3.79428 0
M  V30 3759 N 341.441 0.965919 1.2453 0
M  V30 3760 C 342.852 0.665929 1.7442 0
M  V30 3761 C 343.203 -0.818407 1.78316 0
M  V30 3762 O 342.328 -1.64037 1.41141 0
M  V30 3763 C 342.923 1.20211 3.16757 0
M  V30 3764 C 341.482 0.952059 3.6416 0
M  V30 3765 C 340.629 1.33848 2.42858 0
M  V30 3766 H 343.58 1.14144 1.10258 0
M  V30 3767 H 343.601 0.567544 3.76244 0
M  V30 3768 H 343.113 2.28244 3.13889 0
M  V30 3769 H 341.214 -0.112821 3.72429 0
M  V30 3770 H 341.327 1.59645 4.51719 0
M  V30 3771 H 339.691 0.756864 2.43195 0
M  V30 3772 H 340.474 2.42827 2.42673 0
M  V30 3773 N 342.919 -1.39368 0.735821 0
M  V30 3774 C 344.167 -2.00101 0.283562 0
M  V30 3775 C 344.488 -1.5868 -1.13338 0
M  V30 3776 O 343.758 -0.835423 -1.77193 0
M  V30 3777 H 342.338 -0.740024 0.101851 0
M  V30 3778 H 345 -1.70404 0.945962 0
M  V30 3779 H 344.096 -3.10323 0.332604 0
M  V30 3780 N 344.397 -0.483516 -1.5 0
M  V30 3781 C 345.327 0.293829 -2.31644 0
M  V30 3782 C 346.308 0.978864 -1.39112 0
M  V30 3783 O 347.493 0.973644 -1.68029 0
M  V30 3784 C 344.623 1.36897 -3.19181 0
M  V30 3785 C 343.577 0.804833 -4.20365 0
M  V30 3786 C 342.903 1.9792 -4.96721 0
M  V30 3787 C 344.203 -0.192313 -5.21946 0
M  V30 3788 H 345.897 -0.387616 -2.9688 0
M  V30 3789 H 343.443 -0.187856 -1.42769 0
M  V30 3790 H 345.396 1.92037 -3.751 0
M  V30 3791 H 344.12 2.07936 -2.51853 0
M  V30 3792 H 342.779 0.275319 -3.65565 0
M  V30 3793 H 342.427 2.67686 -4.25856 0
M  V30 3794 H 342.127 1.60789 -5.65173 0
M  V30 3795 H 343.651 2.53526 -5.55479 0
M  V30 3796 H 345.065 0.270333 -5.72662 0
M  V30 3797 H 343.462 -0.478543 -5.98189 0
M  V30 3798 H 344.532 -1.11409 -4.71928 0
M  V30 3799 N 345.875 1.56104 -0.216619 0
M  V30 3800 C 346.822 2.2007 0.695531 0
M  V30 3801 C 347.792 1.15471 1.19397 0
M  V30 3802 O 348.977 1.43807 1.25396 0
M  V30 3803 C 346.117 2.88073 1.90021 0
M  V30 3804 C 345.23 4.07253 1.44113 0
M  V30 3805 C 344.365 4.63052 2.603 0
M  V30 3806 C 343.404 5.74545 2.11103 0
M  V30 3807 N 342.541 6.24656 3.20545 0
M  V30 3808 H 347.381 2.97655 0.143327 0
M  V30 3809 H 344.918 1.46982 0.0589934 0
M  V30 3810 H 346.876 3.25681 2.60745 0
M  V30 3811 H 345.506 2.13015 2.42538 0
M  V30 3812 H 344.558 3.75164 0.628999 0
M  V30 3813 H 345.87 4.8783 1.04036 0
M  V30 3814 H 345.024 5.03078 3.39113 0
M  V30 3815 H 343.763 3.81628 3.03663 0
M  V30 3816 H 342.768 5.34027 1.3075 0
M  V30 3817 H 343.993 6.57801 1.68746 0
M  V30 3818 H 341.939 5.46148 3.63399 0
M  V30 3819 H 341.856 7.00343 2.84704 0
M  V30 3820 H 343.124 6.69338 3.99508 0
M  V30 3821 N 347.353 -0.0568162 1.57498 0
M  V30 3822 C 348.581 -0.765626 1.92213 0
M  V30 3823 C 348.996 -1.70353 0.813961 0
M  V30 3824 O 348.353 -1.81268 -0.211701 0
M  V30 3825 C 348.404 -1.5465 3.2675 0
M  V30 3826 O 348.125 -0.646278 4.33307 0
M  V30 3827 C 349.626 -2.35497 3.75574 0
M  V30 3828 H 346.846 -0.216835 0.634999 0
M  V30 3829 H 349.39 -0.0226146 2.04487 0
M  V30 3830 H 347.545 -2.24165 3.15957 0
M  V30 3831 H 347.959 -1.19093 5.108 0
M  V30 3832 H 349.433 -2.85722 4.72299 0
M  V30 3833 H 349.91 -3.15692 3.05344 0
M  V30 3834 H 350.516 -1.7111 3.8936 0
M  V30 3835 N 348.832 -1.54138 -0.328536 0
M  V30 3836 C 350.081 -1.71318 -1.06456 0
M  V30 3837 C 350.394 -0.491109 -1.89334 0
M  V30 3838 O 351.6 -0.54416 -2.65991 0
M  V30 3839 C 350.056 -3.03 -1.94214 0
M  V30 3840 C 349.664 -4.32595 -1.16471 0
M  V30 3841 C 351.408 -3.29544 -2.67583 0
M  V30 3842 C 349.315 -5.55341 -2.03347 0
M  V30 3843 H 348.245 -0.638429 -0.401155 0
M  V30 3844 H 350.896 -1.80633 -0.323106 0
M  V30 3845 H 349.278 -2.87579 -2.72239 0
M  V30 3846 H 350.452 -4.58766 -0.432525 0
M  V30 3847 H 348.767 -4.12777 -0.548063 0
M  V30 3848 H 351.364 -4.18444 -3.3288 0
M  V30 3849 H 351.707 -2.47206 -3.34955 0
M  V30 3850 H 352.24 -3.45809 -1.96623 0
M  V30 3851 H 348.979 -6.40268 -1.40491 0
M  V30 3852 H 348.499 -5.33397 -2.74313 0
M  V30 3853 H 350.178 -5.91557 -2.62049 0
M  V30 3854 N 350.31 0.590341 -1.46126 0
M  V30 3855 C 351.556 1.35082 -1.51264 0
M  V30 3856 C 351.889 1.93534 -0.160711 0
M  V30 3857 O 351.164 1.76045 0.826956 0
M  V30 3858 C 351.447 2.48588 -2.6053 0
M  V30 3859 C 351.3 1.95221 -4.05227 0
M  V30 3860 C 352.619 3.50662 -2.6594 0
M  V30 3861 H 349.738 0.489803 -0.550692 0
M  V30 3862 H 352.38 0.663887 -1.78024 0
M  V30 3863 H 350.53 3.07186 -2.37843 0
M  V30 3864 H 352.202 1.41139 -4.39178 0
M  V30 3865 H 350.445 1.26101 -4.15068 0
M  V30 3866 H 351.116 2.77121 -4.77397 0
M  V30 3867 H 353.592 3.01934 -2.86313 0
M  V30 3868 H 352.468 4.27551 -3.44226 0
M  V30 3869 H 352.729 4.07399 -1.71694 0
M  V30 3870 N 351.788 1.33704 0.83433 0
M  V30 3871 C 353.036 1.25169 1.58673 0
M  V30 3872 C 353.357 -0.18127 1.94156 0
M  V30 3873 O 352.627 -1.11113 1.6134 0
M  V30 3874 H 351.207 0.4603 0.58833 0
M  V30 3875 H 353.869 1.67478 0.996847 0
M  V30 3876 H 352.965 1.84856 2.51465 0
M  V30 3877 N 353.266 -1.05314 1.17247 0
M  V30 3878 C 354.229 -2.112 0.890357 0
M  V30 3879 C 355.229 -1.60359 -0.118943 0
M  V30 3880 O 356.419 -1.73833 0.113086 0
M  V30 3881 C 353.551 -3.39266 0.333422 0
M  V30 3882 H 354.744 -2.37659 1.82916 0
M  V30 3883 H 352.297 -1.21538 0.982758 0
M  V30 3884 H 353.032 -3.18462 -0.612587 0
M  V30 3885 H 352.817 -3.77477 1.06082 0
M  V30 3886 H 354.307 -4.17315 0.154322 0
M  V30 3887 N 354.744 -0.972509 -1.24016 0
M  V30 3888 C 355.674 -0.525548 -2.27509 0
M  V30 3889 C 356.655 0.437262 -1.64384 0
M  V30 3890 O 357.84 0.332343 -1.91335 0
M  V30 3891 C 354.97 0.180448 -3.46831 0
M  V30 3892 C 353.924 -0.698859 -4.22256 0
M  V30 3893 C 353.25 0.138903 -5.3452 0
M  V30 3894 C 354.55 -1.98582 -4.83076 0
M  V30 3895 H 356.244 -1.39058 -2.65148 0
M  V30 3896 H 353.79 -0.67009 -1.27459 0
M  V30 3897 H 355.743 0.504387 -4.18371 0
M  V30 3898 H 354.467 1.07987 -3.08231 0
M  V30 3899 H 353.126 -1.00614 -3.52523 0
M  V30 3900 H 352.774 1.03862 -4.9216 0
M  V30 3901 H 352.474 -0.446259 -5.85903 0
M  V30 3902 H 353.998 0.457404 -6.08884 0
M  V30 3903 H 355.412 -1.72715 -5.46665 0
M  V30 3904 H 353.809 -2.5181 -5.44713 0
M  V30 3905 H 354.879 -2.67769 -4.04262 0
M  V30 3906 N 356.222 1.38976 -0.743202 0
M  V30 3907 C 357.471 1.99581 -0.291592 0
M  V30 3908 C 357.784 1.59656 1.13001 0
M  V30 3909 O 358.99 2.13157 1.68156 0
M  V30 3910 C 357.446 3.56813 -0.470391 0
M  V30 3911 C 357.054 4.05695 -1.90041 0
M  V30 3912 C 358.798 4.24423 -0.0809709 0
M  V30 3913 C 356.705 5.5553 -2.02832 0
M  V30 3914 H 355.635 0.746615 -0.105272 0
M  V30 3915 H 358.286 1.58872 -0.918258 0
M  V30 3916 H 356.668 3.95359 0.225299 0
M  V30 3917 H 357.842 3.78464 -2.62872 0
M  V30 3918 H 356.157 3.50775 -2.24379 0
M  V30 3919 H 358.754 5.34474 -0.155445 0
M  V30 3920 H 359.097 4.04962 0.96497 0
M  V30 3921 H 359.63 3.9108 -0.728124 0
M  V30 3922 H 356.369 5.79881 -3.05643 0
M  V30 3923 H 355.889 5.84537 -1.34448 0
M  V30 3924 H 357.568 6.21069 -1.81335 0
M  V30 3925 N 357.7 0.491464 1.49741 0
M  V30 3926 C 358.632 -0.328609 2.26832 0
M  V30 3927 C 359.645 -0.939113 1.32983 0
M  V30 3928 O 360.834 -0.824067 1.58339 0
M  V30 3929 C 357.934 -1.47675 3.05033 0
M  V30 3930 C 357.107 -0.975305 4.26388 0
M  V30 3931 C 356.166 -1.99991 4.86714 0
M  V30 3932 O 355.192 -1.57229 5.47054 0
M  V30 3933 N 356.394 -3.32962 4.75517 0
M  V30 3934 H 359.159 0.332377 2.97851 0
M  V30 3935 H 356.72 0.323441 1.58636 0
M  V30 3936 H 358.712 -2.15954 3.42266 0
M  V30 3937 H 357.282 -2.04206 2.36683 0
M  V30 3938 H 356.502 -0.117723 3.94024 0
M  V30 3939 H 357.79 -0.618531 5.05026 0
M  V30 3940 H 357.188 -3.70399 4.27576 0
M  V30 3941 H 355.745 -3.96982 5.16961 0
M  V30 3942 N 359.178 -1.55987 0.224894 0
M  V30 3943 C 360.403 -2.03232 -0.41369 0
M  V30 3944 C 360.828 -1.10359 -1.52323 0
M  V30 3945 O 360.186 -0.092395 -1.81064 0
M  V30 3946 C 360.234 -3.48682 -0.919405 0
M  V30 3947 O 359.338 -3.58947 -2.03054 0
M  V30 3948 H 358.679 -0.657428 -0.0931903 0
M  V30 3949 H 361.209 -2.01679 0.34451 0
M  V30 3950 H 361.219 -3.8907 -1.22835 0
M  V30 3951 H 359.894 -4.15761 -0.107339 0
M  V30 3952 H 358.471 -3.30448 -1.72796 0
M  V30 3953 N 360.656 0.0484629 -1.57525 0
M  V30 3954 C 361.902 0.744226 -1.88651 0
M  V30 3955 C 362.235 1.76029 -0.820212 0
M  V30 3956 O 361.51 1.93782 0.166985 0
M  V30 3957 C 361.793 1.43128 -3.30434 0
M  V30 3958 C 361.646 0.43005 -4.47739 0
M  V30 3959 C 362.965 2.37031 -3.70816 0
M  V30 3960 H 360.084 0.269089 -0.68612 0
M  V30 3961 H 362.726 0.00713532 -1.89999 0
M  V30 3962 H 360.876 2.05956 -3.29415 0
M  V30 3963 H 362.548 -0.194816 -4.60888 0
M  V30 3964 H 360.791 -0.252522 -4.33064 0
M  V30 3965 H 361.462 0.948874 -5.43783 0
M  V30 3966 H 363.938 1.84263 -3.73077 0
M  V30 3967 H 362.814 2.82094 -4.70865 0
M  V30 3968 H 363.075 3.22864 -3.02012 0
M  V30 3969 N 362.134 1.5431 0.320358 0
M  V30 3970 C 363.081 1.83918 1.39438 0
M  V30 3971 C 364.051 0.686525 1.51248 0
M  V30 3972 O 365.236 0.933269 1.66417 0
M  V30 3973 C 362.376 2.075 2.75749 0
M  V30 3974 C 361.489 3.35177 2.72544 0
M  V30 3975 C 360.624 3.48704 4.00723 0
M  V30 3976 C 359.663 4.70244 3.91838 0
M  V30 3977 N 358.8 4.80679 5.11754 0
M  V30 3978 H 363.64 2.75544 1.13489 0
M  V30 3979 H 361.177 1.36459 0.549309 0
M  V30 3980 H 363.135 2.19166 3.54996 0
M  V30 3981 H 361.765 1.19163 3 0
M  V30 3982 H 360.817 3.32233 1.85271 0
M  V30 3983 H 362.129 4.24534 2.61863 0
M  V30 3984 H 361.283 3.59928 4.88402 0
M  V30 3985 H 360.022 2.57445 4.14214 0
M  V30 3986 H 359.027 4.59072 3.02544 0
M  V30 3987 H 360.252 5.6289 3.7991 0
M  V30 3988 H 358.198 3.92337 5.25745 0
M  V30 3989 H 358.115 5.64007 5.0342 0
M  V30 3990 H 359.383 4.96239 6.01138 0
M  V30 3991 N 363.613 -0.582584 1.46437 0
M  V30 3992 C 364.56 -1.69164 1.5701 0
M  V30 3993 C 365.53 -1.60847 0.414403 0
M  V30 3994 O 366.715 -1.80058 0.631171 0
M  V30 3995 C 363.855 -3.075 1.56646 0
M  V30 3996 C 362.968 -3.2644 2.82951 0
M  V30 3997 C 362.103 -4.55026 2.7409 0
M  V30 3998 C 361.142 -4.6731 3.95333 0
M  V30 3999 N 360.279 -5.87221 3.84858 0
M  V30 4000 H 365.119 -1.59464 2.51744 0
M  V30 4001 H 362.656 -0.777186 1.24893 0
M  V30 4002 H 364.614 -3.8757 1.5442 0
M  V30 4003 H 363.244 -3.16096 0.654439 0
M  V30 4004 H 362.296 -2.39974 2.95155 0
M  V30 4005 H 363.608 -3.31385 3.72808 0
M  V30 4006 H 362.762 -5.43324 2.6997 0
M  V30 4007 H 361.501 -4.52519 1.81873 0
M  V30 4008 H 360.506 -3.77429 3.99784 0
M  V30 4009 H 361.731 -4.71595 4.88646 0
M  V30 4010 H 359.677 -5.85712 2.95427 0
M  V30 4011 H 359.594 -5.93435 4.6837 0
M  V30 4012 H 360.862 -6.7795 3.84713 0
M  V30 4013 N 365.091 -1.34144 -0.827227 0
M  V30 4014 C 366.021 -1.28005 -1.95287 0
M  V30 4015 C 367.002 -0.158321 -1.69362 0
M  V30 4016 O 368.187 -0.349987 -1.9102 0
M  V30 4017 C 365.317 -1.03036 -3.31664 0
M  V30 4018 C 364.271 -2.11628 -3.72019 0
M  V30 4019 C 363.597 -1.71854 -5.0633 0
M  V30 4020 C 364.897 -3.53417 -3.8457 0
M  V30 4021 H 366.591 -2.22187 -2.00682 0
M  V30 4022 H 364.137 -1.0696 -0.964135 0
M  V30 4023 H 366.09 -0.973863 -4.09993 0
M  V30 4024 H 364.814 -0.0529391 -3.26557 0
M  V30 4025 H 363.473 -2.16339 -2.95961 0
M  V30 4026 H 363.121 -0.727841 -4.97706 0
M  V30 4027 H 362.821 -2.44531 -5.34302 0
M  V30 4028 H 364.345 -1.67692 -5.87122 0
M  V30 4029 H 365.759 -3.51142 -4.5318 0
M  V30 4030 H 364.156 -4.24679 -4.2399 0
M  V30 4031 H 365.226 -3.91072 -2.86689 0
M  V30 4032 N 366.569 1.04691 -1.17803 0
M  V30 4033 C 367.794 1.81984 -0.994813 0
M  V30 4034 C 368.219 1.82586 0.452112 0
M  V30 4035 O 367.577 1.23854 1.324 0
M  V30 4036 C 367.625 3.2575 -1.54659 0
M  V30 4037 O 366.729 4.05267 -0.763728 0
M  V30 4038 H 366.07 0.562483 -0.352857 0
M  V30 4039 H 368.6 1.3189 -1.56417 0
M  V30 4040 H 368.61 3.76541 -1.57102 0
M  V30 4041 H 367.285 3.24627 -2.59981 0
M  V30 4042 H 365.862 3.63972 -0.811108 0
M  V30 4043 N 368.047 0.979072 1.23499 0
M  V30 4044 C 369.324 0.563674 1.87302 0
M  V30 4045 C 369.704 -0.959199 1.88049 0
M  V30 4046 O 369.052 -1.83535 1.36114 0
M  V30 4047 C 369.262 1.16822 3.28867 0
M  V30 4048 C 370.61 1.26014 4.0547 0
M  V30 4049 O 371.634 1.12158 3.38082 0
M  V30 4050 O 370.493 1.48044 5.26066 0
M  V30 4051 H 367.587 0.189602 0.804972 0
M  V30 4052 H 370.133 1.07407 1.31384 0
M  V30 4053 H 368.905 2.21049 3.22883 0
M  V30 4054 H 368.528 0.642564 3.92373 0
M  V30 4055 N 369.525 -1.3858 0.750561 0
M  V30 4056 C 370.771 -2.00481 0.305825 0
M  V30 4057 C 371.104 -1.5944 -1.10872 0
M  V30 4058 O 370.379 -0.83052 -1.75877 0
M  V30 4059 C 370.662 -3.5758 0.425287 0
M  V30 4060 C 370.515 -4.08594 1.88072 0
M  V30 4061 C 371.834 -4.39719 -0.183122 0
M  V30 4062 H 368.953 -0.728348 0.112598 0
M  V30 4063 H 371.595 -1.64566 0.949638 0
M  V30 4064 H 369.745 -3.88306 -0.122828 0
M  V30 4065 H 371.417 -3.88523 2.48691 0
M  V30 4066 H 369.66 -3.61574 2.39681 0
M  V30 4067 H 370.331 -5.177 1.91548 0
M  V30 4068 H 372.807 -4.15128 0.284303 0
M  V30 4069 H 371.683 -5.48856 -0.0692757 0
M  V30 4070 H 371.944 -4.23434 -1.27106 0
M  V30 4071 N 371.003 -0.499398 -1.49478 0
M  V30 4072 C 371.936 0.326491 -2.25852 0
M  V30 4073 C 372.914 0.971776 -1.30366 0
M  V30 4074 O 374.098 1.00219 -1.59651 0
M  V30 4075 C 371.225 1.45969 -3.05632 0
M  V30 4076 C 370.271 0.928938 -4.16261 0
M  V30 4077 S 371.104 -0.179012 -5.35201 0
M  V30 4078 C 372.26 0.957389 -6.18534 0
M  V30 4079 H 372.493 -0.321746 -2.95554 0
M  V30 4080 H 370.026 -0.284674 -1.51753 0
M  V30 4081 H 371.984 2.109 -3.52181 0
M  V30 4082 H 370.645 2.07953 -2.35402 0
M  V30 4083 H 369.838 1.77813 -4.71592 0
M  V30 4084 H 369.44 0.356869 -3.72293 0
M  V30 4085 H 371.732 1.86296 -6.51383 0
M  V30 4086 H 372.675 0.442733 -7.06715 0
M  V30 4087 H 373.083 1.224 -5.5107 0
M  V30 4088 N 372.481 1.55866 -0.233164 0
M  V30 4089 C 373.73 1.97779 0.39579 0
M  V30 4090 C 374.043 1.12419 1.60066 0
M  V30 4091 O 375.249 1.44283 2.29988 0
M  V30 4092 C 373.705 3.5188 0.755556 0
M  V30 4093 C 373.313 4.45959 -0.427152 0
M  V30 4094 C 375.057 4.02479 1.34946 0
M  V30 4095 C 372.964 5.91383 -0.0443043 0
M  V30 4096 H 371.894 0.738592 0.15165 0
M  V30 4097 H 374.545 1.80486 -0.331212 0
M  V30 4098 H 372.927 3.64816 1.5403 0
M  V30 4099 H 374.101 4.44776 -1.20462 0
M  V30 4100 H 372.416 4.05765 -0.935068 0
M  V30 4101 H 375.013 5.08637 1.649 0
M  V30 4102 H 375.356 3.49014 2.26925 0
M  V30 4103 H 375.889 3.92813 0.62791 0
M  V30 4104 H 372.628 6.48857 -0.930874 0
M  V30 4105 H 372.148 5.95734 0.697238 0
M  V30 4106 H 373.827 6.45893 0.378334 0
M  V30 4107 N 373.959 -0.0401083 1.57549 0
M  V30 4108 C 374.889 -1.04384 2.08869 0
M  V30 4109 C 375.87 -1.38407 0.988817 0
M  V30 4110 O 377.055 -1.47483 1.26342 0
M  V30 4111 C 374.185 -2.34808 2.55895 0
M  V30 4112 C 373.139 -2.15057 3.70047 0
M  V30 4113 C 372.465 -3.51145 4.03239 0
M  V30 4114 C 373.765 -1.54576 4.98902 0
M  V30 4115 H 375.459 -0.616666 2.92981 0
M  V30 4116 H 373.005 -0.295184 1.40942 0
M  V30 4117 H 374.958 -3.05346 2.90417 0
M  V30 4118 H 373.682 -2.79565 1.68853 0
M  V30 4119 H 372.341 -1.46954 3.35857 0
M  V30 4120 H 371.989 -3.93529 3.13279 0
M  V30 4121 H 371.689 -3.38758 4.80122 0
M  V30 4122 H 373.213 -4.23062 4.40285 0
M  V30 4123 H 374.627 -2.15017 5.31451 0
M  V30 4124 H 373.024 -1.52796 5.80322 0
M  V30 4125 H 374.094 -0.51039 4.82206 0
M  V30 4126 N 375.437 -1.54477 -0.31217 0
M  V30 4127 C 376.665 -1.77205 -1.068 0
M  V30 4128 C 377.08 -0.526114 -1.81321 0
M  V30 4129 O 376.437 0.503647 -1.75413 0
M  V30 4130 C 376.488 -2.97253 -2.05725 0
M  V30 4131 O 376.209 -4.1703 -1.34228 0
M  V30 4132 C 377.71 -3.32281 -2.93435 0
M  V30 4133 H 374.93 -0.591287 -0.317208 0
M  V30 4134 H 377.474 -2.01398 -0.354834 0
M  V30 4135 H 375.629 -2.753 -2.72559 0
M  V30 4136 H 376.043 -4.84636 -2.00571 0
M  V30 4137 H 377.517 -4.19551 -3.58721 0
M  V30 4138 H 377.994 -2.49945 -3.61143 0
M  V30 4139 H 378.6 -3.56353 -2.32147 0
M  V30 4140 N 376.915 0.57481 -1.46744 0
M  V30 4141 C 378.161 1.3347 -1.52688 0
M  V30 4142 C 378.494 1.93353 -0.181229 0
M  V30 4143 O 377.769 1.76912 0.808237 0
M  V30 4144 C 378.052 2.45811 -2.63152 0
M  V30 4145 C 377.905 1.90912 -4.07275 0
M  V30 4146 C 379.224 3.47822 -2.69644 0
M  V30 4147 H 376.343 0.483935 -0.555856 0
M  V30 4148 H 378.985 0.644968 -1.78718 0
M  V30 4149 H 377.135 3.04646 -2.41088 0
M  V30 4150 H 378.807 1.36473 -4.4065 0
M  V30 4151 H 377.05 1.21691 -4.16382 0
M  V30 4152 H 377.721 2.72042 -4.80309 0
M  V30 4153 H 380.197 2.9888 -2.895 0
M  V30 4154 H 379.073 4.23876 -3.48742 0
M  V30 4155 H 379.334 4.05555 -1.76005 0
M  V30 4156 N 378.394 1.34581 0.820102 0
M  V30 4157 C 379.641 1.27096 1.57648 0
M  V30 4158 C 379.969 -0.158317 1.93855 0
M  V30 4159 O 379.224 -1.12028 1.60463 0
M  V30 4160 C 379.523 2.10997 2.8847 0
M  V30 4161 C 379.189 3.59966 2.71543 0
M  V30 4162 C 377.851 4.00575 2.66634 0
M  V30 4163 C 380.203 4.54548 2.55021 0
M  V30 4164 C 377.531 5.33953 2.43128 0
M  V30 4165 C 379.883 5.88109 2.33047 0
M  V30 4166 C 378.547 6.27878 2.26552 0
M  V30 4167 H 377.817 0.465078 0.576874 0
M  V30 4168 H 380.464 1.6635 0.948671 0
M  V30 4169 H 378.769 1.6458 3.55557 0
M  V30 4170 H 380.466 2.0255 3.46084 0
M  V30 4171 H 377.056 3.27733 2.76205 0
M  V30 4172 H 381.24 4.24069 2.57835 0
M  V30 4173 H 376.496 5.63781 2.3656 0
M  V30 4174 H 380.67 6.60985 2.19251 0
M  V30 4175 H 378.297 7.31162 2.081 0
M  V30 4176 N 379.872 -1.04064 1.18357 0
M  V30 4177 C 381.112 -1.78829 0.989921 0
M  V30 4178 C 381.476 -1.86106 -0.472095 0
M  V30 4179 O 382.677 -2.57076 -0.785187 0
M  V30 4180 C 380.948 -3.1823 1.6268 0
M  V30 4181 S 382.507 -4.09332 1.58091 0
M  V30 4182 H 379.325 -0.615754 0.355482 0
M  V30 4183 H 381.927 -1.24778 1.50501 0
M  V30 4184 H 380.631 -3.10543 2.68311 0
M  V30 4185 H 380.162 -3.77357 1.112 0
M  V30 4186 H 382.177 -4.92598 0.596817 0
M  V30 4187 N 381.35 -0.985608 -1.22978 0
M  V30 4188 C 382.28 -0.549649 -2.26939 0
M  V30 4189 C 383.261 0.419803 -1.64838 0
M  V30 4190 O 384.446 0.31203 -1.91677 0
M  V30 4191 C 381.576 0.143652 -3.47003 0
M  V30 4192 C 380.53 -0.743606 -4.21491 0
M  V30 4193 C 379.856 0.0822027 -5.34637 0
M  V30 4194 C 381.156 -2.03694 -4.80943 0
M  V30 4195 H 382.85 -1.41862 -2.63658 0
M  V30 4196 H 380.396 -0.683571 -1.26741 0
M  V30 4197 H 382.349 0.459985 -4.18882 0
M  V30 4198 H 381.073 1.04711 -3.09359 0
M  V30 4199 H 379.732 -1.04347 -3.51436 0
M  V30 4200 H 379.38 0.986359 -4.93234 0
M  V30 4201 H 379.08 -0.508377 -5.85397 0
M  V30 4202 H 380.604 0.392797 -6.09335 0
M  V30 4203 H 382.018 -1.78504 -5.44802 0
M  V30 4204 H 380.415 -2.57573 -5.42011 0
M  V30 4205 H 381.485 -2.72042 -4.01399 0
M  V30 4206 N 382.828 1.3818 -0.7579 0
M  V30 4207 C 384.053 2.04827 -0.325679 0
M  V30 4208 C 384.478 1.56788 1.03919 0
M  V30 4209 O 383.836 0.721811 1.66312 0
M  V30 4210 C 383.884 3.58774 -0.362447 0
M  V30 4211 O 382.988 4.07372 0.642033 0
M  V30 4212 H 382.329 0.64833 -0.143402 0
M  V30 4213 H 384.859 1.7677 -1.03023 0
M  V30 4214 H 384.869 4.07434 -0.214844 0
M  V30 4215 H 383.544 3.93096 -1.35824 0
M  V30 4216 H 382.121 3.70068 0.458688 0
M  V30 4217 N 384.306 0.507319 1.49211 0
M  V30 4218 C 385.552 -0.0350047 2.0277 0
M  V30 4219 C 385.885 -1.3606 1.38569 0
M  V30 4220 O 385.16 -1.87321 0.523542 0
M  V30 4221 C 385.443 -0.180916 3.59645 0
M  V30 4222 C 385.296 1.16825 4.34364 0
M  V30 4223 C 386.615 -0.918558 4.30407 0
M  V30 4224 H 383.734 -0.0112473 0.736914 0
M  V30 4225 H 386.376 0.659956 1.7817 0
M  V30 4226 H 384.526 -0.772826 3.80736 0
M  V30 4227 H 386.198 1.79952 4.24753 0
M  V30 4228 H 384.441 1.75594 3.96673 0
M  V30 4229 H 385.112 1.01939 5.42506 0
M  V30 4230 H 387.588 -0.41649 4.1401 0
M  V30 4231 H 386.464 -0.989505 5.39907 0
M  V30 4232 H 386.725 -1.96373 3.96093 0
M  V30 4233 N 385.784 -1.5574 0.241426 0
M  V30 4234 C 387.031 -1.9881 -0.384836 0
M  V30 4235 C 387.359 -1.12947 -1.58346 0
M  V30 4236 O 386.614 -0.178993 -1.9488 0
M  V30 4237 C 386.913 -3.47308 -0.843317 0
M  V30 4238 C 386.579 -4.50223 0.246946 0
M  V30 4239 C 385.241 -4.78088 0.546399 0
M  V30 4240 C 387.593 -5.11841 0.983282 0
M  V30 4241 C 384.921 -5.64846 1.58636 0
M  V30 4242 C 387.273 -5.99727 2.01272 0
M  V30 4243 C 385.937 -6.25927 2.31888 0
M  V30 4244 H 385.207 -0.727496 -0.140821 0
M  V30 4245 H 387.854 -1.8831 0.348106 0
M  V30 4246 H 386.159 -3.55112 -1.65537 0
M  V30 4247 H 387.856 -3.78017 -1.33806 0
M  V30 4248 H 384.446 -4.286 0.00340639 0
M  V30 4249 H 388.63 -4.90366 0.765182 0
M  V30 4250 H 383.886 -5.83403 1.82896 0
M  V30 4251 H 388.06 -6.46517 2.58823 0
M  V30 4252 H 385.687 -6.92949 3.12611 0
M  V30 4253 N 387.262 0.0317525 -1.57568 0
M  V30 4254 C 388.225 1.01783 -2.0536 0
M  V30 4255 C 389.225 1.29203 -0.957253 0
M  V30 4256 O 390.415 1.24251 -1.22095 0
M  V30 4257 C 387.547 2.35137 -2.46827 0
M  V30 4258 H 388.74 0.605062 -2.93733 0
M  V30 4259 H 386.293 0.278514 -1.53799 0
M  V30 4260 H 387.028 2.81168 -1.61602 0
M  V30 4261 H 386.813 2.16566 -3.26866 0
M  V30 4262 H 388.303 3.05938 -2.84239 0
M  V30 4263 N 388.74 1.54641 0.303973 0
M  V30 4264 C 389.67 1.88386 1.3796 0
M  V30 4265 C 390.651 0.742485 1.5304 0
M  V30 4266 O 391.836 0.997959 1.66597 0
M  V30 4267 C 388.966 2.12854 2.74427 0
M  V30 4268 C 387.92 3.28702 2.74115 0
M  V30 4269 C 387.246 3.38582 4.13844 0
M  V30 4270 C 388.546 4.65881 2.3612 0
M  V30 4271 H 390.24 2.78474 1.09966 0
M  V30 4272 H 387.786 1.33988 0.527556 0
M  V30 4273 H 389.739 2.35047 3.49758 0
M  V30 4274 H 388.463 1.19535 3.03939 0
M  V30 4275 H 387.122 3.06428 2.0124 0
M  V30 4276 H 386.77 2.42784 4.40528 0
M  V30 4277 H 386.47 4.16453 4.14537 0
M  V30 4278 H 387.994 3.63031 4.90959 0
M  V30 4279 H 389.408 4.87823 3.01167 0
M  V30 4280 H 387.805 5.46444 2.48031 0
M  V30 4281 H 388.875 4.66799 1.3125 0
M  V30 4282 N 390.218 -0.567019 1.47046 0
M  V30 4283 C 391.467 -1.32091 1.5243 0
M  V30 4284 C 391.78 -1.94704 0.187021 0
M  V30 4285 O 392.986 -2.7124 0.118771 0
M  V30 4286 C 391.442 -2.39479 2.68659 0
M  V30 4287 C 391.05 -1.831 4.08874 0
M  V30 4288 C 392.794 -3.16111 2.83327 0
M  V30 4289 C 390.701 -2.8821 5.16419 0
M  V30 4290 H 389.631 -0.496629 0.56734 0
M  V30 4291 H 392.282 -0.603354 1.73297 0
M  V30 4292 H 390.664 -3.14105 2.41152 0
M  V30 4293 H 391.838 -1.14913 4.46242 0
M  V30 4294 H 390.153 -1.19085 3.99008 0
M  V30 4295 H 392.75 -3.94585 3.60842 0
M  V30 4296 H 393.093 -3.69686 1.91411 0
M  V30 4297 H 393.626 -2.48595 3.10556 0
M  V30 4298 H 390.365 -2.39504 6.10179 0
M  V30 4299 H 389.885 -3.54839 4.8358 0
M  V30 4300 H 391.564 -3.51881 5.42945 0
M  V30 4301 N 391.696 -1.35014 -0.812953 0
M  V30 4302 C 392.944 -1.27678 -1.56661 0
M  V30 4303 C 393.265 0.150359 -1.94419 0
M  V30 4304 O 392.535 1.08532 -1.63088 0
M  V30 4305 H 391.115 -0.469602 -0.580933 0
M  V30 4306 H 393.777 -1.69043 -0.970076 0
M  V30 4307 H 392.873 -1.88833 -2.48492 0
M  V30 4308 N 393.175 1.03435 -1.18907 0
M  V30 4309 C 394.105 2.13503 -0.945448 0
M  V30 4310 C 395.086 1.69682 0.119189 0
M  V30 4311 O 396.271 1.94169 -0.034707 0
M  V30 4312 C 393.401 3.44004 -0.477316 0
M  V30 4313 C 392.355 4.0148 -1.48316 0
M  V30 4314 C 391.681 5.27537 -0.872311 0
M  V30 4315 C 392.981 4.36921 -2.86177 0
M  V30 4316 H 394.675 2.34141 -1.86597 0
M  V30 4317 H 392.221 1.12523 -0.898584 0
M  V30 4318 H 394.174 4.20372 -0.294204 0
M  V30 4319 H 392.898 3.23072 0.478786 0
M  V30 4320 H 391.557 3.27201 -1.65332 0
M  V30 4321 H 391.205 5.02917 0.0911752 0
M  V30 4322 H 390.905 5.66954 -1.54393 0
M  V30 4323 H 392.429 6.06576 -0.699871 0
M  V30 4324 H 393.843 5.04248 -2.72776 0
M  V30 4325 H 392.24 4.87405 -3.50081 0
M  V30 4326 H 393.31 3.46466 -3.39248 0
M  V30 4327 N 394.653 0.992116 1.22453 0
M  V30 4328 C 395.585 0.500024 2.23679 0
M  V30 4329 C 396.598 -0.404463 1.57696 0
M  V30 4330 O 397.787 -0.206722 1.77299 0
M  V30 4331 C 394.887 -0.294711 3.37616 0
M  V30 4332 C 394.06 0.605723 4.33186 0
M  V30 4333 C 393.119 -0.13717 5.26021 0
M  V30 4334 O 392.145 0.477164 5.67196 0
M  V30 4335 N 393.347 -1.4197 5.62872 0
M  V30 4336 H 396.112 1.37045 2.66531 0
M  V30 4337 H 393.673 0.866741 1.36745 0
M  V30 4338 H 395.665 -0.800329 3.96707 0
M  V30 4339 H 394.235 -1.06623 2.93854 0
M  V30 4340 H 393.455 1.29202 3.72425 0
M  V30 4341 H 394.743 1.21896 4.93983 0
M  V30 4342 H 394.141 -1.94015 5.31389 0
M  V30 4343 H 392.698 -1.87052 6.24383 0
M  V30 4344 N 396.131 -1.37776 0.765217 0
M  V30 4345 C 397.061 -2.32945 0.160953 0
M  V30 4346 C 398.042 -1.55454 -0.690516 0
M  V30 4347 O 399.227 -1.83721 -0.629318 0
M  V30 4348 C 396.357 -3.39669 -0.724031 0
M  V30 4349 C 395.311 -4.27992 0.0256173 0
M  V30 4350 C 394.637 -5.25673 -0.978383 0
M  V30 4351 C 395.937 -5.08309 1.20082 0
M  V30 4352 H 397.631 -2.83728 0.955969 0
M  V30 4353 H 395.177 -1.36416 0.461149 0
M  V30 4354 H 397.13 -4.05219 -1.15652 0
M  V30 4355 H 395.854 -2.87396 -1.5515 0
M  V30 4356 H 394.513 -3.63964 0.438812 0
M  V30 4357 H 394.161 -4.69682 -1.80022 0
M  V30 4358 H 393.861 -5.85625 -0.481378 0
M  V30 4359 H 395.385 -5.94098 -1.40995 0
M  V30 4360 H 396.799 -5.67034 0.845307 0
M  V30 4361 H 395.196 -5.77554 1.62947 0
M  V30 4362 H 396.266 -4.41365 2.00811 0
M  V30 4363 N 397.609 -0.515225 -1.4894 0
M  V30 4364 C 398.856 0.024215 -2.02486 0
M  V30 4365 C 399.184 1.35671 -1.39368 0
M  V30 4366 O 398.439 1.88566 -0.523574 0
M  V30 4367 C 398.738 0.210595 -3.56779 0
M  V30 4368 C 398.404 -1.04569 -4.38607 0
M  V30 4369 C 397.066 -1.39002 -4.60686 0
M  V30 4370 C 399.418 -1.88008 -4.86109 0
M  V30 4371 C 396.746 -2.568 -5.27514 0
M  V30 4372 C 399.098 -3.04972 -5.54234 0
M  V30 4373 C 397.762 -3.39768 -5.74555 0
M  V30 4374 H 397.032 0.00886088 -0.740947 0
M  V30 4375 H 399.679 -0.678263 -1.79086 0
M  V30 4376 H 397.984 0.99572 -3.78936 0
M  V30 4377 H 399.681 0.642659 -3.95817 0
M  V30 4378 H 396.271 -0.767497 -4.21672 0
M  V30 4379 H 400.455 -1.62719 -4.68867 0
M  V30 4380 H 395.711 -2.8398 -5.41447 0
M  V30 4381 H 399.885 -3.69943 -5.90013 0
M  V30 4382 H 397.512 -4.31148 -6.26112 0
M  V30 4383 N 399.087 1.5561 -0.249682 0
M  V30 4384 C 400.02 2.17537 0.689408 0
M  V30 4385 C 400.998 1.12829 1.17083 0
M  V30 4386 O 402.182 1.41229 1.24846 0
M  V30 4387 C 399.309 2.77828 1.93725 0
M  V30 4388 C 398.355 3.95615 1.59346 0
M  V30 4389 S 399.188 5.30988 0.69367 0
M  V30 4390 C 400.344 5.94734 1.95046 0
M  V30 4391 H 400.577 2.96852 0.163142 0
M  V30 4392 H 398.11 1.54362 -0.0341166 0
M  V30 4393 H 400.068 3.13199 2.65361 0
M  V30 4394 H 398.729 1.98454 2.43465 0
M  V30 4395 H 397.922 4.364 2.52132 0
M  V30 4396 H 397.524 3.61535 0.957512 0
M  V30 4397 H 399.816 6.12419 2.89739 0
M  V30 4398 H 400.759 6.90109 1.58604 0
M  V30 4399 H 401.167 5.23832 2.10381 0
M  V30 4400 N 400.565 -0.0233959 1.57583 0
M  V30 4401 C 401.813 -0.711654 1.89156 0
M  V30 4402 C 402.134 -1.75591 0.848096 0
M  V30 4403 O 401.404 -1.95547 -0.117566 0
M  V30 4404 H 399.984 -0.265835 0.698098 0
M  V30 4405 H 402.646 0.0119948 1.94896 0
M  V30 4406 H 401.742 -1.19766 2.88206 0
M  V30 4407 N 402.043 -1.548 -0.295768 0
M  V30 4408 C 402.991 -1.86874 -1.38495 0
M  V30 4409 C 403.985 -0.742938 -1.52239 0
M  V30 4410 O 405.191 -0.926999 -1.54294 0
M  V30 4411 H 401.566 -0.592786 -0.462719 0
M  V30 4412 H 403.537 -2.77904 -1.08682 0
M  V30 4413 C 402.286 -2.13732 -2.74252 0
M  V30 4414 H 401.609 -2.99835 -2.64459 0
M  V30 4415 H 403.049 -2.4011 -3.49461 0
M  V30 4416 C 401.508 -0.937539 -3.23592 0
M  V30 4417 O 402.038 -0.160665 -4.01379 0
M  V30 4418 N 400.244 -0.741478 -2.80981 0
M  V30 4419 H 399.791 -1.37489 -2.1784 0
M  V30 4420 H 399.749 0.0597103 -3.14343 0
M  V30 4421 N 403.521 0.559213 -1.47345 0
M  V30 4422 C 404.451 1.67622 -1.62558 0
M  V30 4423 C 405.432 1.63331 -0.475087 0
M  V30 4424 O 406.617 1.80983 -0.704182 0
M  V30 4425 C 403.747 3.0626 -1.63774 0
M  V30 4426 C 402.701 3.25397 -2.7803 0
M  V30 4427 C 402.027 4.64801 -2.64318 0
M  V30 4428 C 403.327 3.10965 -4.19641 0
M  V30 4429 H 405.021 1.55146 -2.56067 0
M  V30 4430 H 402.567 0.744961 -1.23233 0
M  V30 4431 H 404.52 3.84247 -1.73008 0
M  V30 4432 H 403.244 3.1969 -0.66825 0
M  V30 4433 H 401.903 2.49817 -2.68304 0
M  V30 4434 H 401.551 4.75028 -1.65401 0
M  V30 4435 H 401.251 4.78555 -3.40968 0
M  V30 4436 H 402.775 5.44926 -2.75478 0
M  V30 4437 H 404.189 3.78772 -4.30354 0
M  V30 4438 H 402.586 3.36229 -4.97062 0
M  V30 4439 H 403.656 2.07736 -4.38148 0
M  V30 4440 N 404.999 1.35443 0.805782 0
M  V30 4441 C 406.415 1.15499 1.10146 0
M  V30 4442 C 406.615 -0.0319975 2.01475 0
M  V30 4443 O 405.671 -0.70236 2.42535 0
M  V30 4444 C 406.984 2.45833 1.73166 0
M  V30 4445 C 408.532 2.52047 1.85583 0
M  V30 4446 C 409.007 3.82427 2.52019 0
M  V30 4447 N 410.498 3.83682 2.59504 0
M  V30 4448 C 411.233 4.81294 3.11679 0
M  V30 4449 N 410.729 5.89294 3.64287 0
M  V30 4450 N 412.522 4.6873 3.1024 0
M  V30 4451 H 404.673 2.11469 0.198678 0
M  V30 4452 H 406.936 0.93594 0.150731 0
M  V30 4453 H 406.642 3.32874 1.13526 0
M  V30 4454 H 406.516 2.6044 2.72857 0
M  V30 4455 H 408.903 1.65435 2.44367 0
M  V30 4456 H 408.984 2.41354 0.847455 0
M  V30 4457 H 408.628 4.69437 1.93885 0
M  V30 4458 H 408.558 3.90409 3.53395 0
M  V30 4459 H 411.049 3.05648 2.22234 0
M  V30 4460 H 411.362 6.59768 4.02401 0
M  V30 4461 H 409.707 5.92985 3.62483 0
M  V30 4462 H 412.898 3.83496 2.68419 0
M  V30 4463 H 413.071 5.44965 3.50596 0
M  V30 4464 N 406.477 -1.02803 1.19454 0
M  V30 4465 C 407.425 -2.13213 0.929673 0
M  V30 4466 C 408.419 -1.69011 -0.114806 0
M  V30 4467 O 409.625 -1.79967 0.0345147 0
M  V30 4468 H 406 -0.69662 0.28324 0
M  V30 4469 H 407.971 -2.32744 1.86743 0
M  V30 4470 C 406.72 -3.4429 0.485797 0
M  V30 4471 H 406.043 -3.7872 1.28105 0
M  V30 4472 H 407.483 -4.22638 0.339582 0
M  V30 4473 C 405.942 -3.27258 -0.800244 0
M  V30 4474 O 406.472 -3.55967 -1.86146 0
M  V30 4475 N 404.678 -2.80545 -0.75781 0
M  V30 4476 H 404.225 -2.57382 0.106039 0
M  V30 4477 H 404.183 -2.6953 -1.61867 0
M  V30 4478 N 407.956 -0.998596 -1.21925 0
M  V30 4479 C 408.903 -0.553621 -2.24062 0
M  V30 4480 C 409.873 0.416999 -1.6078 0
M  V30 4481 O 411.058 0.320482 -1.88089 0
M  V30 4482 C 408.198 0.119959 -3.44891 0
M  V30 4483 C 407.311 -0.893077 -4.22668 0
M  V30 4484 C 406.446 -0.192424 -5.30851 0
M  V30 4485 C 405.485 -1.19344 -6.00353 0
M  V30 4486 N 404.622 -0.520707 -7.00166 0
M  V30 4487 H 409.462 -1.4293 -2.61486 0
M  V30 4488 H 406.999 -0.715838 -1.28507 0
M  V30 4489 H 408.957 0.527459 -4.13852 0
M  V30 4490 H 407.587 0.959389 -3.08214 0
M  V30 4491 H 406.639 -1.41886 -3.52948 0
M  V30 4492 H 407.951 -1.65512 -4.70539 0
M  V30 4493 H 407.105 0.271515 -6.06092 0
M  V30 4494 H 405.844 0.602075 -4.83969 0
M  V30 4495 H 404.849 -1.66795 -5.23889 0
M  V30 4496 H 406.074 -1.98891 -6.49322 0
M  V30 4497 H 404.02 0.254252 -6.55507 0
M  V30 4498 H 403.937 -1.2211 -7.46073 0
M  V30 4499 H 405.205 -0.0797596 -7.79459 0
M  V30 4500 N 409.434 1.37368 -0.772513 0
M  V30 4501 C 410.674 2.01512 -0.342361 0
M  V30 4502 C 411.038 1.59997 1.06136 0
M  V30 4503 O 412.239 2.16609 1.59167 0
M  V30 4504 C 410.51 3.54134 -0.482048 0
M  V30 4505 S 412.069 4.38585 -0.137272 0
M  V30 4506 H 408.887 0.698699 -0.131686 0
M  V30 4507 H 411.489 1.67552 -1.0073 0
M  V30 4508 H 410.193 3.81837 -1.50428 0
M  V30 4509 H 409.724 3.92894 0.199413 0
M  V30 4510 H 411.739 4.84594 1.06692 0
M  V30 4511 N 410.912 0.523116 1.48665 0
M  V30 4512 C 411.842 -0.23231 2.32342 0
M  V30 4513 C 412.823 -0.941637 1.41659 0
M  V30 4514 O 414.008 -0.928751 1.70552 0
M  V30 4515 C 411.138 -1.28387 3.22698 0
M  V30 4516 C 410.092 -0.693098 4.22351 0
M  V30 4517 C 409.418 -1.8468 5.01794 0
M  V30 4518 C 410.718 0.33063 5.21252 0
M  V30 4519 H 412.412 0.466192 2.95748 0
M  V30 4520 H 409.958 0.225643 1.42221 0
M  V30 4521 H 411.911 -1.82024 3.80059 0
M  V30 4522 H 410.635 -2.01186 2.57278 0
M  V30 4523 H 409.294 -0.178299 3.66166 0
M  V30 4524 H 408.942 -2.56301 4.32804 0
M  V30 4525 H 408.642 -1.45747 5.69238 0
M  V30 4526 H 410.166 -2.38709 5.62006 0
M  V30 4527 H 411.58 -0.118407 5.73178 0
M  V30 4528 H 409.977 0.636974 5.9671 0
M  V30 4529 H 411.047 1.23883 4.68808 0
M  V30 4530 N 412.39 -1.55475 0.257931 0
M  V30 4531 C 413.322 -2.19192 -0.669881 0
M  V30 4532 C 414.335 -1.17148 -1.1305 0
M  V30 4533 O 415.524 -1.43959 -1.05537 0
M  V30 4534 C 412.624 -2.79016 -1.92363 0
M  V30 4535 C 411.797 -4.06586 -1.61265 0
M  V30 4536 C 410.856 -4.50622 -2.7171 0
M  V30 4537 O 409.882 -5.16765 -2.38627 0
M  V30 4538 N 411.084 -4.19325 -4.01431 0
M  V30 4539 H 413.849 -2.99441 -0.124635 0
M  V30 4540 H 411.41 -1.6171 0.0783311 0
M  V30 4541 H 413.402 -3.05427 -2.65511 0
M  V30 4542 H 411.972 -2.0286 -2.37837 0
M  V30 4543 H 411.192 -3.87646 -0.715811 0
M  V30 4544 H 412.48 -4.89737 -1.37967 0
M  V30 4545 H 411.878 -3.66247 -4.31138 0
M  V30 4546 H 410.435 -4.50547 -4.7101 0
M  V30 4547 N 413.868 0.0150385 -1.57593 0
M  V30 4548 C 415.114 0.69849 -1.91031 0
M  V30 4549 C 415.469 1.72208 -0.85804 0
M  V30 4550 O 414.762 1.91147 0.131614 0
M  V30 4551 C 414.956 1.39686 -3.28972 0
M  V30 4552 C 414.785 0.442428 -4.47518 0
M  V30 4553 C 413.555 0.0583223 -5.05266 0
M  V30 4554 C 415.753 -0.285072 -5.13509 0
M  V30 4555 N 413.735 -0.895893 -6.07328 0
M  V30 4556 C 415.106 -1.09447 -6.10263 0
M  V30 4557 C 417.161 -0.350518 -4.96665 0
M  V30 4558 C 415.864 -1.96333 -6.91987 0
M  V30 4559 C 417.89 -1.20655 -5.78962 0
M  V30 4560 C 417.252 -2.00383 -6.75297 0
M  V30 4561 H 413.351 0.22926 -0.747639 0
M  V30 4562 H 415.935 -0.0417748 -1.94655 0
M  V30 4563 H 414.106 2.1075 -3.2625 0
M  V30 4564 H 415.838 2.03381 -3.49883 0
M  V30 4565 H 412.593 0.423506 -4.71703 0
M  V30 4566 H 413.017 -1.36792 -6.63036 0
M  V30 4567 H 417.659 0.251596 -4.22051 0
M  V30 4568 H 415.377 -2.57618 -7.65936 0
M  V30 4569 H 418.963 -1.2609 -5.67972 0
M  V30 4570 H 417.843 -2.65552 -7.3787 0
M  V30 4571 N 415.346 1.54954 0.287554 0
M  V30 4572 C 416.757 1.65732 0.859634 0
M  V30 4573 C 417.108 0.574767 1.87592 0
M  V30 4574 O 416.233 -0.286299 2.14498 0
M  V30 4575 C 416.828 3.00438 1.56597 0
M  V30 4576 C 415.387 3.13292 2.08627 0
M  V30 4577 C 414.534 2.61473 0.923416 0
M  V30 4578 H 417.485 1.5857 0.0642338 0
M  V30 4579 H 417.506 2.92613 2.43224 0
M  V30 4580 H 417.018 3.79207 0.826053 0
M  V30 4581 H 415.119 2.39268 2.85625 0
M  V30 4582 H 415.232 4.19647 2.31157 0
M  V30 4583 H 413.596 2.18264 1.31275 0
M  V30 4584 H 414.379 3.42733 0.197241 0
M  V30 4585 N 416.824 -0.551391 1.4764 0
M  V30 4586 C 418.235 -1.13349 1.48354 0
M  V30 4587 C 418.586 -1.94709 0.241432 0
M  V30 4588 O 417.711 -2.06306 -0.653205 0
M  V30 4589 C 418.306 -2.0623 2.68802 0
M  V30 4590 C 416.865 -2.597 2.72457 0
M  V30 4591 C 416.012 -1.36201 2.41546 0
M  V30 4592 H 418.963 -0.337698 1.55065 0
M  V30 4593 H 418.984 -2.90196 2.46103 0
M  V30 4594 H 418.496 -1.46987 3.59188 0
M  V30 4595 H 416.597 -3.22724 1.86225 0
M  V30 4596 H 416.71 -3.00296 3.73308 0
M  V30 4597 H 415.074 -1.67068 1.9225 0
M  V30 4598 H 415.857 -0.787425 3.34147 0
M  V30 4599 N 418.302 -1.35869 -0.798587 0
M  V30 4600 C 419.579 -1.20145 -1.54352 0
M  V30 4601 C 419.959 0.216161 -2.0999 0
M  V30 4602 O 419.307 1.22068 -1.93162 0
M  V30 4603 C 419.517 -2.27602 -2.64572 0
M  V30 4604 C 420.865 -2.63811 -3.32699 0
M  V30 4605 O 421.889 -2.26576 -2.74849 0
M  V30 4606 O 420.748 -3.27866 -4.37226 0
M  V30 4607 H 417.842 -0.467248 -0.682355 0
M  V30 4608 H 420.388 -1.47574 -0.837859 0
M  V30 4609 H 419.16 -3.2265 -2.21388 0
M  V30 4610 H 418.783 -2.01488 -3.42766 0
M  V30 4611 N 419.78 1.02168 -1.19998 0
M  V30 4612 C 420.728 2.12717 -0.940967 0
M  V30 4613 C 421.722 1.69069 0.105841 0
M  V30 4614 O 422.928 1.79946 -0.0440583 0
M  V30 4615 H 419.303 0.695108 -0.28693 0
M  V30 4616 H 421.274 2.3175 -1.87975 0
M  V30 4617 C 420.023 3.44027 -0.504049 0
M  V30 4618 H 419.346 3.78036 -1.30112 0
M  V30 4619 H 420.786 4.22452 -0.361991 0
M  V30 4620 C 419.245 3.27678 0.782878 0
M  V30 4621 O 419.775 3.56949 1.84256 0
M  V30 4622 N 417.981 2.80943 0.742921 0
M  V30 4623 H 417.528 2.57322 -0.119687 0
M  V30 4624 H 417.486 2.70385 1.60435 0
M  V30 4625 N 421.258 1.00505 1.21394 0
M  V30 4626 C 422.483 0.706367 1.95001 0
M  V30 4627 C 422.908 -0.72463 1.73582 0
M  V30 4628 O 422.266 -1.49702 1.0227 0
M  V30 4629 C 422.314 1.03299 3.45487 0
M  V30 4630 O 421.418 0.138275 4.12168 0
M  V30 4631 H 420.759 0.263175 0.609619 0
M  V30 4632 H 423.289 1.34531 1.54151 0
M  V30 4633 H 423.299 0.979872 3.96059 0
M  V30 4634 H 421.974 2.07567 3.60401 0
M  V30 4635 H 420.551 0.247928 3.72075 0
M  V30 4636 N 422.737 -1.36956 0.779787 0
M  V30 4637 C 423.962 -2.04283 0.358224 0
M  V30 4638 C 424.387 -1.58422 -1.01411 0
M  V30 4639 O 423.745 -0.748179 -1.65142 0
M  V30 4640 C 423.793 -3.58152 0.419479 0
M  V30 4641 O 422.897 -4.08342 -0.577142 0
M  V30 4642 H 422.238 -0.645967 0.153698 0
M  V30 4643 H 424.768 -1.75108 1.05822 0
M  V30 4644 H 424.778 -4.07041 0.279636 0
M  V30 4645 H 423.453 -3.90886 1.42061 0
M  V30 4646 H 422.03 -3.70751 -0.399755 0
M  V30 4647 N 424.215 -0.530993 -1.48385 0
M  V30 4648 C 425.462 0.0027373 -2.025 0
M  V30 4649 C 425.79 1.34186 -1.40799 0
M  V30 4650 O 425.045 1.88 -0.543544 0
M  V30 4651 C 425.344 0.172742 -3.56982 0
M  V30 4652 C 425.01 -1.09215 -4.37473 0
M  V30 4653 C 423.672 -1.43881 -4.59186 0
M  V30 4654 C 426.024 -1.93153 -4.84088 0
M  V30 4655 C 423.352 -2.62381 -5.2476 0
M  V30 4656 C 425.704 -3.10833 -5.50968 0
M  V30 4657 C 424.368 -3.45843 -5.70919 0
M  V30 4658 H 423.638 0.00100165 -0.740999 0
M  V30 4659 H 426.285 -0.697219 -1.78357 0
M  V30 4660 H 424.59 0.955473 -3.79971 0
M  V30 4661 H 426.287 0.600642 -3.96476 0
M  V30 4662 H 422.877 -0.812177 -4.20834 0
M  V30 4663 H 427.061 -1.67683 -4.67115 0
M  V30 4664 H 422.317 -2.89707 -5.38405 0
M  V30 4665 H 426.491 -3.7618 -5.86056 0
M  V30 4666 H 424.118 -4.37764 -6.21503 0
M  V30 4667 N 425.693 1.55336 -0.266172 0
M  V30 4668 C 426.603 2.2583 0.635458 0
M  V30 4669 C 427.619 1.28106 1.17749 0
M  V30 4670 O 428.795 1.61024 1.20968 0
M  V30 4671 C 425.86 2.95879 1.80712 0
M  V30 4672 C 424.921 4.09059 1.30265 0
M  V30 4673 C 424.154 4.75759 2.41846 0
M  V30 4674 O 424.377 4.41622 3.61007 0
M  V30 4675 O 423.311 5.63888 2.1051 0
M  V30 4676 H 427.137 3.03631 0.0646693 0
M  V30 4677 H 424.722 1.49361 -0.0339177 0
M  V30 4678 H 426.604 3.39932 2.49047 0
M  V30 4679 H 425.279 2.21002 2.36516 0
M  V30 4680 H 424.186 3.69482 0.586019 0
M  V30 4681 H 425.519 4.85811 0.790458 0
M  V30 4682 N 427.171 -0.0066808 1.57599 0
M  V30 4683 C 428.42 -0.692078 1.89455 0
M  V30 4684 C 428.733 -1.75306 0.867586 0
M  V30 4685 O 429.939 -2.49262 1.07614 0
M  V30 4686 C 428.395 -1.2821 3.36289 0
M  V30 4687 C 428.003 -0.256291 4.47266 0
M  V30 4688 C 429.747 -1.94608 3.77264 0
M  V30 4689 C 427.654 -0.855927 5.85173 0
M  V30 4690 H 426.584 -0.262252 0.706923 0
M  V30 4691 H 429.235 0.052769 1.83424 0
M  V30 4692 H 427.617 -2.0774 3.37135 0
M  V30 4693 H 428.791 0.513923 4.57925 0
M  V30 4694 H 427.106 0.306862 4.15268 0
M  V30 4695 H 429.703 -2.40364 4.77629 0
M  V30 4696 H 430.046 -2.77382 3.10427 0
M  V30 4697 H 430.579 -1.21822 3.78688 0
M  V30 4698 H 427.318 -0.0671161 6.55466 0
M  V30 4699 H 426.838 -1.59546 5.78191 0
M  V30 4700 H 428.517 -1.35658 6.32618 0
M  V30 4701 N 428.649 -1.55105 -0.279332 0
M  V30 4702 C 429.597 -1.88333 -1.36505 0
M  V30 4703 C 430.591 -0.759043 -1.51443 0
M  V30 4704 O 431.797 -0.943312 -1.53302 0
M  V30 4705 H 428.172 -0.59766 -0.456406 0
M  V30 4706 H 430.143 -2.79041 -1.05728 0
M  V30 4707 C 428.892 -2.16628 -2.7197 0
M  V30 4708 H 428.215 -3.02624 -2.61264 0
M  V30 4709 H 429.655 -2.43803 -3.46895 0
M  V30 4710 C 428.114 -0.971807 -3.22579 0
M  V30 4711 O 428.644 -0.203228 -4.01186 0
M  V30 4712 N 426.85 -0.771238 -2.80179 0
M  V30 4713 H 426.397 -1.39792 -2.1637 0
M  V30 4714 H 426.355 0.0263667 -3.14389 0
M  V30 4715 N 430.127 0.543554 -1.4793 0
M  V30 4716 C 431.376 1.29649 -1.54512 0
M  V30 4717 C 431.689 1.94382 -0.217973 0
M  V30 4718 O 432.895 2.71017 -0.161908 0
M  V30 4719 C 431.351 2.35175 -2.72435 0
M  V30 4720 C 430.959 1.76572 -4.11736 0
M  V30 4721 C 432.703 3.11564 -2.8832 0
M  V30 4722 C 430.61 2.79958 -5.20939 0
M  V30 4723 H 429.54 0.487541 -0.57517 0
M  V30 4724 H 432.191 0.575708 -1.74235 0
M  V30 4725 H 430.573 3.10229 -2.46118 0
M  V30 4726 H 431.747 1.07799 -4.48013 0
M  V30 4727 H 430.062 1.12722 -4.00852 0
M  V30 4728 H 432.659 3.88794 -3.67074 0
M  V30 4729 H 433.002 3.66594 -1.97268 0
M  V30 4730 H 433.535 2.43623 -3.14472 0
M  V30 4731 H 430.274 2.29766 -6.13912 0
M  V30 4732 H 429.794 3.47101 -4.89164 0
M  V30 4733 H 431.473 3.43198 -5.48474 0
M  V30 4734 N 431.605 1.3629 0.791371 0
M  V30 4735 C 432.833 1.33562 1.58016 0
M  V30 4736 C 433.248 -0.0835616 1.88615 0
M  V30 4737 O 432.605 -1.0399 1.49974 0
M  V30 4738 C 432.656 2.15517 2.90232 0
M  V30 4739 O 432.377 3.51902 2.60953 0
M  V30 4740 C 433.878 2.20546 3.84544 0
M  V30 4741 H 431.098 0.458226 0.490173 0
M  V30 4742 H 433.642 1.79361 0.982345 0
M  V30 4743 H 431.797 1.73278 3.46487 0
M  V30 4744 H 432.211 3.94644 3.4548 0
M  V30 4745 H 433.685 2.82252 4.74382 0
M  V30 4746 H 434.162 1.20838 4.2225 0
M  V30 4747 H 434.768 2.63013 3.34222 0
M  V30 4748 N 433.083 -1.0153 1.20538 0
M  V30 4749 C 434.308 -1.79283 1.04271 0
M  V30 4750 C 434.733 -1.8372 -0.403544 0
M  V30 4751 O 434.091 -1.27321 -1.2907 0
M  V30 4752 C 434.139 -3.21535 1.63241 0
M  V30 4753 O 433.243 -4.03099 0.870908 0
M  V30 4754 H 432.584 -0.55293 0.367647 0
M  V30 4755 H 435.114 -1.27696 1.59859 0
M  V30 4756 H 435.124 -3.72243 1.6703 0
M  V30 4757 H 433.799 -3.1762 2.68497 0
M  V30 4758 H 432.376 -3.61693 0.907323 0
M  V30 4759 N 434.561 -1.01147 -1.20859 0
M  V30 4760 C 435.808 -0.697865 -1.90095 0
M  V30 4761 C 436.136 0.772014 -1.78522 0
M  V30 4762 O 435.391 1.57595 -1.16027 0
M  V30 4763 C 435.69 -1.0727 -3.40922 0
M  V30 4764 C 435.356 -2.53792 -3.72693 0
M  V30 4765 C 434.018 -2.93829 -3.81075 0
M  V30 4766 C 436.37 -3.48674 -3.87397 0
M  V30 4767 C 433.698 -4.27696 -4.01613 0
M  V30 4768 C 436.05 -4.82223 -4.09444 0
M  V30 4769 C 434.714 -5.21973 -4.16054 0
M  V30 4770 H 433.984 -0.255367 -0.695607 0
M  V30 4771 H 436.631 -1.27111 -1.43231 0
M  V30 4772 H 434.936 -0.417799 -3.89566 0
M  V30 4773 H 436.633 -0.807818 -3.92779 0
M  V30 4774 H 433.223 -2.21768 -3.66765 0
M  V30 4775 H 437.407 -3.18904 -3.80281 0
M  V30 4776 H 432.663 -4.58055 -4.04964 0
M  V30 4777 H 436.837 -5.55672 -4.19763 0
M  V30 4778 H 434.464 -6.25717 -4.31721 0
M  V30 4779 N 436.039 1.36541 -0.78704 0
M  V30 4780 C 437.286 1.99304 -0.358341 0
M  V30 4781 C 437.614 1.62467 1.06933 0
M  V30 4782 O 436.869 0.870019 1.75297 0
M  V30 4783 C 437.168 3.54343 -0.466485 0
M  V30 4784 C 436.834 4.10993 -1.85461 0
M  V30 4785 C 435.496 4.26177 -2.23443 0
M  V30 4786 C 437.848 4.41895 -2.76366 0
M  V30 4787 C 435.176 4.69573 -3.51736 0
M  V30 4788 C 437.528 4.86722 -4.04084 0
M  V30 4789 C 436.192 5.00112 -4.42091 0
M  V30 4790 H 435.462 0.729306 -0.131126 0
M  V30 4791 H 438.109 1.63068 -1.00404 0
M  V30 4792 H 436.414 3.90918 0.262719 0
M  V30 4793 H 438.111 4.00833 -0.115854 0
M  V30 4794 H 434.701 3.99612 -1.54946 0
M  V30 4795 H 438.885 4.29735 -2.48277 0
M  V30 4796 H 434.141 4.78127 -3.81057 0
M  V30 4797 H 438.315 5.09598 -4.7464 0
M  V30 4798 H 435.942 5.33498 -5.41557 0
M  V30 4799 N 437.518 0.538854 1.48102 0
M  V30 4800 C 438.466 -0.232325 2.31437 0
M  V30 4801 C 439.46 -0.927004 1.41785 0
M  V30 4802 O 440.666 -0.850378 1.58646 0
M  V30 4803 H 437.041 -0.0937916 0.746128 0
M  V30 4804 H 439.012 0.489986 2.9435 0
M  V30 4805 C 437.761 -1.26074 3.24038 0
M  V30 4806 H 437.084 -0.735609 3.92974 0
M  V30 4807 H 438.524 -1.77157 3.85216 0
M  V30 4808 C 436.983 -2.29902 2.46265 0
M  V30 4809 O 437.513 -3.36502 2.19384 0
M  V30 4810 N 435.719 -2.03348 2.07601 0
M  V30 4811 H 435.266 -1.16675 2.29662 0
M  V30 4812 H 435.224 -2.73038 1.55877 0
M  V30 4813 N 438.996 -1.55193 0.274407 0
M  V30 4814 C 439.944 -2.23924 -0.629362 0
M  V30 4815 C 440.938 -1.23602 -1.1584 0
M  V30 4816 O 442.144 -1.41535 -1.11211 0
M  V30 4817 H 438.519 -0.718637 -0.221507 0
M  V30 4818 H 440.49 -2.98388 -0.0268322 0
M  V30 4819 C 439.239 -2.97329 -1.80252 0
M  V30 4820 H 438.562 -3.74313 -1.40462 0
M  V30 4821 H 440.002 -3.48743 -2.41152 0
M  V30 4822 C 438.461 -2.0276 -2.69054 0
M  V30 4823 O 438.991 -1.57836 -3.69392 0
M  V30 4824 N 437.197 -1.69275 -2.36208 0
M  V30 4825 H 436.744 -2.06004 -1.54661 0
M  V30 4826 H 436.702 -1.06271 -2.95895 0
M  V30 4827 N 440.474 -0.00167713 -1.576 0
M  V30 4828 C 441.699 0.69739 -1.95323 0
M  V30 4829 C 442.124 1.6642 -0.876706 0
M  V30 4830 O 441.482 1.80548 0.165007 0
M  V30 4831 C 441.53 1.40403 -3.32144 0
M  V30 4832 O 440.634 2.5185 -3.26566 0
M  V30 4833 H 439.975 0.185373 -0.637599 0
M  V30 4834 H 442.505 -0.0553665 -2.04525 0
M  V30 4835 H 442.515 1.76707 -3.67748 0
M  V30 4836 H 441.19 0.695167 -4.10049 0
M  V30 4837 H 439.767 2.17861 -3.0264 0
M  V30 4838 N 441.952 1.55251 0.271103 0
M  V30 4839 C 442.882 1.9127 1.33933 0
M  V30 4840 C 443.863 0.77478 1.5143 0
M  V30 4841 O 445.048 1.03307 1.64442 0
M  V30 4842 C 442.178 2.18627 2.69851 0
M  V30 4843 C 441.132 3.34442 2.67081 0
M  V30 4844 C 440.458 3.47284 4.06569 0
M  V30 4845 C 441.758 4.70784 2.26185 0
M  V30 4846 H 443.452 2.80744 1.04035 0
M  V30 4847 H 440.998 1.35077 0.499017 0
M  V30 4848 H 442.951 2.42413 3.44694 0
M  V30 4849 H 441.675 1.25955 3.01335 0
M  V30 4850 H 440.334 3.10627 1.94695 0
M  V30 4851 H 439.982 2.52074 4.35279 0
M  V30 4852 H 439.682 4.25152 4.0561 0
M  V30 4853 H 441.206 3.73363 4.83148 0
M  V30 4854 H 442.62 4.94102 2.90751 0
M  V30 4855 H 441.017 5.51582 2.36384 0
M  V30 4856 H 442.087 4.69478 1.21319 0
M  V30 4857 N 443.43 -0.535701 1.48216 0
M  V30 4858 C 444.707 -1.29683 1.46429 0
M  V30 4859 C 445.087 -2.10391 0.172852 0
M  V30 4860 O 444.435 -2.12282 -0.845488 0
M  V30 4861 C 444.645 -2.18313 2.72287 0
M  V30 4862 C 445.993 -2.78639 3.20383 0
M  V30 4863 O 447.017 -2.28604 2.73164 0
M  V30 4864 O 445.876 -3.69636 4.02531 0
M  V30 4865 H 442.97 -0.585026 0.584529 0
M  V30 4866 H 445.516 -0.552827 1.60443 0
M  V30 4867 H 444.288 -1.58421 3.57797 0
M  V30 4868 H 443.911 -2.99971 2.60966 0
M  V30 4869 N 444.908 -1.36708 -0.784132 0
M  V30 4870 C 446.156 -1.30972 -1.53918 0
M  V30 4871 C 446.477 0.109086 -1.94695 0
M  V30 4872 O 445.747 1.05048 -1.65353 0
M  V30 4873 H 444.327 -0.481819 -0.570841 0
M  V30 4874 H 446.989 -1.71063 -0.934002 0
M  V30 4875 H 446.085 -1.94061 -2.44431 0
M  V30 4876 N 446.386 1.0089 -1.21074 0
M  V30 4877 C 447.334 2.11707 -0.963476 0
M  V30 4878 C 448.328 1.69172 0.0879032 0
M  V30 4879 O 449.534 1.79889 -0.0631415 0
M  V30 4880 H 445.909 0.692026 -0.294287 0
M  V30 4881 H 447.88 2.29743 -1.90422 0
M  V30 4882 C 446.629 3.43473 -0.540509 0
M  V30 4883 H 445.952 3.76634 -1.34114 0
M  V30 4884 H 447.392 4.22044 -0.406777 0
M  V30 4885 C 445.851 3.2849 0.748079 0
M  V30 4886 O 446.381 3.58883 1.8046 0
M  V30 4887 N 444.587 2.81715 0.713081 0
M  V30 4888 H 444.134 2.5718 -0.146973 0
M  V30 4889 H 444.092 2.72071 1.57558 0
M  V30 4890 N 447.864 1.01787 1.20321 0
M  V30 4891 C 449.112 0.706538 1.89347 0
M  V30 4892 C 449.433 -0.766289 1.79313 0
M  V30 4893 O 448.703 -1.55126 1.19635 0
M  V30 4894 H 447.283 0.258348 0.700903 0
M  V30 4895 H 449.945 1.28974 1.46122 0
M  V30 4896 H 449.041 0.991066 2.95946 0
M  V30 4897 N 449.342 -1.36122 0.79427 0
M  V30 4898 C 450.57 -2.03362 0.380989 0
M  V30 4899 C 450.985 -1.59881 -1.00416 0
M  V30 4900 O 450.342 -0.790515 -1.6449 0
M  V30 4901 C 450.393 -3.58804 0.440649 0
M  V30 4902 O 450.114 -4.007 1.77118 0
M  V30 4903 C 451.615 -4.43296 0.0186117 0
M  V30 4904 H 448.835 -0.652526 0.156367 0
M  V30 4905 H 451.379 -1.73998 1.07447 0
M  V30 4906 H 449.534 -3.8686 -0.204458 0
M  V30 4907 H 449.948 -4.95309 1.72538 0
M  V30 4908 H 451.422 -5.51887 0.111488 0
M  V30 4909 H 451.899 -4.2684 -1.03461 0
M  V30 4910 H 452.505 -4.20512 0.636395 0
M  V30 4911 N 450.82 -0.546701 -1.47814 0
M  V30 4912 C 452.048 -0.0232857 -2.06887 0
M  V30 4913 C 452.463 1.26571 -1.4009 0
M  V30 4914 O 451.82 1.7569 -0.493906 0
M  V30 4915 C 451.871 0.186975 -3.61016 0
M  V30 4916 O 451.592 -1.05097 -4.25307 0
M  V30 4917 C 453.093 0.748872 -4.36929 0
M  V30 4918 H 450.313 -0.0410763 -0.669742 0
M  V30 4919 H 452.857 -0.757117 -1.89968 0
M  V30 4920 H 451.012 0.870903 -3.77484 0
M  V30 4921 H 451.426 -0.842121 -5.17695 0
M  V30 4922 H 452.9 0.845334 -5.45489 0
M  V30 4923 H 453.377 1.75772 -4.02493 0
M  V30 4924 H 453.983 0.100979 -4.2518 0
M  V30 4925 N 452.299 1.55045 -0.282633 0
M  V30 4926 C 453.546 1.9976 0.33199 0
M  V30 4927 C 453.874 1.17105 1.55295 0
M  V30 4928 O 453.129 0.230599 1.94337 0
M  V30 4929 C 453.428 3.49422 0.750938 0
M  V30 4930 C 453.094 4.4941 -0.366228 0
M  V30 4931 C 451.756 4.76471 -0.672964 0
M  V30 4932 C 454.108 5.09054 -1.11864 0
M  V30 4933 C 451.436 5.60442 -1.73556 0
M  V30 4934 C 453.788 5.9418 -2.17102 0
M  V30 4935 C 452.452 6.19558 -2.48402 0
M  V30 4936 H 451.722 0.730974 0.121484 0
M  V30 4937 H 454.369 1.8732 -0.39791 0
M  V30 4938 H 452.674 3.59377 1.56063 0
M  V30 4939 H 454.371 3.81432 1.23736 0
M  V30 4940 H 450.961 4.2844 -0.117041 0
M  V30 4941 H 455.145 4.88165 -0.894925 0
M  V30 4942 H 450.401 5.78349 -1.983 0
M  V30 4943 H 454.575 6.39427 -2.75873 0
M  V30 4944 H 452.202 6.84417 -3.30874 0
M  V30 4945 N 453.777 0.010035 1.57597 0
M  V30 4946 C 454.725 -0.996272 2.10184 0
M  V30 4947 C 455.719 -1.34942 1.02406 0
M  V30 4948 O 456.925 -1.33389 1.20861 0
M  V30 4949 H 453.3 -0.338982 0.671264 0
M  V30 4950 H 455.271 -0.527272 2.93705 0
M  V30 4951 C 454.02 -2.27599 2.62857 0
M  V30 4952 H 453.343 -2.01295 3.45428 0
M  V30 4953 H 454.783 -2.96265 3.0332 0
M  V30 4954 C 453.242 -2.99269 1.54725 0
M  V30 4955 O 453.772 -3.90644 0.93597 0
M  V30 4956 N 451.978 -2.61269 1.27228 0
M  V30 4957 H 451.525 -1.87043 1.77123 0
M  V30 4958 H 451.483 -3.09534 0.550999 0
M  V30 4959 N 455.255 -1.55392 -0.262866 0
M  V30 4960 C 456.671 -1.47459 -0.610582 0
M  V30 4961 C 456.871 -0.697031 -1.8906 0
M  V30 4962 O 455.927 -0.219952 -2.5154 0
M  V30 4963 C 457.24 -2.91751 -0.728131 0
M  V30 4964 C 458.788 -3.02027 -0.821517 0
M  V30 4965 C 459.263 -4.47594 -0.97076 0
M  V30 4966 N 460.754 -4.51465 -1.03603 0
M  V30 4967 C 461.489 -5.61326 -1.17049 0
M  V30 4968 N 460.985 -6.81032 -1.2715 0
M  V30 4969 N 462.778 -5.49089 -1.20239 0
M  V30 4970 H 454.929 -2.04395 0.577632 0
M  V30 4971 H 457.192 -0.927287 0.197086 0
M  V30 4972 H 456.898 -3.51413 0.142132 0
M  V30 4973 H 456.772 -3.4134 -1.6052 0
M  V30 4974 H 459.159 -2.42456 -1.68224 0
M  V30 4975 H 459.24 -2.55674 0.0803688 0
M  V30 4976 H 458.884 -5.07771 -0.114655 0
M  V30 4977 H 458.814 -4.91613 -1.88745 0
M  V30 4978 H 461.305 -3.6524 -0.96996 0
M  V30 4979 H 461.618 -7.60511 -1.37271 0
M  V30 4980 H 459.963 -6.83824 -1.24136 0
M  V30 4981 H 463.154 -4.54507 -1.11985 0
M  V30 4982 H 463.327 -6.34749 -1.30373 0
M  V30 4983 N 456.733 0.527833 -1.48498 0
M  V30 4984 C 457.961 1.30823 -1.6029 0
M  V30 4985 C 458.376 1.86945 -0.263974 0
M  V30 4986 O 457.733 1.6651 0.747034 0
M  V30 4987 C 457.784 2.45756 -2.65116 0
M  V30 4988 O 457.505 1.91946 -3.93813 0
M  V30 4989 C 459.006 3.37543 -2.87367 0
M  V30 4990 H 456.226 0.397763 -0.540394 0
M  V30 4991 H 458.77 0.636529 -1.94341 0
M  V30 4992 H 456.925 3.08806 -2.33917 0
M  V30 4993 H 457.339 2.67195 -4.51339 0
M  V30 4994 H 458.813 4.14532 -3.6451 0
M  V30 4995 H 459.29 3.92905 -1.9627 0
M  V30 4996 H 459.896 2.80283 -3.19878 0
M  V30 4997 N 458.211 1.37122 0.776871 0
M  V30 4998 C 459.457 1.32243 1.53752 0
M  V30 4999 C 459.79 -0.0944745 1.9397 0
M  V30 5000 O 459.065 -1.05068 1.6368 0
M  V30 5001 C 459.348 2.25681 2.80607 0
M  V30 5002 C 459.201 3.76127 2.46676 0
M  V30 5003 C 460.52 2.17657 3.82509 0
M  V30 5004 H 457.639 0.481704 0.557791 0
M  V30 5005 H 460.281 1.6778 0.891612 0
M  V30 5006 H 458.431 1.95505 3.35723 0
M  V30 5007 H 460.103 4.16877 1.97513 0
M  V30 5008 H 458.346 3.94946 1.79443 0
M  V30 5009 H 459.017 4.36933 3.37333 0
M  V30 5010 H 461.493 2.44245 3.36873 0
M  V30 5011 H 460.369 2.85185 4.69 0
M  V30 5012 H 460.63 1.16785 4.26396 0
M  V30 5013 N 459.689 -1.00246 1.21608 0
M  V30 5014 C 460.914 -1.78167 1.06167 0
M  V30 5015 C 461.339 -1.84138 -0.384035 0
M  V30 5016 O 460.697 -1.28683 -1.27712 0
M  V30 5017 C 460.745 -3.19786 1.66642 0
M  V30 5018 O 459.849 -4.02153 0.913613 0
M  V30 5019 H 459.19 -0.549 0.37349 0
M  V30 5020 H 461.72 -1.25994 1.61204 0
M  V30 5021 H 461.73 -3.70451 1.70969 0
M  V30 5022 H 460.405 -3.14754 2.7185 0
M  V30 5023 H 458.982 -3.60711 0.945635 0
M  V30 5024 N 461.167 -1.02423 -1.1978 0
M  V30 5025 C 462.416 -0.713265 -1.88667 0
M  V30 5026 C 462.729 0.7609 -1.80193 0
M  V30 5027 O 463.935 1.18473 -2.44288 0
M  V30 5028 C 462.391 -1.22545 -3.38394 0
M  V30 5029 C 461.999 -2.72706 -3.55437 0
M  V30 5030 C 463.743 -0.990257 -4.12788 0
M  V30 5031 C 461.65 -3.17367 -4.99031 0
M  V30 5032 H 460.58 -0.263105 -0.706606 0
M  V30 5033 H 463.231 -1.23792 -1.35454 0
M  V30 5034 H 461.613 -0.628732 -3.90977 0
M  V30 5035 H 462.787 -3.37993 -3.13205 0
M  V30 5036 H 461.102 -2.94453 -2.94425 0
M  V30 5037 H 463.699 -1.29926 -5.18675 0
M  V30 5038 H 464.042 0.0730761 -4.16236 0
M  V30 5039 H 464.575 -1.55074 -3.66329 0
M  V30 5040 H 461.314 -4.23009 -5.00743 0
M  V30 5041 H 460.834 -2.56805 -5.42044 0
M  V30 5042 H 462.513 -3.10441 -5.67658 0
M  V30 5043 N 462.645 1.35699 -0.801477 0
M  V30 5044 C 463.892 1.98913 -0.379459 0
M  V30 5045 C 464.22 1.63592 1.05204 0
M  V30 5046 O 463.475 0.888563 1.74365 0
M  V30 5047 C 463.774 3.53828 -0.504041 0
M  V30 5048 C 463.44 4.09002 -1.8981 0
M  V30 5049 C 462.102 4.23783 -2.27951 0
M  V30 5050 C 464.454 4.38939 -2.81038 0
M  V30 5051 C 461.782 4.65816 -3.56696 0
M  V30 5052 C 464.134 4.82409 -4.09224 0
M  V30 5053 C 462.798 4.95395 -4.4737 0
M  V30 5054 H 462.068 0.727874 -0.138854 0
M  V30 5055 H 464.715 1.61994 -1.02128 0
M  V30 5056 H 463.02 3.91175 0.221242 0
M  V30 5057 H 464.717 4.00687 -0.158361 0
M  V30 5058 H 461.307 3.97946 -1.59176 0
M  V30 5059 H 465.491 4.27077 -2.52821 0
M  V30 5060 H 460.747 4.74059 -3.86106 0
M  V30 5061 H 464.921 5.04535 -4.80018 0
M  V30 5062 H 462.548 5.27724 -5.47185 0
M  V30 5063 N 464.123 0.554532 1.47522 0
M  V30 5064 C 465.071 -0.207765 2.3167 0
M  V30 5065 C 466.065 -0.911914 1.4276 0
M  V30 5066 O 467.271 -0.833504 1.59539 0
M  V30 5067 H 463.646 -0.0858726 0.747081 0
M  V30 5068 H 465.617 0.521178 2.93813 0
M  V30 5069 C 464.366 -1.2263 3.25357 0
M  V30 5070 H 463.689 -0.693887 3.93732 0
M  V30 5071 H 465.129 -1.73062 3.87073 0
M  V30 5072 C 463.588 -2.27278 2.4869 0
M  V30 5073 O 464.118 -3.34156 2.22941 0
M  V30 5074 N 462.324 -2.01134 2.09746 0
M  V30 5075 H 461.871 -1.14232 2.30887 0
M  V30 5076 H 461.829 -2.71369 1.58765 0
M  V30 5077 N 465.601 -1.54893 0.290851 0
M  V30 5078 C 466.847 -2.00949 -0.314784 0
M  V30 5079 C 467.202 -1.1757 -1.52299 0
M  V30 5080 O 466.495 -0.241558 -1.90071 0
M  V30 5081 C 466.689 -3.49815 -0.732397 0
M  V30 5082 C 466.518 -4.47603 0.433799 0
M  V30 5083 C 465.288 -4.96806 0.922599 0
M  V30 5084 C 467.486 -4.98233 1.27546 0
M  V30 5085 N 465.468 -5.78426 2.05662 0
M  V30 5086 C 466.839 -5.77455 2.25712 0
M  V30 5087 C 468.894 -4.80439 1.307 0
M  V30 5088 C 467.597 -6.40778 3.26796 0
M  V30 5089 C 469.623 -5.44574 2.30637 0
M  V30 5090 C 468.985 -6.23619 3.27533 0
M  V30 5091 H 465.084 -0.777905 -0.0799257 0
M  V30 5092 H 467.668 -1.9015 0.418458 0
M  V30 5093 H 465.839 -3.60925 -1.43483 0
M  V30 5094 H 467.571 -3.82681 -1.31671 0
M  V30 5095 H 464.326 -4.70961 0.49926 0
M  V30 5096 H 464.75 -6.23923 2.62772 0
M  V30 5097 H 469.392 -4.18918 0.571622 0
M  V30 5098 H 467.11 -7.01439 4.01258 0
M  V30 5099 H 470.696 -5.32739 2.33838 0
M  V30 5100 H 469.576 -6.72367 4.03599 0
M  V30 5101 N 467.08 -0.0183926 -1.57589 0
M  V30 5102 C 468.357 0.700621 -1.82622 0
M  V30 5103 C 468.737 1.90951 -0.90005 0
M  V30 5104 O 468.085 2.28452 0.0469145 0
M  V30 5105 C 468.295 1.08899 -3.31575 0
M  V30 5106 C 469.643 1.48514 -3.9778 0
M  V30 5107 O 470.667 1.18227 -3.36007 0
M  V30 5108 O 469.526 2.04903 -5.06633 0
M  V30 5109 H 466.62 0.342743 -0.752633 0
M  V30 5110 H 469.166 -0.0452548 -1.6964 0
M  V30 5111 H 467.938 0.228113 -3.90635 0
M  V30 5112 H 467.561 1.89338 -3.49624 0
M  V30 5113 N 468.558 1.5553 0.254621 0
M  V30 5114 C 469.468 1.92789 1.33677 0
M  V30 5115 C 470.484 0.827356 1.53071 0
M  V30 5116 O 471.66 1.12807 1.66843 0
M  V30 5117 C 468.725 2.20827 2.67275 0
M  V30 5118 C 467.786 3.4427 2.5647 0
M  V30 5119 C 467.019 3.70961 3.83697 0
M  V30 5120 O 467.242 2.99852 4.85227 0
M  V30 5121 O 466.176 4.64491 3.82794 0
M  V30 5122 H 470.002 2.84945 1.05071 0
M  V30 5123 H 467.587 1.42312 0.454723 0
M  V30 5124 H 469.469 2.40204 3.46237 0
M  V30 5125 H 468.144 1.31851 2.9563 0
M  V30 5126 H 467.051 3.30209 1.75821 0
M  V30 5127 H 468.384 4.33524 2.33062 0
M  V30 5128 N 470.036 -0.519951 1.48776 0
M  V30 5129 C 471.266 -1.29783 1.60748 0
M  V30 5130 C 471.674 -1.87253 0.27072 0
M  V30 5131 O 471.017 -1.67628 -0.751438 0
M  V30 5132 C 471.079 -2.47984 2.60277 0
M  V30 5133 C 470.743 -2.11526 4.051 0
M  V30 5134 C 471.74 -1.66608 4.92481 0
M  V30 5135 C 469.425 -2.21742 4.50706 0
M  V30 5136 C 471.419 -1.32384 6.23501 0
M  V30 5137 C 469.106 -1.87129 5.81744 0
M  V30 5138 C 470.104 -1.42523 6.67964 0
M  V30 5139 O 469.792 -1.0837 7.96562 0
M  V30 5140 H 469.524 -0.400562 0.544542 0
M  V30 5141 H 472.078 -0.632879 1.95407 0
M  V30 5142 H 470.308 -3.17493 2.2076 0
M  V30 5143 H 471.997 -3.10036 2.61978 0
M  V30 5144 H 472.763 -1.58178 4.58481 0
M  V30 5145 H 468.642 -2.55415 3.83776 0
M  V30 5146 H 472.186 -0.974949 6.90754 0
M  V30 5147 H 468.083 -1.95204 6.15277 0
M  V30 5148 H 468.851 -1.21681 8.09405 0
M  V30 5149 N 471.514 -1.37532 -0.769588 0
M  V30 5150 C 472.763 -1.32183 -1.5235 0
M  V30 5151 C 473.076 0.0906555 -1.9539 0
M  V30 5152 O 474.282 0.266628 -2.70188 0
M  V30 5153 C 472.738 -2.32029 -2.75119 0
M  V30 5154 C 472.346 -3.78816 -2.3917 0
M  V30 5155 C 474.09 -2.35694 -3.53056 0
M  V30 5156 C 471.997 -4.70388 -3.58453 0
M  V30 5157 H 470.927 -0.491275 -0.571984 0
M  V30 5158 H 473.578 -1.63004 -0.842739 0
M  V30 5159 H 471.96 -1.94229 -3.45096 0
M  V30 5160 H 473.134 -4.25466 -1.76962 0
M  V30 5161 H 471.449 -3.78117 -1.74402 0
M  V30 5162 H 474.046 -3.01312 -4.41718 0
M  V30 5163 H 474.389 -1.37117 -3.93071 0
M  V30 5164 H 474.922 -2.72212 -2.90078 0
M  V30 5165 H 471.661 -5.70102 -3.23518 0
M  V30 5166 H 471.181 -4.28442 -4.19758 0
M  V30 5167 H 472.86 -4.87628 -4.25239 0
M  V30 5168 N 472.992 0.995999 -1.22138 0
M  V30 5169 C 473.902 2.11985 -1.00496 0
M  V30 5170 C 474.918 1.7394 0.0457701 0
M  V30 5171 O 476.094 2.00868 -0.146273 0
M  V30 5172 C 473.159 3.41779 -0.582086 0
M  V30 5173 C 472.22 3.93943 -1.70608 0
M  V30 5174 C 471.453 5.17542 -1.30328 0
M  V30 5175 O 471.676 5.70114 -0.180743 0
M  V30 5176 O 470.61 5.63382 -2.11861 0
M  V30 5177 H 474.436 2.33123 -1.94647 0
M  V30 5178 H 472.021 1.10358 -1.00705 0
M  V30 5179 H 473.903 4.1989 -0.356467 0
M  V30 5180 H 472.578 3.22007 0.330592 0
M  V30 5181 H 471.485 3.17019 -1.98619 0
M  V30 5182 H 472.818 4.18141 -2.59651 0
M  V30 5183 N 474.47 1.03057 1.19235 0
M  V30 5184 C 475.747 0.642608 1.84743 0
M  V30 5185 C 476.127 -0.878577 1.91948 0
M  V30 5186 O 475.475 -1.77597 1.43776 0
M  V30 5187 C 475.685 1.30665 3.23616 0
M  V30 5188 C 477.033 1.43098 3.9976 0
M  V30 5189 O 478.057 1.26396 3.3302 0
M  V30 5190 O 476.916 1.70223 5.19313 0
M  V30 5191 H 474.01 0.223573 0.796206 0
M  V30 5192 H 476.556 1.12883 1.26711 0
M  V30 5193 H 475.328 2.34544 3.13217 0
M  V30 5194 H 474.951 0.808405 3.89295 0
M  V30 5195 N 475.948 -1.35272 0.808662 0
M  V30 5196 C 476.895 -2.29764 0.218482 0
M  V30 5197 C 477.865 -1.52911 -0.648652 0
M  V30 5198 O 479.05 -1.81341 -0.593297 0
M  V30 5199 C 476.19 -3.39388 -0.625282 0
M  V30 5200 C 475.303 -4.31202 0.262516 0
M  V30 5201 C 474.438 -5.27919 -0.589451 0
M  V30 5202 C 473.477 -6.11371 0.298617 0
M  V30 5203 N 472.614 -7.0022 -0.513443 0
M  V30 5204 H 477.454 -2.79645 1.02968 0
M  V30 5205 H 474.991 -1.37629 0.519303 0
M  V30 5206 H 476.949 -4.01615 -1.12966 0
M  V30 5207 H 475.579 -2.90777 -1.40173 0
M  V30 5208 H 474.631 -3.69962 0.885013 0
M  V30 5209 H 475.943 -4.89748 0.945971 0
M  V30 5210 H 475.097 -5.95529 -1.15888 0
M  V30 5211 H 473.836 -4.69875 -1.30647 0
M  V30 5212 H 472.841 -5.42707 0.880301 0
M  V30 5213 H 474.066 -6.71494 1.01352 0
M  V30 5214 H 472.012 -6.44662 -1.21439 0
M  V30 5215 H 471.929 -7.55917 0.111922 0
M  V30 5216 H 473.197 -7.72175 -1.06608 0
M  V30 5217 N 477.426 -0.562348 -1.47226 0
M  V30 5218 C 478.651 -0.0432632 -2.07355 0
M  V30 5219 C 479.076 1.24332 -1.41149 0
M  V30 5220 O 478.434 1.74603 -0.488226 0
M  V30 5221 C 478.482 0.130288 -3.60365 0
M  V30 5222 O 477.586 1.19166 -3.94808 0
M  V30 5223 H 476.927 -0.0536334 -0.66183 0
M  V30 5224 H 479.457 -0.779495 -1.89169 0
M  V30 5225 H 479.467 0.342881 -4.06557 0
M  V30 5226 H 478.142 -0.809389 -4.07948 0
M  V30 5227 H 476.719 0.959153 -3.60354 0
M  V30 5228 N 478.904 1.54736 -0.299062 0
M  V30 5229 C 479.854 2.20155 0.592932 0
M  V30 5230 C 480.838 1.1739 1.10038 0
M  V30 5231 O 482.03 1.43116 1.04147 0
M  V30 5232 C 479.159 2.94437 1.76527 0
M  V30 5233 C 478.245 4.04516 1.27388 0
M  V30 5234 N 478.636 5.03319 0.500339 0
M  V30 5235 C 476.934 4.18022 1.55478 0
M  V30 5236 C 477.635 5.81209 0.238909 0
M  V30 5237 N 476.611 5.37408 0.818163 0
M  V30 5238 H 480.413 2.93899 -0.00563596 0
M  V30 5239 H 477.927 1.62068 -0.103732 0
M  V30 5240 H 479.924 3.3977 2.41582 0
M  V30 5241 H 478.584 2.22209 2.36756 0
M  V30 5242 H 479.595 5.17696 0.145419 0
M  V30 5243 H 476.272 3.56998 2.16469 0
M  V30 5244 H 477.662 6.70812 -0.382223 0
M  V30 5245 N 480.382 0.0267497 1.57577 0
M  V30 5246 C 481.629 -0.652404 1.91703 0
M  V30 5247 C 481.957 -1.72271 0.902936 0
M  V30 5248 O 481.212 -1.955 -0.0884843 0
M  V30 5249 C 481.511 -1.30914 3.3256 0
M  V30 5250 C 481.177 -0.369441 4.49384 0
M  V30 5251 C 479.839 -0.110791 4.81072 0
M  V30 5252 C 482.191 0.275971 5.20469 0
M  V30 5253 C 479.519 0.801116 5.81205 0
M  V30 5254 C 481.871 1.17592 6.21575 0
M  V30 5255 C 480.535 1.44348 6.51705 0
M  V30 5256 H 479.805 -0.238732 0.70149 0
M  V30 5257 H 482.452 0.0880091 1.91298 0
M  V30 5258 H 480.757 -2.12425 3.29216 0
M  V30 5259 H 482.454 -1.84115 3.56234 0
M  V30 5260 H 479.044 -0.581211 4.24641 0
M  V30 5261 H 483.228 0.0892 4.9622 0
M  V30 5262 H 478.484 1.01614 6.02897 0
M  V30 5263 H 482.658 1.68223 6.75777 0
M  V30 5264 H 480.285 2.15176 7.29111 0
M  V30 5265 N 481.861 -1.55662 -0.24637 0
M  V30 5266 C 483.091 -1.81312 -0.990438 0
M  V30 5267 C 483.499 -0.600234 -1.79426 0
M  V30 5268 O 482.842 0.440537 -1.78339 0
M  V30 5269 C 482.904 -3.0032 -1.97607 0
M  V30 5270 C 482.568 -4.36322 -1.35912 0
M  V30 5271 C 483.565 -5.14295 -0.761348 0
M  V30 5272 C 481.25 -4.83019 -1.37833 0
M  V30 5273 C 483.244 -6.37114 -0.190998 0
M  V30 5274 C 480.931 -6.05786 -0.804128 0
M  V30 5275 C 481.929 -6.82672 -0.211489 0
M  V30 5276 O 481.617 -8.03121 0.353845 0
M  V30 5277 H 481.349 -0.607233 -0.297058 0
M  V30 5278 H 483.903 -2.0356 -0.274351 0
M  V30 5279 H 482.133 -2.73829 -2.73047 0
M  V30 5280 H 483.822 -3.13057 -2.58361 0
M  V30 5281 H 484.588 -4.79337 -0.739013 0
M  V30 5282 H 480.467 -4.23165 -1.829 0
M  V30 5283 H 484.011 -6.97069 0.272206 0
M  V30 5284 H 479.908 -6.40222 -0.823792 0
M  V30 5285 H 480.676 -8.18131 0.245761 0
M  V30 5286 N 483.339 0.512053 -1.4905 0
M  V30 5287 C 484.586 1.26686 -1.57978 0
M  V30 5288 C 484.914 1.92733 -0.261553 0
M  V30 5289 O 484.169 1.80772 0.749667 0
M  V30 5290 C 484.468 2.36446 -2.68008 0
M  V30 5291 C 484.134 1.87932 -4.09869 0
M  V30 5292 C 482.796 1.74419 -4.48477 0
M  V30 5293 C 485.148 1.5149 -4.98698 0
M  V30 5294 C 482.476 1.22827 -5.73699 0
M  V30 5295 C 484.828 1.01355 -6.24428 0
M  V30 5296 C 483.492 0.864735 -6.61875 0
M  V30 5297 H 482.762 0.463577 -0.578081 0
M  V30 5298 H 485.409 0.569421 -1.82838 0
M  V30 5299 H 483.714 3.11933 -2.37076 0
M  V30 5300 H 485.411 2.9453 -2.72127 0
M  V30 5301 H 482.001 1.99405 -3.79389 0
M  V30 5302 H 486.185 1.60782 -4.69535 0
M  V30 5303 H 481.441 1.10008 -6.01422 0
M  V30 5304 H 485.615 0.722351 -6.92644 0
M  V30 5305 H 483.242 0.462777 -7.5879 0
M  V30 5306 N 484.817 1.37938 0.762283 0
M  V30 5307 C 485.747 1.37176 1.88958 0
M  V30 5308 C 486.728 0.238945 1.68413 0
M  V30 5309 O 487.913 0.440726 1.89133 0
M  V30 5310 C 485.043 1.18742 3.2637 0
M  V30 5311 C 483.997 2.29136 3.61498 0
M  V30 5312 C 483.323 1.95816 4.97554 0
M  V30 5313 C 484.623 3.71363 3.6727 0
M  V30 5314 H 486.317 2.31509 1.89853 0
M  V30 5315 H 483.863 1.11438 0.912005 0
M  V30 5316 H 485.816 1.16837 4.04879 0
M  V30 5317 H 484.54 0.208683 3.25933 0
M  V30 5318 H 483.199 2.30213 2.85303 0
M  V30 5319 H 482.847 0.964475 4.93667 0
M  V30 5320 H 482.547 2.69745 5.22026 0
M  V30 5321 H 484.071 1.95513 5.78452 0
M  V30 5322 H 485.485 3.72364 4.35911 0
M  V30 5323 H 483.882 4.44425 4.03245 0
M  V30 5324 H 484.952 4.04305 2.67704 0
M  V30 5325 N 486.295 -0.989507 1.22664 0
M  V30 5326 C 487.205 -2.11449 1.01619 0
M  V30 5327 C 488.221 -1.73962 -0.036545 0
M  V30 5328 O 489.397 -2.00788 0.156924 0
M  V30 5329 C 486.462 -3.41465 0.600204 0
M  V30 5330 C 485.523 -3.93033 1.72695 0
M  V30 5331 C 484.756 -5.16844 1.33071 0
M  V30 5332 O 484.979 -5.7001 0.210975 0
M  V30 5333 O 483.913 -5.6225 2.14845 0
M  V30 5334 H 487.739 -2.32088 1.9588 0
M  V30 5335 H 485.324 -1.09823 1.01289 0
M  V30 5336 H 487.206 -4.19695 0.37873 0
M  V30 5337 H 485.881 -3.22178 -0.313511 0
M  V30 5338 H 484.788 -3.15961 2.00298 0
M  V30 5339 H 486.121 -4.16758 2.61865 0
M  V30 5340 N 487.773 -1.03688 -1.18687 0
M  V30 5341 C 489.021 -0.736572 -1.88199 0
M  V30 5342 C 489.342 0.737665 -1.80509 0
M  V30 5343 O 488.612 1.53204 -1.22088 0
M  V30 5344 H 487.192 -0.269466 -0.696704 0
M  V30 5345 H 489.854 -1.31282 -1.44052 0
M  V30 5346 H 488.95 -1.03802 -2.94332 0
M  V30 5347 N 489.251 1.34841 -0.815825 0
M  V30 5348 C 490.183 2.28409 -0.190265 0
M  V30 5349 C 491.196 1.50705 0.615771 0
M  V30 5350 O 492.385 1.72822 0.446616 0
M  V30 5351 C 489.485 3.30441 0.752446 0
M  V30 5352 C 488.658 4.37399 -0.00922152 0
M  V30 5353 C 487.717 5.19234 0.853351 0
M  V30 5354 O 486.743 5.68404 0.300919 0
M  V30 5355 N 487.945 5.38248 2.17416 0
M  V30 5356 H 490.71 2.82732 -0.994114 0
M  V30 5357 H 488.271 1.47289 -0.672129 0
M  V30 5358 H 490.263 3.82084 1.33394 0
M  V30 5359 H 488.833 2.76565 1.45707 0
M  V30 5360 H 488.053 3.86567 -0.771979 0
M  V30 5361 H 489.341 5.05992 -0.533807 0
M  V30 5362 H 488.739 4.99961 2.6468 0
M  V30 5363 H 487.296 5.93035 2.70467 0
M  V30 5364 N 490.729 0.570148 1.46925 0
M  V30 5365 C 491.677 -0.183181 2.31878 0
M  V30 5366 C 492.671 -0.896721 1.43719 0
M  V30 5367 O 493.877 -0.816536 1.60414 0
M  V30 5368 H 490.252 -0.077944 0.74795 0
M  V30 5369 H 492.223 0.552312 2.93244 0
M  V30 5370 C 490.972 -1.19172 3.2664 0
M  V30 5371 H 490.295 -0.652088 3.94446 0
M  V30 5372 H 491.735 -1.68946 3.88887 0
M  V30 5373 C 490.194 -2.24627 2.51086 0
M  V30 5374 O 490.724 -3.31773 2.26472 0
M  V30 5375 N 488.93 -1.98898 2.11867 0
M  V30 5376 H 488.477 -1.11777 2.32086 0
M  V30 5377 H 488.435 -2.6967 1.61634 0
M  V30 5378 N 492.207 -1.54576 0.307264 0
M  V30 5379 C 493.484 -1.92377 -0.353605 0
M  V30 5380 C 493.864 -1.23517 -1.71192 0
M  V30 5381 O 493.212 -0.373101 -2.25433 0
M  V30 5382 C 493.422 -3.45928 -0.462039 0
M  V30 5383 C 494.77 -4.18278 -0.729975 0
M  V30 5384 O 495.794 -3.51997 -0.545605 0
M  V30 5385 O 494.653 -5.3563 -1.08454 0
M  V30 5386 H 491.747 -0.802747 -0.198812 0
M  V30 5387 H 494.293 -1.65929 0.355783 0
M  V30 5388 H 493.065 -3.88187 0.492592 0
M  V30 5389 H 492.688 -3.78431 -1.21965 0
M  V30 5390 N 493.685 -0.035106 -1.57561 0
M  V30 5391 C 494.648 0.929819 -2.09492 0
M  V30 5392 C 495.648 1.25026 -1.01119 0
M  V30 5393 O 496.838 1.18961 -1.27255 0
M  V30 5394 C 493.97 2.24457 -2.56577 0
M  V30 5395 H 495.163 0.479935 -2.96035 0
M  V30 5396 H 492.716 0.213033 -1.54841 0
M  V30 5397 H 493.451 2.74061 -1.73382 0
M  V30 5398 H 493.236 2.02508 -3.35757 0
M  V30 5399 H 494.726 2.93607 -2.96959 0
M  V30 5400 N 495.163 1.55791 0.238111 0
M  V30 5401 C 496.093 1.94068 1.29846 0
M  V30 5402 C 497.074 0.806726 1.49753 0
M  V30 5403 O 498.259 1.06772 1.62214 0
M  V30 5404 C 495.389 2.24302 2.65153 0
M  V30 5405 C 494.343 3.40032 2.59927 0
M  V30 5406 C 493.669 3.55829 3.99111 0
M  V30 5407 C 494.969 4.75476 2.16148 0
M  V30 5408 H 496.663 2.82887 0.980563 0
M  V30 5409 H 494.209 1.36105 0.470253 0
M  V30 5410 H 496.162 2.4967 3.39475 0
M  V30 5411 H 494.886 1.32318 2.98596 0
M  V30 5412 H 493.545 3.14687 1.88063 0
M  V30 5413 H 493.193 2.6125 4.29834 0
M  V30 5414 H 492.893 4.3366 3.96501 0
M  V30 5415 H 494.417 3.83528 4.7512 0
M  V30 5416 H 495.831 5.00158 2.80205 0
M  V30 5417 H 494.228 5.56472 2.24631 0
M  V30 5418 H 495.298 4.71946 1.11333 0
M  V30 5419 N 496.642 -0.504142 1.49319 0
M  V30 5420 C 497.572 -1.61473 1.68667 0
M  V30 5421 C 498.553 -1.61455 0.535378 0
M  V30 5422 O 499.738 -1.78245 0.770868 0
M  V30 5423 C 496.868 -2.99971 1.75028 0
M  V30 5424 C 495.822 -3.14854 2.89916 0
M  V30 5425 C 495.148 -4.54671 2.81387 0
M  V30 5426 C 496.448 -2.95176 4.30893 0
M  V30 5427 H 498.142 -1.45535 2.61648 0
M  V30 5428 H 495.688 -0.698711 1.25913 0
M  V30 5429 H 497.641 -3.77562 1.8715 0
M  V30 5430 H 496.365 -3.1699 0.786441 0
M  V30 5431 H 495.024 -2.39687 2.77391 0
M  V30 5432 H 494.672 -4.68562 1.82917 0
M  V30 5433 H 494.372 -4.6557 3.58494 0
M  V30 5434 H 495.896 -5.34327 2.95512 0
M  V30 5435 H 497.31 -3.62538 4.44116 0
M  V30 5436 H 495.707 -3.17549 5.09198 0
M  V30 5437 H 496.777 -1.91332 4.45556 0
M  V30 5438 N 498.12 -1.38341 -0.754957 0
M  V30 5439 C 499.36 -1.35888 -1.52689 0
M  V30 5440 C 499.724 0.0513682 -1.91931 0
M  V30 5441 O 500.925 0.200761 -2.68049 0
M  V30 5442 C 499.196 -2.28666 -2.74676 0
M  V30 5443 S 500.755 -2.4422 -3.64558 0
M  V30 5444 H 497.573 -0.482165 -0.522531 0
M  V30 5445 H 500.175 -1.74253 -0.886358 0
M  V30 5446 H 498.879 -3.30023 -2.43953 0
M  V30 5447 H 498.41 -1.91445 -3.43675 0
M  V30 5448 H 500.425 -1.66525 -4.67423 0
M  V30 5449 N 499.598 0.982988 -1.23187 0
M  V30 5450 C 500.846 1.72052 -1.06031 0
M  V30 5451 C 501.167 1.90769 0.404019 0
M  V30 5452 O 500.437 1.47446 1.28982 0
M  V30 5453 H 499.017 0.637499 -0.389363 0
M  V30 5454 H 501.679 1.18338 -1.54862 0
M  V30 5455 H 500.775 2.7111 -1.54615 0
M  V30 5456 N 501.076 1.04316 1.18135 0
M  V30 5457 C 502.024 0.630175 2.23901 0
M  V30 5458 C 503.018 -0.344254 1.65865 0
M  V30 5459 O 504.224 -0.211273 1.78756 0
M  V30 5460 H 500.599 0.185578 0.728742 0
M  V30 5461 H 502.57 1.53253 2.56039 0
M  V30 5462 C 501.319 0.011666 3.47698 0
M  V30 5463 H 500.642 0.752526 3.92654 0
M  V30 5464 H 502.082 -0.240046 4.2332 0
M  V30 5465 C 500.541 -1.23913 3.13285 0
M  V30 5466 O 501.071 -2.32959 3.27251 0
M  V30 5467 N 499.277 -1.13338 2.67587 0
M  V30 5468 H 498.824 -0.246006 2.56423 0
M  V30 5469 H 498.782 -1.97116 2.44934 0
M  V30 5470 N 502.554 -1.34406 0.822964 0
M  V30 5471 C 503.779 -2.0304 0.423034 0
M  V30 5472 C 504.204 -1.61568 -0.963196 0
M  V30 5473 O 503.562 -0.800339 -1.62678 0
M  V30 5474 C 503.61 -3.56636 0.53321 0
M  V30 5475 O 502.714 -4.09971 -0.446939 0
M  V30 5476 H 502.055 -0.64075 0.174171 0
M  V30 5477 H 504.585 -1.71653 1.11339 0
M  V30 5478 H 504.595 -4.05945 0.408991 0
M  V30 5479 H 503.27 -3.86168 1.54425 0
M  V30 5480 H 501.847 -3.71835 -0.281601 0
M  V30 5481 N 504.032 -0.577932 -1.46621 0
M  V30 5482 C 505.257 -0.0652536 -2.07297 0
M  V30 5483 C 505.682 1.22828 -1.4246 0
M  V30 5484 O 505.04 1.74075 -0.506718 0
M  V30 5485 C 505.088 0.0920589 -3.60482 0
M  V30 5486 O 504.192 1.14972 -3.96049 0
M  V30 5487 H 503.533 -0.06065 -0.661224 0
M  V30 5488 H 506.063 -0.799515 -1.88332 0
M  V30 5489 H 506.073 0.299741 -4.06897 0
M  V30 5490 H 504.748 -0.852612 -4.07067 0
M  V30 5491 H 503.325 0.920879 -3.61351 0
M  V30 5492 N 505.51 1.54411 -0.315457 0
M  V30 5493 C 506.787 1.92562 0.343398 0
M  V30 5494 C 507.167 1.24423 1.70535 0
M  V30 5495 O 506.515 0.385051 2.25232 0
M  V30 5496 C 506.725 3.46168 0.443687 0
M  V30 5497 C 508.073 4.18659 0.707783 0
M  V30 5498 O 509.097 3.52281 0.52693 0
M  V30 5499 O 507.956 5.36198 1.05612 0
M  V30 5500 H 505.05 0.80379 0.194552 0
M  V30 5501 H 507.596 1.65738 -0.364577 0
M  V30 5502 H 506.368 3.8792 -0.513172 0
M  V30 5503 H 505.991 3.79073 1.19956 0
M  V30 5504 N 506.988 0.0434614 1.5754 0
M  V30 5505 C 507.951 -0.918696 2.09982 0
M  V30 5506 C 508.951 -1.24488 1.01781 0
M  V30 5507 O 510.141 -1.18284 1.27885 0
M  V30 5508 C 507.273 -2.23093 2.57764 0
M  V30 5509 H 508.466 -0.464229 2.96285 0
M  V30 5510 H 506.019 -0.204818 1.54952 0
M  V30 5511 H 506.754 -2.73137 1.74832 0
M  V30 5512 H 506.539 -2.00724 3.36827 0
M  V30 5513 H 508.029 -2.92028 2.98512 0
M  V30 5514 N 508.466 -1.55915 -0.229846 0
M  V30 5515 C 509.714 -1.7819 -0.953565 0
M  V30 5516 C 510.035 -0.610504 -1.85197 0
M  V30 5517 O 509.305 0.372988 -1.92316 0
M  V30 5518 H 507.885 -0.657208 -0.355087 0
M  V30 5519 H 510.547 -1.9337 -0.243693 0
M  V30 5520 H 509.643 -2.70011 -1.56527 0
M  V30 5521 N 509.944 0.496216 -1.49584 0
M  V30 5522 C 510.876 1.61404 -1.62731 0
M  V30 5523 C 511.889 1.54613 -0.50978 0
M  V30 5524 O 513.078 1.60458 -0.782017 0
M  V30 5525 C 510.178 3.00212 -1.57245 0
M  V30 5526 C 509.351 3.32138 -2.84611 0
M  V30 5527 C 508.41 4.5038 -2.72112 0
M  V30 5528 O 507.436 4.51926 -3.46051 0
M  V30 5529 N 508.638 5.50575 -1.83977 0
M  V30 5530 H 511.403 1.50552 -2.59141 0
M  V30 5531 H 508.964 0.684182 -1.46733 0
M  V30 5532 H 510.956 3.77241 -1.4653 0
M  V30 5533 H 509.526 3.04964 -0.686729 0
M  V30 5534 H 508.746 2.4396 -3.09641 0
M  V30 5535 H 510.034 3.50268 -3.69039 0
M  V30 5536 H 509.432 5.52128 -1.23171 0
M  V30 5537 H 507.989 6.26687 -1.79182 0
M  V30 5538 N 511.423 1.38739 0.74761 0
M  V30 5539 C 512.663 1.36695 1.51966 0
M  V30 5540 C 513.027 -0.0411889 1.91956 0
M  V30 5541 O 514.228 -0.186543 2.68152 0
M  V30 5542 C 512.499 2.30119 2.73459 0
M  V30 5543 S 514.058 2.4615 3.63257 0
M  V30 5544 H 510.876 0.484929 0.519966 0
M  V30 5545 H 513.478 1.7472 0.877104 0
M  V30 5546 H 512.182 3.31312 2.422 0
M  V30 5547 H 511.713 1.93265 3.42655 0
M  V30 5548 H 513.728 1.69001 4.66533 0
M  V30 5549 N 512.901 -0.976442 1.23707 0
M  V30 5550 C 514.312 -1.53284 1.06587 0
M  V30 5551 C 514.663 -1.92765 -0.365526 0
M  V30 5552 O 513.788 -1.7645 -1.25277 0
M  V30 5553 C 514.383 -2.78548 1.92864 0
M  V30 5554 C 512.942 -3.30574 1.79994 0
M  V30 5555 C 512.089 -2.03538 1.88328 0
M  V30 5556 H 515.04 -0.795692 1.37311 0
M  V30 5557 H 515.061 -3.5155 1.45577 0
M  V30 5558 H 514.573 -2.49782 2.97037 0
M  V30 5559 H 512.674 -3.64211 0.786202 0
M  V30 5560 H 512.787 -4.00065 2.636 0
M  V30 5561 H 511.151 -2.17853 1.31954 0
M  V30 5562 H 511.934 -1.77149 2.94063 0
M  V30 5563 N 514.379 -1.04941 -1.1758 0
M  V30 5564 C 515.289 -0.658826 -2.25159 0
M  V30 5565 C 516.305 0.318941 -1.71052 0
M  V30 5566 O 517.481 0.171669 -2.00667 0
M  V30 5567 C 514.546 -0.0369522 -3.4668 0
M  V30 5568 C 513.607 -1.06484 -4.15884 0
M  V30 5569 C 512.84 -0.472551 -5.31604 0
M  V30 5570 O 513.063 0.718736 -5.65854 0
M  V30 5571 O 511.997 -1.20557 -5.89703 0
M  V30 5572 H 515.823 -1.55533 -2.60851 0
M  V30 5573 H 513.408 -0.820819 -1.24832 0
M  V30 5574 H 515.29 0.308784 -4.20267 0
M  V30 5575 H 513.965 0.833238 -3.12792 0
M  V30 5576 H 512.872 -1.46253 -3.44327 0
M  V30 5577 H 514.205 -1.9061 -4.53794 0
M  V30 5578 N 515.857 1.33968 -0.830081 0
M  V30 5579 C 517.105 1.97672 -0.420734 0
M  V30 5580 C 517.426 1.66111 1.02138 0
M  V30 5581 O 516.696 0.955503 1.71017 0
M  V30 5582 H 515.276 0.73125 -0.152587 0
M  V30 5583 H 517.938 1.63483 -1.0611 0
M  V30 5584 H 517.034 3.07294 -0.545588 0
M  V30 5585 N 517.335 0.585699 1.46312 0
M  V30 5586 C 518.565 0.0780166 2.06453 0
M  V30 5587 C 518.973 -1.2336 1.43454 0
M  V30 5588 O 518.316 -1.75734 0.535086 0
M  V30 5589 C 518.378 -0.158951 3.59148 0
M  V30 5590 C 518.042 1.06752 4.44357 0
M  V30 5591 C 519.039 1.98031 4.80708 0
M  V30 5592 C 516.724 1.2902 4.85447 0
M  V30 5593 C 518.718 3.09924 5.5698 0
M  V30 5594 C 516.405 2.41218 5.61478 0
M  V30 5595 C 517.403 3.31499 5.97158 0
M  V30 5596 O 517.091 4.41747 6.71651 0
M  V30 5597 H 516.823 0.0558894 0.673686 0
M  V30 5598 H 519.377 0.806994 1.88883 0
M  V30 5599 H 517.607 -0.942575 3.75037 0
M  V30 5600 H 519.296 -0.615513 4.01206 0
M  V30 5601 H 520.062 1.82043 4.49539 0
M  V30 5602 H 515.941 0.596567 4.57124 0
M  V30 5603 H 519.485 3.80415 5.84748 0
M  V30 5604 H 515.382 2.57167 5.9206 0
M  V30 5605 H 516.15 4.40152 6.90079 0
M  V30 5606 N 518.813 -1.54241 0.323641 0
M  V30 5607 C 520.062 -1.9975 -0.279806 0
M  V30 5608 C 520.375 -1.2156 -1.5324 0
M  V30 5609 O 521.581 -1.57447 -2.21185 0
M  V30 5610 C 520.037 -3.55686 -0.549115 0
M  V30 5611 C 519.645 -4.4271 0.686432 0
M  V30 5612 C 521.389 -4.09663 -1.11251 0
M  V30 5613 C 519.296 -5.90119 0.389022 0
M  V30 5614 H 518.226 -0.746177 -0.10833 0
M  V30 5615 H 520.877 -1.78248 0.435877 0
M  V30 5616 H 519.259 -3.73176 -1.32499 0
M  V30 5617 H 520.433 -4.36996 1.46188 0
M  V30 5618 H 518.748 -3.99623 1.17005 0
M  V30 5619 H 521.345 -5.17386 -1.34965 0
M  V30 5620 H 521.688 -3.61651 -2.06191 0
M  V30 5621 H 522.221 -3.95806 -0.39782 0
M  V30 5622 H 518.96 -6.42326 1.30759 0
M  V30 5623 H 518.48 -5.98785 -0.348722 0
M  V30 5624 H 520.159 -6.47 -0.0011164 0
M  V30 5625 N 520.291 -0.0518155 -1.57515 0
M  V30 5626 C 521.531 0.625712 -1.94587 0
M  V30 5627 C 521.895 1.6797 -0.930053 0
M  V30 5628 O 523.096 2.41135 -1.18774 0
M  V30 5629 C 521.367 1.20574 -3.36447 0
M  V30 5630 S 522.926 1.90118 -3.95475 0
M  V30 5631 H 519.744 0.205434 -0.680675 0
M  V30 5632 H 522.346 -0.120906 -1.95126 0
M  V30 5633 H 521.05 0.426521 -4.08178 0
M  V30 5634 H 520.581 1.98916 -3.39405 0
M  V30 5635 H 522.596 3.18184 -3.80753 0
M  V30 5636 N 521.769 1.56035 0.221574 0
M  V30 5637 C 523.015 1.79312 0.947372 0
M  V30 5638 C 523.348 0.621453 1.83988 0
M  V30 5639 O 522.623 -0.379287 1.90766 0
M  V30 5640 C 522.906 3.1267 1.78633 0
M  V30 5641 C 522.759 4.40284 0.920312 0
M  V30 5642 C 524.078 3.4247 2.7641 0
M  V30 5643 H 521.197 0.652328 0.342982 0
M  V30 5644 H 523.839 1.88765 0.216244 0
M  V30 5645 H 521.989 3.04741 2.40967 0
M  V30 5646 H 523.661 4.60232 0.313718 0
M  V30 5647 H 521.904 4.33212 0.225734 0
M  V30 5648 H 522.575 5.30033 1.54171 0
M  V30 5649 H 525.051 3.50526 2.24211 0
M  V30 5650 H 523.927 4.3695 3.32213 0
M  V30 5651 H 524.188 2.64635 3.54148 0
M  V30 5652 N 523.247 -0.488276 1.49845 0
M  V30 5653 C 524.194 -1.58836 1.67451 0
M  V30 5654 C 525.164 -1.57886 0.515857 0
M  V30 5655 O 526.349 -1.75679 0.744403 0
M  V30 5656 C 523.489 -2.96915 1.75885 0
M  V30 5657 C 522.602 -3.07784 3.03138 0
M  V30 5658 C 521.737 -4.36673 3.02473 0
M  V30 5659 C 520.776 -4.41222 4.24252 0
M  V30 5660 N 519.913 -5.61557 4.21424 0
M  V30 5661 H 524.753 -1.43131 2.61376 0
M  V30 5662 H 522.29 -0.696186 1.29583 0
M  V30 5663 H 524.248 -3.76965 1.78755 0
M  V30 5664 H 522.878 -3.11295 0.85414 0
M  V30 5665 H 521.93 -2.20717 3.09819 0
M  V30 5666 H 523.242 -3.07005 3.93128 0
M  V30 5667 H 522.396 -5.25055 3.03977 0
M  V30 5668 H 521.135 -4.40037 2.10283 0
M  V30 5669 H 520.14 -3.5124 4.22978 0
M  V30 5670 H 521.365 -4.39564 5.17649 0
M  V30 5671 H 519.311 -5.65738 3.32078 0
M  V30 5672 H 519.228 -5.62447 5.05163 0
M  V30 5673 H 520.496 -6.52111 4.2705 0
M  V30 5674 N 524.725 -1.39134 -0.740242 0
M  V30 5675 C 525.688 -1.37217 -1.83587 0
M  V30 5676 C 526.688 -0.270221 -1.58513 0
M  V30 5677 O 527.878 -0.527843 -1.6601 0
M  V30 5678 C 525.01 -1.13959 -3.21288 0
M  V30 5679 H 526.203 -2.34705 -1.86691 0
M  V30 5680 H 523.756 -1.24622 -0.94335 0
M  V30 5681 H 524.491 -0.17131 -3.23847 0
M  V30 5682 H 524.276 -1.93754 -3.40884 0
M  V30 5683 H 525.766 -1.15346 -4.01354 0
M  V30 5684 N 526.204 0.969867 -1.24223 0
M  V30 5685 C 527.452 1.70918 -1.0785 0
M  V30 5686 C 527.773 1.91186 0.383763 0
M  V30 5687 O 527.043 1.48806 1.27411 0
M  V30 5688 H 525.623 0.633334 -0.396103 0
M  V30 5689 H 528.285 1.16689 -1.56108 0
M  V30 5690 H 527.381 2.69455 -1.57482 0
M  V30 5691 N 527.682 1.05563 1.17022 0
M  V30 5692 C 529.098 0.777684 1.39371 0
M  V30 5693 C 529.298 -0.626269 1.91521 0
M  V30 5694 O 528.354 -1.38806 2.10924 0
M  V30 5695 C 529.667 1.83642 2.3811 0
M  V30 5696 C 531.215 1.85907 2.51809 0
M  V30 5697 C 531.69 2.90813 3.53824 0
M  V30 5698 N 533.181 2.898 3.61345 0
M  V30 5699 C 533.916 3.6762 4.40049 0
M  V30 5700 N 533.412 4.55237 5.22237 0
M  V30 5701 N 535.205 3.56044 4.34959 0
M  V30 5702 H 527.356 1.9614 0.815047 0
M  V30 5703 H 529.619 0.849527 0.420722 0
M  V30 5704 H 529.325 2.84425 2.06871 0
M  V30 5705 H 529.199 1.6812 3.37662 0
M  V30 5706 H 531.586 0.857865 2.82356 0
M  V30 5707 H 531.667 2.05506 1.52318 0
M  V30 5708 H 531.311 3.91122 3.24015 0
M  V30 5709 H 531.241 2.68465 4.53028 0
M  V30 5710 H 533.732 2.26274 3.02669 0
M  V30 5711 H 534.045 5.11291 5.79484 0
M  V30 5712 H 532.39 4.59296 5.21605 0
M  V30 5713 H 535.581 2.86986 3.69806 0
M  V30 5714 H 535.754 4.16938 4.96051 0
M  V30 5715 N 529.16 -1.33526 0.837174 0
M  V30 5716 C 530.108 -2.31168 0.257698 0
M  V30 5717 C 531.102 -1.5806 -0.609388 0
M  V30 5718 O 532.308 -1.72941 -0.499139 0
M  V30 5719 H 528.683 -0.74922 0.0646058 0
M  V30 5720 H 530.654 -2.77552 1.09578 0
M  V30 5721 C 529.403 -3.4326 -0.553887 0
M  V30 5722 H 528.726 -3.99665 0.104008 0
M  V30 5723 H 530.166 -4.13782 -0.925219 0
M  V30 5724 C 528.625 -2.88965 -1.73207 0
M  V30 5725 O 529.155 -2.85013 -2.83073 0
M  V30 5726 N 527.361 -2.45596 -1.55342 0
M  V30 5727 H 526.908 -2.49009 -0.659705 0
M  V30 5728 H 526.866 -2.0962 -2.34322 0
M  V30 5729 N 530.638 -0.59345 -1.46 0
M  V30 5730 C 532.049 -0.169801 -1.85926 0
M  V30 5731 C 532.4 1.26984 -1.49565 0
M  V30 5732 O 531.525 1.96076 -0.915602 0
M  V30 5733 C 532.12 -0.301385 -3.37457 0
M  V30 5734 C 530.679 0.0674684 -3.7634 0
M  V30 5735 C 529.826 -0.632383 -2.69993 0
M  V30 5736 H 532.777 -0.801014 -1.37002 0
M  V30 5737 H 532.798 0.470331 -3.77582 0
M  V30 5738 H 532.31 -1.34927 -3.63891 0
M  V30 5739 H 530.411 1.11507 -3.55523 0
M  V30 5740 H 530.524 -0.316332 -4.78055 0
M  V30 5741 H 528.888 -0.0714961 -2.546 0
M  V30 5742 H 529.671 -1.68212 -2.99265 0
M  V30 5743 N 532.116 1.54067 -0.331816 0
M  V30 5744 C 533.064 2.26105 0.54582 0
M  V30 5745 C 534.058 1.27816 1.11173 0
M  V30 5746 O 535.264 1.45565 1.05882 0
M  V30 5747 H 531.639 0.726363 0.194683 0
M  V30 5748 H 533.61 2.98282 -0.083931 0
M  V30 5749 C 532.359 3.03814 1.69092 0
M  V30 5750 H 531.682 3.79269 1.26473 0
M  V30 5751 H 533.122 3.57453 2.28043 0
M  V30 5752 C 531.581 2.12606 2.61343 0
M  V30 5753 O 532.111 1.71437 3.6328 0
M  V30 5754 N 530.317 1.77925 2.29763 0
M  V30 5755 H 529.864 2.11602 1.46909 0
M  V30 5756 H 529.822 1.1718 2.91747 0
M  V30 5757 N 533.594 0.0601682 1.57485 0
M  V30 5758 C 534.824 -0.620037 1.97076 0
M  V30 5759 C 535.232 -1.64381 0.936784 0
M  V30 5760 O 534.575 -1.83497 -0.0863377 0
M  V30 5761 C 534.637 -1.35617 3.32939 0
M  V30 5762 C 534.301 -0.487208 4.54396 0
M  V30 5763 C 535.298 0.250428 5.19297 0
M  V30 5764 C 532.983 -0.415494 5.00579 0
M  V30 5765 C 534.977 1.04812 6.28723 0
M  V30 5766 C 532.664 0.385879 6.0988 0
M  V30 5767 C 533.662 1.11637 6.73815 0
M  V30 5768 O 533.35 1.90454 7.81014 0
M  V30 5769 H 533.082 -0.173664 0.653312 0
M  V30 5770 H 535.636 0.1256 2.05016 0
M  V30 5771 H 533.866 -2.14763 3.2158 0
M  V30 5772 H 535.555 -1.92749 3.57215 0
M  V30 5773 H 536.321 0.204546 4.84568 0
M  V30 5774 H 532.2 -0.973679 4.506 0
M  V30 5775 H 535.744 1.6188 6.78558 0
M  V30 5776 H 531.641 0.433366 6.44044 0
M  V30 5777 H 532.409 1.82762 7.97835 0
M  V30 5778 N 535.072 -1.5615 -0.213296 0
M  V30 5779 C 536.32 -1.79191 -0.934612 0
M  V30 5780 C 536.641 -0.630112 -1.84539 0
M  V30 5781 O 535.911 0.35257 -1.92701 0
M  V30 5782 H 534.491 -0.660937 -0.348097 0
M  V30 5783 H 537.153 -1.93618 -0.22317 0
M  V30 5784 H 536.249 -2.71656 -1.53654 0
M  V30 5785 N 536.55 0.480323 -1.50102 0
M  V30 5786 C 537.78 1.25475 -1.64133 0
M  V30 5787 C 538.188 1.8647 -0.320272 0
M  V30 5788 O 537.531 1.69561 0.70673 0
M  V30 5789 C 537.593 2.40996 -2.6676 0
M  V30 5790 C 537.257 2.00711 -4.10565 0
M  V30 5791 C 538.254 1.53492 -4.96725 0
M  V30 5792 C 535.939 2.09714 -4.56427 0
M  V30 5793 C 537.933 1.15806 -6.26792 0
M  V30 5794 C 535.62 1.7164 -5.86501 0
M  V30 5795 C 536.618 1.24763 -6.71508 0
M  V30 5796 O 536.306 0.872122 -7.99155 0
M  V30 5797 H 536.038 0.385983 -0.554971 0
M  V30 5798 H 538.592 0.580848 -1.97016 0
M  V30 5799 H 536.822 3.11528 -2.291 0
M  V30 5800 H 538.511 3.02981 -2.70106 0
M  V30 5801 H 539.277 1.45966 -4.62514 0
M  V30 5802 H 535.156 2.4515 -3.90413 0
M  V30 5803 H 538.7 0.791465 -6.93096 0
M  V30 5804 H 534.597 1.78822 -6.20236 0
M  V30 5805 H 535.365 1.00178 -8.12346 0
M  V30 5806 N 538.028 1.39524 0.732853 0
M  V30 5807 C 539.256 1.40143 1.52209 0
M  V30 5808 C 539.671 -0.00348836 1.888 0
M  V30 5809 O 539.028 -0.975357 1.5425 0
M  V30 5810 C 539.079 2.27632 2.8083 0
M  V30 5811 O 538.8 3.62654 2.45792 0
M  V30 5812 C 540.301 2.36658 3.74844 0
M  V30 5813 H 537.521 0.478604 0.470297 0
M  V30 5814 H 540.065 1.83366 0.905388 0
M  V30 5815 H 538.22 1.87818 3.38826 0
M  V30 5816 H 538.634 4.08941 3.28431 0
M  V30 5817 H 540.108 3.02118 4.61984 0
M  V30 5818 H 540.585 1.38638 4.16745 0
M  V30 5819 H 541.191 2.76951 3.22766 0
M  V30 5820 N 539.506 -0.963266 1.24736 0
M  V30 5821 C 540.731 -1.74699 1.11781 0
M  V30 5822 C 541.156 -1.85267 -0.325258 0
M  V30 5823 O 540.514 -1.32681 -1.23553 0
M  V30 5824 C 540.562 -3.14322 1.76731 0
M  V30 5825 O 539.666 -3.99043 1.04109 0
M  V30 5826 H 539.007 -0.53684 0.390767 0
M  V30 5827 H 541.537 -1.20801 1.65131 0
M  V30 5828 H 541.547 -3.64824 1.82668 0
M  V30 5829 H 540.222 -3.05946 2.81726 0
M  V30 5830 H 538.799 -3.5752 1.05991 0
M  V30 5831 N 540.985 -1.06182 -1.16461 0
M  V30 5832 C 542.232 -0.777863 -1.86964 0
M  V30 5833 C 542.56 0.695602 -1.81636 0
M  V30 5834 O 541.815 1.52532 -1.22607 0
M  V30 5835 C 542.114 -1.21633 -3.36066 0
M  V30 5836 C 541.78 -2.69371 -3.61594 0
M  V30 5837 C 540.442 -3.09727 -3.6827 0
M  V30 5838 C 542.794 -3.64791 -3.7226 0
M  V30 5839 C 540.122 -4.44345 -3.83112 0
M  V30 5840 C 542.474 -4.99155 -3.88623 0
M  V30 5841 C 541.138 -5.39149 -3.93541 0
M  V30 5842 H 540.408 -0.28464 -0.68415 0
M  V30 5843 H 543.055 -1.33071 -1.37711 0
M  V30 5844 H 541.36 -0.582651 -3.87443 0
M  V30 5845 H 543.057 -0.973682 -3.88999 0
M  V30 5846 H 539.647 -2.37124 -3.57029 0
M  V30 5847 H 543.831 -3.34746 -3.66413 0
M  V30 5848 H 539.087 -4.74819 -3.85172 0
M  V30 5849 H 543.261 -5.72976 -3.95817 0
M  V30 5850 H 540.888 -6.43464 -4.04794 0
M  V30 5851 N 542.463 1.3308 -0.844243 0
M  V30 5852 C 543.74 1.92178 -0.364261 0
M  V30 5853 C 544.12 1.76961 1.15101 0
M  V30 5854 O 543.468 1.16128 1.9679 0
M  V30 5855 C 543.678 3.393 -0.817106 0
M  V30 5856 C 545.026 4.16444 -0.828236 0
M  V30 5857 O 546.05 3.47975 -0.761062 0
M  V30 5858 O 544.909 5.38685 -0.920926 0
M  V30 5859 H 542.003 0.820411 -0.10419 0
M  V30 5860 H 544.549 1.41918 -0.930453 0
M  V30 5861 H 543.321 3.44272 -1.85991 0
M  V30 5862 H 542.944 3.96947 -0.227785 0
M  V30 5863 N 543.941 0.601185 1.45683 0
M  V30 5864 C 545.169 0.100054 2.06658 0
M  V30 5865 C 545.584 -1.21285 1.44691 0
M  V30 5866 O 544.941 -1.73735 0.558772 0
M  V30 5867 C 544.992 -0.0528579 3.61461 0
M  V30 5868 O 544.713 1.20809 4.21114 0
M  V30 5869 C 546.214 -0.586193 4.39407 0
M  V30 5870 H 543.434 0.065905 0.667756 0
M  V30 5871 H 545.978 0.827101 1.87028 0
M  V30 5872 H 544.133 -0.730203 3.80456 0
M  V30 5873 H 544.547 1.03368 5.14213 0
M  V30 5874 H 546.021 -0.642297 5.4825 0
M  V30 5875 H 546.498 -1.60713 4.0874 0
M  V30 5876 H 547.104 0.0568935 4.25262 0
M  V30 5877 N 545.419 -1.53889 0.339982 0
M  V30 5878 C 546.666 -2.00855 -0.257621 0
M  V30 5879 C 546.994 -1.22788 -1.50842 0
M  V30 5880 O 546.249 -0.302567 -1.93347 0
M  V30 5881 C 546.548 -3.51968 -0.620735 0
M  V30 5882 C 546.214 -4.47741 0.532771 0
M  V30 5883 C 544.876 -4.73645 0.849339 0
M  V30 5884 C 547.228 -5.04551 1.3068 0
M  V30 5885 C 544.556 -5.53614 1.94237 0
M  V30 5886 C 546.908 -5.85713 2.39005 0
M  V30 5887 C 545.572 -6.09912 2.71225 0
M  V30 5888 H 544.842 -0.734979 -0.0942703 0
M  V30 5889 H 547.489 -1.85714 0.467159 0
M  V30 5890 H 545.794 -3.64921 -1.42618 0
M  V30 5891 H 547.491 -3.85762 -1.09495 0
M  V30 5892 H 544.081 -4.27711 0.275973 0
M  V30 5893 H 548.265 -4.84507 1.07549 0
M  V30 5894 H 543.521 -5.7059 2.19628 0
M  V30 5895 H 547.695 -6.28748 2.99415 0
M  V30 5896 H 545.322 -6.71665 3.56047 0
M  V30 5897 N 546.897 -0.0685191 -1.57451 0
M  V30 5898 C 548.122 0.613919 -1.98106 0
M  V30 5899 C 548.547 1.62551 -0.946501 0
M  V30 5900 O 547.905 1.81085 0.0882824 0
M  V30 5901 C 547.953 1.26189 -3.378 0
M  V30 5902 O 547.057 2.37773 -3.36954 0
M  V30 5903 H 546.398 0.158163 -0.644888 0
M  V30 5904 H 548.928 -0.142063 -2.04106 0
M  V30 5905 H 548.938 1.60951 -3.74912 0
M  V30 5906 H 547.613 0.520625 -4.12629 0
M  V30 5907 H 546.19 2.04829 -3.11608 0
M  V30 5908 N 548.375 1.56261 0.205012 0
M  V30 5909 C 549.621 1.81211 0.923805 0
M  V30 5910 C 549.976 0.644065 1.813 0
M  V30 5911 O 549.269 -0.361208 1.88164 0
M  V30 5912 C 549.463 3.09722 1.78345 0
M  V30 5913 C 549.292 4.38915 0.978979 0
M  V30 5914 C 548.062 5.00874 0.667332 0
M  V30 5915 C 550.26 5.13199 0.336386 0
M  V30 5916 N 548.242 6.137 -0.156814 0
M  V30 5917 C 549.613 6.19009 -0.350402 0
M  V30 5918 C 551.668 4.97266 0.251101 0
M  V30 5919 C 550.371 7.10616 -1.11434 0
M  V30 5920 C 552.397 5.89288 -0.499413 0
M  V30 5921 C 551.759 6.94536 -1.17468 0
M  V30 5922 H 547.858 0.714528 0.317764 0
M  V30 5923 H 550.442 1.93738 0.193317 0
M  V30 5924 H 548.613 2.98448 2.48563 0
M  V30 5925 H 550.345 3.22798 2.44098 0
M  V30 5926 H 547.1 4.63151 0.989366 0
M  V30 5927 H 547.524 6.74695 -0.558206 0
M  V30 5928 H 552.166 4.15935 0.758823 0
M  V30 5929 H 549.884 7.91417 -1.63353 0
M  V30 5930 H 553.47 5.79034 -0.566627 0
M  V30 5931 H 552.35 7.64513 -1.74613 0
M  V30 5932 N 549.853 -0.472356 1.50355 0
M  V30 5933 C 550.816 -1.5529 1.68576 0
M  V30 5934 C 551.816 -1.50863 0.556511 0
M  V30 5935 O 553.006 -1.53505 0.823516 0
M  V30 5936 C 550.138 -2.94921 1.70981 0
M  V30 5937 H 551.331 -1.40451 2.64978 0
M  V30 5938 H 548.884 -0.698645 1.39816 0
M  V30 5939 H 549.619 -3.15204 0.762675 0
M  V30 5940 H 549.404 -2.99541 2.53017 0
M  V30 5941 H 550.894 -3.73372 1.87037 0
M  V30 5942 N 551.331 -1.39911 -0.725443 0
M  V30 5943 C 552.578 -1.37654 -1.48518 0
M  V30 5944 C 552.906 0.0243982 -1.94485 0
M  V30 5945 O 552.161 1.00708 -1.67799 0
M  V30 5946 C 552.46 -2.30368 -2.7325 0
M  V30 5947 C 552.126 -3.77817 -2.461 0
M  V30 5948 C 550.788 -4.17991 -2.38405 0
M  V30 5949 C 553.14 -4.71036 -2.23103 0
M  V30 5950 C 550.468 -5.49433 -2.05768 0
M  V30 5951 C 552.82 -6.02766 -1.9198 0
M  V30 5952 C 551.484 -6.41993 -1.82761 0
M  V30 5953 H 550.754 -0.503713 -0.543465 0
M  V30 5954 H 553.401 -1.7249 -0.831822 0
M  V30 5955 H 551.706 -1.88683 -3.43375 0
M  V30 5956 H 553.403 -2.2591 -3.31309 0
M  V30 5957 H 549.993 -3.45982 -2.52972 0
M  V30 5958 H 554.177 -4.40823 -2.2801 0
M  V30 5959 H 549.433 -5.78738 -1.9716 0
M  V30 5960 H 553.607 -6.74519 -1.73197 0
M  V30 5961 H 551.234 -7.43761 -1.57237 0
M  V30 5962 N 552.809 0.956637 -1.25245 0
M  V30 5963 C 553.739 2.07058 -1.07931 0
M  V30 5964 C 554.72 1.70096 0.0110361 0
M  V30 5965 O 555.905 1.93555 -0.158121 0
M  V30 5966 C 553.035 3.40272 -0.695124 0
M  V30 5967 C 551.989 3.91235 -1.73549 0
M  V30 5968 C 551.315 5.20921 -1.20604 0
M  V30 5969 C 552.615 4.17837 -3.13385 0
M  V30 5970 H 554.309 2.218 -2.01109 0
M  V30 5971 H 551.855 1.06581 -0.968326 0
M  V30 5972 H 553.808 4.1765 -0.560949 0
M  V30 5973 H 552.532 3.25462 0.272355 0
M  V30 5974 H 551.191 3.16025 -1.85807 0
M  V30 5975 H 550.839 5.02479 -0.228846 0
M  V30 5976 H 550.539 5.55987 -1.90136 0
M  V30 5977 H 552.063 6.00897 -1.08421 0
M  V30 5978 H 553.477 4.8588 -3.04292 0
M  V30 5979 H 551.874 4.64154 -3.80369 0
M  V30 5980 H 552.944 3.2419 -3.60595 0
M  V30 5981 N 554.287 1.06798 1.15896 0
M  V30 5982 C 555.512 0.808739 1.90982 0
M  V30 5983 C 555.937 -0.6316 1.77179 0
M  V30 5984 O 555.295 -1.4407 1.10061 0
M  V30 5985 C 555.343 1.21468 3.39526 0
M  V30 5986 O 554.447 0.356562 4.10856 0
M  V30 5987 H 553.788 0.29512 0.594811 0
M  V30 5988 H 556.318 1.42513 1.46804 0
M  V30 5989 H 556.328 1.18844 3.90308 0
M  V30 5990 H 555.003 2.26379 3.48891 0
M  V30 5991 H 553.58 0.444808 3.70238 0
M  V30 5992 N 555.766 -1.3263 0.851289 0
M  V30 5993 C 556.696 -2.31449 0.308771 0
M  V30 5994 C 557.677 -1.59531 -0.590255 0
M  V30 5995 O 558.862 -1.87351 -0.511205 0
M  V30 5996 C 555.992 -3.43586 -0.506548 0
M  V30 5997 C 554.946 -4.26963 0.297753 0
M  V30 5998 C 554.272 -5.30831 -0.642094 0
M  V30 5999 C 555.572 -4.99643 1.52166 0
M  V30 6000 H 557.266 -2.77074 1.13447 0
M  V30 6001 H 554.812 -1.33207 0.546971 0
M  V30 6002 H 556.765 -4.11754 -0.896474 0
M  V30 6003 H 555.489 -2.96681 -1.36558 0
M  V30 6004 H 554.148 -3.60437 0.669391 0
M  V30 6005 H 553.796 -4.8018 -1.49788 0
M  V30 6006 H 553.496 -5.87501 -0.107968 0
M  V30 6007 H 555.02 -6.01862 -1.02927 0
M  V30 6008 H 556.434 -5.6051 1.20421 0
M  V30 6009 H 554.831 -5.66022 1.99347 0
M  V30 6010 H 555.901 -4.27701 2.28474 0
M  V30 6011 N 557.244 -0.608902 -1.45362 0
M  V30 6012 C 558.491 -0.104607 -2.0223 0
M  V30 6013 C 558.819 1.26534 -1.47714 0
M  V30 6014 O 558.074 1.84855 -0.642435 0
M  V30 6015 C 558.373 -0.0167296 -3.57396 0
M  V30 6016 C 558.039 -1.32251 -4.31069 0
M  V30 6017 C 556.701 -1.68019 -4.50914 0
M  V30 6018 C 559.053 -2.18542 -4.73169 0
M  V30 6019 C 556.381 -2.89828 -5.10114 0
M  V30 6020 C 558.733 -3.39602 -5.33717 0
M  V30 6021 C 557.397 -3.7562 -5.51784 0
M  V30 6022 H 556.667 -0.0382785 -0.740011 0
M  V30 6023 H 559.314 -0.790782 -1.7441 0
M  V30 6024 H 557.619 0.752715 -3.84502 0
M  V30 6025 H 559.316 0.389634 -3.99103 0
M  V30 6026 H 555.906 -1.03411 -4.15938 0
M  V30 6027 H 560.09 -1.92208 -4.5757 0
M  V30 6028 H 555.346 -3.17839 -5.22291 0
M  V30 6029 H 559.52 -4.06716 -5.65292 0
M  V30 6030 H 557.147 -4.70093 -5.97425 0
M  V30 6031 N 558.722 1.53707 -0.348139 0
M  V30 6032 C 560.138 1.596 0.00361134 0
M  V30 6033 C 560.338 1.36394 1.4832 0
M  V30 6034 O 559.394 1.16046 2.24253 0
M  V30 6035 C 560.707 2.97512 -0.436682 0
M  V30 6036 C 562.255 3.10568 -0.389416 0
M  V30 6037 C 562.73 4.50866 -0.805249 0
M  V30 6038 N 564.221 4.56929 -0.759616 0
M  V30 6039 C 564.956 5.63643 -1.05327 0
M  V30 6040 N 564.452 6.78189 -1.41531 0
M  V30 6041 N 566.245 5.5354 -0.977207 0
M  V30 6042 H 558.396 1.67044 -1.31187 0
M  V30 6043 H 560.659 0.782559 -0.535075 0
M  V30 6044 H 560.365 3.19575 -1.46849 0
M  V30 6045 H 560.239 3.76742 0.185744 0
M  V30 6046 H 562.626 2.88226 0.633228 0
M  V30 6047 H 562.707 2.33387 -1.04711 0
M  V30 6048 H 562.351 4.73943 -1.82593 0
M  V30 6049 H 562.281 5.26452 -0.124989 0
M  V30 6050 H 564.772 3.74675 -0.49265 0
M  V30 6051 H 565.085 7.55541 -1.62411 0
M  V30 6052 H 563.43 6.79624 -1.45381 0
M  V30 6053 H 566.621 4.62932 -0.693675 0
M  V30 6054 H 566.794 6.36614 -1.2094 0
M  V30 6055 N 560.2 0.0768682 1.57412 0
M  V30 6056 C 561.13 -0.886026 2.16037 0
M  V30 6057 C 562.111 -1.30691 1.08876 0
M  V30 6058 O 563.296 -1.37705 1.36934 0
M  V30 6059 C 560.426 -2.1518 2.72608 0
M  V30 6060 C 559.38 -1.87015 3.8498 0
M  V30 6061 C 558.706 -3.20266 4.28175 0
M  V30 6062 C 560.006 -1.17143 5.08994 0
M  V30 6063 H 561.7 -0.397642 2.96748 0
M  V30 6064 H 559.246 -0.189823 1.42743 0
M  V30 6065 H 561.199 -2.82962 3.12266 0
M  V30 6066 H 559.923 -2.66269 1.89125 0
M  V30 6067 H 558.582 -1.21636 3.45833 0
M  V30 6068 H 558.23 -3.69207 3.41607 0
M  V30 6069 H 557.93 -3.0221 5.03927 0
M  V30 6070 H 559.454 -3.89237 4.70454 0
M  V30 6071 H 560.868 -1.75003 5.45937 0
M  V30 6072 H 559.265 -1.09328 5.90057 0
M  V30 6073 H 560.335 -0.151295 4.84664 0
M  V30 6074 N 561.678 -1.56367 -0.196722 0
M  V30 6075 C 562.611 -1.89475 -1.2718 0
M  V30 6076 C 563.589 -0.754667 -1.44026 0
M  V30 6077 O 564.773 -1.00551 -1.59442 0
M  V30 6078 C 561.9 -2.12352 -2.63864 0
M  V30 6079 C 560.946 -3.35053 -2.63897 0
M  V30 6080 S 561.779 -4.90228 -2.15492 0
M  V30 6081 C 562.935 -5.16171 -3.54004 0
M  V30 6082 H 563.168 -2.80365 -0.989075 0
M  V30 6083 H 560.701 -1.49125 -0.40014 0
M  V30 6084 H 562.659 -2.26214 -3.42545 0
M  V30 6085 H 561.32 -1.22214 -2.89349 0
M  V30 6086 H 560.513 -3.48182 -3.64397 0
M  V30 6087 H 560.115 -3.20176 -1.93296 0
M  V30 6088 H 562.407 -5.06591 -4.49857 0
M  V30 6089 H 563.35 -6.17938 -3.45771 0
M  V30 6090 H 563.758 -4.43814 -3.48841 0
M  V30 6091 N 563.156 0.464375 -1.50603 0
M  V30 6092 C 564.384 1.23907 -1.65695 0
M  V30 6093 C 564.799 1.85658 -0.343027 0
M  V30 6094 O 564.156 1.69529 0.675739 0
M  V30 6095 C 564.207 2.3429 -2.75301 0
M  V30 6096 O 563.928 1.7507 -4.01599 0
M  V30 6097 C 565.429 3.25051 -3.01424 0
M  V30 6098 H 562.649 0.374485 -0.556778 0
M  V30 6099 H 565.193 0.55353 -1.96866 0
M  V30 6100 H 563.348 2.98607 -2.46804 0
M  V30 6101 H 563.762 2.47812 -4.62266 0
M  V30 6102 H 565.236 3.98699 -3.81763 0
M  V30 6103 H 565.713 3.84227 -2.12758 0
M  V30 6104 H 566.319 2.66463 -3.31477 0
M  V30 6105 N 564.634 1.40294 0.718013 0
M  V30 6106 C 565.566 1.36281 1.84283 0
M  V30 6107 C 566.579 0.268621 1.60569 0
M  V30 6108 O 567.768 0.528798 1.70487 0
M  V30 6109 C 564.868 1.09741 3.2064 0
M  V30 6110 C 564.041 2.30767 3.71571 0
M  V30 6111 C 563.1 2.00424 4.86535 0
M  V30 6112 O 562.126 2.73268 4.99313 0
M  V30 6113 N 563.328 0.980724 5.72156 0
M  V30 6114 H 566.093 2.3322 1.88225 0
M  V30 6115 H 563.654 1.34616 0.899453 0
M  V30 6116 H 565.646 0.874322 3.95143 0
M  V30 6117 H 564.216 0.214771 3.11861 0
M  V30 6118 H 563.436 2.68921 2.88228 0
M  V30 6119 H 564.724 3.11455 4.02335 0
M  V30 6120 H 564.122 0.377375 5.6444 0
M  V30 6121 H 562.679 0.817538 6.46653 0
M  V30 6122 N 566.112 -0.949982 1.2575 0
M  V30 6123 C 567.389 -1.6718 1.01539 0
M  V30 6124 C 567.769 -2.06095 -0.456942 0
M  V30 6125 O 567.117 -1.77792 -1.43534 0
M  V30 6126 C 567.327 -2.8906 1.95564 0
M  V30 6127 C 568.675 -3.60909 2.23673 0
M  V30 6128 O 569.699 -2.9915 1.9336 0
M  V30 6129 O 568.558 -4.72127 2.75243 0
M  V30 6130 H 565.652 -0.731697 0.385419 0
M  V30 6131 H 568.198 -1.00249 1.36924 0
M  V30 6132 H 566.97 -2.57128 2.94959 0
M  V30 6133 H 566.593 -3.63719 1.60605 0
M  V30 6134 N 567.59 -1.07411 -1.15328 0
M  V30 6135 C 568.837 -0.797649 -1.86128 0
M  V30 6136 C 569.165 0.676298 -1.82364 0
M  V30 6137 O 568.42 1.51223 -1.24218 0
M  V30 6138 C 568.719 -1.25191 -3.34757 0
M  V30 6139 C 568.385 -2.73191 -3.58716 0
M  V30 6140 C 567.047 -3.13616 -3.64964 0
M  V30 6141 C 569.399 -3.68718 -3.6837 0
M  V30 6142 C 566.727 -4.48383 -3.78377 0
M  V30 6143 C 569.079 -5.03248 -3.83306 0
M  V30 6144 C 567.743 -5.43293 -3.878 0
M  V30 6145 H 567.013 -0.29188 -0.681092 0
M  V30 6146 H 569.66 -1.34524 -1.36292 0
M  V30 6147 H 567.965 -0.623712 -3.86804 0
M  V30 6148 H 569.662 -1.01489 -3.87945 0
M  V30 6149 H 566.252 -2.40898 -3.54494 0
M  V30 6150 H 570.436 -3.38614 -3.62842 0
M  V30 6151 H 565.692 -4.78877 -3.80114 0
M  V30 6152 H 569.866 -5.77142 -3.89718 0
M  V30 6153 H 567.493 -6.47721 -3.97946 0
M  V30 6154 N 569.068 1.32177 -0.85831 0
M  V30 6155 C 570.314 1.97813 -0.47346 0
M  V30 6156 C 570.669 1.66674 0.961122 0
M  V30 6157 O 569.962 0.94657 1.66585 0
M  V30 6158 C 570.156 3.51372 -0.653658 0
M  V30 6159 C 569.985 3.97433 -2.1042 0
M  V30 6160 C 568.755 4.24338 -2.74345 0
M  V30 6161 C 570.953 4.12233 -3.0752 0
M  V30 6162 N 568.935 4.56672 -4.10272 0
M  V30 6163 C 570.306 4.48146 -4.28445 0
M  V30 6164 C 572.361 3.94577 -3.03667 0
M  V30 6165 C 571.064 4.68246 -5.4602 0
M  V30 6166 C 573.09 4.15864 -4.20489 0
M  V30 6167 C 572.452 4.52098 -5.40173 0
M  V30 6168 H 568.551 0.749808 -0.222061 0
M  V30 6169 H 571.135 1.59927 -1.11047 0
M  V30 6170 H 569.306 3.88372 -0.0463267 0
M  V30 6171 H 571.038 4.03998 -0.238343 0
M  V30 6172 H 567.793 4.16544 -2.25362 0
M  V30 6173 H 568.217 4.77019 -4.80398 0
M  V30 6174 H 572.859 3.65662 -2.12252 0
M  V30 6175 H 570.577 4.96014 -6.37962 0
M  V30 6176 H 574.163 4.03702 -4.18947 0
M  V30 6177 H 573.043 4.68238 -6.29065 0
M  V30 6178 N 570.547 0.616602 1.45037 0
M  V30 6179 C 571.457 -0.0985401 2.34393 0
M  V30 6180 C 572.473 -0.850971 1.51771 0
M  V30 6181 O 573.649 -0.806521 1.84546 0
M  V30 6182 C 570.714 -1.07748 3.29532 0
M  V30 6183 C 569.775 -0.326022 4.2806 0
M  V30 6184 C 569.008 -1.25833 5.18654 0
M  V30 6185 O 569.231 -2.49652 5.12864 0
M  V30 6186 O 568.165 -0.750512 5.97203 0
M  V30 6187 H 571.991 0.636016 2.96966 0
M  V30 6188 H 569.576 0.376832 1.44569 0
M  V30 6189 H 571.458 -1.64107 3.88133 0
M  V30 6190 H 570.133 -1.79291 2.69512 0
M  V30 6191 H 569.04 0.280253 3.73049 0
M  V30 6192 H 570.373 0.349091 4.9096 0
M  V30 6193 N 572.025 -1.5352 0.356285 0
M  V30 6194 C 572.973 -2.26945 -0.50978 0
M  V30 6195 C 573.967 -1.29569 -1.09125 0
M  V30 6196 O 575.173 -1.47231 -1.03552 0
M  V30 6197 H 571.548 -0.729368 -0.183102 0
M  V30 6198 H 573.519 -2.98111 0.131374 0
M  V30 6199 C 572.268 -3.06466 -1.64237 0
M  V30 6200 H 571.591 -3.81233 -1.20423 0
M  V30 6201 H 573.031 -3.61035 -2.22327 0
M  V30 6202 C 571.49 -2.16737 -2.57928 0
M  V30 6203 O 572.02 -1.77195 -3.60507 0
M  V30 6204 N 570.226 -1.81558 -2.26903 0
M  V30 6205 H 569.773 -2.13913 -1.43524 0
M  V30 6206 H 569.731 -1.21806 -2.89846 0
M  V30 6207 N 573.503 -0.0852151 -1.57369 0
M  V30 6208 C 574.433 0.874556 -2.16503 0
M  V30 6209 C 575.414 1.30111 -1.09568 0
M  V30 6210 O 576.599 1.36977 -1.37662 0
M  V30 6211 C 573.729 2.13731 -2.73745 0
M  V30 6212 C 572.683 1.84971 -3.85966 0
M  V30 6213 C 572.009 3.17991 -4.29867 0
M  V30 6214 C 573.309 1.14442 -5.09608 0
M  V30 6215 H 575.003 0.381899 -2.96954 0
M  V30 6216 H 572.549 0.18225 -1.42842 0
M  V30 6217 H 574.502 2.81302 -3.13763 0
M  V30 6218 H 573.226 2.65263 -1.90534 0
M  V30 6219 H 571.885 1.19801 -3.46473 0
M  V30 6220 H 571.533 3.6739 -3.4356 0
M  V30 6221 H 571.233 2.99534 -5.05523 0
M  V30 6222 H 572.757 3.86737 -4.72511 0
M  V30 6223 H 574.171 1.72105 -5.46857 0
M  V30 6224 H 572.568 1.06197 -5.90629 0
M  V30 6225 H 573.638 0.12559 -4.84737 0
M  V30 6226 N 574.981 1.5647 0.188427 0
M  V30 6227 C 576.211 1.84863 0.922463 0
M  V30 6228 C 576.619 0.666413 1.77075 0
M  V30 6229 O 575.962 -0.374044 1.79852 0
M  V30 6230 C 576.024 3.07447 1.86324 0
M  V30 6231 C 575.688 4.41066 1.19625 0
M  V30 6232 C 576.685 5.16767 0.569946 0
M  V30 6233 C 574.37 4.87802 1.19811 0
M  V30 6234 C 576.364 6.37384 -0.045594 0
M  V30 6235 C 574.051 6.08353 0.57874 0
M  V30 6236 C 575.049 6.82987 -0.0420259 0
M  V30 6237 O 574.737 8.01254 -0.651675 0
M  V30 6238 H 574.469 0.61784 0.274316 0
M  V30 6239 H 577.023 2.04437 0.198613 0
M  V30 6240 H 575.253 2.83774 2.62696 0
M  V30 6241 H 576.942 3.2243 2.46564 0
M  V30 6242 H 577.708 4.81749 0.560601 0
M  V30 6243 H 573.587 4.29662 1.67069 0
M  V30 6244 H 577.131 6.95578 -0.530731 0
M  V30 6245 H 573.028 6.42838 0.58561 0
M  V30 6246 H 573.796 8.16655 -0.549236 0
M  V30 6247 N 576.459 -0.456382 1.50847 0
M  V30 6248 C 577.391 -1.57033 1.66953 0
M  V30 6249 C 578.404 -1.53207 0.550593 0
M  V30 6250 O 579.593 -1.58328 0.824285 0
M  V30 6251 C 576.693 -2.95937 1.65149 0
M  V30 6252 C 575.866 -3.24475 2.93317 0
M  V30 6253 C 574.925 -4.43007 2.83957 0
M  V30 6254 O 573.951 -4.42592 3.57912 0
M  V30 6255 N 575.153 -5.45503 1.9851 0
M  V30 6256 H 577.918 -1.43629 2.63042 0
M  V30 6257 H 575.479 -0.645037 1.48495 0
M  V30 6258 H 577.471 -3.73224 1.56481 0
M  V30 6259 H 576.041 -3.03036 0.767343 0
M  V30 6260 H 575.261 -2.35664 3.16 0
M  V30 6261 H 576.549 -3.4036 3.78196 0
M  V30 6262 H 575.947 -5.48668 1.37766 0
M  V30 6263 H 574.504 -6.21716 1.95735 0
M  V30 6264 N 577.937 -1.40673 -0.710563 0
M  V30 6265 C 578.867 -1.44095 -1.83736 0
M  V30 6266 C 579.848 -0.301286 -1.67411 0
M  V30 6267 O 581.033 -0.510618 -1.87367 0
M  V30 6268 C 578.163 -1.30773 -3.21738 0
M  V30 6269 C 577.117 -2.42395 -3.52745 0
M  V30 6270 C 576.443 -2.14147 -4.89944 0
M  V30 6271 C 577.743 -3.84738 -3.53234 0
M  V30 6272 H 579.437 -2.38396 -1.81129 0
M  V30 6273 H 576.983 -1.14746 -0.870017 0
M  V30 6274 H 578.936 -1.31783 -4.00264 0
M  V30 6275 H 577.66 -0.329507 -3.24934 0
M  V30 6276 H 576.319 -2.40643 -2.76562 0
M  V30 6277 H 575.967 -1.14703 -4.89747 0
M  V30 6278 H 575.667 -2.88934 -5.11655 0
M  V30 6279 H 577.191 -2.16848 -5.70797 0
M  V30 6280 H 578.605 -3.88286 -4.2179 0
M  V30 6281 H 577.002 -4.59085 -3.86473 0
M  V30 6282 H 578.072 -4.13962 -2.52514 0
M  V30 6283 N 579.415 0.9433 -1.26252 0
M  V30 6284 C 580.643 1.72367 -1.14443 0
M  V30 6285 C 581.058 1.86392 0.300572 0
M  V30 6286 O 580.415 1.36978 1.20596 0
M  V30 6287 C 580.466 3.13155 -1.806 0
M  V30 6288 O 580.187 2.99803 -3.19452 0
M  V30 6289 C 581.688 4.07417 -1.74717 0
M  V30 6290 H 578.908 0.539758 -0.398626 0
M  V30 6291 H 581.452 1.18268 -1.66832 0
M  V30 6292 H 579.607 3.64162 -1.32154 0
M  V30 6293 H 580.021 3.88697 -3.52158 0
M  V30 6294 H 581.495 5.03773 -2.25647 0
M  V30 6295 H 581.972 4.3337 -0.713244 0
M  V30 6296 H 582.578 3.6233 -2.22704 0
M  V30 6297 N 580.893 1.08022 1.14757 0
M  V30 6298 C 581.823 0.728248 2.21853 0
M  V30 6299 C 582.804 -0.287486 1.67653 0
M  V30 6300 O 583.989 -0.158727 1.9355 0
M  V30 6301 C 581.119 0.132549 3.47047 0
M  V30 6302 C 580.073 1.07619 4.14249 0
M  V30 6303 C 579.399 0.342907 5.33599 0
M  V30 6304 C 580.699 2.41268 4.63235 0
M  V30 6305 H 582.393 1.62365 2.51551 0
M  V30 6306 H 579.939 0.782125 1.20908 0
M  V30 6307 H 581.892 -0.125665 4.21213 0
M  V30 6308 H 580.616 -0.797971 3.16702 0
M  V30 6309 H 579.275 1.31944 3.42033 0
M  V30 6310 H 578.923 -0.59129 4.99513 0
M  V30 6311 H 578.623 0.971955 5.79506 0
M  V30 6312 H 580.147 0.0926538 6.1053 0
M  V30 6313 H 581.561 2.21232 5.28894 0
M  V30 6314 H 579.958 2.9983 5.19829 0
M  V30 6315 H 581.028 3.03079 3.78512 0
M  V30 6316 N 582.371 -1.3172 0.865308 0
M  V30 6317 C 583.787 -1.4958 0.556596 0
M  V30 6318 C 583.987 -1.79763 -0.910353 0
M  V30 6319 O 583.043 -1.87351 -1.6928 0
M  V30 6320 C 584.356 -2.63277 1.45279 0
M  V30 6321 C 585.904 -2.77161 1.45433 0
M  V30 6322 C 586.379 -3.93949 2.33598 0
M  V30 6323 N 587.87 -4.01228 2.31453 0
M  V30 6324 C 588.605 -4.90855 2.96393 0
M  V30 6325 N 588.101 -5.85416 3.70486 0
M  V30 6326 N 589.894 -4.84063 2.85726 0
M  V30 6327 H 582.045 -1.10396 1.81456 0
M  V30 6328 H 584.308 -0.54507 0.775631 0
M  V30 6329 H 584.014 -2.47734 2.49641 0
M  V30 6330 H 583.888 -3.59309 1.14792 0
M  V30 6331 H 586.275 -2.9212 0.41831 0
M  V30 6332 H 586.356 -1.8181 1.79941 0
M  V30 6333 H 586 -3.79748 3.37274 0
M  V30 6334 H 585.93 -4.88598 1.96417 0
M  V30 6335 H 588.421 -3.3357 1.77593 0
M  V30 6336 H 588.734 -6.50525 4.17178 0
M  V30 6337 H 587.079 -5.85409 3.74594 0
M  V30 6338 H 590.27 -4.09163 2.27384 0
M  V30 6339 H 590.443 -5.53708 3.36617 0
M  V30 6340 N 583.85 -0.624285 -1.44708 0
M  V30 6341 C 584.812 0.0749638 -2.29077 0
M  V30 6342 C 585.812 0.778965 -1.40673 0
M  V30 6343 O 587.003 0.624591 -1.62618 0
M  V30 6344 C 584.135 1.11663 -3.22094 0
M  V30 6345 H 585.327 -0.667013 -2.92388 0
M  V30 6346 H 582.88 -0.384098 -1.51507 0
M  V30 6347 H 583.615 1.88881 -2.63618 0
M  V30 6348 H 583.401 0.61583 -3.87234 0
M  V30 6349 H 584.891 1.60585 -3.8549 0
M  V30 6350 N 585.328 1.53329 -0.364422 0
M  V30 6351 C 586.291 2.24323 0.470292 0
M  V30 6352 C 587.291 1.25068 1.01067 0
M  V30 6353 O 588.481 1.49354 0.896605 0
M  V30 6354 C 585.613 2.97908 1.65722 0
M  V30 6355 H 586.806 2.9952 -0.150917 0
M  V30 6356 H 584.359 1.55868 -0.116092 0
M  V30 6357 H 585.094 2.2695 2.31655 0
M  V30 6358 H 584.879 3.70732 1.27671 0
M  V30 6359 H 586.369 3.5188 2.24878 0
M  V30 6360 N 586.806 0.0935595 1.57322 0
M  V30 6361 C 588.054 -0.569383 1.93913 0
M  V30 6362 C 588.375 -1.68817 0.976009 0
M  V30 6363 O 587.645 -1.9588 0.0278099 0
M  V30 6364 H 586.225 -0.21332 0.715894 0
M  V30 6365 H 588.887 0.156531 1.9427 0
M  V30 6366 H 587.983 -0.980577 2.96296 0
M  V30 6367 N 588.284 -1.56567 -0.180126 0
M  V30 6368 C 589.231 -1.95725 -1.22313 0
M  V30 6369 C 590.201 -0.819911 -1.44453 0
M  V30 6370 O 591.386 -1.07931 -1.57339 0
M  V30 6371 C 588.526 -2.31484 -2.55947 0
M  V30 6372 C 587.639 -3.58354 -2.4126 0
M  V30 6373 C 586.774 -3.83366 -3.67701 0
M  V30 6374 C 585.813 -5.03612 -3.47909 0
M  V30 6375 N 584.95 -5.24802 -4.66398 0
M  V30 6376 H 589.79 -2.84642 -0.882198 0
M  V30 6377 H 587.327 -1.4085 -0.42422 0
M  V30 6378 H 589.285 -2.50237 -3.33822 0
M  V30 6379 H 587.915 -1.45689 -2.88053 0
M  V30 6380 H 586.967 -3.47565 -1.54606 0
M  V30 6381 H 588.279 -4.46386 -2.22577 0
M  V30 6382 H 587.433 -4.02439 -4.54013 0
M  V30 6383 H 586.172 -2.93692 -3.89353 0
M  V30 6384 H 585.177 -4.84447 -2.59983 0
M  V30 6385 H 586.402 -5.94809 -3.27688 0
M  V30 6386 H 584.348 -4.38079 -4.88286 0
M  V30 6387 H 584.265 -6.07041 -4.50596 0
M  V30 6388 H 585.533 -5.48346 -5.54019 0
M  V30 6389 N 589.762 0.448376 -1.51087 0
M  V30 6390 C 590.99 1.22143 -1.66999 0
M  V30 6391 C 591.405 1.85283 -0.362699 0
M  V30 6392 O 590.762 1.70236 0.65772 0
M  V30 6393 C 590.813 2.31357 -2.7777 0
M  V30 6394 O 590.534 1.70801 -4.03434 0
M  V30 6395 C 592.035 3.21836 -3.04855 0
M  V30 6396 H 589.255 0.368558 -0.560719 0
M  V30 6397 H 591.799 0.532618 -1.97442 0
M  V30 6398 H 589.954 2.95973 -2.49958 0
M  V30 6399 H 590.368 2.42895 -4.64868 0
M  V30 6400 H 591.842 3.94627 -3.85971 0
M  V30 6401 H 592.319 3.81949 -2.16821 0
M  V30 6402 H 592.925 2.62933 -3.34285 0
M  V30 6403 N 591.24 1.41047 0.703093 0
M  V30 6404 C 592.47 1.43133 1.48985 0
M  V30 6405 C 592.878 0.0328537 1.89171 0
M  V30 6406 O 592.221 -0.956469 1.56835 0
M  V30 6407 C 592.283 2.26991 2.78775 0
M  V30 6408 C 591.947 3.7525 2.60837 0
M  V30 6409 C 592.944 4.67591 2.27276 0
M  V30 6410 C 590.629 4.19208 2.76712 0
M  V30 6411 C 592.623 6.01877 2.09817 0
M  V30 6412 C 590.31 5.53561 2.5887 0
M  V30 6413 C 591.308 6.4471 2.25472 0
M  V30 6414 O 590.996 7.76584 2.07778 0
M  V30 6415 H 590.728 0.489788 0.465922 0
M  V30 6416 H 593.282 1.85886 0.873822 0
M  V30 6417 H 591.512 1.79038 3.42757 0
M  V30 6418 H 593.201 2.20867 3.40547 0
M  V30 6419 H 593.967 4.34923 2.14633 0
M  V30 6420 H 589.846 3.48572 3.01693 0
M  V30 6421 H 593.39 6.72986 1.83671 0
M  V30 6422 H 589.287 5.85811 2.71102 0
M  V30 6423 H 590.055 7.87649 2.22601 0
M  V30 6424 N 592.718 -0.936591 1.26751 0
M  V30 6425 C 593.651 -2.03619 1.03027 0
M  V30 6426 C 594.629 -1.62534 -0.0464619 0
M  V30 6427 O 595.813 -1.88251 0.0968873 0
M  V30 6428 C 592.94 -3.3402 0.561072 0
M  V30 6429 C 591.986 -3.9408 1.63105 0
M  V30 6430 S 592.819 -4.27782 3.22122 0
M  V30 6431 C 593.975 -5.61277 2.76982 0
M  V30 6432 H 594.208 -2.23429 1.96129 0
M  V30 6433 H 591.741 -1.07857 1.10482 0
M  V30 6434 H 593.699 -4.09424 0.297031 0
M  V30 6435 H 592.36 -3.12147 -0.349741 0
M  V30 6436 H 591.553 -4.88154 1.25386 0
M  V30 6437 H 591.155 -3.25227 1.84671 0
M  V30 6438 H 593.447 -6.40189 2.21731 0
M  V30 6439 H 594.39 -6.03887 3.69766 0
M  V30 6440 H 594.798 -5.21374 2.16402 0
M  V30 6441 N 594.196 -1.08629 -1.14182 0
M  V30 6442 C 595.445 -0.812271 -1.84621 0
M  V30 6443 C 595.758 0.664313 -1.83973 0
M  V30 6444 O 596.964 1.05357 -2.50224 0
M  V30 6445 C 595.42 -1.4031 -3.31423 0
M  V30 6446 C 595.028 -2.91164 -3.40481 0
M  V30 6447 C 596.772 -1.20767 -4.06959 0
M  V30 6448 C 594.679 -3.43373 -4.81507 0
M  V30 6449 H 593.609 -0.30019 -0.691666 0
M  V30 6450 H 596.26 -1.30798 -1.28701 0
M  V30 6451 H 594.642 -0.835096 -3.87094 0
M  V30 6452 H 595.816 -3.5412 -2.94848 0
M  V30 6453 H 594.131 -3.09646 -2.78403 0
M  V30 6454 H 596.728 -1.57237 -5.11058 0
M  V30 6455 H 597.071 -0.147664 -4.16038 0
M  V30 6456 H 597.604 -1.74274 -3.57594 0
M  V30 6457 H 594.343 -4.48958 -4.77616 0
M  V30 6458 H 593.863 -2.85176 -5.27669 0
M  V30 6459 H 595.542 -3.40095 -5.50404 0
M  V30 6460 N 595.674 1.31259 -0.872281 0
M  V30 6461 C 596.921 1.96622 -0.484365 0
M  V30 6462 C 597.249 1.68939 0.963841 0
M  V30 6463 O 596.504 0.97974 1.6941 0
M  V30 6464 C 596.803 3.50659 -0.690889 0
M  V30 6465 C 596.469 3.98366 -2.11224 0
M  V30 6466 C 595.131 4.11104 -2.50094 0
M  V30 6467 C 597.483 4.23425 -3.0391 0
M  V30 6468 C 594.811 4.46254 -3.80887 0
M  V30 6469 C 597.163 4.60039 -4.3422 0
M  V30 6470 C 595.827 4.70984 -4.73001 0
M  V30 6471 H 595.097 0.71949 -0.177242 0
M  V30 6472 H 597.744 1.56353 -1.10571 0
M  V30 6473 H 596.049 3.91798 0.0135782 0
M  V30 6474 H 597.746 3.99284 -0.370534 0
M  V30 6475 H 594.336 3.88949 -1.80047 0
M  V30 6476 H 598.52 4.13075 -2.75104 0
M  V30 6477 H 593.776 4.52926 -4.10692 0
M  V30 6478 H 597.95 4.78381 -5.06088 0
M  V30 6479 H 595.577 4.97977 -5.7439 0
M  V30 6480 N 597.152 0.631951 1.44375 0
M  V30 6481 C 598.399 0.136767 2.02038 0
M  V30 6482 C 598.727 -1.24168 1.49709 0
M  V30 6483 O 597.982 -1.83809 0.671763 0
M  V30 6484 C 598.281 0.0735861 3.57324 0
M  V30 6485 C 597.947 1.39092 4.28911 0
M  V30 6486 C 596.609 1.75171 4.48184 0
M  V30 6487 C 598.961 2.26042 4.69632 0
M  V30 6488 C 596.289 2.97907 5.05439 0
M  V30 6489 C 598.641 3.4805 5.28246 0
M  V30 6490 C 597.305 3.84351 5.45738 0
M  V30 6491 H 596.575 0.0500466 0.739308 0
M  V30 6492 H 599.222 0.818429 1.7313 0
M  V30 6493 H 597.527 -0.691449 3.8565 0
M  V30 6494 H 599.224 -0.326091 3.99672 0
M  V30 6495 H 595.814 1.10015 4.1424 0
M  V30 6496 H 599.998 1.99463 4.54454 0
M  V30 6497 H 595.254 3.26108 5.17169 0
M  V30 6498 H 599.428 4.15658 5.5875 0
M  V30 6499 H 597.055 4.79538 5.8987 0
M  V30 6500 N 598.631 -1.53133 0.372548 0
M  V30 6501 C 599.877 -2.01654 -0.215277 0
M  V30 6502 C 600.21 -1.25914 -1.47849 0
M  V30 6503 O 599.485 -0.3548 -1.91237 0
M  V30 6504 C 599.768 -3.56609 -0.500187 0
M  V30 6505 C 599.621 -4.43036 0.777145 0
M  V30 6506 C 600.94 -4.20528 -1.29786 0
M  V30 6507 H 598.059 -0.732991 -0.0767686 0
M  V30 6508 H 600.701 -1.83335 0.498814 0
M  V30 6509 H 598.851 -3.7235 -1.10852 0
M  V30 6510 H 600.523 -4.39079 1.41447 0
M  V30 6511 H 598.766 -4.10723 1.39604 0
M  V30 6512 H 599.437 -5.49424 0.532662 0
M  V30 6513 H 601.913 -4.08663 -0.783198 0
M  V30 6514 H 600.789 -5.28962 -1.46596 0
M  V30 6515 H 601.05 -3.77051 -2.30836 0
M  V30 6516 N 600.109 -0.101901 -1.5727 0
M  V30 6517 C 601.039 0.851544 -2.17419 0
M  V30 6518 C 602.02 1.28942 -1.10941 0
M  V30 6519 O 603.205 1.35509 -1.39107 0
M  V30 6520 C 600.335 2.10816 -2.75996 0
M  V30 6521 C 599.289 1.80867 -3.87906 0
M  V30 6522 C 598.615 3.13413 -4.33216 0
M  V30 6523 C 599.915 1.0903 -5.10793 0
M  V30 6524 H 601.609 0.350381 -2.97343 0
M  V30 6525 H 599.155 0.16709 -1.43027 0
M  V30 6526 H 601.108 2.77959 -3.16729 0
M  V30 6527 H 599.832 2.63227 -1.93337 0
M  V30 6528 H 598.491 1.16119 -3.47724 0
M  V30 6529 H 598.139 3.63725 -3.47438 0
M  V30 6530 H 597.839 2.94155 -5.08671 0
M  V30 6531 H 599.363 3.81704 -4.76586 0
M  V30 6532 H 600.777 1.66295 -5.48652 0
M  V30 6533 H 599.174 0.99927 -5.91722 0
M  V30 6534 H 600.244 0.0741704 -4.84843 0
M  V30 6535 N 601.587 1.56661 0.17182 0
M  V30 6536 C 602.833 1.82235 0.889845 0
M  V30 6537 C 603.166 0.679673 1.81918 0
M  V30 6538 O 602.441 -0.318404 1.91876 0
M  V30 6539 C 602.724 3.18195 1.68595 0
M  V30 6540 C 602.577 4.42989 0.779773 0
M  V30 6541 C 603.896 3.5109 2.65375 0
M  V30 6542 H 601.015 0.66291 0.322056 0
M  V30 6543 H 603.657 1.89358 0.15608 0
M  V30 6544 H 601.807 3.12253 2.3115 0
M  V30 6545 H 603.479 4.60997 0.16714 0
M  V30 6546 H 601.722 4.33711 0.0877964 0
M  V30 6547 H 602.393 5.3467 1.3723 0
M  V30 6548 H 604.869 3.57482 2.12946 0
M  V30 6549 H 603.745 4.47298 3.18144 0
M  V30 6550 H 604.006 2.75768 3.45549 0
M  V30 6551 N 603.065 -0.440357 1.51323 0
M  V30 6552 C 604.314 -1.18697 1.63076 0
M  V30 6553 C 604.627 -1.92418 0.35136 0
M  V30 6554 O 605.833 -2.69258 0.348221 0
M  V30 6555 C 604.289 -2.15849 2.87988 0
M  V30 6556 C 603.897 -1.47789 4.22921 0
M  V30 6557 C 605.641 -2.90962 3.09098 0
M  V30 6558 C 603.548 -2.43407 5.38987 0
M  V30 6559 H 602.478 -0.44676 0.607389 0
M  V30 6560 H 605.129 -0.454313 1.77787 0
M  V30 6561 H 603.511 -2.92537 2.66905 0
M  V30 6562 H 604.685 -0.7668 4.54375 0
M  V30 6563 H 603 -0.848404 4.07665 0
M  V30 6564 H 605.597 -3.62584 3.92985 0
M  V30 6565 H 605.94 -3.52133 2.22053 0
M  V30 6566 H 606.473 -2.21381 3.30507 0
M  V30 6567 H 603.212 -1.86929 6.28282 0
M  V30 6568 H 602.732 -3.12579 5.11913 0
M  V30 6569 H 604.411 -3.046 5.70813 0
M  V30 6570 N 604.543 -1.41418 -0.695603 0
M  V30 6571 C 605.79 -1.40774 -1.45564 0
M  V30 6572 C 606.118 -0.0168604 -1.94493 0
M  V30 6573 O 605.373 0.971259 -1.69897 0
M  V30 6574 C 605.672 -2.36112 -2.68302 0
M  V30 6575 C 605.338 -3.82952 -2.38031 0
M  V30 6576 C 604 -4.22954 -2.29486 0
M  V30 6577 C 606.352 -4.75662 -2.13061 0
M  V30 6578 C 603.68 -5.53674 -1.94067 0
M  V30 6579 C 606.032 -6.06702 -1.79151 0
M  V30 6580 C 604.696 -6.45725 -1.69102 0
M  V30 6581 H 603.966 -0.515128 -0.532658 0
M  V30 6582 H 606.613 -1.74216 -0.795047 0
M  V30 6583 H 604.918 -1.95924 -3.39295 0
M  V30 6584 H 606.615 -2.32887 -3.26442 0
M  V30 6585 H 603.205 -3.5127 -2.45576 0
M  V30 6586 H 607.389 -4.45561 -2.18608 0
M  V30 6587 H 602.645 -5.8279 -1.8484 0
M  V30 6588 H 606.819 -6.78041 -1.5885 0
M  V30 6589 H 604.446 -7.46929 -1.41426 0
M  V30 6590 N 606.021 0.929856 -1.27246 0
M  V30 6591 C 606.951 2.04722 -1.12299 0
M  V30 6592 C 607.932 1.70082 -0.0250464 0
M  V30 6593 O 609.117 1.93176 -0.199141 0
M  V30 6594 C 606.247 3.38721 -0.767145 0
M  V30 6595 C 605.201 3.87466 -1.81808 0
M  V30 6596 C 604.527 5.18246 -1.31626 0
M  V30 6597 C 605.827 4.11095 -3.22177 0
M  V30 6598 H 607.521 2.17485 -2.05769 0
M  V30 6599 H 605.067 1.04503 -0.990715 0
M  V30 6600 H 607.02 4.16366 -0.649413 0
M  V30 6601 H 605.744 3.25967 0.203259 0
M  V30 6602 H 604.403 3.12012 -1.92468 0
M  V30 6603 H 604.051 5.01881 -0.335378 0
M  V30 6604 H 603.751 5.51829 -2.01887 0
M  V30 6605 H 605.275 5.98462 -1.21143 0
M  V30 6606 H 606.689 4.79316 -3.1453 0
M  V30 6607 H 605.086 4.55982 -3.90129 0
M  V30 6608 H 606.156 3.16468 -3.67391 0
M  V30 6609 N 607.499 1.09233 1.13605 0
M  V30 6610 C 608.747 0.825525 1.84471 0
M  V30 6611 C 609.068 -0.650702 1.83823 0
M  V30 6612 O 608.338 -1.47204 1.29259 0
M  V30 6613 H 606.918 0.3024 0.683054 0
M  V30 6614 H 609.58 1.38006 1.37624 0
M  V30 6615 H 608.676 1.17727 2.89045 0
M  V30 6616 N 608.977 -1.30795 0.87923 0
M  V30 6617 C 610.202 -2.01063 0.508769 0
M  V30 6618 C 610.627 -1.65508 -0.893803 0
M  V30 6619 O 609.985 -0.868616 -1.59138 0
M  V30 6620 C 610.033 -3.54054 0.683991 0
M  V30 6621 O 609.137 -4.11498 -0.272654 0
M  V30 6622 H 608.478 -0.632786 0.201191 0
M  V30 6623 H 611.008 -1.66776 1.18519 0
M  V30 6624 H 611.018 -4.03845 0.580798 0
M  V30 6625 H 609.693 -3.79271 1.70665 0
M  V30 6626 H 608.27 -3.72695 -0.12364 0
M  V30 6627 N 610.455 -0.639598 -1.44038 0
M  V30 6628 C 611.702 -0.14748 -2.01962 0
M  V30 6629 C 612.03 1.23372 -1.50365 0
M  V30 6630 O 611.285 1.8345 -0.681501 0
M  V30 6631 C 611.584 -0.0925348 -3.5728 0
M  V30 6632 C 611.25 -1.41365 -4.28167 0
M  V30 6633 C 609.912 -1.77545 -4.47248 0
M  V30 6634 C 612.264 -2.2853 -4.68427 0
M  V30 6635 C 609.592 -3.00583 -5.03852 0
M  V30 6636 C 611.944 -3.50846 -5.26393 0
M  V30 6637 C 610.608 -3.8724 -5.43692 0
M  V30 6638 H 609.878 -0.0539666 -0.739032 0
M  V30 6639 H 612.525 -0.827599 -1.72694 0
M  V30 6640 H 610.83 0.670987 -3.86012 0
M  V30 6641 H 612.527 0.304891 -3.99839 0
M  V30 6642 H 609.117 -1.1221 -4.13651 0
M  V30 6643 H 613.301 -2.0187 -4.5339 0
M  V30 6644 H 608.557 -3.28846 -5.15432 0
M  V30 6645 H 612.731 -4.18616 -5.56537 0
M  V30 6646 H 610.358 -4.8266 -5.87319 0
M  V30 6647 N 611.933 1.52934 -0.380664 0
M  V30 6648 C 613.163 2.05587 0.204302 0
M  V30 6649 C 613.571 1.25288 1.41773 0
M  V30 6650 O 612.914 0.290394 1.8139 0
M  V30 6651 C 612.976 3.53624 0.647324 0
M  V30 6652 C 612.64 4.54765 -0.451465 0
M  V30 6653 C 613.637 5.03226 -1.30614 0
M  V30 6654 C 611.322 4.98508 -0.616025 0
M  V30 6655 C 613.316 5.94046 -2.31058 0
M  V30 6656 C 611.003 5.89131 -1.62381 0
M  V30 6657 C 612.001 6.36792 -2.46952 0
M  V30 6658 O 611.689 7.25626 -3.46009 0
M  V30 6659 H 611.421 0.675013 0.0365198 0
M  V30 6660 H 613.975 1.98125 -0.541827 0
M  V30 6661 H 612.205 3.58676 1.44529 0
M  V30 6662 H 613.894 3.89061 1.15698 0
M  V30 6663 H 614.66 4.70167 -1.19027 0
M  V30 6664 H 610.539 4.60989 0.0324987 0
M  V30 6665 H 614.083 6.3117 -2.97104 0
M  V30 6666 H 609.98 6.21603 -1.7401 0
M  V30 6667 H 610.748 7.43664 -3.41916 0
M  V30 6668 N 613.412 0.11024 1.57214 0
M  V30 6669 C 614.342 -0.840002 2.17867 0
M  V30 6670 C 615.323 -1.28352 1.11624 0
M  V30 6671 O 616.508 -1.3477 1.39824 0
M  V30 6672 C 613.638 -2.09349 2.77111 0
M  V30 6673 C 612.592 -1.78807 3.8886 0
M  V30 6674 C 611.918 -3.11112 4.34872 0
M  V30 6675 C 613.218 -1.0632 5.11364 0
M  V30 6676 H 614.912 -0.334608 2.97524 0
M  V30 6677 H 612.458 -0.159502 1.43114 0
M  V30 6678 H 614.411 -2.76275 3.18198 0
M  V30 6679 H 613.135 -2.62198 1.9473 0
M  V30 6680 H 611.794 -1.14273 3.48335 0
M  V30 6681 H 611.442 -3.61877 3.49362 0
M  V30 6682 H 611.142 -2.91453 5.10224 0
M  V30 6683 H 612.666 -3.79171 4.78604 0
M  V30 6684 H 614.08 -1.63383 5.49526 0
M  V30 6685 H 612.477 -0.967876 5.92243 0
M  V30 6686 H 613.547 -0.0484569 4.84876 0
M  V30 6687 N 614.89 -1.56749 -0.16351 0
M  V30 6688 C 616.139 -1.81626 -0.877211 0
M  V30 6689 C 616.452 -0.688791 -1.83071 0
M  V30 6690 O 617.658 -0.822697 -2.58735 0
M  V30 6691 C 616.114 -3.21858 -1.61045 0
M  V30 6692 C 615.722 -4.42494 -0.700195 0
M  V30 6693 C 617.466 -3.56021 -2.31192 0
M  V30 6694 C 615.373 -5.73748 -1.43412 0
M  V30 6695 H 614.303 -0.67731 -0.331312 0
M  V30 6696 H 616.954 -1.83039 -0.13006 0
M  V30 6697 H 615.336 -3.14784 -2.40264 0
M  V30 6698 H 616.51 -4.60766 0.0555849 0
M  V30 6699 H 614.825 -4.1626 -0.10799 0
M  V30 6700 H 617.422 -4.51333 -2.8671 0
M  V30 6701 H 617.765 -2.81277 -3.06902 0
M  V30 6702 H 618.298 -3.64682 -1.58909 0
M  V30 6703 H 615.037 -6.51543 -0.719186 0
M  V30 6704 H 614.557 -5.5944 -2.16302 0
M  V30 6705 H 616.236 -6.15975 -1.9795 0
M  V30 6706 N 616.368 0.432326 -1.51554 0
M  V30 6707 C 617.316 1.54572 -1.73811 0
M  V30 6708 C 618.31 1.58246 -0.604539 0
M  V30 6709 O 619.516 1.6193 -0.786041 0
M  V30 6710 H 615.891 0.513626 -0.549265 0
M  V30 6711 H 617.862 1.32977 -2.67132 0
M  V30 6712 C 616.611 2.92181 -1.88483 0
M  V30 6713 H 615.934 2.90088 -2.75116 0
M  V30 6714 H 617.374 3.69439 -2.08065 0
M  V30 6715 C 615.833 3.3065 -0.645909 0
M  V30 6716 O 616.363 4.01216 0.197093 0
M  V30 6717 N 614.569 2.86464 -0.488538 0
M  V30 6718 H 614.116 2.29209 -1.17562 0
M  V30 6719 H 614.074 3.12565 0.339156 0
M  V30 6720 N 617.846 1.41785 0.688094 0
M  V30 6721 C 618.776 1.47 1.8142 0
M  V30 6722 C 619.757 0.327881 1.6691 0
M  V30 6723 O 620.942 0.540362 1.86531 0
M  V30 6724 C 618.072 1.35876 3.19617 0
M  V30 6725 C 617.026 2.47976 3.48844 0
M  V30 6726 C 616.352 2.21915 4.86475 0
M  V30 6727 C 617.652 3.90309 3.47068 0
M  V30 6728 H 619.346 2.41247 1.77314 0
M  V30 6729 H 616.892 1.16116 0.851651 0
M  V30 6730 H 618.845 1.38134 3.98117 0
M  V30 6731 H 617.569 0.38116 3.24368 0
M  V30 6732 H 616.228 2.45013 2.72698 0
M  V30 6733 H 615.876 1.2248 4.8786 0
M  V30 6734 H 615.576 2.97037 5.06994 0
M  V30 6735 H 617.1 2.25901 5.67275 0
M  V30 6736 H 618.514 3.94947 4.1556 0
M  V30 6737 H 616.911 4.65175 3.7912 0
M  V30 6738 H 617.981 4.17927 2.45896 0
M  V30 6739 N 619.324 -0.923095 1.27737 0
M  V30 6740 C 620.573 -1.66581 1.13727 0
M  V30 6741 C 620.886 -1.9304 -0.315433 0
M  V30 6742 O 622.092 -2.65309 -0.57651 0
M  V30 6743 C 620.548 -3.00047 1.98745 0
M  V30 6744 C 620.156 -2.8127 3.48699 0
M  V30 6745 C 621.9 -3.77887 1.93395 0
M  V30 6746 C 619.807 -4.1032 4.25901 0
M  V30 6747 H 618.737 -0.624834 0.422017 0
M  V30 6748 H 621.388 -1.02514 1.52194 0
M  V30 6749 H 619.77 -3.65197 1.53125 0
M  V30 6750 H 620.944 -2.24859 4.02213 0
M  V30 6751 H 619.259 -2.16854 3.55476 0
M  V30 6752 H 621.856 -4.73526 2.48348 0
M  V30 6753 H 622.199 -4.06264 0.908605 0
M  V30 6754 H 622.732 -3.19541 2.36935 0
M  V30 6755 H 619.471 -3.8712 5.28978 0
M  V30 6756 H 618.991 -4.66377 3.77163 0
M  V30 6757 H 620.67 -4.78648 4.35321 0
M  V30 6758 N 620.802 -1.09834 -1.13024 0
M  V30 6759 C 621.732 -0.763451 -2.20666 0
M  V30 6760 C 622.713 0.260778 -1.68089 0
M  V30 6761 O 623.898 0.127915 -1.93778 0
M  V30 6762 C 621.028 -0.187744 -3.46792 0
M  V30 6763 C 619.982 -1.14196 -4.12484 0
M  V30 6764 C 619.308 -0.427755 -5.32986 0
M  V30 6765 C 620.608 -2.48607 -4.59338 0
M  V30 6766 H 622.302 -1.66347 -2.48936 0
M  V30 6767 H 619.848 -0.801261 -1.19649 0
M  V30 6768 H 621.801 0.0586375 -4.21359 0
M  V30 6769 H 620.525 0.747485 -3.17931 0
M  V30 6770 H 619.184 -1.37369 -3.3989 0
M  V30 6771 H 618.832 0.511747 -5.0039 0
M  V30 6772 H 618.532 -1.06403 -5.77886 0
M  V30 6773 H 620.056 -0.189772 -6.10305 0
M  V30 6774 H 621.47 -2.29618 -5.25308 0
M  V30 6775 H 619.867 -3.08062 -5.14993 0
M  V30 6776 H 620.937 -3.09062 -3.73642 0
M  V30 6777 N 622.28 1.30327 -0.886154 0
M  V30 6778 C 623.243 2.26376 -0.358687 0
M  V30 6779 C 624.243 1.52845 0.499498 0
M  V30 6780 O 625.433 1.71483 0.306485 0
M  V30 6781 C 622.565 3.37379 0.488726 0
M  V30 6782 H 623.758 2.74547 -1.20681 0
M  V30 6783 H 621.311 1.41536 -0.663113 0
M  V30 6784 H 622.046 2.94526 1.35739 0
M  V30 6785 H 621.831 3.91897 -0.126003 0
M  V30 6786 H 623.321 4.08868 0.84952 0
M  V30 6787 N 623.758 0.647228 1.43697 0
M  V30 6788 C 625.004 0.158422 2.0218 0
M  V30 6789 C 625.337 -1.22233 1.50907 0
M  V30 6790 O 624.612 -1.81478 0.699702 0
M  V30 6791 C 624.895 0.1627 3.59732 0
M  V30 6792 C 624.748 1.57694 4.21251 0
M  V30 6793 C 626.067 -0.504138 4.37203 0
M  V30 6794 H 623.186 0.059042 0.734631 0
M  V30 6795 H 625.828 0.826772 1.71069 0
M  V30 6796 H 623.978 -0.406414 3.86368 0
M  V30 6797 H 625.65 2.19618 4.05667 0
M  V30 6798 H 623.893 2.12603 3.7813 0
M  V30 6799 H 624.564 1.53183 5.3032 0
M  V30 6800 H 627.04 -0.0199841 4.16095 0
M  V30 6801 H 625.916 -0.470394 5.46881 0
M  V30 6802 H 626.177 -1.57726 4.13007 0
M  V30 6803 N 625.236 -1.5273 0.388769 0
M  V30 6804 C 626.482 -2.01871 -0.193877 0
M  V30 6805 C 626.815 -1.27475 -1.46505 0
M  V30 6806 O 626.09 -0.375063 -1.90849 0
M  V30 6807 C 626.373 -3.5712 -0.462336 0
M  V30 6808 C 626.226 -4.42186 0.824091 0
M  V30 6809 C 627.545 -4.21881 -1.25319 0
M  V30 6810 H 624.664 -0.733764 -0.0689899 0
M  V30 6811 H 627.306 -1.82796 0.518231 0
M  V30 6812 H 625.456 -3.73504 -1.06896 0
M  V30 6813 H 627.128 -4.37554 1.46096 0
M  V30 6814 H 625.371 -4.09219 1.43952 0
M  V30 6815 H 626.042 -5.48828 0.590905 0
M  V30 6816 H 628.518 -4.0947 -0.73981 0
M  V30 6817 H 627.394 -5.30487 -1.40977 0
M  V30 6818 H 627.655 -3.79478 -2.26824 0
M  V30 6819 N 626.714 -0.118576 -1.57153 0
M  V30 6820 C 627.677 0.817464 -2.14127 0
M  V30 6821 C 628.677 1.1949 -1.07604 0
M  V30 6822 O 629.867 1.12048 -1.33382 0
M  V30 6823 C 626.999 2.10541 -2.68115 0
M  V30 6824 H 628.192 0.322339 -2.98163 0
M  V30 6825 H 625.745 0.130655 -1.55753 0
M  V30 6826 H 626.48 2.64485 -1.87665 0
M  V30 6827 H 626.265 1.84425 -3.4602 0
M  V30 6828 H 627.755 2.77453 -3.12105 0
M  V30 6829 N 628.193 1.56834 0.155195 0
M  V30 6830 C 629.126 1.9278 1.22111 0
M  V30 6831 C 630.104 0.792588 1.41975 0
M  V30 6832 O 631.288 1.04743 1.5672 0
M  V30 6833 C 628.415 2.19273 2.58142 0
M  V30 6834 C 627.461 3.41932 2.54921 0
M  V30 6835 S 628.294 4.95769 2.02418 0
M  V30 6836 C 629.45 5.25375 3.40194 0
M  V30 6837 H 629.683 2.82889 0.914393 0
M  V30 6838 H 627.216 1.50133 0.360461 0
M  V30 6839 H 629.174 2.35217 3.36427 0
M  V30 6840 H 627.835 1.29843 2.86007 0
M  V30 6841 H 627.028 3.57721 3.55038 0
M  V30 6842 H 626.63 3.25188 1.8474 0
M  V30 6843 H 628.922 5.1834 4.36268 0
M  V30 6844 H 629.865 6.26889 3.29266 0
M  V30 6845 H 630.273 4.52906 3.36951 0
M  V30 6846 N 629.671 -0.424282 1.51781 0
M  V30 6847 C 630.634 -1.49848 1.73431 0
M  V30 6848 C 631.634 -1.49016 0.604225 0
M  V30 6849 O 632.824 -1.50808 0.871935 0
M  V30 6850 C 629.956 -2.89332 1.80277 0
M  V30 6851 H 631.149 -1.3195 2.69312 0
M  V30 6852 H 628.702 -0.653809 1.41968 0
M  V30 6853 H 629.437 -3.12618 0.862568 0
M  V30 6854 H 629.222 -2.9134 2.62419 0
M  V30 6855 H 630.712 -3.67233 1.98821 0
M  V30 6856 N 631.149 -1.42148 -0.680565 0
M  V30 6857 C 632.379 -1.45485 -1.46689 0
M  V30 6858 C 632.787 -0.0629451 -1.89095 0
M  V30 6859 O 632.13 0.931397 -1.58337 0
M  V30 6860 C 632.192 -2.31397 -2.75129 0
M  V30 6861 C 631.856 -3.79353 -2.54834 0
M  V30 6862 C 632.853 -4.71148 -2.19808 0
M  V30 6863 C 630.538 -4.23557 -2.70008 0
M  V30 6864 C 632.532 -6.05139 -2.00215 0
M  V30 6865 C 630.219 -5.57609 -2.50031 0
M  V30 6866 C 631.217 -6.48216 -2.15187 0
M  V30 6867 O 630.905 -7.79792 -1.95397 0
M  V30 6868 H 630.637 -0.497139 -0.458071 0
M  V30 6869 H 633.191 -1.87252 -0.844139 0
M  V30 6870 H 631.421 -1.84468 -3.39865 0
M  V30 6871 H 633.11 -2.26257 -3.36991 0
M  V30 6872 H 633.876 -4.38282 -2.07686 0
M  V30 6873 H 629.755 -3.53327 -2.96109 0
M  V30 6874 H 633.299 -6.75823 -1.72941 0
M  V30 6875 H 629.196 -5.9005 -2.61748 0
M  V30 6876 H 629.964 -7.91091 -2.10042 0
M  V30 6877 N 632.627 0.916307 -1.28225 0
M  V30 6878 C 633.537 2.05165 -1.13775 0
M  V30 6879 C 634.553 1.73879 -0.0649418 0
M  V30 6880 O 635.729 1.99531 -0.273722 0
M  V30 6881 C 632.794 3.37385 -0.798267 0
M  V30 6882 C 631.855 3.82296 -1.95316 0
M  V30 6883 C 631.088 5.08206 -1.62978 0
M  V30 6884 O 631.311 5.6781 -0.542948 0
M  V30 6885 O 630.245 5.48768 -2.47261 0
M  V30 6886 H 634.071 2.20273 -2.09078 0
M  V30 6887 H 631.656 1.0373 -1.07519 0
M  V30 6888 H 633.538 4.16773 -0.62278 0
M  V30 6889 H 632.213 3.23458 0.125139 0
M  V30 6890 H 631.12 3.03746 -2.18378 0
M  V30 6891 H 632.453 4.00782 -2.85718 0
M  V30 6892 N 634.105 1.10431 1.1244 0
M  V30 6893 C 635.015 0.765502 2.21759 0
M  V30 6894 C 636.031 -0.236966 1.72379 0
M  V30 6895 O 637.207 -0.0757329 2.01258 0
M  V30 6896 C 634.272 0.202316 3.46109 0
M  V30 6897 C 633.333 1.26205 4.1033 0
M  V30 6898 C 632.566 0.725648 5.28744 0
M  V30 6899 O 632.789 -0.447942 5.68638 0
M  V30 6900 O 631.723 1.48555 5.83279 0
M  V30 6901 H 635.549 1.67801 2.53133 0
M  V30 6902 H 633.134 0.879443 1.20773 0
M  V30 6903 H 635.016 -0.107918 4.21262 0
M  V30 6904 H 633.691 -0.683052 3.16411 0
M  V30 6905 H 632.598 1.62514 3.36957 0
M  V30 6906 H 633.931 2.12044 4.44183 0
M  V30 6907 N 635.583 -1.29855 0.893053 0
M  V30 6908 C 636.515 -2.26911 0.32311 0
M  V30 6909 C 637.528 -1.54039 -0.526858 0
M  V30 6910 O 638.717 -1.75132 -0.345095 0
M  V30 6911 C 635.817 -3.34266 -0.558509 0
M  V30 6912 C 634.99 -4.36601 0.264222 0
M  V30 6913 C 634.049 -5.23326 -0.549171 0
M  V30 6914 O 633.075 -5.69192 0.0309883 0
M  V30 6915 N 634.277 -5.50008 -1.85664 0
M  V30 6916 H 637.042 -2.76455 1.15726 0
M  V30 6917 H 634.603 -1.4312 0.756859 0
M  V30 6918 H 636.595 -3.89211 -1.1089 0
M  V30 6919 H 635.165 -2.8459 -1.29334 0
M  V30 6920 H 634.385 -3.81409 0.996046 0
M  V30 6921 H 635.673 -5.02019 0.827906 0
M  V30 6922 H 635.071 -5.14542 -2.35081 0
M  V30 6923 H 633.628 -6.07796 -2.35431 0
M  V30 6924 N 637.061 -0.65484 -1.43351 0
M  V30 6925 C 638.009 0.0476784 -2.32551 0
M  V30 6926 C 639.003 0.811403 -1.48703 0
M  V30 6927 O 640.209 0.721621 -1.64902 0
M  V30 6928 H 636.584 0.0342038 -0.751222 0
M  V30 6929 H 638.555 -0.722342 -2.89525 0
M  V30 6930 C 637.304 0.999251 -3.33032 0
M  V30 6931 H 636.627 0.421005 -3.97577 0
M  V30 6932 H 638.067 1.45986 -3.98076 0
M  V30 6933 C 636.526 2.09606 -2.63756 0
M  V30 6934 O 637.056 3.18004 -2.4543 0
M  V30 6935 N 635.262 1.86207 -2.23103 0
M  V30 6936 H 634.809 0.980555 -2.38208 0
M  V30 6937 H 634.767 2.59787 -1.77081 0
M  V30 6938 N 638.539 1.52521 -0.396863 0
M  V30 6939 C 639.471 2.24333 0.469814 0
M  V30 6940 C 640.484 1.2685 1.02043 0
M  V30 6941 O 641.673 1.52876 0.92147 0
M  V30 6942 C 638.773 2.95202 1.66461 0
M  V30 6943 C 637.946 4.19454 1.24003 0
M  V30 6944 C 637.005 4.73255 2.30036 0
M  V30 6945 O 636.031 5.36151 1.91131 0
M  V30 6946 N 637.233 4.53765 3.62047 0
M  V30 6947 H 639.998 2.99347 -0.145468 0
M  V30 6948 H 637.559 1.60348 -0.223606 0
M  V30 6949 H 639.551 3.28092 2.36934 0
M  V30 6950 H 638.121 2.2345 2.18607 0
M  V30 6951 H 637.341 3.92517 0.363892 0
M  V30 6952 H 638.629 5.0017 0.933135 0
M  V30 6953 H 638.027 4.03576 3.96412 0
M  V30 6954 H 636.584 4.91124 4.28533 0
M  V30 6955 N 640.017 0.126909 1.57088 0
M  V30 6956 C 640.98 -0.806097 2.14557 0
M  V30 6957 C 641.98 -1.18918 1.08236 0
M  V30 6958 O 643.17 -1.11339 1.33975 0
M  V30 6959 C 640.302 -2.09116 2.69227 0
M  V30 6960 H 641.495 -0.306522 2.98329 0
M  V30 6961 H 639.048 -0.122393 1.5582 0
M  V30 6962 H 639.783 -2.63486 1.89065 0
M  V30 6963 H 639.568 -1.82588 3.46993 0
M  V30 6964 H 641.058 -2.75794 3.13572 0
M  V30 6965 N 641.495 -1.56914 -0.146875 0
M  V30 6966 C 642.723 -1.87515 -0.874394 0
M  V30 6967 C 643.138 -0.715116 -1.74733 0
M  V30 6968 O 642.495 0.315113 -1.79759 0
M  V30 6969 C 642.546 -3.17362 -1.731 0
M  V30 6970 O 642.267 -4.28897 -0.893245 0
M  V30 6971 C 643.768 -3.61479 -2.56609 0
M  V30 6972 H 640.988 -0.621546 -0.252827 0
M  V30 6973 H 643.532 -2.04023 -0.139627 0
M  V30 6974 H 641.687 -3.02608 -2.41883 0
M  V30 6975 H 642.101 -5.03146 -1.48137 0
M  V30 6976 H 643.575 -4.5517 -3.12289 0
M  V30 6977 H 644.052 -2.86773 -3.32653 0
M  V30 6978 H 644.658 -3.78927 -1.93117 0
M  V30 6979 N 642.974 0.416227 -1.52004 0
M  V30 6980 C 643.904 1.51365 -1.77795 0
M  V30 6981 C 644.885 1.58059 -0.628601 0
M  V30 6982 O 646.07 1.73447 -0.873478 0
M  V30 6983 C 643.2 2.89256 -1.92219 0
M  V30 6984 C 642.154 2.97415 -3.0778 0
M  V30 6985 C 641.48 4.37492 -3.07417 0
M  V30 6986 C 642.78 2.69551 -4.47369 0
M  V30 6987 H 644.474 1.30033 -2.69688 0
M  V30 6988 H 642.02 0.624112 -1.29772 0
M  V30 6989 H 643.973 3.66008 -2.08845 0
M  V30 6990 H 642.697 3.11866 -0.969917 0
M  V30 6991 H 641.356 2.23107 -2.90893 0
M  V30 6992 H 641.004 4.571 -2.09925 0
M  V30 6993 H 640.704 4.43877 -3.85029 0
M  V30 6994 H 642.228 5.16188 -3.26162 0
M  V30 6995 H 643.642 3.36028 -4.64497 0
M  V30 6996 H 642.039 2.87321 -5.26846 0
M  V30 6997 H 643.109 1.65029 -4.55953 0
M  V30 6998 N 644.452 1.42507 0.673017 0
M  V30 6999 C 645.362 1.4853 1.81593 0
M  V30 7000 C 646.378 0.373907 1.69935 0
M  V30 7001 O 647.554 0.625078 1.91454 0
M  V30 7002 C 644.619 1.387 3.17747 0
M  V30 7003 C 643.68 2.60346 3.41348 0
M  V30 7004 C 642.913 2.50975 4.71007 0
M  V30 7005 O 643.136 1.54659 5.49033 0
M  V30 7006 O 642.07 3.41138 4.95892 0
M  V30 7007 H 645.896 2.45001 1.79467 0
M  V30 7008 H 643.481 1.2429 0.82899 0
M  V30 7009 H 645.363 1.35586 3.98992 0
M  V30 7010 H 644.038 0.453555 3.20507 0
M  V30 7011 H 642.945 2.69034 2.59945 0
M  V30 7012 H 644.278 3.52595 3.43421 0
M  V30 7013 N 645.93 -0.909495 1.28709 0
M  V30 7014 C 646.84 -2.04558 1.14861 0
M  V30 7015 C 647.856 -1.73842 0.0741621 0
M  V30 7016 O 649.032 -1.99383 0.2843 0
M  V30 7017 C 646.097 -3.36957 0.816148 0
M  V30 7018 C 645.158 -3.81255 1.97341 0
M  V30 7019 C 644.391 -5.07335 1.65671 0
M  V30 7020 O 644.614 -5.67514 0.573053 0
M  V30 7021 O 643.548 -5.47449 2.50167 0
M  V30 7022 H 647.374 -2.19161 2.10243 0
M  V30 7023 H 644.959 -1.03159 1.08068 0
M  V30 7024 H 646.841 -4.16436 0.644873 0
M  V30 7025 H 645.516 -3.2352 -0.107983 0
M  V30 7026 H 644.423 -3.02584 2.19986 0
M  V30 7027 H 645.756 -3.99261 2.87839 0
M  V30 7028 N 647.408 -1.11026 -1.11852 0
M  V30 7029 C 648.371 -0.768006 -2.1595 0
M  V30 7030 C 649.371 0.210538 -1.59416 0
M  V30 7031 O 650.561 -0.0133978 -1.74195 0
M  V30 7032 C 647.693 -0.138678 -3.40618 0
M  V30 7033 H 648.886 -1.69012 -2.4774 0
M  V30 7034 H 646.439 -0.911578 -1.26964 0
M  V30 7035 H 647.174 0.793872 -3.14433 0
M  V30 7036 H 646.959 -0.843012 -3.8293 0
M  V30 7037 H 648.449 0.0848039 -4.17514 0
M  V30 7038 N 648.886 1.2938 -0.899927 0
M  V30 7039 C 649.796 2.31462 -0.382437 0
M  V30 7040 C 650.812 1.65956 0.522929 0
M  V30 7041 O 651.988 1.97131 0.412454 0
M  V30 7042 C 649.053 3.44595 0.381472 0
M  V30 7043 C 648.114 4.25692 -0.555444 0
M  V30 7044 C 647.347 5.33422 0.172102 0
M  V30 7045 O 647.57 5.53053 1.396 0
M  V30 7046 O 646.504 5.99939 -0.485491 0
M  V30 7047 H 650.33 2.77706 -1.22934 0
M  V30 7048 H 647.915 1.33821 -0.664259 0
M  V30 7049 H 649.797 4.13474 0.813442 0
M  V30 7050 H 648.472 3.00458 1.20443 0
M  V30 7051 H 647.379 3.59453 -1.03653 0
M  V30 7052 H 648.712 4.73471 -1.34483 0
M  V30 7053 N 650.364 0.662433 1.43002 0
M  V30 7054 C 651.296 -0.062326 2.29115 0
M  V30 7055 C 652.309 -0.777926 1.43011 0
M  V30 7056 O 653.498 -0.634146 1.66856 0
M  V30 7057 C 650.598 -1.11163 3.2015 0
M  V30 7058 C 649.771 -0.472327 4.34842 0
M  V30 7059 C 648.83 -1.41974 5.06685 0
M  V30 7060 O 647.856 -0.924795 5.61637 0
M  V30 7061 N 649.058 -2.75345 5.11043 0
M  V30 7062 H 651.823 0.676838 2.91957 0
M  V30 7063 H 649.384 0.505907 1.53793 0
M  V30 7064 H 651.376 -1.74643 3.65078 0
M  V30 7065 H 649.946 -1.75266 2.58845 0
M  V30 7066 H 649.166 0.341751 3.92716 0
M  V30 7067 H 650.454 -0.0264381 5.08793 0
M  V30 7068 H 649.852 -3.18108 4.67786 0
M  V30 7069 H 648.409 -3.34105 5.59658 0
M  V30 7070 N 651.842 -1.52309 0.404946 0
M  V30 7071 C 652.789 -2.26898 -0.422597 0
M  V30 7072 C 653.759 -1.2914 -1.04461 0
M  V30 7073 O 654.944 -1.57996 -1.06967 0
M  V30 7074 C 652.084 -3.09053 -1.53559 0
M  V30 7075 C 651.197 -4.21762 -0.934908 0
M  V30 7076 C 650.332 -4.91283 -2.02025 0
M  V30 7077 C 649.371 -5.95962 -1.39628 0
M  V30 7078 N 648.508 -6.59017 -2.42159 0
M  V30 7079 H 653.348 -2.97188 0.219903 0
M  V30 7080 H 650.885 -1.46607 0.120282 0
M  V30 7081 H 652.843 -3.54987 -2.19181 0
M  V30 7082 H 651.473 -2.40942 -2.14818 0
M  V30 7083 H 650.525 -3.80029 -0.167854 0
M  V30 7084 H 651.837 -4.96864 -0.439073 0
M  V30 7085 H 650.991 -5.40601 -2.75383 0
M  V30 7086 H 649.73 -4.15741 -2.54973 0
M  V30 7087 H 648.735 -5.45968 -0.648023 0
M  V30 7088 H 649.96 -6.73445 -0.874553 0
M  V30 7089 H 647.906 -5.86306 -2.94247 0
M  V30 7090 H 647.823 -7.2978 -1.97376 0
M  V30 7091 H 649.091 -7.12974 -3.15099 0
M  V30 7092 N 653.32 -0.135238 -1.57019 0
M  V30 7093 C 654.23 0.822226 -2.19719 0
M  V30 7094 C 655.246 1.28057 -1.17802 0
M  V30 7095 O 656.422 1.3402 -1.50335 0
M  V30 7096 C 653.487 2.0484 -2.79717 0
M  V30 7097 C 652.548 1.64042 -3.96723 0
M  V30 7098 C 651.781 2.80814 -4.53849 0
M  V30 7099 O 652.004 3.967 -4.0986 0
M  V30 7100 O 650.938 2.56963 -5.44292 0
M  V30 7101 H 654.764 0.318552 -3.02025 0
M  V30 7102 H 652.349 0.0912021 -1.49121 0
M  V30 7103 H 654.231 2.76622 -3.17897 0
M  V30 7104 H 652.906 2.54182 -2.00432 0
M  V30 7105 H 651.813 0.893182 -3.63281 0
M  V30 7106 H 653.146 1.19426 -4.77492 0
M  V30 7107 N 654.798 1.5699 0.138552 0
M  V30 7108 C 655.761 1.97984 1.15478 0
M  V30 7109 C 656.761 0.867416 1.35398 0
M  V30 7110 O 657.951 1.13387 1.32246 0
M  V30 7111 C 655.083 2.3031 2.51337 0
M  V30 7112 H 656.276 2.88953 0.802896 0
M  V30 7113 H 653.829 1.51555 0.382189 0
M  V30 7114 H 654.564 1.42159 2.91481 0
M  V30 7115 H 654.349 3.11425 2.38237 0
M  V30 7116 H 655.839 2.62834 3.24512 0
M  V30 7117 N 656.276 -0.40816 1.52223 0
M  V30 7118 C 657.186 -1.52202 1.78526 0
M  V30 7119 C 658.202 -1.60546 0.670892 0
M  V30 7120 O 659.378 -1.77242 0.956404 0
M  V30 7121 C 656.443 -2.87928 1.93128 0
M  V30 7122 C 655.504 -2.89463 3.17033 0
M  V30 7123 C 654.737 -4.18715 3.30929 0
M  V30 7124 O 654.96 -5.12662 2.50067 0
M  V30 7125 O 653.894 -4.27125 4.24084 0
M  V30 7126 H 657.72 -1.32911 2.73072 0
M  V30 7127 H 655.305 -0.594112 1.37079 0
M  V30 7128 H 657.187 -3.68426 2.04549 0
M  V30 7129 H 655.862 -3.07285 1.01772 0
M  V30 7130 H 654.769 -2.07815 3.11069 0
M  V30 7131 H 656.102 -2.75055 4.08174 0
M  V30 7132 N 657.755 -1.42862 -0.66545 0
M  V30 7133 C 659.002 -1.4383 -1.42546 0
M  V30 7134 C 659.33 -0.0581114 -1.94413 0
M  V30 7135 O 658.585 0.935002 -1.71919 0
M  V30 7136 C 658.884 -2.4175 -2.63233 0
M  V30 7137 C 658.55 -3.87915 -2.29854 0
M  V30 7138 C 657.212 -4.27726 -2.20463 0
M  V30 7139 C 659.564 -4.80074 -2.02924 0
M  V30 7140 C 656.892 -5.57666 -1.82279 0
M  V30 7141 C 659.244 -6.10366 -1.66242 0
M  V30 7142 C 657.908 -6.49167 -1.55367 0
M  V30 7143 H 657.178 -0.52631 -0.521612 0
M  V30 7144 H 659.825 -1.75863 -0.757914 0
M  V30 7145 H 658.13 -2.03077 -3.35063 0
M  V30 7146 H 659.827 -2.39759 -3.21429 0
M  V30 7147 H 656.417 -3.564 -2.3807 0
M  V30 7148 H 660.601 -4.50097 -2.09108 0
M  V30 7149 H 655.857 -5.8658 -1.72436 0
M  V30 7150 H 660.031 -6.81258 -1.44432 0
M  V30 7151 H 657.658 -7.49761 -1.2555 0
M  V30 7152 N 659.233 0.902656 -1.29189 0
M  V30 7153 C 660.165 2.01149 -1.09872 0
M  V30 7154 C 661.178 1.62732 -0.0471046 0
M  V30 7155 O 662.367 1.76107 -0.29132 0
M  V30 7156 C 659.467 3.32612 -0.649818 0
M  V30 7157 C 658.64 3.99574 -1.7793 0
M  V30 7158 C 657.699 5.09325 -1.32191 0
M  V30 7159 O 656.725 5.31919 -2.02611 0
M  V30 7160 N 657.927 5.80185 -0.191171 0
M  V30 7161 H 660.692 2.18276 -2.05368 0
M  V30 7162 H 658.253 1.07466 -1.2109 0
M  V30 7163 H 660.245 4.03375 -0.327199 0
M  V30 7164 H 658.815 3.11876 0.212597 0
M  V30 7165 H 658.035 3.22213 -2.27095 0
M  V30 7166 H 659.323 4.41056 -2.53668 0
M  V30 7167 H 658.721 5.64312 0.396016 0
M  V30 7168 H 657.278 6.5176 0.0721001 0
M  V30 7169 N 660.711 1.11618 1.11262 0
M  V30 7170 C 661.643 0.734015 2.17129 0
M  V30 7171 C 662.656 -0.235243 1.61091 0
M  V30 7172 O 663.845 -0.0178597 1.78491 0
M  V30 7173 C 660.945 0.0643682 3.38839 0
M  V30 7174 C 660.118 1.06092 4.24339 0
M  V30 7175 C 659.177 0.420482 5.24517 0
M  V30 7176 O 658.203 1.07495 5.58957 0
M  V30 7177 N 659.405 -0.815828 5.74739 0
M  V30 7178 H 662.17 1.64492 2.50524 0
M  V30 7179 H 659.731 1.00664 1.26801 0
M  V30 7180 H 661.723 -0.375851 4.02951 0
M  V30 7181 H 660.293 -0.749147 3.03491 0
M  V30 7182 H 659.513 1.67903 3.56654 0
M  V30 7183 H 660.801 1.73507 4.78302 0
M  V30 7184 H 660.199 -1.36668 5.48943 0
M  V30 7185 H 658.756 -1.199 6.40677 0
M  V30 7186 N 662.189 -1.289 0.906776 0
M  V30 7187 C 663.122 -2.25737 0.334362 0
M  V30 7188 C 664.1 -1.52745 -0.557474 0
M  V30 7189 O 665.284 -1.81673 -0.502697 0
M  V30 7190 C 662.411 -3.34642 -0.522716 0
M  V30 7191 C 661.457 -4.25424 0.302777 0
M  V30 7192 S 662.29 -5.07629 1.70508 0
M  V30 7193 C 663.446 -6.20031 0.855118 0
M  V30 7194 H 663.679 -2.73941 1.15514 0
M  V30 7195 H 661.212 -1.37233 0.707573 0
M  V30 7196 H 663.17 -3.97845 -1.01141 0
M  V30 7197 H 661.831 -2.85119 -1.31781 0
M  V30 7198 H 661.024 -5.02767 -0.352257 0
M  V30 7199 H 660.626 -3.66908 0.724873 0
M  V30 7200 H 662.918 -6.77451 0.0816418 0
M  V30 7201 H 663.861 -6.89767 1.60087 0
M  V30 7202 H 664.269 -5.63035 0.406375 0
M  V30 7203 N 663.667 -0.670007 -1.42649 0
M  V30 7204 C 664.597 -0.00258501 -2.335 0
M  V30 7205 C 665.578 0.794364 -1.50412 0
M  V30 7206 O 666.763 0.75248 -1.79029 0
M  V30 7207 C 663.893 0.952748 -3.33976 0
M  V30 7208 C 662.847 0.264733 -4.2718 0
M  V30 7209 C 662.173 1.33267 -5.17826 0
M  V30 7210 C 663.473 -0.853289 -5.15283 0
M  V30 7211 H 665.167 -0.761326 -2.89559 0
M  V30 7212 H 662.713 -0.367561 -1.3923 0
M  V30 7213 H 664.666 1.4287 -3.96442 0
M  V30 7214 H 663.39 1.74285 -2.7621 0
M  V30 7215 H 662.049 -0.190938 -3.66102 0
M  V30 7216 H 661.697 2.11464 -4.5639 0
M  V30 7217 H 661.397 0.877476 -5.81011 0
M  V30 7218 H 662.921 1.80965 -5.83167 0
M  V30 7219 H 664.335 -0.458763 -5.71462 0
M  V30 7220 H 662.732 -1.23398 -5.87276 0
M  V30 7221 H 663.802 -1.70412 -4.53969 0
M  V30 7222 N 665.145 1.52092 -0.413018 0
M  V30 7223 C 666.055 2.30858 0.417318 0
M  V30 7224 C 667.071 1.38746 1.05003 0
M  V30 7225 O 668.247 1.71821 1.05069 0
M  V30 7226 C 665.312 3.11756 1.51687 0
M  V30 7227 C 664.373 4.19613 0.906825 0
M  V30 7228 C 663.606 4.96644 1.95399 0
M  V30 7229 O 663.829 4.7402 3.17271 0
M  V30 7230 O 662.763 5.81385 1.55805 0
M  V30 7231 H 666.589 3.02865 -0.225028 0
M  V30 7232 H 664.174 1.48358 -0.176126 0
M  V30 7233 H 666.056 3.62122 2.15512 0
M  V30 7234 H 664.731 2.42539 2.14375 0
M  V30 7235 H 663.638 3.73385 0.231183 0
M  V30 7236 H 664.971 4.91134 0.323814 0
M  V30 7237 N 666.623 0.143563 1.56945 0
M  V30 7238 C 667.555 -0.828353 2.13708 0
M  V30 7239 C 668.568 -1.21313 1.08568 0
M  V30 7240 O 669.757 -1.1578 1.35857 0
M  V30 7241 C 666.857 -2.12248 2.64204 0
M  V30 7242 C 666.03 -1.90561 3.93707 0
M  V30 7243 C 665.089 -3.03931 4.29549 0
M  V30 7244 O 664.115 -2.75772 4.97934 0
M  V30 7245 N 665.317 -4.31016 3.88852 0
M  V30 7246 H 668.082 -0.343242 2.97728 0
M  V30 7247 H 665.643 -0.0401152 1.6185 0
M  V30 7248 H 667.635 -2.87132 2.85197 0
M  V30 7249 H 666.205 -2.52033 1.84928 0
M  V30 7250 H 665.425 -0.997327 3.81375 0
M  V30 7251 H 666.713 -1.73405 4.78339 0
M  V30 7252 H 666.111 -4.56762 3.33743 0
M  V30 7253 H 664.668 -5.02691 4.14903 0
M  V30 7254 N 668.101 -1.57061 -0.130224 0
M  V30 7255 C 669.031 -2.02552 -1.16168 0
M  V30 7256 C 670.012 -0.907971 -1.4384 0
M  V30 7257 O 671.197 -1.17693 -1.54473 0
M  V30 7258 C 668.327 -2.42035 -2.49071 0
M  V30 7259 C 667.281 -3.5713 -2.35886 0
M  V30 7260 C 666.607 -3.82478 -3.7365 0
M  V30 7261 C 667.907 -4.89236 -1.8288 0
M  V30 7262 H 669.601 -2.8897 -0.783359 0
M  V30 7263 H 667.147 -1.39021 -0.375376 0
M  V30 7264 H 669.1 -2.72462 -3.21469 0
M  V30 7265 H 667.824 -1.52573 -2.88771 0
M  V30 7266 H 666.483 -3.26895 -1.65938 0
M  V30 7267 H 666.131 -2.9024 -4.10816 0
M  V30 7268 H 665.831 -4.59944 -3.65685 0
M  V30 7269 H 667.355 -4.15347 -4.47571 0
M  V30 7270 H 668.769 -5.18272 -2.45085 0
M  V30 7271 H 667.166 -5.70624 -1.85763 0
M  V30 7272 H 668.236 -4.78494 -0.785571 0
M  V30 7273 N 669.579 0.400081 -1.52437 0
M  V30 7274 C 670.526 1.48803 -1.76426 0
M  V30 7275 C 671.496 1.5461 -0.607032 0
M  V30 7276 O 672.681 1.71041 -0.845563 0
M  V30 7277 C 669.821 2.86156 -1.92896 0
M  V30 7278 C 668.934 2.89587 -3.20567 0
M  V30 7279 C 668.069 4.18296 -3.27417 0
M  V30 7280 C 667.108 4.15736 -4.49255 0
M  V30 7281 N 666.245 5.36032 -4.53447 0
M  V30 7282 H 671.085 1.27649 -2.69276 0
M  V30 7283 H 668.622 0.619451 -1.33421 0
M  V30 7284 H 670.58 3.65901 -2.00429 0
M  V30 7285 H 669.21 3.05785 -1.03418 0
M  V30 7286 H 668.262 2.02278 -3.22161 0
M  V30 7287 H 669.574 2.83562 -4.10358 0
M  V30 7288 H 668.728 5.06439 -3.34072 0
M  V30 7289 H 667.467 4.27028 -2.35581 0
M  V30 7290 H 666.472 3.25982 -4.42737 0
M  V30 7291 H 667.697 4.08636 -5.42396 0
M  V30 7292 H 665.643 5.45415 -3.64498 0
M  V30 7293 H 665.56 5.32038 -5.37096 0
M  V30 7294 H 666.828 6.26104 -4.64343 0
M  V30 7295 N 671.057 1.43213 0.657864 0
M  V30 7296 C 672.004 1.48011 1.77092 0
M  V30 7297 C 672.974 0.330291 1.62783 0
M  V30 7298 O 674.159 0.536787 1.83094 0
M  V30 7299 C 671.299 1.40461 3.15222 0
M  V30 7300 C 670.412 2.65612 3.40697 0
M  V30 7301 C 669.547 2.50083 4.68649 0
M  V30 7302 C 668.586 3.70525 4.87214 0
M  V30 7303 N 667.723 3.53835 6.0642 0
M  V30 7304 H 672.563 2.43121 1.72326 0
M  V30 7305 H 670.1 1.20687 0.841013 0
M  V30 7306 H 672.058 1.34079 3.95068 0
M  V30 7307 H 670.688 0.489359 3.19069 0
M  V30 7308 H 669.74 2.82292 2.54982 0
M  V30 7309 H 671.052 3.5509 3.50303 0
M  V30 7310 H 670.206 2.41383 5.56614 0
M  V30 7311 H 668.945 1.58121 4.61356 0
M  V30 7312 H 667.95 3.79639 3.97686 0
M  V30 7313 H 669.175 4.63489 4.96341 0
M  V30 7314 H 667.121 2.64604 6.00267 0
M  V30 7315 H 667.038 4.36912 6.16963 0
M  V30 7316 H 668.306 3.48978 6.97019 0
M  V30 7317 N 672.536 -0.895792 1.29666 0
M  V30 7318 C 673.468 -2.00563 1.10937 0
M  V30 7319 C 674.481 -1.62705 0.055734 0
M  V30 7320 O 675.67 -1.7595 0.300656 0
M  V30 7321 C 672.77 -3.32262 0.667448 0
M  V30 7322 C 671.943 -3.98625 1.80047 0
M  V30 7323 C 671.002 -5.08617 1.3489 0
M  V30 7324 O 670.028 -5.30837 2.05429 0
M  V30 7325 N 671.23 -5.80076 0.221937 0
M  V30 7326 H 673.995 -2.17184 2.06522 0
M  V30 7327 H 671.556 -1.06822 1.21658 0
M  V30 7328 H 673.548 -4.03196 0.348586 0
M  V30 7329 H 672.118 -3.11985 -0.196055 0
M  V30 7330 H 671.338 -3.21005 2.28801 0
M  V30 7331 H 672.626 -4.39704 2.56003 0
M  V30 7332 H 672.024 -5.64514 -0.366084 0
M  V30 7333 H 670.581 -6.51789 -0.0375346 0
M  V30 7334 N 674.014 -1.12206 -1.10668 0
M  V30 7335 C 674.946 -0.74552 -2.16736 0
M  V30 7336 C 675.959 0.226696 -1.61214 0
M  V30 7337 O 677.148 0.0083936 -1.78498 0
M  V30 7338 C 674.248 -0.0823368 -3.388 0
M  V30 7339 C 673.421 -1.08341 -4.2377 0
M  V30 7340 C 672.48 -0.448292 -5.24287 0
M  V30 7341 O 671.506 -1.10458 -5.58379 0
M  V30 7342 N 672.708 0.785336 -5.75163 0
M  V30 7343 H 675.473 -1.65818 -2.49649 0
M  V30 7344 H 673.034 -1.01335 -1.26265 0
M  V30 7345 H 675.026 0.354476 -4.03145 0
M  V30 7346 H 673.596 0.733041 -3.03884 0
M  V30 7347 H 672.816 -1.69792 -3.55759 0
M  V30 7348 H 674.104 -1.76042 -4.77375 0
M  V30 7349 H 673.502 1.33755 -5.4966 0
M  V30 7350 H 672.059 1.16501 -6.41304 0
M  V30 7351 N 675.492 1.28418 -0.913599 0
M  V30 7352 C 676.402 2.31043 -0.406965 0
M  V30 7353 C 677.418 1.66501 0.505298 0
M  V30 7354 O 678.594 1.97558 0.391522 0
M  V30 7355 C 675.659 3.4498 0.344901 0
M  V30 7356 C 674.72 4.25078 -0.600563 0
M  V30 7357 C 673.953 5.33575 0.115516 0
M  V30 7358 O 674.176 5.54503 1.33727 0
M  V30 7359 O 673.11 5.9939 -0.549095 0
M  V30 7360 H 676.936 2.76387 -1.25873 0
M  V30 7361 H 674.521 1.33109 -0.678415 0
M  V30 7362 H 676.403 4.14314 0.769542 0
M  V30 7363 H 675.078 3.01719 1.1725 0
M  V30 7364 H 673.985 3.58334 -1.0746 0
M  V30 7365 H 675.318 4.72018 -1.39497 0
M  V30 7366 N 676.97 0.677563 1.42291 0
M  V30 7367 C 677.88 0.000962654 2.346 0
M  V30 7368 C 678.896 -0.785833 1.55244 0
M  V30 7369 O 680.072 -0.727523 1.87801 0
M  V30 7370 C 677.137 -0.936746 3.33805 0
M  V30 7371 C 676.198 -0.144173 4.29058 0
M  V30 7372 C 675.431 -1.03722 5.23524 0
M  V30 7373 O 675.654 -2.27675 5.22992 0
M  V30 7374 O 674.588 -0.496542 5.99848 0
M  V30 7375 H 678.414 0.761397 2.94001 0
M  V30 7376 H 675.999 0.43781 1.42841 0
M  V30 7377 H 677.881 -1.47497 3.94744 0
M  V30 7378 H 676.556 -1.67698 2.76874 0
M  V30 7379 H 675.463 0.438224 3.71524 0
M  V30 7380 H 676.796 0.55701 4.89038 0
M  V30 7381 N 678.448 -1.51871 0.421078 0
M  V30 7382 C 679.411 -2.25914 -0.386712 0
M  V30 7383 C 680.411 -1.28733 -0.963555 0
M  V30 7384 O 681.601 -1.52579 -0.840556 0
M  V30 7385 C 678.733 -3.03853 -1.54551 0
M  V30 7386 H 679.926 -2.98754 0.261978 0
M  V30 7387 H 677.479 -1.5533 0.173862 0
M  V30 7388 H 678.214 -2.35392 -2.23072 0
M  V30 7389 H 677.999 -3.75215 -1.13824 0
M  V30 7390 H 679.489 -3.59984 -2.11663 0
M  V30 7391 N 679.926 -0.151884 -1.56866 0
M  V30 7392 C 680.858 0.817008 -2.14144 0
M  V30 7393 C 681.871 1.20735 -1.0921 0
M  V30 7394 O 683.06 1.15058 -1.36469 0
M  V30 7395 C 680.16 2.10844 -2.65326 0
M  V30 7396 C 679.333 1.88471 -3.94712 0
M  V30 7397 C 678.392 3.01649 -4.31155 0
M  V30 7398 O 677.418 2.73127 -4.9939 0
M  V30 7399 N 678.62 4.28947 -3.91132 0
M  V30 7400 H 681.385 0.327448 -2.97906 0
M  V30 7401 H 678.946 0.0315313 -1.61869 0
M  V30 7402 H 680.938 2.85616 -2.86715 0
M  V30 7403 H 679.508 2.51049 -1.86262 0
M  V30 7404 H 678.728 0.977088 -3.81899 0
M  V30 7405 H 680.016 1.70866 -4.79252 0
M  V30 7406 H 679.414 4.54986 -3.36161 0
M  V30 7407 H 677.971 5.00484 -4.17563 0
M  V30 7408 N 681.404 1.57128 0.121893 0
M  V30 7409 C 682.367 1.99197 1.13372 0
M  V30 7410 C 683.367 0.881728 1.3447 0
M  V30 7411 O 684.557 1.14783 1.31036 0
M  V30 7412 C 681.689 2.32963 2.4888 0
M  V30 7413 H 682.882 2.89788 0.772204 0
M  V30 7414 H 680.435 1.51952 0.366093 0
M  V30 7415 H 681.17 1.45243 2.89957 0
M  V30 7416 H 680.955 3.13934 2.34921 0
M  V30 7417 H 682.445 2.66261 3.21706 0
M  V30 7418 N 682.882 -0.391992 1.52647 0
M  V30 7419 C 683.845 -1.46135 1.7657 0
M  V30 7420 C 684.845 -1.47701 0.635698 0
M  V30 7421 O 686.035 -1.48924 0.903728 0
M  V30 7422 C 683.167 -2.85443 1.86374 0
M  V30 7423 H 684.36 -1.26208 2.72051 0
M  V30 7424 H 681.913 -0.623549 1.43323 0
M  V30 7425 H 682.648 -3.10718 0.928685 0
M  V30 7426 H 682.433 -2.85708 2.68539 0
M  V30 7427 H 683.923 -3.62933 2.06566 0
M  V30 7428 N 684.36 -1.4356 -0.65026 0
M  V30 7429 C 685.323 -1.48615 -1.74489 0
M  V30 7430 C 686.323 -0.370483 -1.56474 0
M  V30 7431 O 687.513 -0.632351 -1.62317 0
M  V30 7432 C 684.645 -1.34161 -3.13391 0
M  V30 7433 H 685.838 -2.46103 -1.71387 0
M  V30 7434 H 683.391 -1.30369 -0.862186 0
M  V30 7435 H 684.126 -0.376918 -3.22102 0
M  V30 7436 H 683.911 -2.1504 -3.27872 0
M  V30 7437 H 685.401 -1.40637 -3.93206 0
M  V30 7438 N 685.838 0.888903 -1.30139 0
M  V30 7439 C 686.801 1.97576 -1.16174 0
M  V30 7440 C 687.801 1.60525 -0.094086 0
M  V30 7441 O 688.991 1.70812 -0.341889 0
M  V30 7442 C 686.123 3.3188 -0.778983 0
M  V30 7443 H 687.316 2.11393 -2.12728 0
M  V30 7444 H 684.869 1.0748 -1.1348 0
M  V30 7445 H 685.604 3.23765 0.186225 0
M  V30 7446 H 685.389 3.60141 -1.55051 0
M  V30 7447 H 686.879 4.11612 -0.704631 0
M  V30 7448 N 687.317 1.12792 1.10072 0
M  V30 7449 C 688.28 0.802264 2.14701 0
M  V30 7450 C 689.28 -0.18515 1.59731 0
M  V30 7451 O 690.47 0.041109 1.74151 0
M  V30 7452 C 687.602 0.19285 3.40354 0
M  V30 7453 H 688.795 1.72932 2.45019 0
M  V30 7454 H 686.348 0.931662 1.25498 0
M  V30 7455 H 687.083 -0.743748 3.15656 0
M  V30 7456 H 686.868 0.903827 3.81541 0
M  V30 7457 H 688.358 -0.0183704 4.17596 0
M  V30 7458 N 688.795 -1.27931 0.920396 0
M  V30 7459 C 689.758 -2.25345 0.41858 0
M  V30 7460 C 690.758 -1.54116 -0.458798 0
M  V30 7461 O 691.948 -1.72235 -0.260912 0
M  V30 7462 C 689.08 -3.38556 -0.399104 0
M  V30 7463 H 690.273 -2.71251 1.27918 0
M  V30 7464 H 687.826 -1.39728 0.700406 0
M  V30 7465 H 688.561 -2.98021 -1.27882 0
M  V30 7466 H 688.346 -3.91426 0.229863 0
M  V30 7467 H 689.836 -4.10976 -0.740817 0
M  V30 7468 N 690.273 -0.685099 -1.4193 0
M  V30 7469 C 691.498 -0.218842 -2.06242 0
M  V30 7470 C 691.923 1.11923 -1.51178 0
M  V30 7471 O 691.281 1.69837 -0.634446 0
M  V30 7472 C 691.329 -0.175592 -3.60172 0
M  V30 7473 O 690.433 0.852776 -4.03487 0
M  V30 7474 H 689.774 -0.109531 -0.654904 0
M  V30 7475 H 692.304 -0.937013 -1.81882 0
M  V30 7476 H 692.314 -0.00291151 -4.08 0
M  V30 7477 H 690.989 -1.15222 -3.99621 0
M  V30 7478 H 689.566 0.650301 -3.67186 0
M  V30 7479 N 691.751 1.51645 -0.429126 0
M  V30 7480 C 692.714 2.26116 0.374726 0
M  V30 7481 C 693.714 1.29242 0.956714 0
M  V30 7482 O 694.904 1.53022 0.832452 0
M  V30 7483 C 692.036 3.04669 1.52937 0
M  V30 7484 H 693.229 2.9861 -0.277818 0
M  V30 7485 H 690.782 1.55236 -0.182097 0
M  V30 7486 H 691.517 2.36571 2.21821 0
M  V30 7487 H 691.302 3.75814 1.11833 0
M  V30 7488 H 692.792 3.61102 2.09751 0
M  V30 7489 N 693.229 0.160201 1.56784 0
M  V30 7490 C 694.139 -0.787167 2.21 0
M  V30 7491 C 695.155 -1.26167 1.19825 0
M  V30 7492 O 696.331 -1.31611 1.52448 0
M  V30 7493 C 693.396 -2.00364 2.8294 0
M  V30 7494 C 692.457 -1.5771 3.99282 0
M  V30 7495 C 691.69 -2.73558 4.58259 0
M  V30 7496 O 691.913 -3.90129 4.16119 0
M  V30 7497 O 690.847 -2.48271 5.48311 0
M  V30 7498 H 694.673 -0.270462 3.02493 0
M  V30 7499 H 692.258 -0.0674666 1.49248 0
M  V30 7500 H 694.14 -2.71529 3.22257 0
M  V30 7501 H 692.815 -2.50961 2.04451 0
M  V30 7502 H 691.722 -0.835274 3.64656 0
M  V30 7503 H 693.055 -1.11815 4.79331 0
M  V30 7504 N 694.707 -1.5719 -0.113559 0
M  V30 7505 C 695.932 -1.89702 -0.838336 0
M  V30 7506 C 696.357 -0.752679 -1.72384 0
M  V30 7507 O 695.715 0.296575 -1.78858 0
M  V30 7508 C 695.763 -3.20989 -1.64312 0
M  V30 7509 O 694.867 -3.07278 -2.75053 0
M  V30 7510 H 694.208 -0.622339 -0.231496 0
M  V30 7511 H 696.738 -2.04382 -0.0943228 0
M  V30 7512 H 696.748 -3.53843 -2.03123 0
M  V30 7513 H 695.423 -4.03869 -0.993119 0
M  V30 7514 H 694 -2.85901 -2.39406 0
M  V30 7515 N 696.185 0.383891 -1.52853 0
M  V30 7516 C 697.601 0.724316 -1.42218 0
M  V30 7517 C 697.801 1.93943 -0.546654 0
M  V30 7518 O 696.857 2.5249 -0.0220562 0
M  V30 7519 C 698.17 0.954635 -2.85144 0
M  V30 7520 C 699.718 1.05579 -2.94656 0
M  V30 7521 C 700.193 1.3187 -4.38605 0
M  V30 7522 N 701.684 1.38681 -4.41952 0
M  V30 7523 C 702.419 1.60699 -5.50421 0
M  V30 7524 N 701.915 1.80154 -6.68967 0
M  V30 7525 N 703.708 1.6292 -5.37972 0
M  V30 7526 H 695.859 -0.4156 -2.08294 0
M  V30 7527 H 698.122 -0.123776 -0.939885 0
M  V30 7528 H 697.828 0.133829 -3.51445 0
M  V30 7529 H 697.702 1.86788 -3.27704 0
M  V30 7530 H 700.089 1.86716 -2.2852 0
M  V30 7531 H 700.17 0.120338 -2.55517 0
M  V30 7532 H 699.814 0.512416 -5.05309 0
M  V30 7533 H 699.744 2.26708 -4.75301 0
M  V30 7534 H 702.235 1.25334 -3.56511 0
M  V30 7535 H 702.548 1.96476 -7.47407 0
M  V30 7536 H 700.893 1.77368 -6.71986 0
M  V30 7537 H 704.084 1.47276 -4.44328 0
M  V30 7538 H 704.257 1.79739 -6.22574 0
M  V30 7539 N 697.663 1.43903 0.642637 0
M  V30 7540 C 698.94 1.36556 1.40043 0
M  V30 7541 C 699.32 0.0185588 2.11092 0
M  V30 7542 O 698.668 -0.998438 2.05532 0
M  V30 7543 C 698.878 2.55596 2.37638 0
M  V30 7544 C 700.226 2.99153 3.01318 0
M  V30 7545 O 701.25 2.55719 2.47965 0
M  V30 7546 O 700.109 3.74427 3.98078 0
M  V30 7547 H 697.203 0.540189 0.626198 0
M  V30 7548 H 699.749 1.55971 0.668657 0
M  V30 7549 H 698.521 3.45256 1.84158 0
M  V30 7550 H 698.144 2.38334 3.18249 0
M  V30 7551 N 699.141 -0.881989 1.30609 0
M  V30 7552 C 700.388 -1.63405 1.19604 0
M  V30 7553 C 700.716 -1.92905 -0.248574 0
M  V30 7554 O 699.971 -1.55062 -1.19391 0
M  V30 7555 C 700.27 -2.97999 1.97311 0
M  V30 7556 C 699.936 -2.88039 3.46907 0
M  V30 7557 C 698.598 -2.85029 3.877 0
M  V30 7558 C 700.95 -2.75948 4.42156 0
M  V30 7559 C 698.278 -2.67772 5.2203 0
M  V30 7560 C 700.63 -2.60228 5.76597 0
M  V30 7561 C 699.294 -2.55595 6.16626 0
M  V30 7562 H 698.564 -0.597941 0.437662 0
M  V30 7563 H 701.211 -1.02524 1.61744 0
M  V30 7564 H 699.516 -3.62847 1.47815 0
M  V30 7565 H 701.213 -3.55156 1.86186 0
M  V30 7566 H 697.803 -2.91192 3.14492 0
M  V30 7567 H 701.987 -2.77337 4.1158 0
M  V30 7568 H 697.243 -2.62601 5.52133 0
M  V30 7569 H 701.417 -2.49847 6.50038 0
M  V30 7570 H 699.044 -2.41981 7.20659 0
M  V30 7571 N 700.619 -1.13374 -1.09472 0
M  V30 7572 C 701.844 -0.918711 -1.85942 0
M  V30 7573 C 702.269 0.527225 -1.8056 0
M  V30 7574 O 701.627 1.37408 -1.18274 0
M  V30 7575 C 701.675 -1.41056 -3.31867 0
M  V30 7576 O 700.779 -0.595496 -4.08078 0
M  V30 7577 H 700.12 -0.329297 -0.576593 0
M  V30 7578 H 702.65 -1.50829 -1.38245 0
M  V30 7579 H 702.66 -1.41398 -3.82715 0
M  V30 7580 H 701.335 -2.46335 -3.35099 0
M  V30 7581 H 699.912 -0.659911 -3.67014 0
M  V30 7582 N 702.098 1.27442 -0.927168 0
M  V30 7583 C 703.346 1.94007 -0.566203 0
M  V30 7584 C 703.667 1.7323 0.895345 0
M  V30 7585 O 702.937 1.07973 1.63459 0
M  V30 7586 H 701.517 0.717917 -0.206409 0
M  V30 7587 H 704.179 1.55161 -1.17945 0
M  V30 7588 H 703.275 3.02401 -0.772028 0
M  V30 7589 N 703.576 0.692616 1.41565 0
M  V30 7590 C 704.539 0.0344174 2.29174 0
M  V30 7591 C 705.539 -0.710961 1.44229 0
M  V30 7592 O 706.729 -0.546293 1.65412 0
M  V30 7593 C 703.861 -0.961682 3.27054 0
M  V30 7594 H 705.054 0.805755 2.88873 0
M  V30 7595 H 702.607 0.455947 1.49502 0
M  V30 7596 H 703.342 -1.76089 2.72329 0
M  V30 7597 H 703.127 -0.430375 3.89731 0
M  V30 7598 H 704.617 -1.4201 3.92712 0
M  V30 7599 N 705.054 -1.51416 0.437162 0
M  V30 7600 C 706.302 -2.01687 -0.129108 0
M  V30 7601 C 706.623 -1.32329 -1.43227 0
M  V30 7602 O 705.893 -0.457796 -1.90476 0
M  V30 7603 H 704.473 -0.745277 -0.0507023 0
M  V30 7604 H 707.135 -1.86075 0.579828 0
M  V30 7605 H 706.231 -3.10605 -0.305141 0
M  V30 7606 N 706.532 -0.168513 -1.56696 0
M  V30 7607 C 707.78 0.476216 -1.96409 0
M  V30 7608 C 708.101 1.63968 -1.05544 0
M  V30 7609 O 707.371 1.95525 -0.121235 0
M  V30 7610 H 705.951 0.178921 -0.725256 0
M  V30 7611 H 708.613 -0.249042 -1.93302 0
M  V30 7612 H 707.709 0.838094 -3.00637 0
M  V30 7613 N 708.01 1.57248 0.105221 0
M  V30 7614 C 709.259 1.84756 0.809198 0
M  V30 7615 C 709.572 0.756262 1.80389 0
M  V30 7616 O 710.778 0.918158 2.55504 0
M  V30 7617 C 709.234 3.27613 1.48989 0
M  V30 7618 C 708.842 4.44788 0.535484 0
M  V30 7619 C 710.586 3.64356 2.17819 0
M  V30 7620 C 708.493 5.78676 1.22019 0
M  V30 7621 H 707.423 0.689139 0.305946 0
M  V30 7622 H 710.074 1.83395 0.0620371 0
M  V30 7623 H 708.456 3.23485 2.28415 0
M  V30 7624 H 709.63 4.60243 -0.226557 0
M  V30 7625 H 707.945 4.16374 -0.0465769 0
M  V30 7626 H 710.542 4.61663 2.69761 0
M  V30 7627 H 710.885 2.92474 2.96251 0
M  V30 7628 H 711.418 3.70328 1.45264 0
M  V30 7629 H 708.157 6.53763 0.476875 0
M  V30 7630 H 707.677 5.67083 1.9539 0
M  V30 7631 H 709.356 6.22897 1.74952 0
M  V30 7632 N 709.488 -0.375779 1.53054 0
M  V30 7633 C 710.736 -1.11727 1.68409 0
M  V30 7634 C 711.057 -1.90127 0.43323 0
M  V30 7635 O 710.327 -1.87945 -0.552595 0
M  V30 7636 H 708.907 -0.415451 0.620813 0
M  V30 7637 H 711.569 -0.424869 1.90213 0
M  V30 7638 H 710.665 -1.8128 2.54055 0
M  V30 7639 N 710.966 -1.44241 -0.634997 0
M  V30 7640 C 712.212 -1.47038 -1.39669 0
M  V30 7641 C 712.545 -0.101122 -1.93937 0
M  V30 7642 O 711.82 0.880699 -1.73418 0
M  V30 7643 C 712.103 -2.52763 -2.56482 0
M  V30 7644 C 711.956 -3.99032 -2.07589 0
M  V30 7645 C 713.275 -2.55031 -3.58674 0
M  V30 7646 H 710.394 -0.53537 -0.506506 0
M  V30 7647 H 713.036 -1.75898 -0.718317 0
M  V30 7648 H 711.186 -2.28284 -3.14354 0
M  V30 7649 H 712.858 -4.3463 -1.54577 0
M  V30 7650 H 711.101 -4.10994 -1.38804 0
M  V30 7651 H 711.772 -4.68649 -2.91671 0
M  V30 7652 H 714.248 -2.76893 -3.10595 0
M  V30 7653 H 713.124 -3.30916 -4.37934 0
M  V30 7654 H 713.385 -1.59085 -4.12486 0
M  V30 7655 N 712.444 0.87505 -1.31075 0
M  V30 7656 C 713.691 1.62768 -1.20469 0
M  V30 7657 C 714.019 1.93034 0.23834 0
M  V30 7658 O 713.274 1.55693 1.18567 0
M  V30 7659 C 713.573 2.96948 -1.98888 0
M  V30 7660 C 713.239 2.86195 -3.4843 0
M  V30 7661 C 711.901 2.82969 -3.89207 0
M  V30 7662 C 714.253 2.73599 -4.43614 0
M  V30 7663 C 711.581 2.64999 -5.23443 0
M  V30 7664 C 713.933 2.57166 -5.77969 0
M  V30 7665 C 712.597 2.52321 -6.17973 0
M  V30 7666 H 711.867 0.595611 -0.440827 0
M  V30 7667 H 714.514 1.01665 -1.62285 0
M  V30 7668 H 712.819 3.62058 -1.49737 0
M  V30 7669 H 714.516 3.54164 -1.88067 0
M  V30 7670 H 711.106 2.8952 -3.16032 0
M  V30 7671 H 715.29 2.7515 -4.13045 0
M  V30 7672 H 710.546 2.5967 -5.53517 0
M  V30 7673 H 714.72 2.46396 -6.51354 0
M  V30 7674 H 712.347 2.38156 -7.21932 0
M  V30 7675 N 713.922 1.13953 1.08869 0
M  V30 7676 C 715.147 0.928559 1.85452 0
M  V30 7677 C 715.572 -0.517642 1.80837 0
M  V30 7678 O 714.93 -1.36779 1.19001 0
M  V30 7679 C 714.978 1.42814 3.31114 0
M  V30 7680 O 714.082 0.617129 4.07756 0
M  V30 7681 H 713.423 0.33235 0.574839 0
M  V30 7682 H 715.953 1.5156 1.37443 0
M  V30 7683 H 715.963 1.43425 3.8196 0
M  V30 7684 H 714.638 2.48109 3.33788 0
M  V30 7685 H 713.215 0.679365 3.66659 0
M  V30 7686 N 715.4 -1.26948 0.933913 0
M  V30 7687 C 716.31 -2.30366 0.443671 0
M  V30 7688 C 717.326 -1.67284 -0.478745 0
M  V30 7689 O 718.502 -1.98156 -0.360043 0
M  V30 7690 C 715.567 -3.45485 -0.289974 0
M  V30 7691 C 714.628 -4.24069 0.668114 0
M  V30 7692 C 713.861 -5.33691 -0.0306138 0
M  V30 7693 O 714.084 -5.5656 -1.24888 0
M  V30 7694 O 713.018 -5.98441 0.644384 0
M  V30 7695 H 716.844 -2.74349 1.30254 0
M  V30 7696 H 714.429 -1.32012 0.699506 0
M  V30 7697 H 716.311 -4.15486 -0.70353 0
M  V30 7698 H 714.986 -3.03546 -1.12435 0
M  V30 7699 H 713.893 -3.56579 1.13147 0
M  V30 7700 H 715.226 -4.69739 1.46989 0
M  V30 7701 N 716.879 -0.700114 -1.41195 0
M  V30 7702 C 718.104 -0.240704 -2.05998 0
M  V30 7703 C 718.529 1.10313 -1.52357 0
M  V30 7704 O 717.887 1.69154 -0.652424 0
M  V30 7705 C 717.935 -0.213783 -3.59966 0
M  V30 7706 O 717.039 0.809933 -4.04368 0
M  V30 7707 H 716.38 -0.116471 -0.653705 0
M  V30 7708 H 718.91 -0.956251 -1.80878 0
M  V30 7709 H 718.92 -0.0461852 -4.07974 0
M  V30 7710 H 717.595 -1.19454 -3.98376 0
M  V30 7711 H 716.172 0.611319 -3.67855 0
M  V30 7712 N 718.357 1.51182 -0.445186 0
M  V30 7713 C 719.582 2.07056 0.119445 0
M  V30 7714 C 720.007 1.30966 1.35016 0
M  V30 7715 O 719.365 0.349827 1.77893 0
M  V30 7716 C 719.413 3.58234 0.412428 0
M  V30 7717 O 718.517 3.84249 1.49754 0
M  V30 7718 H 717.858 0.663998 -0.00157797 0
M  V30 7719 H 720.388 1.94699 -0.628779 0
M  V30 7720 H 720.398 4.02617 0.660583 0
M  V30 7721 H 719.073 4.13038 -0.487049 0
M  V30 7722 H 717.65 3.51724 1.23873 0
M  V30 7723 N 719.835 0.176821 1.56605 0
M  V30 7724 C 721.06 -0.47599 2.01864 0
M  V30 7725 C 721.485 -1.55645 1.05623 0
M  V30 7726 O 720.843 -1.81263 0.0366729 0
M  V30 7727 C 720.891 -1.02619 3.4569 0
M  V30 7728 O 719.995 -2.13996 3.52533 0
M  V30 7729 H 719.336 -0.113363 0.654251 0
M  V30 7730 H 721.866 0.28233 2.02643 0
M  V30 7731 H 721.876 -1.34742 3.85109 0
M  V30 7732 H 720.551 -0.235138 4.15235 0
M  V30 7733 H 719.128 -1.82876 3.24978 0
M  V30 7734 N 721.313 -1.57302 -0.09688 0
M  V30 7735 C 722.559 -1.86273 -0.801885 0
M  V30 7736 C 722.892 -0.765694 -1.78468 0
M  V30 7737 O 722.167 0.226495 -1.93177 0
M  V30 7738 C 722.45 -3.25876 -1.53221 0
M  V30 7739 C 722.303 -4.46205 -0.567529 0
M  V30 7740 C 723.622 -3.63352 -2.48321 0
M  V30 7741 H 720.741 -0.67752 -0.29006 0
M  V30 7742 H 723.383 -1.89887 -0.0655577 0
M  V30 7743 H 721.533 -3.22926 -2.15988 0
M  V30 7744 H 723.205 -4.6127 0.0529982 0
M  V30 7745 H 721.448 -4.33636 0.119233 0
M  V30 7746 H 722.119 -5.40608 -1.11564 0
M  V30 7747 H 724.595 -3.67234 -1.95648 0
M  V30 7748 H 723.471 -4.61968 -2.9644 0
M  V30 7749 H 723.732 -2.91941 -3.31998 0
M  V30 7750 N 722.791 0.367657 -1.53252 0
M  V30 7751 C 723.754 1.43308 -1.78873 0
M  V30 7752 C 724.754 1.46671 -0.659115 0
M  V30 7753 O 725.944 1.47468 -0.927306 0
M  V30 7754 C 723.076 2.82442 -1.90892 0
M  V30 7755 H 724.269 1.21864 -2.74024 0
M  V30 7756 H 721.822 0.600668 -1.44297 0
M  V30 7757 H 722.557 3.09202 -0.978 0
M  V30 7758 H 722.342 2.81399 -2.73051 0
M  V30 7759 H 723.832 3.59601 -2.12314 0
M  V30 7760 N 724.269 1.44576 0.627338 0
M  V30 7761 C 725.494 1.51271 1.41887 0
M  V30 7762 C 725.919 0.139814 1.8758 0
M  V30 7763 O 725.277 -0.871746 1.58966 0
M  V30 7764 C 725.325 2.48529 2.61277 0
M  V30 7765 O 724.429 1.98944 3.61241 0
M  V30 7766 H 723.77 0.510668 0.424399 0
M  V30 7767 H 726.3 1.89746 0.765356 0
M  V30 7768 H 726.31 2.66689 3.08773 0
M  V30 7769 H 724.985 3.48249 2.27366 0
M  V30 7770 H 723.562 1.90568 3.20528 0
M  V30 7771 N 725.747 -0.868086 1.31537 0
M  V30 7772 C 726.694 -1.97548 1.19346 0
M  V30 7773 C 727.664 -1.65913 0.0787922 0
M  V30 7774 O 728.849 -1.89129 0.251985 0
M  V30 7775 C 725.989 -3.32922 0.908692 0
M  V30 7776 C 725.102 -3.77141 2.10687 0
M  V30 7777 C 724.237 -5.01241 1.75873 0
M  V30 7778 C 723.276 -5.37914 2.92088 0
M  V30 7779 N 722.413 -6.53192 2.57457 0
M  V30 7780 H 727.253 -2.07307 2.14074 0
M  V30 7781 H 724.79 -1.01483 1.06487 0
M  V30 7782 H 726.748 -4.10867 0.724138 0
M  V30 7783 H 725.378 -3.228 -0.0017611 0
M  V30 7784 H 724.43 -2.94961 2.40213 0
M  V30 7785 H 725.742 -4.00248 2.97663 0
M  V30 7786 H 724.896 -5.86858 1.53891 0
M  V30 7787 H 723.635 -4.80041 0.86091 0
M  V30 7788 H 722.64 -4.50814 3.14717 0
M  V30 7789 H 723.865 -5.61077 3.82582 0
M  V30 7790 H 721.811 -6.33536 1.702 0
M  V30 7791 H 721.728 -6.76252 3.37963 0
M  V30 7792 H 722.996 -7.41997 2.38873 0
M  V30 7793 N 727.225 -1.14528 -1.08264 0
M  V30 7794 C 728.155 -0.856356 -2.1723 0
M  V30 7795 C 729.136 0.189251 -1.69044 0
M  V30 7796 O 730.321 0.0456119 -1.94146 0
M  V30 7797 C 727.451 -0.334662 -3.45684 0
M  V30 7798 C 726.405 -1.31588 -4.0727 0
M  V30 7799 C 725.731 -0.653428 -5.30692 0
M  V30 7800 C 727.031 -2.67866 -4.48381 0
M  V30 7801 H 728.725 -1.76755 -2.41657 0
M  V30 7802 H 726.271 -0.851287 -1.16143 0
M  V30 7803 H 728.224 -0.120128 -4.21229 0
M  V30 7804 H 726.948 0.611967 -3.20815 0
M  V30 7805 H 725.607 -1.51661 -3.33758 0
M  V30 7806 H 725.255 0.299054 -5.0211 0
M  V30 7807 H 724.955 -1.30817 -5.72853 0
M  V30 7808 H 726.479 -0.448453 -6.08951 0
M  V30 7809 H 727.893 -2.51692 -5.15096 0
M  V30 7810 H 726.29 -3.29627 -5.01464 0
M  V30 7811 H 727.36 -3.24632 -3.60198 0
M  V30 7812 N 728.703 1.26451 -0.940633 0
M  V30 7813 C 729.928 1.98407 -0.60412 0
M  V30 7814 C 730.353 1.69584 0.81382 0
M  V30 7815 O 729.711 0.943553 1.54812 0
M  V30 7816 C 729.759 3.50387 -0.852136 0
M  V30 7817 O 728.863 4.1233 0.076013 0
M  V30 7818 H 728.204 0.622466 -0.231153 0
M  V30 7819 H 730.734 1.60932 -1.26342 0
M  V30 7820 H 730.744 4.00614 -0.772816 0
M  V30 7821 H 729.419 3.70696 -1.88566 0
M  V30 7822 H 727.996 3.7286 -0.0543187 0
M  V30 7823 N 730.181 0.707592 1.40822 0
M  V30 7824 C 731.406 0.251626 2.05868 0
M  V30 7825 C 731.831 -1.09503 1.5294 0
M  V30 7826 O 731.189 -1.68806 0.661385 0
M  V30 7827 C 731.237 0.23287 3.59847 0
M  V30 7828 O 730.341 -0.788477 4.04792 0
M  V30 7829 H 729.682 0.119936 0.653078 0
M  V30 7830 H 732.212 0.96583 1.80369 0
M  V30 7831 H 732.222 0.0678204 4.07944 0
M  V30 7832 H 730.897 1.21565 3.97737 0
M  V30 7833 H 729.474 -0.591802 3.68174 0
M  V30 7834 N 731.66 -1.50943 0.453197 0
M  V30 7835 C 732.607 -2.28128 -0.350197 0
M  V30 7836 C 733.577 -1.32398 -1.00299 0
M  V30 7837 O 734.762 -1.61319 -1.01887 0
M  V30 7838 C 731.902 -3.13782 -1.43649 0
M  V30 7839 C 731.015 -4.24523 -0.800255 0
M  V30 7840 C 730.15 -4.97462 -1.86293 0
M  V30 7841 C 729.189 -6.00102 -1.20598 0
M  V30 7842 N 728.326 -6.66387 -2.21071 0
M  V30 7843 H 733.166 -2.96337 0.31434 0
M  V30 7844 H 730.703 -1.46151 0.166863 0
M  V30 7845 H 732.661 -3.6178 -2.07776 0
M  V30 7846 H 731.291 -2.47655 -2.07044 0
M  V30 7847 H 730.343 -3.80371 -0.0468651 0
M  V30 7848 H 731.655 -4.98009 -0.280777 0
M  V30 7849 H 730.809 -5.49088 -2.58044 0
M  V30 7850 H 729.548 -4.23642 -2.41617 0
M  V30 7851 H 728.553 -5.47753 -0.474 0
M  V30 7852 H 729.778 -6.75887 -0.659859 0
M  V30 7853 H 727.724 -5.9537 -2.75446 0
M  V30 7854 H 727.641 -7.3569 -1.74058 0
M  V30 7855 H 728.909 -7.22638 -2.92257 0
M  V30 7856 N 733.138 -0.185124 -1.56509 0
M  V30 7857 C 734.363 0.465278 -2.02114 0
M  V30 7858 C 734.788 1.55083 -1.06447 0
M  V30 7859 O 734.146 1.81241 -0.0462852 0
M  V30 7860 C 734.194 1.00784 -3.46229 0
M  V30 7861 O 733.298 2.12123 -3.53663 0
M  V30 7862 H 732.639 0.109891 -0.654843 0
M  V30 7863 H 735.169 -0.293072 -2.0249 0
M  V30 7864 H 735.179 1.32697 -3.85818 0
M  V30 7865 H 733.854 0.213113 -4.15354 0
M  V30 7866 H 732.431 1.8115 -3.25943 0
M  V30 7867 N 734.616 1.57351 0.0885366 0
M  V30 7868 C 735.526 2.05858 1.12516 0
M  V30 7869 C 736.542 0.984758 1.43452 0
M  V30 7870 O 737.718 1.29836 1.53963 0
M  V30 7871 C 734.783 2.47882 2.42395 0
M  V30 7872 C 733.844 3.69487 2.18582 0
M  V30 7873 C 733.077 4.09497 3.42268 0
M  V30 7874 O 733.3 3.49536 4.50755 0
M  V30 7875 O 732.234 5.02406 3.31469 0
M  V30 7876 H 736.06 2.94467 0.743146 0
M  V30 7877 H 733.645 1.46326 0.301507 0
M  V30 7878 H 735.527 2.75509 3.18862 0
M  V30 7879 H 734.202 1.62408 2.8001 0
M  V30 7880 H 733.109 3.46967 1.39875 0
M  V30 7881 H 734.442 4.55761 1.85857 0
M  V30 7882 N 736.094 -0.359525 1.53444 0
M  V30 7883 C 737.041 -1.44073 1.8031 0
M  V30 7884 C 738.011 -1.52946 0.647811 0
M  V30 7885 O 739.196 -1.68739 0.890614 0
M  V30 7886 C 736.336 -2.80941 2.00416 0
M  V30 7887 C 735.449 -2.80986 3.28132 0
M  V30 7888 C 734.584 -4.09468 3.38393 0
M  V30 7889 C 733.623 -4.03679 4.60119 0
M  V30 7890 N 732.76 -5.23821 4.675 0
M  V30 7891 H 737.6 -1.20464 2.72566 0
M  V30 7892 H 735.137 -0.583859 1.35017 0
M  V30 7893 H 737.095 -3.60459 2.1006 0
M  V30 7894 H 735.725 -3.02936 1.11489 0
M  V30 7895 H 734.777 -1.93666 3.27411 0
M  V30 7896 H 736.089 -2.72583 4.17732 0
M  V30 7897 H 735.243 -4.97404 3.47382 0
M  V30 7898 H 733.982 -4.20632 2.4682 0
M  V30 7899 H 732.987 -3.14129 4.51224 0
M  V30 7900 H 734.212 -3.94112 5.5304 0
M  V30 7901 H 732.158 -5.35559 3.7883 0
M  V30 7902 H 732.075 -5.17611 5.51013 0
M  V30 7903 H 733.343 -6.13572 4.8078 0
M  V30 7904 N 737.572 -1.44907 -0.619662 0
M  V30 7905 C 738.482 -1.55168 -1.75955 0
M  V30 7906 C 739.498 -0.43672 -1.6843 0
M  V30 7907 O 740.674 -0.695704 -1.89002 0
M  V30 7908 C 737.739 -1.50397 -3.12381 0
M  V30 7909 C 736.8 -2.72835 -3.31451 0
M  V30 7910 C 736.033 -2.68283 -4.61368 0
M  V30 7911 O 736.256 -1.74929 -5.42914 0
M  V30 7912 O 735.19 -3.59308 -4.82889 0
M  V30 7913 H 739.016 -2.51493 -1.7025 0
M  V30 7914 H 736.601 -1.27282 -0.782289 0
M  V30 7915 H 738.483 -1.50301 -3.93685 0
M  V30 7916 H 737.158 -0.572197 -3.18603 0
M  V30 7917 H 736.065 -2.78496 -2.49781 0
M  V30 7918 H 737.398 -3.65098 -3.30098 0
M  V30 7919 N 739.05 0.861098 -1.31996 0
M  V30 7920 C 739.98 1.98482 -1.22993 0
M  V30 7921 C 740.961 1.6971 -0.115168 0
M  V30 7922 O 742.146 1.91849 -0.30126 0
M  V30 7923 C 739.276 3.34179 -0.945615 0
M  V30 7924 C 738.23 3.77284 -2.02091 0
M  V30 7925 C 737.556 5.1054 -1.58912 0
M  V30 7926 C 738.856 3.93439 -3.43515 0
M  V30 7927 H 740.55 2.06271 -2.17008 0
M  V30 7928 H 738.096 0.991043 -1.04472 0
M  V30 7929 H 740.049 4.12338 -0.869206 0
M  V30 7930 H 738.773 3.26586 0.0301849 0
M  V30 7931 H 737.432 3.01371 -2.08737 0
M  V30 7932 H 737.08 4.99397 -0.600942 0
M  V30 7933 H 736.78 5.40352 -2.30854 0
M  V30 7934 H 738.304 5.91199 -1.52696 0
M  V30 7935 H 739.718 4.6197 -3.39495 0
M  V30 7936 H 738.115 4.34661 -4.13751 0
M  V30 7937 H 739.185 2.96548 -3.8365 0
M  V30 7938 N 740.528 1.15101 1.07655 0
M  V30 7939 C 741.475 0.844958 2.14777 0
M  V30 7940 C 742.445 -0.200798 1.64882 0
M  V30 7941 O 743.63 -0.0690278 1.90675 0
M  V30 7942 C 740.77 0.337018 3.4345 0
M  V30 7943 C 739.883 1.44398 4.07153 0
M  V30 7944 C 739.018 0.892487 5.23649 0
M  V30 7945 C 738.057 1.9766 5.79307 0
M  V30 7946 N 737.194 1.44171 6.87138 0
M  V30 7947 H 742.034 1.76242 2.40297 0
M  V30 7948 H 739.571 0.879435 1.17917 0
M  V30 7949 H 741.529 0.024256 4.17193 0
M  V30 7950 H 740.159 -0.543531 3.18191 0
M  V30 7951 H 739.211 1.87299 3.31094 0
M  V30 7952 H 740.523 2.26262 4.4453 0
M  V30 7953 H 739.677 0.532083 6.04362 0
M  V30 7954 H 738.416 0.0429854 4.87681 0
M  V30 7955 H 737.421 2.34586 4.97242 0
M  V30 7956 H 738.646 2.82982 6.17331 0
M  V30 7957 H 736.592 0.614518 6.53115 0
M  V30 7958 H 736.509 2.19665 7.23383 0
M  V30 7959 H 737.777 1.10945 7.71564 0
M  V30 7960 N 742.006 -1.2595 0.947325 0
M  V30 7961 C 742.954 -2.28152 0.452687 0
M  V30 7962 C 743.948 -1.62655 -0.473239 0
M  V30 7963 O 745.154 -1.76549 -0.350774 0
M  V30 7964 H 741.529 -0.741049 0.12787 0
M  V30 7965 H 743.5 -2.67267 1.32707 0
M  V30 7966 C 742.249 -3.46719 -0.26098 0
M  V30 7967 H 741.572 -3.97345 0.442352 0
M  V30 7968 H 743.012 -4.20135 -0.571208 0
M  V30 7969 C 741.471 -3.02605 -1.48094 0
M  V30 7970 O 742.001 -3.07979 -2.57899 0
M  V30 7971 N 740.207 -2.57877 -1.33969 0
M  V30 7972 H 739.754 -2.53704 -0.446295 0
M  V30 7973 H 739.712 -2.28725 -2.15713 0
M  V30 7974 N 743.484 -0.715051 -1.40445 0
M  V30 7975 C 744.9 -0.388555 -1.54798 0
M  V30 7976 C 745.1 1.10271 -1.68649 0
M  V30 7977 O 744.156 1.88875 -1.67578 0
M  V30 7978 C 745.469 -1.15414 -2.77669 0
M  V30 7979 C 747.017 -1.14039 -2.91486 0
M  V30 7980 C 747.492 -1.88812 -4.1727 0
M  V30 7981 N 748.983 -1.85878 -4.24268 0
M  V30 7982 C 749.718 -2.40558 -5.20499 0
M  V30 7983 N 749.214 -3.03791 -6.22642 0
M  V30 7984 N 751.007 -2.30703 -5.12574 0
M  V30 7985 H 743.158 -1.68201 -1.297 0
M  V30 7986 H 745.421 -0.710915 -0.627139 0
M  V30 7987 H 745.127 -2.20853 -2.7371 0
M  V30 7988 H 745.001 -0.745412 -3.69761 0
M  V30 7989 H 747.388 -0.0941996 -2.9495 0
M  V30 7990 H 747.469 -1.58834 -2.00513 0
M  V30 7991 H 747.113 -2.93422 -4.14568 0
M  V30 7992 H 747.043 -1.41438 -5.0725 0
M  V30 7993 H 749.534 -1.39794 -3.51093 0
M  V30 7994 H 749.847 -3.43032 -6.92495 0
M  V30 7995 H 748.192 -3.07875 -6.23087 0
M  V30 7996 H 751.383 -1.80961 -4.31707 0
M  V30 7997 H 751.556 -2.73618 -5.87398 0
M  V30 7998 N 744.962 1.50701 -0.461195 0
M  V30 7999 C 746.378 1.59187 -0.114786 0
M  V30 8000 C 746.578 1.4702 1.37794 0
M  V30 8001 O 745.634 1.32361 2.15027 0
M  V30 8002 C 746.947 2.93453 -0.656167 0
M  V30 8003 C 748.495 3.06824 -0.618715 0
M  V30 8004 C 748.97 4.4365 -1.13747 0
M  V30 8005 N 750.461 4.50035 -1.09646 0
M  V30 8006 C 751.196 5.54278 -1.46846 0
M  V30 8007 N 750.692 6.65822 -1.91448 0
M  V30 8008 N 752.485 5.44767 -1.38512 0
M  V30 8009 H 744.636 1.56853 -1.43216 0
M  V30 8010 H 746.899 0.740712 -0.59165 0
M  V30 8011 H 746.605 3.07802 -1.7015 0
M  V30 8012 H 746.479 3.77082 -0.0942261 0
M  V30 8013 H 748.866 2.92129 0.417685 0
M  V30 8014 H 748.947 2.24976 -1.21734 0
M  V30 8015 H 748.591 4.59093 -2.17245 0
M  V30 8016 H 748.521 5.24074 -0.515153 0
M  V30 8017 H 751.012 3.69988 -0.769217 0
M  V30 8018 H 751.325 7.41413 -2.18007 0
M  V30 8019 H 749.67 6.66968 -1.95393 0
M  V30 8020 H 752.861 4.56511 -1.03516 0
M  V30 8021 H 753.034 6.25889 -1.6783 0
M  V30 8022 N 746.441 0.193421 1.56409 0
M  V30 8023 C 747.388 -0.728124 2.19014 0
M  V30 8024 C 748.358 -1.21098 1.13686 0
M  V30 8025 O 749.543 -1.27517 1.4193 0
M  V30 8026 C 746.683 -1.94277 2.8522 0
M  V30 8027 C 745.796 -1.50143 4.05069 0
M  V30 8028 C 744.931 -2.67145 4.59137 0
M  V30 8029 C 743.97 -2.19609 5.71348 0
M  V30 8030 N 743.107 -3.29782 6.19829 0
M  V30 8031 H 747.947 -0.187499 2.9741 0
M  V30 8032 H 745.484 -0.0808064 1.46878 0
M  V30 8033 H 747.442 -2.65551 3.21774 0
M  V30 8034 H 746.072 -2.45673 2.09391 0
M  V30 8035 H 745.124 -0.684624 3.74189 0
M  V30 8036 H 746.436 -1.11266 4.86232 0
M  V30 8037 H 745.59 -3.46544 4.97988 0
M  V30 8038 H 744.329 -3.09295 3.77078 0
M  V30 8039 H 743.334 -1.38664 5.32027 0
M  V30 8040 H 744.559 -1.78492 6.55223 0
M  V30 8041 H 742.505 -3.71466 5.40693 0
M  V30 8042 H 742.422 -2.95069 6.96039 0
M  V30 8043 H 743.69 -4.094 6.63334 0
M  V30 8044 N 747.919 -1.57396 -0.0801906 0
M  V30 8045 C 748.866 -2.03107 -1.09618 0
M  V30 8046 C 749.836 -0.910118 -1.38946 0
M  V30 8047 O 751.021 -1.17719 -1.50156 0
M  V30 8048 C 748.161 -2.47293 -2.40708 0
M  V30 8049 C 747.274 -3.72972 -2.17982 0
M  V30 8050 C 746.409 -4.05975 -3.42576 0
M  V30 8051 C 745.448 -5.24719 -3.15177 0
M  V30 8052 N 744.585 -5.53401 -4.32078 0
M  V30 8053 H 749.425 -2.89677 -0.69939 0
M  V30 8054 H 746.962 -1.43263 -0.333785 0
M  V30 8055 H 748.92 -2.7096 -3.17232 0
M  V30 8056 H 747.55 -1.63713 -2.78205 0
M  V30 8057 H 746.602 -3.56693 -1.32189 0
M  V30 8058 H 747.914 -4.59638 -1.93738 0
M  V30 8059 H 747.068 -4.30498 -4.275 0
M  V30 8060 H 745.807 -3.17859 -3.69887 0
M  V30 8061 H 744.812 -5 -2.28648 0
M  V30 8062 H 746.037 -6.14445 -2.89197 0
M  V30 8063 H 743.983 -4.68245 -4.59437 0
M  V30 8064 H 743.9 -6.34469 -4.11078 0
M  V30 8065 H 745.168 -5.8247 -5.18024 0
M  V30 8066 N 749.397 0.351382 -1.53633 0
M  V30 8067 C 750.344 1.43115 -1.81071 0
M  V30 8068 C 751.314 1.52601 -0.655913 0
M  V30 8069 O 752.499 1.68264 -0.89955 0
M  V30 8070 C 749.639 2.79874 -2.01903 0
M  V30 8071 C 748.752 2.79242 -3.29618 0
M  V30 8072 C 747.887 4.07667 -3.40559 0
M  V30 8073 C 746.926 4.01233 -4.62254 0
M  V30 8074 N 746.063 5.21334 -4.70271 0
M  V30 8075 H 750.903 1.19017 -2.73201 0
M  V30 8076 H 748.44 0.576691 -1.35324 0
M  V30 8077 H 750.398 3.5934 -2.11969 0
M  V30 8078 H 749.028 3.0234 -1.13094 0
M  V30 8079 H 748.08 1.91927 -3.28433 0
M  V30 8080 H 749.392 2.70363 -4.19172 0
M  V30 8081 H 748.546 4.95555 -3.50015 0
M  V30 8082 H 747.285 4.19317 -2.49047 0
M  V30 8083 H 746.29 3.11732 -4.52884 0
M  V30 8084 H 747.515 3.91173 -5.55122 0
M  V30 8085 H 745.461 5.33543 -3.81665 0
M  V30 8086 H 745.378 5.14681 -5.5375 0
M  V30 8087 H 746.646 6.11014 -4.84027 0
M  V30 8088 N 750.875 1.45233 0.611969 0
M  V30 8089 C 751.822 1.5357 1.72293 0
M  V30 8090 C 752.792 0.381912 1.6165 0
M  V30 8091 O 753.977 0.594765 1.81293 0
M  V30 8092 C 751.117 1.50419 3.10593 0
M  V30 8093 C 750.23 2.76316 3.32074 0
M  V30 8094 C 749.365 2.64866 4.60456 0
M  V30 8095 C 748.404 3.85838 4.7518 0
M  V30 8096 N 747.541 3.72949 5.94856 0
M  V30 8097 H 752.381 2.4848 1.64504 0
M  V30 8098 H 749.918 1.23302 0.802191 0
M  V30 8099 H 751.876 1.4658 3.90602 0
M  V30 8100 H 750.506 0.590621 3.17351 0
M  V30 8101 H 749.558 2.90261 2.45872 0
M  V30 8102 H 750.87 3.66055 3.38829 0
M  V30 8103 H 750.024 2.58969 5.48653 0
M  V30 8104 H 748.763 1.72719 4.56092 0
M  V30 8105 H 747.768 3.92099 3.85407 0
M  V30 8106 H 748.993 4.79045 4.81344 0
M  V30 8107 H 746.939 2.83567 5.91545 0
M  V30 8108 H 746.856 4.56319 6.02751 0
M  V30 8109 H 748.124 3.70976 6.85563 0
M  V30 8110 N 752.353 -0.854086 1.3245 0
M  V30 8111 C 753.285 -1.96932 1.17262 0
M  V30 8112 C 754.298 -1.62445 0.107469 0
M  V30 8113 O 755.487 -1.74904 0.356481 0
M  V30 8114 C 752.587 -3.29971 0.772817 0
M  V30 8115 C 751.76 -3.92695 1.92638 0
M  V30 8116 C 750.819 -5.04068 1.51003 0
M  V30 8117 O 749.845 -5.24032 2.22213 0
M  V30 8118 N 751.047 -5.79076 0.406371 0
M  V30 8119 H 753.812 -2.10503 2.13327 0
M  V30 8120 H 751.373 -1.02897 1.24995 0
M  V30 8121 H 753.365 -4.01883 0.476684 0
M  V30 8122 H 751.935 -3.1245 -0.0967 0
M  V30 8123 H 751.155 -3.13563 2.38897 0
M  V30 8124 H 752.443 -4.31337 2.69863 0
M  V30 8125 H 751.841 -5.65393 -0.186302 0
M  V30 8126 H 750.398 -6.51579 0.169846 0
M  V30 8127 N 753.831 -1.1567 -1.07043 0
M  V30 8128 C 754.778 -0.856336 -2.14326 0
M  V30 8129 C 755.748 0.192051 -1.64986 0
M  V30 8130 O 756.933 0.0589148 -1.90709 0
M  V30 8131 C 754.073 -0.355227 -3.43267 0
M  V30 8132 C 753.186 -1.46555 -4.06381 0
M  V30 8133 C 752.321 -0.920245 -5.23168 0
M  V30 8134 C 751.36 -2.00729 -5.78251 0
M  V30 8135 N 750.497 -1.47813 -6.86364 0
M  V30 8136 H 755.337 -1.77514 -2.39359 0
M  V30 8137 H 752.874 -0.885676 -1.17449 0
M  V30 8138 H 754.832 -0.0463804 -4.17174 0
M  V30 8139 H 753.462 0.526649 -3.18475 0
M  V30 8140 H 752.514 -1.89052 -3.30096 0
M  V30 8141 H 753.826 -2.28616 -4.43324 0
M  V30 8142 H 752.98 -0.564127 -6.04072 0
M  V30 8143 H 751.719 -0.0688477 -4.87651 0
M  V30 8144 H 750.724 -2.3722 -4.95991 0
M  V30 8145 H 751.949 -2.86252 -6.15822 0
M  V30 8146 H 749.895 -0.649145 -6.5278 0
M  V30 8147 H 749.812 -2.23498 -7.22208 0
M  V30 8148 H 751.08 -1.15036 -7.70965 0
M  V30 8149 N 755.309 1.25446 -0.953992 0
M  V30 8150 C 756.219 2.29632 -0.480264 0
M  V30 8151 C 757.235 1.68025 0.452071 0
M  V30 8152 O 758.411 1.98703 0.328472 0
M  V30 8153 C 755.476 3.45903 0.234974 0
M  V30 8154 C 754.537 4.22953 -0.735495 0
M  V30 8155 C 753.77 5.33672 -0.0542957 0
M  V30 8156 O 753.993 5.58477 1.16018 0
M  V30 8157 O 752.927 5.9734 -0.739509 0
M  V30 8158 H 756.753 2.72242 -1.34602 0
M  V30 8159 H 754.338 1.30883 -0.720419 0
M  V30 8160 H 756.22 4.16552 0.637341 0
M  V30 8161 H 754.895 3.05296 1.07592 0
M  V30 8162 H 753.802 3.54734 -1.18806 0
M  V30 8163 H 755.135 4.67341 -1.54444 0
M  V30 8164 N 756.787 0.722489 1.40064 0
M  V30 8165 C 757.719 0.0349057 2.29173 0
M  V30 8166 C 758.732 -0.716571 1.46182 0
M  V30 8167 O 759.921 -0.562806 1.69395 0
M  V30 8168 C 757.021 -0.974839 3.24577 0
M  V30 8169 C 756.194 -0.287471 4.36454 0
M  V30 8170 C 755.253 -1.20356 5.12251 0
M  V30 8171 O 754.279 -0.685753 5.65054 0
M  V30 8172 N 755.481 -2.53422 5.22262 0
M  V30 8173 H 758.246 0.800058 2.88824 0
M  V30 8174 H 755.807 0.57068 1.51509 0
M  V30 8175 H 757.799 -1.59002 3.72157 0
M  V30 8176 H 756.369 -1.6413 2.66046 0
M  V30 8177 H 755.589 0.508008 3.90913 0
M  V30 8178 H 756.877 0.189382 5.08447 0
M  V30 8179 H 756.275 -2.97981 4.80857 0
M  V30 8180 H 754.832 -3.10067 5.73325 0
M  V30 8181 N 758.265 -1.50454 0.469181 0
M  V30 8182 C 759.49 -2.0722 -0.0864892 0
M  V30 8183 C 759.915 -1.33098 -1.32916 0
M  V30 8184 O 759.273 -0.378084 -1.77314 0
M  V30 8185 C 759.321 -3.58845 -0.355384 0
M  V30 8186 O 758.425 -3.86583 -1.43622 0
M  V30 8187 H 757.766 -0.663889 0.0121414 0
M  V30 8188 H 760.296 -1.93674 0.659674 0
M  V30 8189 H 760.306 -4.03617 -0.596447 0
M  V30 8190 H 758.981 -4.12211 0.552698 0
M  V30 8191 H 757.558 -3.5365 -1.18262 0
M  V30 8192 N 759.743 -0.201713 -1.56304 0
M  V30 8193 C 760.991 0.434447 -1.97375 0
M  V30 8194 C 761.312 1.61692 -1.08998 0
M  V30 8195 O 760.582 1.95223 -0.162682 0
M  V30 8196 H 759.162 0.163497 -0.728888 0
M  V30 8197 H 761.824 -0.289988 -1.92731 0
M  V30 8198 H 760.92 0.774136 -3.02347 0
M  V30 8199 N 761.222 1.57436 0.0718424 0
M  V30 8200 C 762.132 2.07039 1.10326 0
M  V30 8201 C 763.148 0.999918 1.424 0
M  V30 8202 O 764.324 1.31462 1.52577 0
M  V30 8203 C 761.389 2.50439 2.39752 0
M  V30 8204 C 760.45 3.71784 2.14651 0
M  V30 8205 C 759.683 4.13104 3.37906 0
M  V30 8206 O 759.906 3.54298 4.47023 0
M  V30 8207 O 758.84 5.05894 3.26121 0
M  V30 8208 H 762.666 2.95239 0.711872 0
M  V30 8209 H 760.251 1.46638 0.28597 0
M  V30 8210 H 762.133 2.78876 3.15921 0
M  V30 8211 H 760.808 1.65368 2.78271 0
M  V30 8212 H 759.715 3.48431 1.36187 0
M  V30 8213 H 761.048 4.57707 1.81012 0
M  V30 8214 N 762.7 -0.34323 1.53817 0
M  V30 8215 C 763.61 -1.44493 1.84821 0
M  V30 8216 C 764.626 -1.57556 0.738381 0
M  V30 8217 O 765.802 -1.73026 1.03072 0
M  V30 8218 C 762.867 -2.79478 2.05166 0
M  V30 8219 C 761.928 -2.75756 3.29025 0
M  V30 8220 C 761.161 -4.04302 3.4839 0
M  V30 8221 O 761.384 -5.01595 2.71586 0
M  V30 8222 O 760.318 -4.08754 4.41819 0
M  V30 8223 H 764.144 -1.21209 2.78464 0
M  V30 8224 H 761.729 -0.535437 1.39476 0
M  V30 8225 H 763.611 -3.59419 2.19991 0
M  V30 8226 H 762.286 -3.02692 1.14713 0
M  V30 8227 H 761.193 -1.94434 3.19603 0
M  V30 8228 H 762.526 -2.57495 4.19472 0
M  V30 8229 N 764.178 -1.45556 -0.604258 0
M  V30 8230 C 765.088 -1.57025 -1.74299 0
M  V30 8231 C 766.104 -0.45456 -1.67958 0
M  V30 8232 O 767.28 -0.715711 -1.88254 0
M  V30 8233 C 764.345 -1.53702 -3.10768 0
M  V30 8234 C 763.406 -2.76335 -3.28538 0
M  V30 8235 C 762.639 -2.73161 -4.58496 0
M  V30 8236 O 762.862 -1.80678 -5.41028 0
M  V30 8237 O 761.796 -3.64409 -4.79051 0
M  V30 8238 H 765.622 -2.53284 -1.67573 0
M  V30 8239 H 763.207 -1.28104 -0.768745 0
M  V30 8240 H 765.089 -1.54468 -3.92068 0
M  V30 8241 H 763.764 -0.605957 -3.17978 0
M  V30 8242 H 762.671 -2.8113 -2.46813 0
M  V30 8243 H 764.004 -3.68578 -3.26207 0
M  V30 8244 N 765.656 0.84705 -1.32902 0
M  V30 8245 C 766.603 1.95624 -1.22473 0
M  V30 8246 C 767.573 1.65767 -0.105178 0
M  V30 8247 O 768.758 1.88704 -0.282042 0
M  V30 8248 C 765.898 3.31434 -0.961542 0
M  V30 8249 C 765.011 3.73741 -2.1666 0
M  V30 8250 C 764.146 4.98379 -1.83825 0
M  V30 8251 C 763.185 5.33199 -3.00609 0
M  V30 8252 N 762.322 6.49014 -2.67816 0
M  V30 8253 H 767.162 2.03875 -2.17345 0
M  V30 8254 H 764.699 0.997764 -1.08088 0
M  V30 8255 H 766.657 4.09663 -0.789411 0
M  V30 8256 H 765.287 3.22762 -0.0495938 0
M  V30 8257 H 764.339 2.91102 -2.44875 0
M  V30 8258 H 765.651 3.95462 -3.03993 0
M  V30 8259 H 764.805 5.84336 -1.63208 0
M  V30 8260 H 763.544 4.78611 -0.937172 0
M  V30 8261 H 762.549 4.4575 -3.21849 0
M  V30 8262 H 763.774 5.5492 -3.9146 0
M  V30 8263 H 761.72 6.30748 -1.80258 0
M  V30 8264 H 761.637 6.7079 -3.48679 0
M  V30 8265 H 762.905 7.38103 -2.50647 0
M  V30 8266 N 767.134 1.16236 1.06428 0
M  V30 8267 C 768.082 0.863669 2.15971 0
M  V30 8268 C 769.076 -0.166723 1.68578 0
M  V30 8269 O 770.282 -0.0208425 1.79988 0
M  V30 8270 H 766.657 0.261684 0.705 0
M  V30 8271 H 768.628 1.79498 2.38376 0
M  V30 8272 C 767.377 0.379697 3.45621 0
M  V30 8273 H 766.7 1.16399 3.82481 0
M  V30 8274 H 768.14 0.209458 4.23482 0
M  V30 8275 C 766.599 -0.900499 3.24642 0
M  V30 8276 O 767.129 -1.97004 3.50074 0
M  V30 8277 N 765.335 -0.843721 2.78082 0
M  V30 8278 H 764.882 0.0268429 2.57586 0
M  V30 8279 H 764.84 -1.70078 2.64425 0
M  V30 8280 N 768.612 -1.24939 0.960631 0
M  V30 8281 C 769.889 -1.88118 0.535807 0
M  V30 8282 C 770.269 -1.86605 -0.987009 0
M  V30 8283 O 769.617 -1.33375 -1.85536 0
M  V30 8284 C 769.827 -3.30565 1.11927 0
M  V30 8285 C 771.175 -4.07296 1.19981 0
M  V30 8286 O 772.199 -3.39709 1.07126 0
M  V30 8287 O 771.058 -5.28206 1.40218 0
M  V30 8288 H 768.152 -0.807698 0.177631 0
M  V30 8289 H 770.698 -1.32964 1.05445 0
M  V30 8290 H 769.47 -3.26128 2.16231 0
M  V30 8291 H 769.093 -3.93284 0.584245 0
M  V30 8292 N 770.09 -0.729906 -1.39679 0
M  V30 8293 C 771.506 -0.404951 -1.54377 0
M  V30 8294 C 771.706 1.08476 -1.6981 0
M  V30 8295 O 770.762 1.87087 -1.69572 0
M  V30 8296 C 772.075 -1.18352 -2.76429 0
M  V30 8297 C 773.623 -1.17124 -2.9026 0
M  V30 8298 C 774.098 -1.93227 -4.15244 0
M  V30 8299 N 775.589 -1.90368 -4.22273 0
M  V30 8300 C 776.324 -2.46065 -5.17918 0
M  V30 8301 N 775.82 -3.10378 -6.19385 0
M  V30 8302 N 777.613 -2.36127 -5.10099 0
M  V30 8303 H 769.764 -1.69567 -1.27909 0
M  V30 8304 H 772.027 -0.717527 -0.619564 0
M  V30 8305 H 771.733 -2.23743 -2.71352 0
M  V30 8306 H 771.607 -0.784589 -3.6895 0
M  V30 8307 H 773.994 -0.125478 -2.94833 0
M  V30 8308 H 774.075 -1.60951 -1.98817 0
M  V30 8309 H 773.719 -2.97802 -4.11432 0
M  V30 8310 H 773.649 -1.4681 -5.05722 0
M  V30 8311 H 776.14 -1.4351 -3.4959 0
M  V30 8312 H 776.453 -3.50358 -6.88817 0
M  V30 8313 H 774.798 -3.14467 -6.19787 0
M  V30 8314 H 777.989 -1.85529 -4.29763 0
M  V30 8315 H 778.162 -2.79833 -5.84463 0
M  V30 8316 N 771.568 1.50203 -0.477153 0
M  V30 8317 C 772.814 2.02658 0.0758507 0
M  V30 8318 C 773.147 1.358 1.38824 0
M  V30 8319 O 772.422 0.485696 1.88338 0
M  V30 8320 C 772.705 3.59208 0.253339 0
M  V30 8321 C 772.558 4.36629 -1.0805 0
M  V30 8322 C 773.877 4.28469 1.00509 0
M  V30 8323 H 770.996 0.736538 0.0260921 0
M  V30 8324 H 773.638 1.79464 -0.623925 0
M  V30 8325 H 771.788 3.79101 0.849378 0
M  V30 8326 H 773.46 4.28292 -1.71358 0
M  V30 8327 H 771.703 4.0013 -1.67566 0
M  V30 8328 H 772.374 5.44449 -0.909883 0
M  V30 8329 H 774.85 4.13087 0.499818 0
M  V30 8330 H 773.726 5.37804 1.09808 0
M  V30 8331 H 773.987 3.92057 2.04314 0
M  V30 8332 N 773.046 0.209999 1.56195 0
M  V30 8333 C 774.462 -0.145598 1.58934 0
M  V30 8334 C 774.662 -1.59868 1.22656 0
M  V30 8335 O 773.718 -2.33689 0.956336 0
M  V30 8336 C 775.031 0.170243 3.00218 0
M  V30 8337 C 776.579 0.111548 3.12801 0
M  V30 8338 C 777.054 0.400904 4.56242 0
M  V30 8339 N 778.545 0.350058 4.61875 0
M  V30 8340 C 779.28 0.547598 5.70779 0
M  V30 8341 N 778.776 0.806291 6.88092 0
M  V30 8342 N 780.569 0.480827 5.6004 0
M  V30 8343 H 772.72 1.15804 1.78054 0
M  V30 8344 H 774.983 0.463326 0.827063 0
M  V30 8345 H 774.689 1.17833 3.31373 0
M  V30 8346 H 774.563 -0.520208 3.73596 0
M  V30 8347 H 776.95 -0.887162 2.81449 0
M  V30 8348 H 777.031 0.835302 2.41777 0
M  V30 8349 H 776.675 1.397 4.8831 0
M  V30 8350 H 776.605 -0.34391 5.25476 0
M  V30 8351 H 779.096 0.157334 3.77572 0
M  V30 8352 H 779.409 0.945433 7.66995 0
M  V30 8353 H 777.754 0.843355 6.89864 0
M  V30 8354 H 780.945 0.279037 4.67268 0
M  V30 8355 H 781.118 0.638189 6.4485 0
M  V30 8356 N 774.524 -1.57472 -0.0634922 0
M  V30 8357 C 775.471 -2.04258 -1.07457 0
M  V30 8358 C 776.441 -0.924804 -1.37973 0
M  V30 8359 O 777.626 -1.19305 -1.48899 0
M  V30 8360 C 774.766 -2.49832 -2.38071 0
M  V30 8361 C 773.879 -3.75263 -2.14014 0
M  V30 8362 C 773.014 -4.09585 -3.38251 0
M  V30 8363 C 772.053 -5.28032 -3.09594 0
M  V30 8364 N 771.19 -5.57953 -4.26185 0
M  V30 8365 H 776.03 -2.90402 -0.668626 0
M  V30 8366 H 773.567 -1.43609 -0.318572 0
M  V30 8367 H 775.525 -2.7431 -3.14341 0
M  V30 8368 H 774.155 -1.66654 -2.76453 0
M  V30 8369 H 773.207 -3.58075 -1.28399 0
M  V30 8370 H 774.519 -4.61667 -1.88852 0
M  V30 8371 H 773.673 -4.35008 -4.2291 0
M  V30 8372 H 772.412 -3.21765 -3.66495 0
M  V30 8373 H 771.417 -5.02397 -2.23332 0
M  V30 8374 H 772.642 -6.17477 -2.82663 0
M  V30 8375 H 770.588 -4.73092 -4.54445 0
M  V30 8376 H 770.505 -6.38793 -4.04326 0
M  V30 8377 H 771.773 -5.87931 -5.11817 0
M  V30 8378 N 776.003 0.335068 -1.53997 0
M  V30 8379 C 777.228 1.09859 -1.75914 0
M  V30 8380 C 777.653 1.81308 -0.500915 0
M  V30 8381 O 777.011 1.72854 0.54693 0
M  V30 8382 C 777.059 2.08122 -2.94478 0
M  V30 8383 O 776.163 3.15805 -2.65219 0
M  V30 8384 H 775.504 0.317313 -0.583274 0
M  V30 8385 H 778.034 0.382872 -2.00986 0
M  V30 8386 H 778.044 2.51195 -3.21504 0
M  V30 8387 H 776.719 1.55517 -3.8573 0
M  V30 8388 H 775.296 2.77489 -2.49107 0
M  V30 8389 N 777.481 1.45874 0.596531 0
M  V30 8390 C 778.391 1.57947 1.73464 0
M  V30 8391 C 779.407 0.463461 1.67714 0
M  V30 8392 O 780.583 0.725685 1.87872 0
M  V30 8393 C 777.648 1.55348 3.09948 0
M  V30 8394 C 776.709 2.78074 3.27068 0
M  V30 8395 C 775.942 2.75589 4.57041 0
M  V30 8396 O 776.165 1.83545 5.40063 0
M  V30 8397 O 775.099 3.66945 4.77111 0
M  V30 8398 H 778.925 2.54169 1.66228 0
M  V30 8399 H 776.51 1.2851 0.76194 0
M  V30 8400 H 778.392 1.56545 3.91244 0
M  V30 8401 H 777.067 0.622811 3.17652 0
M  V30 8402 H 775.974 2.82435 2.45319 0
M  V30 8403 H 777.307 3.70303 3.24248 0
M  V30 8404 N 778.959 -0.83999 1.33349 0
M  V30 8405 C 780.184 -1.63249 1.27924 0
M  V30 8406 C 780.609 -1.87523 -0.147193 0
M  V30 8407 O 779.967 -1.43853 -1.10345 0
M  V30 8408 C 780.015 -2.96046 2.05886 0
M  V30 8409 O 779.119 -3.87303 1.4167 0
M  V30 8410 H 778.46 -0.49715 0.440157 0
M  V30 8411 H 780.99 -1.04512 1.75893 0
M  V30 8412 H 781 -3.45752 2.16609 0
M  V30 8413 H 779.675 -2.77701 3.09605 0
M  V30 8414 H 778.252 -3.45789 1.39585 0
M  V30 8415 N 780.437 -1.16799 -1.0581 0
M  V30 8416 C 781.347 -0.893492 -2.16919 0
M  V30 8417 C 782.363 0.136061 -1.73467 0
M  V30 8418 O 783.539 -0.0417348 -2.01357 0
M  V30 8419 C 780.604 -0.403763 -3.44341 0
M  V30 8420 C 779.665 -1.49914 -4.02274 0
M  V30 8421 C 778.898 -1.03269 -5.23614 0
M  V30 8422 O 779.121 0.115647 -5.70283 0
M  V30 8423 O 778.055 -1.8231 -5.73626 0
M  V30 8424 H 781.881 -1.82274 -2.42919 0
M  V30 8425 H 779.466 -0.948361 -1.1544 0
M  V30 8426 H 781.348 -0.137874 -4.21174 0
M  V30 8427 H 780.023 0.497413 -3.19855 0
M  V30 8428 H 778.93 -1.81883 -3.26909 0
M  V30 8429 H 780.263 -2.3758 -4.31064 0
M  V30 8430 N 781.915 1.24427 -0.967243 0
M  V30 8431 C 783.192 1.87831 -0.545776 0
M  V30 8432 C 783.572 1.87126 0.977099 0
M  V30 8433 O 782.92 1.34357 1.84826 0
M  V30 8434 C 783.13 3.29967 -1.13679 0
M  V30 8435 C 784.478 4.06654 -1.22139 0
M  V30 8436 O 785.502 3.39136 -1.08926 0
M  V30 8437 O 784.361 5.27455 -1.43017 0
M  V30 8438 H 781.455 0.806745 -0.181912 0
M  V30 8439 H 784.001 1.32403 -1.06148 0
M  V30 8440 H 782.773 3.24977 -2.17958 0
M  V30 8441 H 782.396 3.92969 -0.605093 0
M  V30 8442 N 783.393 0.737304 1.3929 0
M  V30 8443 C 784.618 0.295237 2.05288 0
M  V30 8444 C 785.043 -1.06235 1.55228 0
M  V30 8445 O 784.401 -1.67365 0.697043 0
M  V30 8446 C 784.449 0.309146 3.59272 0
M  V30 8447 O 783.553 -0.702437 4.06374 0
M  V30 8448 H 782.894 0.133762 0.650387 0
M  V30 8449 H 785.424 1.00387 1.78279 0
M  V30 8450 H 785.434 0.154336 4.07708 0
M  V30 8451 H 784.109 1.29974 3.95069 0
M  V30 8452 H 782.686 -0.513574 3.69346 0
M  V30 8453 N 784.871 -1.49948 0.485112 0
M  V30 8454 C 786.12 -2.01589 -0.066765 0
M  V30 8455 C 786.433 -1.371 -1.39509 0
M  V30 8456 O 787.639 -1.79978 -2.03274 0
M  V30 8457 C 786.095 -3.59501 -0.169476 0
M  V30 8458 C 785.703 -4.32955 1.15126 0
M  V30 8459 C 787.447 -4.19138 -0.672564 0
M  V30 8460 C 785.354 -5.82684 1.01158 0
M  V30 8461 H 784.284 -0.753453 -0.0287259 0
M  V30 8462 H 786.935 -1.72632 0.622132 0
M  V30 8463 H 785.317 -3.85106 -0.922471 0
M  V30 8464 H 786.491 -4.19064 1.9163 0
M  V30 8465 H 784.806 -3.84991 1.58654 0
M  V30 8466 H 787.403 -5.28767 -0.794325 0
M  V30 8467 H 787.746 -3.81447 -1.66745 0
M  V30 8468 H 788.279 -3.97793 0.0234415 0
M  V30 8469 H 785.018 -6.24873 1.98025 0
M  V30 8470 H 784.538 -5.99112 0.287151 0
M  V30 8471 H 786.217 -6.43376 0.683847 0
M  V30 8472 N 786.349 -0.21828 -1.56081 0
M  V30 8473 C 787.765 0.137168 -1.59009 0
M  V30 8474 C 787.965 1.59215 -1.23503 0
M  V30 8475 O 787.021 2.33178 -0.968716 0
M  V30 8476 C 788.334 -0.186162 -3.00123 0
M  V30 8477 C 789.882 -0.128135 -3.12738 0
M  V30 8478 C 790.357 -0.425094 -4.56023 0
M  V30 8479 N 791.848 -0.374547 -4.61683 0
M  V30 8480 C 792.583 -0.57786 -5.70481 0
M  V30 8481 N 792.079 -0.842771 -6.87655 0
M  V30 8482 N 793.872 -0.510521 -5.59777 0
M  V30 8483 H 786.023 -1.16746 -1.77437 0
M  V30 8484 H 788.286 -0.467706 -0.824594 0
M  V30 8485 H 787.992 -1.19589 -3.30744 0
M  V30 8486 H 787.866 0.500388 -3.73866 0
M  V30 8487 H 790.253 0.872224 -2.81915 0
M  V30 8488 H 790.334 -0.848112 -2.41331 0
M  V30 8489 H 789.978 -1.42288 -4.87562 0
M  V30 8490 H 789.908 0.316038 -5.25651 0
M  V30 8491 H 792.399 -0.177356 -3.77484 0
M  V30 8492 H 792.712 -0.986095 -7.66483 0
M  V30 8493 H 791.057 -0.879929 -6.89407 0
M  V30 8494 H 794.248 -0.303813 -4.67113 0
M  V30 8495 H 794.421 -0.672378 -6.44502 0
M  V30 8496 N 787.827 1.57504 0.0551401 0
M  V30 8497 C 789.243 1.54236 0.410292 0
M  V30 8498 C 789.443 0.940839 1.78187 0
M  V30 8499 O 788.499 0.550541 2.46425 0
M  V30 8500 C 789.812 2.98816 0.336064 0
M  V30 8501 C 791.36 3.10236 0.415047 0
M  V30 8502 C 791.835 4.56499 0.37055 0
M  V30 8503 N 793.326 4.61199 0.43013 0
M  V30 8504 C 794.061 5.71873 0.418179 0
M  V30 8505 N 793.557 6.91864 0.360056 0
M  V30 8506 N 795.35 5.60165 0.465977 0
M  V30 8507 H 787.501 1.94965 -0.842759 0
M  V30 8508 H 789.764 0.893096 -0.317937 0
M  V30 8509 H 789.47 3.4645 -0.605429 0
M  V30 8510 H 789.344 3.59564 1.13988 0
M  V30 8511 H 791.731 2.62566 1.34697 0
M  V30 8512 H 791.812 2.52367 -0.417648 0
M  V30 8513 H 791.456 5.0483 -0.557592 0
M  V30 8514 H 791.386 5.12249 1.221 0
M  V30 8515 H 793.877 3.74857 0.478623 0
M  V30 8516 H 794.19 7.71983 0.35532 0
M  V30 8517 H 792.535 6.94233 0.326492 0
M  V30 8518 H 795.726 4.65322 0.509194 0
M  V30 8519 H 795.899 6.46413 0.453194 0
M  V30 8520 N 789.305 -0.326896 1.54172 0
M  V30 8521 C 790.252 -1.40216 1.83325 0
M  V30 8522 C 791.222 -1.51538 0.680107 0
M  V30 8523 O 792.407 -1.66811 0.926206 0
M  V30 8524 C 789.547 -2.76626 2.0633 0
M  V30 8525 C 788.66 -2.73963 3.34019 0
M  V30 8526 C 787.795 -4.02198 3.47002 0
M  V30 8527 C 786.834 -3.93828 4.68578 0
M  V30 8528 N 785.971 -5.13787 4.78506 0
M  V30 8529 H 790.811 -1.14656 2.7506 0
M  V30 8530 H 788.348 -0.555089 1.36225 0
M  V30 8531 H 790.306 -3.55922 2.17659 0
M  V30 8532 H 788.936 -3.00503 1.1789 0
M  V30 8533 H 787.988 -1.86677 3.31445 0
M  V30 8534 H 789.3 -2.6366 4.2342 0
M  V30 8535 H 788.454 -4.89923 3.57855 0
M  V30 8536 H 787.193 -4.15302 2.55687 0
M  V30 8537 H 786.198 -3.04487 4.57786 0
M  V30 8538 H 787.423 -3.82292 5.61275 0
M  V30 8539 H 785.369 -5.27403 3.90105 0
M  V30 8540 H 785.286 -5.05807 5.61868 0
M  V30 8541 H 786.554 -6.03236 4.93686 0
M  V30 8542 N 790.784 -1.46188 -0.588786 0
M  V30 8543 C 792.032 -1.50885 -1.34455 0
M  V30 8544 C 792.353 -0.159555 -1.94346 0
M  V30 8545 O 791.623 0.813239 -1.78222 0
M  V30 8546 H 790.203 -0.555707 -0.499198 0
M  V30 8547 H 792.865 -1.82277 -0.690014 0
M  V30 8548 H 791.961 -2.25816 -2.15438 0
M  V30 8549 N 792.262 0.832906 -1.33792 0
M  V30 8550 C 793.509 1.58853 -1.25586 0
M  V30 8551 C 793.837 1.93695 0.176807 0
M  V30 8552 O 793.092 1.59386 1.13554 0
M  V30 8553 C 793.391 2.9047 -2.08235 0
M  V30 8554 C 793.057 2.74965 -3.57358 0
M  V30 8555 C 791.719 2.70444 -3.98012 0
M  V30 8556 C 794.071 2.59347 -4.52093 0
M  V30 8557 C 791.399 2.48212 -5.31608 0
M  V30 8558 C 793.751 2.38649 -5.85858 0
M  V30 8559 C 792.415 2.32533 -6.25687 0
M  V30 8560 H 791.685 0.581285 -0.459553 0
M  V30 8561 H 794.332 0.964501 -1.65438 0
M  V30 8562 H 792.637 3.57111 -1.6118 0
M  V30 8563 H 794.334 3.48001 -1.99239 0
M  V30 8564 H 790.924 2.79319 -3.25083 0
M  V30 8565 H 795.108 2.6187 -4.2159 0
M  V30 8566 H 790.364 2.41929 -5.61498 0
M  V30 8567 H 794.538 2.25549 -6.58863 0
M  V30 8568 H 792.165 2.15067 -7.29143 0
M  V30 8569 N 793.74 1.17359 1.05189 0
M  V30 8570 C 795.156 0.920861 1.30355 0
M  V30 8571 C 795.356 -0.419993 1.97074 0
M  V30 8572 O 794.412 -1.15696 2.24434 0
M  V30 8573 C 795.725 2.07818 2.1733 0
M  V30 8574 C 797.273 2.1152 2.30712 0
M  V30 8575 C 797.748 3.26637 3.21048 0
M  V30 8576 N 799.239 3.26426 3.28634 0
M  V30 8577 C 799.974 4.12141 3.98657 0
M  V30 8578 N 799.47 5.07966 4.71107 0
M  V30 8579 N 801.263 4.00091 3.94821 0
M  V30 8580 H 793.414 2.03666 0.602821 0
M  V30 8581 H 795.677 0.889294 0.328421 0
M  V30 8582 H 795.383 3.04727 1.75597 0
M  V30 8583 H 795.257 2.02922 3.17966 0
M  V30 8584 H 797.644 1.15196 2.71687 0
M  V30 8585 H 797.725 2.20477 1.29706 0
M  V30 8586 H 797.369 4.23227 2.80788 0
M  V30 8587 H 797.299 3.14917 4.2206 0
M  V30 8588 H 799.79 2.57045 2.77013 0
M  V30 8589 H 800.103 5.69766 5.22099 0
M  V30 8590 H 798.448 5.11936 4.7005 0
M  V30 8591 H 801.639 3.24523 3.37346 0
M  V30 8592 H 801.812 4.6711 4.49123 0
M  V30 8593 N 795.218 -1.23913 0.973828 0
M  V30 8594 C 796.465 -1.92151 0.639079 0
M  V30 8595 C 796.793 -1.76064 -0.826545 0
M  V30 8596 O 796.048 -1.11126 -1.61088 0
M  V30 8597 C 796.347 -3.4406 0.967356 0
M  V30 8598 C 796.013 -3.80321 2.42212 0
M  V30 8599 C 794.675 -3.8993 2.81971 0
M  V30 8600 C 797.027 -3.97935 3.36596 0
M  V30 8601 C 794.355 -4.14575 4.15144 0
M  V30 8602 C 796.707 -4.24079 4.69404 0
M  V30 8603 C 795.371 -4.31908 5.08932 0
M  V30 8604 H 794.641 -0.70313 0.233856 0
M  V30 8605 H 797.288 -1.47072 1.22646 0
M  V30 8606 H 795.593 -3.90667 0.297807 0
M  V30 8607 H 797.29 -3.95077 0.686654 0
M  V30 8608 H 793.88 -3.73411 2.10385 0
M  V30 8609 H 798.064 -3.89908 3.07059 0
M  V30 8610 H 793.32 -4.18858 4.45385 0
M  V30 8611 H 797.494 -4.36652 5.42502 0
M  V30 8612 H 795.121 -4.50758 6.12145 0
M  V30 8613 N 796.696 -0.74468 -1.38897 0
M  V30 8614 C 797.921 -0.306119 -2.05128 0
M  V30 8615 C 798.346 1.0541 -1.55789 0
M  V30 8616 O 797.704 1.66993 -0.705909 0
M  V30 8617 C 797.752 -0.328195 -3.59103 0
M  V30 8618 O 796.856 0.680876 -4.06741 0
M  V30 8619 H 796.197 -0.137209 -0.649669 0
M  V30 8620 H 798.727 -1.01331 -1.77745 0
M  V30 8621 H 798.737 -0.175956 -4.0762 0
M  V30 8622 H 797.412 -1.32067 -3.94374 0
M  V30 8623 H 795.989 0.49398 -3.69614 0
M  V30 8624 N 798.174 1.49689 -0.493057 0
M  V30 8625 C 799.104 2.31826 0.279073 0
M  V30 8626 C 800.085 1.39733 0.969987 0
M  V30 8627 O 801.27 1.68646 0.962925 0
M  V30 8628 C 798.4 3.20046 1.34862 0
M  V30 8629 C 797.354 4.20869 0.77805 0
M  V30 8630 C 796.68 4.97971 1.94753 0
M  V30 8631 C 797.98 5.21813 -0.225543 0
M  V30 8632 H 799.674 2.96627 -0.406512 0
M  V30 8633 H 797.22 1.42647 -0.196943 0
M  V30 8634 H 799.173 3.76315 1.89645 0
M  V30 8635 H 797.897 2.53172 2.06328 0
M  V30 8636 H 796.556 3.65733 0.252036 0
M  V30 8637 H 796.204 4.27552 2.64969 0
M  V30 8638 H 795.904 5.66186 1.57187 0
M  V30 8639 H 797.428 5.57082 2.49984 0
M  V30 8640 H 798.842 5.72823 0.233864 0
M  V30 8641 H 797.239 5.97872 -0.516622 0
M  V30 8642 H 798.309 4.71209 -1.14412 0
M  V30 8643 N 799.652 0.226554 1.55963 0
M  V30 8644 C 800.562 -0.692725 2.24139 0
M  V30 8645 C 801.578 -1.20971 1.25068 0
M  V30 8646 O 802.754 -1.25027 1.57893 0
M  V30 8647 C 799.819 -1.88183 2.91184 0
M  V30 8648 C 798.88 -1.40633 4.05612 0
M  V30 8649 C 798.113 -2.53875 4.6945 0
M  V30 8650 O 798.336 -3.72129 4.32292 0
M  V30 8651 O 797.27 -2.24792 5.58348 0
M  V30 8652 H 801.096 -0.141921 3.03368 0
M  V30 8653 H 798.681 -0.0041049 1.49399 0
M  V30 8654 H 800.563 -2.57617 3.33484 0
M  V30 8655 H 799.238 -2.42064 2.14911 0
M  V30 8656 H 798.145 -0.67986 3.67871 0
M  V30 8657 H 799.478 -0.913838 4.83642 0
M  V30 8658 N 801.13 -1.57531 -0.0467866 0
M  V30 8659 C 802.378 -1.88078 -0.739656 0
M  V30 8660 C 802.699 -0.821936 -1.76831 0
M  V30 8661 O 801.969 0.146582 -1.95351 0
M  V30 8662 H 800.549 -0.694075 -0.276169 0
M  V30 8663 H 803.211 -1.94893 -0.0169391 0
M  V30 8664 H 802.307 -2.86396 -1.24031 0
M  V30 8665 N 802.608 0.318715 -1.54344 0
M  V30 8666 C 803.833 1.07987 -1.77069 0
M  V30 8667 C 804.258 1.80766 -0.520117 0
M  V30 8668 O 803.616 1.73424 0.528566 0
M  V30 8669 C 803.664 2.04987 -2.96669 0
M  V30 8670 O 802.768 3.12974 -2.68554 0
M  V30 8671 H 802.109 0.311109 -0.586606 0
M  V30 8672 H 804.639 0.361533 -2.0138 0
M  V30 8673 H 804.649 2.47771 -3.2415 0
M  V30 8674 H 803.324 1.51417 -3.87357 0
M  V30 8675 H 801.901 2.74831 -2.52037 0
M  V30 8676 N 804.086 1.46499 0.581025 0
M  V30 8677 C 805.502 1.31491 0.904563 0
M  V30 8678 C 805.702 0.287598 1.99437 0
M  V30 8679 O 804.758 -0.309247 2.50599 0
M  V30 8680 C 806.071 2.70163 1.32032 0
M  V30 8681 C 807.619 2.78266 1.43308 0
M  V30 8682 C 808.094 4.17524 1.8825 0
M  V30 8683 N 809.585 4.19949 1.9544 0
M  V30 8684 C 810.32 5.24594 2.31493 0
M  V30 8685 N 809.816 6.39564 2.66326 0
M  V30 8686 N 811.609 5.11961 2.32062 0
M  V30 8687 H 803.76 2.11946 -0.138856 0
M  V30 8688 H 806.023 0.948 0.000548528 0
M  V30 8689 H 805.729 3.46655 0.593554 0
M  V30 8690 H 805.603 3.00379 2.2815 0
M  V30 8691 H 807.99 2.02061 2.15071 0
M  V30 8692 H 808.071 2.51732 0.45438 0
M  V30 8693 H 807.715 4.94225 1.17065 0
M  V30 8694 H 807.645 4.41466 2.87081 0
M  V30 8695 H 810.136 3.36996 1.71004 0
M  V30 8696 H 810.449 7.15187 2.92793 0
M  V30 8697 H 808.794 6.42923 2.6396 0
M  V30 8698 H 811.985 4.21177 2.04272 0
M  V30 8699 H 812.158 5.93626 2.5983 0
M  V30 8700 N 805.565 -0.825799 1.34232 0
M  V30 8701 C 806.495 -1.95151 1.28212 0
M  V30 8702 C 807.476 -1.69345 0.160123 0
M  V30 8703 O 808.661 -1.90983 0.352019 0
M  V30 8704 C 805.791 -3.31554 1.03388 0
M  V30 8705 C 804.745 -3.71793 2.12023 0
M  V30 8706 C 804.071 -5.06147 1.72392 0
M  V30 8707 C 805.371 -3.84193 3.53826 0
M  V30 8708 H 807.065 -2.00445 2.22401 0
M  V30 8709 H 804.611 -0.962996 1.07063 0
M  V30 8710 H 806.564 -4.09889 0.978225 0
M  V30 8711 H 805.288 -3.26551 0.0564142 0
M  V30 8712 H 803.947 -2.95731 2.16654 0
M  V30 8713 H 803.595 -4.97628 0.733137 0
M  V30 8714 H 803.295 -5.34041 2.451 0
M  V30 8715 H 804.819 -5.86943 1.68317 0
M  V30 8716 H 806.233 -4.52806 3.51624 0
M  V30 8717 H 804.63 -4.23538 4.2513 0
M  V30 8718 H 805.7 -2.86272 3.91377 0
M  V30 8719 N 807.043 -1.17915 -1.04565 0
M  V30 8720 C 808.271 -0.99616 -1.8134 0
M  V30 8721 C 808.686 0.455509 -1.83223 0
M  V30 8722 O 808.043 1.31636 -1.26405 0
M  V30 8723 C 808.094 -1.53758 -3.27171 0
M  V30 8724 O 807.815 -2.93241 -3.25486 0
M  V30 8725 C 809.316 -1.40007 -4.2061 0
M  V30 8726 H 806.536 -0.352055 -0.571225 0
M  V30 8727 H 809.08 -1.56349 -1.31815 0
M  V30 8728 H 807.235 -1.01213 -3.73945 0
M  V30 8729 H 807.649 -3.18392 -4.16805 0
M  V30 8730 H 809.123 -1.82695 -5.2089 0
M  V30 8731 H 809.6 -0.348054 -4.37819 0
M  V30 8732 H 810.206 -1.916 -3.79697 0
M  V30 8733 N 808.521 1.23394 -0.980386 0
M  V30 8734 C 809.751 1.9556 -0.666319 0
M  V30 8735 C 810.159 1.72786 0.770815 0
M  V30 8736 O 809.502 1.0162 1.53033 0
M  V30 8737 C 809.564 3.48643 -0.876825 0
M  V30 8738 C 809.228 3.95135 -2.29602 0
M  V30 8739 C 810.225 4.03806 -3.2747 0
M  V30 8740 C 807.91 4.28122 -2.62711 0
M  V30 8741 C 809.904 4.44818 -4.56526 0
M  V30 8742 C 807.591 4.68814 -3.9199 0
M  V30 8743 C 808.589 4.77129 -4.88709 0
M  V30 8744 O 808.277 5.16908 -6.15679 0
M  V30 8745 H 808.009 0.629422 -0.246585 0
M  V30 8746 H 810.563 1.57839 -1.31438 0
M  V30 8747 H 808.793 3.86319 -0.171587 0
M  V30 8748 H 810.482 4.0202 -0.55992 0
M  V30 8749 H 811.248 3.78526 -3.03222 0
M  V30 8750 H 807.127 4.20861 -1.8814 0
M  V30 8751 H 810.671 4.51223 -5.32018 0
M  V30 8752 H 806.568 4.93545 -4.16033 0
M  V30 8753 H 807.336 5.3502 -6.19432 0
M  V30 8754 N 809.999 0.752036 1.385 0
M  V30 8755 C 810.909 0.125318 2.34265 0
M  V30 8756 C 811.925 -0.702437 1.59191 0
M  V30 8757 O 813.101 -0.626951 1.91393 0
M  V30 8758 C 810.166 -0.758486 3.38301 0
M  V30 8759 C 809.227 0.0834636 4.29219 0
M  V30 8760 C 808.46 -0.758252 5.28286 0
M  V30 8761 O 808.683 -1.99632 5.34325 0
M  V30 8762 O 807.617 -0.177878 6.01637 0
M  V30 8763 H 811.443 0.91617 2.89551 0
M  V30 8764 H 809.028 0.512911 1.4032 0
M  V30 8765 H 810.91 -1.26365 4.02007 0
M  V30 8766 H 809.585 -1.52786 2.85374 0
M  V30 8767 H 808.492 0.634545 3.68679 0
M  V30 8768 H 809.825 0.815455 4.85398 0
M  V30 8769 N 811.477 -1.49425 0.500989 0
M  V30 8770 C 812.424 -2.29126 -0.277443 0
M  V30 8771 C 813.394 -1.35522 -0.960363 0
M  V30 8772 O 814.579 -1.64479 -0.967027 0
M  V30 8773 C 811.719 -3.18193 -1.33593 0
M  V30 8774 C 810.832 -4.26854 -0.664791 0
M  V30 8775 C 809.967 -5.03137 -1.70372 0
M  V30 8776 C 809.006 -6.03635 -1.01445 0
M  V30 8777 N 808.143 -6.73083 -1.99758 0
M  V30 8778 H 812.983 -2.95187 0.408458 0
M  V30 8779 H 810.52 -1.45546 0.213275 0
M  V30 8780 H 812.478 -3.68207 -1.96161 0
M  V30 8781 H 811.108 -2.54116 -1.9906 0
M  V30 8782 H 810.16 -3.80328 0.0741708 0
M  V30 8783 H 811.472 -4.9865 -0.122197 0
M  V30 8784 H 810.626 -5.5702 -2.40445 0
M  V30 8785 H 809.365 -4.31114 -2.28017 0
M  V30 8786 H 808.37 -5.48984 -0.299496 0
M  V30 8787 H 809.595 -6.77644 -0.444497 0
M  V30 8788 H 807.541 -6.03832 -2.56365 0
M  V30 8789 H 807.458 -7.40855 -1.50565 0
M  V30 8790 H 808.726 -7.3157 -2.69119 0
M  V30 8791 N 812.955 -0.234822 -1.55841 0
M  V30 8792 C 814.371 0.120295 -1.59146 0
M  V30 8793 C 814.571 1.57896 -1.25184 0
M  V30 8794 O 813.627 2.32138 -0.993393 0
M  V30 8795 C 814.94 -0.217984 -2.99909 0
M  V30 8796 C 816.488 -0.161298 -3.12584 0
M  V30 8797 C 816.963 -0.473438 -4.55546 0
M  V30 8798 N 818.454 -0.423494 -4.6126 0
M  V30 8799 C 819.189 -0.638334 -5.69836 0
M  V30 8800 N 818.685 -0.915659 -6.86722 0
M  V30 8801 N 820.478 -0.569864 -5.59204 0
M  V30 8802 H 812.629 -1.18622 -1.76189 0
M  V30 8803 H 814.892 -0.476426 -0.819587 0
M  V30 8804 H 814.598 -1.2309 -3.29457 0
M  V30 8805 H 814.472 0.460707 -3.74376 0
M  V30 8806 H 816.859 0.842274 -2.82825 0
M  V30 8807 H 816.94 -0.873661 -2.40418 0
M  V30 8808 H 816.584 -1.47451 -4.86025 0
M  V30 8809 H 816.514 0.260268 -5.25956 0
M  V30 8810 H 819.005 -0.217383 -3.77274 0
M  V30 8811 H 819.318 -1.06734 -7.65394 0
M  V30 8812 H 817.663 -0.953 -6.88435 0
M  V30 8813 H 820.854 -0.35334 -4.66765 0
M  V30 8814 H 821.027 -0.740698 -6.43753 0
M  V30 8815 N 814.433 1.57553 0.0384317 0
M  V30 8816 C 815.68 1.88841 0.731116 0
M  V30 8817 C 816.008 0.83093 1.75857 0
M  V30 8818 O 815.263 -0.169248 1.94967 0
M  V30 8819 C 815.562 3.26862 1.44554 0
M  V30 8820 C 815.228 4.47472 0.554946 0
M  V30 8821 C 813.89 4.80203 0.309621 0
M  V30 8822 C 816.242 5.21165 -0.0605204 0
M  V30 8823 C 813.57 5.8402 -0.560101 0
M  V30 8824 C 815.922 6.25905 -0.91789 0
M  V30 8825 C 814.586 6.57117 -1.17277 0
M  V30 8826 H 813.856 0.691018 0.267534 0
M  V30 8827 H 816.503 1.91498 -0.00883195 0
M  V30 8828 H 814.808 3.2015 2.25856 0
M  V30 8829 H 816.505 3.48316 1.98688 0
M  V30 8830 H 813.095 4.21874 0.756304 0
M  V30 8831 H 817.279 4.96164 0.116064 0
M  V30 8832 H 812.535 6.06583 -0.765974 0
M  V30 8833 H 816.709 6.82155 -1.40136 0
M  V30 8834 H 814.336 7.37385 -1.84843 0
M  V30 8835 N 815.911 -0.310526 1.54511 0
M  V30 8836 C 817.136 -1.07046 1.7764 0
M  V30 8837 C 817.561 -1.80488 0.529696 0
M  V30 8838 O 816.919 -1.73702 -0.519361 0
M  V30 8839 C 816.967 -2.03411 2.97752 0
M  V30 8840 O 816.071 -3.11545 2.7021 0
M  V30 8841 H 815.412 -0.307994 0.588248 0
M  V30 8842 H 817.942 -0.350848 2.01569 0
M  V30 8843 H 817.952 -2.46048 3.2546 0
M  V30 8844 H 816.627 -1.49361 3.88155 0
M  V30 8845 H 815.204 -2.7349 2.53491 0
M  V30 8846 N 817.389 -1.46805 -0.573248 0
M  V30 8847 C 818.614 -1.56433 -1.36175 0
M  V30 8848 C 819.039 -0.209336 -1.86932 0
M  V30 8849 O 818.397 0.812146 -1.62092 0
M  V30 8850 C 818.445 -2.58055 -2.51873 0
M  V30 8851 O 817.549 -2.12214 -3.53609 0
M  V30 8852 H 816.89 -0.526068 -0.405153 0
M  V30 8853 H 819.42 -1.92456 -0.694405 0
M  V30 8854 H 819.43 -2.77966 -2.98662 0
M  V30 8855 H 818.105 -3.56448 -2.14284 0
M  V30 8856 H 816.682 -2.02333 -3.13234 0
M  V30 8857 N 818.867 0.818669 -1.34668 0
M  V30 8858 C 820.278 1.39177 -1.24446 0
M  V30 8859 C 820.629 1.9578 0.128268 0
M  V30 8860 O 819.754 1.90382 1.02877 0
M  V30 8861 C 820.349 2.53012 -2.25323 0
M  V30 8862 C 818.908 3.06218 -2.18878 0
M  V30 8863 C 818.055 1.79112 -2.11694 0
M  V30 8864 H 821.006 0.622709 -1.45973 0
M  V30 8865 H 821.027 3.31226 -1.8727 0
M  V30 8866 H 820.539 2.11784 -3.25221 0
M  V30 8867 H 818.64 3.51939 -1.22351 0
M  V30 8868 H 818.753 3.65019 -3.10319 0
M  V30 8869 H 817.117 2.0018 -1.57481 0
M  V30 8870 H 817.9 1.40053 -3.13433 0
M  V30 8871 N 820.346 1.18468 1.03938 0
M  V30 8872 C 821.296 0.880799 2.103 0
M  V30 8873 C 822.28 -0.150008 1.60199 0
M  V30 8874 O 823.472 0.054213 1.76917 0
M  V30 8875 C 820.601 0.409723 3.40846 0
M  V30 8876 C 819.687 1.47267 3.9771 0
M  V30 8877 N 820.078 2.68945 4.28371 0
M  V30 8878 C 818.376 1.33349 4.25598 0
M  V30 8879 C 819.077 3.37341 4.73894 0
M  V30 8880 N 818.053 2.64725 4.74786 0
M  V30 8881 H 821.855 1.80574 2.31884 0
M  V30 8882 H 819.369 1.07527 1.21703 0
M  V30 8883 H 821.366 0.17352 4.16539 0
M  V30 8884 H 820.026 -0.508862 3.20688 0
M  V30 8885 H 821.037 3.05801 4.17978 0
M  V30 8886 H 817.714 0.477548 4.1476 0
M  V30 8887 H 819.104 4.41338 5.06627 0
M  V30 8888 N 821.824 -1.22873 0.986916 0
M  V30 8889 C 822.756 -2.23889 0.490537 0
M  V30 8890 C 823.769 -1.57523 -0.411144 0
M  V30 8891 O 824.958 -1.7721 -0.214236 0
M  V30 8892 C 822.058 -3.37488 -0.30902 0
M  V30 8893 C 821.231 -4.33438 0.587354 0
M  V30 8894 C 820.29 -5.25958 -0.159467 0
M  V30 8895 O 819.316 -5.67394 0.453115 0
M  V30 8896 N 820.518 -5.62265 -1.44355 0
M  V30 8897 H 823.283 -2.67109 1.35914 0
M  V30 8898 H 820.844 -1.37111 0.860937 0
M  V30 8899 H 822.836 -3.96365 -0.817139 0
M  V30 8900 H 821.406 -2.934 -1.07868 0
M  V30 8901 H 820.626 -3.72969 1.27622 0
M  V30 8902 H 821.914 -4.94495 1.19801 0
M  V30 8903 H 821.312 -5.30562 -1.96266 0
M  V30 8904 H 819.869 -6.23585 -1.89698 0
M  V30 8905 N 823.302 -0.75937 -1.38099 0
M  V30 8906 C 824.527 -0.327859 -2.04792 0
M  V30 8907 C 824.952 1.03752 -1.56899 0
M  V30 8908 O 824.31 1.66235 -0.723581 0
M  V30 8909 C 824.358 -0.366264 -3.58735 0
M  V30 8910 O 823.462 0.637697 -4.0744 0
M  V30 8911 H 822.803 -0.144092 -0.648177 0
M  V30 8912 H 825.333 -1.03211 -1.7666 0
M  V30 8913 H 825.343 -0.219179 -4.07411 0
M  V30 8914 H 824.018 -1.36243 -3.92951 0
M  V30 8915 H 822.595 0.454749 -3.70117 0
M  V30 8916 N 824.78 1.49157 -0.508906 0
M  V30 8917 C 825.71 2.32109 0.254469 0
M  V30 8918 C 826.691 1.40754 0.955111 0
M  V30 8919 O 827.876 1.69658 0.944983 0
M  V30 8920 C 825.006 3.21458 1.3146 0
M  V30 8921 C 823.96 4.2167 0.733368 0
M  V30 8922 C 823.286 5.00009 1.8946 0
M  V30 8923 C 824.586 5.21544 -0.280875 0
M  V30 8924 H 826.28 2.9618 -0.43795 0
M  V30 8925 H 823.826 1.4243 -0.212062 0
M  V30 8926 H 825.779 3.78305 1.85643 0
M  V30 8927 H 824.503 2.55346 2.03632 0
M  V30 8928 H 823.162 3.65979 0.213231 0
M  V30 8929 H 822.81 4.30338 2.60419 0
M  V30 8930 H 822.51 5.67821 1.51173 0
M  V30 8931 H 824.034 5.59702 2.44061 0
M  V30 8932 H 825.448 5.73039 0.173095 0
M  V30 8933 H 823.845 5.97291 -0.580006 0
M  V30 8934 H 824.915 4.69969 -1.19404 0
M  V30 8935 N 826.258 0.243083 1.55714 0
M  V30 8936 C 827.188 -0.652336 2.24203 0
M  V30 8937 C 828.169 -1.1843 1.221 0
M  V30 8938 O 829.354 -1.22435 1.50743 0
M  V30 8939 C 826.484 -1.85111 2.93856 0
M  V30 8940 C 825.438 -1.45208 4.02615 0
M  V30 8941 C 824.764 -2.73137 4.59674 0
M  V30 8942 C 826.064 -0.625988 5.18535 0
M  V30 8943 H 827.758 -0.0812504 2.9929 0
M  V30 8944 H 825.304 -0.0376388 1.43951 0
M  V30 8945 H 827.257 -2.48314 3.40468 0
M  V30 8946 H 825.981 -2.44751 2.16251 0
M  V30 8947 H 824.64 -0.843406 3.56766 0
M  V30 8948 H 824.288 -3.30967 3.78774 0
M  V30 8949 H 823.988 -2.47163 5.33089 0
M  V30 8950 H 825.512 -3.37245 5.09017 0
M  V30 8951 H 826.926 -1.16223 5.61396 0
M  V30 8952 H 825.323 -0.462465 5.98315 0
M  V30 8953 H 826.393 0.362652 4.83542 0
M  V30 8954 N 827.736 -1.57571 -0.0300757 0
M  V30 8955 C 828.961 -1.93879 -0.736601 0
M  V30 8956 C 829.386 -0.842998 -1.68152 0
M  V30 8957 O 828.744 0.20135 -1.80178 0
M  V30 8958 C 828.792 -3.29247 -1.47066 0
M  V30 8959 O 827.896 -3.21426 -2.58378 0
M  V30 8960 H 827.237 -0.633735 -0.198181 0
M  V30 8961 H 829.767 -2.04595 0.0141485 0
M  V30 8962 H 829.777 -3.64113 -1.84081 0
M  V30 8963 H 828.452 -4.08565 -0.77764 0
M  V30 8964 H 827.029 -2.98189 -2.23914 0
M  V30 8965 N 829.214 0.302327 -1.54673 0
M  V30 8966 C 830.463 1.03533 -1.73101 0
M  V30 8967 C 830.776 1.88473 -0.523174 0
M  V30 8968 O 831.982 2.65029 -0.589229 0
M  V30 8969 C 830.438 1.89043 -3.06252 0
M  V30 8970 C 830.046 1.09112 -4.3451 0
M  V30 8971 C 831.79 2.61951 -3.34039 0
M  V30 8972 C 829.697 1.93891 -5.58713 0
M  V30 8973 H 828.627 0.390261 -0.645145 0
M  V30 8974 H 831.278 0.2924 -1.81155 0
M  V30 8975 H 829.66 2.67319 -2.92159 0
M  V30 8976 H 830.834 0.354596 -4.59434 0
M  V30 8977 H 829.149 0.477923 -4.13648 0
M  V30 8978 H 831.746 3.25729 -4.24033 0
M  V30 8979 H 832.089 3.30711 -2.52855 0
M  V30 8980 H 832.622 1.90725 -3.49097 0
M  V30 8981 H 829.361 1.29604 -6.4256 0
M  V30 8982 H 828.881 2.6522 -5.37976 0
M  V30 8983 H 830.56 2.51971 -5.95919 0
M  V30 8984 N 830.692 1.47107 0.565454 0
M  V30 8985 C 832.108 1.32443 0.890566 0
M  V30 8986 C 832.308 0.308735 1.99121 0
M  V30 8987 O 831.364 -0.28265 2.50913 0
M  V30 8988 C 832.677 2.71548 1.2916 0
M  V30 8989 C 834.225 2.7977 1.40349 0
M  V30 8990 C 834.7 4.19497 1.83811 0
M  V30 8991 N 836.191 4.21998 1.90975 0
M  V30 8992 C 836.926 5.2702 2.25916 0
M  V30 8993 N 836.422 6.42353 2.59527 0
M  V30 8994 N 838.215 5.14393 2.26619 0
M  V30 8995 H 830.366 2.11786 -0.161328 0
M  V30 8996 H 832.629 0.947952 -0.00950631 0
M  V30 8997 H 832.335 3.47265 0.556753 0
M  V30 8998 H 832.209 3.02782 2.24951 0
M  V30 8999 H 834.596 2.0433 2.12916 0
M  V30 9000 H 834.677 2.522 0.427655 0
M  V30 9001 H 834.321 4.95439 1.11816 0
M  V30 9002 H 834.251 4.44486 2.82382 0
M  V30 9003 H 836.742 3.38791 1.6742 0
M  V30 9004 H 837.055 7.18252 2.85191 0
M  V30 9005 H 835.4 6.45687 2.57126 0
M  V30 9006 H 838.591 4.2332 1.99794 0
M  V30 9007 H 838.764 5.96349 2.5352 0
M  V30 9008 N 832.17 -0.811516 1.35101 0
M  V30 9009 C 833.418 -1.56525 1.27845 0
M  V30 9010 C 833.739 -1.94435 -0.14829 0
M  V30 9011 O 833.009 -1.63203 -1.08359 0
M  V30 9012 H 831.589 -0.580433 0.47022 0
M  V30 9013 H 834.251 -0.968277 1.69146 0
M  V30 9014 H 833.347 -2.48291 1.89097 0
M  V30 9015 N 833.648 -1.19017 -1.03309 0
M  V30 9016 C 834.873 -1.01598 -1.80811 0
M  V30 9017 C 835.298 0.430773 -1.83101 0
M  V30 9018 O 834.656 1.30946 -1.25391 0
M  V30 9019 C 834.704 -1.5845 -3.23923 0
M  V30 9020 O 833.808 -0.810972 -4.04348 0
M  V30 9021 H 833.149 -0.359398 -0.558327 0
M  V30 9022 H 835.679 -1.57945 -1.30055 0
M  V30 9023 H 835.689 -1.61486 -3.74682 0
M  V30 9024 H 834.364 -2.63752 -3.21571 0
M  V30 9025 H 832.941 -0.85353 -3.63 0
M  V30 9026 N 835.127 1.22348 -0.993418 0
M  V30 9027 C 836.057 2.26584 -0.564088 0
M  V30 9028 C 837.038 1.65102 0.409298 0
M  V30 9029 O 838.223 1.91872 0.299819 0
M  V30 9030 C 835.353 3.47087 0.121554 0
M  V30 9031 C 834.307 4.21009 -0.770429 0
M  V30 9032 C 833.633 5.34678 0.0481586 0
M  V30 9033 C 834.933 4.79636 -2.06752 0
M  V30 9034 H 836.627 2.62749 -1.43538 0
M  V30 9035 H 834.173 1.26303 -0.691628 0
M  V30 9036 H 836.126 4.19166 0.433303 0
M  V30 9037 H 834.85 3.1002 1.0274 0
M  V30 9038 H 833.509 3.50764 -1.06583 0
M  V30 9039 H 833.157 4.93852 0.954933 0
M  V30 9040 H 832.857 5.85061 -0.545641 0
M  V30 9041 H 834.381 6.09573 0.353991 0
M  V30 9042 H 835.795 5.43654 -1.81969 0
M  V30 9043 H 834.192 5.4036 -2.61019 0
M  V30 9044 H 835.262 3.99659 -2.74592 0
M  V30 9045 N 836.605 0.766683 1.37694 0
M  V30 9046 C 837.852 0.328714 1.99814 0
M  V30 9047 C 838.18 -1.09333 1.60862 0
M  V30 9048 O 837.435 -1.7657 0.8439 0
M  V30 9049 C 837.734 0.413831 3.54996 0
M  V30 9050 C 837.4 1.7934 4.137 0
M  V30 9051 C 836.062 2.17092 4.29447 0
M  V30 9052 C 838.414 2.69776 4.45949 0
M  V30 9053 C 835.742 3.44726 4.74743 0
M  V30 9054 C 838.094 3.96814 4.92667 0
M  V30 9055 C 836.758 4.34618 5.0662 0
M  V30 9056 H 836.028 0.120285 0.731172 0
M  V30 9057 H 838.675 0.97972 1.64541 0
M  V30 9058 H 836.98 -0.320723 3.90485 0
M  V30 9059 H 838.677 0.0563369 4.0096 0
M  V30 9060 H 835.267 1.48997 4.01868 0
M  V30 9061 H 839.451 2.41871 4.33373 0
M  V30 9062 H 834.707 3.73917 4.83731 0
M  V30 9063 H 838.881 4.67022 5.16588 0
M  V30 9064 H 836.508 5.33578 5.41478 0
M  V30 9065 N 838.083 -1.48885 0.516809 0
M  V30 9066 C 839.308 -2.0739 -0.0205201 0
M  V30 9067 C 839.733 -1.37259 -1.28614 0
M  V30 9068 O 839.091 -0.434304 -1.76021 0
M  V30 9069 C 839.139 -3.59793 -0.24104 0
M  V30 9070 O 838.243 -3.90957 -1.31251 0
M  V30 9071 H 837.584 -0.663167 0.0332564 0
M  V30 9072 H 840.114 -1.91477 0.720956 0
M  V30 9073 H 840.124 -4.0531 -0.467737 0
M  V30 9074 H 838.799 -4.10244 0.68356 0
M  V30 9075 H 837.376 -3.57234 -1.06951 0
M  V30 9076 N 839.561 -0.251338 -1.55583 0
M  V30 9077 C 840.972 0.25098 -1.85005 0
M  V30 9078 C 841.323 1.57259 -1.17321 0
M  V30 9079 O 840.448 2.11603 -0.453136 0
M  V30 9080 C 841.043 0.462161 -3.35633 0
M  V30 9081 C 839.602 0.908737 -3.65266 0
M  V30 9082 C 838.749 -0.0115418 -2.77298 0
M  V30 9083 H 841.7 -0.473782 -1.51463 0
M  V30 9084 H 841.721 1.30415 -3.57452 0
M  V30 9085 H 841.233 -0.499886 -3.84867 0
M  V30 9086 H 839.334 1.8831 -3.21512 0
M  V30 9087 H 839.447 0.762526 -4.72993 0
M  V30 9088 H 837.811 0.500612 -2.49732 0
M  V30 9089 H 838.594 -0.969042 -3.29339 0
M  V30 9090 N 841.039 1.57585 0.0217189 0
M  V30 9091 C 842.455 1.55072 0.377484 0
M  V30 9092 C 842.655 0.978423 1.76151 0
M  V30 9093 O 841.711 0.602688 2.45202 0
M  V30 9094 C 843.024 2.99462 0.272605 0
M  V30 9095 C 844.572 3.11047 0.349148 0
M  V30 9096 C 845.047 4.57182 0.273636 0
M  V30 9097 N 846.538 4.62007 0.332206 0
M  V30 9098 C 847.273 5.72631 0.296782 0
M  V30 9099 N 846.769 6.92472 0.21322 0
M  V30 9100 N 848.562 5.61028 0.347053 0
M  V30 9101 H 840.713 1.93133 -0.883925 0
M  V30 9102 H 842.976 0.886151 -0.33681 0
M  V30 9103 H 842.682 3.45088 -0.67878 0
M  V30 9104 H 842.556 3.61901 1.06335 0
M  V30 9105 H 844.943 2.65364 1.29097 0
M  V30 9106 H 845.024 2.51425 -0.471085 0
M  V30 9107 H 844.668 5.03534 -0.664548 0
M  V30 9108 H 844.598 5.14724 1.11207 0
M  V30 9109 H 847.089 3.75788 0.399003 0
M  V30 9110 H 847.402 7.72563 0.191492 0
M  V30 9111 H 845.747 6.94769 0.179161 0
M  V30 9112 H 848.938 4.66298 0.410378 0
M  V30 9113 H 849.111 6.47229 0.315979 0
M  V30 9114 N 842.517 -0.29412 1.54831 0
M  V30 9115 C 843.933 -0.640167 1.46199 0
M  V30 9116 C 844.133 -1.90426 0.658798 0
M  V30 9117 O 843.189 -2.51932 0.169228 0
M  V30 9118 C 844.502 -0.786763 2.90225 0
M  V30 9119 C 846.05 -0.882201 3.0031 0
M  V30 9120 C 846.525 -1.06074 4.45547 0
M  V30 9121 N 848.016 -1.12678 4.49286 0
M  V30 9122 C 848.751 -1.28334 5.58854 0
M  V30 9123 N 848.247 -1.40845 6.78332 0
M  V30 9124 N 850.04 -1.31277 5.46555 0
M  V30 9125 H 842.191 0.536334 2.05517 0
M  V30 9126 H 844.454 0.178363 0.93107 0
M  V30 9127 H 844.16 0.0713018 3.51628 0
M  V30 9128 H 844.034 -1.67364 3.38037 0
M  V30 9129 H 846.421 -1.73075 2.39017 0
M  V30 9130 H 846.502 0.0288405 2.55784 0
M  V30 9131 H 846.146 -0.216935 5.07437 0
M  V30 9132 H 846.076 -1.98611 4.8771 0
M  V30 9133 H 848.567 -1.04335 3.63212 0
M  V30 9134 H 848.88 -1.52566 7.57591 0
M  V30 9135 H 847.225 -1.37888 6.81184 0
M  V30 9136 H 850.416 -1.2112 4.52159 0
M  V30 9137 H 850.589 -1.43136 6.31994 0
M  V30 9138 N 843.995 -1.47404 -0.557645 0
M  V30 9139 C 844.943 -1.60265 -1.68576 0
M  V30 9140 C 845.937 -0.469982 -1.6275 0
M  V30 9141 O 847.143 -0.647764 -1.67941 0
M  V30 9142 H 843.518 -0.504353 -0.557792 0
M  V30 9143 H 845.489 -2.55066 -1.54867 0
M  V30 9144 C 844.238 -1.63369 -3.0693 0
M  V30 9145 H 843.561 -2.49874 -3.12095 0
M  V30 9146 H 845.001 -1.76417 -3.85556 0
M  V30 9147 C 843.46 -0.366921 -3.34896 0
M  V30 9148 O 843.99 0.53218 -3.98159 0
M  V30 9149 N 842.196 -0.247082 -2.89548 0
M  V30 9150 H 841.743 -0.979669 -2.38244 0
M  V30 9151 H 841.701 0.599552 -3.0863 0
M  V30 9152 N 845.473 0.80434 -1.35529 0
M  V30 9153 C 846.698 1.598 -1.32207 0
M  V30 9154 C 847.123 1.87848 0.0974226 0
M  V30 9155 O 846.481 1.46728 1.06492 0
M  V30 9156 C 846.529 2.90483 -2.13663 0
M  V30 9157 O 845.633 3.83411 -1.51888 0
M  V30 9158 H 844.974 0.485305 -0.453183 0
M  V30 9159 H 847.504 0.998119 -1.78602 0
M  V30 9160 H 847.514 3.39888 -2.257 0
M  V30 9161 H 846.189 2.69395 -3.16859 0
M  V30 9162 H 844.766 3.41967 -1.48704 0
M  V30 9163 N 846.951 1.19563 1.02676 0
M  V30 9164 C 848.367 0.948304 1.28372 0
M  V30 9165 C 848.567 -0.378096 1.97921 0
M  V30 9166 O 847.623 -1.1091 2.26838 0
M  V30 9167 C 848.936 2.12381 2.12873 0
M  V30 9168 C 850.484 2.16366 2.26174 0
M  V30 9169 C 850.959 3.33374 3.14048 0
M  V30 9170 N 852.45 3.33323 3.21636 0
M  V30 9171 C 853.185 4.20504 3.89825 0
M  V30 9172 N 852.681 5.17845 4.60227 0
M  V30 9173 N 854.474 4.08375 3.86246 0
M  V30 9174 H 846.625 2.04899 0.559485 0
M  V30 9175 H 848.888 0.89606 0.309484 0
M  V30 9176 H 848.594 3.08383 1.69094 0
M  V30 9177 H 848.468 2.09621 3.1359 0
M  V30 9178 H 850.855 1.20933 2.69182 0
M  V30 9179 H 850.936 2.23179 1.25 0
M  V30 9180 H 850.58 4.29087 2.71747 0
M  V30 9181 H 850.51 3.23798 4.15286 0
M  V30 9182 H 853.001 2.62863 2.71498 0
M  V30 9183 H 853.314 5.80712 5.09896 0
M  V30 9184 H 851.659 5.21791 4.59085 0
M  V30 9185 H 854.85 3.31606 3.30386 0
M  V30 9186 H 855.023 4.76532 4.39114 0
M  V30 9187 N 848.429 -1.21819 0.999893 0
M  V30 9188 C 849.392 -2.22227 0.561044 0
M  V30 9189 C 850.392 -1.56722 -0.359858 0
M  V30 9190 O 851.582 -1.73546 -0.150848 0
M  V30 9191 C 848.714 -3.40409 -0.182987 0
M  V30 9192 H 849.907 -2.62567 1.44909 0
M  V30 9193 H 847.46 -1.34991 0.78785 0
M  V30 9194 H 848.195 -3.05551 -1.08671 0
M  V30 9195 H 847.98 -3.89171 0.47833 0
M  V30 9196 H 849.47 -4.14856 -0.477952 0
M  V30 9197 N 849.908 -0.773975 -1.37286 0
M  V30 9198 C 851.133 -0.349561 -2.04433 0
M  V30 9199 C 851.558 1.02082 -1.5799 0
M  V30 9200 O 850.916 1.65458 -0.741172 0
M  V30 9201 C 850.964 -0.404292 -3.58326 0
M  V30 9202 O 850.068 0.594447 -4.08093 0
M  V30 9203 H 849.409 -0.150959 -0.646612 0
M  V30 9204 H 851.939 -1.05079 -1.75555 0
M  V30 9205 H 851.949 -0.262378 -4.07155 0
M  V30 9206 H 850.624 -1.40403 -3.91484 0
M  V30 9207 H 849.201 0.415468 -3.70578 0
M  V30 9208 N 851.386 1.48609 -0.524698 0
M  V30 9209 C 852.316 2.32366 0.229837 0
M  V30 9210 C 853.297 1.41759 0.940129 0
M  V30 9211 O 854.482 1.7065 0.926936 0
M  V30 9212 C 851.612 3.22835 1.28043 0
M  V30 9213 C 850.566 4.22424 0.688603 0
M  V30 9214 C 849.892 5.0199 1.84146 0
M  V30 9215 C 851.192 5.21217 -0.336176 0
M  V30 9216 H 852.886 2.95698 -0.469339 0
M  V30 9217 H 850.432 1.42197 -0.227156 0
M  V30 9218 H 852.385 3.80253 1.8162 0
M  V30 9219 H 851.109 2.57492 2.00912 0
M  V30 9220 H 849.768 3.66185 0.174402 0
M  V30 9221 H 849.416 4.33076 2.5584 0
M  V30 9222 H 849.116 5.69392 1.45142 0
M  V30 9223 H 850.64 5.62259 2.38111 0
M  V30 9224 H 852.054 5.7319 0.112307 0
M  V30 9225 H 850.451 5.96642 -0.643324 0
M  V30 9226 H 851.521 4.68676 -1.24381 0
M  V30 9227 N 852.864 0.259585 1.55447 0
M  V30 9228 C 854.111 -0.361607 1.99245 0
M  V30 9229 C 854.439 -1.57017 1.14787 0
M  V30 9230 O 853.694 -1.94658 0.201724 0
M  V30 9231 C 853.993 -0.802727 3.48269 0
M  V30 9232 C 853.659 0.299472 4.49904 0
M  V30 9233 C 852.321 0.602157 4.77418 0
M  V30 9234 C 854.673 1.04295 5.10658 0
M  V30 9235 C 852.001 1.65217 5.62957 0
M  V30 9236 C 854.353 2.08257 5.97337 0
M  V30 9237 C 853.017 2.39177 6.23178 0
M  V30 9238 H 852.287 -0.132322 0.72909 0
M  V30 9239 H 854.934 0.370059 1.8789 0
M  V30 9240 H 853.239 -1.61381 3.5702 0
M  V30 9241 H 854.936 -1.29385 3.79553 0
M  V30 9242 H 851.526 0.0534256 4.28567 0
M  V30 9243 H 855.71 0.822358 4.89439 0
M  V30 9244 H 850.966 1.89692 5.81229 0
M  V30 9245 H 855.14 2.6635 6.43452 0
M  V30 9246 H 852.767 3.20677 6.89253 0
M  V30 9247 N 854.342 -1.57594 -0.0133615 0
M  V30 9248 C 855.567 -1.94649 -0.715996 0
M  V30 9249 C 855.992 -0.860786 -1.67249 0
M  V30 9250 O 855.35 0.182228 -1.80382 0
M  V30 9251 C 855.398 -3.30789 -1.43566 0
M  V30 9252 O 854.502 -3.24148 -2.54955 0
M  V30 9253 H 853.843 -0.635801 -0.191449 0
M  V30 9254 H 856.373 -2.04569 0.0358478 0
M  V30 9255 H 856.383 -3.66045 -1.80208 0
M  V30 9256 H 855.058 -4.09367 -0.734263 0
M  V30 9257 H 853.635 -3.00548 -2.20739 0
M  V30 9258 N 855.82 0.285905 -1.54985 0
M  V30 9259 C 857.067 1.0192 -1.74982 0
M  V30 9260 C 857.395 1.86743 -0.543816 0
M  V30 9261 O 856.65 1.89874 0.473972 0
M  V30 9262 C 856.949 1.94193 -3.0004 0
M  V30 9263 C 856.615 1.25225 -4.33162 0
M  V30 9264 C 855.277 1.06149 -4.69346 0
M  V30 9265 C 857.629 0.760427 -5.15623 0
M  V30 9266 C 854.957 0.365991 -5.85557 0
M  V30 9267 C 857.309 0.0785787 -6.32551 0
M  V30 9268 C 855.973 -0.124002 -6.67385 0
M  V30 9269 H 855.243 0.372951 -0.640304 0
M  V30 9270 H 857.89 0.292652 -1.89251 0
M  V30 9271 H 856.195 2.73426 -2.80616 0
M  V30 9272 H 857.892 2.51029 -3.12707 0
M  V30 9273 H 854.482 1.41081 -4.04715 0
M  V30 9274 H 858.666 0.895466 -4.88155 0
M  V30 9275 H 853.922 0.198193 -6.11079 0
M  V30 9276 H 858.096 -0.310339 -6.95708 0
M  V30 9277 H 855.723 -0.664918 -7.57287 0
M  V30 9278 N 857.298 1.47698 0.54982 0
M  V30 9279 C 858.714 1.3338 0.876468 0
M  V30 9280 C 858.914 0.329837 1.98782 0
M  V30 9281 O 857.97 -0.256022 2.51199 0
M  V30 9282 C 859.283 2.72903 1.26272 0
M  V30 9283 C 860.831 2.81243 1.37373 0
M  V30 9284 C 861.306 4.21423 1.79351 0
M  V30 9285 N 862.797 4.24 1.86489 0
M  V30 9286 C 863.532 5.29386 2.20313 0
M  V30 9287 N 863.028 6.4507 2.527 0
M  V30 9288 N 864.821 5.16768 2.2115 0
M  V30 9289 H 856.972 2.11603 -0.183781 0
M  V30 9290 H 859.235 0.947798 -0.0195601 0
M  V30 9291 H 858.941 3.47836 0.519889 0
M  V30 9292 H 858.815 3.05151 2.21727 0
M  V30 9293 H 861.202 2.06577 2.10737 0
M  V30 9294 H 861.283 2.52639 0.400882 0
M  V30 9295 H 860.927 4.96597 1.06555 0
M  V30 9296 H 860.857 4.47456 2.77652 0
M  V30 9297 H 863.348 3.40547 1.63817 0
M  V30 9298 H 863.661 7.21236 2.77557 0
M  V30 9299 H 862.006 6.48377 2.50263 0
M  V30 9300 H 865.197 4.25416 1.95293 0
M  V30 9301 H 865.37 5.99004 2.4718 0
M  V30 9302 N 858.776 -0.797141 1.35954 0
M  V30 9303 C 860.024 -1.55161 1.29497 0
M  V30 9304 C 860.345 -1.94582 -0.127659 0
M  V30 9305 O 859.615 -1.64343 -1.06622 0
M  V30 9306 H 858.195 -0.575413 0.47635 0
M  V30 9307 H 860.857 -0.950282 1.70164 0
M  V30 9308 H 859.953 -2.46272 1.9172 0
M  V30 9309 N 860.254 -1.20106 -1.0204 0
M  V30 9310 C 861.67 -0.955099 -1.27867 0
M  V30 9311 C 861.87 0.367595 -1.98119 0
M  V30 9312 O 860.926 1.09705 -2.27423 0
M  V30 9313 C 862.239 -2.13507 -2.11744 0
M  V30 9314 C 863.787 -2.17563 -2.25023 0
M  V30 9315 C 864.262 -3.35035 -3.12275 0
M  V30 9316 N 865.753 -3.35024 -3.19864 0
M  V30 9317 C 866.488 -4.22566 -3.8759 0
M  V30 9318 N 865.984 -5.20278 -4.57474 0
M  V30 9319 N 867.777 -4.10418 -3.84075 0
M  V30 9320 H 859.928 -2.05193 -0.54861 0
M  V30 9321 H 862.191 -0.897689 -0.304728 0
M  V30 9322 H 861.897 -3.09275 -1.67456 0
M  V30 9323 H 861.771 -2.11281 -3.12474 0
M  V30 9324 H 864.158 -1.22359 -2.68537 0
M  V30 9325 H 864.239 -2.23838 -1.23815 0
M  V30 9326 H 863.883 -4.30522 -2.69468 0
M  V30 9327 H 863.813 -3.25996 -4.13563 0
M  V30 9328 H 866.304 -2.64299 -2.701 0
M  V30 9329 H 866.617 -5.83408 -5.06809 0
M  V30 9330 H 864.962 -5.24219 -4.56311 0
M  V30 9331 H 868.153 -3.33353 -3.28623 0
M  V30 9332 H 868.326 -4.78854 -4.36581 0
M  V30 9333 N 861.732 1.21287 -1.00634 0
M  V30 9334 C 862.695 2.21927 -0.572821 0
M  V30 9335 C 863.695 1.5691 0.351541 0
M  V30 9336 O 864.885 1.73623 0.141643 0
M  V30 9337 C 862.017 3.40501 0.164932 0
M  V30 9338 H 863.21 2.61795 -1.463 0
M  V30 9339 H 860.763 1.34571 -0.794998 0
M  V30 9340 H 861.498 3.06123 1.07049 0
M  V30 9341 H 861.283 3.88912 -0.498962 0
M  V30 9342 H 862.773 4.15103 0.455945 0
M  V30 9343 N 863.21 0.781244 1.36873 0
M  V30 9344 C 864.157 0.172146 2.30157 0
M  V30 9345 C 865.127 -0.679328 1.51573 0
M  V30 9346 O 866.312 -0.629713 1.80109 0
M  V30 9347 C 863.452 -0.693534 3.38059 0
M  V30 9348 C 862.565 0.175586 4.31643 0
M  V30 9349 C 861.7 -0.695695 5.26625 0
M  V30 9350 C 860.739 0.17538 6.11849 0
M  V30 9351 N 859.876 -0.654416 6.99043 0
M  V30 9352 H 864.716 0.973133 2.81663 0
M  V30 9353 H 862.253 0.491469 1.38647 0
M  V30 9354 H 864.211 -1.21035 3.99257 0
M  V30 9355 H 862.841 -1.46003 2.87894 0
M  V30 9356 H 861.893 0.810295 3.7167 0
M  V30 9357 H 863.205 0.847107 4.91554 0
M  V30 9358 H 862.359 -1.27863 5.93073 0
M  V30 9359 H 861.098 -1.40087 4.67148 0
M  V30 9360 H 860.103 0.77078 5.4437 0
M  V30 9361 H 861.328 0.87803 6.734 0
M  V30 9362 H 859.274 -1.34403 6.42084 0
M  V30 9363 H 859.191 -0.0403998 7.55989 0
M  V30 9364 H 860.459 -1.22144 7.69871 0
M  V30 9365 N 864.689 -1.48329 0.532571 0
M  V30 9366 C 865.966 -1.95492 -0.0650985 0
M  V30 9367 C 866.346 -1.47485 -1.51034 0
M  V30 9368 O 865.694 -0.702516 -2.17433 0
M  V30 9369 C 865.904 -3.48957 0.0548341 0
M  V30 9370 C 867.252 -4.24475 -0.103115 0
M  V30 9371 O 868.276 -3.56195 -0.0188343 0
M  V30 9372 O 867.135 -5.45781 -0.280164 0
M  V30 9373 H 864.229 -0.823327 -0.0778603 0
M  V30 9374 H 866.775 -1.58839 0.597353 0
M  V30 9375 H 865.547 -3.76628 1.06148 0
M  V30 9376 H 865.17 -3.92311 -0.64635 0
M  V30 9377 N 866.167 -0.267825 -1.55308 0
M  V30 9378 C 867.416 0.351635 -1.98611 0
M  V30 9379 C 867.729 1.57522 -1.15957 0
M  V30 9380 O 868.935 2.26717 -1.49371 0
M  V30 9381 C 867.391 0.676986 -3.53475 0
M  V30 9382 C 866.999 -0.526385 -4.44897 0
M  V30 9383 C 868.743 1.25948 -4.05386 0
M  V30 9384 C 866.65 -0.176026 -5.91138 0
M  V30 9385 H 865.58 0.13516 -0.741787 0
M  V30 9386 H 868.231 -0.371333 -1.79704 0
M  V30 9387 H 866.613 1.45866 -3.68156 0
M  V30 9388 H 867.787 -1.30339 -4.41982 0
M  V30 9389 H 866.102 -1.02522 -4.03582 0
M  V30 9390 H 868.699 1.53529 -5.12184 0
M  V30 9391 H 869.042 2.19094 -3.53982 0
M  V30 9392 H 869.575 0.540253 -3.94114 0
M  V30 9393 H 866.314 -1.07518 -6.46622 0
M  V30 9394 H 865.834 0.564363 -5.97139 0
M  V30 9395 H 867.513 0.234365 -6.46575 0
M  V30 9396 N 867.645 1.57599 0.00500368 0
M  V30 9397 C 868.893 1.89973 0.68953 0
M  V30 9398 C 869.214 0.868531 1.7459 0
M  V30 9399 O 868.484 -0.0947367 1.95671 0
M  V30 9400 H 867.064 0.701153 0.25767 0
M  V30 9401 H 869.726 1.94869 -0.0347392 0
M  V30 9402 H 868.822 2.89584 1.16394 0
M  V30 9403 N 869.123 -0.277682 1.55134 0
M  V30 9404 C 870.348 -1.03254 1.7987 0
M  V30 9405 C 870.773 -1.79324 0.567861 0
M  V30 9406 O 870.131 -1.74764 -0.4824 0
M  V30 9407 C 870.179 -1.9705 3.02 0
M  V30 9408 O 869.283 -3.05744 2.76757 0
M  V30 9409 H 868.624 -0.295447 0.594649 0
M  V30 9410 H 871.154 -0.308013 2.02268 0
M  V30 9411 H 871.164 -2.3909 3.30606 0
M  V30 9412 H 869.839 -1.41094 3.91236 0
M  V30 9413 H 868.416 -2.68052 2.59235 0
M  V30 9414 N 870.601 -1.47988 -0.541979 0
M  V30 9415 C 871.511 -1.64276 -1.67483 0
M  V30 9416 C 872.527 -0.525387 -1.65879 0
M  V30 9417 O 873.703 -0.794912 -1.85049 0
M  V30 9418 C 870.768 -1.66744 -3.03969 0
M  V30 9419 C 869.829 -2.90021 -3.16522 0
M  V30 9420 C 869.062 -2.92362 -4.46498 0
M  V30 9421 O 869.285 -2.03462 -5.32878 0
M  V30 9422 O 868.219 -3.84399 -4.63164 0
M  V30 9423 H 872.045 -2.60164 -1.5668 0
M  V30 9424 H 869.63 -1.31249 -0.71372 0
M  V30 9425 H 871.512 -1.70958 -3.85164 0
M  V30 9426 H 870.187 -0.740277 -3.15122 0
M  V30 9427 H 869.094 -2.91345 -2.34667 0
M  V30 9428 H 870.427 -3.82082 -3.10281 0
M  V30 9429 N 872.079 0.78992 -1.36375 0
M  V30 9430 C 873.027 1.92394 -1.30719 0
M  V30 9431 C 874.021 1.68226 -0.199076 0
M  V30 9432 O 875.227 1.76239 -0.366051 0
M  V30 9433 H 871.602 0.632382 -0.406936 0
M  V30 9434 H 873.573 1.94282 -2.26488 0
M  V30 9435 C 872.322 3.2941 -1.11284 0
M  V30 9436 H 871.645 3.48573 -1.95798 0
M  V30 9437 H 873.085 4.09111 -1.11373 0
M  V30 9438 C 871.544 3.36405 0.182543 0
M  V30 9439 O 872.074 3.84206 1.17255 0
M  V30 9440 N 870.28 2.89712 0.227046 0
M  V30 9441 H 869.827 2.51004 -0.579217 0
M  V30 9442 H 869.785 2.94773 1.09344 0
M  V30 9443 N 873.557 1.20646 1.01402 0
M  V30 9444 C 874.834 0.927176 1.72229 0
M  V30 9445 C 875.214 -0.563382 2.03443 0
M  V30 9446 O 874.562 -1.52576 1.70096 0
M  V30 9447 C 874.772 1.80285 2.98828 0
M  V30 9448 C 876.12 2.04624 3.72041 0
M  V30 9449 O 877.144 1.77559 3.0879 0
M  V30 9450 O 876.003 2.50347 4.85787 0
M  V30 9451 H 873.097 0.346891 0.75073 0
M  V30 9452 H 875.643 1.31532 1.07227 0
M  V30 9453 H 874.415 2.81204 2.72102 0
M  V30 9454 H 874.038 1.41495 3.71571 0
M  V30 9455 N 875.035 -1.20752 1.01276 0
M  V30 9456 C 876.282 -1.90021 0.699887 0
M  V30 9457 C 876.61 -1.78604 -0.770113 0
M  V30 9458 O 875.865 -1.16195 -1.57471 0
M  V30 9459 C 876.164 -3.40808 1.07633 0
M  V30 9460 C 875.83 -3.72423 2.54189 0
M  V30 9461 C 874.492 -3.80762 2.94234 0
M  V30 9462 C 876.844 -3.87025 3.49086 0
M  V30 9463 C 874.172 -4.01158 4.28123 0
M  V30 9464 C 876.524 -4.0893 4.82658 0
M  V30 9465 C 875.188 -4.15498 5.22415 0
M  V30 9466 H 874.458 -0.695335 0.256107 0
M  V30 9467 H 877.105 -1.43096 1.27263 0
M  V30 9468 H 875.41 -3.89521 0.421944 0
M  V30 9469 H 877.107 -3.92693 0.811997 0
M  V30 9470 H 873.697 -3.66529 2.22158 0
M  V30 9471 H 877.881 -3.79942 3.19309 0
M  V30 9472 H 873.137 -4.04476 4.58486 0
M  V30 9473 H 877.311 -4.19172 5.56119 0
M  V30 9474 H 874.938 -4.31055 6.26176 0
M  V30 9475 N 876.513 -0.788492 -1.36457 0
M  V30 9476 C 877.476 -0.192209 -2.28393 0
M  V30 9477 C 878.476 0.609916 -1.48784 0
M  V30 9478 O 879.666 0.431046 -1.68783 0
M  V30 9479 C 876.798 0.734096 -3.32902 0
M  V30 9480 H 877.991 -1.00284 -2.82636 0
M  V30 9481 H 875.544 -0.557852 -1.46006 0
M  V30 9482 H 876.279 1.5691 -2.83813 0
M  V30 9483 H 876.064 0.160875 -3.9177 0
M  V30 9484 H 877.554 1.1462 -4.01562 0
M  V30 9485 N 877.991 1.48044 -0.54043 0
M  V30 9486 C 879.268 1.95523 0.0547302 0
M  V30 9487 C 879.648 1.48284 1.5025 0
M  V30 9488 O 878.996 0.714037 2.17057 0
M  V30 9489 C 879.206 3.48923 -0.0733393 0
M  V30 9490 C 880.554 4.24523 0.0806026 0
M  V30 9491 O 881.578 3.562 -5.58687e-05 0
M  V30 9492 O 880.437 5.45922 0.251216 0
M  V30 9493 H 877.531 0.823728 0.073493 0
M  V30 9494 H 880.077 1.5852 -0.605768 0
M  V30 9495 H 878.849 3.76059 -1.08144 0
M  V30 9496 H 878.472 3.92648 0.625536 0
M  V30 9497 N 879.47 0.276058 1.55163 0
M  V30 9498 C 880.747 -0.392292 1.91626 0
M  V30 9499 C 881.127 -1.73646 1.20043 0
M  V30 9500 O 880.475 -2.26139 0.327606 0
M  V30 9501 C 880.685 -0.531641 3.44927 0
M  V30 9502 C 882.033 -0.8141 4.16722 0
M  V30 9503 O 883.057 -0.616413 3.50826 0
M  V30 9504 O 881.916 -1.19224 5.33337 0
M  V30 9505 H 879.01 -0.214945 0.798579 0
M  V30 9506 H 881.556 0.32228 1.66612 0
M  V30 9507 H 880.328 0.414282 3.89101 0
M  V30 9508 H 879.951 -1.29564 3.75897 0
M  V30 9509 N 880.948 -1.576 0.00335426 0
M  V30 9510 C 881.858 -2.12067 -1.00322 0
M  V30 9511 C 882.874 -1.06672 -1.37467 0
M  V30 9512 O 884.05 -1.38592 -1.46131 0
M  V30 9513 C 881.115 -2.61593 -2.27531 0
M  V30 9514 C 880.176 -3.81602 -1.96668 0
M  V30 9515 C 879.409 -4.28756 -3.17811 0
M  V30 9516 O 879.632 -3.75222 -4.2961 0
M  V30 9517 O 878.566 -5.20877 -3.01613 0
M  V30 9518 H 882.392 -2.98299 -0.570199 0
M  V30 9519 H 879.977 -1.47835 -0.215682 0
M  V30 9520 H 881.859 -2.93631 -3.02256 0
M  V30 9521 H 880.534 -1.78457 -2.70065 0
M  V30 9522 H 879.441 -3.54531 -1.19408 0
M  V30 9523 H 880.774 -4.65822 -1.58968 0
M  V30 9524 N 882.426 0.269451 -1.5528 0
M  V30 9525 C 883.376 1.33553 -1.84791 0
M  V30 9526 C 884.36 1.44532 -0.707067 0
M  V30 9527 O 885.552 1.48153 -0.968493 0
M  V30 9528 C 882.681 2.69516 -2.12641 0
M  V30 9529 C 881.767 2.62633 -3.32993 0
M  V30 9530 N 882.158 2.25371 -4.52815 0
M  V30 9531 C 880.456 2.93688 -3.35654 0
M  V30 9532 C 881.157 2.28567 -5.34913 0
M  V30 9533 N 880.133 2.67181 -4.73408 0
M  V30 9534 H 883.935 1.03758 -2.74976 0
M  V30 9535 H 881.449 0.478087 -1.55203 0
M  V30 9536 H 883.446 3.46424 -2.3194 0
M  V30 9537 H 882.106 3.00197 -1.23742 0
M  V30 9538 H 883.117 1.9729 -4.7885 0
M  V30 9539 H 879.794 3.29057 -2.56958 0
M  V30 9540 H 881.184 2.02289 -6.40725 0
M  V30 9541 N 883.904 1.48273 0.534124 0
M  V30 9542 C 885.129 1.59988 1.31979 0
M  V30 9543 C 885.554 0.258824 1.86311 0
M  V30 9544 O 884.912 -0.768885 1.64188 0
M  V30 9545 C 884.96 2.64642 2.44943 0
M  V30 9546 O 884.064 2.21515 3.47858 0
M  V30 9547 H 883.405 0.536625 0.391063 0
M  V30 9548 H 885.935 1.94229 0.643135 0
M  V30 9549 H 885.945 2.85786 2.91187 0
M  V30 9550 H 884.62 3.62004 2.04758 0
M  V30 9551 H 883.197 2.10567 3.0776 0
M  V30 9552 N 885.382 -0.782676 1.36792 0
M  V30 9553 C 886.61 -1.57162 1.34565 0
M  V30 9554 C 887.025 -1.88664 -0.0715501 0
M  V30 9555 O 886.382 -1.50633 -1.03033 0
M  V30 9556 C 886.433 -2.88854 2.1736 0
M  V30 9557 O 886.154 -2.58707 3.53557 0
M  V30 9558 C 887.655 -3.83132 2.2299 0
M  V30 9559 H 884.875 -0.487245 0.461338 0
M  V30 9560 H 887.419 -0.970905 1.79982 0
M  V30 9561 H 885.574 -3.45377 1.7548 0
M  V30 9562 H 885.988 -3.42961 3.96835 0
M  V30 9563 H 887.462 -4.72575 2.85266 0
M  V30 9564 H 887.939 -4.21472 1.23524 0
M  V30 9565 H 888.545 -3.32541 2.65135 0
M  V30 9566 N 886.86 -1.21182 -1.00761 0
M  V30 9567 C 888.107 -1.02746 -1.74498 0
M  V30 9568 C 888.435 0.439344 -1.89473 0
M  V30 9569 O 887.69 1.34232 -1.42409 0
M  V30 9570 C 887.989 -1.6667 -3.16158 0
M  V30 9571 C 887.655 -3.16515 -3.21137 0
M  V30 9572 C 886.317 -3.57405 -3.22203 0
M  V30 9573 C 888.669 -4.12495 -3.18587 0
M  V30 9574 C 885.997 -4.92786 -3.18401 0
M  V30 9575 C 888.349 -5.47833 -3.16326 0
M  V30 9576 C 887.013 -5.88124 -3.157 0
M  V30 9577 H 886.283 -0.375974 -0.638533 0
M  V30 9578 H 888.93 -1.50736 -1.18114 0
M  V30 9579 H 887.235 -1.10966 -3.75758 0
M  V30 9580 H 888.932 -1.49911 -3.71924 0
M  V30 9581 H 885.522 -2.83947 -3.21048 0
M  V30 9582 H 889.706 -3.81932 -3.16925 0
M  V30 9583 H 884.962 -5.23253 -3.16253 0
M  V30 9584 H 889.136 -6.21942 -3.13306 0
M  V30 9585 H 886.763 -6.92995 -3.12508 0
M  V30 9586 N 888.338 1.20213 -1.01915 0
M  V30 9587 C 889.248 2.26763 -0.601311 0
M  V30 9588 C 890.264 1.70185 0.362369 0
M  V30 9589 O 891.44 2.00165 0.222682 0
M  V30 9590 C 888.505 3.46662 0.0512879 0
M  V30 9591 C 887.566 4.18459 -0.958659 0
M  V30 9592 C 886.799 5.32634 -0.337107 0
M  V30 9593 O 887.022 5.63841 0.86251 0
M  V30 9594 O 885.956 5.9258 -1.05511 0
M  V30 9595 H 889.782 2.64725 -1.48844 0
M  V30 9596 H 887.367 1.2688 -0.788784 0
M  V30 9597 H 889.249 4.19345 0.41564 0
M  V30 9598 H 887.924 3.1057 0.912572 0
M  V30 9599 H 886.831 3.47937 -1.37442 0
M  V30 9600 H 888.164 4.58498 -1.78999 0
M  V30 9601 N 889.816 0.795718 1.36037 0
M  V30 9602 C 891.093 0.294743 1.93367 0
M  V30 9603 C 891.473 -1.21406 1.72696 0
M  V30 9604 O 890.821 -2.00849 1.08959 0
M  V30 9605 C 891.031 0.694254 3.42025 0
M  V30 9606 C 892.379 0.677566 4.19159 0
M  V30 9607 O 893.403 0.635119 3.50492 0
M  V30 9608 O 892.262 0.726127 5.41655 0
M  V30 9609 H 889.356 0.0745459 0.823633 0
M  V30 9610 H 891.902 0.878685 1.4518 0
M  V30 9611 H 890.674 1.73458 3.50753 0
M  V30 9612 H 890.297 0.0845338 3.9751 0
M  V30 9613 N 891.294 -1.47756 0.548274 0
M  V30 9614 C 892.242 -2.3158 -0.217584 0
M  V30 9615 C 893.236 -1.42372 -0.917957 0
M  V30 9616 O 894.442 -1.59184 -0.840259 0
M  V30 9617 H 890.817 -0.74671 -0.0890388 0
M  V30 9618 H 892.788 -2.94032 0.508719 0
M  V30 9619 C 891.537 -3.24834 -1.24008 0
M  V30 9620 H 890.86 -3.93435 -0.710572 0
M  V30 9621 H 892.3 -3.86336 -1.74701 0
M  V30 9622 C 890.759 -2.47724 -2.2833 0
M  V30 9623 O 891.289 -2.21522 -3.35098 0
M  V30 9624 N 889.495 -2.08891 -2.02022 0
M  V30 9625 H 889.042 -2.30401 -1.1521 0
M  V30 9626 H 889 -1.57613 -2.7204 0
M  V30 9627 N 892.772 -0.284283 -1.55015 0
M  V30 9628 C 894.049 0.382125 -1.91831 0
M  V30 9629 C 894.429 1.73007 -1.20962 0
M  V30 9630 O 893.777 2.25962 -0.339594 0
M  V30 9631 C 893.987 0.513341 -3.45204 0
M  V30 9632 C 895.335 0.791989 -4.17148 0
M  V30 9633 O 896.359 0.597799 -3.51148 0
M  V30 9634 O 895.218 1.16394 -5.33961 0
M  V30 9635 H 892.312 0.210707 -0.799707 0
M  V30 9636 H 894.858 -0.331111 -1.66438 0
M  V30 9637 H 893.63 -0.434911 -3.88876 0
M  V30 9638 H 893.253 1.27569 -3.76579 0
M  V30 9639 N 894.251 1.57596 -0.0117121 0
M  V30 9640 C 895.476 1.95764 0.684938 0
M  V30 9641 C 895.901 0.887285 1.65858 0
M  V30 9642 O 895.259 -0.153508 1.80649 0
M  V30 9643 C 895.307 3.33031 1.38285 0
M  V30 9644 O 894.411 3.28163 2.49765 0
M  V30 9645 H 893.752 0.638767 0.181309 0
M  V30 9646 H 896.282 2.04486 -0.0683883 0
M  V30 9647 H 896.292 3.68866 1.74362 0
M  V30 9648 H 894.967 4.10483 0.669043 0
M  V30 9649 H 893.544 3.04021 2.15929 0
M  V30 9650 N 895.729 -0.261212 1.5542 0
M  V30 9651 C 897.145 -0.609012 1.47524 0
M  V30 9652 C 897.345 -1.88986 0.699042 0
M  V30 9653 O 896.401 -2.51517 0.222628 0
M  V30 9654 C 897.714 -0.725025 2.91828 0
M  V30 9655 C 899.262 -0.818302 3.02114 0
M  V30 9656 C 899.737 -0.965996 4.47697 0
M  V30 9657 N 901.228 -1.03123 4.51575 0
M  V30 9658 C 901.963 -1.16451 5.6145 0
M  V30 9659 N 901.459 -1.26425 6.81167 0
M  V30 9660 N 903.252 -1.19655 5.49217 0
M  V30 9661 H 895.403 0.579807 2.04333 0
M  V30 9662 H 897.666 0.198072 0.927077 0
M  V30 9663 H 897.372 0.145871 3.51397 0
M  V30 9664 H 897.246 -1.60156 3.41511 0
M  V30 9665 H 899.633 -1.67966 2.42634 0
M  V30 9666 H 899.714 0.0830895 2.55665 0
M  V30 9667 H 899.358 -0.109251 5.07782 0
M  V30 9668 H 899.288 -1.88221 4.91813 0
M  V30 9669 H 901.779 -0.966072 3.65343 0
M  V30 9670 H 902.092 -1.36462 7.60656 0
M  V30 9671 H 900.437 -1.23408 6.83956 0
M  V30 9672 H 903.628 -1.11501 4.54626 0
M  V30 9673 H 903.801 -1.29698 6.34888 0
M  V30 9674 N 897.207 -1.48554 -0.526253 0
M  V30 9675 C 898.623 -1.34757 -0.855138 0
M  V30 9676 C 898.823 -0.36142 -1.98232 0
M  V30 9677 O 897.879 0.216026 -2.51574 0
M  V30 9678 C 899.192 -2.74877 -1.21915 0
M  V30 9679 C 900.74 -2.83393 -1.32882 0
M  V30 9680 C 901.215 -4.24223 -1.72624 0
M  V30 9681 N 902.706 -4.26913 -1.7972 0
M  V30 9682 C 903.441 -5.32824 -2.11863 0
M  V30 9683 N 902.937 -6.49008 -2.42405 0
M  V30 9684 N 904.73 -5.20221 -2.12901 0
M  V30 9685 H 896.881 -2.11284 0.217422 0
M  V30 9686 H 899.144 -0.947367 0.0346362 0
M  V30 9687 H 898.85 -3.48619 -0.464486 0
M  V30 9688 H 898.724 -3.0864 -2.16844 0
M  V30 9689 H 901.111 -2.09904 -2.07424 0
M  V30 9690 H 901.192 -2.53245 -0.360638 0
M  V30 9691 H 900.836 -4.98229 -0.986411 0
M  V30 9692 H 900.766 -4.51817 -2.70498 0
M  V30 9693 H 903.257 -3.4311 -1.58379 0
M  V30 9694 H 903.57 -7.25561 -2.66048 0
M  V30 9695 H 901.915 -6.52277 -2.39917 0
M  V30 9696 H 905.106 -4.28469 -1.885 0
M  V30 9697 H 905.279 -6.02861 -2.37619 0
M  V30 9698 N 898.685 0.775411 -1.37205 0
M  V30 9699 C 899.962 1.5229 -1.22748 0
M  V30 9700 C 900.342 2.10327 0.180487 0
M  V30 9701 O 899.69 1.95206 1.18772 0
M  V30 9702 C 899.9 2.60671 -2.3206 0
M  V30 9703 C 901.248 3.28173 -2.6942 0
M  V30 9704 O 902.272 2.70963 -2.31208 0
M  V30 9705 O 901.131 4.31598 -3.3524 0
M  V30 9706 H 898.225 0.674326 -0.478762 0
M  V30 9707 H 900.771 0.812691 -1.48975 0
M  V30 9708 H 899.543 2.1588 -3.26361 0
M  V30 9709 H 899.166 3.39296 -2.07277 0
M  V30 9710 N 900.163 1.21714 1.00117 0
M  V30 9711 C 901.388 1.06357 1.78054 0
M  V30 9712 C 901.813 -0.382075 1.84179 0
M  V30 9713 O 901.171 -1.27575 1.28819 0
M  V30 9714 C 901.219 1.66982 3.19608 0
M  V30 9715 O 900.323 0.917892 4.02055 0
M  V30 9716 H 899.664 0.374074 0.548602 0
M  V30 9717 H 902.194 1.61338 1.25822 0
M  V30 9718 H 902.204 1.71363 3.70268 0
M  V30 9719 H 900.879 2.72185 3.14465 0
M  V30 9720 H 899.456 0.949473 3.6061 0
M  V30 9721 N 901.641 -1.19671 1.02551 0
M  V30 9722 C 902.571 -2.25009 0.623965 0
M  V30 9723 C 903.552 -1.66129 -0.36538 0
M  V30 9724 O 904.737 -1.92599 -0.248842 0
M  V30 9725 C 901.867 -3.47287 -0.0294869 0
M  V30 9726 C 900.821 -4.18818 0.881781 0
M  V30 9727 C 900.147 -5.34618 0.0936189 0
M  V30 9728 C 901.447 -4.73986 2.19396 0
M  V30 9729 H 903.141 -2.58851 1.50454 0
M  V30 9730 H 900.687 -1.24425 0.724872 0
M  V30 9731 H 902.64 -4.20168 -0.322016 0
M  V30 9732 H 901.364 -3.12635 -0.944838 0
M  V30 9733 H 900.023 -3.47815 1.15845 0
M  V30 9734 H 899.671 -4.9621 -0.823661 0
M  V30 9735 H 899.371 -5.83409 0.700568 0
M  V30 9736 H 900.895 -6.10297 -0.192249 0
M  V30 9737 H 902.309 -5.38639 1.96319 0
M  V30 9738 H 900.706 -5.3325 2.75254 0
M  V30 9739 H 901.776 -3.92238 2.85092 0
M  V30 9740 N 903.119 -0.802921 -1.35613 0
M  V30 9741 C 904.366 -0.381576 -1.98872 0
M  V30 9742 C 904.694 1.0503 -1.63704 0
M  V30 9743 O 903.949 1.7427 -0.890418 0
M  V30 9744 C 904.248 -0.507806 -3.53774 0
M  V30 9745 C 903.914 -1.90245 -4.088 0
M  V30 9746 C 902.576 -2.28401 -4.2354 0
M  V30 9747 C 904.928 -2.81504 -4.3864 0
M  V30 9748 C 902.256 -3.57192 -4.65436 0
M  V30 9749 C 904.608 -4.09737 -4.81973 0
M  V30 9750 C 903.272 -4.47897 -4.94919 0
M  V30 9751 H 902.542 -0.139629 -0.727726 0
M  V30 9752 H 905.189 -1.023 -1.61886 0
M  V30 9753 H 903.494 0.21708 -3.91198 0
M  V30 9754 H 905.191 -0.162625 -4.0067 0
M  V30 9755 H 901.781 -1.596 -3.97776 0
M  V30 9756 H 905.965 -2.53276 -4.26808 0
M  V30 9757 H 901.221 -3.86611 -4.73648 0
M  V30 9758 H 905.395 -4.80555 -5.04024 0
M  V30 9759 H 903.022 -5.47747 -5.27141 0
M  V30 9760 N 904.597 1.47463 -0.556102 0
M  V30 9761 C 905.843 2.02775 -0.0316806 0
M  V30 9762 C 906.176 1.42967 1.3143 0
M  V30 9763 O 905.451 0.584847 1.85499 0
M  V30 9764 C 905.734 3.60046 0.0625742 0
M  V30 9765 C 905.587 4.30288 -1.31043 0
M  V30 9766 C 906.906 4.33195 0.776553 0
M  V30 9767 H 904.025 0.736886 -0.0129869 0
M  V30 9768 H 906.667 1.75904 -0.718177 0
M  V30 9769 H 904.817 3.83071 0.647231 0
M  V30 9770 H 906.489 4.18607 -1.9382 0
M  V30 9771 H 904.732 3.90685 -1.8854 0
M  V30 9772 H 905.403 5.38861 -1.1972 0
M  V30 9773 H 907.879 4.15156 0.280147 0
M  V30 9774 H 906.755 5.42869 0.81146 0
M  V30 9775 H 907.016 4.02336 1.83244 0
M  V30 9776 N 906.075 0.2925 1.54862 0
M  V30 9777 C 907.486 -0.201841 1.85606 0
M  V30 9778 C 907.837 -1.54093 1.21449 0
M  V30 9779 O 906.962 -2.10327 0.509079 0
M  V30 9780 C 907.557 -0.373011 3.3674 0
M  V30 9781 C 906.116 -0.811574 3.67547 0
M  V30 9782 C 905.263 0.0850583 2.7717 0
M  V30 9783 H 908.214 0.513774 1.50153 0
M  V30 9784 H 908.235 -1.20892 3.60785 0
M  V30 9785 H 907.747 0.601751 3.83407 0
M  V30 9786 H 905.848 -1.79719 3.26392 0
M  V30 9787 H 905.961 -0.636853 4.74848 0
M  V30 9788 H 904.325 -0.434224 2.50971 0
M  V30 9789 H 905.108 1.05602 3.26654 0
M  V30 9790 N 907.553 -1.57587 0.0200696 0
M  V30 9791 C 908.503 -2.0616 -0.973751 0
M  V30 9792 C 909.487 -0.960282 -1.29102 0
M  V30 9793 O 910.679 -1.22391 -1.27865 0
M  V30 9794 C 907.808 -2.58487 -2.25919 0
M  V30 9795 C 906.894 -3.75533 -1.97068 0
M  V30 9796 N 907.285 -4.86482 -1.38451 0
M  V30 9797 C 905.583 -3.83847 -2.27107 0
M  V30 9798 C 906.284 -5.67773 -1.26527 0
M  V30 9799 N 905.26 -5.14398 -1.75772 0
M  V30 9800 H 909.062 -2.89346 -0.515365 0
M  V30 9801 H 906.576 -1.61341 -0.185163 0
M  V30 9802 H 908.573 -2.91572 -2.97979 0
M  V30 9803 H 907.233 -1.76728 -2.72392 0
M  V30 9804 H 908.244 -5.06922 -1.06069 0
M  V30 9805 H 904.921 -3.12978 -2.76316 0
M  V30 9806 H 906.311 -6.66966 -0.812785 0
M  V30 9807 N 909.032 0.252966 -1.55557 0
M  V30 9808 C 910.448 0.60118 -1.47844 0
M  V30 9809 C 910.648 1.88612 -0.709055 0
M  V30 9810 O 909.704 2.51395 -0.235964 0
M  V30 9811 C 911.017 0.709539 -2.92209 0
M  V30 9812 C 912.565 0.802269 -3.02544 0
M  V30 9813 C 913.04 0.94224 -4.48203 0
M  V30 9814 N 914.531 1.00726 -4.52116 0
M  V30 9815 C 915.266 1.13472 -5.6206 0
M  V30 9816 N 914.762 1.22811 -6.81828 0
M  V30 9817 N 916.555 1.1674 -5.49844 0
M  V30 9818 H 908.706 -0.590635 -2.04023 0
M  V30 9819 H 910.969 -0.202986 -0.926013 0
M  V30 9820 H 910.675 -0.164505 -3.51315 0
M  V30 9821 H 910.549 1.58343 -3.42356 0
M  V30 9822 H 912.936 1.66677 -2.43522 0
M  V30 9823 H 913.017 -0.0966469 -2.55617 0
M  V30 9824 H 912.661 0.0823209 -5.07833 0
M  V30 9825 H 912.591 1.85611 -4.92805 0
M  V30 9826 H 915.082 0.946684 -3.6585 0
M  V30 9827 H 915.395 1.32426 -7.61369 0
M  V30 9828 H 913.74 1.19779 -6.84601 0
M  V30 9829 H 916.931 1.09089 -4.55211 0
M  V30 9830 H 917.104 1.26329 -6.35567 0
M  V30 9831 N 910.51 1.48831 0.518367 0
M  V30 9832 C 911.46 1.60614 1.61824 0
M  V30 9833 C 912.444 0.462631 1.54106 0
M  V30 9834 O 913.636 0.714689 1.6193 0
M  V30 9835 C 910.765 1.65984 3.00507 0
M  V30 9836 C 909.851 2.85854 3.13286 0
M  V30 9837 N 910.242 4.1014 2.96005 0
M  V30 9838 C 908.54 2.83429 3.4436 0
M  V30 9839 C 909.241 4.90626 3.12508 0
M  V30 9840 N 908.217 4.2366 3.40607 0
M  V30 9841 H 912.019 2.54443 1.47091 0
M  V30 9842 H 909.533 1.45363 0.724102 0
M  V30 9843 H 911.53 1.72521 3.79529 0
M  V30 9844 H 910.19 0.732792 3.16323 0
M  V30 9845 H 911.201 4.40395 2.72531 0
M  V30 9846 H 907.878 2.0003 3.66462 0
M  V30 9847 H 909.268 5.99302 3.03786 0
M  V30 9848 N 911.988 -0.768124 1.37614 0
M  V30 9849 C 913.236 -1.52379 1.3276 0
M  V30 9850 C 913.557 -1.94809 -0.0863564 0
M  V30 9851 O 912.827 -1.66568 -1.03112 0
M  V30 9852 H 911.407 -0.565179 0.488448 0
M  V30 9853 H 914.069 -0.913974 1.72141 0
M  V30 9854 H 913.165 -2.4215 1.96901 0
M  V30 9855 N 913.466 -1.22244 -0.994698 0
M  V30 9856 C 914.376 -1.00722 -2.11878 0
M  V30 9857 C 915.392 0.043919 -1.73945 0
M  V30 9858 O 916.568 -0.148411 -2.00852 0
M  V30 9859 C 913.633 -0.585723 -3.41717 0
M  V30 9860 C 912.694 -1.71027 -3.93762 0
M  V30 9861 C 911.927 -1.30879 -5.17403 0
M  V30 9862 O 912.15 -0.18681 -5.70094 0
M  V30 9863 O 911.084 -2.1246 -5.63156 0
M  V30 9864 H 914.91 -1.94894 -2.32916 0
M  V30 9865 H 912.495 -1.00822 -1.10251 0
M  V30 9866 H 914.377 -0.360935 -4.19851 0
M  V30 9867 H 913.052 0.327166 -3.22042 0
M  V30 9868 H 911.959 -1.98956 -3.16808 0
M  V30 9869 H 913.292 -2.60096 -4.17865 0
M  V30 9870 N 914.944 1.19125 -1.03184 0
M  V30 9871 C 916.36 1.40909 -0.749447 0
M  V30 9872 C 916.56 1.9022 0.664729 0
M  V30 9873 O 915.616 2.08085 1.43028 0
M  V30 9874 C 916.929 2.41761 -1.78807 0
M  V30 9875 C 918.477 2.55503 -1.80796 0
M  V30 9876 C 918.952 3.59612 -2.83626 0
M  V30 9877 N 920.443 3.6711 -2.82461 0
M  V30 9878 C 921.178 4.47366 -3.5868 0
M  V30 9879 N 920.674 5.31302 -4.44623 0
M  V30 9880 N 922.467 4.42044 -3.47208 0
M  V30 9881 H 914.618 0.854399 -1.94458 0
M  V30 9882 H 916.881 0.437753 -0.840878 0
M  V30 9883 H 916.587 2.12559 -2.80199 0
M  V30 9884 H 916.461 3.40981 -1.61283 0
M  V30 9885 H 918.848 2.84027 -0.800803 0
M  V30 9886 H 918.929 1.56427 -2.02396 0
M  V30 9887 H 918.573 3.3183 -3.84515 0
M  V30 9888 H 918.503 4.58345 -2.59283 0
M  V30 9889 H 920.994 3.07166 -2.2013 0
M  V30 9890 H 921.307 5.89667 -4.99512 0
M  V30 9891 H 919.652 5.30753 -4.48694 0
M  V30 9892 H 922.843 3.75513 -2.79477 0
M  V30 9893 H 923.016 5.0435 -4.06859 0
M  V30 9894 N 916.422 0.810101 1.35185 0
M  V30 9895 C 917.838 0.494269 1.51754 0
M  V30 9896 C 918.038 -0.983907 1.75845 0
M  V30 9897 O 917.094 -1.76882 1.80191 0
M  V30 9898 C 918.407 1.34268 2.69059 0
M  V30 9899 C 919.955 1.33848 2.82938 0
M  V30 9900 C 920.43 2.17109 4.03271 0
M  V30 9901 N 921.921 2.14664 4.10456 0
M  V30 9902 C 922.656 2.75843 5.02691 0
M  V30 9903 N 922.152 3.45962 6.00235 0
M  V30 9904 N 923.945 2.65465 4.95464 0
M  V30 9905 H 916.096 1.76736 1.17805 0
M  V30 9906 H 918.359 0.752429 0.576676 0
M  V30 9907 H 918.065 2.39183 2.57845 0
M  V30 9908 H 917.939 0.998362 3.63748 0
M  V30 9909 H 920.326 0.29716 2.936 0
M  V30 9910 H 920.407 1.72269 1.89095 0
M  V30 9911 H 920.051 3.21283 3.93369 0
M  V30 9912 H 919.981 1.76046 4.96302 0
M  V30 9913 H 922.472 1.63648 3.40628 0
M  V30 9914 H 922.785 3.89922 6.67219 0
M  V30 9915 H 921.13 3.50067 6.00398 0
M  V30 9916 H 924.321 2.1027 4.18215 0
M  V30 9917 H 924.494 3.13433 5.67154 0
M  V30 9918 N 917.9 -1.47166 0.563914 0
M  V30 9919 C 918.85 -2.27116 -0.20055 0
M  V30 9920 C 919.834 -1.34756 -0.879177 0
M  V30 9921 O 921.026 -1.59064 -0.776377 0
M  V30 9922 C 918.155 -3.20676 -1.22565 0
M  V30 9923 C 917.241 -4.20517 -0.550092 0
M  V30 9924 N 917.632 -5.04343 0.383662 0
M  V30 9925 C 915.93 -4.38708 -0.803186 0
M  V30 9926 C 916.631 -5.76491 0.776718 0
M  V30 9927 N 915.607 -5.43444 0.130047 0
M  V30 9928 H 919.409 -2.89312 0.517275 0
M  V30 9929 H 916.923 -1.57787 0.384334 0
M  V30 9930 H 918.92 -3.76643 -1.78733 0
M  V30 9931 H 917.58 -2.60038 -1.94449 0
M  V30 9932 H 918.591 -5.1232 0.758192 0
M  V30 9933 H 915.268 -3.89235 -1.51003 0
M  V30 9934 H 916.658 -6.5391 1.54437 0
M  V30 9935 N 919.378 -0.300708 -1.54705 0
M  V30 9936 C 920.603 0.314073 -2.05008 0
M  V30 9937 C 921.028 1.46759 -1.17657 0
M  V30 9938 O 920.386 1.80398 -0.180598 0
M  V30 9939 C 920.434 0.748243 -3.52752 0
M  V30 9940 O 919.538 1.85305 -3.68424 0
M  V30 9941 H 918.879 0.0610139 -0.661191 0
M  V30 9942 H 921.409 -0.442467 -1.99758 0
M  V30 9943 H 921.419 1.03713 -3.94598 0
M  V30 9944 H 920.094 -0.095573 -4.1579 0
M  V30 9945 H 918.671 1.56473 -3.38483 0
M  V30 9946 N 920.856 1.57574 -0.0284266 0
M  V30 9947 C 921.804 2.11332 0.971675 0
M  V30 9948 C 922.798 1.03974 1.33738 0
M  V30 9949 O 924.004 1.22409 1.31969 0
M  V30 9950 H 920.379 0.675174 0.331125 0
M  V30 9951 H 922.35 2.943 0.49296 0
M  V30 9952 C 921.099 2.65496 2.24516 0
M  V30 9953 H 920.422 3.47753 1.9725 0
M  V30 9954 H 921.862 3.06757 2.92705 0
M  V30 9955 C 920.321 1.58207 2.97443 0
M  V30 9956 O 920.851 0.981496 3.89525 0
M  V30 9957 N 919.057 1.30269 2.59766 0
M  V30 9958 H 918.604 1.79294 1.84963 0
M  V30 9959 H 918.562 0.587085 3.0887 0
M  V30 9960 N 922.334 -0.244713 1.55689 0
M  V30 9961 C 923.58 -0.973886 1.77886 0
M  V30 9962 C 923.913 -1.8489 0.594071 0
M  V30 9963 O 923.188 -1.90182 -0.407564 0
M  V30 9964 C 923.471 -1.83255 3.09983 0
M  V30 9965 C 923.324 -0.985571 4.3887 0
M  V30 9966 C 924.643 -2.81464 3.38329 0
M  V30 9967 H 921.762 -0.352629 0.647165 0
M  V30 9968 H 924.404 -0.244243 1.88424 0
M  V30 9969 H 922.554 -2.45464 3.01131 0
M  V30 9970 H 924.226 -0.382005 4.59716 0
M  V30 9971 H 922.469 -0.29002 4.32829 0
M  V30 9972 H 923.14 -1.62022 5.27686 0
M  V30 9973 H 925.616 -2.2939 3.47159 0
M  V30 9974 H 924.492 -3.38663 4.31971 0
M  V30 9975 H 924.753 -3.58037 2.59349 0
M  V30 9976 N 923.813 -1.49104 -0.510467 0
M  V30 9977 C 925.038 -1.62068 -1.29417 0
M  V30 9978 C 925.463 -0.288432 -1.85875 0
M  V30 9979 O 924.821 0.742667 -1.65391 0
M  V30 9980 C 924.869 -2.68506 -2.40701 0
M  V30 9981 O 923.973 -2.27021 -3.4429 0
M  V30 9982 H 923.314 -0.542778 -0.382476 0
M  V30 9983 H 925.844 -1.95228 -0.612154 0
M  V30 9984 H 925.854 -2.90383 -2.86604 0
M  V30 9985 H 924.529 -3.65216 -1.98973 0
M  V30 9986 H 923.106 -2.15436 -3.04371 0
M  V30 9987 N 925.291 0.760815 -1.38019 0
M  V30 9988 C 926.223 1.88387 -1.30549 0
M  V30 9989 C 927.236 1.61319 -0.219119 0
M  V30 9990 O 928.425 1.72033 -0.476122 0
M  V30 9991 C 925.525 3.23863 -0.998291 0
M  V30 9992 C 924.698 3.78492 -2.19232 0
M  V30 9993 C 923.757 4.92468 -1.85368 0
M  V30 9994 O 922.783 5.0748 -2.57785 0
M  V30 9995 N 923.985 5.74901 -0.804319 0
M  V30 9996 H 926.75 1.95308 -2.27322 0
M  V30 9997 H 924.311 0.940423 -1.31786 0
M  V30 9998 H 926.303 3.97644 -0.7524 0
M  V30 9999 H 924.873 3.12374 -0.11877 0
M  V30 10000 H 924.093 2.96361 -2.5993 0
M  V30 10001 H 925.381 4.11722 -2.98935 0
M  V30 10002 H 924.779 5.65333 -0.203628 0
M  V30 10003 H 923.336 6.48861 -0.618301 0
M  V30 10004 N 926.769 1.22769 0.988202 0
M  V30 10005 C 927.732 1.00325 2.06076 0
M  V30 10006 C 928.732 -0.0320618 1.60768 0
M  V30 10007 O 929.922 0.206912 1.72967 0
M  V30 10008 C 927.054 0.516376 3.36966 0
M  V30 10009 H 928.247 1.95499 2.27421 0
M  V30 10010 H 925.8 1.04704 1.16047 0
M  V30 10011 H 926.535 -0.439498 3.21308 0
M  V30 10012 H 926.32 1.26337 3.71189 0
M  V30 10013 H 927.81 0.37974 4.1587 0
M  V30 10014 N 928.247 -1.18576 1.03814 0
M  V30 10015 C 929.472 -1.92978 0.759873 0
M  V30 10016 C 929.897 -1.75514 -0.676486 0
M  V30 10017 O 929.255 -1.06359 -1.46824 0
M  V30 10018 C 929.303 -3.42507 1.12788 0
M  V30 10019 O 928.407 -4.1163 0.251886 0
M  V30 10020 H 927.748 -0.602129 0.279886 0
M  V30 10021 H 930.278 -1.50383 1.3873 0
M  V30 10022 H 930.288 -3.93206 1.08872 0
M  V30 10023 H 928.963 -3.5454 2.17427 0
M  V30 10024 H 927.54 -3.7125 0.350441 0
M  V30 10025 N 929.725 -0.817259 -1.34754 0
M  V30 10026 C 931.141 -0.502309 -1.51489 0
M  V30 10027 C 931.341 0.974568 -1.76364 0
M  V30 10028 O 930.397 1.75924 -1.81127 0
M  V30 10029 C 931.71 -1.35693 -2.68343 0
M  V30 10030 C 933.258 -1.35347 -2.82224 0
M  V30 10031 C 933.733 -2.19244 -4.02114 0
M  V30 10032 N 935.224 -2.16837 -4.09311 0
M  V30 10033 C 935.959 -2.78505 -5.01221 0
M  V30 10034 N 935.455 -3.4914 -5.98392 0
M  V30 10035 N 937.248 -2.68089 -4.94049 0
M  V30 10036 H 929.399 -1.77359 -1.16866 0
M  V30 10037 H 931.662 -0.755476 -0.572678 0
M  V30 10038 H 931.368 -2.40548 -2.56573 0
M  V30 10039 H 931.242 -1.01764 -3.63213 0
M  V30 10040 H 933.629 -0.312727 -2.93438 0
M  V30 10041 H 933.71 -1.7327 -1.88179 0
M  V30 10042 H 933.354 -3.23365 -3.9166 0
M  V30 10043 H 933.284 -1.78675 -4.95361 0
M  V30 10044 H 935.775 -1.65452 -3.39756 0
M  V30 10045 H 936.088 -3.93455 -6.65141 0
M  V30 10046 H 934.433 -3.53246 -5.98533 0
M  V30 10047 H 937.624 -2.12485 -4.17094 0
M  V30 10048 H 937.797 -3.16436 -5.65484 0
M  V30 10049 N 931.203 1.46865 -0.571711 0
M  V30 10050 C 932.166 2.28658 0.157499 0
M  V30 10051 C 933.166 1.37773 0.829172 0
M  V30 10052 O 934.356 1.6026 0.682811 0
M  V30 10053 C 931.488 3.17859 1.23202 0
M  V30 10054 H 932.681 2.94603 -0.561171 0
M  V30 10055 H 930.234 1.52793 -0.329229 0
M  V30 10056 H 930.969 2.56637 1.98262 0
M  V30 10057 H 930.754 3.84762 0.755031 0
M  V30 10058 H 932.244 3.7945 1.74378 0
M  V30 10059 N 932.681 0.308908 1.54543 0
M  V30 10060 C 933.906 -0.303196 2.05172 0
M  V30 10061 C 934.331 -1.46133 1.18434 0
M  V30 10062 O 933.689 -1.803 0.190162 0
M  V30 10063 C 933.737 -0.729526 3.53143 0
M  V30 10064 O 932.841 -1.83348 3.69401 0
M  V30 10065 H 932.182 -0.0575066 0.661505 0
M  V30 10066 H 934.712 0.453055 1.99521 0
M  V30 10067 H 934.722 -1.01619 3.95143 0
M  V30 10068 H 933.397 0.117622 4.15734 0
M  V30 10069 H 931.974 -1.54676 3.39308 0
M  V30 10070 N 934.159 -1.57557 0.0367827 0
M  V30 10071 C 935.575 -1.56366 -0.31967 0
M  V30 10072 C 935.775 -1.04313 -1.72398 0
M  V30 10073 O 934.831 -0.693278 -2.42796 0
M  V30 10074 C 936.144 -3.00267 -0.161274 0
M  V30 10075 C 937.692 -3.12128 -0.233464 0
M  V30 10076 C 938.167 -4.57882 -0.103767 0
M  V30 10077 N 939.658 -4.62922 -0.160506 0
M  V30 10078 C 940.393 -5.73338 -0.0840493 0
M  V30 10079 N 939.889 -6.92786 0.043933 0
M  V30 10080 N 941.682 -5.61929 -0.138592 0
M  V30 10081 H 933.833 -1.8972 0.954996 0
M  V30 10082 H 936.096 -0.87304 0.369467 0
M  V30 10083 H 935.802 -3.42331 0.80639 0
M  V30 10084 H 935.676 -3.65599 -0.928304 0
M  V30 10085 H 938.063 -2.69972 -1.19159 0
M  V30 10086 H 938.144 -2.49503 0.564075 0
M  V30 10087 H 937.788 -5.0072 0.850973 0
M  V30 10088 H 937.718 -5.18496 -0.920268 0
M  V30 10089 H 940.209 -3.7701 -0.259257 0
M  V30 10090 H 940.522 -7.72741 0.095372 0
M  V30 10091 H 938.867 -6.94955 0.0788211 0
M  V30 10092 H 942.058 -4.67499 -0.237031 0
M  V30 10093 H 942.231 -6.47956 -0.075546 0
M  V30 10094 N 935.637 0.236453 -1.55816 0
M  V30 10095 C 936.883 0.964439 -1.784 0
M  V30 10096 C 937.216 1.84573 -0.603868 0
M  V30 10097 O 936.491 1.90395 0.397473 0
M  V30 10098 C 936.774 1.81608 -3.10951 0
M  V30 10099 C 936.627 0.962283 -4.39386 0
M  V30 10100 C 937.946 2.79665 -3.39817 0
M  V30 10101 H 935.065 0.349192 -0.649026 0
M  V30 10102 H 937.707 0.234247 -1.8855 0
M  V30 10103 H 935.857 2.43864 -3.02428 0
M  V30 10104 H 937.529 0.35762 -4.59912 0
M  V30 10105 H 935.772 0.267062 -4.32977 0
M  V30 10106 H 936.443 1.59222 -5.28538 0
M  V30 10107 H 938.919 2.27546 -3.4837 0
M  V30 10108 H 937.795 3.36367 -4.33761 0
M  V30 10109 H 938.056 3.56657 -2.61244 0
M  V30 10110 N 937.115 1.49373 0.502552 0
M  V30 10111 C 938.045 1.68839 1.61294 0
M  V30 10112 C 939.026 0.537096 1.61398 0
M  V30 10113 O 940.211 0.772764 1.78163 0
M  V30 10114 C 937.341 1.75347 2.99784 0
M  V30 10115 C 936.295 2.90251 3.14545 0
M  V30 10116 C 935.621 2.8187 4.54371 0
M  V30 10117 C 936.921 4.31207 2.94717 0
M  V30 10118 H 938.615 2.61803 1.45257 0
M  V30 10119 H 936.161 1.25987 0.697371 0
M  V30 10120 H 938.114 1.87552 3.77362 0
M  V30 10121 H 936.838 0.789814 3.16906 0
M  V30 10122 H 935.497 2.77646 2.39392 0
M  V30 10123 H 935.145 1.83416 4.68367 0
M  V30 10124 H 934.845 3.5899 4.65188 0
M  V30 10125 H 936.369 2.96081 5.34012 0
M  V30 10126 H 937.783 4.44501 3.62065 0
M  V30 10127 H 936.18 5.09536 3.17007 0
M  V30 10128 H 937.25 4.45759 1.90857 0
M  V30 10129 N 938.594 -0.753485 1.38421 0
M  V30 10130 C 940.005 -1.33081 1.30944 0
M  V30 10131 C 940.356 -1.96169 -0.0347124 0
M  V30 10132 O 939.481 -1.95073 -0.936768 0
M  V30 10133 C 940.076 -2.41973 2.37138 0
M  V30 10134 C 938.635 -2.95426 2.33239 0
M  V30 10135 C 937.782 -1.68808 2.19998 0
M  V30 10136 H 940.733 -0.552354 1.48777 0
M  V30 10137 H 940.754 -3.21913 2.02859 0
M  V30 10138 H 940.266 -1.96027 3.34956 0
M  V30 10139 H 938.367 -3.45701 1.39003 0
M  V30 10140 H 938.48 -3.49798 3.27381 0
M  V30 10141 H 936.844 -1.92438 1.66852 0
M  V30 10142 H 937.627 -1.24939 3.19758 0
M  V30 10143 N 940.072 -1.23292 -0.981677 0
M  V30 10144 C 941.321 -1.05832 -1.71705 0
M  V30 10145 C 941.634 0.40514 -1.91358 0
M  V30 10146 O 942.84 0.699645 -2.6233 0
M  V30 10147 C 941.296 -1.84532 -3.08992 0
M  V30 10148 C 940.904 -3.35199 -2.9723 0
M  V30 10149 C 942.648 -1.75557 -3.86497 0
M  V30 10150 C 940.555 -4.06296 -4.29741 0
M  V30 10151 H 939.485 -0.39241 -0.64384 0
M  V30 10152 H 942.136 -1.47247 -1.09502 0
M  V30 10153 H 940.518 -1.35923 -3.71942 0
M  V30 10154 H 941.692 -3.91286 -2.43377 0
M  V30 10155 H 940.007 -3.44973 -2.332 0
M  V30 10156 H 942.604 -2.25989 -4.84596 0
M  V30 10157 H 942.947 -0.718101 -4.1006 0
M  V30 10158 H 943.48 -2.21771 -3.30246 0
M  V30 10159 H 940.219 -5.10344 -4.11375 0
M  V30 10160 H 939.739 -3.54997 -4.83464 0
M  V30 10161 H 941.418 -4.12519 -4.98434 0
M  V30 10162 N 941.55 1.18024 -1.04442 0
M  V30 10163 C 942.48 2.23988 -0.659683 0
M  V30 10164 C 943.461 1.6669 0.338904 0
M  V30 10165 O 944.646 1.92971 0.21817 0
M  V30 10166 C 941.776 3.4729 -0.0257672 0
M  V30 10167 C 940.73 4.17362 -0.948299 0
M  V30 10168 C 940.056 5.34401 -0.17866 0
M  V30 10169 C 941.356 4.70435 -2.26909 0
M  V30 10170 H 943.05 2.56425 -1.54553 0
M  V30 10171 H 940.596 1.23256 -0.744575 0
M  V30 10172 H 942.549 4.20627 0.255131 0
M  V30 10173 H 941.273 3.14098 0.894981 0
M  V30 10174 H 939.932 3.45928 -1.21364 0
M  V30 10175 H 939.58 4.97458 0.744614 0
M  V30 10176 H 939.28 5.8222 -0.793294 0
M  V30 10177 H 940.804 6.10526 0.0951315 0
M  V30 10178 H 942.218 5.35447 -2.04864 0
M  V30 10179 H 940.615 5.28803 -2.83703 0
M  V30 10180 H 941.685 3.87653 -2.91296 0
M  V30 10181 N 943.028 0.824394 1.34319 0
M  V30 10182 C 944.439 0.471802 1.8064 0
M  V30 10183 C 944.79 -1.00793 1.6833 0
M  V30 10184 O 943.915 -1.78447 1.22416 0
M  V30 10185 C 944.51 0.849609 3.27974 0
M  V30 10186 C 943.069 0.549365 3.72369 0
M  V30 10187 C 942.216 1.06573 2.56003 0
M  V30 10188 H 945.167 1.01443 1.22045 0
M  V30 10189 H 945.188 0.153968 3.80188 0
M  V30 10190 H 944.7 1.92663 3.36902 0
M  V30 10191 H 942.801 -0.518182 3.68979 0
M  V30 10192 H 942.914 1.09446 4.66432 0
M  V30 10193 H 941.278 0.487214 2.49997 0
M  V30 10194 H 942.061 2.14923 2.677 0
M  V30 10195 N 944.506 -1.46559 0.579492 0
M  V30 10196 C 945.439 -2.27287 -0.203894 0
M  V30 10197 C 946.417 -1.3543 -0.899865 0
M  V30 10198 O 947.601 -1.64836 -0.914398 0
M  V30 10199 C 944.728 -3.13077 -1.2923 0
M  V30 10200 C 943.774 -4.20675 -0.702505 0
M  V30 10201 S 944.607 -5.3345 0.468136 0
M  V30 10202 C 945.763 -6.22806 -0.621544 0
M  V30 10203 H 945.996 -2.93382 0.481083 0
M  V30 10204 H 943.529 -1.49992 0.366311 0
M  V30 10205 H 945.487 -3.63069 -1.91548 0
M  V30 10206 H 944.148 -2.46302 -1.94921 0
M  V30 10207 H 943.341 -4.80516 -1.52053 0
M  V30 10208 H 942.943 -3.73678 -0.155046 0
M  V30 10209 H 945.235 -6.60503 -1.50803 0
M  V30 10210 H 946.178 -7.08075 -0.059961 0
M  V30 10211 H 946.586 -5.56882 -0.924242 0
M  V30 10212 N 945.984 -0.3171 -1.54377 0
M  V30 10213 C 946.932 0.567371 -2.25574 0
M  V30 10214 C 947.926 1.12387 -1.2675 0
M  V30 10215 O 949.132 1.07266 -1.44548 0
M  V30 10216 H 945.507 0.201605 -0.724472 0
M  V30 10217 H 947.478 -0.0554644 -2.98348 0
M  V30 10218 C 946.227 1.71984 -3.02187 0
M  V30 10219 H 945.55 1.30086 -3.78044 0
M  V30 10220 H 946.99 2.31443 -3.5526 0
M  V30 10221 C 945.449 2.6336 -2.10103 0
M  V30 10222 O 945.979 3.64899 -1.67962 0
M  V30 10223 N 944.185 2.3145 -1.75725 0
M  V30 10224 H 943.732 1.48921 -2.10191 0
M  V30 10225 H 943.69 2.92852 -1.14391 0
M  V30 10226 N 947.462 1.57535 -0.0451378 0
M  V30 10227 C 948.71 1.92071 0.628743 0
M  V30 10228 C 949.031 0.923635 1.71738 0
M  V30 10229 O 948.301 -0.0324376 1.95873 0
M  V30 10230 H 946.881 0.708995 0.235233 0
M  V30 10231 H 949.543 1.9466 -0.0967177 0
M  V30 10232 H 948.639 2.9314 1.07123 0
M  V30 10233 N 948.94 -0.228186 1.55939 0
M  V30 10234 C 949.887 -1.28274 1.91871 0
M  V30 10235 C 950.857 -1.46906 0.775103 0
M  V30 10236 O 952.042 -1.60583 1.03042 0
M  V30 10237 C 949.182 -2.62945 2.23504 0
M  V30 10238 C 948.295 -2.52166 3.50766 0
M  V30 10239 C 947.43 -3.79316 3.71878 0
M  V30 10240 C 946.469 -3.63231 4.92676 0
M  V30 10241 N 945.606 -4.82315 5.10212 0
M  V30 10242 H 950.446 -0.96931 2.81795 0
M  V30 10243 H 947.983 -0.467331 1.39479 0
M  V30 10244 H 949.941 -3.41359 2.39854 0
M  V30 10245 H 948.571 -2.92397 1.36762 0
M  V30 10246 H 947.623 -1.65221 3.42646 0
M  V30 10247 H 948.935 -2.36199 4.39331 0
M  V30 10248 H 948.089 -4.66173 3.88288 0
M  V30 10249 H 946.828 -3.982 2.81581 0
M  V30 10250 H 945.833 -2.74757 4.76223 0
M  V30 10251 H 947.058 -3.45823 5.84451 0
M  V30 10252 H 945.004 -5.01526 4.22856 0
M  V30 10253 H 944.921 -4.6905 5.92898 0
M  V30 10254 H 946.189 -5.70618 5.31051 0
M  V30 10255 N 950.418 -1.49637 -0.494624 0
M  V30 10256 C 951.351 -1.61387 -1.61337 0
M  V30 10257 C 952.329 -0.462704 -1.55878 0
M  V30 10258 O 953.513 -0.679103 -1.75842 0
M  V30 10259 C 950.64 -1.57471 -2.99867 0
M  V30 10260 C 949.686 -2.77863 -3.23565 0
M  V30 10261 S 950.519 -4.3946 -3.05999 0
M  V30 10262 C 951.675 -4.382 -4.46914 0
M  V30 10263 H 951.908 -2.56024 -1.51126 0
M  V30 10264 H 949.441 -1.38607 -0.680253 0
M  V30 10265 H 951.399 -1.55898 -3.79745 0
M  V30 10266 H 950.06 -0.641107 -3.07488 0
M  V30 10267 H 949.253 -2.71361 -4.24711 0
M  V30 10268 H 948.855 -2.76882 -2.51421 0
M  V30 10269 H 951.147 -4.10312 -5.3912 0
M  V30 10270 H 952.09 -5.39645 -4.58464 0
M  V30 10271 H 952.498 -3.68197 -4.27891 0
M  V30 10272 N 951.896 0.746133 -1.38819 0
M  V30 10273 C 952.846 1.85085 -1.33145 0
M  V30 10274 C 953.83 1.59466 -0.214339 0
M  V30 10275 O 955.022 1.71159 -0.450943 0
M  V30 10276 C 952.151 3.22884 -1.16623 0
M  V30 10277 C 951.237 3.54369 -2.32988 0
M  V30 10278 N 951.628 3.56863 -3.58445 0
M  V30 10279 C 949.926 3.84674 -2.25703 0
M  V30 10280 C 950.627 3.85827 -4.3533 0
M  V30 10281 N 949.603 4.03037 -3.64777 0
M  V30 10282 H 953.405 1.85301 -2.28124 0
M  V30 10283 H 950.919 0.943847 -1.32156 0
M  V30 10284 H 952.916 4.0195 -1.10642 0
M  V30 10285 H 951.576 3.23914 -0.225841 0
M  V30 10286 H 952.587 3.38443 -3.92017 0
M  V30 10287 H 949.264 3.93375 -1.39864 0
M  V30 10288 H 950.654 3.94317 -5.44025 0
M  V30 10289 N 953.375 1.23811 0.975125 0
M  V30 10290 C 954.6 1.10109 1.75757 0
M  V30 10291 C 955.025 -0.342922 1.84948 0
M  V30 10292 O 954.383 -1.24814 1.31496 0
M  V30 10293 C 954.431 1.73724 3.15994 0
M  V30 10294 O 953.535 1.00297 4.00018 0
M  V30 10295 H 952.876 0.385627 0.540544 0
M  V30 10296 H 955.406 1.63971 1.22372 0
M  V30 10297 H 955.416 1.79178 3.6655 0
M  V30 10298 H 954.091 2.78794 3.0862 0
M  V30 10299 H 952.668 1.02575 3.58515 0
M  V30 10300 N 954.853 -1.17469 1.05066 0
M  V30 10301 C 955.816 -2.19648 0.654793 0
M  V30 10302 C 956.816 -1.58107 -0.293063 0
M  V30 10303 O 958.006 -1.74029 -0.077106 0
M  V30 10304 C 955.138 -3.40878 -0.0384437 0
M  V30 10305 H 956.331 -2.56184 1.55915 0
M  V30 10306 H 953.884 -1.31528 0.844396 0
M  V30 10307 H 954.619 -3.09885 -0.956133 0
M  V30 10308 H 954.404 -3.86792 0.642961 0
M  V30 10309 H 955.894 -4.1651 -0.301568 0
M  V30 10310 N 956.331 -0.831506 -1.3388 0
M  V30 10311 C 957.577 -0.424302 -1.98312 0
M  V30 10312 C 957.91 1.01211 -1.65741 0
M  V30 10313 O 957.185 1.70636 -0.933464 0
M  V30 10314 C 957.468 -0.636815 -3.54424 0
M  V30 10315 C 957.321 -2.11997 -3.96708 0
M  V30 10316 C 958.64 -0.0782411 -4.4003 0
M  V30 10317 H 955.759 -0.155637 -0.720379 0
M  V30 10318 H 958.401 -1.04566 -1.58638 0
M  V30 10319 H 956.551 -0.107907 -3.8835 0
M  V30 10320 H 958.223 -2.71317 -3.73075 0
M  V30 10321 H 956.466 -2.60723 -3.46707 0
M  V30 10322 H 957.137 -2.21944 -5.05416 0
M  V30 10323 H 959.613 -0.530243 -4.12708 0
M  V30 10324 H 958.489 -0.256676 -5.483 0
M  V30 10325 H 958.75 1.01745 -4.30233 0
M  V30 10326 N 957.809 1.4625 -0.587256 0
M  V30 10327 C 959.086 1.95599 -0.00750181 0
M  V30 10328 C 959.466 1.52989 1.45457 0
M  V30 10329 O 958.814 0.782731 2.14676 0
M  V30 10330 C 959.024 3.48513 -0.184309 0
M  V30 10331 C 960.372 4.24565 -0.0544972 0
M  V30 10332 O 961.396 3.5602 -0.113378 0
M  V30 10333 O 960.255 5.46445 0.0774075 0
M  V30 10334 H 957.349 0.825649 0.0472495 0
M  V30 10335 H 959.895 1.56512 -0.655893 0
M  V30 10336 H 958.667 3.72428 -1.20053 0
M  V30 10337 H 958.29 3.9444 0.500301 0
M  V30 10338 N 959.287 0.325282 1.54207 0
M  V30 10339 C 960.527 -0.277347 2.0251 0
M  V30 10340 C 960.891 -1.49211 1.20831 0
M  V30 10341 O 962.092 -2.16771 1.58945 0
M  V30 10342 C 960.363 -0.601517 3.52302 0
M  V30 10343 S 961.922 -1.18356 4.22537 0
M  V30 10344 H 958.74 -0.08378 0.706047 0
M  V30 10345 H 961.342 0.458804 1.9004 0
M  V30 10346 H 960.046 0.290696 4.09369 0
M  V30 10347 H 959.577 -1.36782 3.68855 0
M  V30 10348 H 961.592 -2.47029 4.30338 0
M  V30 10349 N 960.765 -1.57509 0.0534917 0
M  V30 10350 C 961.713 -2.12851 -0.937931 0
M  V30 10351 C 962.707 -1.06088 -1.32067 0
M  V30 10352 O 963.913 -1.24494 -1.30005 0
M  V30 10353 H 960.288 -0.680357 -0.320342 0
M  V30 10354 H 962.259 -2.95047 -0.446077 0
M  V30 10355 C 961.008 -2.69034 -2.20264 0
M  V30 10356 H 960.331 -3.50848 -1.91693 0
M  V30 10357 H 961.771 -3.11375 -2.87788 0
M  V30 10358 C 960.23 -1.62919 -2.94888 0
M  V30 10359 O 960.76 -1.04334 -3.87914 0
M  V30 10360 N 958.966 -1.34385 -2.57661 0
M  V30 10361 H 958.513 -1.82214 -1.82088 0
M  V30 10362 H 958.471 -0.636149 -3.07897 0
M  V30 10363 N 962.243 0.219913 -1.56058 0
M  V30 10364 C 963.491 0.942199 -1.78793 0
M  V30 10365 C 963.812 1.84804 -0.622284 0
M  V30 10366 O 963.082 1.9255 0.360735 0
M  V30 10367 H 961.662 0.350895 -0.659455 0
M  V30 10368 H 964.324 0.231376 -1.93522 0
M  V30 10369 H 963.42 1.54804 -2.71002 0
M  V30 10370 N 963.721 1.49897 0.486681 0
M  V30 10371 C 964.967 1.60342 1.2417 0
M  V30 10372 C 965.3 0.295694 1.91936 0
M  V30 10373 O 964.575 -0.701788 1.81398 0
M  V30 10374 C 964.858 2.77281 2.29755 0
M  V30 10375 C 964.711 4.1789 1.66397 0
M  V30 10376 C 966.03 2.89817 3.31201 0
M  V30 10377 H 963.149 0.583605 0.450083 0
M  V30 10378 H 965.791 1.82232 0.537734 0
M  V30 10379 H 963.941 2.58748 2.89796 0
M  V30 10380 H 965.613 4.47975 1.10073 0
M  V30 10381 H 963.856 4.22872 0.967579 0
M  V30 10382 H 964.527 4.95612 2.43049 0
M  V30 10383 H 967.003 3.06732 2.81167 0
M  V30 10384 H 965.879 3.7329 4.02425 0
M  V30 10385 H 966.14 1.9977 3.94391 0
M  V30 10386 N 965.199 -0.738761 1.39212 0
M  V30 10387 C 966.445 -1.50046 1.36433 0
M  V30 10388 C 966.778 -1.94157 -0.0409474 0
M  V30 10389 O 966.053 -1.66515 -1.00514 0
M  V30 10390 C 966.336 -2.74277 2.33333 0
M  V30 10391 C 966.189 -2.36209 3.82786 0
M  V30 10392 C 967.508 -3.76361 2.28123 0
M  V30 10393 H 964.627 -0.544294 0.496903 0
M  V30 10394 H 967.269 -0.845005 1.70175 0
M  V30 10395 H 965.419 -3.30204 2.04689 0
M  V30 10396 H 967.091 -1.85942 4.22165 0
M  V30 10397 H 965.334 -1.68483 3.99745 0
M  V30 10398 H 966.005 -3.25156 4.46069 0
M  V30 10399 H 968.481 -3.30009 2.53443 0
M  V30 10400 H 967.357 -4.60957 2.9801 0
M  V30 10401 H 967.618 -4.23013 1.28499 0
M  V30 10402 N 966.677 -1.24326 -0.968545 0
M  V30 10403 C 967.902 -1.1104 -1.75171 0
M  V30 10404 C 968.327 0.333109 -1.85127 0
M  V30 10405 O 967.685 1.24115 -1.32156 0
M  V30 10406 C 967.733 -1.75397 -3.15068 0
M  V30 10407 O 966.837 -1.02417 -3.9948 0
M  V30 10408 H 966.178 -0.388488 -0.538491 0
M  V30 10409 H 968.708 -1.64617 -1.215 0
M  V30 10410 H 968.718 -1.8112 -3.65595 0
M  V30 10411 H 967.393 -2.80427 -3.07138 0
M  V30 10412 H 965.97 -1.04475 -3.57966 0
M  V30 10413 N 968.156 1.1691 -1.05688 0
M  V30 10414 C 969.086 2.23275 -0.683402 0
M  V30 10415 C 970.067 1.6704 0.321206 0
M  V30 10416 O 971.252 1.93191 0.197691 0
M  V30 10417 C 968.382 3.47244 -0.0626006 0
M  V30 10418 C 967.336 4.16333 -0.992513 0
M  V30 10419 C 966.662 5.34182 -0.23533 0
M  V30 10420 C 967.962 4.68002 -2.31886 0
M  V30 10421 H 969.656 2.54771 -1.57264 0
M  V30 10422 H 967.202 1.2246 -0.757606 0
M  V30 10423 H 969.155 4.20874 0.210503 0
M  V30 10424 H 967.879 3.1503 0.861616 0
M  V30 10425 H 966.538 3.44622 -1.25026 0
M  V30 10426 H 966.186 4.9822 0.69181 0
M  V30 10427 H 965.886 5.81346 -0.855002 0
M  V30 10428 H 967.41 6.10592 0.0303717 0
M  V30 10429 H 968.824 5.33244 -2.10531 0
M  V30 10430 H 967.221 5.25764 -2.89296 0
M  V30 10431 H 968.291 3.84541 -2.95391 0
M  V30 10432 N 969.634 0.838594 1.33437 0
M  V30 10433 C 970.88 0.434813 1.98084 0
M  V30 10434 C 971.213 -1.00331 1.66275 0
M  V30 10435 O 970.488 -1.70139 0.942501 0
M  V30 10436 C 970.771 0.655602 3.54082 0
M  V30 10437 C 970.624 2.14097 3.95578 0
M  V30 10438 C 971.943 0.101576 4.39983 0
M  V30 10439 H 969.062 0.159456 0.719544 0
M  V30 10440 H 971.704 1.05406 1.58081 0
M  V30 10441 H 969.854 0.128501 3.88287 0
M  V30 10442 H 971.526 2.73292 3.71631 0
M  V30 10443 H 969.769 2.62558 3.4532 0
M  V30 10444 H 970.44 2.24621 5.04231 0
M  V30 10445 H 972.916 0.552122 4.12421 0
M  V30 10446 H 971.792 0.28575 5.48156 0
M  V30 10447 H 972.053 -0.994616 4.30767 0
M  V30 10448 N 971.112 -1.45937 0.595003 0
M  V30 10449 C 972.36 -2.01921 0.0851368 0
M  V30 10450 C 972.681 -1.46748 -1.28413 0
M  V30 10451 O 971.951 -0.656873 -1.84559 0
M  V30 10452 H 970.531 -0.746457 0.0284826 0
M  V30 10453 H 973.193 -1.78891 0.773561 0
M  V30 10454 H 972.289 -3.1209 0.0254002 0
M  V30 10455 N 972.59 -0.333456 -1.54032 0
M  V30 10456 C 973.838 0.265608 -2.00347 0
M  V30 10457 C 974.159 1.51873 -1.2231 0
M  V30 10458 O 973.429 1.93142 -0.327549 0
M  V30 10459 H 972.009 0.101135 -0.740122 0
M  V30 10460 H 974.671 -0.452285 -1.8958 0
M  V30 10461 H 973.767 0.51511 -3.0782 0
M  V30 10462 N 974.068 1.57479 -0.061844 0
M  V30 10463 C 975.479 1.80627 0.472295 0
M  V30 10464 C 975.83 0.97496 1.70261 0
M  V30 10465 O 974.955 0.1946 2.15523 0
M  V30 10466 C 975.55 3.27608 0.863616 0
M  V30 10467 C 974.109 3.51638 1.34267 0
M  V30 10468 C 973.256 2.75412 0.323009 0
M  V30 10469 H 976.207 1.56072 -0.287634 0
M  V30 10470 H 976.228 3.39113 1.72577 0
M  V30 10471 H 975.74 3.88087 -0.0320226 0
M  V30 10472 H 973.841 2.96452 2.25714 0
M  V30 10473 H 973.954 4.60342 1.32747 0
M  V30 10474 H 972.318 2.4187 0.798175 0
M  V30 10475 H 973.101 3.38623 -0.564729 0
M  V30 10476 N 975.546 -0.211634 1.56173 0
M  V30 10477 C 976.771 -0.955324 1.84088 0
M  V30 10478 C 977.196 -1.76754 0.643407 0
M  V30 10479 O 976.554 -1.76653 -0.407842 0
M  V30 10480 C 976.602 -1.84063 3.10085 0
M  V30 10481 O 975.706 -2.9373 2.89476 0
M  V30 10482 H 975.047 -0.26996 0.606645 0
M  V30 10483 H 977.577 -0.221947 2.03393 0
M  V30 10484 H 977.587 -2.24852 3.40449 0
M  V30 10485 H 976.262 -1.24373 3.96868 0
M  V30 10486 H 974.839 -2.56816 2.7037 0
M  V30 10487 N 977.024 -1.50153 -0.478725 0
M  V30 10488 C 978.252 -1.64505 -1.25482 0
M  V30 10489 C 978.667 -0.325295 -1.85977 0
M  V30 10490 O 978.024 0.691885 -1.68876 0
M  V30 10491 C 978.075 -2.73052 -2.36906 0
M  V30 10492 O 977.796 -3.99911 -1.78894 0
M  V30 10493 C 979.297 -2.98309 -3.27912 0
M  V30 10494 H 976.517 -0.55318 -0.379781 0
M  V30 10495 H 979.061 -1.96329 -0.57229 0
M  V30 10496 H 977.216 -2.43944 -3.00949 0
M  V30 10497 H 977.63 -4.5988 -2.52211 0
M  V30 10498 H 979.104 -3.77942 -4.02323 0
M  V30 10499 H 979.581 -2.09082 -3.8624 0
M  V30 10500 H 980.187 -3.2892 -2.69614 0
M  V30 10501 N 978.502 0.731368 -1.39602 0
M  V30 10502 C 979.432 1.85855 -1.41351 0
M  V30 10503 C 980.413 1.67839 -0.2764 0
M  V30 10504 O 981.598 1.88104 -0.482747 0
M  V30 10505 C 978.728 3.23644 -1.25983 0
M  V30 10506 C 977.682 3.56304 -2.37132 0
M  V30 10507 C 977.008 4.93069 -2.0685 0
M  V30 10508 C 978.308 3.58906 -3.79452 0
M  V30 10509 H 980.002 1.84648 -2.3568 0
M  V30 10510 H 977.548 0.886955 -1.13442 0
M  V30 10511 H 979.501 4.02176 -1.25826 0
M  V30 10512 H 978.225 3.25387 -0.281234 0
M  V30 10513 H 976.884 2.80104 -2.36511 0
M  V30 10514 H 976.532 4.91396 -1.0742 0
M  V30 10515 H 976.232 5.15888 -2.81306 0
M  V30 10516 H 977.756 5.73953 -2.0835 0
M  V30 10517 H 979.17 4.27508 -3.81982 0
M  V30 10518 H 977.567 3.93246 -4.53297 0
M  V30 10519 H 978.637 2.58631 -4.10168 0
M  V30 10520 N 979.98 1.24838 0.961938 0
M  V30 10521 C 981.208 1.11871 1.74047 0
M  V30 10522 C 981.623 -0.328209 1.85925 0
M  V30 10523 O 980.98 -1.22616 1.35173 0
M  V30 10524 C 981.031 1.75931 3.15801 0
M  V30 10525 O 980.752 3.14967 3.04512 0
M  V30 10526 C 982.253 1.68649 4.09966 0
M  V30 10527 H 979.473 0.390569 0.545616 0
M  V30 10528 H 982.017 1.65058 1.20732 0
M  V30 10529 H 980.172 1.26733 3.66084 0
M  V30 10530 H 980.586 3.46349 3.93882 0
M  V30 10531 H 982.06 2.18144 5.07067 0
M  V30 10532 H 982.537 0.648831 4.34381 0
M  V30 10533 H 983.143 2.17301 3.65596 0
M  V30 10534 N 981.458 -1.16348 1.06306 0
M  V30 10535 C 982.683 -1.91323 0.800636 0
M  V30 10536 C 983.108 -1.7691 -0.639105 0
M  V30 10537 O 982.466 -1.0945 -1.44535 0
M  V30 10538 C 982.514 -3.40038 1.20027 0
M  V30 10539 O 981.618 -4.11003 0.339142 0
M  V30 10540 H 980.959 -0.596057 0.292595 0
M  V30 10541 H 983.489 -1.47406 1.41889 0
M  V30 10542 H 983.499 -3.90808 1.17188 0
M  V30 10543 H 982.174 -3.49848 2.24898 0
M  V30 10544 H 980.751 -3.70423 0.42911 0
M  V30 10545 N 982.937 -0.845659 -1.3299 0
M  V30 10546 C 983.9 -0.288905 -2.27372 0
M  V30 10547 C 984.9 0.546263 -1.51237 0
M  V30 10548 O 986.09 0.359072 -1.70459 0
M  V30 10549 C 983.222 0.59224 -3.35716 0
M  V30 10550 H 984.415 -1.12181 -2.78128 0
M  V30 10551 H 981.968 -0.619276 -1.43508 0
M  V30 10552 H 982.703 1.44732 -2.90212 0
M  V30 10553 H 982.488 -0.00543255 -3.921 0
M  V30 10554 H 983.978 0.974848 -4.06062 0
M  V30 10555 N 984.415 1.45619 -0.602734 0
M  V30 10556 C 985.663 2.01873 -0.095844 0
M  V30 10557 C 985.984 1.47427 1.27633 0
M  V30 10558 O 985.254 0.666652 1.84208 0
M  V30 10559 H 983.834 0.746295 -0.0324408 0
M  V30 10560 H 986.496 1.78478 -0.783037 0
M  V30 10561 H 985.592 3.12072 -0.0419507 0
M  V30 10562 N 985.893 0.34162 1.53853 0
M  V30 10563 C 986.825 -0.550383 2.22494 0
M  V30 10564 C 987.838 -1.0655 1.23089 0
M  V30 10565 O 989.027 -0.975985 1.49455 0
M  V30 10566 C 986.127 -1.76995 2.89009 0
M  V30 10567 C 985.3 -1.39045 4.14711 0
M  V30 10568 C 984.359 -2.46947 4.64654 0
M  V30 10569 O 983.385 -2.10336 5.28912 0
M  V30 10570 N 984.587 -3.7817 4.40418 0
M  V30 10571 H 987.352 0.037456 2.99677 0
M  V30 10572 H 984.913 0.165654 1.6105 0
M  V30 10573 H 986.905 -2.48608 3.19337 0
M  V30 10574 H 985.475 -2.2652 2.15424 0
M  V30 10575 H 984.695 -0.505161 3.9095 0
M  V30 10576 H 985.983 -1.11284 4.96481 0
M  V30 10577 H 985.381 -4.10704 3.89023 0
M  V30 10578 H 983.938 -4.45959 4.75356 0
M  V30 10579 N 987.371 -1.57444 0.0701946 0
M  V30 10580 C 988.301 -2.15659 -0.895176 0
M  V30 10581 C 989.282 -1.08321 -1.31151 0
M  V30 10582 O 990.467 -1.36349 -1.38284 0
M  V30 10583 C 987.597 -2.71693 -2.16334 0
M  V30 10584 C 986.551 -3.84183 -1.88645 0
M  V30 10585 C 985.877 -4.26814 -3.22078 0
M  V30 10586 C 987.177 -5.08493 -1.19299 0
M  V30 10587 H 988.871 -2.96576 -0.410217 0
M  V30 10588 H 986.417 -1.42662 -0.195872 0
M  V30 10589 H 988.37 -3.11064 -2.84284 0
M  V30 10590 H 987.094 -1.87994 -2.67069 0
M  V30 10591 H 985.753 -3.45314 -1.23101 0
M  V30 10592 H 985.401 -3.40039 -3.70651 0
M  V30 10593 H 985.101 -5.02642 -3.04344 0
M  V30 10594 H 986.625 -4.68799 -3.91228 0
M  V30 10595 H 988.039 -5.4519 -1.77316 0
M  V30 10596 H 986.436 -5.89588 -1.11828 0
M  V30 10597 H 987.506 -4.84595 -0.171839 0
M  V30 10598 N 988.849 0.203349 -1.56283 0
M  V30 10599 C 989.779 1.2549 -1.96912 0
M  V30 10600 C 990.76 1.47919 -0.839884 0
M  V30 10601 O 991.945 1.59795 -1.10359 0
M  V30 10602 C 989.075 2.6009 -2.30153 0
M  V30 10603 C 988.029 2.52289 -3.45738 0
M  V30 10604 C 987.355 3.91086 -3.64632 0
M  V30 10605 C 988.655 2.05503 -4.80173 0
M  V30 10606 H 990.349 0.917306 -2.85002 0
M  V30 10607 H 987.895 0.439818 -1.37119 0
M  V30 10608 H 989.848 3.33829 -2.5717 0
M  V30 10609 H 988.572 2.95574 -1.38937 0
M  V30 10610 H 987.231 1.81006 -3.18798 0
M  V30 10611 H 986.879 4.23908 -2.7076 0
M  V30 10612 H 986.579 3.86742 -4.42385 0
M  V30 10613 H 988.103 4.66459 -3.94016 0
M  V30 10614 H 989.517 2.68995 -5.06275 0
M  V30 10615 H 987.914 2.1218 -5.61337 0
M  V30 10616 H 988.984 1.00793 -4.74309 0
M  V30 10617 N 990.327 1.50405 0.470755 0
M  V30 10618 C 991.738 1.54266 1.05162 0
M  V30 10619 C 992.089 0.346359 1.93119 0
M  V30 10620 O 991.214 -0.540699 2.09536 0
M  V30 10621 C 991.809 2.7956 1.91394 0
M  V30 10622 C 990.368 2.86101 2.44588 0
M  V30 10623 C 989.515 2.48557 1.22941 0
M  V30 10624 H 992.466 1.56665 0.253359 0
M  V30 10625 H 992.487 2.61434 2.76464 0
M  V30 10626 H 991.999 3.66611 1.27351 0
M  V30 10627 H 990.1 2.03403 3.12183 0
M  V30 10628 H 990.213 3.88999 2.79672 0
M  V30 10629 H 988.577 2.01003 1.56429 0
M  V30 10630 H 989.36 3.37916 0.605598 0
M  V30 10631 N 991.805 -0.723954 1.39988 0
M  V30 10632 C 992.715 -1.86829 1.41887 0
M  V30 10633 C 993.731 -1.71173 0.312401 0
M  V30 10634 O 994.907 -1.93583 0.555651 0
M  V30 10635 C 991.972 -3.22541 1.27154 0
M  V30 10636 C 991.033 -3.50512 2.47871 0
M  V30 10637 C 990.266 -4.79749 2.33831 0
M  V30 10638 O 990.489 -5.54251 1.34765 0
M  V30 10639 O 989.423 -5.07868 3.23039 0
M  V30 10640 H 993.249 -1.88183 2.38371 0
M  V30 10641 H 990.834 -0.873259 1.21221 0
M  V30 10642 H 992.716 -4.0362 1.21114 0
M  V30 10643 H 991.391 -3.21933 0.337715 0
M  V30 10644 H 990.298 -2.69475 2.59488 0
M  V30 10645 H 991.631 -3.55909 3.39985 0
M  V30 10646 N 993.283 -1.25346 -0.955304 0
M  V30 10647 C 994.531 -1.09837 -1.69647 0
M  V30 10648 C 994.852 0.361425 -1.91621 0
M  V30 10649 O 994.122 1.25666 -1.50283 0
M  V30 10650 H 992.702 -0.403467 -0.628668 0
M  V30 10651 H 995.364 -1.57459 -1.14859 0
M  V30 10652 H 994.46 -1.60616 -2.67598 0
M  V30 10653 N 994.761 1.15782 -1.06922 0
M  V30 10654 C 995.989 1.90355 -0.81072 0
M  V30 10655 C 996.404 1.77779 0.635614 0
M  V30 10656 O 995.761 1.12675 1.43564 0
M  V30 10657 C 995.812 3.4085 -1.2043 0
M  V30 10658 O 995.533 3.53057 -2.59388 0
M  V30 10659 C 997.034 4.32457 -0.974473 0
M  V30 10660 H 994.254 0.60343 -0.293451 0
M  V30 10661 H 996.798 1.46723 -1.42452 0
M  V30 10662 H 994.953 3.82162 -0.634909 0
M  V30 10663 H 995.367 4.46426 -2.75326 0
M  V30 10664 H 996.841 5.36488 -1.29942 0
M  V30 10665 H 997.318 4.39109 0.0894481 0
M  V30 10666 H 997.924 3.96882 -1.52856 0
M  V30 10667 N 996.239 0.8527 1.3254 0
M  V30 10668 C 997.467 0.469044 2.01513 0
M  V30 10669 C 997.882 -0.933701 1.64096 0
M  V30 10670 O 997.239 -1.60898 0.861283 0
M  V30 10671 C 997.29 0.596228 3.56549 0
M  V30 10672 O 997.011 1.94371 3.92621 0
M  V30 10673 C 998.512 0.211324 4.42796 0
M  V30 10674 H 995.732 0.184589 0.645111 0
M  V30 10675 H 998.276 1.1491 1.69163 0
M  V30 10676 H 996.431 -0.0360712 3.87383 0
M  V30 10677 H 996.845 1.93909 4.87339 0
M  V30 10678 H 998.319 0.351324 5.50881 0
M  V30 10679 H 998.796 -0.848055 4.30935 0
M  V30 10680 H 999.402 0.818617 4.17347 0
M  V30 10681 N 997.718 -1.45297 0.610449 0
M  V30 10682 C 998.946 -2.0659 0.113211 0
M  V30 10683 C 999.361 -1.4546 -1.20361 0
M  V30 10684 O 998.718 -0.569823 -1.73376 0
M  V30 10685 C 998.769 -3.61488 -0.0298411 0
M  V30 10686 O 998.49 -4.20336 1.23488 0
M  V30 10687 C 999.991 -4.39772 -0.558202 0
M  V30 10688 H 997.211 -0.667322 0.0701555 0
M  V30 10689 H 999.755 -1.86497 0.838993 0
M  V30 10690 H 997.91 -3.80913 -0.705963 0
M  V30 10691 H 998.324 -5.13545 1.0664 0
M  V30 10692 H 999.798 -5.48648 -0.607375 0
M  V30 10693 H 1000.27 -4.09755 -1.58107 0
M  V30 10694 H 1000.88 -4.25217 0.0839704 0
M  V30 10695 N 999.196 -0.349774 -1.5367 0
M  V30 10696 C 1000.11 0.512421 -2.28935 0
M  V30 10697 C 1001.12 1.1065 -1.34286 0
M  V30 10698 O 1002.3 1.12084 -1.67329 0
M  V30 10699 C 999.363 1.64449 -3.05217 0
M  V30 10700 C 998.424 1.07956 -4.15505 0
M  V30 10701 C 997.657 2.15768 -4.88139 0
M  V30 10702 O 997.88 3.366 -4.60496 0
M  V30 10703 O 996.814 1.79712 -5.74445 0
M  V30 10704 H 1000.64 -0.0996001 -3.03537 0
M  V30 10705 H 998.225 -0.114629 -1.4896 0
M  V30 10706 H 1000.11 2.30302 -3.52901 0
M  V30 10707 H 998.782 2.24221 -2.33467 0
M  V30 10708 H 997.689 0.385381 -3.7211 0
M  V30 10709 H 999.022 0.526621 -4.89375 0
M  V30 10710 N 1000.67 1.57404 -0.0785433 0
M  V30 10711 C 1001.9 1.98074 0.597862 0
M  V30 10712 C 1002.32 0.95714 1.6274 0
M  V30 10713 O 1001.67 -0.0553728 1.82416 0
M  V30 10714 C 1001.72 3.38815 1.26041 0
M  V30 10715 O 1001.45 4.37254 0.27207 0
M  V30 10716 C 1002.95 3.94397 2.024 0
M  V30 10717 H 1000.17 0.651263 0.161546 0
M  V30 10718 H 1002.71 2.03927 -0.152941 0
M  V30 10719 H 1000.87 3.34028 1.96225 0
M  V30 10720 H 1001.28 5.19136 0.74822 0
M  V30 10721 H 1002.75 4.95075 2.4414 0
M  V30 10722 H 1003.23 3.31308 2.88326 0
M  V30 10723 H 1003.84 4.02607 1.37068 0
M  V30 10724 N 1002.15 -0.195058 1.56388 0
M  V30 10725 C 1003.06 -1.26219 1.97752 0
M  V30 10726 C 1004.08 -1.49801 0.885192 0
M  V30 10727 O 1005.25 -1.62415 1.19094 0
M  V30 10728 C 1002.32 -2.5865 2.3087 0
M  V30 10729 C 1001.38 -2.4314 3.5381 0
M  V30 10730 C 1000.61 -3.69255 3.85339 0
M  V30 10731 O 1000.84 -4.73425 3.18159 0
M  V30 10732 O 999.77 -3.64782 4.78767 0
M  V30 10733 H 1003.6 -0.941161 2.88749 0
M  V30 10734 H 1001.18 -0.40006 1.43944 0
M  V30 10735 H 1003.06 -3.36814 2.53247 0
M  V30 10736 H 1001.74 -2.9038 1.43042 0
M  V30 10737 H 1000.64 -1.63086 3.3668 0
M  V30 10738 H 1001.98 -2.16341 4.42105 0
M  V30 10739 N 1003.63 -1.50653 -0.462772 0
M  V30 10740 C 1004.88 -1.61296 -1.21105 0
M  V30 10741 C 1005.19 -0.322757 -1.92919 0
M  V30 10742 O 1006.4 -0.308211 -2.69745 0
M  V30 10743 C 1004.85 -2.84752 -2.201 0
M  V30 10744 C 1004.46 -4.20681 -1.54051 0
M  V30 10745 C 1006.21 -3.04744 -2.95518 0
M  V30 10746 C 1004.11 -5.35314 -2.51381 0
M  V30 10747 H 1003.04 -0.60069 -0.455728 0
M  V30 10748 H 1005.69 -1.77093 -0.480656 0
M  V30 10749 H 1004.08 -2.62532 -2.96467 0
M  V30 10750 H 1005.25 -4.53187 -0.834168 0
M  V30 10751 H 1003.56 -4.06361 -0.908828 0
M  V30 10752 H 1006.16 -3.87559 -3.68378 0
M  V30 10753 H 1006.5 -2.16802 -3.55391 0
M  V30 10754 H 1007.04 -3.27185 -2.26263 0
M  V30 10755 H 1003.78 -6.25437 -1.96235 0
M  V30 10756 H 1003.3 -5.07216 -3.20144 0
M  V30 10757 H 1004.98 -5.66229 -3.1304 0
M  V30 10758 N 1005.11 0.71652 -1.4037 0
M  V30 10759 C 1006.52 1.02447 -1.22379 0
M  V30 10760 C 1006.72 2.0126 -0.0983394 0
M  V30 10761 O 1005.78 2.46569 0.544071 0
M  V30 10762 C 1007.09 1.56909 -2.56515 0
M  V30 10763 C 1008.64 1.68898 -2.6352 0
M  V30 10764 C 1009.12 2.26765 -3.97922 0
M  V30 10765 N 1010.61 2.34152 -3.99658 0
M  V30 10766 C 1011.34 2.79907 -5.00439 0
M  V30 10767 N 1010.84 3.25422 -6.11615 0
M  V30 10768 N 1012.63 2.79283 -4.87809 0
M  V30 10769 H 1004.78 0.0615306 -2.12311 0
M  V30 10770 H 1007.05 0.0898994 -0.943728 0
M  V30 10771 H 1006.75 0.917649 -3.39517 0
M  V30 10772 H 1006.63 2.55446 -2.77538 0
M  V30 10773 H 1009.01 2.33159 -1.8089 0
M  V30 10774 H 1009.09 0.689626 -2.46329 0
M  V30 10775 H 1008.74 1.63126 -4.80991 0
M  V30 10776 H 1008.67 3.27413 -4.12442 0
M  V30 10777 H 1011.16 2.02006 -3.19378 0
M  V30 10778 H 1011.47 3.58899 -6.84406 0
M  V30 10779 H 1009.82 3.23383 -6.15181 0
M  V30 10780 H 1013.01 2.43061 -4.00049 0
M  V30 10781 H 1013.18 3.14626 -5.66493 0
M  V30 10782 N 1006.59 1.25851 0.948643 0
M  V30 10783 C 1007.53 1.06759 2.04625 0
M  V30 10784 C 1008.5 -0.0251144 1.66081 0
M  V30 10785 O 1009.69 0.133221 1.90334 0
M  V30 10786 C 1006.83 0.698724 3.37952 0
M  V30 10787 C 1005.94 1.8669 3.89578 0
M  V30 10788 C 1005.08 1.44184 5.11258 0
M  V30 10789 C 1004.12 2.57878 5.55126 0
M  V30 10790 N 1003.25 2.16106 6.68014 0
M  V30 10791 H 1008.09 2.00691 2.20289 0
M  V30 10792 H 1005.63 0.999327 1.07944 0
M  V30 10793 H 1007.59 0.465788 4.14592 0
M  V30 10794 H 1006.22 -0.203618 3.22157 0
M  V30 10795 H 1005.27 2.21298 3.09405 0
M  V30 10796 H 1006.58 2.72051 4.18079 0
M  V30 10797 H 1005.74 1.16891 5.95333 0
M  V30 10798 H 1004.47 0.559035 4.84485 0
M  V30 10799 H 1003.48 2.85909 4.69612 0
M  V30 10800 H 1004.7 3.46747 5.83904 0
M  V30 10801 H 1002.65 1.3025 6.42939 0
M  V30 10802 H 1002.57 2.95012 6.96063 0
M  V30 10803 H 1003.84 1.92005 7.55483 0
M  V30 10804 N 1008.06 -1.15214 1.07534 0
M  V30 10805 C 1009.48 -1.38031 0.801228 0
M  V30 10806 C 1009.68 -1.92556 -0.593672 0
M  V30 10807 O 1008.74 -2.1325 -1.35206 0
M  V30 10808 C 1010.05 -2.34958 1.87657 0
M  V30 10809 C 1011.6 -2.48617 1.90154 0
M  V30 10810 C 1012.07 -3.48837 2.96777 0
M  V30 10811 N 1013.56 -3.56374 2.95892 0
M  V30 10812 C 1014.3 -4.33746 3.75036 0
M  V30 10813 N 1013.79 -5.14435 4.64036 0
M  V30 10814 N 1015.59 -4.28853 3.63375 0
M  V30 10815 H 1007.74 -0.781639 1.97495 0
M  V30 10816 H 1010 -0.406243 0.856546 0
M  V30 10817 H 1009.71 -2.02013 2.87895 0
M  V30 10818 H 1009.58 -3.3476 1.73827 0
M  V30 10819 H 1011.97 -2.80859 0.905666 0
M  V30 10820 H 1012.05 -1.48808 2.08062 0
M  V30 10821 H 1011.69 -3.1733 3.96565 0
M  V30 10822 H 1011.62 -4.48406 2.76116 0
M  V30 10823 H 1014.11 -2.98784 2.31379 0
M  V30 10824 H 1014.43 -5.70722 5.21053 0
M  V30 10825 H 1012.77 -5.13734 4.68084 0
M  V30 10826 H 1015.96 -3.64882 2.93221 0
M  V30 10827 H 1016.14 -4.88903 4.25298 0
M  V30 10828 N 1009.54 -0.859717 -1.32086 0
M  V30 10829 C 1010.96 -0.55025 -1.49815 0
M  V30 10830 C 1011.16 0.917966 -1.79376 0
M  V30 10831 O 1010.21 1.70073 -1.86632 0
M  V30 10832 C 1011.53 -1.44161 -2.6389 0
M  V30 10833 C 1013.08 -1.44257 -2.77775 0
M  V30 10834 C 1013.55 -2.31926 -3.94936 0
M  V30 10835 N 1015.04 -2.2975 -4.02206 0
M  V30 10836 C 1015.78 -2.9431 -4.92107 0
M  V30 10837 N 1015.27 -3.68001 -5.86981 0
M  V30 10838 N 1017.07 -2.83671 -4.8527 0
M  V30 10839 H 1009.22 -1.80987 -1.11164 0
M  V30 10840 H 1011.48 -0.773313 -0.548353 0
M  V30 10841 H 1011.19 -2.48588 -2.4879 0
M  V30 10842 H 1011.06 -1.13268 -3.59792 0
M  V30 10843 H 1013.45 -0.405923 -2.92295 0
M  V30 10844 H 1013.53 -1.79169 -1.82571 0
M  V30 10845 H 1013.17 -3.35661 -3.81174 0
M  V30 10846 H 1013.1 -1.94344 -4.89426 0
M  V30 10847 H 1015.59 -1.76177 -3.3432 0
M  V30 10848 H 1015.91 -4.14417 -6.52287 0
M  V30 10849 H 1014.25 -3.72109 -5.86992 0
M  V30 10850 H 1017.44 -2.25647 -4.10123 0
M  V30 10851 H 1017.61 -3.34267 -5.5513 0
M  V30 10852 N 1011.02 1.44971 -0.618145 0
M  V30 10853 C 1012.25 2.07039 -0.122395 0
M  V30 10854 C 1012.67 1.45793 1.18853 0
M  V30 10855 O 1012.03 0.55453 1.72611 0
M  V30 10856 C 1012.08 3.60599 -0.0073864 0
M  V30 10857 O 1011.18 3.99069 1.04007 0
M  V30 10858 H 1010.52 0.6593 -0.0788615 0
M  V30 10859 H 1013.05 1.86055 -0.851147 0
M  V30 10860 H 1013.06 4.07569 0.187417 0
M  V30 10861 H 1011.74 4.04561 -0.964544 0
M  V30 10862 H 1010.31 3.63753 0.820879 0
M  V30 10863 N 1012.5 0.357919 1.53482 0
M  V30 10864 C 1013.72 -0.237769 2.06033 0
M  V30 10865 C 1014.15 -1.42292 1.23023 0
M  V30 10866 O 1013.51 -1.79604 0.247427 0
M  V30 10867 C 1013.55 -0.616806 3.55286 0
M  V30 10868 O 1012.66 -1.71503 3.75047 0
M  V30 10869 H 1012 -0.0364322 0.663 0
M  V30 10870 H 1014.53 0.516301 1.97979 0
M  V30 10871 H 1014.54 -0.88996 3.98175 0
M  V30 10872 H 1013.21 0.249825 4.15149 0
M  V30 10873 H 1011.79 -1.43803 3.44057 0
M  V30 10874 N 1013.98 -1.5736 0.0868897 0
M  V30 10875 C 1015.2 -1.98809 -0.590757 0
M  V30 10876 C 1015.63 -0.965407 -1.61436 0
M  V30 10877 O 1014.98 0.067143 -1.81176 0
M  V30 10878 C 1015.03 -3.39249 -1.22238 0
M  V30 10879 O 1014.14 -3.39706 -2.33824 0
M  V30 10880 H 1013.48 -0.64669 -0.150626 0
M  V30 10881 H 1016.01 -2.03927 0.165873 0
M  V30 10882 H 1016.02 -3.76765 -1.56564 0
M  V30 10883 H 1014.69 -4.13208 -0.472434 0
M  V30 10884 H 1013.27 -3.13977 -2.01178 0
M  V30 10885 N 1015.45 0.186762 -1.56489 0
M  V30 10886 C 1016.68 0.920495 -1.84961 0
M  V30 10887 C 1017.09 1.77004 -0.668297 0
M  V30 10888 O 1016.44 1.79891 0.37213 0
M  V30 10889 C 1016.5 1.85997 -3.07645 0
M  V30 10890 C 1016.16 1.19156 -4.41193 0
M  V30 10891 C 1017.16 0.564446 -5.16827 0
M  V30 10892 C 1014.84 1.19292 -4.87929 0
M  V30 10893 C 1016.84 -0.0523768 -6.37378 0
M  V30 10894 C 1014.52 0.572266 -6.08415 0
M  V30 10895 C 1015.52 -0.049294 -6.82982 0
M  V30 10896 O 1015.21 -0.660201 -8.01184 0
M  V30 10897 H 1014.94 0.273659 -0.618132 0
M  V30 10898 H 1017.5 0.196437 -2.04459 0
M  V30 10899 H 1015.73 2.62394 -2.84053 0
M  V30 10900 H 1017.42 2.46221 -3.22692 0
M  V30 10901 H 1018.18 0.555474 -4.81809 0
M  V30 10902 H 1014.06 1.66611 -4.29839 0
M  V30 10903 H 1017.6 -0.538133 -6.95521 0
M  V30 10904 H 1013.5 0.578769 -6.429 0
M  V30 10905 H 1014.27 -0.557926 -8.16596 0
M  V30 10906 N 1016.93 1.50896 0.454776 0
M  V30 10907 C 1017.88 1.67333 1.54867 0
M  V30 10908 C 1018.87 0.527576 1.52005 0
M  V30 10909 O 1020.06 0.782726 1.58753 0
M  V30 10910 C 1017.19 1.7858 2.93196 0
M  V30 10911 C 1016.27 2.98884 3.0088 0
M  V30 10912 N 1016.66 4.22326 2.78343 0
M  V30 10913 C 1014.96 2.97779 3.32029 0
M  V30 10914 C 1015.66 5.03439 2.91418 0
M  V30 10915 N 1014.64 4.37725 3.22332 0
M  V30 10916 H 1018.44 2.60453 1.36167 0
M  V30 10917 H 1015.96 1.48304 0.661797 0
M  V30 10918 H 1017.95 1.88463 3.7187 0
M  V30 10919 H 1016.61 0.866296 3.1293 0
M  V30 10920 H 1017.62 4.51557 2.53607 0
M  V30 10921 H 1014.3 2.15393 3.57648 0
M  V30 10922 H 1015.69 6.11648 2.78095 0
M  V30 10923 N 1018.41 -0.709066 1.40748 0
M  V30 10924 C 1019.66 -1.47119 1.39585 0
M  V30 10925 C 1019.99 -1.942 0.000245323 0
M  V30 10926 O 1019.26 -1.68609 -0.969593 0
M  V30 10927 C 1019.55 -2.69266 2.39099 0
M  V30 10928 C 1019.4 -2.28037 3.8771 0
M  V30 10929 C 1020.72 -3.71438 2.36055 0
M  V30 10930 H 1017.84 -0.533632 0.508336 0
M  V30 10931 H 1020.48 -0.808718 1.7193 0
M  V30 10932 H 1018.63 -3.25788 2.11647 0
M  V30 10933 H 1020.3 -1.76946 4.26014 0
M  V30 10934 H 1018.55 -1.59966 4.03229 0
M  V30 10935 H 1019.22 -3.15621 4.52866 0
M  V30 10936 H 1021.69 -3.24559 2.60385 0
M  V30 10937 H 1020.57 -4.54532 3.07721 0
M  V30 10938 H 1020.83 -4.20193 1.37443 0
M  V30 10939 N 1019.89 -1.26353 -0.941956 0
M  V30 10940 C 1021.11 -1.14731 -1.72776 0
M  V30 10941 C 1021.54 0.293766 -1.85792 0
M  V30 10942 O 1020.9 1.21284 -1.34759 0
M  V30 10943 C 1020.95 -1.82041 -3.11277 0
M  V30 10944 O 1020.05 -1.10867 -3.97218 0
M  V30 10945 H 1019.39 -0.399823 -0.53013 0
M  V30 10946 H 1021.92 -1.67157 -1.17981 0
M  V30 10947 H 1021.93 -1.88834 -3.61671 0
M  V30 10948 H 1020.61 -2.86879 -3.0112 0
M  V30 10949 H 1019.18 -1.12044 -3.55669 0
M  V30 10950 N 1021.37 1.14642 -1.08144 0
M  V30 10951 C 1022.3 2.18656 -0.653066 0
M  V30 10952 C 1023.28 1.59137 0.333803 0
M  V30 10953 O 1024.46 1.86988 0.238305 0
M  V30 10954 C 1021.59 3.38677 0.0398337 0
M  V30 10955 C 1020.64 4.1675 -0.906755 0
M  V30 10956 S 1021.47 4.78103 -2.41201 0
M  V30 10957 C 1022.62 6.01483 -1.73115 0
M  V30 10958 H 1022.86 2.54654 -1.53423 0
M  V30 10959 H 1020.39 1.25731 -0.896162 0
M  V30 10960 H 1022.35 4.08206 0.43334 0
M  V30 10961 H 1021.01 3.01006 0.897457 0
M  V30 10962 H 1020.2 5.02649 -0.368795 0
M  V30 10963 H 1019.8 3.52809 -1.24103 0
M  V30 10964 H 1022.1 6.69353 -1.04752 0
M  V30 10965 H 1023.04 6.59863 -2.56878 0
M  V30 10966 H 1023.45 5.51474 -1.20566 0
M  V30 10967 N 1022.85 0.866709 1.31628 0
M  V30 10968 C 1024.12 0.396828 1.91532 0
M  V30 10969 C 1024.5 -1.12081 1.78889 0
M  V30 10970 O 1023.85 -1.94791 1.19452 0
M  V30 10971 C 1024.06 0.874578 3.37864 0
M  V30 10972 C 1025.41 0.8988 4.14978 0
M  V30 10973 O 1026.43 0.820014 3.46633 0
M  V30 10974 O 1025.29 1.01223 5.37044 0
M  V30 10975 H 1022.39 0.1181 0.818524 0
M  V30 10976 H 1024.93 0.954407 1.40318 0
M  V30 10977 H 1023.7 1.91807 3.41066 0
M  V30 10978 H 1023.33 0.295126 3.96503 0
M  V30 10979 N 1024.32 -1.44642 0.625825 0
M  V30 10980 C 1025.25 -2.33397 -0.0692188 0
M  V30 10981 C 1026.23 -1.47898 -0.840241 0
M  V30 10982 O 1027.42 -1.7663 -0.807176 0
M  V30 10983 C 1024.55 -3.30888 -1.055 0
M  V30 10984 C 1023.5 -4.26164 -0.395968 0
M  V30 10985 C 1022.83 -5.13483 -1.49128 0
M  V30 10986 C 1024.13 -5.17663 0.694433 0
M  V30 10987 H 1025.82 -2.91763 0.671925 0
M  V30 10988 H 1023.37 -1.40294 0.324573 0
M  V30 10989 H 1025.32 -3.91861 -1.54993 0
M  V30 10990 H 1024.05 -2.7072 -1.82696 0
M  V30 10991 H 1022.71 -3.66516 0.0782691 0
M  V30 10992 H 1022.35 -4.49672 -2.25399 0
M  V30 10993 H 1022.05 -5.78038 -1.05573 0
M  V30 10994 H 1023.58 -5.77327 -1.98813 0
M  V30 10995 H 1024.99 -5.72602 0.282818 0
M  V30 10996 H 1023.39 -5.90793 1.05281 0
M  V30 10997 H 1024.46 -4.58994 1.56372 0
M  V30 10998 N 1025.8 -0.366053 -1.5329 0
M  V30 10999 C 1026.73 0.47211 -2.28677 0
M  V30 11000 C 1027.71 1.08353 -1.31125 0
M  V30 11001 O 1028.9 1.10069 -1.59995 0
M  V30 11002 C 1026.03 1.61174 -3.07637 0
M  V30 11003 C 1024.98 1.12755 -4.12881 0
M  V30 11004 C 1024.31 2.35745 -4.79925 0
M  V30 11005 C 1025.61 0.211954 -5.2187 0
M  V30 11006 H 1027.3 -0.156838 -2.98989 0
M  V30 11007 H 1024.85 -0.0768709 -1.43795 0
M  V30 11008 H 1026.8 2.20473 -3.59123 0
M  V30 11009 H 1025.52 2.26793 -2.35016 0
M  V30 11010 H 1024.18 0.557234 -3.6234 0
M  V30 11011 H 1023.83 2.99821 -4.03877 0
M  V30 11012 H 1023.53 2.04019 -5.51044 0
M  V30 11013 H 1025.06 2.95729 -5.34207 0
M  V30 11014 H 1026.47 0.71244 -5.68856 0
M  V30 11015 H 1024.87 -0.0144501 -6.00098 0
M  V30 11016 H 1025.94 -0.745753 -4.79131 0
M  V30 11017 N 1027.28 1.57312 -0.0952337 0
M  V30 11018 C 1028.19 2.17556 0.877877 0
M  V30 11019 C 1029.21 1.14505 1.31014 0
M  V30 11020 O 1030.38 1.46876 1.37802 0
M  V30 11021 C 1027.45 2.74413 2.11892 0
M  V30 11022 C 1026.51 3.92419 1.74085 0
M  V30 11023 C 1025.74 4.46556 2.92273 0
M  V30 11024 O 1025.96 3.99631 4.07002 0
M  V30 11025 O 1024.9 5.37576 2.70732 0
M  V30 11026 H 1028.72 3.01116 0.395312 0
M  V30 11027 H 1026.31 1.48841 0.129123 0
M  V30 11028 H 1028.19 3.10754 2.84622 0
M  V30 11029 H 1026.87 1.93899 2.59201 0
M  V30 11030 H 1025.77 3.6089 0.985346 0
M  V30 11031 H 1027.11 4.74298 1.31539 0
M  V30 11032 N 1028.76 -0.17846 1.56586 0
M  V30 11033 C 1030.03 -0.923096 1.72448 0
M  V30 11034 C 1030.41 -2.00692 0.654659 0
M  V30 11035 O 1029.76 -2.26079 -0.33171 0
M  V30 11036 C 1029.97 -1.49435 3.15389 0
M  V30 11037 C 1031.32 -1.97005 3.76131 0
M  V30 11038 O 1032.34 -1.59244 3.18622 0
M  V30 11039 O 1031.2 -2.66541 4.77094 0
M  V30 11040 H 1028.3 -0.434009 0.703964 0
M  V30 11041 H 1030.84 -0.16685 1.68878 0
M  V30 11042 H 1029.62 -0.713933 3.84732 0
M  V30 11043 H 1029.24 -2.31498 3.23256 0
M  V30 11044 N 1030.24 -1.51135 -0.446768 0
M  V30 11045 C 1031.65 -1.55919 -1.02694 0
M  V30 11046 C 1032 -0.377038 -1.92543 0
M  V30 11047 O 1031.12 0.507295 -2.1037 0
M  V30 11048 C 1031.72 -2.8257 -1.86922 0
M  V30 11049 C 1030.28 -2.89956 -2.40005 0
M  V30 11050 C 1029.42 -2.50482 -1.18971 0
M  V30 11051 H 1032.37 -1.57048 -0.228403 0
M  V30 11052 H 1032.4 -2.65799 -2.7227 0
M  V30 11053 H 1031.91 -3.6859 -1.21502 0
M  V30 11054 H 1030.01 -2.08343 -3.08907 0
M  V30 11055 H 1030.12 -3.93399 -2.73448 0
M  V30 11056 H 1028.49 -2.03466 -1.53211 0
M  V30 11057 H 1029.27 -3.38837 -0.551762 0
M  V30 11058 N 1031.71 0.701592 -1.41122 0
M  V30 11059 C 1032.94 1.49049 -1.43499 0
M  V30 11060 C 1033.36 1.88761 -0.0385684 0
M  V30 11061 O 1032.71 1.56384 0.940755 0
M  V30 11062 C 1032.76 2.7569 -2.33832 0
M  V30 11063 O 1032.49 2.37653 -3.68039 0
M  V30 11064 C 1033.99 3.69479 -2.44949 0
M  V30 11065 H 1031.21 0.459519 -0.488961 0
M  V30 11066 H 1033.75 0.864318 -1.85337 0
M  V30 11067 H 1031.91 3.34559 -1.95318 0
M  V30 11068 H 1032.32 3.19241 -4.16156 0
M  V30 11069 H 1033.79 4.55139 -3.12334 0
M  V30 11070 H 1034.27 4.13553 -1.47887 0
M  V30 11071 H 1034.88 3.16517 -2.84072 0
M  V30 11072 N 1033.19 1.2685 0.935242 0
M  V30 11073 C 1034.42 1.15645 1.72165 0
M  V30 11074 C 1034.84 -0.283909 1.85945 0
M  V30 11075 O 1034.2 -1.20567 1.354 0
M  V30 11076 C 1034.25 1.83689 3.10307 0
M  V30 11077 O 1033.35 1.12972 3.96625 0
M  V30 11078 H 1032.69 0.402629 0.528002 0
M  V30 11079 H 1035.22 1.67781 1.17093 0
M  V30 11080 H 1035.23 1.90749 3.60664 0
M  V30 11081 H 1033.91 2.88472 2.99595 0
M  V30 11082 H 1032.48 1.13929 3.5507 0
M  V30 11083 N 1034.67 -1.14067 1.0875 0
M  V30 11084 C 1036.09 -1.37173 0.815823 0
M  V30 11085 C 1036.29 -1.93175 -0.573215 0
M  V30 11086 O 1035.34 -2.14672 -1.32937 0
M  V30 11087 C 1036.66 -2.32955 1.90138 0
M  V30 11088 C 1038.2 -2.46586 1.9278 0
M  V30 11089 C 1038.68 -3.4567 3.0046 0
M  V30 11090 N 1040.17 -3.53216 2.99655 0
M  V30 11091 C 1040.9 -4.29743 3.79616 0
M  V30 11092 N 1040.4 -5.09484 4.69466 0
M  V30 11093 N 1042.19 -4.24975 3.67903 0
M  V30 11094 H 1034.34 -0.760648 1.98313 0
M  V30 11095 H 1036.61 -0.397135 0.860807 0
M  V30 11096 H 1036.31 -1.98949 2.90021 0
M  V30 11097 H 1036.19 -3.32897 1.77368 0
M  V30 11098 H 1038.57 -2.79882 0.935404 0
M  V30 11099 H 1038.66 -1.46593 2.09629 0
M  V30 11100 H 1038.3 -3.13106 3.99909 0
M  V30 11101 H 1038.23 -4.45452 2.80856 0
M  V30 11102 H 1040.72 -2.96314 2.34535 0
M  V30 11103 H 1041.03 -5.65163 5.27077 0
M  V30 11104 H 1039.38 -5.08741 4.73506 0
M  V30 11105 H 1042.57 -3.61751 2.97075 0
M  V30 11106 H 1042.74 -4.84364 4.30459 0
M  V30 11107 N 1036.15 -0.873678 -1.31166 0
M  V30 11108 C 1037.08 -0.289389 -2.27366 0
M  V30 11109 C 1038.09 0.549667 -1.5324 0
M  V30 11110 O 1039.28 0.371056 -1.74601 0
M  V30 11111 C 1036.38 0.60807 -3.334 0
M  V30 11112 C 1035.56 -0.199379 -4.36945 0
M  V30 11113 C 1034.61 0.626798 -5.22454 0
M  V30 11114 O 1033.64 0.0535121 -5.69175 0
M  V30 11115 N 1034.84 1.93809 -5.47191 0
M  V30 11116 H 1037.61 -1.1161 -2.78143 0
M  V30 11117 H 1035.17 -0.735529 -1.44228 0
M  V30 11118 H 1037.16 1.16656 -3.87522 0
M  V30 11119 H 1035.73 1.33545 -2.82638 0
M  V30 11120 H 1034.95 -0.939316 -3.82845 0
M  V30 11121 H 1036.24 -0.75329 -5.03193 0
M  V30 11122 H 1035.64 2.42693 -5.10995 0
M  V30 11123 H 1034.19 2.44428 -6.04234 0
M  V30 11124 N 1037.63 1.44308 -0.633487 0
M  V30 11125 C 1039.04 1.56768 -0.29931 0
M  V30 11126 C 1039.24 1.62061 1.19743 0
M  V30 11127 O 1038.3 1.56492 1.98158 0
M  V30 11128 C 1039.61 2.8382 -0.993307 0
M  V30 11129 C 1041.16 2.97536 -0.971674 0
M  V30 11130 C 1041.63 4.27393 -1.64618 0
M  V30 11131 N 1043.13 4.34212 -1.61288 0
M  V30 11132 C 1043.86 5.33415 -2.1037 0
M  V30 11133 N 1043.36 6.3901 -2.67653 0
M  V30 11134 N 1045.15 5.24939 -2.00985 0
M  V30 11135 H 1037.3 1.39115 -1.60501 0
M  V30 11136 H 1039.56 0.666804 -0.673852 0
M  V30 11137 H 1039.27 2.85902 -2.04823 0
M  V30 11138 H 1039.14 3.73422 -0.532537 0
M  V30 11139 H 1041.53 2.95005 0.0747854 0
M  V30 11140 H 1041.61 2.09276 -1.47096 0
M  V30 11141 H 1041.26 4.30683 -2.6921 0
M  V30 11142 H 1041.19 5.14515 -1.12171 0
M  V30 11143 H 1043.68 3.58519 -1.19468 0
M  V30 11144 H 1043.99 7.10994 -3.02831 0
M  V30 11145 H 1042.33 6.39689 -2.71705 0
M  V30 11146 H 1045.53 4.41357 -1.55953 0
M  V30 11147 H 1045.7 6.02097 -2.39547 0
M  V30 11148 N 1039.1 0.374177 1.53094 0
M  V30 11149 C 1040.07 -0.455999 2.24618 0
M  V30 11150 C 1041.07 -1.00269 1.25709 0
M  V30 11151 O 1042.26 -0.887077 1.49922 0
M  V30 11152 C 1039.39 -1.63822 2.98957 0
M  V30 11153 H 1040.58 0.169986 2.99418 0
M  V30 11154 H 1038.14 0.126015 1.55791 0
M  V30 11155 H 1038.87 -2.30205 2.28421 0
M  V30 11156 H 1038.66 -1.25308 3.71538 0
M  V30 11157 H 1040.15 -2.22633 3.53305 0
M  V30 11158 N 1040.58 -1.57259 0.103575 0
M  V30 11159 C 1041.52 -2.10165 -0.889141 0
M  V30 11160 C 1042.49 -1.01426 -1.27089 0
M  V30 11161 O 1043.68 -1.2898 -1.37465 0
M  V30 11162 C 1040.8 -2.58564 -2.18774 0
M  V30 11163 C 1039.85 -3.79043 -1.95522 0
M  V30 11164 S 1040.68 -5.22213 -1.18551 0
M  V30 11165 C 1041.84 -5.73968 -2.49623 0
M  V30 11166 H 1042.07 -2.9404 -0.439083 0
M  V30 11167 H 1039.61 -1.54008 -0.10989 0
M  V30 11168 H 1041.56 -2.87106 -2.93395 0
M  V30 11169 H 1040.22 -1.749 -2.609 0
M  V30 11170 H 1039.42 -4.11004 -2.91705 0
M  V30 11171 H 1039.02 -3.51038 -1.29028 0
M  V30 11172 H 1041.31 -5.82752 -3.45553 0
M  V30 11173 H 1042.25 -6.72324 -2.22229 0
M  V30 11174 H 1042.66 -5.01946 -2.58284 0
M  V30 11175 N 1042.06 0.170153 -1.56679 0
M  V30 11176 C 1043.29 0.90618 -1.86556 0
M  V30 11177 C 1043.71 1.74986 -0.690044 0
M  V30 11178 O 1043.07 1.77672 0.360862 0
M  V30 11179 C 1043.12 1.75777 -3.14857 0
M  V30 11180 O 1042.22 2.85952 -2.97162 0
M  V30 11181 H 1041.56 0.253781 -0.613589 0
M  V30 11182 H 1044.09 0.167943 -2.0391 0
M  V30 11183 H 1044.1 2.15747 -3.46291 0
M  V30 11184 H 1042.78 1.13807 -4.00026 0
M  V30 11185 H 1041.35 2.49557 -2.77084 0
M  V30 11186 N 1043.54 1.5137 0.438746 0
M  V30 11187 C 1044.79 1.63202 1.18524 0
M  V30 11188 C 1045.1 0.353408 1.92381 0
M  V30 11189 O 1046.31 0.351086 2.6922 0
M  V30 11190 C 1044.76 2.88218 2.15542 0
M  V30 11191 C 1044.37 4.23078 1.47339 0
M  V30 11192 C 1046.11 3.09407 2.90633 0
M  V30 11193 C 1044.02 5.39246 2.42833 0
M  V30 11194 H 1042.95 0.607864 0.446114 0
M  V30 11195 H 1045.6 1.77835 0.452421 0
M  V30 11196 H 1043.98 2.67216 2.92253 0
M  V30 11197 H 1045.16 4.54457 0.761964 0
M  V30 11198 H 1043.47 4.07755 0.844065 0
M  V30 11199 H 1046.07 3.9337 3.62165 0
M  V30 11200 H 1046.41 2.22428 3.51897 0
M  V30 11201 H 1046.95 3.30743 2.21029 0
M  V30 11202 H 1043.69 6.2848 1.8626 0
M  V30 11203 H 1043.21 5.12245 3.12034 0
M  V30 11204 H 1044.88 5.71137 3.03992 0
M  V30 11205 N 1045.02 -0.694098 1.41492 0
M  V30 11206 C 1045.98 -1.78976 1.43179 0
M  V30 11207 C 1046.98 -1.57539 0.322191 0
M  V30 11208 O 1048.17 -1.64185 0.582138 0
M  V30 11209 C 1045.3 -3.17368 1.2446 0
M  V30 11210 H 1046.49 -1.78874 2.40716 0
M  V30 11211 H 1044.05 -0.901867 1.27656 0
M  V30 11212 H 1044.78 -3.23109 0.277691 0
M  V30 11213 H 1044.57 -3.3433 2.04856 0
M  V30 11214 H 1046.06 -3.97345 1.28479 0
M  V30 11215 N 1046.49 -1.27344 -0.928501 0
M  V30 11216 C 1047.72 -1.16557 -1.7155 0
M  V30 11217 C 1048.14 0.274044 -1.86093 0
M  V30 11218 O 1047.5 1.19847 -1.36038 0
M  V30 11219 C 1047.55 -1.85332 -3.09329 0
M  V30 11220 O 1046.65 -1.15074 -3.9602 0
M  V30 11221 H 1046 -0.405423 -0.525859 0
M  V30 11222 H 1048.53 -1.68399 -1.16202 0
M  V30 11223 H 1048.54 -1.92659 -3.59648 0
M  V30 11224 H 1047.21 -2.90056 -2.98061 0
M  V30 11225 H 1045.79 -1.1581 -3.54461 0
M  V30 11226 N 1047.97 1.13488 -1.09353 0
M  V30 11227 C 1049.22 1.841 -0.82401 0
M  V30 11228 C 1049.53 1.84393 0.652586 0
M  V30 11229 O 1050.74 2.5089 1.03762 0
M  V30 11230 C 1049.2 3.30523 -1.42418 0
M  V30 11231 C 1048.8 3.38621 -2.93326 0
M  V30 11232 C 1050.55 4.06182 -1.23356 0
M  V30 11233 C 1048.46 4.79311 -3.46432 0
M  V30 11234 H 1047.39 0.68974 -0.304589 0
M  V30 11235 H 1050.04 1.27866 -1.31615 0
M  V30 11236 H 1048.42 3.86555 -0.859727 0
M  V30 11237 H 1049.59 2.92587 -3.5599 0
M  V30 11238 H 1047.91 2.76426 -3.11412 0
M  V30 11239 H 1050.5 5.10047 -1.60488 0
M  V30 11240 H 1050.85 4.15936 -0.174152 0
M  V30 11241 H 1051.38 3.56477 -1.76547 0
M  V30 11242 H 1048.12 4.74748 -4.5199 0
M  V30 11243 H 1047.64 5.25842 -2.8853 0
M  V30 11244 H 1049.32 5.48227 -3.43593 0
M  V30 11245 N 1049.45 0.880621 1.30701 0
M  V30 11246 C 1050.38 0.360251 2.30704 0
M  V30 11247 C 1051.36 -0.554572 1.60806 0
M  V30 11248 O 1052.55 -0.469345 1.88443 0
M  V30 11249 C 1049.68 -0.429888 3.44629 0
M  V30 11250 C 1048.63 0.392786 4.26194 0
M  V30 11251 C 1047.96 -0.52369 5.32129 0
M  V30 11252 C 1049.26 1.63258 4.96129 0
M  V30 11253 H 1050.95 1.19591 2.74478 0
M  V30 11254 H 1048.5 0.576508 1.31956 0
M  V30 11255 H 1050.45 -0.804532 4.13649 0
M  V30 11256 H 1049.17 -1.29916 2.99649 0
M  V30 11257 H 1047.83 0.749514 3.58856 0
M  V30 11258 H 1047.48 -1.39054 4.83397 0
M  V30 11259 H 1047.18 0.0229272 5.87596 0
M  V30 11260 H 1048.71 -0.894946 6.04006 0
M  V30 11261 H 1050.12 1.32877 5.57689 0
M  V30 11262 H 1048.52 2.11906 5.61441 0
M  V30 11263 H 1049.59 2.37944 4.22505 0
M  V30 11264 N 1050.93 -1.4397 0.641131 0
M  V30 11265 C 1052.16 -2.06303 0.157006 0
M  V30 11266 C 1052.57 -1.47981 -1.17248 0
M  V30 11267 O 1051.93 -0.606471 -1.72128 0
M  V30 11268 C 1051.98 -3.6147 0.0468425 0
M  V30 11269 O 1051.7 -4.17622 1.32376 0
M  V30 11270 C 1053.2 -4.40857 -0.464795 0
M  V30 11271 H 1050.42 -0.665684 0.0842946 0
M  V30 11272 H 1052.97 -1.84675 0.878363 0
M  V30 11273 H 1051.12 -3.82325 -0.625006 0
M  V30 11274 H 1051.54 -5.11167 1.17509 0
M  V30 11275 H 1053.01 -5.49813 -0.490862 0
M  V30 11276 H 1053.49 -4.13016 -1.4938 0
M  V30 11277 H 1054.09 -4.24943 0.174146 0
M  V30 11278 N 1052.41 -0.382291 -1.52893 0
M  V30 11279 C 1053.36 0.471187 -2.27778 0
M  V30 11280 C 1054.35 1.0691 -1.31402 0
M  V30 11281 O 1055.56 1.01038 -1.48967 0
M  V30 11282 H 1051.93 0.170696 -0.732371 0
M  V30 11283 H 1053.9 -0.181954 -2.97845 0
M  V30 11284 C 1052.65 1.59012 -3.09209 0
M  V30 11285 H 1051.97 1.13935 -3.83222 0
M  V30 11286 H 1053.41 2.16167 -3.64757 0
M  V30 11287 C 1051.87 2.54212 -2.21084 0
M  V30 11288 O 1052.4 3.57447 -1.83288 0
M  V30 11289 N 1050.61 2.23789 -1.85383 0
M  V30 11290 H 1050.16 1.39872 -2.16318 0
M  V30 11291 H 1050.11 2.87737 -1.26708 0
M  V30 11292 N 1053.89 1.57202 -0.111913 0
M  V30 11293 C 1055.11 1.99297 0.555713 0
M  V30 11294 C 1055.53 0.991444 1.60673 0
M  V30 11295 O 1054.89 -0.0166672 1.82492 0
M  V30 11296 C 1054.94 3.41413 1.18826 0
M  V30 11297 O 1054.66 4.37733 0.179261 0
M  V30 11298 C 1056.16 3.98602 1.93989 0
M  V30 11299 H 1053.38 0.654543 0.147695 0
M  V30 11300 H 1055.92 2.03557 -0.196163 0
M  V30 11301 H 1054.08 3.38115 1.89096 0
M  V30 11302 H 1054.49 5.20606 0.637935 0
M  V30 11303 H 1055.97 5.00143 2.33584 0
M  V30 11304 H 1056.44 3.37349 2.81233 0
M  V30 11305 H 1057.05 4.05424 1.28497 0
M  V30 11306 N 1055.36 -0.161842 1.56767 0
M  V30 11307 C 1056.3 -1.22927 1.9226 0
M  V30 11308 C 1057.27 -1.42309 0.786562 0
M  V30 11309 O 1058.46 -1.57163 1.04078 0
M  V30 11310 C 1055.59 -2.59069 2.18177 0
M  V30 11311 C 1054.63 -2.56368 3.40849 0
M  V30 11312 S 1055.46 -2.04518 4.94907 0
M  V30 11313 C 1056.62 -3.42418 5.23928 0
M  V30 11314 H 1056.85 -0.926377 2.82499 0
M  V30 11315 H 1054.39 -0.366822 1.49979 0
M  V30 11316 H 1056.34 -3.37421 2.33789 0
M  V30 11317 H 1055.01 -2.86554 1.28629 0
M  V30 11318 H 1054.2 -3.56551 3.56213 0
M  V30 11319 H 1053.8 -1.86116 3.24402 0
M  V30 11320 H 1056.09 -4.38461 5.16486 0
M  V30 11321 H 1057.04 -3.3192 6.25487 0
M  V30 11322 H 1057.44 -3.38868 4.51474 0
M  V30 11323 N 1056.84 -1.516 -0.430713 0
M  V30 11324 C 1057.75 -1.76247 -1.54836 0
M  V30 11325 C 1058.77 -0.646985 -1.61524 0
M  V30 11326 O 1059.94 -0.929987 -1.78643 0
M  V30 11327 C 1057.01 -1.88833 -2.90763 0
M  V30 11328 C 1056.07 -3.12701 -2.94137 0
M  V30 11329 C 1055.3 -3.24676 -4.23581 0
M  V30 11330 O 1055.53 -2.42429 -5.16318 0
M  V30 11331 O 1054.46 -4.17697 -4.33374 0
M  V30 11332 H 1058.29 -2.71069 -1.3695 0
M  V30 11333 H 1055.87 -1.36182 -0.614396 0
M  V30 11334 H 1057.75 -1.99057 -3.71422 0
M  V30 11335 H 1056.43 -0.971987 -3.08762 0
M  V30 11336 H 1055.33 -3.0795 -2.1241 0
M  V30 11337 H 1056.67 -4.04045 -2.81084 0
M  V30 11338 N 1058.32 0.686584 -1.41858 0
M  V30 11339 C 1059.23 1.83002 -1.46791 0
M  V30 11340 C 1060.25 1.70284 -0.357675 0
M  V30 11341 O 1061.42 1.92042 -0.606781 0
M  V30 11342 C 1058.49 3.19056 -1.35661 0
M  V30 11343 C 1057.55 3.43817 -2.57077 0
M  V30 11344 C 1056.78 4.7338 -2.46469 0
M  V30 11345 O 1057 5.50483 -1.49413 0
M  V30 11346 O 1055.94 4.99124 -3.36391 0
M  V30 11347 H 1059.76 1.81797 -2.43277 0
M  V30 11348 H 1057.35 0.840812 -1.23494 0
M  V30 11349 H 1059.23 4.00267 -1.31773 0
M  V30 11350 H 1057.91 3.20925 -0.422951 0
M  V30 11351 H 1056.81 2.625 -2.66541 0
M  V30 11352 H 1058.15 3.4677 -3.49302 0
M  V30 11353 N 1059.8 1.27835 0.921735 0
M  V30 11354 C 1060.73 1.136 2.04003 0
M  V30 11355 C 1061.71 0.0358756 1.70062 0
M  V30 11356 O 1062.89 0.211438 1.93046 0
M  V30 11357 C 1060.02 0.788697 3.38226 0
M  V30 11358 C 1058.98 1.84272 3.863 0
M  V30 11359 C 1058.3 1.34923 5.17397 0
M  V30 11360 C 1059.6 3.24788 4.09035 0
M  V30 11361 H 1061.3 2.07149 2.1617 0
M  V30 11362 H 1058.84 0.997349 1.0387 0
M  V30 11363 H 1060.8 0.675911 4.15944 0
M  V30 11364 H 1059.52 -0.182499 3.2609 0
M  V30 11365 H 1058.18 1.94451 3.1078 0
M  V30 11366 H 1057.83 0.367328 5.01657 0
M  V30 11367 H 1057.53 2.05397 5.50532 0
M  V30 11368 H 1059.05 1.24951 5.97678 0
M  V30 11369 H 1060.47 3.17575 4.77304 0
M  V30 11370 H 1058.86 3.93025 4.53488 0
M  V30 11371 H 1059.93 3.69398 3.14122 0
M  V30 11372 N 1061.28 -1.12907 1.09954 0
M  V30 11373 C 1062.19 -2.22082 0.756095 0
M  V30 11374 C 1063.2 -1.72277 -0.244272 0
M  V30 11375 O 1064.38 -2.01224 -0.0842637 0
M  V30 11376 C 1061.44 -3.46192 0.187642 0
M  V30 11377 C 1060.5 -4.10861 1.24465 0
M  V30 11378 C 1059.74 -5.29047 0.703227 0
M  V30 11379 O 1059.96 -5.68443 -0.472043 0
M  V30 11380 O 1058.89 -5.83904 1.46082 0
M  V30 11381 H 1062.72 -2.53842 1.66727 0
M  V30 11382 H 1060.3 -1.21145 0.874316 0
M  V30 11383 H 1062.19 -4.21212 -0.125774 0
M  V30 11384 H 1060.86 -3.16119 -0.696459 0
M  V30 11385 H 1059.77 -3.37643 1.61085 0
M  V30 11386 H 1061.1 -4.45078 2.10159 0
M  V30 11387 N 1062.75 -0.88754 -1.30232 0
M  V30 11388 C 1063.66 -0.360333 -2.31816 0
M  V30 11389 C 1064.68 0.538741 -1.6545 0
M  V30 11390 O 1065.86 0.431246 -1.96729 0
M  V30 11391 C 1062.92 0.414336 -3.44215 0
M  V30 11392 C 1061.98 -0.514799 -4.26202 0
M  V30 11393 C 1061.21 0.222994 -5.33234 0
M  V30 11394 O 1061.44 1.44871 -5.51696 0
M  V30 11395 O 1060.37 -0.428221 -6.00375 0
M  V30 11396 H 1064.2 -1.20279 -2.78867 0
M  V30 11397 H 1061.78 -0.651459 -1.34448 0
M  V30 11398 H 1063.66 0.852859 -4.12679 0
M  V30 11399 H 1062.34 1.23305 -2.99295 0
M  V30 11400 H 1061.25 -1.00219 -3.60426 0
M  V30 11401 H 1062.58 -1.29959 -4.74733 0
M  V30 11402 N 1064.23 1.43628 -0.648757 0
M  V30 11403 C 1065.46 2.06732 -0.166284 0
M  V30 11404 C 1065.88 1.48281 1.15734 0
M  V30 11405 O 1065.24 0.591018 1.71396 0
M  V30 11406 C 1065.29 3.60502 -0.0838732 0
M  V30 11407 O 1064.39 4.01186 0.955185 0
M  V30 11408 H 1063.73 0.657479 -0.0928285 0
M  V30 11409 H 1066.26 1.84208 -0.890421 0
M  V30 11410 H 1066.27 4.07875 0.100923 0
M  V30 11411 H 1064.95 4.02424 -1.05014 0
M  V30 11412 H 1063.53 3.65412 0.743537 0
M  V30 11413 N 1065.71 0.390394 1.52688 0
M  V30 11414 C 1067.13 0.0404028 1.59549 0
M  V30 11415 C 1067.33 -1.44503 1.40432 0
M  V30 11416 O 1066.38 -2.20968 1.22187 0
M  V30 11417 C 1067.7 0.518561 2.96195 0
M  V30 11418 C 1069.24 0.474913 3.09376 0
M  V30 11419 C 1069.72 0.929278 4.48473 0
M  V30 11420 N 1071.21 0.885335 4.5466 0
M  V30 11421 C 1071.94 1.2083 5.60524 0
M  V30 11422 N 1071.44 1.6018 6.74028 0
M  V30 11423 N 1073.23 1.12949 5.50635 0
M  V30 11424 H 1065.38 1.35743 1.63363 0
M  V30 11425 H 1067.65 0.556453 0.767505 0
M  V30 11426 H 1067.35 1.55606 3.15404 0
M  V30 11427 H 1067.23 -0.081779 3.77111 0
M  V30 11428 H 1069.61 -0.553503 2.89863 0
M  V30 11429 H 1069.7 1.11107 2.3041 0
M  V30 11430 H 1069.34 1.95593 4.68728 0
M  V30 11431 H 1069.27 0.270121 5.25907 0
M  V30 11432 H 1071.76 0.595787 3.73174 0
M  V30 11433 H 1072.07 1.83184 7.50775 0
M  V30 11434 H 1070.42 1.64067 6.75357 0
M  V30 11435 H 1073.61 0.821074 4.60843 0
M  V30 11436 H 1073.78 1.3845 6.33037 0
M  V30 11437 N 1067.19 -1.57141 0.120249 0
M  V30 11438 C 1068.12 -2.12454 -0.859987 0
M  V30 11439 C 1069.13 -1.06755 -1.22911 0
M  V30 11440 O 1070.32 -1.34124 -1.17784 0
M  V30 11441 C 1067.42 -2.61024 -2.16147 0
M  V30 11442 C 1066.6 -3.90835 -1.96385 0
M  V30 11443 C 1065.65 -4.2499 -3.10274 0
M  V30 11444 O 1064.68 -4.93786 -2.83133 0
M  V30 11445 N 1065.88 -3.82411 -4.36741 0
M  V30 11446 H 1068.65 -2.97186 -0.387402 0
M  V30 11447 H 1066.21 -1.61773 -0.0641376 0
M  V30 11448 H 1068.2 -2.80903 -2.91334 0
M  V30 11449 H 1066.77 -1.81166 -2.5475 0
M  V30 11450 H 1065.99 -3.79853 -1.05383 0
M  V30 11451 H 1067.28 -4.75712 -1.80487 0
M  V30 11452 H 1066.68 -3.26926 -4.61666 0
M  V30 11453 H 1065.23 -4.07395 -5.08795 0
M  V30 11454 N 1068.67 0.153526 -1.5685 0
M  V30 11455 C 1069.61 1.18973 -1.97773 0
M  V30 11456 C 1070.58 1.43041 -0.844311 0
M  V30 11457 O 1071.77 1.55484 -1.10586 0
M  V30 11458 C 1068.91 2.51981 -2.35795 0
M  V30 11459 C 1068.02 2.35143 -3.62397 0
M  V30 11460 C 1067.16 3.61141 -3.89552 0
M  V30 11461 C 1066.2 3.39311 -5.09445 0
M  V30 11462 N 1065.33 4.57423 -5.32643 0
M  V30 11463 H 1070.17 0.833758 -2.86099 0
M  V30 11464 H 1067.71 0.400252 -1.4155 0
M  V30 11465 H 1069.67 3.29527 -2.55867 0
M  V30 11466 H 1068.3 2.85539 -1.50557 0
M  V30 11467 H 1067.35 1.48684 -3.50139 0
M  V30 11468 H 1068.66 2.14969 -4.501 0
M  V30 11469 H 1067.82 4.47117 -4.10087 0
M  V30 11470 H 1066.55 3.84312 -3.00259 0
M  V30 11471 H 1065.56 2.51723 -4.8879 0
M  V30 11472 H 1066.78 3.17545 -6.00285 0
M  V30 11473 H 1064.73 4.8078 -4.46303 0
M  V30 11474 H 1064.65 4.40228 -6.14602 0
M  V30 11475 H 1065.92 5.44632 -5.57671 0
M  V30 11476 N 1070.14 1.51827 0.422667 0
M  V30 11477 C 1071.38 1.66888 1.18016 0
M  V30 11478 C 1071.75 0.383859 1.88124 0
M  V30 11479 O 1072.95 0.410413 2.65648 0
M  V30 11480 C 1071.22 2.84842 2.1587 0
M  V30 11481 S 1072.78 3.20312 2.99909 0
M  V30 11482 H 1069.6 0.58781 0.4 0
M  V30 11483 H 1072.2 1.89779 0.46948 0
M  V30 11484 H 1070.9 3.76629 1.63029 0
M  V30 11485 H 1070.43 2.64183 2.91497 0
M  V30 11486 H 1072.45 2.67884 4.17675 0
M  V30 11487 N 1071.62 -0.679052 1.4222 0
M  V30 11488 C 1073.03 -1.25953 1.37815 0
M  V30 11489 C 1073.38 -1.96077 0.0693215 0
M  V30 11490 O 1072.51 -1.99765 -0.832047 0
M  V30 11491 C 1073.1 -2.29063 2.49631 0
M  V30 11492 C 1071.66 -2.82647 2.48571 0
M  V30 11493 C 1070.81 -1.56909 2.28637 0
M  V30 11494 H 1073.76 -0.472714 1.51496 0
M  V30 11495 H 1073.78 -3.10708 2.19638 0
M  V30 11496 H 1073.29 -1.77996 3.44876 0
M  V30 11497 H 1071.4 -3.37846 1.57132 0
M  V30 11498 H 1071.51 -3.31952 3.45463 0
M  V30 11499 H 1069.87 -1.83323 1.76819 0
M  V30 11500 H 1070.66 -1.07814 3.25931 0
M  V30 11501 N 1073.1 -1.28322 -0.914942 0
M  V30 11502 C 1074.51 -1.13937 -1.47903 0
M  V30 11503 C 1074.86 0.271072 -1.94318 0
M  V30 11504 O 1073.99 1.16522 -1.8235 0
M  V30 11505 C 1074.58 -2.06221 -2.68809 0
M  V30 11506 C 1073.14 -1.95903 -3.21402 0
M  V30 11507 C 1072.29 -1.98031 -1.94111 0
M  V30 11508 H 1075.24 -1.41029 -0.727772 0
M  V30 11509 H 1075.26 -1.6255 -3.44031 0
M  V30 11510 H 1074.77 -3.08866 -2.34997 0
M  V30 11511 H 1072.87 -0.962907 -3.59943 0
M  V30 11512 H 1072.99 -2.82799 -3.86732 0
M  V30 11513 H 1071.35 -1.42423 -2.11158 0
M  V30 11514 H 1072.13 -3.02354 -1.62595 0
M  V30 11515 N 1074.58 1.12322 -1.10551 0
M  V30 11516 C 1075.82 1.85497 -0.858492 0
M  V30 11517 C 1076.18 1.8222 0.604966 0
M  V30 11518 O 1077.38 2.5075 0.968382 0
M  V30 11519 C 1075.65 3.29124 -1.39327 0
M  V30 11520 S 1077.21 4.19659 -1.28186 0
M  V30 11521 H 1074.03 0.639768 -0.31019 0
M  V30 11522 H 1076.63 1.35298 -1.41119 0
M  V30 11523 H 1075.34 3.29069 -2.45238 0
M  V30 11524 H 1074.87 3.84388 -0.837203 0
M  V30 11525 H 1076.88 4.95618 -0.240325 0
M  V30 11526 N 1076.06 0.894434 1.2976 0
M  V30 11527 C 1077.3 0.527831 1.96432 0
M  V30 11528 C 1077.66 -0.914793 1.69261 0
M  V30 11529 O 1076.95 -1.63911 0.99215 0
M  V30 11530 C 1077.14 0.750307 3.49435 0
M  V30 11531 C 1076.97 2.213 3.91479 0
M  V30 11532 C 1075.74 2.85943 4.16611 0
M  V30 11533 C 1077.94 3.18771 4.03595 0
M  V30 11534 N 1075.92 4.2271 4.45185 0
M  V30 11535 C 1077.29 4.40641 4.3616 0
M  V30 11536 C 1079.35 3.14432 3.86053 0
M  V30 11537 C 1078.05 5.58725 4.53011 0
M  V30 11538 C 1080.08 4.31797 4.0411 0
M  V30 11539 C 1079.44 5.52435 4.37029 0
M  V30 11540 H 1075.54 0.242654 0.7434 0
M  V30 11541 H 1078.12 1.15415 1.56804 0
M  V30 11542 H 1076.29 0.153411 3.88097 0
M  V30 11543 H 1078.03 0.349663 4.03187 0
M  V30 11544 H 1074.78 2.36763 4.10171 0
M  V30 11545 H 1075.21 4.9337 4.63589 0
M  V30 11546 H 1079.85 2.22255 3.5967 0
M  V30 11547 H 1077.57 6.51398 4.78232 0
M  V30 11548 H 1081.15 4.2992 3.91995 0
M  V30 11549 H 1080.03 6.41738 4.50712 0
M  V30 11550 N 1077.53 -1.43282 0.656365 0
M  V30 11551 C 1078.76 -2.05826 0.178619 0
M  V30 11552 C 1079.17 -1.493 -1.16216 0
M  V30 11553 O 1078.52 -0.620163 -1.72915 0
M  V30 11554 C 1078.58 -3.59496 0.0164101 0
M  V30 11555 C 1078.24 -4.38621 1.28298 0
M  V30 11556 C 1079.24 -4.70477 2.21241 0
M  V30 11557 C 1076.92 -4.78577 1.52544 0
M  V30 11558 C 1078.92 -5.412 3.36721 0
M  V30 11559 C 1076.6 -5.49044 2.68316 0
M  V30 11560 C 1077.6 -5.80279 3.6023 0
M  V30 11561 O 1077.29 -6.49306 4.7398 0
M  V30 11562 H 1077.02 -0.670158 0.0886814 0
M  V30 11563 H 1079.58 -1.84722 0.89816 0
M  V30 11564 H 1077.81 -3.79188 -0.758532 0
M  V30 11565 H 1079.5 -4.03731 -0.419096 0
M  V30 11566 H 1080.26 -4.40125 2.03753 0
M  V30 11567 H 1076.14 -4.5367 0.818816 0
M  V30 11568 H 1079.68 -5.65497 4.08483 0
M  V30 11569 H 1075.58 -5.78813 2.85738 0
M  V30 11570 H 1076.35 -6.67789 4.73286 0
M  V30 11571 N 1079.01 -0.398486 -1.52479 0
M  V30 11572 C 1079.96 0.432212 -2.26717 0
M  V30 11573 C 1080.93 1.05007 -1.28696 0
M  V30 11574 O 1082.12 1.07636 -1.57541 0
M  V30 11575 C 1079.26 1.54868 -3.08399 0
M  V30 11576 C 1078.37 0.952779 -4.21362 0
M  V30 11577 C 1077.5 2.04106 -4.90423 0
M  V30 11578 C 1076.54 1.42153 -5.95364 0
M  V30 11579 N 1075.68 2.44951 -6.57984 0
M  V30 11580 H 1080.52 -0.207303 -2.97278 0
M  V30 11581 H 1078.06 -0.114066 -1.46657 0
M  V30 11582 H 1080.01 2.20684 -3.54054 0
M  V30 11583 H 1078.64 2.15837 -2.4003 0
M  V30 11584 H 1077.7 0.183962 -3.79955 0
M  V30 11585 H 1079.01 0.460131 -4.96673 0
M  V30 11586 H 1078.16 2.77672 -5.39429 0
M  V30 11587 H 1076.9 2.56733 -4.14656 0
M  V30 11588 H 1075.91 0.671161 -5.45688 0
M  V30 11589 H 1077.13 0.903093 -6.73068 0
M  V30 11590 H 1075.08 2.9673 -5.85053 0
M  V30 11591 H 1074.99 2.00468 -7.28937 0
M  V30 11592 H 1076.26 3.18119 -7.11632 0
M  V30 11593 N 1080.49 1.57075 -0.12858 0
M  V30 11594 C 1081.74 1.9552 0.527087 0
M  V30 11595 C 1082.07 1.01243 1.66072 0
M  V30 11596 O 1081.32 0.0381076 1.95663 0
M  V30 11597 C 1081.62 3.40329 1.09138 0
M  V30 11598 C 1081.29 4.50832 0.0781039 0
M  V30 11599 C 1079.95 4.80782 -0.200493 0
M  V30 11600 C 1082.3 5.17595 -0.61192 0
M  V30 11601 C 1079.63 5.74809 -1.17524 0
M  V30 11602 C 1081.98 6.12671 -1.57536 0
M  V30 11603 C 1080.64 6.41008 -1.86184 0
M  V30 11604 H 1079.91 0.715458 0.192875 0
M  V30 11605 H 1082.56 1.90328 -0.211515 0
M  V30 11606 H 1080.87 3.42262 1.90694 0
M  V30 11607 H 1082.56 3.67393 1.60696 0
M  V30 11608 H 1079.15 4.2751 0.30543 0
M  V30 11609 H 1083.34 4.94605 -0.40986 0
M  V30 11610 H 1078.59 5.95065 -1.40384 0
M  V30 11611 H 1082.77 6.63486 -2.11565 0
M  V30 11612 H 1080.39 7.13673 -2.61868 0
M  V30 11613 N 1081.97 -0.145205 1.5693 0
M  V30 11614 C 1082.93 -1.16316 1.97492 0
M  V30 11615 C 1083.93 -1.35764 0.861668 0
M  V30 11616 O 1085.12 -1.32726 1.12825 0
M  V30 11617 C 1082.25 -2.52311 2.29242 0
M  V30 11618 H 1083.45 -0.815138 2.8861 0
M  V30 11619 H 1081 -0.38861 1.51392 0
M  V30 11620 H 1081.74 -2.92081 1.40922 0
M  V30 11621 H 1081.52 -2.39555 3.10412 0
M  V30 11622 H 1083.01 -3.25624 2.61456 0
M  V30 11623 N 1083.45 -1.52049 -0.414609 0
M  V30 11624 C 1084.4 -1.75603 -1.52533 0
M  V30 11625 C 1085.39 -0.622965 -1.57529 0
M  V30 11626 O 1086.6 -0.804886 -1.61002 0
M  V30 11627 H 1082.97 -0.555222 -0.507181 0
M  V30 11628 H 1084.94 -2.68666 -1.2985 0
M  V30 11629 C 1083.69 -1.9188 -2.89961 0
M  V30 11630 H 1083.01 -2.78483 -2.86857 0
M  V30 11631 H 1084.45 -2.12363 -3.66985 0
M  V30 11632 C 1082.91 -0.684453 -3.29874 0
M  V30 11633 O 1083.44 0.150256 -4.01419 0
M  V30 11634 N 1081.65 -0.521936 -2.85874 0
M  V30 11635 H 1081.2 -1.20229 -2.27822 0
M  V30 11636 H 1081.15 0.302655 -3.1294 0
M  V30 11637 N 1084.93 0.6715 -1.42579 0
M  V30 11638 C 1085.86 1.79625 -1.40749 0
M  V30 11639 C 1086.84 1.6032 -0.271312 0
M  V30 11640 O 1088.02 1.82749 -0.46205 0
M  V30 11641 C 1085.15 3.16672 -1.20153 0
M  V30 11642 C 1084.19 3.54718 -2.36807 0
M  V30 11643 S 1085.03 3.56771 -3.99343 0
M  V30 11644 C 1086.18 4.96505 -3.81095 0
M  V30 11645 H 1086.42 1.80903 -2.35926 0
M  V30 11646 H 1083.95 0.842469 -1.2939 0
M  V30 11647 H 1085.91 3.95776 -1.08956 0
M  V30 11648 H 1084.57 3.12976 -0.265545 0
M  V30 11649 H 1083.76 4.54341 -2.18152 0
M  V30 11650 H 1083.36 2.82982 -2.44535 0
M  V30 11651 H 1085.65 5.84674 -3.4229 0
M  V30 11652 H 1086.6 5.20207 -4.80406 0
M  V30 11653 H 1087.01 4.69178 -3.13898 0
M  V30 11654 N 1086.4 1.28806 0.908124 0
M  V30 11655 C 1087.64 1.17546 1.67219 0
M  V30 11656 C 1088.01 -0.270396 1.90086 0
M  V30 11657 O 1089.21 -0.505808 2.63998 0
M  V30 11658 C 1087.48 1.95774 2.99011 0
M  V30 11659 S 1089.04 2.00953 3.90081 0
M  V30 11660 H 1085.86 0.419283 0.574215 0
M  V30 11661 H 1088.46 1.6298 1.07971 0
M  V30 11662 H 1087.16 2.99978 2.80074 0
M  V30 11663 H 1086.69 1.50911 3.63303 0
M  V30 11664 H 1088.71 1.1201 4.83392 0
M  V30 11665 N 1087.88 -1.11734 1.11145 0
M  V30 11666 C 1088.81 -2.1976 0.789152 0
M  V30 11667 C 1089.79 -1.68382 -0.241143 0
M  V30 11668 O 1090.98 -1.93914 -0.105292 0
M  V30 11669 C 1088.11 -3.46549 0.228204 0
M  V30 11670 C 1087.06 -4.11123 1.19002 0
M  V30 11671 C 1086.39 -5.32451 0.489928 0
M  V30 11672 C 1087.69 -4.56406 2.53951 0
M  V30 11673 H 1089.38 -2.46978 1.69241 0
M  V30 11674 H 1086.93 -1.18705 0.81517 0
M  V30 11675 H 1088.88 -4.21399 -0.00945908 0
M  V30 11676 H 1087.6 -3.18782 -0.71033 0
M  V30 11677 H 1086.26 -3.38264 1.41326 0
M  V30 11678 H 1085.91 -5.00953 -0.453315 0
M  V30 11679 H 1085.61 -5.76605 1.1314 0
M  V30 11680 H 1087.14 -6.10042 0.260984 0
M  V30 11681 H 1088.55 -5.22592 2.35733 0
M  V30 11682 H 1086.95 -5.11363 3.14051 0
M  V30 11683 H 1088.02 -3.7001 3.13402 0
M  V30 11684 N 1089.36 -0.901303 -1.29284 0
M  V30 11685 C 1090.61 -0.52401 -1.94774 0
M  V30 11686 C 1090.92 0.934645 -1.71825 0
M  V30 11687 O 1092.13 1.41953 -2.31434 0
M  V30 11688 C 1090.58 -0.886262 -3.48817 0
M  V30 11689 C 1090.19 -2.3638 -3.80564 0
M  V30 11690 C 1091.94 -0.578955 -4.20533 0
M  V30 11691 C 1089.84 -2.66682 -5.27858 0
M  V30 11692 H 1088.77 -0.192244 -0.72908 0
M  V30 11693 H 1091.42 -1.09852 -1.46986 0
M  V30 11694 H 1089.81 -0.240666 -3.95268 0
M  V30 11695 H 1090.98 -3.05508 -3.44966 0
M  V30 11696 H 1089.29 -2.64029 -3.2199 0
M  V30 11697 H 1091.89 -0.782185 -5.28948 0
M  V30 11698 H 1092.23 0.482605 -4.13493 0
M  V30 11699 H 1092.77 -1.18246 -3.79819 0
M  V30 11700 H 1089.51 -3.71643 -5.39965 0
M  V30 11701 H 1089.03 -2.02179 -5.64698 0
M  V30 11702 H 1090.71 -2.53033 -5.95469 0
M  V30 11703 N 1090.84 1.42931 -0.663954 0
M  V30 11704 C 1092.08 2.02505 -0.190647 0
M  V30 11705 C 1092.44 1.51506 1.18591 0
M  V30 11706 O 1091.73 0.702962 1.78239 0
M  V30 11707 C 1091.93 3.57072 -0.153163 0
M  V30 11708 C 1091.75 4.23069 -1.52454 0
M  V30 11709 C 1090.52 4.58694 -2.11961 0
M  V30 11710 C 1092.72 4.51373 -2.46509 0
M  V30 11711 N 1090.7 5.09818 -3.41993 0
M  V30 11712 C 1092.08 5.03931 -3.61184 0
M  V30 11713 C 1094.13 4.33351 -2.45176 0
M  V30 11714 C 1092.83 5.40362 -4.74765 0
M  V30 11715 C 1094.86 4.70851 -3.57845 0
M  V30 11716 C 1094.22 5.23551 -4.71246 0
M  V30 11717 H 1090.32 0.773581 -0.114438 0
M  V30 11718 H 1092.9 1.73951 -0.874589 0
M  V30 11719 H 1091.08 3.85166 0.500156 0
M  V30 11720 H 1092.81 4.03336 0.332015 0
M  V30 11721 H 1089.56 4.44091 -1.6456 0
M  V30 11722 H 1089.99 5.39821 -4.08561 0
M  V30 11723 H 1094.63 3.91871 -1.58735 0
M  V30 11724 H 1092.35 5.8078 -5.6189 0
M  V30 11725 H 1095.93 4.58593 -3.58028 0
M  V30 11726 H 1094.81 5.52029 -5.56986 0
M  V30 11727 N 1092.32 0.406567 1.52266 0
M  V30 11728 C 1093.59 -0.228477 1.94261 0
M  V30 11729 C 1093.97 -1.62848 1.34328 0
M  V30 11730 O 1093.32 -2.22549 0.518082 0
M  V30 11731 C 1093.53 -0.237401 3.48192 0
M  V30 11732 C 1094.88 -0.457997 4.22123 0
M  V30 11733 O 1095.9 -0.316868 3.54788 0
M  V30 11734 O 1094.76 -0.735946 5.41522 0
M  V30 11735 H 1091.86 -0.146492 0.813922 0
M  V30 11736 H 1094.4 0.462325 1.63281 0
M  V30 11737 H 1093.17 0.742556 3.8419 0
M  V30 11738 H 1092.8 -0.972408 3.85526 0
M  V30 11739 N 1093.79 -1.57004 0.136909 0
M  V30 11740 C 1095.03 -1.97686 -0.519583 0
M  V30 11741 C 1095.4 -1.01951 -1.62696 0
M  V30 11742 O 1096.6 -1.31639 -2.3436 0
M  V30 11743 C 1094.87 -3.42474 -1.02206 0
M  V30 11744 S 1096.43 -4.05176 -1.68457 0
M  V30 11745 H 1093.25 -0.690787 -0.168329 0
M  V30 11746 H 1095.85 -1.94187 0.226234 0
M  V30 11747 H 1094.55 -4.09887 -0.205194 0
M  V30 11748 H 1094.08 -3.49664 -1.80273 0
M  V30 11749 H 1096.1 -3.97401 -2.97131 0
M  V30 11750 N 1095.27 0.136881 -1.57004 0
M  V30 11751 C 1096.51 0.853873 -1.8571 0
M  V30 11752 C 1096.88 1.77885 -0.722556 0
M  V30 11753 O 1098.08 2.53606 -0.89092 0
M  V30 11754 C 1096.35 1.59935 -3.19618 0
M  V30 11755 S 1097.91 2.36038 -3.69908 0
M  V30 11756 H 1094.73 0.285342 -0.65123 0
M  V30 11757 H 1097.33 0.113254 -1.95172 0
M  V30 11758 H 1096.03 0.91148 -4.0015 0
M  V30 11759 H 1095.56 2.38069 -3.13188 0
M  V30 11760 H 1097.58 3.61425 -3.3998 0
M  V30 11761 N 1096.75 1.52266 0.40654 0
M  V30 11762 C 1097.7 1.75794 1.4955 0
M  V30 11763 C 1098.67 0.600472 1.54866 0
M  V30 11764 O 1099.85 0.838305 1.71397 0
M  V30 11765 C 1096.99 1.91682 2.86971 0
M  V30 11766 C 1096.11 3.19337 2.90943 0
M  V30 11767 C 1095.24 3.25641 4.1968 0
M  V30 11768 C 1094.28 4.47488 4.17637 0
M  V30 11769 N 1093.42 4.51171 5.37949 0
M  V30 11770 H 1098.26 2.68733 1.28789 0
M  V30 11771 H 1095.79 1.33157 0.625102 0
M  V30 11772 H 1097.75 1.98877 3.66748 0
M  V30 11773 H 1096.38 1.02121 3.06221 0
M  V30 11774 H 1095.43 3.21301 2.03642 0
M  V30 11775 H 1096.75 4.09153 2.85299 0
M  V30 11776 H 1095.9 3.31922 5.07851 0
M  V30 11777 H 1094.64 2.33769 4.28023 0
M  V30 11778 H 1093.64 4.41351 3.27856 0
M  V30 11779 H 1094.87 5.40659 4.10932 0
M  V30 11780 H 1092.81 3.62182 5.46955 0
M  V30 11781 H 1092.73 5.34835 5.3431 0
M  V30 11782 H 1094 4.61685 6.28066 0
M  V30 11783 N 1098.23 -0.663929 1.42933 0
M  V30 11784 C 1099.64 -1.24484 1.39143 0
M  V30 11785 C 1099.99 -1.95993 0.0901142 0
M  V30 11786 O 1099.12 -2.00636 -0.810812 0
M  V30 11787 C 1099.71 -2.26402 2.52047 0
M  V30 11788 C 1098.27 -2.79995 2.51555 0
M  V30 11789 C 1097.42 -1.54475 2.30289 0
M  V30 11790 H 1100.37 -0.456619 1.51989 0
M  V30 11791 H 1100.39 -3.08361 2.22921 0
M  V30 11792 H 1099.9 -1.74328 3.46744 0
M  V30 11793 H 1098 -3.36161 1.60707 0
M  V30 11794 H 1098.11 -3.2827 3.48964 0
M  V30 11795 H 1096.48 -1.81437 1.78753 0
M  V30 11796 H 1097.26 -1.04351 3.27056 0
M  V30 11797 N 1099.71 -1.29285 -0.901281 0
M  V30 11798 C 1100.95 -1.18348 -1.65424 0
M  V30 11799 C 1101.31 0.26276 -1.90597 0
M  V30 11800 O 1100.6 1.1868 -1.50418 0
M  V30 11801 C 1100.79 -1.92865 -3.00895 0
M  V30 11802 C 1100.62 -3.44588 -2.88945 0
M  V30 11803 C 1099.39 -4.13938 -2.89799 0
M  V30 11804 C 1101.59 -4.40113 -2.66092 0
M  V30 11805 N 1099.57 -5.52036 -2.68569 0
M  V30 11806 C 1100.94 -5.65661 -2.53827 0
M  V30 11807 C 1103 -4.29895 -2.51187 0
M  V30 11808 C 1101.7 -6.8215 -2.28175 0
M  V30 11809 C 1103.73 -5.46134 -2.26917 0
M  V30 11810 C 1103.09 -6.70653 -2.15416 0
M  V30 11811 H 1099.19 -0.48806 -0.611 0
M  V30 11812 H 1101.77 -1.63094 -1.06341 0
M  V30 11813 H 1099.94 -1.50535 -3.58042 0
M  V30 11814 H 1101.68 -1.74207 -3.65286 0
M  V30 11815 H 1098.43 -3.65625 -3.01023 0
M  V30 11816 H 1098.86 -6.24662 -2.61011 0
M  V30 11817 H 1103.5 -3.34321 -2.58823 0
M  V30 11818 H 1101.22 -7.77781 -2.19277 0
M  V30 11819 H 1104.8 -5.40126 -2.1623 0
M  V30 11820 H 1103.68 -7.5908 -1.96896 0
M  V30 11821 N 1101.18 1.11143 -1.11736 0
M  V30 11822 C 1102.11 2.19339 -0.800795 0
M  V30 11823 C 1103.1 1.68508 0.23221 0
M  V30 11824 O 1104.28 1.93967 0.0950063 0
M  V30 11825 C 1101.41 3.46424 -0.246579 0
M  V30 11826 C 1100.36 4.10487 -1.21181 0
M  V30 11827 C 1099.69 5.32183 -0.518158 0
M  V30 11828 C 1100.99 4.55052 -2.56368 0
M  V30 11829 H 1102.68 2.46077 -1.70548 0
M  V30 11830 H 1100.23 1.18271 -0.821454 0
M  V30 11831 H 1102.18 4.21398 -0.0128889 0
M  V30 11832 H 1100.91 3.19154 0.693415 0
M  V30 11833 H 1099.57 3.3751 -1.43118 0
M  V30 11834 H 1099.21 5.01187 0.426742 0
M  V30 11835 H 1098.91 5.75997 -1.16196 0
M  V30 11836 H 1100.44 6.09895 -0.293333 0
M  V30 11837 H 1101.85 5.21335 -2.38501 0
M  V30 11838 H 1100.25 5.0969 -3.16758 0
M  V30 11839 H 1101.32 3.68343 -3.1536 0
M  V30 11840 N 1102.66 0.908147 1.28804 0
M  V30 11841 C 1103.61 0.390734 2.27468 0
M  V30 11842 C 1104.58 -0.531765 1.57358 0
M  V30 11843 O 1105.76 -0.455177 1.85291 0
M  V30 11844 C 1102.9 -0.368159 3.43131 0
M  V30 11845 C 1102.02 0.586202 4.28004 0
M  V30 11846 C 1101.15 -0.190581 5.30858 0
M  V30 11847 C 1100.19 0.757758 6.07391 0
M  V30 11848 N 1099.33 0.0148488 7.02098 0
M  V30 11849 H 1104.17 1.23717 2.71105 0
M  V30 11850 H 1101.71 0.621382 1.33331 0
M  V30 11851 H 1103.66 -0.824289 4.08976 0
M  V30 11852 H 1102.29 -1.17898 3.00499 0
M  V30 11853 H 1101.35 1.16086 3.62254 0
M  V30 11854 H 1102.66 1.31177 4.81242 0
M  V30 11855 H 1101.81 -0.707528 6.0256 0
M  V30 11856 H 1100.55 -0.949234 4.78373 0
M  V30 11857 H 1099.56 1.28613 5.34545 0
M  V30 11858 H 1100.78 1.51588 6.61965 0
M  V30 11859 H 1098.73 -0.725916 6.51971 0
M  V30 11860 H 1098.64 0.680347 7.52932 0
M  V30 11861 H 1099.91 -0.482086 7.78008 0
M  V30 11862 N 1104.14 -1.42577 0.671525 0
M  V30 11863 C 1105.39 -2.01882 0.192716 0
M  V30 11864 C 1105.72 -1.52959 -1.19654 0
M  V30 11865 O 1104.99 -0.730404 -1.80265 0
M  V30 11866 C 1105.28 -3.59404 0.223734 0
M  V30 11867 C 1105.13 -4.18514 1.64821 0
M  V30 11868 C 1106.45 -4.37996 -0.429858 0
M  V30 11869 H 1103.57 -0.733523 0.0715026 0
M  V30 11870 H 1106.21 -1.69641 0.855689 0
M  V30 11871 H 1104.36 -3.87003 -0.340776 0
M  V30 11872 H 1106.03 -4.01881 2.26472 0
M  V30 11873 H 1104.28 -3.74467 2.1899 0
M  V30 11874 H 1104.95 -5.27643 1.62162 0
M  V30 11875 H 1107.42 -4.16069 0.0506433 0
M  V30 11876 H 1106.3 -5.476 -0.377503 0
M  V30 11877 H 1106.56 -4.15625 -1.50693 0
M  V30 11878 N 1105.62 -0.414636 -1.52048 0
M  V30 11879 C 1106.57 0.408141 -2.27163 0
M  V30 11880 C 1107.54 1.03636 -1.29803 0
M  V30 11881 O 1108.72 1.05959 -1.58674 0
M  V30 11882 C 1105.86 1.51588 -3.10024 0
M  V30 11883 C 1104.97 0.908034 -4.22349 0
M  V30 11884 C 1104.11 1.98893 -4.9256 0
M  V30 11885 C 1103.15 1.35831 -5.96839 0
M  V30 11886 N 1102.28 2.37958 -6.60545 0
M  V30 11887 H 1107.12 -0.238822 -2.97041 0
M  V30 11888 H 1104.66 -0.129614 -1.46528 0
M  V30 11889 H 1106.62 2.16916 -3.56375 0
M  V30 11890 H 1105.25 2.13279 -2.42305 0
M  V30 11891 H 1104.3 0.143652 -3.80129 0
M  V30 11892 H 1105.61 0.407426 -4.97133 0
M  V30 11893 H 1104.77 2.71935 -5.42343 0
M  V30 11894 H 1103.51 2.5232 -4.17356 0
M  V30 11895 H 1102.51 0.613246 -5.46369 0
M  V30 11896 H 1103.74 0.831655 -6.73988 0
M  V30 11897 H 1101.68 2.90508 -5.88167 0
M  V30 11898 H 1101.6 1.92725 -7.31022 0
M  V30 11899 H 1102.87 3.10553 -7.14966 0
M  V30 11900 N 1107.1 1.56929 -0.145233 0
M  V30 11901 C 1108.05 2.13246 0.806846 0
M  V30 11902 C 1109.03 1.05984 1.21063 0
M  V30 11903 O 1110.22 1.32165 1.17734 0
M  V30 11904 C 1107.35 2.75622 2.04663 0
M  V30 11905 C 1106.44 3.90006 1.66603 0
M  V30 11906 N 1106.83 4.95946 0.993545 0
M  V30 11907 C 1105.13 4.0068 1.95886 0
M  V30 11908 C 1105.83 5.76032 0.810087 0
M  V30 11909 N 1104.8 5.26739 1.34339 0
M  V30 11910 H 1108.61 2.92527 0.283806 0
M  V30 11911 H 1106.12 1.62302 0.0563676 0
M  V30 11912 H 1108.12 3.14329 2.73867 0
M  V30 11913 H 1106.78 1.97815 2.57487 0
M  V30 11914 H 1107.79 5.13748 0.654508 0
M  V30 11915 H 1104.46 3.33946 2.50572 0
M  V30 11916 H 1105.85 6.71315 0.280209 0
M  V30 11917 N 1108.58 -0.128553 1.57075 0
M  V30 11918 C 1109.51 -1.15953 2.02675 0
M  V30 11919 C 1110.49 -1.43743 0.909501 0
M  V30 11920 O 1111.67 -1.54348 1.17857 0
M  V30 11921 C 1108.8 -2.48813 2.423 0
M  V30 11922 C 1107.76 -2.35506 3.57381 0
M  V30 11923 C 1107.08 -3.73243 3.82875 0
M  V30 11924 C 1108.38 -1.82359 4.89431 0
M  V30 11925 H 1110.08 -0.780283 2.89054 0
M  V30 11926 H 1107.62 -0.373896 1.39061 0
M  V30 11927 H 1109.57 -3.21179 2.72804 0
M  V30 11928 H 1108.3 -2.88609 1.52881 0
M  V30 11929 H 1106.96 -1.6559 3.27071 0
M  V30 11930 H 1106.61 -4.10507 2.90677 0
M  V30 11931 H 1106.31 -3.65195 4.60333 0
M  V30 11932 H 1107.83 -4.47128 4.15823 0
M  V30 11933 H 1109.24 -2.44533 5.18533 0
M  V30 11934 H 1107.64 -1.85156 5.70822 0
M  V30 11935 H 1108.71 -0.780478 4.78578 0
M  V30 11936 N 1110.05 -1.5248 -0.398459 0
M  V30 11937 C 1111.3 -1.67309 -1.1461 0
M  V30 11938 C 1111.63 -0.407095 -1.89885 0
M  V30 11939 O 1110.91 0.594834 -1.85181 0
M  V30 11940 C 1111.19 -2.90204 -2.13198 0
M  V30 11941 C 1111.04 -4.26881 -1.4175 0
M  V30 11942 C 1112.36 -3.08634 -3.13741 0
M  V30 11943 H 1109.48 -0.608853 -0.415292 0
M  V30 11944 H 1112.12 -1.85057 -0.430573 0
M  V30 11945 H 1110.27 -2.75204 -2.74218 0
M  V30 11946 H 1111.95 -4.53631 -0.837676 0
M  V30 11947 H 1110.19 -4.27793 -0.719387 0
M  V30 11948 H 1110.86 -5.08939 -2.1374 0
M  V30 11949 H 1113.34 -3.22603 -2.62805 0
M  V30 11950 H 1112.21 -3.96117 -3.79977 0
M  V30 11951 H 1112.47 -2.22425 -3.82073 0
M  V30 11952 N 1111.53 0.65634 -1.43283 0
M  V30 11953 C 1112.48 1.79058 -1.48462 0
M  V30 11954 C 1113.47 1.65563 -0.358512 0
M  V30 11955 O 1114.68 1.71947 -0.532365 0
M  V30 11956 H 1111.05 0.590716 -0.465358 0
M  V30 11957 H 1113.03 1.7181 -2.43975 0
M  V30 11958 C 1111.77 3.17304 -1.42175 0
M  V30 11959 H 1111.1 3.28324 -2.2813 0
M  V30 11960 H 1112.54 3.96633 -1.4986 0
M  V30 11961 C 1111 3.36613 -0.138929 0
M  V30 11962 O 1111.53 3.93633 0.80101 0
M  V30 11963 N 1109.73 2.90557 -0.0501237 0
M  V30 11964 H 1109.28 2.4434 -0.815821 0
M  V30 11965 H 1109.24 3.03853 0.807504 0
M  V30 11966 N 1113.01 1.29761 0.894412 0
M  V30 11967 C 1113.94 1.17902 2.01547 0
M  V30 11968 C 1114.92 0.0719402 1.69948 0
M  V30 11969 O 1116.11 0.252338 1.92554 0
M  V30 11970 C 1113.24 0.860262 3.36477 0
M  V30 11971 C 1112.19 1.92424 3.82305 0
M  V30 11972 C 1111.52 1.45868 5.14419 0
M  V30 11973 C 1112.82 3.33391 4.02054 0
M  V30 11974 H 1114.51 2.11688 2.11727 0
M  V30 11975 H 1112.06 1.01916 1.01731 0
M  V30 11976 H 1114.01 0.763987 4.14417 0
M  V30 11977 H 1112.73 -0.113289 3.26403 0
M  V30 11978 H 1111.39 2.00999 3.06586 0
M  V30 11979 H 1111.04 0.473654 5.00765 0
M  V30 11980 H 1110.74 2.17028 5.46052 0
M  V30 11981 H 1112.26 1.37601 5.94894 0
M  V30 11982 H 1113.68 3.27628 4.7046 0
M  V30 11983 H 1112.07 4.02555 4.4505 0
M  V30 11984 H 1113.14 3.75978 3.06216 0
M  V30 11985 N 1114.49 -1.10549 1.12324 0
M  V30 11986 C 1115.73 -1.82755 0.879117 0
M  V30 11987 C 1116.07 -1.84905 -0.593604 0
M  V30 11988 O 1115.34 -1.30884 -1.43873 0
M  V30 11989 C 1115.62 -3.29481 1.45308 0
M  V30 11990 C 1115.48 -3.3567 2.99408 0
M  V30 11991 C 1116.8 -4.25828 1.11167 0
M  V30 11992 H 1113.92 -0.663513 0.32081 0
M  V30 11993 H 1116.56 -1.29572 1.38965 0
M  V30 11994 H 1114.71 -3.74902 1.01887 0
M  V30 11995 H 1116.38 -2.98739 3.515 0
M  V30 11996 H 1114.62 -2.75606 3.34998 0
M  V30 11997 H 1115.29 -4.38983 3.34661 0
M  V30 11998 H 1117.77 -3.88635 1.48667 0
M  V30 11999 H 1116.65 -5.26857 1.53991 0
M  V30 12000 H 1116.91 -4.42094 0.0237046 0
M  V30 12001 N 1115.97 -0.914965 -1.28321 0
M  V30 12002 C 1117.21 -0.549562 -1.95212 0
M  V30 12003 C 1117.54 0.904658 -1.71842 0
M  V30 12004 O 1116.82 1.64354 -1.04009 0
M  V30 12005 C 1117.1 -0.860927 -3.49657 0
M  V30 12006 C 1116.96 -2.36797 -3.82423 0
M  V30 12007 C 1118.27 -0.357926 -4.38642 0
M  V30 12008 H 1115.39 -0.201136 -0.709023 0
M  V30 12009 H 1118.04 -1.14443 -1.51667 0
M  V30 12010 H 1116.19 -0.354665 -3.86878 0
M  V30 12011 H 1117.86 -2.94494 -3.55065 0
M  V30 12012 H 1116.1 -2.82245 -3.29424 0
M  V30 12013 H 1116.77 -2.53637 -4.90278 0
M  V30 12014 H 1119.25 -0.791636 -4.085 0
M  V30 12015 H 1118.12 -0.604855 -5.45557 0
M  V30 12016 H 1118.38 0.741775 -4.35833 0
M  V30 12017 N 1117.44 1.42219 -0.679077 0
M  V30 12018 C 1118.38 2.28152 0.0468359 0
M  V30 12019 C 1119.35 1.41307 0.804433 0
M  V30 12020 O 1120.54 1.70744 0.798673 0
M  V30 12021 C 1117.67 3.21236 1.07355 0
M  V30 12022 C 1116.71 4.24515 0.411042 0
M  V30 12023 S 1117.54 5.28958 -0.834506 0
M  V30 12024 C 1118.7 6.25608 0.191029 0
M  V30 12025 H 1118.93 2.89371 -0.682045 0
M  V30 12026 H 1116.47 1.47112 -0.468767 0
M  V30 12027 H 1118.42 3.75402 1.66082 0
M  V30 12028 H 1117.09 2.59145 1.7749 0
M  V30 12029 H 1116.28 4.89849 1.1859 0
M  V30 12030 H 1115.88 3.73859 -0.102742 0
M  V30 12031 H 1118.17 6.69323 1.04944 0
M  V30 12032 H 1119.12 7.06806 -0.427959 0
M  V30 12033 H 1119.52 5.61926 0.538422 0
M  V30 12034 N 1118.92 0.422693 1.51826 0
M  V30 12035 C 1120.2 -0.20786 1.94492 0
M  V30 12036 C 1120.58 -1.61414 1.36047 0
M  V30 12037 O 1119.93 -2.21987 0.541657 0
M  V30 12038 C 1120.14 -0.200457 3.48424 0
M  V30 12039 C 1121.48 -0.413199 4.22585 0
M  V30 12040 O 1122.51 -0.27922 3.55104 0
M  V30 12041 O 1121.37 -0.678469 5.42272 0
M  V30 12042 H 1118.46 -0.137851 0.81543 0
M  V30 12043 H 1121.01 0.479617 1.62781 0
M  V30 12044 H 1119.78 0.783263 3.83381 0
M  V30 12045 H 1119.4 -0.931464 3.86535 0
M  V30 12046 N 1120.4 -1.5685 0.153553 0
M  V30 12047 C 1121.81 -1.83074 -0.36618 0
M  V30 12048 C 1122.16 -1.07257 -1.64288 0
M  V30 12049 O 1121.29 -0.319925 -2.14022 0
M  V30 12050 C 1121.88 -3.32086 -0.671142 0
M  V30 12051 C 1120.44 -3.58868 -1.13537 0
M  V30 12052 C 1119.59 -2.76827 -0.161887 0
M  V30 12053 H 1122.54 -1.54129 0.378139 0
M  V30 12054 H 1122.56 -3.48598 -1.52512 0
M  V30 12055 H 1122.07 -3.8724 0.258234 0
M  V30 12056 H 1120.17 -3.09107 -2.08047 0
M  V30 12057 H 1120.29 -4.67299 -1.05682 0
M  V30 12058 H 1118.65 -2.46112 -0.6558 0
M  V30 12059 H 1119.43 -3.34755 0.761195 0
M  V30 12060 N 1121.88 0.120221 -1.57141 0
M  V30 12061 C 1123.12 0.828222 -1.84788 0
M  V30 12062 C 1123.45 1.79936 -0.738459 0
M  V30 12063 O 1122.71 1.93824 0.270295 0
M  V30 12064 C 1123.01 1.61338 -3.18912 0
M  V30 12065 C 1122.67 0.786637 -4.43985 0
M  V30 12066 C 1121.33 0.558645 -4.77946 0
M  V30 12067 C 1123.69 0.210281 -5.20776 0
M  V30 12068 C 1121.01 -0.255975 -5.86141 0
M  V30 12069 C 1123.37 -0.591523 -6.29828 0
M  V30 12070 C 1122.03 -0.829843 -6.62322 0
M  V30 12071 H 1121.3 0.303068 -0.676188 0
M  V30 12072 H 1123.95 0.0906538 -1.91285 0
M  V30 12073 H 1122.25 2.42182 -3.07986 0
M  V30 12074 H 1123.95 2.16513 -3.37525 0
M  V30 12075 H 1120.54 0.974426 -4.17376 0
M  V30 12076 H 1124.72 0.373641 -4.94892 0
M  V30 12077 H 1119.98 -0.449849 -6.09743 0
M  V30 12078 H 1124.15 -1.04512 -6.88513 0
M  V30 12079 H 1121.78 -1.4629 -7.45992 0
M  V30 12080 N 1123.36 1.52689 0.390367 0
M  V30 12081 C 1124.6 1.67914 1.13722 0
M  V30 12082 C 1124.94 0.417159 1.89667 0
M  V30 12083 O 1124.21 -0.585005 1.85494 0
M  V30 12084 C 1124.49 2.91331 2.11656 0
M  V30 12085 C 1124.35 4.27626 1.39484 0
M  V30 12086 C 1125.67 3.10293 3.12099 0
M  V30 12087 H 1122.78 0.611047 0.412057 0
M  V30 12088 H 1125.43 1.85283 0.420753 0
M  V30 12089 H 1123.58 2.76654 2.72754 0
M  V30 12090 H 1125.25 4.54068 0.813607 0
M  V30 12091 H 1123.49 4.28169 0.69669 0
M  V30 12092 H 1124.16 5.10066 2.11038 0
M  V30 12093 H 1126.64 3.23992 2.6109 0
M  V30 12094 H 1125.51 3.98127 3.7787 0
M  V30 12095 H 1125.78 2.24448 3.80888 0
M  V30 12096 N 1124.83 -0.648732 1.43629 0
M  V30 12097 C 1126.11 -1.4062 1.35961 0
M  V30 12098 C 1126.49 -2.11098 0.00961023 0
M  V30 12099 O 1125.84 -2.05107 -1.00714 0
M  V30 12100 C 1126.05 -2.38719 2.54586 0
M  V30 12101 C 1127.4 -3.02584 2.97873 0
M  V30 12102 O 1128.42 -2.49046 2.54665 0
M  V30 12103 O 1127.28 -3.99662 3.72736 0
M  V30 12104 H 1124.37 -0.628483 0.53753 0
M  V30 12105 H 1126.92 -0.675263 1.55687 0
M  V30 12106 H 1125.69 -1.85619 3.44472 0
M  V30 12107 H 1125.32 -3.19257 2.36983 0
M  V30 12108 N 1126.31 -1.30234 -0.887518 0
M  V30 12109 C 1127.24 -1.18969 -2.00919 0
M  V30 12110 C 1128.22 -0.080952 -1.69907 0
M  V30 12111 O 1129.41 -0.262546 -1.92417 0
M  V30 12112 C 1126.54 -0.878094 -3.36016 0
M  V30 12113 C 1125.49 -1.94449 -3.81279 0
M  V30 12114 C 1124.82 -1.48594 -5.13638 0
M  V30 12115 C 1126.12 -3.35519 -4.00281 0
M  V30 12116 H 1127.81 -2.12808 -2.10602 0
M  V30 12117 H 1125.36 -1.02454 -1.01189 0
M  V30 12118 H 1127.31 -0.785954 -4.14006 0
M  V30 12119 H 1126.04 0.0959779 -3.26459 0
M  V30 12120 H 1124.69 -2.02622 -3.05516 0
M  V30 12121 H 1124.34 -0.500204 -5.00507 0
M  V30 12122 H 1124.04 -2.19921 -5.44893 0
M  V30 12123 H 1125.57 -1.40754 -5.94156 0
M  V30 12124 H 1126.98 -3.30119 -4.68716 0
M  V30 12125 H 1125.38 -4.0491 -4.42909 0
M  V30 12126 H 1126.45 -3.77597 -3.04218 0
M  V30 12127 N 1127.79 1.09952 -1.12909 0
M  V30 12128 C 1128.75 2.14615 -0.804548 0
M  V30 12129 C 1129.75 1.5975 0.18345 0
M  V30 12130 O 1130.94 1.74147 -0.0429623 0
M  V30 12131 C 1128.08 3.40333 -0.196471 0
M  V30 12132 H 1129.27 2.44835 -1.73193 0
M  V30 12133 H 1126.82 1.25399 -0.932997 0
M  V30 12134 H 1127.56 3.15735 0.740388 0
M  V30 12135 H 1127.34 3.81444 -0.907886 0
M  V30 12136 H 1128.83 4.17598 0.0139264 0
M  V30 12137 N 1129.27 0.921757 1.27833 0
M  V30 12138 C 1130.52 0.55493 1.93916 0
M  V30 12139 C 1130.83 -0.907191 1.7329 0
M  V30 12140 O 1132.04 -1.38253 2.33663 0
M  V30 12141 C 1130.49 0.941644 3.47363 0
M  V30 12142 C 1130.1 2.42404 3.76755 0
M  V30 12143 C 1131.84 0.645785 4.19559 0
M  V30 12144 C 1129.75 2.75046 5.23549 0
M  V30 12145 H 1128.68 0.203818 0.72593 0
M  V30 12146 H 1131.33 1.12176 1.4522 0
M  V30 12147 H 1129.71 0.303519 3.94835 0
M  V30 12148 H 1130.89 3.10957 3.40062 0
M  V30 12149 H 1129.2 2.69118 3.17749 0
M  V30 12150 H 1131.8 0.866237 5.27637 0
M  V30 12151 H 1132.14 -0.41676 4.14209 0
M  V30 12152 H 1132.68 1.24274 3.7789 0
M  V30 12153 H 1129.42 3.80186 5.33984 0
M  V30 12154 H 1128.94 2.11138 5.6141 0
M  V30 12155 H 1130.61 2.62474 5.91368 0
M  V30 12156 N 1130.75 -1.41857 0.686609 0
M  V30 12157 C 1131.97 -2.05699 0.222561 0
M  V30 12158 C 1132.39 -1.51636 -1.12481 0
M  V30 12159 O 1131.75 -0.660925 -1.70112 0
M  V30 12160 C 1131.8 -3.61138 0.161818 0
M  V30 12161 O 1131.52 -4.13199 1.45596 0
M  V30 12162 C 1133.02 -4.42112 -0.324304 0
M  V30 12163 H 1130.24 -0.662665 0.10543 0
M  V30 12164 H 1132.78 -1.81788 0.936671 0
M  V30 12165 H 1130.94 -3.8412 -0.503056 0
M  V30 12166 H 1131.35 -5.0717 1.33712 0
M  V30 12167 H 1132.83 -5.51097 -0.315694 0
M  V30 12168 H 1133.3 -4.1756 -1.36164 0
M  V30 12169 H 1133.91 -4.24174 0.309251 0
M  V30 12170 N 1132.22 -0.430739 -1.51599 0
M  V30 12171 C 1133.47 0.139396 -2.01218 0
M  V30 12172 C 1133.79 1.44361 -1.31982 0
M  V30 12173 O 1134.99 2.0963 -1.72533 0
M  V30 12174 C 1133.45 0.298969 -3.58656 0
M  V30 12175 C 1133.06 -0.994424 -4.36824 0
M  V30 12176 C 1134.8 0.82323 -4.16441 0
M  V30 12177 C 1132.71 -0.800855 -5.85952 0
M  V30 12178 H 1131.64 0.0558698 -0.751927 0
M  V30 12179 H 1134.29 -0.559493 -1.74762 0
M  V30 12180 H 1132.67 1.06071 -3.8153 0
M  V30 12181 H 1133.84 -1.76398 -4.257 0
M  V30 12182 H 1132.16 -1.44672 -3.9046 0
M  V30 12183 H 1134.76 0.984434 -5.2556 0
M  V30 12184 H 1135.1 1.80388 -3.75188 0
M  V30 12185 H 1135.63 0.119982 -3.97619 0
M  V30 12186 H 1132.37 -1.75369 -6.31606 0
M  V30 12187 H 1131.89 -0.0709793 -5.99758 0
M  V30 12188 H 1133.57 -0.451459 -6.45423 0
M  V30 12189 N 1133.7 1.56767 -0.161869 0
M  V30 12190 C 1134.94 1.98487 0.488067 0
M  V30 12191 C 1135.31 1.04527 1.61053 0
M  V30 12192 O 1136.51 1.35351 2.32236 0
M  V30 12193 C 1134.78 3.44057 0.967446 0
M  V30 12194 S 1136.34 4.07805 1.61989 0
M  V30 12195 H 1133.16 0.693377 0.157318 0
M  V30 12196 H 1135.76 1.93802 -0.257099 0
M  V30 12197 H 1134.46 4.10161 0.139959 0
M  V30 12198 H 1133.99 3.52488 1.74688 0
M  V30 12199 H 1136.01 4.02078 2.90772 0
M  V30 12200 N 1135.18 -0.111886 1.57202 0
M  V30 12201 C 1136.43 -0.817022 1.84412 0
M  V30 12202 C 1136.74 -1.80708 0.748608 0
M  V30 12203 O 1137.95 -2.55891 0.907319 0
M  V30 12204 C 1136.4 -1.50376 3.26979 0
M  V30 12205 C 1136.01 -0.554334 4.44557 0
M  V30 12206 C 1137.76 -2.19361 3.63429 0
M  V30 12207 C 1135.66 -1.24471 5.78153 0
M  V30 12208 H 1134.59 -0.308864 0.687836 0
M  V30 12209 H 1137.24 -0.0698109 1.83367 0
M  V30 12210 H 1135.63 -2.29785 3.22514 0
M  V30 12211 H 1136.8 0.207045 4.60335 0
M  V30 12212 H 1135.12 0.0289261 4.1639 0
M  V30 12213 H 1137.71 -2.71716 4.60515 0
M  V30 12214 H 1138.06 -2.97488 2.91215 0
M  V30 12215 H 1138.59 -1.46833 3.69709 0
M  V30 12216 H 1135.33 -0.504584 6.53555 0
M  V30 12217 H 1134.85 -1.97792 5.66249 0
M  V30 12218 H 1136.53 -1.77591 6.2215 0
M  V30 12219 N 1136.66 -1.52894 -0.382264 0
M  V30 12220 C 1137.9 -1.68515 -1.12829 0
M  V30 12221 C 1138.24 -0.427211 -1.89443 0
M  V30 12222 O 1137.51 0.57516 -1.85801 0
M  V30 12223 C 1137.8 -2.92449 -2.10108 0
M  V30 12224 C 1137.65 -4.2836 -1.37214 0
M  V30 12225 C 1138.97 -3.11944 -3.1045 0
M  V30 12226 H 1136.09 -0.613223 -0.408811 0
M  V30 12227 H 1138.73 -1.85503 -0.410921 0
M  V30 12228 H 1136.88 -2.78097 -2.71283 0
M  V30 12229 H 1138.55 -4.54493 -0.789516 0
M  V30 12230 H 1136.79 -4.28532 -0.673973 0
M  V30 12231 H 1137.46 -5.11178 -2.0833 0
M  V30 12232 H 1139.94 -3.25372 -2.59369 0
M  V30 12233 H 1138.82 -4.00125 -3.75754 0
M  V30 12234 H 1139.08 -2.26465 -3.79692 0
M  V30 12235 N 1138.14 0.641106 -1.43971 0
M  V30 12236 C 1139.07 1.76489 -1.52885 0
M  V30 12237 C 1140.05 1.65742 -0.38258 0
M  V30 12238 O 1141.23 1.84653 -0.601397 0
M  V30 12239 C 1138.36 3.14977 -1.4631 0
M  V30 12240 C 1137.32 3.40502 -2.59311 0
M  V30 12241 C 1136.64 4.78916 -2.37789 0
M  V30 12242 C 1137.94 3.34048 -4.01509 0
M  V30 12243 H 1139.64 1.69286 -2.46946 0
M  V30 12244 H 1137.18 0.813015 -1.18853 0
M  V30 12245 H 1139.14 3.9336 -1.51149 0
M  V30 12246 H 1137.86 3.2294 -0.487599 0
M  V30 12247 H 1136.52 2.64495 -2.53846 0
M  V30 12248 H 1136.17 4.8357 -1.38454 0
M  V30 12249 H 1135.87 4.96954 -3.13545 0
M  V30 12250 H 1137.39 5.59541 -2.4443 0
M  V30 12251 H 1138.81 4.0235 -4.08396 0
M  V30 12252 H 1137.2 3.63622 -4.77388 0
M  V30 12253 H 1138.27 2.32022 -4.25786 0
M  V30 12254 N 1139.62 1.30703 0.880598 0
M  V30 12255 C 1140.56 1.17369 2.00817 0
M  V30 12256 C 1141.56 0.0845159 1.69189 0
M  V30 12257 O 1142.76 0.245673 1.78316 0
M  V30 12258 H 1139.14 0.363107 0.658527 0
M  V30 12259 H 1141.11 2.12789 2.09197 0
M  V30 12260 C 1139.86 0.886851 3.362 0
M  V30 12261 H 1139.18 1.71704 3.61051 0
M  V30 12262 H 1140.62 0.83368 4.15723 0
M  V30 12263 C 1139.08 -0.410293 3.34392 0
M  V30 12264 O 1139.61 -1.43044 3.75368 0
M  V30 12265 N 1137.82 -0.423023 2.87505 0
M  V30 12266 H 1137.36 0.407637 2.54354 0
M  V30 12267 H 1137.32 -1.29086 2.86678 0
M  V30 12268 N 1141.09 -1.09351 1.1349 0
M  V30 12269 C 1142.32 -1.85304 0.920324 0
M  V30 12270 C 1142.74 -1.81182 -0.530883 0
M  V30 12271 O 1142.09 -1.20853 -1.36751 0
M  V30 12272 C 1142.14 -3.33249 1.40098 0
M  V30 12273 O 1141.87 -3.37333 2.79531 0
M  V30 12274 C 1143.37 -4.2604 1.22495 0
M  V30 12275 H 1140.59 -0.585294 0.328134 0
M  V30 12276 H 1143.13 -1.38168 1.50765 0
M  V30 12277 H 1141.29 -3.7781 0.85664 0
M  V30 12278 H 1141.7 -4.29614 3.00885 0
M  V30 12279 H 1143.17 -5.27999 1.61 0
M  V30 12280 H 1143.65 -4.38883 0.166717 0
M  V30 12281 H 1144.26 -3.87295 1.75735 0
M  V30 12282 N 1142.57 -0.928524 -1.27343 0
M  V30 12283 C 1143.5 -0.445627 -2.29208 0
M  V30 12284 C 1144.48 0.494508 -1.62753 0
M  V30 12285 O 1145.67 0.399082 -1.90055 0
M  V30 12286 C 1142.8 0.301684 -3.45987 0
M  V30 12287 C 1141.75 -0.550695 -4.24442 0
M  V30 12288 C 1141.08 0.325833 -5.33706 0
M  V30 12289 C 1142.38 -1.81559 -4.89728 0
M  V30 12290 H 1144.07 -1.29696 -2.69851 0
M  V30 12291 H 1141.62 -0.625085 -1.29725 0
M  V30 12292 H 1143.57 0.650455 -4.1635 0
M  V30 12293 H 1142.29 1.18705 -3.04264 0
M  V30 12294 H 1140.95 -0.882185 -3.55827 0
M  V30 12295 H 1140.6 1.21018 -4.88225 0
M  V30 12296 H 1140.3 -0.240994 -5.87106 0
M  V30 12297 H 1141.83 0.670156 -6.06911 0
M  V30 12298 H 1143.24 -1.53483 -5.52373 0
M  V30 12299 H 1141.64 -2.32598 -5.53189 0
M  V30 12300 H 1142.71 -2.53461 -4.13383 0
M  V30 12301 N 1144.05 1.41491 -0.694123 0
M  V30 12302 C 1145.3 2.01252 -0.224477 0
M  V30 12303 C 1145.62 1.54965 1.17541 0
M  V30 12304 O 1144.88 0.751041 1.80715 0
M  V30 12305 C 1145.18 3.56666 -0.228869 0
M  V30 12306 C 1144.84 4.22458 -1.57608 0
M  V30 12307 C 1143.51 4.40144 -1.94491 0
M  V30 12308 C 1145.86 4.5936 -2.46247 0
M  V30 12309 C 1143.19 4.92009 -3.196 0
M  V30 12310 C 1145.54 5.12615 -3.70687 0
M  V30 12311 C 1144.2 5.28512 -4.07715 0
M  V30 12312 H 1143.47 0.736433 -0.0821419 0
M  V30 12313 H 1146.12 1.69408 -0.892926 0
M  V30 12314 H 1144.42 3.88292 0.523128 0
M  V30 12315 H 1146.12 4.00712 0.152019 0
M  V30 12316 H 1142.71 4.09065 -1.27921 0
M  V30 12317 H 1146.9 4.45352 -2.19032 0
M  V30 12318 H 1142.15 5.02502 -3.48285 0
M  V30 12319 H 1146.33 5.4015 -4.39558 0
M  V30 12320 H 1143.95 5.68464 -5.0473 0
M  V30 12321 N 1145.53 0.438773 1.51369 0
M  V30 12322 C 1146.46 -0.417215 2.24354 0
M  V30 12323 C 1147.44 -1.02351 1.26345 0
M  V30 12324 O 1148.62 -1.06569 1.55484 0
M  V30 12325 C 1145.75 -1.58163 2.99503 0
M  V30 12326 C 1144.8 -1.09588 4.1218 0
M  V30 12327 S 1145.63 -0.0367491 5.35487 0
M  V30 12328 C 1146.78 -1.2058 6.14175 0
M  V30 12329 H 1147.02 0.202416 2.9661 0
M  V30 12330 H 1144.55 0.223306 1.52777 0
M  V30 12331 H 1146.51 -2.24917 3.43399 0
M  V30 12332 H 1145.17 -2.17268 2.26833 0
M  V30 12333 H 1144.36 -1.96667 4.64045 0
M  V30 12334 H 1143.96 -0.506564 3.70554 0
M  V30 12335 H 1146.26 -2.12387 6.43349 0
M  V30 12336 H 1147.2 -0.727087 7.04357 0
M  V30 12337 H 1147.61 -1.44501 5.45692 0
M  V30 12338 N 1147.01 -1.56678 0.170181 0
M  V30 12339 C 1147.97 -2.16698 -0.746622 0
M  V30 12340 C 1148.97 -1.11475 -1.15888 0
M  V30 12341 O 1150.16 -1.36994 -1.07602 0
M  V30 12342 C 1147.29 -2.74892 -2.01612 0
M  V30 12343 H 1148.48 -2.99061 -0.224135 0
M  V30 12344 H 1146.04 -1.56098 -0.0793761 0
M  V30 12345 H 1146.77 -1.96259 -2.58172 0
M  V30 12346 H 1146.56 -3.51896 -1.72949 0
M  V30 12347 H 1148.05 -3.21058 -2.67042 0
M  V30 12348 N 1148.48 0.103547 -1.57259 0
M  V30 12349 C 1149.42 1.15707 -1.9669 0
M  V30 12350 C 1150.39 1.39292 -0.838837 0
M  V30 12351 O 1151.58 1.53192 -1.09839 0
M  V30 12352 C 1148.71 2.50793 -2.27642 0
M  V30 12353 C 1147.75 2.43541 -3.50129 0
M  V30 12354 S 1148.58 1.86009 -5.02156 0
M  V30 12355 C 1149.74 3.22737 -5.36276 0
M  V30 12356 H 1149.97 0.820891 -2.85742 0
M  V30 12357 H 1147.51 0.310906 -1.51237 0
M  V30 12358 H 1149.46 3.28512 -2.46151 0
M  V30 12359 H 1148.13 2.81583 -1.39176 0
M  V30 12360 H 1147.32 3.43085 -3.692 0
M  V30 12361 H 1146.92 1.73948 -3.31086 0
M  V30 12362 H 1149.21 4.1899 -5.32404 0
M  V30 12363 H 1150.16 3.08477 -6.37375 0
M  V30 12364 H 1150.56 3.21878 -4.6374 0
M  V30 12365 N 1149.96 1.53094 0.37415 0
M  V30 12366 C 1150.87 1.81872 1.48188 0
M  V30 12367 C 1151.89 0.706487 1.59012 0
M  V30 12368 O 1153.06 0.995648 1.75068 0
M  V30 12369 C 1150.13 1.99494 2.83554 0
M  V30 12370 C 1149.19 3.23402 2.82329 0
M  V30 12371 C 1148.42 3.40174 4.11239 0
M  V30 12372 O 1148.65 2.61425 5.06965 0
M  V30 12373 O 1147.58 4.33493 4.17573 0
M  V30 12374 H 1151.41 2.75965 1.26795 0
M  V30 12375 H 1148.99 1.38368 0.56343 0
M  V30 12376 H 1150.87 2.12705 3.63778 0
M  V30 12377 H 1149.55 1.08591 3.04942 0
M  V30 12378 H 1148.45 3.15621 2.00834 0
M  V30 12379 H 1149.79 4.14199 2.65894 0
M  V30 12380 N 1151.44 -0.633461 1.44309 0
M  V30 12381 C 1152.39 -1.73919 1.47432 0
M  V30 12382 C 1153.37 -1.57258 0.340381 0
M  V30 12383 O 1154.57 -1.67035 0.585529 0
M  V30 12384 C 1151.69 -3.12595 1.41912 0
M  V30 12385 C 1150.78 -3.34734 2.60411 0
M  V30 12386 N 1151.17 -3.2725 3.85669 0
M  V30 12387 C 1149.47 -3.65522 2.55557 0
M  V30 12388 C 1150.17 -3.50013 4.64613 0
M  V30 12389 N 1149.15 -3.72775 3.95651 0
M  V30 12390 H 1152.95 -1.66588 2.42128 0
M  V30 12391 H 1150.46 -0.835844 1.39239 0
M  V30 12392 H 1152.46 -3.91887 1.42233 0
M  V30 12393 H 1151.12 -3.21095 0.482525 0
M  V30 12394 H 1152.13 -3.06221 4.17671 0
M  V30 12395 H 1148.81 -3.81017 1.70682 0
M  V30 12396 H 1150.2 -3.49839 5.73639 0
M  V30 12397 N 1152.92 -1.31168 -0.873655 0
M  V30 12398 C 1154.15 -1.23416 -1.65686 0
M  V30 12399 C 1154.56 0.203534 -1.88102 0
M  V30 12400 O 1153.9 1.14476 -1.4367 0
M  V30 12401 C 1153.96 -1.90418 -3.04929 0
M  V30 12402 C 1153.63 -3.39757 -3.05637 0
M  V30 12403 C 1154.62 -4.35565 -2.83865 0
M  V30 12404 C 1152.31 -3.81389 -3.26875 0
M  V30 12405 C 1154.3 -5.70979 -2.83304 0
M  V30 12406 C 1151.99 -5.16918 -3.25943 0
M  V30 12407 C 1152.99 -6.11524 -3.04184 0
M  V30 12408 O 1152.67 -7.44575 -3.0309 0
M  V30 12409 H 1152.41 -0.4278 -0.523415 0
M  V30 12410 H 1154.96 -1.73525 -1.09902 0
M  V30 12411 H 1153.19 -1.34854 -3.62424 0
M  V30 12412 H 1154.88 -1.76631 -3.65453 0
M  V30 12413 H 1155.65 -4.0473 -2.67243 0
M  V30 12414 H 1151.52 -3.08187 -3.42844 0
M  V30 12415 H 1155.07 -6.44796 -2.66239 0
M  V30 12416 H 1150.97 -5.47389 -3.42104 0
M  V30 12417 H 1151.73 -7.53703 -3.19177 0
M  V30 12418 N 1154.4 1.08748 -1.14068 0
M  V30 12419 C 1155.81 1.62551 -0.918379 0
M  V30 12420 C 1156.16 1.8852 0.543583 0
M  V30 12421 O 1155.28 1.64007 1.41176 0
M  V30 12422 C 1155.88 2.95309 -1.66066 0
M  V30 12423 C 1154.44 3.4591 -1.48403 0
M  V30 12424 C 1153.58 2.20204 -1.6854 0
M  V30 12425 H 1156.54 0.920196 -1.29298 0
M  V30 12426 H 1156.56 3.63587 -1.12181 0
M  V30 12427 H 1156.07 2.76377 -2.72465 0
M  V30 12428 H 1154.17 3.69953 -0.443353 0
M  V30 12429 H 1154.28 4.2289 -2.25169 0
M  V30 12430 H 1152.65 2.29203 -1.11077 0
M  V30 12431 H 1153.43 2.03783 -2.76274 0
M  V30 12432 N 1155.87 0.935264 1.26849 0
M  V30 12433 C 1156.81 0.384563 2.24936 0
M  V30 12434 C 1157.79 -0.523311 1.53949 0
M  V30 12435 O 1158.97 -0.462103 1.82748 0
M  V30 12436 C 1156.1 -0.448043 3.35723 0
M  V30 12437 C 1155.14 0.397466 4.24644 0
M  V30 12438 S 1155.98 1.81773 5.03705 0
M  V30 12439 C 1157.13 0.99302 6.17972 0
M  V30 12440 H 1157.36 1.21588 2.713 0
M  V30 12441 H 1154.9 0.737966 1.35622 0
M  V30 12442 H 1156.86 -0.922541 3.99999 0
M  V30 12443 H 1155.52 -1.25397 2.87983 0
M  V30 12444 H 1154.71 -0.240176 5.03427 0
M  V30 12445 H 1154.31 0.806423 3.65202 0
M  V30 12446 H 1156.6 0.232526 6.77101 0
M  V30 12447 H 1157.55 1.75412 6.86029 0
M  V30 12448 H 1157.95 0.531692 5.6199 0
M  V30 12449 N 1157.35 -1.41121 0.701616 0
M  V30 12450 C 1158.58 -2.05452 0.244365 0
M  V30 12451 C 1159 -1.5282 -1.10866 0
M  V30 12452 O 1158.35 -0.67893 -1.69401 0
M  V30 12453 C 1158.4 -3.60946 0.200112 0
M  V30 12454 O 1158.12 -4.11632 1.4997 0
M  V30 12455 C 1159.63 -4.42431 -0.277394 0
M  V30 12456 H 1156.85 -0.66151 0.112453 0
M  V30 12457 H 1159.39 -1.80784 0.9559 0
M  V30 12458 H 1157.54 -3.84632 -0.462287 0
M  V30 12459 H 1157.96 -5.05723 1.39084 0
M  V30 12460 H 1159.43 -5.514 -0.257225 0
M  V30 12461 H 1159.91 -4.1898 -1.31728 0
M  V30 12462 H 1160.52 -4.23822 0.354223 0
M  V30 12463 N 1158.83 -0.446794 -1.51134 0
M  V30 12464 C 1159.74 0.36579 -2.31731 0
M  V30 12465 C 1160.76 1.01886 -1.41051 0
M  V30 12466 O 1161.93 1.01216 -1.74119 0
M  V30 12467 C 1159 1.44705 -3.15058 0
M  V30 12468 C 1158.06 0.813129 -4.21529 0
M  V30 12469 C 1157.29 1.84287 -5.00873 0
M  V30 12470 O 1157.51 3.06633 -4.8097 0
M  V30 12471 O 1156.45 1.42816 -5.84711 0
M  V30 12472 H 1160.27 -0.292436 -3.02289 0
M  V30 12473 H 1157.86 -0.209129 -1.47929 0
M  V30 12474 H 1159.74 2.07393 -3.66833 0
M  V30 12475 H 1158.42 2.08919 -2.47254 0
M  V30 12476 H 1157.32 0.147953 -3.73807 0
M  V30 12477 H 1158.66 0.214331 -4.91733 0
M  V30 12478 N 1160.31 1.56586 -0.178487 0
M  V30 12479 C 1161.24 2.155 0.780543 0
M  V30 12480 C 1162.25 1.11244 1.18864 0
M  V30 12481 O 1163.44 1.38403 1.12725 0
M  V30 12482 C 1160.54 2.68867 2.0631 0
M  V30 12483 C 1159.72 3.97854 1.81744 0
M  V30 12484 C 1158.77 4.36213 2.94287 0
M  V30 12485 O 1157.8 5.03954 2.64612 0
M  V30 12486 N 1159 3.98356 4.22247 0
M  V30 12487 H 1161.77 2.98419 0.276836 0
M  V30 12488 H 1159.33 1.61899 0.00405241 0
M  V30 12489 H 1161.32 2.91522 2.80708 0
M  V30 12490 H 1159.89 1.90496 2.47851 0
M  V30 12491 H 1159.11 3.83502 0.912127 0
M  V30 12492 H 1160.4 4.82083 1.62707 0
M  V30 12493 H 1159.8 3.43835 4.49215 0
M  V30 12494 H 1158.35 4.25998 4.93325 0
M  V30 12495 N 1161.79 -0.095206 1.57312 0
M  V30 12496 C 1163.03 -0.798719 1.86083 0
M  V30 12497 C 1163.36 -1.78739 0.766991 0
M  V30 12498 O 1162.62 -1.9423 -0.239425 0
M  V30 12499 C 1162.92 -1.56244 3.21438 0
M  V30 12500 C 1162.58 -0.715903 4.4518 0
M  V30 12501 C 1161.24 -0.482537 4.78774 0
M  V30 12502 C 1163.6 -0.127404 5.21044 0
M  V30 12503 C 1160.92 0.349193 5.8566 0
M  V30 12504 C 1163.28 0.691649 6.28808 0
M  V30 12505 C 1161.94 0.935107 6.60918 0
M  V30 12506 H 1161.21 -0.292272 0.680924 0
M  V30 12507 H 1163.86 -0.0602105 1.91405 0
M  V30 12508 H 1162.16 -2.37251 3.118 0
M  V30 12509 H 1163.86 -2.11116 3.40927 0
M  V30 12510 H 1160.45 -0.907902 4.18874 0
M  V30 12511 H 1164.63 -0.29486 4.95423 0
M  V30 12512 H 1159.89 0.546797 6.0895 0
M  V30 12513 H 1164.06 1.15452 6.86763 0
M  V30 12514 H 1161.69 1.58139 7.4357 0
M  V30 12515 N 1163.26 -1.53291 -0.366026 0
M  V30 12516 C 1164.49 -1.73665 -1.13381 0
M  V30 12517 C 1164.91 -0.464284 -1.8228 0
M  V30 12518 O 1164.27 0.581645 -1.71717 0
M  V30 12519 C 1164.32 -2.90225 -2.14013 0
M  V30 12520 O 1163.42 -2.58803 -3.21084 0
M  V30 12521 H 1162.77 -0.576762 -0.329 0
M  V30 12522 H 1165.3 -2.00174 -0.423287 0
M  V30 12523 H 1165.31 -3.16378 -2.57622 0
M  V30 12524 H 1163.98 -3.82518 -1.63257 0
M  V30 12525 H 1162.56 -2.43466 -2.82451 0
M  V30 12526 N 1164.74 0.6258 -1.44643 0
M  V30 12527 C 1165.97 1.41726 -1.51422 0
M  V30 12528 C 1166.39 1.87565 -0.14181 0
M  V30 12529 O 1165.75 1.59059 0.870054 0
M  V30 12530 C 1165.8 2.61012 -2.48807 0
M  V30 12531 O 1164.9 3.61029 -1.99328 0
M  V30 12532 H 1164.24 0.423855 -0.511119 0
M  V30 12533 H 1166.77 0.763336 -1.89827 0
M  V30 12534 H 1166.78 3.08489 -2.67018 0
M  V30 12535 H 1165.46 2.26995 -3.48491 0
M  V30 12536 H 1164.04 3.20325 -1.90909 0
M  V30 12537 N 1166.22 1.31629 0.866686 0
M  V30 12538 C 1167.47 1.21683 1.62238 0
M  V30 12539 C 1167.8 -0.223767 1.92907 0
M  V30 12540 O 1167.07 -1.15761 1.563 0
M  V30 12541 C 1167.36 2.06443 2.95048 0
M  V30 12542 C 1167.21 3.58818 2.71237 0
M  V30 12543 C 1168.53 1.91634 3.96187 0
M  V30 12544 H 1165.65 0.443389 0.588707 0
M  V30 12545 H 1168.29 1.61453 1.00164 0
M  V30 12546 H 1166.44 1.72654 3.48027 0
M  V30 12547 H 1168.11 4.0276 2.24905 0
M  V30 12548 H 1166.36 3.82085 2.05411 0
M  V30 12549 H 1167.03 4.13436 3.65752 0
M  V30 12550 H 1169.5 2.21209 3.52428 0
M  V30 12551 H 1168.38 2.53236 4.86993 0
M  V30 12552 H 1168.64 0.880564 4.33242 0
M  V30 12553 N 1167.7 -1.08142 1.14644 0
M  V30 12554 C 1168.63 -2.17139 0.858667 0
M  V30 12555 C 1169.61 -1.69064 -0.187452 0
M  V30 12556 O 1170.8 -1.94151 -0.0435458 0
M  V30 12557 C 1167.93 -3.45648 0.33834 0
M  V30 12558 C 1166.88 -4.07129 1.32021 0
M  V30 12559 C 1166.21 -5.30623 0.659075 0
M  V30 12560 C 1167.51 -4.48095 2.68343 0
M  V30 12561 H 1169.2 -2.41468 1.77012 0
M  V30 12562 H 1166.75 -1.16052 0.852523 0
M  V30 12563 H 1168.7 -4.21216 0.124611 0
M  V30 12564 H 1167.42 -3.2088 -0.608553 0
M  V30 12565 H 1166.08 -3.33596 1.52016 0
M  V30 12566 H 1165.73 -5.02142 -0.293711 0
M  V30 12567 H 1165.43 -5.72714 1.31427 0
M  V30 12568 H 1166.95 -6.08903 0.454933 0
M  V30 12569 H 1168.37 -5.14828 2.5224 0
M  V30 12570 H 1166.76 -5.01113 3.30161 0
M  V30 12571 H 1167.83 -3.59852 3.25015 0
M  V30 12572 N 1169.18 -0.941978 -1.26351 0
M  V30 12573 C 1170.4 -0.606231 -1.98342 0
M  V30 12574 C 1170.83 0.812014 -1.6967 0
M  V30 12575 O 1170.19 1.54712 -0.9452 0
M  V30 12576 C 1170.23 -0.855864 -3.50296 0
M  V30 12577 O 1169.34 0.0716251 -4.12338 0
M  V30 12578 H 1168.68 -0.231815 -0.62222 0
M  V30 12579 H 1171.21 -1.26513 -1.60797 0
M  V30 12580 H 1171.22 -0.777079 -4.00531 0
M  V30 12581 H 1169.89 -1.8896 -3.70496 0
M  V30 12582 H 1168.47 -0.0582866 -3.72854 0
M  V30 12583 N 1170.66 1.40747 -0.709091 0
M  V30 12584 C 1171.9 2.013 -0.246174 0
M  V30 12585 C 1172.23 1.56078 1.15556 0
M  V30 12586 O 1171.51 0.777941 1.78265 0
M  V30 12587 C 1171.79 3.58685 -0.318945 0
M  V30 12588 C 1171.65 4.13997 -1.75859 0
M  V30 12589 C 1172.96 4.38981 0.31358 0
M  V30 12590 H 1170.08 0.73137 -0.0909255 0
M  V30 12591 H 1172.73 1.67312 -0.900365 0
M  V30 12592 H 1170.88 3.8777 0.23805 0
M  V30 12593 H 1172.55 3.95735 -2.37047 0
M  V30 12594 H 1170.79 3.6853 -2.28841 0
M  V30 12595 H 1171.46 5.23158 -1.76095 0
M  V30 12596 H 1173.94 4.15789 -0.160939 0
M  V30 12597 H 1172.81 5.48409 0.232184 0
M  V30 12598 H 1173.07 4.19474 1.39621 0
M  V30 12599 N 1172.13 0.454803 1.50895 0
M  V30 12600 C 1173.38 -0.105562 2.01824 0
M  V30 12601 C 1173.7 -1.41673 1.33992 0
M  V30 12602 O 1172.97 -1.89929 0.479994 0
M  V30 12603 H 1171.55 -0.0420011 0.745818 0
M  V30 12604 H 1174.21 0.601504 1.85386 0
M  V30 12605 H 1173.31 -0.268872 3.1094 0
M  V30 12606 N 1173.61 -1.56489 0.186789 0
M  V30 12607 C 1174.56 -2.20034 -0.754164 0
M  V30 12608 C 1175.55 -1.16899 -1.22601 0
M  V30 12609 O 1176.76 -1.35064 -1.18987 0
M  V30 12610 H 1173.13 -0.705058 -0.261529 0
M  V30 12611 H 1175.11 -2.97766 -0.194418 0
M  V30 12612 C 1173.85 -2.86733 -1.9667 0
M  V30 12613 H 1173.18 -3.65831 -1.61268 0
M  V30 12614 H 1174.62 -3.34645 -2.60363 0
M  V30 12615 C 1173.08 -1.87325 -2.8002 0
M  V30 12616 O 1173.61 -1.36835 -3.77676 0
M  V30 12617 N 1171.81 -1.55738 -2.45345 0
M  V30 12618 H 1171.36 -1.9699 -1.6599 0
M  V30 12619 H 1171.32 -0.894805 -3.01398 0
M  V30 12620 N 1175.09 0.086862 -1.5736 0
M  V30 12621 C 1176.02 1.10538 -2.05678 0
M  V30 12622 C 1177 1.41281 -0.947293 0
M  V30 12623 O 1178.19 1.51169 -1.21908 0
M  V30 12624 C 1175.32 2.42302 -2.48812 0
M  V30 12625 C 1174.27 2.25948 -3.63499 0
M  V30 12626 C 1173.6 3.62961 -3.92637 0
M  V30 12627 C 1174.9 1.69319 -4.94094 0
M  V30 12628 H 1176.59 0.703371 -2.91021 0
M  V30 12629 H 1174.14 0.336895 -1.40004 0
M  V30 12630 H 1176.09 3.13833 -2.81224 0
M  V30 12631 H 1174.81 2.84454 -1.60479 0
M  V30 12632 H 1173.47 1.5686 -3.31347 0
M  V30 12633 H 1173.12 4.02656 -3.01459 0
M  V30 12634 H 1172.82 3.52862 -4.69853 0
M  V30 12635 H 1174.34 4.35946 -4.27531 0
M  V30 12636 H 1175.76 2.30699 -5.24834 0
M  V30 12637 H 1174.15 1.69957 -5.7553 0
M  V30 12638 H 1175.22 0.653318 -4.80479 0
M  V30 12639 N 1176.57 1.53483 0.357892 0
M  V30 12640 C 1177.81 1.70289 1.10134 0
M  V30 12641 C 1178.15 0.457296 1.88739 0
M  V30 12642 O 1177.42 -0.545527 1.86693 0
M  V30 12643 C 1177.7 2.95755 2.05429 0
M  V30 12644 C 1177.56 4.30489 1.30382 0
M  V30 12645 C 1178.88 3.16844 3.05447 0
M  V30 12646 H 1176 0.61965 0.399003 0
M  V30 12647 H 1178.64 1.86133 0.381357 0
M  V30 12648 H 1176.79 2.82377 2.66825 0
M  V30 12649 H 1178.46 4.55692 0.71711 0
M  V30 12650 H 1176.7 4.2955 0.605712 0
M  V30 12651 H 1177.37 5.14427 2.00171 0
M  V30 12652 H 1179.85 3.29458 2.54159 0
M  V30 12653 H 1178.73 4.06053 3.69341 0
M  V30 12654 H 1178.99 2.32476 3.76041 0
M  V30 12655 N 1178.05 -0.61812 1.44973 0
M  V30 12656 C 1179.29 -1.3774 1.48439 0
M  V30 12657 C 1179.62 -1.94117 0.121999 0
M  V30 12658 O 1178.88 -1.749 -0.877974 0
M  V30 12659 C 1179.17 -2.55143 2.50274 0
M  V30 12660 C 1178.84 -2.16976 3.95262 0
M  V30 12661 C 1177.5 -2.06281 4.34743 0
M  V30 12662 C 1179.85 -1.8703 4.86486 0
M  V30 12663 C 1177.18 -1.63846 5.63357 0
M  V30 12664 C 1179.53 -1.46085 6.15501 0
M  V30 12665 C 1178.2 -1.3394 6.53924 0
M  V30 12666 H 1177.47 -0.504026 0.543175 0
M  V30 12667 H 1180.12 -0.699685 1.7826 0
M  V30 12668 H 1178.42 -3.28205 2.13983 0
M  V30 12669 H 1180.12 -3.13373 2.50197 0
M  V30 12670 H 1176.71 -2.26223 3.64034 0
M  V30 12671 H 1180.89 -1.94196 4.56729 0
M  V30 12672 H 1176.15 -1.53058 5.91932 0
M  V30 12673 H 1180.32 -1.21956 6.85638 0
M  V30 12674 H 1177.95 -1.00832 7.53483 0
M  V30 12675 N 1179.52 -1.32087 -0.859693 0
M  V30 12676 C 1180.75 -1.25348 -1.64607 0
M  V30 12677 C 1181.17 0.179425 -1.87945 0
M  V30 12678 O 1180.52 1.11487 -1.44489 0
M  V30 12679 C 1180.57 -2.0047 -3.00822 0
M  V30 12680 O 1180.3 -3.38169 -2.7852 0
M  V30 12681 C 1181.8 -2.00694 -3.95268 0
M  V30 12682 H 1179.02 -0.432692 -0.512854 0
M  V30 12683 H 1181.56 -1.7413 -1.07234 0
M  V30 12684 H 1179.72 -1.55423 -3.54855 0
M  V30 12685 H 1180.13 -3.76553 -3.65113 0
M  V30 12686 H 1181.6 -2.57748 -4.88129 0
M  V30 12687 H 1182.08 -0.99196 -4.27851 0
M  V30 12688 H 1182.69 -2.45666 -3.47172 0
M  V30 12689 N 1181 1.07532 -1.15215 0
M  V30 12690 C 1182.25 1.79737 -0.924062 0
M  V30 12691 C 1182.57 1.87072 0.550356 0
M  V30 12692 O 1181.84 1.37029 1.4 0
M  V30 12693 H 1180.42 0.665704 -0.338891 0
M  V30 12694 H 1183.08 1.29961 -1.45245 0
M  V30 12695 H 1182.18 2.82256 -1.33184 0
M  V30 12696 N 1182.48 0.948665 1.2585 0
M  V30 12697 C 1183.73 0.595938 1.92695 0
M  V30 12698 C 1184.04 -0.870229 1.75175 0
M  V30 12699 O 1185.25 -1.33266 2.36543 0
M  V30 12700 C 1183.7 1.01511 3.45288 0
M  V30 12701 C 1183.31 2.50341 3.71528 0
M  V30 12702 C 1185.06 0.734635 4.18095 0
M  V30 12703 C 1182.96 2.8609 5.17597 0
M  V30 12704 H 1181.89 0.219171 0.721443 0
M  V30 12705 H 1184.54 1.15231 1.42807 0
M  V30 12706 H 1182.93 0.387201 3.94102 0
M  V30 12707 H 1184.1 3.18101 3.3339 0
M  V30 12708 H 1182.42 2.75797 3.11969 0
M  V30 12709 H 1185.01 0.977962 5.25681 0
M  V30 12710 H 1185.36 -0.328807 4.14999 0
M  V30 12711 H 1185.89 1.32262 3.75169 0
M  V30 12712 H 1182.63 3.91427 5.25799 0
M  V30 12713 H 1182.15 2.22999 5.56805 0
M  V30 12714 H 1183.83 2.74959 5.85668 0
M  V30 12715 N 1183.96 -1.40369 0.716545 0
M  V30 12716 C 1185.21 -2.00869 0.256466 0
M  V30 12717 C 1185.53 -1.56816 -1.15061 0
M  V30 12718 O 1184.79 -0.779696 -1.79497 0
M  V30 12719 C 1185.09 -3.56257 0.285583 0
M  V30 12720 C 1184.75 -4.19897 1.64309 0
M  V30 12721 C 1183.42 -4.36994 2.01469 0
M  V30 12722 C 1185.77 -4.55385 2.53524 0
M  V30 12723 C 1183.1 -4.86862 3.27387 0
M  V30 12724 C 1185.45 -5.06653 3.78795 0
M  V30 12725 C 1184.11 -5.21959 4.16071 0
M  V30 12726 H 1183.38 -0.735033 0.0938475 0
M  V30 12727 H 1186.03 -1.67966 0.919765 0
M  V30 12728 H 1184.33 -3.89075 -0.461287 0
M  V30 12729 H 1186.03 -4.00903 -0.0882496 0
M  V30 12730 H 1182.62 -4.06978 1.34413 0
M  V30 12731 H 1186.8 -4.41811 2.2609 0
M  V30 12732 H 1182.06 -4.96897 3.56235 0
M  V30 12733 H 1186.23 -5.33089 4.48095 0
M  V30 12734 H 1183.86 -5.60362 5.1371 0
M  V30 12735 N 1185.44 -0.462799 -1.50652 0
M  V30 12736 C 1186.66 0.0929761 -2.06691 0
M  V30 12737 C 1187.08 1.34241 -1.32758 0
M  V30 12738 O 1186.44 1.78187 -0.394427 0
M  V30 12739 C 1186.49 0.389492 -3.59396 0
M  V30 12740 O 1186.21 -0.810379 -4.3054 0
M  V30 12741 C 1187.71 0.993147 -4.32032 0
M  V30 12742 H 1184.93 -0.00338664 -0.670991 0
M  V30 12743 H 1187.47 -0.649201 -1.93922 0
M  V30 12744 H 1185.63 1.08159 -3.71995 0
M  V30 12745 H 1186.04 -0.54996 -5.21609 0
M  V30 12746 H 1187.52 1.15044 -5.39878 0
M  V30 12747 H 1187.99 1.98106 -3.91983 0
M  V30 12748 H 1188.6 0.339677 -4.23941 0
M  V30 12749 N 1186.91 1.56388 -0.195085 0
M  V30 12750 C 1187.88 2.17859 0.712053 0
M  V30 12751 C 1188.88 1.13304 1.141 0
M  V30 12752 O 1190.07 1.38689 1.05409 0
M  V30 12753 C 1187.2 2.78065 1.97213 0
M  V30 12754 H 1188.39 2.9938 0.176529 0
M  V30 12755 H 1185.95 1.56205 0.0545322 0
M  V30 12756 H 1186.68 2.00342 2.55017 0
M  V30 12757 H 1186.47 3.54603 1.67329 0
M  V30 12758 H 1187.96 3.25266 2.619 0
M  V30 12759 N 1188.39 -0.0785156 1.57404 0
M  V30 12760 C 1189.3 -1.11203 2.0657 0
M  V30 12761 C 1190.32 -1.42822 0.993872 0
M  V30 12762 O 1191.49 -1.53133 1.30814 0
M  V30 12763 C 1188.56 -2.40812 2.4942 0
M  V30 12764 C 1187.62 -2.16225 3.70871 0
M  V30 12765 C 1186.85 -3.39654 4.11668 0
M  V30 12766 O 1187.08 -4.48521 3.524 0
M  V30 12767 O 1186.01 -3.28263 5.04507 0
M  V30 12768 H 1189.84 -0.724381 2.94935 0
M  V30 12769 H 1187.42 -0.292184 1.46515 0
M  V30 12770 H 1189.3 -3.17101 2.77534 0
M  V30 12771 H 1187.98 -2.7897 1.64187 0
M  V30 12772 H 1186.89 -1.37663 3.4785 0
M  V30 12773 H 1188.22 -1.82951 4.56935 0
M  V30 12774 N 1189.87 -1.5367 -0.349747 0
M  V30 12775 C 1190.8 -1.7603 -1.4522 0
M  V30 12776 C 1191.78 -0.609171 -1.50758 0
M  V30 12777 O 1192.97 -0.843613 -1.68569 0
M  V30 12778 C 1190.09 -1.85336 -2.83493 0
M  V30 12779 C 1189.14 -3.07438 -2.95608 0
M  V30 12780 S 1189.97 -4.66625 -2.62719 0
M  V30 12781 C 1191.13 -4.78802 -4.03112 0
M  V30 12782 H 1191.36 -2.69263 -1.26035 0
M  V30 12783 H 1188.89 -1.4446 -0.545044 0
M  V30 12784 H 1190.85 -1.91383 -3.63157 0
M  V30 12785 H 1189.51 -0.931267 -2.99977 0
M  V30 12786 H 1188.71 -3.10606 -3.96913 0
M  V30 12787 H 1188.31 -2.99585 -2.23886 0
M  V30 12788 H 1190.6 -4.5983 -4.97557 0
M  V30 12789 H 1191.54 -5.80886 -4.04941 0
M  V30 12790 H 1191.95 -4.07305 -3.90849 0
M  V30 12791 N 1191.35 0.610423 -1.45298 0
M  V30 12792 C 1192.6 1.36951 -1.49167 0
M  V30 12793 C 1192.92 1.9405 -0.132292 0
M  V30 12794 O 1192.18 1.75363 0.868686 0
M  V30 12795 C 1192.48 2.53812 -2.51623 0
M  V30 12796 C 1192.14 2.14877 -3.96407 0
M  V30 12797 C 1190.81 2.03972 -4.35831 0
M  V30 12798 C 1193.16 1.84448 -4.87472 0
M  V30 12799 C 1190.49 1.60856 -5.64218 0
M  V30 12800 C 1192.84 1.42818 -6.16268 0
M  V30 12801 C 1191.5 1.3047 -6.54625 0
M  V30 12802 H 1190.77 0.501138 -0.54584 0
M  V30 12803 H 1193.42 0.690221 -1.78629 0
M  V30 12804 H 1191.72 3.27066 -2.1572 0
M  V30 12805 H 1193.42 3.12041 -2.51856 0
M  V30 12806 H 1190.01 2.2429 -3.65229 0
M  V30 12807 H 1194.19 1.91771 -4.57753 0
M  V30 12808 H 1189.45 1.49916 -5.92735 0
M  V30 12809 H 1193.62 1.18318 -6.86275 0
M  V30 12810 H 1191.25 0.968347 -7.54007 0
M  V30 12811 N 1192.83 1.32541 0.852676 0
M  V30 12812 C 1193.76 1.24254 1.97694 0
M  V30 12813 C 1194.74 0.125971 1.69633 0
M  V30 12814 O 1195.92 0.31347 1.91653 0
M  V30 12815 C 1193.05 0.966874 3.3357 0
M  V30 12816 C 1192.01 2.0449 3.75989 0
M  V30 12817 C 1191.33 1.6216 5.09518 0
M  V30 12818 C 1192.63 3.46013 3.91244 0
M  V30 12819 H 1194.33 2.18317 2.04886 0
M  V30 12820 H 1191.87 1.05101 0.984371 0
M  V30 12821 H 1193.83 0.895444 4.11776 0
M  V30 12822 H 1192.55 -0.0093893 3.26599 0
M  V30 12823 H 1191.21 2.10651 3.00036 0
M  V30 12824 H 1190.86 0.632729 4.99005 0
M  V30 12825 H 1190.56 2.3429 5.38871 0
M  V30 12826 H 1192.08 1.56457 5.90215 0
M  V30 12827 H 1193.49 3.4243 4.59799 0
M  V30 12828 H 1191.89 4.1651 4.32017 0
M  V30 12829 H 1192.96 3.8553 2.941 0
M  V30 12830 N 1194.3 -1.0692 1.15784 0
M  V30 12831 C 1195.25 -2.14235 0.858616 0
M  V30 12832 C 1196.22 -1.65006 -0.190295 0
M  V30 12833 O 1197.41 -1.90715 -0.0568853 0
M  V30 12834 C 1194.55 -3.43229 0.35888 0
M  V30 12835 C 1193.66 -4.06225 1.46987 0
M  V30 12836 C 1192.79 -5.2307 0.925812 0
M  V30 12837 C 1191.83 -5.78037 2.01345 0
M  V30 12838 N 1190.97 -6.86206 1.48544 0
M  V30 12839 H 1195.81 -2.3917 1.77769 0
M  V30 12840 H 1193.35 -1.17354 0.886925 0
M  V30 12841 H 1195.31 -4.17169 0.0508198 0
M  V30 12842 H 1193.94 -3.18531 -0.523259 0
M  V30 12843 H 1192.99 -3.29895 1.89403 0
M  V30 12844 H 1194.3 -4.43081 2.29088 0
M  V30 12845 H 1193.45 -6.04011 0.570555 0
M  V30 12846 H 1192.19 -4.87644 0.0740371 0
M  V30 12847 H 1191.2 -4.95738 2.37748 0
M  V30 12848 H 1192.42 -6.15517 2.86907 0
M  V30 12849 H 1190.37 -6.52711 0.656092 0
M  V30 12850 H 1190.29 -7.2197 2.24266 0
M  V30 12851 H 1191.55 -7.70842 1.15856 0
M  V30 12852 N 1195.78 -0.955326 -1.25345 0
M  V30 12853 C 1197.03 -0.606149 -1.92377 0
M  V30 12854 C 1197.34 0.860927 -1.75634 0
M  V30 12855 O 1198.55 1.3201 -2.37246 0
M  V30 12856 C 1197.01 -1.03341 -3.44744 0
M  V30 12857 C 1196.61 -2.52308 -3.70196 0
M  V30 12858 C 1198.36 -0.756797 -4.17699 0
M  V30 12859 C 1196.27 -2.88831 -5.16072 0
M  V30 12860 H 1195.2 -0.222994 -0.720271 0
M  V30 12861 H 1197.85 -1.15987 -1.42194 0
M  V30 12862 H 1196.23 -0.408096 -3.93892 0
M  V30 12863 H 1197.4 -3.19864 -3.31698 0
M  V30 12864 H 1195.72 -2.77448 -3.10502 0
M  V30 12865 H 1198.31 -1.00583 -5.25154 0
M  V30 12866 H 1198.66 0.306794 -4.15168 0
M  V30 12867 H 1199.19 -1.34249 -3.74462 0
M  V30 12868 H 1195.93 -3.9421 -5.23716 0
M  V30 12869 H 1195.45 -2.25948 -5.55614 0
M  V30 12870 H 1197.13 -2.78061 -5.84201 0
M  V30 12871 N 1197.26 1.39987 -0.723979 0
M  V30 12872 C 1198.51 1.99964 -0.26406 0
M  V30 12873 C 1198.82 1.58084 1.1519 0
M  V30 12874 O 1200.03 2.10819 1.71077 0
M  V30 12875 C 1198.49 3.57427 -0.421174 0
M  V30 12876 C 1198.09 4.08276 -1.84432 0
M  V30 12877 C 1199.84 4.24494 -0.0224734 0
M  V30 12878 C 1197.74 5.58272 -1.95157 0
M  V30 12879 H 1196.67 0.747995 -0.0949728 0
M  V30 12880 H 1199.33 1.60122 -0.896276 0
M  V30 12881 H 1197.71 3.95011 0.279762 0
M  V30 12882 H 1198.88 3.82051 -2.57631 0
M  V30 12883 H 1197.2 3.53834 -2.19523 0
M  V30 12884 H 1199.79 5.34637 -0.0817744 0
M  V30 12885 H 1200.14 4.03593 1.02069 0
M  V30 12886 H 1200.67 3.92046 -0.67416 0
M  V30 12887 H 1197.41 5.84038 -2.97623 0
M  V30 12888 H 1196.93 5.86335 -1.2638 0
M  V30 12889 H 1198.61 6.23509 -1.72759 0
M  V30 12890 N 1198.74 0.470782 1.50404 0
M  V30 12891 C 1199.7 -0.312227 2.27063 0
M  V30 12892 C 1200.7 -0.920709 1.31832 0
M  V30 12893 O 1201.89 -0.789937 1.5526 0
M  V30 12894 C 1199.02 -1.44477 3.0877 0
M  V30 12895 H 1200.22 0.36006 2.97731 0
M  V30 12896 H 1197.77 0.224837 1.54674 0
M  V30 12897 H 1198.51 -2.15212 2.42599 0
M  V30 12898 H 1198.29 -1.01426 3.78755 0
M  V30 12899 H 1199.78 -1.99713 3.66749 0
M  V30 12900 N 1200.22 -1.56282 0.203376 0
M  V30 12901 C 1201.15 -2.15395 -0.753684 0
M  V30 12902 C 1202.13 -1.09303 -1.20381 0
M  V30 12903 O 1203.31 -1.37461 -1.28984 0
M  V30 12904 C 1200.44 -2.71954 -2.01888 0
M  V30 12905 C 1199.49 -3.9071 -1.71021 0
M  V30 12906 S 1200.32 -5.28695 -0.850999 0
M  V30 12907 C 1201.47 -5.88681 -2.12615 0
M  V30 12908 H 1201.71 -2.96237 -0.251196 0
M  V30 12909 H 1199.24 -1.54396 -0.0117238 0
M  V30 12910 H 1201.2 -3.05183 -2.74542 0
M  V30 12911 H 1199.86 -1.91138 -2.49249 0
M  V30 12912 H 1199.05 -4.28723 -2.64977 0
M  V30 12913 H 1198.65 -3.58533 -1.06442 0
M  V30 12914 H 1200.95 -6.03548 -3.07792 0
M  V30 12915 H 1201.89 -6.85096 -1.79021 0
M  V30 12916 H 1202.3 -5.17356 -2.2584 0
M  V30 12917 N 1201.7 0.070167 -1.57444 0
M  V30 12918 C 1202.97 0.802108 -1.78397 0
M  V30 12919 C 1203.35 1.95706 -0.791356 0
M  V30 12920 O 1202.7 2.27827 0.17518 0
M  V30 12921 C 1202.91 1.27354 -3.24934 0
M  V30 12922 C 1204.26 1.70626 -3.88808 0
M  V30 12923 O 1205.28 1.36916 -3.28835 0
M  V30 12924 O 1204.14 2.33041 -4.94322 0
M  V30 12925 H 1201.24 0.384483 -0.73219 0
M  V30 12926 H 1203.78 0.0501168 -1.69626 0
M  V30 12927 H 1202.55 0.447204 -3.88736 0
M  V30 12928 H 1202.18 2.0868 -3.38435 0
M  V30 12929 N 1203.17 1.53854 0.341593 0
M  V30 12930 C 1204.58 1.62623 0.917093 0
M  V30 12931 C 1204.94 0.508781 1.89488 0
M  V30 12932 O 1204.06 -0.361171 2.13365 0
M  V30 12933 C 1204.66 2.94775 1.67012 0
M  V30 12934 C 1203.21 3.058 2.19461 0
M  V30 12935 C 1202.36 2.58082 1.01433 0
M  V30 12936 H 1205.31 1.58248 0.119674 0
M  V30 12937 H 1205.33 2.83924 2.53313 0
M  V30 12938 H 1204.85 3.76085 0.958221 0
M  V30 12939 H 1202.95 2.29128 2.93821 0
M  V30 12940 H 1203.06 4.11302 2.45698 0
M  V30 12941 H 1201.42 2.13537 1.38831 0
M  V30 12942 H 1202.21 3.41833 0.317033 0
M  V30 12943 N 1204.65 -0.602709 1.4562 0
M  V30 12944 C 1205.88 -1.38608 1.53203 0
M  V30 12945 C 1206.29 -1.88478 0.165098 0
M  V30 12946 O 1205.63 -1.63142 -0.844421 0
M  V30 12947 C 1205.69 -2.62214 2.45935 0
M  V30 12948 C 1205.36 -2.3395 3.92577 0
M  V30 12949 C 1206.36 -1.94011 4.82344 0
M  V30 12950 C 1204.04 -2.46711 4.37537 0
M  V30 12951 C 1206.03 -1.67202 6.15079 0
M  V30 12952 C 1203.72 -2.19515 5.70313 0
M  V30 12953 C 1204.72 -1.79823 6.58903 0
M  V30 12954 O 1204.41 -1.52948 7.89216 0
M  V30 12955 H 1204.14 -0.43052 0.52118 0
M  V30 12956 H 1206.69 -0.741655 1.91543 0
M  V30 12957 H 1204.92 -3.29394 2.02575 0
M  V30 12958 H 1206.61 -3.24264 2.44147 0
M  V30 12959 H 1207.38 -1.83684 4.48871 0
M  V30 12960 H 1203.26 -2.76572 3.68821 0
M  V30 12961 H 1206.8 -1.36146 6.84186 0
M  V30 12962 H 1202.7 -2.2946 6.03339 0
M  V30 12963 H 1203.47 -1.6696 8.01291 0
M  V30 12964 N 1206.13 -1.32992 -0.845635 0
M  V30 12965 C 1207.36 -1.26903 -1.63031 0
M  V30 12966 C 1207.77 0.163589 -1.88491 0
M  V30 12967 O 1207.11 1.11402 -1.46066 0
M  V30 12968 C 1207.17 -1.96843 -3.00821 0
M  V30 12969 C 1206.84 -3.46164 -2.98362 0
M  V30 12970 C 1207.83 -4.41488 -2.74562 0
M  V30 12971 C 1205.52 -3.88237 -3.18712 0
M  V30 12972 C 1207.51 -5.7686 -2.71129 0
M  V30 12973 C 1205.2 -5.23715 -3.14905 0
M  V30 12974 C 1206.2 -6.17838 -2.91144 0
M  V30 12975 O 1205.89 -7.50836 -2.87228 0
M  V30 12976 H 1205.62 -0.438806 -0.514223 0
M  V30 12977 H 1208.17 -1.75817 -1.06196 0
M  V30 12978 H 1206.4 -1.42511 -3.59482 0
M  V30 12979 H 1208.09 -1.84343 -3.61625 0
M  V30 12980 H 1208.86 -4.10308 -2.58598 0
M  V30 12981 H 1204.74 -3.1539 -3.36229 0
M  V30 12982 H 1208.28 -6.50299 -2.52502 0
M  V30 12983 H 1204.18 -5.54523 -3.30416 0
M  V30 12984 H 1204.94 -7.60304 -3.03118 0
M  V30 12985 N 1207.61 1.06304 -1.1635 0
M  V30 12986 C 1208.84 1.82534 -0.967725 0
M  V30 12987 C 1209.25 1.82816 0.487338 0
M  V30 12988 O 1208.59 1.24581 1.35001 0
M  V30 12989 C 1208.65 3.30349 -1.4181 0
M  V30 12990 C 1208.31 3.53769 -2.89303 0
M  V30 12991 C 1209.31 3.46826 -3.87308 0
M  V30 12992 C 1207 3.81094 -3.2722 0
M  V30 12993 C 1208.99 3.66874 -5.21232 0
M  V30 12994 C 1206.68 4.00792 -4.61313 0
M  V30 12995 C 1207.68 3.93679 -5.58127 0
M  V30 12996 O 1207.36 4.12839 -6.89796 0
M  V30 12997 H 1207.1 0.582407 -0.343189 0
M  V30 12998 H 1209.65 1.35022 -1.54784 0
M  V30 12999 H 1207.88 3.78722 -0.781456 0
M  V30 13000 H 1209.57 3.88072 -1.18976 0
M  V30 13001 H 1210.33 3.25706 -3.59361 0
M  V30 13002 H 1206.21 3.85739 -2.5244 0
M  V30 13003 H 1209.76 3.61238 -5.96786 0
M  V30 13004 H 1205.65 4.214 -4.8897 0
M  V30 13005 H 1206.42 4.30128 -6.96371 0
M  V30 13006 N 1209.09 0.96196 1.24836 0
M  V30 13007 C 1210.33 0.620715 1.92752 0
M  V30 13008 C 1210.66 -0.843308 1.75267 0
M  V30 13009 O 1209.92 -1.62141 1.09584 0
M  V30 13010 C 1210.21 0.934481 3.44967 0
M  V30 13011 C 1209.88 2.38572 3.82615 0
M  V30 13012 C 1208.54 2.78238 3.92603 0
M  V30 13013 C 1210.89 3.32784 4.01129 0
M  V30 13014 C 1208.22 4.11169 4.18518 0
M  V30 13015 C 1210.57 4.65336 4.28539 0
M  V30 13016 C 1209.24 5.04788 4.36745 0
M  V30 13017 H 1208.51 0.227136 0.70533 0
M  V30 13018 H 1211.16 1.21237 1.48236 0
M  V30 13019 H 1209.46 0.260516 3.90933 0
M  V30 13020 H 1211.16 0.648923 3.95715 0
M  V30 13021 H 1207.75 2.06812 3.75402 0
M  V30 13022 H 1211.93 3.03325 3.9282 0
M  V30 13023 H 1207.19 4.41368 4.23089 0
M  V30 13024 H 1211.36 5.3831 4.41809 0
M  V30 13025 H 1208.99 6.07816 4.56579 0
M  V30 13026 N 1210.56 -1.39601 0.731392 0
M  V30 13027 C 1211.5 -2.29147 0.0494974 0
M  V30 13028 C 1212.51 -1.46635 -0.707248 0
M  V30 13029 O 1213.7 -1.6975 -0.552008 0
M  V30 13030 C 1210.8 -3.25191 -0.954152 0
M  V30 13031 C 1209.97 -4.36629 -0.259674 0
M  V30 13032 C 1209.03 -5.13007 -1.17092 0
M  V30 13033 O 1208.06 -5.65479 -0.64976 0
M  V30 13034 N 1209.26 -5.23865 -2.50092 0
M  V30 13035 H 1212.02 -2.88308 0.818433 0
M  V30 13036 H 1209.58 -1.51142 0.580316 0
M  V30 13037 H 1211.58 -3.73161 -1.56629 0
M  V30 13038 H 1210.15 -2.67085 -1.62432 0
M  V30 13039 H 1209.37 -3.90582 0.532888 0
M  V30 13040 H 1210.65 -5.08317 0.221753 0
M  V30 13041 H 1210.05 -4.82745 -2.94913 0
M  V30 13042 H 1208.61 -5.75288 -3.0641 0
M  V30 13043 N 1212.04 -0.478751 -1.50152 0
M  V30 13044 C 1212.95 0.316554 -2.32455 0
M  V30 13045 C 1213.97 0.98871 -1.4318 0
M  V30 13046 O 1215.14 0.974998 -1.76226 0
M  V30 13047 C 1212.21 1.3799 -3.18056 0
M  V30 13048 C 1211.27 0.723534 -4.23159 0
M  V30 13049 C 1210.5 1.73621 -5.0467 0
M  V30 13050 O 1210.73 2.96362 -4.87366 0
M  V30 13051 O 1209.66 1.30381 -5.87609 0
M  V30 13052 H 1213.49 -0.356491 -3.016 0
M  V30 13053 H 1211.07 -0.24046 -1.47452 0
M  V30 13054 H 1212.95 1.99565 -3.71149 0
M  V30 13055 H 1211.63 2.03627 -2.5163 0
M  V30 13056 H 1210.54 0.0686296 -3.74037 0
M  V30 13057 H 1211.87 0.109979 -4.92077 0
M  V30 13058 N 1213.52 1.56172 -0.211661 0
M  V30 13059 C 1214.77 1.97648 0.421871 0
M  V30 13060 C 1215.09 1.10026 1.60995 0
M  V30 13061 O 1214.36 0.175109 1.95116 0
M  V30 13062 H 1212.94 0.729914 0.158852 0
M  V30 13063 H 1215.6 1.92542 -0.302254 0
M  V30 13064 H 1214.7 3.02834 0.754868 0
M  V30 13065 N 1215 -0.0618163 1.57479 0
M  V30 13066 C 1216.24 -0.754894 1.88873 0
M  V30 13067 C 1216.6 -1.74679 0.806539 0
M  V30 13068 O 1215.89 -1.90672 -0.188301 0
M  V30 13069 C 1216.09 -1.4939 3.2468 0
M  V30 13070 C 1215.92 -0.575088 4.46008 0
M  V30 13071 C 1214.69 -0.208295 5.04871 0
M  V30 13072 C 1216.88 0.132502 5.14129 0
M  V30 13073 N 1214.87 0.715201 6.0972 0
M  V30 13074 C 1216.24 0.912821 6.13243 0
M  V30 13075 C 1218.29 0.20292 4.97486 0
M  V30 13076 C 1216.99 1.75703 6.97511 0
M  V30 13077 C 1219.02 1.03414 5.82288 0
M  V30 13078 C 1218.38 1.80248 6.80948 0
M  V30 13079 H 1214.48 -0.251354 0.740503 0
M  V30 13080 H 1217.07 -0.0160307 1.94693 0
M  V30 13081 H 1215.24 -2.20343 3.1985 0
M  V30 13082 H 1216.97 -2.13678 3.43691 0
M  V30 13083 H 1213.72 -0.563353 4.70237 0
M  V30 13084 H 1214.15 1.17049 6.66805 0
M  V30 13085 H 1218.79 -0.376779 4.21118 0
M  V30 13086 H 1216.51 2.34766 7.73247 0
M  V30 13087 H 1220.09 1.09173 5.71465 0
M  V30 13088 H 1218.97 2.43529 7.45428 0
M  V30 13089 N 1216.48 -1.54033 -0.333429 0
M  V30 13090 C 1217.42 -1.83441 -1.43011 0
M  V30 13091 C 1218.42 -0.705592 -1.54006 0
M  V30 13092 O 1219.62 -0.889098 -1.56509 0
M  V30 13093 H 1216 -0.581326 -0.477037 0
M  V30 13094 H 1217.97 -2.75172 -1.15426 0
M  V30 13095 C 1216.72 -2.0698 -2.79382 0
M  V30 13096 H 1216.04 -2.93297 -2.71692 0
M  V30 13097 H 1217.48 -2.31517 -3.55212 0
M  V30 13098 C 1215.94 -0.85835 -3.25782 0
M  V30 13099 O 1216.47 -0.062739 -4.01651 0
M  V30 13100 N 1214.68 -0.672738 -2.82706 0
M  V30 13101 H 1214.22 -1.32136 -2.21128 0
M  V30 13102 H 1214.18 0.136347 -3.14104 0
M  V30 13103 N 1217.95 0.594978 -1.45938 0
M  V30 13104 C 1219.2 1.34976 -1.49881 0
M  V30 13105 C 1219.52 1.95025 -0.14983 0
M  V30 13106 O 1220.72 2.71417 -0.0669868 0
M  V30 13107 C 1219.18 2.44563 -2.6404 0
M  V30 13108 C 1218.79 1.9087 -4.05306 0
M  V30 13109 C 1220.53 3.21461 -2.77242 0
M  V30 13110 C 1218.44 2.98013 -5.10825 0
M  V30 13111 H 1217.37 0.507366 -0.55776 0
M  V30 13112 H 1220.02 0.636316 -1.72114 0
M  V30 13113 H 1218.4 3.1865 -2.35114 0
M  V30 13114 H 1219.57 1.23408 -4.43968 0
M  V30 13115 H 1217.89 1.26678 -3.96663 0
M  V30 13116 H 1220.49 4.01399 -3.53246 0
M  V30 13117 H 1220.83 3.73271 -1.84321 0
M  V30 13118 H 1221.36 2.54477 -3.05756 0
M  V30 13119 H 1218.1 2.51104 -6.05497 0
M  V30 13120 H 1217.62 3.64003 -4.7672 0
M  V30 13121 H 1219.3 3.62178 -5.36131 0
M  V30 13122 N 1219.43 1.33438 0.838571 0
M  V30 13123 C 1220.68 1.24912 1.59384 0
M  V30 13124 C 1221.01 -0.185017 1.93618 0
M  V30 13125 O 1220.26 -1.14229 1.58904 0
M  V30 13126 C 1220.56 2.07002 2.9135 0
M  V30 13127 C 1220.23 3.5619 2.76477 0
M  V30 13128 C 1218.89 3.96862 2.72129 0
M  V30 13129 C 1221.24 4.5099 2.61261 0
M  V30 13130 C 1218.57 5.30551 2.50464 0
M  V30 13131 C 1220.92 5.84841 2.4113 0
M  V30 13132 C 1219.59 6.24696 2.35183 0
M  V30 13133 H 1218.86 0.457084 0.583228 0
M  V30 13134 H 1221.5 1.65027 0.971506 0
M  V30 13135 H 1219.81 1.59665 3.57791 0
M  V30 13136 H 1221.5 1.97762 3.48843 0
M  V30 13137 H 1218.09 3.23896 2.80695 0
M  V30 13138 H 1222.28 4.20476 2.63655 0
M  V30 13139 H 1217.53 5.60468 2.44307 0
M  V30 13140 H 1221.71 6.57901 2.2834 0
M  V30 13141 H 1219.34 7.28225 2.18156 0
M  V30 13142 N 1220.91 -1.05686 1.16912 0
M  V30 13143 C 1222.19 -1.7546 0.864483 0
M  V30 13144 C 1222.57 -2.0128 -0.636359 0
M  V30 13145 O 1221.92 -1.64485 -1.58609 0
M  V30 13146 C 1222.13 -3.05134 1.69395 0
M  V30 13147 C 1223.47 -3.79176 1.91079 0
M  V30 13148 O 1224.5 -3.1499 1.66312 0
M  V30 13149 O 1223.36 -4.94496 2.32671 0
M  V30 13150 H 1220.45 -0.762748 0.319601 0
M  V30 13151 H 1223 -1.11899 1.27581 0
M  V30 13152 H 1221.77 -2.82063 2.71212 0
M  V30 13153 H 1221.39 -3.76431 1.28007 0
M  V30 13154 N 1222.39 -0.968567 -1.24324 0
M  V30 13155 C 1223.64 -0.629682 -1.9204 0
M  V30 13156 C 1223.96 0.837906 -1.7608 0
M  V30 13157 O 1223.23 1.5982 -1.13289 0
M  V30 13158 H 1221.81 -0.229901 -0.710742 0
M  V30 13159 H 1224.47 -1.22982 -1.512 0
M  V30 13160 H 1223.57 -0.871034 -2.99699 0
M  V30 13161 N 1223.87 1.39211 -0.738786 0
M  V30 13162 C 1225.11 2.00436 -0.28839 0
M  V30 13163 C 1225.44 1.58626 1.12552 0
M  V30 13164 O 1224.7 0.808154 1.78234 0
M  V30 13165 C 1225 3.55758 -0.342224 0
M  V30 13166 C 1224.66 4.1723 -1.70968 0
M  V30 13167 C 1223.32 4.33734 -2.08395 0
M  V30 13168 C 1225.68 4.51294 -2.60736 0
M  V30 13169 C 1223 4.81592 -3.35091 0
M  V30 13170 C 1225.36 5.00562 -3.86808 0
M  V30 13171 C 1224.02 5.15274 -4.24322 0
M  V30 13172 H 1223.29 0.733447 -0.105529 0
M  V30 13173 H 1225.94 1.66481 -0.94637 0
M  V30 13174 H 1224.24 3.8976 0.399331 0
M  V30 13175 H 1225.94 4.00993 0.0244582 0
M  V30 13176 H 1222.53 4.04788 -1.4087 0
M  V30 13177 H 1226.71 4.38158 -2.3309 0
M  V30 13178 H 1221.97 4.91167 -3.64095 0
M  V30 13179 H 1226.14 5.25892 -4.5652 0
M  V30 13180 H 1223.77 5.52119 -5.2256 0
M  V30 13181 N 1225.34 0.486708 1.49896 0
M  V30 13182 C 1226.59 -0.0646197 2.01596 0
M  V30 13183 C 1226.91 -1.39363 1.37249 0
M  V30 13184 O 1228.11 -2.03082 1.80194 0
M  V30 13185 C 1226.57 -0.16565 3.59519 0
M  V30 13186 C 1226.18 1.15586 4.32832 0
M  V30 13187 C 1227.92 -0.668103 4.1921 0
M  V30 13188 C 1225.83 1.01778 5.82576 0
M  V30 13189 H 1224.76 -0.0279241 0.753483 0
M  V30 13190 H 1227.41 0.623969 1.72566 0
M  V30 13191 H 1225.79 -0.918372 3.85204 0
M  V30 13192 H 1226.96 1.92076 4.1886 0
M  V30 13193 H 1225.28 1.59064 3.84822 0
M  V30 13194 H 1227.88 -0.788698 5.28851 0
M  V30 13195 H 1228.22 -1.66339 3.81624 0
M  V30 13196 H 1228.75 0.0276746 3.9779 0
M  V30 13197 H 1225.49 1.9869 6.24662 0
M  V30 13198 H 1225.01 0.293527 5.99081 0
M  V30 13199 H 1226.69 0.690693 6.43303 0
M  V30 13200 N 1226.82 -1.56058 0.219941 0
M  V30 13201 C 1228.07 -1.98554 -0.412808 0
M  V30 13202 C 1228.4 -1.10742 -1.5953 0
M  V30 13203 O 1227.68 -0.164757 -1.93801 0
M  V30 13204 C 1227.96 -3.4995 -0.848923 0
M  V30 13205 C 1227.81 -4.48535 0.337094 0
M  V30 13206 C 1229.13 -4.05703 -1.70567 0
M  V30 13207 H 1226.25 -0.721869 -0.148576 0
M  V30 13208 H 1228.89 -1.87356 0.315852 0
M  V30 13209 H 1227.04 -3.59624 -1.46979 0
M  V30 13210 H 1228.72 -4.50874 0.975216 0
M  V30 13211 H 1226.96 -4.22474 0.984798 0
M  V30 13212 H 1227.63 -5.51999 -0.0109665 0
M  V30 13213 H 1230.11 -3.98964 -1.18182 0
M  V30 13214 H 1228.98 -5.11955 -1.97972 0
M  V30 13215 H 1229.24 -3.52487 -2.66844 0
M  V30 13216 N 1228.3 0.053464 -1.57509 0
M  V30 13217 C 1229.53 0.765301 -1.92764 0
M  V30 13218 C 1229.95 1.69385 -0.817943 0
M  V30 13219 O 1229.31 1.7986 0.228075 0
M  V30 13220 C 1229.36 1.51938 -3.27028 0
M  V30 13221 O 1228.46 2.63121 -3.17555 0
M  V30 13222 H 1227.8 0.207567 -0.630723 0
M  V30 13223 H 1230.33 0.0162254 -2.04594 0
M  V30 13224 H 1230.34 1.89466 -3.6134 0
M  V30 13225 H 1229.02 0.838207 -4.07366 0
M  V30 13226 H 1227.59 2.28316 -2.94832 0
M  V30 13227 N 1229.78 1.54207 0.325255 0
M  V30 13228 C 1230.71 1.86467 1.40543 0
M  V30 13229 C 1231.69 0.721324 1.54048 0
M  V30 13230 O 1232.88 0.974905 1.67956 0
M  V30 13231 C 1230.01 2.09052 2.77335 0
M  V30 13232 C 1228.96 3.24893 2.78619 0
M  V30 13233 C 1228.29 3.32846 4.1847 0
M  V30 13234 C 1229.59 4.62582 2.42518 0
M  V30 13235 H 1231.28 2.76932 1.13794 0
M  V30 13236 H 1228.83 1.33248 0.545971 0
M  V30 13237 H 1230.78 2.30204 3.52964 0
M  V30 13238 H 1229.5 1.15335 3.05558 0
M  V30 13239 H 1228.16 3.03625 2.05444 0
M  V30 13240 H 1227.81 2.3669 4.43832 0
M  V30 13241 H 1227.51 4.10701 4.20237 0
M  V30 13242 H 1229.03 3.56231 4.95915 0
M  V30 13243 H 1230.45 4.83627 3.07861 0
M  V30 13244 H 1228.84 5.42974 2.55538 0
M  V30 13245 H 1229.91 4.64946 1.3767 0
M  V30 13246 N 1231.26 -0.58723 1.46251 0
M  V30 13247 C 1232.48 -1.37661 1.55126 0
M  V30 13248 C 1232.91 -1.87123 0.191489 0
M  V30 13249 O 1232.27 -1.6131 -0.827576 0
M  V30 13250 C 1232.31 -2.54324 2.5564 0
M  V30 13251 O 1231.42 -3.55617 2.0883 0
M  V30 13252 H 1230.76 -0.410154 0.522178 0
M  V30 13253 H 1233.29 -0.712738 1.91784 0
M  V30 13254 H 1233.3 -3.01301 2.75103 0
M  V30 13255 H 1231.97 -2.17675 3.54387 0
M  V30 13256 H 1230.55 -3.15151 1.99335 0
M  V30 13257 N 1232.74 -1.33881 -0.831482 0
M  V30 13258 C 1233.67 -1.27384 -1.95693 0
M  V30 13259 C 1234.65 -0.152943 -1.69411 0
M  V30 13260 O 1235.83 -0.34392 -1.9113 0
M  V30 13261 C 1232.96 -1.01982 -3.31989 0
M  V30 13262 C 1231.92 -2.10445 -3.72689 0
M  V30 13263 C 1231.24 -1.70245 -5.06873 0
M  V30 13264 C 1232.54 -3.52194 -3.8569 0
M  V30 13265 H 1234.24 -2.21549 -2.01386 0
M  V30 13266 H 1231.78 -1.06653 -0.967526 0
M  V30 13267 H 1233.73 -0.960841 -4.103 0
M  V30 13268 H 1232.46 -0.0425709 -3.26572 0
M  V30 13269 H 1231.12 -2.15398 -2.96647 0
M  V30 13270 H 1230.77 -0.712036 -4.97935 0
M  V30 13271 H 1230.47 -2.42834 -5.35075 0
M  V30 13272 H 1231.99 -1.65827 -5.87651 0
M  V30 13273 H 1233.4 -3.49701 -4.54293 0
M  V30 13274 H 1231.8 -4.23331 -4.25336 0
M  V30 13275 H 1232.87 -3.9016 -2.87929 0
M  V30 13276 N 1234.21 1.05064 -1.1747 0
M  V30 13277 C 1235.15 2.12334 -0.836028 0
M  V30 13278 C 1236.12 1.61393 0.197733 0
M  V30 13279 O 1237.31 1.88334 0.0789748 0
M  V30 13280 C 1234.44 3.37796 -0.24734 0
M  V30 13281 C 1233.48 4.07565 -1.25669 0
M  V30 13282 S 1234.31 4.55941 -2.80853 0
M  V30 13283 C 1235.47 5.84648 -2.23468 0
M  V30 13284 H 1235.7 2.40735 -1.74453 0
M  V30 13285 H 1233.24 1.17684 -0.999495 0
M  V30 13286 H 1235.19 4.1041 0.0858241 0
M  V30 13287 H 1233.86 3.07529 0.639124 0
M  V30 13288 H 1233.05 4.97715 -0.793465 0
M  V30 13289 H 1232.65 3.41022 -1.53557 0
M  V30 13290 H 1234.94 6.58067 -1.61104 0
M  V30 13291 H 1235.89 6.35719 -3.11877 0
M  V30 13292 H 1236.29 5.39272 -1.6687 0
M  V30 13293 N 1235.69 0.975146 1.23809 0
M  V30 13294 C 1236.6 0.51917 2.28783 0
M  V30 13295 C 1237.62 -0.423487 1.68768 0
M  V30 13296 O 1238.79 -0.294699 1.99232 0
M  V30 13297 C 1235.86 -0.176229 3.46252 0
M  V30 13298 C 1234.92 0.807177 4.21643 0
M  V30 13299 C 1234.15 0.144869 5.33503 0
M  V30 13300 O 1234.38 -1.06522 5.60365 0
M  V30 13301 O 1233.31 0.84079 5.95999 0
M  V30 13302 H 1237.14 1.39204 2.69919 0
M  V30 13303 H 1234.72 0.74253 1.29641 0
M  V30 13304 H 1236.6 -0.566547 4.17574 0
M  V30 13305 H 1235.28 -1.02394 3.07078 0
M  V30 13306 H 1234.18 1.2481 3.52666 0
M  V30 13307 H 1235.52 1.62354 4.64653 0
M  V30 13308 N 1237.17 -1.38817 0.746158 0
M  V30 13309 C 1238.1 -2.33144 0.128836 0
M  V30 13310 C 1239.08 -1.54487 -0.711873 0
M  V30 13311 O 1240.27 -1.82836 -0.654577 0
M  V30 13312 C 1237.4 -3.38639 -0.770772 0
M  V30 13313 C 1236.35 -4.27987 -0.0333669 0
M  V30 13314 C 1235.68 -5.24274 -1.05073 0
M  V30 13315 C 1236.98 -5.09915 1.13066 0
M  V30 13316 H 1238.67 -2.85019 0.916778 0
M  V30 13317 H 1236.22 -1.37039 0.442306 0
M  V30 13318 H 1238.17 -4.03587 -1.21225 0
M  V30 13319 H 1236.89 -2.8523 -1.59095 0
M  V30 13320 H 1235.55 -3.64534 0.388612 0
M  V30 13321 H 1235.2 -4.67156 -1.86478 0
M  V30 13322 H 1234.9 -5.84906 -0.562037 0
M  V30 13323 H 1236.42 -5.92099 -1.49169 0
M  V30 13324 H 1237.84 -5.68145 0.767084 0
M  V30 13325 H 1236.23 -5.79744 1.54972 0
M  V30 13326 H 1237.3 -4.4409 1.94709 0
M  V30 13327 N 1238.65 -0.49465 -1.49636 0
M  V30 13328 C 1239.9 0.0520143 -2.02033 0
M  V30 13329 C 1240.22 1.38071 -1.37701 0
M  V30 13330 O 1239.49 1.88589 -0.530181 0
M  V30 13331 H 1238.07 0.0222123 -0.74667 0
M  V30 13332 H 1240.73 -0.650445 -1.83726 0
M  V30 13333 H 1239.82 0.186337 -3.11543 0
M  V30 13334 N 1240.13 1.55939 -0.228214 0
M  V30 13335 C 1241.06 2.2357 0.6737 0
M  V30 13336 C 1242.04 1.20964 1.1959 0
M  V30 13337 O 1243.22 1.49568 1.23867 0
M  V30 13338 C 1240.35 2.92076 1.87906 0
M  V30 13339 C 1239.31 4.01211 1.49043 0
M  V30 13340 C 1238.63 4.57047 2.77511 0
M  V30 13341 C 1239.93 5.17914 0.67544 0
M  V30 13342 H 1241.63 2.99199 0.109806 0
M  V30 13343 H 1239.17 1.43908 0.0513732 0
M  V30 13344 H 1241.12 3.38083 2.51551 0
M  V30 13345 H 1239.85 2.13906 2.46803 0
M  V30 13346 H 1238.51 3.55945 0.877411 0
M  V30 13347 H 1238.16 3.75599 3.34566 0
M  V30 13348 H 1237.86 5.30707 2.52239 0
M  V30 13349 H 1239.38 5.05776 3.42087 0
M  V30 13350 H 1240.79 5.60261 1.21575 0
M  V30 13351 H 1239.19 5.97847 0.519536 0
M  V30 13352 H 1240.26 4.83866 -0.316495 0
M  V30 13353 N 1241.6 -0.0451101 1.57535 0
M  V30 13354 C 1242.57 -1.03521 2.0449 0
M  V30 13355 C 1243.57 -1.30009 0.946265 0
M  V30 13356 O 1244.76 -1.25282 1.21038 0
M  V30 13357 C 1241.89 -2.37221 2.44824 0
M  V30 13358 H 1243.08 -0.629943 2.93209 0
M  V30 13359 H 1240.64 -0.291544 1.53557 0
M  V30 13360 H 1241.37 -2.82528 1.59212 0
M  V30 13361 H 1241.16 -2.19329 3.25018 0
M  V30 13362 H 1242.65 -3.08337 2.81635 0
M  V30 13363 N 1243.08 -1.54377 -0.317073 0
M  V30 13364 C 1244.03 -1.84948 -1.41057 0
M  V30 13365 C 1245.02 -0.721887 -1.53249 0
M  V30 13366 O 1246.23 -0.905648 -1.55557 0
M  V30 13367 H 1242.61 -0.586353 -0.470844 0
M  V30 13368 H 1244.58 -2.7638 -1.12501 0
M  V30 13369 C 1243.33 -2.09932 -2.77171 0
M  V30 13370 H 1242.65 -2.96162 -2.68566 0
M  V30 13371 H 1244.09 -2.35272 -3.52737 0
M  V30 13372 C 1242.55 -0.892855 -3.24853 0
M  V30 13373 O 1243.08 -0.105336 -4.01562 0
M  V30 13374 N 1241.28 -0.702685 -2.81976 0
M  V30 13375 H 1240.83 -1.34474 -2.19715 0
M  V30 13376 H 1240.79 0.103024 -3.14231 0
M  V30 13377 N 1244.56 0.579466 -1.4656 0
M  V30 13378 C 1245.81 1.33954 -1.52264 0
M  V30 13379 C 1246.14 1.93409 -0.175089 0
M  V30 13380 O 1245.41 1.76654 0.81385 0
M  V30 13381 C 1245.7 2.46645 -2.6237 0
M  V30 13382 C 1245.55 1.92204 -4.06667 0
M  V30 13383 C 1246.87 3.48676 -2.68538 0
M  V30 13384 H 1243.99 0.485697 -0.554317 0
M  V30 13385 H 1246.63 0.650639 -1.78512 0
M  V30 13386 H 1244.78 3.0541 -2.40119 0
M  V30 13387 H 1246.45 1.37871 -4.40215 0
M  V30 13388 H 1244.7 1.23012 -4.15993 0
M  V30 13389 H 1245.37 2.73566 -4.79443 0
M  V30 13390 H 1247.84 2.99798 -2.88549 0
M  V30 13391 H 1246.72 4.24981 -3.47394 0
M  V30 13392 H 1246.98 4.06112 -1.74716 0
M  V30 13393 N 1246.04 1.3432 0.824371 0
M  V30 13394 C 1246.95 1.27847 1.96704 0
M  V30 13395 C 1247.96 0.18641 1.72999 0
M  V30 13396 O 1249.14 0.412623 1.97128 0
M  V30 13397 C 1246.21 1.03231 3.30975 0
M  V30 13398 C 1245.27 2.21579 3.67697 0
M  V30 13399 C 1244.5 1.98128 4.95561 0
M  V30 13400 O 1244.72 0.938798 5.62621 0
M  V30 13401 O 1243.66 2.85041 5.30128 0
M  V30 13402 H 1247.48 2.23974 2.05108 0
M  V30 13403 H 1245.07 1.14512 0.959554 0
M  V30 13404 H 1246.95 0.912784 4.11395 0
M  V30 13405 H 1245.62 0.101425 3.23541 0
M  V30 13406 H 1244.53 2.3909 2.87727 0
M  V30 13407 H 1245.86 3.13052 3.79815 0
M  V30 13408 N 1247.52 -1.0444 1.18026 0
M  V30 13409 C 1248.76 -1.77224 0.971391 0
M  V30 13410 C 1249.09 -1.88466 -0.500564 0
M  V30 13411 O 1248.36 -1.40692 -1.36317 0
M  V30 13412 H 1246.94 -0.656485 0.356422 0
M  V30 13413 H 1249.6 -1.26064 1.4864 0
M  V30 13414 H 1248.69 -2.78626 1.4062 0
M  V30 13415 N 1248.99 -0.981699 -1.2329 0
M  V30 13416 C 1249.92 -0.542441 -2.27112 0
M  V30 13417 C 1250.91 0.425034 -1.64704 0
M  V30 13418 O 1252.09 0.318114 -1.91577 0
M  V30 13419 C 1249.22 0.154668 -3.46955 0
M  V30 13420 C 1248.17 -0.73022 -4.21725 0
M  V30 13421 C 1247.5 0.0991766 -5.34608 0
M  V30 13422 C 1248.8 -2.02166 -4.81587 0
M  V30 13423 H 1250.49 -1.41024 -2.64107 0
M  V30 13424 H 1248.04 -0.679544 -1.26957 0
M  V30 13425 H 1249.99 0.473281 -4.18734 0
M  V30 13426 H 1248.72 1.05693 -3.09025 0
M  V30 13427 H 1247.38 -1.03231 -3.51765 0
M  V30 13428 H 1247.02 1.00201 -4.92919 0
M  V30 13429 H 1246.72 -0.489788 -5.85555 0
M  V30 13430 H 1248.25 0.412141 -6.09207 0
M  V30 13431 H 1249.66 -1.76773 -5.45366 0
M  V30 13432 H 1248.06 -2.55851 -5.42826 0
M  V30 13433 H 1249.13 -2.70766 -4.02261 0
M  V30 13434 N 1250.47 1.3842 -0.753509 0
M  V30 13435 C 1251.7 2.04929 -0.319174 0
M  V30 13436 C 1252.12 1.56457 1.04416 0
M  V30 13437 O 1251.48 0.716527 1.6654 0
M  V30 13438 C 1251.53 3.58887 -0.351054 0
M  V30 13439 O 1250.63 4.07166 0.654963 0
M  V30 13440 H 1249.97 0.648782 -0.141343 0
M  V30 13441 H 1252.5 1.77096 -1.02461 0
M  V30 13442 H 1252.51 4.075 -0.201907 0
M  V30 13443 H 1251.19 3.93525 -1.34576 0
M  V30 13444 H 1249.77 3.69921 0.470435 0
M  V30 13445 N 1251.95 0.502579 1.49372 0
M  V30 13446 C 1253.2 -0.0414423 2.02758 0
M  V30 13447 C 1253.53 -1.36499 1.38136 0
M  V30 13448 O 1252.8 -1.87487 0.517593 0
M  V30 13449 C 1253.09 -0.192333 3.59586 0
M  V30 13450 C 1252.94 1.15445 4.34733 0
M  V30 13451 C 1254.26 -0.932218 4.30114 0
M  V30 13452 H 1251.38 -0.0135869 0.736875 0
M  V30 13453 H 1254.02 0.654296 1.78379 0
M  V30 13454 H 1252.17 -0.78491 3.80488 0
M  V30 13455 H 1253.84 1.78603 4.25322 0
M  V30 13456 H 1252.09 1.74333 3.97228 0
M  V30 13457 H 1252.76 1.00216 5.42827 0
M  V30 13458 H 1255.23 -0.429632 4.13876 0
M  V30 13459 H 1254.11 -1.00664 5.39591 0
M  V30 13460 H 1254.37 -1.9763 3.95468 0
M  V30 13461 N 1253.43 -1.55816 0.23648 0
M  V30 13462 C 1254.36 -2.23924 -0.661834 0
M  V30 13463 C 1255.34 -1.21597 -1.18946 0
M  V30 13464 O 1256.52 -1.50222 -1.23073 0
M  V30 13465 C 1253.65 -2.93069 -1.86355 0
M  V30 13466 C 1252.61 -4.01996 -1.46913 0
M  V30 13467 C 1251.93 -4.58512 -2.75083 0
M  V30 13468 C 1253.23 -5.18265 -0.647964 0
M  V30 13469 H 1254.93 -2.99253 -0.0939368 0
M  V30 13470 H 1252.47 -1.43934 -0.0437407 0
M  V30 13471 H 1254.43 -3.39412 -2.49755 0
M  V30 13472 H 1253.15 -2.15212 -2.45665 0
M  V30 13473 H 1251.81 -3.56406 -0.858522 0
M  V30 13474 H 1251.46 -3.77368 -3.3257 0
M  V30 13475 H 1251.16 -5.32037 -2.49421 0
M  V30 13476 H 1252.68 -5.07583 -3.39399 0
M  V30 13477 H 1254.1 -5.60898 -1.18602 0
M  V30 13478 H 1252.49 -5.98114 -0.487823 0
M  V30 13479 H 1253.56 -4.83691 0.342151 0
M  V30 13480 N 1254.91 0.036755 -1.57557 0
M  V30 13481 C 1256.32 0.392264 -1.54704 0
M  V30 13482 C 1256.52 1.77076 -0.96157 0
M  V30 13483 O 1255.58 2.45766 -0.579263 0
M  V30 13484 C 1256.89 0.301168 -2.99188 0
M  V30 13485 C 1258.44 0.378813 -3.10699 0
M  V30 13486 C 1258.91 0.317249 -4.569 0
M  V30 13487 N 1260.41 0.376277 -4.61669 0
M  V30 13488 C 1261.14 0.351411 -5.72322 0
M  V30 13489 N 1260.64 0.279288 -6.92237 0
M  V30 13490 N 1262.43 0.400571 -5.60671 0
M  V30 13491 H 1254.58 -0.865455 -1.93968 0
M  V30 13492 H 1256.84 -0.328339 -0.889324 0
M  V30 13493 H 1256.55 -0.64582 -3.4572 0
M  V30 13494 H 1256.42 1.09784 -3.6087 0
M  V30 13495 H 1258.81 1.31623 -2.6412 0
M  V30 13496 H 1258.89 -0.447072 -2.51863 0
M  V30 13497 H 1258.54 -0.616469 -5.04145 0
M  V30 13498 H 1258.47 1.16114 -5.13639 0
M  V30 13499 H 1260.96 0.434843 -3.7539 0
M  V30 13500 H 1261.27 0.265202 -7.72345 0
M  V30 13501 H 1259.61 0.24545 -6.94566 0
M  V30 13502 H 1262.81 0.454854 -4.65885 0
M  V30 13503 H 1262.98 0.377724 -6.46898 0
M  V30 13504 N 1256.39 1.54543 0.308881 0
M  V30 13505 C 1257.61 1.77753 1.06857 0
M  V30 13506 C 1258.04 0.531616 1.80431 0
M  V30 13507 O 1257.39 -0.517513 1.73757 0
M  V30 13508 C 1257.44 2.97968 2.03094 0
M  V30 13509 O 1256.55 2.70541 3.11257 0
M  V30 13510 H 1255.89 0.588576 0.307368 0
M  V30 13511 H 1258.42 2.01607 0.348703 0
M  V30 13512 H 1258.43 3.25722 2.45702 0
M  V30 13513 H 1257.1 3.88314 1.48948 0
M  V30 13514 H 1255.68 2.53781 2.7322 0
M  V30 13515 N 1257.86 -0.571685 1.46866 0
M  V30 13516 C 1259.11 -1.32948 1.52745 0
M  V30 13517 C 1259.44 -1.93631 0.183694 0
M  V30 13518 O 1258.69 -1.77605 -0.821886 0
M  V30 13519 C 1258.99 -2.47051 2.58264 0
M  V30 13520 C 1258.66 -2.04291 4.01965 0
M  V30 13521 C 1257.32 -1.92345 4.41086 0
M  V30 13522 C 1259.67 -1.71458 4.9219 0
M  V30 13523 C 1257 -1.4584 5.68285 0
M  V30 13524 C 1259.35 -1.26429 6.19837 0
M  V30 13525 C 1258.02 -1.13068 6.57854 0
M  V30 13526 H 1257.29 -0.48649 0.558935 0
M  V30 13527 H 1259.93 -0.642618 1.80396 0
M  V30 13528 H 1258.24 -3.21231 2.24316 0
M  V30 13529 H 1259.94 -3.05254 2.6004 0
M  V30 13530 H 1256.53 -2.14527 3.71047 0
M  V30 13531 H 1260.71 -1.79567 4.62676 0
M  V30 13532 H 1255.97 -1.34148 5.96502 0
M  V30 13533 H 1260.14 -1.00081 6.89171 0
M  V30 13534 H 1257.77 -0.768094 7.5631 0
M  V30 13535 N 1259.34 -1.34755 -0.817236 0
M  V30 13536 C 1260.76 -1.14561 -1.11121 0
M  V30 13537 C 1260.96 0.0490776 -2.0144 0
M  V30 13538 O 1260.01 0.722897 -2.41931 0
M  V30 13539 C 1261.33 -2.44356 -1.75244 0
M  V30 13540 C 1262.87 -2.50465 -1.87713 0
M  V30 13541 C 1263.35 -3.80276 -2.55253 0
M  V30 13542 N 1264.84 -3.81468 -2.62747 0
M  V30 13543 C 1265.58 -4.78634 -3.15749 0
M  V30 13544 N 1265.07 -5.86184 -3.6927 0
M  V30 13545 N 1266.86 -4.66083 -3.14203 0
M  V30 13546 H 1259.02 -2.11293 -0.2166 0
M  V30 13547 H 1261.28 -0.934629 -0.158661 0
M  V30 13548 H 1260.98 -3.31899 -1.16344 0
M  V30 13549 H 1260.86 -2.58117 -2.75055 0
M  V30 13550 H 1263.25 -1.63358 -2.45761 0
M  V30 13551 H 1263.33 -2.40627 -0.867887 0
M  V30 13552 H 1262.97 -4.67776 -1.97858 0
M  V30 13553 H 1262.9 -3.87399 -3.56693 0
M  V30 13554 H 1265.39 -3.03753 -2.24817 0
M  V30 13555 H 1265.7 -6.56332 -4.0798 0
M  V30 13556 H 1264.05 -5.8989 -3.67498 0
M  V30 13557 H 1267.24 -3.81206 -2.7166 0
M  V30 13558 H 1267.41 -5.41973 -3.55203 0
M  V30 13559 N 1260.82 1.03812 -1.18578 0
M  V30 13560 C 1261.75 2.13802 -0.938665 0
M  V30 13561 C 1262.73 1.69643 0.124575 0
M  V30 13562 O 1263.92 1.94179 -0.0285421 0
M  V30 13563 C 1261.05 3.44154 -0.466392 0
M  V30 13564 C 1260 4.01949 -1.47041 0
M  V30 13565 C 1259.33 5.27811 -0.855558 0
M  V30 13566 C 1260.63 4.37827 -2.84789 0
M  V30 13567 H 1262.32 2.34732 -1.85852 0
M  V30 13568 H 1259.87 1.12808 -0.895007 0
M  V30 13569 H 1261.82 4.20463 -0.280856 0
M  V30 13570 H 1260.54 3.22918 0.489041 0
M  V30 13571 H 1259.2 3.27725 -1.64293 0
M  V30 13572 H 1258.85 5.02886 0.107142 0
M  V30 13573 H 1258.55 5.67441 -1.52592 0
M  V30 13574 H 1260.07 6.06795 -0.680609 0
M  V30 13575 H 1261.49 5.05112 -2.71173 0
M  V30 13576 H 1259.88 4.88514 -3.48532 0
M  V30 13577 H 1260.95 3.47541 -3.38147 0
M  V30 13578 N 1262.3 0.988223 1.22768 0
M  V30 13579 C 1263.23 0.554478 2.26821 0
M  V30 13580 C 1264.21 -0.416293 1.64927 0
M  V30 13581 O 1265.39 -0.30795 1.91743 0
M  V30 13582 C 1262.52 -0.136266 3.47033 0
M  V30 13583 C 1261.48 0.752575 4.21332 0
M  V30 13584 C 1260.8 -0.0708236 5.34653 0
M  V30 13585 C 1262.1 2.04717 4.80508 0
M  V30 13586 H 1263.8 1.42423 2.63355 0
M  V30 13587 H 1261.34 0.686267 1.26595 0
M  V30 13588 H 1263.3 -0.451068 4.18979 0
M  V30 13589 H 1262.02 -1.04053 3.09581 0
M  V30 13590 H 1260.68 1.05095 3.51213 0
M  V30 13591 H 1260.33 -0.975859 4.93443 0
M  V30 13592 H 1260.03 0.520835 5.85287 0
M  V30 13593 H 1261.55 -0.379828 6.09417 0
M  V30 13594 H 1262.97 1.79663 5.44421 0
M  V30 13595 H 1261.36 2.58726 5.41462 0
M  V30 13596 H 1262.43 2.72896 4.00819 0
M  V30 13597 N 1263.78 -1.38018 0.760839 0
M  V30 13598 C 1265.19 -1.53437 0.439239 0
M  V30 13599 C 1265.39 -1.72184 -1.04666 0
M  V30 13600 O 1264.45 -1.73698 -1.83263 0
M  V30 13601 C 1265.76 -2.73724 1.24481 0
M  V30 13602 C 1267.31 -2.87579 1.23561 0
M  V30 13603 C 1267.78 -4.10836 2.02429 0
M  V30 13604 N 1269.27 -4.17928 1.99727 0
M  V30 13605 C 1270.01 -5.12309 2.57541 0
M  V30 13606 N 1269.51 -6.12317 3.24098 0
M  V30 13607 N 1271.3 -5.04712 2.47431 0
M  V30 13608 H 1263.45 -1.241 1.72375 0
M  V30 13609 H 1265.71 -0.603427 0.73115 0
M  V30 13610 H 1265.42 -2.663 2.29732 0
M  V30 13611 H 1265.29 -3.67111 0.866579 0
M  V30 13612 H 1267.68 -2.9448 0.191122 0
M  V30 13613 H 1267.76 -1.95183 1.6534 0
M  V30 13614 H 1267.4 -4.04696 3.06893 0
M  V30 13615 H 1267.33 -5.02326 1.58039 0
M  V30 13616 H 1269.83 -3.46307 1.51262 0
M  V30 13617 H 1270.14 -6.80842 3.65615 0
M  V30 13618 H 1268.48 -6.12628 3.28195 0
M  V30 13619 H 1271.67 -4.25524 1.95057 0
M  V30 13620 H 1271.85 -5.78085 2.92783 0
M  V30 13621 N 1265.25 -0.510493 -1.49103 0
M  V30 13622 C 1266.5 0.030689 -2.02777 0
M  V30 13623 C 1266.83 1.35765 -1.38858 0
M  V30 13624 O 1266.11 1.87209 -0.527528 0
M  V30 13625 C 1266.39 0.173261 -3.59683 0
M  V30 13626 C 1266.24 -1.17749 -4.34114 0
M  V30 13627 C 1267.56 0.909395 -4.30602 0
M  V30 13628 H 1264.68 0.0096789 -0.736936 0
M  V30 13629 H 1267.32 -0.663746 -1.78029 0
M  V30 13630 H 1265.47 0.764721 -3.80899 0
M  V30 13631 H 1267.15 -1.80856 -4.24369 0
M  V30 13632 H 1265.39 -1.76438 -3.96298 0
M  V30 13633 H 1266.06 -1.03094 -5.42287 0
M  V30 13634 H 1268.54 0.407677 -4.14098 0
M  V30 13635 H 1267.41 0.978012 -5.40117 0
M  V30 13636 H 1267.67 1.9553 -3.96511 0
M  V30 13637 N 1266.73 1.55688 -0.24474 0
M  V30 13638 C 1267.98 1.98891 0.380603 0
M  V30 13639 C 1268.31 1.13283 1.58105 0
M  V30 13640 O 1267.56 0.183141 1.94841 0
M  V30 13641 C 1267.86 3.47487 0.835923 0
M  V30 13642 C 1267.53 4.5017 -0.256528 0
M  V30 13643 C 1266.19 4.7797 -0.556573 0
M  V30 13644 C 1268.54 5.1163 -0.994174 0
M  V30 13645 C 1265.87 5.64508 -1.59838 0
M  V30 13646 C 1268.22 5.99297 -2.02548 0
M  V30 13647 C 1266.88 6.25432 -2.3322 0
M  V30 13648 H 1266.15 0.727794 0.139273 0
M  V30 13649 H 1268.8 1.88235 -0.352113 0
M  V30 13650 H 1267.11 3.55464 1.64781 0
M  V30 13651 H 1268.8 3.78301 1.33001 0
M  V30 13652 H 1265.39 4.28598 -0.0125284 0
M  V30 13653 H 1269.58 4.90202 -0.775617 0
M  V30 13654 H 1264.83 5.83012 -1.84138 0
M  V30 13655 H 1269.01 6.45964 -2.60198 0
M  V30 13656 H 1266.63 6.92282 -3.14085 0
M  V30 13657 N 1268.21 -0.0283989 1.57574 0
M  V30 13658 C 1269.16 -1.02881 2.06601 0
M  V30 13659 C 1270.13 -1.35879 0.955308 0
M  V30 13660 O 1271.31 -1.46205 1.22592 0
M  V30 13661 C 1268.45 -2.32447 2.55073 0
M  V30 13662 C 1267.56 -2.05602 3.79937 0
M  V30 13663 C 1266.7 -3.29043 4.17018 0
M  V30 13664 C 1265.74 -2.97755 5.34797 0
M  V30 13665 N 1264.88 -4.1365 5.67308 0
M  V30 13666 H 1269.72 -0.603772 2.91819 0
M  V30 13667 H 1267.25 -0.286503 1.44283 0
M  V30 13668 H 1269.21 -3.08152 2.81244 0
M  V30 13669 H 1267.84 -2.72672 1.72771 0
M  V30 13670 H 1266.89 -1.2039 3.60847 0
M  V30 13671 H 1268.2 -1.78522 4.65759 0
M  V30 13672 H 1267.36 -4.13115 4.4432 0
M  V30 13673 H 1266.1 -3.59237 3.29849 0
M  V30 13674 H 1265.1 -2.12085 5.07247 0
M  V30 13675 H 1266.33 -2.68839 6.23621 0
M  V30 13676 H 1264.27 -4.43794 4.83097 0
M  V30 13677 H 1264.19 -3.89996 6.47641 0
M  V30 13678 H 1265.46 -4.98594 5.99186 0
M  V30 13679 N 1269.69 -1.54705 -0.300681 0
M  V30 13680 C 1270.62 -1.88679 -1.37559 0
M  V30 13681 C 1271.6 -0.74574 -1.52881 0
M  V30 13682 O 1272.78 -1.0015 -1.66384 0
M  V30 13683 C 1269.91 -2.13438 -2.73974 0
M  V30 13684 C 1268.87 -3.29284 -2.73415 0
M  V30 13685 C 1268.19 -3.39462 -4.13122 0
M  V30 13686 C 1269.49 -4.66382 -2.35128 0
M  V30 13687 H 1271.19 -2.78707 -1.09373 0
M  V30 13688 H 1268.73 -1.341 -0.524704 0
M  V30 13689 H 1270.69 -2.35791 -3.49257 0
M  V30 13690 H 1269.41 -1.20181 -3.03684 0
M  V30 13691 H 1268.07 -3.06855 -2.00588 0
M  V30 13692 H 1267.72 -2.43721 -4.4001 0
M  V30 13693 H 1267.42 -4.17334 -4.1365 0
M  V30 13694 H 1268.94 -3.64075 -4.90185 0
M  V30 13695 H 1270.36 -4.88463 -3.00128 0
M  V30 13696 H 1268.75 -5.4697 -2.46867 0
M  V30 13697 H 1269.82 -4.67078 -1.30256 0
M  V30 13698 N 1271.17 0.563888 -1.47167 0
M  V30 13699 C 1272.13 1.65359 -1.58711 0
M  V30 13700 C 1273.13 1.53999 -0.46272 0
M  V30 13701 O 1274.32 1.58277 -0.727595 0
M  V30 13702 C 1271.45 3.04874 -1.52529 0
M  V30 13703 H 1272.64 1.56475 -2.55843 0
M  V30 13704 H 1270.2 0.783271 -1.35257 0
M  V30 13705 H 1270.93 3.19297 -0.56747 0
M  V30 13706 H 1270.72 3.14528 -2.34125 0
M  V30 13707 H 1272.21 3.84164 -1.63731 0
M  V30 13708 N 1272.64 1.35187 0.810078 0
M  V30 13709 C 1273.59 1.27822 1.92173 0
M  V30 13710 C 1274.56 0.150851 1.65414 0
M  V30 13711 O 1275.75 0.333973 1.87854 0
M  V30 13712 C 1272.89 1.05258 3.28656 0
M  V30 13713 C 1272 2.26884 3.67624 0
M  V30 13714 C 1271.13 1.97499 4.9312 0
M  V30 13715 C 1270.17 3.15198 5.24706 0
M  V30 13716 N 1269.31 2.85612 6.41381 0
M  V30 13717 H 1274.15 2.22884 1.97804 0
M  V30 13718 H 1271.69 1.10799 0.967577 0
M  V30 13719 H 1273.65 0.902084 4.07331 0
M  V30 13720 H 1272.28 0.138583 3.22502 0
M  V30 13721 H 1271.33 2.5281 2.84238 0
M  V30 13722 H 1272.64 3.14783 3.86928 0
M  V30 13723 H 1271.79 1.7926 5.79613 0
M  V30 13724 H 1270.53 1.0688 4.75844 0
M  V30 13725 H 1269.54 3.34019 4.36705 0
M  V30 13726 H 1270.76 4.06614 5.43913 0
M  V30 13727 H 1268.71 1.97583 6.25537 0
M  V30 13728 H 1268.63 3.67044 6.60919 0
M  V30 13729 H 1269.89 2.70906 7.3091 0
M  V30 13730 N 1274.12 -1.03182 1.19127 0
M  V30 13731 C 1275.35 -1.80703 1.01791 0
M  V30 13732 C 1275.77 -1.83147 -0.428824 0
M  V30 13733 O 1275.13 -1.2553 -1.30812 0
M  V30 13734 C 1275.18 -3.23754 1.58794 0
M  V30 13735 O 1274.28 -4.04261 0.815274 0
M  V30 13736 H 1273.62 -0.557944 0.359992 0
M  V30 13737 H 1276.15 -1.29887 1.58084 0
M  V30 13738 H 1276.16 -3.7451 1.61884 0
M  V30 13739 H 1274.84 -3.2129 2.64094 0
M  V30 13740 H 1273.42 -3.62909 0.857392 0
M  V30 13741 N 1275.6 -0.99472 -1.22242 0
M  V30 13742 C 1276.85 -0.682256 -1.91616 0
M  V30 13743 C 1277.2 0.777397 -1.75995 0
M  V30 13744 O 1276.49 1.55509 -1.11926 0
M  V30 13745 C 1276.69 -1.02561 -3.42368 0
M  V30 13746 C 1276.52 -2.5171 -3.72656 0
M  V30 13747 C 1275.29 -3.18144 -3.92571 0
M  V30 13748 C 1277.49 -3.49835 -3.76988 0
M  V30 13749 N 1275.47 -4.5675 -4.10186 0
M  V30 13750 C 1276.84 -4.73907 -3.99765 0
M  V30 13751 C 1278.89 -3.44116 -3.59845 0
M  V30 13752 C 1277.6 -5.92957 -4.07179 0
M  V30 13753 C 1279.62 -4.62545 -3.68519 0
M  V30 13754 C 1278.98 -5.85417 -3.91748 0
M  V30 13755 H 1275.08 -0.300961 -0.721766 0
M  V30 13756 H 1277.67 -1.2751 -1.47137 0
M  V30 13757 H 1275.84 -0.461327 -3.85651 0
M  V30 13758 H 1277.57 -0.66895 -3.99133 0
M  V30 13759 H 1274.33 -2.68608 -3.9006 0
M  V30 13760 H 1274.75 -5.28649 -4.22917 0
M  V30 13761 H 1279.39 -2.50134 -3.40871 0
M  V30 13762 H 1277.11 -6.87341 -4.24956 0
M  V30 13763 H 1280.7 -4.59711 -3.56591 0
M  V30 13764 H 1279.58 -6.75525 -3.98291 0
M  V30 13765 N 1277.08 1.37613 -0.768148 0
M  V30 13766 C 1278.49 1.82437 -0.396703 0
M  V30 13767 C 1278.84 1.64019 1.07668 0
M  V30 13768 O 1277.97 1.14932 1.83356 0
M  V30 13769 C 1278.56 3.31207 -0.713265 0
M  V30 13770 C 1277.12 3.74323 -0.39492 0
M  V30 13771 C 1276.27 2.60191 -0.958962 0
M  V30 13772 H 1279.22 1.26135 -0.963099 0
M  V30 13773 H 1279.24 3.805 0.00337228 0
M  V30 13774 H 1278.75 3.4458 -1.78567 0
M  V30 13775 H 1276.85 3.66521 0.670313 0
M  V30 13776 H 1276.96 4.70558 -0.900653 0
M  V30 13777 H 1275.33 2.51797 -0.383423 0
M  V30 13778 H 1276.11 2.76358 -2.03669 0
M  V30 13779 N 1278.56 0.518393 1.4883 0
M  V30 13780 C 1279.78 -0.0162 2.06894 0
M  V30 13781 C 1280.2 -1.29222 1.37649 0
M  V30 13782 O 1279.56 -1.766 0.460288 0
M  V30 13783 C 1279.61 -0.255836 3.60594 0
M  V30 13784 O 1279.33 0.969612 4.27235 0
M  V30 13785 C 1280.83 -0.832117 4.3542 0
M  V30 13786 H 1278.05 0.0282877 0.670403 0
M  V30 13787 H 1280.59 0.720726 1.91379 0
M  V30 13788 H 1278.75 -0.942782 3.75753 0
M  V30 13789 H 1279.16 0.743172 5.19208 0
M  V30 13790 H 1280.64 -0.949279 5.43776 0
M  V30 13791 H 1281.11 -1.83421 3.99066 0
M  V30 13792 H 1281.72 -0.1821 4.2491 0
M  V30 13793 N 1280.03 -1.55556 0.252993 0
M  V30 13794 C 1280.96 -2.24613 -0.638047 0
M  V30 13795 C 1281.95 -1.22852 -1.1765 0
M  V30 13796 O 1283.13 -1.51519 -1.21472 0
M  V30 13797 C 1280.26 -2.95029 -1.83236 0
M  V30 13798 C 1279.21 -4.03531 -1.42641 0
M  V30 13799 C 1278.54 -4.61404 -2.70204 0
M  V30 13800 C 1279.84 -5.18923 -0.592958 0
M  V30 13801 H 1281.53 -2.99335 -0.0621918 0
M  V30 13802 H 1279.08 -1.43972 -0.0284722 0
M  V30 13803 H 1281.03 -3.42042 -2.46141 0
M  V30 13804 H 1279.76 -2.17805 -2.43369 0
M  V30 13805 H 1278.42 -3.57296 -0.820672 0
M  V30 13806 H 1278.06 -3.80874 -3.28548 0
M  V30 13807 H 1277.76 -5.34652 -2.43764 0
M  V30 13808 H 1279.29 -5.11154 -3.33997 0
M  V30 13809 H 1280.7 -5.62124 -1.12646 0
M  V30 13810 H 1279.1 -5.98598 -0.424358 0
M  V30 13811 H 1280.17 -4.83301 0.393434 0
M  V30 13812 N 1281.51 0.0200419 -1.57587 0
M  V30 13813 C 1282.46 1.0362 -2.08244 0
M  V30 13814 C 1283.45 1.36872 -0.998119 0
M  V30 13815 O 1284.66 1.35671 -1.18293 0
M  V30 13816 H 1281.04 0.351731 -0.664673 0
M  V30 13817 H 1283.01 0.583226 -2.92645 0
M  V30 13818 C 1281.76 2.32574 -2.58466 0
M  V30 13819 H 1281.08 2.0785 -3.41523 0
M  V30 13820 H 1282.52 3.02 -2.97611 0
M  V30 13821 C 1280.98 3.02167 -1.48986 0
M  V30 13822 O 1281.51 3.92359 -0.861251 0
M  V30 13823 N 1279.71 2.63649 -1.22219 0
M  V30 13824 H 1279.26 1.90389 -1.73521 0
M  V30 13825 H 1279.22 3.10529 -0.491828 0
M  V30 13826 N 1282.99 1.54862 0.292472 0
M  V30 13827 C 1283.92 1.81298 1.38586 0
M  V30 13828 C 1284.9 0.664704 1.48393 0
M  V30 13829 O 1286.09 0.905595 1.65322 0
M  V30 13830 C 1283.21 1.9573 2.76419 0
M  V30 13831 C 1282.26 3.18197 2.83994 0
M  V30 13832 S 1283.09 4.76054 2.45219 0
M  V30 13833 C 1284.25 4.93433 3.85064 0
M  V30 13834 H 1284.48 2.73755 1.15955 0
M  V30 13835 H 1282.01 1.46383 0.491053 0
M  V30 13836 H 1283.97 2.0473 3.55803 0
M  V30 13837 H 1282.63 1.04196 2.96314 0
M  V30 13838 H 1281.83 3.25123 3.85112 0
M  V30 13839 H 1281.43 3.07688 2.12613 0
M  V30 13840 H 1283.72 4.7798 4.80148 0
M  V30 13841 H 1284.66 5.95515 3.83103 0
M  V30 13842 H 1285.07 4.2153 3.75463 0
M  V30 13843 N 1284.47 -0.556076 1.47464 0
M  V30 13844 C 1285.4 -1.67275 1.62915 0
M  V30 13845 C 1286.38 -1.63229 0.478562 0
M  V30 13846 O 1287.56 -1.80833 0.708032 0
M  V30 13847 C 1284.69 -3.05911 1.64426 0
M  V30 13848 C 1283.65 -3.24804 2.78722 0
M  V30 13849 C 1282.97 -4.64238 2.65307 0
M  V30 13850 C 1284.27 -3.10071 4.20302 0
M  V30 13851 H 1285.97 -1.54601 2.56396 0
M  V30 13852 H 1283.51 -0.742337 1.23391 0
M  V30 13853 H 1285.47 -3.83878 1.73826 0
M  V30 13854 H 1284.19 -3.19547 0.675053 0
M  V30 13855 H 1282.85 -2.49246 2.68835 0
M  V30 13856 H 1282.5 -4.74675 1.66412 0
M  V30 13857 H 1282.2 -4.77828 3.41986 0
M  V30 13858 H 1283.72 -5.44339 2.76637 0
M  V30 13859 H 1285.14 -3.77855 4.3116 0
M  V30 13860 H 1283.53 -3.3517 4.97776 0
M  V30 13861 H 1284.6 -2.06803 4.38589 0
M  V30 13862 N 1285.95 -1.35615 -0.802897 0
M  V30 13863 C 1287.2 -1.28428 -1.55528 0
M  V30 13864 C 1287.51 0.138275 -1.95111 0
M  V30 13865 O 1288.72 0.332435 -2.69457 0
M  V30 13866 C 1287.17 -2.25251 -2.80696 0
M  V30 13867 C 1286.78 -3.72871 -2.48336 0
M  V30 13868 C 1288.52 -2.27014 -3.58699 0
M  V30 13869 C 1286.43 -4.61507 -3.69817 0
M  V30 13870 H 1285.36 -0.47718 -0.583794 0
M  V30 13871 H 1288.01 -1.609 -0.882238 0
M  V30 13872 H 1286.39 -1.85755 -3.4973 0
M  V30 13873 H 1287.57 -4.21024 -1.87285 0
M  V30 13874 H 1285.88 -3.73752 -1.83571 0
M  V30 13875 H 1288.48 -2.90451 -4.48935 0
M  V30 13876 H 1288.82 -1.27491 -3.96298 0
M  V30 13877 H 1289.36 -2.65058 -2.9663 0
M  V30 13878 H 1286.09 -5.62043 -3.37324 0
M  V30 13879 H 1285.61 -4.18079 -4.30081 0
M  V30 13880 H 1287.29 -4.77113 -4.37004 0
M  V30 13881 N 1287.43 1.02549 -1.19673 0
M  V30 13882 C 1288.37 2.109 -0.937536 0
M  V30 13883 C 1289.34 1.65599 0.128923 0
M  V30 13884 O 1290.53 1.90795 -0.0139366 0
M  V30 13885 C 1287.67 3.4166 -0.48602 0
M  V30 13886 C 1286.78 4.0049 -1.61963 0
M  V30 13887 C 1285.92 5.19273 -1.11931 0
M  V30 13888 C 1284.95 5.70166 -2.22659 0
M  V30 13889 N 1284.09 6.80221 -1.73909 0
M  V30 13890 H 1288.93 2.32408 -1.86523 0
M  V30 13891 H 1286.47 1.13982 -0.929869 0
M  V30 13892 H 1288.43 4.16693 -0.205614 0
M  V30 13893 H 1287.06 3.20253 0.404678 0
M  V30 13894 H 1286.11 3.22638 -2.01516 0
M  V30 13895 H 1287.42 4.34273 -2.45374 0
M  V30 13896 H 1286.57 6.01478 -0.794336 0
M  V30 13897 H 1285.31 4.87033 -0.254972 0
M  V30 13898 H 1284.32 4.86572 -2.55983 0
M  V30 13899 H 1285.54 6.04444 -3.09554 0
M  V30 13900 H 1283.49 6.49826 -0.897889 0
M  V30 13901 H 1283.41 7.13149 -2.50907 0
M  V30 13902 H 1284.67 7.66011 -1.44386 0
M  V30 13903 N 1288.9 1.00119 1.21713 0
M  V30 13904 C 1290.15 0.67713 1.89994 0
M  V30 13905 C 1290.47 -0.795149 1.78709 0
M  V30 13906 O 1291.67 -1.23113 2.41982 0
M  V30 13907 C 1290.13 1.16065 3.40671 0
M  V30 13908 C 1289.74 2.65874 3.60576 0
M  V30 13909 C 1291.48 0.911302 4.14603 0
M  V30 13910 C 1289.39 3.07785 5.04997 0
M  V30 13911 H 1288.32 0.249572 0.711498 0
M  V30 13912 H 1290.97 1.21185 1.37792 0
M  V30 13913 H 1289.35 0.554005 3.92106 0
M  V30 13914 H 1290.52 3.31954 3.19598 0
M  V30 13915 H 1288.84 2.88781 2.99991 0
M  V30 13916 H 1291.44 1.20004 5.2106 0
M  V30 13917 H 1291.78 -0.152495 4.16021 0
M  V30 13918 H 1292.31 1.48055 3.69222 0
M  V30 13919 H 1289.05 4.13376 5.08724 0
M  V30 13920 H 1288.57 2.46414 5.46846 0
M  V30 13921 H 1290.25 2.99552 5.73479 0
M  V30 13922 N 1290.38 -1.37203 0.775435 0
M  V30 13923 C 1291.63 -1.98846 0.338093 0
M  V30 13924 C 1291.94 -1.6225 -1.09244 0
M  V30 13925 O 1293.15 -2.17024 -1.63135 0
M  V30 13926 C 1291.61 -3.55618 0.553541 0
M  V30 13927 C 1291.21 -4.01149 1.99457 0
M  V30 13928 C 1292.96 -4.24118 0.180006 0
M  V30 13929 C 1290.86 -5.50644 2.15742 0
M  V30 13930 H 1289.79 -0.743955 0.122669 0
M  V30 13931 H 1292.45 -1.56685 0.955087 0
M  V30 13932 H 1290.83 -3.95777 -0.132964 0
M  V30 13933 H 1292 -3.72226 2.71633 0
M  V30 13934 H 1290.32 -3.45443 2.32504 0
M  V30 13935 H 1292.91 -5.33966 0.280145 0
M  V30 13936 H 1293.26 -4.07104 -0.870192 0
M  V30 13937 H 1293.79 -3.89274 0.819201 0
M  V30 13938 H 1290.53 -5.7259 3.19094 0
M  V30 13939 H 1290.05 -5.8124 1.48054 0
M  V30 13940 H 1291.73 -6.16668 1.95781 0
M  V30 13941 N 1291.86 -0.526279 -1.48553 0
M  V30 13942 C 1293.11 0.00914839 -2.02098 0
M  V30 13943 C 1293.43 1.35119 -1.40598 0
M  V30 13944 O 1292.7 1.87422 -0.570065 0
M  V30 13945 H 1291.28 0.00636935 -0.746973 0
M  V30 13946 H 1293.94 -0.689269 -1.82305 0
M  V30 13947 H 1293.04 0.120212 -3.11868 0
M  V30 13948 N 1293.34 1.5542 -0.261239 0
M  V30 13949 C 1294.29 2.23382 0.648324 0
M  V30 13950 C 1295.28 1.22615 1.16884 0
M  V30 13951 O 1296.49 1.40587 1.12407 0
M  V30 13952 H 1292.86 0.716733 0.227592 0
M  V30 13953 H 1294.83 2.98354 0.0521289 0
M  V30 13954 C 1293.58 2.9579 1.82766 0
M  V30 13955 H 1292.9 3.73109 1.4363 0
M  V30 13956 H 1294.34 3.46686 2.441 0
M  V30 13957 C 1292.8 2.00472 2.70763 0
M  V30 13958 O 1293.33 1.54698 3.70717 0
M  V30 13959 N 1291.54 1.67267 2.37635 0
M  V30 13960 H 1291.09 2.04685 1.56402 0
M  V30 13961 H 1291.04 1.03759 2.96785 0
M  V30 13962 N 1294.82 -0.0116844 1.57596 0
M  V30 13963 C 1296.04 -0.713924 1.94725 0
M  V30 13964 C 1296.47 -1.67157 0.862565 0
M  V30 13965 O 1295.82 -1.80401 -0.180308 0
M  V30 13966 C 1295.87 -1.43214 3.30941 0
M  V30 13967 O 1294.98 -2.5461 3.24419 0
M  V30 13968 H 1294.32 -0.190772 0.636005 0
M  V30 13969 H 1296.85 0.0380247 2.04565 0
M  V30 13970 H 1296.86 -1.79819 3.66237 0
M  V30 13971 H 1295.53 -0.729906 4.09445 0
M  V30 13972 H 1294.11 -2.20419 3.00782 0
M  V30 13973 N 1296.29 -1.55015 -0.284256 0
M  V30 13974 C 1297.54 -1.7535 -1.01884 0
M  V30 13975 C 1297.87 -0.546825 -1.86342 0
M  V30 13976 O 1297.15 0.455832 -1.89083 0
M  V30 13977 C 1297.43 -3.05219 -1.91084 0
M  V30 13978 C 1297.28 -4.36219 -1.09694 0
M  V30 13979 C 1298.6 -3.31056 -2.89983 0
M  V30 13980 H 1295.72 -0.637981 -0.368984 0
M  V30 13981 H 1298.36 -1.87741 -0.292116 0
M  V30 13982 H 1296.51 -2.94786 -2.53048 0
M  V30 13983 H 1298.19 -4.58594 -0.498876 0
M  V30 13984 H 1296.43 -4.31951 -0.400078 0
M  V30 13985 H 1297.1 -5.23392 -1.75399 0
M  V30 13986 H 1299.58 -3.41209 -2.38151 0
M  V30 13987 H 1298.45 -4.23212 -3.49547 0
M  V30 13988 H 1298.71 -2.50153 -3.64521 0
M  V30 13989 N 1297.77 0.548248 -1.47757 0
M  V30 13990 C 1299.02 1.30243 -1.54535 0
M  V30 13991 C 1299.34 1.93832 -0.213089 0
M  V30 13992 O 1298.61 1.80397 0.763782 0
M  V30 13993 H 1297.19 0.483684 -0.569262 0
M  V30 13994 H 1299.85 0.639485 -1.8411 0
M  V30 13995 H 1298.95 2.09128 -2.31672 0
M  V30 13996 N 1299.25 1.36039 0.795694 0
M  V30 13997 C 1300.21 1.29709 1.88966 0
M  V30 13998 C 1301.21 0.206142 1.59473 0
M  V30 13999 O 1302.4 0.460534 1.68002 0
M  V30 14000 C 1299.53 1.00922 3.25619 0
M  V30 14001 H 1300.73 2.26993 1.95995 0
M  V30 14002 H 1298.28 1.2072 0.992791 0
M  V30 14003 H 1299.02 0.0407027 3.24274 0
M  V30 14004 H 1298.8 1.79863 3.48413 0
M  V30 14005 H 1300.29 0.990826 4.05675 0
M  V30 14006 N 1300.73 -1.01913 1.20215 0
M  V30 14007 C 1301.66 -2.12282 0.97256 0
M  V30 14008 C 1302.64 -1.6982 -0.0975709 0
M  V30 14009 O 1303.82 -1.94109 0.0594307 0
M  V30 14010 C 1300.95 -3.43369 0.521085 0
M  V30 14011 C 1299.91 -3.99559 1.53417 0
M  V30 14012 C 1299.23 -5.26383 0.93942 0
M  V30 14013 C 1300.53 -4.33241 2.91718 0
M  V30 14014 H 1302.23 -2.31746 1.89563 0
M  V30 14015 H 1299.77 -1.1137 0.912841 0
M  V30 14016 H 1301.73 -4.19963 0.347713 0
M  V30 14017 H 1300.45 -3.23655 -0.437605 0
M  V30 14018 H 1299.11 -3.25069 1.69486 0
M  V30 14019 H 1298.76 -5.02993 -0.0271236 0
M  V30 14020 H 1298.46 -5.64942 1.616 0
M  V30 14021 H 1299.98 -6.05635 0.777059 0
M  V30 14022 H 1301.4 -5.00734 2.79175 0
M  V30 14023 H 1299.79 -4.82907 3.56259 0
M  V30 14024 H 1300.86 -3.42118 3.43633 0
M  V30 14025 N 1302.21 -1.00763 -1.2118 0
M  V30 14026 C 1303.45 -0.690459 -1.8994 0
M  V30 14027 C 1303.78 0.781464 -1.78656 0
M  V30 14028 O 1303.05 1.56135 -1.18316 0
M  V30 14029 H 1301.63 -0.252397 -0.703068 0
M  V30 14030 H 1304.29 -1.2773 -1.47211 0
M  V30 14031 H 1303.38 -0.96594 -2.96776 0
M  V30 14032 N 1303.68 1.3679 -0.7827 0
M  V30 14033 C 1304.63 2.32019 -0.164358 0
M  V30 14034 C 1305.63 1.55476 0.672571 0
M  V30 14035 O 1306.83 1.7079 0.568406 0
M  V30 14036 H 1303.21 0.751214 -0.0343697 0
M  V30 14037 H 1305.18 2.81741 -0.983077 0
M  V30 14038 C 1303.93 3.4075 0.691727 0
M  V30 14039 H 1303.25 3.99759 0.0570885 0
M  V30 14040 H 1304.69 4.09719 1.09117 0
M  V30 14041 C 1303.15 2.81753 1.84708 0
M  V30 14042 O 1303.68 2.73378 2.94325 0
M  V30 14043 N 1301.89 2.39138 1.6511 0
M  V30 14044 H 1301.43 2.46149 0.759487 0
M  V30 14045 H 1301.39 2.0001 2.42576 0
M  V30 14046 N 1305.16 0.53415 1.48272 0
M  V30 14047 C 1306.09 -0.215037 2.32508 0
M  V30 14048 C 1307.07 -0.931083 1.42355 0
M  V30 14049 O 1308.26 -0.916051 1.71237 0
M  V30 14050 C 1305.39 -1.25985 3.23643 0
M  V30 14051 C 1304.34 -0.661692 4.22854 0
M  V30 14052 C 1303.67 -1.80946 5.03153 0
M  V30 14053 C 1304.97 0.369358 5.20992 0
M  V30 14054 H 1306.66 0.488158 2.95394 0
M  V30 14055 H 1304.21 0.236206 1.4205 0
M  V30 14056 H 1306.16 -1.79195 3.81402 0
M  V30 14057 H 1304.89 -1.99268 2.58766 0
M  V30 14058 H 1303.54 -0.151082 3.66289 0
M  V30 14059 H 1303.19 -2.53077 4.34696 0
M  V30 14060 H 1302.89 -1.41513 5.70305 0
M  V30 14061 H 1304.42 -2.34526 5.63764 0
M  V30 14062 H 1305.83 -0.0758076 5.7325 0
M  V30 14063 H 1304.23 0.681301 5.9622 0
M  V30 14064 H 1305.3 1.27363 4.67875 0
M  V30 14065 N 1306.64 -1.55279 0.269478 0
M  V30 14066 C 1307.87 -2.03876 -0.352418 0
M  V30 14067 C 1308.28 -1.14804 -1.49885 0
M  V30 14068 O 1307.64 -0.166989 -1.81734 0
M  V30 14069 C 1307.69 -3.51634 -0.838799 0
M  V30 14070 O 1307.41 -4.37316 0.261972 0
M  V30 14071 C 1308.91 -4.16094 -1.52909 0
M  V30 14072 H 1306.13 -0.66608 -0.0811043 0
M  V30 14073 H 1308.68 -2.00551 0.399929 0
M  V30 14074 H 1306.83 -3.55421 -1.54125 0
M  V30 14075 H 1307.25 -5.24383 -0.111013 0
M  V30 14076 H 1308.72 -5.21102 -1.82089 0
M  V30 14077 H 1309.2 -3.63928 -2.45872 0
M  V30 14078 H 1309.8 -4.16293 -0.87063 0
M  V30 14079 N 1308.12 0.00332656 -1.576 0
M  V30 14080 C 1309.05 0.994803 -2.11248 0
M  V30 14081 C 1310.03 1.36061 -1.02085 0
M  V30 14082 O 1311.21 1.44494 -1.2975 0
M  V30 14083 C 1308.34 2.28772 -2.61306 0
M  V30 14084 C 1307.3 2.06362 -3.74965 0
M  V30 14085 C 1306.62 3.41638 -4.11324 0
M  V30 14086 C 1307.92 1.4289 -5.02374 0
M  V30 14087 H 1309.62 0.548119 -2.9434 0
M  V30 14088 H 1307.16 0.262208 -1.41593 0
M  V30 14089 H 1309.12 2.98485 -2.97464 0
M  V30 14090 H 1307.84 2.75547 -1.75332 0
M  V30 14091 H 1306.5 1.39076 -3.39195 0
M  V30 14092 H 1306.15 3.8611 -3.22379 0
M  V30 14093 H 1305.85 3.2746 -4.87897 0
M  V30 14094 H 1307.37 4.12671 -4.50039 0
M  V30 14095 H 1308.79 2.02555 -5.36325 0
M  V30 14096 H 1307.18 1.3921 -5.8373 0
M  V30 14097 H 1308.25 0.397708 -4.83266 0
M  V30 14098 N 1309.6 1.55164 0.276031 0
M  V30 14099 C 1310.84 1.75887 1.00953 0
M  V30 14100 C 1311.18 0.5567 1.8605 0
M  V30 14101 O 1310.45 -0.445799 1.89322 0
M  V30 14102 C 1310.73 3.06228 1.89463 0
M  V30 14103 C 1310.59 4.36795 1.07379 0
M  V30 14104 C 1311.91 3.32589 2.88223 0
M  V30 14105 H 1309.02 0.639929 0.365596 0
M  V30 14106 H 1311.67 1.87893 0.282156 0
M  V30 14107 H 1309.82 2.96124 2.51481 0
M  V30 14108 H 1311.49 4.58853 0.474549 0
M  V30 14109 H 1309.73 4.32157 0.377165 0
M  V30 14110 H 1310.4 5.24315 1.72621 0
M  V30 14111 H 1312.88 3.42467 2.36338 0
M  V30 14112 H 1311.75 4.2506 3.47297 0
M  V30 14113 H 1312.02 2.52083 3.6319 0
M  V30 14114 N 1311.07 -0.540404 1.48045 0
M  V30 14115 C 1312 -1.65538 1.6468 0
M  V30 14116 C 1312.99 -1.62713 0.495847 0
M  V30 14117 O 1314.17 -1.80072 0.727172 0
M  V30 14118 C 1311.3 -3.0415 1.67661 0
M  V30 14119 C 1310.25 -3.2183 2.82152 0
M  V30 14120 C 1309.58 -4.61397 2.70216 0
M  V30 14121 C 1310.88 -3.05596 4.23567 0
M  V30 14122 H 1312.57 -1.51873 2.58021 0
M  V30 14123 H 1310.12 -0.729208 1.24171 0
M  V30 14124 H 1312.07 -3.82013 1.77887 0
M  V30 14125 H 1310.8 -3.18814 0.708907 0
M  V30 14126 H 1309.46 -2.4638 2.71463 0
M  V30 14127 H 1309.1 -4.72883 1.71437 0
M  V30 14128 H 1308.8 -4.74174 3.47035 0
M  V30 14129 H 1310.33 -5.41374 2.82395 0
M  V30 14130 H 1311.74 -3.73261 4.35143 0
M  V30 14131 H 1310.14 -3.29871 5.01303 0
M  V30 14132 H 1311.21 -2.0214 4.40758 0
M  V30 14133 N 1312.55 -1.36459 -0.788468 0
M  V30 14134 C 1313.52 -1.3071 -1.88275 0
M  V30 14135 C 1314.52 -0.214596 -1.59362 0
M  V30 14136 O 1315.71 -0.469437 -1.67756 0
M  V30 14137 C 1312.84 -1.02648 -3.25079 0
M  V30 14138 H 1314.03 -2.28029 -1.94788 0
M  V30 14139 H 1311.58 -1.21245 -0.986375 0
M  V30 14140 H 1312.32 -0.0578992 -3.24248 0
M  V30 14141 H 1312.1 -1.81708 -3.47454 0
M  V30 14142 H 1313.59 -1.01233 -4.05144 0
M  V30 14143 N 1314.03 1.01274 -1.20754 0
M  V30 14144 C 1315.28 1.74342 -1.01428 0
M  V30 14145 C 1315.59 1.90265 0.453708 0
M  V30 14146 O 1316.8 2.60465 0.76618 0
M  V30 14147 C 1315.25 3.13588 -1.76609 0
M  V30 14148 C 1314.86 3.05664 -3.27526 0
M  V30 14149 C 1316.61 3.9084 -1.65664 0
M  V30 14150 C 1314.51 4.39942 -3.95228 0
M  V30 14151 H 1313.44 0.653619 -0.375897 0
M  V30 14152 H 1316.09 1.13214 -1.44412 0
M  V30 14153 H 1314.48 3.75281 -1.26413 0
M  V30 14154 H 1315.65 2.53256 -3.84965 0
M  V30 14155 H 1313.97 2.41904 -3.38927 0
M  V30 14156 H 1316.56 4.9019 -2.13583 0
M  V30 14157 H 1316.91 4.11754 -0.61351 0
M  V30 14158 H 1317.44 3.35783 -2.13294 0
M  V30 14159 H 1314.18 4.24229 -4.9971 0
M  V30 14160 H 1313.7 4.92342 -3.42578 0
M  V30 14161 H 1315.38 5.08771 -3.99701 0
M  V30 14162 N 1315.51 1.01404 1.20644 0
M  V30 14163 C 1316.76 0.697244 1.89265 0
M  V30 14164 C 1317.07 -0.776149 1.79542 0
M  V30 14165 O 1318.28 -1.2054 2.43274 0
M  V30 14166 C 1316.73 1.19672 3.39421 0
M  V30 14167 C 1316.34 2.69683 3.57736 0
M  V30 14168 C 1318.09 0.955225 4.13613 0
M  V30 14169 C 1315.99 3.13124 5.01704 0
M  V30 14170 H 1314.92 0.257105 0.708811 0
M  V30 14171 H 1317.57 1.22639 1.36499 0
M  V30 14172 H 1315.96 0.595562 3.91496 0
M  V30 14173 H 1317.13 3.35326 3.16059 0
M  V30 14174 H 1315.44 2.91946 2.96911 0
M  V30 14175 H 1318.04 1.25524 5.19757 0
M  V30 14176 H 1318.38 -0.108362 4.16159 0
M  V30 14177 H 1318.92 1.51962 3.67631 0
M  V30 14178 H 1315.66 4.18748 5.04311 0
M  V30 14179 H 1315.18 2.522 5.44201 0
M  V30 14180 H 1316.86 3.05617 5.70269 0
M  V30 14181 N 1316.99 -1.36373 0.789944 0
M  V30 14182 C 1318.23 -1.99523 0.363119 0
M  V30 14183 C 1318.57 -1.6255 -1.0626 0
M  V30 14184 O 1317.84 -0.880551 -1.73426 0
M  V30 14185 C 1318.12 -3.56215 0.527526 0
M  V30 14186 C 1317.98 -4.0304 1.99697 0
M  V30 14187 C 1319.3 -4.40063 -0.0571079 0
M  V30 14188 H 1316.42 -0.724824 0.133412 0
M  V30 14189 H 1319.06 -1.61778 0.996381 0
M  V30 14190 H 1317.21 -3.88498 -0.0115636 0
M  V30 14191 H 1318.88 -3.81241 2.59717 0
M  V30 14192 H 1317.12 -3.54561 2.49939 0
M  V30 14193 H 1317.79 -5.12001 2.06297 0
M  V30 14194 H 1320.27 -4.14143 0.403082 0
M  V30 14195 H 1319.15 -5.4883 0.0879494 0
M  V30 14196 H 1319.41 -4.26901 -1.14926 0
M  V30 14197 N 1318.47 -0.542005 -1.47987 0
M  V30 14198 C 1319.71 -0.0123116 -2.02496 0
M  V30 14199 C 1320.04 1.33136 -1.41793 0
M  V30 14200 O 1319.3 1.87591 -0.557501 0
M  V30 14201 C 1319.59 0.146208 -3.57101 0
M  V30 14202 C 1319.26 -1.12463 -4.3665 0
M  V30 14203 C 1317.92 -1.47289 -4.58104 0
M  V30 14204 C 1320.27 -1.96746 -4.82639 0
M  V30 14205 C 1317.6 -2.66273 -5.22796 0
M  V30 14206 C 1319.95 -3.14919 -5.48643 0
M  V30 14207 C 1318.62 -3.50077 -5.68333 0
M  V30 14208 H 1317.89 -0.00450514 -0.740986 0
M  V30 14209 H 1320.54 -0.710455 -1.77834 0
M  V30 14210 H 1318.84 0.927209 -3.80671 0
M  V30 14211 H 1320.54 0.571161 -3.96912 0
M  V30 14212 H 1317.13 -0.843429 -4.20219 0
M  V30 14213 H 1321.31 -1.71149 -4.65856 0
M  V30 14214 H 1316.57 -2.937 -5.36237 0
M  V30 14215 H 1320.74 -3.80525 -5.83244 0
M  V30 14216 H 1318.37 -4.42371 -6.18233 0
M  V30 14217 N 1319.94 1.55134 -0.277709 0
M  V30 14218 C 1321.19 1.98831 0.338982 0
M  V30 14219 C 1321.51 1.16958 1.56781 0
M  V30 14220 O 1322.71 1.50811 2.25762 0
M  V30 14221 C 1321.17 3.53899 0.654465 0
M  V30 14222 C 1320.78 4.44553 -0.554703 0
M  V30 14223 C 1322.52 4.06179 1.23364 0
M  V30 14224 C 1320.43 5.91014 -0.213663 0
M  V30 14225 H 1319.36 0.742632 0.130434 0
M  V30 14226 H 1322.01 1.79463 -0.382768 0
M  V30 14227 H 1320.39 3.69078 1.43519 0
M  V30 14228 H 1321.56 4.41143 -1.33151 0
M  V30 14229 H 1319.88 4.02921 -1.0509 0
M  V30 14230 H 1322.48 5.13152 1.50265 0
M  V30 14231 H 1322.82 3.5537 2.16836 0
M  V30 14232 H 1323.35 3.9445 0.515147 0
M  V30 14233 H 1320.09 6.45924 -1.11633 0
M  V30 14234 H 1319.61 5.97486 0.526329 0
M  V30 14235 H 1321.29 6.46712 0.19319 0
M  V30 14236 N 1321.42 0.00503138 1.57599 0
M  V30 14237 C 1322.67 -0.678761 1.90785 0
M  V30 14238 C 1323 -1.73499 0.87911 0
M  V30 14239 O 1322.25 -1.95359 -0.115418 0
M  V30 14240 C 1322.55 -1.35485 3.30724 0
M  V30 14241 C 1322.22 -0.431335 4.48832 0
M  V30 14242 C 1320.88 -0.177078 4.80874 0
M  V30 14243 C 1323.23 0.204219 5.208 0
M  V30 14244 C 1320.56 0.720944 5.82254 0
M  V30 14245 C 1322.91 1.09015 6.23136 0
M  V30 14246 C 1321.57 1.35353 6.53633 0
M  V30 14247 H 1320.84 -0.248376 0.698133 0
M  V30 14248 H 1323.49 0.061638 1.91401 0
M  V30 14249 H 1321.8 -2.16942 3.26257 0
M  V30 14250 H 1323.49 -1.89007 3.53663 0
M  V30 14251 H 1320.08 -0.639676 4.238 0
M  V30 14252 H 1324.27 0.0208074 4.96296 0
M  V30 14253 H 1319.52 0.93296 6.0424 0
M  V30 14254 H 1323.7 1.58894 6.78031 0
M  V30 14255 H 1321.32 2.05107 7.32008 0
M  V30 14256 N 1322.9 -1.55308 -0.267798 0
M  V30 14257 C 1323.86 -1.87765 -1.31442 0
M  V30 14258 C 1324.86 -0.752571 -1.42102 0
M  V30 14259 O 1326.05 -1.02072 -1.41163 0
M  V30 14260 C 1323.18 -2.08754 -2.69508 0
M  V30 14261 H 1324.38 -2.8133 -1.03891 0
M  V30 14262 H 1321.93 -1.47879 -0.506111 0
M  V30 14263 H 1322.67 -1.17588 -3.02231 0
M  V30 14264 H 1322.45 -2.90674 -2.63156 0
M  V30 14265 H 1323.94 -2.3512 -3.4512 0
M  V30 14266 N 1324.38 0.532545 -1.4833 0
M  V30 14267 C 1325.62 1.29042 -1.56448 0
M  V30 14268 C 1325.96 1.92754 -0.236532 0
M  V30 14269 O 1325.23 1.79154 0.757237 0
M  V30 14270 C 1325.51 2.38173 -2.70084 0
M  V30 14271 C 1325.37 1.79169 -4.12576 0
M  V30 14272 C 1326.69 3.39957 -2.79495 0
M  V30 14273 H 1323.81 0.467816 -0.569488 0
M  V30 14274 H 1326.45 0.593517 -1.80492 0
M  V30 14275 H 1324.6 2.97616 -2.49714 0
M  V30 14276 H 1326.27 1.23797 -4.44378 0
M  V30 14277 H 1324.51 1.09716 -4.19696 0
M  V30 14278 H 1325.18 2.58174 -4.87904 0
M  V30 14279 H 1327.66 2.90466 -2.97941 0
M  V30 14280 H 1326.54 4.13714 -3.60739 0
M  V30 14281 H 1326.8 4.00347 -1.87548 0
M  V30 14282 N 1325.86 1.36875 0.78122 0
M  V30 14283 C 1327.1 1.31754 1.54171 0
M  V30 14284 C 1327.43 -0.100632 1.93939 0
M  V30 14285 O 1326.71 -1.05587 1.63345 0
M  V30 14286 C 1326.99 2.24789 2.81322 0
M  V30 14287 C 1326.85 3.75342 2.47868 0
M  V30 14288 C 1328.16 2.16442 3.83198 0
M  V30 14289 H 1325.28 0.479931 0.559317 0
M  V30 14290 H 1327.93 1.67497 0.896935 0
M  V30 14291 H 1326.08 1.94438 3.36342 0
M  V30 14292 H 1327.75 4.16247 1.98836 0
M  V30 14293 H 1325.99 3.94375 1.80696 0
M  V30 14294 H 1326.66 4.3586 3.38719 0
M  V30 14295 H 1329.14 2.43175 3.37647 0
M  V30 14296 H 1328.01 2.83695 4.69903 0
M  V30 14297 H 1328.27 1.15431 4.26765 0
M  V30 14298 N 1327.33 -1.00632 1.21289 0
M  V30 14299 C 1328.58 -1.74044 1.02728 0
M  V30 14300 C 1328.9 -1.89963 -0.440351 0
M  V30 14301 O 1328.17 -1.44958 -1.31772 0
M  V30 14302 H 1326.75 -0.644813 0.377127 0
M  V30 14303 H 1329.41 -1.21272 1.52575 0
M  V30 14304 H 1328.51 -2.74011 1.49413 0
M  V30 14305 N 1328.81 -1.02043 -1.20104 0
M  V30 14306 C 1329.74 -0.538603 -2.21753 0
M  V30 14307 C 1330.72 0.416016 -1.57188 0
M  V30 14308 O 1331.91 0.335114 -1.85497 0
M  V30 14309 C 1329.03 0.215706 -3.38012 0
M  V30 14310 C 1328.08 -0.68905 -4.20897 0
M  V30 14311 S 1328.91 -2.16041 -4.89986 0
M  V30 14312 C 1330.07 -1.41637 -6.09664 0
M  V30 14313 H 1330.3 -1.39988 -2.6228 0
M  V30 14314 H 1327.83 -0.829641 -1.30216 0
M  V30 14315 H 1329.79 0.644798 -4.05404 0
M  V30 14316 H 1328.45 1.0526 -2.95938 0
M  V30 14317 H 1327.65 -0.107195 -5.03886 0
M  V30 14318 H 1327.25 -1.05609 -3.5878 0
M  V30 14319 H 1329.54 -0.698414 -6.73891 0
M  V30 14320 H 1330.48 -2.22254 -6.72316 0
M  V30 14321 H 1330.89 -0.917572 -5.56993 0
M  V30 14322 N 1330.29 1.35952 -0.797165 0
M  V30 14323 C 1331.22 2.28649 -0.15877 0
M  V30 14324 C 1332.24 1.49842 0.636481 0
M  V30 14325 O 1333.42 1.72191 0.47039 0
M  V30 14326 C 1330.52 3.29373 0.797913 0
M  V30 14327 C 1329.7 4.3737 0.0510574 0
M  V30 14328 C 1328.76 5.18009 0.924826 0
M  V30 14329 O 1327.78 5.67935 0.379223 0
M  V30 14330 N 1328.98 5.352 2.24813 0
M  V30 14331 H 1331.75 2.84075 -0.955056 0
M  V30 14332 H 1329.31 1.48201 -0.651767 0
M  V30 14333 H 1331.3 3.80209 1.38646 0
M  V30 14334 H 1329.87 2.74531 1.49504 0
M  V30 14335 H 1329.09 3.87594 -0.718633 0
M  V30 14336 H 1330.38 5.0668 -0.464025 0
M  V30 14337 H 1329.78 4.96266 2.71545 0
M  V30 14338 H 1328.34 5.89252 2.78614 0
M  V30 14339 N 1331.77 0.549846 1.47697 0
M  V30 14340 C 1332.7 -0.190364 2.32723 0
M  V30 14341 C 1333.68 -0.915933 1.43334 0
M  V30 14342 O 1334.86 -0.897838 1.72199 0
M  V30 14343 C 1331.99 -1.22545 3.24961 0
M  V30 14344 C 1330.95 -0.616805 4.23532 0
M  V30 14345 C 1330.27 -1.75599 5.05044 0
M  V30 14346 C 1331.57 0.424595 5.20571 0
M  V30 14347 H 1333.27 0.519461 2.94859 0
M  V30 14348 H 1330.81 0.251259 1.41791 0
M  V30 14349 H 1332.77 -1.75139 3.83281 0
M  V30 14350 H 1331.49 -1.96512 2.60865 0
M  V30 14351 H 1330.15 -0.112224 3.66428 0
M  V30 14352 H 1329.8 -2.48453 4.37356 0
M  V30 14353 H 1329.5 -1.35456 5.71774 0
M  V30 14354 H 1331.02 -2.28533 5.6622 0
M  V30 14355 H 1332.44 -0.0150025 5.73298 0
M  V30 14356 H 1330.83 0.7445 5.95464 0
M  V30 14357 H 1331.9 1.32318 4.66497 0
M  V30 14358 N 1333.25 -1.54984 0.285932 0
M  V30 14359 C 1334.49 -1.9983 -0.327737 0
M  V30 14360 C 1334.82 -1.17435 -1.55046 0
M  V30 14361 O 1334.08 -0.234735 -1.94287 0
M  V30 14362 C 1334.38 -3.49581 -0.7435 0
M  V30 14363 C 1334.04 -4.49331 0.375792 0
M  V30 14364 C 1332.7 -4.76327 0.683103 0
M  V30 14365 C 1335.06 -5.08815 1.12947 0
M  V30 14366 C 1332.38 -5.60071 1.74748 0
M  V30 14367 C 1334.74 -5.93716 2.18366 0
M  V30 14368 C 1333.4 -6.19028 2.4972 0
M  V30 14369 H 1332.67 -0.731231 -0.119928 0
M  V30 14370 H 1335.32 -1.87235 0.401896 0
M  V30 14371 H 1333.62 -3.59708 -1.55298 0
M  V30 14372 H 1335.32 -3.81694 -1.22924 0
M  V30 14373 H 1331.91 -4.28414 0.126159 0
M  V30 14374 H 1336.09 -4.87973 0.905313 0
M  V30 14375 H 1331.35 -5.77925 1.9953 0
M  V30 14376 H 1335.52 -6.38838 2.77233 0
M  V30 14377 H 1333.15 -6.83711 3.3233 0
M  V30 14378 N 1334.72 -0.0133892 -1.57594 0
M  V30 14379 C 1335.97 0.667313 -1.90765 0
M  V30 14380 C 1336.29 1.73564 -0.888847 0
M  V30 14381 O 1335.56 1.95768 0.0718946 0
M  V30 14382 H 1334.14 0.24947 -0.704112 0
M  V30 14383 H 1336.81 -0.0574789 -1.94815 0
M  V30 14384 H 1335.9 1.13007 -2.90922 0
M  V30 14385 N 1336.2 1.55448 0.259558 0
M  V30 14386 C 1337.15 1.89248 1.32113 0
M  V30 14387 C 1338.12 0.745348 1.48438 0
M  V30 14388 O 1339.3 0.997854 1.62627 0
M  V30 14389 C 1336.44 2.18161 2.67394 0
M  V30 14390 C 1335.56 3.45614 2.59182 0
M  V30 14391 C 1334.69 3.6416 3.86731 0
M  V30 14392 C 1333.73 4.85258 3.73084 0
M  V30 14393 N 1332.87 5.00391 4.92497 0
M  V30 14394 H 1337.71 2.79785 1.02589 0
M  V30 14395 H 1335.25 1.38509 0.495338 0
M  V30 14396 H 1337.2 2.32927 3.46122 0
M  V30 14397 H 1335.83 1.30843 2.95093 0
M  V30 14398 H 1334.89 3.39248 1.72091 0
M  V30 14399 H 1336.2 4.34483 2.45002 0
M  V30 14400 H 1335.35 3.78817 4.73902 0
M  V30 14401 H 1334.09 2.73501 4.03793 0
M  V30 14402 H 1333.1 4.70591 2.84296 0
M  V30 14403 H 1334.32 5.77365 3.57528 0
M  V30 14404 H 1332.27 4.12666 5.09944 0
M  V30 14405 H 1332.18 5.83328 4.809 0
M  V30 14406 H 1333.45 5.19446 5.81202 0
M  V30 14407 N 1337.68 -0.524672 1.4861 0
M  V30 14408 C 1338.91 -1.30958 1.60825 0
M  V30 14409 C 1339.33 -1.86142 0.270682 0
M  V30 14410 O 1338.69 -1.64675 -0.758415 0
M  V30 14411 C 1338.74 -2.43252 2.66197 0
M  V30 14412 O 1337.84 -3.4644 2.23725 0
M  V30 14413 H 1337.18 -0.387638 0.539104 0
M  V30 14414 H 1339.71 -0.630755 1.94635 0
M  V30 14415 H 1339.72 -2.89362 2.87635 0
M  V30 14416 H 1338.4 -2.02449 3.63301 0
M  V30 14417 H 1336.97 -3.06413 2.12522 0
M  V30 14418 N 1339.16 -1.37287 -0.77395 0
M  V30 14419 C 1340.39 -1.35366 -1.56075 0
M  V30 14420 C 1340.8 0.0634437 -1.89094 0
M  V30 14421 O 1340.14 1.03503 -1.51766 0
M  V30 14422 C 1340.2 -2.12512 -2.89964 0
M  V30 14423 C 1339.87 -3.61492 -2.79593 0
M  V30 14424 C 1340.86 -4.55421 -2.50774 0
M  V30 14425 C 1338.55 -4.04585 -2.97684 0
M  V30 14426 C 1340.54 -5.90421 -2.4017 0
M  V30 14427 C 1338.23 -5.39672 -2.86701 0
M  V30 14428 C 1339.23 -6.32403 -2.57984 0
M  V30 14429 O 1338.91 -7.65006 -2.47024 0
M  V30 14430 H 1338.65 -0.465447 -0.49024 0
M  V30 14431 H 1341.2 -1.81199 -0.967273 0
M  V30 14432 H 1339.43 -1.61366 -3.51423 0
M  V30 14433 H 1341.12 -2.03253 -3.51345 0
M  V30 14434 H 1341.89 -4.23438 -2.36485 0
M  V30 14435 H 1337.76 -3.32769 -3.19038 0
M  V30 14436 H 1341.31 -6.62769 -2.17676 0
M  V30 14437 H 1337.21 -5.71258 -3.00558 0
M  V30 14438 H 1337.97 -7.75302 -2.6239 0
M  V30 14439 N 1340.64 0.999871 -1.21821 0
M  V30 14440 C 1341.58 2.08864 -0.98206 0
M  V30 14441 C 1342.55 1.65835 0.0937677 0
M  V30 14442 O 1343.74 1.90722 -0.0544038 0
M  V30 14443 C 1340.88 3.40553 -0.558382 0
M  V30 14444 C 1339.99 3.96964 -1.70422 0
M  V30 14445 C 1339.13 5.16782 -1.2292 0
M  V30 14446 C 1338.17 5.65315 -2.34703 0
M  V30 14447 N 1337.3 6.76379 -1.88299 0
M  V30 14448 H 1342.14 2.28399 -1.9141 0
M  V30 14449 H 1339.68 1.11984 -0.953837 0
M  V30 14450 H 1341.64 4.16163 -0.293955 0
M  V30 14451 H 1340.27 3.2104 0.336656 0
M  V30 14452 H 1339.32 3.18291 -2.08315 0
M  V30 14453 H 1340.63 4.2897 -2.54531 0
M  V30 14454 H 1339.79 5.99657 -0.92174 0
M  V30 14455 H 1338.52 4.86383 -0.358222 0
M  V30 14456 H 1337.53 4.81033 -2.66246 0
M  V30 14457 H 1338.75 5.97742 -3.22306 0
M  V30 14458 H 1336.7 6.47775 -1.03552 0
M  V30 14459 H 1336.62 7.07666 -2.65978 0
M  V30 14460 H 1337.89 7.62776 -1.60601 0
M  V30 14461 N 1342.11 1.02678 1.19562 0
M  V30 14462 C 1343.02 0.615738 2.26375 0
M  V30 14463 C 1344.04 -0.351525 1.70412 0
M  V30 14464 O 1345.22 -0.209932 2.00303 0
M  V30 14465 C 1342.28 -0.0292135 3.46688 0
M  V30 14466 C 1341.34 0.985284 4.1784 0
M  V30 14467 C 1340.58 0.371016 5.32409 0
M  V30 14468 O 1340.8 -0.826591 5.64379 0
M  V30 14469 O 1339.73 1.09282 5.91896 0
M  V30 14470 H 1343.56 1.50526 2.63772 0
M  V30 14471 H 1341.14 0.796847 1.26375 0
M  V30 14472 H 1343.03 -0.38893 4.19601 0
M  V30 14473 H 1341.7 -0.892778 3.11145 0
M  V30 14474 H 1340.61 1.39655 3.47055 0
M  V30 14475 H 1341.94 1.81915 4.57349 0
M  V30 14476 N 1343.59 -1.35528 0.804364 0
M  V30 14477 C 1344.83 -2.00658 0.389299 0
M  V30 14478 C 1345.2 -1.62431 -1.02373 0
M  V30 14479 O 1346.4 -2.20264 -1.54068 0
M  V30 14480 C 1344.67 -3.52913 0.564569 0
M  V30 14481 S 1346.23 -4.38145 0.239597 0
M  V30 14482 H 1343.05 -0.695435 0.147958 0
M  V30 14483 H 1345.65 -1.65156 1.04613 0
M  V30 14484 H 1344.35 -3.78222 1.59299 0
M  V30 14485 H 1343.88 -3.93253 -0.10766 0
M  V30 14486 H 1345.9 -4.86952 -0.953533 0
M  V30 14487 N 1345.07 -0.557671 -1.47404 0
M  V30 14488 C 1346.32 -0.0338384 -2.02772 0
M  V30 14489 C 1346.65 1.31278 -1.43107 0
M  V30 14490 O 1345.93 1.85436 -0.58682 0
M  V30 14491 C 1346.21 0.0587427 -3.60052 0
M  V30 14492 C 1346.06 -1.315 -4.30148 0
M  V30 14493 C 1347.38 0.771942 -4.33277 0
M  V30 14494 H 1344.5 -0.0137711 -0.736871 0
M  V30 14495 H 1347.14 -0.720049 -1.75827 0
M  V30 14496 H 1345.29 0.643154 -3.83139 0
M  V30 14497 H 1346.96 -1.94265 -4.184 0
M  V30 14498 H 1345.21 -1.88956 -3.90484 0
M  V30 14499 H 1345.88 -1.20294 -5.38733 0
M  V30 14500 H 1348.35 0.275729 -4.15185 0
M  V30 14501 H 1347.23 0.805683 -5.42955 0
M  V30 14502 H 1347.49 1.82816 -4.0253 0
M  V30 14503 N 1346.55 1.54831 -0.294147 0
M  V30 14504 C 1347.79 2.0191 0.318092 0
M  V30 14505 C 1348.15 1.178 1.51615 0
M  V30 14506 O 1349.35 1.54546 2.1993 0
M  V30 14507 C 1347.63 3.51018 0.672375 0
M  V30 14508 S 1349.18 4.20066 1.26845 0
M  V30 14509 H 1346 0.704215 0.0979881 0
M  V30 14510 H 1348.6 1.90926 -0.420422 0
M  V30 14511 H 1347.31 4.09872 -0.208159 0
M  V30 14512 H 1346.84 3.66025 1.44186 0
M  V30 14513 H 1348.85 4.25274 2.55649 0
M  V30 14514 N 1348.03 0.0217466 1.57585 0
M  V30 14515 C 1348.97 -0.962559 2.0977 0
M  V30 14516 C 1349.94 -1.32771 0.998053 0
M  V30 14517 O 1351.13 -1.42231 1.27181 0
M  V30 14518 C 1348.27 -2.24214 2.62339 0
M  V30 14519 C 1347.38 -1.9341 3.86286 0
M  V30 14520 C 1346.52 -3.15609 4.27275 0
M  V30 14521 C 1345.56 -2.8059 5.43999 0
M  V30 14522 N 1344.69 -3.95392 5.8018 0
M  V30 14523 H 1349.53 -0.510626 2.93593 0
M  V30 14524 H 1347.07 -0.240456 1.45121 0
M  V30 14525 H 1349.03 -2.99049 2.90905 0
M  V30 14526 H 1347.66 -2.67037 1.81358 0
M  V30 14527 H 1346.71 -1.08849 3.64494 0
M  V30 14528 H 1348.02 -1.63614 4.71203 0
M  V30 14529 H 1347.18 -3.9877 4.57239 0
M  V30 14530 H 1345.92 -3.48561 3.41111 0
M  V30 14531 H 1344.92 -1.9584 5.13738 0
M  V30 14532 H 1346.15 -2.48863 6.31858 0
M  V30 14533 H 1344.09 -4.282 4.96971 0
M  V30 14534 H 1344.01 -3.69195 6.59721 0
M  V30 14535 H 1345.28 -4.79279 6.14746 0
M  V30 14536 N 1349.51 -1.55583 -0.251311 0
M  V30 14537 C 1350.75 -1.76411 -0.977859 0
M  V30 14538 C 1351.07 -0.584857 -1.86651 0
M  V30 14539 O 1352.27 -0.676046 -2.62948 0
M  V30 14540 C 1350.73 -3.12302 -1.78872 0
M  V30 14541 C 1350.34 -4.37862 -0.947674 0
M  V30 14542 C 1352.08 -3.42471 -2.50827 0
M  V30 14543 C 1349.99 -5.64786 -1.75417 0
M  V30 14544 H 1348.92 -0.657628 -0.368839 0
M  V30 14545 H 1351.57 -1.82019 -0.232682 0
M  V30 14546 H 1349.95 -3.0079 -2.57569 0
M  V30 14547 H 1351.13 -4.60351 -0.203352 0
M  V30 14548 H 1349.44 -4.14996 -0.341666 0
M  V30 14549 H 1352.04 -4.34514 -3.11612 0
M  V30 14550 H 1352.38 -2.63592 -3.22219 0
M  V30 14551 H 1352.91 -3.55179 -1.79145 0
M  V30 14552 H 1349.65 -6.46474 -1.08407 0
M  V30 14553 H 1349.17 -5.46405 -2.47389 0
M  V30 14554 H 1350.85 -6.03881 -2.32242 0
M  V30 14555 N 1350.98 0.516783 -1.48886 0
M  V30 14556 C 1352.21 1.30103 -1.61518 0
M  V30 14557 C 1352.63 1.85996 -0.28055 0
M  V30 14558 O 1351.99 1.65075 0.749671 0
M  V30 14559 C 1352.04 2.41837 -2.67483 0
M  V30 14560 O 1351.14 3.45249 -2.25559 0
M  V30 14561 H 1350.48 0.384774 -0.541152 0
M  V30 14562 H 1353.01 0.620424 -1.94966 0
M  V30 14563 H 1353.02 2.87832 -2.89165 0
M  V30 14564 H 1351.7 2.00519 -3.64369 0
M  V30 14565 H 1350.28 3.05281 -2.14144 0
M  V30 14566 N 1352.46 1.37696 0.766659 0
M  V30 14567 C 1353.41 1.33966 1.90147 0
M  V30 14568 C 1354.4 0.2276 1.67864 0
M  V30 14569 O 1355.61 0.395912 1.75592 0
M  V30 14570 H 1351.98 0.417611 0.625384 0
M  V30 14571 H 1353.96 2.29753 1.9041 0
M  V30 14572 C 1352.7 1.16859 3.27474 0
M  V30 14573 H 1352.03 2.01686 3.452 0
M  V30 14574 H 1353.47 1.18301 4.07162 0
M  V30 14575 C 1351.93 -0.125418 3.36666 0
M  V30 14576 O 1352.46 -1.10717 3.86141 0
M  V30 14577 N 1350.66 -0.17784 2.90055 0
M  V30 14578 H 1350.21 0.621737 2.49984 0
M  V30 14579 H 1350.17 -1.04325 2.96587 0
M  V30 14580 N 1353.94 -0.993397 1.22349 0
M  V30 14581 C 1355.22 -1.7063 0.956275 0
M  V30 14582 C 1355.6 -2.0437 -0.52877 0
M  V30 14583 O 1354.94 -1.72662 -1.49667 0
M  V30 14584 C 1355.15 -2.95725 1.85331 0
M  V30 14585 C 1356.5 -3.68514 2.10909 0
M  V30 14586 O 1357.53 -3.05732 1.82775 0
M  V30 14587 O 1356.39 -4.81468 2.58556 0
M  V30 14588 H 1353.48 -0.744734 0.359583 0
M  V30 14589 H 1356.03 -1.04979 1.33333 0
M  V30 14590 H 1354.8 -2.6729 2.85782 0
M  V30 14591 H 1354.42 -3.69116 1.47781 0
M  V30 14592 N 1355.42 -1.03311 -1.19015 0
M  V30 14593 C 1356.66 -0.740813 -1.90503 0
M  V30 14594 C 1357.02 0.717732 -1.7808 0
M  V30 14595 O 1358.22 1.12329 -2.44204 0
M  V30 14596 C 1356.49 -1.18473 -3.37193 0
M  V30 14597 S 1358.05 -1.01692 -4.26854 0
M  V30 14598 H 1354.87 -0.269575 -0.657913 0
M  V30 14599 H 1357.47 -1.32382 -1.43858 0
M  V30 14600 H 1356.18 -2.2418 -3.43761 0
M  V30 14601 H 1355.71 -0.59519 -3.88872 0
M  V30 14602 H 1357.72 0.070076 -4.96151 0
M  V30 14603 N 1356.9 1.35099 -0.81154 0
M  V30 14604 C 1357.81 2.33499 -0.22705 0
M  V30 14605 C 1358.82 1.62095 0.632562 0
M  V30 14606 O 1360 1.93938 0.543147 0
M  V30 14607 C 1357.06 3.41279 0.610687 0
M  V30 14608 C 1356.12 4.2845 -0.269994 0
M  V30 14609 C 1355.36 5.31083 0.527854 0
M  V30 14610 O 1355.58 5.42499 1.76213 0
M  V30 14611 O 1354.51 6.01842 -0.083862 0
M  V30 14612 H 1358.34 2.85294 -1.04119 0
M  V30 14613 H 1355.92 1.37957 -0.573432 0
M  V30 14614 H 1357.81 4.07121 1.08768 0
M  V30 14615 H 1356.48 2.91746 1.40235 0
M  V30 14616 H 1355.39 3.65572 -0.794234 0
M  V30 14617 H 1356.72 4.81394 -1.02572 0
M  V30 14618 N 1358.37 0.56548 1.47106 0
M  V30 14619 C 1359.3 -0.16567 2.32912 0
M  V30 14620 C 1360.28 -0.900678 1.44298 0
M  V30 14621 O 1361.47 -0.879523 1.73142 0
M  V30 14622 C 1358.6 -1.19092 3.26243 0
M  V30 14623 C 1357.55 -0.571849 4.24163 0
M  V30 14624 C 1356.88 -1.70233 5.06878 0
M  V30 14625 C 1358.18 0.479785 5.20092 0
M  V30 14626 H 1359.87 0.550705 2.94292 0
M  V30 14627 H 1357.42 0.266284 1.41517 0
M  V30 14628 H 1359.37 -1.71064 3.85117 0
M  V30 14629 H 1358.1 -1.93734 2.62934 0
M  V30 14630 H 1356.76 -0.073353 3.66527 0
M  V30 14631 H 1356.4 -2.438 4.39967 0
M  V30 14632 H 1356.1 -1.29384 5.73178 0
M  V30 14633 H 1357.63 -2.22515 5.68612 0
M  V30 14634 H 1359.04 0.0458042 5.73282 0
M  V30 14635 H 1357.44 0.807615 5.94641 0
M  V30 14636 H 1358.51 1.37259 4.65068 0
M  V30 14637 N 1359.85 -1.54672 0.302354 0
M  V30 14638 C 1361.26 -1.85731 -0.190019 0
M  V30 14639 C 1361.61 -1.22427 -1.53317 0
M  V30 14640 O 1360.74 -0.522461 -2.09998 0
M  V30 14641 C 1361.33 -3.36971 -0.351562 0
M  V30 14642 C 1359.89 -3.68056 -0.788155 0
M  V30 14643 C 1359.04 -2.7711 0.102705 0
M  V30 14644 H 1361.99 -1.49823 0.523324 0
M  V30 14645 H 1362.01 -3.61547 -1.18592 0
M  V30 14646 H 1361.52 -3.83016 0.626152 0
M  V30 14647 H 1359.63 -3.2753 -1.77637 0
M  V30 14648 H 1359.74 -4.75244 -0.606604 0
M  V30 14649 H 1358.1 -2.51243 -0.418235 0
M  V30 14650 H 1358.89 -3.25975 1.0768 0
M  V30 14651 N 1361.33 -0.0301034 -1.57571 0
M  V30 14652 C 1362.75 0.326296 -1.56229 0
M  V30 14653 C 1362.95 1.72839 -1.03581 0
M  V30 14654 O 1362 2.43088 -0.682979 0
M  V30 14655 C 1363.32 0.174001 -3.00196 0
M  V30 14656 C 1364.86 0.246694 -3.12026 0
M  V30 14657 C 1365.34 0.123177 -4.57834 0
M  V30 14658 N 1366.83 0.180129 -4.6285 0
M  V30 14659 C 1367.56 0.108353 -5.73298 0
M  V30 14660 N 1367.06 -0.0145648 -6.92798 0
M  V30 14661 N 1368.85 0.162411 -5.61865 0
M  V30 14662 H 1361 -0.946945 -1.90123 0
M  V30 14663 H 1363.27 -0.365762 -0.874598 0
M  V30 14664 H 1362.97 -0.791871 -3.42669 0
M  V30 14665 H 1362.85 0.943794 -3.65202 0
M  V30 14666 H 1365.23 1.20303 -2.69465 0
M  V30 14667 H 1365.32 -0.553493 -2.4974 0
M  V30 14668 H 1364.96 -0.82974 -5.01077 0
M  V30 14669 H 1364.89 0.94224 -5.18102 0
M  V30 14670 H 1367.38 0.275236 -3.76896 0
M  V30 14671 H 1367.69 -0.062614 -7.72775 0
M  V30 14672 H 1366.04 -0.0493606 -6.94982 0
M  V30 14673 H 1369.23 0.256847 -4.67395 0
M  V30 14674 H 1369.4 0.103013 -6.47918 0
M  V30 14675 N 1362.81 1.55714 0.243056 0
M  V30 14676 C 1364.05 1.78904 0.96772 0
M  V30 14677 C 1364.41 0.599662 1.82816 0
M  V30 14678 O 1363.7 -0.406986 1.87228 0
M  V30 14679 C 1363.9 3.05281 1.85845 0
M  V30 14680 C 1363.73 4.36397 1.08572 0
M  V30 14681 C 1362.5 4.99098 0.789274 0
M  V30 14682 C 1364.69 5.12226 0.461433 0
M  V30 14683 N 1362.68 6.139 -0.00711288 0
M  V30 14684 C 1364.05 6.19679 -0.199349 0
M  V30 14685 C 1366.1 4.96506 0.372287 0
M  V30 14686 C 1364.8 7.13122 -0.940722 0
M  V30 14687 C 1366.83 5.9033 -0.355564 0
M  V30 14688 C 1366.19 6.97194 -1.00497 0
M  V30 14689 H 1362.29 0.706567 0.335094 0
M  V30 14690 H 1364.88 1.93209 0.240503 0
M  V30 14691 H 1363.05 2.92298 2.55767 0
M  V30 14692 H 1364.78 3.16749 2.51897 0
M  V30 14693 H 1361.53 4.606 1.10201 0
M  V30 14694 H 1361.96 6.75855 -0.393512 0
M  V30 14695 H 1366.6 4.13961 0.860025 0
M  V30 14696 H 1364.32 7.95166 -1.44005 0
M  V30 14697 H 1367.9 5.80244 -0.425257 0
M  V30 14698 H 1366.78 7.68543 -1.55918 0
M  V30 14699 N 1364.29 -0.50888 1.49158 0
M  V30 14700 C 1365.24 -1.60799 1.61641 0
M  V30 14701 C 1366.22 -1.53808 0.472434 0
M  V30 14702 O 1367.41 -1.61471 0.724985 0
M  V30 14703 C 1364.54 -2.99444 1.67894 0
M  V30 14704 C 1363.63 -3.1146 2.87843 0
M  V30 14705 N 1364.02 -2.93387 4.12016 0
M  V30 14706 C 1362.32 -3.42549 2.85616 0
M  V30 14707 C 1363.02 -3.09378 4.92606 0
M  V30 14708 N 1361.99 -3.37902 4.2582 0
M  V30 14709 H 1365.8 -1.45468 2.55375 0
M  V30 14710 H 1363.31 -0.714832 1.45822 0
M  V30 14711 H 1365.31 -3.78423 1.74934 0
M  V30 14712 H 1363.97 -3.1585 0.752919 0
M  V30 14713 H 1364.98 -2.69721 4.42121 0
M  V30 14714 H 1361.65 -3.65181 2.02359 0
M  V30 14715 H 1363.04 -2.99964 6.01225 0
M  V30 14716 N 1365.76 -1.381 -0.759346 0
M  V30 14717 C 1366.7 -1.29241 -1.88075 0
M  V30 14718 C 1367.68 -0.170526 -1.61703 0
M  V30 14719 O 1368.86 -0.346865 -1.85281 0
M  V30 14720 C 1365.99 -1.00115 -3.23566 0
M  V30 14721 C 1365.03 -2.14161 -3.68832 0
M  V30 14722 S 1365.87 -3.76251 -3.81045 0
M  V30 14723 C 1367.02 -3.49301 -5.19365 0
M  V30 14724 H 1367.25 -2.24152 -1.95303 0
M  V30 14725 H 1364.79 -1.23869 -0.921734 0
M  V30 14726 H 1366.75 -0.839934 -4.01815 0
M  V30 14727 H 1365.41 -0.0693088 -3.14024 0
M  V30 14728 H 1364.6 -1.89313 -4.67094 0
M  V30 14729 H 1364.2 -2.2636 -2.9772 0
M  V30 14730 H 1366.49 -3.05058 -6.04935 0
M  V30 14731 H 1367.44 -4.46935 -5.49231 0
M  V30 14732 H 1367.84 -2.83944 -4.87889 0
M  V30 14733 N 1367.24 0.986894 -1.22875 0
M  V30 14734 C 1368.19 2.06271 -0.971398 0
M  V30 14735 C 1369.18 1.607 0.0802173 0
M  V30 14736 O 1370.37 1.76514 -0.131079 0
M  V30 14737 C 1367.5 3.38743 -0.557524 0
M  V30 14738 C 1366.58 3.90931 -1.64419 0
M  V30 14739 N 1366.97 4.16273 -2.87315 0
M  V30 14740 C 1365.27 4.19398 -1.51727 0
M  V30 14741 C 1365.97 4.5878 -3.57625 0
M  V30 14742 N 1364.95 4.62828 -2.85116 0
M  V30 14743 H 1368.75 2.23814 -1.90485 0
M  V30 14744 H 1366.27 1.16913 -1.12717 0
M  V30 14745 H 1368.26 4.1539 -0.354453 0
M  V30 14746 H 1366.92 3.22597 0.368957 0
M  V30 14747 H 1367.93 4.04288 -3.23684 0
M  V30 14748 H 1364.61 4.12291 -0.65742 0
M  V30 14749 H 1366 4.8696 -4.62947 0
M  V30 14750 N 1368.72 1.0394 1.18466 0
M  V30 14751 C 1370 0.65632 1.8426 0
M  V30 14752 C 1370.38 -0.864288 1.92596 0
M  V30 14753 O 1369.73 -1.76524 1.45092 0
M  V30 14754 C 1369.94 1.33067 3.22636 0
M  V30 14755 C 1371.28 1.46065 3.98686 0
M  V30 14756 O 1372.31 1.28867 3.32072 0
M  V30 14757 O 1371.17 1.74078 5.18034 0
M  V30 14758 H 1368.26 0.229484 0.794523 0
M  V30 14759 H 1370.81 1.13821 1.25868 0
M  V30 14760 H 1369.58 2.36866 3.11465 0
M  V30 14761 H 1369.2 0.837313 3.88683 0
M  V30 14762 N 1370.2 -1.34667 0.818693 0
M  V30 14763 C 1371.45 -1.98414 0.404759 0
M  V30 14764 C 1371.77 -1.64919 -1.03112 0
M  V30 14765 O 1371.03 -0.910695 -1.73219 0
M  V30 14766 C 1371.33 -3.53157 0.549059 0
M  V30 14767 C 1370.99 -4.06552 1.95003 0
M  V30 14768 C 1369.66 -4.20846 2.33329 0
M  V30 14769 C 1372.01 -4.35324 2.86604 0
M  V30 14770 C 1369.34 -4.61236 3.62599 0
M  V30 14771 C 1371.69 -4.77159 4.15334 0
M  V30 14772 C 1370.35 -4.89658 4.53642 0
M  V30 14773 H 1369.62 -0.726047 0.148112 0
M  V30 14774 H 1372.27 -1.60681 1.04182 0
M  V30 14775 H 1370.57 -3.91425 -0.17141 0
M  V30 14776 H 1372.27 -4.00453 0.209374 0
M  V30 14777 H 1368.86 -3.95887 1.64231 0
M  V30 14778 H 1373.04 -4.23823 2.58239 0
M  V30 14779 H 1368.3 -4.69104 3.92112 0
M  V30 14780 H 1372.47 -4.98381 4.86404 0
M  V30 14781 H 1370.1 -5.20713 5.53861 0
M  V30 14782 N 1371.68 -0.573274 -1.46804 0
M  V30 14783 C 1372.92 -0.0552613 -2.02425 0
M  V30 14784 C 1373.25 1.30098 -1.44585 0
M  V30 14785 O 1372.51 1.86366 -0.597166 0
M  V30 14786 C 1372.81 0.0704285 -3.57331 0
M  V30 14787 C 1372.47 -1.217 -4.34166 0
M  V30 14788 C 1371.13 -1.56973 -4.54877 0
M  V30 14789 C 1373.49 -2.06939 -4.78357 0
M  V30 14790 C 1370.81 -2.77302 -5.1703 0
M  V30 14791 C 1373.17 -3.26486 -5.41839 0
M  V30 14792 C 1371.83 -3.62053 -5.6078 0
M  V30 14793 H 1371.1 -0.0202215 -0.740724 0
M  V30 14794 H 1373.75 -0.748016 -1.76287 0
M  V30 14795 H 1372.05 0.846254 -3.82552 0
M  V30 14796 H 1373.75 0.486841 -3.98034 0
M  V30 14797 H 1370.34 -0.932374 -4.18336 0
M  V30 14798 H 1374.52 -1.80992 -4.62121 0
M  V30 14799 H 1369.78 -3.05008 -5.29887 0
M  V30 14800 H 1373.95 -3.92811 -5.75042 0
M  V30 14801 H 1371.58 -4.55385 -6.08711 0
M  V30 14802 N 1373.15 1.5451 -0.310553 0
M  V30 14803 C 1374.1 2.2059 0.576555 0
M  V30 14804 C 1375.09 1.18205 1.09163 0
M  V30 14805 O 1376.28 1.43887 1.03081 0
M  V30 14806 C 1373.41 2.95741 1.74334 0
M  V30 14807 C 1372.5 4.05452 1.24378 0
M  V30 14808 N 1372.89 5.03677 0.462921 0
M  V30 14809 C 1371.18 4.19166 1.52367 0
M  V30 14810 C 1371.89 5.81371 0.195709 0
M  V30 14811 N 1370.86 5.38001 0.778203 0
M  V30 14812 H 1374.66 2.93887 -0.0274771 0
M  V30 14813 H 1372.18 1.61987 -0.115773 0
M  V30 14814 H 1374.17 3.41556 2.39051 0
M  V30 14815 H 1372.83 2.23962 2.35098 0
M  V30 14816 H 1373.85 5.1779 0.106943 0
M  V30 14817 H 1370.52 3.58597 2.1381 0
M  V30 14818 H 1371.91 6.70509 -0.432064 0
M  V30 14819 N 1374.63 0.0384594 1.57553 0
M  V30 14820 C 1375.86 -0.651613 1.96898 0
M  V30 14821 C 1376.28 -1.64328 0.915308 0
M  V30 14822 O 1375.64 -1.80883 -0.122824 0
M  V30 14823 C 1375.69 -1.32613 3.3533 0
M  V30 14824 O 1374.79 -2.44159 3.32355 0
M  V30 14825 H 1374.13 -0.170441 0.641752 0
M  V30 14826 H 1376.66 0.103086 2.0434 0
M  V30 14827 H 1376.67 -1.68076 3.71772 0
M  V30 14828 H 1375.35 -0.599275 4.1156 0
M  V30 14829 H 1373.93 -2.10738 3.07642 0
M  V30 14830 N 1376.11 -1.55841 -0.234795 0
M  V30 14831 C 1377.36 -1.78238 -0.961116 0
M  V30 14832 C 1377.69 -0.604919 -1.84854 0
M  V30 14833 O 1376.94 0.411289 -1.91329 0
M  V30 14834 C 1377.24 -3.06262 -1.84223 0
M  V30 14835 C 1376.91 -4.37045 -1.10916 0
M  V30 14836 C 1375.57 -4.72582 -0.906606 0
M  V30 14837 C 1377.92 -5.17844 -0.59049 0
M  V30 14838 C 1375.25 -5.86444 -0.173275 0
M  V30 14839 C 1377.6 -6.32468 0.129433 0
M  V30 14840 C 1376.26 -6.66616 0.343357 0
M  V30 14841 H 1375.53 -0.652219 -0.351697 0
M  V30 14842 H 1378.18 -1.9011 -0.230272 0
M  V30 14843 H 1376.49 -2.89454 -2.64052 0
M  V30 14844 H 1378.18 -3.20791 -2.40612 0
M  V30 14845 H 1374.77 -4.09134 -1.27699 0
M  V30 14846 H 1378.96 -4.90835 -0.734487 0
M  V30 14847 H 1374.21 -6.114 0.00282409 0
M  V30 14848 H 1378.39 -6.94312 0.538905 0
M  V30 14849 H 1376.01 -7.54691 0.913538 0
M  V30 14850 N 1377.59 0.500963 -1.49426 0
M  V30 14851 C 1378.52 1.61114 -1.69011 0
M  V30 14852 C 1379.5 1.61341 -0.538813 0
M  V30 14853 O 1380.69 1.78081 -0.77466 0
M  V30 14854 C 1377.82 2.99598 -1.75666 0
M  V30 14855 C 1376.77 3.14236 -2.90585 0
M  V30 14856 C 1376.1 4.54071 -2.82354 0
M  V30 14857 C 1377.4 2.94258 -4.3152 0
M  V30 14858 H 1379.09 1.44978 -2.61957 0
M  V30 14859 H 1376.64 0.69603 -1.26061 0
M  V30 14860 H 1378.59 3.77163 -1.87953 0
M  V30 14861 H 1377.31 3.16822 -0.793186 0
M  V30 14862 H 1375.97 2.39096 -2.779 0
M  V30 14863 H 1375.62 4.68172 -1.83914 0
M  V30 14864 H 1375.32 4.64806 -3.59485 0
M  V30 14865 H 1376.84 5.33696 -2.96649 0
M  V30 14866 H 1378.26 3.61592 -4.44886 0
M  V30 14867 H 1376.65 3.16464 -5.09873 0
M  V30 14868 H 1377.72 1.90383 -4.45962 0
M  V30 14869 N 1379.07 1.38501 0.752011 0
M  V30 14870 C 1380.32 1.34112 1.50655 0
M  V30 14871 C 1380.63 -0.0657661 1.95489 0
M  V30 14872 O 1381.84 -0.232199 2.70505 0
M  V30 14873 C 1380.29 2.35514 2.72142 0
M  V30 14874 C 1379.9 3.81831 2.34326 0
M  V30 14875 C 1381.64 2.40171 3.50026 0
M  V30 14876 C 1379.55 4.74915 3.52434 0
M  V30 14877 H 1378.48 0.498519 0.565681 0
M  V30 14878 H 1381.13 1.64064 0.821913 0
M  V30 14879 H 1379.51 1.98607 3.42595 0
M  V30 14880 H 1380.69 4.27685 1.7153 0
M  V30 14881 H 1379 3.80308 1.69573 0
M  V30 14882 H 1381.6 3.06913 4.37845 0
M  V30 14883 H 1381.94 1.42111 3.91293 0
M  V30 14884 H 1382.48 2.75884 2.86588 0
M  V30 14885 H 1379.21 5.74176 3.16232 0
M  V30 14886 H 1378.73 4.33753 4.14268 0
M  V30 14887 H 1380.41 4.93003 4.18995 0
M  V30 14888 N 1380.55 -0.980364 1.23396 0
M  V30 14889 C 1381.79 -1.72421 1.06765 0
M  V30 14890 C 1382.12 -1.90151 -0.394515 0
M  V30 14891 O 1381.4 -1.4538 -1.29209 0
M  V30 14892 C 1381.68 -3.12246 1.79372 0
M  V30 14893 C 1381.54 -3.02087 3.33262 0
M  V30 14894 C 1382.85 -4.11667 1.55624 0
M  V30 14895 H 1379.97 -0.625822 0.389251 0
M  V30 14896 H 1382.62 -1.14132 1.51901 0
M  V30 14897 H 1380.77 -3.62008 1.41004 0
M  V30 14898 H 1382.44 -2.59848 3.81152 0
M  V30 14899 H 1380.68 -2.38592 3.62293 0
M  V30 14900 H 1381.35 -4.01087 3.79254 0
M  V30 14901 H 1383.83 -3.70712 1.88975 0
M  V30 14902 H 1382.7 -5.07593 2.08902 0
M  V30 14903 H 1382.96 -4.39358 0.491601 0
M  V30 14904 N 1382.02 -1.04567 -1.17913 0
M  V30 14905 C 1383.27 -0.752023 -1.88018 0
M  V30 14906 C 1383.6 0.720567 -1.8066 0
M  V30 14907 O 1382.85 1.54207 -1.20493 0
M  V30 14908 C 1383.15 -1.1699 -3.3771 0
M  V30 14909 C 1382.82 -2.64363 -3.65271 0
M  V30 14910 C 1381.48 -3.04622 -3.72503 0
M  V30 14911 C 1383.83 -3.59626 -3.77251 0
M  V30 14912 C 1381.16 -4.39023 -3.89199 0
M  V30 14913 C 1383.51 -4.93752 -3.95465 0
M  V30 14914 C 1382.18 -5.33675 -4.00933 0
M  V30 14915 H 1381.45 -0.275185 -0.688008 0
M  V30 14916 H 1384.09 -1.31161 -1.39532 0
M  V30 14917 H 1382.4 -0.529202 -3.8821 0
M  V30 14918 H 1384.1 -0.919981 -3.90304 0
M  V30 14919 H 1380.69 -2.32182 -3.60263 0
M  V30 14920 H 1384.87 -3.29665 -3.70992 0
M  V30 14921 H 1380.13 -4.69466 -3.91679 0
M  V30 14922 H 1384.3 -5.67467 -4.03676 0
M  V30 14923 H 1381.93 -6.37825 -4.13623 0
M  V30 14924 N 1383.5 1.34231 -0.825823 0
M  V30 14925 C 1384.92 1.51166 -0.511945 0
M  V30 14926 C 1385.12 1.76981 0.963318 0
M  V30 14927 O 1384.17 1.82243 1.74767 0
M  V30 14928 C 1385.49 2.67474 -1.37399 0
M  V30 14929 C 1387.03 2.81356 -1.37141 0
M  V30 14930 C 1387.51 4.0071 -2.218 0
M  V30 14931 N 1389 4.07922 -2.19439 0
M  V30 14932 C 1389.74 4.99438 -2.81691 0
M  V30 14933 N 1389.23 5.96157 -3.52944 0
M  V30 14934 N 1391.02 4.92332 -2.7123 0
M  V30 14935 H 1383.18 1.15734 -1.78099 0
M  V30 14936 H 1385.44 0.567856 -0.759107 0
M  V30 14937 H 1385.14 2.55036 -2.42176 0
M  V30 14938 H 1385.02 3.62558 -1.04075 0
M  V30 14939 H 1387.41 2.93233 -0.331405 0
M  V30 14940 H 1387.49 1.87072 -1.74464 0
M  V30 14941 H 1387.13 3.89593 -3.25852 0
M  V30 14942 H 1387.06 4.94213 -1.81826 0
M  V30 14943 H 1389.55 3.38695 -1.67612 0
M  V30 14944 H 1389.86 6.62623 -3.97682 0
M  V30 14945 H 1388.21 5.96272 -3.5705 0
M  V30 14946 H 1391.4 4.15733 -2.15137 0
M  V30 14947 H 1391.57 5.63458 -3.20031 0
M  V30 14948 N 1384.98 0.581051 1.46498 0
M  V30 14949 C 1386.23 0.0660934 2.02692 0
M  V30 14950 C 1386.56 -1.28985 1.45178 0
M  V30 14951 O 1385.83 -1.84479 0.616247 0
M  V30 14952 C 1386.12 -0.00145411 3.601 0
M  V30 14953 C 1385.97 1.38327 4.28002 0
M  V30 14954 C 1387.29 -0.702914 4.3445 0
M  V30 14955 H 1384.41 0.0254923 0.736559 0
M  V30 14956 H 1387.05 0.74793 1.7466 0
M  V30 14957 H 1385.2 -0.582118 3.84114 0
M  V30 14958 H 1386.87 2.00897 4.15257 0
M  V30 14959 H 1385.11 1.95144 3.87429 0
M  V30 14960 H 1385.79 1.28849 5.36751 0
M  V30 14961 H 1388.26 -0.209641 4.15572 0
M  V30 14962 H 1387.14 -0.719202 5.44168 0
M  V30 14963 H 1387.4 -1.76389 4.05388 0
M  V30 14964 N 1386.46 -1.54343 0.318742 0
M  V30 14965 C 1387.39 -2.27118 -0.542206 0
M  V30 14966 C 1388.37 -1.27731 -1.12334 0
M  V30 14967 O 1389.55 -1.56535 -1.14937 0
M  V30 14968 C 1386.68 -3.02535 -1.70558 0
M  V30 14969 C 1385.64 -4.09218 -1.25398 0
M  V30 14970 C 1384.96 -4.72449 -2.50391 0
M  V30 14971 C 1386.26 -5.20971 -0.372332 0
M  V30 14972 H 1387.96 -2.9933 0.0648226 0
M  V30 14973 H 1385.5 -1.43963 0.0326168 0
M  V30 14974 H 1387.46 -3.52174 -2.31412 0
M  V30 14975 H 1386.18 -2.27931 -2.33912 0
M  V30 14976 H 1384.84 -3.60455 -0.668392 0
M  V30 14977 H 1384.49 -3.94466 -3.12099 0
M  V30 14978 H 1384.19 -5.4451 -2.20868 0
M  V30 14979 H 1385.71 -5.2486 -3.12016 0
M  V30 14980 H 1387.13 -5.66396 -0.887029 0
M  V30 14981 H 1385.52 -5.99859 -0.17009 0
M  V30 14982 H 1386.59 -4.81198 0.598064 0
M  V30 14983 N 1387.94 -0.0468143 -1.5753 0
M  V30 14984 C 1389.18 0.631887 -1.94388 0
M  V30 14985 C 1389.54 1.68265 -0.924715 0
M  V30 14986 O 1390.74 2.41511 -1.18008 0
M  V30 14987 C 1389.01 1.21642 -3.36063 0
M  V30 14988 S 1390.57 1.91373 -3.94869 0
M  V30 14989 H 1387.39 0.207594 -0.680019 0
M  V30 14990 H 1389.99 -0.11471 -1.95163 0
M  V30 14991 H 1388.69 0.439479 -4.0804 0
M  V30 14992 H 1388.23 1.99993 -3.38772 0
M  V30 14993 H 1390.24 3.19392 -3.79741 0
M  V30 14994 N 1389.41 1.55964 0.226527 0
M  V30 14995 C 1390.66 1.78392 0.94977 0
M  V30 14996 C 1390.98 0.614444 1.85066 0
M  V30 14997 O 1390.25 -0.368894 1.92395 0
M  V30 14998 H 1388.83 0.657962 0.353688 0
M  V30 14999 H 1391.5 1.93422 0.239577 0
M  V30 15000 H 1390.59 2.70343 1.55952 0
M  V30 15001 N 1390.89 -0.493031 1.4969 0
M  V30 15002 C 1391.8 -1.61991 1.69694 0
M  V30 15003 C 1392.82 -1.64061 0.579641 0
M  V30 15004 O 1393.99 -1.82335 0.855323 0
M  V30 15005 C 1391.06 -2.98323 1.76648 0
M  V30 15006 C 1390.12 -3.06816 3.00271 0
M  V30 15007 C 1389.35 -4.36644 3.06883 0
M  V30 15008 O 1389.58 -5.25901 2.20872 0
M  V30 15009 O 1388.51 -4.50275 3.99419 0
M  V30 15010 H 1392.34 -1.48042 2.65174 0
M  V30 15011 H 1389.92 -0.670182 1.33525 0
M  V30 15012 H 1391.8 -3.79335 1.83529 0
M  V30 15013 H 1390.48 -3.12517 0.843482 0
M  V30 15014 H 1389.39 -2.24962 2.98903 0
M  V30 15015 H 1390.72 -2.97551 3.92077 0
M  V30 15016 N 1392.37 -1.38898 -0.744656 0
M  V30 15017 C 1393.62 -1.368 -1.50523 0
M  V30 15018 C 1393.97 0.0391042 -1.9236 0
M  V30 15019 O 1393.26 1.00363 -1.63211 0
M  V30 15020 C 1393.46 -2.2658 -2.76398 0
M  V30 15021 C 1393.29 -3.7588 -2.46868 0
M  V30 15022 C 1392.06 -4.44859 -2.39643 0
M  V30 15023 C 1394.26 -4.68096 -2.1305 0
M  V30 15024 N 1392.24 -5.79547 -2.02482 0
M  V30 15025 C 1393.61 -5.91362 -1.86254 0
M  V30 15026 C 1395.66 -4.56212 -1.99436 0
M  V30 15027 C 1394.37 -7.04074 -1.47216 0
M  V30 15028 C 1396.39 -5.68836 -1.618 0
M  V30 15029 C 1395.75 -6.9117 -1.35882 0
M  V30 15030 H 1391.85 -0.555867 -0.550032 0
M  V30 15031 H 1394.44 -1.74364 -0.866324 0
M  V30 15032 H 1392.61 -1.9119 -3.38084 0
M  V30 15033 H 1394.34 -2.15545 -3.42524 0
M  V30 15034 H 1391.1 -3.98181 -2.56415 0
M  V30 15035 H 1391.52 -6.50799 -1.86522 0
M  V30 15036 H 1396.16 -3.62177 -2.18146 0
M  V30 15037 H 1393.88 -7.98019 -1.27247 0
M  V30 15038 H 1397.47 -5.61624 -1.51886 0
M  V30 15039 H 1396.35 -7.76839 -1.07195 0
M  V30 15040 N 1393.85 0.973806 -1.23914 0
M  V30 15041 C 1395.1 1.71027 -1.06923 0
M  V30 15042 C 1395.41 1.91612 0.392947 0
M  V30 15043 O 1396.62 2.62771 0.682927 0
M  V30 15044 C 1395.07 3.07811 -1.86496 0
M  V30 15045 C 1394.68 2.9509 -3.37085 0
M  V30 15046 C 1396.42 3.85371 -1.78015 0
M  V30 15047 C 1394.33 4.27145 -4.09024 0
M  V30 15048 H 1393.26 0.641329 -0.396501 0
M  V30 15049 H 1395.91 1.08562 -1.47941 0
M  V30 15050 H 1394.29 3.71069 -1.38288 0
M  V30 15051 H 1395.47 2.4088 -3.92827 0
M  V30 15052 H 1393.78 2.30999 -3.46451 0
M  V30 15053 H 1396.38 4.83147 -2.2907 0
M  V30 15054 H 1396.72 4.09594 -0.744196 0
M  V30 15055 H 1397.26 3.28827 -2.23869 0
M  V30 15056 H 1394 4.08117 -5.12953 0
M  V30 15057 H 1393.52 4.81194 -3.58068 0
M  V30 15058 H 1395.19 4.95798 -4.15685 0
M  V30 15059 N 1395.33 1.05191 1.17357 0
M  V30 15060 C 1396.24 0.663617 2.25018 0
M  V30 15061 C 1397.25 -0.315299 1.71119 0
M  V30 15062 O 1398.43 -0.167398 2.00703 0
M  V30 15063 C 1395.49 0.0443307 3.46672 0
M  V30 15064 C 1394.55 1.07369 4.15656 0
M  V30 15065 C 1393.79 0.483864 5.31502 0
M  V30 15066 O 1394.01 -0.706692 5.66005 0
M  V30 15067 O 1392.94 1.21812 5.89445 0
M  V30 15068 H 1396.77 1.56088 2.60519 0
M  V30 15069 H 1394.36 0.823474 1.24657 0
M  V30 15070 H 1396.24 -0.299839 4.20332 0
M  V30 15071 H 1394.91 -0.826579 3.12969 0
M  V30 15072 H 1393.82 1.46985 3.44015 0
M  V30 15073 H 1395.15 1.91575 4.53387 0
M  V30 15074 N 1396.8 -1.33791 0.83293 0
M  V30 15075 C 1398.03 -2.02187 0.439077 0
M  V30 15076 C 1398.45 -1.62692 -0.957958 0
M  V30 15077 O 1397.8 -0.837302 -1.62159 0
M  V30 15078 C 1397.86 -3.57395 0.543232 0
M  V30 15079 O 1397.58 -3.95463 1.88522 0
M  V30 15080 C 1399.08 -4.43061 0.145567 0
M  V30 15081 H 1396.3 -0.64778 0.174992 0
M  V30 15082 H 1398.84 -1.7085 1.12386 0
M  V30 15083 H 1397 -3.87287 -0.0935746 0
M  V30 15084 H 1397.41 -4.90164 1.86653 0
M  V30 15085 H 1398.88 -5.51342 0.269507 0
M  V30 15086 H 1399.36 -4.29628 -0.911934 0
M  V30 15087 H 1399.97 -4.18517 0.756572 0
M  V30 15088 N 1398.28 -0.588812 -1.46187 0
M  V30 15089 C 1399.22 0.189417 -2.27413 0
M  V30 15090 C 1400.19 0.891224 -1.36 0
M  V30 15091 O 1401.38 0.903883 -1.65415 0
M  V30 15092 C 1398.5 1.27233 -3.13894 0
M  V30 15093 C 1397.55 0.675705 -4.21113 0
M  V30 15094 S 1398.38 -0.502093 -5.33141 0
M  V30 15095 C 1399.54 0.581875 -6.23189 0
M  V30 15096 H 1399.77 -0.499754 -2.9307 0
M  V30 15097 H 1397.31 -0.375854 -1.49755 0
M  V30 15098 H 1399.26 1.89233 -3.64282 0
M  V30 15099 H 1397.92 1.93348 -2.47538 0
M  V30 15100 H 1397.12 1.48991 -4.81475 0
M  V30 15101 H 1396.72 0.131249 -3.7377 0
M  V30 15102 H 1399.01 1.46594 -6.6145 0
M  V30 15103 H 1399.95 0.0148739 -7.08098 0
M  V30 15104 H 1400.36 0.888764 -5.5746 0
M  V30 15105 N 1399.76 1.54172 -0.326923 0
M  V30 15106 C 1401.01 2.01629 0.267798 0
M  V30 15107 C 1401.36 1.21092 1.49514 0
M  V30 15108 O 1400.65 0.285854 1.89456 0
M  V30 15109 C 1400.85 3.51429 0.650553 0
M  V30 15110 C 1400.68 4.46468 -0.538148 0
M  V30 15111 C 1399.45 4.94517 -1.0383 0
M  V30 15112 C 1401.65 4.95121 -1.3914 0
M  V30 15113 N 1399.63 5.73468 -2.19106 0
M  V30 15114 C 1401 5.7203 -2.39128 0
M  V30 15115 C 1403.05 4.77258 -1.41877 0
M  V30 15116 C 1401.76 6.32977 -3.41662 0
M  V30 15117 C 1403.78 5.39043 -2.43284 0
M  V30 15118 C 1403.14 6.15805 -3.41999 0
M  V30 15119 H 1399.24 0.779558 0.0617482 0
M  V30 15120 H 1401.83 1.89122 -0.462723 0
M  V30 15121 H 1400 3.64176 1.3502 0
M  V30 15122 H 1401.73 3.8565 1.22703 0
M  V30 15123 H 1398.49 4.69668 -0.609043 0
M  V30 15124 H 1398.91 6.1762 -2.77262 0
M  V30 15125 H 1403.55 4.1747 -0.669238 0
M  V30 15126 H 1401.27 6.91883 -4.1752 0
M  V30 15127 H 1404.86 5.27136 -2.46208 0
M  V30 15128 H 1403.74 6.62764 -4.19181 0
M  V30 15129 N 1401.24 0.0551678 1.57503 0
M  V30 15130 C 1402.52 -0.657808 1.84207 0
M  V30 15131 C 1402.9 -1.88798 0.944372 0
M  V30 15132 O 1402.24 -2.28499 0.00641728 0
M  V30 15133 C 1402.45 -1.0113 3.34026 0
M  V30 15134 C 1403.8 -1.39189 4.01138 0
M  V30 15135 O 1404.83 -1.10353 3.38675 0
M  V30 15136 O 1403.68 -1.93023 5.11277 0
M  V30 15137 H 1400.78 -0.325084 0.760427 0
M  V30 15138 H 1403.32 0.0848352 1.69488 0
M  V30 15139 H 1402.1 -0.13688 3.91061 0
M  V30 15140 H 1401.72 -1.81126 3.53948 0
M  V30 15141 N 1402.72 -1.56081 -0.218252 0
M  V30 15142 C 1403.96 -1.81024 -0.949188 0
M  V30 15143 C 1404.32 -0.629178 -1.81398 0
M  V30 15144 O 1405.52 -0.757982 -2.57892 0
M  V30 15145 C 1403.79 -3.10878 -1.76322 0
M  V30 15146 S 1405.35 -3.57147 -2.54934 0
M  V30 15147 H 1402.17 -0.635529 -0.318785 0
M  V30 15148 H 1404.77 -1.9432 -0.214484 0
M  V30 15149 H 1403.48 -3.94875 -1.11811 0
M  V30 15150 H 1403.01 -3.00399 -2.54016 0
M  V30 15151 H 1405.02 -3.20747 -3.78597 0
M  V30 15152 N 1404.2 0.485086 -1.49949 0
M  V30 15153 C 1405.13 1.60306 -1.62411 0
M  V30 15154 C 1406.11 1.5558 -0.47262 0
M  V30 15155 O 1407.29 1.75406 -0.690285 0
M  V30 15156 C 1404.42 2.98859 -1.59377 0
M  V30 15157 C 1403.46 3.2179 -2.79917 0
M  V30 15158 S 1404.3 3.03194 -4.41399 0
M  V30 15159 C 1405.45 4.44114 -4.41037 0
M  V30 15160 H 1405.69 1.49493 -2.56981 0
M  V30 15161 H 1403.22 0.671413 -1.39037 0
M  V30 15162 H 1405.18 3.78744 -1.58313 0
M  V30 15163 H 1403.84 3.07073 -0.660673 0
M  V30 15164 H 1403.03 4.22975 -2.74059 0
M  V30 15165 H 1402.63 2.49653 -2.78477 0
M  V30 15166 H 1404.92 5.36496 -4.13737 0
M  V30 15167 H 1405.87 4.55019 -5.42553 0
M  V30 15168 H 1406.28 4.25538 -3.70914 0
M  V30 15169 N 1405.67 1.39291 0.737279 0
M  V30 15170 C 1406.58 1.40098 1.88175 0
M  V30 15171 C 1407.6 0.296053 1.71463 0
M  V30 15172 O 1408.78 0.537153 1.94105 0
M  V30 15173 C 1405.84 1.24071 3.2374 0
M  V30 15174 C 1404.9 2.44515 3.52861 0
M  V30 15175 C 1404.13 2.29243 4.81958 0
M  V30 15176 O 1404.36 1.2947 5.55512 0
M  V30 15177 O 1403.29 3.18178 5.10927 0
M  V30 15178 H 1407.12 2.36565 1.90449 0
M  V30 15179 H 1404.7 1.20382 0.884786 0
M  V30 15180 H 1406.58 1.17257 4.04758 0
M  V30 15181 H 1405.26 0.30698 3.22241 0
M  V30 15182 H 1404.17 2.56905 2.71939 0
M  V30 15183 H 1405.5 3.36573 3.59137 0
M  V30 15184 N 1407.15 -0.967221 1.24429 0
M  V30 15185 C 1408.4 -1.71279 1.08588 0
M  V30 15186 C 1408.73 -1.90558 -0.374325 0
M  V30 15187 O 1408.01 -1.46742 -1.27659 0
M  V30 15188 C 1408.29 -3.10326 1.82674 0
M  V30 15189 C 1408.14 -2.98535 3.36447 0
M  V30 15190 C 1409.46 -4.09993 1.59981 0
M  V30 15191 H 1406.58 -0.621658 0.395867 0
M  V30 15192 H 1409.22 -1.12514 1.53103 0
M  V30 15193 H 1407.37 -3.60492 1.44836 0
M  V30 15194 H 1409.04 -2.55791 3.83886 0
M  V30 15195 H 1407.29 -2.34736 3.64803 0
M  V30 15196 H 1407.96 -3.97041 3.83487 0
M  V30 15197 H 1410.43 -3.68687 1.92897 0
M  V30 15198 H 1409.31 -5.05349 2.14274 0
M  V30 15199 H 1409.57 -4.38812 0.538173 0
M  V30 15200 N 1408.63 -1.05812 -1.16797 0
M  V30 15201 C 1409.59 -0.668766 -2.19226 0
M  V30 15202 C 1410.59 0.28299 -1.5829 0
M  V30 15203 O 1411.78 0.0660233 -1.74075 0
M  V30 15204 C 1408.91 0.0167379 -3.40896 0
M  V30 15205 H 1410.11 -1.57543 -2.55187 0
M  V30 15206 H 1407.66 -0.852753 -1.30988 0
M  V30 15207 H 1408.4 0.936382 -3.10487 0
M  V30 15208 H 1408.18 -0.667576 -3.86375 0
M  V30 15209 H 1409.67 0.275041 -4.16693 0
M  V30 15210 N 1410.11 1.33347 -0.840014 0
M  V30 15211 C 1411.36 1.97354 -0.435412 0
M  V30 15212 C 1411.68 1.66866 1.009 0
M  V30 15213 O 1410.95 0.968186 1.70303 0
M  V30 15214 H 1409.53 0.730096 -0.158017 0
M  V30 15215 H 1412.19 1.6269 -1.07322 0
M  V30 15216 H 1411.28 3.0688 -0.56841 0
M  V30 15217 N 1411.59 0.596556 1.45873 0
M  V30 15218 C 1412.52 -0.166704 2.28593 0
M  V30 15219 C 1413.53 -0.84231 1.39316 0
M  V30 15220 O 1414.72 -0.709548 1.63792 0
M  V30 15221 C 1411.82 -1.25641 3.1475 0
M  V30 15222 C 1410.99 -0.67006 4.32237 0
M  V30 15223 C 1410.05 -1.64924 4.99686 0
M  V30 15224 O 1409.08 -1.17986 5.56838 0
M  V30 15225 N 1410.28 -2.98355 4.9796 0
M  V30 15226 H 1413.04 0.543045 2.94739 0
M  V30 15227 H 1410.61 0.435274 1.55939 0
M  V30 15228 H 1412.6 -1.91104 3.56737 0
M  V30 15229 H 1411.17 -1.86883 2.50586 0
M  V30 15230 H 1410.39 0.162375 3.93865 0
M  V30 15231 H 1411.68 -0.258345 5.08144 0
M  V30 15232 H 1411.07 -3.39101 4.52799 0
M  V30 15233 H 1409.63 -3.5927 5.43846 0
M  V30 15234 N 1413.06 -1.53996 0.335095 0
M  V30 15235 C 1414.29 -2.05188 -0.26563 0
M  V30 15236 C 1414.71 -1.21058 -1.44881 0
M  V30 15237 O 1414.06 -0.243919 -1.80863 0
M  V30 15238 C 1414.11 -3.54875 -0.688904 0
M  V30 15239 O 1413.84 -4.35811 0.447217 0
M  V30 15240 C 1415.34 -4.22204 -1.35123 0
M  V30 15241 H 1412.56 -0.668921 -0.0527806 0
M  V30 15242 H 1415.1 -1.98675 0.48463 0
M  V30 15243 H 1413.26 -3.61638 -1.38912 0
M  V30 15244 H 1413.67 -5.24381 0.111495 0
M  V30 15245 H 1415.14 -5.28356 -1.59823 0
M  V30 15246 H 1415.62 -3.74029 -2.30216 0
M  V30 15247 H 1416.23 -4.19611 -0.693283 0
M  V30 15248 N 1414.54 -0.0635198 -1.57472 0
M  V30 15249 C 1415.47 0.942339 -2.07835 0
M  V30 15250 C 1416.45 1.29629 -0.981587 0
M  V30 15251 O 1417.64 1.40702 -1.25439 0
M  V30 15252 C 1414.76 2.25284 -2.52913 0
M  V30 15253 C 1413.81 2.05105 -3.73944 0
M  V30 15254 S 1414.64 1.31802 -5.19026 0
M  V30 15255 C 1415.8 2.64149 -5.67429 0
M  V30 15256 H 1416.03 0.513772 -2.92827 0
M  V30 15257 H 1413.56 0.149049 -1.53679 0
M  V30 15258 H 1415.52 3.00607 -2.79546 0
M  V30 15259 H 1414.18 2.65266 -1.68204 0
M  V30 15260 H 1413.38 3.02071 -4.03447 0
M  V30 15261 H 1412.98 1.3792 -3.47641 0
M  V30 15262 H 1415.27 3.60272 -5.73769 0
M  V30 15263 H 1416.21 2.39267 -6.66451 0
M  V30 15264 H 1416.62 2.70975 -4.9521 0
M  V30 15265 N 1416.02 1.56195 0.209972 0
M  V30 15266 C 1417.26 1.81525 0.939574 0
M  V30 15267 C 1417.62 0.638789 1.81062 0
M  V30 15268 O 1418.82 0.771648 2.57486 0
M  V30 15269 C 1417.1 3.11809 1.7467 0
M  V30 15270 S 1418.65 3.58494 2.53036 0
M  V30 15271 H 1415.47 0.637211 0.31541 0
M  V30 15272 H 1418.07 1.94431 0.204175 0
M  V30 15273 H 1416.78 3.95463 1.09715 0
M  V30 15274 H 1416.31 3.01742 2.52419 0
M  V30 15275 H 1418.32 3.2275 3.76891 0
M  V30 15276 N 1417.5 -0.477127 1.50204 0
M  V30 15277 C 1418.43 -1.58405 1.71552 0
M  V30 15278 C 1419.41 -1.60463 0.564413 0
M  V30 15279 O 1420.59 -1.76826 0.802893 0
M  V30 15280 C 1417.72 -2.96765 1.8041 0
M  V30 15281 C 1416.68 -3.09573 2.95548 0
M  V30 15282 C 1416 -4.49522 2.89542 0
M  V30 15283 C 1417.3 -2.87356 4.36147 0
M  V30 15284 H 1419 -1.40792 2.64231 0
M  V30 15285 H 1416.54 -0.675886 1.27153 0
M  V30 15286 H 1418.5 -3.74125 1.9393 0
M  V30 15287 H 1417.22 -3.1552 0.843489 0
M  V30 15288 H 1415.88 -2.34645 2.81669 0
M  V30 15289 H 1415.53 -4.65186 1.91339 0
M  V30 15290 H 1415.23 -4.59028 3.66834 0
M  V30 15291 H 1416.75 -5.28909 3.05102 0
M  V30 15292 H 1418.17 -3.54469 4.50583 0
M  V30 15293 H 1416.56 -3.08313 5.14843 0
M  V30 15294 H 1417.63 -1.83264 4.48935 0
M  V30 15295 N 1418.98 -1.3968 -0.729882 0
M  V30 15296 C 1420.2 -1.40467 -1.5191 0
M  V30 15297 C 1420.62 -0.000529943 -1.888 0
M  V30 15298 O 1419.98 0.972072 -1.54457 0
M  V30 15299 C 1420.03 -2.2823 -2.80345 0
M  V30 15300 O 1419.75 -3.63176 -2.4502 0
M  V30 15301 C 1421.25 -2.37455 -3.74339 0
M  V30 15302 H 1418.47 -0.479604 -0.469277 0
M  V30 15303 H 1421.01 -1.83558 -0.901484 0
M  V30 15304 H 1419.17 -1.88538 -3.38426 0
M  V30 15305 H 1419.58 -4.0964 -3.2756 0
M  V30 15306 H 1421.06 -3.031 -4.6134 0
M  V30 15307 H 1421.53 -1.39525 -4.16449 0
M  V30 15308 H 1422.14 -2.77638 -3.22176 0
M  V30 15309 N 1420.45 0.960609 -1.2494 0
M  V30 15310 C 1421.7 1.70701 -1.09495 0
M  V30 15311 C 1422.03 1.90754 0.364214 0
M  V30 15312 O 1421.31 1.47417 1.26879 0
M  V30 15313 C 1421.59 3.09353 -1.84317 0
M  V30 15314 C 1421.44 2.96747 -3.38026 0
M  V30 15315 C 1422.76 4.09139 -1.62153 0
M  V30 15316 H 1419.88 0.61955 -0.399158 0
M  V30 15317 H 1422.52 1.11701 -1.53698 0
M  V30 15318 H 1420.67 3.59719 -1.46746 0
M  V30 15319 H 1422.35 2.53752 -3.85237 0
M  V30 15320 H 1420.59 2.32798 -3.66043 0
M  V30 15321 H 1421.26 3.95002 -3.85587 0
M  V30 15322 H 1423.74 3.67659 -1.94849 0
M  V30 15323 H 1422.61 5.04206 -2.16951 0
M  V30 15324 H 1422.87 4.38521 -0.561437 0
M  V30 15325 N 1421.93 1.0643 1.16234 0
M  V30 15326 C 1423.18 0.78184 1.86798 0
M  V30 15327 C 1423.51 -0.691734 1.81784 0
M  V30 15328 O 1422.76 -1.52271 1.22931 0
M  V30 15329 C 1423.06 1.22348 3.35806 0
M  V30 15330 C 1422.73 2.7014 3.61019 0
M  V30 15331 C 1421.39 3.1051 3.6761 0
M  V30 15332 C 1423.74 3.65582 3.71482 0
M  V30 15333 C 1421.07 4.45159 3.82165 0
M  V30 15334 C 1423.42 4.99981 3.87559 0
M  V30 15335 C 1422.09 5.39986 3.92392 0
M  V30 15336 H 1421.36 0.286096 0.683542 0
M  V30 15337 H 1424 1.33364 1.37427 0
M  V30 15338 H 1422.31 0.590896 3.87319 0
M  V30 15339 H 1424 0.981959 3.88791 0
M  V30 15340 H 1420.59 2.37884 3.56524 0
M  V30 15341 H 1424.78 3.35525 3.657 0
M  V30 15342 H 1420.03 4.75637 3.8416 0
M  V30 15343 H 1424.21 5.73817 3.94597 0
M  V30 15344 H 1421.84 6.44324 4.03423 0
M  V30 15345 N 1423.41 -1.329 0.847073 0
M  V30 15346 C 1424.34 -2.27027 0.231111 0
M  V30 15347 C 1425.32 -1.50045 -0.626524 0
M  V30 15348 O 1426.51 -1.79193 -0.58499 0
M  V30 15349 C 1423.63 -3.31911 -0.67472 0
M  V30 15350 C 1422.68 -4.26362 0.108531 0
M  V30 15351 S 1423.51 -5.14874 1.4719 0
M  V30 15352 C 1424.67 -6.23285 0.571586 0
M  V30 15353 H 1424.9 -2.78922 1.02906 0
M  V30 15354 H 1422.43 -1.40315 0.64428 0
M  V30 15355 H 1424.39 -3.92821 -1.19172 0
M  V30 15356 H 1423.05 -2.78815 -1.44641 0
M  V30 15357 H 1422.25 -5.00639 -0.581079 0
M  V30 15358 H 1421.85 -3.69831 0.556863 0
M  V30 15359 H 1424.14 -6.77119 -0.227261 0
M  V30 15360 H 1425.08 -6.96347 1.28477 0
M  V30 15361 H 1425.49 -5.64303 0.149291 0
M  V30 15362 N 1424.89 -0.604284 -1.45555 0
M  V30 15363 C 1425.82 0.165286 -2.27601 0
M  V30 15364 C 1426.8 0.876749 -1.36937 0
M  V30 15365 O 1427.98 0.886288 -1.66365 0
M  V30 15366 C 1425.11 1.23897 -3.15226 0
M  V30 15367 C 1424.16 0.631002 -4.21806 0
M  V30 15368 S 1424.99 -0.558612 -5.32578 0
M  V30 15369 C 1426.15 0.515745 -6.23772 0
M  V30 15370 H 1426.38 -0.53081 -2.92523 0
M  V30 15371 H 1423.91 -0.391717 -1.49348 0
M  V30 15372 H 1425.87 1.85358 -3.66268 0
M  V30 15373 H 1424.53 1.90712 -2.49575 0
M  V30 15374 H 1423.72 1.43876 -4.83028 0
M  V30 15375 H 1423.33 0.0915984 -3.73888 0
M  V30 15376 H 1425.62 1.39571 -6.62968 0
M  V30 15377 H 1426.56 -0.0602302 -7.08074 0
M  V30 15378 H 1426.97 0.829588 -5.58371 0
M  V30 15379 N 1426.37 1.53816 -0.343257 0
M  V30 15380 C 1427.61 2.01207 0.253721 0
M  V30 15381 C 1427.95 1.23069 1.50225 0
M  V30 15382 O 1427.22 0.31824 1.91879 0
M  V30 15383 C 1427.5 3.5559 0.56815 0
M  V30 15384 C 1427.36 4.44438 -0.692457 0
M  V30 15385 C 1428.68 4.17974 1.37788 0
M  V30 15386 H 1425.79 0.731392 0.0907427 0
M  V30 15387 H 1428.44 1.84254 -0.463736 0
M  V30 15388 H 1426.59 3.70166 1.17937 0
M  V30 15389 H 1428.26 4.41698 -1.33042 0
M  V30 15390 H 1426.5 4.13312 -1.3174 0
M  V30 15391 H 1427.17 5.5034 -0.427715 0
M  V30 15392 H 1429.65 4.07094 0.861043 0
M  V30 15393 H 1428.52 5.26068 1.56663 0
M  V30 15394 H 1428.79 3.72577 2.3799 0
M  V30 15395 N 1427.84 0.0718701 1.57436 0
M  V30 15396 C 1428.78 -0.931304 2.08331 0
M  V30 15397 C 1429.76 -1.29106 0.988448 0
M  V30 15398 O 1430.94 -1.40035 1.26184 0
M  V30 15399 C 1428.07 -2.23939 2.54104 0
M  V30 15400 C 1427.11 -2.03119 3.75026 0
M  V30 15401 S 1427.95 -1.29048 5.19718 0
M  V30 15402 C 1429.1 -2.61136 5.68822 0
M  V30 15403 H 1429.33 -0.498236 2.93095 0
M  V30 15404 H 1426.87 -0.140897 1.53756 0
M  V30 15405 H 1428.83 -2.9912 2.81136 0
M  V30 15406 H 1427.49 -2.64371 1.69608 0
M  V30 15407 H 1426.68 -2.99927 4.05043 0
M  V30 15408 H 1426.28 -1.36074 3.48367 0
M  V30 15409 H 1428.57 -3.57224 5.75671 0
M  V30 15410 H 1429.52 -2.35729 6.67711 0
M  V30 15411 H 1429.92 -2.68345 4.9664 0
M  V30 15412 N 1429.32 -1.56304 -0.201686 0
M  V30 15413 C 1430.57 -1.80504 -0.92446 0
M  V30 15414 C 1430.9 -0.644832 -1.83182 0
M  V30 15415 O 1430.18 0.354963 -1.91234 0
M  V30 15416 C 1430.46 -3.14919 -1.74636 0
M  V30 15417 C 1430.31 -4.41421 -0.864169 0
M  V30 15418 C 1431.63 -3.45962 -2.72026 0
M  V30 15419 H 1428.75 -0.656643 -0.334648 0
M  V30 15420 H 1431.39 -1.89025 -0.192188 0
M  V30 15421 H 1429.54 -3.07785 -2.37066 0
M  V30 15422 H 1431.21 -4.60594 -0.255084 0
M  V30 15423 H 1429.46 -4.33465 -0.170548 0
M  V30 15424 H 1430.13 -5.31954 -1.47409 0
M  V30 15425 H 1432.6 -3.53353 -2.1973 0
M  V30 15426 H 1431.48 -4.41146 -3.26622 0
M  V30 15427 H 1431.74 -2.69124 -3.50749 0
M  V30 15428 N 1430.8 0.469154 -1.50455 0
M  V30 15429 C 1432.05 1.21788 -1.60781 0
M  V30 15430 C 1432.36 1.93054 -0.314576 0
M  V30 15431 O 1433.57 2.69873 -0.296773 0
M  V30 15432 C 1432.02 2.21305 -2.83817 0
M  V30 15433 C 1431.63 1.55833 -4.20024 0
M  V30 15434 C 1433.38 2.96808 -3.03489 0
M  V30 15435 C 1431.28 2.53648 -5.34244 0
M  V30 15436 H 1430.21 0.45827 -0.598752 0
M  V30 15437 H 1432.86 0.488159 -1.76888 0
M  V30 15438 H 1431.25 2.97577 -2.61273 0
M  V30 15439 H 1432.42 0.853371 -4.52829 0
M  V30 15440 H 1430.74 0.926046 -4.05972 0
M  V30 15441 H 1433.33 3.70017 -3.85994 0
M  V30 15442 H 1433.68 3.56307 -2.15293 0
M  V30 15443 H 1434.21 2.27648 -3.26223 0
M  V30 15444 H 1430.95 1.98885 -6.246 0
M  V30 15445 H 1430.47 3.22291 -5.05854 0
M  V30 15446 H 1432.15 3.15438 -5.64897 0
M  V30 15447 N 1432.28 1.40065 0.722464 0
M  V30 15448 C 1433.53 1.37698 1.47932 0
M  V30 15449 C 1433.85 -0.0222608 1.94987 0
M  V30 15450 O 1433.12 -0.975795 1.69868 0
M  V30 15451 H 1431.7 0.506766 0.548815 0
M  V30 15452 H 1434.36 1.75053 0.856884 0
M  V30 15453 H 1433.46 2.04756 2.35545 0
M  V30 15454 N 1433.76 -0.95397 1.25448 0
M  V30 15455 C 1434.71 -2.07206 1.05681 0
M  V30 15456 C 1435.7 -1.69395 -0.0124672 0
M  V30 15457 O 1436.91 -1.79429 0.143201 0
M  V30 15458 H 1433.28 -0.678231 0.324817 0
M  V30 15459 H 1435.25 -2.21034 2.00466 0
M  V30 15460 C 1434 -3.40725 0.692955 0
M  V30 15461 H 1433.32 -3.70287 1.50756 0
M  V30 15462 H 1434.76 -4.19814 0.594351 0
M  V30 15463 C 1433.22 -3.31495 -0.601028 0
M  V30 15464 O 1433.75 -3.66565 -1.64296 0
M  V30 15465 N 1431.96 -2.84612 -0.586899 0
M  V30 15466 H 1431.51 -2.56271 0.261375 0
M  V30 15467 H 1431.46 -2.78819 -1.45284 0
M  V30 15468 N 1435.24 -1.07045 -1.15668 0
M  V30 15469 C 1436.17 -0.709413 -2.22463 0
M  V30 15470 C 1437.15 0.30169 -1.67403 0
M  V30 15471 O 1438.33 0.175131 -1.93409 0
M  V30 15472 C 1435.46 -0.103121 -3.47147 0
M  V30 15473 C 1434.42 -1.04103 -4.15146 0
M  V30 15474 C 1433.74 -0.297656 -5.33871 0
M  V30 15475 C 1435.04 -2.37332 -4.65264 0
M  V30 15476 H 1436.74 -1.60227 -2.52918 0
M  V30 15477 H 1434.28 -0.771846 -1.21567 0
M  V30 15478 H 1436.23 0.161371 -4.21091 0
M  V30 15479 H 1434.96 0.824792 -3.16014 0
M  V30 15480 H 1433.62 -1.2904 -3.43139 0
M  V30 15481 H 1433.27 0.633618 -4.98993 0
M  V30 15482 H 1432.97 -0.922789 -5.80309 0
M  V30 15483 H 1434.49 -0.0408892 -6.10586 0
M  V30 15484 H 1435.9 -2.1674 -5.30751 0
M  V30 15485 H 1434.3 -2.95412 -5.22352 0
M  V30 15486 H 1435.37 -2.99859 -3.81068 0
M  V30 15487 N 1436.71 1.32449 -0.85411 0
M  V30 15488 C 1437.96 1.97563 -0.4579 0
M  V30 15489 C 1438.29 1.67435 0.983835 0
M  V30 15490 O 1437.57 0.962292 1.69027 0
M  V30 15491 C 1437.85 3.53292 -0.69688 0
M  V30 15492 C 1437.7 3.93053 -2.18699 0
M  V30 15493 C 1439.02 4.39834 -0.152917 0
M  V30 15494 H 1436.14 0.717634 -0.167842 0
M  V30 15495 H 1438.78 1.5684 -1.07243 0
M  V30 15496 H 1436.93 3.88111 -0.173807 0
M  V30 15497 H 1438.61 3.68416 -2.7761 0
M  V30 15498 H 1436.85 3.42232 -2.6657 0
M  V30 15499 H 1437.52 5.01576 -2.3049 0
M  V30 15500 H 1440 4.11748 -0.600216 0
M  V30 15501 H 1438.87 5.47785 -0.349703 0
M  V30 15502 H 1439.13 4.31898 0.944276 0
M  V30 15503 N 1438.19 0.611994 1.45232 0
M  V30 15504 C 1439.44 0.109073 2.02506 0
M  V30 15505 C 1439.77 -1.25876 1.47881 0
M  V30 15506 O 1439.05 -1.83131 0.65524 0
M  V30 15507 C 1439.33 0.0749288 3.60022 0
M  V30 15508 C 1439.18 1.47374 4.24972 0
M  V30 15509 C 1440.5 -0.610602 4.35844 0
M  V30 15510 H 1437.62 0.0411101 0.735853 0
M  V30 15511 H 1440.26 0.78481 1.73034 0
M  V30 15512 H 1438.41 -0.500511 3.85262 0
M  V30 15513 H 1440.08 2.0966 4.10902 0
M  V30 15514 H 1438.33 2.03319 3.83202 0
M  V30 15515 H 1439 1.40206 5.33897 0
M  V30 15516 H 1441.47 -0.121445 4.15923 0
M  V30 15517 H 1440.35 -0.603614 5.45571 0
M  V30 15518 H 1440.61 -1.6775 4.09038 0
M  V30 15519 N 1439.67 -1.53632 0.351409 0
M  V30 15520 C 1440.6 -2.28217 -0.49391 0
M  V30 15521 C 1441.58 -1.30085 -1.09599 0
M  V30 15522 O 1442.77 -1.58938 -1.1159 0
M  V30 15523 C 1439.9 -3.06085 -1.64102 0
M  V30 15524 C 1438.85 -4.11786 -1.16689 0
M  V30 15525 C 1438.18 -4.77654 -2.40314 0
M  V30 15526 C 1439.48 -5.21644 -0.261742 0
M  V30 15527 H 1441.17 -2.99125 0.1283 0
M  V30 15528 H 1438.72 -1.43861 0.0631462 0
M  V30 15529 H 1440.67 -3.57003 -2.2389 0
M  V30 15530 H 1439.39 -2.32842 -2.29025 0
M  V30 15531 H 1438.05 -3.61792 -0.591784 0
M  V30 15532 H 1437.7 -4.00997 -3.03661 0
M  V30 15533 H 1437.4 -5.49072 -2.09268 0
M  V30 15534 H 1438.92 -5.3136 -3.00813 0
M  V30 15535 H 1440.34 -5.6815 -0.766689 0
M  V30 15536 H 1438.73 -6.00085 -0.0428132 0
M  V30 15537 H 1439.8 -4.79821 0.699999 0
M  V30 15538 N 1441.15 -0.0802183 -1.57396 0
M  V30 15539 C 1442.1 0.901668 -2.14412 0
M  V30 15540 C 1443.09 1.30247 -1.08314 0
M  V30 15541 O 1444.3 1.27873 -1.26682 0
M  V30 15542 H 1440.67 0.308748 -0.685696 0
M  V30 15543 H 1442.64 0.395934 -2.95762 0
M  V30 15544 C 1441.39 2.15665 -2.72734 0
M  V30 15545 H 1440.71 1.8571 -3.54051 0
M  V30 15546 H 1442.15 2.82461 -3.16214 0
M  V30 15547 C 1440.61 2.9208 -1.67901 0
M  V30 15548 O 1441.14 3.86087 -1.10903 0
M  V30 15549 N 1439.35 2.55343 -1.38739 0
M  V30 15550 H 1438.9 1.78969 -1.85278 0
M  V30 15551 H 1438.85 3.06773 -0.688317 0
M  V30 15552 N 1442.63 1.56409 0.193394 0
M  V30 15553 C 1443.56 1.97707 1.24234 0
M  V30 15554 C 1444.54 0.849286 1.47381 0
M  V30 15555 O 1445.72 1.11374 1.59089 0
M  V30 15556 C 1442.85 2.31804 2.5862 0
M  V30 15557 C 1441.81 3.47337 2.50082 0
M  V30 15558 C 1441.13 3.67114 3.88756 0
M  V30 15559 C 1442.43 4.81472 2.02441 0
M  V30 15560 H 1444.13 2.8558 0.89914 0
M  V30 15561 H 1441.67 1.37396 0.431078 0
M  V30 15562 H 1443.62 2.5929 3.32185 0
M  V30 15563 H 1442.35 1.40816 2.94684 0
M  V30 15564 H 1441.01 3.19944 1.78973 0
M  V30 15565 H 1440.66 2.73454 4.22175 0
M  V30 15566 H 1440.36 4.44838 3.83918 0
M  V30 15567 H 1441.88 3.96978 4.6394 0
M  V30 15568 H 1443.29 5.07978 2.65766 0
M  V30 15569 H 1441.69 5.62677 2.08601 0
M  V30 15570 H 1442.76 4.74941 0.977704 0
M  V30 15571 N 1444.1 -0.461169 1.50702 0
M  V30 15572 C 1445.35 -1.21251 1.62186 0
M  V30 15573 C 1445.68 -1.91735 0.326818 0
M  V30 15574 O 1444.93 -1.83212 -0.687879 0
M  V30 15575 C 1445.23 -2.27213 2.75879 0
M  V30 15576 C 1444.9 -1.73912 4.16011 0
M  V30 15577 C 1443.56 -1.59097 4.54138 0
M  V30 15578 C 1445.91 -1.34477 5.03553 0
M  V30 15579 C 1443.24 -1.03285 5.77537 0
M  V30 15580 C 1445.59 -0.801027 6.27508 0
M  V30 15581 C 1444.26 -0.639586 6.64429 0
M  V30 15582 H 1443.53 -0.443689 0.593482 0
M  V30 15583 H 1446.17 -0.507035 1.84666 0
M  V30 15584 H 1444.48 -3.03707 2.47526 0
M  V30 15585 H 1446.18 -2.85124 2.81967 0
M  V30 15586 H 1442.77 -1.86413 3.85938 0
M  V30 15587 H 1446.95 -1.44753 4.74721 0
M  V30 15588 H 1442.21 -0.895316 6.04809 0
M  V30 15589 H 1446.38 -0.486842 6.94696 0
M  V30 15590 H 1444.01 -0.204966 7.59924 0
M  V30 15591 N 1445.58 -1.40446 -0.715026 0
M  V30 15592 C 1446.51 -1.43511 -1.84193 0
M  V30 15593 C 1447.49 -0.295969 -1.67505 0
M  V30 15594 O 1448.68 -0.504667 -1.87528 0
M  V30 15595 C 1445.81 -1.29751 -3.22152 0
M  V30 15596 C 1444.76 -2.41274 -3.53512 0
M  V30 15597 C 1444.09 -2.12591 -4.90621 0
M  V30 15598 C 1445.39 -3.83614 -3.54454 0
M  V30 15599 H 1447.08 -2.37819 -1.81885 0
M  V30 15600 H 1444.63 -1.14469 -0.873655 0
M  V30 15601 H 1446.58 -1.30511 -4.0068 0
M  V30 15602 H 1445.3 -0.319189 -3.25037 0
M  V30 15603 H 1443.96 -2.39764 -2.77324 0
M  V30 15604 H 1443.61 -1.13148 -4.90109 0
M  V30 15605 H 1443.31 -2.87308 -5.1257 0
M  V30 15606 H 1444.84 -2.15034 -5.71483 0
M  V30 15607 H 1446.25 -3.86945 -4.23021 0
M  V30 15608 H 1444.65 -4.57855 -3.87929 0
M  V30 15609 H 1445.72 -4.13159 -2.53827 0
M  V30 15610 N 1447.06 0.947303 -1.25952 0
M  V30 15611 C 1448.02 2.02667 -1.07046 0
M  V30 15612 C 1449.02 1.60787 -0.0208127 0
M  V30 15613 O 1450.21 1.72193 -0.263668 0
M  V30 15614 C 1447.34 3.35087 -0.626885 0
M  V30 15615 H 1448.54 2.20871 -2.0287 0
M  V30 15616 H 1446.09 1.12541 -1.08462 0
M  V30 15617 H 1446.83 3.22579 0.333621 0
M  V30 15618 H 1446.61 3.66835 -1.38473 0
M  V30 15619 H 1448.1 4.14397 -0.516264 0
M  V30 15620 N 1448.54 1.07657 1.15099 0
M  V30 15621 C 1449.47 0.721201 2.22083 0
M  V30 15622 C 1450.45 -0.292808 1.67561 0
M  V30 15623 O 1451.63 -0.164872 1.93499 0
M  V30 15624 C 1448.76 0.12153 3.47087 0
M  V30 15625 C 1447.72 1.06303 4.14588 0
M  V30 15626 C 1447.04 0.325964 5.33706 0
M  V30 15627 C 1448.34 2.39796 4.63999 0
M  V30 15628 H 1450.04 1.61566 2.52065 0
M  V30 15629 H 1447.58 0.778282 1.21156 0
M  V30 15630 H 1449.54 -0.139037 4.21171 0
M  V30 15631 H 1448.26 -0.808022 3.16447 0
M  V30 15632 H 1446.92 1.30858 3.4245 0
M  V30 15633 H 1446.57 -0.607147 4.99322 0
M  V30 15634 H 1446.27 0.953552 5.79811 0
M  V30 15635 H 1447.79 0.0732695 6.10556 0
M  V30 15636 H 1449.21 2.19552 5.29594 0
M  V30 15637 H 1447.6 2.98178 5.20778 0
M  V30 15638 H 1448.67 3.01876 3.79472 0
M  V30 15639 N 1450.02 -1.31994 0.861122 0
M  V30 15640 C 1450.95 -2.31214 0.325963 0
M  V30 15641 C 1451.93 -1.59965 -0.578383 0
M  V30 15642 O 1453.11 -1.87726 -0.497268 0
M  V30 15643 C 1450.24 -3.43953 -0.481001 0
M  V30 15644 C 1449.2 -4.2673 0.329474 0
M  V30 15645 C 1448.52 -5.31293 -0.602627 0
M  V30 15646 C 1449.82 -4.98498 1.55874 0
M  V30 15647 H 1451.52 -2.76223 1.15503 0
M  V30 15648 H 1449.06 -1.32797 0.556856 0
M  V30 15649 H 1451.02 -4.12409 -0.86585 0
M  V30 15650 H 1449.74 -2.97687 -1.3435 0
M  V30 15651 H 1448.4 -3.59929 0.696159 0
M  V30 15652 H 1448.05 -4.8128 -1.46215 0
M  V30 15653 H 1447.75 -5.87565 -0.0643044 0
M  V30 15654 H 1449.27 -6.02611 -0.984512 0
M  V30 15655 H 1450.68 -5.596 1.24583 0
M  V30 15656 H 1449.08 -5.64525 2.03548 0
M  V30 15657 H 1450.15 -4.25991 2.31646 0
M  V30 15658 N 1451.49 -0.619688 -1.44906 0
M  V30 15659 C 1452.42 0.0791121 -2.33366 0
M  V30 15660 C 1453.41 0.846503 -1.47541 0
M  V30 15661 O 1454.59 0.814657 -1.76287 0
M  V30 15662 C 1451.72 1.06901 -3.30438 0
M  V30 15663 C 1450.67 0.41403 -4.25993 0
M  V30 15664 C 1450 1.51303 -5.12846 0
M  V30 15665 C 1451.3 -0.672483 -5.17953 0
M  V30 15666 H 1452.99 -0.659551 -2.92045 0
M  V30 15667 H 1450.54 -0.318623 -1.40431 0
M  V30 15668 H 1452.49 1.56653 -3.912 0
M  V30 15669 H 1451.22 1.83842 -2.69944 0
M  V30 15670 H 1449.88 -0.0627315 -3.66546 0
M  V30 15671 H 1449.52 2.27303 -4.48712 0
M  V30 15672 H 1449.22 1.08022 -5.77586 0
M  V30 15673 H 1450.75 2.01258 -5.76479 0
M  V30 15674 H 1452.16 -0.258542 -5.72717 0
M  V30 15675 H 1450.56 -1.02776 -5.91234 0
M  V30 15676 H 1451.63 -1.54425 -4.59653 0
M  V30 15677 N 1452.97 1.53444 -0.359552 0
M  V30 15678 C 1454.2 2.06058 0.235576 0
M  V30 15679 C 1454.62 1.23175 1.42161 0
M  V30 15680 O 1453.98 0.249338 1.79577 0
M  V30 15681 C 1454.03 3.55351 0.613025 0
M  V30 15682 O 1453.13 3.75229 1.71104 0
M  V30 15683 H 1452.47 0.663038 0.0357266 0
M  V30 15684 H 1455 1.97923 -0.518408 0
M  V30 15685 H 1455.01 3.9827 0.885722 0
M  V30 15686 H 1453.69 4.15122 -0.254243 0
M  V30 15687 H 1452.27 3.4421 1.43437 0
M  V30 15688 N 1454.45 0.0885642 1.57351 0
M  V30 15689 C 1455.68 -0.588641 1.98871 0
M  V30 15690 C 1456.1 -1.61333 0.967125 0
M  V30 15691 O 1455.46 -1.81183 -0.0652149 0
M  V30 15692 C 1455.51 -1.21877 3.39379 0
M  V30 15693 O 1454.61 -2.33462 3.39955 0
M  V30 15694 H 1453.95 -0.149938 0.64685 0
M  V30 15695 H 1456.48 0.168043 2.03909 0
M  V30 15696 H 1456.49 -1.56163 3.76931 0
M  V30 15697 H 1455.17 -0.468037 4.13258 0
M  V30 15698 H 1453.74 -2.00844 3.14191 0
M  V30 15699 N 1455.93 -1.56509 -0.185096 0
M  V30 15700 C 1457.18 -1.81206 -0.903924 0
M  V30 15701 C 1457.5 -0.663423 -1.82836 0
M  V30 15702 O 1456.76 0.350211 -1.92541 0
M  V30 15703 C 1457.06 -3.11968 -1.74387 0
M  V30 15704 C 1456.72 -4.40353 -0.969552 0
M  V30 15705 C 1455.39 -4.75227 -0.755799 0
M  V30 15706 C 1457.74 -5.19461 -0.425443 0
M  V30 15707 C 1455.07 -5.86698 0.0133856 0
M  V30 15708 C 1457.42 -6.31736 0.330582 0
M  V30 15709 C 1456.08 -6.65187 0.555262 0
M  V30 15710 H 1455.35 -0.663078 -0.330769 0
M  V30 15711 H 1458 -1.90747 -0.169673 0
M  V30 15712 H 1456.3 -2.97708 -2.5471 0
M  V30 15713 H 1458 -3.28284 -2.30284 0
M  V30 15714 H 1454.59 -4.1299 -1.14618 0
M  V30 15715 H 1458.77 -4.92923 -0.577959 0
M  V30 15716 H 1454.03 -6.11081 0.197335 0
M  V30 15717 H 1458.2 -6.92246 0.759523 0
M  V30 15718 H 1455.83 -7.51403 1.15318 0
M  V30 15719 N 1457.41 0.45317 -1.50944 0
M  V30 15720 C 1458.63 1.23136 -1.6689 0
M  V30 15721 C 1459.06 1.84639 -0.359185 0
M  V30 15722 O 1458.41 1.68106 0.678983 0
M  V30 15723 C 1458.46 2.30275 -2.77499 0
M  V30 15724 O 1457.57 3.35371 -2.39999 0
M  V30 15725 H 1456.91 0.361475 -0.556984 0
M  V30 15726 H 1459.44 0.537174 -1.97422 0
M  V30 15727 H 1459.45 2.75309 -3.01113 0
M  V30 15728 H 1458.12 1.84885 -3.72546 0
M  V30 15729 H 1456.7 2.95924 -2.26899 0
M  V30 15730 N 1458.88 1.40823 0.707568 0
M  V30 15731 C 1460.11 1.43061 1.50161 0
M  V30 15732 C 1460.53 0.0342144 1.88069 0
M  V30 15733 O 1459.89 -0.959674 1.53818 0
M  V30 15734 C 1459.94 2.33459 2.74826 0
M  V30 15735 O 1459.04 1.78336 3.71847 0
M  V30 15736 H 1458.39 0.48602 0.452417 0
M  V30 15737 H 1460.92 1.85147 0.870742 0
M  V30 15738 H 1460.93 2.48922 3.23267 0
M  V30 15739 H 1459.6 3.34927 2.46571 0
M  V30 15740 H 1458.18 1.7226 3.30728 0
M  V30 15741 N 1460.36 -0.94061 1.26453 0
M  V30 15742 C 1461.64 -1.66421 1.02779 0
M  V30 15743 C 1462.02 -2.06429 -0.441614 0
M  V30 15744 O 1461.37 -1.78854 -1.42209 0
M  V30 15745 C 1461.58 -2.87599 1.97707 0
M  V30 15746 C 1462.93 -3.59237 2.26349 0
M  V30 15747 O 1463.95 -2.97704 1.95577 0
M  V30 15748 O 1462.81 -4.70068 2.78744 0
M  V30 15749 H 1459.9 -0.728813 0.390846 0
M  V30 15750 H 1462.45 -0.99229 1.37665 0
M  V30 15751 H 1461.22 -2.54929 2.96862 0
M  V30 15752 H 1460.84 -3.62516 1.63303 0
M  V30 15753 N 1461.84 -1.08266 -1.14527 0
M  V30 15754 C 1462.79 -0.705807 -2.21633 0
M  V30 15755 C 1463.78 0.287758 -1.66938 0
M  V30 15756 O 1464.99 0.150479 -1.7937 0
M  V30 15757 H 1461.36 -0.210206 -0.722023 0
M  V30 15758 H 1463.33 -1.61855 -2.5069 0
M  V30 15759 C 1462.08 -0.129673 -3.47458 0
M  V30 15760 H 1461.41 -0.885365 -3.89873 0
M  V30 15761 H 1462.85 0.0962264 -4.23891 0
M  V30 15762 C 1461.31 1.13208 -3.1731 0
M  V30 15763 O 1461.84 2.21717 -3.34969 0
M  V30 15764 N 1460.04 1.0419 -2.7128 0
M  V30 15765 H 1459.59 0.15883 -2.5711 0
M  V30 15766 H 1459.55 1.88689 -2.51483 0
M  V30 15767 N 1463.32 1.31536 -0.86811 0
M  V30 15768 C 1464.25 2.31037 -0.33822 0
M  V30 15769 C 1465.23 1.60269 0.569892 0
M  V30 15770 O 1466.42 1.87987 0.487305 0
M  V30 15771 C 1463.55 3.44203 0.462753 0
M  V30 15772 C 1462.5 4.26549 -0.3521 0
M  V30 15773 C 1461.83 5.31605 0.574443 0
M  V30 15774 C 1463.13 4.97665 -1.58516 0
M  V30 15775 H 1464.82 2.75607 -1.16967 0
M  V30 15776 H 1462.37 1.325 -0.56389 0
M  V30 15777 H 1464.32 4.12862 0.843967 0
M  V30 15778 H 1463.04 2.98396 1.32769 0
M  V30 15779 H 1461.7 3.59555 -0.715237 0
M  V30 15780 H 1461.35 4.82048 1.43661 0
M  V30 15781 H 1461.05 5.87591 0.0331436 0
M  V30 15782 H 1462.57 6.03124 0.952541 0
M  V30 15783 H 1463.99 5.58931 -1.27549 0
M  V30 15784 H 1462.38 5.63437 -2.06539 0
M  V30 15785 H 1463.45 4.24756 -2.33902 0
M  V30 15786 N 1464.8 0.627364 1.44575 0
M  V30 15787 C 1465.76 -0.0700881 2.29093 0
M  V30 15788 C 1466.76 -0.775969 1.40838 0
M  V30 15789 O 1467.95 -0.621129 1.6275 0
M  V30 15790 C 1465.08 -1.10977 3.2233 0
M  V30 15791 H 1466.28 0.673234 2.92246 0
M  V30 15792 H 1463.83 0.387322 1.51425 0
M  V30 15793 H 1464.56 -1.8832 2.64019 0
M  V30 15794 H 1464.35 -0.607587 3.87364 0
M  V30 15795 H 1465.84 -1.59764 3.8583 0
M  V30 15796 N 1466.28 -1.53251 0.367684 0
M  V30 15797 C 1467.24 -2.24423 -0.465516 0
M  V30 15798 C 1468.24 -1.25283 -1.00801 0
M  V30 15799 O 1469.43 -1.49545 -0.893424 0
M  V30 15800 C 1466.56 -2.9826 -1.65087 0
M  V30 15801 H 1467.75 -2.99487 0.157292 0
M  V30 15802 H 1465.31 -1.55843 0.119409 0
M  V30 15803 H 1466.04 -2.27443 -2.31171 0
M  V30 15804 H 1465.83 -3.71003 -1.26882 0
M  V30 15805 H 1467.32 -3.52358 -2.24128 0
M  V30 15806 N 1467.75 -0.0969077 -1.57302 0
M  V30 15807 C 1468.98 0.574705 -1.98758 0
M  V30 15808 C 1469.4 1.61612 -0.976067 0
M  V30 15809 O 1468.75 1.82468 0.0340803 0
M  V30 15810 C 1468.8 1.22078 -3.40263 0
M  V30 15811 O 1468.53 0.221022 -4.37542 0
M  V30 15812 C 1470.03 1.97783 -3.96732 0
M  V30 15813 H 1467.25 0.153934 -0.653104 0
M  V30 15814 H 1469.79 -0.17673 -2.03735 0
M  V30 15815 H 1467.95 1.92314 -3.36295 0
M  V30 15816 H 1468.36 0.687583 -5.19974 0
M  V30 15817 H 1469.83 2.38346 -4.97891 0
M  V30 15818 H 1470.31 2.8444 -3.3465 0
M  V30 15819 H 1470.92 1.3236 -4.04179 0
M  V30 15820 N 1469.23 1.56605 0.176793 0
M  V30 15821 C 1470.51 1.72546 0.921261 0
M  V30 15822 C 1470.89 0.656794 2.00623 0
M  V30 15823 O 1470.24 -0.329303 2.26115 0
M  V30 15824 C 1470.45 3.15548 1.491 0
M  V30 15825 C 1471.79 3.7634 1.96604 0
M  V30 15826 O 1472.82 3.18791 1.58905 0
M  V30 15827 O 1471.68 4.77377 2.66033 0
M  V30 15828 H 1468.77 0.704425 0.43326 0
M  V30 15829 H 1471.32 1.68895 0.165052 0
M  V30 15830 H 1470.09 3.84808 0.709839 0
M  V30 15831 H 1469.71 3.23502 2.31154 0
M  V30 15832 N 1470.71 -0.445159 1.51182 0
M  V30 15833 C 1471.99 -1.20598 1.53998 0
M  V30 15834 C 1472.37 -2.08962 0.29967 0
M  V30 15835 O 1471.71 -2.17003 -0.715666 0
M  V30 15836 C 1471.92 -2.01461 2.84982 0
M  V30 15837 C 1473.27 -2.5877 3.36635 0
M  V30 15838 O 1474.3 -2.11679 2.86479 0
M  V30 15839 O 1473.16 -3.44637 4.24132 0
M  V30 15840 H 1470.25 -0.548635 0.618812 0
M  V30 15841 H 1472.8 -0.454865 1.6349 0
M  V30 15842 H 1471.57 -1.36511 3.66716 0
M  V30 15843 H 1471.19 -2.83654 2.78615 0
M  V30 15844 N 1472.19 -1.41197 -0.700089 0
M  V30 15845 C 1473.46 -1.30803 -1.4543 0
M  V30 15846 C 1473.84 0.0664987 -2.10995 0
M  V30 15847 O 1473.19 1.08043 -2.01343 0
M  V30 15848 C 1473.4 -2.45815 -2.47742 0
M  V30 15849 C 1474.75 -2.86771 -3.13126 0
M  V30 15850 O 1475.77 -2.45521 -2.58065 0
M  V30 15851 O 1474.63 -3.58086 -4.1284 0
M  V30 15852 H 1471.73 -0.514523 -0.647453 0
M  V30 15853 H 1474.27 -1.53151 -0.73095 0
M  V30 15854 H 1473.05 -3.37557 -1.97917 0
M  V30 15855 H 1472.67 -2.25319 -3.27593 0
M  V30 15856 N 1473.67 0.933891 -1.2695 0
M  V30 15857 C 1474.61 2.05498 -1.08964 0
M  V30 15858 C 1475.61 1.69394 -0.0144837 0
M  V30 15859 O 1476.81 1.79179 -0.171729 0
M  V30 15860 H 1473.19 0.672978 -0.335566 0
M  V30 15861 H 1475.16 2.17817 -2.03957 0
M  V30 15862 C 1473.91 3.39579 -0.747074 0
M  V30 15863 H 1473.23 3.67842 -1.56628 0
M  V30 15864 H 1474.67 4.18815 -0.661064 0
M  V30 15865 C 1473.13 3.3241 0.548214 0
M  V30 15866 O 1473.66 3.69132 1.58443 0
M  V30 15867 N 1471.87 2.85509 0.541545 0
M  V30 15868 H 1471.41 2.55822 -0.302112 0
M  V30 15869 H 1471.37 2.81095 1.4083 0
M  V30 15870 N 1475.14 1.08871 1.13951 0
M  V30 15871 C 1476.05 0.734869 2.22793 0
M  V30 15872 C 1477.07 -0.260699 1.72036 0
M  V30 15873 O 1478.25 -0.103461 2.01134 0
M  V30 15874 C 1475.31 0.154599 3.46355 0
M  V30 15875 C 1474.37 1.20539 4.1203 0
M  V30 15876 C 1473.6 0.652712 5.29694 0
M  V30 15877 O 1473.83 -0.526264 5.67967 0
M  V30 15878 O 1472.76 1.40503 5.85271 0
M  V30 15879 H 1476.59 1.64297 2.55422 0
M  V30 15880 H 1474.17 0.862716 1.21974 0
M  V30 15881 H 1476.05 -0.165962 4.21073 0
M  V30 15882 H 1474.73 -0.726592 3.1544 0
M  V30 15883 H 1473.64 1.57855 3.39164 0
M  V30 15884 H 1474.97 2.05902 4.47063 0
M  V30 15885 N 1476.62 -1.31073 0.875073 0
M  V30 15886 C 1477.55 -2.26485 0.279215 0
M  V30 15887 C 1478.53 -1.5134 -0.594556 0
M  V30 15888 O 1479.72 -1.80393 -0.546849 0
M  V30 15889 C 1476.84 -3.33268 -0.604165 0
M  V30 15890 C 1475.89 -4.26036 0.198944 0
M  V30 15891 S 1476.72 -5.11636 1.58079 0
M  V30 15892 C 1477.88 -6.21932 0.703665 0
M  V30 15893 H 1478.11 -2.76677 1.088 0
M  V30 15894 H 1475.64 -1.38917 0.673898 0
M  V30 15895 H 1477.6 -3.9526 -1.10813 0
M  V30 15896 H 1476.26 -2.8182 -1.38694 0
M  V30 15897 H 1475.46 -5.01759 -0.474755 0
M  V30 15898 H 1475.06 -3.68567 0.635185 0
M  V30 15899 H 1477.35 -6.77448 -0.0835828 0
M  V30 15900 H 1478.29 -6.93465 1.43219 0
M  V30 15901 H 1478.7 -5.63859 0.268954 0
M  V30 15902 N 1478.1 -0.635022 -1.4424 0
M  V30 15903 C 1479.05 0.0797218 -2.32463 0
M  V30 15904 C 1480.04 0.831818 -1.47571 0
M  V30 15905 O 1481.25 0.744277 -1.63892 0
M  V30 15906 H 1477.62 0.0445532 -0.750679 0
M  V30 15907 H 1479.59 -0.682374 -2.90493 0
M  V30 15908 C 1478.34 1.04505 -3.31623 0
M  V30 15909 H 1477.67 0.475755 -3.96959 0
M  V30 15910 H 1479.11 1.51458 -3.96026 0
M  V30 15911 C 1477.57 2.13221 -2.60842 0
M  V30 15912 O 1478.1 3.21357 -2.41025 0
M  V30 15913 N 1476.3 1.89264 -2.20516 0
M  V30 15914 H 1475.85 1.01329 -2.36834 0
M  V30 15915 H 1475.81 2.62203 -1.73484 0
M  V30 15916 N 1479.58 1.53054 -0.375806 0
M  V30 15917 C 1480.53 2.27576 0.480838 0
M  V30 15918 C 1481.52 1.30948 1.07466 0
M  V30 15919 O 1482.73 1.48538 1.01669 0
M  V30 15920 H 1479.1 0.731641 0.173799 0
M  V30 15921 H 1481.07 2.97919 -0.169327 0
M  V30 15922 C 1479.82 3.08533 1.60321 0
M  V30 15923 H 1479.14 3.82735 1.15558 0
M  V30 15924 H 1480.58 3.63837 2.17712 0
M  V30 15925 C 1479.04 2.20004 2.55147 0
M  V30 15926 O 1479.57 1.81771 3.58221 0
M  V30 15927 N 1477.78 1.84433 2.24573 0
M  V30 15928 H 1477.33 2.15723 1.40788 0
M  V30 15929 H 1477.28 1.25488 2.88271 0
M  V30 15930 N 1481.06 0.105248 1.57248 0
M  V30 15931 C 1481.99 -0.846915 2.176 0
M  V30 15932 C 1482.97 -1.28706 1.11216 0
M  V30 15933 O 1484.15 -1.35213 1.39396 0
M  V30 15934 C 1481.28 -2.10228 2.76445 0
M  V30 15935 C 1480.24 -1.80041 3.8829 0
M  V30 15936 C 1479.56 -3.12491 4.33882 0
M  V30 15937 C 1480.86 -1.07943 5.11024 0
M  V30 15938 H 1482.56 -0.344052 2.97417 0
M  V30 15939 H 1480.1 -0.164045 1.43063 0
M  V30 15940 H 1482.06 -2.77284 3.17319 0
M  V30 15941 H 1480.78 -2.62815 1.93897 0
M  V30 15942 H 1479.44 -1.15379 3.4797 0
M  V30 15943 H 1479.09 -3.62985 3.48211 0
M  V30 15944 H 1478.79 -2.93072 5.09296 0
M  V30 15945 H 1480.31 -3.80688 4.77398 0
M  V30 15946 H 1481.72 -1.65127 5.49004 0
M  V30 15947 H 1480.12 -0.986674 5.91933 0
M  V30 15948 H 1481.19 -0.0638511 4.84858 0
M  V30 15949 N 1482.53 -1.56697 -0.168486 0
M  V30 15950 C 1483.47 -1.93197 -1.23319 0
M  V30 15951 C 1484.48 -0.825373 -1.40326 0
M  V30 15952 O 1485.67 -1.10381 -1.40279 0
M  V30 15953 C 1482.77 -2.17205 -2.60145 0
M  V30 15954 C 1481.94 -3.48442 -2.64399 0
M  V30 15955 C 1481 -3.61244 -3.82609 0
M  V30 15956 O 1480.03 -4.33837 -3.68476 0
M  V30 15957 N 1481.23 -2.96304 -4.99183 0
M  V30 15958 H 1483.99 -2.85128 -0.923138 0
M  V30 15959 H 1481.55 -1.57887 -0.358229 0
M  V30 15960 H 1483.55 -2.23031 -3.37697 0
M  V30 15961 H 1482.12 -1.31643 -2.83529 0
M  V30 15962 H 1481.34 -3.54248 -1.72922 0
M  V30 15963 H 1482.62 -4.34795 -2.64255 0
M  V30 15964 H 1482.02 -2.37203 -5.13567 0
M  V30 15965 H 1480.58 -3.07722 -5.74587 0
M  V30 15966 N 1484.01 0.437135 -1.51416 0
M  V30 15967 C 1485.26 1.1835 -1.63328 0
M  V30 15968 C 1485.57 1.92343 -0.355455 0
M  V30 15969 O 1486.78 2.69183 -0.353951 0
M  V30 15970 C 1485.24 2.15235 -2.88447 0
M  V30 15971 C 1484.84 1.46889 -4.23235 0
M  V30 15972 C 1486.59 2.90303 -3.09716 0
M  V30 15973 C 1484.5 2.42259 -5.39504 0
M  V30 15974 H 1483.43 0.445467 -0.608338 0
M  V30 15975 H 1486.08 0.450528 -1.77883 0
M  V30 15976 H 1484.46 2.91968 -2.67527 0
M  V30 15977 H 1485.63 0.757128 -4.54537 0
M  V30 15978 H 1483.95 0.839725 -4.07845 0
M  V30 15979 H 1486.54 3.61747 -3.93756 0
M  V30 15980 H 1486.89 3.5166 -2.22802 0
M  V30 15981 H 1487.42 2.20677 -3.30978 0
M  V30 15982 H 1484.16 1.85591 -6.28678 0
M  V30 15983 H 1483.68 3.11488 -5.12577 0
M  V30 15984 H 1485.36 3.03384 -5.7146 0
M  V30 15985 N 1485.49 1.41566 0.692592 0
M  V30 15986 C 1486.45 1.43369 1.78824 0
M  V30 15987 C 1487.45 0.323867 1.57505 0
M  V30 15988 O 1488.64 0.583885 1.64123 0
M  V30 15989 C 1485.78 1.24798 3.17235 0
M  V30 15990 H 1486.97 2.40906 1.78617 0
M  V30 15991 H 1484.52 1.27752 0.900508 0
M  V30 15992 H 1485.26 0.281129 3.23079 0
M  V30 15993 H 1485.04 2.05212 3.34111 0
M  V30 15994 H 1486.53 1.28902 3.97208 0
M  V30 15995 N 1486.97 -0.927146 1.27443 0
M  V30 15996 C 1488.21 -1.67738 1.13982 0
M  V30 15997 C 1488.55 -1.91653 -0.313511 0
M  V30 15998 O 1487.82 -1.50729 -1.22926 0
M  V30 15999 C 1488.11 -3.04357 1.92454 0
M  V30 16000 C 1487.96 -2.8768 3.45775 0
M  V30 16001 C 1489.28 -4.04696 1.72944 0
M  V30 16002 H 1486.4 -0.608749 0.415444 0
M  V30 16003 H 1489.04 -1.07587 1.56605 0
M  V30 16004 H 1487.19 -3.55702 1.56232 0
M  V30 16005 H 1488.86 -2.43449 3.9183 0
M  V30 16006 H 1487.1 -2.23011 3.72087 0
M  V30 16007 H 1487.77 -3.8464 3.95924 0
M  V30 16008 H 1490.25 -3.62364 2.04528 0
M  V30 16009 H 1489.13 -4.98276 2.30243 0
M  V30 16010 H 1489.39 -4.36878 0.677505 0
M  V30 16011 N 1488.45 -1.09474 -1.13372 0
M  V30 16012 C 1489.69 -0.82945 -1.84295 0
M  V30 16013 C 1490.02 0.646788 -1.83961 0
M  V30 16014 O 1489.29 1.46929 -1.29572 0
M  V30 16015 H 1487.87 -0.303853 -0.682409 0
M  V30 16016 H 1490.53 -1.38298 -1.3733 0
M  V30 16017 H 1489.62 -1.18342 -2.88793 0
M  V30 16018 N 1489.92 1.30607 -0.882012 0
M  V30 16019 C 1491.34 1.48859 -0.575599 0
M  V30 16020 C 1491.54 1.80908 0.887388 0
M  V30 16021 O 1490.6 1.89492 1.6688 0
M  V30 16022 C 1491.91 2.61405 -1.48619 0
M  V30 16023 C 1493.46 2.75286 -1.48951 0
M  V30 16024 C 1493.93 3.90942 -2.38596 0
M  V30 16025 N 1495.42 3.98248 -2.36543 0
M  V30 16026 C 1496.16 4.87041 -3.0262 0
M  V30 16027 N 1495.65 5.80651 -3.77911 0
M  V30 16028 N 1497.45 4.80385 -2.91867 0
M  V30 16029 H 1489.6 1.08076 -1.82848 0
M  V30 16030 H 1491.86 0.535148 -0.782509 0
M  V30 16031 H 1491.57 2.44535 -2.52775 0
M  V30 16032 H 1491.44 3.57818 -1.19358 0
M  V30 16033 H 1493.83 2.91564 -0.455477 0
M  V30 16034 H 1493.91 1.79504 -1.82242 0
M  V30 16035 H 1493.55 3.75422 -3.42083 0
M  V30 16036 H 1493.48 4.86057 -2.02623 0
M  V30 16037 H 1495.97 3.31282 -1.81827 0
M  V30 16038 H 1496.29 6.45159 -4.25428 0
M  V30 16039 H 1494.63 5.80592 -3.82019 0
M  V30 16040 H 1497.82 4.06234 -2.32576 0
M  V30 16041 H 1498 5.49377 -3.43641 0
M  V30 16042 N 1491.4 0.642663 1.43901 0
M  V30 16043 C 1492.34 -0.104884 2.27959 0
M  V30 16044 C 1493.31 -0.840134 1.39214 0
M  V30 16045 O 1494.5 -0.841868 1.68656 0
M  V30 16046 C 1491.62 -1.15496 3.184 0
M  V30 16047 C 1490.67 -0.518946 4.23331 0
M  V30 16048 S 1491.5 0.699619 5.3091 0
M  V30 16049 C 1492.66 -0.350181 6.2492 0
M  V30 16050 H 1492.89 0.608181 2.91013 0
M  V30 16051 H 1490.43 0.431176 1.48257 0
M  V30 16052 H 1492.38 -1.75582 3.71054 0
M  V30 16053 H 1491.04 -1.84028 2.54544 0
M  V30 16054 H 1490.24 -1.31018 4.86673 0
M  V30 16055 H 1489.84 0.00756354 3.73999 0
M  V30 16056 H 1492.13 -1.21944 6.66435 0
M  V30 16057 H 1493.07 0.247942 7.07666 0
M  V30 16058 H 1493.48 -0.681254 5.60374 0
M  V30 16059 N 1492.88 -1.52852 0.383918 0
M  V30 16060 C 1493.81 -2.23927 -0.488816 0
M  V30 16061 C 1494.83 -1.2598 -1.03115 0
M  V30 16062 O 1496.02 -1.5209 -0.934398 0
M  V30 16063 C 1493.12 -2.9378 -1.68957 0
M  V30 16064 C 1492.29 -4.18388 -1.27555 0
M  V30 16065 C 1491.35 -4.71287 -2.3404 0
M  V30 16066 O 1490.37 -5.34511 -1.9567 0
M  V30 16067 N 1491.58 -4.50679 -3.65881 0
M  V30 16068 H 1494.34 -2.99459 0.120084 0
M  V30 16069 H 1491.9 -1.60532 0.210004 0
M  V30 16070 H 1493.89 -3.26071 -2.39707 0
M  V30 16071 H 1492.46 -2.21588 -2.20493 0
M  V30 16072 H 1491.68 -3.92194 -0.397157 0
M  V30 16073 H 1492.97 -4.99361 -0.975506 0
M  V30 16074 H 1492.37 -4.00201 -3.9982 0
M  V30 16075 H 1490.93 -4.87473 -4.32681 0
M  V30 16076 N 1494.36 -0.113586 -1.5719 0
M  V30 16077 C 1495.31 0.83862 -2.15025 0
M  V30 16078 C 1496.28 1.26726 -1.07376 0
M  V30 16079 O 1497.46 1.34574 -1.35257 0
M  V30 16080 C 1494.6 2.08538 -2.74965 0
M  V30 16081 C 1493.71 1.70559 -3.96905 0
M  V30 16082 C 1492.85 2.90161 -4.44949 0
M  V30 16083 C 1491.89 2.48396 -5.59433 0
M  V30 16084 N 1491.03 3.60894 -6.02246 0
M  V30 16085 H 1495.87 0.338585 -2.9607 0
M  V30 16086 H 1493.4 0.155437 -1.46276 0
M  V30 16087 H 1495.36 2.81579 -3.07846 0
M  V30 16088 H 1493.99 2.56009 -1.96619 0
M  V30 16089 H 1493.04 0.874133 -3.7022 0
M  V30 16090 H 1494.35 1.35863 -4.7994 0
M  V30 16091 H 1493.51 3.71434 -4.7971 0
M  V30 16092 H 1492.25 3.28081 -3.60852 0
M  V30 16093 H 1491.25 1.65555 -5.24282 0
M  V30 16094 H 1492.48 2.116 -6.45292 0
M  V30 16095 H 1490.42 3.98497 -5.21091 0
M  V30 16096 H 1490.34 3.30103 -6.80124 0
M  V30 16097 H 1491.61 4.42622 -6.41643 0
M  V30 16098 N 1495.84 1.56784 0.160173 0
M  V30 16099 C 1497.09 1.8226 0.873253 0
M  V30 16100 C 1497.41 0.692384 1.82294 0
M  V30 16101 O 1496.68 -0.286961 1.93787 0
M  V30 16102 H 1495.26 0.672371 0.325463 0
M  V30 16103 H 1497.92 1.94264 0.157325 0
M  V30 16104 H 1497.01 2.76714 1.44345 0
M  V30 16105 N 1497.32 -0.429099 1.51646 0
M  V30 16106 C 1498.56 -1.17482 1.63954 0
M  V30 16107 C 1498.88 -1.92152 0.36565 0
M  V30 16108 O 1500.08 -2.68991 0.368221 0
M  V30 16109 C 1498.54 -2.13703 2.89585 0
M  V30 16110 C 1498.15 -1.44642 4.24008 0
M  V30 16111 C 1499.89 -2.88657 3.11252 0
M  V30 16112 C 1497.8 -2.39395 5.40781 0
M  V30 16113 H 1496.73 -0.442234 0.610692 0
M  V30 16114 H 1499.38 -0.441088 1.7812 0
M  V30 16115 H 1497.76 -2.90545 2.69071 0
M  V30 16116 H 1498.94 -0.733012 4.54932 0
M  V30 16117 H 1497.25 -0.818084 4.08285 0
M  V30 16118 H 1499.85 -3.59653 3.95669 0
M  V30 16119 H 1500.19 -3.50473 2.24664 0
M  V30 16120 H 1500.72 -2.18919 3.32144 0
M  V30 16121 H 1497.46 -1.82255 6.29653 0
M  V30 16122 H 1496.98 -3.08766 5.14222 0
M  V30 16123 H 1498.66 -3.0035 5.73061 0
M  V30 16124 N 1498.79 -1.41931 -0.685074 0
M  V30 16125 C 1500.07 -1.32338 -1.44035 0
M  V30 16126 C 1500.45 0.0441161 -2.11054 0
M  V30 16127 O 1499.8 1.05901 -2.02478 0
M  V30 16128 C 1500.01 -2.48429 -2.45121 0
M  V30 16129 C 1501.36 -2.90076 -3.10067 0
M  V30 16130 O 1502.38 -2.48245 -2.55447 0
M  V30 16131 O 1501.24 -3.62445 -4.09019 0
M  V30 16132 H 1498.33 -0.521361 -0.641959 0
M  V30 16133 H 1500.88 -1.53918 -0.714666 0
M  V30 16134 H 1499.65 -3.39637 -1.94326 0
M  V30 16135 H 1499.27 -2.28781 -3.25184 0
M  V30 16136 N 1500.27 0.920374 -1.27933 0
M  V30 16137 C 1501.52 1.66883 -1.147 0
M  V30 16138 C 1501.85 1.92082 0.305732 0
M  V30 16139 O 1501.1 1.51449 1.23942 0
M  V30 16140 C 1501.4 3.03725 -1.88377 0
M  V30 16141 C 1501.07 2.9821 -3.38203 0
M  V30 16142 C 1499.73 2.96413 -3.79068 0
M  V30 16143 C 1502.08 2.88952 -4.3377 0
M  V30 16144 C 1499.41 2.83151 -5.13851 0
M  V30 16145 C 1501.76 2.77231 -5.68618 0
M  V30 16146 C 1500.42 2.73788 -6.08766 0
M  V30 16147 H 1499.69 0.61067 -0.419718 0
M  V30 16148 H 1502.34 1.0728 -1.58629 0
M  V30 16149 H 1500.65 3.67075 -1.36978 0
M  V30 16150 H 1502.34 3.60527 -1.7556 0
M  V30 16151 H 1498.93 3.004 -3.05709 0
M  V30 16152 H 1503.12 2.89433 -4.03165 0
M  V30 16153 H 1498.37 2.78877 -5.44093 0
M  V30 16154 H 1502.55 2.69034 -6.42335 0
M  V30 16155 H 1500.17 2.63268 -7.13158 0
M  V30 16156 N 1501.75 1.10074 1.1279 0
M  V30 16157 C 1503 0.842118 1.84489 0
M  V30 16158 C 1503.33 -0.630737 1.83672 0
M  V30 16159 O 1502.6 -1.46481 1.27959 0
M  V30 16160 C 1502.89 1.3864 3.32342 0
M  V30 16161 C 1502.74 2.92585 3.41635 0
M  V30 16162 C 1504.06 1.02565 4.27982 0
M  V30 16163 H 1501.18 0.307376 0.669842 0
M  V30 16164 H 1503.82 1.36326 1.32345 0
M  V30 16165 H 1501.97 0.943134 3.76878 0
M  V30 16166 H 1503.64 3.4541 3.0576 0
M  V30 16167 H 1501.88 3.29378 2.82299 0
M  V30 16168 H 1502.56 3.25749 4.45636 0
M  V30 16169 H 1505.03 1.40807 3.91552 0
M  V30 16170 H 1503.91 1.43345 5.29852 0
M  V30 16171 H 1504.17 -0.0653712 4.42052 0
M  V30 16172 N 1503.23 -1.30138 0.888926 0
M  V30 16173 C 1504.17 -2.28023 0.356923 0
M  V30 16174 C 1505.14 -1.56551 -0.555066 0
M  V30 16175 O 1506.33 -1.84595 -0.482633 0
M  V30 16176 C 1503.47 -3.42546 -0.419056 0
M  V30 16177 C 1502.58 -4.28827 0.5226 0
M  V30 16178 C 1501.72 -5.30517 -0.269366 0
M  V30 16179 C 1500.76 -6.08449 0.667507 0
M  V30 16180 N 1499.89 -7.02043 -0.08938 0
M  V30 16181 H 1504.73 -2.72912 1.19678 0
M  V30 16182 H 1502.27 -1.34239 0.60152 0
M  V30 16183 H 1504.23 -4.07707 -0.884911 0
M  V30 16184 H 1502.86 -2.98716 -1.22346 0
M  V30 16185 H 1501.91 -3.63938 1.10695 0
M  V30 16186 H 1503.22 -4.83136 1.24018 0
M  V30 16187 H 1502.38 -6.01444 -0.796901 0
M  V30 16188 H 1501.12 -4.76911 -1.02014 0
M  V30 16189 H 1500.12 -5.36396 1.20664 0
M  V30 16190 H 1501.35 -6.64143 1.41744 0
M  V30 16191 H 1499.29 -6.50822 -0.822622 0
M  V30 16192 H 1499.21 -7.53859 0.568499 0
M  V30 16193 H 1500.48 -7.77206 -0.597529 0
M  V30 16194 N 1504.71 -0.650285 -1.43559 0
M  V30 16195 C 1506.12 -0.317586 -1.56408 0
M  V30 16196 C 1506.32 1.17844 -1.63447 0
M  V30 16197 O 1505.38 1.96318 -1.58794 0
M  V30 16198 C 1506.69 -1.02636 -2.82642 0
M  V30 16199 C 1508.24 -1.00633 -2.96381 0
M  V30 16200 C 1508.71 -1.69595 -4.25443 0
M  V30 16201 N 1510.2 -1.66345 -4.323 0
M  V30 16202 C 1510.94 -2.16581 -5.30924 0
M  V30 16203 N 1510.44 -2.75092 -6.35843 0
M  V30 16204 N 1512.23 -2.07098 -5.22558 0
M  V30 16205 H 1504.38 -1.62114 -1.37233 0
M  V30 16206 H 1506.64 -0.681588 -0.658895 0
M  V30 16207 H 1506.35 -2.08146 -2.83493 0
M  V30 16208 H 1506.22 -0.576081 -3.72775 0
M  V30 16209 H 1508.61 0.0403519 -2.95072 0
M  V30 16210 H 1508.69 -1.49528 -2.07545 0
M  V30 16211 H 1508.33 -2.74218 -4.27512 0
M  V30 16212 H 1508.26 -1.18168 -5.1317 0
M  V30 16213 H 1510.76 -1.23644 -3.571 0
M  V30 16214 H 1511.07 -3.11108 -7.07412 0
M  V30 16215 H 1509.41 -2.79152 -6.36474 0
M  V30 16216 H 1512.6 -1.61093 -4.39507 0
M  V30 16217 H 1512.78 -2.46557 -5.99261 0
M  V30 16218 N 1506.18 1.52647 -0.392018 0
M  V30 16219 C 1507.13 2.26532 0.441819 0
M  V30 16220 C 1508.1 1.2825 1.05552 0
M  V30 16221 O 1509.29 1.57083 1.08303 0
M  V30 16222 C 1506.43 3.0774 1.56174 0
M  V30 16223 C 1505.54 4.20955 0.970632 0
M  V30 16224 C 1504.67 4.89553 2.06183 0
M  V30 16225 C 1503.71 5.94756 1.44676 0
M  V30 16226 N 1502.85 6.5694 2.47738 0
M  V30 16227 H 1507.69 2.97363 -0.194699 0
M  V30 16228 H 1505.23 1.46704 -0.107848 0
M  V30 16229 H 1507.18 3.53116 2.22183 0
M  V30 16230 H 1505.81 2.39112 2.16853 0
M  V30 16231 H 1504.87 3.79874 0.200067 0
M  V30 16232 H 1506.18 4.96474 0.481181 0
M  V30 16233 H 1505.33 5.38247 2.79956 0
M  V30 16234 H 1504.07 4.13564 2.58488 0
M  V30 16235 H 1503.08 5.45399 0.694288 0
M  V30 16236 H 1504.3 6.72679 0.931617 0
M  V30 16237 H 1502.25 5.8379 2.99208 0
M  V30 16238 H 1502.16 7.2808 2.03556 0
M  V30 16239 H 1503.43 7.10277 3.21133 0
M  V30 16240 N 1507.66 0.121921 1.57128 0
M  V30 16241 C 1508.91 -0.535201 1.9447 0
M  V30 16242 C 1509.22 -1.67644 1.00772 0
M  V30 16243 O 1510.43 -2.39651 1.27592 0
M  V30 16244 C 1508.89 -1.00346 3.45628 0
M  V30 16245 C 1508.49 0.109473 4.47866 0
M  V30 16246 C 1510.24 -1.63179 3.91884 0
M  V30 16247 C 1508.15 -0.375651 5.90206 0
M  V30 16248 H 1507.08 -0.203702 0.725962 0
M  V30 16249 H 1509.73 0.202243 1.82382 0
M  V30 16250 H 1508.11 -1.79541 3.5296 0
M  V30 16251 H 1509.28 0.885815 4.52206 0
M  V30 16252 H 1507.6 0.644642 4.1138 0
M  V30 16253 H 1510.19 -2.00594 4.95647 0
M  V30 16254 H 1510.54 -2.5113 3.32023 0
M  V30 16255 H 1511.07 -0.905197 3.87364 0
M  V30 16256 H 1507.81 0.46788 6.53828 0
M  V30 16257 H 1507.33 -1.11841 5.89281 0
M  V30 16258 H 1509.01 -0.835921 6.41577 0
M  V30 16259 N 1509.14 -1.56867 -0.151857 0
M  V30 16260 C 1510.56 -1.51422 -0.504328 0
M  V30 16261 C 1510.76 -0.829524 -1.83633 0
M  V30 16262 O 1509.81 -0.398018 -2.49343 0
M  V30 16263 C 1511.13 -2.96185 -0.519117 0
M  V30 16264 C 1512.67 -3.07098 -0.60497 0
M  V30 16265 C 1513.15 -4.53357 -0.650468 0
M  V30 16266 N 1514.64 -4.57682 -0.712825 0
M  V30 16267 C 1515.37 -5.68221 -0.768931 0
M  V30 16268 N 1514.87 -6.88342 -0.784678 0
M  V30 16269 N 1516.66 -5.56241 -0.809441 0
M  V30 16270 H 1508.81 -1.99777 0.721316 0
M  V30 16271 H 1511.08 -0.910951 0.262436 0
M  V30 16272 H 1510.78 -3.49516 0.391315 0
M  V30 16273 H 1510.66 -3.51877 -1.35876 0
M  V30 16274 H 1513.04 -2.53789 -1.50582 0
M  V30 16275 H 1513.13 -2.54458 0.261722 0
M  V30 16276 H 1512.77 -5.07303 0.246207 0
M  V30 16277 H 1512.7 -5.03775 -1.53358 0
M  V30 16278 H 1515.19 -3.71206 -0.708151 0
M  V30 16279 H 1515.5 -7.68339 -0.829202 0
M  V30 16280 H 1513.85 -6.90913 -0.752634 0
M  V30 16281 H 1517.04 -4.61312 -0.794274 0
M  V30 16282 H 1517.21 -6.42405 -0.849701 0
M  V30 16283 N 1510.62 0.421051 -1.51871 0
M  V30 16284 C 1511.53 1.5371 -1.7723 0
M  V30 16285 C 1512.54 1.61109 -0.657256 0
M  V30 16286 O 1513.72 1.78047 -0.941343 0
M  V30 16287 C 1510.79 2.89555 -1.9068 0
M  V30 16288 C 1509.85 2.9214 -3.14567 0
M  V30 16289 C 1509.08 4.21505 -3.27367 0
M  V30 16290 O 1509.3 5.14764 -2.45712 0
M  V30 16291 O 1508.24 4.30706 -4.20448 0
M  V30 16292 H 1512.06 1.35221 -2.71935 0
M  V30 16293 H 1509.65 0.605712 -1.3657 0
M  V30 16294 H 1511.53 3.70147 -2.01418 0
M  V30 16295 H 1510.2 3.08137 -0.991627 0
M  V30 16296 H 1509.11 2.10444 -3.09296 0
M  V30 16297 H 1510.44 2.78505 -4.05827 0
M  V30 16298 N 1512.1 1.42293 0.677538 0
M  V30 16299 C 1513.34 1.42616 1.4376 0
M  V30 16300 C 1513.67 0.0416268 1.94455 0
M  V30 16301 O 1512.93 -0.949544 1.7112 0
M  V30 16302 C 1513.23 2.3951 2.65273 0
M  V30 16303 C 1512.89 3.85952 2.33135 0
M  V30 16304 C 1511.55 4.25842 2.24081 0
M  V30 16305 C 1513.91 4.78337 2.06987 0
M  V30 16306 C 1511.23 5.561 1.87001 0
M  V30 16307 C 1513.59 6.08934 1.71411 0
M  V30 16308 C 1512.25 6.47826 1.60865 0
M  V30 16309 H 1511.52 0.521869 0.526055 0
M  V30 16310 H 1514.17 1.75214 0.772797 0
M  V30 16311 H 1512.47 2.00229 3.36773 0
M  V30 16312 H 1514.17 2.37025 3.2345 0
M  V30 16313 H 1510.76 3.54369 2.41083 0
M  V30 16314 H 1514.94 4.48308 2.12916 0
M  V30 16315 H 1510.2 5.85097 1.77403 0
M  V30 16316 H 1514.37 6.80009 1.50203 0
M  V30 16317 H 1512 7.48669 1.31902 0
M  V30 16318 N 1513.57 -0.913576 1.28419 0
M  V30 16319 C 1514.82 -1.65731 1.14961 0
M  V30 16320 C 1515.14 -1.93269 -0.301079 0
M  V30 16321 O 1516.34 -2.6573 -0.556778 0
M  V30 16322 C 1514.8 -2.98562 2.00969 0
M  V30 16323 C 1514.41 -2.78671 3.5078 0
M  V30 16324 C 1516.15 -3.76439 1.96198 0
M  V30 16325 C 1514.06 -4.07144 4.28938 0
M  V30 16326 H 1512.99 -0.621681 0.426648 0
M  V30 16327 H 1515.64 -1.0138 1.52952 0
M  V30 16328 H 1514.02 -3.64049 1.55835 0
M  V30 16329 H 1515.19 -2.21864 4.03873 0
M  V30 16330 H 1513.51 -2.14206 3.57078 0
M  V30 16331 H 1516.11 -4.71668 2.51861 0
M  V30 16332 H 1516.45 -4.05577 0.938771 0
M  V30 16333 H 1516.98 -3.17772 2.39303 0
M  V30 16334 H 1513.72 -3.83178 5.31841 0
M  V30 16335 H 1513.24 -4.63562 3.80619 0
M  V30 16336 H 1514.92 -4.754 4.38866 0
M  V30 16337 N 1515.05 -1.1067 -1.12204 0
M  V30 16338 C 1515.98 -0.715581 -2.17743 0
M  V30 16339 C 1517 0.248892 -1.60886 0
M  V30 16340 O 1518.19 0.0329917 -1.7847 0
M  V30 16341 C 1515.29 -0.0356388 -3.38881 0
M  V30 16342 C 1514.46 -1.0249 -4.25223 0
M  V30 16343 C 1513.52 -0.375998 -5.24855 0
M  V30 16344 O 1512.54 -1.02753 -5.59849 0
M  V30 16345 N 1513.75 0.864525 -5.74026 0
M  V30 16346 H 1516.51 -1.62362 -2.5191 0
M  V30 16347 H 1514.07 -0.995851 -1.2765 0
M  V30 16348 H 1516.06 0.41 -4.02618 0
M  V30 16349 H 1514.63 0.77485 -3.02845 0
M  V30 16350 H 1513.85 -1.64874 -3.58065 0
M  V30 16351 H 1515.14 -1.69446 -4.79756 0
M  V30 16352 H 1514.54 1.41317 -5.47764 0
M  V30 16353 H 1513.1 1.25327 -6.39638 0
M  V30 16354 N 1516.53 1.29665 -0.895815 0
M  V30 16355 C 1517.48 2.27831 -0.369011 0
M  V30 16356 C 1518.45 1.56843 0.546756 0
M  V30 16357 O 1519.63 1.84848 0.472837 0
M  V30 16358 C 1516.77 3.42764 0.400884 0
M  V30 16359 C 1515.89 4.28544 -0.545335 0
M  V30 16360 C 1515.02 5.30652 0.241228 0
M  V30 16361 C 1514.06 6.08087 -0.699765 0
M  V30 16362 N 1513.2 7.02081 0.0521477 0
M  V30 16363 H 1518.04 2.72274 -1.21124 0
M  V30 16364 H 1515.57 1.33918 -0.608631 0
M  V30 16365 H 1517.53 4.08171 0.863277 0
M  V30 16366 H 1516.16 2.99361 1.2076 0
M  V30 16367 H 1515.21 3.63346 -1.12624 0
M  V30 16368 H 1516.53 4.82472 -1.26579 0
M  V30 16369 H 1515.68 6.01858 0.764994 0
M  V30 16370 H 1514.42 4.77446 0.994838 0
M  V30 16371 H 1513.42 5.35748 -1.23507 0
M  V30 16372 H 1514.65 6.63382 -1.45264 0
M  V30 16373 H 1512.59 6.51249 0.788096 0
M  V30 16374 H 1512.51 7.53547 -0.60847 0
M  V30 16375 H 1513.78 7.77512 0.556304 0
M  V30 16376 N 1518.01 0.657889 1.43212 0
M  V30 16377 C 1518.97 -0.0214783 2.2919 0
M  V30 16378 C 1519.97 -0.745921 1.42452 0
M  V30 16379 O 1521.16 -0.586468 1.64031 0
M  V30 16380 C 1518.29 -1.04115 3.24612 0
M  V30 16381 H 1519.49 0.735072 2.90752 0
M  V30 16382 H 1517.04 0.419354 1.50569 0
M  V30 16383 H 1517.77 -1.82677 2.67954 0
M  V30 16384 H 1517.56 -0.525285 3.88566 0
M  V30 16385 H 1519.05 -1.51544 3.89132 0
M  V30 16386 N 1519.49 -1.52437 0.400108 0
M  V30 16387 C 1520.73 -2.01711 -0.178605 0
M  V30 16388 C 1521.06 -1.28613 -1.45908 0
M  V30 16389 O 1520.32 -0.378206 -1.92011 0
M  V30 16390 C 1520.62 -3.54133 -0.482141 0
M  V30 16391 C 1520.28 -4.45306 0.70806 0
M  V30 16392 C 1518.94 -4.69947 1.03455 0
M  V30 16393 C 1521.3 -4.99035 1.50379 0
M  V30 16394 C 1518.62 -5.45566 2.15812 0
M  V30 16395 C 1520.98 -5.75883 2.61805 0
M  V30 16396 C 1519.64 -5.98799 2.9495 0
M  V30 16397 H 1518.91 -0.738112 -0.0653562 0
M  V30 16398 H 1521.56 -1.83738 0.539676 0
M  V30 16399 H 1519.86 -3.70237 -1.28188 0
M  V30 16400 H 1521.56 -3.89761 -0.942725 0
M  V30 16401 H 1518.15 -4.26298 0.443599 0
M  V30 16402 H 1522.33 -4.79913 1.26479 0
M  V30 16403 H 1517.59 -5.61532 2.4185 0
M  V30 16404 H 1521.76 -6.16514 3.23857 0
M  V30 16405 H 1519.39 -6.57176 3.8213 0
M  V30 16406 N 1520.96 -0.130252 -1.57061 0
M  V30 16407 C 1522.21 0.525784 -1.95866 0
M  V30 16408 C 1522.54 1.65607 -1.01429 0
M  V30 16409 O 1521.82 1.94426 -0.0535544 0
M  V30 16410 C 1522.1 1.04784 -3.44517 0
M  V30 16411 C 1521.95 -0.0797972 -4.49729 0
M  V30 16412 C 1523.27 1.9351 -3.95275 0
M  V30 16413 H 1520.39 0.189652 -0.71218 0
M  V30 16414 H 1523.03 -0.208091 -1.88857 0
M  V30 16415 H 1521.18 1.67324 -3.50621 0
M  V30 16416 H 1522.86 -0.715535 -4.55717 0
M  V30 16417 H 1521.1 -0.741358 -4.27418 0
M  V30 16418 H 1521.77 0.326915 -5.51031 0
M  V30 16419 H 1524.25 1.40825 -3.91545 0
M  V30 16420 H 1523.12 2.26952 -4.99784 0
M  V30 16421 H 1523.38 2.86583 -3.36634 0
M  V30 16422 N 1522.44 1.56945 0.143535 0
M  V30 16423 C 1523.86 1.51688 0.496291 0
M  V30 16424 C 1524.06 0.839251 1.83191 0
M  V30 16425 O 1523.12 0.411235 2.49129 0
M  V30 16426 C 1524.43 2.96456 0.503402 0
M  V30 16427 C 1525.98 3.07414 0.588676 0
M  V30 16428 C 1526.45 4.53696 0.626416 0
M  V30 16429 N 1527.94 4.58054 0.688543 0
M  V30 16430 C 1528.68 5.68621 0.738786 0
M  V30 16431 N 1528.17 6.88748 0.748163 0
M  V30 16432 N 1529.97 5.56663 0.779931 0
M  V30 16433 H 1522.12 1.99392 -0.731901 0
M  V30 16434 H 1524.38 0.909546 -0.267263 0
M  V30 16435 H 1524.09 3.49304 -0.409845 0
M  V30 16436 H 1523.96 3.52593 1.34008 0
M  V30 16437 H 1526.35 2.54584 1.49234 0
M  V30 16438 H 1526.43 2.54315 -0.275213 0
M  V30 16439 H 1526.07 5.07165 -0.273108 0
M  V30 16440 H 1526 5.04581 1.50684 0
M  V30 16441 H 1528.49 3.71576 0.688455 0
M  V30 16442 H 1528.81 7.68767 0.788444 0
M  V30 16443 H 1527.15 6.91302 0.715982 0
M  V30 16444 H 1530.34 4.61727 0.769799 0
M  V30 16445 H 1530.52 6.42847 0.815621 0
M  V30 16446 N 1523.92 -0.412991 1.52093 0
M  V30 16447 C 1524.87 -1.50294 1.75158 0
M  V30 16448 C 1525.84 -1.55119 0.593902 0
M  V30 16449 O 1527.02 -1.71751 0.831032 0
M  V30 16450 C 1524.16 -2.87781 1.90463 0
M  V30 16451 C 1523.28 -2.92295 3.181 0
M  V30 16452 C 1522.41 -4.21056 3.23859 0
M  V30 16453 C 1521.45 -4.1953 4.45714 0
M  V30 16454 N 1520.59 -5.39857 4.48886 0
M  V30 16455 H 1525.43 -1.29927 2.68185 0
M  V30 16456 H 1522.96 -0.630741 1.32891 0
M  V30 16457 H 1524.92 -3.67588 1.9732 0
M  V30 16458 H 1523.55 -3.06651 1.00822 0
M  V30 16459 H 1522.6 -2.05002 3.20434 0
M  V30 16460 H 1523.92 -2.87031 4.0794 0
M  V30 16461 H 1523.07 -5.09253 3.29767 0
M  V30 16462 H 1521.81 -4.2901 2.31952 0
M  V30 16463 H 1520.81 -3.29724 4.39957 0
M  V30 16464 H 1522.04 -4.1322 5.38912 0
M  V30 16465 H 1519.99 -5.48486 3.59861 0
M  V30 16466 H 1519.9 -5.36572 5.32566 0
M  V30 16467 H 1521.17 -6.30018 4.59018 0
M  V30 16468 N 1525.4 -1.4265 -0.669982 0
M  V30 16469 C 1526.33 -1.42457 -1.79551 0
M  V30 16470 C 1527.34 -0.322966 -1.59564 0
M  V30 16471 O 1528.53 -0.586359 -1.68594 0
M  V30 16472 C 1525.63 -1.20561 -3.16731 0
M  V30 16473 C 1524.81 -2.43246 -3.63525 0
M  V30 16474 C 1523.87 -2.16823 -4.79452 0
M  V30 16475 O 1522.89 -2.90058 -4.8975 0
M  V30 16476 N 1524.09 -1.17436 -5.68497 0
M  V30 16477 H 1526.86 -2.39474 -1.80201 0
M  V30 16478 H 1524.42 -1.37591 -0.853244 0
M  V30 16479 H 1526.41 -1.00794 -3.91947 0
M  V30 16480 H 1524.98 -0.320497 -3.10953 0
M  V30 16481 H 1524.2 -2.78549 -2.78934 0
M  V30 16482 H 1525.49 -3.24931 -3.91532 0
M  V30 16483 H 1524.89 -0.568736 -5.62834 0
M  V30 16484 H 1523.44 -1.03655 -6.43505 0
M  V30 16485 N 1526.88 0.906753 -1.28902 0
M  V30 16486 C 1527.82 2.01004 -1.13429 0
M  V30 16487 C 1528.79 1.66074 -0.0295031 0
M  V30 16488 O 1529.98 1.89793 -0.195727 0
M  V30 16489 C 1527.12 3.35473 -0.809457 0
M  V30 16490 C 1526.23 3.83229 -1.99398 0
M  V30 16491 C 1525.37 5.06241 -1.60915 0
M  V30 16492 C 1524.41 5.46348 -2.7599 0
M  V30 16493 N 1523.54 6.60548 -2.37952 0
M  V30 16494 H 1528.38 2.13571 -2.07825 0
M  V30 16495 H 1525.92 1.046 -1.03428 0
M  V30 16496 H 1527.88 4.12836 -0.601845 0
M  V30 16497 H 1526.51 3.22652 0.0975896 0
M  V30 16498 H 1525.56 3.01962 -2.31351 0
M  V30 16499 H 1526.87 4.08908 -2.85649 0
M  V30 16500 H 1526.03 5.91168 -1.36401 0
M  V30 16501 H 1524.77 4.82385 -0.718021 0
M  V30 16502 H 1523.77 4.59959 -3.01195 0
M  V30 16503 H 1525 5.72188 -3.65757 0
M  V30 16504 H 1522.94 6.38309 -1.51318 0
M  V30 16505 H 1522.86 6.85987 -3.17738 0
M  V30 16506 H 1524.13 7.48762 -2.1674 0
M  V30 16507 N 1528.36 1.11264 1.11616 0
M  V30 16508 C 1529.32 0.7726 2.15786 0
M  V30 16509 C 1530.32 -0.207145 1.5946 0
M  V30 16510 O 1531.51 0.0171053 1.74192 0
M  V30 16511 C 1528.64 0.145927 3.40588 0
M  V30 16512 H 1529.83 1.69539 2.47379 0
M  V30 16513 H 1527.39 0.914278 1.2677 0
M  V30 16514 H 1528.12 -0.787178 3.14601 0
M  V30 16515 H 1527.91 0.851161 3.8275 0
M  V30 16516 H 1529.4 -0.0759176 4.17531 0
M  V30 16517 N 1529.83 -1.29188 0.902679 0
M  V30 16518 C 1530.76 -2.3006 0.399357 0
M  V30 16519 C 1531.74 -1.61724 -0.527199 0
M  V30 16520 O 1532.93 -1.89213 -0.437293 0
M  V30 16521 C 1530.06 -3.45309 -0.371331 0
M  V30 16522 C 1529.01 -4.25466 0.465068 0
M  V30 16523 C 1528.34 -5.32941 -0.433295 0
M  V30 16524 C 1529.64 -4.93287 1.71655 0
M  V30 16525 H 1531.33 -2.72409 1.24233 0
M  V30 16526 H 1528.88 -1.30958 0.598822 0
M  V30 16527 H 1530.83 -4.14955 -0.734207 0
M  V30 16528 H 1529.56 -3.01811 -1.24811 0
M  V30 16529 H 1528.22 -3.57532 0.810315 0
M  V30 16530 H 1527.86 -4.85688 -1.3083 0
M  V30 16531 H 1527.56 -5.87472 0.122657 0
M  V30 16532 H 1529.09 -6.05438 -0.792298 0
M  V30 16533 H 1530.5 -5.55353 1.42323 0
M  V30 16534 H 1528.9 -5.57763 2.21405 0
M  V30 16535 H 1529.97 -4.18406 2.45081 0
M  V30 16536 N 1531.31 -0.665475 -1.42861 0
M  V30 16537 C 1532.59 -0.113252 -1.95272 0
M  V30 16538 C 1532.97 1.36972 -1.6063 0
M  V30 16539 O 1532.32 2.10129 -0.897662 0
M  V30 16540 C 1532.53 -0.372482 -3.47007 0
M  V30 16541 C 1533.87 -0.283982 -4.23649 0
M  V30 16542 O 1534.9 -0.305714 -3.54886 0
M  V30 16543 O 1533.76 -0.218171 -5.46064 0
M  V30 16544 H 1530.85 0.00253712 -0.826996 0
M  V30 16545 H 1533.4 -0.739561 -1.52737 0
M  V30 16546 H 1532.17 -1.40015 -3.65392 0
M  V30 16547 H 1531.79 0.286294 -3.96568 0
M  V30 16548 N 1532.79 1.52222 -0.408187 0
M  V30 16549 C 1533.7 2.30725 0.424645 0
M  V30 16550 C 1534.72 1.38412 1.05442 0
M  V30 16551 O 1535.89 1.71486 1.05614 0
M  V30 16552 C 1532.96 3.11273 1.52677 0
M  V30 16553 C 1532.02 4.19323 0.920143 0
M  V30 16554 C 1531.25 4.96021 1.96974 0
M  V30 16555 O 1531.47 4.73011 3.18774 0
M  V30 16556 O 1530.41 5.80887 1.5765 0
M  V30 16557 H 1534.23 3.02935 -0.215411 0
M  V30 16558 H 1531.82 1.48413 -0.171414 0
M  V30 16559 H 1533.7 3.61436 2.16661 0
M  V30 16560 H 1532.38 2.41857 2.15144 0
M  V30 16561 H 1531.28 3.7331 0.243037 0
M  V30 16562 H 1532.62 4.91028 0.339405 0
M  V30 16563 N 1534.27 0.138579 1.5699 0
M  V30 16564 C 1535.52 -0.514545 1.95026 0
M  V30 16565 C 1535.83 -1.66565 1.02544 0
M  V30 16566 O 1537.04 -2.38284 1.30126 0
M  V30 16567 C 1535.49 -0.966746 3.46673 0
M  V30 16568 C 1535.1 0.156969 4.47725 0
M  V30 16569 C 1536.84 -1.59014 3.93592 0
M  V30 16570 C 1534.75 -0.313031 5.90571 0
M  V30 16571 H 1533.68 -0.195991 0.728082 0
M  V30 16572 H 1536.33 0.221575 1.82157 0
M  V30 16573 H 1534.71 -1.75788 3.54845 0
M  V30 16574 H 1535.89 0.933728 4.51241 0
M  V30 16575 H 1534.2 0.688238 4.10673 0
M  V30 16576 H 1536.8 -1.95326 4.97747 0
M  V30 16577 H 1537.14 -2.47595 3.34668 0
M  V30 16578 H 1537.68 -0.864061 3.88302 0
M  V30 16579 H 1534.41 0.5372 6.53295 0
M  V30 16580 H 1533.93 -1.05585 5.90434 0
M  V30 16581 H 1535.61 -0.767826 6.42428 0
M  V30 16582 N 1535.75 -1.57019 -0.13521 0
M  V30 16583 C 1536.69 -1.99148 -1.16657 0
M  V30 16584 C 1537.66 -0.860947 -1.42045 0
M  V30 16585 O 1538.85 -1.12393 -1.54183 0
M  V30 16586 C 1535.99 -2.3872 -2.49212 0
M  V30 16587 C 1535.1 -3.65117 -2.30898 0
M  V30 16588 C 1534.24 -3.9374 -3.5657 0
M  V30 16589 C 1533.27 -5.1337 -3.33343 0
M  V30 16590 N 1532.41 -5.37945 -4.51176 0
M  V30 16591 H 1537.25 -2.87052 -0.800312 0
M  V30 16592 H 1534.79 -1.42007 -0.383705 0
M  V30 16593 H 1536.75 -2.59695 -3.26518 0
M  V30 16594 H 1535.38 -1.53879 -2.83762 0
M  V30 16595 H 1534.43 -3.5185 -1.44588 0
M  V30 16596 H 1535.74 -4.52578 -2.09701 0
M  V30 16597 H 1534.89 -4.15277 -4.423 0
M  V30 16598 H 1533.63 -3.04723 -3.80782 0
M  V30 16599 H 1532.64 -4.91694 -2.46002 0
M  V30 16600 H 1533.86 -6.0395 -3.10517 0
M  V30 16601 H 1531.81 -4.51884 -4.75539 0
M  V30 16602 H 1531.73 -6.19698 -4.33025 0
M  V30 16603 H 1532.99 -5.63989 -5.38086 0
M  V30 16604 N 1537.22 0.404919 -1.52309 0
M  V30 16605 C 1538.64 0.983553 -1.58692 0
M  V30 16606 C 1538.99 1.9143 -0.429993 0
M  V30 16607 O 1538.11 2.11689 0.449088 0
M  V30 16608 C 1538.71 1.79059 -2.87617 0
M  V30 16609 C 1537.27 2.31918 -2.96464 0
M  V30 16610 C 1536.41 1.12018 -2.53667 0
M  V30 16611 H 1539.36 0.185007 -1.57618 0
M  V30 16612 H 1539.38 2.64836 -2.73207 0
M  V30 16613 H 1538.9 1.11291 -3.71801 0
M  V30 16614 H 1537 3.03044 -2.16783 0
M  V30 16615 H 1537.11 2.62495 -4.00791 0
M  V30 16616 H 1535.47 1.47542 -2.07614 0
M  V30 16617 H 1536.26 0.458111 -3.4023 0
M  V30 16618 N 1538.7 1.43003 0.662408 0
M  V30 16619 C 1539.63 1.50248 1.78739 0
M  V30 16620 C 1540.61 0.357934 1.66291 0
M  V30 16621 O 1541.8 0.573919 1.85526 0
M  V30 16622 C 1538.93 1.41618 3.17114 0
M  V30 16623 C 1537.88 2.54228 3.44314 0
M  V30 16624 C 1537.21 2.30653 4.82393 0
M  V30 16625 C 1538.51 3.96505 3.39972 0
M  V30 16626 H 1540.2 2.44406 1.72934 0
M  V30 16627 H 1537.75 1.17633 0.830569 0
M  V30 16628 H 1539.7 1.45293 3.9556 0
M  V30 16629 H 1538.43 0.439605 3.23628 0
M  V30 16630 H 1537.08 2.49891 2.68235 0
M  V30 16631 H 1536.73 1.3126 4.85572 0
M  V30 16632 H 1536.43 3.06134 5.01554 0
M  V30 16633 H 1537.96 2.36096 5.63108 0
M  V30 16634 H 1539.37 4.02378 4.08368 0
M  V30 16635 H 1537.77 4.71937 3.70668 0
M  V30 16636 H 1538.84 4.22295 2.38318 0
M  V30 16637 N 1540.18 -0.899904 1.29381 0
M  V30 16638 C 1541.09 -2.03699 1.16378 0
M  V30 16639 C 1542.11 -1.73782 0.0870792 0
M  V30 16640 O 1543.28 -1.99167 0.299109 0
M  V30 16641 C 1540.35 -3.36341 0.841166 0
M  V30 16642 C 1539.41 -3.79778 2.00168 0
M  V30 16643 C 1538.64 -5.0609 1.69437 0
M  V30 16644 O 1538.86 -5.67073 0.615212 0
M  V30 16645 O 1537.8 -5.45574 2.54229 0
M  V30 16646 H 1541.62 -2.17592 2.11866 0
M  V30 16647 H 1539.21 -1.02353 1.08831 0
M  V30 16648 H 1541.09 -4.15946 0.675803 0
M  V30 16649 H 1539.77 -3.23591 -0.0839376 0
M  V30 16650 H 1538.67 -3.00941 2.22229 0
M  V30 16651 H 1540.01 -3.97111 2.90798 0
M  V30 16652 N 1541.66 -1.11854 -1.11024 0
M  V30 16653 C 1542.94 -0.781693 -1.79301 0
M  V30 16654 C 1543.32 0.72956 -1.98092 0
M  V30 16655 O 1542.66 1.66109 -1.56908 0
M  V30 16656 C 1542.87 -1.54976 -3.12703 0
M  V30 16657 C 1544.22 -1.73183 -3.87676 0
M  V30 16658 O 1545.25 -1.51437 -3.22406 0
M  V30 16659 O 1544.1 -2.0935 -5.04812 0
M  V30 16660 H 1541.2 -0.283672 -0.776826 0
M  V30 16661 H 1543.74 -1.22222 -1.17728 0
M  V30 16662 H 1542.52 -2.57759 -2.94408 0
M  V30 16663 H 1542.14 -1.10308 -3.81992 0
M  V30 16664 N 1543.14 1.28707 -0.909517 0
M  V30 16665 C 1544.07 2.29845 -0.411552 0
M  V30 16666 C 1545.05 1.62001 0.518615 0
M  V30 16667 O 1546.23 1.89442 0.427252 0
M  V30 16668 C 1543.36 3.45501 0.353013 0
M  V30 16669 C 1542.32 4.25213 -0.487625 0
M  V30 16670 C 1541.64 5.33164 0.405026 0
M  V30 16671 C 1542.94 4.9237 -1.74268 0
M  V30 16672 H 1544.64 2.71746 -1.25676 0
M  V30 16673 H 1542.18 1.30639 -0.605759 0
M  V30 16674 H 1544.14 4.15338 0.712191 0
M  V30 16675 H 1542.86 3.02469 1.23209 0
M  V30 16676 H 1541.52 3.57098 -0.829265 0
M  V30 16677 H 1541.17 4.86375 1.28252 0
M  V30 16678 H 1540.87 5.87399 -0.153811 0
M  V30 16679 H 1542.39 6.0585 0.760179 0
M  V30 16680 H 1543.8 5.5459 -1.45266 0
M  V30 16681 H 1542.2 5.56581 -2.2436 0
M  V30 16682 H 1543.27 4.171 -2.47297 0
M  V30 16683 N 1544.61 0.673042 1.42506 0
M  V30 16684 C 1545.56 -0.0180603 2.32593 0
M  V30 16685 C 1546.56 -0.7924 1.49724 0
M  V30 16686 O 1547.76 -0.700563 1.65807 0
M  V30 16687 H 1544.14 -0.0246346 0.751596 0
M  V30 16688 H 1546.11 0.759153 2.88582 0
M  V30 16689 C 1544.86 -0.95676 3.34277 0
M  V30 16690 H 1544.18 -0.370341 3.98081 0
M  V30 16691 H 1545.62 -1.40905 3.99902 0
M  V30 16692 C 1544.08 -2.0623 2.66403 0
M  V30 16693 O 1544.61 -3.14853 2.4946 0
M  V30 16694 N 1542.82 -1.83351 2.25457 0
M  V30 16695 H 1542.36 -0.950141 2.39437 0
M  V30 16696 H 1542.32 -2.57511 1.80375 0
M  V30 16697 N 1546.09 -1.52004 0.416254 0
M  V30 16698 C 1547.04 -2.28771 -0.420331 0
M  V30 16699 C 1548.03 -1.33751 -1.03957 0
M  V30 16700 O 1549.24 -1.51181 -0.976951 0
M  V30 16701 H 1545.62 -0.735991 -0.15434 0
M  V30 16702 H 1547.59 -2.97366 0.248255 0
M  V30 16703 C 1546.34 -3.12675 -1.52085 0
M  V30 16704 H 1545.66 -3.85665 -1.0537 0
M  V30 16705 H 1547.1 -3.69482 -2.07989 0
M  V30 16706 C 1545.56 -2.26692 -2.49224 0
M  V30 16707 O 1546.09 -1.91205 -3.53276 0
M  V30 16708 N 1544.29 -1.90322 -2.19604 0
M  V30 16709 H 1543.84 -2.1938 -1.35019 0
M  V30 16710 H 1543.8 -1.33086 -2.84843 0
M  V30 16711 N 1547.57 -0.146903 -1.56914 0
M  V30 16712 C 1548.52 0.792821 -2.16756 0
M  V30 16713 C 1549.49 1.2442 -1.1004 0
M  V30 16714 O 1550.67 1.31674 -1.38081 0
M  V30 16715 C 1547.81 2.02659 -2.79327 0
M  V30 16716 C 1546.93 1.62102 -4.00433 0
M  V30 16717 C 1546.06 2.80658 -4.51004 0
M  V30 16718 C 1545.1 2.36474 -5.64576 0
M  V30 16719 N 1544.24 3.48038 -6.09766 0
M  V30 16720 H 1549.08 0.275708 -2.96722 0
M  V30 16721 H 1546.61 0.124374 -1.46573 0
M  V30 16722 H 1548.57 2.74986 -3.13749 0
M  V30 16723 H 1547.2 2.51781 -2.02005 0
M  V30 16724 H 1546.25 0.795407 -3.71991 0
M  V30 16725 H 1547.57 1.25652 -4.82714 0
M  V30 16726 H 1546.72 3.61175 -4.87481 0
M  V30 16727 H 1545.46 3.20353 -3.6773 0
M  V30 16728 H 1544.46 1.54397 -5.27676 0
M  V30 16729 H 1545.69 1.97865 -6.49635 0
M  V30 16730 H 1543.63 3.87354 -5.29427 0
M  V30 16731 H 1543.55 3.15602 -6.86972 0
M  V30 16732 H 1544.82 4.28912 -6.50887 0
M  V30 16733 N 1549.05 1.57088 0.126881 0
M  V30 16734 C 1550 1.99764 1.15599 0
M  V30 16735 C 1550.97 0.868468 1.41587 0
M  V30 16736 O 1552.15 1.13209 1.53585 0
M  V30 16737 C 1549.29 2.40038 2.47943 0
M  V30 16738 C 1548.4 3.66336 2.28958 0
M  V30 16739 C 1547.54 3.95626 3.54477 0
M  V30 16740 C 1546.58 5.15131 3.30616 0
M  V30 16741 N 1545.71 5.4033 4.48317 0
M  V30 16742 H 1550.55 2.87473 0.785078 0
M  V30 16743 H 1548.09 1.42209 0.376169 0
M  V30 16744 H 1550.05 2.61423 3.25136 0
M  V30 16745 H 1548.68 1.55382 2.82942 0
M  V30 16746 H 1547.73 3.52612 1.4272 0
M  V30 16747 H 1549.04 4.53684 2.07298 0
M  V30 16748 H 1548.2 4.17617 4.40092 0
M  V30 16749 H 1546.94 3.06738 3.79161 0
M  V30 16750 H 1545.94 4.92992 2.43391 0
M  V30 16751 H 1547.17 6.05588 3.0731 0
M  V30 16752 H 1545.11 4.54399 4.73136 0
M  V30 16753 H 1545.03 6.21985 4.29733 0
M  V30 16754 H 1546.3 5.66835 5.35088 0
M  V30 16755 N 1550.53 -0.396836 1.52522 0
M  V30 16756 C 1551.8 -1.15638 1.57757 0
M  V30 16757 C 1552.18 -2.07903 0.365998 0
M  V30 16758 O 1551.53 -2.1917 -0.646266 0
M  V30 16759 C 1551.74 -1.92292 2.91247 0
M  V30 16760 C 1553.09 -2.47929 3.44697 0
M  V30 16761 O 1554.11 -2.02458 2.93069 0
M  V30 16762 O 1552.97 -3.30969 4.34881 0
M  V30 16763 H 1550.07 -0.52867 0.635953 0
M  V30 16764 H 1552.61 -0.402622 1.64855 0
M  V30 16765 H 1551.38 -1.24775 3.70873 0
M  V30 16766 H 1551.01 -2.74646 2.87498 0
M  V30 16767 N 1552.01 -1.43353 -0.654814 0
M  V30 16768 C 1553.23 -1.48536 -1.44748 0
M  V30 16769 C 1553.66 -0.103991 -1.87812 0
M  V30 16770 O 1553.01 0.901924 -1.57274 0
M  V30 16771 C 1553.06 -2.43498 -2.65972 0
M  V30 16772 O 1552.17 -1.92014 -3.64972 0
M  V30 16773 H 1551.51 -0.502476 -0.434067 0
M  V30 16774 H 1554.04 -1.88251 -0.801427 0
M  V30 16775 H 1554.05 -2.60748 -3.13806 0
M  V30 16776 H 1552.72 -3.43847 -2.3397 0
M  V30 16777 H 1551.3 -1.84417 -3.24106 0
M  V30 16778 N 1553.48 0.89303 -1.29857 0
M  V30 16779 C 1554.72 1.65836 -1.19489 0
M  V30 16780 C 1555.09 1.90389 0.248194 0
M  V30 16781 O 1556.29 2.6457 0.474963 0
M  V30 16782 C 1554.56 2.96706 -1.9925 0
M  V30 16783 S 1556.12 3.8771 -2.05492 0
M  V30 16784 H 1552.94 0.569282 -0.425956 0
M  V30 16785 H 1555.54 1.06061 -1.64229 0
M  V30 16786 H 1554.24 2.76554 -3.03226 0
M  V30 16787 H 1553.77 3.61518 -1.55141 0
M  V30 16788 H 1555.79 4.82052 -1.17644 0
M  V30 16789 N 1554.96 1.12442 1.10429 0
M  V30 16790 C 1556.21 0.874466 1.81758 0
M  V30 16791 C 1556.52 -0.601487 1.86122 0
M  V30 16792 O 1557.73 -0.968037 2.53656 0
M  V30 16793 C 1556.19 1.51478 3.2647 0
M  V30 16794 C 1555.79 3.02552 3.30403 0
M  V30 16795 C 1557.54 1.34511 4.02625 0
M  V30 16796 C 1555.44 3.59518 4.69575 0
M  V30 16797 H 1554.37 0.323494 0.681078 0
M  V30 16798 H 1557.03 1.35091 1.24188 0
M  V30 16799 H 1555.41 0.966 3.84037 0
M  V30 16800 H 1556.58 3.63924 2.82659 0
M  V30 16801 H 1554.9 3.18917 2.67733 0
M  V30 16802 H 1557.49 1.74492 5.05427 0
M  V30 16803 H 1557.84 0.288788 4.15297 0
M  V30 16804 H 1558.37 1.86311 3.51473 0
M  V30 16805 H 1555.11 4.6491 4.62103 0
M  V30 16806 H 1554.63 3.02922 5.17686 0
M  V30 16807 H 1556.31 3.58581 5.38543 0
M  V30 16808 N 1556.44 -1.28223 0.91633 0
M  V30 16809 C 1557.66 -1.99523 0.566147 0
M  V30 16810 C 1558.09 -1.68 -0.846034 0
M  V30 16811 O 1557.45 -0.913838 -1.56584 0
M  V30 16812 C 1557.5 -3.51949 0.785114 0
M  V30 16813 O 1556.6 -4.1211 -0.154686 0
M  V30 16814 H 1555.94 -0.626764 0.219232 0
M  V30 16815 H 1558.47 -1.63313 1.23247 0
M  V30 16816 H 1558.48 -4.02016 0.696224 0
M  V30 16817 H 1557.16 -3.74227 1.81457 0
M  V30 16818 H 1555.73 -3.72896 -0.0168463 0
M  V30 16819 N 1557.92 -0.68059 -1.42147 0
M  V30 16820 C 1558.87 0.00572503 -2.32599 0
M  V30 16821 C 1559.86 0.784449 -1.50142 0
M  V30 16822 O 1561.07 0.69176 -1.66177 0
M  V30 16823 H 1557.44 0.0206483 -0.751716 0
M  V30 16824 H 1559.41 -0.774447 -2.88175 0
M  V30 16825 C 1558.16 0.939019 -3.3478 0
M  V30 16826 H 1557.48 0.349225 -3.98272 0
M  V30 16827 H 1558.92 1.38782 -4.00644 0
M  V30 16828 C 1557.38 2.04814 -2.67493 0
M  V30 16829 O 1557.91 3.13526 -2.51126 0
M  V30 16830 N 1556.12 1.82153 -2.26426 0
M  V30 16831 H 1555.67 0.93743 -2.39938 0
M  V30 16832 H 1555.62 2.56551 -1.81738 0
M  V30 16833 N 1559.4 1.51781 -0.424309 0
M  V30 16834 C 1560.35 2.24259 0.411339 0
M  V30 16835 C 1561.33 1.25976 1.00094 0
M  V30 16836 O 1562.52 1.51136 0.921238 0
M  V30 16837 C 1559.65 3.07858 1.51917 0
M  V30 16838 C 1558.74 4.13561 0.939599 0
M  V30 16839 N 1559.13 5.05723 0.08803 0
M  V30 16840 C 1557.43 4.29314 1.20855 0
M  V30 16841 C 1558.13 5.81221 -0.236076 0
M  V30 16842 N 1557.1 5.42291 0.376983 0
M  V30 16843 H 1560.9 2.92874 -0.2454 0
M  V30 16844 H 1558.42 1.60682 -0.235612 0
M  V30 16845 H 1560.42 3.58347 2.13056 0
M  V30 16846 H 1559.08 2.40784 2.17837 0
M  V30 16847 H 1560.09 5.17156 -0.277436 0
M  V30 16848 H 1556.76 3.73469 1.86621 0
M  V30 16849 H 1558.15 6.65457 -0.928241 0
M  V30 16850 N 1560.87 0.155222 1.56834 0
M  V30 16851 C 1562.1 -0.500542 2.00754 0
M  V30 16852 C 1562.52 -1.57878 1.03538 0
M  V30 16853 O 1561.87 -1.82469 0.0336651 0
M  V30 16854 C 1561.92 -1.09366 3.4456 0
M  V30 16855 O 1561.65 -0.0584788 4.38061 0
M  V30 16856 C 1563.15 -1.82923 4.038 0
M  V30 16857 H 1560.37 -0.129589 0.658368 0
M  V30 16858 H 1562.91 0.252223 2.02939 0
M  V30 16859 H 1561.07 -1.797 3.43201 0
M  V30 16860 H 1561.48 -0.494125 5.22167 0
M  V30 16861 H 1562.95 -2.19703 5.06394 0
M  V30 16862 H 1563.43 -2.71823 3.44976 0
M  V30 16863 H 1564.04 -1.17268 4.08813 0
M  V30 16864 N 1562.35 -1.57153 -0.118549 0
M  V30 16865 C 1563.58 -1.89062 -0.840429 0
M  V30 16866 C 1563.99 -0.746516 -1.73414 0
M  V30 16867 O 1563.35 0.282638 -1.80298 0
M  V30 16868 C 1563.4 -3.20433 -1.67347 0
M  V30 16869 O 1563.12 -4.30439 -0.815739 0
M  V30 16870 C 1564.62 -3.66048 -2.50047 0
M  V30 16871 H 1561.84 -0.626005 -0.241575 0
M  V30 16872 H 1564.39 -2.04241 -0.102804 0
M  V30 16873 H 1562.54 -3.06922 -2.36385 0
M  V30 16874 H 1562.96 -5.05736 -1.39037 0
M  V30 16875 H 1564.43 -4.60729 -3.04028 0
M  V30 16876 H 1564.91 -2.92727 -3.27426 0
M  V30 16877 H 1565.51 -3.82349 -1.86251 0
M  V30 16878 N 1563.83 0.388742 -1.5273 0
M  V30 16879 C 1565.08 1.13094 -1.67011 0
M  V30 16880 C 1565.39 1.91115 -0.416467 0
M  V30 16881 O 1566.6 2.67921 -0.43941 0
M  V30 16882 C 1565.05 2.0595 -2.95149 0
M  V30 16883 C 1564.66 1.3335 -4.27694 0
M  V30 16884 C 1566.41 2.80303 -3.18795 0
M  V30 16885 C 1564.31 2.24973 -5.46938 0
M  V30 16886 H 1563.24 0.425887 -0.622203 0
M  V30 16887 H 1565.89 0.393708 -1.79227 0
M  V30 16888 H 1564.28 2.83309 -2.7668 0
M  V30 16889 H 1565.45 0.612137 -4.56716 0
M  V30 16890 H 1563.76 0.709547 -4.1031 0
M  V30 16891 H 1566.36 3.49036 -4.05065 0
M  V30 16892 H 1566.7 3.44394 -2.33877 0
M  V30 16893 H 1567.24 2.10036 -3.37831 0
M  V30 16894 H 1563.98 1.65497 -6.34264 0
M  V30 16895 H 1563.5 2.95024 -5.22227 0
M  V30 16896 H 1565.18 2.8505 -5.80823 0
M  V30 16897 N 1565.31 1.43698 0.647203 0
M  V30 16898 C 1566.22 1.51781 1.78884 0
M  V30 16899 C 1567.23 0.404498 1.69233 0
M  V30 16900 O 1568.41 0.659509 1.90296 0
M  V30 16901 C 1565.47 1.44408 3.15194 0
M  V30 16902 C 1564.54 2.6646 3.36597 0
M  V30 16903 C 1563.77 2.59429 4.66403 0
M  V30 16904 O 1563.99 1.64537 5.46154 0
M  V30 16905 O 1562.93 3.50027 4.89658 0
M  V30 16906 H 1566.75 2.48198 1.75019 0
M  V30 16907 H 1564.34 1.25766 0.806436 0
M  V30 16908 H 1566.22 1.42761 3.96481 0
M  V30 16909 H 1564.89 0.511292 3.19637 0
M  V30 16910 H 1563.8 2.73679 2.5505 0
M  V30 16911 H 1565.13 3.58732 3.37005 0
M  V30 16912 N 1566.79 -0.886131 1.30328 0
M  V30 16913 C 1568.04 -1.63255 1.18451 0
M  V30 16914 C 1568.35 -1.93864 -0.260016 0
M  V30 16915 O 1569.55 -2.66851 -0.500288 0
M  V30 16916 C 1568.01 -2.94232 2.07257 0
M  V30 16917 C 1567.62 -2.71168 3.56612 0
M  V30 16918 C 1569.36 -3.72193 2.04139 0
M  V30 16919 C 1567.27 -3.97954 4.37478 0
M  V30 16920 H 1566.2 -0.612491 0.439739 0
M  V30 16921 H 1568.85 -0.981129 1.55068 0
M  V30 16922 H 1567.23 -3.60661 1.63522 0
M  V30 16923 H 1568.41 -2.13247 4.08488 0
M  V30 16924 H 1566.72 -2.06584 3.61541 0
M  V30 16925 H 1569.32 -4.66219 2.61809 0
M  V30 16926 H 1569.66 -4.03495 1.02459 0
M  V30 16927 H 1570.19 -3.12624 2.45989 0
M  V30 16928 H 1566.93 -3.71811 5.39849 0
M  V30 16929 H 1566.45 -4.55384 3.90366 0
M  V30 16930 H 1568.13 -4.65984 4.48852 0
M  V30 16931 N 1568.26 -1.13026 -1.09832 0
M  V30 16932 C 1569.51 -0.887662 -1.81563 0
M  V30 16933 C 1569.83 0.587935 -1.85926 0
M  V30 16934 O 1569.1 1.42732 -1.3418 0
M  V30 16935 H 1567.68 -0.32541 -0.672397 0
M  V30 16936 H 1570.35 -1.42597 -1.32861 0
M  V30 16937 H 1569.44 -1.2747 -2.84882 0
M  V30 16938 N 1569.74 1.27735 -0.923117 0
M  V30 16939 C 1570.69 2.26997 -0.417254 0
M  V30 16940 C 1571.66 1.57968 0.513364 0
M  V30 16941 O 1572.84 1.8581 0.433521 0
M  V30 16942 C 1569.98 3.43537 0.328089 0
M  V30 16943 C 1569.1 4.27291 -0.636112 0
M  V30 16944 C 1568.23 5.31044 0.128614 0
M  V30 16945 C 1567.27 6.06466 -0.828592 0
M  V30 16946 N 1566.41 7.02033 -0.0967858 0
M  V30 16947 H 1571.25 2.69643 -1.26872 0
M  V30 16948 H 1568.79 1.32597 -0.6369 0
M  V30 16949 H 1570.74 4.0991 0.776504 0
M  V30 16950 H 1569.37 3.01855 1.14383 0
M  V30 16951 H 1568.43 3.60875 -1.20306 0
M  V30 16952 H 1569.74 4.79679 -1.36784 0
M  V30 16953 H 1568.89 6.03345 0.637159 0
M  V30 16954 H 1567.63 4.79448 0.893341 0
M  V30 16955 H 1566.64 5.33008 -1.34843 0
M  V30 16956 H 1567.86 6.60151 -1.59303 0
M  V30 16957 H 1565.81 6.52774 0.649779 0
M  V30 16958 H 1565.72 7.52087 -0.768171 0
M  V30 16959 H 1566.99 7.78517 0.391257 0
M  V30 16960 N 1571.22 0.688118 1.41784 0
M  V30 16961 C 1572.5 0.144304 1.95067 0
M  V30 16962 C 1572.88 -1.34399 1.62789 0
M  V30 16963 O 1572.23 -2.08675 0.930978 0
M  V30 16964 C 1572.44 0.427641 3.4637 0
M  V30 16965 C 1573.78 0.351345 4.23144 0
M  V30 16966 O 1574.81 0.362134 3.54354 0
M  V30 16967 O 1573.67 0.305018 5.45648 0
M  V30 16968 H 1570.76 0.01062 0.826932 0
M  V30 16969 H 1573.31 0.763766 1.51541 0
M  V30 16970 H 1572.08 1.4581 3.63119 0
M  V30 16971 H 1571.7 -0.223167 3.96973 0
M  V30 16972 N 1572.7 -1.51554 0.432352 0
M  V30 16973 C 1573.63 -2.30514 -0.372243 0
M  V30 16974 C 1574.61 -1.35712 -1.02549 0
M  V30 16975 O 1575.79 -1.6463 -1.03009 0
M  V30 16976 C 1572.92 -3.14353 -1.47646 0
M  V30 16977 C 1571.88 -4.17392 -0.946974 0
M  V30 16978 C 1571.2 -4.89721 -2.14656 0
M  V30 16979 C 1572.5 -5.22298 0.0151377 0
M  V30 16980 H 1574.2 -2.98024 0.28668 0
M  V30 16981 H 1571.74 -1.43325 0.139315 0
M  V30 16982 H 1573.7 -3.68369 -2.04651 0
M  V30 16983 H 1572.42 -2.44654 -2.1636 0
M  V30 16984 H 1571.08 -3.6442 -0.399174 0
M  V30 16985 H 1570.73 -4.1653 -2.81978 0
M  V30 16986 H 1570.43 -5.59393 -1.79869 0
M  V30 16987 H 1571.95 -5.46559 -2.72224 0
M  V30 16988 H 1573.37 -5.71416 -0.464447 0
M  V30 16989 H 1571.76 -5.99468 0.275339 0
M  V30 16990 H 1572.83 -4.75436 0.953357 0
M  V30 16991 N 1574.18 -0.163538 -1.56749 0
M  V30 16992 C 1575.12 0.786745 -2.18891 0
M  V30 16993 C 1576.12 1.24323 -1.15066 0
M  V30 16994 O 1577.32 1.20979 -1.33282 0
M  V30 16995 H 1573.7 0.271967 -0.701098 0
M  V30 16996 H 1575.67 0.2386 -2.97445 0
M  V30 16997 C 1574.42 2.00905 -2.83782 0
M  V30 16998 H 1573.74 1.66681 -3.63397 0
M  V30 16999 H 1575.18 2.65302 -3.30743 0
M  V30 17000 C 1573.64 2.8277 -1.83148 0
M  V30 17001 O 1574.17 3.79666 -1.31213 0
M  V30 17002 N 1572.38 2.47629 -1.52079 0
M  V30 17003 H 1571.92 1.68896 -1.94504 0
M  V30 17004 H 1571.88 3.02693 -0.849963 0
M  V30 17005 N 1575.65 1.57214 0.110213 0
M  V30 17006 C 1576.88 1.8923 0.829187 0
M  V30 17007 C 1577.29 0.753834 1.73534 0
M  V30 17008 O 1576.64 -0.283946 1.81492 0
M  V30 17009 C 1576.7 3.16351 1.7077 0
M  V30 17010 C 1576.36 4.46479 0.974949 0
M  V30 17011 C 1577.36 5.18965 0.311696 0
M  V30 17012 C 1575.04 4.93167 0.953516 0
M  V30 17013 C 1577.04 6.36364 -0.363191 0
M  V30 17014 C 1574.72 6.10482 0.274836 0
M  V30 17015 C 1575.72 6.81929 -0.382355 0
M  V30 17016 O 1575.41 7.97011 -1.05019 0
M  V30 17017 H 1575.14 0.630744 0.243184 0
M  V30 17018 H 1577.7 2.05173 0.09648 0
M  V30 17019 H 1575.93 2.96513 2.48227 0
M  V30 17020 H 1577.62 3.34317 2.30189 0
M  V30 17021 H 1578.38 4.83944 0.319815 0
M  V30 17022 H 1574.26 4.37454 1.45448 0
M  V30 17023 H 1577.8 6.92069 -0.876728 0
M  V30 17024 H 1573.7 6.44958 0.26451 0
M  V30 17025 H 1574.47 8.12903 -0.95555 0
M  V30 17026 N 1577.13 -0.380637 1.52934 0
M  V30 17027 C 1578.06 -1.47174 1.81279 0
M  V30 17028 C 1579.04 -1.56549 0.665319 0
M  V30 17029 O 1580.23 -1.71362 0.913722 0
M  V30 17030 C 1577.36 -2.84691 1.98918 0
M  V30 17031 C 1576.31 -2.90151 3.14637 0
M  V30 17032 C 1575.64 -4.30198 3.17544 0
M  V30 17033 C 1576.94 -2.59037 4.53539 0
M  V30 17034 H 1578.63 -1.23703 2.7265 0
M  V30 17035 H 1576.18 -0.593654 1.31194 0
M  V30 17036 H 1578.13 -3.61034 2.1733 0
M  V30 17037 H 1576.86 -3.09517 1.04244 0
M  V30 17038 H 1575.51 -2.16257 2.96021 0
M  V30 17039 H 1575.16 -4.52076 2.20536 0
M  V30 17040 H 1574.86 -4.3477 3.95284 0
M  V30 17041 H 1576.39 -5.08435 3.38121 0
M  V30 17042 H 1577.8 -3.25096 4.72214 0
M  V30 17043 H 1576.2 -2.74946 5.33408 0
M  V30 17044 H 1577.27 -1.54342 4.59681 0
M  V30 17045 N 1578.61 -1.44039 -0.639573 0
M  V30 17046 C 1579.56 -1.50254 -1.75192 0
M  V30 17047 C 1580.53 -0.350994 -1.62349 0
M  V30 17048 O 1581.71 -0.56006 -1.82395 0
M  V30 17049 C 1578.85 -1.44464 -3.13407 0
M  V30 17050 C 1577.97 -2.69929 -3.37287 0
M  V30 17051 C 1577.1 -2.56031 -4.65426 0
M  V30 17052 C 1576.14 -3.76699 -4.82456 0
M  V30 17053 N 1575.28 -3.61529 -6.01865 0
M  V30 17054 H 1580.12 -2.45296 -1.69216 0
M  V30 17055 H 1577.65 -1.21748 -0.825576 0
M  V30 17056 H 1579.61 -1.39099 -3.93328 0
M  V30 17057 H 1578.24 -0.529951 -3.1842 0
M  V30 17058 H 1577.29 -2.85516 -2.51366 0
M  V30 17059 H 1578.61 -3.59523 -3.45753 0
M  V30 17060 H 1577.76 -2.48451 -5.53495 0
M  V30 17061 H 1576.5 -1.63983 -4.59305 0
M  V30 17062 H 1575.5 -3.84672 -3.92819 0
M  V30 17063 H 1576.73 -4.69772 -4.90398 0
M  V30 17064 H 1574.67 -2.72226 -5.96849 0
M  V30 17065 H 1574.59 -4.44733 -6.1135 0
M  V30 17066 H 1575.86 -3.57826 -6.92518 0
M  V30 17067 N 1580.09 0.879207 -1.30796 0
M  V30 17068 C 1581.37 1.61328 -1.10602 0
M  V30 17069 C 1581.75 2.08301 0.342621 0
M  V30 17070 O 1581.09 1.85436 1.33514 0
M  V30 17071 C 1581.3 2.77838 -2.11203 0
M  V30 17072 C 1582.65 3.48028 -2.43231 0
M  V30 17073 O 1583.68 2.88034 -2.09559 0
M  V30 17074 O 1582.53 4.56233 -3.00854 0
M  V30 17075 H 1579.63 0.709335 -0.425174 0
M  V30 17076 H 1582.17 0.925478 -1.42243 0
M  V30 17077 H 1580.95 2.40475 -3.08687 0
M  V30 17078 H 1580.57 3.54312 -1.80414 0
M  V30 17079 N 1581.57 1.13606 1.09231 0
M  V30 17080 C 1582.82 0.897278 1.81089 0
M  V30 17081 C 1583.14 -0.578066 1.86235 0
M  V30 17082 O 1582.41 -1.42018 1.34935 0
M  V30 17083 H 1580.99 0.328971 0.670662 0
M  V30 17084 H 1583.65 1.433 1.32103 0
M  V30 17085 H 1582.74 1.28979 2.84202 0
M  V30 17086 N 1583.05 -1.27244 0.929878 0
M  V30 17087 C 1583.99 -2.28755 0.421202 0
M  V30 17088 C 1584.99 -1.61988 -0.49561 0
M  V30 17089 O 1586.19 -1.76049 -0.375071 0
M  V30 17090 H 1582.57 -0.742741 0.117646 0
M  V30 17091 H 1584.54 -2.6907 1.29011 0
M  V30 17092 C 1583.29 -3.46327 -0.308737 0
M  V30 17093 H 1582.61 -3.97917 0.387552 0
M  V30 17094 H 1584.05 -4.19308 -0.629052 0
M  V30 17095 C 1582.51 -3.00535 -1.5225 0
M  V30 17096 O 1583.04 -3.04395 -2.62119 0
M  V30 17097 N 1581.25 -2.56007 -1.3751 0
M  V30 17098 H 1580.79 -2.53065 -0.481215 0
M  V30 17099 H 1580.75 -2.25731 -2.18845 0
M  V30 17100 N 1584.52 -0.695628 -1.41417 0
M  V30 17101 C 1585.77 -0.226171 -2.0083 0
M  V30 17102 C 1586.09 1.17833 -1.55371 0
M  V30 17103 O 1585.36 1.79512 -0.784362 0
M  V30 17104 H 1583.94 -0.0806271 -0.742636 0
M  V30 17105 H 1586.6 -0.8968 -1.73042 0
M  V30 17106 H 1585.7 -0.243643 -3.11148 0
M  V30 17107 N 1586 1.51322 -0.440383 0
M  V30 17108 C 1587.23 2.0653 0.123649 0
M  V30 17109 C 1587.64 1.30751 1.36197 0
M  V30 17110 O 1587 0.367932 1.78753 0
M  V30 17111 C 1587.05 3.58778 0.442802 0
M  V30 17112 O 1586.77 4.31695 -0.746375 0
M  V30 17113 C 1588.27 4.3051 1.05717 0
M  V30 17114 H 1585.49 0.670968 0.00657466 0
M  V30 17115 H 1588.04 1.94864 -0.620341 0
M  V30 17116 H 1586.19 3.70349 1.13669 0
M  V30 17117 H 1586.61 5.22368 -0.472466 0
M  V30 17118 H 1588.08 5.38111 1.23046 0
M  V30 17119 H 1588.56 3.88999 2.03903 0
M  V30 17120 H 1589.16 4.2339 0.402574 0
M  V30 17121 N 1587.48 0.171848 1.5666 0
M  V30 17122 C 1588.71 -0.479221 2.01274 0
M  V30 17123 C 1589.12 -1.56771 1.05206 0
M  V30 17124 O 1588.48 -1.82423 0.0530164 0
M  V30 17125 C 1588.53 -1.05705 3.457 0
M  V30 17126 O 1588.25 -0.0120133 4.38098 0
M  V30 17127 C 1589.75 -1.78629 4.05717 0
M  V30 17128 H 1586.97 -0.122598 0.659705 0
M  V30 17129 H 1589.52 0.273733 2.0266 0
M  V30 17130 H 1587.67 -1.7605 3.45087 0
M  V30 17131 H 1588.09 -0.438714 5.22662 0
M  V30 17132 H 1589.56 -2.14319 5.08696 0
M  V30 17133 H 1590.04 -2.68149 3.4784 0
M  V30 17134 H 1590.64 -1.12925 4.10034 0
M  V30 17135 N 1588.96 -1.5727 -0.101874 0
M  V30 17136 C 1590.18 -1.90319 -0.824215 0
M  V30 17137 C 1590.61 -0.765469 -1.7182 0
M  V30 17138 O 1589.97 0.283275 -1.79073 0
M  V30 17139 C 1590.01 -3.22201 -1.61922 0
M  V30 17140 O 1589.12 -3.09313 -2.72762 0
M  V30 17141 H 1588.46 -0.624042 -0.226864 0
M  V30 17142 H 1590.99 -2.04447 -0.0791314 0
M  V30 17143 H 1591 -3.55343 -2.00487 0
M  V30 17144 H 1589.67 -4.04596 -0.963078 0
M  V30 17145 H 1588.25 -2.87672 -2.37274 0
M  V30 17146 N 1590.44 0.372521 -1.53134 0
M  V30 17147 C 1591.68 1.11368 -1.68646 0
M  V30 17148 C 1592 1.90034 -0.437275 0
M  V30 17149 O 1591.27 1.88062 0.548593 0
M  V30 17150 H 1589.85 0.414129 -0.621696 0
M  V30 17151 H 1592.52 0.42082 -1.90303 0
M  V30 17152 H 1591.61 1.80738 -2.54441 0
M  V30 17153 N 1591.91 1.44376 0.631925 0
M  V30 17154 C 1593.16 1.46398 1.38747 0
M  V30 17155 C 1593.48 0.100149 1.95343 0
M  V30 17156 O 1594.68 -0.00210908 2.715 0
M  V30 17157 C 1593.14 2.57731 2.51203 0
M  V30 17158 C 1592.75 4.00317 2.01123 0
M  V30 17159 C 1594.49 2.68972 3.28412 0
M  V30 17160 C 1592.4 5.03075 3.10917 0
M  V30 17161 H 1591.33 0.544667 0.521396 0
M  V30 17162 H 1593.98 1.70439 0.679912 0
M  V30 17163 H 1592.36 2.26928 3.2453 0
M  V30 17164 H 1593.53 4.40683 1.34666 0
M  V30 17165 H 1591.85 3.93311 1.36732 0
M  V30 17166 H 1594.45 3.42916 4.10259 0
M  V30 17167 H 1594.79 1.74762 3.77841 0
M  V30 17168 H 1595.32 2.9918 2.62176 0
M  V30 17169 H 1592.06 5.98911 2.66433 0
M  V30 17170 H 1591.58 4.67302 3.76017 0
M  V30 17171 H 1593.26 5.2674 3.75705 0
M  V30 17172 N 1593.39 -0.872258 1.31261 0
M  V30 17173 C 1594.64 -1.6219 1.20576 0
M  V30 17174 C 1594.96 -1.93557 -0.236769 0
M  V30 17175 O 1594.23 -1.58094 -1.15686 0
M  V30 17176 H 1592.81 -0.601265 0.443272 0
M  V30 17177 H 1595.47 -1.04438 1.64556 0
M  V30 17178 H 1594.57 -2.56653 1.77582 0
M  V30 17179 N 1594.87 -1.14184 -1.08627 0
M  V30 17180 C 1596.09 -0.932504 -1.85254 0
M  V30 17181 C 1596.52 0.513792 -1.80947 0
M  V30 17182 O 1595.88 1.36525 -1.19292 0
M  V30 17183 C 1595.93 -1.43519 -3.30809 0
M  V30 17184 O 1595.03 -0.625806 -4.07624 0
M  V30 17185 H 1594.37 -0.333573 -0.57413 0
M  V30 17186 H 1596.9 -1.51853 -1.3712 0
M  V30 17187 H 1596.91 -1.44238 -3.81654 0
M  V30 17188 H 1595.59 -2.48819 -3.3326 0
M  V30 17189 H 1594.16 -0.687168 -3.66514 0
M  V30 17190 N 1596.35 1.26749 -0.936613 0
M  V30 17191 C 1597.57 1.98597 -0.597817 0
M  V30 17192 C 1598 1.69324 0.8192 0
M  V30 17193 O 1597.36 0.938634 1.55111 0
M  V30 17194 C 1597.4 3.50656 -0.841007 0
M  V30 17195 O 1596.51 4.12304 0.0891038 0
M  V30 17196 H 1595.85 0.623197 -0.229176 0
M  V30 17197 H 1598.38 1.61332 -1.2583 0
M  V30 17198 H 1598.39 4.00857 -0.760093 0
M  V30 17199 H 1597.06 3.71293 -1.87388 0
M  V30 17200 H 1595.64 3.72876 -0.0424804 0
M  V30 17201 N 1597.83 0.703118 1.41046 0
M  V30 17202 C 1599.07 0.237638 2.01403 0
M  V30 17203 C 1599.41 -1.16217 1.55587 0
M  V30 17204 O 1598.68 -1.78593 0.770377 0
M  V30 17205 C 1598.96 0.303738 3.58817 0
M  V30 17206 C 1598.82 1.74103 4.14739 0
M  V30 17207 C 1600.14 -0.332186 4.38845 0
M  V30 17208 H 1597.25 0.0878243 0.731749 0
M  V30 17209 H 1599.9 0.893264 1.67693 0
M  V30 17210 H 1598.05 -0.254485 3.87666 0
M  V30 17211 H 1599.72 2.35368 3.96736 0
M  V30 17212 H 1597.96 2.27277 3.69496 0
M  V30 17213 H 1598.63 1.73876 5.239 0
M  V30 17214 H 1601.11 0.143312 4.15853 0
M  V30 17215 H 1599.98 -0.255429 5.48305 0
M  V30 17216 H 1600.25 -1.41397 4.18878 0
M  V30 17217 N 1599.3 -1.51086 0.448402 0
M  V30 17218 C 1600.21 -2.3177 -0.363323 0
M  V30 17219 C 1601.23 -1.41159 -1.01736 0
M  V30 17220 O 1602.41 -1.74226 -1.01031 0
M  V30 17221 C 1599.47 -3.15211 -1.4437 0
M  V30 17222 C 1598.53 -4.21615 -0.808643 0
M  V30 17223 C 1597.77 -5.01069 -1.83754 0
M  V30 17224 O 1597.99 -4.81296 -3.06121 0
M  V30 17225 O 1596.92 -5.84863 -1.42193 0
M  V30 17226 H 1600.75 -3.02257 0.295653 0
M  V30 17227 H 1598.33 -1.47907 0.210703 0
M  V30 17228 H 1600.22 -3.67053 -2.07002 0
M  V30 17229 H 1598.89 -2.47476 -2.08656 0
M  V30 17230 H 1597.8 -3.73823 -0.143975 0
M  V30 17231 H 1599.13 -4.91756 -0.209098 0
M  V30 17232 N 1600.78 -0.180154 -1.56567 0
M  V30 17233 C 1601.73 0.746666 -2.18389 0
M  V30 17234 C 1602.7 1.22058 -1.12655 0
M  V30 17235 O 1603.88 1.28716 -1.40843 0
M  V30 17236 C 1601.02 1.96688 -2.83563 0
M  V30 17237 C 1600.14 1.53572 -4.03782 0
M  V30 17238 C 1599.27 2.71028 -4.56856 0
M  V30 17239 C 1598.31 2.24445 -5.69465 0
M  V30 17240 N 1597.45 3.35026 -6.17011 0
M  V30 17241 H 1602.29 0.212707 -2.9724 0
M  V30 17242 H 1599.83 0.093256 -1.46804 0
M  V30 17243 H 1601.78 2.68269 -3.19511 0
M  V30 17244 H 1600.41 2.4744 -2.073 0
M  V30 17245 H 1599.47 0.716323 -3.73595 0
M  V30 17246 H 1600.78 1.15385 -4.85271 0
M  V30 17247 H 1599.93 3.50753 -4.95032 0
M  V30 17248 H 1598.67 3.1248 -3.74443 0
M  V30 17249 H 1597.68 1.43169 -5.30832 0
M  V30 17250 H 1598.9 1.84041 -6.53686 0
M  V30 17251 H 1596.85 3.76037 -5.37524 0
M  V30 17252 H 1596.76 3.0096 -6.93512 0
M  V30 17253 H 1598.03 4.15009 -6.59839 0
M  V30 17254 N 1602.26 1.57322 0.0935319 0
M  V30 17255 C 1603.49 1.90099 0.80907 0
M  V30 17256 C 1603.9 0.772198 1.72724 0
M  V30 17257 O 1603.24 -0.26468 1.81783 0
M  V30 17258 C 1603.3 3.18144 1.67405 0
M  V30 17259 C 1602.97 4.47488 0.927539 0
M  V30 17260 C 1603.96 5.19266 0.256635 0
M  V30 17261 C 1601.65 4.9415 0.901156 0
M  V30 17262 C 1603.64 6.35943 -0.430665 0
M  V30 17263 C 1601.33 6.10739 0.21007 0
M  V30 17264 C 1602.33 6.81485 -0.454661 0
M  V30 17265 O 1602.02 7.95852 -1.13466 0
M  V30 17266 H 1601.75 0.633287 0.236481 0
M  V30 17267 H 1604.3 2.05264 0.0747132 0
M  V30 17268 H 1602.53 2.99129 2.45068 0
M  V30 17269 H 1604.22 3.3674 2.2663 0
M  V30 17270 H 1604.99 4.84256 0.268468 0
M  V30 17271 H 1600.87 4.38972 1.408 0
M  V30 17272 H 1604.41 6.911 -0.950082 0
M  V30 17273 H 1600.31 6.45202 0.196089 0
M  V30 17274 H 1601.08 8.11844 -1.04172 0
M  V30 17275 N 1603.74 -0.364395 1.53329 0
M  V30 17276 C 1604.98 -1.10855 1.6982 0
M  V30 17277 C 1605.32 -1.88931 0.449291 0
M  V30 17278 O 1604.59 -1.8646 -0.553437 0
M  V30 17279 C 1604.88 -2.06681 2.94881 0
M  V30 17280 C 1604.73 -1.32206 4.29932 0
M  V30 17281 C 1606.05 -3.06788 3.15546 0
M  V30 17282 H 1603.17 -0.401626 0.617953 0
M  V30 17283 H 1605.81 -0.389244 1.8597 0
M  V30 17284 H 1603.96 -2.68019 2.81244 0
M  V30 17285 H 1605.63 -0.73642 4.55384 0
M  V30 17286 H 1603.87 -0.623916 4.2929 0
M  V30 17287 H 1604.54 -2.0235 5.13574 0
M  V30 17288 H 1607.02 -2.55554 3.28377 0
M  V30 17289 H 1605.9 -3.71059 4.04483 0
M  V30 17290 H 1606.16 -3.77023 2.3088 0
M  V30 17291 N 1605.22 -1.44709 -0.62426 0
M  V30 17292 C 1606.46 -1.48072 -1.38573 0
M  V30 17293 C 1606.8 -0.115532 -1.93856 0
M  V30 17294 O 1606.07 0.867787 -1.74068 0
M  V30 17295 C 1606.35 -2.54662 -2.54596 0
M  V30 17296 C 1606.21 -4.00564 -2.04618 0
M  V30 17297 C 1607.53 -2.57689 -3.56769 0
M  V30 17298 H 1604.64 -0.539119 -0.502513 0
M  V30 17299 H 1607.29 -1.76427 -0.705225 0
M  V30 17300 H 1605.44 -2.30614 -3.12649 0
M  V30 17301 H 1607.11 -4.35767 -1.51343 0
M  V30 17302 H 1605.35 -4.12014 -1.35746 0
M  V30 17303 H 1606.02 -4.70804 -2.8818 0
M  V30 17304 H 1608.5 -2.79194 -3.08529 0
M  V30 17305 H 1607.37 -3.34161 -4.35462 0
M  V30 17306 H 1607.64 -1.62146 -4.11292 0
M  V30 17307 N 1606.69 0.865285 -1.31722 0
M  V30 17308 C 1607.97 1.60146 -1.12306 0
M  V30 17309 C 1608.35 2.08653 0.320508 0
M  V30 17310 O 1607.7 1.86841 1.31539 0
M  V30 17311 C 1607.91 2.75583 -2.14138 0
M  V30 17312 C 1609.26 3.45429 -2.46909 0
M  V30 17313 O 1610.28 2.85795 -2.12602 0
M  V30 17314 O 1609.14 4.53017 -3.05676 0
M  V30 17315 H 1606.23 0.704786 -0.432673 0
M  V30 17316 H 1608.78 0.910339 -1.43216 0
M  V30 17317 H 1607.55 2.37187 -3.1122 0
M  V30 17318 H 1607.18 3.52378 -1.84161 0
M  V30 17319 N 1608.17 1.14759 1.0802 0
M  V30 17320 C 1609.08 0.851934 2.18585 0
M  V30 17321 C 1610.1 -0.16914 1.73176 0
M  V30 17322 O 1611.27 0.00330114 2.014 0
M  V30 17323 C 1608.34 0.337977 3.45049 0
M  V30 17324 C 1607.4 1.4221 4.05061 0
M  V30 17325 C 1606.63 0.932574 5.25489 0
M  V30 17326 O 1606.86 -0.224457 5.69958 0
M  V30 17327 O 1605.79 1.7133 5.77001 0
M  V30 17328 H 1609.62 1.77605 2.46354 0
M  V30 17329 H 1607.2 0.926159 1.17229 0
M  V30 17330 H 1609.08 0.0574734 4.21361 0
M  V30 17331 H 1607.76 -0.558363 3.18848 0
M  V30 17332 H 1606.67 1.75612 3.3032 0
M  V30 17333 H 1608 2.29311 4.3552 0
M  V30 17334 N 1609.65 -1.26251 0.943322 0
M  V30 17335 C 1610.88 -1.98278 0.608341 0
M  V30 17336 C 1611.3 -1.69756 -0.810208 0
M  V30 17337 O 1610.66 -0.946846 -1.54611 0
M  V30 17338 C 1610.71 -3.50205 0.859591 0
M  V30 17339 O 1609.81 -4.12345 -0.0672371 0
M  V30 17340 H 1609.15 -0.621973 0.232477 0
M  V30 17341 H 1611.68 -1.60662 1.26684 0
M  V30 17342 H 1611.69 -4.00449 0.781341 0
M  V30 17343 H 1610.37 -3.70294 1.89354 0
M  V30 17344 H 1608.94 -3.72848 0.0622543 0
M  V30 17345 N 1611.13 -0.710588 -1.40671 0
M  V30 17346 C 1612.41 -0.175319 -1.94813 0
M  V30 17347 C 1612.79 1.31792 -1.64906 0
M  V30 17348 O 1612.13 2.07167 -0.964058 0
M  V30 17349 C 1612.34 -0.482691 -3.45646 0
M  V30 17350 C 1613.69 -0.418619 -4.22531 0
M  V30 17351 O 1614.72 -0.418463 -3.53733 0
M  V30 17352 O 1613.58 -0.391787 -5.45094 0
M  V30 17353 H 1610.67 -0.0237744 -0.826658 0
M  V30 17354 H 1613.22 -0.787778 -1.50307 0
M  V30 17355 H 1611.99 -1.51569 -3.60753 0
M  V30 17356 H 1611.61 0.159984 -3.97278 0
M  V30 17357 N 1612.61 1.50847 -0.456408 0
M  V30 17358 C 1613.84 2.0635 0.10159 0
M  V30 17359 C 1614.25 1.32198 1.35353 0
M  V30 17360 O 1613.59 0.380433 1.79718 0
M  V30 17361 C 1613.65 3.56411 0.470283 0
M  V30 17362 C 1613.31 4.51949 -0.677546 0
M  V30 17363 C 1614.31 4.96091 -1.55531 0
M  V30 17364 C 1612 4.94819 -0.863701 0
M  V30 17365 C 1613.99 5.81793 -2.60377 0
M  V30 17366 C 1611.68 5.80306 -1.9154 0
M  V30 17367 C 1612.68 6.23693 -2.78381 0
M  V30 17368 O 1612.36 7.0748 -3.81742 0
M  V30 17369 H 1612.1 0.675994 0.00283373 0
M  V30 17370 H 1614.65 1.95178 -0.639893 0
M  V30 17371 H 1612.88 3.65433 1.26475 0
M  V30 17372 H 1614.57 3.94344 0.961649 0
M  V30 17373 H 1615.33 4.63651 -1.42311 0
M  V30 17374 H 1611.21 4.60578 -0.197285 0
M  V30 17375 H 1614.76 6.15578 -3.2819 0
M  V30 17376 H 1610.65 6.12159 -2.04773 0
M  V30 17377 H 1611.42 7.257 -3.78553 0
M  V30 17378 N 1614.09 0.188454 1.56469 0
M  V30 17379 C 1615.02 -0.774203 2.14666 0
M  V30 17380 C 1616 -1.21419 1.08149 0
M  V30 17381 O 1617.18 -1.30289 1.36224 0
M  V30 17382 C 1614.31 -2.04474 2.70015 0
M  V30 17383 C 1613.35 -1.74741 3.8906 0
M  V30 17384 S 1614.19 -0.901409 5.27859 0
M  V30 17385 C 1615.34 -2.18223 5.86626 0
M  V30 17386 H 1615.58 -0.279452 2.95984 0
M  V30 17387 H 1613.11 -0.0264561 1.54377 0
M  V30 17388 H 1615.07 -2.77442 3.0255 0
M  V30 17389 H 1613.73 -2.51061 1.88751 0
M  V30 17390 H 1612.92 -2.69055 4.26175 0
M  V30 17391 H 1612.52 -1.09858 3.57501 0
M  V30 17392 H 1614.81 -3.13538 6.00583 0
M  V30 17393 H 1615.76 -1.85551 6.83357 0
M  V30 17394 H 1616.17 -2.30766 5.15177 0
M  V30 17395 N 1615.56 -1.5737 -0.0851874 0
M  V30 17396 C 1616.79 -1.91183 -0.803983 0
M  V30 17397 C 1617.21 -0.78365 -1.70999 0
M  V30 17398 O 1616.57 0.264266 -1.79364 0
M  V30 17399 C 1616.62 -3.239 -1.58496 0
M  V30 17400 O 1615.72 -3.12189 -2.69466 0
M  V30 17401 H 1615.06 -0.626413 -0.220233 0
M  V30 17402 H 1617.59 -2.04519 -0.0574426 0
M  V30 17403 H 1617.6 -3.5745 -1.96707 0
M  V30 17404 H 1616.28 -4.05594 -0.920111 0
M  V30 17405 H 1614.86 -2.90173 -2.3421 0
M  V30 17406 N 1617.04 0.356258 -1.53521 0
M  V30 17407 C 1618.29 1.0979 -1.70154 0
M  V30 17408 C 1618.62 1.89028 -0.458124 0
M  V30 17409 O 1617.87 1.87516 0.560033 0
M  V30 17410 C 1618.17 2.07669 -2.90875 0
M  V30 17411 C 1617.84 1.4484 -4.27004 0
M  V30 17412 C 1616.5 1.27434 -4.64019 0
M  V30 17413 C 1618.85 0.994684 -5.1162 0
M  V30 17414 C 1616.18 0.632539 -5.8328 0
M  V30 17415 C 1618.53 0.366847 -6.31535 0
M  V30 17416 C 1617.19 0.180356 -6.67256 0
M  V30 17417 H 1616.46 0.401751 -0.622637 0
M  V30 17418 H 1619.11 0.378618 -1.8772 0
M  V30 17419 H 1617.42 2.85934 -2.6786 0
M  V30 17420 H 1619.11 2.65023 -3.00939 0
M  V30 17421 H 1615.7 1.59384 -3.97863 0
M  V30 17422 H 1619.89 1.11706 -4.83565 0
M  V30 17423 H 1615.14 0.476548 -6.0954 0
M  V30 17424 H 1619.32 0.00712378 -6.964 0
M  V30 17425 H 1616.94 -0.319016 -7.5953 0
M  V30 17426 N 1618.52 1.45038 0.616577 0
M  V30 17427 C 1619.77 1.47861 1.37186 0
M  V30 17428 C 1620.08 0.120862 1.95226 0
M  V30 17429 O 1621.29 0.0266872 2.71487 0
M  V30 17430 C 1619.74 2.6038 2.48455 0
M  V30 17431 C 1619.35 4.02428 1.96866 0
M  V30 17432 C 1621.1 2.7244 3.25541 0
M  V30 17433 C 1619 5.06345 3.05563 0
M  V30 17434 H 1617.93 0.550166 0.51559 0
M  V30 17435 H 1620.58 1.71151 0.661796 0
M  V30 17436 H 1618.97 2.30357 3.22105 0
M  V30 17437 H 1620.14 4.42087 1.29985 0
M  V30 17438 H 1618.45 3.94739 1.32552 0
M  V30 17439 H 1621.05 3.47248 4.06599 0
M  V30 17440 H 1621.39 1.7876 3.75966 0
M  V30 17441 H 1621.93 3.01944 2.58988 0
M  V30 17442 H 1618.67 6.01703 2.60065 0
M  V30 17443 H 1618.19 4.71264 3.7104 0
M  V30 17444 H 1619.87 5.30695 3.70097 0
M  V30 17445 N 1620 -0.858287 1.32179 0
M  V30 17446 C 1620.95 -1.98796 1.2076 0
M  V30 17447 C 1621.94 -1.69021 0.11322 0
M  V30 17448 O 1623.15 -1.77873 0.275903 0
M  V30 17449 H 1619.52 -0.652269 0.374232 0
M  V30 17450 H 1621.49 -2.05555 2.1631 0
M  V30 17451 C 1620.24 -3.34646 0.943787 0
M  V30 17452 H 1619.56 -3.58084 1.77808 0
M  V30 17453 H 1621 -4.14248 0.904121 0
M  V30 17454 C 1619.46 -3.35041 -0.353477 0
M  V30 17455 O 1619.99 -3.77742 -1.36652 0
M  V30 17456 N 1618.2 -2.88181 -0.374164 0
M  V30 17457 H 1617.75 -2.53626 0.45075 0
M  V30 17458 H 1617.7 -2.88828 -1.24201 0
M  V30 17459 N 1621.48 -1.1533 -1.07409 0
M  V30 17460 C 1622.42 -0.845328 -2.16696 0
M  V30 17461 C 1623.42 0.181009 -1.6843 0
M  V30 17462 O 1624.62 0.0361013 -1.79964 0
M  V30 17463 H 1621 -0.255698 -0.707193 0
M  V30 17464 H 1622.97 -1.7747 -2.39889 0
M  V30 17465 C 1621.72 -0.350381 -3.4593 0
M  V30 17466 H 1621.04 -1.13152 -3.83454 0
M  V30 17467 H 1622.48 -0.173547 -4.23645 0
M  V30 17468 C 1620.94 0.927991 -3.23867 0
M  V30 17469 O 1621.47 1.99965 -3.48392 0
M  V30 17470 N 1619.68 0.867266 -2.77357 0
M  V30 17471 H 1619.22 -0.00500352 -2.576 0
M  V30 17472 H 1619.18 1.72314 -2.62974 0
M  V30 17473 N 1622.95 1.25748 -0.950004 0
M  V30 17474 C 1624.36 1.75253 -0.643694 0
M  V30 17475 C 1624.72 1.77261 0.841017 0
M  V30 17476 O 1623.84 1.39043 1.65819 0
M  V30 17477 C 1624.44 3.1826 -1.16173 0
M  V30 17478 C 1622.99 3.65342 -0.905672 0
M  V30 17479 C 1622.14 2.4454 -1.30749 0
M  V30 17480 H 1625.09 1.117 -1.12733 0
M  V30 17481 H 1625.11 3.76935 -0.519651 0
M  V30 17482 H 1624.63 3.16766 -2.24234 0
M  V30 17483 H 1622.73 3.72256 0.160174 0
M  V30 17484 H 1622.84 4.53713 -1.53888 0
M  V30 17485 H 1621.2 2.44138 -0.725876 0
M  V30 17486 H 1621.99 2.45741 -2.39721 0
M  V30 17487 N 1624.43 0.718038 1.40292 0
M  V30 17488 C 1625.66 0.266918 2.05675 0
M  V30 17489 C 1626.08 -1.08364 1.53749 0
M  V30 17490 O 1625.44 -1.6831 0.673912 0
M  V30 17491 C 1625.49 0.259606 3.59664 0
M  V30 17492 O 1624.59 -0.758372 4.05367 0
M  V30 17493 H 1623.93 0.124786 0.652169 0
M  V30 17494 H 1626.46 0.979207 1.79646 0
M  V30 17495 H 1626.47 0.098135 4.07882 0
M  V30 17496 H 1625.15 1.24517 3.96823 0
M  V30 17497 H 1623.72 -0.564425 3.68604 0
M  V30 17498 N 1625.91 -1.50602 0.464402 0
M  V30 17499 C 1626.84 -2.31252 -0.323263 0
M  V30 17500 C 1627.82 -1.37856 -0.996476 0
M  V30 17501 O 1629.01 -1.66777 -0.994933 0
M  V30 17502 C 1626.14 -3.17414 -1.40945 0
M  V30 17503 C 1625.09 -4.19307 -0.858226 0
M  V30 17504 C 1624.42 -4.94164 -2.0422 0
M  V30 17505 C 1625.72 -5.22148 0.125921 0
M  V30 17506 H 1627.41 -2.97349 0.34983 0
M  V30 17507 H 1624.96 -1.42997 0.169685 0
M  V30 17508 H 1626.91 -3.72627 -1.96791 0
M  V30 17509 H 1625.63 -2.49189 -2.11122 0
M  V30 17510 H 1624.29 -3.65185 -0.321785 0
M  V30 17511 H 1623.94 -4.22417 -2.7308 0
M  V30 17512 H 1623.64 -5.63083 -1.67963 0
M  V30 17513 H 1625.16 -5.5221 -2.60569 0
M  V30 17514 H 1626.58 -5.72272 -0.343136 0
M  V30 17515 H 1624.98 -5.98749 0.402433 0
M  V30 17516 H 1626.05 -4.73307 1.05399 0
M  V30 17517 N 1627.39 -0.19675 -1.56367 0
M  V30 17518 C 1628.62 0.447139 -2.02011 0
M  V30 17519 C 1629.03 1.55077 -1.07687 0
M  V30 17520 O 1628.39 1.82316 -0.0820316 0
M  V30 17521 C 1628.44 1.00192 -3.47338 0
M  V30 17522 O 1628.16 -0.0576859 -4.38062 0
M  V30 17523 C 1629.66 1.72152 -4.08508 0
M  V30 17524 H 1626.88 0.112088 -0.661572 0
M  V30 17525 H 1629.43 -0.30594 -2.02199 0
M  V30 17526 H 1627.58 1.70537 -3.47844 0
M  V30 17527 H 1627.99 0.355508 -5.23294 0
M  V30 17528 H 1629.47 2.06199 -5.12041 0
M  V30 17529 H 1629.95 2.62581 -3.52062 0
M  V30 17530 H 1630.55 1.06388 -4.11779 0
M  V30 17531 N 1628.87 1.57413 0.0768405 0
M  V30 17532 C 1630.11 1.87279 0.778099 0
M  V30 17533 C 1630.45 0.788359 1.77478 0
M  V30 17534 O 1629.72 -0.201876 1.9345 0
M  V30 17535 C 1630 3.27801 1.49059 0
M  V30 17536 C 1629.86 4.46892 0.510661 0
M  V30 17537 C 1631.18 3.66485 2.43674 0
M  V30 17538 H 1628.29 0.681159 0.281409 0
M  V30 17539 H 1630.94 1.89955 0.0413711 0
M  V30 17540 H 1629.09 3.2565 2.11859 0
M  V30 17541 H 1630.76 4.61165 -0.111734 0
M  V30 17542 H 1629 4.33449 -0.174445 0
M  V30 17543 H 1629.67 5.41985 1.04671 0
M  V30 17544 H 1632.15 3.69696 1.90955 0
M  V30 17545 H 1631.02 4.65706 2.90533 0
M  V30 17546 H 1631.29 2.96145 3.28254 0
M  V30 17547 N 1630.34 -0.348112 1.53707 0
M  V30 17548 C 1631.57 -1.10903 1.74666 0
M  V30 17549 C 1631.99 -1.82499 0.483683 0
M  V30 17550 O 1631.34 -1.74191 -0.544419 0
M  V30 17551 C 1631.4 -2.12602 2.92374 0
M  V30 17552 O 1631.12 -1.43918 4.13787 0
M  V30 17553 C 1632.62 -3.01105 3.25347 0
M  V30 17554 H 1629.84 -0.330911 0.583728 0
M  V30 17555 H 1632.38 -0.401707 2.00516 0
M  V30 17556 H 1630.54 -2.78906 2.68869 0
M  V30 17557 H 1630.95 -2.11818 4.79826 0
M  V30 17558 H 1632.42 -3.68408 4.11071 0
M  V30 17559 H 1632.9 -3.66874 2.41455 0
M  V30 17560 H 1633.51 -2.40395 3.50842 0
M  V30 17561 N 1631.82 -1.45363 -0.608876 0
M  V30 17562 C 1633.07 -1.49534 -1.36995 0
M  V30 17563 C 1633.4 -0.136087 -1.93723 0
M  V30 17564 O 1632.68 0.849276 -1.74979 0
M  V30 17565 C 1632.96 -2.57348 -2.51881 0
M  V30 17566 C 1632.81 -4.02712 -2.00358 0
M  V30 17567 C 1634.13 -2.61459 -3.54016 0
M  V30 17568 H 1631.25 -0.544419 -0.496767 0
M  V30 17569 H 1633.89 -1.77165 -0.686473 0
M  V30 17570 H 1632.04 -2.33917 -3.10185 0
M  V30 17571 H 1633.71 -4.37348 -1.46713 0
M  V30 17572 H 1631.96 -4.1343 -1.31369 0
M  V30 17573 H 1632.63 -4.73834 -2.8317 0
M  V30 17574 H 1635.1 -2.8245 -3.0555 0
M  V30 17575 H 1633.98 -3.38761 -4.31894 0
M  V30 17576 H 1634.24 -1.66499 -4.09549 0
M  V30 17577 N 1633.3 0.851265 -1.32632 0
M  V30 17578 C 1634.71 1.4217 -1.21015 0
M  V30 17579 C 1635.06 1.95409 0.175972 0
M  V30 17580 O 1634.19 1.87816 1.07489 0
M  V30 17581 C 1634.78 2.58431 -2.19086 0
M  V30 17582 C 1633.34 3.11464 -2.11346 0
M  V30 17583 C 1632.49 1.84221 -2.07263 0
M  V30 17584 H 1635.44 0.65812 -1.44411 0
M  V30 17585 H 1635.46 3.35694 -1.79137 0
M  V30 17586 H 1634.97 2.19652 -3.1996 0
M  V30 17587 H 1633.07 3.54818 -1.13732 0
M  V30 17588 H 1633.19 3.72478 -3.01325 0
M  V30 17589 H 1631.55 2.0396 -1.52553 0
M  V30 17590 H 1632.33 1.47654 -3.09924 0
M  V30 17591 N 1634.78 1.15898 1.06796 0
M  V30 17592 C 1636.03 0.931848 1.78884 0
M  V30 17593 C 1636.34 -0.54197 1.87942 0
M  V30 17594 O 1637.55 -0.886848 2.56607 0
M  V30 17595 C 1636 1.61788 3.21485 0
M  V30 17596 C 1635.61 3.12911 3.2061 0
M  V30 17597 C 1637.35 1.47252 3.98142 0
M  V30 17598 C 1635.26 3.74275 4.579 0
M  V30 17599 H 1634.19 0.344998 0.670442 0
M  V30 17600 H 1636.84 1.38974 1.19827 0
M  V30 17601 H 1635.22 1.08769 3.80769 0
M  V30 17602 H 1636.4 3.72732 2.70938 0
M  V30 17603 H 1634.71 3.27273 2.57451 0
M  V30 17604 H 1637.31 1.90484 4.9962 0
M  V30 17605 H 1637.65 0.420766 4.14168 0
M  V30 17606 H 1638.19 1.97398 3.45367 0
M  V30 17607 H 1634.93 4.79376 4.47078 0
M  V30 17608 H 1634.45 3.19238 5.07786 0
M  V30 17609 H 1636.12 3.75532 5.26863 0
M  V30 17610 N 1636.26 -1.25243 0.956659 0
M  V30 17611 C 1637.22 -2.24054 0.482949 0
M  V30 17612 C 1638.22 -1.55367 -0.41447 0
M  V30 17613 O 1639.41 -1.72912 -0.211475 0
M  V30 17614 C 1636.54 -3.3956 -0.301975 0
M  V30 17615 H 1637.73 -2.67476 1.35634 0
M  V30 17616 H 1635.29 -1.37665 0.740138 0
M  V30 17617 H 1636.02 -3.01561 -1.19294 0
M  V30 17618 H 1635.81 -3.90607 0.341876 0
M  V30 17619 H 1637.3 -4.1293 -0.622807 0
M  V30 17620 N 1637.73 -0.725468 -1.3991 0
M  V30 17621 C 1638.98 -0.26965 -2.00999 0
M  V30 17622 C 1639.31 1.13727 -1.57416 0
M  V30 17623 O 1638.59 1.77345 -0.798693 0
M  V30 17624 C 1638.87 -0.360784 -3.58288 0
M  V30 17625 C 1638.72 -1.80679 -4.11916 0
M  V30 17626 C 1640.04 0.262328 -4.39317 0
M  V30 17627 H 1637.16 -0.0994547 -0.730259 0
M  V30 17628 H 1639.8 -0.91983 -1.6625 0
M  V30 17629 H 1637.95 0.192779 -3.88021 0
M  V30 17630 H 1639.63 -2.4165 -3.92942 0
M  V30 17631 H 1637.87 -2.33127 -3.65834 0
M  V30 17632 H 1638.54 -1.82189 -5.21068 0
M  V30 17633 H 1641.02 -0.209452 -4.15573 0
M  V30 17634 H 1639.89 0.168166 -5.48642 0
M  V30 17635 H 1640.15 1.34716 -4.21075 0
M  V30 17636 N 1639.21 1.50354 -0.472382 0
M  V30 17637 C 1640.46 2.01934 0.0820006 0
M  V30 17638 C 1640.78 1.35636 1.401 0
M  V30 17639 O 1640.05 0.502127 1.89355 0
M  V30 17640 H 1638.63 0.746258 0.0332943 0
M  V30 17641 H 1641.29 1.84671 -0.623099 0
M  V30 17642 H 1640.39 3.11232 0.232565 0
M  V30 17643 N 1640.69 0.205039 1.56261 0
M  V30 17644 C 1641.6 -0.723548 2.23164 0
M  V30 17645 C 1642.62 -1.22683 1.23389 0
M  V30 17646 O 1643.79 -1.27191 1.56155 0
M  V30 17647 C 1640.86 -1.92178 2.88563 0
M  V30 17648 C 1639.92 -1.46209 4.03635 0
M  V30 17649 C 1639.15 -2.60321 4.65906 0
M  V30 17650 O 1639.38 -3.78051 4.27122 0
M  V30 17651 O 1638.31 -2.32465 5.55197 0
M  V30 17652 H 1642.14 -0.183715 3.03144 0
M  V30 17653 H 1639.72 -0.0246933 1.4938 0
M  V30 17654 H 1641.6 -2.62188 3.29902 0
M  V30 17655 H 1640.28 -2.45003 2.11555 0
M  V30 17656 H 1639.18 -0.730492 3.66899 0
M  V30 17657 H 1640.52 -0.980402 4.82337 0
M  V30 17658 N 1642.17 -1.57451 -0.0684915 0
M  V30 17659 C 1643.39 -1.92025 -0.78366 0
M  V30 17660 C 1643.82 -0.801743 -1.70158 0
M  V30 17661 O 1643.18 0.245227 -1.79634 0
M  V30 17662 C 1643.23 -3.25563 -1.55051 0
M  V30 17663 O 1642.33 -3.15029 -2.6614 0
M  V30 17664 H 1641.67 -0.628714 -0.213576 0
M  V30 17665 H 1644.2 -2.04569 -0.0357474 0
M  V30 17666 H 1644.21 -3.59516 -1.92905 0
M  V30 17667 H 1642.89 -4.06547 -0.87704 0
M  V30 17668 H 1641.46 -2.9264 -2.31119 0
M  V30 17669 N 1643.65 0.339955 -1.5389 0
M  V30 17670 C 1644.92 1.09703 -1.6194 0
M  V30 17671 C 1645.3 2.06401 -0.442907 0
M  V30 17672 O 1644.65 2.21418 0.564477 0
M  V30 17673 C 1644.86 1.8135 -2.98183 0
M  V30 17674 C 1646.21 2.34965 -3.53662 0
M  V30 17675 O 1647.23 1.91442 -3.00381 0
M  V30 17676 O 1646.09 3.14601 -4.46865 0
M  V30 17677 H 1643.19 0.504703 -0.655136 0
M  V30 17678 H 1645.73 0.34116 -1.66235 0
M  V30 17679 H 1644.51 1.10924 -3.75249 0
M  V30 17680 H 1644.13 2.63787 -2.97494 0
M  V30 17681 N 1645.13 1.45684 0.601159 0
M  V30 17682 C 1646.37 1.50036 1.35998 0
M  V30 17683 C 1646.7 0.144645 1.93961 0
M  V30 17684 O 1645.96 -0.857502 1.75913 0
M  V30 17685 C 1646.25 2.53235 2.52204 0
M  V30 17686 C 1645.92 3.97767 2.12348 0
M  V30 17687 C 1644.58 4.37121 2.01193 0
M  V30 17688 C 1646.93 4.88636 1.8134 0
M  V30 17689 C 1644.26 5.65231 1.5726 0
M  V30 17690 C 1646.61 6.17164 1.38892 0
M  V30 17691 C 1645.28 6.55442 1.26299 0
M  V30 17692 H 1644.55 0.54902 0.497652 0
M  V30 17693 H 1647.2 1.79065 0.678833 0
M  V30 17694 H 1645.5 2.17799 3.25685 0
M  V30 17695 H 1647.2 2.53837 3.10431 0
M  V30 17696 H 1643.79 3.6665 2.21959 0
M  V30 17697 H 1647.97 4.58964 1.88853 0
M  V30 17698 H 1643.23 5.93678 1.46139 0
M  V30 17699 H 1647.4 6.87015 1.13946 0
M  V30 17700 H 1645.03 7.54609 0.920316 0
M  V30 17701 N 1646.6 -0.84422 1.33082 0
M  V30 17702 C 1647.51 -1.9858 1.24913 0
M  V30 17703 C 1648.53 -1.73256 0.160708 0
M  V30 17704 O 1649.71 -1.97719 0.383313 0
M  V30 17705 C 1646.77 -3.32471 0.983063 0
M  V30 17706 C 1645.83 -3.70946 2.16096 0
M  V30 17707 C 1645.06 -4.98448 1.90749 0
M  V30 17708 O 1645.29 -5.63953 0.855173 0
M  V30 17709 O 1644.22 -5.34301 2.7714 0
M  V30 17710 H 1648.05 -2.0841 2.20905 0
M  V30 17711 H 1645.63 -0.976447 1.13075 0
M  V30 17712 H 1647.51 -4.12705 0.851612 0
M  V30 17713 H 1646.19 -3.23656 0.053384 0
M  V30 17714 H 1645.1 -2.91244 2.34793 0
M  V30 17715 H 1646.43 -3.8442 3.07379 0
M  V30 17716 N 1648.08 -1.16463 -1.0618 0
M  V30 17717 C 1649.03 -0.868264 -2.15787 0
M  V30 17718 C 1650.02 0.163135 -1.68613 0
M  V30 17719 O 1651.23 0.0170117 -1.79992 0
M  V30 17720 H 1647.6 -0.263184 -0.704442 0
M  V30 17721 H 1649.58 -1.80005 -2.37993 0
M  V30 17722 C 1648.32 -0.387052 -3.45539 0
M  V30 17723 H 1647.65 -1.17212 -3.82232 0
M  V30 17724 H 1649.09 -0.218471 -4.23437 0
M  V30 17725 C 1647.55 0.893588 -3.24833 0
M  V30 17726 O 1648.08 1.96259 -3.50493 0
M  V30 17727 N 1646.28 0.8378 -2.78261 0
M  V30 17728 H 1645.83 -0.0323251 -2.5758 0
M  V30 17729 H 1645.79 1.69515 -2.64787 0
M  V30 17730 N 1649.56 1.24734 -0.963288 0
M  V30 17731 C 1650.49 2.27892 -0.508667 0
M  V30 17732 C 1651.47 1.64055 0.449438 0
M  V30 17733 O 1652.66 1.91083 0.346519 0
M  V30 17734 C 1649.79 3.46688 0.206157 0
M  V30 17735 C 1648.74 4.22762 -0.667534 0
M  V30 17736 C 1648.07 5.34402 0.178529 0
M  V30 17737 C 1649.37 4.84535 -1.94995 0
M  V30 17738 H 1651.06 2.66171 -1.37088 0
M  V30 17739 H 1648.61 1.27952 -0.660622 0
M  V30 17740 H 1650.56 4.17985 0.535391 0
M  V30 17741 H 1649.28 3.07422 1.10269 0
M  V30 17742 H 1647.94 3.53259 -0.979976 0
M  V30 17743 H 1647.59 4.91377 1.07508 0
M  V30 17744 H 1647.29 5.86218 -0.402808 0
M  V30 17745 H 1648.81 6.08529 0.502533 0
M  V30 17746 H 1650.23 5.4793 -1.68658 0
M  V30 17747 H 1648.62 5.46564 -2.47765 0
M  V30 17748 H 1649.69 4.06236 -2.64765 0
M  V30 17749 N 1651.04 0.732878 1.39523 0
M  V30 17750 C 1651.99 0.0806066 2.3246 0
M  V30 17751 C 1652.98 -0.728184 1.5295 0
M  V30 17752 O 1654.19 -0.629608 1.6863 0
M  V30 17753 H 1650.56 0.00726537 0.751965 0
M  V30 17754 H 1652.53 0.880867 2.85102 0
M  V30 17755 C 1651.28 -0.81412 3.38035 0
M  V30 17756 H 1650.6 -0.201168 3.99294 0
M  V30 17757 H 1652.04 -1.23817 4.05519 0
M  V30 17758 C 1650.5 -1.94745 2.74911 0
M  V30 17759 O 1651.03 -3.03989 2.6259 0
M  V30 17760 N 1649.24 -1.73624 2.3303 0
M  V30 17761 H 1648.79 -0.847733 2.43251 0
M  V30 17762 H 1648.74 -2.49629 1.91135 0
M  V30 17763 N 1652.52 -1.50101 0.480349 0
M  V30 17764 C 1653.74 -2.06785 -0.068848 0
M  V30 17765 C 1654.16 -1.34316 -1.32683 0
M  V30 17766 O 1653.52 -0.415196 -1.77714 0
M  V30 17767 C 1653.57 -3.59826 -0.347522 0
M  V30 17768 O 1653.29 -4.29565 0.860569 0
M  V30 17769 C 1654.79 -4.33161 -0.94266 0
M  V30 17770 H 1652.01 -0.670906 0.0112172 0
M  V30 17771 H 1654.55 -1.93151 0.671788 0
M  V30 17772 H 1652.71 -3.73232 -1.0381 0
M  V30 17773 H 1653.12 -5.20931 0.610796 0
M  V30 17774 H 1654.6 -5.41184 -1.08736 0
M  V30 17775 H 1655.07 -3.94268 -1.93518 0
M  V30 17776 H 1655.68 -4.24309 -0.290178 0
M  V30 17777 N 1653.99 -0.213323 -1.5615 0
M  V30 17778 C 1654.9 0.711703 -2.23544 0
M  V30 17779 C 1655.92 1.22027 -1.24038 0
M  V30 17780 O 1657.1 1.26361 -1.56828 0
M  V30 17781 C 1654.16 1.90645 -2.89578 0
M  V30 17782 C 1653.22 1.44066 -4.04405 0
M  V30 17783 C 1652.45 2.57846 -4.6728 0
M  V30 17784 O 1652.68 3.75781 -4.29121 0
M  V30 17785 O 1651.61 2.29518 -5.56422 0
M  V30 17786 H 1655.44 0.167635 -3.03237 0
M  V30 17787 H 1653.02 0.016771 -1.49391 0
M  V30 17788 H 1654.9 2.60435 -3.31288 0
M  V30 17789 H 1653.58 2.43877 -2.12851 0
M  V30 17790 H 1652.49 0.711024 -3.67281 0
M  V30 17791 H 1653.82 0.954809 -4.8285 0
M  V30 17792 N 1655.47 1.57485 0.0601405 0
M  V30 17793 C 1656.38 2.07853 1.08785 0
M  V30 17794 C 1657.4 1.01047 1.41653 0
M  V30 17795 O 1658.57 1.32592 1.51596 0
M  V30 17796 C 1655.64 2.52214 2.37885 0
M  V30 17797 C 1654.7 3.73369 2.11882 0
M  V30 17798 C 1653.93 4.15604 3.34827 0
M  V30 17799 O 1654.16 3.5761 4.44377 0
M  V30 17800 O 1653.09 5.08303 3.22353 0
M  V30 17801 H 1656.92 2.9576 0.689912 0
M  V30 17802 H 1654.5 1.46846 0.275065 0
M  V30 17803 H 1656.38 2.81216 3.1384 0
M  V30 17804 H 1655.06 1.67432 2.77035 0
M  V30 17805 H 1653.97 3.49433 1.33594 0
M  V30 17806 H 1655.3 4.59039 1.77606 0
M  V30 17807 N 1656.95 -0.331789 1.54068 0
M  V30 17808 C 1658.2 -1.07069 1.71879 0
M  V30 17809 C 1658.53 -1.88275 0.488139 0
M  V30 17810 O 1657.78 -1.88383 -0.53013 0
M  V30 17811 C 1658.08 -2.03015 2.94142 0
M  V30 17812 C 1657.75 -1.38029 4.29254 0
M  V30 17813 C 1656.41 -1.20036 4.65988 0
M  V30 17814 C 1658.76 -0.913164 5.13138 0
M  V30 17815 C 1656.09 -0.539664 5.84213 0
M  V30 17816 C 1658.44 -0.266329 6.32039 0
M  V30 17817 C 1657.1 -0.0741787 6.67459 0
M  V30 17818 H 1656.37 -0.391795 0.62895 0
M  V30 17819 H 1659.02 -0.348705 1.88298 0
M  V30 17820 H 1657.33 -2.81636 2.72375 0
M  V30 17821 H 1659.02 -2.60201 3.05117 0
M  V30 17822 H 1655.61 -1.53034 4.00348 0
M  V30 17823 H 1659.8 -1.03999 4.85281 0
M  V30 17824 H 1655.05 -0.379516 6.10221 0
M  V30 17825 H 1659.23 0.103668 6.96323 0
M  V30 17826 H 1656.85 0.43981 7.58927 0
M  V30 17827 N 1658.43 -1.46001 -0.593424 0
M  V30 17828 C 1659.65 -1.54541 -1.38318 0
M  V30 17829 C 1660.08 -0.183555 -1.87202 0
M  V30 17830 O 1659.44 0.834407 -1.60958 0
M  V30 17831 C 1659.48 -2.54559 -2.55405 0
M  V30 17832 O 1658.59 -2.07321 -3.56499 0
M  V30 17833 H 1657.93 -0.520434 -0.412364 0
M  V30 17834 H 1660.46 -1.9148 -0.720862 0
M  V30 17835 H 1660.47 -2.73823 -3.02465 0
M  V30 17836 H 1659.14 -3.53461 -2.19176 0
M  V30 17837 H 1657.72 -1.97997 -3.15993 0
M  V30 17838 N 1659.91 0.83715 -1.33527 0
M  V30 17839 C 1661.13 1.62976 -1.28271 0
M  V30 17840 C 1661.56 1.87554 0.143201 0
M  V30 17841 O 1660.91 1.44088 1.10038 0
M  V30 17842 C 1660.96 2.95607 -2.06516 0
M  V30 17843 O 1660.07 3.87 -1.42494 0
M  V30 17844 H 1659.41 0.496212 -0.441214 0
M  V30 17845 H 1661.94 1.04137 -1.76115 0
M  V30 17846 H 1661.95 3.4529 -2.17344 0
M  V30 17847 H 1660.62 2.77041 -3.10195 0
M  V30 17848 H 1659.2 3.45492 -1.40321 0
M  V30 17849 N 1661.38 1.17024 1.05561 0
M  V30 17850 C 1662.29 0.898107 2.16728 0
M  V30 17851 C 1663.31 -0.132369 1.73496 0
M  V30 17852 O 1664.49 0.0460203 2.01347 0
M  V30 17853 C 1661.55 0.411091 3.44254 0
M  V30 17854 C 1660.61 1.5077 4.01954 0
M  V30 17855 C 1659.85 1.04383 5.23393 0
M  V30 17856 O 1660.07 -0.10351 5.70306 0
M  V30 17857 O 1659 1.8353 5.73237 0
M  V30 17858 H 1662.83 1.82791 2.42531 0
M  V30 17859 H 1660.41 0.950816 1.15238 0
M  V30 17860 H 1662.3 0.146837 4.21144 0
M  V30 17861 H 1660.97 -0.490605 3.19961 0
M  V30 17862 H 1659.88 1.82579 3.26521 0
M  V30 17863 H 1661.21 2.38497 4.30558 0
M  V30 17864 N 1662.86 -1.24221 0.969889 0
M  V30 17865 C 1664.09 -1.96943 0.650262 0
M  V30 17866 C 1664.51 -1.71437 -0.774018 0
M  V30 17867 O 1663.87 -0.979428 -1.52568 0
M  V30 17868 C 1663.92 -3.48303 0.933682 0
M  V30 17869 O 1663.02 -4.12395 0.0202425 0
M  V30 17870 H 1662.36 -0.616902 0.245618 0
M  V30 17871 H 1664.89 -1.57939 1.30063 0
M  V30 17872 H 1664.9 -3.98701 0.866106 0
M  V30 17873 H 1663.58 -3.66194 1.97166 0
M  V30 17874 H 1662.16 -3.72632 0.141327 0
M  V30 17875 N 1664.34 -0.740267 -1.39132 0
M  V30 17876 C 1665.62 -0.216602 -1.94397 0
M  V30 17877 C 1666 1.28264 -1.67665 0
M  V30 17878 O 1665.35 2.05075 -1.00778 0
M  V30 17879 C 1665.56 -0.555899 -3.44544 0
M  V30 17880 C 1666.9 -0.50815 -4.21548 0
M  V30 17881 O 1667.93 -0.493401 -3.52766 0
M  V30 17882 O 1666.79 -0.507321 -5.4414 0
M  V30 17883 H 1663.88 -0.0413037 -0.825968 0
M  V30 17884 H 1666.43 -0.819483 -1.48602 0
M  V30 17885 H 1665.2 -1.59187 -3.57457 0
M  V30 17886 H 1664.82 0.0756793 -3.97528 0
M  V30 17887 N 1665.82 1.49844 -0.488302 0
M  V30 17888 C 1666.75 2.25604 0.343226 0
M  V30 17889 C 1667.73 1.29642 0.981415 0
M  V30 17890 O 1668.91 1.58904 1.014 0
M  V30 17891 C 1666.04 3.04541 1.48231 0
M  V30 17892 C 1665.09 4.15561 0.959774 0
M  V30 17893 S 1665.92 5.35319 -0.139328 0
M  V30 17894 C 1667.08 6.17808 1.00322 0
M  V30 17895 H 1667.31 2.95784 -0.299825 0
M  V30 17896 H 1664.84 1.5196 -0.273415 0
M  V30 17897 H 1666.8 3.50608 2.13505 0
M  V30 17898 H 1665.46 2.33854 2.09693 0
M  V30 17899 H 1664.65 4.7026 1.81304 0
M  V30 17900 H 1664.26 3.72019 0.384461 0
M  V30 17901 H 1666.55 6.49984 1.91121 0
M  V30 17902 H 1667.49 7.06367 0.495116 0
M  V30 17903 H 1667.9 5.50148 1.26482 0
M  V30 17904 N 1667.3 0.221601 1.56034 0
M  V30 17905 C 1668.21 -0.699837 2.23918 0
M  V30 17906 C 1669.22 -1.21367 1.24683 0
M  V30 17907 O 1670.4 -1.25527 1.57495 0
M  V30 17908 C 1667.46 -1.89107 2.90585 0
M  V30 17909 C 1666.52 -1.4192 4.05163 0
M  V30 17910 C 1665.76 -2.55365 4.68641 0
M  V30 17911 O 1665.98 -3.735 4.31108 0
M  V30 17912 O 1664.91 -2.26564 5.57631 0
M  V30 17913 H 1668.74 -0.151552 3.03322 0
M  V30 17914 H 1666.33 -0.0088482 1.49397 0
M  V30 17915 H 1668.21 -2.58674 3.32664 0
M  V30 17916 H 1666.88 -2.42745 2.14141 0
M  V30 17917 H 1665.79 -0.691536 3.67653 0
M  V30 17918 H 1667.12 -0.929189 4.8335 0
M  V30 17919 N 1668.77 -1.57515 -0.0517878 0
M  V30 17920 C 1669.68 -2.08427 -1.07681 0
M  V30 17921 C 1670.7 -1.01797 -1.41115 0
M  V30 17922 O 1671.88 -1.33394 -1.50891 0
M  V30 17923 C 1668.94 -2.53472 -2.36544 0
M  V30 17924 C 1668 -3.74488 -2.09899 0
M  V30 17925 C 1667.24 -4.17374 -3.32618 0
M  V30 17926 O 1667.46 -3.59962 -4.42475 0
M  V30 17927 O 1666.39 -5.10006 -3.19653 0
M  V30 17928 H 1670.22 -2.96122 -0.674217 0
M  V30 17929 H 1667.8 -1.4699 -0.267274 0
M  V30 17930 H 1669.69 -2.82876 -3.12345 0
M  V30 17931 H 1668.36 -1.68899 -2.76143 0
M  V30 17932 H 1667.27 -3.50137 -1.31739 0
M  V30 17933 H 1668.6 -4.59975 -1.75169 0
M  V30 17934 N 1670.25 0.323614 -1.54242 0
M  V30 17935 C 1671.48 1.08548 -1.76726 0
M  V30 17936 C 1671.9 1.8093 -0.514375 0
M  V30 17937 O 1671.26 1.73255 0.534069 0
M  V30 17938 C 1671.31 2.05928 -2.96017 0
M  V30 17939 O 1670.41 3.13825 -2.67559 0
M  V30 17940 H 1669.75 0.31297 -0.585616 0
M  V30 17941 H 1672.28 0.367925 -2.01265 0
M  V30 17942 H 1672.29 2.48799 -3.23362 0
M  V30 17943 H 1670.97 1.52646 -3.86875 0
M  V30 17944 H 1669.55 2.7563 -2.51163 0
M  V30 17945 N 1671.73 1.46313 0.585673 0
M  V30 17946 C 1672.68 1.56653 1.69495 0
M  V30 17947 C 1673.65 0.411007 1.60935 0
M  V30 17948 O 1674.83 0.627369 1.80191 0
M  V30 17949 C 1671.97 1.55996 3.0783 0
M  V30 17950 C 1671.09 2.82261 3.27036 0
M  V30 17951 C 1670.22 2.73129 4.55603 0
M  V30 17952 C 1669.26 3.94346 4.68143 0
M  V30 17953 N 1668.4 3.83617 5.88032 0
M  V30 17954 H 1673.24 2.51407 1.59995 0
M  V30 17955 H 1670.77 1.24729 0.779821 0
M  V30 17956 H 1672.73 1.53602 3.87895 0
M  V30 17957 H 1671.36 0.647766 3.16234 0
M  V30 17958 H 1670.41 2.94648 2.40596 0
M  V30 17959 H 1671.73 3.72107 3.32171 0
M  V30 17960 H 1670.88 2.68823 5.43893 0
M  V30 17961 H 1669.62 1.80917 4.52902 0
M  V30 17962 H 1668.62 3.98987 3.78272 0
M  V30 17963 H 1669.85 4.8765 4.72625 0
M  V30 17964 H 1667.8 2.9419 5.86334 0
M  V30 17965 H 1667.71 4.67117 5.94422 0
M  V30 17966 H 1668.98 3.83281 6.7876 0
M  V30 17967 N 1673.21 -0.830057 1.33969 0
M  V30 17968 C 1674.12 -1.97244 1.27012 0
M  V30 17969 C 1675.14 -1.73076 0.179075 0
M  V30 17970 O 1676.31 -1.97301 0.404262 0
M  V30 17971 C 1673.38 -3.31409 1.01827 0
M  V30 17972 C 1672.44 -3.68633 2.20018 0
M  V30 17973 C 1671.67 -4.96397 1.96025 0
M  V30 17974 O 1671.89 -5.63014 0.91494 0
M  V30 17975 O 1670.83 -5.31331 2.82791 0
M  V30 17976 H 1674.65 -2.06056 2.23103 0
M  V30 17977 H 1672.24 -0.964399 1.14104 0
M  V30 17978 H 1674.12 -4.11779 0.895337 0
M  V30 17979 H 1672.8 -3.23581 0.0877091 0
M  V30 17980 H 1671.7 -2.88738 2.37869 0
M  V30 17981 H 1673.04 -3.81138 3.11439 0
M  V30 17982 N 1674.69 -1.17582 -1.04939 0
M  V30 17983 C 1675.63 -0.894855 -2.12746 0
M  V30 17984 C 1676.6 0.162261 -1.65306 0
M  V30 17985 O 1677.79 0.0245068 -1.90784 0
M  V30 17986 C 1674.93 -0.417085 -3.4257 0
M  V30 17987 C 1674.04 -1.53861 -4.03672 0
M  V30 17988 C 1673.18 -1.01446 -5.21423 0
M  V30 17989 C 1672.22 -2.11127 -5.74536 0
M  V30 17990 N 1671.35 -1.60169 -6.83586 0
M  V30 17991 H 1676.19 -1.81802 -2.36118 0
M  V30 17992 H 1673.73 -0.906716 -1.15832 0
M  V30 17993 H 1675.69 -0.121619 -4.17023 0
M  V30 17994 H 1674.32 0.469119 -3.19373 0
M  V30 17995 H 1673.37 -1.94975 -3.26633 0
M  V30 17996 H 1674.68 -2.36575 -4.39128 0
M  V30 17997 H 1673.84 -0.672992 -6.02956 0
M  V30 17998 H 1672.58 -0.156795 -4.87448 0
M  V30 17999 H 1671.58 -2.46128 -4.91631 0
M  V30 18000 H 1672.81 -2.97313 -6.10559 0
M  V30 18001 H 1670.75 -0.766783 -6.51503 0
M  V30 18002 H 1670.67 -2.36488 -7.18059 0
M  V30 18003 H 1671.94 -1.28923 -7.68765 0
M  V30 18004 N 1676.17 1.23705 -0.976463 0
M  V30 18005 C 1677.1 2.2734 -0.532809 0
M  V30 18006 C 1678.08 1.64523 0.432012 0
M  V30 18007 O 1679.26 1.9144 0.326233 0
M  V30 18008 C 1676.39 3.46887 0.169374 0
M  V30 18009 C 1675.35 4.22031 -0.712336 0
M  V30 18010 C 1674.67 5.34561 0.121838 0
M  V30 18011 C 1675.97 4.8244 -2.00123 0
M  V30 18012 H 1677.67 2.64702 -1.39904 0
M  V30 18013 H 1675.21 1.27244 -0.674156 0
M  V30 18014 H 1677.16 4.18529 0.491028 0
M  V30 18015 H 1675.89 3.08574 1.07002 0
M  V30 18016 H 1674.55 3.522 -1.01739 0
M  V30 18017 H 1674.2 4.92489 1.0229 0
M  V30 18018 H 1673.9 5.85758 -0.464962 0
M  V30 18019 H 1675.42 6.09027 0.437963 0
M  V30 18020 H 1676.83 5.46111 -1.7446 0
M  V30 18021 H 1675.23 5.43906 -2.53548 0
M  V30 18022 H 1676.3 4.03405 -2.69059 0
M  V30 18023 N 1677.64 0.747635 1.38738 0
M  V30 18024 C 1678.59 0.105258 2.32362 0
M  V30 18025 C 1679.59 -0.711921 1.53714 0
M  V30 18026 O 1680.79 -0.611687 1.69288 0
M  V30 18027 H 1677.17 0.0152406 0.751846 0
M  V30 18028 H 1679.14 0.911057 2.84152 0
M  V30 18029 C 1677.89 -0.778221 3.38879 0
M  V30 18030 H 1677.21 -0.158806 3.99484 0
M  V30 18031 H 1678.65 -1.19509 4.06809 0
M  V30 18032 C 1677.11 -1.91819 2.76961 0
M  V30 18033 O 1677.64 -3.01187 2.65799 0
M  V30 18034 N 1675.84 -1.71143 2.34859 0
M  V30 18035 H 1675.39 -0.821885 2.44137 0
M  V30 18036 H 1675.35 -2.47588 1.93772 0
M  V30 18037 N 1679.12 -1.49583 0.496242 0
M  V30 18038 C 1680.08 -2.27561 -0.273642 0
M  V30 18039 C 1681.08 -1.33375 -0.8982 0
M  V30 18040 O 1682.27 -1.56578 -0.76347 0
M  V30 18041 C 1679.41 -3.11178 -1.39216 0
M  V30 18042 H 1680.6 -2.97077 0.410543 0
M  V30 18043 H 1678.15 -1.54271 0.251058 0
M  V30 18044 H 1678.89 -2.46217 -2.11064 0
M  V30 18045 H 1678.67 -3.80422 -0.949829 0
M  V30 18046 H 1680.16 -3.70085 -1.93459 0
M  V30 18047 N 1680.6 -0.229873 -1.55915 0
M  V30 18048 C 1681.83 0.404189 -2.02914 0
M  V30 18049 C 1682.24 1.52758 -1.10952 0
M  V30 18050 O 1681.6 1.82101 -0.120685 0
M  V30 18051 C 1681.65 0.928016 -3.49385 0
M  V30 18052 O 1681.37 -0.150592 -4.37841 0
M  V30 18053 C 1682.87 1.63448 -4.12067 0
M  V30 18054 H 1680.09 0.0980294 -0.663801 0
M  V30 18055 H 1682.64 -0.34876 -2.01504 0
M  V30 18056 H 1680.79 1.63121 -3.51384 0
M  V30 18057 H 1681.21 0.244429 -5.2393 0
M  V30 18058 H 1682.68 1.95292 -5.16299 0
M  V30 18059 H 1683.16 2.55055 -3.57553 0
M  V30 18060 H 1683.76 0.976292 -4.13943 0
M  V30 18061 N 1682.08 1.5754 0.0434337 0
M  V30 18062 C 1683.3 1.93247 0.753012 0
M  V30 18063 C 1683.73 0.828712 1.68861 0
M  V30 18064 O 1683.09 -0.216618 1.80001 0
M  V30 18065 C 1683.13 3.27989 1.49852 0
M  V30 18066 O 1682.24 3.19223 2.61094 0
M  V30 18067 H 1681.58 0.632032 0.203547 0
M  V30 18068 H 1684.11 2.046 0.00319776 0
M  V30 18069 H 1684.12 3.62539 1.87161 0
M  V30 18070 H 1682.79 4.07891 0.812251 0
M  V30 18071 H 1681.37 2.9628 2.26434 0
M  V30 18072 N 1683.56 -0.31543 1.54411 0
M  V30 18073 C 1684.78 -1.0761 1.77299 0
M  V30 18074 C 1685.21 -1.80655 0.523963 0
M  V30 18075 O 1684.56 -1.73536 -0.524874 0
M  V30 18076 C 1684.61 -2.04355 2.97105 0
M  V30 18077 O 1683.72 -3.12401 2.69219 0
M  V30 18078 H 1683.06 -0.30986 0.587267 0
M  V30 18079 H 1685.59 -0.357246 2.01457 0
M  V30 18080 H 1685.6 -2.47081 3.24677 0
M  V30 18081 H 1684.27 -1.50592 3.87679 0
M  V30 18082 H 1682.85 -2.74294 2.52621 0
M  V30 18083 N 1685.03 -1.46622 -0.577906 0
M  V30 18084 C 1686.26 -1.56 -1.36671 0
M  V30 18085 C 1686.68 -0.2034 -1.86997 0
M  V30 18086 O 1686.04 0.817288 -1.61834 0
M  V30 18087 C 1686.09 -2.57254 -2.52691 0
M  V30 18088 O 1685.19 -2.1109 -3.54281 0
M  V30 18089 H 1684.54 -0.524779 -0.406821 0
M  V30 18090 H 1687.07 -1.92234 -0.700512 0
M  V30 18091 H 1687.08 -2.77016 -2.99543 0
M  V30 18092 H 1685.75 -3.55766 -2.15415 0
M  V30 18093 H 1684.33 -2.01337 -3.13875 0
M  V30 18094 N 1686.51 0.822941 -1.34408 0
M  V30 18095 C 1687.42 1.96567 -1.28056 0
M  V30 18096 C 1688.44 1.72979 -0.188251 0
M  V30 18097 O 1689.61 1.97084 -0.41472 0
M  V30 18098 C 1686.68 3.30865 -1.03583 0
M  V30 18099 C 1685.74 3.67461 -2.2197 0
M  V30 18100 C 1684.97 4.9535 -1.98655 0
M  V30 18101 O 1685.2 5.62521 -0.944785 0
M  V30 18102 O 1684.13 5.29824 -2.85605 0
M  V30 18103 H 1687.96 2.0487 -2.24192 0
M  V30 18104 H 1685.54 0.958334 -1.14614 0
M  V30 18105 H 1687.42 4.11298 -0.917162 0
M  V30 18106 H 1686.1 3.2353 -0.104868 0
M  V30 18107 H 1685.01 2.87472 -2.39396 0
M  V30 18108 H 1686.34 3.79481 -3.13456 0
M  V30 18109 N 1687.99 1.18137 1.04314 0
M  V30 18110 C 1689.24 0.973277 1.77121 0
M  V30 18111 C 1689.56 -0.498558 1.88519 0
M  V30 18112 O 1688.83 -1.36168 1.40837 0
M  V30 18113 H 1687.41 0.35712 0.656105 0
M  V30 18114 H 1690.07 1.48774 1.25906 0
M  V30 18115 H 1689.17 1.40917 2.78476 0
M  V30 18116 N 1689.47 -1.23186 0.98301 0
M  V30 18117 C 1690.69 -1.96242 0.671114 0
M  V30 18118 C 1691.12 -1.72248 -0.755792 0
M  V30 18119 O 1690.48 -0.995555 -1.5152 0
M  V30 18120 C 1690.52 -3.47293 0.970571 0
M  V30 18121 O 1689.63 -4.1235 0.0639814 0
M  V30 18122 H 1688.97 -0.614262 0.252147 0
M  V30 18123 H 1691.5 -1.56551 1.31731 0
M  V30 18124 H 1691.51 -3.9776 0.908345 0
M  V30 18125 H 1690.18 -3.64083 2.01039 0
M  V30 18126 H 1688.76 -3.72461 0.180842 0
M  V30 18127 N 1690.95 -0.754982 -1.38339 0
M  V30 18128 C 1692.17 -0.322624 -2.04369 0
M  V30 18129 C 1692.59 1.04951 -1.56942 0
M  V30 18130 O 1691.95 1.66686 -0.743109 0
M  V30 18131 C 1692 -0.337767 -3.59919 0
M  V30 18132 O 1691.72 -1.65576 -4.05606 0
M  V30 18133 C 1693.22 0.108281 -4.43168 0
M  V30 18134 H 1690.44 -0.137626 -0.656734 0
M  V30 18135 H 1692.98 -1.02422 -1.77003 0
M  V30 18136 H 1691.14 0.315106 -3.86116 0
M  V30 18137 H 1691.55 -1.5829 -5.00045 0
M  V30 18138 H 1693.03 0.0465256 -5.5198 0
M  V30 18139 H 1693.5 1.15636 -4.23704 0
M  V30 18140 H 1694.11 -0.51577 -4.22161 0
M  V30 18141 N 1692.42 1.49318 -0.504168 0
M  V30 18142 C 1693.67 2.02762 0.0392846 0
M  V30 18143 C 1694 1.38282 1.36352 0
M  V30 18144 O 1693.28 0.519587 1.87431 0
M  V30 18145 C 1693.56 3.59606 0.188507 0
M  V30 18146 C 1693.41 4.3461 -1.15908 0
M  V30 18147 C 1694.73 4.30213 0.927641 0
M  V30 18148 H 1691.85 0.736889 0.0128028 0
M  V30 18149 H 1694.49 1.78309 -0.656193 0
M  V30 18150 H 1692.64 3.80572 0.780861 0
M  V30 18151 H 1694.32 4.25132 -1.79055 0
M  V30 18152 H 1692.56 3.97043 -1.74756 0
M  V30 18153 H 1693.23 5.4272 -1.00794 0
M  V30 18154 H 1695.71 4.13922 0.425228 0
M  V30 18155 H 1694.58 5.39697 1.0009 0
M  V30 18156 H 1694.84 3.95678 1.97209 0
M  V30 18157 N 1693.9 0.238138 1.5579 0
M  V30 18158 C 1695.18 -0.438905 1.90612 0
M  V30 18159 C 1695.56 -1.76522 1.15773 0
M  V30 18160 O 1694.91 -2.26871 0.272363 0
M  V30 18161 C 1695.12 -0.615595 3.43528 0
M  V30 18162 C 1696.47 -0.915478 4.14613 0
M  V30 18163 O 1697.49 -0.70178 3.49218 0
M  V30 18164 O 1696.35 -1.32194 5.30271 0
M  V30 18165 H 1693.44 -0.234355 0.7931 0
M  V30 18166 H 1695.99 0.281555 1.67348 0
M  V30 18167 H 1694.76 0.319274 3.89995 0
M  V30 18168 H 1694.38 -1.38692 3.72626 0
M  V30 18169 N 1695.38 -1.57561 -0.0350783 0
M  V30 18170 C 1696.63 -1.88177 -0.726105 0
M  V30 18171 C 1696.94 -0.835856 -1.76841 0
M  V30 18172 O 1698.15 -1.03105 -2.51161 0
M  V30 18173 C 1696.6 -3.33924 -1.34249 0
M  V30 18174 C 1696.21 -4.46732 -0.336845 0
M  V30 18175 C 1697.96 -3.73696 -2.01374 0
M  V30 18176 C 1695.86 -5.83536 -0.961234 0
M  V30 18177 H 1694.79 -0.702082 -0.274948 0
M  V30 18178 H 1697.44 -1.83489 0.0197081 0
M  V30 18179 H 1695.83 -3.33337 -2.13781 0
M  V30 18180 H 1697 -4.58777 0.431323 0
M  V30 18181 H 1695.32 -4.15753 0.231983 0
M  V30 18182 H 1697.91 -4.7322 -2.48931 0
M  V30 18183 H 1698.26 -3.05379 -2.8293 0
M  V30 18184 H 1698.79 -3.76431 -1.28626 0
M  V30 18185 H 1695.53 -6.55238 -0.185217 0
M  V30 18186 H 1695.05 -5.75223 -1.69938 0
M  V30 18187 H 1696.73 -6.30071 -1.47035 0
M  V30 18188 N 1696.86 0.307236 -1.54576 0
M  V30 18189 C 1698.11 1.04115 -1.73218 0
M  V30 18190 C 1698.43 1.88008 -0.517482 0
M  V30 18191 O 1697.7 1.90219 0.468336 0
M  V30 18192 H 1696.28 0.387388 -0.638701 0
M  V30 18193 H 1698.94 0.339727 -1.91916 0
M  V30 18194 H 1698.04 1.69784 -2.61877 0
M  V30 18195 N 1698.34 1.46926 0.570122 0
M  V30 18196 C 1699.3 1.58009 1.6603 0
M  V30 18197 C 1700.3 0.456188 1.54193 0
M  V30 18198 O 1701.49 0.720879 1.58584 0
M  V30 18199 C 1698.62 1.51235 3.05517 0
M  V30 18200 H 1699.81 2.55178 1.57558 0
M  V30 18201 H 1697.37 1.34924 0.788998 0
M  V30 18202 H 1698.1 0.553929 3.19534 0
M  V30 18203 H 1697.89 2.3279 3.15518 0
M  V30 18204 H 1699.38 1.62101 3.84854 0
M  V30 18205 N 1699.82 -0.815801 1.34842 0
M  V30 18206 C 1701.23 -1.38911 1.24742 0
M  V30 18207 C 1701.58 -1.95807 -0.124101 0
M  V30 18208 O 1700.7 -1.906 -1.02472 0
M  V30 18209 C 1701.3 -2.52532 2.25861 0
M  V30 18210 C 1699.86 -3.05751 2.1953 0
M  V30 18211 C 1699 -1.78661 2.12075 0
M  V30 18212 H 1701.95 -0.619601 1.46105 0
M  V30 18213 H 1701.98 -3.30826 1.87974 0
M  V30 18214 H 1701.49 -2.11092 3.25671 0
M  V30 18215 H 1699.59 -3.51678 1.23099 0
M  V30 18216 H 1699.7 -3.64358 3.11095 0
M  V30 18217 H 1698.07 -1.99844 1.57907 0
M  V30 18218 H 1698.85 -1.39385 3.1373 0
M  V30 18219 N 1701.29 -1.18689 -1.03686 0
M  V30 18220 C 1702.26 -0.919415 -2.09951 0
M  V30 18221 C 1703.26 0.0968042 -1.60508 0
M  V30 18222 O 1704.45 -0.137062 -1.7366 0
M  V30 18223 C 1701.58 -0.380204 -3.38773 0
M  V30 18224 H 1702.77 -1.86178 -2.35112 0
M  V30 18225 H 1700.32 -0.999435 -1.20171 0
M  V30 18226 H 1701.06 0.568586 -3.19277 0
M  V30 18227 H 1700.84 -1.11281 -3.75977 0
M  V30 18228 H 1702.33 -0.211891 -4.17062 0
M  V30 18229 N 1702.77 1.22662 -0.989529 0
M  V30 18230 C 1703.68 2.28162 -0.545835 0
M  V30 18231 C 1704.7 1.69251 0.403762 0
M  V30 18232 O 1705.87 1.99563 0.271428 0
M  V30 18233 C 1702.94 3.46434 0.135808 0
M  V30 18234 C 1702 4.20673 -0.85633 0
M  V30 18235 C 1701.23 5.33298 -0.207121 0
M  V30 18236 O 1701.46 5.6157 0.99975 0
M  V30 18237 O 1700.39 5.94977 -0.910288 0
M  V30 18238 H 1704.22 2.68276 -1.42344 0
M  V30 18239 H 1701.8 1.28766 -0.757609 0
M  V30 18240 H 1703.68 4.18207 0.517776 0
M  V30 18241 H 1702.36 3.08252 0.988035 0
M  V30 18242 H 1701.26 3.51186 -1.28917 0
M  V30 18243 H 1702.6 4.62726 -1.67765 0
M  V30 18244 N 1704.25 0.762308 1.37937 0
M  V30 18245 C 1705.5 0.321732 1.99523 0
M  V30 18246 C 1705.82 -1.10286 1.60816 0
M  V30 18247 O 1705.09 -1.75565 0.869117 0
M  V30 18248 H 1703.67 0.115967 0.737943 0
M  V30 18249 H 1706.33 0.978339 1.68566 0
M  V30 18250 H 1705.43 0.391818 3.09631 0
M  V30 18251 N 1705.73 -1.49049 0.51208 0
M  V30 18252 C 1706.64 -2.33102 -0.264695 0
M  V30 18253 C 1707.65 -1.45347 -0.956571 0
M  V30 18254 O 1708.83 -1.78355 -0.935501 0
M  V30 18255 C 1705.89 -3.21051 -1.30871 0
M  V30 18256 C 1704.96 -4.24666 -0.629094 0
M  V30 18257 C 1704.19 -5.08412 -1.62337 0
M  V30 18258 O 1704.41 -4.93847 -2.85432 0
M  V30 18259 O 1703.35 -5.90368 -1.17259 0
M  V30 18260 H 1707.17 -3.00732 0.423585 0
M  V30 18261 H 1704.76 -1.4688 0.273246 0
M  V30 18262 H 1706.64 -3.75503 -1.91248 0
M  V30 18263 H 1705.31 -2.56103 -1.97972 0
M  V30 18264 H 1704.22 -3.74097 0.0147056 0
M  V30 18265 H 1705.55 -4.922 -0.000339859 0
M  V30 18266 N 1707.21 -0.246397 -1.55662 0
M  V30 18267 C 1708.14 0.686113 -2.1869 0
M  V30 18268 C 1709.15 1.13915 -1.16306 0
M  V30 18269 O 1710.34 1.06601 -1.43173 0
M  V30 18270 C 1707.44 1.94426 -2.77582 0
M  V30 18271 C 1706.61 1.64275 -4.0538 0
M  V30 18272 C 1705.67 2.75044 -4.48595 0
M  V30 18273 O 1704.7 2.42451 -5.14982 0
M  V30 18274 N 1705.9 4.04528 -4.16338 0
M  V30 18275 H 1708.66 0.146832 -2.9934 0
M  V30 18276 H 1706.23 -0.0663398 -1.61764 0
M  V30 18277 H 1708.22 2.67768 -3.0345 0
M  V30 18278 H 1706.79 2.39334 -2.01091 0
M  V30 18279 H 1706.01 0.744531 -3.87105 0
M  V30 18280 H 1707.3 1.41594 -4.88701 0
M  V30 18281 H 1706.69 4.33841 -3.6304 0
M  V30 18282 H 1705.25 4.74337 -4.47043 0
M  V30 18283 N 1708.68 1.57577 0.026722 0
M  V30 18284 C 1710.09 1.77689 0.573022 0
M  V30 18285 C 1710.45 0.877771 1.7547 0
M  V30 18286 O 1709.57 0.0732156 2.16276 0
M  V30 18287 C 1710.17 3.22239 1.0463 0
M  V30 18288 C 1708.72 3.4354 1.5381 0
M  V30 18289 C 1707.87 2.73163 0.47722 0
M  V30 18290 H 1710.82 1.57441 -0.199502 0
M  V30 18291 H 1710.84 3.28882 1.91355 0
M  V30 18292 H 1710.36 3.87654 0.186047 0
M  V30 18293 H 1708.46 2.83304 2.42012 0
M  V30 18294 H 1708.57 4.52158 1.58398 0
M  V30 18295 H 1706.93 2.37004 0.932793 0
M  V30 18296 H 1707.72 3.41261 -0.373605 0
M  V30 18297 N 1710.16 -0.299034 1.54737 0
M  V30 18298 C 1711.07 -1.39141 1.88884 0
M  V30 18299 C 1712.09 -1.55377 0.783203 0
M  V30 18300 O 1713.26 -1.70003 1.07985 0
M  V30 18301 C 1710.33 -2.73487 2.13087 0
M  V30 18302 C 1709.39 -2.66219 3.36788 0
M  V30 18303 C 1708.62 -3.94158 3.59827 0
M  V30 18304 O 1708.85 -4.9361 2.85841 0
M  V30 18305 O 1707.78 -3.95933 4.53344 0
M  V30 18306 H 1711.61 -1.13184 2.81821 0
M  V30 18307 H 1709.19 -0.495271 1.40952 0
M  V30 18308 H 1711.07 -3.5297 2.30195 0
M  V30 18309 H 1709.75 -2.99283 1.23335 0
M  V30 18310 H 1708.65 -1.85201 3.25041 0
M  V30 18311 H 1709.99 -2.45376 4.26675 0
M  V30 18312 N 1711.64 -1.47227 -0.562322 0
M  V30 18313 C 1712.89 -1.53816 -1.32168 0
M  V30 18314 C 1713.22 -0.197649 -1.93192 0
M  V30 18315 O 1712.49 0.793178 -1.77592 0
M  V30 18316 C 1712.78 -2.65231 -2.43566 0
M  V30 18317 C 1712.63 -4.08882 -1.87445 0
M  V30 18318 C 1713.95 -2.72589 -3.45519 0
M  V30 18319 H 1711.07 -0.559947 -0.479195 0
M  V30 18320 H 1713.71 -1.7926 -0.629762 0
M  V30 18321 H 1711.86 -2.43667 -3.02587 0
M  V30 18322 H 1713.53 -4.41794 -1.32725 0
M  V30 18323 H 1711.77 -4.17401 -1.18149 0
M  V30 18324 H 1712.45 -4.82603 -2.67952 0
M  V30 18325 H 1714.92 -2.92028 -2.9641 0
M  V30 18326 H 1713.8 -3.5233 -4.20898 0
M  V30 18327 H 1714.06 -1.79444 -4.04045 0
M  V30 18328 N 1713.12 0.808639 -1.35273 0
M  V30 18329 C 1714.03 1.95198 -1.30134 0
M  V30 18330 C 1715.04 1.72769 -0.206587 0
M  V30 18331 O 1716.22 1.96633 -0.4356 0
M  V30 18332 C 1713.28 3.29747 -1.07087 0
M  V30 18333 C 1712.35 3.65086 -2.25855 0
M  V30 18334 C 1711.58 4.93215 -2.03898 0
M  V30 18335 O 1711.8 5.61487 -1.00439 0
M  V30 18336 O 1710.74 5.26765 -2.91208 0
M  V30 18337 H 1714.56 2.0248 -2.26353 0
M  V30 18338 H 1712.15 0.946124 -1.15624 0
M  V30 18339 H 1714.03 4.10302 -0.960734 0
M  V30 18340 H 1712.7 3.23401 -0.139177 0
M  V30 18341 H 1711.61 2.84917 -2.42432 0
M  V30 18342 H 1712.94 3.76135 -3.17464 0
M  V30 18343 N 1714.6 1.19237 1.03055 0
M  V30 18344 C 1716.01 0.996569 1.57878 0
M  V30 18345 C 1716.36 -0.450987 1.90946 0
M  V30 18346 O 1715.48 -1.33009 1.70697 0
M  V30 18347 C 1716.08 1.80272 2.86858 0
M  V30 18348 C 1714.64 1.65097 3.3826 0
M  V30 18349 C 1713.78 1.79079 2.11721 0
M  V30 18350 H 1716.74 1.33633 0.856037 0
M  V30 18351 H 1716.76 1.29781 3.57683 0
M  V30 18352 H 1716.27 2.85621 2.62759 0
M  V30 18353 H 1714.37 0.623267 3.6735 0
M  V30 18354 H 1714.48 2.45527 4.11404 0
M  V30 18355 H 1712.85 1.22124 2.23512 0
M  V30 18356 H 1713.63 2.85885 1.90065 0
M  V30 18357 N 1716.07 -1.22136 0.99602 0
M  V30 18358 C 1716.98 -2.27869 0.557927 0
M  V30 18359 C 1718 -1.69462 -0.394781 0
M  V30 18360 O 1719.18 -1.99704 -0.26084 0
M  V30 18361 C 1716.24 -3.46501 -0.117434 0
M  V30 18362 C 1715.3 -4.20213 0.878627 0
M  V30 18363 C 1714.54 -5.33181 0.2354 0
M  V30 18364 O 1714.76 -5.62093 -0.969954 0
M  V30 18365 O 1713.69 -5.94486 0.941828 0
M  V30 18366 H 1717.52 -2.67517 1.43765 0
M  V30 18367 H 1715.1 -1.28362 0.764428 0
M  V30 18368 H 1716.99 -4.18476 -0.49559 0
M  V30 18369 H 1715.66 -3.08772 -0.971674 0
M  V30 18370 H 1714.57 -3.50497 1.30777 0
M  V30 18371 H 1715.9 -4.6183 1.70217 0
M  V30 18372 N 1717.55 -0.769612 -1.37531 0
M  V30 18373 C 1718.46 -0.15514 -2.34086 0
M  V30 18374 C 1719.48 0.682108 -1.60073 0
M  V30 18375 O 1720.65 0.602527 -1.92176 0
M  V30 18376 C 1717.72 0.715344 -3.3924 0
M  V30 18377 C 1716.78 -0.138116 -4.29078 0
M  V30 18378 C 1716.01 0.690916 -5.29209 0
M  V30 18379 O 1716.24 1.92812 -5.36824 0
M  V30 18380 O 1715.17 0.101247 -6.01815 0
M  V30 18381 H 1719 -0.952968 -2.88361 0
M  V30 18382 H 1716.58 -0.530738 -1.39655 0
M  V30 18383 H 1718.46 1.21236 -4.03584 0
M  V30 18384 H 1717.14 1.4914 -2.87296 0
M  V30 18385 H 1716.05 -0.681443 -3.67841 0
M  V30 18386 H 1717.38 -0.877202 -4.8432 0
M  V30 18387 N 1719.03 1.48775 -0.519977 0
M  V30 18388 C 1720.26 2.07394 0.0161061 0
M  V30 18389 C 1720.68 1.37532 1.28322 0
M  V30 18390 O 1720.04 0.438049 1.75928 0
M  V30 18391 C 1720.09 3.59844 0.233382 0
M  V30 18392 O 1719.19 3.91235 1.30418 0
M  V30 18393 H 1718.53 0.663094 -0.0346678 0
M  V30 18394 H 1721.06 1.91323 -0.725029 0
M  V30 18395 H 1721.07 4.05409 0.45911 0
M  V30 18396 H 1719.75 4.10098 -0.69229 0
M  V30 18397 H 1718.32 3.5746 1.0619 0
M  V30 18398 N 1720.51 0.254649 1.55529 0
M  V30 18399 C 1721.44 -0.635656 2.24681 0
M  V30 18400 C 1722.42 -1.17519 1.22977 0
M  V30 18401 O 1723.6 -1.21311 1.51649 0
M  V30 18402 C 1720.73 -1.82922 2.95224 0
M  V30 18403 C 1719.69 -1.42212 4.03683 0
M  V30 18404 C 1719.01 -2.69713 4.61691 0
M  V30 18405 C 1720.31 -0.587436 5.18986 0
M  V30 18406 H 1722.01 -0.0590063 2.99342 0
M  V30 18407 H 1719.55 -0.02694 1.43975 0
M  V30 18408 H 1721.51 -2.45777 3.42304 0
M  V30 18409 H 1720.23 -2.43137 2.18064 0
M  V30 18410 H 1718.89 -0.81687 3.57383 0
M  V30 18411 H 1718.54 -3.28143 3.81223 0
M  V30 18412 H 1718.24 -2.43194 5.34911 0
M  V30 18413 H 1719.76 -3.33453 5.11509 0
M  V30 18414 H 1721.18 -1.12048 5.62244 0
M  V30 18415 H 1719.57 -0.417988 5.98643 0
M  V30 18416 H 1720.64 0.398577 4.83259 0
M  V30 18417 N 1721.99 -1.57589 -0.0183649 0
M  V30 18418 C 1722.9 -2.10665 -1.03235 0
M  V30 18419 C 1723.91 -1.04767 -1.38924 0
M  V30 18420 O 1725.09 -1.36565 -1.48027 0
M  V30 18421 C 1722.15 -2.58432 -2.31114 0
M  V30 18422 C 1721.21 -3.78856 -2.01908 0
M  V30 18423 C 1720.45 -4.24335 -3.2369 0
M  V30 18424 O 1720.67 -3.69266 -4.3474 0
M  V30 18425 O 1719.6 -5.16671 -3.08763 0
M  V30 18426 H 1723.43 -2.97485 -0.611254 0
M  V30 18427 H 1721.02 -1.47524 -0.236035 0
M  V30 18428 H 1722.9 -2.89438 -3.06274 0
M  V30 18429 H 1721.57 -1.74718 -2.72498 0
M  V30 18430 H 1720.48 -3.52852 -1.24282 0
M  V30 18431 H 1721.81 -4.63587 -1.65373 0
M  V30 18432 N 1723.46 0.290824 -1.54893 0
M  V30 18433 C 1724.88 0.86313 -1.6555 0
M  V30 18434 C 1725.23 1.87713 -0.570806 0
M  V30 18435 O 1724.35 2.14437 0.290826 0
M  V30 18436 C 1724.95 1.57231 -3.00107 0
M  V30 18437 C 1723.51 2.09288 -3.1285 0
M  V30 18438 C 1722.65 0.928933 -2.61278 0
M  V30 18439 H 1725.6 0.0675807 -1.58556 0
M  V30 18440 H 1725.62 2.43841 -2.92099 0
M  V30 18441 H 1725.14 0.834055 -3.79032 0
M  V30 18442 H 1723.24 2.86129 -2.38665 0
M  V30 18443 H 1723.35 2.32042 -4.19158 0
M  V30 18444 H 1721.71 1.31735 -2.17986 0
M  V30 18445 H 1722.5 0.204475 -3.42691 0
M  V30 18446 N 1724.94 1.47523 0.554506 0
M  V30 18447 C 1725.85 1.62851 1.68869 0
M  V30 18448 C 1726.87 0.511305 1.66318 0
M  V30 18449 O 1728.04 0.779195 1.85716 0
M  V30 18450 C 1725.11 1.64161 3.05372 0
M  V30 18451 C 1724.17 2.87327 3.1897 0
M  V30 18452 C 1723.4 2.88566 4.48961 0
M  V30 18453 O 1723.63 1.98937 5.34584 0
M  V30 18454 O 1722.56 3.80459 4.66406 0
M  V30 18455 H 1726.39 2.58826 1.5888 0
M  V30 18456 H 1723.97 1.3064 0.724822 0
M  V30 18457 H 1725.85 1.67686 3.866 0
M  V30 18458 H 1724.53 0.713534 3.15738 0
M  V30 18459 H 1723.44 2.89345 2.37129 0
M  V30 18460 H 1724.77 3.79438 3.13509 0
M  V30 18461 N 1726.42 -0.801453 1.357 0
M  V30 18462 C 1727.38 -1.89514 1.28907 0
M  V30 18463 C 1728.38 -1.59559 0.19938 0
M  V30 18464 O 1729.57 -1.68196 0.453408 0
M  V30 18465 C 1726.71 -3.26044 0.995411 0
M  V30 18466 H 1727.9 -1.96956 2.2616 0
M  V30 18467 H 1725.45 -0.997899 1.20298 0
M  V30 18468 H 1726.19 -3.24289 0.0269561 0
M  V30 18469 H 1725.97 -3.49172 1.78385 0
M  V30 18470 H 1727.46 -4.06092 0.97362 0
M  V30 18471 N 1727.9 -1.19782 -1.02421 0
M  V30 18472 C 1729.14 -1.0145 -1.77446 0
M  V30 18473 C 1729.5 0.44637 -1.86739 0
M  V30 18474 O 1730.7 0.749639 -2.58135 0
M  V30 18475 C 1728.97 -1.67055 -3.15955 0
M  V30 18476 S 1730.53 -1.63725 -4.07111 0
M  V30 18477 H 1727.35 -0.363945 -0.610791 0
M  V30 18478 H 1729.95 -1.52209 -1.2269 0
M  V30 18479 H 1728.66 -2.72571 -3.06811 0
M  V30 18480 H 1728.19 -1.16396 -3.75787 0
M  V30 18481 H 1730.2 -0.664732 -4.91727 0
M  V30 18482 N 1729.38 1.21606 -1.00248 0
M  V30 18483 C 1730.62 1.90607 -0.683752 0
M  V30 18484 C 1730.95 1.77945 0.785228 0
M  V30 18485 O 1730.21 1.14856 1.58451 0
M  V30 18486 C 1730.51 3.41708 -1.04739 0
M  V30 18487 C 1730.17 3.74565 -2.51022 0
M  V30 18488 C 1728.83 3.83243 -2.90995 0
M  V30 18489 C 1731.19 3.89971 -3.45792 0
M  V30 18490 C 1728.51 4.04773 -4.24707 0
M  V30 18491 C 1730.87 4.13008 -4.79174 0
M  V30 18492 C 1729.53 4.19912 -5.18874 0
M  V30 18493 H 1728.8 0.697481 -0.250203 0
M  V30 18494 H 1731.45 1.4417 -1.26045 0
M  V30 18495 H 1729.75 3.89865 -0.388905 0
M  V30 18496 H 1731.45 3.93367 -0.778675 0
M  V30 18497 H 1728.04 3.68399 -2.19043 0
M  V30 18498 H 1732.22 3.82635 -3.16076 0
M  V30 18499 H 1727.48 4.08349 -4.5504 0
M  V30 18500 H 1731.65 4.23871 -5.52545 0
M  V30 18501 H 1729.28 4.36348 -6.22499 0
M  V30 18502 N 1730.86 0.776895 1.37121 0
M  V30 18503 C 1732.08 0.355097 2.0383 0
M  V30 18504 C 1732.5 -1.02441 1.58591 0
M  V30 18505 O 1731.86 -1.65482 0.769533 0
M  V30 18506 C 1731.91 0.394984 3.59336 0
M  V30 18507 O 1731.63 1.72008 4.0292 0
M  V30 18508 C 1733.13 -0.0377636 4.43284 0
M  V30 18509 H 1730.35 0.148056 0.654462 0
M  V30 18510 H 1732.89 1.05225 1.75351 0
M  V30 18511 H 1731.05 -0.253638 3.86569 0
M  V30 18512 H 1731.46 1.66225 4.97463 0
M  V30 18513 H 1732.94 0.0412956 5.51985 0
M  V30 18514 H 1733.41 -1.08881 4.2549 0
M  V30 18515 H 1734.02 0.582867 4.21287 0
M  V30 18516 N 1732.33 -1.48497 0.527859 0
M  V30 18517 C 1733.24 -2.3337 -0.239957 0
M  V30 18518 C 1734.26 -1.46353 -0.941101 0
M  V30 18519 O 1735.44 -1.79337 -0.916532 0
M  V30 18520 C 1732.5 -3.22421 -1.27458 0
M  V30 18521 C 1731.56 -4.25309 -0.584017 0
M  V30 18522 C 1730.79 -5.10105 -1.56935 0
M  V30 18523 O 1731.02 -4.96846 -2.80178 0
M  V30 18524 O 1729.95 -5.91578 -1.10991 0
M  V30 18525 H 1733.78 -3.00265 0.455458 0
M  V30 18526 H 1731.36 -1.46582 0.288809 0
M  V30 18527 H 1733.24 -3.7751 -1.87254 0
M  V30 18528 H 1731.92 -2.58189 -1.95244 0
M  V30 18529 H 1730.83 -3.7406 0.0543828 0
M  V30 18530 H 1732.16 -4.92173 0.0518646 0
M  V30 18531 N 1733.81 -0.262893 -1.55392 0
M  V30 18532 C 1735.09 0.408525 -1.91286 0
M  V30 18533 C 1735.47 1.74657 -1.18566 0
M  V30 18534 O 1734.82 2.26409 -0.308422 0
M  V30 18535 C 1735.03 0.560865 -3.44464 0
M  V30 18536 C 1736.37 0.849401 -4.16017 0
M  V30 18537 O 1737.4 0.646134 -3.50291 0
M  V30 18538 O 1736.26 1.23741 -5.32307 0
M  V30 18539 H 1733.35 0.221707 -0.796728 0
M  V30 18540 H 1735.9 -0.308143 -1.66879 0
M  V30 18541 H 1734.67 -0.381279 -3.89438 0
M  V30 18542 H 1734.29 1.32747 -3.74785 0
M  V30 18543 N 1735.29 1.57597 0.0100073 0
M  V30 18544 C 1736.53 1.91983 0.701555 0
M  V30 18545 C 1736.89 0.863453 1.71489 0
M  V30 18546 O 1738.09 1.09225 2.45608 0
M  V30 18547 C 1736.37 3.31459 1.33678 0
M  V30 18548 S 1737.92 3.87714 2.05484 0
M  V30 18549 H 1734.74 0.672093 0.231975 0
M  V30 18550 H 1737.34 1.9545 -0.0442772 0
M  V30 18551 H 1736.05 4.06191 0.586295 0
M  V30 18552 H 1735.58 3.31342 2.12076 0
M  V30 18553 H 1737.59 3.6798 3.32874 0
M  V30 18554 N 1736.77 -0.282606 1.55045 0
M  V30 18555 C 1738.01 -1.01698 1.75458 0
M  V30 18556 C 1738.35 -1.86284 0.548808 0
M  V30 18557 O 1737.62 -1.89131 -0.45382 0
M  V30 18558 C 1737.9 -1.90759 3.05423 0
M  V30 18559 C 1737.76 -1.0923 4.36336 0
M  V30 18560 C 1739.08 -2.8963 3.31364 0
M  V30 18561 H 1736.2 -0.368305 0.638373 0
M  V30 18562 H 1738.84 -0.290118 1.87772 0
M  V30 18563 H 1736.99 -2.52734 2.95055 0
M  V30 18564 H 1738.66 -0.493996 4.58647 0
M  V30 18565 H 1736.9 -0.395481 4.31994 0
M  V30 18566 H 1737.57 -1.74842 5.23578 0
M  V30 18567 H 1740.05 -2.37788 3.41462 0
M  V30 18568 H 1738.93 -3.49096 4.23584 0
M  V30 18569 H 1739.19 -3.64255 2.50541 0
M  V30 18570 N 1738.25 -1.47815 -0.546675 0
M  V30 18571 C 1739.66 -1.33566 -0.873628 0
M  V30 18572 C 1739.86 -0.334067 -1.98711 0
M  V30 18573 O 1738.92 0.250675 -2.51253 0
M  V30 18574 C 1740.23 -2.73171 -1.25691 0
M  V30 18575 C 1741.78 -2.81535 -1.36774 0
M  V30 18576 C 1742.25 -4.21804 -1.78454 0
M  V30 18577 N 1743.74 -4.24396 -1.85586 0
M  V30 18578 C 1744.48 -5.29854 -2.19186 0
M  V30 18579 N 1743.98 -6.45606 -2.51326 0
M  V30 18580 N 1745.77 -5.17237 -2.2005 0
M  V30 18581 H 1737.92 -2.11564 0.188285 0
M  V30 18582 H 1740.18 -0.947754 0.0215773 0
M  V30 18583 H 1739.89 -3.47946 -0.512485 0
M  V30 18584 H 1739.76 -3.05622 -2.21077 0
M  V30 18585 H 1742.15 -2.07025 -2.10297 0
M  V30 18586 H 1742.23 -2.52724 -0.395504 0
M  V30 18587 H 1741.87 -4.96823 -1.05498 0
M  V30 18588 H 1741.8 -4.48046 -2.76699 0
M  V30 18589 H 1744.3 -3.40895 -1.63092 0
M  V30 18590 H 1744.61 -7.21825 -2.76022 0
M  V30 18591 H 1742.95 -6.48909 -2.48883 0
M  V30 18592 H 1746.14 -4.2583 -1.94387 0
M  V30 18593 H 1746.32 -5.99529 -2.45905 0
M  V30 18594 N 1739.72 0.794246 -1.36123 0
M  V30 18595 C 1740.67 1.90668 -1.30056 0
M  V30 18596 C 1741.64 1.65226 -0.170145 0
M  V30 18597 O 1742.83 1.87452 -0.355874 0
M  V30 18598 C 1739.97 3.27405 -1.09086 0
M  V30 18599 C 1739.08 3.64951 -2.31159 0
M  V30 18600 C 1738.21 4.90782 -2.0324 0
M  V30 18601 C 1737.25 5.20992 -3.21301 0
M  V30 18602 N 1736.39 6.38005 -2.93078 0
M  V30 18603 H 1741.23 1.9519 -2.25178 0
M  V30 18604 H 1738.77 0.95458 -1.1192 0
M  V30 18605 H 1740.72 4.0625 -0.94956 0
M  V30 18606 H 1739.35 3.22319 -0.176211 0
M  V30 18607 H 1738.41 2.81268 -2.5611 0
M  V30 18608 H 1739.72 3.83228 -3.19277 0
M  V30 18609 H 1738.87 5.77481 -1.86012 0
M  V30 18610 H 1737.61 4.74565 -1.12426 0
M  V30 18611 H 1736.62 4.32777 -3.39093 0
M  V30 18612 H 1737.84 5.39131 -4.12934 0
M  V30 18613 H 1735.79 6.23189 -2.0487 0
M  V30 18614 H 1735.7 6.56591 -3.74733 0
M  V30 18615 H 1736.97 7.27699 -2.79418 0
M  V30 18616 N 1741.2 1.20323 1.01785 0
M  V30 18617 C 1742.45 1.01263 1.75363 0
M  V30 18618 C 1742.78 -0.455392 1.89094 0
M  V30 18619 O 1742.03 -1.35435 1.41266 0
M  V30 18620 C 1742.33 1.63984 3.1756 0
M  V30 18621 C 1742 3.13781 3.23809 0
M  V30 18622 C 1740.66 3.54661 3.25222 0
M  V30 18623 C 1743.01 4.09779 3.22072 0
M  V30 18624 C 1740.34 4.90068 3.22568 0
M  V30 18625 C 1742.69 5.45131 3.20959 0
M  V30 18626 C 1741.35 5.85426 3.20675 0
M  V30 18627 H 1740.62 0.370547 0.641698 0
M  V30 18628 H 1743.27 1.4973 1.19387 0
M  V30 18629 H 1741.58 1.07776 3.76685 0
M  V30 18630 H 1743.27 1.46753 3.73182 0
M  V30 18631 H 1739.86 2.81215 3.23444 0
M  V30 18632 H 1744.05 3.79231 3.20152 0
M  V30 18633 H 1739.3 5.20553 3.20678 0
M  V30 18634 H 1743.48 6.19264 3.18568 0
M  V30 18635 H 1741.1 6.90321 3.18373 0
M  V30 18636 N 1742.68 -1.21073 1.00892 0
M  V30 18637 C 1743.63 -2.23583 0.572636 0
M  V30 18638 C 1744.6 -1.61129 -0.403324 0
M  V30 18639 O 1745.78 -1.88355 -0.304491 0
M  V30 18640 C 1742.92 -3.44981 -0.0906539 0
M  V30 18641 C 1742.03 -4.21894 0.928953 0
M  V30 18642 C 1741.17 -5.30669 0.237516 0
M  V30 18643 C 1740.21 -5.99317 1.24441 0
M  V30 18644 N 1739.35 -6.99699 0.580172 0
M  V30 18645 H 1744.19 -2.60263 1.45146 0
M  V30 18646 H 1741.72 -1.27895 0.72673 0
M  V30 18647 H 1743.68 -4.14285 -0.492281 0
M  V30 18648 H 1742.31 -3.09017 -0.933169 0
M  V30 18649 H 1741.36 -3.5173 1.4488 0
M  V30 18650 H 1742.67 -4.69116 1.69503 0
M  V30 18651 H 1741.83 -6.06301 -0.220013 0
M  V30 18652 H 1740.57 -4.84463 -0.560937 0
M  V30 18653 H 1739.57 -5.22453 1.7124 0
M  V30 18654 H 1740.8 -6.47609 2.04401 0
M  V30 18655 H 1738.74 -6.55699 -0.198553 0
M  V30 18656 H 1738.66 -7.45009 1.28444 0
M  V30 18657 H 1739.93 -7.79363 0.145977 0
M  V30 18658 N 1744.16 -0.784156 -1.36707 0
M  V30 18659 C 1745.4 -0.359468 -2.01214 0
M  V30 18660 C 1745.76 1.04773 -1.60893 0
M  V30 18661 O 1746.96 1.57321 -2.17953 0
M  V30 18662 C 1745.23 -0.512117 -3.53712 0
M  V30 18663 S 1746.79 -0.174528 -4.38453 0
M  V30 18664 H 1743.61 -0.137618 -0.697555 0
M  V30 18665 H 1746.21 -1.02149 -1.66691 0
M  V30 18666 H 1744.92 -1.53667 -3.80545 0
M  V30 18667 H 1744.45 0.166027 -3.9305 0
M  V30 18668 H 1746.46 1.02572 -4.85483 0
M  V30 18669 N 1745.64 1.48215 -0.535727 0
M  V30 18670 C 1746.88 2.04399 -0.0058065 0
M  V30 18671 C 1747.24 1.40332 1.31037 0
M  V30 18672 O 1748.44 1.87437 1.92668 0
M  V30 18673 C 1746.71 3.57237 0.107773 0
M  V30 18674 S 1748.27 4.34857 0.586926 0
M  V30 18675 H 1745.09 0.710846 -0.0148167 0
M  V30 18676 H 1747.69 1.81854 -0.717592 0
M  V30 18677 H 1746.4 4.01398 -0.85488 0
M  V30 18678 H 1745.93 3.84245 0.843764 0
M  V30 18679 H 1747.94 4.60405 1.85045 0
M  V30 18680 N 1747.11 0.27113 1.5525 0
M  V30 18681 C 1748.05 -0.651235 2.19753 0
M  V30 18682 C 1749.06 -1.12051 1.18104 0
M  V30 18683 O 1750.25 -1.0431 1.44851 0
M  V30 18684 C 1747.35 -1.89985 2.8064 0
M  V30 18685 C 1746.52 -1.57805 4.07942 0
M  V30 18686 C 1745.58 -2.67872 4.52914 0
M  V30 18687 O 1744.61 -2.34228 5.18774 0
M  V30 18688 N 1745.81 -3.97854 4.22721 0
M  V30 18689 H 1748.57 -0.0991913 2.99536 0
M  V30 18690 H 1746.13 0.0920667 1.61638 0
M  V30 18691 H 1748.13 -2.62907 3.07672 0
M  V30 18692 H 1746.7 -2.36105 2.04874 0
M  V30 18693 H 1745.92 -0.682852 3.88241 0
M  V30 18694 H 1747.2 -1.33801 4.90892 0
M  V30 18695 H 1746.6 -4.28011 3.69897 0
M  V30 18696 H 1745.16 -4.67165 4.54533 0
M  V30 18697 N 1748.59 -1.576 -0.00164943 0
M  V30 18698 C 1749.84 -1.89675 -0.686026 0
M  V30 18699 C 1750.15 -0.873179 -1.75028 0
M  V30 18700 O 1751.36 -1.08409 -2.48917 0
M  V30 18701 C 1749.82 -3.36696 -1.27136 0
M  V30 18702 C 1749.42 -4.47346 -0.242011 0
M  V30 18703 C 1751.17 -3.77883 -1.93402 0
M  V30 18704 C 1749.08 -5.85444 -0.837241 0
M  V30 18705 H 1748.01 -0.707756 -0.259994 0
M  V30 18706 H 1750.66 -1.83406 0.0586245 0
M  V30 18707 H 1749.04 -3.37797 -2.06662 0
M  V30 18708 H 1750.21 -4.57759 0.528539 0
M  V30 18709 H 1748.53 -4.15168 0.320118 0
M  V30 18710 H 1751.12 -4.78394 -2.38838 0
M  V30 18711 H 1751.47 -3.11311 -2.76389 0
M  V30 18712 H 1752 -3.79075 -1.20612 0
M  V30 18713 H 1748.74 -6.55484 -0.04619 0
M  V30 18714 H 1748.26 -5.78698 -1.57699 0
M  V30 18715 H 1749.94 -6.33048 -1.33637 0
M  V30 18716 N 1750.07 0.274379 -1.55193 0
M  V30 18717 C 1751.3 1.02871 -1.8009 0
M  V30 18718 C 1751.72 1.79202 -0.571676 0
M  V30 18719 O 1751.08 1.74867 0.478679 0
M  V30 18720 C 1751.13 1.96406 -3.02418 0
M  V30 18721 O 1750.23 3.05154 -2.77408 0
M  V30 18722 H 1749.57 0.294181 -0.595276 0
M  V30 18723 H 1752.1 0.303708 -2.02333 0
M  V30 18724 H 1752.11 2.38385 -3.31114 0
M  V30 18725 H 1750.79 1.40261 -3.91535 0
M  V30 18726 H 1749.36 2.675 -2.59805 0
M  V30 18727 N 1751.55 1.48103 0.538828 0
M  V30 18728 C 1752.8 1.54925 1.29156 0
M  V30 18729 C 1753.11 0.224177 1.94311 0
M  V30 18730 O 1754.32 0.170559 2.70964 0
M  V30 18731 C 1752.77 2.73184 2.34304 0
M  V30 18732 C 1752.38 4.12297 1.75257 0
M  V30 18733 C 1754.12 2.89313 3.10642 0
M  V30 18734 C 1752.03 5.2183 2.78294 0
M  V30 18735 H 1750.96 0.576723 0.485702 0
M  V30 18736 H 1753.61 1.74418 0.570142 0
M  V30 18737 H 1751.99 2.47107 3.09441 0
M  V30 18738 H 1753.17 4.48355 1.06368 0
M  V30 18739 H 1751.48 4.0121 1.11442 0
M  V30 18740 H 1754.08 3.68313 3.87621 0
M  V30 18741 H 1754.42 1.98438 3.65962 0
M  V30 18742 H 1754.96 3.15248 2.42618 0
M  V30 18743 H 1751.7 6.14642 2.27805 0
M  V30 18744 H 1751.22 4.90269 3.45537 0
M  V30 18745 H 1752.89 5.49567 3.41446 0
M  V30 18746 N 1753.03 -0.787016 1.36542 0
M  V30 18747 C 1753.94 -1.93103 1.33223 0
M  V30 18748 C 1754.95 -1.72419 0.234047 0
M  V30 18749 O 1756.13 -1.95915 0.466828 0
M  V30 18750 C 1753.19 -3.28002 1.12319 0
M  V30 18751 C 1752.25 -3.61447 2.31635 0
M  V30 18752 C 1751.49 -4.89909 2.11719 0
M  V30 18753 O 1751.71 -5.59818 1.0936 0
M  V30 18754 O 1750.64 -5.22065 2.99552 0
M  V30 18755 H 1754.47 -1.98853 2.29545 0
M  V30 18756 H 1752.06 -0.92761 1.17114 0
M  V30 18757 H 1753.94 -4.08722 1.02589 0
M  V30 18758 H 1752.61 -3.23138 0.19061 0
M  V30 18759 H 1751.52 -2.81024 2.46934 0
M  V30 18760 H 1752.85 -3.71037 3.23407 0
M  V30 18761 N 1754.5 -1.20861 -1.01145 0
M  V30 18762 C 1755.41 -0.977926 -2.13246 0
M  V30 18763 C 1756.43 0.0678862 -1.73868 0
M  V30 18764 O 1757.61 -0.120717 -2.01038 0
M  V30 18765 C 1754.67 -0.538575 -3.42491 0
M  V30 18766 C 1753.73 -1.65584 -3.96081 0
M  V30 18767 C 1752.97 -1.23736 -5.19158 0
M  V30 18768 O 1753.19 -0.108227 -5.70297 0
M  V30 18769 O 1752.12 -2.04679 -5.6603 0
M  V30 18770 H 1755.95 -1.91666 -2.3558 0
M  V30 18771 H 1753.53 -0.992931 -1.1163 0
M  V30 18772 H 1755.42 -0.303041 -4.20309 0
M  V30 18773 H 1754.09 0.371515 -3.21561 0
M  V30 18774 H 1753 -1.94572 -3.19519 0
M  V30 18775 H 1754.33 -2.54313 -4.21409 0
M  V30 18776 N 1755.98 1.20536 -1.01532 0
M  V30 18777 C 1757.23 1.89496 -0.70254 0
M  V30 18778 C 1757.55 1.7915 0.770072 0
M  V30 18779 O 1756.82 1.19308 1.55379 0
M  V30 18780 H 1755.4 0.701447 -0.256868 0
M  V30 18781 H 1758.06 1.46394 -1.28665 0
M  V30 18782 H 1757.16 2.96155 -0.984817 0
M  V30 18783 N 1757.46 0.791395 1.36289 0
M  V30 18784 C 1758.41 0.189246 2.30023 0
M  V30 18785 C 1759.38 -0.668045 1.52074 0
M  V30 18786 O 1760.56 -0.61631 1.80572 0
M  V30 18787 C 1757.7 -0.668391 3.38565 0
M  V30 18788 C 1756.82 0.207659 4.31501 0
M  V30 18789 C 1755.95 -0.656539 5.27127 0
M  V30 18790 C 1754.99 0.220845 6.11701 0
M  V30 18791 N 1754.13 -0.602449 6.99511 0
M  V30 18792 H 1758.97 0.994038 2.80932 0
M  V30 18793 H 1756.5 0.501759 1.38278 0
M  V30 18794 H 1758.46 -1.18064 4.00146 0
M  V30 18795 H 1757.09 -1.43859 2.88971 0
M  V30 18796 H 1756.14 0.837894 3.71057 0
M  V30 18797 H 1757.46 0.883613 4.90911 0
M  V30 18798 H 1756.61 -1.23452 5.94007 0
M  V30 18799 H 1755.35 -1.36611 4.68176 0
M  V30 18800 H 1754.35 0.811214 5.43782 0
M  V30 18801 H 1755.58 0.928049 6.72729 0
M  V30 18802 H 1753.52 -1.29628 6.43065 0
M  V30 18803 H 1753.44 0.015783 7.55998 0
M  V30 18804 H 1754.71 -1.16419 7.70757 0
M  V30 18805 N 1758.94 -1.47929 0.54358 0
M  V30 18806 C 1760.19 -2.02095 0.0144379 0
M  V30 18807 C 1760.51 -1.42166 -1.33469 0
M  V30 18808 O 1759.78 -0.591899 -1.86744 0
M  V30 18809 H 1758.36 -0.746996 0.00234858 0
M  V30 18810 H 1761.02 -1.81488 0.710498 0
M  V30 18811 H 1760.12 -3.11987 -0.0838074 0
M  V30 18812 N 1760.42 -0.27936 -1.55104 0
M  V30 18813 C 1761.36 0.606268 -2.22695 0
M  V30 18814 C 1762.33 1.14646 -1.20189 0
M  V30 18815 O 1763.52 1.19498 -1.48744 0
M  V30 18816 C 1760.66 1.78256 -2.95497 0
M  V30 18817 C 1759.77 1.27582 -4.12731 0
M  V30 18818 C 1758.91 2.41425 -4.73167 0
M  V30 18819 C 1757.95 1.87775 -5.82586 0
M  V30 18820 N 1757.08 2.95108 -6.37068 0
M  V30 18821 H 1761.92 0.0232427 -2.97991 0
M  V30 18822 H 1759.46 -0.000294714 -1.471 0
M  V30 18823 H 1761.42 2.47406 -3.35925 0
M  V30 18824 H 1760.05 2.33755 -2.22617 0
M  V30 18825 H 1759.1 0.477281 -3.77394 0
M  V30 18826 H 1760.41 0.842897 -4.91627 0
M  V30 18827 H 1759.57 3.18561 -5.16337 0
M  V30 18828 H 1758.31 2.88035 -3.93557 0
M  V30 18829 H 1757.31 1.0912 -5.38862 0
M  V30 18830 H 1758.54 1.42096 -6.64067 0
M  V30 18831 H 1756.48 3.41091 -5.60351 0
M  V30 18832 H 1756.4 2.56246 -7.11248 0
M  V30 18833 H 1757.67 3.72206 -6.84896 0
M  V30 18834 N 1761.9 1.57599 -0.0067085 0
M  V30 18835 C 1762.83 2.11878 0.981331 0
M  V30 18836 C 1763.81 1.02949 1.35408 0
M  V30 18837 O 1764.99 1.30667 1.43665 0
M  V30 18838 C 1762.12 2.62757 2.27104 0
M  V30 18839 C 1761.08 3.76272 2.0397 0
M  V30 18840 C 1760.4 4.13491 3.39012 0
M  V30 18841 C 1761.7 5.03274 1.39688 0
M  V30 18842 H 1763.4 2.94683 0.529366 0
M  V30 18843 H 1760.94 1.41757 0.253187 0
M  V30 18844 H 1762.89 2.99359 2.96585 0
M  V30 18845 H 1761.62 1.77082 2.74426 0
M  V30 18846 H 1760.28 3.40074 1.36913 0
M  V30 18847 H 1759.93 3.24831 3.8405 0
M  V30 18848 H 1759.63 4.89972 3.24347 0
M  V30 18849 H 1761.15 4.52657 4.09797 0
M  V30 18850 H 1762.56 5.37604 1.99136 0
M  V30 18851 H 1760.96 5.84604 1.3549 0
M  V30 18852 H 1762.03 4.8351 0.366928 0
M  V30 18853 N 1763.37 -0.266145 1.55336 0
M  V30 18854 C 1764.62 -0.994172 1.77448 0
M  V30 18855 C 1764.97 -1.83686 0.572457 0
M  V30 18856 O 1764.27 -1.86603 -0.434735 0
M  V30 18857 C 1764.46 -1.90357 3.02488 0
M  V30 18858 C 1764.29 -1.15038 4.34737 0
M  V30 18859 C 1763.06 -0.863279 4.97871 0
M  V30 18860 C 1765.26 -0.537422 5.11484 0
M  V30 18861 N 1763.24 -0.0840218 6.13842 0
M  V30 18862 C 1764.61 0.107335 6.19907 0
M  V30 18863 C 1766.67 -0.445953 4.95899 0
M  V30 18864 C 1765.37 0.834754 7.1444 0
M  V30 18865 C 1767.4 0.267889 5.90793 0
M  V30 18866 C 1766.76 0.901359 6.98609 0
M  V30 18867 H 1762.86 -0.345546 0.701514 0
M  V30 18868 H 1765.44 -0.269159 1.92831 0
M  V30 18869 H 1763.61 -2.60078 2.88469 0
M  V30 18870 H 1765.34 -2.56571 3.12975 0
M  V30 18871 H 1762.1 -1.17027 4.58914 0
M  V30 18872 H 1762.52 0.293137 6.76365 0
M  V30 18873 H 1767.16 -0.921383 4.12638 0
M  V30 18874 H 1764.88 1.32185 7.97216 0
M  V30 18875 H 1768.47 0.339073 5.80811 0
M  V30 18876 H 1767.35 1.44492 7.70773 0
M  V30 18877 N 1764.85 -1.48386 -0.530967 0
M  V30 18878 C 1766.1 -1.57564 -1.28628 0
M  V30 18879 C 1766.45 -0.245916 -1.90822 0
M  V30 18880 O 1765.75 0.751124 -1.76263 0
M  V30 18881 C 1765.94 -2.64979 -2.39835 0
M  V30 18882 C 1765.77 -4.08267 -1.88541 0
M  V30 18883 C 1764.54 -4.75418 -1.71191 0
M  V30 18884 C 1766.74 -4.94465 -1.41453 0
M  V30 18885 N 1764.72 -6.03125 -1.14512 0
M  V30 18886 C 1766.09 -6.1241 -0.967144 0
M  V30 18887 C 1768.14 -4.80698 -1.29747 0
M  V30 18888 C 1766.85 -7.18106 -0.414308 0
M  V30 18889 C 1768.87 -5.86514 -0.758626 0
M  V30 18890 C 1768.24 -7.03667 -0.321311 0
M  V30 18891 H 1764.33 -0.631125 -0.461741 0
M  V30 18892 H 1766.92 -1.85262 -0.598825 0
M  V30 18893 H 1765.09 -2.39105 -3.06078 0
M  V30 18894 H 1766.82 -2.63848 -3.06865 0
M  V30 18895 H 1763.58 -4.31735 -1.94684 0
M  V30 18896 H 1764 -6.71232 -0.881857 0
M  V30 18897 H 1768.64 -3.90465 -1.62162 0
M  V30 18898 H 1766.36 -8.08063 -0.0778242 0
M  V30 18899 H 1769.95 -5.77915 -0.671241 0
M  V30 18900 H 1768.83 -7.84149 0.0891564 0
M  V30 18901 N 1766.33 0.779763 -1.36958 0
M  V30 18902 C 1767.28 1.91417 -1.32145 0
M  V30 18903 C 1768.27 1.68074 -0.211572 0
M  V30 18904 O 1769.48 1.75962 -0.379139 0
M  V30 18905 H 1765.85 0.62934 -0.411624 0
M  V30 18906 H 1767.82 1.92594 -2.27926 0
M  V30 18907 C 1766.57 3.28574 -1.13729 0
M  V30 18908 H 1765.9 3.47109 -1.98383 0
M  V30 18909 H 1767.34 4.08272 -1.1441 0
M  V30 18910 C 1765.79 3.36531 0.157538 0
M  V30 18911 O 1766.32 3.85067 1.14397 0
M  V30 18912 N 1764.53 2.89872 0.205509 0
M  V30 18913 H 1764.08 2.50566 -0.597854 0
M  V30 18914 H 1764.04 2.95578 1.07151 0
M  V30 18915 N 1767.81 1.21396 1.00503 0
M  V30 18916 C 1768.74 0.997268 2.11132 0
M  V30 18917 C 1769.72 -0.0777455 1.69922 0
M  V30 18918 O 1770.9 0.08208 1.94026 0
M  V30 18919 C 1768.03 0.561122 3.42737 0
M  V30 18920 C 1766.99 1.58069 3.97741 0
M  V30 18921 C 1766.31 1.00079 5.25251 0
M  V30 18922 C 1767.61 2.96754 4.29807 0
M  V30 18923 H 1769.31 1.92255 2.29518 0
M  V30 18924 H 1766.85 0.925776 1.10297 0
M  V30 18925 H 1768.81 0.396701 4.19529 0
M  V30 18926 H 1767.53 -0.399804 3.24144 0
M  V30 18927 H 1766.19 1.73268 3.23069 0
M  V30 18928 H 1765.84 0.0315797 5.0299 0
M  V30 18929 H 1765.54 1.68182 5.63017 0
M  V30 18930 H 1767.06 0.847687 6.04687 0
M  V30 18931 H 1768.48 2.85 4.97441 0
M  V30 18932 H 1766.87 3.61871 4.78717 0
M  V30 18933 H 1767.94 3.47602 3.38084 0
M  V30 18934 N 1769.29 -1.19996 1.0217 0
M  V30 18935 C 1770.7 -1.4154 0.737473 0
M  V30 18936 C 1770.9 -1.89649 -0.680832 0
M  V30 18937 O 1769.96 -2.06865 -1.44787 0
M  V30 18938 C 1771.27 -2.43269 1.76751 0
M  V30 18939 C 1772.82 -2.57027 1.78623 0
M  V30 18940 C 1773.29 -3.62003 2.80567 0
M  V30 18941 N 1774.78 -3.69492 2.79339 0
M  V30 18942 C 1775.52 -4.50391 3.54874 0
M  V30 18943 N 1775.02 -5.35053 4.40103 0
M  V30 18944 N 1776.81 -4.44972 3.43448 0
M  V30 18945 H 1768.96 -0.870855 1.93726 0
M  V30 18946 H 1771.22 -0.444866 0.837137 0
M  V30 18947 H 1770.93 -2.14927 2.78387 0
M  V30 18948 H 1770.8 -3.42336 1.58386 0
M  V30 18949 H 1773.19 -2.84695 0.776695 0
M  V30 18950 H 1773.27 -1.58138 2.01062 0
M  V30 18951 H 1772.91 -3.35078 3.81687 0
M  V30 18952 H 1772.84 -4.60526 2.55388 0
M  V30 18953 H 1775.34 -3.09021 2.17518 0
M  V30 18954 H 1775.65 -5.93881 4.94495 0
M  V30 18955 H 1773.99 -5.34538 4.44178 0
M  V30 18956 H 1777.18 -3.77869 2.76283 0
M  V30 18957 H 1777.36 -5.07782 4.02569 0
M  V30 18958 N 1770.76 -0.798611 -1.35867 0
M  V30 18959 C 1771.71 -0.201442 -2.29919 0
M  V30 18960 C 1772.68 0.659971 -1.52426 0
M  V30 18961 O 1773.87 0.606726 -1.80896 0
M  V30 18962 C 1771.01 0.650427 -3.38915 0
M  V30 18963 C 1770.12 -0.230539 -4.31384 0
M  V30 18964 C 1769.25 0.628575 -5.27468 0
M  V30 18965 C 1768.29 -0.253282 -6.11576 0
M  V30 18966 N 1767.43 0.565343 -6.9982 0
M  V30 18967 H 1772.27 -1.00892 -2.80401 0
M  V30 18968 H 1769.81 -0.509085 -1.3801 0
M  V30 18969 H 1771.76 1.15941 -4.00766 0
M  V30 18970 H 1770.39 1.42325 -2.8973 0
M  V30 18971 H 1769.45 -0.85756 -3.70608 0
M  V30 18972 H 1770.76 -0.909635 -4.90436 0
M  V30 18973 H 1769.91 1.203 -5.94653 0
M  V30 18974 H 1768.65 1.34127 -4.68894 0
M  V30 18975 H 1767.66 -0.84004 -5.43345 0
M  V30 18976 H 1768.88 -0.963713 -6.72227 0
M  V30 18977 H 1766.83 1.26216 -6.43743 0
M  V30 18978 H 1766.74 -0.0558752 -7.55979 0
M  V30 18979 H 1768.01 1.1233 -7.71364 0
M  V30 18980 N 1772.24 1.47639 -0.551417 0
M  V30 18981 C 1773.47 2.06878 -0.0298904 0
M  V30 18982 C 1773.88 1.40493 1.26123 0
M  V30 18983 O 1773.24 0.499513 1.75531 0
M  V30 18984 C 1773.29 3.61074 0.175449 0
M  V30 18985 O 1773.01 4.2497 -1.06454 0
M  V30 18986 C 1774.51 4.37166 0.734919 0
M  V30 18987 H 1771.73 0.669607 -0.0432142 0
M  V30 18988 H 1774.28 1.89726 -0.763178 0
M  V30 18989 H 1772.43 3.7776 0.858848 0
M  V30 18990 H 1772.85 5.17424 -0.858644 0
M  V30 18991 H 1774.32 5.45756 0.827915 0
M  V30 18992 H 1774.8 4.03052 1.74486 0
M  V30 18993 H 1775.4 4.2521 0.0874045 0
M  V30 18994 N 1773.72 0.287581 1.54954 0
M  V30 18995 C 1774.96 -0.326648 2.01773 0
M  V30 18996 C 1775.32 -1.52113 1.17156 0
M  V30 18997 O 1776.53 -2.20583 1.53612 0
M  V30 18998 C 1774.8 -0.687249 3.5073 0
M  V30 18999 S 1776.36 -1.28624 4.19525 0
M  V30 19000 H 1773.17 -0.100972 0.703794 0
M  V30 19001 H 1775.78 0.412325 1.91102 0
M  V30 19002 H 1774.48 0.190782 4.09956 0
M  V30 19003 H 1774.01 -1.45736 3.6541 0
M  V30 19004 H 1776.03 -2.5745 4.24186 0
M  V30 19005 N 1775.2 -1.57593 0.0150662 0
M  V30 19006 C 1776.43 -1.95221 -0.676193 0
M  V30 19007 C 1776.84 -0.889349 -1.66995 0
M  V30 19008 O 1776.18 0.138825 -1.83175 0
M  V30 19009 C 1776.24 -3.28921 -1.45092 0
M  V30 19010 C 1775.91 -4.52815 -0.61707 0
M  V30 19011 C 1776.9 -5.19801 0.101686 0
M  V30 19012 C 1774.59 -4.99184 -0.558606 0
M  V30 19013 C 1776.58 -6.31466 0.86773 0
M  V30 19014 C 1774.27 -6.10735 0.211154 0
M  V30 19015 C 1775.27 -6.76734 0.923041 0
M  V30 19016 O 1774.95 -7.86145 1.68021 0
M  V30 19017 H 1774.69 -0.648074 -0.192293 0
M  V30 19018 H 1777.24 -2.05291 0.0668663 0
M  V30 19019 H 1775.47 -3.15301 -2.2388 0
M  V30 19020 H 1777.16 -3.51552 -2.02894 0
M  V30 19021 H 1777.93 -4.84955 0.0657637 0
M  V30 19022 H 1773.8 -4.47629 -1.10226 0
M  V30 19023 H 1777.35 -6.82913 1.42391 0
M  V30 19024 H 1773.25 -6.4502 0.248843 0
M  V30 19025 H 1774.01 -8.02739 1.5985 0
M  V30 19026 N 1776.68 0.257904 -1.55475 0
M  V30 19027 C 1777.62 1.31912 -1.89388 0
M  V30 19028 C 1778.59 1.48358 -0.746927 0
M  V30 19029 O 1779.78 1.62521 -0.999584 0
M  V30 19030 C 1776.92 2.67162 -2.18446 0
M  V30 19031 C 1776.03 2.58814 -3.45889 0
M  V30 19032 C 1775.17 3.86343 -3.64571 0
M  V30 19033 C 1774.21 3.72567 -4.85654 0
M  V30 19034 N 1773.34 4.91964 -5.00915 0
M  V30 19035 H 1778.18 1.02291 -2.79894 0
M  V30 19036 H 1775.72 0.493864 -1.38562 0
M  V30 19037 H 1777.68 3.45874 -2.33296 0
M  V30 19038 H 1776.31 2.94954 -1.31157 0
M  V30 19039 H 1775.36 1.7173 -3.39431 0
M  V30 19040 H 1776.67 2.4454 -4.34743 0
M  V30 19041 H 1775.83 4.73498 -3.79321 0
M  V30 19042 H 1774.56 4.03501 -2.7393 0
M  V30 19043 H 1773.57 2.83795 -4.70893 0
M  V30 19044 H 1774.79 3.56914 -5.77745 0
M  V30 19045 H 1772.74 5.09505 -4.13208 0
M  V30 19046 H 1772.66 4.80279 -5.83839 0
M  V30 19047 H 1773.93 5.80649 -5.20064 0
M  V30 19048 N 1778.15 1.48666 0.52309 0
M  V30 19049 C 1779.4 1.56286 1.27505 0
M  V30 19050 C 1779.72 0.244774 1.94062 0
M  V30 19051 O 1780.92 0.199289 2.70768 0
M  V30 19052 C 1779.38 2.75654 2.31393 0
M  V30 19053 C 1778.99 4.14133 1.70874 0
M  V30 19054 C 1780.73 2.92591 3.07556 0
M  V30 19055 C 1778.64 5.24752 2.72743 0
M  V30 19056 H 1777.57 0.581842 0.479558 0
M  V30 19057 H 1780.22 1.75013 0.551611 0
M  V30 19058 H 1778.6 2.50376 3.06803 0
M  V30 19059 H 1779.77 4.49458 1.01607 0
M  V30 19060 H 1778.09 4.0237 1.0718 0
M  V30 19061 H 1780.69 3.72403 3.83692 0
M  V30 19062 H 1781.03 2.02308 3.63837 0
M  V30 19063 H 1781.56 3.17804 2.39261 0
M  V30 19064 H 1778.3 6.17024 2.21273 0
M  V30 19065 H 1777.82 4.93907 3.40318 0
M  V30 19066 H 1779.5 5.53158 3.35598 0
M  V30 19067 N 1779.63 -0.772489 1.37369 0
M  V30 19068 C 1780.88 -1.53329 1.32733 0
M  V30 19069 C 1781.21 -1.93999 -0.0882815 0
M  V30 19070 O 1780.49 -1.64014 -1.04545 0
M  V30 19071 C 1780.77 -2.79885 2.26575 0
M  V30 19072 C 1780.62 -2.45474 3.76912 0
M  V30 19073 C 1781.94 -3.81812 2.18878 0
M  V30 19074 H 1779.06 -0.55625 0.483482 0
M  V30 19075 H 1781.7 -0.886251 1.68064 0
M  V30 19076 H 1779.85 -3.35097 1.96576 0
M  V30 19077 H 1781.52 -1.96182 4.17505 0
M  V30 19078 H 1779.77 -1.78181 3.95517 0
M  V30 19079 H 1780.44 -3.35937 4.38007 0
M  V30 19080 H 1782.91 -3.36091 2.4532 0
M  V30 19081 H 1781.79 -4.68087 2.86681 0
M  V30 19082 H 1782.05 -4.26021 1.18146 0
M  V30 19083 N 1781.11 -1.21927 -0.998575 0
M  V30 19084 C 1782.02 -1.00049 -2.12197 0
M  V30 19085 C 1783.04 0.0494414 -1.7393 0
M  V30 19086 O 1784.21 -0.142033 -2.00899 0
M  V30 19087 C 1781.28 -0.574871 -3.41901 0
M  V30 19088 C 1780.34 -1.69776 -3.94303 0
M  V30 19089 C 1779.57 -1.29236 -5.17816 0
M  V30 19090 O 1779.79 -0.168709 -5.7015 0
M  V30 19091 O 1778.73 -2.10671 -5.63827 0
M  V30 19092 H 1782.55 -1.94154 -2.33534 0
M  V30 19093 H 1780.14 -1.00472 -1.10571 0
M  V30 19094 H 1782.02 -0.347603 -4.19964 0
M  V30 19095 H 1780.7 0.337389 -3.21937 0
M  V30 19096 H 1779.6 -1.9795 -3.17438 0
M  V30 19097 H 1780.94 -2.58768 -4.18688 0
M  V30 19098 N 1782.59 1.19452 -1.02805 0
M  V30 19099 C 1783.54 2.20533 -0.578732 0
M  V30 19100 C 1784.52 1.56539 0.372081 0
M  V30 19101 O 1785.71 1.75943 0.193185 0
M  V30 19102 C 1782.84 3.43229 0.0698982 0
M  V30 19103 C 1781.93 4.14368 -0.903306 0
M  V30 19104 N 1782.32 4.61709 -2.0654 0
M  V30 19105 C 1780.62 4.40042 -0.726572 0
M  V30 19106 C 1781.32 5.1633 -2.67914 0
M  V30 19107 N 1780.3 5.0708 -1.95884 0
M  V30 19108 H 1784.1 2.54813 -1.46451 0
M  V30 19109 H 1781.61 1.35517 -0.894927 0
M  V30 19110 H 1783.61 4.14885 0.409411 0
M  V30 19111 H 1782.27 3.1045 0.951368 0
M  V30 19112 H 1783.28 4.5656 -2.44485 0
M  V30 19113 H 1779.96 4.17366 0.105875 0
M  V30 19114 H 1781.35 5.63254 -3.66326 0
M  V30 19115 N 1784.07 0.805805 1.35442 0
M  V30 19116 C 1785.01 0.203715 2.31706 0
M  V30 19117 C 1786.01 -0.646084 1.56595 0
M  V30 19118 O 1787.21 -0.539336 1.7173 0
M  V30 19119 H 1783.59 0.0471152 0.750523 0
M  V30 19120 H 1785.56 1.03076 2.80032 0
M  V30 19121 C 1784.31 -0.633791 3.41875 0
M  V30 19122 H 1783.63 0.0107715 3.99799 0
M  V30 19123 H 1785.07 -1.02147 4.11512 0
M  V30 19124 C 1783.53 -1.79899 2.84847 0
M  V30 19125 O 1784.06 -2.89643 2.78334 0
M  V30 19126 N 1782.27 -1.61027 2.41906 0
M  V30 19127 H 1781.81 -0.717599 2.47403 0
M  V30 19128 H 1781.77 -2.39147 2.04099 0
M  V30 19129 N 1785.54 -1.47344 0.559239 0
M  V30 19130 C 1786.79 -2.03352 0.0442371 0
M  V30 19131 C 1787.15 -1.42567 -1.29199 0
M  V30 19132 O 1786.44 -0.572705 -1.8284 0
M  V30 19133 C 1786.63 -3.57247 -0.104523 0
M  V30 19134 C 1786.46 -4.32955 1.21574 0
M  V30 19135 C 1785.23 -4.72775 1.78359 0
M  V30 19136 C 1787.43 -4.67962 2.13345 0
M  V30 19137 N 1785.41 -5.33135 3.04369 0
M  V30 19138 C 1786.78 -5.28646 3.23934 0
M  V30 19139 C 1788.84 -4.49891 2.13314 0
M  V30 19140 C 1787.54 -5.73167 4.34595 0
M  V30 19141 C 1789.57 -4.95412 3.22988 0
M  V30 19142 C 1788.93 -5.56146 4.32297 0
M  V30 19143 H 1785.03 -0.779816 0.0584005 0
M  V30 19144 H 1787.61 -1.79801 0.746976 0
M  V30 19145 H 1785.78 -3.80561 -0.776387 0
M  V30 19146 H 1787.51 -3.99895 -0.621775 0
M  V30 19147 H 1784.27 -4.54794 1.32133 0
M  V30 19148 H 1784.69 -5.67857 3.68602 0
M  V30 19149 H 1789.34 -4.0229 1.30086 0
M  V30 19150 H 1787.05 -6.19757 5.18581 0
M  V30 19151 H 1790.64 -4.83198 3.24054 0
M  V30 19152 H 1789.52 -5.90728 5.15762 0
M  V30 19153 N 1787.02 -0.295795 -1.54799 0
M  V30 19154 C 1788.27 0.315007 -2.00035 0
M  V30 19155 C 1788.6 1.54295 -1.1842 0
M  V30 19156 O 1787.85 1.94134 -0.247101 0
M  V30 19157 C 1788.15 0.721225 -3.50047 0
M  V30 19158 C 1787.82 -0.404395 -4.49083 0
M  V30 19159 C 1786.48 -0.713419 -4.75882 0
M  V30 19160 C 1788.83 -1.16185 -5.08085 0
M  V30 19161 C 1786.16 -1.78311 -5.58947 0
M  V30 19162 C 1788.51 -2.22142 -5.92314 0
M  V30 19163 C 1787.18 -2.53657 -6.17426 0
M  V30 19164 H 1786.45 0.115269 -0.73198 0
M  V30 19165 H 1789.09 -0.41381 -1.86976 0
M  V30 19166 H 1787.4 1.53005 -3.60689 0
M  V30 19167 H 1789.09 1.20491 -3.82469 0
M  V30 19168 H 1785.68 -0.153436 -4.28325 0
M  V30 19169 H 1789.87 -0.936365 -4.87387 0
M  V30 19170 H 1785.12 -2.03206 -5.76643 0
M  V30 19171 H 1789.3 -2.81296 -6.3706 0
M  V30 19172 H 1786.93 -3.36676 -6.81581 0
M  V30 19173 N 1788.5 1.57583 -0.0234236 0
M  V30 19174 C 1789.41 2.13328 0.976138 0
M  V30 19175 C 1790.43 1.08414 1.36097 0
M  V30 19176 O 1791.6 1.40441 1.44354 0
M  V30 19177 C 1788.67 2.64469 2.24181 0
M  V30 19178 C 1787.73 3.84076 1.91793 0
M  V30 19179 C 1786.96 4.32768 3.12326 0
M  V30 19180 O 1787.19 3.80663 4.24797 0
M  V30 19181 O 1786.12 5.24676 2.94956 0
M  V30 19182 H 1789.95 2.99001 0.532166 0
M  V30 19183 H 1787.53 1.48098 0.196838 0
M  V30 19184 H 1789.41 2.97456 2.98492 0
M  V30 19185 H 1788.09 1.81881 2.6777 0
M  V30 19186 H 1786.99 3.56023 1.14883 0
M  V30 19187 H 1788.33 4.67808 1.53024 0
M  V30 19188 N 1789.98 -0.249655 1.5561 0
M  V30 19189 C 1791.21 -0.995707 1.81365 0
M  V30 19190 C 1791.62 -1.79054 0.598767 0
M  V30 19191 O 1790.98 -1.773 -0.432538 0
M  V30 19192 C 1791.03 -1.93577 3.05303 0
M  V30 19193 O 1790.75 -1.17311 4.22102 0
M  V30 19194 C 1792.25 -2.79804 3.43838 0
M  V30 19195 H 1789.47 -0.293118 0.603591 0
M  V30 19196 H 1792.02 -0.273374 2.02665 0
M  V30 19197 H 1790.17 -2.61242 2.86062 0
M  V30 19198 H 1790.59 -1.80875 4.92326 0
M  V30 19199 H 1792.06 -3.4152 4.33668 0
M  V30 19200 H 1792.54 -3.50776 2.64298 0
M  V30 19201 H 1793.14 -2.17596 3.6542 0
M  V30 19202 N 1791.46 -1.48941 -0.515198 0
M  V30 19203 C 1792.7 -1.5771 -1.27019 0
M  V30 19204 C 1793.03 -0.257484 -1.92788 0
M  V30 19205 O 1792.29 0.753481 -1.80613 0
M  V30 19206 C 1792.59 -2.67508 -2.37011 0
M  V30 19207 C 1792.25 -4.09471 -1.88796 0
M  V30 19208 C 1790.91 -4.48108 -1.75365 0
M  V30 19209 C 1793.27 -4.98378 -1.52543 0
M  V30 19210 C 1790.59 -5.73438 -1.24038 0
M  V30 19211 C 1792.95 -6.24212 -1.02673 0
M  V30 19212 C 1791.61 -6.61691 -0.878703 0
M  V30 19213 H 1790.88 -0.577101 -0.464796 0
M  V30 19214 H 1793.53 -1.82718 -0.573279 0
M  V30 19215 H 1791.83 -2.36417 -3.12433 0
M  V30 19216 H 1793.53 -2.71505 -2.95104 0
M  V30 19217 H 1790.12 -3.78967 -2.00205 0
M  V30 19218 H 1794.3 -4.69194 -1.61773 0
M  V30 19219 H 1789.56 -6.01188 -1.11277 0
M  V30 19220 H 1793.73 -6.9249 -0.73697 0
M  V30 19221 H 1791.36 -7.58691 -0.478792 0
M  V30 19222 N 1792.94 0.765193 -1.37777 0
M  V30 19223 C 1794.18 1.51928 -1.32668 0
M  V30 19224 C 1794.5 1.95418 0.0844172 0
M  V30 19225 O 1795.7 2.70271 0.258001 0
M  V30 19226 C 1794.16 2.74377 -2.32906 0
M  V30 19227 C 1793.77 2.37959 -3.79578 0
M  V30 19228 C 1795.51 3.52302 -2.3682 0
M  V30 19229 C 1793.42 3.5695 -4.7153 0
M  V30 19230 H 1792.35 0.570412 -0.493098 0
M  V30 19231 H 1795 0.837531 -1.63272 0
M  V30 19232 H 1793.38 3.44474 -1.95329 0
M  V30 19233 H 1794.56 1.75603 -4.26028 0
M  V30 19234 H 1792.87 1.73194 -3.78672 0
M  V30 19235 H 1795.47 4.40754 -3.02721 0
M  V30 19236 H 1795.81 3.92631 -1.38371 0
M  V30 19237 H 1796.34 2.89207 -2.73137 0
M  V30 19238 H 1793.08 3.21697 -5.71132 0
M  V30 19239 H 1792.6 4.18388 -4.2978 0
M  V30 19240 H 1794.28 4.2368 -4.88983 0
M  V30 19241 N 1794.41 1.22455 0.992094 0
M  V30 19242 C 1795.66 1.05115 1.73432 0
M  V30 19243 C 1795.99 -0.412642 1.89765 0
M  V30 19244 O 1795.27 -1.3059 1.44141 0
M  V30 19245 C 1795.55 1.76385 3.13943 0
M  V30 19246 C 1795.4 3.30364 3.05253 0
M  V30 19247 C 1796.72 1.51688 4.13133 0
M  V30 19248 H 1793.84 0.383261 0.629508 0
M  V30 19249 H 1796.48 1.50805 1.15576 0
M  V30 19250 H 1794.63 1.37544 3.63337 0
M  V30 19251 H 1796.31 3.78655 2.63474 0
M  V30 19252 H 1794.55 3.6 2.42038 0
M  V30 19253 H 1795.22 3.75409 4.04687 0
M  V30 19254 H 1797.7 1.85429 3.72499 0
M  V30 19255 H 1796.57 2.04049 5.09564 0
M  V30 19256 H 1796.83 0.449654 4.39807 0
M  V30 19257 N 1795.89 -1.18905 1.03437 0
M  V30 19258 C 1797.14 -1.88727 0.734048 0
M  V30 19259 C 1797.47 -1.79964 -0.737773 0
M  V30 19260 O 1796.72 -1.19016 -1.5535 0
M  V30 19261 C 1797.02 -3.38811 1.13762 0
M  V30 19262 C 1796.69 -3.67777 2.60865 0
M  V30 19263 C 1795.35 -3.75393 3.01054 0
M  V30 19264 C 1797.7 -3.80666 3.5601 0
M  V30 19265 C 1795.03 -3.9337 4.35289 0
M  V30 19266 C 1797.38 -4.00158 4.89955 0
M  V30 19267 C 1796.04 -4.06007 5.29825 0
M  V30 19268 H 1795.31 -0.690602 0.268607 0
M  V30 19269 H 1797.96 -1.40777 1.29823 0
M  V30 19270 H 1796.27 -3.88697 0.492134 0
M  V30 19271 H 1797.96 -3.91164 0.882696 0
M  V30 19272 H 1794.55 -3.62462 2.28733 0
M  V30 19273 H 1798.74 -3.7412 3.2611 0
M  V30 19274 H 1793.99 -3.9614 4.65707 0
M  V30 19275 H 1798.17 -4.09073 5.63589 0
M  V30 19276 H 1795.79 -4.1969 6.33849 0
M  V30 19277 N 1797.37 -0.812977 -1.35013 0
M  V30 19278 C 1798.3 -0.173259 -2.27541 0
M  V30 19279 C 1799.28 0.664507 -1.48402 0
M  V30 19280 O 1800.46 0.630404 -1.77646 0
M  V30 19281 C 1797.59 0.758971 -3.30087 0
M  V30 19282 C 1796.64 1.06631e-05 -4.265 0
M  V30 19283 S 1797.47 -1.34039 -5.18453 0
M  V30 19284 C 1798.63 -0.412779 -6.24537 0
M  V30 19285 H 1798.86 -0.957746 -2.81451 0
M  V30 19286 H 1796.39 -0.608361 -1.4191 0
M  V30 19287 H 1798.35 1.29131 -3.89661 0
M  V30 19288 H 1797.01 1.5169 -2.75044 0
M  V30 19289 H 1796.2 0.7083 -4.98998 0
M  V30 19290 H 1795.81 -0.462563 -3.71128 0
M  V30 19291 H 1798.1 0.39951 -6.76321 0
M  V30 19292 H 1799.04 -1.10714 -6.99391 0
M  V30 19293 H 1799.45 -0.00563089 -5.645 0
M  V30 19294 N 1798.85 1.47045 -0.567045 0
M  V30 19295 C 1800.1 2.01651 -0.044479 0
M  V30 19296 C 1800.41 1.44583 1.31738 0
M  V30 19297 O 1801.62 1.90911 1.93042 0
M  V30 19298 C 1800.07 3.59888 -0.0289854 0
M  V30 19299 C 1799.68 4.25949 -1.38821 0
M  V30 19300 C 1801.42 4.22209 0.440457 0
M  V30 19301 C 1799.33 5.76221 -1.33129 0
M  V30 19302 H 1798.26 0.75389 -0.012858 0
M  V30 19303 H 1800.91 1.68939 -0.716363 0
M  V30 19304 H 1799.29 3.89606 0.708747 0
M  V30 19305 H 1800.47 4.07861 -2.14443 0
M  V30 19306 H 1798.78 3.75658 -1.79639 0
M  V30 19307 H 1801.38 5.32342 0.501592 0
M  V30 19308 H 1801.72 3.9006 1.45461 0
M  V30 19309 H 1802.26 3.97059 -0.242721 0
M  V30 19310 H 1798.99 6.13005 -2.32175 0
M  V30 19311 H 1798.51 5.96618 -0.617023 0
M  V30 19312 H 1800.19 6.38627 -1.03752 0
M  V30 19313 N 1800.33 0.304 1.5464 0
M  V30 19314 C 1801.26 -0.563854 2.2659 0
M  V30 19315 C 1802.24 -1.13547 1.26653 0
M  V30 19316 O 1803.42 -1.16425 1.55431 0
M  V30 19317 C 1800.55 -1.73437 3.00894 0
M  V30 19318 C 1799.51 -1.29297 4.08003 0
M  V30 19319 C 1798.83 -2.54888 4.70038 0
M  V30 19320 C 1800.13 -0.422027 5.20592 0
M  V30 19321 H 1801.83 0.0362569 2.99378 0
M  V30 19322 H 1799.37 0.0188781 1.43988 0
M  V30 19323 H 1801.32 -2.34762 3.4995 0
M  V30 19324 H 1800.05 -2.36076 2.25689 0
M  V30 19325 H 1798.71 -0.702757 3.59801 0
M  V30 19326 H 1798.36 -3.15848 3.9147 0
M  V30 19327 H 1798.06 -2.26054 5.42378 0
M  V30 19328 H 1799.58 -3.17011 5.21859 0
M  V30 19329 H 1800.99 -0.941036 5.65524 0
M  V30 19330 H 1799.39 -0.227323 5.99669 0
M  V30 19331 H 1800.46 0.55212 4.81746 0
M  V30 19332 N 1801.8 -1.57568 0.0317802 0
M  V30 19333 C 1802.73 -2.13412 -0.947499 0
M  V30 19334 C 1803.71 -1.05091 -1.33753 0
M  V30 19335 O 1804.9 -1.32936 -1.41568 0
M  V30 19336 C 1802.03 -2.66337 -2.22895 0
M  V30 19337 C 1800.98 -3.79469 -1.97958 0
M  V30 19338 C 1800.31 -4.18833 -3.3239 0
M  V30 19339 C 1801.61 -5.05432 -1.31664 0
M  V30 19340 H 1803.3 -2.95488 -0.482417 0
M  V30 19341 H 1800.85 -1.42142 -0.230603 0
M  V30 19342 H 1802.8 -3.04039 -2.91784 0
M  V30 19343 H 1801.53 -1.81426 -2.71574 0
M  V30 19344 H 1800.19 -3.42209 -1.31485 0
M  V30 19345 H 1799.83 -3.30899 -3.78833 0
M  V30 19346 H 1799.53 -4.95071 -3.16511 0
M  V30 19347 H 1801.06 -4.5912 -4.02544 0
M  V30 19348 H 1802.47 -5.40704 -1.90558 0
M  V30 19349 H 1800.87 -5.86686 -1.26173 0
M  V30 19350 H 1801.94 -4.84032 -0.28996 0
M  V30 19351 N 1803.28 0.241399 -1.5574 0
M  V30 19352 C 1804.51 0.99028 -1.82231 0
M  V30 19353 C 1804.93 1.77949 -0.609559 0
M  V30 19354 O 1804.29 1.75843 0.44148 0
M  V30 19355 C 1804.34 1.89947 -3.06516 0
M  V30 19356 O 1803.44 2.99201 -2.83818 0
M  V30 19357 H 1802.78 0.281488 -0.601382 0
M  V30 19358 H 1805.31 0.260721 -2.02932 0
M  V30 19359 H 1805.32 2.31308 -3.36096 0
M  V30 19360 H 1804 1.31924 -3.94422 0
M  V30 19361 H 1802.58 2.61929 -2.6542 0
M  V30 19362 N 1804.76 1.49212 0.507292 0
M  V30 19363 C 1805.99 1.62343 1.29072 0
M  V30 19364 C 1806.41 0.292387 1.85814 0
M  V30 19365 O 1805.77 -0.739145 1.65549 0
M  V30 19366 C 1805.82 2.69017 2.40129 0
M  V30 19367 O 1804.92 2.27753 3.43806 0
M  V30 19368 H 1804.26 0.543591 0.38132 0
M  V30 19369 H 1806.79 1.95358 0.607997 0
M  V30 19370 H 1806.8 2.90992 2.85985 0
M  V30 19371 H 1805.48 3.65638 1.98195 0
M  V30 19372 H 1804.05 2.16084 3.03912 0
M  V30 19373 N 1806.24 -0.757876 1.38181 0
M  V30 19374 C 1807.49 -1.51388 1.33888 0
M  V30 19375 C 1807.81 -1.94867 -0.0718767 0
M  V30 19376 O 1807.08 -1.67329 -1.01871 0
M  V30 19377 H 1805.66 -0.561534 0.492634 0
M  V30 19378 H 1808.32 -0.901156 1.72815 0
M  V30 19379 H 1807.42 -2.4068 1.98695 0
M  V30 19380 N 1807.72 -1.22979 -0.985586 0
M  V30 19381 C 1808.68 -1.00763 -2.05862 0
M  V30 19382 C 1809.68 0.02864 -1.60774 0
M  V30 19383 O 1810.87 -0.210593 -1.72922 0
M  V30 19384 C 1808 -0.523547 -3.36856 0
M  V30 19385 H 1809.19 -1.95982 -2.27004 0
M  V30 19386 H 1806.75 -1.0495 -1.15824 0
M  V30 19387 H 1807.48 0.432658 -3.21401 0
M  V30 19388 H 1807.27 -1.27127 -3.70919 0
M  V30 19389 H 1808.76 -0.388591 -4.15788 0
M  V30 19390 N 1809.19 1.18355 -1.04066 0
M  V30 19391 C 1810.12 2.24196 -0.652568 0
M  V30 19392 C 1811.11 1.66581 0.344195 0
M  V30 19393 O 1812.29 1.929 0.224296 0
M  V30 19394 C 1809.42 3.47297 -0.0147409 0
M  V30 19395 C 1808.37 4.17661 -0.935044 0
M  V30 19396 C 1807.7 5.34455 -0.161692 0
M  V30 19397 C 1809 4.71153 -2.25415 0
M  V30 19398 H 1810.69 2.56914 -1.53738 0
M  V30 19399 H 1808.24 1.23492 -0.740658 0
M  V30 19400 H 1810.19 4.20544 0.268484 0
M  V30 19401 H 1808.92 3.13812 0.904949 0
M  V30 19402 H 1807.58 3.46312 -1.20265 0
M  V30 19403 H 1807.22 4.97219 0.760404 0
M  V30 19404 H 1806.92 5.82469 -0.774805 0
M  V30 19405 H 1808.45 6.10493 0.114515 0
M  V30 19406 H 1809.86 5.36095 -2.03163 0
M  V30 19407 H 1808.26 5.29701 -2.82022 0
M  V30 19408 H 1809.33 3.88576 -2.90064 0
M  V30 19409 N 1810.67 0.820125 1.3458 0
M  V30 19410 C 1811.64 0.245462 2.27882 0
M  V30 19411 C 1812.64 -0.575025 1.50167 0
M  V30 19412 O 1813.83 -0.391536 1.69743 0
M  V30 19413 C 1810.96 -0.656199 3.34525 0
M  V30 19414 H 1812.15 1.06853 2.80218 0
M  V30 19415 H 1809.7 0.591777 1.44664 0
M  V30 19416 H 1810.44 -1.50244 2.87398 0
M  V30 19417 H 1810.22 -0.0693951 3.92039 0
M  V30 19418 H 1811.71 -1.05216 4.04128 0
M  V30 19419 N 1812.15 -1.46743 0.574835 0
M  V30 19420 C 1813.4 -2.02419 0.0574154 0
M  V30 19421 C 1813.73 -1.44723 -1.29944 0
M  V30 19422 O 1812.98 -0.599149 -1.86303 0
M  V30 19423 C 1813.28 -3.57338 -0.0666259 0
M  V30 19424 C 1812.95 -4.34036 1.22161 0
M  V30 19425 C 1811.61 -4.5471 1.57457 0
M  V30 19426 C 1813.96 -4.78137 2.07448 0
M  V30 19427 C 1811.29 -5.16735 2.77852 0
M  V30 19428 C 1813.64 -5.41492 3.27062 0
M  V30 19429 C 1812.3 -5.60394 3.6265 0
M  V30 19430 H 1811.57 -0.740702 0.0210098 0
M  V30 19431 H 1814.22 -1.76207 0.749892 0
M  V30 19432 H 1812.53 -3.82642 -0.842183 0
M  V30 19433 H 1814.22 -3.98085 -0.482605 0
M  V30 19434 H 1810.81 -4.18236 0.936826 0
M  V30 19435 H 1815 -4.61928 1.81484 0
M  V30 19436 H 1810.25 -5.29562 3.05572 0
M  V30 19437 H 1814.43 -5.74623 3.93422 0
M  V30 19438 H 1812.05 -6.08226 4.56032 0
M  V30 19439 N 1813.63 -0.312197 -1.54477 0
M  V30 19440 C 1814.54 0.568096 -2.27618 0
M  V30 19441 C 1815.55 1.13892 -1.31547 0
M  V30 19442 O 1816.73 1.16131 -1.64546 0
M  V30 19443 C 1813.8 1.71843 -3.01116 0
M  V30 19444 C 1812.86 1.18056 -4.12748 0
M  V30 19445 C 1812.09 2.27607 -4.82733 0
M  V30 19446 O 1812.31 3.4773 -4.52151 0
M  V30 19447 O 1811.25 1.93667 -5.69892 0
M  V30 19448 H 1815.07 -0.0255513 -3.03689 0
M  V30 19449 H 1812.66 -0.0782698 -1.49195 0
M  V30 19450 H 1814.54 2.38839 -3.4718 0
M  V30 19451 H 1813.21 2.29847 -2.2793 0
M  V30 19452 H 1812.12 0.476007 -3.71059 0
M  V30 19453 H 1813.45 0.645802 -4.87945 0
M  V30 19454 N 1815.11 1.57549 -0.040136 0
M  V30 19455 C 1816.38 1.83571 0.675355 0
M  V30 19456 C 1816.76 0.926313 1.89691 0
M  V30 19457 O 1816.11 -0.0153869 2.28495 0
M  V30 19458 C 1816.32 3.33046 1.04313 0
M  V30 19459 C 1817.67 3.99791 1.43011 0
M  V30 19460 O 1818.69 3.37607 1.13579 0
M  V30 19461 O 1817.55 5.09412 1.97893 0
M  V30 19462 H 1814.65 0.75729 0.332325 0
M  V30 19463 H 1817.19 1.69561 -0.0686584 0
M  V30 19464 H 1815.96 3.90912 0.174189 0
M  V30 19465 H 1815.59 3.52203 1.84495 0
M  V30 19466 N 1816.58 -0.233136 1.55866 0
M  V30 19467 C 1817.83 -0.957205 1.7754 0
M  V30 19468 C 1818.15 -1.85956 0.606601 0
M  V30 19469 O 1819.35 -2.62142 0.706687 0
M  V30 19470 C 1817.81 -1.75215 3.14369 0
M  V30 19471 C 1817.42 -0.896509 4.38938 0
M  V30 19472 C 1819.16 -2.46813 3.45374 0
M  V30 19473 C 1817.07 -1.68814 5.66794 0
M  V30 19474 H 1816 -0.361139 0.661887 0
M  V30 19475 H 1818.65 -0.211424 1.82278 0
M  V30 19476 H 1817.03 -2.54041 3.03775 0
M  V30 19477 H 1818.2 -0.149614 4.60557 0
M  V30 19478 H 1816.52 -0.293211 4.15366 0
M  V30 19479 H 1819.12 -3.0652 4.38121 0
M  V30 19480 H 1819.46 -3.19121 2.67334 0
M  V30 19481 H 1819.99 -1.74987 3.57245 0
M  V30 19482 H 1816.73 -1.00855 6.47695 0
M  V30 19483 H 1816.25 -2.40995 5.49255 0
M  V30 19484 H 1817.93 -2.25178 6.06551 0
M  V30 19485 N 1818.06 -1.49479 -0.499372 0
M  V30 19486 C 1819.29 -1.62524 -1.27552 0
M  V30 19487 C 1819.7 -0.296533 -1.86862 0
M  V30 19488 O 1819.04 0.728236 -1.68649 0
M  V30 19489 C 1819.11 -2.63674 -2.44369 0
M  V30 19490 C 1818.77 -4.0798 -2.05916 0
M  V30 19491 C 1819.77 -4.94733 -1.59797 0
M  V30 19492 C 1817.45 -4.53723 -2.15501 0
M  V30 19493 C 1819.45 -6.25268 -1.23768 0
M  V30 19494 C 1817.13 -5.84271 -1.79084 0
M  V30 19495 C 1818.13 -6.69867 -1.33292 0
M  V30 19496 O 1817.82 -7.97982 -0.97368 0
M  V30 19497 H 1817.55 -0.550018 -0.393009 0
M  V30 19498 H 1820.11 -1.96261 -0.605856 0
M  V30 19499 H 1818.34 -2.2512 -3.14417 0
M  V30 19500 H 1820.02 -2.66231 -3.06392 0
M  V30 19501 H 1820.79 -4.6062 -1.51836 0
M  V30 19502 H 1816.67 -3.87264 -2.50095 0
M  V30 19503 H 1820.21 -6.92033 -0.879542 0
M  V30 19504 H 1816.11 -6.17912 -1.86695 0
M  V30 19505 H 1816.88 -8.11007 -1.10501 0
M  V30 19506 N 1819.54 0.750537 -1.38581 0
M  V30 19507 C 1820.79 1.50512 -1.34272 0
M  V30 19508 C 1821.1 1.95496 0.0636858 0
M  V30 19509 O 1822.31 2.7053 0.22932 0
M  V30 19510 C 1820.77 2.71891 -2.35803 0
M  V30 19511 C 1820.37 2.3392 -3.8208 0
M  V30 19512 C 1822.12 3.4977 -2.40543 0
M  V30 19513 C 1820.02 3.51928 -4.7529 0
M  V30 19514 H 1818.95 0.56515 -0.49912 0
M  V30 19515 H 1821.61 0.820167 -1.64151 0
M  V30 19516 H 1819.99 3.42383 -1.98972 0
M  V30 19517 H 1821.16 1.71075 -4.27867 0
M  V30 19518 H 1819.48 1.69168 -3.80488 0
M  V30 19519 H 1822.07 4.37519 -3.07379 0
M  V30 19520 H 1822.42 3.91141 -1.42527 0
M  V30 19521 H 1822.95 2.86294 -2.76189 0
M  V30 19522 H 1819.69 3.15621 -5.74512 0
M  V30 19523 H 1819.21 4.13807 -4.34194 0
M  V30 19524 H 1820.89 4.1847 -4.93449 0
M  V30 19525 N 1821.02 1.235 0.979051 0
M  V30 19526 C 1821.93 1.03412 2.10578 0
M  V30 19527 C 1822.95 -0.0217644 1.73986 0
M  V30 19528 O 1824.12 0.173977 2.00647 0
M  V30 19529 C 1821.19 0.629192 3.40943 0
M  V30 19530 C 1820.25 1.76028 3.91552 0
M  V30 19531 C 1819.48 1.37457 5.15695 0
M  V30 19532 O 1819.7 0.259393 5.6981 0
M  V30 19533 O 1818.64 2.19614 5.60404 0
M  V30 19534 H 1822.46 1.97845 2.30415 0
M  V30 19535 H 1820.05 1.02218 1.08958 0
M  V30 19536 H 1821.93 0.414372 4.19358 0
M  V30 19537 H 1820.61 -0.286128 3.22433 0
M  V30 19538 H 1819.51 2.02975 3.14248 0
M  V30 19539 H 1820.85 2.65396 4.14519 0
M  V30 19540 N 1822.5 -1.17802 1.04693 0
M  V30 19541 C 1823.43 -2.21166 0.601507 0
M  V30 19542 C 1824.44 -1.59376 -0.332128 0
M  V30 19543 O 1825.63 -1.78057 -0.125653 0
M  V30 19544 C 1822.73 -3.38609 -0.140442 0
M  V30 19545 C 1821.9 -4.29973 0.802637 0
M  V30 19546 C 1820.96 -5.26099 0.102853 0
M  V30 19547 O 1819.99 -5.6443 0.735325 0
M  V30 19548 N 1821.19 -5.68761 -1.16154 0
M  V30 19549 H 1823.96 -2.60004 1.49057 0
M  V30 19550 H 1821.52 -1.3265 0.928199 0
M  V30 19551 H 1823.51 -3.99944 -0.618587 0
M  V30 19552 H 1822.08 -2.98411 -0.931117 0
M  V30 19553 H 1821.3 -3.66146 1.46051 0
M  V30 19554 H 1822.59 -4.8791 1.44296 0
M  V30 19555 H 1821.99 -5.39684 -1.6958 0
M  V30 19556 H 1820.54 -6.32264 -1.58384 0
M  V30 19557 N 1823.98 -0.827251 -1.34143 0
M  V30 19558 C 1825.39 -0.513554 -1.51112 0
M  V30 19559 C 1825.59 0.961434 -1.77084 0
M  V30 19560 O 1824.65 1.74573 -1.82429 0
M  V30 19561 C 1825.96 -1.37683 -2.67327 0
M  V30 19562 C 1827.51 -1.3744 -2.8121 0
M  V30 19563 C 1827.98 -2.22226 -4.00474 0
M  V30 19564 N 1829.47 -2.19873 -4.07689 0
M  V30 19565 C 1830.21 -2.82222 -4.99138 0
M  V30 19566 N 1829.71 -3.53578 -5.95781 0
M  V30 19567 N 1831.5 -2.71753 -4.92043 0
M  V30 19568 H 1823.65 -1.78222 -1.15545 0
M  V30 19569 H 1825.91 -0.759711 -0.567047 0
M  V30 19570 H 1825.62 -2.42448 -2.54778 0
M  V30 19571 H 1825.49 -1.0446 -3.62447 0
M  V30 19572 H 1827.88 -0.334525 -2.93198 0
M  V30 19573 H 1827.96 -1.74663 -1.86886 0
M  V30 19574 H 1827.6 -3.26266 -3.89246 0
M  V30 19575 H 1827.53 -1.82352 -4.9402 0
M  V30 19576 H 1830.03 -1.67972 -3.38517 0
M  V30 19577 H 1830.34 -3.98387 -6.62199 0
M  V30 19578 H 1828.68 -3.57685 -5.95892 0
M  V30 19579 H 1831.87 -2.15579 -4.15504 0
M  V30 19580 H 1832.05 -3.2063 -5.63117 0
M  V30 19581 N 1825.45 1.46436 -0.582609 0
M  V30 19582 C 1826.4 2.30308 0.150697 0
M  V30 19583 C 1827.37 1.40611 0.884185 0
M  V30 19584 O 1828.56 1.6956 0.874874 0
M  V30 19585 C 1825.7 3.25074 1.15847 0
M  V30 19586 C 1824.81 4.2987 0.428442 0
M  V30 19587 C 1823.94 5.11765 1.42373 0
M  V30 19588 C 1822.98 6.0831 0.680103 0
M  V30 19589 N 1822.12 6.83073 1.62345 0
M  V30 19590 H 1826.96 2.92487 -0.570583 0
M  V30 19591 H 1824.5 1.44148 -0.293195 0
M  V30 19592 H 1826.45 3.78462 1.75563 0
M  V30 19593 H 1825.08 2.64704 1.84747 0
M  V30 19594 H 1824.14 3.7934 -0.283744 0
M  V30 19595 H 1825.45 4.98566 -0.15291 0
M  V30 19596 H 1824.6 5.69429 2.09369 0
M  V30 19597 H 1823.34 4.4303 2.03902 0
M  V30 19598 H 1822.35 5.498 -0.00363067 0
M  V30 19599 H 1823.57 6.79064 0.0702152 0
M  V30 19600 H 1821.52 6.17048 2.22684 0
M  V30 19601 H 1821.43 7.48029 1.0949 0
M  V30 19602 H 1822.7 7.45295 2.28376 0
M  V30 19603 N 1826.93 0.320385 1.54309 0
M  V30 19604 C 1828.16 -0.285197 2.04925 0
M  V30 19605 C 1828.57 -1.46029 1.1967 0
M  V30 19606 O 1827.93 -1.81087 0.22665 0
M  V30 19607 C 1827.98 -0.722736 3.54202 0
M  V30 19608 O 1827.7 0.40561 4.36218 0
M  V30 19609 C 1829.2 -1.39146 4.20896 0
M  V30 19610 H 1826.42 -0.0591612 0.668387 0
M  V30 19611 H 1828.97 0.46565 1.99128 0
M  V30 19612 H 1827.12 -1.42356 3.60296 0
M  V30 19613 H 1827.54 0.0614526 5.24464 0
M  V30 19614 H 1829.01 -1.64858 5.26807 0
M  V30 19615 H 1829.49 -2.33774 3.71815 0
M  V30 19616 H 1830.09 -0.733291 4.18931 0
M  V30 19617 N 1828.41 -1.57525 0.0484906 0
M  V30 19618 C 1829.66 -1.91761 -0.625335 0
M  V30 19619 C 1829.97 -0.928421 -1.72162 0
M  V30 19620 O 1831.18 -1.16273 -2.45342 0
M  V30 19621 C 1829.63 -3.40571 -1.1636 0
M  V30 19622 C 1829.24 -4.47889 -0.0995687 0
M  V30 19623 C 1830.99 -3.83845 -1.81282 0
M  V30 19624 C 1828.89 -5.87811 -0.650563 0
M  V30 19625 H 1827.82 -0.71567 -0.237346 0
M  V30 19626 H 1830.47 -1.83127 0.116944 0
M  V30 19627 H 1828.86 -3.44201 -1.95811 0
M  V30 19628 H 1830.03 -4.55846 0.673904 0
M  V30 19629 H 1828.34 -4.13939 0.452038 0
M  V30 19630 H 1830.94 -4.8575 -2.23497 0
M  V30 19631 H 1831.28 -3.19947 -2.66345 0
M  V30 19632 H 1831.82 -3.8272 -1.08491 0
M  V30 19633 H 1828.56 -6.55299 0.162371 0
M  V30 19634 H 1828.08 -5.83422 -1.39208 0
M  V30 19635 H 1829.76 -6.36979 -1.1343 0
M  V30 19636 N 1829.89 0.224867 -1.55988 0
M  V30 19637 C 1830.83 1.27865 -1.92144 0
M  V30 19638 C 1831.8 1.46741 -0.778228 0
M  V30 19639 O 1832.99 1.60364 -1.03383 0
M  V30 19640 C 1830.13 2.62468 -2.24063 0
M  V30 19641 C 1829.24 2.51419 -3.51301 0
M  V30 19642 C 1828.38 3.78523 -3.72684 0
M  V30 19643 C 1827.42 3.62182 -4.93448 0
M  V30 19644 N 1826.55 4.81228 -5.11237 0
M  V30 19645 H 1831.39 0.96331 -2.82001 0
M  V30 19646 H 1828.93 0.464362 -1.39578 0
M  V30 19647 H 1830.89 3.40848 -2.4058 0
M  V30 19648 H 1829.52 2.92105 -1.37384 0
M  V30 19649 H 1828.57 1.64491 -3.42997 0
M  V30 19650 H 1829.88 2.35263 -4.39833 0
M  V30 19651 H 1829.04 4.65346 -3.89279 0
M  V30 19652 H 1827.78 3.976 -2.82428 0
M  V30 19653 H 1826.78 2.73743 -4.76807 0
M  V30 19654 H 1828.01 3.44579 -5.85186 0
M  V30 19655 H 1825.95 5.00625 -4.23923 0
M  V30 19656 H 1825.87 4.67787 -5.93895 0
M  V30 19657 H 1827.14 5.69487 -5.32264 0
M  V30 19658 N 1831.37 1.49742 0.491438 0
M  V30 19659 C 1832.59 1.63435 1.26873 0
M  V30 19660 C 1833.01 0.309516 1.86246 0
M  V30 19661 O 1832.37 -0.706178 1.68284 0
M  V30 19662 C 1832.42 2.71034 2.39213 0
M  V30 19663 O 1832.14 3.98379 1.82278 0
M  V30 19664 C 1833.64 2.95518 3.3043 0
M  V30 19665 H 1830.86 0.54994 0.384457 0
M  V30 19666 H 1833.4 1.95837 0.588914 0
M  V30 19667 H 1831.56 2.41384 3.03006 0
M  V30 19668 H 1831.97 4.57725 2.56101 0
M  V30 19669 H 1833.45 3.74517 4.05513 0
M  V30 19670 H 1833.92 2.058 3.87999 0
M  V30 19671 H 1834.53 3.26622 2.72393 0
M  V30 19672 N 1832.84 -0.743177 1.38977 0
M  V30 19673 C 1833.78 -1.86554 1.31427 0
M  V30 19674 C 1834.76 -1.61493 0.189386 0
M  V30 19675 O 1835.94 -1.84864 0.368464 0
M  V30 19676 C 1833.07 -3.22375 1.03884 0
M  V30 19677 C 1832.11 -3.66308 2.18451 0
M  V30 19678 S 1832.95 -3.76628 3.80672 0
M  V30 19679 C 1834.1 -5.15253 3.55338 0
M  V30 19680 H 1834.33 -1.92674 2.26416 0
M  V30 19681 H 1831.87 -0.907215 1.24936 0
M  V30 19682 H 1833.83 -4.00807 0.88677 0
M  V30 19683 H 1832.49 -3.13921 0.105952 0
M  V30 19684 H 1831.68 -4.64852 1.94752 0
M  V30 19685 H 1831.28 -2.95058 2.29819 0
M  V30 19686 H 1833.57 -6.01333 3.12097 0
M  V30 19687 H 1834.52 -5.43977 4.53315 0
M  V30 19688 H 1834.92 -4.84542 2.89619 0
M  V30 19689 N 1834.32 -1.24018 -0.972487 0
M  V30 19690 C 1835.25 -1.0529 -2.08414 0
M  V30 19691 C 1836.23 0.0326663 -1.70069 0
M  V30 19692 O 1837.42 -0.133494 -1.93741 0
M  V30 19693 C 1834.55 -0.651796 -3.41129 0
M  V30 19694 C 1833.5 -1.68559 -3.9341 0
M  V30 19695 C 1832.83 -1.1397 -5.22413 0
M  V30 19696 C 1834.13 -3.08046 -4.21788 0
M  V30 19697 H 1835.82 -1.98272 -2.2434 0
M  V30 19698 H 1833.37 -0.954694 -1.07804 0
M  V30 19699 H 1835.32 -0.507792 -4.18329 0
M  V30 19700 H 1834.05 0.313722 -3.2509 0
M  V30 19701 H 1832.7 -1.81773 -3.18362 0
M  V30 19702 H 1832.35 -0.164928 -5.0273 0
M  V30 19703 H 1832.05 -1.83051 -5.5836 0
M  V30 19704 H 1833.58 -1.00771 -6.02227 0
M  V30 19705 H 1834.99 -2.98088 -4.8971 0
M  V30 19706 H 1833.39 -3.74436 -4.68954 0
M  V30 19707 H 1834.46 -3.56444 -3.28749 0
M  V30 19708 N 1835.8 1.17245 -1.05316 0
M  V30 19709 C 1836.71 2.24948 -0.666011 0
M  V30 19710 C 1837.73 1.71153 0.313478 0
M  V30 19711 O 1838.9 2.00721 0.165262 0
M  V30 19712 C 1835.97 3.46667 -0.0480198 0
M  V30 19713 C 1835.03 4.15542 -1.07812 0
M  V30 19714 C 1834.26 5.3145 -0.48952 0
M  V30 19715 O 1834.48 5.6608 0.700668 0
M  V30 19716 O 1833.42 5.89315 -1.22439 0
M  V30 19717 H 1837.24 2.60353 -1.56365 0
M  V30 19718 H 1834.83 1.24569 -0.8248 0
M  V30 19719 H 1836.71 4.20364 0.295366 0
M  V30 19720 H 1835.39 3.13056 0.823248 0
M  V30 19721 H 1834.29 3.43858 -1.47351 0
M  V30 19722 H 1835.63 4.53183 -1.92057 0
M  V30 19723 N 1837.28 0.834353 1.33702 0
M  V30 19724 C 1838.51 0.440589 2.01847 0
M  V30 19725 C 1838.92 -0.961513 1.62947 0
M  V30 19726 O 1838.26 -1.63556 0.836377 0
M  V30 19727 C 1838.32 0.476396 3.5633 0
M  V30 19728 C 1837.99 1.83382 4.18593 0
M  V30 19729 C 1838.98 2.79638 4.3829 0
M  V30 19730 C 1836.67 2.12543 4.55116 0
M  V30 19731 C 1838.66 4.0322 4.93652 0
M  V30 19732 C 1836.35 3.36382 5.10187 0
M  V30 19733 C 1837.35 4.31537 5.294 0
M  V30 19734 O 1837.03 5.53187 5.833 0
M  V30 19735 H 1836.77 0.173726 0.653296 0
M  V30 19736 H 1839.32 1.1272 1.71707 0
M  V30 19737 H 1837.55 -0.266969 3.85777 0
M  V30 19738 H 1839.24 0.101088 4.05774 0
M  V30 19739 H 1840.01 2.58409 4.10427 0
M  V30 19740 H 1835.88 1.39274 4.39459 0
M  V30 19741 H 1839.43 4.77502 5.08564 0
M  V30 19742 H 1835.33 3.5747 5.3748 0
M  V30 19743 H 1836.09 5.54864 6.01721 0
M  V30 19744 N 1838.76 -1.46125 0.590367 0
M  V30 19745 C 1839.72 -2.2884 -0.128368 0
M  V30 19746 C 1840.72 -1.38818 -0.81156 0
M  V30 19747 O 1841.91 -1.61117 -0.662347 0
M  V30 19748 C 1839.04 -3.19402 -1.19144 0
M  V30 19749 H 1840.23 -2.93864 0.598641 0
M  V30 19750 H 1837.79 -1.52362 0.34866 0
M  V30 19751 H 1838.52 -2.59141 -1.94978 0
M  V30 19752 H 1838.31 -3.85692 -0.705973 0
M  V30 19753 H 1839.8 -3.8164 -1.69532 0
M  V30 19754 N 1840.23 -0.328564 -1.54137 0
M  V30 19755 C 1841.51 0.327026 -1.92847 0
M  V30 19756 C 1841.89 1.69472 -1.25867 0
M  V30 19757 O 1841.24 2.24897 -0.404172 0
M  V30 19758 C 1841.45 0.414261 -3.46533 0
M  V30 19759 C 1842.8 0.672189 -4.19245 0
M  V30 19760 O 1843.82 0.496982 -3.52716 0
M  V30 19761 O 1842.68 1.01053 -5.37076 0
M  V30 19762 H 1839.77 0.187716 -0.805414 0
M  V30 19763 H 1842.32 -0.378645 -1.65422 0
M  V30 19764 H 1841.09 -0.54611 -3.8747 0
M  V30 19765 H 1840.72 1.16731 -3.80078 0
M  V30 19766 N 1841.71 1.57497 -0.0568439 0
M  V30 19767 C 1842.66 2.11862 0.915593 0
M  V30 19768 C 1843.63 1.02738 1.30515 0
M  V30 19769 O 1844.81 1.30318 1.39362 0
M  V30 19770 C 1841.95 2.67269 2.18315 0
M  V30 19771 C 1841.07 3.90498 1.84757 0
M  V30 19772 C 1840.2 4.342 3.06013 0
M  V30 19773 C 1839.24 5.50115 2.68403 0
M  V30 19774 N 1838.38 5.88844 3.8237 0
M  V30 19775 H 1843.22 2.94657 0.445101 0
M  V30 19776 H 1840.76 1.45621 0.20807 0
M  V30 19777 H 1842.71 2.97494 2.92494 0
M  V30 19778 H 1841.34 1.87262 2.62931 0
M  V30 19779 H 1840.4 3.66828 1.00703 0
M  V30 19780 H 1841.71 4.7473 1.53077 0
M  V30 19781 H 1840.86 4.66008 3.88486 0
M  V30 19782 H 1839.6 3.4879 3.40876 0
M  V30 19783 H 1838.61 5.17973 1.84348 0
M  V30 19784 H 1839.83 6.37244 2.34726 0
M  V30 19785 H 1837.78 5.06387 4.17024 0
M  V30 19786 H 1837.69 6.67781 3.54407 0
M  V30 19787 H 1838.96 6.25269 4.65466 0
M  V30 19788 N 1843.19 -0.216591 1.56105 0
M  V30 19789 C 1844.44 -0.941642 1.79613 0
M  V30 19790 C 1844.77 -1.83789 0.627323 0
M  V30 19791 O 1844.04 -1.90886 -0.373195 0
M  V30 19792 C 1844.33 -1.77634 3.13238 0
M  V30 19793 C 1844.18 -0.906251 4.40576 0
M  V30 19794 C 1845.5 -2.75315 3.4335 0
M  V30 19795 H 1842.62 -0.340898 0.65342 0
M  V30 19796 H 1845.26 -0.210217 1.88833 0
M  V30 19797 H 1843.41 -2.39993 3.05509 0
M  V30 19798 H 1845.08 -0.299023 4.6033 0
M  V30 19799 H 1843.33 -0.211902 4.33282 0
M  V30 19800 H 1844 -1.52478 5.30523 0
M  V30 19801 H 1846.47 -2.23091 3.5124 0
M  V30 19802 H 1845.35 -3.30816 4.38009 0
M  V30 19803 H 1845.61 -3.53301 2.65765 0
M  V30 19804 N 1844.67 -1.5 -0.48349 0
M  V30 19805 C 1845.92 -1.60369 -1.23645 0
M  V30 19806 C 1846.24 -0.298319 -1.92199 0
M  V30 19807 O 1845.5 0.715001 -1.82171 0
M  V30 19808 C 1845.8 -2.72475 -2.31283 0
M  V30 19809 C 1845.46 -4.13384 -1.80068 0
M  V30 19810 C 1844.13 -4.51727 -1.65821 0
M  V30 19811 C 1846.48 -5.01501 -1.41937 0
M  V30 19812 C 1843.81 -5.7594 -1.11847 0
M  V30 19813 C 1846.16 -6.2625 -0.894093 0
M  V30 19814 C 1844.82 -6.63406 -0.738151 0
M  V30 19815 H 1844.09 -0.58683 -0.452451 0
M  V30 19816 H 1846.74 -1.83893 -0.534393 0
M  V30 19817 H 1845.04 -2.42991 -3.07348 0
M  V30 19818 H 1846.74 -2.77703 -2.89278 0
M  V30 19819 H 1843.33 -3.83128 -1.92122 0
M  V30 19820 H 1847.51 -4.7252 -1.51784 0
M  V30 19821 H 1842.77 -6.03413 -0.985001 0
M  V30 19822 H 1846.94 -6.93897 -0.589916 0
M  V30 19823 H 1844.57 -7.59536 -0.317755 0
M  V30 19824 N 1846.15 0.735796 -1.39369 0
M  V30 19825 C 1847.37 1.52504 -1.39822 0
M  V30 19826 C 1847.79 1.88799 0.00747346 0
M  V30 19827 O 1847.15 1.54044 0.978611 0
M  V30 19828 C 1847.2 2.8131 -2.27039 0
M  V30 19829 O 1846.92 2.46557 -3.62134 0
M  V30 19830 C 1848.42 3.75343 -2.35866 0
M  V30 19831 H 1845.64 0.471306 -0.47761 0
M  V30 19832 H 1848.18 0.909257 -1.83174 0
M  V30 19833 H 1846.34 3.39222 -1.87102 0
M  V30 19834 H 1846.75 3.29294 -4.08247 0
M  V30 19835 H 1848.23 4.6262 -3.01142 0
M  V30 19836 H 1848.7 4.17036 -1.37758 0
M  V30 19837 H 1849.31 3.2335 -2.7627 0
M  V30 19838 N 1847.63 1.24532 0.965897 0
M  V30 19839 C 1848.86 1.11157 1.74148 0
M  V30 19840 C 1849.26 -0.338542 1.86147 0
M  V30 19841 O 1848.61 -1.2453 1.35048 0
M  V30 19842 C 1848.67 1.67951 3.17856 0
M  V30 19843 C 1848.33 3.16851 3.29324 0
M  V30 19844 C 1849.33 4.13979 3.14512 0
M  V30 19845 C 1847.01 3.56845 3.53507 0
M  V30 19846 C 1849.01 5.49082 3.2371 0
M  V30 19847 C 1846.7 4.92089 3.62342 0
M  V30 19848 C 1847.69 5.88016 3.47456 0
M  V30 19849 O 1847.38 7.20801 3.55952 0
M  V30 19850 H 1847.11 0.388973 0.55288 0
M  V30 19851 H 1849.67 1.65155 1.22119 0
M  V30 19852 H 1847.9 1.08389 3.71199 0
M  V30 19853 H 1849.59 1.49839 3.77231 0
M  V30 19854 H 1850.35 3.84422 2.95711 0
M  V30 19855 H 1846.23 2.82683 3.64159 0
M  V30 19856 H 1849.78 6.23937 3.12008 0
M  V30 19857 H 1845.67 5.21316 3.80657 0
M  V30 19858 H 1846.44 7.28746 3.72655 0
M  V30 19859 N 1849.1 -1.16685 1.05936 0
M  V30 19860 C 1850.35 -1.86466 0.768993 0
M  V30 19861 C 1850.67 -1.82374 -0.707038 0
M  V30 19862 O 1851.87 -2.47699 -1.11164 0
M  V30 19863 C 1850.33 -3.34605 1.32543 0
M  V30 19864 C 1849.94 -3.47179 2.83144 0
M  V30 19865 C 1851.68 -4.09665 1.11244 0
M  V30 19866 C 1849.59 -4.89384 3.3205 0
M  V30 19867 H 1848.52 -0.698479 0.283978 0
M  V30 19868 H 1851.17 -1.31717 1.27761 0
M  V30 19869 H 1849.55 -3.88937 0.744592 0
M  V30 19870 H 1850.72 -3.03027 3.47148 0
M  V30 19871 H 1849.04 -2.85549 3.03069 0
M  V30 19872 H 1851.64 -5.14586 1.45276 0
M  V30 19873 H 1851.98 -4.16269 0.0505969 0
M  V30 19874 H 1852.51 -3.61561 1.65887 0
M  V30 19875 H 1849.25 -4.87957 4.37697 0
M  V30 19876 H 1848.77 -5.34176 2.72793 0
M  V30 19877 H 1850.45 -5.58186 3.27166 0
M  V30 19878 N 1850.58 -0.841432 -1.33258 0
M  V30 19879 C 1851.83 -0.438378 -1.97698 0
M  V30 19880 C 1852.16 1.00298 -1.66645 0
M  V30 19881 O 1851.41 1.71648 -0.939965 0
M  V30 19882 C 1851.71 -0.608921 -3.52175 0
M  V30 19883 C 1851.38 -2.01876 -4.03184 0
M  V30 19884 C 1850.04 -2.40438 -4.16825 0
M  V30 19885 C 1852.39 -2.93952 -4.30397 0
M  V30 19886 C 1849.72 -3.70376 -4.55015 0
M  V30 19887 C 1852.07 -4.23373 -4.7004 0
M  V30 19888 C 1850.73 -4.61888 -4.81888 0
M  V30 19889 H 1850 -0.160414 -0.723428 0
M  V30 19890 H 1852.65 -1.06895 -1.58889 0
M  V30 19891 H 1850.96 0.104948 -3.91659 0
M  V30 19892 H 1852.65 -0.277313 -4.0004 0
M  V30 19893 H 1849.24 -1.70927 -3.93042 0
M  V30 19894 H 1853.43 -2.65396 -4.19379 0
M  V30 19895 H 1848.68 -4.00018 -4.62381 0
M  V30 19896 H 1852.86 -4.94793 -4.90054 0
M  V30 19897 H 1850.48 -5.6262 -5.11237 0
M  V30 19898 N 1852.06 1.4581 -0.598108 0
M  V30 19899 C 1853.31 2.01511 -0.0872421 0
M  V30 19900 C 1853.62 1.47345 1.28642 0
M  V30 19901 O 1854.83 1.94963 1.88949 0
M  V30 19902 C 1853.28 3.59746 -0.105317 0
M  V30 19903 C 1852.89 4.22909 -1.47824 0
M  V30 19904 C 1854.64 4.23048 0.350802 0
M  V30 19905 C 1852.54 5.73268 -1.45321 0
M  V30 19906 H 1851.47 0.753448 -0.0288462 0
M  V30 19907 H 1854.12 1.67382 -0.752037 0
M  V30 19908 H 1852.51 3.91022 0.625947 0
M  V30 19909 H 1853.68 4.03221 -2.23046 0
M  V30 19910 H 1851.99 3.71763 -1.87566 0
M  V30 19911 H 1854.59 5.33286 0.388561 0
M  V30 19912 H 1854.93 3.93058 1.37155 0
M  V30 19913 H 1855.47 3.96455 -0.326889 0
M  V30 19914 H 1852.21 6.07942 -2.45126 0
M  V30 19915 H 1851.73 5.95175 -0.743436 0
M  V30 19916 H 1853.41 6.36283 -1.17275 0
M  V30 19917 N 1853.54 0.336733 1.53961 0
M  V30 19918 C 1854.47 -0.515664 2.27735 0
M  V30 19919 C 1855.45 -1.10835 1.29033 0
M  V30 19920 O 1856.63 -1.13102 1.57866 0
M  V30 19921 C 1853.76 -1.67015 3.04505 0
M  V30 19922 C 1852.72 -1.20613 4.10654 0
M  V30 19923 C 1852.04 -2.44861 4.75339 0
M  V30 19924 C 1853.34 -0.311507 5.2137 0
M  V30 19925 H 1855.04 0.0997513 2.99234 0
M  V30 19926 H 1852.58 0.0494157 1.43915 0
M  V30 19927 H 1854.54 -2.27286 3.54851 0
M  V30 19928 H 1853.26 -2.31236 2.30646 0
M  V30 19929 H 1851.92 -0.62628 3.61211 0
M  V30 19930 H 1851.57 -3.07474 3.98081 0
M  V30 19931 H 1851.27 -2.14498 5.47051 0
M  V30 19932 H 1852.79 -3.0587 5.28466 0
M  V30 19933 H 1854.21 -0.820868 5.67393 0
M  V30 19934 H 1852.6 -0.100073 6.00017 0
M  V30 19935 H 1853.67 0.654181 4.80467 0
M  V30 19936 N 1855.02 -1.57465 0.0651956 0
M  V30 19937 C 1855.93 -2.15841 -0.919235 0
M  V30 19938 C 1856.94 -1.11984 -1.33175 0
M  V30 19939 O 1858.12 -1.44219 -1.4058 0
M  V30 19940 C 1855.18 -2.7032 -2.1709 0
M  V30 19941 C 1854.24 -3.89026 -1.81542 0
M  V30 19942 C 1853.48 -4.40897 -3.00742 0
M  V30 19943 O 1853.7 -3.91792 -4.14555 0
M  V30 19944 O 1852.63 -5.32312 -2.80941 0
M  V30 19945 H 1856.46 -3.00307 -0.452704 0
M  V30 19946 H 1854.04 -1.48567 -0.157504 0
M  V30 19947 H 1855.93 -3.05266 -2.90501 0
M  V30 19948 H 1854.6 -1.88917 -2.62854 0
M  V30 19949 H 1853.51 -3.58944 -1.05404 0
M  V30 19950 H 1854.84 -4.71701 -1.40567 0
M  V30 19951 N 1856.49 0.20831 -1.56217 0
M  V30 19952 C 1857.43 1.28581 -1.88526 0
M  V30 19953 C 1858.4 1.44582 -0.743968 0
M  V30 19954 O 1859.59 1.60183 -0.99366 0
M  V30 19955 C 1856.72 2.65432 -2.1039 0
M  V30 19956 C 1855.76 2.66374 -3.33088 0
M  V30 19957 S 1856.59 2.1912 -4.88617 0
M  V30 19958 C 1857.75 3.57821 -5.13532 0
M  V30 19959 H 1857.98 1.00983 -2.79624 0
M  V30 19960 H 1855.52 0.411185 -1.48824 0
M  V30 19961 H 1857.47 3.44213 -2.23668 0
M  V30 19962 H 1856.14 2.90247 -1.20065 0
M  V30 19963 H 1855.33 3.66969 -3.45471 0
M  V30 19964 H 1854.93 1.95665 -3.18734 0
M  V30 19965 H 1857.22 4.53601 -5.03242 0
M  V30 19966 H 1858.17 3.50343 -6.15358 0
M  V30 19967 H 1858.57 3.52121 -4.41215 0
M  V30 19968 N 1857.97 1.50255 0.475528 0
M  V30 19969 C 1858.9 1.71721 1.58222 0
M  V30 19970 C 1859.88 0.56612 1.60403 0
M  V30 19971 O 1861.07 0.804774 1.7674 0
M  V30 19972 C 1858.2 1.80726 2.96573 0
M  V30 19973 C 1857.15 2.95877 3.09258 0
M  V30 19974 C 1856.48 2.9002 4.49213 0
M  V30 19975 C 1857.78 4.36452 2.86891 0
M  V30 19976 H 1859.47 2.6438 1.40511 0
M  V30 19977 H 1857.02 1.27224 0.674533 0
M  V30 19978 H 1858.97 1.94328 3.73918 0
M  V30 19979 H 1857.69 0.846846 3.1543 0
M  V30 19980 H 1856.35 2.81918 2.34345 0
M  V30 19981 H 1856 1.91834 4.64982 0
M  V30 19982 H 1855.7 3.67322 4.58637 0
M  V30 19983 H 1857.23 3.05665 5.28584 0
M  V30 19984 H 1858.64 4.5096 3.53989 0
M  V30 19985 H 1857.04 5.15171 3.07765 0
M  V30 19986 H 1858.11 4.49129 1.82786 0
M  V30 19987 N 1859.45 -0.728395 1.39758 0
M  V30 19988 C 1860.38 -1.85554 1.41747 0
M  V30 19989 C 1861.36 -1.6778 0.279972 0
M  V30 19990 O 1862.55 -1.88001 0.48675 0
M  V30 19991 C 1859.68 -3.23375 1.26671 0
M  V30 19992 C 1858.63 -3.55799 2.37889 0
M  V30 19993 C 1857.96 -4.92628 2.07899 0
M  V30 19994 C 1859.26 -3.58098 3.80215 0
M  V30 19995 H 1860.95 -1.84146 2.36073 0
M  V30 19996 H 1858.5 -0.884539 1.13631 0
M  V30 19997 H 1860.45 -4.01907 1.26682 0
M  V30 19998 H 1859.17 -3.25326 0.288159 0
M  V30 19999 H 1857.83 -2.796 2.37107 0
M  V30 20000 H 1857.48 -4.91166 1.08466 0
M  V30 20001 H 1857.18 -5.15288 2.82404 0
M  V30 20002 H 1858.7 -5.73509 2.09571 0
M  V30 20003 H 1860.12 -4.26694 3.82891 0
M  V30 20004 H 1858.51 -3.9228 4.54133 0
M  V30 20005 H 1859.58 -2.57758 4.10718 0
M  V30 20006 N 1860.93 -1.25042 -0.959279 0
M  V30 20007 C 1861.87 -1.0502 -2.05522 0
M  V30 20008 C 1862.84 0.039194 -1.66054 0
M  V30 20009 O 1864.03 -0.11708 -1.9044 0
M  V30 20010 C 1861.17 -0.670047 -3.38533 0
M  V30 20011 C 1860.28 -1.83381 -3.91146 0
M  V30 20012 C 1859.42 -1.39844 -5.12462 0
M  V30 20013 C 1858.46 -2.53163 -5.57293 0
M  V30 20014 N 1857.59 -2.10435 -6.69822 0
M  V30 20015 H 1862.43 -1.98816 -2.21982 0
M  V30 20016 H 1859.97 -0.990139 -1.08787 0
M  V30 20017 H 1861.93 -0.430621 -4.14972 0
M  V30 20018 H 1860.56 0.230924 -3.21973 0
M  V30 20019 H 1859.61 -2.18667 -3.1127 0
M  V30 20020 H 1860.92 -2.68497 -4.2037 0
M  V30 20021 H 1860.08 -1.1184 -5.96303 0
M  V30 20022 H 1858.82 -0.51794 -4.84942 0
M  V30 20023 H 1857.82 -2.81918 -4.7202 0
M  V30 20024 H 1859.05 -3.41784 -5.86822 0
M  V30 20025 H 1856.99 -1.24794 -6.44021 0
M  V30 20026 H 1856.91 -2.89101 -6.98539 0
M  V30 20027 H 1858.18 -1.85593 -7.57084 0
M  V30 20028 N 1862.41 1.16121 -1.06553 0
M  V30 20029 C 1863.65 1.87228 -0.794807 0
M  V30 20030 C 1864.01 1.803 0.671546 0
M  V30 20031 O 1863.3 1.20961 1.4859 0
M  V30 20032 C 1863.49 3.35676 -1.22705 0
M  V30 20033 C 1863.32 3.57056 -2.73388 0
M  V30 20034 C 1862.09 3.72992 -3.40888 0
M  V30 20035 C 1864.29 3.55555 -3.71598 0
M  V30 20036 N 1862.27 3.82348 -4.80295 0
M  V30 20037 C 1863.64 3.70927 -4.96803 0
M  V30 20038 C 1865.7 3.38782 -3.64871 0
M  V30 20039 C 1864.4 3.7126 -6.16083 0
M  V30 20040 C 1866.43 3.4041 -4.83606 0
M  V30 20041 C 1865.79 3.56304 -6.07641 0
M  V30 20042 H 1861.89 0.702626 -0.343278 0
M  V30 20043 H 1864.47 1.39308 -1.3602 0
M  V30 20044 H 1862.64 3.82232 -0.689456 0
M  V30 20045 H 1864.38 3.94458 -0.904716 0
M  V30 20046 H 1861.13 3.73426 -2.91291 0
M  V30 20047 H 1861.56 3.90788 -5.52823 0
M  V30 20048 H 1866.2 3.2542 -2.69928 0
M  V30 20049 H 1863.92 3.83403 -7.11356 0
M  V30 20050 H 1867.5 3.28672 -4.80069 0
M  V30 20051 H 1866.38 3.57486 -6.97978 0
M  V30 20052 N 1863.88 0.848487 1.3281 0
M  V30 20053 C 1865.13 0.449521 1.97755 0
M  V30 20054 C 1865.46 -0.990923 1.67016 0
M  V30 20055 O 1864.74 -1.69434 0.955119 0
M  V30 20056 C 1865.02 0.681898 3.53585 0
M  V30 20057 C 1864.87 2.17031 3.93976 0
M  V30 20058 C 1866.19 0.134271 4.39895 0
M  V30 20059 H 1863.31 0.164799 0.718339 0
M  V30 20060 H 1865.95 1.06578 1.57293 0
M  V30 20061 H 1864.1 0.157353 3.88181 0
M  V30 20062 H 1865.78 2.76046 3.69589 0
M  V30 20063 H 1864.02 2.65117 3.43359 0
M  V30 20064 H 1864.69 2.28362 5.02548 0
M  V30 20065 H 1867.17 0.582756 4.11999 0
M  V30 20066 H 1866.04 0.326479 5.47928 0
M  V30 20067 H 1866.3 -0.962576 4.31494 0
M  V30 20068 N 1865.36 -1.4549 0.605832 0
M  V30 20069 C 1866.33 -2.28964 -0.104089 0
M  V30 20070 C 1867.33 -1.39671 -0.796791 0
M  V30 20071 O 1868.52 -1.6181 -0.645221 0
M  V30 20072 C 1865.65 -3.20647 -1.1575 0
M  V30 20073 H 1866.84 -2.93213 0.629776 0
M  V30 20074 H 1864.39 -1.51983 0.3648 0
M  V30 20075 H 1865.13 -2.61194 -1.92219 0
M  V30 20076 H 1864.91 -3.86419 -0.665025 0
M  V30 20077 H 1866.4 -3.83416 -1.65474 0
M  V30 20078 N 1866.84 -0.344893 -1.5378 0
M  V30 20079 C 1868.07 0.252193 -2.05055 0
M  V30 20080 C 1868.48 1.44657 -1.21947 0
M  V30 20081 O 1867.82 1.82018 -0.248012 0
M  V30 20082 C 1867.88 0.729619 -3.52018 0
M  V30 20083 C 1867.55 -0.345284 -4.55694 0
M  V30 20084 C 1868.54 -1.18843 -5.06135 0
M  V30 20085 C 1866.23 -0.499596 -4.99809 0
M  V30 20086 C 1868.22 -2.17141 -5.99273 0
M  V30 20087 C 1865.91 -1.48598 -5.92758 0
M  V30 20088 C 1866.91 -2.32033 -6.42378 0
M  V30 20089 O 1866.6 -3.28992 -7.33498 0
M  V30 20090 H 1866.33 0.0522523 -0.673978 0
M  V30 20091 H 1868.88 -0.495473 -1.99334 0
M  V30 20092 H 1867.11 1.52855 -3.55207 0
M  V30 20093 H 1868.8 1.2474 -3.86257 0
M  V30 20094 H 1869.57 -1.0803 -4.72816 0
M  V30 20095 H 1865.45 0.14 -4.60787 0
M  V30 20096 H 1868.99 -2.82303 -6.37927 0
M  V30 20097 H 1864.89 -1.59466 -6.25493 0
M  V30 20098 H 1865.66 -3.24479 -7.51436 0
M  V30 20099 N 1868.32 1.57428 -0.0735454 0
M  V30 20100 C 1869.57 1.93174 0.593996 0
M  V30 20101 C 1869.89 0.954462 1.70044 0
M  V30 20102 O 1869.16 0.00289765 1.959 0
M  V30 20103 H 1867.74 0.713123 0.222407 0
M  V30 20104 H 1870.4 1.94454 -0.131813 0
M  V30 20105 H 1869.5 2.95025 1.01818 0
M  V30 20106 N 1869.8 -0.200022 1.56326 0
M  V30 20107 C 1871.04 -0.921174 1.80335 0
M  V30 20108 C 1871.37 -1.83461 0.645946 0
M  V30 20109 O 1870.63 -1.92198 -0.368568 0
M  V30 20110 C 1870.93 -1.77356 3.1029 0
M  V30 20111 C 1870.59 -1.01153 4.39407 0
M  V30 20112 C 1869.25 -0.801112 4.74485 0
M  V30 20113 C 1871.61 -0.474992 5.19031 0
M  V30 20114 C 1868.93 -0.0425991 5.86685 0
M  V30 20115 C 1871.29 0.270286 6.32022 0
M  V30 20116 C 1869.95 0.491763 6.65686 0
M  V30 20117 H 1869.22 -0.337082 0.659892 0
M  V30 20118 H 1871.87 -0.187867 1.90576 0
M  V30 20119 H 1870.17 -2.57539 2.95264 0
M  V30 20120 H 1871.87 -2.33406 3.26071 0
M  V30 20121 H 1868.46 -1.18553 4.11877 0
M  V30 20122 H 1872.64 -0.624969 4.92349 0
M  V30 20123 H 1867.9 0.139015 6.11242 0
M  V30 20124 H 1872.07 0.693432 6.92939 0
M  V30 20125 H 1869.7 1.08142 7.52469 0
M  V30 20126 N 1871.27 -1.50505 -0.467553 0
M  V30 20127 C 1872.21 -1.65784 -1.58267 0
M  V30 20128 C 1873.22 -0.539219 -1.53611 0
M  V30 20129 O 1874.41 -0.812524 -1.58935 0
M  V30 20130 C 1871.51 -1.62951 -2.97154 0
M  V30 20131 C 1870.68 -2.90903 -3.26641 0
M  V30 20132 C 1869.74 -2.80665 -4.451 0
M  V30 20133 O 1868.77 -3.5462 -4.45234 0
M  V30 20134 N 1869.97 -1.9446 -5.4696 0
M  V30 20135 H 1872.73 -2.6197 -1.45575 0
M  V30 20136 H 1870.29 -1.48013 -0.656029 0
M  V30 20137 H 1872.29 -1.53709 -3.74373 0
M  V30 20138 H 1870.86 -0.744855 -3.03596 0
M  V30 20139 H 1870.08 -3.14244 -2.38001 0
M  V30 20140 H 1871.36 -3.75663 -3.43155 0
M  V30 20141 H 1870.76 -1.33694 -5.49675 0
M  V30 20142 H 1869.32 -1.9112 -6.2315 0
M  V30 20143 N 1872.75 0.720973 -1.40142 0
M  V30 20144 C 1874 1.48297 -1.38332 0
M  V30 20145 C 1874.33 1.94193 0.0162191 0
M  V30 20146 O 1873.61 1.67781 0.983853 0
M  V30 20147 C 1873.89 2.71283 -2.36807 0
M  V30 20148 C 1873.74 2.31316 -3.85763 0
M  V30 20149 C 1875.06 3.73426 -2.32897 0
M  V30 20150 H 1872.18 0.537922 -0.503794 0
M  V30 20151 H 1874.82 0.823265 -1.71238 0
M  V30 20152 H 1872.97 3.27571 -2.08877 0
M  V30 20153 H 1874.64 1.80551 -4.24499 0
M  V30 20154 H 1872.89 1.63379 -4.01858 0
M  V30 20155 H 1873.56 3.19449 -4.50174 0
M  V30 20156 H 1876.03 3.26755 -2.57624 0
M  V30 20157 H 1874.91 4.57124 -3.03856 0
M  V30 20158 H 1875.17 4.21343 -1.33876 0
M  V30 20159 N 1874.23 1.25549 0.952634 0
M  V30 20160 C 1875.46 1.12998 1.7296 0
M  V30 20161 C 1875.87 -0.318779 1.86495 0
M  V30 20162 O 1875.21 -1.23091 1.36361 0
M  V30 20163 C 1875.27 1.71313 3.16057 0
M  V30 20164 C 1874.94 3.20326 3.25945 0
M  V30 20165 C 1875.93 4.17291 3.10103 0
M  V30 20166 C 1873.62 3.60574 3.49702 0
M  V30 20167 C 1875.61 5.52484 3.17868 0
M  V30 20168 C 1873.3 4.95904 3.57103 0
M  V30 20169 C 1874.3 5.91668 3.412 0
M  V30 20170 O 1873.99 7.24535 3.48287 0
M  V30 20171 H 1873.72 0.394815 0.548723 0
M  V30 20172 H 1876.27 1.66441 1.20361 0
M  V30 20173 H 1874.5 1.1232 3.70029 0
M  V30 20174 H 1876.19 1.53832 3.7562 0
M  V30 20175 H 1876.96 3.87537 2.91617 0
M  V30 20176 H 1872.84 2.86529 3.6114 0
M  V30 20177 H 1876.38 6.27211 3.05373 0
M  V30 20178 H 1872.28 5.25324 3.75106 0
M  V30 20179 H 1873.05 7.32657 3.64905 0
M  V30 20180 N 1875.71 -1.15554 1.07168 0
M  V30 20181 C 1876.96 -1.86296 0.793718 0
M  V30 20182 C 1877.28 -1.8222 -0.680145 0
M  V30 20183 O 1876.54 -1.23899 -1.51485 0
M  V30 20184 C 1876.84 -3.3502 1.24484 0
M  V30 20185 C 1876.5 -3.59292 2.72434 0
M  V30 20186 C 1875.17 -3.65625 3.12844 0
M  V30 20187 C 1877.52 -3.69147 3.6794 0
M  V30 20188 C 1874.85 -3.79323 4.47584 0
M  V30 20189 C 1877.2 -3.84368 5.02438 0
M  V30 20190 C 1875.86 -3.88946 5.42473 0
M  V30 20191 H 1875.13 -0.681707 0.290442 0
M  V30 20192 H 1877.78 -1.36575 1.34236 0
M  V30 20193 H 1876.08 -3.86934 0.615546 0
M  V30 20194 H 1877.78 -3.88158 1.00669 0
M  V30 20195 H 1874.37 -3.55002 2.40149 0
M  V30 20196 H 1878.55 -3.63556 3.37847 0
M  V30 20197 H 1873.81 -3.81124 4.78074 0
M  V30 20198 H 1877.98 -3.90935 5.76318 0
M  V30 20199 H 1875.61 -3.99312 6.4688 0
M  V30 20200 N 1877.19 -0.855519 -1.32358 0
M  V30 20201 C 1878.42 -0.473331 -2.01413 0
M  V30 20202 C 1878.83 0.930206 -1.64294 0
M  V30 20203 O 1878.19 1.60714 -0.864705 0
M  V30 20204 C 1878.24 -0.603815 -3.56422 0
M  V30 20205 O 1877.96 -1.95207 -3.92207 0
M  V30 20206 C 1879.46 -0.220748 -4.4275 0
M  V30 20207 H 1876.68 -0.185962 -0.644716 0
M  V30 20208 H 1879.22 -1.1527 -1.68918 0
M  V30 20209 H 1877.38 0.0278263 -3.8739 0
M  V30 20210 H 1877.79 -1.94946 -4.86925 0
M  V30 20211 H 1879.27 -0.363048 -5.50805 0
M  V30 20212 H 1879.74 0.838881 -4.31114 0
M  V30 20213 H 1880.35 -0.827498 -4.17172 0
M  V30 20214 N 1878.67 1.45167 -0.61354 0
M  V30 20215 C 1879.61 2.32319 0.114222 0
M  V30 20216 C 1880.61 1.4632 0.853634 0
M  V30 20217 O 1881.81 1.62769 0.768525 0
M  V30 20218 H 1878.19 0.749935 0.0556921 0
M  V30 20219 H 1880.16 2.91474 -0.639175 0
M  V30 20220 C 1878.91 3.30035 1.09417 0
M  V30 20221 H 1878.23 3.96209 0.534632 0
M  V30 20222 H 1879.67 3.93734 1.5732 0
M  V30 20223 C 1878.13 2.57648 2.1707 0
M  V30 20224 O 1878.66 2.36227 3.24899 0
M  V30 20225 N 1876.87 2.17682 1.92517 0
M  V30 20226 H 1876.41 2.35303 1.04834 0
M  V30 20227 H 1876.37 1.69573 2.6475 0
M  V30 20228 N 1880.14 0.353044 1.53595 0
M  V30 20229 C 1881.11 -0.48691 2.23968 0
M  V30 20230 C 1882.11 -1.01991 1.24316 0
M  V30 20231 O 1883.3 -0.907654 1.48685 0
M  V30 20232 C 1880.43 -1.67926 2.96671 0
M  V30 20233 H 1881.62 0.128707 2.99624 0
M  V30 20234 H 1879.17 0.104533 1.5595 0
M  V30 20235 H 1879.91 -2.33331 2.25227 0
M  V30 20236 H 1879.69 -1.30417 3.69776 0
M  V30 20237 H 1881.18 -2.2748 3.50203 0
M  V30 20238 N 1881.62 -1.57387 0.0818932 0
M  V30 20239 C 1882.87 -1.94964 -0.579705 0
M  V30 20240 C 1883.22 -0.962306 -1.66606 0
M  V30 20241 O 1882.52 0.0138288 -1.91595 0
M  V30 20242 C 1882.71 -3.36939 -1.19193 0
M  V30 20243 C 1882.54 -4.49392 -0.166414 0
M  V30 20244 C 1881.31 -5.04669 0.252475 0
M  V30 20245 C 1883.51 -5.10785 0.600288 0
M  V30 20246 N 1881.49 -6.0067 1.26764 0
M  V30 20247 C 1882.86 -6.02379 1.46765 0
M  V30 20248 C 1884.91 -4.9357 0.655252 0
M  V30 20249 C 1883.62 -6.78605 2.38511 0
M  V30 20250 C 1885.64 -5.70447 1.56026 0
M  V30 20251 C 1885.01 -6.61697 2.41528 0
M  V30 20252 H 1881.1 -0.760321 -0.182854 0
M  V30 20253 H 1883.69 -1.9403 0.161389 0
M  V30 20254 H 1881.86 -3.38591 -1.9029 0
M  V30 20255 H 1883.59 -3.61727 -1.81482 0
M  V30 20256 H 1880.35 -4.73414 -0.132657 0
M  V30 20257 H 1880.77 -6.5337 1.77303 0
M  V30 20258 H 1885.41 -4.22799 0.00839717 0
M  V30 20259 H 1883.13 -7.48646 3.04228 0
M  V30 20260 H 1886.72 -5.59144 1.60776 0
M  V30 20261 H 1885.6 -7.20145 3.1042 0
M  V30 20262 N 1883.1 0.191729 -1.56429 0
M  V30 20263 C 1884.34 0.918325 -1.82609 0
M  V30 20264 C 1884.7 1.80304 -0.659876 0
M  V30 20265 O 1885.9 2.56568 -0.801645 0
M  V30 20266 C 1884.18 1.7102 -3.13826 0
M  V30 20267 S 1885.73 2.48835 -3.61423 0
M  V30 20268 H 1882.55 0.307952 -0.640848 0
M  V30 20269 H 1885.15 0.18147 -1.94656 0
M  V30 20270 H 1883.86 1.05092 -3.96716 0
M  V30 20271 H 1883.39 2.48881 -3.04667 0
M  V30 20272 H 1885.4 3.73099 -3.27127 0
M  V30 20273 N 1884.58 1.50751 0.459565 0
M  V30 20274 C 1885.82 1.63522 1.20963 0
M  V30 20275 C 1886.18 0.33668 1.89431 0
M  V30 20276 O 1885.47 -0.666172 1.79646 0
M  V30 20277 C 1885.67 2.7612 2.26919 0
M  V30 20278 C 1885.49 4.16798 1.68848 0
M  V30 20279 C 1884.26 4.83044 1.48313 0
M  V30 20280 C 1886.46 5.00651 1.177 0
M  V30 20281 N 1884.44 6.07902 0.856055 0
M  V30 20282 C 1885.82 6.16327 0.673854 0
M  V30 20283 C 1887.87 4.86341 1.06664 0
M  V30 20284 C 1886.57 7.19265 0.0712186 0
M  V30 20285 C 1888.6 5.89466 0.477928 0
M  V30 20286 C 1887.96 7.04398 -0.0147835 0
M  V30 20287 H 1884.06 0.652437 0.431103 0
M  V30 20288 H 1886.64 1.87909 0.509752 0
M  V30 20289 H 1884.82 2.53436 2.94321 0
M  V30 20290 H 1886.55 2.78188 2.93927 0
M  V30 20291 H 1883.3 4.40532 1.73864 0
M  V30 20292 H 1883.73 6.74675 0.560599 0
M  V30 20293 H 1888.37 3.97758 1.43348 0
M  V30 20294 H 1886.09 8.07514 -0.307801 0
M  V30 20295 H 1889.67 5.80459 0.394746 0
M  V30 20296 H 1888.55 7.82831 -0.463183 0
M  V30 20297 N 1886.06 -0.713531 1.40522 0
M  V30 20298 C 1886.99 -1.8404 1.43707 0
M  V30 20299 C 1887.97 -1.67474 0.297751 0
M  V30 20300 O 1889.15 -1.87474 0.506662 0
M  V30 20301 C 1886.28 -3.22014 1.30094 0
M  V30 20302 C 1885.24 -3.53255 2.4165 0
M  V30 20303 C 1884.56 -4.90395 2.13113 0
M  V30 20304 C 1885.86 -3.54045 3.83991 0
M  V30 20305 H 1887.56 -1.81632 2.38013 0
M  V30 20306 H 1885.1 -0.872437 1.14562 0
M  V30 20307 H 1887.05 -4.00541 1.30938 0
M  V30 20308 H 1885.78 -3.25002 0.322648 0
M  V30 20309 H 1884.44 -2.77069 2.40059 0
M  V30 20310 H 1884.09 -4.89988 1.13669 0
M  V30 20311 H 1883.79 -5.12264 2.87853 0
M  V30 20312 H 1885.31 -5.71254 2.15642 0
M  V30 20313 H 1886.72 -4.22609 3.87395 0
M  V30 20314 H 1885.12 -3.87441 4.58268 0
M  V30 20315 H 1886.19 -2.53387 4.13428 0
M  V30 20316 N 1887.53 -1.26053 -0.945962 0
M  V30 20317 C 1888.81 -1.02072 -1.66855 0
M  V30 20318 C 1889.19 0.45036 -2.0624 0
M  V30 20319 O 1888.54 1.42966 -1.7825 0
M  V30 20320 C 1888.75 -1.96486 -2.88434 0
M  V30 20321 C 1890.1 -2.24825 -3.60193 0
M  V30 20322 O 1891.12 -1.94314 -2.98531 0
M  V30 20323 O 1889.98 -2.76749 -4.71245 0
M  V30 20324 H 1887.07 -0.387753 -0.730463 0
M  V30 20325 H 1889.62 -1.37243 -0.998117 0
M  V30 20326 H 1888.39 -2.95779 -2.56185 0
M  V30 20327 H 1888.01 -1.61765 -3.63205 0
M  V30 20328 N 1889.01 1.14984 -1.07779 0
M  V30 20329 C 1890.26 1.85873 -0.803587 0
M  V30 20330 C 1890.59 1.82579 0.670472 0
M  V30 20331 O 1889.84 1.247 1.50826 0
M  V30 20332 C 1890.14 3.34355 -1.26259 0
M  V30 20333 C 1889.81 3.57842 -2.74335 0
M  V30 20334 C 1888.47 3.63961 -3.14779 0
M  V30 20335 C 1890.82 3.67191 -3.69893 0
M  V30 20336 C 1888.15 3.76944 -4.49589 0
M  V30 20337 C 1890.5 3.81698 -5.04469 0
M  V30 20338 C 1889.16 3.86064 -5.44528 0
M  V30 20339 H 1888.43 0.680157 -0.294053 0
M  V30 20340 H 1891.08 1.35862 -1.34959 0
M  V30 20341 H 1889.39 3.86603 -0.636057 0
M  V30 20342 H 1891.08 3.87619 -1.02727 0
M  V30 20343 H 1887.67 3.53723 -2.42028 0
M  V30 20344 H 1891.86 3.61759 -3.3977 0
M  V30 20345 H 1887.11 3.78583 -4.80088 0
M  V30 20346 H 1891.29 3.87873 -5.78383 0
M  V30 20347 H 1888.91 3.95876 -6.48989 0
M  V30 20348 N 1890.49 0.862526 1.31902 0
M  V30 20349 C 1891.42 0.328423 2.31179 0
M  V30 20350 C 1892.4 -0.57668 1.60026 0
M  V30 20351 O 1893.59 -0.49527 1.87778 0
M  V30 20352 C 1890.72 -0.47734 3.44004 0
M  V30 20353 C 1889.67 0.334015 4.26695 0
M  V30 20354 C 1889 -0.596973 5.31357 0
M  V30 20355 C 1890.3 1.56405 4.98332 0
M  V30 20356 H 1891.99 1.15797 2.761 0
M  V30 20357 H 1889.54 0.558268 1.32738 0
M  V30 20358 H 1891.49 -0.861461 4.12501 0
M  V30 20359 H 1890.21 -1.34033 2.9783 0
M  V30 20360 H 1888.87 0.699989 3.59855 0
M  V30 20361 H 1888.52 -1.45703 4.81435 0
M  V30 20362 H 1888.22 -0.0580517 5.87571 0
M  V30 20363 H 1889.74 -0.978099 6.02715 0
M  V30 20364 H 1891.16 1.25178 5.59467 0
M  V30 20365 H 1889.55 2.04149 5.64308 0
M  V30 20366 H 1890.62 2.32099 4.25744 0
M  V30 20367 N 1891.97 -1.4484 0.62123 0
M  V30 20368 C 1893.22 -2.01347 0.11929 0
M  V30 20369 C 1893.53 -1.49373 -1.26282 0
M  V30 20370 O 1894.74 -1.97945 -1.85823 0
M  V30 20371 C 1893.19 -3.59533 0.162536 0
M  V30 20372 C 1892.8 -4.20504 1.54534 0
M  V30 20373 C 1894.54 -4.23553 -0.283454 0
M  V30 20374 C 1892.45 -5.70883 1.54423 0
M  V30 20375 H 1891.38 -0.752894 0.0408293 0
M  V30 20376 H 1894.03 -1.66164 0.778571 0
M  V30 20377 H 1892.41 -3.91968 -0.563659 0
M  V30 20378 H 1893.59 -3.99621 2.29433 0
M  V30 20379 H 1891.9 -3.68732 1.93457 0
M  V30 20380 H 1894.5 -5.33837 -0.303671 0
M  V30 20381 H 1894.84 -3.9519 -1.30884 0
M  V30 20382 H 1895.38 -3.95884 0.38992 0
M  V30 20383 H 1892.12 -6.03965 2.54767 0
M  V30 20384 H 1891.64 -5.93917 0.838029 0
M  V30 20385 H 1893.31 -6.34336 1.27383 0
M  V30 20386 N 1893.45 -0.361184 -1.53405 0
M  V30 20387 C 1894.69 0.230222 -2.01489 0
M  V30 20388 C 1895.03 1.48779 -1.24814 0
M  V30 20389 O 1894.3 1.91494 -0.340612 0
M  V30 20390 C 1894.58 0.526613 -3.56229 0
M  V30 20391 C 1894.44 -0.744277 -4.436 0
M  V30 20392 C 1895.76 1.32901 -4.19554 0
M  V30 20393 H 1892.87 0.0822009 -0.732402 0
M  V30 20394 H 1895.52 -0.485208 -1.837 0
M  V30 20395 H 1893.67 1.13609 -3.71517 0
M  V30 20396 H 1895.34 -1.38188 -4.40116 0
M  V30 20397 H 1893.58 -1.36555 -4.11747 0
M  V30 20398 H 1894.25 -0.491913 -5.49804 0
M  V30 20399 H 1896.73 0.813474 -4.08071 0
M  V30 20400 H 1895.6 1.50513 -5.27861 0
M  V30 20401 H 1895.87 2.33625 -3.75329 0
M  V30 20402 N 1894.92 1.57341 -0.0902386 0
M  V30 20403 C 1896.2 1.85627 0.616611 0
M  V30 20404 C 1896.58 0.986193 1.86648 0
M  V30 20405 O 1895.93 0.0573148 2.28428 0
M  V30 20406 C 1896.14 3.36196 0.936645 0
M  V30 20407 C 1897.49 4.04139 1.30219 0
M  V30 20408 O 1898.51 3.41049 1.02781 0
M  V30 20409 O 1897.37 5.1545 1.81586 0
M  V30 20410 H 1894.46 0.76748 0.308065 0
M  V30 20411 H 1897.01 1.69257 -0.122568 0
M  V30 20412 H 1895.78 3.91268 0.0497354 0
M  V30 20413 H 1895.41 3.57895 1.73197 0
M  V30 20414 N 1896.4 -0.183431 1.56529 0
M  V30 20415 C 1897.65 -0.903332 1.8157 0
M  V30 20416 C 1897.98 -1.82417 0.666167 0
M  V30 20417 O 1897.26 -1.91635 -0.332621 0
M  V30 20418 C 1897.54 -1.70949 3.16936 0
M  V30 20419 C 1897.39 -0.812595 4.42399 0
M  V30 20420 C 1898.71 -2.6797 3.49113 0
M  V30 20421 H 1895.83 -0.326961 0.660504 0
M  V30 20422 H 1898.47 -0.170115 1.89237 0
M  V30 20423 H 1896.62 -2.33458 3.10531 0
M  V30 20424 H 1898.29 -0.201313 4.60861 0
M  V30 20425 H 1896.54 -0.119949 4.33634 0
M  V30 20426 H 1897.21 -1.4119 5.33638 0
M  V30 20427 H 1899.68 -2.15591 3.55893 0
M  V30 20428 H 1898.56 -3.21451 4.44927 0
M  V30 20429 H 1898.82 -3.47584 2.73199 0
M  V30 20430 N 1897.88 -1.50992 -0.451564 0
M  V30 20431 C 1899.11 -1.67021 -1.22958 0
M  V30 20432 C 1899.53 -0.36115 -1.846 0
M  V30 20433 O 1898.89 0.677193 -1.68178 0
M  V30 20434 C 1898.94 -2.77744 -2.29979 0
M  V30 20435 O 1898.04 -2.40356 -3.35116 0
M  V30 20436 H 1897.38 -0.557369 -0.360882 0
M  V30 20437 H 1899.91 -1.97479 -0.535073 0
M  V30 20438 H 1899.92 -3.01406 -2.74988 0
M  V30 20439 H 1898.6 -3.72742 -1.84488 0
M  V30 20440 H 1897.17 -2.27214 -2.95683 0
M  V30 20441 N 1899.36 0.706069 -1.40899 0
M  V30 20442 C 1900.29 1.83275 -1.44681 0
M  V30 20443 C 1901.27 1.67313 -0.306629 0
M  V30 20444 O 1902.45 1.87203 -0.516597 0
M  V30 20445 C 1899.58 3.21319 -1.318 0
M  V30 20446 C 1898.54 3.51969 -2.4352 0
M  V30 20447 C 1897.86 4.89258 -2.1571 0
M  V30 20448 C 1899.16 3.52004 -3.85864 0
M  V30 20449 H 1900.86 1.80367 -2.38973 0
M  V30 20450 H 1898.4 0.866349 -1.15023 0
M  V30 20451 H 1900.36 3.99841 -1.3306 0
M  V30 20452 H 1899.08 3.24827 -0.339879 0
M  V30 20453 H 1897.74 2.75792 -2.41525 0
M  V30 20454 H 1897.39 4.89378 -1.16266 0
M  V30 20455 H 1897.09 5.1073 -2.90566 0
M  V30 20456 H 1898.61 5.70102 -2.18669 0
M  V30 20457 H 1900.03 4.20548 -3.8963 0
M  V30 20458 H 1898.42 3.85005 -4.60316 0
M  V30 20459 H 1899.49 2.51191 -4.14766 0
M  V30 20460 N 1900.84 1.26553 0.939264 0
M  V30 20461 C 1902.08 1.12376 1.68818 0
M  V30 20462 C 1902.42 -0.331784 1.91345 0
M  V30 20463 O 1901.69 -1.24359 1.4955 0
M  V30 20464 C 1901.97 1.89541 3.0618 0
M  V30 20465 C 1901.83 3.43014 2.90966 0
M  V30 20466 C 1903.15 1.69074 4.06327 0
M  V30 20467 H 1900.26 0.409616 0.612686 0
M  V30 20468 H 1902.91 1.55571 1.09076 0
M  V30 20469 H 1901.06 1.5283 3.57177 0
M  V30 20470 H 1902.73 3.89489 2.47176 0
M  V30 20471 H 1900.97 3.69942 2.26551 0
M  V30 20472 H 1901.64 3.92236 3.88401 0
M  V30 20473 H 1904.12 2.01061 3.64299 0
M  V30 20474 H 1902.99 2.25478 5.00451 0
M  V30 20475 H 1903.26 0.635787 4.37504 0
M  V30 20476 N 1902.31 -1.14411 1.08387 0
M  V30 20477 C 1903.54 -1.89848 0.835015 0
M  V30 20478 C 1903.96 -1.78034 -0.607091 0
M  V30 20479 O 1903.32 -1.12039 -1.42538 0
M  V30 20480 C 1903.37 -3.37818 1.26141 0
M  V30 20481 O 1902.47 -4.10325 0.41322 0
M  V30 20482 H 1901.82 -0.590682 0.303299 0
M  V30 20483 H 1904.35 -1.44823 1.44525 0
M  V30 20484 H 1904.36 -3.88631 1.24218 0
M  V30 20485 H 1903.03 -3.45735 2.31172 0
M  V30 20486 H 1901.61 -3.69589 0.495854 0
M  V30 20487 N 1903.79 -0.869509 -1.31443 0
M  V30 20488 C 1904.72 -0.340679 -2.31001 0
M  V30 20489 C 1905.7 0.568186 -1.6033 0
M  V30 20490 O 1906.89 0.485305 -1.88038 0
M  V30 20491 C 1904.02 0.45909 -3.44252 0
M  V30 20492 C 1902.97 -0.356639 -4.26512 0
M  V30 20493 C 1902.3 0.568786 -5.31666 0
M  V30 20494 C 1903.6 -1.59045 -4.97496 0
M  V30 20495 H 1905.29 -1.1726 -2.75482 0
M  V30 20496 H 1902.84 -0.5653 -1.3244 0
M  V30 20497 H 1904.79 0.839573 -4.12952 0
M  V30 20498 H 1903.52 1.32451 -2.98537 0
M  V30 20499 H 1902.17 -0.719063 -3.59479 0
M  V30 20500 H 1901.82 1.43148 -4.82201 0
M  V30 20501 H 1901.52 0.0268906 -5.87594 0
M  V30 20502 H 1903.05 0.946122 -6.03225 0
M  V30 20503 H 1904.46 -1.28144 -5.58795 0
M  V30 20504 H 1902.86 -2.07139 -5.63217 0
M  V30 20505 H 1903.93 -2.34354 -4.24507 0
M  V30 20506 N 1905.27 1.44508 -0.628902 0
M  V30 20507 C 1906.5 2.06429 -0.13951 0
M  V30 20508 C 1906.91 1.46981 1.18499 0
M  V30 20509 O 1906.27 0.591856 1.72636 0
M  V30 20510 C 1906.32 3.61496 -0.016195 0
M  V30 20511 O 1906.04 4.18729 -1.28831 0
M  V30 20512 C 1907.54 4.40447 0.502154 0
M  V30 20513 H 1904.76 0.666375 -0.0786479 0
M  V30 20514 H 1907.31 1.85414 -0.862674 0
M  V30 20515 H 1905.46 3.81781 0.657398 0
M  V30 20516 H 1905.88 5.12145 -1.13171 0
M  V30 20517 H 1907.35 5.49377 0.537458 0
M  V30 20518 H 1907.83 4.11735 1.52876 0
M  V30 20519 H 1908.43 4.25076 -0.138113 0
M  V30 20520 N 1906.75 0.369315 1.53212 0
M  V30 20521 C 1907.71 -0.463128 2.24472 0
M  V30 20522 C 1908.71 -1.00667 1.2539 0
M  V30 20523 O 1909.9 -0.891832 1.4964 0
M  V30 20524 C 1907.03 -1.6477 2.98435 0
M  V30 20525 H 1908.23 0.160479 2.9947 0
M  V30 20526 H 1905.78 0.121068 1.5583 0
M  V30 20527 H 1906.52 -2.30929 2.27689 0
M  V30 20528 H 1906.3 -1.26487 3.71138 0
M  V30 20529 H 1907.79 -2.23753 3.52596 0
M  V30 20530 N 1908.23 -1.57291 0.0985816 0
M  V30 20531 C 1909.18 -2.1545 -0.876584 0
M  V30 20532 C 1910.17 -1.09827 -1.28974 0
M  V30 20533 O 1911.38 -1.28166 -1.26386 0
M  V30 20534 H 1907.75 -0.689252 -0.300725 0
M  V30 20535 H 1909.72 -2.96204 -0.36139 0
M  V30 20536 C 1908.47 -2.75232 -2.12468 0
M  V30 20537 H 1907.79 -3.56194 -1.81565 0
M  V30 20538 H 1909.23 -3.19489 -2.78752 0
M  V30 20539 C 1907.69 -1.71298 -2.90101 0
M  V30 20540 O 1908.22 -1.15402 -3.84767 0
M  V30 20541 N 1906.43 -1.41709 -2.53706 0
M  V30 20542 H 1905.98 -1.87354 -1.76794 0
M  V30 20543 H 1905.93 -0.724072 -3.05949 0
M  V30 20544 N 1909.71 0.175127 -1.56624 0
M  V30 20545 C 1910.67 1.20064 -1.95237 0
M  V30 20546 C 1911.67 1.37384 -0.835603 0
M  V30 20547 O 1912.86 1.34855 -1.10272 0
M  V30 20548 C 1909.99 2.5664 -2.24386 0
M  V30 20549 H 1911.18 0.870066 -2.87001 0
M  V30 20550 H 1908.74 0.41743 -1.50623 0
M  V30 20551 H 1909.47 2.94717 -1.35322 0
M  V30 20552 H 1909.26 2.45436 -3.05784 0
M  V30 20553 H 1910.75 3.30554 -2.55194 0
M  V30 20554 N 1911.18 1.5123 0.44355 0
M  V30 20555 C 1912.11 1.75038 1.54544 0
M  V30 20556 C 1913.09 0.600017 1.59166 0
M  V30 20557 O 1914.28 0.842082 1.74993 0
M  V30 20558 C 1911.41 1.86976 2.92673 0
M  V30 20559 C 1910.36 3.0237 3.02913 0
M  V30 20560 C 1909.69 2.99483 4.4296 0
M  V30 20561 C 1910.99 4.4244 2.77569 0
M  V30 20562 H 1912.68 2.67301 1.34872 0
M  V30 20563 H 1910.23 1.28627 0.647395 0
M  V30 20564 H 1912.18 2.02215 3.69712 0
M  V30 20565 H 1910.91 0.913563 3.13563 0
M  V30 20566 H 1909.57 2.86826 2.28312 0
M  V30 20567 H 1909.21 2.01654 4.60809 0
M  V30 20568 H 1908.91 3.76968 4.50743 0
M  V30 20569 H 1910.44 3.16808 5.21982 0
M  V30 20570 H 1911.85 4.58367 3.44344 0
M  V30 20571 H 1910.25 5.21583 2.96768 0
M  V30 20572 H 1911.32 4.52906 1.73218 0
M  V30 20573 N 1912.66 -0.698586 1.41271 0
M  V30 20574 C 1913.91 -1.45573 1.40189 0
M  V30 20575 C 1914.23 -1.94997 0.0108379 0
M  V30 20576 O 1913.5 -1.715 -0.946822 0
M  V30 20577 H 1912.08 -0.540134 0.516008 0
M  V30 20578 H 1914.74 -0.827048 1.76482 0
M  V30 20579 H 1913.84 -2.32036 2.08724 0
M  V30 20580 N 1914.14 -1.27049 -0.93254 0
M  V30 20581 C 1915.37 -1.15735 -1.7114 0
M  V30 20582 C 1915.78 0.289069 -1.86979 0
M  V30 20583 O 1915.12 1.20906 -1.38302 0
M  V30 20584 C 1915.18 -1.76319 -3.13292 0
M  V30 20585 C 1914.85 -3.25471 -3.20808 0
M  V30 20586 C 1915.84 -4.22172 -3.03425 0
M  V30 20587 C 1913.53 -3.66092 -3.43921 0
M  V30 20588 C 1915.52 -5.57471 -3.09038 0
M  V30 20589 C 1913.21 -5.01522 -3.49168 0
M  V30 20590 C 1914.21 -5.97022 -3.31744 0
M  V30 20591 O 1913.9 -7.29985 -3.36716 0
M  V30 20592 H 1913.63 -0.403495 -0.542372 0
M  V30 20593 H 1916.18 -1.68334 -1.17698 0
M  V30 20594 H 1914.41 -1.18192 -3.68195 0
M  V30 20595 H 1916.1 -1.59788 -3.73125 0
M  V30 20596 H 1916.87 -3.92127 -2.85415 0
M  V30 20597 H 1912.75 -2.92238 -3.56536 0
M  V30 20598 H 1916.29 -6.3199 -2.95356 0
M  V30 20599 H 1912.19 -5.31225 -3.66702 0
M  V30 20600 H 1912.95 -7.3837 -3.53203 0
M  V30 20601 N 1915.62 1.13835 -1.08993 0
M  V30 20602 C 1916.84 1.89402 -0.845071 0
M  V30 20603 C 1917.27 1.78353 0.597641 0
M  V30 20604 O 1916.63 1.12793 1.41942 0
M  V30 20605 C 1916.67 3.37144 -1.27931 0
M  V30 20606 O 1915.78 4.101 -0.434975 0
M  V30 20607 H 1915.12 0.589066 -0.306427 0
M  V30 20608 H 1917.65 1.44055 -1.45291 0
M  V30 20609 H 1917.66 3.87967 -1.26277 0
M  V30 20610 H 1916.33 3.44504 -2.33002 0
M  V30 20611 H 1914.91 3.6932 -0.515447 0
M  V30 20612 N 1917.1 0.876467 1.3098 0
M  V30 20613 C 1918.01 0.340667 2.32113 0
M  V30 20614 C 1919.02 -0.552749 1.64987 0
M  V30 20615 O 1920.2 -0.447909 1.96356 0
M  V30 20616 C 1917.26 -0.443504 3.43852 0
M  V30 20617 C 1916.32 0.478646 4.26623 0
M  V30 20618 C 1915.56 -0.268194 5.33026 0
M  V30 20619 O 1915.78 -1.49543 5.50448 0
M  V30 20620 O 1914.71 0.377306 6.00716 0
M  V30 20621 H 1918.54 1.1791 2.79877 0
M  V30 20622 H 1916.12 0.640037 1.34996 0
M  V30 20623 H 1918.01 -0.887816 4.11941 0
M  V30 20624 H 1916.68 -1.25838 2.98239 0
M  V30 20625 H 1915.59 0.971593 3.61263 0
M  V30 20626 H 1916.92 1.25929 4.75818 0
M  V30 20627 N 1918.57 -1.44173 0.636557 0
M  V30 20628 C 1919.5 -2.33442 -0.0518719 0
M  V30 20629 C 1920.48 -1.48519 -0.829226 0
M  V30 20630 O 1921.67 -1.77225 -0.794028 0
M  V30 20631 C 1918.8 -3.31663 -1.03038 0
M  V30 20632 C 1917.75 -4.26447 -0.364286 0
M  V30 20633 C 1917.08 -5.14577 -1.45308 0
M  V30 20634 C 1918.38 -5.17133 0.732884 0
M  V30 20635 H 1920.07 -2.91255 0.693589 0
M  V30 20636 H 1917.62 -1.40049 0.33499 0
M  V30 20637 H 1919.57 -3.93002 -1.52077 0
M  V30 20638 H 1918.3 -2.72071 -1.80679 0
M  V30 20639 H 1916.96 -3.66448 0.105505 0
M  V30 20640 H 1916.6 -4.51334 -2.22051 0
M  V30 20641 H 1916.3 -5.78807 -1.01274 0
M  V30 20642 H 1917.83 -5.78788 -1.94517 0
M  V30 20643 H 1919.24 -5.72376 0.325363 0
M  V30 20644 H 1917.64 -5.89994 1.09669 0
M  V30 20645 H 1918.71 -4.5782 1.59779 0
M  V30 20646 N 1920.05 -0.377435 -1.53014 0
M  V30 20647 C 1921.3 0.208118 -2.01026 0
M  V30 20648 C 1921.62 1.48307 -1.26609 0
M  V30 20649 O 1920.89 1.92125 -0.382732 0
M  V30 20650 H 1919.47 0.0798957 -0.742715 0
M  V30 20651 H 1922.13 -0.506396 -1.88206 0
M  V30 20652 H 1921.23 0.426737 -3.09169 0
M  V30 20653 N 1921.53 1.57237 -0.106922 0
M  V30 20654 C 1922.49 2.13515 0.833317 0
M  V30 20655 C 1923.49 1.06715 1.20285 0
M  V30 20656 O 1924.68 1.32548 1.13034 0
M  V30 20657 C 1921.82 2.66546 2.12523 0
M  V30 20658 H 1923.01 2.97916 0.344435 0
M  V30 20659 H 1920.56 1.55652 0.142199 0
M  V30 20660 H 1921.3 1.85699 2.65869 0
M  V30 20661 H 1921.08 3.44643 1.86985 0
M  V30 20662 H 1922.57 3.10039 2.7976 0
M  V30 20663 N 1923.01 -0.166818 1.56715 0
M  V30 20664 C 1924.26 -0.881043 1.8144 0
M  V30 20665 C 1924.57 -1.83216 0.684925 0
M  V30 20666 O 1925.78 -2.58908 0.817234 0
M  V30 20667 C 1924.23 -1.61724 3.21517 0
M  V30 20668 C 1923.84 -0.709534 4.42346 0
M  V30 20669 C 1925.58 -2.31943 3.55532 0
M  V30 20670 C 1923.49 -1.44622 5.73444 0
M  V30 20671 H 1922.42 -0.332741 0.676609 0
M  V30 20672 H 1925.07 -0.133924 1.83011 0
M  V30 20673 H 1923.45 -2.40928 3.14277 0
M  V30 20674 H 1924.63 0.0458591 4.60777 0
M  V30 20675 H 1922.94 -0.116776 4.16236 0
M  V30 20676 H 1925.54 -2.87662 4.50727 0
M  V30 20677 H 1925.88 -3.07495 2.80629 0
M  V30 20678 H 1926.42 -1.59678 3.64346 0
M  V30 20679 H 1923.16 -0.732937 6.51389 0
M  V30 20680 H 1922.68 -2.17483 5.58982 0
M  V30 20681 H 1924.35 -1.9925 6.15555 0
M  V30 20682 N 1924.49 -1.51463 -0.435524 0
M  V30 20683 C 1925.43 -1.72908 -1.52877 0
M  V30 20684 C 1926.4 -0.570809 -1.55984 0
M  V30 20685 O 1927.59 -0.805443 -1.72966 0
M  V30 20686 C 1924.73 -1.8617 -2.90576 0
M  V30 20687 C 1923.84 -3.13726 -2.96985 0
M  V30 20688 C 1922.98 -3.17573 -4.25818 0
M  V30 20689 C 1922.02 -4.39437 -4.26101 0
M  V30 20690 N 1921.15 -4.40823 -5.46461 0
M  V30 20691 H 1925.99 -2.66226 -1.33894 0
M  V30 20692 H 1923.53 -1.3194 -0.650399 0
M  V30 20693 H 1925.49 -1.91841 -3.70476 0
M  V30 20694 H 1924.12 -0.962585 -3.08114 0
M  V30 20695 H 1923.17 -3.17356 -2.09737 0
M  V30 20696 H 1924.48 -4.03634 -2.93055 0
M  V30 20697 H 1923.64 -3.2217 -5.14093 0
M  V30 20698 H 1922.37 -2.25558 -4.32406 0
M  V30 20699 H 1921.38 -4.35014 -3.36219 0
M  V30 20700 H 1922.6 -5.32718 -4.21175 0
M  V30 20701 H 1920.55 -3.51679 -5.53767 0
M  V30 20702 H 1920.47 -5.24541 -5.44419 0
M  V30 20703 H 1921.74 -4.49615 -6.36763 0
M  V30 20704 N 1925.96 0.691085 -1.4164 0
M  V30 20705 C 1927.19 1.48481 -1.44804 0
M  V30 20706 C 1927.61 1.88016 -0.0561606 0
M  V30 20707 O 1926.97 1.54927 0.941657 0
M  V30 20708 C 1927.02 2.72083 -2.3665 0
M  V30 20709 O 1926.12 3.6974 -1.82663 0
M  V30 20710 H 1925.47 0.446714 -0.491267 0
M  V30 20711 H 1928 0.849076 -1.8615 0
M  V30 20712 H 1928.01 3.2034 -2.52678 0
M  V30 20713 H 1926.68 2.42645 -3.37781 0
M  V30 20714 H 1925.26 3.28695 -1.76108 0
M  V30 20715 N 1927.44 1.27542 0.925789 0
M  V30 20716 C 1928.37 1.12952 2.04363 0
M  V30 20717 C 1929.35 0.0304761 1.70073 0
M  V30 20718 O 1930.54 0.205307 1.93112 0
M  V30 20719 C 1927.67 0.777954 3.38475 0
M  V30 20720 C 1926.62 1.83044 3.86883 0
M  V30 20721 C 1925.95 1.3328 5.17823 0
M  V30 20722 C 1927.25 3.23488 4.10065 0
M  V30 20723 H 1928.94 2.06462 2.16827 0
M  V30 20724 H 1926.49 0.994046 1.04186 0
M  V30 20725 H 1928.44 0.662702 4.16156 0
M  V30 20726 H 1927.17 -0.192851 3.2603 0
M  V30 20727 H 1925.82 1.93463 3.11396 0
M  V30 20728 H 1925.47 0.351399 5.01771 0
M  V30 20729 H 1925.17 2.03648 5.51182 0
M  V30 20730 H 1926.7 1.23053 5.98072 0
M  V30 20731 H 1928.11 3.16058 4.7831 0
M  V30 20732 H 1926.51 3.91583 4.54734 0
M  V30 20733 H 1927.58 3.68399 3.15293 0
M  V30 20734 N 1928.92 -1.13255 1.09595 0
M  V30 20735 C 1930.34 -1.36563 0.825994 0
M  V30 20736 C 1930.54 -1.93595 -0.558844 0
M  V30 20737 O 1929.59 -2.15654 -1.31338 0
M  V30 20738 C 1930.91 -2.31535 1.91864 0
M  V30 20739 C 1932.45 -2.45147 1.94607 0
M  V30 20740 C 1932.93 -3.43427 3.03021 0
M  V30 20741 N 1934.42 -3.50979 3.02271 0
M  V30 20742 C 1935.15 -4.2691 3.82799 0
M  V30 20743 N 1934.65 -5.05981 4.73239 0
M  V30 20744 N 1936.44 -4.22229 3.71051 0
M  V30 20745 H 1928.59 -0.745889 1.98872 0
M  V30 20746 H 1930.86 -0.390727 0.863734 0
M  V30 20747 H 1930.56 -1.96788 2.91492 0
M  V30 20748 H 1930.44 -3.3157 1.79837 0
M  V30 20749 H 1932.82 -2.7918 0.956178 0
M  V30 20750 H 1932.91 -1.45031 2.10712 0
M  V30 20751 H 1932.55 -3.10126 4.02225 0
M  V30 20752 H 1932.48 -4.43352 2.84159 0
M  V30 20753 H 1934.97 -2.94562 2.36731 0
M  V30 20754 H 1935.28 -5.61231 5.31262 0
M  V30 20755 H 1933.63 -5.05208 4.77274 0
M  V30 20756 H 1936.82 -3.59534 2.99755 0
M  V30 20757 H 1936.99 -4.81152 4.34047 0
M  V30 20758 N 1930.4 -0.883401 -1.30514 0
M  V30 20759 C 1931.63 -0.515948 -2.00364 0
M  V30 20760 C 1932.04 0.895148 -1.6623 0
M  V30 20761 O 1931.4 1.58844 -0.898601 0
M  V30 20762 C 1931.45 -0.679282 -3.55061 0
M  V30 20763 O 1931.17 -2.03482 -3.87978 0
M  V30 20764 C 1932.67 -0.314612 -4.42182 0
M  V30 20765 H 1929.89 -0.199595 -0.640627 0
M  V30 20766 H 1932.44 -1.18827 -1.66435 0
M  V30 20767 H 1930.59 -0.0543511 -3.87362 0
M  V30 20768 H 1931 -2.0523 -4.82681 0
M  V30 20769 H 1932.48 -0.4798 -5.49911 0
M  V30 20770 H 1932.96 0.747247 -4.32797 0
M  V30 20771 H 1933.56 -0.9158 -4.15323 0
M  V30 20772 N 1931.88 1.43833 -0.644194 0
M  V30 20773 C 1932.81 2.33467 0.0394911 0
M  V30 20774 C 1933.79 1.48957 0.821339 0
M  V30 20775 O 1934.97 1.77644 0.784618 0
M  V30 20776 C 1932.1 3.32205 1.01277 0
M  V30 20777 C 1931.06 4.26634 0.341666 0
M  V30 20778 C 1930.38 5.15341 1.42577 0
M  V30 20779 C 1931.68 5.16737 -0.760299 0
M  V30 20780 H 1933.38 2.90883 -0.709025 0
M  V30 20781 H 1930.92 1.3987 -0.342413 0
M  V30 20782 H 1932.88 3.93803 1.49991 0
M  V30 20783 H 1931.6 2.73025 1.79234 0
M  V30 20784 H 1930.26 3.66387 -0.124937 0
M  V30 20785 H 1929.91 4.52505 2.19654 0
M  V30 20786 H 1929.61 5.79336 0.98203 0
M  V30 20787 H 1931.13 5.79811 1.91444 0
M  V30 20788 H 1932.54 5.72195 -0.355713 0
M  V30 20789 H 1930.94 5.89404 -1.12796 0
M  V30 20790 H 1932.01 4.56966 -1.62204 0
M  V30 20791 N 1933.35 0.385544 1.52811 0
M  V30 20792 C 1934.77 0.0353371 1.59561 0
M  V30 20793 C 1934.97 -1.44948 1.39973 0
M  V30 20794 O 1934.03 -2.21354 1.21484 0
M  V30 20795 C 1935.34 0.509155 2.96358 0
M  V30 20796 C 1936.89 0.465088 3.09525 0
M  V30 20797 C 1937.36 0.915035 4.48766 0
M  V30 20798 N 1938.85 0.870895 4.54939 0
M  V30 20799 C 1939.59 1.1905 5.60905 0
M  V30 20800 N 1939.08 1.58039 6.74534 0
M  V30 20801 N 1940.88 1.112 5.50991 0
M  V30 20802 H 1933.03 1.35224 1.63793 0
M  V30 20803 H 1935.29 0.554013 0.769268 0
M  V30 20804 H 1935 1.54604 3.15896 0
M  V30 20805 H 1934.87 -0.0937516 3.77083 0
M  V30 20806 H 1937.26 -0.562704 2.89685 0
M  V30 20807 H 1937.34 1.10375 2.30762 0
M  V30 20808 H 1936.98 1.94104 4.69346 0
M  V30 20809 H 1936.91 0.253422 5.2599 0
M  V30 20810 H 1939.4 0.583936 3.73361 0
M  V30 20811 H 1939.72 1.808 7.51353 0
M  V30 20812 H 1938.06 1.61922 6.75874 0
M  V30 20813 H 1941.25 0.806438 4.61101 0
M  V30 20814 H 1941.43 1.3644 6.33473 0
M  V30 20815 N 1934.83 -1.57178 0.115259 0
M  V30 20816 C 1935.8 -2.13953 -0.821982 0
M  V30 20817 C 1936.8 -1.07352 -1.19717 0
M  V30 20818 O 1937.99 -1.33146 -1.12329 0
M  V30 20819 C 1935.12 -2.6767 -2.11106 0
M  V30 20820 H 1936.31 -2.98094 -0.328631 0
M  V30 20821 H 1933.86 -1.55725 -0.133942 0
M  V30 20822 H 1934.6 -1.87106 -2.6488 0
M  V30 20823 H 1934.38 -3.4563 -1.85155 0
M  V30 20824 H 1935.87 -3.11519 -2.78111 0
M  V30 20825 N 1936.31 0.158505 -1.56801 0
M  V30 20826 C 1937.24 1.19799 -2.00426 0
M  V30 20827 C 1938.22 1.45453 -0.881905 0
M  V30 20828 O 1939.41 1.56569 -1.1489 0
M  V30 20829 C 1936.54 2.53392 -2.37508 0
M  V30 20830 C 1935.49 2.42283 -3.52822 0
M  V30 20831 C 1934.82 3.80482 -3.75683 0
M  V30 20832 C 1936.12 1.91666 -4.85862 0
M  V30 20833 H 1937.81 0.835303 -2.87512 0
M  V30 20834 H 1935.36 0.400366 -1.38322 0
M  V30 20835 H 1937.31 3.26326 -2.66625 0
M  V30 20836 H 1936.03 2.91474 -1.47345 0
M  V30 20837 H 1934.69 1.71801 -3.23852 0
M  V30 20838 H 1934.34 4.15979 -2.8279 0
M  V30 20839 H 1934.04 3.73913 -4.5328 0
M  V30 20840 H 1935.57 4.54982 -4.07214 0
M  V30 20841 H 1936.98 2.54384 -5.13772 0
M  V30 20842 H 1935.38 1.96016 -5.67184 0
M  V30 20843 H 1936.45 0.871666 -4.77001 0
M  V30 20844 N 1937.79 1.51692 0.427485 0
M  V30 20845 C 1939.21 1.40086 0.764726 0
M  V30 20846 C 1939.41 0.490917 1.95428 0
M  V30 20847 O 1938.46 -0.0502236 2.5245 0
M  V30 20848 C 1939.77 2.82295 1.03586 0
M  V30 20849 C 1941.32 2.91513 1.1397 0
M  V30 20850 C 1941.8 4.34651 1.44371 0
M  V30 20851 N 1943.29 4.37802 1.51274 0
M  V30 20852 C 1944.02 5.45596 1.76388 0
M  V30 20853 N 1943.52 6.63536 1.99228 0
M  V30 20854 N 1945.31 5.33088 1.78252 0
M  V30 20855 H 1937.46 2.09399 -0.355809 0
M  V30 20856 H 1939.73 0.943043 -0.0968225 0
M  V30 20857 H 1939.43 3.50918 0.234369 0
M  V30 20858 H 1939.31 3.22223 1.96092 0
M  V30 20859 H 1941.69 2.23082 1.9318 0
M  V30 20860 H 1941.77 2.55068 0.193426 0
M  V30 20861 H 1941.42 5.03635 0.656841 0
M  V30 20862 H 1941.35 4.68617 2.4022 0
M  V30 20863 H 1943.84 3.52777 1.35487 0
M  V30 20864 H 1944.15 7.41477 2.17789 0
M  V30 20865 H 1942.5 6.66634 1.9653 0
M  V30 20866 H 1945.69 4.39931 1.59933 0
M  V30 20867 H 1945.86 6.17174 1.97486 0
M  V30 20868 N 1939.27 -0.683564 1.42004 0
M  V30 20869 C 1940.68 -1.26389 1.37414 0
M  V30 20870 C 1941.03 -1.96099 0.0630958 0
M  V30 20871 O 1940.15 -1.995 -0.838385 0
M  V30 20872 C 1940.75 -2.29854 2.48903 0
M  V30 20873 C 1939.31 -2.83435 2.47673 0
M  V30 20874 C 1938.46 -1.57634 2.28138 0
M  V30 20875 H 1941.41 -0.477522 1.51345 0
M  V30 20876 H 1941.43 -3.11404 2.18651 0
M  V30 20877 H 1940.94 -1.7909 3.44309 0
M  V30 20878 H 1939.04 -3.38344 1.56059 0
M  V30 20879 H 1939.15 -3.33048 3.44407 0
M  V30 20880 H 1937.52 -1.83883 1.76236 0
M  V30 20881 H 1938.3 -1.08848 3.25587 0
M  V30 20882 N 1940.75 -1.28031 -0.919012 0
M  V30 20883 C 1941.68 -1.14034 -2.03761 0
M  V30 20884 C 1942.66 -0.039495 -1.70054 0
M  V30 20885 O 1943.84 -0.215546 -1.93 0
M  V30 20886 C 1940.97 -0.795894 -3.38057 0
M  V30 20887 C 1939.93 -1.85093 -3.85907 0
M  V30 20888 C 1939.25 -1.36024 -5.17109 0
M  V30 20889 C 1940.55 -3.25658 -4.08343 0
M  V30 20890 H 1942.25 -2.07609 -2.15729 0
M  V30 20891 H 1939.79 -0.999558 -1.03657 0
M  V30 20892 H 1941.74 -0.684762 -4.15799 0
M  V30 20893 H 1940.47 0.175558 -3.26128 0
M  V30 20894 H 1939.13 -1.95112 -3.10366 0
M  V30 20895 H 1938.78 -0.378004 -5.01578 0
M  V30 20896 H 1938.48 -2.06568 -5.50094 0
M  V30 20897 H 1940 -1.26223 -5.97411 0
M  V30 20898 H 1941.41 -3.1859 -4.76627 0
M  V30 20899 H 1939.81 -3.93989 -4.52651 0
M  V30 20900 H 1940.88 -3.70066 -3.13335 0
M  V30 20901 N 1942.22 1.12672 -1.10194 0
M  V30 20902 C 1943.64 1.36123 -0.833225 0
M  V30 20903 C 1943.84 1.93889 0.548569 0
M  V30 20904 O 1942.9 2.16347 1.30192 0
M  V30 20905 C 1944.21 2.30515 -1.93089 0
M  V30 20906 C 1945.76 2.44111 -1.95905 0
M  V30 20907 C 1946.23 3.41816 -3.04838 0
M  V30 20908 N 1947.72 3.49371 -3.04128 0
M  V30 20909 C 1948.46 4.24874 -3.85058 0
M  V30 20910 N 1947.95 5.03464 -4.75916 0
M  V30 20911 N 1949.75 4.20255 -3.73285 0
M  V30 20912 H 1941.9 0.735332 -1.99265 0
M  V30 20913 H 1944.16 0.386141 -0.865794 0
M  V30 20914 H 1943.87 1.95239 -2.92531 0
M  V30 20915 H 1943.74 3.30611 -1.81593 0
M  V30 20916 H 1946.13 2.78669 -0.97097 0
M  V30 20917 H 1946.21 1.43911 -2.11479 0
M  V30 20918 H 1945.85 3.07988 -4.03864 0
M  V30 20919 H 1945.78 4.41839 -2.86506 0
M  V30 20920 H 1948.27 2.93303 -2.38289 0
M  V30 20921 H 1948.59 5.58406 -5.34231 0
M  V30 20922 H 1946.93 5.02669 -4.79946 0
M  V30 20923 H 1950.12 3.57939 -3.01658 0
M  V30 20924 H 1950.3 4.78843 -4.36593 0
M  V30 20925 N 1943.7 0.89031 1.30043 0
M  V30 20926 C 1944.66 0.365912 2.2626 0
M  V30 20927 C 1945.66 -0.494616 1.53004 0
M  V30 20928 O 1946.85 -0.301009 1.7158 0
M  V30 20929 C 1943.99 -0.477952 3.37533 0
M  V30 20930 H 1945.18 1.21557 2.7416 0
M  V30 20931 H 1942.73 0.667628 1.41324 0
M  V30 20932 H 1943.47 -1.34798 2.94958 0
M  V30 20933 H 1943.25 0.138514 3.91855 0
M  V30 20934 H 1944.74 -0.836463 4.09137 0
M  V30 20935 N 1945.18 -1.43489 0.651812 0
M  V30 20936 C 1946.11 -2.33484 -0.0271093 0
M  V30 20937 C 1947.09 -1.4939 -0.813427 0
M  V30 20938 O 1948.28 -1.78058 -0.775186 0
M  V30 20939 C 1945.41 -3.32737 -0.995143 0
M  V30 20940 C 1944.36 -4.26809 -0.319036 0
M  V30 20941 C 1943.69 -5.1609 -1.39842 0
M  V30 20942 C 1944.99 -5.16326 0.787692 0
M  V30 20943 H 1946.68 -2.90503 0.724441 0
M  V30 20944 H 1944.23 -1.39686 0.349826 0
M  V30 20945 H 1946.18 -3.94593 -1.479 0
M  V30 20946 H 1944.9 -2.73972 -1.77784 0
M  V30 20947 H 1943.56 -3.66316 0.144366 0
M  V30 20948 H 1943.21 -4.53664 -2.17251 0
M  V30 20949 H 1942.91 -5.79848 -0.951292 0
M  V30 20950 H 1944.43 -5.80819 -1.88367 0
M  V30 20951 H 1945.85 -5.71999 0.386053 0
M  V30 20952 H 1944.24 -5.88798 1.1592 0
M  V30 20953 H 1945.31 -4.56099 1.64626 0
M  V30 20954 N 1946.66 -0.393643 -1.52605 0
M  V30 20955 C 1947.88 0.189618 -2.06531 0
M  V30 20956 C 1948.31 1.39382 -1.26311 0
M  V30 20957 O 1947.67 1.78977 -0.289278 0
M  V30 20958 C 1947.71 0.533717 -3.56628 0
M  V30 20959 O 1946.82 1.62703 -3.78948 0
M  V30 20960 H 1946.16 0.0209483 -0.663669 0
M  V30 20961 H 1948.69 -0.562368 -1.9672 0
M  V30 20962 H 1948.7 0.796786 -4.00144 0
M  V30 20963 H 1947.37 -0.34665 -4.14453 0
M  V30 20964 H 1945.95 1.35734 -3.47319 0
M  V30 20965 N 1948.14 1.57115 -0.123593 0
M  V30 20966 C 1949.55 1.5789 0.232975 0
M  V30 20967 C 1949.75 1.13659 1.66385 0
M  V30 20968 O 1948.81 0.826084 2.38604 0
M  V30 20969 C 1950.12 3.007 -0.0045178 0
M  V30 20970 C 1951.67 3.12941 0.0610235 0
M  V30 20971 C 1952.14 4.57758 -0.148835 0
M  V30 20972 N 1953.63 4.63103 -0.0949606 0
M  V30 20973 C 1954.37 5.7293 -0.232177 0
M  V30 20974 N 1953.87 6.9149 -0.42582 0
M  V30 20975 N 1955.66 5.61839 -0.171428 0
M  V30 20976 H 1947.81 1.84166 -1.05814 0
M  V30 20977 H 1950.07 0.851342 -0.417038 0
M  V30 20978 H 1949.78 3.37364 -0.993901 0
M  V30 20979 H 1949.65 3.70161 0.725327 0
M  V30 20980 H 1952.04 2.76131 1.04094 0
M  V30 20981 H 1952.12 2.46014 -0.700776 0
M  V30 20982 H 1951.76 4.95267 -1.12574 0
M  V30 20983 H 1951.69 5.22782 0.633006 0
M  V30 20984 H 1954.19 3.77866 0.0510058 0
M  V30 20985 H 1954.5 7.7104 -0.521263 0
M  V30 20986 H 1952.84 6.93464 -0.461851 0
M  V30 20987 H 1956.03 4.68095 -0.0210758 0
M  V30 20988 H 1956.21 6.47387 -0.281807 0
M  V30 20989 N 1949.61 -0.150187 1.56883 0
M  V30 20990 C 1950.86 -0.863336 1.83174 0
M  V30 20991 C 1951.19 -1.81313 0.703986 0
M  V30 20992 O 1950.44 -1.93273 -0.307235 0
M  V30 20993 C 1950.74 -1.67394 3.15775 0
M  V30 20994 C 1950.41 -0.871221 4.42403 0
M  V30 20995 C 1949.07 -0.649752 4.76793 0
M  V30 20996 C 1951.42 -0.309625 5.2028 0
M  V30 20997 C 1948.75 0.144072 5.86523 0
M  V30 20998 C 1951.1 0.471222 6.30843 0
M  V30 20999 C 1949.77 0.703297 6.63785 0
M  V30 21000 H 1949.04 -0.315917 0.670282 0
M  V30 21001 H 1951.68 -0.127141 1.91077 0
M  V30 21002 H 1949.99 -2.48015 3.03308 0
M  V30 21003 H 1951.69 -2.22915 3.33332 0
M  V30 21004 H 1948.28 -1.0539 4.15441 0
M  V30 21005 H 1952.46 -0.468015 4.94088 0
M  V30 21006 H 1947.72 0.333407 6.1049 0
M  V30 21007 H 1951.89 0.913535 6.90382 0
M  V30 21008 H 1949.52 1.32027 7.48647 0
M  V30 21009 N 1951.09 -1.51916 -0.419434 0
M  V30 21010 C 1952 -1.77393 -1.53522 0
M  V30 21011 C 1953.02 -0.65897 -1.61039 0
M  V30 21012 O 1954.19 -0.943237 -1.77947 0
M  V30 21013 C 1951.26 -1.90988 -2.89352 0
M  V30 21014 C 1950.32 -3.14878 -2.91805 0
M  V30 21015 C 1949.55 -3.27815 -4.21157 0
M  V30 21016 O 1949.78 -2.4626 -5.14502 0
M  V30 21017 O 1948.71 -4.20906 -4.30258 0
M  V30 21018 H 1952.54 -2.72079 -1.34932 0
M  V30 21019 H 1950.12 -1.36635 -0.604259 0
M  V30 21020 H 1952 -2.01812 -3.69932 0
M  V30 21021 H 1950.68 -0.994906 -3.08031 0
M  V30 21022 H 1949.59 -3.0952 -2.10115 0
M  V30 21023 H 1950.92 -4.06123 -2.78073 0
M  V30 21024 N 1952.57 0.676023 -1.42365 0
M  V30 21025 C 1953.82 1.43324 -1.42487 0
M  V30 21026 C 1954.14 1.94955 -0.0418589 0
M  V30 21027 O 1953.41 1.72984 0.919418 0
M  V30 21028 H 1951.99 0.531857 -0.524535 0
M  V30 21029 H 1954.65 0.798867 -1.77775 0
M  V30 21030 H 1953.75 2.28686 -2.12389 0
M  V30 21031 N 1954.05 1.28517 0.912209 0
M  V30 21032 C 1954.98 1.06898 2.01614 0
M  V30 21033 C 1955.96 -0.0154076 1.62593 0
M  V30 21034 O 1957.14 0.132828 1.88031 0
M  V30 21035 C 1954.27 0.624772 3.32888 0
M  V30 21036 C 1953.32 1.70603 3.90892 0
M  V30 21037 S 1954.15 3.30235 4.21551 0
M  V30 21038 C 1955.31 2.87652 5.55884 0
M  V30 21039 H 1955.54 2.00361 2.19642 0
M  V30 21040 H 1953.07 1.12522 1.05727 0
M  V30 21041 H 1955.03 0.375182 4.08782 0
M  V30 21042 H 1953.69 -0.290053 3.12758 0
M  V30 21043 H 1952.88 1.34687 4.8567 0
M  V30 21044 H 1952.49 1.90849 3.2164 0
M  V30 21045 H 1954.78 2.33919 6.35837 0
M  V30 21046 H 1955.72 3.81233 5.96713 0
M  V30 21047 H 1956.13 2.26321 5.17145 0
M  V30 21048 N 1955.53 -1.12086 1.1079 0
M  V30 21049 C 1956.94 -1.35679 0.840432 0
M  V30 21050 C 1957.14 -1.94177 -0.538279 0
M  V30 21051 O 1956.2 -2.17035 -1.29043 0
M  V30 21052 C 1957.51 -2.29487 1.94309 0
M  V30 21053 C 1959.06 -2.43069 1.97197 0
M  V30 21054 C 1959.53 -3.40194 3.06646 0
M  V30 21055 N 1961.03 -3.47753 3.05977 0
M  V30 21056 C 1961.76 -4.22826 3.87305 0
M  V30 21057 N 1961.26 -5.00933 4.78579 0
M  V30 21058 N 1963.05 -4.1827 3.75509 0
M  V30 21059 H 1955.2 -0.724754 1.99652 0
M  V30 21060 H 1957.46 -0.381544 0.86783 0
M  V30 21061 H 1957.17 -1.93685 2.93563 0
M  V30 21062 H 1957.04 -3.29644 1.83343 0
M  V30 21063 H 1959.43 -2.7815 0.985735 0
M  V30 21064 H 1959.51 -1.42788 2.12239 0
M  V30 21065 H 1959.16 -3.05842 4.05491 0
M  V30 21066 H 1959.09 -4.40314 2.88845 0
M  V30 21067 H 1961.58 -2.92035 2.39841 0
M  V30 21068 H 1961.89 -5.55565 5.37185 0
M  V30 21069 H 1960.23 -5.00117 4.82605 0
M  V30 21070 H 1963.43 -3.56334 3.03551 0
M  V30 21071 H 1963.6 -4.76521 4.39126 0
M  V30 21072 N 1957 -0.897194 -1.29569 0
M  V30 21073 C 1958.25 -0.522607 -1.95951 0
M  V30 21074 C 1958.58 0.928254 -1.70579 0
M  V30 21075 O 1957.86 1.65772 -1.01734 0
M  V30 21076 C 1958.14 -0.812659 -3.5081 0
M  V30 21077 C 1957.99 -2.31504 -3.8565 0
M  V30 21078 C 1959.31 -0.297442 -4.39094 0
M  V30 21079 H 1956.43 -0.191346 -0.711727 0
M  V30 21080 H 1959.07 -1.12342 -1.5323 0
M  V30 21081 H 1957.22 -0.301316 -3.8733 0
M  V30 21082 H 1958.9 -2.89573 -3.59089 0
M  V30 21083 H 1957.14 -2.77678 -3.33283 0
M  V30 21084 H 1957.81 -2.46857 -4.93726 0
M  V30 21085 H 1960.29 -0.735265 -4.09552 0
M  V30 21086 H 1959.16 -0.529614 -5.46339 0
M  V30 21087 H 1959.42 0.801767 -4.34769 0
M  V30 21088 N 1958.48 1.43142 -0.659413 0
M  V30 21089 C 1959.73 2.02038 -0.175593 0
M  V30 21090 C 1960.06 1.5194 1.20946 0
M  V30 21091 O 1959.34 0.715095 1.80877 0
M  V30 21092 C 1959.62 3.59581 -0.193256 0
M  V30 21093 C 1959.47 4.19896 -1.61267 0
M  V30 21094 C 1960.79 4.37616 0.466976 0
M  V30 21095 H 1957.91 0.734103 -0.0652811 0
M  V30 21096 H 1960.55 1.7036 -0.841276 0
M  V30 21097 H 1958.7 3.867 0.373574 0
M  V30 21098 H 1960.37 4.03786 -2.23056 0
M  V30 21099 H 1958.62 3.7631 -2.15807 0
M  V30 21100 H 1959.29 5.28999 -1.57683 0
M  V30 21101 H 1961.76 4.16097 -0.0153667 0
M  V30 21102 H 1960.64 5.47261 0.423915 0
M  V30 21103 H 1960.9 4.14332 1.54211 0
M  V30 21104 N 1959.96 0.40173 1.52394 0
M  V30 21105 C 1961.21 -0.17672 2.02029 0
M  V30 21106 C 1961.54 -1.45417 1.28715 0
M  V30 21107 O 1960.81 -1.90524 0.391263 0
M  V30 21108 C 1961.1 -0.43198 3.575 0
M  V30 21109 C 1960.95 0.861628 4.4147 0
M  V30 21110 C 1962.27 -1.2173 4.2293 0
M  V30 21111 H 1959.39 -0.0627536 0.734323 0
M  V30 21112 H 1962.03 0.533742 1.82349 0
M  V30 21113 H 1960.18 -1.03719 3.74399 0
M  V30 21114 H 1961.85 1.49808 4.36297 0
M  V30 21115 H 1960.1 1.47424 4.07981 0
M  V30 21116 H 1960.77 0.637511 5.48306 0
M  V30 21117 H 1963.24 -0.704996 4.10084 0
M  V30 21118 H 1962.12 -1.36465 5.31666 0
M  V30 21119 H 1962.38 -2.23592 3.81391 0
M  V30 21120 N 1961.44 -1.57047 0.131923 0
M  V30 21121 C 1962.39 -2.17261 -0.830686 0
M  V30 21122 C 1963.38 -1.12538 -1.26616 0
M  V30 21123 O 1964.59 -1.30818 -1.23639 0
M  V30 21124 H 1960.96 -0.695476 -0.286037 0
M  V30 21125 H 1962.93 -2.96903 -0.29848 0
M  V30 21126 C 1961.68 -2.79677 -2.06582 0
M  V30 21127 H 1961 -3.59965 -1.73969 0
M  V30 21128 H 1962.44 -3.2533 -2.71912 0
M  V30 21129 C 1960.9 -1.77413 -2.86402 0
M  V30 21130 O 1961.43 -1.23537 -3.82232 0
M  V30 21131 N 1959.64 -1.47059 -2.50643 0
M  V30 21132 H 1959.19 -1.91062 -1.7278 0
M  V30 21133 H 1959.14 -0.788806 -3.04344 0
M  V30 21134 N 1962.92 0.141865 -1.5696 0
M  V30 21135 C 1963.88 1.15896 -1.97739 0
M  V30 21136 C 1964.88 1.3558 -0.864556 0
M  V30 21137 O 1966.07 1.32485 -1.13107 0
M  V30 21138 C 1963.2 2.51822 -2.29779 0
M  V30 21139 H 1964.39 0.808993 -2.88782 0
M  V30 21140 H 1961.95 0.385387 -1.51474 0
M  V30 21141 H 1962.68 2.91781 -1.41543 0
M  V30 21142 H 1962.47 2.38894 -3.10921 0
M  V30 21143 H 1963.96 3.25066 -2.62148 0
M  V30 21144 N 1964.39 1.52136 0.411372 0
M  V30 21145 C 1965.32 1.78277 1.50796 0
M  V30 21146 C 1966.31 0.633643 1.57857 0
M  V30 21147 O 1967.49 0.879011 1.73168 0
M  V30 21148 C 1964.62 1.93142 2.88641 0
M  V30 21149 C 1963.57 3.08727 2.96431 0
M  V30 21150 C 1962.9 3.08812 4.36508 0
M  V30 21151 C 1964.2 4.48228 2.68122 0
M  V30 21152 H 1965.89 2.70102 1.29171 0
M  V30 21153 H 1963.44 1.29971 0.619965 0
M  V30 21154 H 1965.39 2.10012 3.65339 0
M  V30 21155 H 1964.12 0.979869 3.11554 0
M  V30 21156 H 1962.78 2.91604 2.22177 0
M  V30 21157 H 1962.42 2.11383 4.56428 0
M  V30 21158 H 1962.12 3.86444 4.42645 0
M  V30 21159 H 1963.65 3.27809 5.15144 0
M  V30 21160 H 1965.06 4.65568 3.34544 0
M  V30 21161 H 1963.46 5.27761 2.85638 0
M  V30 21162 H 1964.53 4.56478 1.63572 0
M  V30 21163 N 1965.87 -0.668464 1.42721 0
M  V30 21164 C 1966.8 -1.79375 1.49489 0
M  V30 21165 C 1967.78 -1.66442 0.350881 0
M  V30 21166 O 1968.97 -1.85767 0.566049 0
M  V30 21167 C 1966.1 -3.17712 1.40273 0
M  V30 21168 C 1965.05 -3.45389 2.52766 0
M  V30 21169 C 1964.38 -4.83367 2.28606 0
M  V30 21170 C 1965.68 -3.4165 3.95061 0
M  V30 21171 H 1967.37 -1.73968 2.43671 0
M  V30 21172 H 1964.92 -0.835548 1.1728 0
M  V30 21173 H 1966.87 -3.96173 1.43614 0
M  V30 21174 H 1965.6 -3.23811 0.425882 0
M  V30 21175 H 1964.26 -2.69292 2.48752 0
M  V30 21176 H 1963.9 -4.86124 1.292 0
M  V30 21177 H 1963.6 -5.02847 3.04005 0
M  V30 21178 H 1965.13 -5.64104 2.33707 0
M  V30 21179 H 1966.54 -4.1007 4.00644 0
M  V30 21180 H 1964.94 -3.72666 4.70362 0
M  V30 21181 H 1966.01 -2.40106 4.2128 0
M  V30 21182 N 1967.35 -1.28999 -0.905381 0
M  V30 21183 C 1968.6 -1.1641 -1.65207 0
M  V30 21184 C 1968.92 0.285952 -1.92892 0
M  V30 21185 O 1968.19 1.19672 -1.55098 0
M  V30 21186 H 1966.77 -0.427826 -0.612351 0
M  V30 21187 H 1969.43 -1.61845 -1.08592 0
M  V30 21188 H 1968.53 -1.70993 -2.6109 0
M  V30 21189 N 1968.83 1.11497 -1.11383 0
M  V30 21190 C 1969.79 2.15704 -0.774896 0
M  V30 21191 C 1970.79 1.59482 0.205448 0
M  V30 21192 O 1971.98 1.7419 -0.018959 0
M  V30 21193 C 1969.11 3.40572 -0.149551 0
M  V30 21194 H 1970.31 2.47199 -1.69802 0
M  V30 21195 H 1967.86 1.26673 -0.915627 0
M  V30 21196 H 1968.6 3.14685 0.78383 0
M  V30 21197 H 1968.38 3.82659 -0.855233 0
M  V30 21198 H 1969.87 4.17539 0.0714744 0
M  V30 21199 N 1970.31 0.904053 1.29092 0
M  V30 21200 C 1971.56 0.528154 1.94662 0
M  V30 21201 C 1971.87 -0.930986 1.72023 0
M  V30 21202 O 1973.08 -1.4146 2.31735 0
M  V30 21203 C 1971.53 0.893684 3.48628 0
M  V30 21204 C 1971.14 2.37189 3.8006 0
M  V30 21205 C 1972.88 0.587904 4.20409 0
M  V30 21206 C 1970.79 2.67805 5.2729 0
M  V30 21207 H 1969.72 0.193795 0.72867 0
M  V30 21208 H 1972.37 1.10164 1.46752 0
M  V30 21209 H 1970.75 0.249078 3.95216 0
M  V30 21210 H 1971.93 3.06241 3.44315 0
M  V30 21211 H 1970.24 2.64714 3.21428 0
M  V30 21212 H 1972.84 0.793441 5.2878 0
M  V30 21213 H 1973.18 -0.473803 4.13595 0
M  V30 21214 H 1973.72 1.19054 3.79567 0
M  V30 21215 H 1970.45 3.72791 5.39172 0
M  V30 21216 H 1969.97 2.03381 5.64266 0
M  V30 21217 H 1971.65 2.543 5.94929 0
M  V30 21218 N 1971.79 -1.4279 0.666995 0
M  V30 21219 C 1973.2 -1.84821 0.264217 0
M  V30 21220 C 1973.55 -1.55834 -1.19206 0
M  V30 21221 O 1972.67 -1.01422 -1.91161 0
M  V30 21222 C 1973.27 -3.35485 0.47276 0
M  V30 21223 C 1971.83 -3.76195 0.124176 0
M  V30 21224 C 1970.97 -2.66424 0.768989 0
M  V30 21225 H 1973.92 -1.32747 0.869709 0
M  V30 21226 H 1973.95 -3.79487 -0.277532 0
M  V30 21227 H 1973.46 -3.56551 1.53274 0
M  V30 21228 H 1971.56 -3.60738 -0.932667 0
M  V30 21229 H 1971.67 -4.75825 0.559251 0
M  V30 21230 H 1970.04 -2.53906 0.200994 0
M  V30 21231 H 1970.82 -2.90315 1.83227 0
M  V30 21232 N 1973.26 -0.409806 -1.52179 0
M  V30 21233 C 1974.49 0.167702 -2.06721 0
M  V30 21234 C 1974.91 1.38034 -1.27782 0
M  V30 21235 O 1974.27 1.7866 -0.308244 0
M  V30 21236 C 1974.32 0.495862 -3.57174 0
M  V30 21237 O 1973.42 1.58675 -3.80652 0
M  V30 21238 H 1972.76 0.013908 -0.663854 0
M  V30 21239 H 1975.29 -0.583201 -1.96112 0
M  V30 21240 H 1975.3 0.754301 -4.00967 0
M  V30 21241 H 1973.98 -0.390588 -4.14062 0
M  V30 21242 H 1972.56 1.32042 -3.48739 0
M  V30 21243 N 1974.74 1.56975 -0.14025 0
M  V30 21244 C 1975.99 1.95081 0.512469 0
M  V30 21245 C 1976.3 1.02722 1.66456 0
M  V30 21246 O 1977.51 1.3038 2.38146 0
M  V30 21247 C 1975.97 3.46775 0.963057 0
M  V30 21248 C 1975.57 4.47708 -0.161733 0
M  V30 21249 C 1977.32 3.93761 1.58595 0
M  V30 21250 C 1975.22 5.90604 0.306746 0
M  V30 21251 H 1974.15 0.72829 0.195216 0
M  V30 21252 H 1976.81 1.82134 -0.223514 0
M  V30 21253 H 1975.19 3.55032 1.7541 0
M  V30 21254 H 1976.36 4.51141 -0.938529 0
M  V30 21255 H 1974.68 4.10599 -0.692608 0
M  V30 21256 H 1977.27 4.97954 1.94796 0
M  V30 21257 H 1977.62 3.34931 2.47238 0
M  V30 21258 H 1978.15 3.88394 0.859928 0
M  V30 21259 H 1974.89 6.53238 -0.544152 0
M  V30 21260 H 1974.41 5.90546 1.04956 0
M  V30 21261 H 1976.09 6.42509 0.760989 0
M  V30 21262 N 1976.22 -0.133539 1.57033 0
M  V30 21263 C 1977.15 -1.1944 1.94446 0
M  V30 21264 C 1978.13 -1.40868 0.812103 0
M  V30 21265 O 1979.31 -1.5526 1.06895 0
M  V30 21266 C 1976.44 -2.55091 2.22814 0
M  V30 21267 C 1975.49 -2.50178 3.45417 0
M  V30 21268 S 1976.32 -1.95558 4.98515 0
M  V30 21269 C 1977.48 -3.32912 5.30019 0
M  V30 21270 H 1977.71 -0.875271 2.84124 0
M  V30 21271 H 1975.24 -0.33971 1.50616 0
M  V30 21272 H 1977.2 -3.3315 2.39837 0
M  V30 21273 H 1975.86 -2.84188 1.33777 0
M  V30 21274 H 1975.05 -3.50068 3.62586 0
M  V30 21275 H 1974.66 -1.80235 3.27706 0
M  V30 21276 H 1976.95 -4.29074 5.24311 0
M  V30 21277 H 1977.89 -3.20584 6.31373 0
M  V30 21278 H 1978.3 -3.30669 4.57513 0
M  V30 21279 N 1977.7 -1.52352 -0.403298 0
M  V30 21280 C 1978.65 -1.76731 -1.51224 0
M  V30 21281 C 1979.64 -0.634655 -1.57062 0
M  V30 21282 O 1980.85 -0.816829 -1.60399 0
M  V30 21283 H 1977.22 -0.558976 -0.503041 0
M  V30 21284 H 1979.19 -2.69624 -1.2785 0
M  V30 21285 C 1977.94 -1.94029 -2.88527 0
M  V30 21286 H 1977.26 -2.80607 -2.8478 0
M  V30 21287 H 1978.7 -2.15084 -3.65397 0
M  V30 21288 C 1977.16 -0.708949 -3.29356 0
M  V30 21289 O 1977.69 0.12042 -4.01519 0
M  V30 21290 N 1975.9 -0.543167 -2.85479 0
M  V30 21291 H 1975.45 -1.21919 -2.26922 0
M  V30 21292 H 1975.4 0.279391 -3.13156 0
M  V30 21293 N 1979.18 0.660885 -1.43074 0
M  V30 21294 C 1980.42 1.42296 -1.44498 0
M  V30 21295 C 1980.75 1.94087 -0.0661594 0
M  V30 21296 O 1980.03 1.71803 0.911806 0
M  V30 21297 C 1980.31 2.60995 -2.481 0
M  V30 21298 C 1980.17 2.14746 -3.95227 0
M  V30 21299 C 1981.48 3.63212 -2.48526 0
M  V30 21300 H 1978.6 0.516071 -0.526156 0
M  V30 21301 H 1981.25 0.749896 -1.74575 0
M  V30 21302 H 1979.4 3.18417 -2.22583 0
M  V30 21303 H 1981.07 1.62384 -4.31774 0
M  V30 21304 H 1979.31 1.46188 -4.08426 0
M  V30 21305 H 1979.98 3.00068 -4.63318 0
M  V30 21306 H 1982.46 3.15534 -2.71251 0
M  V30 21307 H 1981.33 4.43825 -3.22971 0
M  V30 21308 H 1981.59 4.15285 -1.51626 0
M  V30 21309 N 1980.65 1.29477 0.898527 0
M  V30 21310 C 1981.58 1.17262 2.01921 0
M  V30 21311 C 1982.57 0.0665442 1.6997 0
M  V30 21312 O 1983.75 0.246223 1.92633 0
M  V30 21313 C 1980.88 0.849575 3.36748 0
M  V30 21314 C 1979.83 1.91209 3.82914 0
M  V30 21315 C 1979.16 1.44234 5.14879 0
M  V30 21316 C 1980.46 3.32113 4.03111 0
M  V30 21317 H 1982.15 2.11015 2.12398 0
M  V30 21318 H 1979.7 1.01592 1.02054 0
M  V30 21319 H 1981.65 0.750826 4.14657 0
M  V30 21320 H 1980.38 -0.123652 3.26366 0
M  V30 21321 H 1979.04 2.00025 3.07222 0
M  V30 21322 H 1978.68 0.457753 5.00913 0
M  V30 21323 H 1978.38 2.15293 5.46738 0
M  V30 21324 H 1979.91 1.35711 5.95327 0
M  V30 21325 H 1981.32 3.26133 4.71498 0
M  V30 21326 H 1979.72 4.0114 4.46326 0
M  V30 21327 H 1980.79 3.75004 3.07408 0
M  V30 21328 N 1982.13 -1.10905 1.11972 0
M  V30 21329 C 1983.06 -2.19168 0.805461 0
M  V30 21330 C 1984.04 -1.68557 -0.228623 0
M  V30 21331 O 1985.23 -1.93987 -0.0908778 0
M  V30 21332 C 1982.36 -3.4637 0.253951 0
M  V30 21333 C 1981.31 -4.10228 1.22054 0
M  V30 21334 C 1980.64 -5.32072 0.529483 0
M  V30 21335 C 1981.94 -4.54506 2.57336 0
M  V30 21336 H 1983.63 -2.45713 1.71071 0
M  V30 21337 H 1981.18 -1.18096 0.823969 0
M  V30 21338 H 1983.13 -4.21394 0.0218576 0
M  V30 21339 H 1981.86 -3.19301 -0.68662 0
M  V30 21340 H 1980.51 -3.37204 1.43836 0
M  V30 21341 H 1980.16 -5.01276 -0.416074 0
M  V30 21342 H 1979.86 -5.75748 1.17422 0
M  V30 21343 H 1981.39 -6.09831 0.306313 0
M  V30 21344 H 1982.8 -5.20826 2.3961 0
M  V30 21345 H 1981.2 -5.09015 3.17842 0
M  V30 21346 H 1982.27 -3.67671 3.16143 0
M  V30 21347 N 1983.61 -0.910886 -1.2861 0
M  V30 21348 C 1984.86 -0.543361 -1.95385 0
M  V30 21349 C 1985.19 0.910109 -1.71554 0
M  V30 21350 O 1984.46 1.64684 -1.03487 0
M  V30 21351 C 1984.75 -0.849821 -3.49929 0
M  V30 21352 C 1984.6 -2.35581 -3.83173 0
M  V30 21353 C 1985.92 -0.343997 -4.38754 0
M  V30 21354 H 1983.04 -0.198884 -0.709658 0
M  V30 21355 H 1985.68 -1.13961 -1.52029 0
M  V30 21356 H 1983.83 -0.34238 -3.86988 0
M  V30 21357 H 1985.5 -2.93365 -3.55998 0
M  V30 21358 H 1983.75 -2.81197 -3.30319 0
M  V30 21359 H 1984.42 -2.52079 -4.9108 0
M  V30 21360 H 1986.89 -0.778662 -4.08749 0
M  V30 21361 H 1985.77 -0.58753 -5.45747 0
M  V30 21362 H 1986.03 0.755609 -4.35595 0
M  V30 21363 N 1985.09 1.42434 -0.674558 0
M  V30 21364 C 1986.33 2.03413 -0.200601 0
M  V30 21365 C 1986.69 1.52183 1.17065 0
M  V30 21366 O 1987.89 2.04947 1.73925 0
M  V30 21367 C 1986.16 3.56638 -0.233215 0
M  V30 21368 S 1987.72 4.38471 0.169775 0
M  V30 21369 H 1984.54 0.706197 -0.0825027 0
M  V30 21370 H 1987.14 1.74186 -0.887657 0
M  V30 21371 H 1985.85 3.91422 -1.23358 0
M  V30 21372 H 1985.38 3.90538 0.473683 0
M  V30 21373 H 1987.39 4.75946 1.4032 0
M  V30 21374 N 1986.57 0.417871 1.51959 0
M  V30 21375 C 1987.5 -0.394222 2.30148 0
M  V30 21376 C 1988.48 -1.0384 1.34727 0
M  V30 21377 O 1989.66 -1.04575 1.63639 0
M  V30 21378 C 1986.79 -1.50639 3.1293 0
M  V30 21379 C 1985.75 -0.986759 4.1647 0
M  V30 21380 C 1985.07 -2.1932 4.8765 0
M  V30 21381 C 1986.37 -0.0347019 5.22288 0
M  V30 21382 H 1988.07 0.258228 2.98284 0
M  V30 21383 H 1985.61 0.125633 1.43451 0
M  V30 21384 H 1987.57 -2.08157 3.664 0
M  V30 21385 H 1986.29 -2.18685 2.42579 0
M  V30 21386 H 1984.95 -0.43393 3.64023 0
M  V30 21387 H 1984.6 -2.8594 4.1382 0
M  V30 21388 H 1984.3 -1.85199 5.57652 0
M  V30 21389 H 1985.82 -2.77427 5.43936 0
M  V30 21390 H 1987.23 -0.518951 5.70946 0
M  V30 21391 H 1985.63 0.218124 5.99703 0
M  V30 21392 H 1986.7 0.907947 4.76324 0
M  V30 21393 N 1988.04 -1.56898 0.148573 0
M  V30 21394 C 1989.29 -1.9535 -0.502116 0
M  V30 21395 C 1989.61 -1.03603 -1.65909 0
M  V30 21396 O 1990.81 -1.31641 -2.37451 0
M  V30 21397 C 1989.27 -3.47281 -0.944653 0
M  V30 21398 C 1988.88 -4.47616 0.185474 0
M  V30 21399 C 1990.62 -3.94597 -1.56504 0
M  V30 21400 C 1988.53 -5.90758 -0.27542 0
M  V30 21401 H 1987.46 -0.729315 -0.191351 0
M  V30 21402 H 1990.11 -1.82013 0.233169 0
M  V30 21403 H 1988.49 -3.55957 -1.73525 0
M  V30 21404 H 1989.66 -4.50637 0.962441 0
M  V30 21405 H 1987.98 -4.10226 0.714373 0
M  V30 21406 H 1990.58 -4.9898 -1.92153 0
M  V30 21407 H 1990.92 -3.36238 -2.45459 0
M  V30 21408 H 1991.45 -3.88845 -0.839319 0
M  V30 21409 H 1988.19 -6.5294 0.578787 0
M  V30 21410 H 1987.71 -5.91094 -1.01823 0
M  V30 21411 H 1989.39 -6.42904 -0.726905 0
M  V30 21412 N 1989.52 0.125209 -1.57102 0
M  V30 21413 C 1990.77 0.834085 -1.84524 0
M  V30 21414 C 1991.1 1.8017 -0.732742 0
M  V30 21415 O 1990.35 1.93738 0.276448 0
M  V30 21416 C 1990.65 1.62349 -3.18398 0
M  V30 21417 C 1990.32 0.800729 -4.43733 0
M  V30 21418 C 1988.98 0.573817 -4.77766 0
M  V30 21419 C 1991.33 0.226814 -5.20706 0
M  V30 21420 C 1988.66 -0.237364 -5.8622 0
M  V30 21421 C 1991.01 -0.571524 -6.30013 0
M  V30 21422 C 1989.68 -0.80881 -6.62582 0
M  V30 21423 H 1988.95 0.305213 -0.675223 0
M  V30 21424 H 1991.59 0.0967265 -1.91256 0
M  V30 21425 H 1989.9 2.43158 -3.07215 0
M  V30 21426 H 1991.59 2.17583 -3.36836 0
M  V30 21427 H 1988.18 0.987673 -4.17065 0
M  V30 21428 H 1992.37 0.389351 -4.9477 0
M  V30 21429 H 1987.62 -0.430488 -6.09883 0
M  V30 21430 H 1991.8 -1.02325 -6.88841 0
M  V30 21431 H 1989.43 -1.4392 -7.46452 0
M  V30 21432 N 1991 1.52564 0.395213 0
M  V30 21433 C 1992.25 1.68505 1.13919 0
M  V30 21434 C 1992.6 0.416721 1.87833 0
M  V30 21435 O 1991.89 -0.589378 1.8231 0
M  V30 21436 C 1992.09 2.85496 2.15004 0
M  V30 21437 C 1991.92 4.23584 1.51018 0
M  V30 21438 C 1990.69 4.889 1.27692 0
M  V30 21439 C 1992.89 5.05192 0.963599 0
M  V30 21440 N 1990.87 6.10986 0.597453 0
M  V30 21441 C 1992.24 6.18631 0.411842 0
M  V30 21442 C 1994.29 4.90427 0.859407 0
M  V30 21443 C 1993 7.1892 -0.23391 0
M  V30 21444 C 1995.02 5.90962 0.227486 0
M  V30 21445 C 1994.38 7.03702 -0.31353 0
M  V30 21446 H 1990.48 0.670134 0.403043 0
M  V30 21447 H 1993.07 1.89901 0.429595 0
M  V30 21448 H 1991.24 2.65691 2.83307 0
M  V30 21449 H 1992.97 2.90405 2.81864 0
M  V30 21450 H 1989.73 4.4751 1.55023 0
M  V30 21451 H 1990.15 6.76446 0.273942 0
M  V30 21452 H 1994.79 4.0348 1.26349 0
M  V30 21453 H 1992.51 8.05481 -0.650019 0
M  V30 21454 H 1996.1 5.81611 0.148198 0
M  V30 21455 H 1994.98 7.80162 -0.794791 0
M  V30 21456 N 1992.48 -0.653289 1.43422 0
M  V30 21457 C 1993.41 -1.77779 1.51383 0
M  V30 21458 C 1994.39 -1.6606 0.368515 0
M  V30 21459 O 1995.57 -1.85157 0.585721 0
M  V30 21460 C 1992.7 -3.16206 1.43635 0
M  V30 21461 C 1991.66 -3.42688 2.56415 0
M  V30 21462 C 1990.98 -4.80915 2.3372 0
M  V30 21463 C 1992.28 -3.3744 3.98662 0
M  V30 21464 H 1993.98 -1.71374 2.45502 0
M  V30 21465 H 1991.52 -0.823062 1.1816 0
M  V30 21466 H 1993.48 -3.94627 1.47808 0
M  V30 21467 H 1992.2 -3.23341 0.460202 0
M  V30 21468 H 1990.86 -2.66638 2.51594 0
M  V30 21469 H 1990.51 -4.84726 1.34349 0
M  V30 21470 H 1990.21 -4.99594 3.09321 0
M  V30 21471 H 1991.73 -5.61594 2.39677 0
M  V30 21472 H 1993.15 -4.05798 4.0497 0
M  V30 21473 H 1991.54 -3.67656 4.74288 0
M  V30 21474 H 1992.61 -2.35624 4.23803 0
M  V30 21475 N 1993.96 -1.29952 -0.891648 0
M  V30 21476 C 1995.21 -1.17758 -1.63756 0
M  V30 21477 C 1995.52 0.268231 -1.93752 0
M  V30 21478 O 1996.72 0.511595 -2.66636 0
M  V30 21479 C 1995.18 -2.06008 -2.95108 0
M  V30 21480 C 1994.79 -3.55459 -2.72677 0
M  V30 21481 C 1996.53 -2.0256 -3.73055 0
M  V30 21482 C 1994.44 -4.35787 -3.99805 0
M  V30 21483 H 1993.37 -0.437139 -0.61435 0
M  V30 21484 H 1996.02 -1.54651 -0.987694 0
M  V30 21485 H 1994.4 -1.61991 -3.61351 0
M  V30 21486 H 1995.58 -4.0758 -2.14977 0
M  V30 21487 H 1993.89 -3.60662 -2.08115 0
M  V30 21488 H 1996.49 -2.5983 -4.67325 0
M  V30 21489 H 1996.83 -1.00748 -4.03925 0
M  V30 21490 H 1997.36 -2.44662 -3.13664 0
M  V30 21491 H 1994.1 -5.38268 -3.74096 0
M  V30 21492 H 1993.62 -3.88432 -4.57035 0
M  V30 21493 H 1995.3 -4.46872 -4.67883 0
M  V30 21494 N 1995.44 1.1031 -1.12559 0
M  V30 21495 C 1996.68 1.82297 -0.881699 0
M  V30 21496 C 1997.01 1.85258 0.592431 0
M  V30 21497 O 1996.27 1.30985 1.45401 0
M  V30 21498 C 1996.56 3.28699 -1.40326 0
M  V30 21499 C 1996.23 3.45885 -2.89266 0
M  V30 21500 C 1994.89 3.50283 -3.29933 0
M  V30 21501 C 1997.24 3.51172 -3.85134 0
M  V30 21502 C 1994.57 3.57536 -4.65172 0
M  V30 21503 C 1996.92 3.59958 -5.20205 0
M  V30 21504 C 1995.59 3.62621 -5.60413 0
M  V30 21505 H 1994.86 0.667073 -0.322636 0
M  V30 21506 H 1997.51 1.30015 -1.406 0
M  V30 21507 H 1995.81 3.83557 -0.799456 0
M  V30 21508 H 1997.51 3.82913 -1.19074 0
M  V30 21509 H 1994.1 3.4314 -2.56813 0
M  V30 21510 H 1998.28 3.47023 -3.54808 0
M  V30 21511 H 1993.54 3.5788 -4.95713 0
M  V30 21512 H 1997.71 3.62993 -5.94314 0
M  V30 21513 H 1995.34 3.67994 -6.65195 0
M  V30 21514 N 1996.91 0.917694 1.28125 0
M  V30 21515 C 1998.14 0.56827 1.99463 0
M  V30 21516 C 1998.56 -0.844246 1.6809 0
M  V30 21517 O 1997.92 -1.56487 0.915504 0
M  V30 21518 C 1997.97 0.788859 3.51866 0
M  V30 21519 O 1997.07 -0.150301 4.12126 0
M  V30 21520 H 1996.41 0.219899 0.626531 0
M  V30 21521 H 1998.94 1.23421 1.63182 0
M  V30 21522 H 1998.95 0.700502 4.01942 0
M  V30 21523 H 1997.63 1.81855 3.74034 0
M  V30 21524 H 1996.21 -0.012878 3.72898 0
M  V30 21525 N 1998.39 -1.42074 0.682102 0
M  V30 21526 C 1999.64 -2.0066 0.204581 0
M  V30 21527 C 1999.95 -1.54595 -1.19832 0
M  V30 21528 O 2001.16 -2.05648 -1.7726 0
M  V30 21529 C 1999.62 -3.5852 0.31488 0
M  V30 21530 C 1999.22 -4.13571 1.7223 0
M  V30 21531 C 2000.97 -4.24374 -0.103556 0
M  V30 21532 C 1998.87 -5.6382 1.78497 0
M  V30 21533 H 1997.8 -0.750485 0.0727253 0
M  V30 21534 H 2000.46 -1.62712 0.848346 0
M  V30 21535 H 1998.84 -3.94006 -0.396905 0
M  V30 21536 H 2000.01 -3.89531 2.46176 0
M  V30 21537 H 1998.33 -3.60195 2.08922 0
M  V30 21538 H 2000.92 -5.34645 -0.0769789 0
M  V30 21539 H 2001.27 -4.00385 -1.14005 0
M  V30 21540 H 2001.8 -3.93874 0.557477 0
M  V30 21541 H 1998.54 -5.92616 2.80154 0
M  V30 21542 H 1998.06 -5.89828 1.08918 0
M  V30 21543 H 1999.74 -6.28363 1.54172 0
M  V30 21544 N 1999.87 -0.425924 -1.51735 0
M  V30 21545 C 2000.8 0.43622 -2.23992 0
M  V30 21546 C 2001.78 1.03418 -1.25473 0
M  V30 21547 O 2002.96 1.07884 -1.54575 0
M  V30 21548 C 2000.09 1.60697 -2.98151 0
M  V30 21549 C 1999.14 1.13079 -4.11236 0
M  V30 21550 S 1999.97 0.0821469 -5.35437 0
M  V30 21551 C 2001.13 1.25783 -6.13131 0
M  V30 21552 H 2001.36 -0.177262 -2.96771 0
M  V30 21553 H 1998.89 -0.210346 -1.5296 0
M  V30 21554 H 2000.85 2.2782 -3.4148 0
M  V30 21555 H 1999.51 2.19183 -2.24983 0
M  V30 21556 H 1998.7 2.00594 -4.62361 0
M  V30 21557 H 1998.31 0.537962 -3.70111 0
M  V30 21558 H 2000.6 2.17834 -6.41525 0
M  V30 21559 H 2001.54 0.786776 -7.03715 0
M  V30 21560 H 2001.95 1.49123 -5.44447 0
M  V30 21561 N 2001.35 1.56817 -0.156891 0
M  V30 21562 C 2002.6 1.96051 0.490764 0
M  V30 21563 C 2002.92 1.04326 1.64746 0
M  V30 21564 O 2002.19 0.106736 1.95609 0
M  V30 21565 H 2000.77 0.72391 0.184293 0
M  V30 21566 H 2003.43 1.93482 -0.234704 0
M  V30 21567 H 2002.52 3.00007 0.86036 0
M  V30 21568 N 2002.83 -0.116876 1.57166 0
M  V30 21569 C 2004.07 -0.825509 1.85238 0
M  V30 21570 C 2004.4 -1.79427 0.742936 0
M  V30 21571 O 2003.68 -1.92873 -0.251043 0
M  V30 21572 C 2003.96 -1.57353 3.23901 0
M  V30 21573 C 2003.82 -0.624227 4.45447 0
M  V30 21574 C 2005.13 -2.52922 3.60164 0
M  V30 21575 H 2002.25 -0.298653 0.673777 0
M  V30 21576 H 2004.9 -0.0897002 1.89788 0
M  V30 21577 H 2003.05 -2.20078 3.20153 0
M  V30 21578 H 2004.72 -0.00566556 4.613 0
M  V30 21579 H 2002.96 0.0640779 4.33753 0
M  V30 21580 H 2003.63 -1.1843 5.39146 0
M  V30 21581 H 2006.11 -2.00302 3.64717 0
M  V30 21582 H 2004.98 -3.02291 4.58161 0
M  V30 21583 H 2005.24 -3.35684 2.87695 0
M  V30 21584 N 2004.3 -1.52772 -0.387116 0
M  V30 21585 C 2005.25 -1.78325 -1.49341 0
M  V30 21586 C 2006.25 -0.651278 -1.5638 0
M  V30 21587 O 2007.45 -0.833795 -1.59524 0
M  V30 21588 H 2003.83 -0.56428 -0.497084 0
M  V30 21589 H 2005.8 -2.70965 -1.24983 0
M  V30 21590 C 2004.55 -1.97079 -2.86453 0
M  V30 21591 H 2003.87 -2.83612 -2.81788 0
M  V30 21592 H 2005.31 -2.18947 -3.63095 0
M  V30 21593 C 2003.77 -0.743842 -3.28586 0
M  V30 21594 O 2004.3 0.0778266 -4.01625 0
M  V30 21595 N 2002.5 -0.573415 -2.84886 0
M  V30 21596 H 2002.05 -1.24319 -2.25616 0
M  V30 21597 H 2002.01 0.24616 -3.13435 0
M  V30 21598 N 2005.78 0.645673 -1.43767 0
M  V30 21599 C 2006.71 1.76974 -1.52324 0
M  V30 21600 C 2007.69 1.65862 -0.377316 0
M  V30 21601 O 2008.88 1.84843 -0.595532 0
M  V30 21602 C 2006.01 3.1544 -1.4531 0
M  V30 21603 C 2004.96 3.41324 -2.58229 0
M  V30 21604 C 2004.29 4.79669 -2.36267 0
M  V30 21605 C 2005.59 3.35321 -4.00446 0
M  V30 21606 H 2007.28 1.70069 -2.46408 0
M  V30 21607 H 2004.83 0.816784 -1.18594 0
M  V30 21608 H 2006.78 3.93838 -1.49899 0
M  V30 21609 H 2005.5 3.23093 -0.477344 0
M  V30 21610 H 2004.16 2.653 -2.53005 0
M  V30 21611 H 2003.81 4.84007 -1.36918 0
M  V30 21612 H 2003.51 4.97947 -3.11966 0
M  V30 21613 H 2005.04 5.60315 -2.42652 0
M  V30 21614 H 2006.45 4.03644 -4.07117 0
M  V30 21615 H 2004.85 3.65135 -4.76231 0
M  V30 21616 H 2005.92 2.33373 -4.25047 0
M  V30 21617 N 2007.26 1.30423 0.884744 0
M  V30 21618 C 2008.51 1.19259 1.63657 0
M  V30 21619 C 2008.83 -0.252645 1.92852 0
M  V30 21620 O 2008.09 -1.19718 1.5481 0
M  V30 21621 C 2008.39 1.96681 2.98415 0
M  V30 21622 C 2008.05 3.46298 2.8877 0
M  V30 21623 C 2006.72 3.87098 2.85847 0
M  V30 21624 C 2009.07 4.41573 2.7688 0
M  V30 21625 C 2006.4 5.21464 2.68873 0
M  V30 21626 C 2008.75 5.76047 2.61444 0
M  V30 21627 C 2007.41 6.16085 2.56896 0
M  V30 21628 H 2006.68 0.436399 0.598863 0
M  V30 21629 H 2009.33 1.61527 1.02865 0
M  V30 21630 H 2007.63 1.47049 3.63158 0
M  V30 21631 H 2009.33 1.85436 3.55548 0
M  V30 21632 H 2005.92 3.13877 2.91855 0
M  V30 21633 H 2010.11 4.10994 2.78205 0
M  V30 21634 H 2005.36 5.51577 2.63766 0
M  V30 21635 H 2009.54 6.49509 2.51218 0
M  V30 21636 H 2007.16 7.20147 2.43501 0
M  V30 21637 N 2008.74 -1.09711 1.13142 0
M  V30 21638 C 2009.7 -2.14443 0.809114 0
M  V30 21639 C 2010.7 -1.59789 -0.18005 0
M  V30 21640 O 2011.89 -1.74137 0.0466686 0
M  V30 21641 C 2009.02 -3.40291 0.203714 0
M  V30 21642 H 2010.22 -2.44466 1.73713 0
M  V30 21643 H 2007.77 -1.252 0.935663 0
M  V30 21644 H 2008.5 -3.15892 -0.733667 0
M  V30 21645 H 2008.29 -3.8125 0.916003 0
M  V30 21646 H 2009.78 -4.176 -0.00503851 0
M  V30 21647 N 2010.22 -0.924476 -1.27637 0
M  V30 21648 C 2011.46 -0.562107 -1.94126 0
M  V30 21649 C 2011.79 0.898999 -1.7304 0
M  V30 21650 O 2011.06 1.63686 -1.07627 0
M  V30 21651 H 2009.64 -0.204894 -0.718351 0
M  V30 21652 H 2012.3 -1.17617 -1.5541 0
M  V30 21653 H 2011.39 -0.765644 -3.02563 0
M  V30 21654 N 2011.69 1.41711 -0.689627 0
M  V30 21655 C 2012.64 2.30791 -0.020555 0
M  V30 21656 C 2013.61 1.46782 0.777447 0
M  V30 21657 O 2014.8 1.75582 0.746688 0
M  V30 21658 C 2011.94 3.32772 0.914149 0
M  V30 21659 C 2011.05 4.31864 0.108394 0
M  V30 21660 C 2010.18 5.20916 1.0402 0
M  V30 21661 C 2009.22 6.11679 0.227 0
M  V30 21662 N 2008.36 6.93233 1.11229 0
M  V30 21663 H 2013.2 2.87448 -0.78597 0
M  V30 21664 H 2010.74 1.41576 -0.399313 0
M  V30 21665 H 2012.7 3.90442 1.47005 0
M  V30 21666 H 2011.33 2.77679 1.64603 0
M  V30 21667 H 2010.38 3.7619 -0.564348 0
M  V30 21668 H 2011.69 4.96058 -0.522312 0
M  V30 21669 H 2010.84 5.83391 1.66553 0
M  V30 21670 H 2009.58 4.56934 1.70477 0
M  V30 21671 H 2008.59 5.48258 -0.411449 0
M  V30 21672 H 2009.81 6.77714 -0.433691 0
M  V30 21673 H 2007.76 6.31866 1.76299 0
M  V30 21674 H 2007.68 7.5409 0.537017 0
M  V30 21675 H 2008.94 7.60182 1.72463 0
M  V30 21676 N 2013.17 0.433965 1.51507 0
M  V30 21677 C 2014.42 -0.133629 2.02059 0
M  V30 21678 C 2014.75 -1.43006 1.31831 0
M  V30 21679 O 2014 -1.91121 0.420883 0
M  V30 21680 C 2014.3 -0.403136 3.55119 0
M  V30 21681 C 2013.97 0.807078 4.43618 0
M  V30 21682 C 2012.63 1.13897 4.67526 0
M  V30 21683 C 2014.98 1.61458 4.95561 0
M  V30 21684 C 2012.31 2.27911 5.40623 0
M  V30 21685 C 2014.66 2.74568 5.69908 0
M  V30 21686 C 2013.33 3.08215 5.92081 0
M  V30 21687 H 2012.6 -0.0488983 0.739385 0
M  V30 21688 H 2015.24 0.58047 1.82491 0
M  V30 21689 H 2013.55 -1.19909 3.73 0
M  V30 21690 H 2015.24 -0.85567 3.91764 0
M  V30 21691 H 2011.83 0.538448 4.25204 0
M  V30 21692 H 2016.02 1.37137 4.76977 0
M  V30 21693 H 2011.27 2.54298 5.56006 0
M  V30 21694 H 2015.45 3.3751 6.09147 0
M  V30 21695 H 2013.08 3.96674 6.48501 0
M  V30 21696 N 2014.65 -1.56732 0.165206 0
M  V30 21697 C 2015.88 -2.00777 -0.487041 0
M  V30 21698 C 2016.29 -1.04447 -1.57758 0
M  V30 21699 O 2015.63 -0.0363979 -1.83664 0
M  V30 21700 C 2015.69 -3.41252 -1.1308 0
M  V30 21701 C 2015.36 -4.56635 -0.182666 0
M  V30 21702 C 2016.35 -5.16465 0.596665 0
M  V30 21703 C 2014.04 -5.02236 -0.0802703 0
M  V30 21704 C 2016.03 -6.2032 1.46565 0
M  V30 21705 C 2013.72 -6.05942 0.792308 0
M  V30 21706 C 2014.72 -6.64855 1.56386 0
M  V30 21707 O 2014.41 -7.66551 2.42187 0
M  V30 21708 H 2014.14 -0.663451 -0.129647 0
M  V30 21709 H 2016.69 -2.03719 0.262233 0
M  V30 21710 H 2014.92 -3.35204 -1.92808 0
M  V30 21711 H 2016.61 -3.6929 -1.68463 0
M  V30 21712 H 2017.38 -4.82121 0.527694 0
M  V30 21713 H 2013.26 -4.56097 -0.670586 0
M  V30 21714 H 2016.8 -6.66232 2.06834 0
M  V30 21715 H 2012.7 -6.39712 0.862504 0
M  V30 21716 H 2013.47 -7.83849 2.35635 0
M  V30 21717 N 2016.13 0.10854 -1.57226 0
M  V30 21718 C 2017.08 1.13867 -1.97531 0
M  V30 21719 C 2018.06 1.36505 -0.851775 0
M  V30 21720 O 2019.25 1.37422 -1.11554 0
M  V30 21721 C 2016.38 2.4625 -2.39198 0
M  V30 21722 C 2015.47 2.27043 -3.58207 0
M  V30 21723 N 2015.86 1.77671 -4.73568 0
M  V30 21724 C 2014.16 2.5766 -3.64043 0
M  V30 21725 C 2014.86 1.72418 -5.5556 0
M  V30 21726 N 2013.84 2.17145 -4.98346 0
M  V30 21727 H 2017.64 0.749664 -2.84178 0
M  V30 21728 H 2015.15 0.31615 -1.59293 0
M  V30 21729 H 2017.15 3.20769 -2.66295 0
M  V30 21730 H 2015.81 2.859 -1.5392 0
M  V30 21731 H 2016.82 1.47065 -4.96581 0
M  V30 21732 H 2013.5 3.00925 -2.89397 0
M  V30 21733 H 2014.89 1.35411 -6.58113 0
M  V30 21734 N 2017.61 1.52975 0.379009 0
M  V30 21735 C 2018.85 1.702 1.13188 0
M  V30 21736 C 2019.21 0.437582 1.86947 0
M  V30 21737 O 2020.41 0.486329 2.64364 0
M  V30 21738 C 2018.68 2.90907 2.07624 0
M  V30 21739 S 2020.24 3.28771 2.90612 0
M  V30 21740 H 2017.06 0.599025 0.383001 0
M  V30 21741 H 2019.66 1.91046 0.414933 0
M  V30 21742 H 2018.37 3.81144 1.52176 0
M  V30 21743 H 2017.9 2.72424 2.83812 0
M  V30 21744 H 2019.91 2.79736 4.09832 0
M  V30 21745 N 2019.08 -0.63804 1.44107 0
M  V30 21746 C 2020.33 -1.39366 1.45808 0
M  V30 21747 C 2020.65 -1.95384 0.091867 0
M  V30 21748 O 2021.85 -2.71497 -0.0136182 0
M  V30 21749 C 2020.31 -2.52293 2.56663 0
M  V30 21750 C 2019.92 -2.02818 3.99461 0
M  V30 21751 C 2021.66 -3.29549 2.67577 0
M  V30 21752 C 2019.57 -3.13047 5.01753 0
M  V30 21753 H 2018.5 -0.5237 0.542452 0
M  V30 21754 H 2021.15 -0.687131 1.70149 0
M  V30 21755 H 2019.53 -3.25489 2.2555 0
M  V30 21756 H 2020.7 -1.36533 4.40108 0
M  V30 21757 H 2019.02 -1.38398 3.92728 0
M  V30 21758 H 2021.62 -4.11709 3.41174 0
M  V30 21759 H 2021.96 -3.78579 1.73159 0
M  V30 21760 H 2022.49 -2.63441 2.98066 0
M  V30 21761 H 2019.23 -2.68969 5.97776 0
M  V30 21762 H 2018.75 -3.77995 4.65704 0
M  V30 21763 H 2020.43 -3.77934 5.25142 0
M  V30 21764 N 2020.56 -1.3089 -0.877815 0
M  V30 21765 C 2021.51 -1.17796 -2.00566 0
M  V30 21766 C 2022.5 -0.0881167 -1.69171 0
M  V30 21767 O 2023.71 -0.249467 -1.78263 0
M  V30 21768 H 2020.09 -0.364508 -0.657752 0
M  V30 21769 H 2022.06 -2.13234 -2.08743 0
M  V30 21770 C 2020.81 -0.894005 -3.3601 0
M  V30 21771 H 2020.13 -1.72472 -3.60684 0
M  V30 21772 H 2021.57 -0.842526 -4.15545 0
M  V30 21773 C 2020.03 0.403175 -3.34479 0
M  V30 21774 O 2020.56 1.42245 -3.75672 0
M  V30 21775 N 2018.76 0.416903 -2.87594 0
M  V30 21776 H 2018.31 -0.413049 -2.54267 0
M  V30 21777 H 2018.27 1.28475 -2.86952 0
M  V30 21778 N 2022.04 1.0911 -1.13723 0
M  V30 21779 C 2023.27 1.8484 -0.922925 0
M  V30 21780 C 2023.68 1.81573 0.531774 0
M  V30 21781 O 2023.02 1.21252 1.37998 0
M  V30 21782 C 2023.08 3.33708 -1.33712 0
M  V30 21783 C 2022.75 3.60719 -2.8059 0
M  V30 21784 C 2023.74 3.56168 -3.78735 0
M  V30 21785 C 2021.43 3.8896 -3.17829 0
M  V30 21786 C 2023.42 3.79475 -5.1213 0
M  V30 21787 C 2021.11 4.11922 -4.51402 0
M  V30 21788 C 2022.11 4.07172 -5.48361 0
M  V30 21789 O 2021.8 4.29537 -6.79524 0
M  V30 21790 H 2021.53 0.590602 -0.328884 0
M  V30 21791 H 2024.08 1.38756 -1.51446 0
M  V30 21792 H 2022.31 3.80515 -0.688871 0
M  V30 21793 H 2024 3.90857 -1.09477 0
M  V30 21794 H 2024.77 3.34373 -3.51312 0
M  V30 21795 H 2020.65 3.91781 -2.42959 0
M  V30 21796 H 2024.19 3.75683 -5.87799 0
M  V30 21797 H 2020.09 4.33199 -4.78549 0
M  V30 21798 H 2020.86 4.46981 -6.85675 0
M  V30 21799 N 2023.52 0.931232 1.27145 0
M  V30 21800 C 2024.75 0.589956 1.98311 0
M  V30 21801 C 2025.16 -0.832836 1.69438 0
M  V30 21802 O 2024.52 -1.55399 0.956935 0
M  V30 21803 C 2024.57 0.810592 3.52295 0
M  V30 21804 O 2024.29 2.17741 3.80158 0
M  V30 21805 C 2025.79 0.478508 4.4071 0
M  V30 21806 H 2023.01 0.223234 0.632778 0
M  V30 21807 H 2025.56 1.24922 1.6191 0
M  V30 21808 H 2023.71 0.198081 3.86893 0
M  V30 21809 H 2024.12 2.23003 4.74731 0
M  V30 21810 H 2025.6 0.683566 5.47751 0
M  V30 21811 H 2026.08 -0.586102 4.35272 0
M  V30 21812 H 2026.68 1.06931 4.11638 0
M  V30 21813 N 2025 -1.41343 0.697132 0
M  V30 21814 C 2026.23 -2.05528 0.237841 0
M  V30 21815 C 2026.64 -1.52468 -1.11351 0
M  V30 21816 O 2026 -0.673549 -1.69616 0
M  V30 21817 C 2026.05 -3.61007 0.188651 0
M  V30 21818 O 2025.77 -4.12106 1.48662 0
M  V30 21819 C 2027.27 -4.42341 -0.291439 0
M  V30 21820 H 2024.49 -0.661864 0.110352 0
M  V30 21821 H 2027.03 -1.81086 0.950155 0
M  V30 21822 H 2025.19 -3.84483 -0.474496 0
M  V30 21823 H 2025.6 -5.06162 1.37477 0
M  V30 21824 H 2027.08 -5.51316 -0.274731 0
M  V30 21825 H 2027.55 -4.1856 -1.33057 0
M  V30 21826 H 2028.16 -4.23933 0.340765 0
M  V30 21827 N 2026.48 -0.441993 -1.51275 0
M  V30 21828 C 2027.72 0.122669 -2.01727 0
M  V30 21829 C 2028.04 1.42804 -1.32786 0
M  V30 21830 O 2027.31 1.90329 -0.463874 0
M  V30 21831 H 2025.89 0.0483227 -0.745435 0
M  V30 21832 H 2028.56 -0.585765 -1.85889 0
M  V30 21833 H 2027.65 0.295224 -3.10701 0
M  V30 21834 N 2027.95 1.56642 -0.173515 0
M  V30 21835 C 2028.86 2.2166 0.768363 0
M  V30 21836 C 2029.88 1.20892 1.25144 0
M  V30 21837 O 2031.06 1.53561 1.30311 0
M  V30 21838 C 2028.12 2.84632 1.97953 0
M  V30 21839 C 2027.18 4.00608 1.54312 0
M  V30 21840 C 2026.41 4.60567 2.69655 0
M  V30 21841 O 2026.64 4.19419 3.8658 0
M  V30 21842 O 2025.57 5.50401 2.43604 0
M  V30 21843 H 2029.4 3.02712 0.244753 0
M  V30 21844 H 2026.98 1.493 0.0547846 0
M  V30 21845 H 2028.86 3.24553 2.68782 0
M  V30 21846 H 2027.54 2.06575 2.49215 0
M  V30 21847 H 2026.45 3.65352 0.804264 0
M  V30 21848 H 2027.78 4.80264 1.07738 0
M  V30 21849 N 2029.43 -0.1002 1.57281 0
M  V30 21850 C 2030.36 -1.15288 1.96936 0
M  V30 21851 C 2031.34 -1.39113 0.8418 0
M  V30 21852 O 2032.53 -1.52958 1.10165 0
M  V30 21853 C 2029.65 -2.50308 2.28175 0
M  V30 21854 C 2028.7 -2.42795 3.50646 0
M  V30 21855 S 2029.53 -1.8494 5.02551 0
M  V30 21856 C 2030.69 -3.21595 5.36962 0
M  V30 21857 H 2030.92 -0.814808 2.85916 0
M  V30 21858 H 2028.45 -0.307686 1.51303 0
M  V30 21859 H 2030.41 -3.27987 2.46849 0
M  V30 21860 H 2029.07 -2.81286 1.39775 0
M  V30 21861 H 2028.27 -3.42298 3.6993 0
M  V30 21862 H 2027.87 -1.73243 3.31456 0
M  V30 21863 H 2030.16 -4.17856 5.33294 0
M  V30 21864 H 2031.1 -3.0712 6.38031 0
M  V30 21865 H 2031.51 -3.2089 4.64424 0
M  V30 21866 N 2030.91 -1.53174 -0.370891 0
M  V30 21867 C 2032.16 -1.69098 -1.11409 0
M  V30 21868 C 2032.48 -0.440066 -1.89456 0
M  V30 21869 O 2031.74 0.577901 -1.86973 0
M  V30 21870 C 2032.04 -2.88881 -2.10435 0
M  V30 21871 C 2031.7 -4.25602 -1.48908 0
M  V30 21872 C 2030.37 -4.62782 -1.31856 0
M  V30 21873 C 2032.72 -5.10648 -1.04346 0
M  V30 21874 C 2030.05 -5.8265 -0.688168 0
M  V30 21875 C 2032.4 -6.31157 -0.427093 0
M  V30 21876 C 2031.06 -6.67054 -0.244019 0
M  V30 21877 H 2030.33 -0.618775 -0.407674 0
M  V30 21878 H 2032.98 -1.8735 -0.396513 0
M  V30 21879 H 2031.28 -2.65119 -2.88477 0
M  V30 21880 H 2032.98 -2.98396 -2.67882 0
M  V30 21881 H 2029.57 -3.96324 -1.63173 0
M  V30 21882 H 2033.76 -4.82477 -1.16315 0
M  V30 21883 H 2029.01 -6.09057 -0.53469 0
M  V30 21884 H 2033.19 -6.96361 -0.0735755 0
M  V30 21885 H 2030.81 -7.598 0.246525 0
M  V30 21886 N 2032.39 0.630389 -1.44443 0
M  V30 21887 C 2033.66 1.38877 -1.3774 0
M  V30 21888 C 2034.04 2.11068 -0.0364918 0
M  V30 21889 O 2033.39 2.06373 0.98094 0
M  V30 21890 C 2033.6 2.35458 -2.57606 0
M  V30 21891 C 2034.95 2.98766 -3.01702 0
M  V30 21892 O 2035.97 2.45783 -2.57816 0
M  V30 21893 O 2034.83 3.94883 -3.77796 0
M  V30 21894 H 2031.93 0.621587 -0.54549 0
M  V30 21895 H 2034.47 0.655382 -1.56534 0
M  V30 21896 H 2033.25 1.81218 -3.46808 0
M  V30 21897 H 2032.87 3.16213 -2.41029 0
M  V30 21898 N 2033.87 1.31354 0.870861 0
M  V30 21899 C 2035.11 1.21167 1.62623 0
M  V30 21900 C 2035.44 -0.22989 1.92835 0
M  V30 21901 O 2034.72 -1.16257 1.55931 0
M  V30 21902 C 2035 2.05505 2.95702 0
M  V30 21903 C 2034.86 3.57955 2.72375 0
M  V30 21904 C 2036.17 1.90375 3.96794 0
M  V30 21905 H 2033.29 0.441517 0.590111 0
M  V30 21906 H 2035.94 1.61134 1.00676 0
M  V30 21907 H 2034.09 1.71549 3.48573 0
M  V30 21908 H 2035.76 4.02044 2.26183 0
M  V30 21909 H 2034 3.81431 2.06623 0
M  V30 21910 H 2034.67 4.12273 3.67063 0
M  V30 21911 H 2037.15 2.20089 3.53129 0
M  V30 21912 H 2036.02 2.51689 4.87795 0
M  V30 21913 H 2036.28 0.866804 4.33519 0
M  V30 21914 N 2035.34 -1.08505 1.143 0
M  V30 21915 C 2036.57 -1.85155 0.934475 0
M  V30 21916 C 2036.99 -1.81002 -0.511866 0
M  V30 21917 O 2036.35 -1.19437 -1.36398 0
M  V30 21918 C 2036.4 -3.30656 1.43871 0
M  V30 21919 O 2035.5 -4.07557 0.630143 0
M  V30 21920 H 2034.84 -0.573775 0.334183 0
M  V30 21921 H 2037.37 -1.36959 1.51998 0
M  V30 21922 H 2037.38 -3.815 1.44644 0
M  V30 21923 H 2036.06 -3.32995 2.49173 0
M  V30 21924 H 2034.64 -3.66441 0.691067 0
M  V30 21925 N 2036.82 -0.937962 -1.26649 0
M  V30 21926 C 2038.07 -0.584683 -1.94189 0
M  V30 21927 C 2038.4 0.873516 -1.73446 0
M  V30 21928 O 2037.68 1.62451 -1.06957 0
M  V30 21929 C 2037.96 -0.923855 -3.48047 0
M  V30 21930 C 2037.81 -2.43656 -3.7809 0
M  V30 21931 C 2039.13 -0.436986 -4.37925 0
M  V30 21932 H 2036.25 -0.213892 -0.70528 0
M  V30 21933 H 2038.89 -1.1716 -1.49578 0
M  V30 21934 H 2037.04 -0.424389 -3.86175 0
M  V30 21935 H 2038.71 -3.00851 -3.49695 0
M  V30 21936 H 2036.96 -2.88141 -3.2428 0
M  V30 21937 H 2037.63 -2.62439 -4.85623 0
M  V30 21938 H 2040.1 -0.865189 -4.07006 0
M  V30 21939 H 2038.98 -0.703159 -5.44378 0
M  V30 21940 H 2039.24 0.663042 -4.371 0
M  V30 21941 N 2038.3 1.40971 -0.704618 0
M  V30 21942 C 2039.55 2.01377 -0.239781 0
M  V30 21943 C 2039.88 1.5571 1.16051 0
M  V30 21944 O 2039.15 0.772278 1.78511 0
M  V30 21945 C 2039.44 3.58784 -0.307556 0
M  V30 21946 C 2039.29 4.14553 -1.74544 0
M  V30 21947 C 2040.61 4.3888 0.327516 0
M  V30 21948 H 2037.73 0.731655 -0.088603 0
M  V30 21949 H 2040.37 1.67597 -0.895048 0
M  V30 21950 H 2038.52 3.87692 0.25036 0
M  V30 21951 H 2040.19 3.96486 -2.3579 0
M  V30 21952 H 2038.43 3.69254 -2.2767 0
M  V30 21953 H 2039.11 5.23715 -1.74433 0
M  V30 21954 H 2041.58 4.15838 -0.147737 0
M  V30 21955 H 2040.46 5.48332 0.249594 0
M  V30 21956 H 2040.72 4.19029 1.40952 0
M  V30 21957 N 2039.78 0.45001 1.51039 0
M  V30 21958 C 2040.73 -0.369268 2.2965 0
M  V30 21959 C 2041.72 -1.00952 1.36034 0
M  V30 21960 O 2042.93 -0.943032 1.5332 0
M  V30 21961 H 2039.3 -0.137907 0.739247 0
M  V30 21962 H 2041.27 0.314433 2.96739 0
M  V30 21963 C 2040.02 -1.45082 3.15985 0
M  V30 21964 H 2039.34 -0.967533 3.87916 0
M  V30 21965 H 2040.78 -1.99707 3.74023 0
M  V30 21966 C 2039.24 -2.44112 2.32187 0
M  V30 21967 O 2039.77 -3.48929 1.99027 0
M  V30 21968 N 2037.98 -2.1531 1.95167 0
M  V30 21969 H 2037.53 -1.30099 2.22333 0
M  V30 21970 H 2037.48 -2.81807 1.39398 0
M  V30 21971 N 2041.26 -1.56548 0.18182 0
M  V30 21972 C 2042.2 -2.19794 -0.761146 0
M  V30 21973 C 2043.2 -1.16509 -1.22971 0
M  V30 21974 O 2044.4 -1.34685 -1.19415 0
M  V30 21975 H 2040.78 -0.704224 -0.263766 0
M  V30 21976 H 2042.75 -2.97703 -0.203871 0
M  V30 21977 C 2041.5 -2.86108 -1.9758 0
M  V30 21978 H 2040.82 -3.65317 -1.62429 0
M  V30 21979 H 2042.26 -3.33816 -2.61424 0
M  V30 21980 C 2040.72 -1.86435 -2.80613 0
M  V30 21981 O 2041.25 -1.35635 -3.78109 0
M  V30 21982 N 2039.46 -1.54958 -2.45838 0
M  V30 21983 H 2039 -1.96462 -1.66614 0
M  V30 21984 H 2038.96 -0.885231 -3.0168 0
M  V30 21985 N 2042.73 0.0918577 -1.57332 0
M  V30 21986 C 2043.96 0.807046 -1.90185 0
M  V30 21987 C 2044.37 1.72642 -0.774035 0
M  V30 21988 O 2043.72 1.81811 0.262746 0
M  V30 21989 C 2043.78 1.67067 -3.18322 0
M  V30 21990 C 2043.44 0.922776 -4.47587 0
M  V30 21991 C 2044.44 0.251109 -5.19293 0
M  V30 21992 C 2042.12 0.895897 -4.94246 0
M  V30 21993 C 2044.12 -0.437433 -6.35897 0
M  V30 21994 C 2041.8 0.203571 -6.10761 0
M  V30 21995 C 2042.8 -0.461913 -6.81436 0
M  V30 21996 O 2042.49 -1.14313 -7.95731 0
M  V30 21997 H 2042.22 0.235807 -0.633539 0
M  V30 21998 H 2044.78 0.0725289 -2.05272 0
M  V30 21999 H 2043.01 2.4475 -2.9939 0
M  V30 22000 H 2044.7 2.26271 -3.36981 0
M  V30 22001 H 2045.46 0.263315 -4.84285 0
M  V30 22002 H 2041.34 1.40333 -4.39122 0
M  V30 22003 H 2044.88 -0.957435 -6.90999 0
M  V30 22004 H 2040.78 0.189223 -6.45223 0
M  V30 22005 H 2041.55 -1.05035 -8.11733 0
M  V30 22006 N 2044.21 1.53368 0.362763 0
M  V30 22007 C 2045.44 1.73906 1.13011 0
M  V30 22008 C 2045.86 0.468163 1.82181 0
M  V30 22009 O 2045.22 -0.577989 1.7184 0
M  V30 22010 C 2045.27 2.9068 2.13395 0
M  V30 22011 O 2044.37 2.59486 3.20532 0
M  V30 22012 H 2043.71 0.577461 0.327772 0
M  V30 22013 H 2046.24 2.00263 0.419026 0
M  V30 22014 H 2046.25 3.16926 2.56948 0
M  V30 22015 H 2044.93 3.82865 1.62442 0
M  V30 22016 H 2043.51 2.44067 2.81932 0
M  V30 22017 N 2045.69 -0.62272 1.44776 0
M  V30 22018 C 2046.6 -1.76282 1.54796 0
M  V30 22019 C 2047.62 -1.68522 0.433164 0
M  V30 22020 O 2048.79 -1.89149 0.691713 0
M  V30 22021 C 2045.86 -3.12697 1.49737 0
M  V30 22022 C 2044.92 -3.32026 2.72135 0
M  V30 22023 C 2044.15 -4.61933 2.67308 0
M  V30 22024 O 2044.37 -5.43282 1.73783 0
M  V30 22025 O 2043.31 -4.83646 3.58288 0
M  V30 22026 H 2047.13 -1.70781 2.51133 0
M  V30 22027 H 2044.72 -0.784974 1.27116 0
M  V30 22028 H 2046.6 -3.94001 1.4947 0
M  V30 22029 H 2045.28 -3.18723 0.565471 0
M  V30 22030 H 2044.18 -2.50368 2.77969 0
M  V30 22031 H 2045.52 -3.30868 3.644 0
M  V30 22032 N 2047.17 -1.31814 -0.863883 0
M  V30 22033 C 2048.41 -1.23154 -1.63133 0
M  V30 22034 C 2048.77 0.205722 -1.90895 0
M  V30 22035 O 2049.97 0.415911 -2.65563 0
M  V30 22036 C 2048.24 -2.0581 -2.92194 0
M  V30 22037 S 2049.8 -2.14077 -3.83036 0
M  V30 22038 H 2046.62 -0.438531 -0.559653 0
M  V30 22039 H 2049.22 -1.66551 -1.02377 0
M  V30 22040 H 2047.93 -3.09311 -2.69731 0
M  V30 22041 H 2047.46 -1.63155 -3.57972 0
M  V30 22042 H 2049.47 -1.28353 -4.79312 0
M  V30 22043 N 2048.65 1.07897 -1.14873 0
M  V30 22044 C 2049.59 2.14955 -0.840422 0
M  V30 22045 C 2050.56 1.64839 0.204277 0
M  V30 22046 O 2051.75 1.9066 0.0730523 0
M  V30 22047 C 2048.89 3.43521 -0.329768 0
M  V30 22048 C 2048 4.07456 -1.43538 0
M  V30 22049 C 2047.14 5.23836 -0.881432 0
M  V30 22050 C 2046.18 5.79723 -1.96437 0
M  V30 22051 N 2045.31 6.87441 -1.42721 0
M  V30 22052 H 2050.15 2.40669 -1.75734 0
M  V30 22053 H 2047.69 1.18102 -0.876944 0
M  V30 22054 H 2049.65 4.17197 -0.01545 0
M  V30 22055 H 2048.28 3.18076 0.550246 0
M  V30 22056 H 2047.33 3.31489 -1.86599 0
M  V30 22057 H 2048.64 4.45007 -2.25323 0
M  V30 22058 H 2047.8 6.04473 -0.519325 0
M  V30 22059 H 2046.53 4.87689 -0.0326916 0
M  V30 22060 H 2045.54 4.97736 -2.33536 0
M  V30 22061 H 2046.76 6.17927 -2.81678 0
M  V30 22062 H 2044.71 6.53244 -0.600731 0
M  V30 22063 H 2044.63 7.23845 -2.18137 0
M  V30 22064 H 2045.9 7.71797 -1.09317 0
M  V30 22065 N 2050.12 0.944665 1.2615 0
M  V30 22066 C 2051.09 0.461547 2.24505 0
M  V30 22067 C 2052.09 -0.429277 1.54964 0
M  V30 22068 O 2053.28 -0.227965 1.72702 0
M  V30 22069 C 2050.41 -0.334363 3.39256 0
M  V30 22070 H 2051.6 1.33075 2.68758 0
M  V30 22071 H 2049.16 0.726968 1.38365 0
M  V30 22072 H 2049.89 -1.22167 3.00409 0
M  V30 22073 H 2049.68 0.304588 3.90915 0
M  V30 22074 H 2051.17 -0.662181 4.12317 0
M  V30 22075 N 2051.6 -1.40596 0.712085 0
M  V30 22076 C 2052.53 -2.33389 0.0719438 0
M  V30 22077 C 2053.51 -1.52706 -0.749334 0
M  V30 22078 O 2054.7 -1.81185 -0.698968 0
M  V30 22079 C 2051.83 -3.36659 -0.853122 0
M  V30 22080 C 2050.78 -4.27778 -0.137724 0
M  V30 22081 C 2050.11 -5.21556 -1.17827 0
M  V30 22082 C 2051.41 -5.12521 1.00597 0
M  V30 22083 H 2053.1 -2.87169 0.847002 0
M  V30 22084 H 2050.65 -1.38077 0.408756 0
M  V30 22085 H 2052.6 -4.00511 -1.31031 0
M  V30 22086 H 2051.33 -2.81266 -1.66004 0
M  V30 22087 H 2049.98 -3.65374 0.299603 0
M  V30 22088 H 2049.63 -4.6247 -1.97814 0
M  V30 22089 H 2049.33 -5.83361 -0.704503 0
M  V30 22090 H 2050.86 -5.88285 -1.63563 0
M  V30 22091 H 2052.27 -5.69847 0.62831 0
M  V30 22092 H 2050.67 -5.83351 1.40789 0
M  V30 22093 H 2051.74 -4.48706 1.83822 0
M  V30 22094 N 2053.08 -0.458013 -1.50798 0
M  V30 22095 C 2054.33 0.10308 -2.01436 0
M  V30 22096 C 2054.64 1.41957 -1.34564 0
M  V30 22097 O 2055.85 2.06484 -1.76286 0
M  V30 22098 C 2054.3 0.234229 -3.59137 0
M  V30 22099 C 2053.91 -1.07305 -4.34959 0
M  V30 22100 C 2055.66 0.747982 -4.17858 0
M  V30 22101 C 2053.56 -0.906414 -5.84413 0
M  V30 22102 H 2052.49 0.0422981 -0.752813 0
M  V30 22103 H 2055.14 -0.590924 -1.73725 0
M  V30 22104 H 2053.53 0.991716 -3.83381 0
M  V30 22105 H 2054.7 -1.84048 -4.22449 0
M  V30 22106 H 2053.02 -1.51691 -3.87787 0
M  V30 22107 H 2055.61 0.889478 -5.2725 0
M  V30 22108 H 2055.96 1.73592 -3.7838 0
M  V30 22109 H 2056.49 0.048243 -3.97771 0
M  V30 22110 H 2053.23 -1.86733 -6.2834 0
M  V30 22111 H 2052.75 -0.179147 -5.99532 0
M  V30 22112 H 2054.43 -0.567802 -6.44504 0
M  V30 22113 N 2054.56 1.56449 -0.190119 0
M  V30 22114 C 2055.47 2.22463 0.744809 0
M  V30 22115 C 2056.49 1.22213 1.23855 0
M  V30 22116 O 2057.66 1.54934 1.28675 0
M  V30 22117 C 2054.73 2.86716 1.94923 0
M  V30 22118 C 2053.79 4.02222 1.50054 0
M  V30 22119 C 2053.02 4.63401 2.64755 0
M  V30 22120 O 2053.24 4.23495 3.8211 0
M  V30 22121 O 2052.18 5.52953 2.37752 0
M  V30 22122 H 2056 3.02955 0.212633 0
M  V30 22123 H 2053.59 1.49349 0.0389463 0
M  V30 22124 H 2055.47 3.27385 2.65324 0
M  V30 22125 H 2054.15 2.09207 2.4701 0
M  V30 22126 H 2053.05 3.66185 0.765469 0
M  V30 22127 H 2054.39 4.81379 1.02638 0
M  V30 22128 N 2056.04 -0.0835127 1.57379 0
M  V30 22129 C 2057.26 -0.801948 1.91268 0
M  V30 22130 C 2057.69 -1.70915 0.785469 0
M  V30 22131 O 2057.05 -1.79392 -0.262357 0
M  V30 22132 C 2057.09 -1.58151 3.24069 0
M  V30 22133 O 2056.2 -2.69134 3.12475 0
M  V30 22134 H 2055.54 -0.219566 0.626647 0
M  V30 22135 H 2058.07 -0.0552662 2.04525 0
M  V30 22136 H 2058.08 -1.96327 3.57659 0
M  V30 22137 H 2056.75 -0.915794 4.05692 0
M  V30 22138 H 2055.33 -2.33901 2.90422 0
M  V30 22139 N 2057.52 -1.53558 -0.354624 0
M  V30 22140 C 2058.46 -1.81453 -1.45525 0
M  V30 22141 C 2059.46 -0.684302 -1.54963 0
M  V30 22142 O 2060.66 -0.867445 -1.57719 0
M  V30 22143 H 2057.04 -0.574697 -0.485003 0
M  V30 22144 H 2059.01 -2.73555 -1.19207 0
M  V30 22145 C 2057.76 -2.0311 -2.82208 0
M  V30 22146 H 2057.08 -2.89525 -2.75709 0
M  V30 22147 H 2058.52 -2.266 -3.58369 0
M  V30 22148 C 2056.98 -0.813372 -3.26934 0
M  V30 22149 O 2057.51 -0.00738144 -4.01699 0
M  V30 22150 N 2055.72 -0.633715 -2.83606 0
M  V30 22151 H 2055.26 -1.29076 -2.22928 0
M  V30 22152 H 2055.22 0.179621 -3.13886 0
M  V30 22153 N 2058.99 0.615033 -1.45104 0
M  V30 22154 C 2059.93 1.73982 -1.49208 0
M  V30 22155 C 2060.94 1.58215 -0.383649 0
M  V30 22156 O 2062.13 1.66233 -0.650297 0
M  V30 22157 C 2059.23 3.11897 -1.32565 0
M  V30 22158 C 2058.4 3.53973 -2.56947 0
M  V30 22159 C 2057.46 4.70825 -2.34969 0
M  V30 22160 O 2056.49 4.78319 -3.08544 0
M  V30 22161 N 2057.69 5.63599 -1.39054 0
M  V30 22162 H 2060.45 1.70927 -2.46179 0
M  V30 22163 H 2058.01 0.800093 -1.40748 0
M  V30 22164 H 2060.01 3.87814 -1.15684 0
M  V30 22165 H 2058.58 3.09502 -0.438979 0
M  V30 22166 H 2057.8 2.68096 -2.88995 0
M  V30 22167 H 2059.08 3.78841 -3.39642 0
M  V30 22168 H 2058.48 5.60252 -0.783199 0
M  V30 22169 H 2057.04 6.39079 -1.28147 0
M  V30 22170 N 2060.47 1.3227 0.85688 0
M  V30 22171 C 2061.7 1.25698 1.6434 0
M  V30 22172 C 2062.11 -0.175425 1.87983 0
M  V30 22173 O 2061.47 -1.11179 1.44726 0
M  V30 22174 C 2061.52 2.0111 3.00395 0
M  V30 22175 O 2061.24 3.38761 2.778 0
M  V30 22176 C 2062.74 2.01535 3.9484 0
M  V30 22177 H 2059.96 0.433782 0.511932 0
M  V30 22178 H 2062.51 1.74358 1.06863 0
M  V30 22179 H 2060.66 1.56178 3.54524 0
M  V30 22180 H 2061.08 3.7733 3.64311 0
M  V30 22181 H 2062.55 2.58787 4.87579 0
M  V30 22182 H 2063.03 1.00106 4.27639 0
M  V30 22183 H 2063.63 2.46404 3.46648 0
M  V30 22184 N 2061.95 -1.07287 1.15444 0
M  V30 22185 C 2062.91 -2.12679 0.854419 0
M  V30 22186 C 2063.91 -1.60135 -0.146116 0
M  V30 22187 O 2065.1 -1.73999 0.0835953 0
M  V30 22188 C 2062.23 -3.39782 0.275849 0
M  V30 22189 H 2063.43 -2.40726 1.7886 0
M  V30 22190 H 2060.98 -1.23187 0.96201 0
M  V30 22191 H 2061.72 -3.17377 -0.666496 0
M  V30 22192 H 2061.5 -3.79222 0.996665 0
M  V30 22193 H 2062.99 -4.17516 0.0835417 0
M  V30 22194 N 2063.43 -0.951342 -1.25647 0
M  V30 22195 C 2064.84 -0.655246 -1.45529 0
M  V30 22196 C 2065.04 0.788272 -1.85441 0
M  V30 22197 O 2064.1 1.5639 -1.98238 0
M  V30 22198 C 2065.41 -1.62536 -2.52987 0
M  V30 22199 C 2066.96 -1.63618 -2.6683 0
M  V30 22200 C 2067.44 -2.59385 -3.77469 0
M  V30 22201 N 2068.93 -2.57731 -3.84876 0
M  V30 22202 C 2069.66 -3.28512 -4.69966 0
M  V30 22203 N 2069.16 -4.08754 -5.59367 0
M  V30 22204 N 2070.95 -3.17415 -4.63901 0
M  V30 22205 H 2063.1 -1.88424 -0.980317 0
M  V30 22206 H 2065.36 -0.8103 -0.492055 0
M  V30 22207 H 2065.07 -2.65628 -2.3051 0
M  V30 22208 H 2064.94 -1.38531 -3.5084 0
M  V30 22209 H 2067.33 -0.61246 -2.88674 0
M  V30 22210 H 2067.41 -1.91681 -1.69387 0
M  V30 22211 H 2067.06 -3.61882 -3.56376 0
M  V30 22212 H 2066.99 -2.28608 -4.7439 0
M  V30 22213 H 2069.48 -1.99473 -3.20966 0
M  V30 22214 H 2069.79 -4.5969 -6.21212 0
M  V30 22215 H 2068.14 -4.12853 -5.59086 0
M  V30 22216 H 2071.33 -2.54201 -3.93064 0
M  V30 22217 H 2071.5 -3.72843 -5.29992 0
M  V30 22218 N 2064.91 1.40216 -0.719531 0
M  V30 22219 C 2066.15 2.016 -0.269965 0
M  V30 22220 C 2066.51 1.56043 1.12554 0
M  V30 22221 O 2065.8 0.772364 1.75343 0
M  V30 22222 C 2065.99 3.56196 -0.293164 0
M  V30 22223 C 2065.82 4.16761 -1.68939 0
M  V30 22224 C 2064.59 4.50023 -2.29798 0
M  V30 22225 C 2066.79 4.41352 -2.64031 0
M  V30 22226 N 2064.77 4.96005 -3.61735 0
M  V30 22227 C 2066.14 4.89369 -3.8068 0
M  V30 22228 C 2068.2 4.23396 -2.61992 0
M  V30 22229 C 2066.9 5.21315 -4.95603 0
M  V30 22230 C 2068.93 4.56446 -3.76046 0
M  V30 22231 C 2068.29 5.04656 -4.91428 0
M  V30 22232 H 2064.39 0.768495 -0.144706 0
M  V30 22233 H 2066.97 1.70385 -0.942176 0
M  V30 22234 H 2065.14 3.86832 0.348627 0
M  V30 22235 H 2066.88 4.04328 0.173485 0
M  V30 22236 H 2063.63 4.37292 -1.8186 0
M  V30 22237 H 2064.05 5.23373 -4.2943 0
M  V30 22238 H 2068.7 3.85341 -1.7399 0
M  V30 22239 H 2066.41 5.58284 -5.84247 0
M  V30 22240 H 2070 4.4419 -3.75748 0
M  V30 22241 H 2068.88 5.29747 -5.78219 0
M  V30 22242 N 2066.38 0.466004 1.50553 0
M  V30 22243 C 2067.33 -0.330804 2.28417 0
M  V30 22244 C 2068.3 -0.991708 1.33246 0
M  V30 22245 O 2069.49 -1.00512 1.62179 0
M  V30 22246 C 2066.63 -1.40978 3.14991 0
M  V30 22247 C 2065.74 -0.76416 4.25188 0
M  V30 22248 C 2064.87 -1.8206 4.99027 0
M  V30 22249 C 2063.91 -1.15495 6.01105 0
M  V30 22250 N 2063.05 -2.15401 6.68242 0
M  V30 22251 H 2067.89 0.339504 2.9606 0
M  V30 22252 H 2065.43 0.179273 1.46003 0
M  V30 22253 H 2067.38 -2.04695 3.63532 0
M  V30 22254 H 2066.01 -2.04932 2.49405 0
M  V30 22255 H 2065.07 -0.0145483 3.80397 0
M  V30 22256 H 2066.38 -0.238458 4.9823 0
M  V30 22257 H 2065.53 -2.5337 5.51261 0
M  V30 22258 H 2064.27 -2.38009 4.25679 0
M  V30 22259 H 2063.28 -0.427447 5.48136 0
M  V30 22260 H 2064.5 -0.602414 6.76423 0
M  V30 22261 H 2062.45 -2.70378 5.97689 0
M  V30 22262 H 2062.36 -1.67802 7.37142 0
M  V30 22263 H 2063.63 -2.86107 7.25095 0
M  V30 22264 N 2067.86 -1.56346 0.198413 0
M  V30 22265 C 2068.81 -2.20589 -0.737791 0
M  V30 22266 C 2069.8 -1.17807 -1.21729 0
M  V30 22267 O 2071.01 -1.35944 -1.1798 0
M  V30 22268 H 2067.38 -0.706982 -0.256282 0
M  V30 22269 H 2069.36 -2.97902 -0.172284 0
M  V30 22270 C 2068.1 -2.88187 -1.94534 0
M  V30 22271 H 2067.43 -3.6702 -1.58545 0
M  V30 22272 H 2068.87 -3.3657 -2.57869 0
M  V30 22273 C 2067.33 -1.89401 -2.7862 0
M  V30 22274 O 2067.86 -1.39638 -3.76649 0
M  V30 22275 N 2066.06 -1.57557 -2.4418 0
M  V30 22276 H 2065.61 -1.98218 -1.64521 0
M  V30 22277 H 2065.57 -0.917179 -3.00724 0
M  V30 22278 N 2069.34 0.0751653 -1.57421 0
M  V30 22279 C 2070.59 0.776106 -1.87362 0
M  V30 22280 C 2070.92 1.77394 -0.790247 0
M  V30 22281 O 2070.19 1.93471 0.199817 0
M  V30 22282 C 2070.48 1.4871 -3.27959 0
M  V30 22283 C 2070.33 0.505905 -4.46946 0
M  V30 22284 C 2071.65 2.43284 -3.66744 0
M  V30 22285 H 2068.77 0.280684 -0.681458 0
M  V30 22286 H 2071.41 0.0393497 -1.89959 0
M  V30 22287 H 2069.56 2.11512 -3.25876 0
M  V30 22288 H 2071.23 -0.116642 -4.61153 0
M  V30 22289 H 2069.48 -0.179057 -4.3343 0
M  V30 22290 H 2070.15 1.04094 -5.42096 0
M  V30 22291 H 2072.62 1.90562 -3.69899 0
M  V30 22292 H 2071.5 2.90037 -4.66015 0
M  V30 22293 H 2071.76 3.27938 -2.96494 0
M  V30 22294 N 2070.82 1.53744 0.346476 0
M  V30 22295 C 2071.77 1.81527 1.42536 0
M  V30 22296 C 2072.74 0.660781 1.52391 0
M  V30 22297 O 2073.92 0.904918 1.67976 0
M  V30 22298 C 2071.06 2.02795 2.79228 0
M  V30 22299 C 2070.17 3.30508 2.78188 0
M  V30 22300 C 2069.31 3.41859 4.06578 0
M  V30 22301 C 2068.35 4.63532 3.99755 0
M  V30 22302 N 2067.48 4.71933 5.1983 0
M  V30 22303 H 2072.32 2.7358 1.18144 0
M  V30 22304 H 2069.86 1.35508 0.572368 0
M  V30 22305 H 2071.82 2.13115 3.58661 0
M  V30 22306 H 2070.45 1.14059 3.01978 0
M  V30 22307 H 2069.5 3.29044 1.90877 0
M  V30 22308 H 2070.81 4.20033 2.69024 0
M  V30 22309 H 2069.97 3.51595 4.94435 0
M  V30 22310 H 2068.71 2.50385 4.1852 0
M  V30 22311 H 2067.71 4.53876 3.10284 0
M  V30 22312 H 2068.94 5.56368 3.89399 0
M  V30 22313 H 2066.88 3.83367 5.32321 0
M  V30 22314 H 2066.8 5.5539 5.12911 0
M  V30 22315 H 2068.07 4.85975 6.09466 0
M  V30 22316 N 2072.3 -0.607329 1.45428 0
M  V30 22317 C 2073.54 -1.36835 1.49679 0
M  V30 22318 C 2073.88 -1.93708 0.138148 0
M  V30 22319 O 2073.15 -1.75069 -0.847414 0
M  V30 22320 C 2073.43 -2.51607 2.57616 0
M  V30 22321 C 2073.29 -1.99929 4.02925 0
M  V30 22322 C 2074.61 -3.53738 2.61835 0
M  V30 22323 H 2071.72 -0.496187 0.544947 0
M  V30 22324 H 2074.37 -0.684587 1.77238 0
M  V30 22325 H 2072.52 -3.09936 2.34247 0
M  V30 22326 H 2074.19 -1.46247 4.37504 0
M  V30 22327 H 2072.43 -1.30929 4.1357 0
M  V30 22328 H 2073.1 -2.82666 4.74135 0
M  V30 22329 H 2075.58 -3.0525 2.82775 0
M  V30 22330 H 2074.45 -4.31533 3.39221 0
M  V30 22331 H 2074.72 -4.09372 1.66935 0
M  V30 22332 N 2073.77 -1.32722 -0.849853 0
M  V30 22333 C 2074.72 -1.22024 -1.98023 0
M  V30 22334 C 2075.72 -0.12398 -1.68946 0
M  V30 22335 O 2076.92 -0.287223 -1.77694 0
M  V30 22336 H 2073.3 -0.378378 -0.649873 0
M  V30 22337 H 2075.27 -2.17614 -2.04173 0
M  V30 22338 C 2074.02 -0.965076 -3.34038 0
M  V30 22339 H 2073.34 -1.80084 -3.56945 0
M  V30 22340 H 2074.78 -0.93048 -4.13664 0
M  V30 22341 C 2073.24 0.332137 -3.35259 0
M  V30 22342 O 2073.77 1.34244 -3.78604 0
M  V30 22343 N 2071.98 0.355806 -2.88414 0
M  V30 22344 H 2071.52 -0.46689 -2.53334 0
M  V30 22345 H 2071.48 1.2236 -2.89613 0
M  V30 22346 N 2075.25 1.06673 -1.16011 0
M  V30 22347 C 2076.5 1.794 -0.939249 0
M  V30 22348 C 2076.83 1.87049 0.533193 0
M  V30 22349 O 2076.08 1.35544 1.4116 0
M  V30 22350 C 2076.38 3.24069 -1.50712 0
M  V30 22351 C 2076.05 3.36507 -3.00123 0
M  V30 22352 C 2074.71 3.39609 -3.4091 0
M  V30 22353 C 2077.06 3.38741 -3.96111 0
M  V30 22354 C 2074.39 3.42556 -4.76311 0
M  V30 22355 C 2076.74 3.43226 -5.31393 0
M  V30 22356 C 2075.41 3.44608 -5.71665 0
M  V30 22357 H 2074.68 0.656471 -0.343696 0
M  V30 22358 H 2077.32 1.25476 -1.44665 0
M  V30 22359 H 2075.63 3.80819 -0.921077 0
M  V30 22360 H 2077.32 3.78931 -1.31196 0
M  V30 22361 H 2073.91 3.34796 -2.676 0
M  V30 22362 H 2078.1 3.35559 -3.65669 0
M  V30 22363 H 2073.35 3.41928 -5.06848 0
M  V30 22364 H 2077.53 3.43902 -6.05561 0
M  V30 22365 H 2075.16 3.46645 -6.76566 0
M  V30 22366 N 2076.73 0.957992 1.25141 0
M  V30 22367 C 2078.01 0.531835 1.88231 0
M  V30 22368 C 2078.39 -0.990946 1.86396 0
M  V30 22369 O 2077.74 -1.85817 1.32983 0
M  V30 22370 C 2077.95 1.11229 3.30801 0
M  V30 22371 C 2079.29 1.19121 4.07548 0
M  V30 22372 O 2080.32 1.06409 3.39935 0
M  V30 22373 O 2079.18 1.39103 5.285 0
M  V30 22374 H 2076.27 0.175926 0.808071 0
M  V30 22375 H 2078.82 1.05164 1.33187 0
M  V30 22376 H 2077.59 2.15542 3.26584 0
M  V30 22377 H 2077.21 0.575942 3.93406 0
M  V30 22378 N 2078.21 -1.39832 0.726957 0
M  V30 22379 C 2079.16 -2.32492 0.0707517 0
M  V30 22380 C 2080.15 -1.5264 -0.734661 0
M  V30 22381 O 2081.36 -1.68361 -0.63675 0
M  V30 22382 H 2077.73 -0.751989 0.00407767 0
M  V30 22383 H 2079.7 -2.85473 0.868774 0
M  V30 22384 C 2078.45 -3.37686 -0.828442 0
M  V30 22385 H 2077.77 -3.99205 -0.218093 0
M  V30 22386 H 2079.21 -4.0499 -1.25534 0
M  V30 22387 C 2077.67 -2.74083 -1.95909 0
M  V30 22388 O 2078.2 -2.61299 -3.051 0
M  V30 22389 N 2076.41 -2.32292 -1.7461 0
M  V30 22390 H 2075.96 -2.4289 -0.858037 0
M  V30 22391 H 2075.91 -1.90075 -2.50437 0
M  V30 22392 N 2079.69 -0.473982 -1.50304 0
M  V30 22393 C 2080.93 0.0801282 -2.02642 0
M  V30 22394 C 2081.27 1.3911 -1.35506 0
M  V30 22395 O 2080.54 1.8844 -0.481719 0
M  V30 22396 C 2080.82 0.26092 -3.59153 0
M  V30 22397 C 2080.68 -1.07128 -4.36857 0
M  V30 22398 C 2082 1.01413 -4.28256 0
M  V30 22399 H 2079.11 0.0276467 -0.736481 0
M  V30 22400 H 2081.76 -0.620135 -1.79595 0
M  V30 22401 H 2079.91 0.857378 -3.78921 0
M  V30 22402 H 2081.58 -1.70454 -4.28653 0
M  V30 22403 H 2079.82 -1.66721 -4.00483 0
M  V30 22404 H 2080.49 -0.898389 -5.4464 0
M  V30 22405 H 2082.97 0.508536 -4.12981 0
M  V30 22406 H 2081.84 1.10943 -5.37571 0
M  V30 22407 H 2082.11 2.05141 -3.91624 0
M  V30 22408 N 2081.16 1.56239 -0.206702 0
M  V30 22409 C 2082.41 1.97513 0.428144 0
M  V30 22410 C 2082.73 1.09514 1.61343 0
M  V30 22411 O 2082 0.168913 1.9517 0
M  V30 22412 H 2080.58 0.729406 0.161169 0
M  V30 22413 H 2083.25 1.92637 -0.296139 0
M  V30 22414 H 2082.34 3.02592 0.764479 0
M  V30 22415 N 2082.64 -0.0668159 1.57458 0
M  V30 22416 C 2083.57 -1.0791 2.07069 0
M  V30 22417 C 2084.55 -1.40063 0.965207 0
M  V30 22418 O 2085.74 -1.49604 1.23823 0
M  V30 22419 C 2082.87 -2.39113 2.51877 0
M  V30 22420 C 2081.82 -2.213 3.66347 0
M  V30 22421 C 2081.15 -3.57931 3.97227 0
M  V30 22422 C 2082.45 -1.63013 4.9621 0
M  V30 22423 H 2084.14 -0.666254 2.91893 0
M  V30 22424 H 2081.69 -0.319039 1.40421 0
M  V30 22425 H 2083.64 -3.10226 2.85198 0
M  V30 22426 H 2082.37 -2.82387 1.64088 0
M  V30 22427 H 2081.02 -1.52628 3.33317 0
M  V30 22428 H 2080.67 -3.98784 3.06562 0
M  V30 22429 H 2080.37 -3.4685 4.74309 0
M  V30 22430 H 2081.9 -4.30467 4.33048 0
M  V30 22431 H 2083.31 -2.23997 5.27729 0
M  V30 22432 H 2081.71 -1.62614 5.77648 0
M  V30 22433 H 2082.78 -0.592078 4.81272 0
M  V30 22434 N 2084.12 -1.53926 -0.338317 0
M  V30 22435 C 2085.37 -1.71085 -1.07584 0
M  V30 22436 C 2085.69 -0.479497 -1.89013 0
M  V30 22437 O 2084.96 0.506566 -1.89237 0
M  V30 22438 H 2083.54 -0.630767 -0.400178 0
M  V30 22439 H 2086.2 -1.91193 -0.378324 0
M  V30 22440 H 2085.3 -2.58404 -1.75026 0
M  V30 22441 N 2085.6 0.599608 -1.45748 0
M  V30 22442 C 2086.83 1.38282 -1.53498 0
M  V30 22443 C 2087.24 1.88443 -0.169109 0
M  V30 22444 O 2086.58 1.63321 0.840947 0
M  V30 22445 C 2086.64 2.6169 -2.46492 0
M  V30 22446 C 2086.31 2.33114 -3.93074 0
M  V30 22447 C 2087.3 1.92984 -4.82756 0
M  V30 22448 C 2084.99 2.45779 -4.38061 0
M  V30 22449 C 2086.98 1.65892 -6.15434 0
M  V30 22450 C 2084.67 2.18301 -5.70778 0
M  V30 22451 C 2085.67 1.7842 -6.59284 0
M  V30 22452 O 2085.36 1.51268 -7.8954 0
M  V30 22453 H 2085.09 0.42941 -0.522095 0
M  V30 22454 H 2087.64 0.737577 -1.917 0
M  V30 22455 H 2085.87 3.28962 -2.03276 0
M  V30 22456 H 2087.56 3.23743 -2.44837 0
M  V30 22457 H 2088.33 1.82729 -4.49261 0
M  V30 22458 H 2084.21 2.75786 -3.69409 0
M  V30 22459 H 2087.75 1.3469 -6.84474 0
M  V30 22460 H 2083.65 2.28176 -6.03826 0
M  V30 22461 H 2084.41 1.65254 -8.01644 0
M  V30 22462 N 2087.08 1.33171 0.842803 0
M  V30 22463 C 2088.01 1.2572 1.96766 0
M  V30 22464 C 2088.99 0.138574 1.69535 0
M  V30 22465 O 2090.17 0.327704 1.91415 0
M  V30 22466 C 2087.3 0.991637 3.32842 0
M  V30 22467 C 2086.26 2.07278 3.74459 0
M  V30 22468 C 2085.58 1.65942 5.08299 0
M  V30 22469 C 2086.88 3.48911 3.88662 0
M  V30 22470 H 2088.58 2.19834 2.03257 0
M  V30 22471 H 2086.12 1.05829 0.976533 0
M  V30 22472 H 2088.08 0.926021 4.111 0
M  V30 22473 H 2086.8 0.0148823 3.26597 0
M  V30 22474 H 2085.46 2.12875 2.98462 0
M  V30 22475 H 2085.11 0.669795 4.98521 0
M  V30 22476 H 2084.81 2.38288 5.37115 0
M  V30 22477 H 2086.33 1.60839 5.89036 0
M  V30 22478 H 2087.75 3.45837 4.57241 0
M  V30 22479 H 2086.14 4.1971 4.2891 0
M  V30 22480 H 2087.21 3.87705 2.91226 0
M  V30 22481 N 2088.56 -1.06056 1.16576 0
M  V30 22482 C 2089.78 -1.83131 0.973539 0
M  V30 22483 C 2090.21 -1.82047 -0.473358 0
M  V30 22484 O 2089.56 -1.22303 -1.33834 0
M  V30 22485 C 2089.61 -3.2753 1.50852 0
M  V30 22486 O 2088.72 -4.06129 0.716451 0
M  V30 22487 H 2088.06 -0.566557 0.346279 0
M  V30 22488 H 2090.59 -1.33704 1.54869 0
M  V30 22489 H 2090.6 -3.78346 1.52704 0
M  V30 22490 H 2089.27 -3.27634 2.56181 0
M  V30 22491 H 2087.85 -3.64892 0.768639 0
M  V30 22492 N 2090.03 -0.964615 -1.24631 0
M  V30 22493 C 2090.96 -0.511091 -2.27838 0
M  V30 22494 C 2091.94 0.447692 -1.64103 0
M  V30 22495 O 2093.13 0.344485 -1.9112 0
M  V30 22496 C 2090.26 0.202467 -3.46709 0
M  V30 22497 C 2089.21 -0.672032 -4.22691 0
M  V30 22498 C 2088.54 0.172842 -5.34421 0
M  V30 22499 C 2089.84 -1.9551 -4.84327 0
M  V30 22500 H 2091.53 -1.37371 -2.66025 0
M  V30 22501 H 2089.08 -0.661983 -1.27882 0
M  V30 22502 H 2091.03 0.530942 -4.18042 0
M  V30 22503 H 2089.76 1.09942 -3.07539 0
M  V30 22504 H 2088.42 -0.983734 -3.53155 0
M  V30 22505 H 2088.06 1.06985 -4.91491 0
M  V30 22506 H 2087.76 -0.409046 -5.86175 0
M  V30 22507 H 2089.29 0.496057 -6.08582 0
M  V30 22508 H 2090.7 -1.69241 -5.4775 0
M  V30 22509 H 2089.1 -2.48346 -5.46301 0
M  V30 22510 H 2090.17 -2.65197 -4.05954 0
M  V30 22511 N 2091.51 1.39445 -0.734362 0
M  V30 22512 C 2092.44 2.33245 -0.109065 0
M  V30 22513 C 2093.42 1.53878 0.724945 0
M  V30 22514 O 2094.61 1.82274 0.670055 0
M  V30 22515 C 2091.74 3.37973 0.799454 0
M  V30 22516 C 2090.69 4.27943 0.0696508 0
M  V30 22517 C 2090.02 5.23365 1.09514 0
M  V30 22518 C 2091.32 5.10855 -1.08738 0
M  V30 22519 H 2093.01 2.85786 -0.892581 0
M  V30 22520 H 2090.56 1.37409 -0.430672 0
M  V30 22521 H 2092.51 4.02545 1.24643 0
M  V30 22522 H 2091.23 2.83871 1.61508 0
M  V30 22523 H 2089.89 3.64851 -0.357693 0
M  V30 22524 H 2089.54 4.65559 1.90432 0
M  V30 22525 H 2089.24 5.84408 0.611606 0
M  V30 22526 H 2090.77 5.90813 1.54183 0
M  V30 22527 H 2092.18 5.68775 -0.718888 0
M  V30 22528 H 2090.58 5.81038 -1.50051 0
M  V30 22529 H 2091.65 4.45725 -1.90937 0
M  V30 22530 N 2092.99 0.481946 1.5005 0
M  V30 22531 C 2093.92 -0.343006 2.26619 0
M  V30 22532 C 2094.93 -0.947538 1.32384 0
M  V30 22533 O 2096.12 -0.834105 1.57813 0
M  V30 22534 C 2093.22 -1.49609 3.0409 0
M  V30 22535 C 2092.4 -1.00236 4.2576 0
M  V30 22536 C 2091.46 -2.03077 4.85434 0
M  V30 22537 O 2090.48 -1.607 5.46044 0
M  V30 22538 N 2091.68 -3.35975 4.73393 0
M  V30 22539 H 2094.45 0.313457 2.98056 0
M  V30 22540 H 2092.01 0.313362 1.58838 0
M  V30 22541 H 2094 -2.18123 3.40888 0
M  V30 22542 H 2092.57 -2.05705 2.35381 0
M  V30 22543 H 2091.79 -0.14274 3.93941 0
M  V30 22544 H 2093.08 -0.650587 5.04623 0
M  V30 22545 H 2092.48 -3.73107 4.25215 0
M  V30 22546 H 2091.03 -4.00256 5.1443 0
M  V30 22547 N 2094.47 -1.56127 0.214985 0
M  V30 22548 C 2095.71 -1.98422 -0.41911 0
M  V30 22549 C 2096.05 -1.10235 -1.59881 0
M  V30 22550 O 2095.32 -0.158603 -1.93852 0
M  V30 22551 C 2095.6 -3.49679 -0.86003 0
M  V30 22552 C 2095.46 -4.4864 0.322851 0
M  V30 22553 C 2096.78 -4.0516 -1.71854 0
M  V30 22554 H 2093.9 -0.721393 -0.150867 0
M  V30 22555 H 2096.54 -1.87456 0.309902 0
M  V30 22556 H 2094.69 -3.59155 -1.48121 0
M  V30 22557 H 2096.36 -4.51181 0.960896 0
M  V30 22558 H 2094.6 -4.22784 0.97138 0
M  V30 22559 H 2095.27 -5.51993 -0.028492 0
M  V30 22560 H 2097.75 -3.98587 -1.19448 0
M  V30 22561 H 2096.63 -5.11324 -1.99596 0
M  V30 22562 H 2096.89 -3.51638 -2.67962 0
M  V30 22563 N 2095.95 0.0584645 -1.57492 0
M  V30 22564 C 2096.91 1.05251 -2.03605 0
M  V30 22565 C 2097.91 1.30807 -0.935209 0
M  V30 22566 O 2099.1 1.26304 -1.19971 0
M  V30 22567 C 2096.23 2.39288 -2.42804 0
M  V30 22568 H 2097.42 0.654779 -2.92665 0
M  V30 22569 H 2094.98 0.304552 -1.53304 0
M  V30 22570 H 2095.71 2.83868 -1.56811 0
M  V30 22571 H 2095.5 2.22077 -3.23147 0
M  V30 22572 H 2096.99 3.10713 -2.79011 0
M  V30 22573 N 2097.42 1.54103 0.330149 0
M  V30 22574 C 2098.65 1.75948 1.08857 0
M  V30 22575 C 2099.07 0.504949 1.81922 0
M  V30 22576 O 2098.42 -0.524053 1.74814 0
M  V30 22577 C 2098.47 2.94836 2.09175 0
M  V30 22578 O 2098.2 4.15438 1.39079 0
M  V30 22579 C 2099.7 3.28839 2.97287 0
M  V30 22580 H 2096.92 0.587551 0.324076 0
M  V30 22581 H 2099.46 2.00971 0.378279 0
M  V30 22582 H 2097.62 2.72105 2.75749 0
M  V30 22583 H 2098.03 4.82266 2.06204 0
M  V30 22584 H 2099.5 4.15343 3.63586 0
M  V30 22585 H 2099.98 2.4572 3.64031 0
M  V30 22586 H 2100.59 3.53624 2.36284 0
M  V30 22587 N 2098.9 -0.59187 1.46064 0
M  V30 22588 C 2100.15 -1.3504 1.50899 0
M  V30 22589 C 2100.48 -1.93865 0.156992 0
M  V30 22590 O 2099.73 -1.76455 -0.846284 0
M  V30 22591 C 2100.03 -2.50587 2.54835 0
M  V30 22592 C 2099.7 -2.09811 3.99111 0
M  V30 22593 C 2098.36 -1.98406 4.38393 0
M  V30 22594 C 2100.71 -1.78225 4.89781 0
M  V30 22595 C 2098.04 -1.53658 5.66221 0
M  V30 22596 C 2100.39 -1.34959 6.18036 0
M  V30 22597 C 2099.06 -1.22123 6.56233 0
M  V30 22598 H 2098.33 -0.494146 0.552178 0
M  V30 22599 H 2100.97 -0.667418 1.79493 0
M  V30 22600 H 2099.28 -3.24292 2.19868 0
M  V30 22601 H 2100.97 -3.08809 2.55809 0
M  V30 22602 H 2097.56 -2.1962 3.68056 0
M  V30 22603 H 2101.75 -1.85927 4.60158 0
M  V30 22604 H 2097 -1.42356 5.94596 0
M  V30 22605 H 2101.18 -1.09569 6.87726 0
M  V30 22606 H 2098.81 -0.872249 7.55179 0
M  V30 22607 N 2100.38 -1.33616 -0.835729 0
M  V30 22608 C 2101.33 -1.24131 -1.94577 0
M  V30 22609 C 2102.3 -0.119257 -1.65671 0
M  V30 22610 O 2103.48 -0.298063 -1.88457 0
M  V30 22611 C 2100.62 -0.989665 -3.30605 0
M  V30 22612 C 2099.74 -2.19828 -3.71887 0
M  V30 22613 C 2098.87 -1.88052 -4.96799 0
M  V30 22614 C 2097.91 -3.05128 -5.30625 0
M  V30 22615 N 2097.05 -2.7332 -6.46715 0
M  V30 22616 H 2101.89 -2.19069 -2.02022 0
M  V30 22617 H 2099.42 -1.08932 -0.988545 0
M  V30 22618 H 2101.38 -0.824187 -4.08978 0
M  V30 22619 H 2100.01 -0.0770128 -3.22708 0
M  V30 22620 H 2099.06 -2.4734 -2.89011 0
M  V30 22621 H 2100.38 -3.07341 -3.92865 0
M  V30 22622 H 2099.53 -1.68166 -5.82928 0
M  V30 22623 H 2098.27 -0.977799 -4.77797 0
M  V30 22624 H 2097.27 -3.25624 -4.43 0
M  V30 22625 H 2098.5 -3.9616 -5.51574 0
M  V30 22626 H 2096.44 -1.8561 -6.29194 0
M  V30 22627 H 2096.36 -3.54365 -6.67804 0
M  V30 22628 H 2097.63 -2.56909 -7.35947 0
M  V30 22629 N 2101.86 1.05436 -1.17136 0
M  V30 22630 C 2103.11 1.78041 -0.956331 0
M  V30 22631 C 2103.43 1.88035 0.516524 0
M  V30 22632 O 2102.7 1.39532 1.37505 0
M  V30 22633 H 2101.28 0.659483 -0.350843 0
M  V30 22634 H 2103.94 1.2732 -1.47566 0
M  V30 22635 H 2103.04 2.79808 -1.38253 0
M  V30 22636 N 2103.34 0.971211 1.24118 0
M  V30 22637 C 2104.58 0.645565 1.92883 0
M  V30 22638 C 2104.94 -0.810841 1.7448 0
M  V30 22639 O 2104.23 -1.57617 1.08938 0
M  V30 22640 C 2104.42 0.960091 3.44263 0
M  V30 22641 C 2104.25 2.44552 3.77391 0
M  V30 22642 C 2103.02 3.10595 3.98571 0
M  V30 22643 C 2105.22 3.42577 3.83595 0
M  V30 22644 N 2103.2 4.48839 4.18828 0
M  V30 22645 C 2104.57 4.66192 4.08736 0
M  V30 22646 C 2106.63 3.37186 3.66347 0
M  V30 22647 C 2105.33 5.85078 4.18421 0
M  V30 22648 C 2107.36 4.55428 3.77279 0
M  V30 22649 C 2106.72 5.77834 4.02848 0
M  V30 22650 H 2102.82 0.287133 0.727378 0
M  V30 22651 H 2105.4 1.24679 1.49543 0
M  V30 22652 H 2103.57 0.387647 3.86461 0
M  V30 22653 H 2105.31 0.592659 4.00337 0
M  V30 22654 H 2102.06 2.61116 3.95115 0
M  V30 22655 H 2102.49 5.20482 4.32929 0
M  V30 22656 H 2107.13 2.43583 3.45582 0
M  V30 22657 H 2104.85 6.79106 4.37996 0
M  V30 22658 H 2108.43 4.52822 3.65299 0
M  V30 22659 H 2107.31 6.67801 4.1111 0
M  V30 22660 N 2104.81 -1.39054 0.741747 0
M  V30 22661 C 2105.75 -2.28134 0.0548289 0
M  V30 22662 C 2106.73 -1.4475 -0.740697 0
M  V30 22663 O 2107.91 -1.74132 -0.721832 0
M  V30 22664 C 2105.04 -3.25699 -0.92941 0
M  V30 22665 C 2104.08 -4.25924 -0.221557 0
M  V30 22666 S 2104.92 -5.24716 1.06927 0
M  V30 22667 C 2106.07 -6.25838 0.0878046 0
M  V30 22668 H 2106.3 -2.86046 0.810253 0
M  V30 22669 H 2103.84 -1.44878 0.533825 0
M  V30 22670 H 2105.8 -3.82427 -1.49197 0
M  V30 22671 H 2104.46 -2.66793 -1.65772 0
M  V30 22672 H 2103.65 -4.94645 -0.966549 0
M  V30 22673 H 2103.25 -3.7303 0.269156 0
M  V30 22674 H 2105.54 -6.73333 -0.750286 0
M  V30 22675 H 2106.49 -7.04198 0.742344 0
M  V30 22676 H 2106.89 -5.63767 -0.287607 0
M  V30 22677 N 2106.29 -0.489897 -1.49792 0
M  V30 22678 C 2107.57 0.121028 -1.95225 0
M  V30 22679 C 2107.95 1.55194 -1.43101 0
M  V30 22680 O 2107.3 2.19354 -0.639992 0
M  V30 22681 C 2107.51 0.045071 -3.48971 0
M  V30 22682 C 2108.86 0.224571 -4.24006 0
M  V30 22683 O 2109.88 0.120781 -3.55995 0
M  V30 22684 O 2108.74 0.436269 -5.44756 0
M  V30 22685 H 2105.83 0.101395 -0.820761 0
M  V30 22686 H 2108.38 -0.551643 -1.60484 0
M  V30 22687 H 2107.15 -0.953242 -3.79512 0
M  V30 22688 H 2106.77 0.758377 -3.903 0
M  V30 22689 N 2107.77 1.56011 -0.223262 0
M  V30 22690 C 2109.02 1.97523 0.40834 0
M  V30 22691 C 2109.33 1.11401 1.60777 0
M  V30 22692 O 2110.54 1.4282 2.309 0
M  V30 22693 C 2108.99 3.51393 0.777885 0
M  V30 22694 C 2108.6 4.46221 -0.398826 0
M  V30 22695 C 2110.35 4.01614 1.37499 0
M  V30 22696 C 2108.25 5.914 -0.00675168 0
M  V30 22697 H 2107.18 0.737614 0.156337 0
M  V30 22698 H 2109.83 1.80693 -0.319744 0
M  V30 22699 H 2108.22 3.6383 1.56344 0
M  V30 22700 H 2109.39 4.45532 -1.17635 0
M  V30 22701 H 2107.71 4.06351 -0.909284 0
M  V30 22702 H 2110.3 5.0758 1.68127 0
M  V30 22703 H 2110.65 3.47566 2.29137 0
M  V30 22704 H 2111.18 3.92406 0.65284 0
M  V30 22705 H 2107.92 6.49435 -0.889654 0
M  V30 22706 H 2107.44 5.95279 0.735052 0
M  V30 22707 H 2109.12 6.4564 0.419339 0
M  V30 22708 N 2109.25 -0.0501116 1.5752 0
M  V30 22709 C 2110.18 -1.08964 2.00504 0
M  V30 22710 C 2111.16 -1.36365 0.885632 0
M  V30 22711 O 2112.34 -1.49375 1.14975 0
M  V30 22712 C 2109.47 -2.42922 2.36023 0
M  V30 22713 C 2108.52 -2.31517 3.58193 0
M  V30 22714 S 2109.35 -1.68858 5.0818 0
M  V30 22715 C 2110.51 -3.04349 5.46921 0
M  V30 22716 H 2110.74 -0.723433 2.88364 0
M  V30 22717 H 2108.27 -0.259394 1.52205 0
M  V30 22718 H 2110.23 -3.19968 2.57159 0
M  V30 22719 H 2108.89 -2.76697 1.48653 0
M  V30 22720 H 2108.08 -3.30356 3.80632 0
M  V30 22721 H 2107.69 -1.6261 3.36799 0
M  V30 22722 H 2109.98 -4.00678 5.46318 0
M  V30 22723 H 2110.92 -2.86666 6.47478 0
M  V30 22724 H 2111.33 -3.05953 4.74398 0
M  V30 22725 N 2110.73 -1.54276 -0.321972 0
M  V30 22726 C 2111.96 -1.76267 -1.07766 0
M  V30 22727 C 2112.36 -0.512038 -1.8214 0
M  V30 22728 O 2111.71 0.526965 -1.75979 0
M  V30 22729 C 2111.77 -2.90328 -2.12014 0
M  V30 22730 C 2111.43 -4.29176 -1.57024 0
M  V30 22731 C 2112.43 -5.09971 -1.0112 0
M  V30 22732 C 2110.12 -4.75724 -1.6122 0
M  V30 22733 C 2112.11 -6.35425 -0.501407 0
M  V30 22734 C 2109.8 -6.01145 -1.09853 0
M  V30 22735 C 2110.79 -6.80829 -0.544086 0
M  V30 22736 O 2110.48 -8.03891 -0.0381506 0
M  V30 22737 H 2110.21 -0.592028 -0.326312 0
M  V30 22738 H 2112.77 -2.0198 -0.373274 0
M  V30 22739 H 2111 -2.6019 -2.86074 0
M  V30 22740 H 2112.69 -3.00087 -2.73317 0
M  V30 22741 H 2113.45 -4.75163 -0.971843 0
M  V30 22742 H 2109.33 -4.13744 -2.03315 0
M  V30 22743 H 2112.88 -6.97567 -0.067985 0
M  V30 22744 H 2108.77 -6.35444 -1.13496 0
M  V30 22745 H 2109.54 -8.18356 -0.153425 0
M  V30 22746 N 2112.2 0.584116 -1.46376 0
M  V30 22747 C 2113.17 1.6753 -1.56417 0
M  V30 22748 C 2114.17 1.54622 -0.441454 0
M  V30 22749 O 2115.36 1.59265 -0.705714 0
M  V30 22750 C 2112.49 3.06947 -1.48313 0
M  V30 22751 H 2113.68 1.59986 -2.53662 0
M  V30 22752 H 2111.24 0.801837 -1.34165 0
M  V30 22753 H 2111.97 3.20048 -0.523413 0
M  V30 22754 H 2111.76 3.17724 -2.29768 0
M  V30 22755 H 2113.25 3.86384 -1.58422 0
M  V30 22756 N 2113.68 1.34058 0.828631 0
M  V30 22757 C 2114.65 1.25063 1.92073 0
M  V30 22758 C 2115.65 0.167192 1.59928 0
M  V30 22759 O 2116.84 0.419428 1.69075 0
M  V30 22760 C 2113.97 0.929519 3.27983 0
M  V30 22761 H 2115.16 2.22146 2.01472 0
M  V30 22762 H 2112.71 1.18263 1.02193 0
M  V30 22763 H 2113.45 -0.0383856 3.24277 0
M  V30 22764 H 2113.23 1.71313 3.52696 0
M  V30 22765 H 2114.72 0.891605 4.07971 0
M  V30 22766 N 2115.16 -1.04814 1.17694 0
M  V30 22767 C 2116.41 -1.78147 0.969105 0
M  V30 22768 C 2116.74 -1.87634 -0.500715 0
M  V30 22769 O 2116.02 -1.37892 -1.37172 0
M  V30 22770 C 2116.3 -3.2183 1.61548 0
M  V30 22771 C 2116.15 -3.20332 3.15765 0
M  V30 22772 C 2117.47 -4.19759 1.32251 0
M  V30 22773 H 2114.59 -0.646701 0.353479 0
M  V30 22774 H 2117.23 -1.22485 1.45249 0
M  V30 22775 H 2115.38 -3.69358 1.20445 0
M  V30 22776 H 2117.05 -2.8085 3.65952 0
M  V30 22777 H 2115.3 -2.58568 3.48318 0
M  V30 22778 H 2115.97 -4.21759 3.56123 0
M  V30 22779 H 2118.44 -3.80743 1.67851 0
M  V30 22780 H 2117.32 -5.18527 1.80057 0
M  V30 22781 H 2117.58 -4.41426 0.244002 0
M  V30 22782 N 2116.64 -0.977779 -1.23601 0
M  V30 22783 C 2117.92 -0.561714 -1.87361 0
M  V30 22784 C 2118.3 0.961166 -1.87949 0
M  V30 22785 O 2117.64 1.83678 -1.35922 0
M  V30 22786 C 2117.85 -1.16478 -3.28989 0
M  V30 22787 C 2119.2 -1.2559 -4.05601 0
M  V30 22788 O 2120.23 -1.11804 -3.38199 0
M  V30 22789 O 2119.09 -1.47493 -5.2622 0
M  V30 22790 H 2116.18 -0.18876 -0.80517 0
M  V30 22791 H 2118.73 -1.07269 -1.31497 0
M  V30 22792 H 2117.5 -2.20711 -3.23114 0
M  V30 22793 H 2117.12 -0.638457 -3.9244 0
M  V30 22794 N 2118.12 1.38658 -0.749111 0
M  V30 22795 C 2119.34 2.0503 -0.312666 0
M  V30 22796 C 2119.77 1.56125 1.04912 0
M  V30 22797 O 2119.13 0.711236 1.66767 0
M  V30 22798 C 2119.17 3.58997 -0.339658 0
M  V30 22799 O 2118.28 4.06956 0.667887 0
M  V30 22800 H 2117.62 0.649228 -0.139282 0
M  V30 22801 H 2120.15 1.7742 -1.01898 0
M  V30 22802 H 2120.16 4.07562 -0.188968 0
M  V30 22803 H 2118.83 3.93951 -1.33325 0
M  V30 22804 H 2117.41 3.69769 0.482177 0
M  V30 22805 N 2119.6 0.497834 1.49531 0
M  V30 22806 C 2121.01 0.153598 1.58859 0
M  V30 22807 C 2121.21 -1.34166 1.50339 0
M  V30 22808 O 2120.27 -2.11733 1.37569 0
M  V30 22809 C 2121.58 0.727583 2.91765 0
M  V30 22810 C 2123.13 0.693405 3.05223 0
M  V30 22811 C 2123.6 1.2454 4.40742 0
M  V30 22812 N 2125.09 1.20596 4.47226 0
M  V30 22813 C 2125.83 1.60329 5.50529 0
M  V30 22814 N 2125.33 2.07639 6.60952 0
M  V30 22815 N 2127.12 1.51765 5.41224 0
M  V30 22816 H 2119.27 1.47001 1.53312 0
M  V30 22817 H 2121.53 0.609549 0.726054 0
M  V30 22818 H 2121.24 1.77611 3.03558 0
M  V30 22819 H 2121.11 0.186218 3.7674 0
M  V30 22820 H 2123.5 -0.346272 2.93061 0
M  V30 22821 H 2123.58 1.27188 2.21939 0
M  V30 22822 H 2123.22 2.28384 4.53655 0
M  V30 22823 H 2123.15 0.642891 5.22661 0
M  V30 22824 H 2125.65 0.859277 3.68001 0
M  V30 22825 H 2125.96 2.36035 7.35872 0
M  V30 22826 H 2124.3 2.11611 6.62001 0
M  V30 22827 H 2127.49 1.14625 4.53849 0
M  V30 22828 H 2127.67 1.83053 6.21607 0
M  V30 22829 N 2121.07 -1.5589 0.231532 0
M  V30 22830 C 2122.02 -2.22104 -0.690835 0
M  V30 22831 C 2123.02 -1.20363 -1.19202 0
M  V30 22832 O 2124.22 -1.38416 -1.1507 0
M  V30 22833 H 2120.6 -0.712259 -0.241228 0
M  V30 22834 H 2122.57 -2.98201 -0.109056 0
M  V30 22835 C 2121.32 -2.92249 -1.88377 0
M  V30 22836 H 2120.64 -3.703 -1.50725 0
M  V30 22837 H 2122.08 -3.41964 -2.50672 0
M  V30 22838 C 2120.54 -1.95268 -2.7454 0
M  V30 22839 O 2121.07 -1.47596 -3.73602 0
M  V30 22840 N 2119.27 -1.62701 -2.40783 0
M  V30 22841 H 2118.82 -2.01663 -1.6028 0
M  V30 22842 H 2118.78 -0.98076 -2.98711 0
M  V30 22843 N 2122.55 0.0417572 -1.57545 0
M  V30 22844 C 2123.8 0.736189 -1.88966 0
M  V30 22845 C 2124.13 1.75678 -0.827697 0
M  V30 22846 O 2123.41 1.93851 0.158734 0
M  V30 22847 C 2123.69 1.4172 -3.3104 0
M  V30 22848 C 2123.54 0.410987 -4.47918 0
M  V30 22849 C 2124.86 2.3545 -3.71822 0
M  V30 22850 H 2121.98 0.266166 -0.687259 0
M  V30 22851 H 2124.62 -0.000952352 -1.9 0
M  V30 22852 H 2122.77 2.04552 -3.30289 0
M  V30 22853 H 2124.44 -0.214433 -4.60801 0
M  V30 22854 H 2122.69 -0.270954 -4.32953 0
M  V30 22855 H 2123.36 0.925718 -5.44182 0
M  V30 22856 H 2125.83 1.82673 -3.73858 0
M  V30 22857 H 2124.71 2.80087 -4.72062 0
M  V30 22858 H 2124.97 3.21575 -3.03384 0
M  V30 22859 N 2124.03 1.54445 0.313786 0
M  V30 22860 C 2124.94 1.87547 1.40937 0
M  V30 22861 C 2125.96 0.768341 1.56117 0
M  V30 22862 O 2127.13 1.06358 1.71026 0
M  V30 22863 C 2124.2 2.10467 2.75508 0
M  V30 22864 C 2123.26 3.34232 2.69421 0
M  V30 22865 C 2122.49 3.56049 3.97574 0
M  V30 22866 O 2122.71 2.81118 4.96316 0
M  V30 22867 O 2121.65 4.49546 4.0024 0
M  V30 22868 H 2125.47 2.80728 1.15868 0
M  V30 22869 H 2123.06 1.40473 0.508698 0
M  V30 22870 H 2124.94 2.26817 3.55151 0
M  V30 22871 H 2123.62 1.20474 3.00446 0
M  V30 22872 H 2122.52 3.23259 1.88294 0
M  V30 22873 H 2123.86 4.24314 2.49436 0
M  V30 22874 N 2125.51 -0.576345 1.46683 0
M  V30 22875 C 2126.44 -1.69505 1.60594 0
M  V30 22876 C 2127.42 -1.63873 0.456022 0
M  V30 22877 O 2128.6 -1.81791 0.683045 0
M  V30 22878 C 2125.73 -3.08148 1.60194 0
M  V30 22879 C 2124.69 -3.28615 2.7422 0
M  V30 22880 C 2124.01 -4.6785 2.58884 0
M  V30 22881 C 2125.31 -3.15834 4.15989 0
M  V30 22882 H 2127.01 -1.58119 2.54241 0
M  V30 22883 H 2124.55 -0.759271 1.22356 0
M  V30 22884 H 2126.51 -3.86237 1.68519 0
M  V30 22885 H 2125.23 -3.20447 0.630952 0
M  V30 22886 H 2123.89 -2.52927 2.65375 0
M  V30 22887 H 2123.54 -4.76923 1.59854 0
M  V30 22888 H 2123.24 -4.82495 3.35368 0
M  V30 22889 H 2124.76 -5.48099 2.69109 0
M  V30 22890 H 2126.18 -3.83761 4.25911 0
M  V30 22891 H 2124.57 -3.41998 4.9311 0
M  V30 22892 H 2125.64 -2.12828 4.35698 0
M  V30 22893 N 2126.99 -1.34495 -0.82151 0
M  V30 22894 C 2127.92 -1.22033 -1.94012 0
M  V30 22895 C 2128.93 -0.147079 -1.62134 0
M  V30 22896 O 2130.12 -0.399057 -1.73982 0
M  V30 22897 C 2127.22 -0.85311 -3.27987 0
M  V30 22898 C 2126.39 -2.02163 -3.87877 0
M  V30 22899 C 2125.45 -1.63259 -5.00233 0
M  V30 22900 O 2124.48 -2.34935 -5.18454 0
M  V30 22901 N 2125.68 -0.547563 -5.77912 0
M  V30 22902 H 2128.44 -2.18401 -2.05235 0
M  V30 22903 H 2126.01 -1.27469 -0.998165 0
M  V30 22904 H 2128 -0.574614 -4.006 0
M  V30 22905 H 2126.57 0.0204234 -3.12593 0
M  V30 22906 H 2125.79 -2.46478 -3.0764 0
M  V30 22907 H 2127.08 -2.80308 -4.24623 0
M  V30 22908 H 2126.47 0.0482732 -5.65679 0
M  V30 22909 H 2125.03 -0.328801 -6.5097 0
M  V30 22910 N 2128.46 1.04188 -1.18248 0
M  V30 22911 C 2129.88 1.58822 -0.981458 0
M  V30 22912 C 2130.23 1.90507 0.469187 0
M  V30 22913 O 2129.35 1.6942 1.34632 0
M  V30 22914 C 2129.95 2.88565 -1.77526 0
M  V30 22915 C 2128.51 3.3982 -1.61862 0
M  V30 22916 C 2127.65 2.13421 -1.77051 0
M  V30 22917 H 2130.6 0.868749 -1.3281 0
M  V30 22918 H 2130.62 3.58905 -1.26362 0
M  V30 22919 H 2130.14 2.65472 -2.83101 0
M  V30 22920 H 2128.24 3.67928 -0.588186 0
M  V30 22921 H 2128.35 4.13728 -2.4159 0
M  V30 22922 H 2126.71 2.24667 -1.19986 0
M  V30 22923 H 2127.5 1.92785 -2.84058 0
M  V30 22924 N 2129.94 0.98432 1.23081 0
M  V30 22925 C 2130.89 0.527474 2.24692 0
M  V30 22926 C 2131.86 -0.435706 1.60284 0
M  V30 22927 O 2133.04 -0.342378 1.87703 0
M  V30 22928 C 2130.18 -0.160141 3.44728 0
M  V30 22929 C 2129.3 0.843763 4.2368 0
M  V30 22930 C 2128.43 0.130552 5.3104 0
M  V30 22931 C 2127.47 1.1234 6.01703 0
M  V30 22932 N 2126.61 0.439082 7.00726 0
M  V30 22933 H 2131.45 1.39873 2.63134 0
M  V30 22934 H 2128.99 0.700815 1.29333 0
M  V30 22935 H 2130.94 -0.575649 4.1321 0
M  V30 22936 H 2129.57 -0.995239 3.07075 0
M  V30 22937 H 2128.63 1.37764 3.54578 0
M  V30 22938 H 2129.94 1.60017 4.72436 0
M  V30 22939 H 2129.09 -0.342123 6.05735 0
M  V30 22940 H 2127.83 -0.65843 4.83235 0
M  V30 22941 H 2126.84 1.60679 5.25797 0
M  V30 22942 H 2128.06 1.91311 6.51596 0
M  V30 22943 H 2126.01 -0.33062 6.55166 0
M  V30 22944 H 2125.92 1.13408 7.47445 0
M  V30 22945 H 2127.19 -0.0110751 7.79499 0
M  V30 22946 N 2131.42 -1.38259 0.756453 0
M  V30 22947 C 2132.65 -2.04038 0.324328 0
M  V30 22948 C 2133.06 -1.57176 -1.05321 0
M  V30 22949 O 2132.4 -0.741386 -1.68075 0
M  V30 22950 C 2132.46 -3.58472 0.271651 0
M  V30 22951 C 2132.13 -4.28403 1.59121 0
M  V30 22952 C 2133.12 -4.53578 2.54092 0
M  V30 22953 C 2130.81 -4.66536 1.86143 0
M  V30 22954 C 2132.8 -5.15923 3.74302 0
M  V30 22955 C 2130.49 -5.28605 3.06627 0
M  V30 22956 C 2131.49 -5.53233 4.00527 0
M  V30 22957 O 2131.18 -6.14009 5.18892 0
M  V30 22958 H 2130.91 -0.662169 0.136046 0
M  V30 22959 H 2133.46 -1.77878 1.02707 0
M  V30 22960 H 2131.69 -3.83617 -0.487352 0
M  V30 22961 H 2133.38 -4.05687 -0.131344 0
M  V30 22962 H 2134.15 -4.24545 2.34492 0
M  V30 22963 H 2130.03 -4.4671 1.1389 0
M  V30 22964 H 2133.57 -5.35063 4.47609 0
M  V30 22965 H 2129.47 -5.57061 3.26119 0
M  V30 22966 H 2130.24 -6.32495 5.19512 0
M  V30 22967 N 2132.9 -0.505757 -1.49264 0
M  V30 22968 C 2133.81 0.274574 -2.32988 0
M  V30 22969 C 2134.82 0.962724 -1.4494 0
M  V30 22970 O 2136 0.943054 -1.77956 0
M  V30 22971 C 2133.07 1.32231 -3.20493 0
M  V30 22972 C 2132.13 0.64709 -4.24395 0
M  V30 22973 C 2131.36 1.6449 -5.07719 0
M  V30 22974 O 2131.58 2.87523 -4.92632 0
M  V30 22975 O 2130.52 1.19761 -5.89865 0
M  V30 22976 H 2134.34 -0.410833 -3.00908 0
M  V30 22977 H 2131.93 -0.267017 -1.46994 0
M  V30 22978 H 2133.81 1.92838 -3.74689 0
M  V30 22979 H 2132.48 1.99056 -2.55262 0
M  V30 22980 H 2131.39 0.00115278 -3.741 0
M  V30 22981 H 2132.72 0.0212046 -4.92195 0
M  V30 22982 N 2134.38 1.55765 -0.239796 0
M  V30 22983 C 2135.65 1.90659 0.436876 0
M  V30 22984 C 2136.03 1.1596 1.76398 0
M  V30 22985 O 2135.38 0.274778 2.26842 0
M  V30 22986 C 2135.59 3.43593 0.611939 0
M  V30 22987 C 2136.94 4.1471 0.911065 0
M  V30 22988 O 2137.96 3.49293 0.698064 0
M  V30 22989 O 2136.82 5.30411 1.3163 0
M  V30 22990 H 2133.92 0.793348 0.233511 0
M  V30 22991 H 2136.46 1.67318 -0.283335 0
M  V30 22992 H 2135.23 3.89961 -0.323424 0
M  V30 22993 H 2134.86 3.72773 1.38296 0
M  V30 22994 N 2135.85 -0.0334016 1.57565 0
M  V30 22995 C 2136.8 -1.05382 2.07358 0
M  V30 22996 C 2137.8 -1.37713 0.986479 0
M  V30 22997 O 2139 -1.36669 1.17139 0
M  V30 22998 H 2135.38 -0.357353 0.661667 0
M  V30 22999 H 2137.35 -0.608016 2.9214 0
M  V30 23000 C 2136.1 -2.34757 2.56485 0
M  V30 23001 H 2135.42 -2.10738 3.39749 0
M  V30 23002 H 2136.86 -3.04512 2.9504 0
M  V30 23003 C 2135.32 -3.03419 1.46419 0
M  V30 23004 O 2135.85 -3.93075 0.827955 0
M  V30 23005 N 2134.06 -2.64676 1.19979 0
M  V30 23006 H 2133.6 -1.91854 1.71901 0
M  V30 23007 H 2133.56 -3.10935 0.465483 0
M  V30 23008 N 2137.33 -1.54609 -0.305591 0
M  V30 23009 C 2138.26 -1.88242 -1.38157 0
M  V30 23010 C 2139.24 -0.740883 -1.53117 0
M  V30 23011 O 2140.43 -0.996214 -1.66701 0
M  V30 23012 C 2137.56 -2.12567 -2.7465 0
M  V30 23013 C 2136.51 -3.28415 -2.74459 0
M  V30 23014 C 2135.84 -3.38148 -4.14198 0
M  V30 23015 C 2137.14 -4.65633 -2.36607 0
M  V30 23016 H 2138.83 -2.78359 -1.10258 0
M  V30 23017 H 2136.38 -1.33933 -0.528959 0
M  V30 23018 H 2138.33 -2.34681 -3.50004 0
M  V30 23019 H 2137.06 -1.19216 -3.04064 0
M  V30 23020 H 2135.71 -3.06217 -2.01561 0
M  V30 23021 H 2135.36 -2.42323 -4.40782 0
M  V30 23022 H 2135.06 -4.16019 -4.14973 0
M  V30 23023 H 2136.59 -3.62517 -4.91339 0
M  V30 23024 H 2138 -4.87508 -3.01677 0
M  V30 23025 H 2136.4 -5.46184 -2.48603 0
M  V30 23026 H 2137.47 -4.66662 -1.31738 0
M  V30 23027 N 2138.81 0.568558 -1.46987 0
M  V30 23028 C 2140.04 1.34995 -1.56397 0
M  V30 23029 C 2140.45 1.88042 -0.209042 0
M  V30 23030 O 2139.79 1.65068 0.806115 0
M  V30 23031 C 2139.85 2.56403 -2.51988 0
M  V30 23032 C 2139.52 2.24724 -3.9793 0
M  V30 23033 C 2140.51 1.82701 -4.86741 0
M  V30 23034 C 2138.2 2.36432 -4.43176 0
M  V30 23035 C 2140.19 1.52801 -6.18814 0
M  V30 23036 C 2137.88 2.06144 -5.75281 0
M  V30 23037 C 2138.88 1.64395 -6.6292 0
M  V30 23038 O 2138.57 1.34486 -7.92571 0
M  V30 23039 H 2138.3 0.418239 -0.531086 0
M  V30 23040 H 2140.85 0.696749 -1.93222 0
M  V30 23041 H 2139.08 3.24576 -2.10208 0
M  V30 23042 H 2140.77 3.18477 -2.51649 0
M  V30 23043 H 2141.54 1.73158 -4.53036 0
M  V30 23044 H 2137.42 2.67888 -3.75176 0
M  V30 23045 H 2140.96 1.20141 -6.87177 0
M  V30 23046 H 2136.86 2.15316 -6.0853 0
M  V30 23047 H 2137.63 1.48213 -8.04969 0
M  V30 23048 N 2140.29 1.34929 0.814366 0
M  V30 23049 C 2141.22 1.21559 1.93129 0
M  V30 23050 C 2142.2 0.105242 1.62259 0
M  V30 23051 O 2143.38 0.271939 1.86528 0
M  V30 23052 C 2140.51 0.869978 3.27336 0
M  V30 23053 C 2139.56 1.99128 3.77161 0
M  V30 23054 S 2140.39 3.60594 3.95894 0
M  V30 23055 C 2141.55 3.28094 5.33015 0
M  V30 23056 H 2141.78 2.16102 2.04175 0
M  V30 23057 H 2139.31 1.20055 0.970888 0
M  V30 23058 H 2141.27 0.677373 4.04873 0
M  V30 23059 H 2139.93 -0.0572578 3.14048 0
M  V30 23060 H 2139.12 1.70342 4.74341 0
M  V30 23061 H 2138.73 2.14182 3.06598 0
M  V30 23062 H 2141.02 2.80439 6.16733 0
M  V30 23063 H 2141.96 4.24446 5.66791 0
M  V30 23064 H 2142.37 2.64058 4.98932 0
M  V30 23065 N 2141.77 -1.0356 1.18799 0
M  V30 23066 C 2143 -1.80226 1.01006 0
M  V30 23067 C 2143.4 -1.83904 -0.444538 0
M  V30 23068 O 2142.75 -1.27698 -1.32056 0
M  V30 23069 C 2142.81 -3.26949 1.49481 0
M  V30 23070 C 2142.47 -3.46921 2.97481 0
M  V30 23071 C 2143.47 -3.37692 3.95297 0
M  V30 23072 C 2141.16 -3.73353 3.36025 0
M  V30 23073 C 2143.15 -3.54609 5.29652 0
M  V30 23074 C 2140.84 -3.89916 4.70541 0
M  V30 23075 C 2141.83 -3.80545 5.67164 0
M  V30 23076 O 2141.52 -3.96627 6.99244 0
M  V30 23077 H 2141.25 -0.574238 0.356688 0
M  V30 23078 H 2143.81 -1.31373 1.57894 0
M  V30 23079 H 2142.04 -3.76795 0.869635 0
M  V30 23080 H 2143.73 -3.85189 1.28001 0
M  V30 23081 H 2144.49 -3.1723 3.66865 0
M  V30 23082 H 2140.37 -3.79743 2.61374 0
M  V30 23083 H 2143.92 -3.47211 6.05054 0
M  V30 23084 H 2139.81 -4.09873 4.98672 0
M  V30 23085 H 2140.58 -4.13758 7.0622 0
M  V30 23086 N 2143.25 -0.990834 -1.22557 0
M  V30 23087 C 2144.18 -0.559304 -2.26703 0
M  V30 23088 C 2145.16 0.412782 -1.65016 0
M  V30 23089 O 2146.34 0.303868 -1.91808 0
M  V30 23090 C 2143.47 0.12888 -3.47061 0
M  V30 23091 C 2142.43 -0.76154 -4.2117 0
M  V30 23092 C 2141.75 0.0594442 -5.34667 0
M  V30 23093 C 2143.05 -2.0574 -4.80071 0
M  V30 23094 H 2144.75 -1.42983 -2.63052 0
M  V30 23095 H 2142.29 -0.68896 -1.26449 0
M  V30 23096 H 2144.24 0.44215 -4.19074 0
M  V30 23097 H 2142.97 1.03394 -3.09802 0
M  V30 23098 H 2141.63 -1.05842 -3.50989 0
M  V30 23099 H 2141.28 0.965355 -4.9365 0
M  V30 23100 H 2140.98 -0.533291 -5.85175 0
M  V30 23101 H 2142.5 0.366857 -6.09497 0
M  V30 23102 H 2143.91 -1.80821 -5.44037 0
M  V30 23103 H 2142.31 -2.59878 -5.4091 0
M  V30 23104 H 2143.38 -2.73748 -4.00237 0
M  V30 23105 N 2144.72 1.37856 -0.763775 0
M  V30 23106 C 2145.95 2.03864 -0.335144 0
M  V30 23107 C 2146.36 1.57732 1.04486 0
M  V30 23108 O 2145.7 0.750289 1.67679 0
M  V30 23109 C 2145.77 3.58323 -0.290657 0
M  V30 23110 C 2145.43 4.27554 -1.61391 0
M  V30 23111 C 2146.43 4.52225 -2.56494 0
M  V30 23112 C 2144.11 4.65542 -1.88615 0
M  V30 23113 C 2146.11 5.13931 -3.77033 0
M  V30 23114 C 2143.79 5.26971 -3.09426 0
M  V30 23115 C 2144.79 5.51102 -4.03455 0
M  V30 23116 O 2144.48 6.11248 -5.2214 0
M  V30 23117 H 2144.21 0.661438 -0.139556 0
M  V30 23118 H 2146.77 1.77331 -1.03648 0
M  V30 23119 H 2145 3.8387 0.467001 0
M  V30 23120 H 2146.68 4.05751 0.109828 0
M  V30 23121 H 2147.45 4.23296 -2.3674 0
M  V30 23122 H 2143.33 4.461 -1.16258 0
M  V30 23123 H 2146.87 5.32682 -4.5044 0
M  V30 23124 H 2142.77 5.55324 -3.29068 0
M  V30 23125 H 2143.54 6.29731 -5.22859 0
M  V30 23126 N 2146.2 0.513665 1.48994 0
M  V30 23127 C 2147.45 -0.0263341 2.02483 0
M  V30 23128 C 2147.78 -1.35817 1.39226 0
M  V30 23129 O 2147.03 -1.88621 0.5216 0
M  V30 23130 C 2147.33 -0.214329 3.56757 0
M  V30 23131 C 2147 1.0411 4.38716 0
M  V30 23132 C 2145.66 1.3852 4.60832 0
M  V30 23133 C 2148.01 1.87499 4.86306 0
M  V30 23134 C 2145.34 2.56248 5.27782 0
M  V30 23135 C 2147.69 3.04392 5.54553 0
M  V30 23136 C 2146.35 3.39167 5.7491 0
M  V30 23137 H 2145.62 -0.00963634 0.740937 0
M  V30 23138 H 2148.27 0.676388 1.79157 0
M  V30 23139 H 2146.58 -0.999685 3.78832 0
M  V30 23140 H 2148.27 -0.646802 3.95749 0
M  V30 23141 H 2144.86 0.763083 4.21752 0
M  V30 23142 H 2149.05 1.62228 4.69037 0
M  V30 23143 H 2144.3 2.83413 5.41744 0
M  V30 23144 H 2148.48 3.69325 5.904 0
M  V30 23145 H 2146.1 4.30492 6.26562 0
M  V30 23146 N 2147.68 -1.55636 0.248053 0
M  V30 23147 C 2148.93 -1.99266 -0.376927 0
M  V30 23148 C 2149.26 -1.13602 -1.57506 0
M  V30 23149 O 2148.53 -0.199686 -1.93472 0
M  V30 23150 C 2148.82 -3.51425 -0.785664 0
M  V30 23151 C 2148.67 -4.47854 0.417942 0
M  V30 23152 C 2149.99 -4.08714 -1.63221 0
M  V30 23153 H 2147.11 -0.724431 -0.135531 0
M  V30 23154 H 2149.75 -1.86756 0.349594 0
M  V30 23155 H 2147.9 -3.62216 -1.40469 0
M  V30 23156 H 2149.57 -4.49041 1.05638 0
M  V30 23157 H 2147.81 -4.20629 1.06084 0
M  V30 23158 H 2148.49 -5.51929 0.0886002 0
M  V30 23159 H 2150.96 -4.01031 -1.10966 0
M  V30 23160 H 2149.84 -5.15443 -1.88706 0
M  V30 23161 H 2150.1 -3.57242 -2.60443 0
M  V30 23162 N 2149.16 0.0250451 -1.5758 0
M  V30 23163 C 2150.41 0.714108 -1.88636 0
M  V30 23164 C 2150.72 1.76305 -0.847099 0
M  V30 23165 O 2151.93 2.50499 -1.04702 0
M  V30 23166 C 2150.38 1.3212 -3.34772 0
M  V30 23167 C 2149.99 0.308393 -4.46937 0
M  V30 23168 C 2151.73 1.98991 -3.74971 0
M  V30 23169 C 2149.64 0.924059 -5.84136 0
M  V30 23170 H 2148.57 0.270472 -0.703819 0
M  V30 23171 H 2151.22 -0.0313912 -1.83473 0
M  V30 23172 H 2149.6 2.11654 -3.34692 0
M  V30 23173 H 2150.78 -0.460527 -4.58493 0
M  V30 23174 H 2149.09 -0.258451 -4.15597 0
M  V30 23175 H 2151.69 2.45913 -4.74796 0
M  V30 23176 H 2152.03 2.8098 -3.07174 0
M  V30 23177 H 2152.57 1.26226 -3.77242 0
M  V30 23178 H 2149.3 0.143492 -6.55343 0
M  V30 23179 H 2148.82 1.66272 -5.76293 0
M  V30 23180 H 2150.5 1.4302 -6.30995 0
M  V30 23181 N 2150.64 1.54769 0.297388 0
M  V30 23182 C 2151.88 1.74221 1.03214 0
M  V30 23183 C 2152.21 0.529956 1.87141 0
M  V30 23184 O 2151.47 -0.488036 1.89517 0
M  V30 23185 C 2151.76 2.98592 1.96412 0
M  V30 23186 C 2151.43 4.32222 1.28433 0
M  V30 23187 C 2150.09 4.68546 1.09626 0
M  V30 23188 C 2152.44 5.15045 0.798634 0
M  V30 23189 C 2149.77 5.8527 0.409394 0
M  V30 23190 C 2152.12 6.32476 0.125474 0
M  V30 23191 C 2150.79 6.67458 -0.0745188 0
M  V30 23192 H 2150.06 0.637521 0.377688 0
M  V30 23193 H 2152.71 1.89028 0.306675 0
M  V30 23194 H 2151.01 2.78581 2.75499 0
M  V30 23195 H 2152.71 3.10837 2.5334 0
M  V30 23196 H 2149.3 4.03658 1.44078 0
M  V30 23197 H 2153.48 4.87477 0.931633 0
M  V30 23198 H 2148.74 6.10915 0.243492 0
M  V30 23199 H 2152.91 6.95919 -0.258751 0
M  V30 23200 H 2150.54 7.57759 -0.608755 0
M  V30 23201 N 2152.11 -0.560755 1.47286 0
M  V30 23202 C 2153.36 -1.31441 1.52991 0
M  V30 23203 C 2153.68 -1.94622 0.195307 0
M  V30 23204 O 2154.88 -2.71187 0.130315 0
M  V30 23205 C 2153.34 -2.38334 2.69676 0
M  V30 23206 C 2152.95 -1.81358 4.0965 0
M  V30 23207 C 2154.69 -3.14902 2.8467 0
M  V30 23208 C 2152.6 -2.8601 5.17641 0
M  V30 23209 H 2151.53 -0.49421 0.569449 0
M  V30 23210 H 2154.18 -0.595972 1.73552 0
M  V30 23211 H 2152.56 -3.13075 2.42487 0
M  V30 23212 H 2153.73 -1.13012 4.46727 0
M  V30 23213 H 2152.05 -1.17385 3.99512 0
M  V30 23214 H 2154.65 -3.93045 3.62518 0
M  V30 23215 H 2154.99 -3.68868 1.92983 0
M  V30 23216 H 2155.52 -2.47271 3.11612 0
M  V30 23217 H 2152.26 -2.36904 6.11193 0
M  V30 23218 H 2151.78 -3.52777 4.85086 0
M  V30 23219 H 2153.46 -3.49566 5.44438 0
M  V30 23220 N 2153.59 -1.35359 -0.807199 0
M  V30 23221 C 2154.84 -1.27934 -1.55935 0
M  V30 23222 C 2155.15 0.144469 -1.95066 0
M  V30 23223 O 2156.36 0.340989 -2.6935 0
M  V30 23224 C 2154.82 -2.24359 -2.81409 0
M  V30 23225 C 2154.42 -3.72081 -2.49519 0
M  V30 23226 C 2156.17 -2.25874 -3.59418 0
M  V30 23227 C 2154.07 -4.60331 -3.71281 0
M  V30 23228 H 2153 -0.475324 -0.585306 0
M  V30 23229 H 2155.66 -1.60619 -0.887342 0
M  V30 23230 H 2154.04 -1.84644 -3.50318 0
M  V30 23231 H 2155.21 -4.20427 -1.88621 0
M  V30 23232 H 2153.53 -3.73167 -1.84757 0
M  V30 23233 H 2156.12 -2.89024 -4.49855 0
M  V30 23234 H 2156.47 -1.26232 -3.967 0
M  V30 23235 H 2157 -2.64115 -2.9747 0
M  V30 23236 H 2153.74 -5.60969 -3.39107 0
M  V30 23237 H 2153.26 -4.16711 -4.31407 0
M  V30 23238 H 2154.94 -4.75723 -4.38516 0
M  V30 23239 N 2155.07 1.02928 -1.19346 0
M  V30 23240 C 2156.32 1.76321 -0.995848 0
M  V30 23241 C 2156.64 1.88651 0.473415 0
M  V30 23242 O 2155.9 1.39967 1.36776 0
M  V30 23243 C 2156.2 3.1911 -1.60946 0
M  V30 23244 C 2155.86 3.26788 -3.10677 0
M  V30 23245 C 2154.53 3.28591 -3.51541 0
M  V30 23246 C 2156.88 3.25968 -4.06687 0
M  V30 23247 C 2154.21 3.27229 -4.86968 0
M  V30 23248 C 2156.56 3.26146 -5.42044 0
M  V30 23249 C 2155.22 3.26247 -5.8234 0
M  V30 23250 H 2154.49 0.645204 -0.364407 0
M  V30 23251 H 2157.14 1.20811 -1.48584 0
M  V30 23252 H 2155.44 3.77696 -1.04177 0
M  V30 23253 H 2157.14 3.74565 -1.43185 0
M  V30 23254 H 2153.73 3.26113 -2.78116 0
M  V30 23255 H 2157.92 3.23756 -3.76159 0
M  V30 23256 H 2153.17 3.2563 -5.1747 0
M  V30 23257 H 2157.35 3.24462 -6.16196 0
M  V30 23258 H 2154.97 3.24945 -6.87252 0
M  V30 23259 N 2156.55 0.997319 1.2203 0
M  V30 23260 C 2157.8 0.674331 1.90518 0
M  V30 23261 C 2158.12 -0.796582 1.77988 0
M  V30 23262 O 2157.39 -1.57133 1.16988 0
M  V30 23263 H 2155.97 0.246427 0.705183 0
M  V30 23264 H 2158.63 1.26478 1.48288 0
M  V30 23265 H 2157.72 0.940744 2.97584 0
M  V30 23266 N 2158.03 -1.37449 0.771075 0
M  V30 23267 C 2159.25 -2.04506 0.345245 0
M  V30 23268 C 2159.68 -1.57774 -1.02415 0
M  V30 23269 O 2159.03 -0.737677 -1.65614 0
M  V30 23270 C 2159.08 -3.58411 0.396728 0
M  V30 23271 O 2158.19 -4.07967 -0.60306 0
M  V30 23272 H 2157.53 -0.64693 0.149593 0
M  V30 23273 H 2160.06 -1.75777 1.04708 0
M  V30 23274 H 2160.07 -4.0721 0.253784 0
M  V30 23275 H 2158.74 -3.9178 1.39576 0
M  V30 23276 H 2157.32 -3.7049 -0.423289 0
M  V30 23277 N 2159.5 -0.52156 -1.4872 0
M  V30 23278 C 2160.75 0.0155956 -2.02494 0
M  V30 23279 C 2161.08 1.35077 -1.39944 0
M  V30 23280 O 2160.33 1.88342 -0.531596 0
M  V30 23281 C 2160.63 0.195406 -3.56865 0
M  V30 23282 C 2160.3 -1.06435 -4.38158 0
M  V30 23283 C 2158.96 -1.40962 -4.6009 0
M  V30 23284 C 2161.31 -1.90076 -4.85305 0
M  V30 23285 C 2158.64 -2.59043 -5.26416 0
M  V30 23286 C 2160.99 -3.07328 -5.5293 0
M  V30 23287 C 2159.66 -3.42211 -5.73104 0
M  V30 23288 H 2158.93 0.00570684 -0.740978 0
M  V30 23289 H 2161.57 -0.68588 -1.78796 0
M  V30 23290 H 2159.88 0.979581 -3.79357 0
M  V30 23291 H 2161.58 0.625805 -3.96087 0
M  V30 23292 H 2158.17 -0.785439 -4.21342 0
M  V30 23293 H 2162.35 -1.64713 -4.6817 0
M  V30 23294 H 2157.61 -2.86282 -5.40234 0
M  V30 23295 H 2161.78 -3.72451 -5.88433 0
M  V30 23296 H 2159.41 -4.33809 -6.24271 0
M  V30 23297 N 2160.98 1.55502 -0.256304 0
M  V30 23298 C 2162.23 1.99168 0.365812 0
M  V30 23299 C 2162.56 1.14455 1.57259 0
M  V30 23300 O 2161.81 0.197615 1.947 0
M  V30 23301 C 2162.11 3.48098 0.810077 0
M  V30 23302 C 2161.78 4.49967 -0.289975 0
M  V30 23303 C 2160.44 4.77544 -0.592079 0
M  V30 23304 C 2162.79 5.10877 -1.03217 0
M  V30 23305 C 2160.12 5.63304 -1.64029 0
M  V30 23306 C 2162.47 5.97775 -2.06996 0
M  V30 23307 C 2161.14 6.23681 -2.37861 0
M  V30 23308 H 2160.41 0.728809 0.13386 0
M  V30 23309 H 2163.05 1.87968 -0.366092 0
M  V30 23310 H 2161.36 3.56679 1.62134 0
M  V30 23311 H 2163.05 3.79279 1.30186 0
M  V30 23312 H 2159.64 4.28577 -0.0443795 0
M  V30 23313 H 2163.83 4.89612 -0.812025 0
M  V30 23314 H 2159.08 5.81628 -1.88465 0
M  V30 23315 H 2163.26 6.44013 -2.64992 0
M  V30 23316 H 2160.89 6.89929 -3.19221 0
M  V30 23317 N 2162.46 -0.0166879 1.57591 0
M  V30 23318 C 2163.69 -0.716426 1.941 0
M  V30 23319 C 2164.1 -1.68225 0.857081 0
M  V30 23320 O 2163.46 -1.81748 -0.165469 0
M  V30 23321 C 2163.51 -1.46279 3.30583 0
M  V30 23322 O 2163.23 -0.535718 4.34812 0
M  V30 23323 C 2164.73 -2.25856 3.8145 0
M  V30 23324 H 2161.95 -0.200593 0.640315 0
M  V30 23325 H 2164.5 0.0294696 2.04479 0
M  V30 23326 H 2162.65 -2.16045 3.21564 0
M  V30 23327 H 2163.07 -1.06046 5.13668 0
M  V30 23328 H 2164.54 -2.73602 4.79423 0
M  V30 23329 H 2165.02 -3.07813 3.13285 0
M  V30 23330 H 2165.62 -1.61139 3.93592 0
M  V30 23331 N 2163.94 -1.54924 -0.289176 0
M  V30 23332 C 2164.87 -1.89696 -1.36153 0
M  V30 23333 C 2165.85 -0.757081 -1.52323 0
M  V30 23334 O 2167.03 -1.01384 -1.65635 0
M  V30 23335 C 2164.16 -2.15468 -2.7238 0
M  V30 23336 C 2163.12 -3.31307 -2.70961 0
M  V30 23337 C 2162.44 -3.42522 -4.10588 0
M  V30 23338 C 2163.74 -4.68117 -2.31655 0
M  V30 23339 H 2165.44 -2.79513 -1.07299 0
M  V30 23340 H 2162.98 -1.34486 -0.514723 0
M  V30 23341 H 2164.94 -2.3838 -3.47495 0
M  V30 23342 H 2163.66 -1.22435 -3.02783 0
M  V30 23343 H 2162.32 -3.08337 -1.98302 0
M  V30 23344 H 2161.97 -2.46985 -4.38187 0
M  V30 23345 H 2161.67 -4.20397 -4.10537 0
M  V30 23346 H 2163.19 -3.67708 -4.87466 0
M  V30 23347 H 2164.61 -4.9068 -2.96489 0
M  V30 23348 H 2163 -5.4879 -2.42796 0
M  V30 23349 H 2164.07 -4.68033 -1.26781 0
M  V30 23350 N 2165.42 0.552936 -1.47582 0
M  V30 23351 C 2166.36 1.68064 -1.60802 0
M  V30 23352 C 2167.36 1.62599 -0.475175 0
M  V30 23353 O 2168.56 1.67733 -0.653122 0
M  V30 23354 H 2164.94 0.556179 -0.506131 0
M  V30 23355 H 2166.91 1.54051 -2.5556 0
M  V30 23356 C 2165.66 3.06407 -1.64348 0
M  V30 23357 H 2164.98 3.11295 -2.50869 0
M  V30 23358 H 2166.42 3.8499 -1.77647 0
M  V30 23359 C 2164.88 3.34777 -0.377611 0
M  V30 23360 O 2165.41 3.98327 0.519466 0
M  V30 23361 N 2163.62 2.89467 -0.256324 0
M  V30 23362 H 2163.16 2.3793 -0.98727 0
M  V30 23363 H 2163.12 3.0882 0.589696 0
M  V30 23364 N 2166.89 1.35785 0.800009 0
M  V30 23365 C 2167.82 1.31917 1.92666 0
M  V30 23366 C 2168.81 0.19244 1.69008 0
M  V30 23367 O 2169.99 0.388435 1.90276 0
M  V30 23368 C 2167.12 1.09703 3.29519 0
M  V30 23369 C 2166.07 2.19086 3.67675 0
M  V30 23370 C 2165.4 1.82029 5.02762 0
M  V30 23371 C 2166.7 3.611 3.77365 0
M  V30 23372 H 2168.39 2.26189 1.96161 0
M  V30 23373 H 2165.94 1.08882 0.94237 0
M  V30 23374 H 2167.89 1.05634 4.07945 0
M  V30 23375 H 2166.62 0.118779 3.26384 0
M  V30 23376 H 2165.28 2.22263 2.91539 0
M  V30 23377 H 2164.92 0.828056 4.96137 0
M  V30 23378 H 2164.62 2.55256 5.29262 0
M  V30 23379 H 2166.15 1.79497 5.83621 0
M  V30 23380 H 2167.56 3.60209 4.46007 0
M  V30 23381 H 2165.96 4.33143 4.1534 0
M  V30 23382 H 2167.03 3.96774 2.78744 0
M  V30 23383 N 2168.37 -1.02294 1.19891 0
M  V30 23384 C 2169.62 -1.7579 1.00519 0
M  V30 23385 C 2169.95 -1.88899 -0.463403 0
M  V30 23386 O 2169.2 -1.4069 -1.36032 0
M  V30 23387 C 2169.5 -3.18252 1.62636 0
M  V30 23388 C 2169.17 -3.25136 3.12406 0
M  V30 23389 C 2167.83 -3.26722 3.53279 0
M  V30 23390 C 2170.18 -3.23806 4.0841 0
M  V30 23391 C 2167.51 -3.24642 4.88697 0
M  V30 23392 C 2169.86 -3.23267 5.43766 0
M  V30 23393 C 2168.53 -3.23154 5.84061 0
M  V30 23394 H 2167.8 -0.643263 0.367823 0
M  V30 23395 H 2170.44 -1.20021 1.49222 0
M  V30 23396 H 2168.75 -3.77138 1.06178 0
M  V30 23397 H 2170.44 -3.738 1.4517 0
M  V30 23398 H 2167.03 -3.24633 2.79841 0
M  V30 23399 H 2171.22 -3.21757 3.77871 0
M  V30 23400 H 2166.47 -3.22881 5.19189 0
M  V30 23401 H 2170.65 -3.2119 6.17908 0
M  V30 23402 H 2168.28 -3.21296 6.88965 0
M  V30 23403 N 2169.85 -1.00378 -1.21499 0
M  V30 23404 C 2171.1 -0.681173 -1.8985 0
M  V30 23405 C 2171.41 0.791343 -1.78877 0
M  V30 23406 O 2172.62 1.22598 -2.42244 0
M  V30 23407 C 2171.07 -1.1679 -3.40424 0
M  V30 23408 C 2170.68 -2.6664 -3.6001 0
M  V30 23409 C 2172.43 -0.920124 -4.14408 0
M  V30 23410 C 2170.33 -3.0886 -5.04341 0
M  V30 23411 H 2169.26 -0.251086 -0.710965 0
M  V30 23412 H 2171.91 -1.21478 -1.37533 0
M  V30 23413 H 2170.3 -0.562349 -3.91987 0
M  V30 23414 H 2171.47 -3.32634 -3.18891 0
M  V30 23415 H 2169.79 -2.89419 -2.99376 0
M  V30 23416 H 2172.38 -1.21113 -5.20803 0
M  V30 23417 H 2172.73 0.143641 -4.16052 0
M  V30 23418 H 2173.26 -1.4884 -3.68906 0
M  V30 23419 H 2170 -4.14458 -5.07844 0
M  V30 23420 H 2169.52 -2.47577 -5.4632 0
M  V30 23421 H 2171.2 -3.00772 -5.7284 0
M  V30 23422 N 2171.33 1.37038 -0.778354 0
M  V30 23423 C 2172.58 1.99134 -0.344995 0
M  V30 23424 C 2172.9 1.62093 1.08402 0
M  V30 23425 O 2172.17 0.889547 1.74539 0
M  V30 23426 H 2170.75 0.73654 -0.124572 0
M  V30 23427 H 2173.41 1.67413 -0.997945 0
M  V30 23428 H 2172.51 3.09152 -0.427927 0
M  V30 23429 N 2172.81 0.529439 1.48441 0
M  V30 23430 C 2174.05 -0.00486384 2.02799 0
M  V30 23431 C 2174.39 -1.33985 1.40576 0
M  V30 23432 O 2173.66 -1.86523 0.551326 0
M  V30 23433 C 2173.94 -0.127443 3.59874 0
M  V30 23434 C 2173.8 1.23268 4.3258 0
M  V30 23435 C 2175.12 -0.854486 4.31725 0
M  V30 23436 H 2172.24 -0.00029358 0.737 0
M  V30 23437 H 2174.88 0.686364 1.7717 0
M  V30 23438 H 2173.03 -0.716153 3.81842 0
M  V30 23439 H 2174.7 1.86245 4.22031 0
M  V30 23440 H 2172.94 1.8147 3.94019 0
M  V30 23441 H 2173.61 1.09991 5.40931 0
M  V30 23442 H 2176.09 -0.354911 4.14584 0
M  V30 23443 H 2174.97 -0.909151 5.41318 0
M  V30 23444 H 2175.23 -1.90464 3.98968 0
M  V30 23445 N 2174.29 -1.55364 0.264547 0
M  V30 23446 C 2175.53 -1.98537 -0.355827 0
M  V30 23447 C 2175.85 -1.15624 -1.57767 0
M  V30 23448 O 2177.05 -1.48892 -2.27032 0
M  V30 23449 C 2175.51 -3.53332 -0.684446 0
M  V30 23450 C 2175.12 -4.45007 0.516993 0
M  V30 23451 C 2176.86 -4.05119 -1.26803 0
M  V30 23452 C 2174.77 -5.91174 0.163548 0
M  V30 23453 H 2173.7 -0.7415 -0.136725 0
M  V30 23454 H 2176.35 -1.79782 0.367539 0
M  V30 23455 H 2174.73 -3.67848 -1.46643 0
M  V30 23456 H 2175.91 -4.42256 1.29406 0
M  V30 23457 H 2174.22 -4.03797 1.0167 0
M  V30 23458 H 2176.82 -5.11859 -1.5461 0
M  V30 23459 H 2177.16 -3.53519 -2.19841 0
M  V30 23460 H 2177.69 -3.93999 -0.548571 0
M  V30 23461 H 2174.43 -6.46848 1.06153 0
M  V30 23462 H 2173.95 -5.97019 -0.576966 0
M  V30 23463 H 2175.63 -6.46524 -0.248012 0
M  V30 23464 N 2175.76 0.00833021 -1.57598 0
M  V30 23465 C 2177.01 0.69406 -1.89382 0
M  V30 23466 C 2177.33 1.75397 -0.865751 0
M  V30 23467 O 2178.53 2.49374 -1.07353 0
M  V30 23468 C 2176.99 1.28562 -3.36154 0
M  V30 23469 C 2176.6 0.260972 -4.47239 0
M  V30 23470 C 2178.34 1.95003 -3.7706 0
M  V30 23471 C 2176.25 0.862051 -5.85083 0
M  V30 23472 H 2175.18 0.262992 -0.706648 0
M  V30 23473 H 2177.83 -0.0508492 -1.8343 0
M  V30 23474 H 2176.21 2.08092 -3.36918 0
M  V30 23475 H 2177.38 -0.50913 -4.57979 0
M  V30 23476 H 2175.7 -0.302516 -4.153 0
M  V30 23477 H 2178.3 2.40863 -4.77377 0
M  V30 23478 H 2178.64 2.77706 -3.10137 0
M  V30 23479 H 2179.17 1.22218 -3.7856 0
M  V30 23480 H 2175.91 0.0739761 -6.55458 0
M  V30 23481 H 2175.43 1.60151 -5.78024 0
M  V30 23482 H 2177.11 1.3632 -6.32476 0
M  V30 23483 N 2177.24 1.55075 0.280956 0
M  V30 23484 C 2178.52 1.6601 1.0344 0
M  V30 23485 C 2178.9 0.521384 2.0456 0
M  V30 23486 O 2178.25 -0.479533 2.23412 0
M  V30 23487 C 2178.46 3.04889 1.69834 0
M  V30 23488 C 2179.8 3.62374 2.21292 0
M  V30 23489 O 2180.83 3.07471 1.79834 0
M  V30 23490 O 2179.69 4.5855 2.97311 0
M  V30 23491 H 2176.78 0.673927 0.479324 0
M  V30 23492 H 2179.33 1.67417 0.277446 0
M  V30 23493 H 2178.1 3.7921 0.96517 0
M  V30 23494 H 2177.72 3.07347 2.52237 0
M  V30 23495 N 2178.72 -0.545102 1.47873 0
M  V30 23496 C 2179.67 -1.67209 1.61691 0
M  V30 23497 C 2180.66 -1.62345 0.483792 0
M  V30 23498 O 2181.87 -1.67384 0.662009 0
M  V30 23499 H 2178.24 -0.553487 0.509073 0
M  V30 23500 H 2180.21 -1.52694 2.56373 0
M  V30 23501 C 2178.96 -3.05531 1.65971 0
M  V30 23502 H 2178.29 -3.09961 2.52516 0
M  V30 23503 H 2179.73 -3.84043 1.79686 0
M  V30 23504 C 2178.18 -3.34572 0.39536 0
M  V30 23505 O 2178.71 -3.98597 -0.498334 0
M  V30 23506 N 2176.92 -2.89327 0.271672 0
M  V30 23507 H 2176.47 -2.37403 0.999874 0
M  V30 23508 H 2176.43 -3.09129 -0.573311 0
M  V30 23509 N 2180.2 -1.36208 -0.792797 0
M  V30 23510 C 2181.44 -1.30249 -1.55053 0
M  V30 23511 C 2181.77 0.119193 -1.94134 0
M  V30 23512 O 2181.03 1.08769 -1.62689 0
M  V30 23513 C 2181.33 -2.16771 -2.84157 0
M  V30 23514 C 2180.99 -3.65368 -2.64229 0
M  V30 23515 C 2179.65 -4.0587 -2.58502 0
M  V30 23516 C 2182.01 -4.59598 -2.45804 0
M  V30 23517 C 2179.33 -5.38747 -2.32312 0
M  V30 23518 C 2181.69 -5.92688 -2.21141 0
M  V30 23519 C 2180.35 -6.32318 -2.13845 0
M  V30 23520 H 2179.62 -0.476617 -0.567378 0
M  V30 23521 H 2182.27 -1.6823 -0.914933 0
M  V30 23522 H 2180.57 -1.71716 -3.52166 0
M  V30 23523 H 2182.27 -2.09488 -3.41929 0
M  V30 23524 H 2178.86 -3.33236 -2.6954 0
M  V30 23525 H 2183.04 -4.29182 -2.49231 0
M  V30 23526 H 2178.3 -5.68437 -2.25143 0
M  V30 23527 H 2182.47 -6.65272 -2.05878 0
M  V30 23528 H 2180.1 -7.3521 -1.93314 0
M  V30 23529 N 2181.68 1.01656 -1.20431 0
M  V30 23530 C 2182.62 2.12315 -0.950014 0
M  V30 23531 C 2183.62 1.69113 0.0986435 0
M  V30 23532 O 2184.82 1.79926 -0.0517176 0
M  V30 23533 H 2181.2 0.69388 -0.289886 0
M  V30 23534 H 2183.17 2.30948 -1.8896 0
M  V30 23535 C 2181.92 3.43809 -0.518689 0
M  V30 23536 H 2181.24 3.77478 -1.3172 0
M  V30 23537 H 2182.68 4.22294 -0.37997 0
M  V30 23538 C 2181.14 3.28008 0.768922 0
M  V30 23539 O 2181.67 3.5773 1.82735 0
M  V30 23540 N 2179.88 2.81257 0.730955 0
M  V30 23541 H 2179.42 2.57269 -0.13064 0
M  V30 23542 H 2179.38 2.71065 1.59282 0
M  V30 23543 N 2183.15 1.01021 1.20965 0
M  V30 23544 C 2184.09 0.533213 2.22911 0
M  V30 23545 C 2185.1 -0.38098 1.58279 0
M  V30 23546 O 2186.29 -0.180348 1.77587 0
M  V30 23547 C 2183.39 -0.244499 3.38017 0
M  V30 23548 C 2182.56 0.670039 4.32237 0
M  V30 23549 C 2181.62 -0.0589738 5.26167 0
M  V30 23550 O 2180.65 0.561411 5.66425 0
M  V30 23551 N 2181.85 -1.33588 5.6492 0
M  V30 23552 H 2184.61 1.40992 2.64464 0
M  V30 23553 H 2182.17 0.886969 1.35442 0
M  V30 23554 H 2184.17 -0.74128 3.97853 0
M  V30 23555 H 2182.74 -1.02244 2.95406 0
M  V30 23556 H 2181.96 1.34723 3.70464 0
M  V30 23557 H 2183.24 1.29225 4.92116 0
M  V30 23558 H 2182.64 -1.86096 5.34214 0
M  V30 23559 H 2181.2 -1.77752 6.27095 0
M  V30 23560 N 2184.63 -1.36623 0.78561 0
M  V30 23561 C 2185.56 -2.28776 0.139379 0
M  V30 23562 C 2186.58 -1.49297 -0.649162 0
M  V30 23563 O 2187.77 -1.71786 -0.484971 0
M  V30 23564 C 2184.87 -3.28685 -0.825808 0
M  V30 23565 C 2184.04 -4.37311 -0.0881363 0
M  V30 23566 C 2183.1 -5.17206 -0.96871 0
M  V30 23567 O 2182.12 -5.67593 -0.427359 0
M  V30 23568 N 2183.33 -5.33275 -2.29342 0
M  V30 23569 H 2186.09 -2.84875 0.930938 0
M  V30 23570 H 2183.65 -1.48748 0.639179 0
M  V30 23571 H 2185.64 -3.7902 -1.41865 0
M  V30 23572 H 2184.21 -2.73254 -1.51826 0
M  V30 23573 H 2183.43 -3.8819 0.685747 0
M  V30 23574 H 2184.72 -5.07055 0.421052 0
M  V30 23575 H 2184.12 -4.93946 -2.75743 0
M  V30 23576 H 2182.68 -5.86868 -2.83599 0
M  V30 23577 N 2186.11 -0.537304 -1.48158 0
M  V30 23578 C 2187.06 0.221446 -2.29735 0
M  V30 23579 C 2188.03 0.927005 -1.37825 0
M  V30 23580 O 2189.21 0.926601 -1.6679 0
M  V30 23581 C 2186.35 1.25789 -3.21358 0
M  V30 23582 C 2185.46 0.560427 -4.28349 0
M  V30 23583 C 2184.6 1.58043 -5.07145 0
M  V30 23584 C 2183.64 0.86684 -6.05931 0
M  V30 23585 N 2182.78 1.83273 -6.77758 0
M  V30 23586 H 2187.62 -0.480372 -2.94103 0
M  V30 23587 H 2185.15 -0.248729 -1.44982 0
M  V30 23588 H 2187.11 1.87117 -3.72885 0
M  V30 23589 H 2185.74 1.92799 -2.58898 0
M  V30 23590 H 2184.79 -0.166961 -3.80033 0
M  V30 23591 H 2186.1 0.000474239 -4.988 0
M  V30 23592 H 2185.26 2.2678 -5.62722 0
M  V30 23593 H 2184 2.17429 -4.3655 0
M  V30 23594 H 2183 0.165438 -5.49551 0
M  V30 23595 H 2184.23 0.278998 -6.78527 0
M  V30 23596 H 2182.17 2.41553 -6.09908 0
M  V30 23597 H 2182.09 1.32441 -7.44309 0
M  V30 23598 H 2183.36 2.51186 -7.3792 0
M  V30 23599 N 2187.59 1.55221 -0.272782 0
M  V30 23600 C 2188.54 2.22436 0.615702 0
M  V30 23601 C 2189.51 1.19702 1.15155 0
M  V30 23602 O 2190.69 1.48236 1.20128 0
M  V30 23603 C 2187.83 2.94739 1.79507 0
M  V30 23604 C 2186.94 4.12186 1.2933 0
M  V30 23605 C 2186.08 4.7214 2.43429 0
M  V30 23606 C 2185.12 5.81785 1.90243 0
M  V30 23607 N 2184.25 6.35811 2.97806 0
M  V30 23608 H 2189.09 2.97978 0.0358746 0
M  V30 23609 H 2186.63 1.47099 0.00594098 0
M  V30 23610 H 2188.59 3.34874 2.48828 0
M  V30 23611 H 2187.22 2.21624 2.34697 0
M  V30 23612 H 2186.27 3.77188 0.493274 0
M  V30 23613 H 2187.58 4.91265 0.86373 0
M  V30 23614 H 2186.74 5.14982 3.20747 0
M  V30 23615 H 2185.48 3.92333 2.897 0
M  V30 23616 H 2184.48 5.38395 1.11404 0
M  V30 23617 H 2185.71 6.63459 1.4491 0
M  V30 23618 H 2183.65 5.589 3.43464 0
M  V30 23619 H 2183.57 7.10156 2.59258 0
M  V30 23620 H 2184.84 6.83312 3.75106 0
M  V30 23621 N 2189.07 2.77022e-05 1.576 0
M  V30 23622 C 2190.01 -0.991376 2.08424 0
M  V30 23623 C 2190.98 -1.34134 0.979661 0
M  V30 23624 O 2192.17 -1.4397 1.25209 0
M  V30 23625 C 2189.31 -2.27808 2.59224 0
M  V30 23626 C 2188.42 -1.98715 3.83584 0
M  V30 23627 C 2187.56 -3.21468 4.22885 0
M  V30 23628 C 2186.6 -2.88061 5.40081 0
M  V30 23629 N 2185.73 -4.0335 5.74676 0
M  V30 23630 H 2190.57 -0.551038 2.92861 0
M  V30 23631 H 2188.11 -0.260432 1.44776 0
M  V30 23632 H 2190.07 -3.03029 2.86756 0
M  V30 23633 H 2188.7 -2.69511 1.77661 0
M  V30 23634 H 2187.75 -1.13862 3.62959 0
M  V30 23635 H 2189.06 -1.70092 4.68903 0
M  V30 23636 H 2188.22 -4.05034 4.517 0
M  V30 23637 H 2186.95 -3.53229 3.36275 0
M  V30 23638 H 2185.96 -2.02902 5.1099 0
M  V30 23639 H 2187.18 -2.57547 6.28368 0
M  V30 23640 H 2185.13 -4.35008 4.91023 0
M  V30 23641 H 2185.05 -3.78251 6.5457 0
M  V30 23642 H 2186.32 -4.87705 6.08082 0
M  V30 23643 N 2190.54 -1.55222 -0.272728 0
M  V30 23644 C 2191.79 -1.75841 -1.00429 0
M  V30 23645 C 2192.12 -0.559662 -1.86274 0
M  V30 23646 O 2191.37 0.457824 -1.90269 0
M  V30 23647 C 2191.67 -3.01679 -1.91637 0
M  V30 23648 C 2191.34 -4.34211 -1.2154 0
M  V30 23649 C 2190 -4.70231 -1.02158 0
M  V30 23650 C 2192.35 -5.1625 -0.716594 0
M  V30 23651 C 2189.68 -5.85847 -0.316231 0
M  V30 23652 C 2192.03 -6.32595 -0.0248364 0
M  V30 23653 C 2190.7 -6.67255 0.180696 0
M  V30 23654 H 2189.97 -0.643449 -0.367497 0
M  V30 23655 H 2192.61 -1.89492 -0.276563 0
M  V30 23656 H 2190.92 -2.82929 -2.71032 0
M  V30 23657 H 2192.62 -3.14828 -2.48363 0
M  V30 23658 H 2189.21 -4.05899 -1.37638 0
M  V30 23659 H 2193.39 -4.88898 -0.853961 0
M  V30 23660 H 2188.65 -6.11225 -0.14627 0
M  V30 23661 H 2192.82 -6.95419 0.369433 0
M  V30 23662 H 2190.45 -7.56694 0.729231 0
M  V30 23663 N 2192.02 0.537252 -1.4816 0
M  V30 23664 C 2193.27 1.29091 -1.55499 0
M  V30 23665 C 2193.59 1.93669 -0.227488 0
M  V30 23666 O 2192.86 1.8096 0.750354 0
M  V30 23667 H 2191.44 0.47944 -0.572841 0
M  V30 23668 H 2194.1 0.625785 -1.8458 0
M  V30 23669 H 2193.2 2.07401 -2.33219 0
M  V30 23670 N 2193.5 1.36626 0.785562 0
M  V30 23671 C 2194.75 1.30811 1.54055 0
M  V30 23672 C 2195.07 -0.111123 1.94683 0
M  V30 23673 O 2194.34 -1.05221 1.65243 0
M  V30 23674 H 2192.92 0.481221 0.571345 0
M  V30 23675 H 2195.58 1.70965 0.935791 0
M  V30 23676 H 2194.68 1.93806 2.44634 0
M  V30 23677 N 2194.98 -1.01016 1.20969 0
M  V30 23678 C 2195.91 -2.09833 0.922096 0
M  V30 23679 C 2196.92 -1.62536 -0.092682 0
M  V30 23680 O 2198.11 -1.77957 0.139159 0
M  V30 23681 C 2195.21 -3.3696 0.362064 0
M  V30 23682 C 2194.39 -4.13366 1.42993 0
M  V30 23683 C 2193.44 -5.18788 0.880067 0
M  V30 23684 O 2192.47 -5.4734 1.56229 0
M  V30 23685 N 2193.67 -5.79686 -0.307294 0
M  V30 23686 H 2196.44 -2.3509 1.85884 0
M  V30 23687 H 2194 -1.17458 1.11424 0
M  V30 23688 H 2195.99 -4.04695 -0.0200762 0
M  V30 23689 H 2194.56 -3.08902 -0.479382 0
M  V30 23690 H 2193.78 -3.40509 1.98614 0
M  V30 23691 H 2195.07 -4.61192 2.14893 0
M  V30 23692 H 2194.47 -5.58834 -0.878698 0
M  V30 23693 H 2193.02 -6.48738 -0.631001 0
M  V30 23694 N 2196.46 -1.01661 -1.20428 0
M  V30 23695 C 2197.73 -0.621037 -1.85479 0
M  V30 23696 C 2198.11 0.900885 -1.90912 0
M  V30 23697 O 2197.46 1.7926 -1.41697 0
M  V30 23698 C 2197.67 -1.26885 -3.25117 0
M  V30 23699 C 2199.02 -1.3843 -4.014 0
M  V30 23700 O 2200.04 -1.22507 -3.34471 0
M  V30 23701 O 2198.9 -1.6416 -5.21262 0
M  V30 23702 H 2196 -0.21428 -0.798757 0
M  V30 23703 H 2198.54 -1.11399 -1.28017 0
M  V30 23704 H 2197.31 -2.30879 -3.15928 0
M  V30 23705 H 2196.94 -0.762986 -3.90211 0
M  V30 23706 N 2197.93 1.36205 -0.792844 0
M  V30 23707 C 2199.18 1.984 -0.363388 0
M  V30 23708 C 2199.5 1.63628 1.07169 0
M  V30 23709 O 2200.7 2.19083 1.60358 0
M  V30 23710 C 2199.16 3.54884 -0.598782 0
M  V30 23711 C 2198.77 3.98577 -2.0455 0
M  V30 23712 C 2200.51 4.23855 -0.234001 0
M  V30 23713 C 2198.42 5.47852 -2.22737 0
M  V30 23714 H 2197.35 0.742332 -0.132133 0
M  V30 23715 H 2200 1.55457 -0.974963 0
M  V30 23716 H 2198.38 3.95914 0.0825526 0
M  V30 23717 H 2199.55 3.68737 -2.76351 0
M  V30 23718 H 2197.87 3.42454 -2.36885 0
M  V30 23719 H 2200.47 5.33566 -0.348121 0
M  V30 23720 H 2200.81 4.08179 0.818279 0
M  V30 23721 H 2201.34 3.88199 -0.868707 0
M  V30 23722 H 2198.08 5.6848 -3.2636 0
M  V30 23723 H 2197.6 5.79308 -1.55444 0
M  V30 23724 H 2199.28 6.14124 -2.03618 0
M  V30 23725 N 2199.41 0.545154 1.47871 0
M  V30 23726 C 2200.66 0.0166214 2.02493 0
M  V30 23727 C 2200.99 -1.32834 1.42076 0
M  V30 23728 O 2200.24 -1.87472 0.561492 0
M  V30 23729 C 2200.54 -0.138607 3.57131 0
M  V30 23730 C 2200.21 1.13392 4.36409 0
M  V30 23731 C 2198.87 1.48264 4.5779 0
M  V30 23732 C 2201.22 1.97772 4.82219 0
M  V30 23733 C 2198.55 2.67385 5.22228 0
M  V30 23734 C 2200.9 3.16086 5.47971 0
M  V30 23735 C 2199.57 3.51285 5.67587 0
M  V30 23736 H 2198.84 0.0060822 0.740975 0
M  V30 23737 H 2201.48 0.714238 1.77682 0
M  V30 23738 H 2199.79 -0.919105 3.80867 0
M  V30 23739 H 2201.48 -0.562712 3.97032 0
M  V30 23740 H 2198.07 0.852371 4.20039 0
M  V30 23741 H 2202.26 1.72141 4.6549 0
M  V30 23742 H 2197.51 2.94841 5.35611 0
M  V30 23743 H 2201.69 3.81765 5.82433 0
M  V30 23744 H 2199.32 4.43686 6.1729 0
M  V30 23745 N 2200.89 -1.55074 0.28101 0
M  V30 23746 C 2201.82 -2.18883 -0.645401 0
M  V30 23747 C 2202.8 -1.15167 -1.14784 0
M  V30 23748 O 2203.99 -1.43718 -1.21973 0
M  V30 23749 C 2201.11 -2.81678 -1.88083 0
M  V30 23750 C 2200.16 -3.98748 -1.51336 0
M  V30 23751 S 2200.99 -5.32279 -0.586455 0
M  V30 23752 C 2202.15 -5.98546 -1.83013 0
M  V30 23753 H 2202.38 -2.97121 -0.103248 0
M  V30 23754 H 2199.91 -1.54262 0.065237 0
M  V30 23755 H 2201.87 -3.18486 -2.58992 0
M  V30 23756 H 2200.53 -2.03323 -2.39413 0
M  V30 23757 H 2199.73 -4.41396 -2.43281 0
M  V30 23758 H 2199.33 -3.63393 -0.884413 0
M  V30 23759 H 2201.62 -6.18137 -2.77331 0
M  V30 23760 H 2202.56 -6.93167 -1.44656 0
M  V30 23761 H 2202.97 -5.27968 -1.99775 0
M  V30 23762 N 2202.37 -0.00838561 -1.57598 0
M  V30 23763 C 2203.6 0.685456 -1.95216 0
M  V30 23764 C 2204.01 1.6684 -0.883736 0
M  V30 23765 O 2203.37 1.81989 0.136533 0
M  V30 23766 C 2203.42 1.41001 -3.32868 0
M  V30 23767 O 2203.14 0.466475 -4.35609 0
M  V30 23768 C 2204.64 2.19759 -3.84995 0
M  V30 23769 H 2201.86 0.190381 -0.643425 0
M  V30 23770 H 2204.41 -0.0619966 -2.04406 0
M  V30 23771 H 2202.56 2.10902 -3.2496 0
M  V30 23772 H 2202.98 0.978608 -5.1529 0
M  V30 23773 H 2204.45 2.6594 -4.83715 0
M  V30 23774 H 2204.93 3.0279 -3.18142 0
M  V30 23775 H 2205.53 1.54857 -3.96105 0
M  V30 23776 N 2203.85 1.55365 0.264492 0
M  V30 23777 C 2204.76 1.91936 1.34899 0
M  V30 23778 C 2205.77 0.81762 1.53594 0
M  V30 23779 O 2206.95 1.11745 1.67556 0
M  V30 23780 C 2204.01 2.19126 2.68672 0
M  V30 23781 C 2203.08 3.42634 2.58651 0
M  V30 23782 C 2202.31 3.68517 3.86045 0
M  V30 23783 O 2202.53 2.96765 4.87121 0
M  V30 23784 O 2201.47 4.62051 3.85736 0
M  V30 23785 H 2205.29 2.84272 1.06878 0
M  V30 23786 H 2202.88 1.4202 0.46375 0
M  V30 23787 H 2204.76 2.38001 3.47755 0
M  V30 23788 H 2203.43 1.29971 2.96461 0
M  V30 23789 H 2202.34 3.29086 1.77914 0
M  V30 23790 H 2203.67 4.32035 2.3581 0
M  V30 23791 N 2205.33 -0.529387 1.48443 0
M  V30 23792 C 2206.24 -1.66081 1.65693 0
M  V30 23793 C 2207.25 -1.65426 0.539461 0
M  V30 23794 O 2208.43 -1.84367 0.810605 0
M  V30 23795 C 2205.49 -3.02542 1.69321 0
M  V30 23796 C 2204.55 -3.14047 2.927 0
M  V30 23797 C 2203.79 -4.43998 2.96144 0
M  V30 23798 O 2204.01 -5.31131 2.07982 0
M  V30 23799 O 2202.94 -4.59881 3.8832 0
M  V30 23800 H 2206.77 -1.54464 2.61485 0
M  V30 23801 H 2204.35 -0.702544 1.31851 0
M  V30 23802 H 2206.24 -3.83698 1.74224 0
M  V30 23803 H 2204.91 -3.14481 0.767022 0
M  V30 23804 H 2203.82 -2.32184 2.93328 0
M  V30 23805 H 2205.15 -3.07023 3.84704 0
M  V30 23806 N 2206.8 -1.37041 -0.778305 0
M  V30 23807 C 2207.74 -1.28143 -1.90032 0
M  V30 23808 C 2208.75 -0.198586 -1.61584 0
M  V30 23809 O 2209.94 -0.454206 -1.72625 0
M  V30 23810 C 2207.04 -0.957025 -3.25107 0
M  V30 23811 C 2206.21 -2.14401 -3.81249 0
M  V30 23812 C 2205.27 -1.79091 -4.94786 0
M  V30 23813 O 2204.3 -2.5131 -5.10717 0
M  V30 23814 N 2205.5 -0.731144 -5.75877 0
M  V30 23815 H 2208.26 -2.24819 -1.98183 0
M  V30 23816 H 2205.82 -1.3058 -0.957106 0
M  V30 23817 H 2207.82 -0.701771 -3.98569 0
M  V30 23818 H 2206.39 -0.0790361 -3.125 0
M  V30 23819 H 2205.61 -2.56141 -2.99642 0
M  V30 23820 H 2206.89 -2.93675 -4.1549 0
M  V30 23821 H 2206.29 -0.131718 -5.65547 0
M  V30 23822 H 2204.85 -0.535736 -6.49595 0
M  V30 23823 N 2208.28 1.00373 -1.21503 0
M  V30 23824 C 2209.23 2.09175 -0.975424 0
M  V30 23825 C 2210.2 1.65805 0.0990324 0
M  V30 23826 O 2211.38 1.90739 -0.0483483 0
M  V30 23827 C 2208.52 3.40728 -0.547567 0
M  V30 23828 C 2207.64 3.97503 -1.6916 0
M  V30 23829 C 2206.77 5.1717 -1.21279 0
M  V30 23830 C 2205.81 5.66057 -2.32907 0
M  V30 23831 N 2204.95 6.76973 -1.8615 0
M  V30 23832 H 2209.79 2.29005 -1.90684 0
M  V30 23833 H 2207.32 1.12286 -0.950277 0
M  V30 23834 H 2209.28 4.16254 -0.280741 0
M  V30 23835 H 2207.91 3.20931 0.346848 0
M  V30 23836 H 2206.96 3.18951 -2.07303 0
M  V30 23837 H 2208.28 4.29776 -2.53167 0
M  V30 23838 H 2207.43 5.99947 -0.902697 0
M  V30 23839 H 2206.17 4.86494 -0.342777 0
M  V30 23840 H 2205.17 4.81876 -2.64718 0
M  V30 23841 H 2206.4 5.98763 -3.20406 0
M  V30 23842 H 2204.35 6.48101 -1.01495 0
M  V30 23843 H 2204.26 7.08507 -2.6373 0
M  V30 23844 H 2205.53 7.63282 -1.58179 0
M  V30 23845 N 2209.76 1.02298 1.19887 0
M  V30 23846 C 2210.71 0.598691 2.229 0
M  V30 23847 C 2211.68 -0.384492 1.61589 0
M  V30 23848 O 2212.86 -0.282489 1.88697 0
M  V30 23849 C 2210 -0.0503869 3.45063 0
M  V30 23850 C 2209.11 0.978127 4.20781 0
M  V30 23851 C 2208.25 0.299432 5.30355 0
M  V30 23852 C 2207.29 1.31426 5.97824 0
M  V30 23853 N 2206.43 0.66179 6.98974 0
M  V30 23854 H 2211.27 1.48173 2.58551 0
M  V30 23855 H 2208.8 0.741606 1.27038 0
M  V30 23856 H 2210.76 -0.443898 4.14832 0
M  V30 23857 H 2209.39 -0.897042 3.10085 0
M  V30 23858 H 2208.44 1.48975 3.50015 0
M  V30 23859 H 2209.75 1.74967 4.67106 0
M  V30 23860 H 2208.91 -0.14924 6.06516 0
M  V30 23861 H 2207.65 -0.50436 4.85085 0
M  V30 23862 H 2206.65 1.77326 5.20419 0
M  V30 23863 H 2207.88 2.11945 6.45179 0
M  V30 23864 H 2205.82 -0.122017 6.55887 0
M  V30 23865 H 2205.74 1.3713 7.43459 0
M  V30 23866 H 2207.01 0.236922 7.7914 0
M  V30 23867 N 2211.24 -1.35782 0.800057 0
M  V30 23868 C 2212.47 -2.02903 0.389077 0
M  V30 23869 C 2212.88 -1.60447 -1.00267 0
M  V30 23870 O 2212.22 -0.794482 -1.65631 0
M  V30 23871 C 2212.28 -3.57426 0.385558 0
M  V30 23872 C 2211.94 -4.23124 1.7267 0
M  V30 23873 C 2212.94 -4.45265 2.68393 0
M  V30 23874 C 2210.63 -4.60378 2.00892 0
M  V30 23875 C 2212.62 -5.03754 3.90526 0
M  V30 23876 C 2210.31 -5.18582 3.23289 0
M  V30 23877 C 2211.31 -5.40211 4.17925 0
M  V30 23878 O 2210.99 -5.9719 5.38163 0
M  V30 23879 H 2210.73 -0.657505 0.157044 0
M  V30 23880 H 2213.28 -1.7452 1.08314 0
M  V30 23881 H 2211.51 -3.84973 -0.365061 0
M  V30 23882 H 2213.2 -4.059 -0.00221161 0
M  V30 23883 H 2213.96 -4.1687 2.4788 0
M  V30 23884 H 2209.84 -4.42861 1.28045 0
M  V30 23885 H 2213.39 -5.20552 4.64405 0
M  V30 23886 H 2209.28 -5.46404 3.43676 0
M  V30 23887 H 2210.05 -6.15647 5.39371 0
M  V30 23888 N 2212.72 -0.552988 -1.4758 0
M  V30 23889 C 2213.95 -0.0320454 -2.06575 0
M  V30 23890 C 2214.35 1.26522 -1.40673 0
M  V30 23891 O 2213.7 1.76882 -0.495839 0
M  V30 23892 C 2213.76 0.23885 -3.58706 0
M  V30 23893 C 2213.42 -0.968351 -4.46623 0
M  V30 23894 C 2214.42 -1.87282 -4.84996 0
M  V30 23895 C 2212.1 -1.18183 -4.88199 0
M  V30 23896 C 2214.1 -2.9745 -5.6374 0
M  V30 23897 C 2211.79 -2.28661 -5.66708 0
M  V30 23898 C 2212.78 -3.18125 -6.04388 0
M  V30 23899 O 2212.47 -4.26688 -6.81317 0
M  V30 23900 H 2212.2 -0.0408808 -0.674763 0
M  V30 23901 H 2214.76 -0.764753 -1.90632 0
M  V30 23902 H 2212.99 1.02582 -3.72846 0
M  V30 23903 H 2214.68 0.704661 -3.99737 0
M  V30 23904 H 2215.44 -1.71992 -4.53479 0
M  V30 23905 H 2211.32 -0.494674 -4.58338 0
M  V30 23906 H 2214.87 -3.67306 -5.9307 0
M  V30 23907 H 2210.76 -2.43925 -5.97638 0
M  V30 23908 H 2211.53 -4.24683 -6.99705 0
M  V30 23909 N 2214.19 1.54923 -0.28923 0
M  V30 23910 C 2215.14 2.24515 0.607926 0
M  V30 23911 C 2216.14 1.24704 1.14653 0
M  V30 23912 O 2217.34 1.42591 1.09853 0
M  V30 23913 H 2213.72 0.720721 0.214627 0
M  V30 23914 H 2215.69 2.984 -0.00169428 0
M  V30 23915 C 2214.44 2.99039 1.77401 0
M  V30 23916 H 2213.76 3.75639 1.36877 0
M  V30 23917 H 2215.2 3.51032 2.37807 0
M  V30 23918 C 2213.66 2.05323 2.67103 0
M  V30 23919 O 2214.19 1.6136 3.67867 0
M  V30 23920 N 2212.39 1.71526 2.34579 0
M  V30 23921 H 2211.94 2.07473 1.52685 0
M  V30 23922 H 2211.9 1.09095 2.94865 0
M  V30 23923 N 2215.67 0.0167433 1.57591 0
M  V30 23924 C 2216.63 -0.954167 2.08395 0
M  V30 23925 C 2217.63 -1.26196 0.996553 0
M  V30 23926 O 2218.82 -1.20436 1.25861 0
M  V30 23927 C 2215.96 -2.27431 2.53944 0
M  V30 23928 H 2217.15 -0.514399 2.95455 0
M  V30 23929 H 2214.7 -0.231062 1.54583 0
M  V30 23930 H 2215.44 -2.76063 1.70176 0
M  V30 23931 H 2215.22 -2.06406 3.33375 0
M  V30 23932 H 2216.71 -2.97048 2.93517 0
M  V30 23933 N 2217.15 -1.55503 -0.256249 0
M  V30 23934 C 2218.08 -1.84483 -1.34317 0
M  V30 23935 C 2219.06 -0.699156 -1.46801 0
M  V30 23936 O 2220.25 -0.943933 -1.63163 0
M  V30 23937 C 2217.37 -2.02128 -2.71776 0
M  V30 23938 C 2216.42 -3.24739 -2.7649 0
M  V30 23939 S 2217.25 -4.81648 -2.34042 0
M  V30 23940 C 2218.41 -5.02286 -3.73443 0
M  V30 23941 H 2218.64 -2.76387 -1.09534 0
M  V30 23942 H 2216.17 -1.47489 -0.456755 0
M  V30 23943 H 2218.13 -2.12978 -3.50928 0
M  V30 23944 H 2216.79 -1.11083 -2.93801 0
M  V30 23945 H 2215.99 -3.34023 -3.77419 0
M  V30 23946 H 2215.59 -3.12566 -2.05374 0
M  V30 23947 H 2217.88 -4.89056 -4.68861 0
M  V30 23948 H 2218.82 -6.04294 -3.691 0
M  V30 23949 H 2219.23 -4.30179 -3.65522 0
M  V30 23950 N 2218.63 0.521507 -1.48721 0
M  V30 23951 C 2219.58 1.62524 -1.63874 0
M  V30 23952 C 2220.55 1.58996 -0.480587 0
M  V30 23953 O 2221.73 1.77293 -0.705116 0
M  V30 23954 C 2218.87 3.00756 -1.69232 0
M  V30 23955 C 2217.98 3.14455 -2.96212 0
M  V30 23956 C 2217.12 4.43298 -2.92678 0
M  V30 23957 C 2216.16 4.50556 -4.14326 0
M  V30 23958 N 2215.29 5.70798 -4.0882 0
M  V30 23959 H 2220.13 1.48913 -2.58126 0
M  V30 23960 H 2217.67 0.724856 -1.28001 0
M  V30 23961 H 2219.63 3.8085 -1.70321 0
M  V30 23962 H 2218.26 3.13119 -0.784641 0
M  V30 23963 H 2217.31 2.27558 -3.0483 0
M  V30 23964 H 2218.62 3.15679 -3.86197 0
M  V30 23965 H 2217.78 5.31691 -2.92215 0
M  V30 23966 H 2216.52 4.44608 -2.00437 0
M  V30 23967 H 2215.52 3.60568 -4.15055 0
M  V30 23968 H 2216.75 4.50977 -5.07737 0
M  V30 23969 H 2214.69 5.7299 -3.19404 0
M  V30 23970 H 2214.61 5.73552 -4.92519 0
M  V30 23971 H 2215.88 6.61455 -4.12429 0
M  V30 23972 N 2220.11 1.37452 0.771027 0
M  V30 23973 C 2221.05 1.33273 1.88433 0
M  V30 23974 C 2222.02 0.198165 1.64914 0
M  V30 23975 O 2223.21 0.387639 1.86821 0
M  V30 23976 C 2220.35 1.14627 3.25507 0
M  V30 23977 C 2219.46 2.3732 3.60975 0
M  V30 23978 C 2218.6 2.11541 4.87261 0
M  V30 23979 C 2217.64 3.30097 5.15463 0
M  V30 23980 N 2216.77 3.03864 6.32938 0
M  V30 23981 H 2221.61 2.28458 1.9134 0
M  V30 23982 H 2219.15 1.13525 0.935446 0
M  V30 23983 H 2221.11 1.01838 4.0458 0
M  V30 23984 H 2219.74 0.230893 3.21973 0
M  V30 23985 H 2218.79 2.60847 2.76881 0
M  V30 23986 H 2220.1 3.25736 3.77754 0
M  V30 23987 H 2219.26 1.95787 5.74241 0
M  V30 23988 H 2217.99 1.20465 4.72588 0
M  V30 23989 H 2217 3.46389 4.26959 0
M  V30 23990 H 2218.22 4.22025 5.32045 0
M  V30 23991 H 2216.17 2.15418 6.19622 0
M  V30 23992 H 2216.09 3.85823 6.50136 0
M  V30 23993 H 2217.36 2.91729 7.22852 0
M  V30 23994 N 2221.58 -0.997276 1.22033 0
M  V30 23995 C 2222.51 -2.10493 1.01069 0
M  V30 23996 C 2223.5 -1.69968 -0.0669243 0
M  V30 23997 O 2224.68 -1.9397 0.0944328 0
M  V30 23998 C 2221.81 -3.42373 0.582934 0
M  V30 23999 C 2220.76 -3.96727 1.60599 0
M  V30 24000 C 2220.09 -5.24603 1.03421 0
M  V30 24001 C 2221.39 -4.27909 2.99485 0
M  V30 24002 H 2223.08 -2.28289 1.93712 0
M  V30 24003 H 2220.63 -1.09705 0.93278 0
M  V30 24004 H 2222.58 -4.19268 0.423406 0
M  V30 24005 H 2221.31 -3.24392 -0.379156 0
M  V30 24006 H 2219.97 -3.21959 1.75322 0
M  V30 24007 H 2219.61 -5.0296 0.0636064 0
M  V30 24008 H 2219.31 -5.61935 1.71764 0
M  V30 24009 H 2220.84 -6.04135 0.886172 0
M  V30 24010 H 2222.25 -4.95617 2.88161 0
M  V30 24011 H 2220.65 -4.76403 3.64912 0
M  V30 24012 H 2221.72 -3.35864 3.49748 0
M  V30 24013 N 2223.06 -1.02932 -1.19343 0
M  V30 24014 C 2224.31 -0.724607 -1.88663 0
M  V30 24015 C 2224.63 0.749112 -1.80037 0
M  V30 24016 O 2223.9 1.53976 -1.21113 0
M  V30 24017 H 2222.48 -0.265037 -0.698401 0
M  V30 24018 H 2225.14 -1.30365 -1.44883 0
M  V30 24019 H 2224.24 -1.01931 -2.94985 0
M  V30 24020 N 2224.54 1.35356 -0.807246 0
M  V30 24021 C 2225.77 2.03519 -0.399345 0
M  V30 24022 C 2226.19 1.60434 0.981958 0
M  V30 24023 O 2225.55 0.781328 1.636 0
M  V30 24024 C 2225.6 3.57233 -0.491615 0
M  V30 24025 O 2224.7 4.09422 0.494682 0
M  V30 24026 H 2224.04 0.642736 -0.166693 0
M  V30 24027 H 2226.57 1.72939 -1.09331 0
M  V30 24028 H 2226.58 4.06394 -0.361659 0
M  V30 24029 H 2225.26 3.87941 -1.49914 0
M  V30 24030 H 2223.83 3.71482 0.324911 0
M  V30 24031 N 2226.02 0.560807 1.47284 0
M  V30 24032 C 2226.97 -0.184869 2.30058 0
M  V30 24033 C 2227.94 -0.904961 1.39283 0
M  V30 24034 O 2229.12 -0.899949 1.68243 0
M  V30 24035 C 2226.26 -1.2066 3.23319 0
M  V30 24036 C 2225.37 -0.492209 4.29187 0
M  V30 24037 C 2224.51 -1.49955 5.09595 0
M  V30 24038 C 2223.55 -0.770332 6.07233 0
M  V30 24039 N 2222.68 -1.72468 6.80588 0
M  V30 24040 H 2227.52 0.5271 2.93301 0
M  V30 24041 H 2225.06 0.271763 1.44568 0
M  V30 24042 H 2227.02 -1.81161 3.75814 0
M  V30 24043 H 2225.65 -1.88656 2.61933 0
M  V30 24044 H 2224.7 0.2274 3.7972 0
M  V30 24045 H 2226.01 0.0788806 4.98738 0
M  V30 24046 H 2225.17 -2.17799 5.66258 0
M  V30 24047 H 2223.91 -2.10456 4.39954 0
M  V30 24048 H 2222.91 -0.077988 5.49745 0
M  V30 24049 H 2224.14 -0.171015 6.78885 0
M  V30 24050 H 2222.08 -2.31819 6.13674 0
M  V30 24051 H 2222 -1.20583 7.46321 0
M  V30 24052 H 2223.27 -2.39415 7.41823 0
M  V30 24053 N 2227.5 -1.54768 0.297442 0
M  V30 24054 C 2228.44 -2.23387 -0.580237 0
M  V30 24055 C 2229.41 -1.21519 -1.13236 0
M  V30 24056 O 2230.6 -1.50129 -1.17754 0
M  V30 24057 C 2227.74 -2.97558 -1.74796 0
M  V30 24058 C 2226.85 -4.14192 -1.22757 0
M  V30 24059 C 2225.99 -4.75953 -2.35887 0
M  V30 24060 C 2225.03 -5.84738 -1.80963 0
M  V30 24061 N 2224.16 -6.40469 -2.87653 0
M  V30 24062 H 2229 -2.97998 0.0115357 0
M  V30 24063 H 2226.54 -1.4709 0.0174619 0
M  V30 24064 H 2228.5 -3.3879 -2.43469 0
M  V30 24065 H 2227.13 -2.2533 -2.31141 0
M  V30 24066 H 2226.18 -3.77925 -0.433205 0
M  V30 24067 H 2227.49 -4.92577 -0.785464 0
M  V30 24068 H 2226.65 -5.20019 -3.12514 0
M  V30 24069 H 2225.38 -3.96892 -2.83422 0
M  V30 24070 H 2224.39 -5.40099 -1.02824 0
M  V30 24071 H 2225.61 -6.6568 -1.34337 0
M  V30 24072 H 2223.56 -5.64293 -3.34528 0
M  V30 24073 H 2223.48 -7.1419 -2.47927 0
M  V30 24074 H 2224.75 -6.89193 -3.64188 0
M  V30 24075 N 2228.97 -0.0251005 -1.5758 0
M  V30 24076 C 2230.39 0.514292 -1.79477 0
M  V30 24077 C 2230.74 1.72489 -0.934987 0
M  V30 24078 O 2229.86 2.15918 -0.144283 0
M  V30 24079 C 2230.46 0.939785 -3.25505 0
M  V30 24080 C 2229.02 1.42432 -3.48411 0
M  V30 24081 C 2228.16 0.387152 -2.74584 0
M  V30 24082 H 2231.11 -0.251157 -1.567 0
M  V30 24083 H 2231.13 1.80439 -3.34996 0
M  V30 24084 H 2230.65 0.0584946 -3.88056 0
M  V30 24085 H 2228.75 2.32567 -2.91107 0
M  V30 24086 H 2228.86 1.43447 -4.57121 0
M  V30 24087 H 2227.22 0.854367 -2.39943 0
M  V30 24088 H 2228.01 -0.485603 -3.39848 0
M  V30 24089 N 2230.45 1.55637 0.247999 0
M  V30 24090 C 2231.38 1.86672 1.3299 0
M  V30 24091 C 2232.4 0.752903 1.44344 0
M  V30 24092 O 2233.59 1.03101 1.45714 0
M  V30 24093 C 2230.69 2.03687 2.7086 0
M  V30 24094 C 2229.86 3.34537 2.81786 0
M  V30 24095 C 2228.92 3.41308 4.00494 0
M  V30 24096 O 2227.94 4.14526 3.90073 0
M  V30 24097 N 2229.15 2.70521 5.13613 0
M  V30 24098 H 2231.91 2.80062 1.06702 0
M  V30 24099 H 2229.47 1.5586 0.438101 0
M  V30 24100 H 2231.46 2.05559 3.48608 0
M  V30 24101 H 2230.03 1.17046 2.8986 0
M  V30 24102 H 2229.25 3.44991 1.90723 0
M  V30 24103 H 2230.54 4.20786 2.86036 0
M  V30 24104 H 2229.94 2.10765 5.24971 0
M  V30 24105 H 2228.5 2.78087 5.895 0
M  V30 24106 N 2231.93 -0.513613 1.48996 0
M  V30 24107 C 2232.88 -1.61653 1.64733 0
M  V30 24108 C 2233.85 -1.58738 0.489012 0
M  V30 24109 O 2235.03 -1.76916 0.714509 0
M  V30 24110 C 2232.17 -2.99855 1.70825 0
M  V30 24111 C 2231.29 -3.1288 2.97876 0
M  V30 24112 C 2230.42 -4.41739 2.95025 0
M  V30 24113 C 2229.46 -4.48352 4.1671 0
M  V30 24114 N 2228.6 -5.68622 4.11842 0
M  V30 24115 H 2233.44 -1.47542 2.58912 0
M  V30 24116 H 2230.97 -0.718057 1.28384 0
M  V30 24117 H 2232.93 -3.79941 1.72338 0
M  V30 24118 H 2231.56 -3.12698 0.801236 0
M  V30 24119 H 2230.61 -2.25939 3.06033 0
M  V30 24120 H 2231.93 -3.13626 3.87866 0
M  V30 24121 H 2231.08 -5.30134 2.95031 0
M  V30 24122 H 2229.82 -4.43539 2.02792 0
M  V30 24123 H 2228.82 -3.58362 4.16962 0
M  V30 24124 H 2230.05 -4.48278 5.10121 0
M  V30 24125 H 2228 -5.71288 3.22438 0
M  V30 24126 H 2227.91 -5.70932 4.95553 0
M  V30 24127 H 2229.18 -6.59258 4.15931 0
M  V30 24128 N 2233.41 -1.37859 -0.763727 0
M  V30 24129 C 2234.82 -1.29954 -1.34048 0
M  V30 24130 C 2235.17 0.0492554 -1.96138 0
M  V30 24131 O 2234.3 0.951205 -1.94373 0
M  V30 24132 C 2234.89 -2.35338 -2.43725 0
M  V30 24133 C 2233.45 -2.31043 -2.97147 0
M  V30 24134 C 2232.6 -2.18741 -1.70434 0
M  V30 24135 H 2235.55 -1.48364 -0.56337 0
M  V30 24136 H 2235.57 -2.00467 -3.23409 0
M  V30 24137 H 2235.08 -3.33493 -1.98505 0
M  V30 24138 H 2233.18 -1.36436 -3.46722 0
M  V30 24139 H 2233.3 -3.24778 -3.52215 0
M  V30 24140 H 2231.66 -1.65421 -1.9367 0
M  V30 24141 H 2232.44 -3.18823 -1.27306 0
M  V30 24142 N 2234.89 0.990791 -1.22561 0
M  V30 24143 C 2236.14 1.72485 -1.04556 0
M  V30 24144 C 2236.45 1.91053 0.419316 0
M  V30 24145 O 2237.66 2.61804 0.719075 0
M  V30 24146 C 2236.11 3.10351 -1.82236 0
M  V30 24147 C 2235.72 2.99707 -3.32986 0
M  V30 24148 C 2237.46 3.87788 -1.72687 0
M  V30 24149 C 2235.37 4.32741 -4.03099 0
M  V30 24150 H 2234.3 0.646732 -0.387626 0
M  V30 24151 H 2236.95 1.10591 -1.46431 0
M  V30 24152 H 2235.33 3.7294 -1.33161 0
M  V30 24153 H 2236.51 2.46271 -3.89471 0
M  V30 24154 H 2234.82 2.35752 -3.43235 0
M  V30 24155 H 2237.42 4.86258 -2.2239 0
M  V30 24156 H 2237.76 4.10581 -0.687679 0
M  V30 24157 H 2238.3 3.31881 -2.19316 0
M  V30 24158 H 2235.03 4.15147 -5.0728 0
M  V30 24159 H 2234.55 4.86082 -3.51403 0
M  V30 24160 H 2236.23 5.01479 -4.08813 0
M  V30 24161 N 2236.37 1.03564 1.18795 0
M  V30 24162 C 2237.78 0.764706 1.70321 0
M  V30 24163 C 2238.13 -0.714964 1.82709 0
M  V30 24164 O 2237.25 -1.55687 1.50302 0
M  V30 24165 C 2237.85 1.38151 3.09354 0
M  V30 24166 C 2236.41 1.15901 3.58112 0
M  V30 24167 C 2235.55 1.47534 2.34796 0
M  V30 24168 H 2238.5 1.2027 1.03541 0
M  V30 24169 H 2238.53 0.782042 3.72377 0
M  V30 24170 H 2238.04 2.45842 3.00305 0
M  V30 24171 H 2236.14 0.10061 3.72464 0
M  V30 24172 H 2236.25 1.85248 4.41837 0
M  V30 24173 H 2234.62 0.894871 2.38462 0
M  V30 24174 H 2235.4 2.56323 2.28371 0
M  V30 24175 N 2237.84 -1.34926 0.814413 0
M  V30 24176 C 2239.26 -1.51595 0.499111 0
M  V30 24177 C 2239.46 -1.76158 -0.978288 0
M  V30 24178 O 2238.52 -1.80755 -1.76306 0
M  V30 24179 C 2239.83 -2.68629 1.35126 0
M  V30 24180 C 2241.38 -2.82509 1.34751 0
M  V30 24181 C 2241.85 -4.02576 2.18395 0
M  V30 24182 N 2243.34 -4.09768 2.15973 0
M  V30 24183 C 2244.08 -5.01808 2.77446 0
M  V30 24184 N 2243.57 -5.99127 3.47877 0
M  V30 24185 N 2245.37 -4.94614 2.67046 0
M  V30 24186 H 2237.52 -1.1724 1.77112 0
M  V30 24187 H 2239.78 -0.574271 0.754266 0
M  V30 24188 H 2239.49 -2.5708 2.40005 0
M  V30 24189 H 2239.36 -3.63427 1.00997 0
M  V30 24190 H 2241.75 -2.93504 0.306532 0
M  V30 24191 H 2241.83 -1.88544 1.72872 0
M  V30 24192 H 2241.47 -3.92342 3.22537 0
M  V30 24193 H 2241.4 -4.95737 1.77629 0
M  V30 24194 H 2243.89 -3.40104 1.64735 0
M  V30 24195 H 2244.21 -6.6597 3.9205 0
M  V30 24196 H 2242.55 -5.99278 3.51982 0
M  V30 24197 H 2245.74 -4.17542 2.11604 0
M  V30 24198 H 2245.92 -5.66151 3.15242 0
M  V30 24199 N 2239.32 -0.56861 -1.46985 0
M  V30 24200 C 2240.73 -0.138252 -1.86187 0
M  V30 24201 C 2241.08 1.29501 -1.4739 0
M  V30 24202 O 2240.21 1.976 -0.882224 0
M  V30 24203 C 2240.8 -0.244124 -3.37919 0
M  V30 24204 C 2239.36 0.131269 -3.76171 0
M  V30 24205 C 2238.51 -0.586513 -2.71026 0
M  V30 24206 H 2241.46 -0.777669 -1.3834 0
M  V30 24207 H 2241.48 0.534285 -3.7673 0
M  V30 24208 H 2240.99 -1.28738 -3.66126 0
M  V30 24209 H 2239.09 1.17519 -3.53582 0
M  V30 24210 H 2239.21 -0.23523 -4.78522 0
M  V30 24211 H 2237.57 -0.028317 -2.54684 0
M  V30 24212 H 2238.35 -1.63114 -3.02074 0
M  V30 24213 N 2240.8 1.54608 -0.305646 0
M  V30 24214 C 2241.76 2.22365 0.555551 0
M  V30 24215 C 2242.76 1.21121 1.05766 0
M  V30 24216 O 2243.95 1.45824 0.952946 0
M  V30 24217 C 2241.08 2.91367 1.76969 0
M  V30 24218 H 2242.28 2.99878 -0.0365099 0
M  V30 24219 H 2239.83 1.56198 -0.0565281 0
M  V30 24220 H 2240.57 2.17945 2.40147 0
M  V30 24221 H 2240.35 3.6559 1.41726 0
M  V30 24222 H 2241.84 3.43043 2.38142 0
M  V30 24223 N 2242.28 0.033457 1.57564 0
M  V30 24224 C 2243.23 -0.964923 2.11641 0
M  V30 24225 C 2244.22 -1.33405 1.044 0
M  V30 24226 O 2245.43 -1.31578 1.2283 0
M  V30 24227 H 2241.8 -0.328968 0.676228 0
M  V30 24228 H 2243.77 -0.483562 2.94456 0
M  V30 24229 C 2242.52 -2.23667 2.66211 0
M  V30 24230 H 2241.84 -1.96139 3.48381 0
M  V30 24231 H 2243.28 -2.91724 3.0769 0
M  V30 24232 C 2241.74 -2.96936 1.59156 0
M  V30 24233 O 2242.27 -3.89209 0.993927 0
M  V30 24234 N 2240.48 -2.59349 1.31097 0
M  V30 24235 H 2240.03 -1.8439 1.79883 0
M  V30 24236 H 2239.98 -3.08681 0.596943 0
M  V30 24237 N 2243.76 -1.55766 -0.239741 0
M  V30 24238 C 2244.7 -1.90915 -1.29693 0
M  V30 24239 C 2245.67 -0.76419 -1.47477 0
M  V30 24240 O 2246.86 -1.01848 -1.61343 0
M  V30 24241 C 2244 -2.21549 -2.64594 0
M  V30 24242 C 2243.11 -3.48886 -2.54759 0
M  V30 24243 C 2242.25 -3.69055 -3.82062 0
M  V30 24244 C 2241.28 -4.89969 -3.66874 0
M  V30 24245 N 2240.42 -5.06622 -4.86085 0
M  V30 24246 H 2245.26 -2.81069 -0.990175 0
M  V30 24247 H 2242.8 -1.39129 -0.477659 0
M  V30 24248 H 2244.76 -2.37316 -3.43128 0
M  V30 24249 H 2243.39 -1.3459 -2.93403 0
M  V30 24250 H 2242.44 -3.41412 -1.67757 0
M  V30 24251 H 2243.75 -4.37568 -2.3945 0
M  V30 24252 H 2242.9 -3.84821 -4.69039 0
M  V30 24253 H 2241.64 -2.78621 -4.00277 0
M  V30 24254 H 2240.65 -4.74173 -2.7828 0
M  V30 24255 H 2241.87 -5.81871 -3.50147 0
M  V30 24256 H 2239.82 -4.19126 -5.04647 0
M  V30 24257 H 2239.74 -5.89404 -4.73433 0
M  V30 24258 H 2241 -5.26806 -5.7454 0
M  V30 24259 N 2245.23 0.505704 -1.49266 0
M  V30 24260 C 2246.48 1.26012 -1.58515 0
M  V30 24261 C 2246.81 1.9262 -0.269754 0
M  V30 24262 O 2246.06 1.81089 0.741965 0
M  V30 24263 C 2246.36 2.35303 -2.69012 0
M  V30 24264 C 2246.03 1.86185 -4.10665 0
M  V30 24265 C 2244.69 1.72508 -4.49215 0
M  V30 24266 C 2247.04 1.49366 -4.99339 0
M  V30 24267 C 2244.37 1.20384 -5.74216 0
M  V30 24268 C 2246.72 0.986962 -6.24853 0
M  V30 24269 C 2245.39 0.836553 -6.62237 0
M  V30 24270 H 2244.66 0.461112 -0.580049 0
M  V30 24271 H 2247.3 0.561633 -1.83079 0
M  V30 24272 H 2245.61 3.10921 -2.38401 0
M  V30 24273 H 2247.31 2.93369 -2.73378 0
M  V30 24274 H 2243.9 1.97788 -3.80234 0
M  V30 24275 H 2248.08 1.58782 -4.70215 0
M  V30 24276 H 2243.34 1.07447 -6.01885 0
M  V30 24277 H 2247.51 0.692861 -6.92945 0
M  V30 24278 H 2245.14 0.430474 -7.5898 0
M  V30 24279 N 2246.71 1.38262 0.756405 0
M  V30 24280 C 2247.64 1.3115 1.87969 0
M  V30 24281 C 2248.66 0.224268 1.61248 0
M  V30 24282 O 2249.85 0.481611 1.7188 0
M  V30 24283 C 2246.95 1.00863 3.23543 0
M  V30 24284 C 2246.12 2.20439 3.7779 0
M  V30 24285 C 2245.18 1.8694 4.91874 0
M  V30 24286 O 2244.2 2.59403 5.06654 0
M  V30 24287 N 2245.41 0.822669 5.74641 0
M  V30 24288 H 2248.17 2.27944 1.94581 0
M  V30 24289 H 2245.73 1.32086 0.936211 0
M  V30 24290 H 2247.72 0.765091 3.97402 0
M  V30 24291 H 2246.29 0.128742 3.12335 0
M  V30 24292 H 2245.51 2.60875 2.9553 0
M  V30 24293 H 2246.8 3.00248 4.10766 0
M  V30 24294 H 2246.2 0.221675 5.65266 0
M  V30 24295 H 2244.76 0.639013 6.4866 0
M  V30 24296 N 2248.19 -0.984277 1.23084 0
M  V30 24297 C 2249.44 -1.72163 1.05851 0
M  V30 24298 C 2249.76 -1.90726 -0.406016 0
M  V30 24299 O 2249.03 -1.47311 -1.29136 0
M  V30 24300 H 2247.61 -0.637906 0.388696 0
M  V30 24301 H 2250.27 -1.185 1.54738 0
M  V30 24302 H 2249.37 -2.71271 1.54331 0
M  V30 24303 N 2249.67 -1.04192 -1.18244 0
M  V30 24304 C 2250.6 -0.578513 -2.20745 0
M  V30 24305 C 2251.58 0.387596 -1.57913 0
M  V30 24306 O 2252.76 0.301601 -1.86072 0
M  V30 24307 C 2249.89 0.154703 -3.38347 0
M  V30 24308 C 2248.94 -0.764856 -4.19586 0
M  V30 24309 S 2249.77 -2.24844 -4.8601 0
M  V30 24310 C 2250.93 -1.5261 -6.0701 0
M  V30 24311 H 2251.16 -1.44696 -2.59712 0
M  V30 24312 H 2248.69 -0.852993 -1.28699 0
M  V30 24313 H 2250.65 0.57157 -4.06501 0
M  V30 24314 H 2249.31 0.999053 -2.97788 0
M  V30 24315 H 2248.5 -0.198064 -5.03611 0
M  V30 24316 H 2248.11 -1.12063 -3.56816 0
M  V30 24317 H 2250.4 -0.819852 -6.72521 0
M  V30 24318 H 2251.34 -2.34345 -6.68198 0
M  V30 24319 H 2251.75 -1.01789 -5.55247 0
M  V30 24320 N 2251.15 1.34492 -0.821557 0
M  V30 24321 C 2252.39 1.98621 -0.409587 0
M  V30 24322 C 2252.73 1.64986 1.02437 0
M  V30 24323 O 2252 0.920788 1.71324 0
M  V30 24324 C 2252.28 3.54887 -0.610521 0
M  V30 24325 C 2252.14 3.98269 -2.0905 0
M  V30 24326 C 2253.46 4.40076 -0.0456153 0
M  V30 24327 H 2250.57 0.721513 -0.150292 0
M  V30 24328 H 2253.22 1.59409 -1.03387 0
M  V30 24329 H 2251.37 3.88419 -0.0791123 0
M  V30 24330 H 2253.04 3.75076 -2.68544 0
M  V30 24331 H 2251.28 3.48631 -2.58146 0
M  V30 24332 H 2251.95 5.07047 -2.18191 0
M  V30 24333 H 2254.43 4.13089 -0.49963 0
M  V30 24334 H 2253.3 5.48475 -0.216018 0
M  V30 24335 H 2253.57 4.29467 1.04932 0
M  V30 24336 N 2252.62 0.576397 1.46681 0
M  V30 24337 C 2253.87 0.0595695 2.02412 0
M  V30 24338 C 2254.2 -1.2979 1.44861 0
M  V30 24339 O 2253.45 -1.86239 0.601131 0
M  V30 24340 C 2253.75 -0.0628232 3.57345 0
M  V30 24341 C 2253.42 1.22623 4.33906 0
M  V30 24342 C 2252.08 1.57941 4.54542 0
M  V30 24343 C 2254.43 2.07957 4.77916 0
M  V30 24344 C 2251.76 2.78402 5.16439 0
M  V30 24345 C 2254.11 3.27638 5.41143 0
M  V30 24346 C 2252.78 3.63246 5.60008 0
M  V30 24347 H 2252.05 0.021798 0.740679 0
M  V30 24348 H 2254.69 0.751766 1.76127 0
M  V30 24349 H 2253 -0.83811 3.82731 0
M  V30 24350 H 2254.7 -0.478369 3.98136 0
M  V30 24351 H 2251.29 0.941276 4.18136 0
M  V30 24352 H 2255.47 1.81976 4.61734 0
M  V30 24353 H 2250.73 3.06135 5.29236 0
M  V30 24354 H 2254.9 3.94034 5.74204 0
M  V30 24355 H 2252.53 4.56679 6.0774 0
M  V30 24356 N 2254.1 -1.54444 0.313841 0
M  V30 24357 C 2255.38 -1.92526 -0.345413 0
M  V30 24358 C 2255.76 -1.24245 -1.70665 0
M  V30 24359 O 2255.11 -0.382694 -2.25273 0
M  V30 24360 C 2255.32 -3.46122 -0.447309 0
M  V30 24361 C 2256.67 -4.18585 -0.712164 0
M  V30 24362 O 2257.69 -3.52226 -0.530616 0
M  V30 24363 O 2256.55 -5.36087 -1.06173 0
M  V30 24364 H 2253.64 -0.803586 -0.195393 0
M  V30 24365 H 2256.19 -1.65776 0.362842 0
M  V30 24366 H 2254.96 -3.87974 0.509111 0
M  V30 24367 H 2254.58 -3.78947 -1.20353 0
M  V30 24368 N 2255.58 -0.0418125 -1.57545 0
M  V30 24369 C 2256.83 0.634048 -1.92318 0
M  V30 24370 C 2257.16 1.714 -0.919364 0
M  V30 24371 O 2256.41 1.95576 0.0697909 0
M  V30 24372 C 2256.71 1.27729 -3.33796 0
M  V30 24373 C 2256.38 0.326464 -4.49717 0
M  V30 24374 C 2255.04 0.0647968 -4.81156 0
M  V30 24375 C 2257.39 -0.325714 -5.20181 0
M  V30 24376 C 2254.72 -0.856641 -5.80412 0
M  V30 24377 C 2257.07 -1.23529 -6.20422 0
M  V30 24378 C 2255.73 -1.50572 -6.50296 0
M  V30 24379 H 2255 0.232015 -0.70374 0
M  V30 24380 H 2257.65 -0.106293 -1.91205 0
M  V30 24381 H 2255.96 2.09268 -3.31231 0
M  V30 24382 H 2257.65 1.80701 -3.57978 0
M  V30 24383 H 2254.24 0.54059 -4.25177 0
M  V30 24384 H 2258.43 -0.136634 -4.96112 0
M  V30 24385 H 2253.68 -1.07373 -6.01898 0
M  V30 24386 H 2257.86 -1.74676 -6.74138 0
M  V30 24387 H 2255.48 -2.22136 -7.27021 0
M  V30 24388 N 2257.06 1.55891 0.231477 0
M  V30 24389 C 2258.3 1.78707 0.958738 0
M  V30 24390 C 2258.64 0.609757 1.84379 0
M  V30 24391 O 2257.91 -0.391392 1.90521 0
M  V30 24392 C 2258.2 3.11529 1.80614 0
M  V30 24393 C 2258.05 4.39691 0.948251 0
M  V30 24394 C 2259.37 3.40708 2.78579 0
M  V30 24395 H 2256.49 0.650137 0.347118 0
M  V30 24396 H 2259.13 1.88624 0.228226 0
M  V30 24397 H 2257.28 3.03205 2.42897 0
M  V30 24398 H 2258.95 4.60024 0.342936 0
M  V30 24399 H 2257.19 4.3306 0.253237 0
M  V30 24400 H 2257.86 5.29044 1.57533 0
M  V30 24401 H 2260.34 3.49095 2.26433 0
M  V30 24402 H 2259.22 4.34832 3.34981 0
M  V30 24403 H 2259.48 2.62381 3.55821 0
M  V30 24404 N 2258.54 -0.497781 1.49532 0
M  V30 24405 C 2259.76 -1.27564 1.62896 0
M  V30 24406 C 2260.18 -1.86375 0.301618 0
M  V30 24407 O 2259.54 -1.67983 -0.713305 0
M  V30 24408 C 2259.59 -2.4036 2.70018 0
M  V30 24409 O 2259.31 -1.83965 3.97603 0
M  V30 24410 C 2260.81 -3.3168 2.94115 0
M  V30 24411 H 2258.03 -0.386785 0.548305 0
M  V30 24412 H 2260.57 -0.597211 1.95585 0
M  V30 24413 H 2258.73 -3.04027 2.40097 0
M  V30 24414 H 2259.14 -2.58039 4.56635 0
M  V30 24415 H 2260.62 -4.07097 3.72795 0
M  V30 24416 H 2261.09 -3.88868 2.04153 0
M  V30 24417 H 2261.7 -2.73775 3.25464 0
M  V30 24418 N 2260.01 -1.38661 -0.749062 0
M  V30 24419 C 2260.96 -1.36254 -1.86289 0
M  V30 24420 C 2261.93 -0.224376 -1.64578 0
M  V30 24421 O 2263.12 -0.417312 -1.8618 0
M  V30 24422 C 2260.26 -1.19791 -3.23642 0
M  V30 24423 C 2259.37 -2.43033 -3.57154 0
M  V30 24424 C 2258.5 -2.19266 -4.83834 0
M  V30 24425 C 2257.54 -3.38256 -5.10146 0
M  V30 24426 N 2256.68 -3.13895 -6.28024 0
M  V30 24427 H 2261.52 -2.31473 -1.87681 0
M  V30 24428 H 2259.06 -1.14998 -0.917267 0
M  V30 24429 H 2261.02 -1.08261 -4.02909 0
M  V30 24430 H 2259.65 -0.282087 -3.21565 0
M  V30 24431 H 2258.7 -2.65219 -2.72696 0
M  V30 24432 H 2260.01 -3.31704 -3.72524 0
M  V30 24433 H 2259.16 -2.04898 -5.71053 0
M  V30 24434 H 2257.9 -1.27968 -4.70612 0
M  V30 24435 H 2256.91 -3.53138 -4.21395 0
M  V30 24436 H 2258.13 -4.30436 -5.25263 0
M  V30 24437 H 2256.08 -2.25249 -6.16116 0
M  V30 24438 H 2256 -3.96117 -6.43915 0
M  V30 24439 H 2257.26 -3.03192 -7.18119 0
M  V30 24440 N 2261.49 0.977736 -1.23605 0
M  V30 24441 C 2262.43 2.07315 -0.977405 0
M  V30 24442 C 2263.44 1.62725 0.0495559 0
M  V30 24443 O 2264.63 1.77525 -0.186292 0
M  V30 24444 C 2261.73 3.35882 -0.451275 0
M  V30 24445 C 2260.9 4.0943 -1.53903 0
M  V30 24446 C 2259.96 5.16273 -1.01731 0
M  V30 24447 O 2258.99 5.43006 -1.70686 0
M  V30 24448 N 2260.19 5.80297 0.153492 0
M  V30 24449 H 2262.95 2.30079 -1.92051 0
M  V30 24450 H 2260.51 1.14463 -1.14499 0
M  V30 24451 H 2262.51 4.04606 -0.0872286 0
M  V30 24452 H 2261.08 3.10065 0.397314 0
M  V30 24453 H 2260.3 3.35123 -2.07572 0
M  V30 24454 H 2261.58 4.55333 -2.27045 0
M  V30 24455 H 2260.98 5.60967 0.730224 0
M  V30 24456 H 2259.54 6.50183 0.458777 0
M  V30 24457 N 2262.97 1.04818 1.1769 0
M  V30 24458 C 2264.22 0.757143 1.88136 0
M  V30 24459 C 2264.55 -0.713809 1.80606 0
M  V30 24460 O 2263.83 -1.52162 1.21149 0
M  V30 24461 C 2264.11 1.23346 3.38316 0
M  V30 24462 C 2263.96 2.76707 3.54617 0
M  V30 24463 C 2265.28 0.829491 4.32212 0
M  V30 24464 H 2262.4 0.276522 0.683158 0
M  V30 24465 H 2265.04 1.30151 1.38422 0
M  V30 24466 H 2263.19 0.770352 3.80786 0
M  V30 24467 H 2264.86 3.31113 3.21188 0
M  V30 24468 H 2263.11 3.16167 2.9702 0
M  V30 24469 H 2263.78 3.05096 4.60022 0
M  V30 24470 H 2266.25 1.22812 3.97563 0
M  V30 24471 H 2265.13 1.19043 5.35836 0
M  V30 24472 H 2265.39 -0.266814 4.41294 0
M  V30 24473 N 2264.45 -1.34055 0.828678 0
M  V30 24474 C 2265.7 -1.98107 0.419493 0
M  V30 24475 C 2266.02 -1.6568 -1.01883 0
M  V30 24476 O 2265.28 -0.923543 -1.72537 0
M  V30 24477 C 2265.58 -3.5274 0.575288 0
M  V30 24478 C 2265.24 -4.05092 1.98019 0
M  V30 24479 C 2263.91 -4.191 2.3645 0
M  V30 24480 C 2266.26 -4.33182 2.89832 0
M  V30 24481 C 2263.59 -4.58529 3.66017 0
M  V30 24482 C 2265.94 -4.74059 4.18869 0
M  V30 24483 C 2264.6 -4.86273 4.57269 0
M  V30 24484 H 2263.87 -0.724926 0.153503 0
M  V30 24485 H 2266.52 -1.59902 1.05374 0
M  V30 24486 H 2264.82 -3.91541 -0.142317 0
M  V30 24487 H 2266.52 -4.00286 0.239128 0
M  V30 24488 H 2263.11 -3.94655 1.67168 0
M  V30 24489 H 2267.3 -4.21892 2.61382 0
M  V30 24490 H 2262.55 -4.66177 3.95587 0
M  V30 24491 H 2266.73 -4.94753 4.90094 0
M  V30 24492 H 2264.35 -5.16582 5.57716 0
M  V30 24493 N 2265.93 -0.584167 -1.46374 0
M  V30 24494 C 2267.2 -0.00337318 -1.956 0
M  V30 24495 C 2267.58 1.45779 -1.52682 0
M  V30 24496 O 2266.93 2.1484 -0.778198 0
M  V30 24497 C 2267.14 -0.176953 -3.48551 0
M  V30 24498 C 2268.49 -0.0455355 -4.24576 0
M  V30 24499 O 2269.51 -0.105863 -3.56043 0
M  V30 24500 O 2268.37 0.0889415 -5.46428 0
M  V30 24501 H 2265.47 0.0489921 -0.825548 0
M  V30 24502 H 2268.01 -0.652588 -1.5665 0
M  V30 24503 H 2266.79 -1.19267 -3.72681 0
M  V30 24504 H 2266.41 0.508626 -3.94333 0
M  V30 24505 N 2267.41 1.54275 -0.322027 0
M  V30 24506 C 2268.65 1.9972 0.281896 0
M  V30 24507 C 2268.97 1.214 1.53367 0
M  V30 24508 O 2270.17 1.57215 2.2135 0
M  V30 24509 C 2268.63 3.55629 0.552837 0
M  V30 24510 C 2268.24 4.42782 -0.681799 0
M  V30 24511 C 2269.98 4.09546 1.1168 0
M  V30 24512 C 2267.89 5.9016 -0.382846 0
M  V30 24513 H 2266.82 0.746064 0.109111 0
M  V30 24514 H 2269.47 1.78294 -0.434011 0
M  V30 24515 H 2267.85 3.73037 1.32889 0
M  V30 24516 H 2269.03 4.37149 -1.45731 0
M  V30 24517 H 2267.34 3.99746 -1.16587 0
M  V30 24518 H 2269.94 5.17245 1.35506 0
M  V30 24519 H 2270.28 3.61435 2.06569 0
M  V30 24520 H 2270.81 3.95764 0.401963 0
M  V30 24521 H 2267.55 6.42462 -1.30087 0
M  V30 24522 H 2267.07 5.98749 0.354989 0
M  V30 24523 H 2268.75 6.47 0.00788784 0
M  V30 24524 N 2268.88 0.0501669 1.5752 0
M  V30 24525 C 2270.11 -0.636962 1.97377 0
M  V30 24526 C 2270.53 -1.63643 0.927495 0
M  V30 24527 O 2269.89 -1.8097 -0.109378 0
M  V30 24528 C 2269.94 -1.30117 3.36306 0
M  V30 24529 O 2269.04 -2.41683 3.3416 0
M  V30 24530 H 2268.38 -0.165667 0.643001 0
M  V30 24531 H 2270.91 0.118269 2.04258 0
M  V30 24532 H 2270.92 -1.65309 3.73011 0
M  V30 24533 H 2269.6 -0.568673 4.11994 0
M  V30 24534 H 2268.18 -2.08446 3.092 0
M  V30 24535 N 2270.36 -1.56011 -0.223207 0
M  V30 24536 C 2271.61 -1.78146 -0.945881 0
M  V30 24537 C 2271.92 -0.618429 -1.85566 0
M  V30 24538 O 2273.13 -0.723364 -2.61686 0
M  V30 24539 C 2271.59 -3.15478 -1.7321 0
M  V30 24540 C 2271.19 -4.395 -0.868542 0
M  V30 24541 C 2272.94 -3.46939 -2.44609 0
M  V30 24542 C 2270.84 -5.67858 -1.65202 0
M  V30 24543 H 2269.77 -0.664173 -0.356917 0
M  V30 24544 H 2272.43 -1.82409 -0.199813 0
M  V30 24545 H 2270.81 -3.05387 -2.52101 0
M  V30 24546 H 2271.98 -4.60643 -0.120285 0
M  V30 24547 H 2270.3 -4.15545 -0.266757 0
M  V30 24548 H 2272.89 -4.40063 -3.03724 0
M  V30 24549 H 2273.24 -2.69361 -3.17412 0
M  V30 24550 H 2273.77 -3.58352 -1.72709 0
M  V30 24551 H 2270.51 -6.48324 -0.967293 0
M  V30 24552 H 2270.03 -5.50779 -2.37493 0
M  V30 24553 H 2271.71 -6.07972 -2.21312 0
M  V30 24554 N 2271.84 0.489844 -1.49794 0
M  V30 24555 C 2272.77 1.60821 -1.61901 0
M  V30 24556 C 2273.75 1.55729 -0.467678 0
M  V30 24557 O 2274.93 1.75624 -0.684713 0
M  V30 24558 C 2272.06 2.99363 -1.58428 0
M  V30 24559 C 2271.11 3.22677 -2.78894 0
M  V30 24560 S 2271.94 3.04594 -4.40435 0
M  V30 24561 C 2273.1 4.45512 -4.39624 0
M  V30 24562 H 2273.33 1.50308 -2.56505 0
M  V30 24563 H 2270.86 0.675824 -1.38824 0
M  V30 24564 H 2272.82 3.79245 -1.57109 0
M  V30 24565 H 2271.48 3.07281 -0.65092 0
M  V30 24566 H 2270.67 4.23843 -2.72715 0
M  V30 24567 H 2270.28 2.50536 -2.77683 0
M  V30 24568 H 2272.57 5.37807 -4.12031 0
M  V30 24569 H 2273.51 4.56739 -5.41105 0
M  V30 24570 H 2273.92 4.26714 -3.69561 0
M  V30 24571 N 2273.32 1.39056 0.741698 0
M  V30 24572 C 2274.57 1.35228 1.49654 0
M  V30 24573 C 2274.88 -0.0512365 1.95533 0
M  V30 24574 O 2276.09 -0.21209 2.7067 0
M  V30 24575 C 2274.54 2.3753 2.70384 0
M  V30 24576 C 2274.15 3.83562 2.31482 0
M  V30 24577 C 2275.89 2.42765 3.48232 0
M  V30 24578 C 2273.8 4.77521 3.48895 0
M  V30 24579 H 2272.73 0.502709 0.561961 0
M  V30 24580 H 2275.38 1.6467 0.809698 0
M  V30 24581 H 2273.76 2.01148 3.41109 0
M  V30 24582 H 2274.94 4.28948 1.68347 0
M  V30 24583 H 2273.25 3.81557 1.66742 0
M  V30 24584 H 2275.85 3.10158 4.35553 0
M  V30 24585 H 2276.19 1.45015 3.90226 0
M  V30 24586 H 2276.73 2.78007 2.8453 0
M  V30 24587 H 2273.46 5.7651 3.11956 0
M  V30 24588 H 2272.98 4.3682 4.11033 0
M  V30 24589 H 2274.66 4.96104 4.15319 0
M  V30 24590 N 2274.8 -0.971167 1.24121 0
M  V30 24591 C 2275.73 -2.08302 1.05511 0
M  V30 24592 C 2276.71 -1.70072 -0.0308565 0
M  V30 24593 O 2277.89 -1.93726 0.135556 0
M  V30 24594 C 2275.02 -3.41059 0.655425 0
M  V30 24595 C 2273.98 -3.93231 1.68978 0
M  V30 24596 C 2273.3 -5.22291 1.14525 0
M  V30 24597 C 2274.6 -4.2146 3.08494 0
M  V30 24598 H 2276.3 -2.24129 1.98511 0
M  V30 24599 H 2273.84 -1.07702 0.95584 0
M  V30 24600 H 2275.79 -4.18275 0.512243 0
M  V30 24601 H 2274.52 -3.25123 -0.310263 0
M  V30 24602 H 2273.18 -3.18168 1.82111 0
M  V30 24603 H 2272.83 -5.02712 0.170277 0
M  V30 24604 H 2272.53 -5.58165 1.83645 0
M  V30 24605 H 2274.05 -6.0212 1.01412 0
M  V30 24606 H 2275.46 -4.89393 2.98609 0
M  V30 24607 H 2273.86 -4.68555 3.74935 0
M  V30 24608 H 2274.93 -3.2837 3.56793 0
M  V30 24609 N 2276.27 -1.05441 -1.17133 0
M  V30 24610 C 2277.52 -0.761081 -1.8679 0
M  V30 24611 C 2277.84 0.714763 -1.82073 0
M  V30 24612 O 2279.04 1.12213 -2.47225 0
M  V30 24613 C 2277.5 -1.31123 -3.35164 0
M  V30 24614 C 2277.11 -2.8167 -3.48376 0
M  V30 24615 C 2278.85 -1.09506 -4.10133 0
M  V30 24616 C 2276.76 -3.29972 -4.90787 0
M  V30 24617 H 2275.69 -0.281015 -0.699676 0
M  V30 24618 H 2278.34 -1.27202 -1.32257 0
M  V30 24619 H 2276.72 -0.728098 -3.89249 0
M  V30 24620 H 2277.89 -3.4586 -3.04496 0
M  V30 24621 H 2276.21 -3.01856 -2.86831 0
M  V30 24622 H 2278.81 -1.43093 -5.15198 0
M  V30 24623 H 2279.15 -0.0329504 -4.16287 0
M  V30 24624 H 2279.68 -1.64353 -3.62261 0
M  V30 24625 H 2276.42 -4.35624 -4.89808 0
M  V30 24626 H 2275.94 -2.70526 -5.35328 0
M  V30 24627 H 2277.62 -3.24797 -5.59568 0
M  V30 24628 N 2277.75 1.33613 -0.835776 0
M  V30 24629 C 2278.99 1.99695 -0.436025 0
M  V30 24630 C 2279.36 1.64776 0.985541 0
M  V30 24631 O 2280.56 2.238 1.48885 0
M  V30 24632 C 2278.83 3.51499 -0.646783 0
M  V30 24633 S 2280.39 4.37467 -0.341792 0
M  V30 24634 H 2277.21 0.691792 -0.164148 0
M  V30 24635 H 2279.81 1.62669 -1.08439 0
M  V30 24636 H 2278.51 3.74401 -1.68083 0
M  V30 24637 H 2278.04 3.93397 0.0158482 0
M  V30 24638 H 2280.06 4.89045 0.839622 0
M  V30 24639 N 2279.23 0.591922 1.46062 0
M  V30 24640 C 2280.16 -0.123632 2.33172 0
M  V30 24641 C 2281.14 -0.874505 1.45899 0
M  V30 24642 O 2282.33 -0.84815 1.747 0
M  V30 24643 C 2279.46 -1.13188 3.28338 0
M  V30 24644 C 2278.41 -0.495249 4.25125 0
M  V30 24645 C 2277.74 -1.61063 5.09866 0
M  V30 24646 C 2279.04 0.573516 5.19142 0
M  V30 24647 H 2280.73 0.603698 2.9325 0
M  V30 24648 H 2278.28 0.291766 1.41013 0
M  V30 24649 H 2280.23 -1.6409 3.8814 0
M  V30 24650 H 2278.95 -1.8896 2.66386 0
M  V30 24651 H 2277.61 -0.00723008 3.66599 0
M  V30 24652 H 2277.26 -2.35824 4.44293 0
M  V30 24653 H 2276.96 -1.19025 5.75419 0
M  V30 24654 H 2278.48 -2.12223 5.72533 0
M  V30 24655 H 2279.9 0.149201 5.73106 0
M  V30 24656 H 2278.3 0.91474 5.93087 0
M  V30 24657 H 2279.37 1.45625 4.62516 0
M  V30 24658 N 2280.71 -1.54102 0.330204 0
M  V30 24659 C 2281.66 -2.26048 -0.548186 0
M  V30 24660 C 2282.65 -1.277 -1.11306 0
M  V30 24661 O 2283.86 -1.45454 -1.06034 0
M  V30 24662 H 2280.23 -0.726158 -0.195443 0
M  V30 24663 H 2282.2 -2.98291 0.0808092 0
M  V30 24664 C 2280.95 -3.03637 -1.6941 0
M  V30 24665 H 2280.27 -3.79136 -1.2687 0
M  V30 24666 H 2281.71 -3.57214 -2.28417 0
M  V30 24667 C 2280.17 -2.12333 -2.61565 0
M  V30 24668 O 2280.7 -1.71056 -3.63459 0
M  V30 24669 N 2278.91 -1.77685 -2.29949 0
M  V30 24670 H 2278.46 -2.11448 -1.4713 0
M  V30 24671 H 2278.41 -1.16874 -2.91869 0
M  V30 24672 N 2282.19 -0.0585199 -1.57491 0
M  V30 24673 C 2283.12 0.948933 -2.07534 0
M  V30 24674 C 2284.1 1.2994 -0.977467 0
M  V30 24675 O 2285.28 1.411 -1.24992 0
M  V30 24676 C 2282.41 2.26086 -2.52196 0
M  V30 24677 C 2281.45 2.06291 -3.73291 0
M  V30 24678 S 2282.29 1.33449 -5.18605 0
M  V30 24679 C 2283.44 2.6595 -5.66588 0
M  V30 24680 H 2283.68 0.523067 -2.92662 0
M  V30 24681 H 2281.21 0.153927 -1.53631 0
M  V30 24682 H 2283.17 3.01493 -2.7859 0
M  V30 24683 H 2281.83 2.65799 -1.67361 0
M  V30 24684 H 2281.02 3.0335 -4.02486 0
M  V30 24685 H 2280.62 1.39023 -3.47201 0
M  V30 24686 H 2282.92 3.62091 -5.72622 0
M  V30 24687 H 2283.86 2.41382 -6.65688 0
M  V30 24688 H 2284.27 2.72546 -4.94347 0
M  V30 24689 N 2283.66 1.56128 0.21493 0
M  V30 24690 C 2284.91 1.79713 0.93973 0
M  V30 24691 C 2285.24 0.629279 1.83722 0
M  V30 24692 O 2284.52 -0.371163 1.90926 0
M  V30 24693 C 2284.8 3.13427 1.773 0
M  V30 24694 C 2284.65 4.40672 0.901562 0
M  V30 24695 C 2285.97 3.43643 2.7495 0
M  V30 24696 H 2283.09 0.653782 0.340203 0
M  V30 24697 H 2285.73 1.88856 0.208207 0
M  V30 24698 H 2283.88 3.05764 2.39667 0
M  V30 24699 H 2285.56 4.60361 0.294125 0
M  V30 24700 H 2283.8 4.33304 0.207291 0
M  V30 24701 H 2284.47 5.30685 1.51913 0
M  V30 24702 H 2286.95 3.51477 2.22717 0
M  V30 24703 H 2285.82 4.38361 3.3035 0
M  V30 24704 H 2286.08 2.66141 3.53018 0
M  V30 24705 N 2285.14 -0.481893 1.50052 0
M  V30 24706 C 2286.37 -1.25829 1.64239 0
M  V30 24707 C 2286.79 -1.86045 0.321369 0
M  V30 24708 O 2286.14 -1.6873 -0.695448 0
M  V30 24709 C 2286.19 -2.37482 2.72552 0
M  V30 24710 O 2285.91 -1.79738 3.99532 0
M  V30 24711 C 2287.42 -3.28541 2.97616 0
M  V30 24712 H 2284.64 -0.380947 0.552377 0
M  V30 24713 H 2287.18 -0.576433 1.96208 0
M  V30 24714 H 2285.33 -3.01463 2.43308 0
M  V30 24715 H 2285.75 -2.53182 4.59347 0
M  V30 24716 H 2287.22 -4.0312 3.77092 0
M  V30 24717 H 2287.7 -3.8668 2.08266 0
M  V30 24718 H 2288.31 -2.70308 3.2835 0
M  V30 24719 N 2286.62 -1.39448 -0.734313 0
M  V30 24720 C 2287.55 -1.32612 -1.85713 0
M  V30 24721 C 2288.53 -0.199665 -1.61369 0
M  V30 24722 O 2289.72 -0.380228 -1.84625 0
M  V30 24723 C 2286.84 -1.05934 -3.21707 0
M  V30 24724 C 2285.89 -2.20779 -3.64909 0
M  V30 24725 S 2286.72 -3.83063 -3.74197 0
M  V30 24726 C 2287.88 -3.58612 -5.1298 0
M  V30 24727 H 2288.11 -2.27638 -1.91228 0
M  V30 24728 H 2285.64 -1.25511 -0.899241 0
M  V30 24729 H 2287.6 -0.912273 -4.00235 0
M  V30 24730 H 2286.26 -0.125938 -3.13847 0
M  V30 24731 H 2285.46 -1.97708 -4.63603 0
M  V30 24732 H 2285.06 -2.31693 -2.93589 0
M  V30 24733 H 2287.35 -3.1592 -5.99334 0
M  V30 24734 H 2288.29 -4.56769 -5.4108 0
M  V30 24735 H 2288.7 -2.92698 -4.82688 0
M  V30 24736 N 2288.1 0.964571 -1.24635 0
M  V30 24737 C 2289.03 2.05861 -0.984698 0
M  V30 24738 C 2290.01 1.6239 0.0826268 0
M  V30 24739 O 2291.19 1.8842 -0.0549627 0
M  V30 24740 C 2288.32 3.35187 -0.486587 0
M  V30 24741 C 2287.37 3.97613 -1.54293 0
M  V30 24742 S 2288.2 4.34846 -3.12521 0
M  V30 24743 C 2289.36 5.67303 -2.6442 0
M  V30 24744 H 2289.59 2.27739 -1.91108 0
M  V30 24745 H 2287.12 1.10289 -1.08054 0
M  V30 24746 H 2289.08 4.09984 -0.205829 0
M  V30 24747 H 2287.74 3.11291 0.419131 0
M  V30 24748 H 2286.93 4.90824 -1.14489 0
M  V30 24749 H 2286.54 3.29257 -1.77386 0
M  V30 24750 H 2288.83 6.44965 -2.07427 0
M  V30 24751 H 2289.77 6.11967 -3.56233 0
M  V30 24752 H 2290.18 5.26061 -2.04743 0
M  V30 24753 N 2289.58 1.0606 1.16572 0
M  V30 24754 C 2290.82 0.777055 1.87322 0
M  V30 24755 C 2291.16 -0.694613 1.81353 0
M  V30 24756 O 2290.43 -1.50869 1.22756 0
M  V30 24757 C 2290.71 1.26928 3.36989 0
M  V30 24758 C 2290.57 2.80453 3.51662 0
M  V30 24759 C 2291.89 0.875286 4.31308 0
M  V30 24760 H 2289 0.283752 0.680187 0
M  V30 24761 H 2291.65 1.31612 1.37034 0
M  V30 24762 H 2289.8 0.810697 3.79947 0
M  V30 24763 H 2291.47 3.34501 3.17658 0
M  V30 24764 H 2289.71 3.19299 2.9365 0
M  V30 24765 H 2290.38 3.09958 4.56761 0
M  V30 24766 H 2292.86 1.27021 3.96238 0
M  V30 24767 H 2291.73 1.24719 5.34543 0
M  V30 24768 H 2292 -0.219994 4.41552 0
M  V30 24769 N 2291.06 -1.33168 0.84285 0
M  V30 24770 C 2291.97 -2.32905 0.281485 0
M  V30 24771 C 2292.98 -1.63527 -0.594558 0
M  V30 24772 O 2294.16 -1.95153 -0.497735 0
M  V30 24773 C 2291.22 -3.42612 -0.530869 0
M  V30 24774 C 2290.28 -4.27703 0.369918 0
M  V30 24775 C 2289.52 -5.32171 -0.40376 0
M  V30 24776 O 2289.74 -5.46464 -1.63504 0
M  V30 24777 O 2288.67 -6.01482 0.224305 0
M  V30 24778 H 2292.5 -2.82787 1.10749 0
M  V30 24779 H 2290.08 -1.36581 0.605474 0
M  V30 24780 H 2291.97 -4.09549 -0.992365 0
M  V30 24781 H 2290.64 -2.9494 -1.33387 0
M  V30 24782 H 2289.55 -3.63619 0.879339 0
M  V30 24783 H 2290.88 -4.78869 1.13779 0
M  V30 24784 N 2292.53 -0.599659 -1.45746 0
M  V30 24785 C 2293.76 -0.0978914 -2.06668 0
M  V30 24786 C 2294.18 1.21436 -1.44564 0
M  V30 24787 O 2293.53 1.73794 -0.556953 0
M  V30 24788 C 2293.58 0.0566409 -3.61456 0
M  V30 24789 O 2293.31 -1.20369 -4.2124 0
M  V30 24790 C 2294.81 0.590791 -4.39346 0
M  V30 24791 H 2292.03 -0.0652061 -0.667824 0
M  V30 24792 H 2294.57 -0.825143 -1.87114 0
M  V30 24793 H 2292.73 0.734184 -3.80379 0
M  V30 24794 H 2293.14 -1.0283 -5.14321 0
M  V30 24795 H 2294.61 0.648035 -5.48183 0
M  V30 24796 H 2295.09 1.6114 -4.08571 0
M  V30 24797 H 2295.7 -0.0524427 -4.25268 0
M  V30 24798 N 2294.01 1.53925 -0.338371 0
M  V30 24799 C 2295.29 1.93051 0.31474 0
M  V30 24800 C 2295.67 1.26944 1.68667 0
M  V30 24801 O 2295.02 0.418484 2.24635 0
M  V30 24802 C 2295.23 3.46789 0.392188 0
M  V30 24803 C 2296.57 4.19665 0.645481 0
M  V30 24804 O 2297.6 3.53025 0.474513 0
M  V30 24805 O 2296.46 5.37708 0.976314 0
M  V30 24806 H 2293.55 0.806593 0.182584 0
M  V30 24807 H 2296.1 1.65177 -0.38917 0
M  V30 24808 H 2294.87 3.87115 -0.57077 0
M  V30 24809 H 2294.49 3.80814 1.14309 0
M  V30 24810 N 2295.49 0.0668712 1.57458 0
M  V30 24811 C 2296.77 -0.6441 1.84691 0
M  V30 24812 C 2297.15 -1.88091 0.958376 0
M  V30 24813 O 2296.49 -2.28488 0.0233981 0
M  V30 24814 C 2296.7 -0.986451 3.34769 0
M  V30 24815 C 2298.05 -1.36205 4.02161 0
M  V30 24816 O 2299.08 -1.07833 3.39486 0
M  V30 24817 O 2297.94 -1.89218 5.12698 0
M  V30 24818 H 2295.03 -0.319424 0.762822 0
M  V30 24819 H 2297.58 0.0974284 1.6942 0
M  V30 24820 H 2296.35 -0.107814 3.91151 0
M  V30 24821 H 2295.97 -1.78491 3.55284 0
M  V30 24822 N 2296.97 -1.56239 -0.206647 0
M  V30 24823 C 2297.9 -1.90132 -1.27994 0
M  V30 24824 C 2298.91 -0.790908 -1.42297 0
M  V30 24825 O 2300.1 -1.06928 -1.42929 0
M  V30 24826 C 2297.2 -2.10796 -2.65364 0
M  V30 24827 C 2296.37 -3.41891 -2.72818 0
M  V30 24828 C 2295.43 -3.51806 -3.91304 0
M  V30 24829 O 2294.46 -4.24722 -3.78946 0
M  V30 24830 N 2295.66 -2.84043 -5.0626 0
M  V30 24831 H 2298.43 -2.82793 -0.992394 0
M  V30 24832 H 2295.99 -1.56967 -0.396624 0
M  V30 24833 H 2297.98 -2.1473 -3.43035 0
M  V30 24834 H 2296.55 -1.2469 -2.86655 0
M  V30 24835 H 2295.77 -3.49926 -1.81509 0
M  V30 24836 H 2297.06 -4.28222 -2.74779 0
M  V30 24837 H 2296.46 -2.24609 -5.19199 0
M  V30 24838 H 2295.01 -2.93619 -5.8192 0
M  V30 24839 N 2298.45 0.473929 -1.50305 0
M  V30 24840 C 2299.67 1.25424 -1.65178 0
M  V30 24841 C 2300.1 1.85116 -0.333706 0
M  V30 24842 O 2299.45 1.67154 0.702085 0
M  V30 24843 C 2299.5 2.34077 -2.74299 0
M  V30 24844 O 2298.61 3.38647 -2.35355 0
M  V30 24845 H 2297.95 0.369117 -0.55195 0
M  V30 24846 H 2300.48 0.56433 -1.96663 0
M  V30 24847 H 2300.49 2.79432 -2.9729 0
M  V30 24848 H 2299.16 1.90001 -3.69963 0
M  V30 24849 H 2297.74 2.99023 -2.228 0
M  V30 24850 N 2299.92 1.39835 0.726907 0
M  V30 24851 C 2300.86 1.35108 1.85145 0
M  V30 24852 C 2301.87 0.25842 1.60736 0
M  V30 24853 O 2303.06 0.517961 1.7082 0
M  V30 24854 C 2300.16 1.07703 3.21331 0
M  V30 24855 C 2299.33 2.28403 3.73029 0
M  V30 24856 C 2298.39 1.97331 4.87798 0
M  V30 24857 O 2297.42 2.70092 5.01038 0
M  V30 24858 N 2298.62 0.944373 5.72767 0
M  V30 24859 H 2301.38 2.3202 1.89702 0
M  V30 24860 H 2298.94 1.34042 0.907983 0
M  V30 24861 H 2300.94 0.849213 3.9569 0
M  V30 24862 H 2299.51 0.194964 3.11991 0
M  V30 24863 H 2298.73 2.67085 2.8993 0
M  V30 24864 H 2300.01 3.08894 4.04304 0
M  V30 24865 H 2299.41 0.341526 5.64668 0
M  V30 24866 H 2297.97 0.77646 6.47159 0
M  V30 24867 N 2301.4 -0.957948 1.25144 0
M  V30 24868 C 2302.31 -2.08792 1.06971 0
M  V30 24869 C 2303.33 -1.73998 0.00776969 0
M  V30 24870 O 2304.5 -2.00323 0.208008 0
M  V30 24871 C 2301.57 -3.39826 0.68697 0
M  V30 24872 C 2300.63 -3.88508 1.82648 0
M  V30 24873 C 2299.86 -5.13287 1.4619 0
M  V30 24874 O 2300.09 -5.69288 0.356071 0
M  V30 24875 O 2299.02 -5.56596 2.29094 0
M  V30 24876 H 2302.85 -2.27024 2.01727 0
M  V30 24877 H 2300.43 -1.07207 1.04053 0
M  V30 24878 H 2302.31 -4.18594 0.485491 0
M  V30 24879 H 2300.99 -3.22872 -0.23136 0
M  V30 24880 H 2299.89 -3.10758 2.08279 0
M  V30 24881 H 2301.23 -4.09954 2.72394 0
M  V30 24882 N 2302.88 -1.06677 -1.16008 0
M  V30 24883 C 2303.81 -0.625206 -2.19468 0
M  V30 24884 C 2304.79 0.354014 -1.58699 0
M  V30 24885 O 2305.97 0.262065 -1.86669 0
M  V30 24886 C 2303.1 0.0828998 -3.38599 0
M  V30 24887 C 2302.15 -0.853684 -4.17869 0
M  V30 24888 S 2302.98 -2.35102 -4.81131 0
M  V30 24889 C 2304.14 -1.65452 -6.03636 0
M  V30 24890 H 2304.37 -1.50172 -2.56584 0
M  V30 24891 H 2301.9 -0.8801 -1.26861 0
M  V30 24892 H 2303.86 0.485216 -4.07622 0
M  V30 24893 H 2302.52 0.935663 -2.9984 0
M  V30 24894 H 2301.71 -0.304843 -5.03077 0
M  V30 24895 H 2301.32 -1.19606 -3.54359 0
M  V30 24896 H 2303.61 -0.962319 -6.70631 0
M  V30 24897 H 2304.55 -2.48465 -6.63077 0
M  V30 24898 H 2304.96 -1.13544 -5.52963 0
M  V30 24899 N 2304.36 1.32719 -0.8499 0
M  V30 24900 C 2305.59 2.01612 -0.464789 0
M  V30 24901 C 2306 1.63898 0.937163 0
M  V30 24902 O 2305.36 0.857885 1.61079 0
M  V30 24903 C 2305.41 3.56674 -0.588701 0
M  V30 24904 O 2305.13 3.93031 -1.93542 0
M  V30 24905 C 2306.63 4.4284 -0.201977 0
M  V30 24906 H 2303.85 0.645499 -0.183227 0
M  V30 24907 H 2306.39 1.69405 -1.14553 0
M  V30 24908 H 2304.55 3.87375 0.0442478 0
M  V30 24909 H 2304.96 4.87747 -1.9288 0
M  V30 24910 H 2306.44 5.50954 -0.339696 0
M  V30 24911 H 2306.91 4.30755 0.857149 0
M  V30 24912 H 2307.52 4.17519 -0.809806 0
M  V30 24913 N 2305.84 0.60738 1.45426 0
M  V30 24914 C 2306.78 -0.12407 2.32269 0
M  V30 24915 C 2307.78 -0.859829 1.45957 0
M  V30 24916 O 2308.98 -0.775418 1.62442 0
M  V30 24917 H 2305.36 -0.0588707 0.749692 0
M  V30 24918 H 2307.33 0.626813 2.91742 0
M  V30 24919 C 2306.08 -1.10815 3.29569 0
M  V30 24920 H 2305.4 -0.551422 3.95979 0
M  V30 24921 H 2306.84 -1.58988 3.93063 0
M  V30 24922 C 2305.3 -2.1816 2.56725 0
M  V30 24923 O 2305.83 -3.25898 2.34848 0
M  V30 24924 N 2304.04 -1.93438 2.16864 0
M  V30 24925 H 2303.58 -1.0583 2.34857 0
M  V30 24926 H 2303.54 -2.65466 1.68449 0
M  V30 24927 N 2307.31 -1.53743 0.34653 0
M  V30 24928 C 2308.56 -2.00144 -0.250087 0
M  V30 24929 C 2308.88 -1.23825 -1.51416 0
M  V30 24930 O 2310.08 -1.60717 -2.1882 0
M  V30 24931 C 2308.54 -3.56463 -0.49619 0
M  V30 24932 C 2308.15 -4.41641 0.752155 0
M  V30 24933 C 2309.89 -4.11271 -1.0515 0
M  V30 24934 C 2307.8 -5.89476 0.476687 0
M  V30 24935 H 2306.73 -0.747705 -0.0972278 0
M  V30 24936 H 2309.38 -1.77581 0.462321 0
M  V30 24937 H 2307.76 -3.75104 -1.26938 0
M  V30 24938 H 2308.93 -4.34775 1.52667 0
M  V30 24939 H 2307.25 -3.9784 1.22932 0
M  V30 24940 H 2309.85 -5.19335 -1.2726 0
M  V30 24941 H 2310.19 -3.64675 -2.00793 0
M  V30 24942 H 2310.72 -3.96353 -0.338949 0
M  V30 24943 H 2307.46 -6.40311 1.40292 0
M  V30 24944 H 2306.98 -5.99238 -0.259688 0
M  V30 24945 H 2308.66 -6.4693 0.0950452 0
M  V30 24946 N 2308.79 -0.0752207 -1.5742 0
M  V30 24947 C 2309.72 0.888286 -2.15944 0
M  V30 24948 C 2310.7 1.30804 -1.08739 0
M  V30 24949 O 2311.89 1.37848 -1.3679 0
M  V30 24950 C 2309.02 2.15465 -2.72382 0
M  V30 24951 C 2307.97 1.87418 -3.84784 0
M  V30 24952 C 2307.3 3.20714 -4.2784 0
M  V30 24953 C 2308.6 1.17675 -5.08871 0
M  V30 24954 H 2310.29 0.400747 -2.96706 0
M  V30 24955 H 2307.84 0.191317 -1.42723 0
M  V30 24956 H 2309.79 2.83289 -3.1197 0
M  V30 24957 H 2308.52 2.66467 -1.88846 0
M  V30 24958 H 2307.17 1.21998 -3.45705 0
M  V30 24959 H 2306.82 3.69564 -3.41221 0
M  V30 24960 H 2306.52 3.02738 -5.03611 0
M  V30 24961 H 2308.05 3.8973 -4.70046 0
M  V30 24962 H 2309.46 1.75574 -5.45753 0
M  V30 24963 H 2307.86 1.09946 -5.89942 0
M  V30 24964 H 2308.93 0.156368 -4.84648 0
M  V30 24965 N 2310.27 1.56347 0.198358 0
M  V30 24966 C 2311.5 1.84273 0.934183 0
M  V30 24967 C 2311.91 0.655156 1.77495 0
M  V30 24968 O 2311.25 -0.385456 1.7961 0
M  V30 24969 C 2311.31 3.06257 1.88273 0
M  V30 24970 C 2310.98 4.40297 1.22423 0
M  V30 24971 C 2311.97 5.16394 0.602748 0
M  V30 24972 C 2309.66 4.87031 1.22906 0
M  V30 24973 C 2311.65 6.374 -0.00512033 0
M  V30 24974 C 2309.34 6.07974 0.617358 0
M  V30 24975 C 2310.34 6.83 0.00134335 0
M  V30 24976 O 2310.03 8.01652 -0.600783 0
M  V30 24977 H 2309.76 0.616086 0.278234 0
M  V30 24978 H 2312.31 2.04307 0.21159 0
M  V30 24979 H 2310.54 2.821 2.64493 0
M  V30 24980 H 2312.23 3.20858 2.48606 0
M  V30 24981 H 2313 4.81383 0.59118 0
M  V30 24982 H 2308.88 4.28592 1.69794 0
M  V30 24983 H 2312.42 6.95901 -0.486553 0
M  V30 24984 H 2308.32 6.42453 0.626417 0
M  V30 24985 H 2309.09 8.16987 -0.497369 0
M  V30 24986 N 2311.75 -0.465951 1.50554 0
M  V30 24987 C 2312.99 -1.21656 1.63008 0
M  V30 24988 C 2313.35 -1.89572 0.328647 0
M  V30 24989 O 2312.64 -1.79362 -0.673781 0
M  V30 24990 C 2312.84 -2.28088 2.75156 0
M  V30 24991 C 2312.67 -1.70613 4.16078 0
M  V30 24992 C 2311.44 -1.50359 4.82411 0
M  V30 24993 C 2313.63 -1.19821 5.00147 0
M  V30 24994 N 2311.62 -0.881817 6.07534 0
M  V30 24995 C 2312.99 -0.699975 6.16036 0
M  V30 24996 C 2315.04 -1.08725 4.85884 0
M  V30 24997 C 2313.74 -0.101708 7.19228 0
M  V30 24998 C 2315.77 -0.502912 5.89258 0
M  V30 24999 C 2315.13 -0.0150767 7.04398 0
M  V30 25000 H 2311.23 -0.433865 0.650604 0
M  V30 25001 H 2313.82 -0.517713 1.87691 0
M  V30 25002 H 2311.99 -2.95393 2.52186 0
M  V30 25003 H 2313.72 -2.95104 2.7694 0
M  V30 25004 H 2310.47 -1.7573 4.39791 0
M  V30 25005 H 2310.9 -0.589194 6.74431 0
M  V30 25006 H 2315.54 -1.45033 3.97146 0
M  V30 25007 H 2313.26 0.273567 8.07637 0
M  V30 25008 H 2316.84 -0.419349 5.80287 0
M  V30 25009 H 2315.72 0.429994 7.8302 0
M  V30 25010 N 2313.23 -1.40218 -0.719481 0
M  V30 25011 C 2314.48 -1.37592 -1.47484 0
M  V30 25012 C 2314.79 0.0201224 -1.9559 0
M  V30 25013 O 2315.99 0.169002 -2.70973 0
M  V30 25014 C 2314.45 -2.41801 -2.66571 0
M  V30 25015 C 2314.06 -3.87196 -2.25351 0
M  V30 25016 C 2315.8 -2.48275 -3.44325 0
M  V30 25017 C 2313.71 -4.83011 -3.41254 0
M  V30 25018 H 2312.64 -0.511585 -0.553892 0
M  V30 25019 H 2315.29 -1.65937 -0.783398 0
M  V30 25020 H 2313.67 -2.06549 -3.37866 0
M  V30 25021 H 2314.85 -4.31571 -1.61501 0
M  V30 25022 H 2313.16 -3.84162 -1.60651 0
M  V30 25023 H 2315.76 -3.17048 -4.30563 0
M  V30 25024 H 2316.1 -1.51205 -3.8787 0
M  V30 25025 H 2316.63 -2.82498 -2.80071 0
M  V30 25026 H 2313.37 -5.814 -3.02745 0
M  V30 25027 H 2312.89 -4.43304 -4.04032 0
M  V30 25028 H 2314.57 -5.02648 -4.07374 0
M  V30 25029 N 2314.7 0.951297 -1.25651 0
M  V30 25030 C 2315.65 2.0698 -1.06122 0
M  V30 25031 C 2316.65 1.69398 0.00886191 0
M  V30 25032 O 2317.85 1.79399 -0.14702 0
M  V30 25033 H 2314.23 0.677538 -0.32626 0
M  V30 25034 H 2316.2 2.20607 -2.00936 0
M  V30 25035 C 2314.95 3.40577 -0.700205 0
M  V30 25036 H 2314.27 3.69966 -1.51544 0
M  V30 25037 H 2315.71 4.19686 -0.603285 0
M  V30 25038 C 2314.17 3.31623 0.593972 0
M  V30 25039 O 2314.7 3.66914 1.63515 0
M  V30 25040 N 2312.91 2.84736 0.58084 0
M  V30 25041 H 2312.45 2.56214 -0.266829 0
M  V30 25042 H 2312.41 2.79128 1.4469 0
M  V30 25043 N 2316.18 1.07291 1.1544 0
M  V30 25044 C 2317.11 0.714146 2.22311 0
M  V30 25045 C 2318.09 -0.298126 1.67467 0
M  V30 25046 O 2319.28 -0.171014 1.93446 0
M  V30 25047 C 2316.41 0.110509 3.47124 0
M  V30 25048 C 2315.36 1.04987 4.14924 0
M  V30 25049 C 2314.69 0.309018 5.33806 0
M  V30 25050 C 2315.99 2.38322 4.64758 0
M  V30 25051 H 2317.68 1.60765 2.52577 0
M  V30 25052 H 2315.23 0.774431 1.21402 0
M  V30 25053 H 2317.18 -0.152408 4.21124 0
M  V30 25054 H 2315.91 -0.818065 3.16189 0
M  V30 25055 H 2314.56 1.2977 3.42864 0
M  V30 25056 H 2314.21 -0.622997 4.99127 0
M  V30 25057 H 2313.91 0.935138 5.80111 0
M  V30 25058 H 2315.44 0.0538844 6.10576 0
M  V30 25059 H 2316.85 2.17869 5.30289 0
M  V30 25060 H 2315.25 2.96523 5.21722 0
M  V30 25061 H 2316.32 3.00669 3.80429 0
M  V30 25062 N 2317.66 -1.32267 0.856927 0
M  V30 25063 C 2318.91 -1.97465 0.462104 0
M  V30 25064 C 2319.24 -1.67644 -0.980269 0
M  V30 25065 O 2318.51 -0.965888 -1.68822 0
M  V30 25066 C 2318.8 -3.53143 0.704398 0
M  V30 25067 C 2318.65 -3.92587 2.19536 0
M  V30 25068 C 2319.97 -4.39801 0.162278 0
M  V30 25069 H 2317.09 -0.717275 0.169369 0
M  V30 25070 H 2319.73 -1.56612 1.07577 0
M  V30 25071 H 2317.88 -3.88073 0.182067 0
M  V30 25072 H 2319.55 -3.67824 2.78394 0
M  V30 25073 H 2317.8 -3.41664 2.67298 0
M  V30 25074 H 2318.47 -5.01084 2.31557 0
M  V30 25075 H 2320.94 -4.1162 0.608978 0
M  V30 25076 H 2319.82 -5.47709 0.361361 0
M  V30 25077 H 2320.08 -4.32098 -0.935082 0
M  V30 25078 N 2319.14 -0.615084 -1.45102 0
M  V30 25079 C 2320.39 -0.113215 -2.02183 0
M  V30 25080 C 2320.71 1.25904 -1.48252 0
M  V30 25081 O 2319.97 1.8458 -0.650298 0
M  V30 25082 C 2320.27 -0.0319426 -3.57386 0
M  V30 25083 C 2319.93 -1.34084 -4.30502 0
M  V30 25084 C 2318.6 -1.69937 -4.50194 0
M  V30 25085 C 2320.95 -2.20555 -4.72234 0
M  V30 25086 C 2318.28 -2.91997 -5.08876 0
M  V30 25087 C 2320.63 -3.4187 -5.32266 0
M  V30 25088 C 2319.29 -3.77966 -5.5018 0
M  V30 25089 H 2318.56 -0.0414282 -0.739841 0
M  V30 25090 H 2321.21 -0.798199 -1.74072 0
M  V30 25091 H 2319.51 0.736341 -3.84818 0
M  V30 25092 H 2321.21 0.372642 -3.99265 0
M  V30 25093 H 2317.8 -1.05181 -4.15494 0
M  V30 25094 H 2321.98 -1.94154 -4.56747 0
M  V30 25095 H 2317.24 -3.2006 -5.20934 0
M  V30 25096 H 2321.41 -4.09119 -5.63555 0
M  V30 25097 H 2319.04 -4.72632 -5.95418 0
M  V30 25098 N 2320.62 1.53557 -0.354678 0
M  V30 25099 C 2321.87 2.00273 0.239469 0
M  V30 25100 C 2322.18 1.24626 1.50757 0
M  V30 25101 O 2323.39 1.61875 2.17965 0
M  V30 25102 C 2321.84 3.56721 0.477279 0
M  V30 25103 C 2321.45 4.41236 -0.775566 0
M  V30 25104 C 2323.19 4.11823 1.02968 0
M  V30 25105 C 2321.1 5.89215 -0.507942 0
M  V30 25106 H 2320.03 0.74821 0.0932611 0
M  V30 25107 H 2322.68 1.77333 -0.471732 0
M  V30 25108 H 2321.06 3.75772 1.24946 0
M  V30 25109 H 2322.24 4.33959 -1.54971 0
M  V30 25110 H 2320.55 3.97183 -1.2504 0
M  V30 25111 H 2323.15 5.20003 1.24504 0
M  V30 25112 H 2323.49 3.65735 1.98856 0
M  V30 25113 H 2324.03 3.96528 0.317925 0
M  V30 25114 H 2320.76 6.39558 -1.43685 0
M  V30 25115 H 2320.28 5.99367 0.227906 0
M  V30 25116 H 2321.96 6.46871 -0.129352 0
M  V30 25117 N 2322.1 0.083568 1.57378 0
M  V30 25118 C 2323.34 -0.583699 1.94218 0
M  V30 25119 C 2323.67 -1.68545 0.964683 0
M  V30 25120 O 2322.95 -1.945 -0.00418839 0
M  V30 25121 C 2323.23 -1.14966 3.41255 0
M  V30 25122 C 2323.09 -0.0537487 4.49768 0
M  V30 25123 C 2324.4 -2.05159 3.89356 0
M  V30 25124 H 2321.52 -0.210711 0.706236 0
M  V30 25125 H 2324.17 0.151933 1.89392 0
M  V30 25126 H 2322.32 -1.77659 3.45499 0
M  V30 25127 H 2323.99 0.579931 4.5764 0
M  V30 25128 H 2322.23 0.614144 4.29431 0
M  V30 25129 H 2322.9 -0.490355 5.49818 0
M  V30 25130 H 2325.38 -1.52387 3.87192 0
M  V30 25131 H 2324.25 -2.41689 4.92826 0
M  V30 25132 H 2324.51 -2.9645 3.27978 0
M  V30 25133 N 2323.57 -1.5645 -0.190064 0
M  V30 25134 C 2324.5 -1.97971 -1.23813 0
M  V30 25135 C 2325.48 -0.85242 -1.472 0
M  V30 25136 O 2326.67 -1.11712 -1.58852 0
M  V30 25137 C 2323.8 -2.32354 -2.58126 0
M  V30 25138 C 2322.75 -3.47868 -2.49342 0
M  V30 25139 C 2322.08 -3.67941 -3.87974 0
M  V30 25140 C 2323.38 -4.81901 -2.01416 0
M  V30 25141 H 2325.07 -2.85771 -0.89306 0
M  V30 25142 H 2322.62 -1.37488 -0.428153 0
M  V30 25143 H 2324.57 -2.59997 -3.31632 0
M  V30 25144 H 2323.3 -1.41443 -2.94383 0
M  V30 25145 H 2321.96 -3.20324 -1.78291 0
M  V30 25146 H 2321.6 -2.74352 -4.21592 0
M  V30 25147 H 2321.3 -4.45654 -3.8297 0
M  V30 25148 H 2322.83 -3.97965 -4.63094 0
M  V30 25149 H 2324.24 -5.08542 -2.64684 0
M  V30 25150 H 2322.64 -5.6312 -2.07403 0
M  V30 25151 H 2323.71 -4.75148 -0.967593 0
M  V30 25152 N 2325.05 0.45796 -1.50799 0
M  V30 25153 C 2326.3 1.20906 -1.62444 0
M  V30 25154 C 2326.63 1.91665 -0.330898 0
M  V30 25155 O 2325.88 1.83358 0.683978 0
M  V30 25156 C 2326.18 2.26625 -2.76362 0
M  V30 25157 C 2325.85 1.73026 -4.16381 0
M  V30 25158 C 2324.51 1.5813 -4.54476 0
M  V30 25159 C 2326.86 1.33405 -5.03838 0
M  V30 25160 C 2324.19 1.02055 -5.77756 0
M  V30 25161 C 2326.54 0.78767 -6.27677 0
M  V30 25162 C 2325.2 0.625444 -6.64563 0
M  V30 25163 H 2324.47 0.442425 -0.594425 0
M  V30 25164 H 2327.12 0.503103 -1.84773 0
M  V30 25165 H 2325.43 3.03179 -2.48172 0
M  V30 25166 H 2327.12 2.84523 -2.82573 0
M  V30 25167 H 2323.71 1.85591 -3.86334 0
M  V30 25168 H 2327.9 1.43742 -4.75028 0
M  V30 25169 H 2323.15 0.882441 -6.04998 0
M  V30 25170 H 2327.33 0.472055 -6.94798 0
M  V30 25171 H 2324.95 0.188792 -7.59966 0
M  V30 25172 N 2326.53 1.40598 0.712035 0
M  V30 25173 C 2327.76 1.4239 1.50109 0
M  V30 25174 C 2328.17 0.0245727 1.88784 0
M  V30 25175 O 2327.53 -0.952324 1.55683 0
M  V30 25176 C 2327.58 2.31781 2.77416 0
M  V30 25177 O 2327.3 3.66267 2.40375 0
M  V30 25178 C 2328.8 2.42203 3.71285 0
M  V30 25179 H 2326.02 0.485541 0.463132 0
M  V30 25180 H 2328.57 1.84691 0.878035 0
M  V30 25181 H 2326.72 1.92833 3.35997 0
M  V30 25182 H 2327.14 4.13778 3.22317 0
M  V30 25183 H 2328.61 3.08951 4.57442 0
M  V30 25184 H 2329.09 1.44817 4.14638 0
M  V30 25185 H 2329.69 2.81718 3.18614 0
M  V30 25186 N 2328.01 -0.94462 1.26153 0
M  V30 25187 C 2329.26 -1.68708 1.11274 0
M  V30 25188 C 2329.58 -1.91921 -0.345132 0
M  V30 25189 O 2328.85 -1.51345 -1.24384 0
M  V30 25190 H 2327.43 -0.625217 0.408794 0
M  V30 25191 H 2330.09 -1.13517 1.58429 0
M  V30 25192 H 2329.18 -2.66224 1.62884 0
M  V30 25193 N 2329.49 -1.07901 -1.1487 0
M  V30 25194 C 2330.4 -0.715954 -2.23408 0
M  V30 25195 C 2331.41 0.275275 -1.71809 0
M  V30 25196 O 2332.59 0.12051 -2.01039 0
M  V30 25197 C 2329.65 -0.125229 -3.46474 0
M  V30 25198 C 2328.71 -1.17041 -4.13037 0
M  V30 25199 C 2327.95 -0.607781 -5.30228 0
M  V30 25200 O 2328.17 0.574397 -5.67501 0
M  V30 25201 O 2327.1 -1.35536 -5.86441 0
M  V30 25202 H 2330.93 -1.62125 -2.56805 0
M  V30 25203 H 2328.51 -0.852344 -1.22701 0
M  V30 25204 H 2330.4 0.201655 -4.20917 0
M  V30 25205 H 2329.07 0.753309 -3.14813 0
M  V30 25206 H 2327.98 -1.54974 -3.40491 0
M  V30 25207 H 2329.31 -2.02105 -4.48792 0
M  V30 25208 N 2330.96 1.31811 -0.863929 0
M  V30 25209 C 2332.2 1.98725 -0.478285 0
M  V30 25210 C 2332.57 1.66829 0.950368 0
M  V30 25211 O 2333.77 2.26908 1.44105 0
M  V30 25212 C 2332.04 3.50048 -0.721195 0
M  V30 25213 S 2333.6 4.36643 -0.434509 0
M  V30 25214 H 2330.42 0.688155 -0.178785 0
M  V30 25215 H 2333.02 1.60332 -1.11865 0
M  V30 25216 H 2331.72 3.70752 -1.75987 0
M  V30 25217 H 2331.25 3.93342 -0.0676007 0
M  V30 25218 H 2333.27 4.90716 0.7357 0
M  V30 25219 N 2332.44 0.62277 1.44773 0
M  V30 25220 C 2333.69 0.124119 2.0242 0
M  V30 25221 C 2334.02 -1.24774 1.48812 0
M  V30 25222 O 2333.3 -1.82639 0.668831 0
M  V30 25223 C 2333.58 0.101682 3.59956 0
M  V30 25224 C 2333.43 1.50529 4.23865 0
M  V30 25225 C 2334.75 -0.578196 4.36285 0
M  V30 25226 H 2331.87 0.0465775 0.735527 0
M  V30 25227 H 2334.51 0.797647 1.72446 0
M  V30 25228 H 2332.66 -0.471866 3.85624 0
M  V30 25229 H 2334.33 2.12708 4.09332 0
M  V30 25230 H 2332.58 2.06161 3.81681 0
M  V30 25231 H 2333.25 1.44169 5.32841 0
M  V30 25232 H 2335.72 -0.0905326 4.16002 0
M  V30 25233 H 2334.6 -0.563053 5.46005 0
M  V30 25234 H 2334.86 -1.64706 4.10274 0
M  V30 25235 N 2333.92 -1.53367 0.362817 0
M  V30 25236 C 2334.85 -2.28577 -0.476936 0
M  V30 25237 C 2335.83 -1.30896 -1.08629 0
M  V30 25238 O 2337.02 -1.59763 -1.10406 0
M  V30 25239 C 2334.15 -3.07296 -1.61823 0
M  V30 25240 C 2333.1 -4.12642 -1.13626 0
M  V30 25241 C 2332.43 -4.79427 -2.36757 0
M  V30 25242 C 2333.73 -5.21824 -0.222969 0
M  V30 25243 H 2335.42 -2.99021 0.150526 0
M  V30 25244 H 2332.97 -1.43811 0.0738356 0
M  V30 25245 H 2334.92 -3.58657 -2.21231 0
M  V30 25246 H 2333.64 -2.34537 -2.27288 0
M  V30 25247 H 2332.3 -3.62222 -0.564881 0
M  V30 25248 H 2331.95 -4.03243 -3.00673 0
M  V30 25249 H 2331.65 -5.50612 -2.05182 0
M  V30 25250 H 2333.17 -5.33581 -2.96856 0
M  V30 25251 H 2334.59 -5.68704 -0.724445 0
M  V30 25252 H 2332.98 -6.001 0.00178349 0
M  V30 25253 H 2334.05 -4.79287 0.735638 0
M  V30 25254 N 2335.4 -0.091913 -1.57332 0
M  V30 25255 C 2336.35 0.868173 -2.13849 0
M  V30 25256 C 2337.32 1.28194 -1.0562 0
M  V30 25257 O 2338.5 1.36425 -1.3339 0
M  V30 25258 C 2335.64 2.12307 -2.72065 0
M  V30 25259 C 2334.75 1.76013 -3.94517 0
M  V30 25260 C 2333.89 2.96265 -4.40908 0
M  V30 25261 C 2332.93 2.56082 -5.55957 0
M  V30 25262 N 2332.06 3.69159 -5.97215 0
M  V30 25263 H 2336.9 0.379354 -2.95576 0
M  V30 25264 H 2334.44 0.17558 -1.46048 0
M  V30 25265 H 2336.4 2.85795 -3.03936 0
M  V30 25266 H 2335.03 2.58695 -1.93072 0
M  V30 25267 H 2334.08 0.92507 -3.68981 0
M  V30 25268 H 2335.39 1.42464 -4.78022 0
M  V30 25269 H 2334.55 3.78009 -4.74546 0
M  V30 25270 H 2333.29 3.33022 -3.56297 0
M  V30 25271 H 2332.29 1.72764 -5.21951 0
M  V30 25272 H 2333.52 2.20473 -6.42315 0
M  V30 25273 H 2331.46 4.0564 -5.1555 0
M  V30 25274 H 2331.38 3.39444 -6.7551 0
M  V30 25275 H 2332.65 4.51423 -6.35482 0
M  V30 25276 N 2336.88 1.56548 0.181765 0
M  V30 25277 C 2337.81 1.98625 1.22761 0
M  V30 25278 C 2338.79 0.860215 1.46746 0
M  V30 25279 O 2339.97 1.12553 1.58257 0
M  V30 25280 C 2337.1 2.3372 2.5689 0
M  V30 25281 C 2336.06 3.49186 2.47494 0
M  V30 25282 C 2335.38 3.69993 3.86017 0
M  V30 25283 C 2336.68 4.82963 1.98857 0
M  V30 25284 H 2338.38 2.8624 0.877892 0
M  V30 25285 H 2335.92 1.37713 0.420856 0
M  V30 25286 H 2337.88 2.61752 3.30248 0
M  V30 25287 H 2336.6 1.43002 2.93629 0
M  V30 25288 H 2335.26 3.21265 1.7659 0
M  V30 25289 H 2334.91 2.76584 4.20132 0
M  V30 25290 H 2334.61 4.47679 3.80601 0
M  V30 25291 H 2336.13 4.00415 4.60977 0
M  V30 25292 H 2337.54 5.09939 2.61983 0
M  V30 25293 H 2335.94 5.64212 2.04414 0
M  V30 25294 H 2337.01 4.75654 0.942381 0
M  V30 25295 N 2338.35 -0.449957 1.5104 0
M  V30 25296 C 2339.6 -1.19731 1.62319 0
M  V30 25297 C 2339.92 -1.92638 0.339135 0
M  V30 25298 O 2341.12 -2.69473 0.331116 0
M  V30 25299 C 2339.58 -2.17673 2.86612 0
M  V30 25300 C 2339.19 -1.50472 4.21974 0
M  V30 25301 C 2340.93 -2.92919 3.07244 0
M  V30 25302 C 2338.84 -2.46824 5.37431 0
M  V30 25303 H 2337.77 -0.450608 0.60454 0
M  V30 25304 H 2340.42 -0.465593 1.77495 0
M  V30 25305 H 2338.8 -2.94226 2.65042 0
M  V30 25306 H 2339.97 -0.795636 4.53879 0
M  V30 25307 H 2338.29 -0.874273 4.07118 0
M  V30 25308 H 2340.89 -3.65072 3.90675 0
M  V30 25309 H 2341.23 -3.53536 2.19813 0
M  V30 25310 H 2341.76 -2.23475 3.29095 0
M  V30 25311 H 2338.5 -1.90915 6.27082 0
M  V30 25312 H 2338.02 -3.15823 5.09918 0
M  V30 25313 H 2339.7 -3.08218 5.68868 0
M  V30 25314 N 2339.83 -1.40974 -0.704569 0
M  V30 25315 C 2341.06 -1.4338 -1.49856 0
M  V30 25316 C 2341.48 -0.0382171 -1.88061 0
M  V30 25317 O 2340.84 0.956398 -1.54022 0
M  V30 25318 C 2340.89 -2.34043 -2.74329 0
M  V30 25319 O 2339.99 -1.79127 -3.71466 0
M  V30 25320 H 2339.33 -0.486982 -0.451381 0
M  V30 25321 H 2341.86 -1.85331 -0.8668 0
M  V30 25322 H 2341.87 -2.49609 -3.22737 0
M  V30 25323 H 2340.55 -3.35451 -2.45857 0
M  V30 25324 H 2339.13 -1.72964 -3.3036 0
M  V30 25325 N 2341.31 0.937917 -1.26653 0
M  V30 25326 C 2342.24 2.05431 -1.10997 0
M  V30 25327 C 2343.22 1.70094 -0.014246 0
M  V30 25328 O 2344.41 1.93299 -0.186871 0
M  V30 25329 C 2341.54 3.39202 -0.745621 0
M  V30 25330 C 2340.49 3.88612 -1.79344 0
M  V30 25331 C 2339.82 5.19071 -1.28333 0
M  V30 25332 C 2341.12 4.13133 -3.1956 0
M  V30 25333 H 2342.81 2.18787 -2.04384 0
M  V30 25334 H 2340.36 1.0513 -0.98406 0
M  V30 25335 H 2342.31 4.1677 -0.622961 0
M  V30 25336 H 2341.03 3.25831 0.223953 0
M  V30 25337 H 2339.69 3.13228 -1.90483 0
M  V30 25338 H 2339.34 5.02084 -0.303503 0
M  V30 25339 H 2339.04 5.531 -1.98379 0
M  V30 25340 H 2340.56 5.99219 -1.1734 0
M  V30 25341 H 2341.98 4.81304 -3.1148 0
M  V30 25342 H 2340.38 4.5845 -3.87226 0
M  V30 25343 H 2341.45 3.18794 -3.65374 0
M  V30 25344 N 2342.79 1.08509 1.14296 0
M  V30 25345 C 2344.2 0.812926 1.37345 0
M  V30 25346 C 2344.4 -0.577291 1.93053 0
M  V30 25347 O 2343.46 -1.3339 2.14391 0
M  V30 25348 C 2344.77 1.89646 2.33356 0
M  V30 25349 C 2346.32 1.92259 2.46993 0
M  V30 25350 C 2346.8 2.9973 3.46303 0
M  V30 25351 N 2348.29 2.98908 3.53847 0
M  V30 25352 C 2349.02 3.78708 4.30544 0
M  V30 25353 N 2348.52 4.68389 5.10474 0
M  V30 25354 N 2350.31 3.67006 4.2575 0
M  V30 25355 H 2342.46 1.98152 0.764832 0
M  V30 25356 H 2344.73 0.859966 0.398951 0
M  V30 25357 H 2344.43 2.89601 1.9956 0
M  V30 25358 H 2344.31 1.76665 3.33271 0
M  V30 25359 H 2346.69 0.929495 2.80079 0
M  V30 25360 H 2346.77 2.09319 1.47035 0
M  V30 25361 H 2346.42 3.99247 3.1395 0
M  V30 25362 H 2346.35 2.79915 4.46044 0
M  V30 25363 H 2348.84 2.33909 2.96808 0
M  V30 25364 H 2349.15 5.25883 5.66275 0
M  V30 25365 H 2347.5 4.72431 5.09739 0
M  V30 25366 H 2350.69 2.96311 3.62378 0
M  V30 25367 H 2350.86 4.29436 4.85272 0
M  V30 25368 N 2344.27 -1.31351 0.870907 0
M  V30 25369 C 2345.5 -2.00556 0.496085 0
M  V30 25370 C 2345.9 -1.65536 -0.916212 0
M  V30 25371 O 2345.25 -0.881163 -1.61187 0
M  V30 25372 C 2345.31 -3.5488 0.57448 0
M  V30 25373 C 2344.97 -4.13377 1.94856 0
M  V30 25374 C 2345.97 -4.30412 2.91618 0
M  V30 25375 C 2343.66 -4.49082 2.25013 0
M  V30 25376 C 2345.65 -4.82345 4.1668 0
M  V30 25377 C 2343.34 -5.00716 3.50324 0
M  V30 25378 C 2344.33 -5.17298 4.45973 0
M  V30 25379 O 2344.02 -5.67823 5.69062 0
M  V30 25380 H 2343.75 -0.648256 0.191676 0
M  V30 25381 H 2346.31 -1.68533 1.17412 0
M  V30 25382 H 2344.54 -3.86367 -0.160482 0
M  V30 25383 H 2346.23 -4.05341 0.21295 0
M  V30 25384 H 2346.99 -4.03144 2.69629 0
M  V30 25385 H 2342.87 -4.35451 1.5134 0
M  V30 25386 H 2346.42 -4.95203 4.91345 0
M  V30 25387 H 2342.31 -5.27418 3.72157 0
M  V30 25388 H 2343.08 -5.86191 5.71247 0
M  V30 25389 N 2345.74 -0.630439 -1.44441 0
M  V30 25390 C 2346.97 -0.141501 -2.06115 0
M  V30 25391 C 2347.38 1.18888 -1.47181 0
M  V30 25392 O 2346.73 1.74005 -0.588903 0
M  V30 25393 C 2346.79 0.0483724 -3.59467 0
M  V30 25394 C 2346.45 -1.20373 -4.40862 0
M  V30 25395 C 2347.45 -2.12727 -4.74387 0
M  V30 25396 C 2345.13 -1.43896 -4.81248 0
M  V30 25397 C 2347.13 -3.26914 -5.4718 0
M  V30 25398 C 2344.81 -2.58379 -5.5379 0
M  V30 25399 C 2345.81 -3.49715 -5.86676 0
M  V30 25400 O 2345.5 -4.62203 -6.57741 0
M  V30 25401 H 2345.23 -0.076591 -0.671647 0
M  V30 25402 H 2347.79 -0.864728 -1.86311 0
M  V30 25403 H 2346.02 0.826737 -3.77759 0
M  V30 25404 H 2347.71 0.491778 -4.0291 0
M  V30 25405 H 2348.47 -1.95789 -4.43725 0
M  V30 25406 H 2344.35 -0.736933 -4.55072 0
M  V30 25407 H 2347.89 -3.98227 -5.72766 0
M  V30 25408 H 2343.79 -2.75262 -5.83868 0
M  V30 25409 H 2344.56 -4.61176 -6.76209 0
M  V30 25410 N 2347.22 1.53172 -0.370945 0
M  V30 25411 C 2348.45 2.05453 0.217352 0
M  V30 25412 C 2348.86 1.24385 1.42566 0
M  V30 25413 O 2348.2 0.278871 1.81571 0
M  V30 25414 C 2348.27 3.53206 0.669765 0
M  V30 25415 C 2347.93 4.55042 -0.42258 0
M  V30 25416 C 2348.93 5.04045 -1.27416 0
M  V30 25417 C 2346.61 4.98889 -0.584358 0
M  V30 25418 C 2348.61 5.95501 -2.27282 0
M  V30 25419 C 2346.29 5.9015 -1.58637 0
M  V30 25420 C 2347.29 6.38347 -2.42903 0
M  V30 25421 O 2346.98 7.27808 -3.41394 0
M  V30 25422 H 2346.71 0.674767 0.0408053 0
M  V30 25423 H 2349.26 1.98465 -0.529235 0
M  V30 25424 H 2347.49 3.57751 1.46804 0
M  V30 25425 H 2349.18 3.88319 1.18166 0
M  V30 25426 H 2349.95 4.70914 -1.1604 0
M  V30 25427 H 2345.83 4.60959 0.06177 0
M  V30 25428 H 2349.37 6.33043 -2.9309 0
M  V30 25429 H 2345.27 6.22696 -1.70059 0
M  V30 25430 H 2346.04 7.4582 -3.37187 0
M  V30 25431 N 2348.7 0.100255 1.57281 0
M  V30 25432 C 2349.95 -0.562234 1.94538 0
M  V30 25433 C 2350.28 -1.6787 0.982344 0
M  V30 25434 O 2349.53 -1.957 0.00284375 0
M  V30 25435 C 2349.83 -1.15253 3.38307 0
M  V30 25436 C 2349.5 -0.159329 4.50618 0
M  V30 25437 C 2348.16 0.113826 4.81065 0
M  V30 25438 C 2350.51 0.518552 5.18614 0
M  V30 25439 C 2347.84 1.07147 5.76833 0
M  V30 25440 C 2350.19 1.4647 6.1541 0
M  V30 25441 C 2348.85 1.74603 6.44259 0
M  V30 25442 H 2348.12 -0.205736 0.711866 0
M  V30 25443 H 2350.77 0.177184 1.90679 0
M  V30 25444 H 2349.08 -1.9683 3.3877 0
M  V30 25445 H 2350.77 -1.6729 3.64438 0
M  V30 25446 H 2347.36 -0.382416 4.26891 0
M  V30 25447 H 2351.55 0.320668 4.95263 0
M  V30 25448 H 2346.8 1.29638 5.97498 0
M  V30 25449 H 2350.98 1.99575 6.6719 0
M  V30 25450 H 2348.6 2.48966 7.18276 0
M  V30 25451 N 2350.18 -1.56643 -0.17346 0
M  V30 25452 C 2351.41 -1.86006 -0.906062 0
M  V30 25453 C 2351.82 -0.685386 -1.7592 0
M  V30 25454 O 2351.18 0.345547 -1.79199 0
M  V30 25455 C 2351.23 -3.14381 -1.78456 0
M  V30 25456 O 2350.95 -4.27321 -0.965839 0
M  V30 25457 C 2352.45 -3.57076 -2.62701 0
M  V30 25458 H 2349.67 -0.61717 -0.26333 0
M  V30 25459 H 2352.22 -2.03757 -0.1742 0
M  V30 25460 H 2350.37 -2.98463 -2.46979 0
M  V30 25461 H 2350.79 -5.00562 -1.56646 0
M  V30 25462 H 2352.26 -4.4981 -3.19961 0
M  V30 25463 H 2352.74 -2.81092 -3.37467 0
M  V30 25464 H 2353.34 -3.75599 -1.99514 0
M  V30 25465 N 2351.66 0.44194 -1.51277 0
M  V30 25466 C 2352.91 1.18868 -1.62952 0
M  V30 25467 C 2353.22 1.92455 -0.349346 0
M  V30 25468 O 2354.43 2.69294 -0.345403 0
M  V30 25469 C 2352.88 2.1615 -2.87762 0
M  V30 25470 C 2352.49 1.48232 -4.22766 0
M  V30 25471 C 2354.23 2.91285 -3.08793 0
M  V30 25472 C 2352.14 2.43971 -5.38732 0
M  V30 25473 H 2351.07 0.447396 -0.606921 0
M  V30 25474 H 2353.72 0.456174 -1.77739 0
M  V30 25475 H 2352.1 2.92816 -2.66598 0
M  V30 25476 H 2353.28 0.771555 -4.54295 0
M  V30 25477 H 2351.59 0.85267 -4.07576 0
M  V30 25478 H 2354.19 3.62995 -3.92605 0
M  V30 25479 H 2354.53 3.52366 -2.21685 0
M  V30 25480 H 2355.07 2.21727 -3.30276 0
M  V30 25481 H 2351.8 1.87586 -6.28086 0
M  V30 25482 H 2351.32 3.13114 -5.11585 0
M  V30 25483 H 2353 3.05197 -5.70494 0
M  V30 25484 N 2353.14 1.41345 0.697083 0
M  V30 25485 C 2354.38 1.40344 1.45424 0
M  V30 25486 C 2354.7 0.012913 1.94996 0
M  V30 25487 O 2353.97 -0.944996 1.716 0
M  V30 25488 H 2352.55 0.516582 0.539585 0
M  V30 25489 H 2355.22 1.7657 0.82517 0
M  V30 25490 H 2354.31 2.08971 2.31814 0
M  V30 25491 N 2354.61 -0.931187 1.27148 0
M  V30 25492 C 2355.86 -1.68139 1.14458 0
M  V30 25493 C 2356.21 -1.89933 -0.307139 0
M  V30 25494 O 2355.51 -1.47609 -1.22156 0
M  V30 25495 C 2355.7 -3.05311 1.85795 0
M  V30 25496 C 2355.53 -2.96903 3.37755 0
M  V30 25497 C 2354.3 -2.99374 4.07067 0
M  V30 25498 C 2356.5 -2.76284 4.33788 0
M  V30 25499 N 2354.48 -2.8137 5.45623 0
M  V30 25500 C 2355.85 -2.6695 5.59587 0
M  V30 25501 C 2357.91 -2.61144 4.2392 0
M  V30 25502 C 2356.61 -2.44021 6.76643 0
M  V30 25503 C 2358.64 -2.39592 5.40694 0
M  V30 25504 C 2358 -2.30998 6.65447 0
M  V30 25505 H 2354.1 -0.622216 0.473678 0
M  V30 25506 H 2356.68 -1.10115 1.6057 0
M  V30 25507 H 2354.85 -3.61455 1.42144 0
M  V30 25508 H 2356.58 -3.6925 1.65641 0
M  V30 25509 H 2353.34 -3.09468 3.58506 0
M  V30 25510 H 2353.76 -2.75508 6.18404 0
M  V30 25511 H 2358.4 -2.66549 3.28194 0
M  V30 25512 H 2356.12 -2.37356 7.72456 0
M  V30 25513 H 2359.71 -2.28768 5.34936 0
M  V30 25514 H 2358.59 -2.14545 7.54281 0
M  V30 25515 N 2356.09 -1.09114 -1.13719 0
M  V30 25516 C 2357.04 -0.722258 -2.21102 0
M  V30 25517 C 2358.03 0.275344 -1.67147 0
M  V30 25518 O 2359.24 0.137144 -1.79477 0
M  V30 25519 H 2355.61 -0.215565 -0.720441 0
M  V30 25520 H 2357.59 -1.63714 -2.4948 0
M  V30 25521 C 2356.33 -0.155491 -3.47352 0
M  V30 25522 H 2355.66 -0.914314 -3.89205 0
M  V30 25523 H 2357.1 0.0647221 -4.23951 0
M  V30 25524 C 2355.56 1.10847 -3.18142 0
M  V30 25525 O 2356.09 2.19221 -3.36608 0
M  V30 25526 N 2354.29 1.02171 -2.72047 0
M  V30 25527 H 2353.84 0.139719 -2.57221 0
M  V30 25528 H 2353.8 1.86815 -2.52878 0
M  V30 25529 N 2357.57 1.30887 -0.877861 0
M  V30 25530 C 2358.82 1.95687 -0.488827 0
M  V30 25531 C 2359.13 1.70113 0.965455 0
M  V30 25532 O 2360.34 2.28838 1.461 0
M  V30 25533 C 2358.79 3.50358 -0.823263 0
M  V30 25534 C 2358.4 3.84761 -2.29484 0
M  V30 25535 C 2360.15 4.21508 -0.503083 0
M  V30 25536 C 2358.05 5.32578 -2.57127 0
M  V30 25537 H 2356.98 0.732426 -0.179075 0
M  V30 25538 H 2359.63 1.48941 -1.07185 0
M  V30 25539 H 2358.02 3.95638 -0.169401 0
M  V30 25540 H 2359.19 3.50415 -2.99242 0
M  V30 25541 H 2357.5 3.26696 -2.58184 0
M  V30 25542 H 2360.1 5.30272 -0.686744 0
M  V30 25543 H 2360.44 4.12556 0.557036 0
M  V30 25544 H 2360.98 3.81888 -1.11383 0
M  V30 25545 H 2357.72 5.46574 -3.61853 0
M  V30 25546 H 2357.24 5.68249 -1.91971 0
M  V30 25547 H 2358.92 5.99932 -2.42262 0
M  V30 25548 N 2359.05 0.638091 1.44105 0
M  V30 25549 C 2360.29 0.145366 2.01978 0
M  V30 25550 C 2360.62 -1.23529 1.50236 0
M  V30 25551 O 2359.88 -1.83522 0.679581 0
M  V30 25552 C 2360.18 0.0887955 3.5729 0
M  V30 25553 C 2359.84 1.40916 4.28315 0
M  V30 25554 C 2358.5 1.77077 4.47434 0
M  V30 25555 C 2360.86 2.28039 4.68666 0
M  V30 25556 C 2358.18 3.00056 5.04166 0
M  V30 25557 C 2360.54 3.50295 5.2676 0
M  V30 25558 C 2359.2 3.86671 5.44097 0
M  V30 25559 H 2358.47 0.0531931 0.739088 0
M  V30 25560 H 2361.12 0.825791 1.7278 0
M  V30 25561 H 2359.42 -0.675027 3.85941 0
M  V30 25562 H 2361.12 -0.309075 3.99807 0
M  V30 25563 H 2357.71 1.11777 4.13768 0
M  V30 25564 H 2361.89 2.01396 4.53601 0
M  V30 25565 H 2357.15 3.28307 5.15776 0
M  V30 25566 H 2361.32 4.18033 5.56975 0
M  V30 25567 H 2358.95 4.82045 5.87824 0
M  V30 25568 N 2360.53 -1.52973 0.379063 0
M  V30 25569 C 2361.8 -1.93818 -0.263445 0
M  V30 25570 C 2362.18 -1.31371 -1.65242 0
M  V30 25571 O 2361.53 -0.477895 -2.23447 0
M  V30 25572 C 2361.74 -3.47707 -0.300105 0
M  V30 25573 C 2363.09 -4.21229 -0.533987 0
M  V30 25574 O 2364.11 -3.54159 -0.380748 0
M  V30 25575 O 2362.97 -5.40108 -0.833407 0
M  V30 25576 H 2360.07 -0.81115 -0.161134 0
M  V30 25577 H 2362.61 -1.64087 0.432827 0
M  V30 25578 H 2361.38 -3.85465 0.673206 0
M  V30 25579 H 2361.01 -3.83711 -1.04172 0
M  V30 25580 N 2362 -0.108595 -1.57225 0
M  V30 25581 C 2363.25 0.551909 -1.94834 0
M  V30 25582 C 2363.58 1.67346 -0.991233 0
M  V30 25583 O 2362.83 1.95696 -0.0132222 0
M  V30 25584 C 2363.13 1.13457 -3.38913 0
M  V30 25585 C 2362.8 0.13543 -4.50697 0
M  V30 25586 C 2361.46 -0.139336 -4.80998 0
M  V30 25587 C 2363.81 -0.546048 -5.18332 0
M  V30 25588 C 2361.14 -1.10204 -5.76257 0
M  V30 25589 C 2363.49 -1.49732 -6.14624 0
M  V30 25590 C 2362.16 -1.78018 -6.43324 0
M  V30 25591 H 2361.43 0.201958 -0.712947 0
M  V30 25592 H 2364.07 -0.187294 -1.90582 0
M  V30 25593 H 2362.38 1.95031 -3.39809 0
M  V30 25594 H 2364.08 1.65355 -3.6532 0
M  V30 25595 H 2360.67 0.359771 -4.27087 0
M  V30 25596 H 2364.85 -0.346929 -4.95086 0
M  V30 25597 H 2360.11 -1.32805 -5.96802 0
M  V30 25598 H 2364.28 -2.03111 -6.66122 0
M  V30 25599 H 2361.91 -2.52771 -7.16945 0
M  V30 25600 N 2363.48 1.56732 0.16515 0
M  V30 25601 C 2364.73 1.82612 0.88208 0
M  V30 25602 C 2365.06 0.68741 1.81627 0
M  V30 25603 O 2364.34 -0.310234 1.9201 0
M  V30 25604 C 2364.62 3.18909 1.67239 0
M  V30 25605 C 2364.47 4.43317 0.76091 0
M  V30 25606 C 2365.79 3.52217 2.63878 0
M  V30 25607 H 2362.91 0.664275 0.319231 0
M  V30 25608 H 2365.55 1.89423 0.148019 0
M  V30 25609 H 2363.7 3.13234 2.29818 0
M  V30 25610 H 2365.37 4.61064 0.147515 0
M  V30 25611 H 2363.62 4.33745 0.069334 0
M  V30 25612 H 2364.29 5.35249 1.34953 0
M  V30 25613 H 2366.76 3.58385 2.11423 0
M  V30 25614 H 2365.64 4.48649 3.16237 0
M  V30 25615 H 2365.9 2.77237 3.44372 0
M  V30 25616 N 2364.96 -0.433911 1.51509 0
M  V30 25617 C 2366.21 -1.18481 1.64591 0
M  V30 25618 C 2366.54 -1.90783 0.362699 0
M  V30 25619 O 2365.81 -1.83743 -0.637859 0
M  V30 25620 C 2366.1 -2.19908 2.85153 0
M  V30 25621 C 2365.95 -1.51667 4.23459 0
M  V30 25622 C 2367.27 -3.20853 3.01233 0
M  V30 25623 H 2364.39 -0.429378 0.599002 0
M  V30 25624 H 2367.03 -0.473615 1.84002 0
M  V30 25625 H 2365.18 -2.80561 2.68733 0
M  V30 25626 H 2366.85 -0.943243 4.51554 0
M  V30 25627 H 2365.1 -0.81896 4.25999 0
M  V30 25628 H 2365.77 -2.25551 5.03816 0
M  V30 25629 H 2368.24 -2.70257 3.16386 0
M  V30 25630 H 2367.12 -3.89111 3.87148 0
M  V30 25631 H 2367.38 -3.87156 2.13454 0
M  V30 25632 N 2366.44 -1.41713 -0.689577 0
M  V30 25633 C 2367.68 -1.41602 -1.45179 0
M  V30 25634 C 2368.02 -0.0270422 -1.94181 0
M  V30 25635 O 2367.29 0.946235 -1.69931 0
M  V30 25636 C 2367.58 -2.42791 -2.65941 0
M  V30 25637 C 2367.43 -3.9082 -2.22665 0
M  V30 25638 C 2368.75 -2.41158 -3.68145 0
M  V30 25639 H 2365.87 -0.515651 -0.526567 0
M  V30 25640 H 2368.51 -1.73029 -0.784917 0
M  V30 25641 H 2366.66 -2.16122 -3.22837 0
M  V30 25642 H 2368.33 -4.28415 -1.7105 0
M  V30 25643 H 2366.57 -4.05397 -1.54387 0
M  V30 25644 H 2367.24 -4.57178 -3.09342 0
M  V30 25645 H 2369.72 -2.64839 -3.20935 0
M  V30 25646 H 2368.6 -3.13963 -4.50242 0
M  V30 25647 H 2368.86 -1.43228 -4.18256 0
M  V30 25648 N 2367.92 0.924431 -1.2764 0
M  V30 25649 C 2369.17 1.667 -1.13552 0
M  V30 25650 C 2369.48 1.93007 0.317453 0
M  V30 25651 O 2370.68 2.65248 0.579287 0
M  V30 25652 C 2369.14 3.00255 -1.98431 0
M  V30 25653 C 2368.75 2.81635 -3.48405 0
M  V30 25654 C 2370.49 3.78089 -1.93 0
M  V30 25655 C 2368.4 4.10766 -4.25471 0
M  V30 25656 H 2367.33 0.625276 -0.421362 0
M  V30 25657 H 2369.98 1.02673 -1.52087 0
M  V30 25658 H 2368.36 3.65357 -1.52743 0
M  V30 25659 H 2369.54 2.2528 -4.01977 0
M  V30 25660 H 2367.85 2.17226 -3.55249 0
M  V30 25661 H 2370.45 4.73786 -2.47853 0
M  V30 25662 H 2370.79 4.06358 -0.904352 0
M  V30 25663 H 2371.32 3.19789 -2.366 0
M  V30 25664 H 2368.06 3.87674 -5.28573 0
M  V30 25665 H 2367.58 4.66772 -3.76675 0
M  V30 25666 H 2369.26 4.79104 -4.3482 0
M  V30 25667 N 2369.39 1.09715 1.13139 0
M  V30 25668 C 2370.32 0.761141 2.20746 0
M  V30 25669 C 2371.31 -0.262537 1.68062 0
M  V30 25670 O 2372.49 -0.129943 1.93765 0
M  V30 25671 C 2369.62 0.184115 3.46812 0
M  V30 25672 C 2368.57 1.13764 4.12604 0
M  V30 25673 C 2367.9 0.422176 5.33031 0
M  V30 25674 C 2369.2 2.48127 4.59598 0
M  V30 25675 H 2370.89 1.66086 2.4911 0
M  V30 25676 H 2368.44 0.800008 1.19732 0
M  V30 25677 H 2370.39 -0.0630474 4.21353 0
M  V30 25678 H 2369.12 -0.750812 3.17853 0
M  V30 25679 H 2367.78 1.37013 3.40034 0
M  V30 25680 H 2367.42 -0.516984 5.00336 0
M  V30 25681 H 2367.12 1.05798 5.77997 0
M  V30 25682 H 2368.65 0.183385 6.10325 0
M  V30 25683 H 2370.06 2.29068 5.25548 0
M  V30 25684 H 2368.46 3.07523 5.15315 0
M  V30 25685 H 2369.53 3.08671 3.73965 0
M  V30 25686 N 2370.87 -1.30419 0.88479 0
M  V30 25687 C 2372.1 -2.00845 0.517323 0
M  V30 25688 C 2372.52 -1.65887 -0.88675 0
M  V30 25689 O 2371.88 -0.875382 -1.58766 0
M  V30 25690 C 2371.93 -3.53759 0.699056 0
M  V30 25691 O 2371.03 -4.1161 -0.255136 0
M  V30 25692 H 2370.37 -0.631924 0.203883 0
M  V30 25693 H 2372.9 -1.6627 1.19228 0
M  V30 25694 H 2372.91 -4.03594 0.597983 0
M  V30 25695 H 2371.59 -3.78541 1.72277 0
M  V30 25696 H 2370.17 -3.72744 -0.107774 0
M  V30 25697 N 2372.35 -0.645724 -1.43764 0
M  V30 25698 C 2373.6 -0.153448 -2.01115 0
M  V30 25699 C 2373.91 1.23728 -1.51495 0
M  V30 25700 O 2375.12 1.82437 -2.0107 0
M  V30 25701 C 2373.57 -0.223536 -3.59205 0
M  V30 25702 C 2373.18 -1.61649 -4.1782 0
M  V30 25703 C 2374.93 0.211523 -4.23973 0
M  V30 25704 C 2372.83 -1.64091 -5.6818 0
M  V30 25705 H 2371.76 -0.0536024 -0.752092 0
M  V30 25706 H 2374.41 -0.806662 -1.64819 0
M  V30 25707 H 2372.8 0.497049 -3.92868 0
M  V30 25708 H 2373.97 -2.36183 -3.9567 0
M  V30 25709 H 2372.29 -1.99688 -3.65395 0
M  V30 25710 H 2374.88 0.213018 -5.34276 0
M  V30 25711 H 2375.23 1.24158 -3.97354 0
M  V30 25712 H 2375.76 -0.457058 -3.95166 0
M  V30 25713 H 2372.5 -2.64981 -5.99554 0
M  V30 25714 H 2372.02 -0.938715 -5.92409 0
M  V30 25715 H 2373.7 -1.38131 -6.32083 0
M  V30 25716 N 2373.83 1.5277 -0.38717 0
M  V30 25717 C 2375.07 2.01851 0.19599 0
M  V30 25718 C 2375.41 1.27321 1.46639 0
M  V30 25719 O 2374.68 0.373065 1.90889 0
M  V30 25720 C 2374.97 3.57071 0.466073 0
M  V30 25721 C 2374.82 4.42272 -0.819463 0
M  V30 25722 C 2376.14 4.21749 1.2576 0
M  V30 25723 H 2373.26 0.733691 0.0697579 0
M  V30 25724 H 2375.9 1.8285 -0.516318 0
M  V30 25725 H 2374.05 3.73392 1.07287 0
M  V30 25726 H 2375.72 4.37707 -1.45638 0
M  V30 25727 H 2373.96 4.09369 -1.43524 0
M  V30 25728 H 2374.63 5.4889 -0.585161 0
M  V30 25729 H 2377.11 4.09393 0.744095 0
M  V30 25730 H 2375.99 5.30339 1.41532 0
M  V30 25731 H 2376.25 3.7924 2.27221 0
M  V30 25732 N 2375.31 0.116931 1.57166 0
M  V30 25733 C 2376.55 -0.540499 1.94738 0
M  V30 25734 C 2376.88 -1.67347 1.00099 0
M  V30 25735 O 2376.15 -1.95817 0.0569199 0
M  V30 25736 H 2374.73 -0.202656 0.718985 0
M  V30 25737 H 2377.39 0.185388 1.94016 0
M  V30 25738 H 2376.48 -0.936431 2.9772 0
M  V30 25739 N 2376.78 -1.56818 -0.156836 0
M  V30 25740 C 2377.72 -1.92652 -1.22313 0
M  V30 25741 C 2378.7 -0.791101 -1.42058 0
M  V30 25742 O 2379.88 -1.04579 -1.5683 0
M  V30 25743 C 2377.01 -2.19003 -2.58371 0
M  V30 25744 C 2376.05 -3.41665 -2.55278 0
M  V30 25745 S 2376.89 -4.95557 -2.02937 0
M  V30 25746 C 2378.04 -5.25019 -3.40743 0
M  V30 25747 H 2378.27 -2.82793 -0.917353 0
M  V30 25748 H 2375.81 -1.50096 -0.362032 0
M  V30 25749 H 2377.77 -2.34865 -3.36673 0
M  V30 25750 H 2376.43 -1.29543 -2.86142 0
M  V30 25751 H 2375.62 -3.57349 -3.55412 0
M  V30 25752 H 2375.22 -3.24995 -1.8508 0
M  V30 25753 H 2377.51 -5.17884 -4.3681 0
M  V30 25754 H 2378.46 -6.26544 -3.29922 0
M  V30 25755 H 2378.86 -4.52554 -3.37425 0
M  V30 25756 N 2378.26 0.425871 -1.51737 0
M  V30 25757 C 2379.51 1.17433 -1.64972 0
M  V30 25758 C 2379.84 1.9092 -0.371479 0
M  V30 25759 O 2379.09 1.84768 0.644931 0
M  V30 25760 C 2379.39 2.20712 -2.81106 0
M  V30 25761 C 2379.06 1.64155 -4.19957 0
M  V30 25762 C 2377.72 1.48454 -4.57728 0
M  V30 25763 C 2380.07 1.22687 -5.06554 0
M  V30 25764 C 2377.4 0.897771 -5.7979 0
M  V30 25765 C 2379.75 0.654353 -6.29207 0
M  V30 25766 C 2378.42 0.484339 -6.6574 0
M  V30 25767 H 2377.69 0.429717 -0.603676 0
M  V30 25768 H 2380.33 0.463797 -1.85799 0
M  V30 25769 H 2378.64 2.97847 -2.54547 0
M  V30 25770 H 2380.33 2.78465 -2.88545 0
M  V30 25771 H 2376.92 1.77355 -3.90184 0
M  V30 25772 H 2381.11 1.33633 -4.7797 0
M  V30 25773 H 2376.36 0.753913 -6.06734 0
M  V30 25774 H 2380.54 0.324572 -6.95643 0
M  V30 25775 H 2378.17 0.0275497 -7.60195 0
M  V30 25776 N 2379.74 1.42077 0.682052 0
M  V30 25777 C 2380.67 1.4777 1.80793 0
M  V30 25778 C 2381.65 0.334983 1.66769 0
M  V30 25779 O 2382.84 0.548297 1.86299 0
M  V30 25780 C 2379.97 1.37235 3.19036 0
M  V30 25781 C 2378.92 2.49459 3.47785 0
M  V30 25782 C 2378.25 2.23983 4.85526 0
M  V30 25783 C 2379.55 3.91783 3.45404 0
M  V30 25784 H 2381.24 2.42 1.76285 0
M  V30 25785 H 2378.79 1.16477 0.846701 0
M  V30 25786 H 2380.74 1.39828 3.97525 0
M  V30 25787 H 2379.46 0.394964 3.24203 0
M  V30 25788 H 2378.12 2.46171 2.71653 0
M  V30 25789 H 2377.77 1.24556 4.87334 0
M  V30 25790 H 2377.47 2.99193 5.05725 0
M  V30 25791 H 2378.99 2.28314 5.66308 0
M  V30 25792 H 2380.41 3.96712 4.13875 0
M  V30 25793 H 2378.81 4.66784 3.77137 0
M  V30 25794 H 2379.88 4.1897 2.44115 0
M  V30 25795 N 2381.22 -0.917649 1.28129 0
M  V30 25796 C 2382.18 -2.00113 1.11747 0
M  V30 25797 C 2383.18 -1.60694 0.0583334 0
M  V30 25798 O 2384.37 -1.71531 0.303785 0
M  V30 25799 C 2381.5 -3.33532 0.704921 0
M  V30 25800 H 2382.7 -2.16076 2.0797 0
M  V30 25801 H 2380.25 -1.09979 1.1106 0
M  V30 25802 H 2380.99 -3.2327 -0.258242 0
M  V30 25803 H 2380.77 -3.63503 1.46997 0
M  V30 25804 H 2382.26 -4.13079 0.612841 0
M  V30 25805 N 2382.7 -1.10314 -1.12555 0
M  V30 25806 C 2383.61 -0.763181 -2.21839 0
M  V30 25807 C 2384.62 0.23877 -1.72354 0
M  V30 25808 O 2385.8 0.0778393 -2.0125 0
M  V30 25809 C 2382.86 -0.198693 -3.4613 0
M  V30 25810 C 2381.93 -1.25776 -4.10462 0
M  V30 25811 C 2381.16 -0.720113 -5.28819 0
M  V30 25812 O 2381.38 0.453893 -5.68591 0
M  V30 25813 O 2380.32 -1.47945 -5.83435 0
M  V30 25814 H 2384.14 -1.67536 -2.53309 0
M  V30 25815 H 2381.73 -0.878179 -1.20865 0
M  V30 25816 H 2383.61 0.112326 -4.2125 0
M  V30 25817 H 2382.28 0.686363 -3.1634 0
M  V30 25818 H 2381.19 -1.62162 -3.37127 0
M  V30 25819 H 2382.52 -2.11579 -4.44404 0
M  V30 25820 N 2384.18 1.29948 -0.891694 0
M  V30 25821 C 2385.11 2.3039 -0.379838 0
M  V30 25822 C 2386.09 1.61271 0.540891 0
M  V30 25823 O 2387.27 1.88835 0.453319 0
M  V30 25824 C 2384.4 3.44982 0.400593 0
M  V30 25825 C 2383.36 4.25845 -0.42898 0
M  V30 25826 C 2382.68 5.32555 0.478463 0
M  V30 25827 C 2383.98 4.94724 -1.67467 0
M  V30 25828 H 2385.68 2.73452 -1.21919 0
M  V30 25829 H 2383.22 1.31461 -0.587698 0
M  V30 25830 H 2385.17 4.14317 0.769361 0
M  V30 25831 H 2383.9 3.00742 1.27365 0
M  V30 25832 H 2382.56 3.58207 -0.779974 0
M  V30 25833 H 2382.21 4.84561 1.34943 0
M  V30 25834 H 2381.91 5.87555 -0.0728465 0
M  V30 25835 H 2383.43 6.04744 0.843599 0
M  V30 25836 H 2384.84 5.5654 -1.3761 0
M  V30 25837 H 2383.24 5.5962 -2.16668 0
M  V30 25838 H 2384.31 4.20468 -2.41525 0
M  V30 25839 N 2385.65 0.653339 1.4342 0
M  V30 25840 C 2386.9 0.164111 2.01031 0
M  V30 25841 C 2387.22 -1.22923 1.52149 0
M  V30 25842 O 2388.42 -1.81368 2.02035 0
M  V30 25843 C 2386.88 0.242583 3.59082 0
M  V30 25844 C 2386.49 1.63862 4.16957 0
M  V30 25845 C 2388.23 -0.189035 4.24079 0
M  V30 25846 C 2386.14 1.67102 5.67302 0
M  V30 25847 H 2385.07 0.0575901 0.751797 0
M  V30 25848 H 2387.72 0.815391 1.64389 0
M  V30 25849 H 2386.1 -0.476207 3.93126 0
M  V30 25850 H 2387.27 2.38278 3.94412 0
M  V30 25851 H 2385.59 2.01623 3.64331 0
M  V30 25852 H 2388.19 -0.184681 5.34381 0
M  V30 25853 H 2388.53 -1.22049 3.98007 0
M  V30 25854 H 2389.06 0.478008 3.94918 0
M  V30 25855 H 2385.8 2.68157 5.98141 0
M  V30 25856 H 2385.32 0.970118 5.91903 0
M  V30 25857 H 2387 1.41481 6.31341 0
M  V30 25858 N 2387.13 -1.52563 0.395266 0
M  V30 25859 C 2388.04 -2.30356 -0.444191 0
M  V30 25860 C 2389.06 -1.37513 -1.06612 0
M  V30 25861 O 2390.23 -1.70585 -1.07064 0
M  V30 25862 C 2387.3 -3.09967 -1.5531 0
M  V30 25863 C 2386.36 -4.18528 -0.95566 0
M  V30 25864 C 2385.59 -4.94333 -2.01173 0
M  V30 25865 O 2385.82 -4.70291 -3.22773 0
M  V30 25866 O 2384.75 -5.7953 -1.62569 0
M  V30 25867 H 2388.58 -3.03107 0.18972 0
M  V30 25868 H 2386.16 -1.48553 0.158826 0
M  V30 25869 H 2388.04 -3.59586 -2.19718 0
M  V30 25870 H 2386.72 -2.40024 -2.17187 0
M  V30 25871 H 2385.62 -3.7309 -0.274678 0
M  V30 25872 H 2386.96 -4.90723 -0.381023 0
M  V30 25873 N 2388.61 -0.125265 -1.57101 0
M  V30 25874 C 2389.56 0.822617 -2.15642 0
M  V30 25875 C 2390.53 1.25925 -1.08315 0
M  V30 25876 O 2391.71 1.33565 -1.36254 0
M  V30 25877 C 2388.85 2.06489 -2.76508 0
M  V30 25878 C 2387.96 1.67605 -3.98161 0
M  V30 25879 C 2387.1 2.86846 -4.47094 0
M  V30 25880 C 2386.14 2.44232 -5.61264 0
M  V30 25881 N 2385.28 3.56408 -6.04911 0
M  V30 25882 H 2390.12 0.316573 -2.96314 0
M  V30 25883 H 2387.65 0.144562 -1.46388 0
M  V30 25884 H 2389.61 2.79284 -3.0993 0
M  V30 25885 H 2388.24 2.54541 -1.98516 0
M  V30 25886 H 2387.29 0.846595 -3.7086 0
M  V30 25887 H 2388.6 1.32292 -4.80937 0
M  V30 25888 H 2387.76 3.67859 -4.82457 0
M  V30 25889 H 2386.5 3.2539 -3.63281 0
M  V30 25890 H 2385.5 1.61654 -5.25498 0
M  V30 25891 H 2386.73 2.06799 -6.46847 0
M  V30 25892 H 2384.67 3.94613 -5.24038 0
M  V30 25893 H 2384.59 3.25039 -6.82558 0
M  V30 25894 H 2385.86 4.37841 -6.44915 0
M  V30 25895 N 2390.09 1.56899 0.148518 0
M  V30 25896 C 2391.32 1.87152 0.875085 0
M  V30 25897 C 2391.73 0.711293 1.7532 0
M  V30 25898 O 2391.07 -0.32812 1.80746 0
M  V30 25899 C 2391.13 3.12092 1.78434 0
M  V30 25900 C 2390.79 4.43969 1.08354 0
M  V30 25901 C 2391.79 5.1805 0.438156 0
M  V30 25902 C 2389.48 4.90695 1.07349 0
M  V30 25903 C 2391.47 6.37061 -0.207902 0
M  V30 25904 C 2389.16 6.0963 0.423623 0
M  V30 25905 C 2390.16 6.82659 -0.215949 0
M  V30 25906 O 2389.84 7.99335 -0.855519 0
M  V30 25907 H 2389.58 0.624626 0.258493 0
M  V30 25908 H 2392.13 2.04877 0.146484 0
M  V30 25909 H 2390.36 2.90372 2.55384 0
M  V30 25910 H 2392.05 3.28604 2.38273 0
M  V30 25911 H 2392.81 4.83021 0.437732 0
M  V30 25912 H 2388.69 4.33777 1.56072 0
M  V30 25913 H 2392.24 6.94001 -0.707702 0
M  V30 25914 H 2388.13 6.44121 0.421708 0
M  V30 25915 H 2388.9 8.14992 -0.757035 0
M  V30 25916 N 2391.57 -0.417818 1.51961 0
M  V30 25917 C 2392.81 -1.16556 1.65593 0
M  V30 25918 C 2393.14 -1.9072 0.381598 0
M  V30 25919 O 2392.4 -1.85107 -0.635123 0
M  V30 25920 C 2392.69 -2.19219 2.82273 0
M  V30 25921 C 2392.36 -1.61925 4.20822 0
M  V30 25922 C 2391.02 -1.46024 4.58509 0
M  V30 25923 C 2393.37 -1.19999 5.07198 0
M  V30 25924 C 2390.7 -0.867011 5.80258 0
M  V30 25925 C 2393.05 -0.620975 6.29545 0
M  V30 25926 C 2391.72 -0.449027 6.65988 0
M  V30 25927 H 2390.99 -0.426509 0.605946 0
M  V30 25928 H 2393.64 -0.453937 1.86042 0
M  V30 25929 H 2391.94 -2.96493 2.56123 0
M  V30 25930 H 2393.64 -2.76931 2.90017 0
M  V30 25931 H 2390.23 -1.75283 3.91119 0
M  V30 25932 H 2394.41 -1.31097 4.78672 0
M  V30 25933 H 2389.67 -0.721726 6.07125 0
M  V30 25934 H 2393.84 -0.287676 6.95806 0
M  V30 25935 H 2391.47 0.0127657 7.60199 0
M  V30 25936 N 2393.04 -1.42436 -0.674508 0
M  V30 25937 C 2394.29 -1.43133 -1.43669 0
M  V30 25938 C 2394.62 -0.0476362 -1.94142 0
M  V30 25939 O 2393.9 0.928158 -1.70925 0
M  V30 25940 C 2394.18 -2.45598 -2.63351 0
M  V30 25941 C 2394.03 -3.9316 -2.18507 0
M  V30 25942 C 2395.35 -2.45049 -3.65567 0
M  V30 25943 H 2392.47 -0.521207 -0.521068 0
M  V30 25944 H 2395.11 -1.73852 -0.766521 0
M  V30 25945 H 2393.26 -2.19534 -3.20526 0
M  V30 25946 H 2394.94 -4.30205 -1.66497 0
M  V30 25947 H 2393.18 -4.07012 -1.50079 0
M  V30 25948 H 2393.85 -4.60433 -3.04475 0
M  V30 25949 H 2396.33 -2.68228 -3.18108 0
M  V30 25950 H 2395.2 -3.18721 -4.46887 0
M  V30 25951 H 2395.46 -1.47656 -4.16713 0
M  V30 25952 N 2394.52 0.910841 -1.28614 0
M  V30 25953 C 2395.75 1.69925 -1.18913 0
M  V30 25954 C 2396.17 1.86453 0.248339 0
M  V30 25955 O 2395.53 1.37679 1.17959 0
M  V30 25956 C 2395.58 3.06742 -1.89583 0
M  V30 25957 O 2394.68 3.94394 -1.20528 0
M  V30 25958 H 2394.02 0.520215 -0.412641 0
M  V30 25959 H 2396.55 1.13867 -1.69987 0
M  V30 25960 H 2396.56 3.56955 -1.97603 0
M  V30 25961 H 2395.24 2.9403 -2.94142 0
M  V30 25962 H 2393.81 3.52829 -1.2069 0
M  V30 25963 N 2396 1.10909 1.11969 0
M  V30 25964 C 2397.41 0.871475 1.65113 0
M  V30 25965 C 2397.76 -0.597321 1.86886 0
M  V30 25966 O 2396.89 -1.45813 1.59899 0
M  V30 25967 C 2397.48 1.57545 2.99942 0
M  V30 25968 C 2396.04 1.38441 3.50016 0
M  V30 25969 C 2395.19 1.62168 2.24938 0
M  V30 25970 H 2398.14 1.26612 0.956829 0
M  V30 25971 H 2398.16 1.01728 3.66649 0
M  V30 25972 H 2397.67 2.64443 2.84062 0
M  V30 25973 H 2395.77 0.337279 3.7107 0
M  V30 25974 H 2395.89 2.12972 4.29162 0
M  V30 25975 H 2394.25 1.04471 2.32288 0
M  V30 25976 H 2395.03 2.70328 2.11607 0
M  V30 25977 N 2397.48 -1.29474 0.898573 0
M  V30 25978 C 2398.71 -1.99748 0.539296 0
M  V30 25979 C 2399.12 -1.67264 -0.875687 0
M  V30 25980 O 2398.48 -0.917077 -1.57784 0
M  V30 25981 C 2398.53 -3.54244 0.720673 0
M  V30 25982 O 2398.25 -3.85577 2.07996 0
M  V30 25983 C 2399.75 -4.41785 0.366195 0
M  V30 25984 H 2396.97 -0.638254 0.207058 0
M  V30 25985 H 2399.52 -1.65036 1.20761 0
M  V30 25986 H 2397.67 -3.87272 0.0995543 0
M  V30 25987 H 2398.08 -4.80253 2.10849 0
M  V30 25988 H 2399.56 -5.49313 0.543945 0
M  V30 25989 H 2400.04 -4.33639 -0.696686 0
M  V30 25990 H 2400.64 -4.14226 0.964208 0
M  V30 25991 N 2398.96 -0.660936 -1.43071 0
M  V30 25992 C 2399.89 0.0122419 -2.33497 0
M  V30 25993 C 2400.87 0.803899 -1.49905 0
M  V30 25994 O 2402.05 0.763833 -1.78548 0
M  V30 25995 C 2399.18 0.973936 -3.33364 0
M  V30 25996 C 2398.14 0.291852 -4.27004 0
M  V30 25997 C 2397.46 1.36553 -5.16969 0
M  V30 25998 C 2398.76 -0.820552 -5.15814 0
M  V30 25999 H 2400.46 -0.742924 -2.90036 0
M  V30 26000 H 2398 -0.358713 -1.39461 0
M  V30 26001 H 2399.96 1.45385 -3.95527 0
M  V30 26002 H 2398.68 1.76036 -2.75098 0
M  V30 26003 H 2397.34 -0.167687 -3.66216 0
M  V30 26004 H 2396.99 2.14358 -4.55038 0
M  V30 26005 H 2396.69 0.914352 -5.80442 0
M  V30 26006 H 2398.21 1.84665 -5.82006 0
M  V30 26007 H 2399.62 -0.422467 -5.71741 0
M  V30 26008 H 2398.02 -1.19667 -5.88048 0
M  V30 26009 H 2399.09 -1.67526 -4.55042 0
M  V30 26010 N 2400.43 1.52351 -0.403352 0
M  V30 26011 C 2401.68 2.01748 0.174312 0
M  V30 26012 C 2402.01 1.28923 1.45633 0
M  V30 26013 O 2401.26 0.382291 1.9193 0
M  V30 26014 C 2401.56 3.54235 0.474602 0
M  V30 26015 C 2401.23 4.45154 -0.717536 0
M  V30 26016 C 2399.89 4.69726 -1.04455 0
M  V30 26017 C 2402.24 4.98714 -1.51441 0
M  V30 26018 C 2399.57 5.45105 -2.16972 0
M  V30 26019 C 2401.92 5.75324 -2.6303 0
M  V30 26020 C 2400.59 5.9817 -2.96224 0
M  V30 26021 H 2399.86 0.73825 0.0637851 0
M  V30 26022 H 2402.5 1.83623 -0.543585 0
M  V30 26023 H 2400.81 3.70508 1.274 0
M  V30 26024 H 2402.51 3.89961 0.934428 0
M  V30 26025 H 2399.1 4.26203 -0.452671 0
M  V30 26026 H 2403.28 4.79643 -1.275 0
M  V30 26027 H 2398.54 5.61016 -2.43044 0
M  V30 26028 H 2402.71 6.15823 -3.25169 0
M  V30 26029 H 2400.34 6.56361 -3.83528 0
M  V30 26030 N 2401.91 0.133594 1.57033 0
M  V30 26031 C 2403.33 -0.222916 1.58036 0
M  V30 26032 C 2403.53 -1.65658 1.14716 0
M  V30 26033 O 2402.58 -2.38074 0.84126 0
M  V30 26034 C 2403.9 0.0236644 3.00691 0
M  V30 26035 C 2405.45 -0.0410961 3.12973 0
M  V30 26036 C 2405.92 0.177979 4.57654 0
M  V30 26037 N 2407.41 0.124446 4.63033 0
M  V30 26038 C 2408.15 0.268653 5.7277 0
M  V30 26039 N 2407.64 0.469842 6.91205 0
M  V30 26040 N 2409.44 0.207199 5.61718 0
M  V30 26041 H 2401.59 1.06985 1.83489 0
M  V30 26042 H 2403.85 0.42245 0.848669 0
M  V30 26043 H 2403.56 1.01536 3.36724 0
M  V30 26044 H 2403.43 -0.701743 3.70615 0
M  V30 26045 H 2405.82 -1.02333 2.76789 0
M  V30 26046 H 2405.9 0.716426 2.45563 0
M  V30 26047 H 2405.54 1.15725 4.9454 0
M  V30 26048 H 2405.47 -0.599705 5.23174 0
M  V30 26049 H 2407.96 -0.0269446 3.7789 0
M  V30 26050 H 2408.28 0.570347 7.70692 0
M  V30 26051 H 2406.62 0.505997 6.93156 0
M  V30 26052 H 2409.81 0.0508808 4.68072 0
M  V30 26053 H 2409.98 0.323023 6.47194 0
M  V30 26054 N 2403.39 -1.56975 -0.140195 0
M  V30 26055 C 2404.64 -1.83992 -0.852917 0
M  V30 26056 C 2404.97 -0.716218 -1.8051 0
M  V30 26057 O 2404.24 0.279647 -1.92479 0
M  V30 26058 C 2404.53 -3.2153 -1.62144 0
M  V30 26059 C 2404.38 -4.44472 -0.690285 0
M  V30 26060 C 2405.7 -3.5637 -2.58241 0
M  V30 26061 H 2402.82 -0.669269 -0.308622 0
M  V30 26062 H 2405.46 -1.89634 -0.117865 0
M  V30 26063 H 2403.61 -3.16851 -2.24806 0
M  V30 26064 H 2405.28 -4.6124 -0.0741453 0
M  V30 26065 H 2403.53 -4.338 -0.000320181 0
M  V30 26066 H 2404.2 -5.37328 -1.26421 0
M  V30 26067 H 2406.67 -3.61703 -2.05694 0
M  V30 26068 H 2405.55 -4.53623 -3.09059 0
M  V30 26069 H 2405.81 -2.8268 -3.39918 0
M  V30 26070 N 2404.87 0.409753 -1.5218 0
M  V30 26071 C 2406.12 1.15385 -1.65436 0
M  V30 26072 C 2406.43 1.91671 -0.39009 0
M  V30 26073 O 2407.64 2.68501 -0.402446 0
M  V30 26074 C 2406.09 2.09997 -2.92283 0
M  V30 26075 C 2405.7 1.39231 -4.25815 0
M  V30 26076 C 2407.44 2.8467 -3.14902 0
M  V30 26077 C 2405.35 2.32489 -5.43786 0
M  V30 26078 H 2404.28 0.434421 -0.616274 0
M  V30 26079 H 2406.93 0.41837 -1.78667 0
M  V30 26080 H 2405.31 2.87095 -2.72749 0
M  V30 26081 H 2406.49 0.675019 -4.55829 0
M  V30 26082 H 2404.8 0.766025 -4.09293 0
M  V30 26083 H 2407.4 3.54586 -4.00216 0
M  V30 26084 H 2407.74 3.47584 -2.29109 0
M  V30 26085 H 2408.28 2.14671 -3.34904 0
M  V30 26086 H 2405.02 1.74222 -6.31923 0
M  V30 26087 H 2404.54 3.02192 -5.18112 0
M  V30 26088 H 2406.21 2.93028 -5.7684 0
M  V30 26089 N 2406.35 1.42792 0.666944 0
M  V30 26090 C 2407.76 1.25891 0.981005 0
M  V30 26091 C 2407.96 0.16873 2.00792 0
M  V30 26092 O 2407.02 -0.457426 2.48322 0
M  V30 26093 C 2408.33 2.61851 1.47833 0
M  V30 26094 C 2409.88 2.6927 1.5957 0
M  V30 26095 C 2410.35 4.05616 2.12697 0
M  V30 26096 N 2411.85 4.0761 2.20019 0
M  V30 26097 C 2412.58 5.09931 2.62218 0
M  V30 26098 N 2412.08 6.22631 3.03813 0
M  V30 26099 N 2413.87 4.97286 2.62036 0
M  V30 26100 H 2406.02 2.12396 -0.0128264 0
M  V30 26101 H 2408.28 0.946296 0.0568091 0
M  V30 26102 H 2407.99 3.42522 0.798239 0
M  V30 26103 H 2407.86 2.86309 2.45574 0
M  V30 26104 H 2410.25 1.8894 2.26684 0
M  V30 26105 H 2410.33 2.48592 0.602976 0
M  V30 26106 H 2409.98 4.86406 1.46189 0
M  V30 26107 H 2409.91 4.2365 3.12775 0
M  V30 26108 H 2412.4 3.26253 1.90702 0
M  V30 26109 H 2412.71 6.96549 3.34722 0
M  V30 26110 H 2411.05 6.26124 3.01651 0
M  V30 26111 H 2414.25 4.08312 2.28908 0
M  V30 26112 H 2414.42 5.7716 2.94603 0
M  V30 26113 N 2407.82 -0.904008 1.29095 0
M  V30 26114 C 2408.75 -2.02416 1.16405 0
M  V30 26115 C 2409.74 -1.69996 0.0593384 0
M  V30 26116 O 2410.92 -1.92735 0.238055 0
M  V30 26117 C 2408.05 -3.37106 0.835292 0
M  V30 26118 C 2407 -3.83721 1.89585 0
M  V30 26119 C 2406.33 -5.15486 1.4205 0
M  V30 26120 C 2407.63 -4.04515 3.30401 0
M  V30 26121 H 2409.32 -2.13291 2.10113 0
M  V30 26122 H 2406.87 -1.02484 1.01159 0
M  V30 26123 H 2408.82 -4.14972 0.733241 0
M  V30 26124 H 2407.55 -3.2631 -0.137486 0
M  V30 26125 H 2406.21 -3.08068 1.98721 0
M  V30 26126 H 2405.85 -5.01102 0.436514 0
M  V30 26127 H 2405.55 -5.47646 2.12974 0
M  V30 26128 H 2407.08 -5.95897 1.33186 0
M  V30 26129 H 2408.49 -4.72876 3.24131 0
M  V30 26130 H 2406.89 -4.48022 3.99245 0
M  V30 26131 H 2407.96 -3.08995 3.73698 0
M  V30 26132 N 2409.3 -1.11501 -1.11379 0
M  V30 26133 C 2410.27 -0.777191 -2.15621 0
M  V30 26134 C 2411.27 0.203751 -1.59504 0
M  V30 26135 O 2412.46 -0.0208126 -1.74188 0
M  V30 26136 C 2409.59 -0.153176 -3.40556 0
M  V30 26137 H 2410.78 -1.70065 -2.47018 0
M  V30 26138 H 2408.33 -0.916974 -1.26575 0
M  V30 26139 H 2409.07 0.780481 -3.14768 0
M  V30 26140 H 2408.85 -0.859305 -3.82568 0
M  V30 26141 H 2410.34 0.067031 -4.17546 0
M  V30 26142 N 2410.78 1.28995 -0.905426 0
M  V30 26143 C 2412.2 1.47797 -0.602356 0
M  V30 26144 C 2412.4 1.82479 0.854613 0
M  V30 26145 O 2411.45 1.92471 1.63435 0
M  V30 26146 C 2412.77 2.58682 -1.5331 0
M  V30 26147 C 2414.31 2.72555 -1.53892 0
M  V30 26148 C 2414.79 3.86575 -2.45609 0
M  V30 26149 N 2416.28 3.93917 -2.43688 0
M  V30 26150 C 2417.02 4.81503 -3.11356 0
M  V30 26151 N 2416.51 5.7374 -3.88323 0
M  V30 26152 N 2418.3 4.75043 -3.00484 0
M  V30 26153 H 2410.46 1.04761 -1.84767 0
M  V30 26154 H 2412.72 0.520947 -0.792034 0
M  V30 26155 H 2412.42 2.39936 -2.57145 0
M  V30 26156 H 2412.3 3.55607 -1.25793 0
M  V30 26157 H 2414.69 2.90695 -0.507992 0
M  V30 26158 H 2414.77 1.76188 -1.8545 0
M  V30 26159 H 2414.41 3.69191 -3.48799 0
M  V30 26160 H 2414.34 4.82323 -2.11358 0
M  V30 26161 H 2416.83 3.27948 -1.87772 0
M  V30 26162 H 2417.14 6.37381 -4.36996 0
M  V30 26163 H 2415.49 5.73607 -3.92429 0
M  V30 26164 H 2418.68 4.01973 -2.39865 0
M  V30 26165 H 2418.85 5.43089 -3.53494 0
M  V30 26166 N 2412.26 0.668514 1.42719 0
M  V30 26167 C 2413.51 0.185424 2.00846 0
M  V30 26168 C 2413.82 -1.21302 1.53444 0
M  V30 26169 O 2415.03 -1.79215 2.03947 0
M  V30 26170 C 2413.48 0.280654 3.58804 0
M  V30 26171 C 2413.09 1.68276 4.15196 0
M  V30 26172 C 2414.84 -0.144046 4.24256 0
M  V30 26173 C 2412.74 1.73109 5.65497 0
M  V30 26174 H 2411.67 0.0655607 0.751144 0
M  V30 26175 H 2414.32 0.832781 1.63515 0
M  V30 26176 H 2412.71 -0.434484 3.93609 0
M  V30 26177 H 2413.88 2.42447 3.91862 0
M  V30 26178 H 2412.19 2.05476 3.62172 0
M  V30 26179 H 2414.79 -0.127992 5.34547 0
M  V30 26180 H 2415.13 -1.1782 3.99279 0
M  V30 26181 H 2415.67 0.519867 3.94388 0
M  V30 26182 H 2412.41 2.74486 5.95263 0
M  V30 26183 H 2411.93 1.03284 5.9084 0
M  V30 26184 H 2413.61 1.48169 6.29805 0
M  V30 26185 N 2413.74 -1.52135 0.411426 0
M  V30 26186 C 2414.99 -2.01439 -0.163287 0
M  V30 26187 C 2415.31 -1.29882 -1.4545 0
M  V30 26188 O 2414.58 -0.425434 -1.91225 0
M  V30 26189 H 2413.16 -0.74431 -0.0633316 0
M  V30 26190 H 2415.82 -1.87032 0.548194 0
M  V30 26191 H 2414.91 -3.10043 -0.357762 0
M  V30 26192 N 2415.22 -0.14192 -1.5696 0
M  V30 26193 C 2416.63 0.214532 -1.58152 0
M  V30 26194 C 2416.83 1.65047 -1.15593 0
M  V30 26195 O 2415.89 2.37624 -0.853874 0
M  V30 26196 C 2417.2 -0.0396105 -3.00674 0
M  V30 26197 C 2418.75 0.0244978 -3.1299 0
M  V30 26198 C 2419.22 -0.202247 -4.57553 0
M  V30 26199 N 2420.71 -0.149 -4.6296 0
M  V30 26200 C 2421.45 -0.299025 -5.7262 0
M  V30 26201 N 2420.95 -0.506491 -6.90946 0
M  V30 26202 N 2422.74 -0.236985 -5.616 0
M  V30 26203 H 2414.89 -1.07956 -1.82919 0
M  V30 26204 H 2417.15 -0.426945 -0.846417 0
M  V30 26205 H 2416.86 -1.0332 -3.36181 0
M  V30 26206 H 2416.73 0.682078 -3.70982 0
M  V30 26207 H 2419.12 1.00864 -2.77327 0
M  V30 26208 H 2419.2 -0.729439 -2.45179 0
M  V30 26209 H 2418.84 -1.18346 -4.9392 0
M  V30 26210 H 2418.77 0.571952 -5.23485 0
M  V30 26211 H 2421.27 0.00690373 -3.77899 0
M  V30 26212 H 2421.58 -0.611211 -7.70379 0
M  V30 26213 H 2419.92 -0.54275 -6.92877 0
M  V30 26214 H 2423.11 -0.0757031 -4.68039 0
M  V30 26215 H 2423.29 -0.357341 -6.47014 0
M  V30 26216 N 2416.69 1.57047 0.131868 0
M  V30 26217 C 2417.94 1.83358 0.840408 0
M  V30 26218 C 2418.26 0.725567 1.81645 0
M  V30 26219 O 2419.46 0.874704 2.57024 0
M  V30 26220 C 2417.92 3.2504 1.54522 0
M  V30 26221 C 2417.53 4.43816 0.610823 0
M  V30 26222 C 2419.27 3.6061 2.23965 0
M  V30 26223 C 2417.18 5.76523 1.31813 0
M  V30 26224 H 2416.11 0.683853 0.317587 0
M  V30 26225 H 2418.76 1.83264 0.0931239 0
M  V30 26226 H 2417.14 3.19565 2.33867 0
M  V30 26227 H 2418.31 4.60561 -0.148488 0
M  V30 26228 H 2416.63 4.16393 0.0240284 0
M  V30 26229 H 2419.23 4.57023 2.7755 0
M  V30 26230 H 2419.57 2.87409 3.01168 0
M  V30 26231 H 2420.1 3.67812 1.51522 0
M  V30 26232 H 2416.84 6.52861 0.587656 0
M  V30 26233 H 2416.36 5.63688 2.04977 0
M  V30 26234 H 2418.04 6.19841 1.85489 0
M  V30 26235 N 2418.17 -0.401677 1.52395 0
M  V30 26236 C 2419.1 -1.49658 1.79234 0
M  V30 26237 C 2420.08 -1.57451 0.643682 0
M  V30 26238 O 2421.27 -1.72604 0.89002 0
M  V30 26239 C 2418.4 -2.87405 1.94976 0
M  V30 26240 C 2417.35 -2.94459 3.10609 0
M  V30 26241 C 2416.68 -4.34533 3.11585 0
M  V30 26242 C 2417.98 -2.65262 4.49926 0
M  V30 26243 H 2419.67 -1.27449 2.70919 0
M  V30 26244 H 2417.22 -0.611677 1.30363 0
M  V30 26245 H 2419.17 -3.63995 2.12334 0
M  V30 26246 H 2417.89 -3.10924 0.999687 0
M  V30 26247 H 2416.55 -2.20316 2.93013 0
M  V30 26248 H 2416.2 -4.55072 2.14285 0
M  V30 26249 H 2415.9 -4.40176 3.89255 0
M  V30 26250 H 2417.43 -5.13047 3.31082 0
M  V30 26251 H 2418.84 -3.31573 4.67689 0
M  V30 26252 H 2417.24 -2.82271 5.29569 0
M  V30 26253 H 2418.31 -1.60663 4.5751 0
M  V30 26254 N 2419.65 -1.43144 -0.659362 0
M  V30 26255 C 2421.07 -1.26409 -0.974315 0
M  V30 26256 C 2421.27 -0.179376 -2.007 0
M  V30 26257 O 2420.32 0.444251 -2.48561 0
M  V30 26258 C 2421.63 -2.62631 -1.46443 0
M  V30 26259 C 2423.18 -2.70113 -1.5814 0
M  V30 26260 C 2423.66 -4.06738 -2.10543 0
M  V30 26261 N 2425.15 -4.08771 -2.17854 0
M  V30 26262 C 2425.88 -5.11314 -2.5951 0
M  V30 26263 N 2425.38 -6.24234 -3.00507 0
M  V30 26264 N 2427.17 -4.98669 -2.59395 0
M  V30 26265 H 2419.32 -2.12386 0.0240901 0
M  V30 26266 H 2421.59 -0.946584 -0.0517899 0
M  V30 26267 H 2421.29 -3.4294 -0.780063 0
M  V30 26268 H 2421.17 -2.87608 -2.44053 0
M  V30 26269 H 2423.55 -1.9014 -2.25679 0
M  V30 26270 H 2423.63 -2.48908 -0.589784 0
M  V30 26271 H 2423.28 -4.87175 -1.43608 0
M  V30 26272 H 2423.21 -4.25303 -3.10523 0
M  V30 26273 H 2425.7 -3.2726 -1.88969 0
M  V30 26274 H 2426.01 -6.98315 -3.31023 0
M  V30 26275 H 2424.36 -6.27715 -2.98326 0
M  V30 26276 H 2427.55 -4.0952 -2.2674 0
M  V30 26277 H 2427.72 -5.78714 -2.91538 0
M  V30 26278 N 2421.13 0.897149 -1.29572 0
M  V30 26279 C 2422.06 2.01796 -1.17476 0
M  V30 26280 C 2423.04 1.69963 -0.0683529 0
M  V30 26281 O 2424.22 1.92606 -0.248273 0
M  V30 26282 C 2421.35 3.36658 -0.853158 0
M  V30 26283 C 2420.31 3.8271 -1.91617 0
M  V30 26284 C 2419.63 5.14726 -1.44782 0
M  V30 26285 C 2420.93 4.02757 -3.32542 0
M  V30 26286 H 2422.63 2.12174 -2.11241 0
M  V30 26287 H 2420.17 1.01946 -1.01701 0
M  V30 26288 H 2422.13 4.14577 -0.755238 0
M  V30 26289 H 2420.85 3.26379 0.120179 0
M  V30 26290 H 2419.51 3.07009 -2.00352 0
M  V30 26291 H 2419.16 5.00864 -0.463083 0
M  V30 26292 H 2418.86 5.46509 -2.15875 0
M  V30 26293 H 2420.38 5.95183 -1.36345 0
M  V30 26294 H 2421.8 4.71151 -3.26634 0
M  V30 26295 H 2420.19 4.45898 -4.01615 0
M  V30 26296 H 2421.26 3.07009 -3.75331 0
M  V30 26297 N 2422.61 1.1209 1.10786 0
M  V30 26298 C 2423.85 0.868691 1.82035 0
M  V30 26299 C 2424.17 -0.607394 1.8593 0
M  V30 26300 O 2425.37 -0.976085 2.53347 0
M  V30 26301 C 2423.83 1.50441 3.26949 0
M  V30 26302 C 2423.44 3.01502 3.31362 0
M  V30 26303 C 2425.18 1.33232 4.0305 0
M  V30 26304 C 2423.09 3.58025 4.70714 0
M  V30 26305 H 2422.02 0.32133 0.682102 0
M  V30 26306 H 2424.67 1.34696 1.24616 0
M  V30 26307 H 2423.05 0.953803 3.84342 0
M  V30 26308 H 2424.23 3.63025 2.83813 0
M  V30 26309 H 2422.54 3.18065 2.68744 0
M  V30 26310 H 2425.14 1.72887 5.05978 0
M  V30 26311 H 2425.48 0.275602 4.15387 0
M  V30 26312 H 2426.01 1.85194 3.52062 0
M  V30 26313 H 2422.75 4.6344 4.63577 0
M  V30 26314 H 2422.27 3.01277 5.18645 0
M  V30 26315 H 2423.95 3.56869 5.39679 0
M  V30 26316 N 2424.08 -1.28513 0.912254 0
M  V30 26317 C 2425.03 -2.27343 0.397994 0
M  V30 26318 C 2426 -1.57527 -0.526738 0
M  V30 26319 O 2427.19 -1.85435 -0.449259 0
M  V30 26320 C 2424.33 -3.43246 -0.357202 0
M  V30 26321 C 2423.44 -4.27815 0.599863 0
M  V30 26322 C 2422.57 -5.30916 -0.173632 0
M  V30 26323 C 2421.61 -6.07146 0.777146 0
M  V30 26324 N 2420.75 -7.0209 0.0372632 0
M  V30 26325 H 2425.59 -2.70709 1.24582 0
M  V30 26326 H 2423.13 -1.33132 0.625635 0
M  V30 26327 H 2425.08 -4.09237 -0.811228 0
M  V30 26328 H 2423.71 -3.00874 -1.16938 0
M  V30 26329 H 2422.77 -3.61882 1.17242 0
M  V30 26330 H 2424.08 -4.80821 1.32713 0
M  V30 26331 H 2423.23 -6.02783 -0.688288 0
M  V30 26332 H 2421.97 -4.78674 -0.933957 0
M  V30 26333 H 2420.98 -5.34132 1.30319 0
M  V30 26334 H 2422.2 -6.61478 1.537 0
M  V30 26335 H 2420.15 -6.522 -0.705099 0
M  V30 26336 H 2420.06 -7.52711 0.704381 0
M  V30 26337 H 2421.33 -7.78158 -0.457246 0
M  V30 26338 N 2425.56 -0.676073 -1.42362 0
M  V30 26339 C 2426.81 -0.198473 -2.01123 0
M  V30 26340 C 2427.13 1.19963 -1.53733 0
M  V30 26341 O 2426.4 1.80576 -0.759549 0
M  V30 26342 H 2424.98 -0.0703852 -0.743677 0
M  V30 26343 H 2427.64 -0.872867 -1.74261 0
M  V30 26344 H 2426.74 -0.200741 -3.11454 0
M  V30 26345 N 2427.04 1.51915 -0.419488 0
M  V30 26346 C 2428 2.25874 0.389076 0
M  V30 26347 C 2429 1.28632 0.964901 0
M  V30 26348 O 2430.19 1.52491 0.842152 0
M  V30 26349 C 2427.33 3.03691 1.54869 0
M  V30 26350 H 2428.52 2.98781 -0.258851 0
M  V30 26351 H 2426.07 1.55348 -0.172236 0
M  V30 26352 H 2426.81 2.35158 2.23318 0
M  V30 26353 H 2426.59 3.75096 1.14217 0
M  V30 26354 H 2428.08 3.59762 2.1204 0
M  V30 26355 N 2428.52 0.150242 1.56882 0
M  V30 26356 C 2429.47 -0.788206 2.16924 0
M  V30 26357 C 2430.44 -1.24185 1.10305 0
M  V30 26358 O 2431.62 -1.3138 1.38361 0
M  V30 26359 C 2428.76 -2.02064 2.79758 0
M  V30 26360 C 2427.87 -1.6125 4.00777 0
M  V30 26361 C 2427.01 -2.79697 4.516 0
M  V30 26362 C 2426.05 -2.35272 5.65078 0
M  V30 26363 N 2425.18 -3.46739 6.10505 0
M  V30 26364 H 2430.02 -0.269392 2.9678 0
M  V30 26365 H 2427.56 -0.121254 1.46599 0
M  V30 26366 H 2429.52 -2.74318 3.14334 0
M  V30 26367 H 2428.15 -2.51351 2.02541 0
M  V30 26368 H 2427.2 -0.787488 3.7216 0
M  V30 26369 H 2428.51 -1.24624 4.82981 0
M  V30 26370 H 2427.67 -3.60136 4.88248 0
M  V30 26371 H 2426.41 -3.19569 3.68411 0
M  V30 26372 H 2425.41 -1.53273 5.28003 0
M  V30 26373 H 2426.64 -1.96482 6.50055 0
M  V30 26374 H 2424.58 -3.86226 5.3025 0
M  V30 26375 H 2424.5 -3.14139 6.87643 0
M  V30 26376 H 2425.77 -4.27526 6.51799 0
M  V30 26377 N 2430 -1.57115 -0.123538 0
M  V30 26378 C 2431.24 -1.84248 -0.830477 0
M  V30 26379 C 2431.57 -0.734742 -1.80628 0
M  V30 26380 O 2430.84 0.241654 -1.94404 0
M  V30 26381 H 2429.42 -0.679784 -0.309682 0
M  V30 26382 H 2432.08 -1.94578 -0.111942 0
M  V30 26383 H 2431.17 -2.80008 -1.37847 0
M  V30 26384 N 2431.47 0.393589 -1.52606 0
M  V30 26385 C 2432.72 1.13624 -1.66651 0
M  V30 26386 C 2433.04 1.91246 -0.410397 0
M  V30 26387 O 2434.24 2.68059 -0.430901 0
M  V30 26388 C 2432.7 2.06886 -2.94493 0
M  V30 26389 C 2432.31 1.34707 -4.27268 0
M  V30 26390 C 2434.05 2.81314 -3.17904 0
M  V30 26391 C 2431.96 2.26708 -5.46221 0
M  V30 26392 H 2430.89 0.427861 -0.620847 0
M  V30 26393 H 2433.54 0.399396 -1.79101 0
M  V30 26394 H 2431.92 2.84186 -2.75779 0
M  V30 26395 H 2433.09 0.626634 -4.56519 0
M  V30 26396 H 2431.41 0.722571 -4.10083 0
M  V30 26397 H 2434.01 3.50321 -4.03955 0
M  V30 26398 H 2434.35 3.45135 -2.32783 0
M  V30 26399 H 2434.88 2.11107 -3.37162 0
M  V30 26400 H 2431.62 1.67509 -6.33736 0
M  V30 26401 H 2431.14 2.9668 -5.21288 0
M  V30 26402 H 2432.82 2.86893 -5.79915 0
M  V30 26403 N 2432.95 1.43492 0.651762 0
M  V30 26404 C 2434.37 1.26924 0.967598 0
M  V30 26405 C 2434.57 0.190017 2.00602 0
M  V30 26406 O 2433.62 -0.431063 2.48793 0
M  V30 26407 C 2434.94 2.63404 1.45048 0
M  V30 26408 C 2436.49 2.70948 1.56705 0
M  V30 26409 C 2436.96 4.07849 2.08383 0
M  V30 26410 N 2438.45 4.09921 2.15683 0
M  V30 26411 C 2439.19 5.12683 2.56795 0
M  V30 26412 N 2438.68 6.25819 2.97192 0
M  V30 26413 N 2440.48 5.00037 2.56747 0
M  V30 26414 H 2432.63 2.12371 -0.0353532 0
M  V30 26415 H 2434.89 0.946846 0.0467692 0
M  V30 26416 H 2434.6 3.43349 0.761865 0
M  V30 26417 H 2434.47 2.88898 2.42524 0
M  V30 26418 H 2436.86 1.91334 2.24667 0
M  V30 26419 H 2436.94 2.49217 0.576576 0
M  V30 26420 H 2436.58 4.87929 1.41022 0
M  V30 26421 H 2436.51 4.26944 3.08264 0
M  V30 26422 H 2439 3.28257 1.87231 0
M  V30 26423 H 2439.32 7.0006 3.27315 0
M  V30 26424 H 2437.66 6.29289 2.94993 0
M  V30 26425 H 2440.85 4.10717 2.24565 0
M  V30 26426 H 2441.02 5.80252 2.88465 0
M  V30 26427 N 2434.43 -0.890264 1.30046 0
M  V30 26428 C 2435.66 -1.67485 1.21475 0
M  V30 26429 C 2436.07 -1.87476 -0.223208 0
M  V30 26430 O 2435.43 -1.41849 -1.14826 0
M  V30 26431 C 2435.48 -3.05416 1.934 0
M  V30 26432 O 2435.2 -2.86331 3.31581 0
M  V30 26433 C 2436.7 -3.99841 1.91421 0
M  V30 26434 H 2433.92 -0.522805 0.420613 0
M  V30 26435 H 2436.47 -1.11265 1.71582 0
M  V30 26436 H 2434.62 -3.58384 1.47105 0
M  V30 26437 H 2435.04 -3.73796 3.67936 0
M  V30 26438 H 2436.51 -4.94007 2.46294 0
M  V30 26439 H 2436.99 -4.30048 0.891908 0
M  V30 26440 H 2437.59 -3.52807 2.37502 0
M  V30 26441 N 2435.91 -1.12676 -1.1019 0
M  V30 26442 C 2436.84 -0.8194 -2.18651 0
M  V30 26443 C 2437.82 0.217886 -1.68699 0
M  V30 26444 O 2439 0.078524 -1.94041 0
M  V30 26445 C 2436.13 -0.276001 -3.46202 0
M  V30 26446 C 2435.09 -1.24664 -4.09442 0
M  V30 26447 C 2434.41 -0.563352 -5.31724 0
M  V30 26448 C 2435.71 -2.60225 -4.52858 0
M  V30 26449 H 2437.41 -1.72632 -2.44619 0
M  V30 26450 H 2434.95 -0.831472 -1.17569 0
M  V30 26451 H 2436.91 -0.048689 -4.21372 0
M  V30 26452 H 2435.63 0.666275 -3.19732 0
M  V30 26453 H 2434.29 -1.4598 -3.36282 0
M  V30 26454 H 2433.94 0.384147 -5.01531 0
M  V30 26455 H 2433.64 -1.21085 -5.74989 0
M  V30 26456 H 2435.16 -0.345137 -6.09624 0
M  V30 26457 H 2436.58 -2.42922 -5.1929 0
M  V30 26458 H 2434.97 -3.21077 -5.06981 0
M  V30 26459 H 2436.04 -3.18478 -3.6565 0
M  V30 26460 N 2437.39 1.28028 -0.919057 0
M  V30 26461 C 2438.32 2.29532 -0.428622 0
M  V30 26462 C 2439.3 1.62382 0.506561 0
M  V30 26463 O 2440.48 1.89754 0.413162 0
M  V30 26464 C 2437.61 3.45754 0.327328 0
M  V30 26465 C 2436.57 4.24839 -0.519212 0
M  V30 26466 C 2435.89 5.3345 0.365393 0
M  V30 26467 C 2437.19 4.91061 -1.77923 0
M  V30 26468 H 2438.89 2.70805 -1.27692 0
M  V30 26469 H 2436.43 1.30185 -0.615451 0
M  V30 26470 H 2438.39 4.15856 0.681305 0
M  V30 26471 H 2437.11 3.03376 1.20957 0
M  V30 26472 H 2435.77 3.56472 -0.855779 0
M  V30 26473 H 2435.42 4.87314 1.24634 0
M  V30 26474 H 2435.12 5.87268 -0.197459 0
M  V30 26475 H 2436.64 6.06398 0.715134 0
M  V30 26476 H 2438.05 5.53496 -1.49384 0
M  V30 26477 H 2436.45 5.54898 -2.2849 0
M  V30 26478 H 2437.52 4.15251 -2.50389 0
M  V30 26479 N 2438.86 0.683613 1.42002 0
M  V30 26480 C 2440.11 0.20955 2.01413 0
M  V30 26481 C 2440.44 -1.18687 1.5409 0
M  V30 26482 O 2439.69 -1.81267 0.737623 0
M  V30 26483 C 2439.99 0.20242 3.56826 0
M  V30 26484 C 2439.66 1.54472 4.23615 0
M  V30 26485 C 2438.32 1.91222 4.41574 0
M  V30 26486 C 2440.67 2.42834 4.61173 0
M  V30 26487 C 2438 3.15943 4.94365 0
M  V30 26488 C 2440.35 3.66876 5.15349 0
M  V30 26489 C 2439.02 4.03785 5.3152 0
M  V30 26490 H 2438.29 0.0766797 0.737022 0
M  V30 26491 H 2440.93 0.880342 1.70065 0
M  V30 26492 H 2439.24 -0.551901 3.87893 0
M  V30 26493 H 2440.94 -0.181723 4.00588 0
M  V30 26494 H 2437.53 1.24885 4.10002 0
M  V30 26495 H 2441.71 2.15725 4.46964 0
M  V30 26496 H 2436.97 3.44549 5.0507 0
M  V30 26497 H 2441.14 4.35541 5.43394 0
M  V30 26498 H 2438.77 5.00502 5.7219 0
M  V30 26499 N 2440.34 -1.5169 0.427538 0
M  V30 26500 C 2441.31 -2.26077 -0.377092 0
M  V30 26501 C 2442.31 -1.29142 -0.958066 0
M  V30 26502 O 2443.5 -1.52935 -0.834053 0
M  V30 26503 C 2440.63 -3.04508 -1.53256 0
M  V30 26504 H 2441.82 -2.98639 0.274693 0
M  V30 26505 H 2439.37 -1.55255 0.180472 0
M  V30 26506 H 2440.11 -2.36339 -2.22068 0
M  V30 26507 H 2439.89 -3.75696 -1.12226 0
M  V30 26508 H 2441.38 -3.60882 -2.10129 0
M  V30 26509 N 2441.82 -0.15856 -1.568 0
M  V30 26510 C 2442.75 0.77257 -2.20349 0
M  V30 26511 C 2443.73 1.24857 -1.1552 0
M  V30 26512 O 2444.92 1.30404 -1.43905 0
M  V30 26513 C 2442.05 2.00724 -2.83421 0
M  V30 26514 C 2441 1.66758 -3.94177 0
M  V30 26515 C 2440.33 2.97584 -4.44238 0
M  V30 26516 C 2441.63 0.905357 -5.14393 0
M  V30 26517 H 2443.32 0.242906 -2.98413 0
M  V30 26518 H 2440.87 0.115393 -1.43537 0
M  V30 26519 H 2442.82 2.66354 -3.26548 0
M  V30 26520 H 2441.54 2.56082 -2.02705 0
M  V30 26521 H 2440.2 1.03502 -3.51686 0
M  V30 26522 H 2439.85 3.50957 -3.60331 0
M  V30 26523 H 2439.55 2.75617 -5.1895 0
M  V30 26524 H 2441.08 3.64266 -4.90044 0
M  V30 26525 H 2442.49 1.46398 -5.54293 0
M  V30 26526 H 2440.89 0.785195 -5.94941 0
M  V30 26527 H 2441.96 -0.100753 -4.84795 0
M  V30 26528 N 2443.3 1.57178 0.115204 0
M  V30 26529 C 2444.23 1.95827 1.17162 0
M  V30 26530 C 2445.21 0.828487 1.3991 0
M  V30 26531 O 2446.39 1.087 1.54002 0
M  V30 26532 C 2443.52 2.25776 2.52474 0
M  V30 26533 C 2442.57 3.48314 2.4613 0
M  V30 26534 S 2443.4 5.00763 1.89727 0
M  V30 26535 C 2444.56 5.33868 3.26704 0
M  V30 26536 H 2444.79 2.85126 0.842053 0
M  V30 26537 H 2442.32 1.51003 0.32211 0
M  V30 26538 H 2444.28 2.43708 3.30328 0
M  V30 26539 H 2442.94 1.37084 2.82607 0
M  V30 26540 H 2442.13 3.66647 3.45813 0
M  V30 26541 H 2441.74 3.29787 1.76398 0
M  V30 26542 H 2444.03 5.29283 4.22926 0
M  V30 26543 H 2444.97 6.35071 3.13194 0
M  V30 26544 H 2445.38 4.61341 3.25308 0
M  V30 26545 N 2444.78 -0.38549 1.52813 0
M  V30 26546 C 2445.71 -1.49286 1.72595 0
M  V30 26547 C 2446.69 -1.52137 0.573846 0
M  V30 26548 O 2447.87 -1.7049 0.80407 0
M  V30 26549 C 2445 -2.87738 1.78674 0
M  V30 26550 C 2444.05 -3.02698 3.0046 0
M  V30 26551 S 2444.88 -2.7353 4.60371 0
M  V30 26552 C 2446.03 -4.14169 4.6927 0
M  V30 26553 H 2446.27 -1.32281 2.6625 0
M  V30 26554 H 2443.8 -0.578586 1.43149 0
M  V30 26555 H 2445.76 -3.67521 1.82862 0
M  V30 26556 H 2444.42 -3.02067 0.861054 0
M  V30 26557 H 2443.61 -4.04049 3.01265 0
M  V30 26558 H 2443.21 -2.30812 2.94282 0
M  V30 26559 H 2445.51 -5.08145 4.48101 0
M  V30 26560 H 2446.45 -4.18378 5.71284 0
M  V30 26561 H 2446.86 -4.00242 3.98079 0
M  V30 26562 N 2446.26 -1.43835 -0.644143 0
M  V30 26563 C 2447.48 -1.49607 -1.4364 0
M  V30 26564 C 2447.91 -0.117946 -1.8773 0
M  V30 26565 O 2447.26 0.890211 -1.5794 0
M  V30 26566 C 2447.31 -2.45468 -2.64155 0
M  V30 26567 O 2446.42 -1.94721 -3.63535 0
M  V30 26568 H 2445.76 -0.505688 -0.43032 0
M  V30 26569 H 2448.29 -1.88841 -0.787415 0
M  V30 26570 H 2448.3 -2.63073 -3.1186 0
M  V30 26571 H 2446.97 -3.45576 -2.31408 0
M  V30 26572 H 2445.55 -1.8682 -3.22727 0
M  V30 26573 N 2447.73 0.883355 -1.30517 0
M  V30 26574 C 2448.66 2.00538 -1.1961 0
M  V30 26575 C 2449.64 1.69881 -0.0863759 0
M  V30 26576 O 2450.83 1.92332 -0.268687 0
M  V30 26577 C 2447.96 3.35734 -0.888817 0
M  V30 26578 C 2446.91 3.80656 -1.95665 0
M  V30 26579 C 2446.24 5.13161 -1.50233 0
M  V30 26580 C 2447.54 3.99207 -3.36795 0
M  V30 26581 H 2449.23 2.09921 -2.13479 0
M  V30 26582 H 2446.78 1.00861 -1.02776 0
M  V30 26583 H 2448.73 4.13753 -0.799167 0
M  V30 26584 H 2447.46 3.26488 0.0855552 0
M  V30 26585 H 2446.12 3.04867 -2.03597 0
M  V30 26586 H 2445.76 5.00344 -0.51618 0
M  V30 26587 H 2445.46 5.44188 -2.21659 0
M  V30 26588 H 2446.99 5.93703 -1.4265 0
M  V30 26589 H 2448.4 4.6766 -3.31613 0
M  V30 26590 H 2446.8 4.41614 -4.06322 0
M  V30 26591 H 2447.87 3.03011 -3.78566 0
M  V30 26592 N 2449.21 1.13259 1.09591 0
M  V30 26593 C 2450.62 0.906302 1.63227 0
M  V30 26594 C 2450.97 -0.557545 1.88111 0
M  V30 26595 O 2450.1 -1.42388 1.62956 0
M  V30 26596 C 2450.69 1.63872 2.96532 0
M  V30 26597 C 2449.25 1.45834 3.47001 0
M  V30 26598 C 2448.4 1.66902 2.21447 0
M  V30 26599 H 2451.35 1.28613 0.929757 0
M  V30 26600 H 2451.37 1.09482 3.64409 0
M  V30 26601 H 2450.88 2.70409 2.78389 0
M  V30 26602 H 2448.98 0.415913 3.70271 0
M  V30 26603 H 2449.1 2.22027 4.24548 0
M  V30 26604 H 2447.46 1.09375 2.3002 0
M  V30 26605 H 2448.24 2.74756 2.05826 0
M  V30 26606 N 2450.69 -1.27539 0.925834 0
M  V30 26607 C 2451.65 -2.25165 0.428168 0
M  V30 26608 C 2452.65 -1.5431 -0.452234 0
M  V30 26609 O 2453.84 -1.72344 -0.253578 0
M  V30 26610 C 2450.97 -3.38723 -0.384689 0
M  V30 26611 H 2452.17 -2.70704 1.29071 0
M  V30 26612 H 2449.72 -1.39429 0.706347 0
M  V30 26613 H 2450.46 -2.98563 -1.26613 0
M  V30 26614 H 2450.24 -3.91324 0.246523 0
M  V30 26615 H 2451.73 -4.11288 -0.723317 0
M  V30 26616 N 2452.17 -0.691135 -1.41637 0
M  V30 26617 C 2453.1 -0.037289 -2.3347 0
M  V30 26618 C 2454.08 0.771921 -1.51576 0
M  V30 26619 O 2455.26 0.725788 -1.80128 0
M  V30 26620 C 2452.39 0.903005 -3.35355 0
M  V30 26621 C 2451.35 0.201213 -4.27527 0
M  V30 26622 C 2450.67 1.25556 -5.1975 0
M  V30 26623 C 2451.97 -0.92978 -5.13958 0
M  V30 26624 H 2453.67 -0.804278 -2.88395 0
M  V30 26625 H 2451.21 -0.388214 -1.38668 0
M  V30 26626 H 2453.17 1.36962 -3.98521 0
M  V30 26627 H 2451.89 1.70161 -2.7877 0
M  V30 26628 H 2450.55 -0.24533 -3.65778 0
M  V30 26629 H 2450.2 2.04658 -4.59483 0
M  V30 26630 H 2449.9 0.791026 -5.82251 0
M  V30 26631 H 2451.42 1.72278 -5.85792 0
M  V30 26632 H 2452.84 -0.543647 -5.70717 0
M  V30 26633 H 2451.23 -1.32113 -5.85377 0
M  V30 26634 H 2452.3 -1.77141 -4.51386 0
M  V30 26635 N 2453.65 1.51461 -0.435577 0
M  V30 26636 C 2454.89 2.02073 0.131479 0
M  V30 26637 C 2455.22 1.31983 1.42866 0
M  V30 26638 O 2454.48 0.422917 1.91076 0
M  V30 26639 C 2454.77 3.55162 0.399357 0
M  V30 26640 C 2454.44 4.43532 -0.811798 0
M  V30 26641 C 2453.1 4.67405 -1.14395 0
M  V30 26642 C 2455.45 4.95389 -1.61985 0
M  V30 26643 C 2452.78 5.4038 -2.28486 0
M  V30 26644 C 2455.13 5.69616 -2.75174 0
M  V30 26645 C 2453.8 5.91752 -3.08845 0
M  V30 26646 H 2453.07 0.739436 0.0481114 0
M  V30 26647 H 2455.72 1.82429 -0.582412 0
M  V30 26648 H 2454.02 3.73127 1.19512 0
M  V30 26649 H 2455.72 3.91855 0.851501 0
M  V30 26650 H 2452.31 4.25147 -0.542973 0
M  V30 26651 H 2456.49 4.76831 -1.37645 0
M  V30 26652 H 2451.75 5.55735 -2.5489 0
M  V30 26653 H 2455.92 6.08787 -3.38158 0
M  V30 26654 H 2453.55 6.48079 -3.97364 0
M  V30 26655 N 2455.12 0.166873 1.56714 0
M  V30 26656 C 2456.07 -0.782084 2.19058 0
M  V30 26657 C 2457.07 -1.24077 1.15331 0
M  V30 26658 O 2458.27 -1.20695 1.3354 0
M  V30 26659 H 2454.65 -0.270474 0.701675 0
M  V30 26660 H 2456.62 -0.232269 2.97495 0
M  V30 26661 C 2455.37 -2.00301 2.84209 0
M  V30 26662 H 2454.69 -1.65908 3.63751 0
M  V30 26663 H 2456.13 -2.64598 3.31306 0
M  V30 26664 C 2454.59 -2.82379 1.83749 0
M  V30 26665 O 2455.12 -3.79386 1.32021 0
M  V30 26666 N 2453.33 -2.47305 1.52606 0
M  V30 26667 H 2452.87 -1.68482 1.94863 0
M  V30 26668 H 2452.83 -3.02511 0.856404 0
M  V30 26669 N 2456.6 -1.57237 -0.106866 0
M  V30 26670 C 2457.85 -1.84671 -0.811131 0
M  V30 26671 C 2458.16 -0.754374 -1.80468 0
M  V30 26672 O 2459.37 -0.915484 -2.556 0
M  V30 26673 C 2457.83 -3.27457 -1.49332 0
M  V30 26674 C 2457.43 -4.44732 -0.540139 0
M  V30 26675 C 2459.18 -3.64128 -2.182 0
M  V30 26676 C 2457.09 -5.78548 -1.22624 0
M  V30 26677 H 2456.02 -0.688819 -0.306667 0
M  V30 26678 H 2458.67 -1.83389 -0.0639565 0
M  V30 26679 H 2457.05 -3.23246 -2.28754 0
M  V30 26680 H 2458.22 -4.60266 0.22174 0
M  V30 26681 H 2456.54 -4.16379 0.0422192 0
M  V30 26682 H 2459.13 -4.61381 -2.70244 0
M  V30 26683 H 2459.48 -2.92164 -2.96557 0
M  V30 26684 H 2460.01 -3.70176 -1.45652 0
M  V30 26685 H 2456.75 -6.53713 -0.483717 0
M  V30 26686 H 2456.27 -5.66878 -1.95983 0
M  V30 26687 H 2457.95 -6.22714 -1.75604 0
M  V30 26688 N 2458.08 0.377381 -1.53015 0
M  V30 26689 C 2459.33 1.11903 -1.68292 0
M  V30 26690 C 2459.65 1.90172 -0.431239 0
M  V30 26691 O 2458.92 1.87887 0.554561 0
M  V30 26692 H 2457.5 0.416101 -0.620378 0
M  V30 26693 H 2460.16 0.426859 -1.90168 0
M  V30 26694 H 2459.26 1.81545 -2.53866 0
M  V30 26695 N 2459.56 1.44175 0.636506 0
M  V30 26696 C 2460.49 1.53447 1.76 0
M  V30 26697 C 2461.47 0.38787 1.65619 0
M  V30 26698 O 2462.65 0.607289 1.8446 0
M  V30 26699 C 2459.78 1.47315 3.14508 0
M  V30 26700 C 2458.74 2.60397 3.39673 0
M  V30 26701 C 2458.06 2.39317 4.78154 0
M  V30 26702 C 2459.36 4.02573 3.32765 0
M  V30 26703 H 2461.06 2.47486 1.68497 0
M  V30 26704 H 2458.6 1.19112 0.809216 0
M  V30 26705 H 2460.56 1.52404 3.92875 0
M  V30 26706 H 2459.28 0.497906 3.22782 0
M  V30 26707 H 2457.94 2.54689 2.63684 0
M  V30 26708 H 2457.59 1.39997 4.83125 0
M  V30 26709 H 2457.29 3.1513 4.9595 0
M  V30 26710 H 2458.81 2.46215 5.58758 0
M  V30 26711 H 2460.23 4.09679 4.01044 0
M  V30 26712 H 2458.62 4.78547 3.62096 0
M  V30 26713 H 2459.69 4.26524 2.30662 0
M  V30 26714 N 2461.04 -0.876421 1.30983 0
M  V30 26715 C 2461.97 -1.99901 1.20672 0
M  V30 26716 C 2462.95 -1.69832 0.0953838 0
M  V30 26717 O 2464.13 -1.92187 0.278884 0
M  V30 26718 C 2461.26 -3.35258 0.906609 0
M  V30 26719 C 2460.22 -3.79613 1.97681 0
M  V30 26720 C 2459.54 -5.12357 1.52952 0
M  V30 26721 C 2460.84 -3.97416 3.38907 0
M  V30 26722 H 2462.54 -2.08786 2.1459 0
M  V30 26723 H 2460.08 -1.00315 1.0331 0
M  V30 26724 H 2462.04 -4.13323 0.821098 0
M  V30 26725 H 2460.76 -3.26529 -0.0682395 0
M  V30 26726 H 2459.42 -3.03783 2.05211 0
M  V30 26727 H 2459.07 -5.00064 0.542707 0
M  V30 26728 H 2458.77 -5.43005 2.24542 0
M  V30 26729 H 2460.29 -5.92938 1.45796 0
M  V30 26730 H 2461.7 -4.65894 3.34089 0
M  V30 26731 H 2460.1 -4.39453 4.08658 0
M  V30 26732 H 2461.17 -3.00999 3.80168 0
M  V30 26733 N 2462.51 -1.13839 -1.08989 0
M  V30 26734 C 2463.44 -0.842545 -2.17769 0
M  V30 26735 C 2464.43 0.199981 -1.6892 0
M  V30 26736 O 2465.61 0.0579389 -1.94114 0
M  V30 26737 C 2462.74 -0.312705 -3.45889 0
M  V30 26738 C 2461.69 -1.28999 -4.08097 0
M  V30 26739 C 2461.02 -0.619716 -5.31097 0
M  V30 26740 C 2462.32 -2.65013 -4.50073 0
M  V30 26741 H 2464.01 -1.75217 -2.42774 0
M  V30 26742 H 2461.56 -0.843895 -1.16681 0
M  V30 26743 H 2463.51 -0.0933784 -4.21297 0
M  V30 26744 H 2462.24 0.632326 -3.2042 0
M  V30 26745 H 2460.9 -1.49539 -3.34714 0
M  V30 26746 H 2460.54 0.330931 -5.0191 0
M  V30 26747 H 2460.24 -1.27177 -5.73672 0
M  V30 26748 H 2461.77 -0.409776 -6.09223 0
M  V30 26749 H 2463.18 -2.48416 -5.16684 0
M  V30 26750 H 2461.58 -3.26436 -5.03547 0
M  V30 26751 H 2462.65 -3.22338 -3.62252 0
M  V30 26752 N 2463.99 1.27046 -0.932584 0
M  V30 26753 C 2465.24 1.94147 -0.575593 0
M  V30 26754 C 2465.57 1.73253 0.883954 0
M  V30 26755 O 2464.82 1.05773 1.64653 0
M  V30 26756 C 2465.12 3.47053 -0.853774 0
M  V30 26757 C 2464.79 3.88075 -2.29584 0
M  V30 26758 C 2463.45 3.98985 -2.69006 0
M  V30 26759 C 2465.8 4.08781 -3.23338 0
M  V30 26760 C 2463.13 4.27993 -4.01296 0
M  V30 26761 C 2465.48 4.39274 -4.55215 0
M  V30 26762 C 2464.15 4.48398 -4.94465 0
M  V30 26763 H 2463.42 0.710435 -0.210624 0
M  V30 26764 H 2466.06 1.51023 -1.17747 0
M  V30 26765 H 2464.37 3.91434 -0.169272 0
M  V30 26766 H 2466.06 3.9712 -0.556459 0
M  V30 26767 H 2462.65 3.80123 -1.98001 0
M  V30 26768 H 2466.84 3.99787 -2.94081 0
M  V30 26769 H 2462.09 4.33267 -4.31381 0
M  V30 26770 H 2466.27 4.54243 -5.2786 0
M  V30 26771 H 2463.9 4.7063 -5.97002 0
M  V30 26772 N 2465.47 0.698636 1.41269 0
M  V30 26773 C 2466.4 0.04967 2.33447 0
M  V30 26774 C 2467.38 -0.763871 1.51984 0
M  V30 26775 O 2468.57 -0.716225 1.8051 0
M  V30 26776 C 2465.7 -0.885208 3.35829 0
M  V30 26777 C 2464.65 -0.178537 4.27627 0
M  V30 26778 C 2463.98 -1.22798 5.20408 0
M  V30 26779 C 2465.28 0.957023 5.13457 0
M  V30 26780 H 2466.97 0.819561 2.87965 0
M  V30 26781 H 2464.52 0.395562 1.3846 0
M  V30 26782 H 2466.47 -1.34847 3.99242 0
M  V30 26783 H 2465.19 -1.6868 2.79669 0
M  V30 26784 H 2463.85 0.264724 3.65643 0
M  V30 26785 H 2463.5 -2.02218 4.60561 0
M  V30 26786 H 2463.2 -0.760136 5.82663 0
M  V30 26787 H 2464.72 -1.69169 5.86698 0
M  V30 26788 H 2466.14 0.573905 5.7042 0
M  V30 26789 H 2464.54 1.35216 5.84668 0
M  V30 26790 H 2465.61 1.79532 4.5044 0
M  V30 26791 N 2466.95 -1.51228 0.443603 0
M  V30 26792 C 2468.19 -2.02439 -0.120939 0
M  V30 26793 C 2468.53 -1.32676 -1.41812 0
M  V30 26794 O 2467.8 -0.443655 -1.89373 0
M  V30 26795 C 2468.09 -3.58555 -0.333228 0
M  V30 26796 C 2467.94 -4.38926 0.983045 0
M  V30 26797 C 2469.26 -4.26126 -1.10021 0
M  V30 26798 H 2466.38 -0.735775 -0.0424793 0
M  V30 26799 H 2469.02 -1.80808 0.583826 0
M  V30 26800 H 2467.17 -3.77117 -0.933548 0
M  V30 26801 H 2468.84 -4.32 1.61783 0
M  V30 26802 H 2467.08 -4.03761 1.58618 0
M  V30 26803 H 2467.75 -5.4634 0.788475 0
M  V30 26804 H 2470.23 -4.11872 -0.591638 0
M  V30 26805 H 2469.11 -5.35227 -1.21751 0
M  V30 26806 H 2469.37 -3.87412 -2.12989 0
M  V30 26807 N 2468.43 -0.175182 -1.56623 0
M  V30 26808 C 2469.36 0.792375 -2.14002 0
M  V30 26809 C 2470.34 1.22331 -1.07116 0
M  V30 26810 O 2471.52 1.3144 -1.35114 0
M  V30 26811 C 2468.65 2.06755 -2.68272 0
M  V30 26812 C 2467.69 1.78033 -3.87565 0
M  V30 26813 S 2468.53 0.946129 -5.27076 0
M  V30 26814 C 2469.68 2.23189 -5.84754 0
M  V30 26815 H 2469.92 0.304536 -2.95736 0
M  V30 26816 H 2467.45 0.0395434 -1.54349 0
M  V30 26817 H 2469.41 2.79997 -3.00186 0
M  V30 26818 H 2468.07 2.52653 -1.86616 0
M  V30 26819 H 2467.26 2.72659 -4.23879 0
M  V30 26820 H 2466.86 1.12885 -3.56557 0
M  V30 26821 H 2469.16 3.18618 -5.97904 0
M  V30 26822 H 2470.1 1.91338 -6.81759 0
M  V30 26823 H 2470.51 2.35125 -5.13202 0
M  V30 26824 N 2469.91 1.57292 0.0985263 0
M  V30 26825 C 2471.15 1.85914 0.802645 0
M  V30 26826 C 2471.48 0.763217 1.789 0
M  V30 26827 O 2470.74 -0.243525 1.94179 0
M  V30 26828 C 2471.03 3.21108 1.56922 0
M  V30 26829 C 2470.7 4.45028 0.725298 0
M  V30 26830 C 2469.36 4.78672 0.492642 0
M  V30 26831 C 2471.71 5.21016 0.138401 0
M  V30 26832 C 2469.04 5.85732 -0.33683 0
M  V30 26833 C 2471.39 6.28952 -0.678375 0
M  V30 26834 C 2470.06 6.61113 -0.921155 0
M  V30 26835 H 2469.33 0.680306 0.293709 0
M  V30 26836 H 2471.98 1.91392 0.0642505 0
M  V30 26837 H 2470.28 3.11298 2.37909 0
M  V30 26838 H 2471.98 3.40481 2.11835 0
M  V30 26839 H 2468.57 4.18681 0.916741 0
M  V30 26840 H 2472.75 4.9536 0.305317 0
M  V30 26841 H 2468.01 6.09064 -0.533943 0
M  V30 26842 H 2472.18 6.87005 -1.14002 0
M  V30 26843 H 2469.81 7.43902 -1.56569 0
M  V30 26844 N 2471.38 -0.369261 1.53213 0
M  V30 26845 C 2472.63 -1.10958 1.68438 0
M  V30 26846 C 2472.95 -1.90569 0.440771 0
M  V30 26847 O 2474.15 -2.67339 0.473493 0
M  V30 26848 C 2472.61 -2.02174 2.97747 0
M  V30 26849 C 2472.22 -1.27892 4.29357 0
M  V30 26850 C 2473.96 -2.76221 3.22339 0
M  V30 26851 C 2471.87 -2.17989 5.49759 0
M  V30 26852 H 2470.8 -0.417929 0.627576 0
M  V30 26853 H 2473.45 -0.370853 1.79713 0
M  V30 26854 H 2471.83 -2.79763 2.80265 0
M  V30 26855 H 2473 -0.553926 4.57459 0
M  V30 26856 H 2471.32 -0.657239 4.1118 0
M  V30 26857 H 2473.92 -3.4385 4.09477 0
M  V30 26858 H 2474.26 -3.41387 2.38244 0
M  V30 26859 H 2474.79 -2.05717 3.40478 0
M  V30 26860 H 2471.53 -1.57406 6.3632 0
M  V30 26861 H 2471.05 -2.88349 5.25942 0
M  V30 26862 H 2472.73 -2.77631 5.84406 0
M  V30 26863 N 2472.86 -1.4451 -0.628851 0
M  V30 26864 C 2474.09 -1.50681 -1.41346 0
M  V30 26865 C 2474.5 -0.131108 -1.88745 0
M  V30 26866 O 2473.84 0.873681 -1.61594 0
M  V30 26867 C 2473.9 -2.4117 -2.66603 0
M  V30 26868 C 2473.57 -3.88297 -2.40986 0
M  V30 26869 C 2474.57 -4.7877 -2.02672 0
M  V30 26870 C 2472.25 -4.33021 -2.54555 0
M  V30 26871 C 2474.24 -6.11966 -1.78258 0
M  V30 26872 C 2471.93 -5.66264 -2.29756 0
M  V30 26873 C 2472.93 -6.55555 -1.91667 0
M  V30 26874 O 2472.62 -7.86332 -1.67144 0
M  V30 26875 H 2472.35 -0.513337 -0.439842 0
M  V30 26876 H 2474.9 -1.90175 -0.77605 0
M  V30 26877 H 2473.13 -1.96607 -3.3299 0
M  V30 26878 H 2474.82 -2.38264 -3.28611 0
M  V30 26879 H 2475.59 -4.45488 -1.91743 0
M  V30 26880 H 2471.47 -3.63778 -2.83173 0
M  V30 26881 H 2475.01 -6.81621 -1.48453 0
M  V30 26882 H 2470.91 -5.99106 -2.40295 0
M  V30 26883 H 2471.68 -7.98152 -1.81372 0
M  V30 26884 N 2474.34 0.869463 -1.31446 0
M  V30 26885 C 2475.3 1.95828 -1.19097 0
M  V30 26886 C 2476.3 1.60367 -0.117934 0
M  V30 26887 O 2477.49 1.70285 -0.367238 0
M  V30 26888 C 2474.62 3.30686 -0.828223 0
M  V30 26889 H 2475.82 2.08208 -2.15846 0
M  V30 26890 H 2473.37 1.05782 -1.15065 0
M  V30 26891 H 2474.11 3.24006 0.138085 0
M  V30 26892 H 2473.89 3.57797 -1.60387 0
M  V30 26893 H 2475.38 4.1052 -0.76573 0
M  V30 26894 N 2475.82 1.14415 1.08383 0
M  V30 26895 C 2477.07 0.907107 1.80151 0
M  V30 26896 C 2477.38 -0.567818 1.87177 0
M  V30 26897 O 2478.59 -0.922127 2.55361 0
M  V30 26898 C 2477.04 1.57342 3.23684 0
M  V30 26899 C 2476.65 3.08463 3.24892 0
M  V30 26900 C 2478.39 1.41751 4.00134 0
M  V30 26901 C 2476.3 3.67929 4.63014 0
M  V30 26902 H 2475.23 0.335726 0.675133 0
M  V30 26903 H 2477.88 1.37309 1.21731 0
M  V30 26904 H 2476.26 1.03511 3.82232 0
M  V30 26905 H 2477.44 3.68963 2.76049 0
M  V30 26906 H 2475.75 3.23694 2.61937 0
M  V30 26907 H 2478.35 1.83581 5.02197 0
M  V30 26908 H 2478.69 0.363649 4.14709 0
M  V30 26909 H 2479.23 1.9262 3.48055 0
M  V30 26910 H 2475.96 4.73169 4.53642 0
M  V30 26911 H 2475.48 3.1221 5.12138 0
M  V30 26912 H 2477.16 3.68236 5.31988 0
M  V30 26913 N 2477.3 -1.26549 0.939309 0
M  V30 26914 C 2478.54 -1.93839 0.585881 0
M  V30 26915 C 2478.87 -1.73719 -0.874753 0
M  V30 26916 O 2478.13 -1.06645 -1.6409 0
M  V30 26917 C 2478.42 -3.46595 0.872167 0
M  V30 26918 C 2478.09 -3.86852 2.31638 0
M  V30 26919 C 2476.75 -3.97553 2.71118 0
M  V30 26920 C 2479.1 -4.07061 3.25501 0
M  V30 26921 C 2476.43 -4.25859 4.03561 0
M  V30 26922 C 2478.78 -4.36854 4.57538 0
M  V30 26923 C 2477.45 -4.4577 4.96836 0
M  V30 26924 H 2476.72 -0.709308 0.214389 0
M  V30 26925 H 2479.37 -1.50396 1.18546 0
M  V30 26926 H 2477.67 -3.91339 0.190029 0
M  V30 26927 H 2479.37 -3.9682 0.577512 0
M  V30 26928 H 2475.96 -3.79068 2.00014 0
M  V30 26929 H 2480.14 -3.98222 2.96197 0
M  V30 26930 H 2475.4 -4.30973 4.33673 0
M  V30 26931 H 2479.57 -4.51437 5.30262 0
M  V30 26932 H 2477.2 -4.67457 5.9949 0
M  V30 26933 N 2478.77 -0.706118 -1.40896 0
M  V30 26934 C 2480.02 -0.241089 -2.00657 0
M  V30 26935 C 2480.34 1.16676 -1.56243 0
M  V30 26936 O 2479.61 1.78924 -0.797681 0
M  V30 26937 H 2478.19 -0.0861438 -0.742016 0
M  V30 26938 H 2480.85 -0.909635 -1.72371 0
M  V30 26939 H 2479.95 -0.266759 -3.10958 0
M  V30 26940 N 2480.25 1.50991 -0.451617 0
M  V30 26941 C 2481.18 2.247 0.398139 0
M  V30 26942 C 2482.16 1.2721 1.01274 0
M  V30 26943 O 2483.35 1.56384 1.05244 0
M  V30 26944 C 2480.47 3.00836 1.55613 0
M  V30 26945 C 2479.52 4.13097 1.06083 0
M  V30 26946 S 2480.35 5.35499 -0.00874549 0
M  V30 26947 C 2481.51 6.15178 1.15358 0
M  V30 26948 H 2481.74 2.96427 -0.227607 0
M  V30 26949 H 2479.27 1.52581 -0.236278 0
M  V30 26950 H 2481.23 3.45297 2.21991 0
M  V30 26951 H 2479.89 2.28671 2.15333 0
M  V30 26952 H 2479.09 4.65699 1.92718 0
M  V30 26953 H 2478.69 3.70971 0.475065 0
M  V30 26954 H 2480.98 6.4513 2.06914 0
M  V30 26955 H 2481.92 7.04949 0.66722 0
M  V30 26956 H 2482.33 5.469 1.3986 0
M  V30 26957 N 2481.73 0.183486 1.56528 0
M  V30 26958 C 2482.95 -0.467393 2.02065 0
M  V30 26959 C 2483.38 -1.55194 1.06285 0
M  V30 26960 O 2482.74 -1.81246 0.0443883 0
M  V30 26961 C 2482.79 -1.01147 3.46124 0
M  V30 26962 O 2481.89 -2.12493 3.53441 0
M  V30 26963 H 2481.23 -0.110577 0.654728 0
M  V30 26964 H 2483.76 0.290953 2.02521 0
M  V30 26965 H 2483.77 -1.33101 3.85679 0
M  V30 26966 H 2482.45 -0.21746 4.15331 0
M  V30 26967 H 2481.02 -1.81491 3.25754 0
M  V30 26968 N 2483.21 -1.57342 -0.0901833 0
M  V30 26969 C 2484.16 -2.03424 -1.12789 0
M  V30 26970 C 2485.15 -0.936191 -1.4118 0
M  V30 26971 O 2486.36 -1.12136 -1.40803 0
M  V30 26972 H 2482.73 -0.648354 -0.380975 0
M  V30 26973 H 2484.7 -2.89758 -0.712939 0
M  V30 26974 C 2483.45 -2.47855 -2.43851 0
M  V30 26975 H 2482.77 -3.31931 -2.2285 0
M  V30 26976 H 2484.21 -2.8387 -3.1495 0
M  V30 26977 C 2482.67 -1.35385 -3.085 0
M  V30 26978 O 2483.2 -0.68571 -3.95804 0
M  V30 26979 N 2481.41 -1.1036 -2.68829 0
M  V30 26980 H 2480.96 -1.64873 -1.97926 0
M  V30 26981 H 2480.91 -0.353086 -3.12411 0
M  V30 26982 N 2484.69 0.36113 -1.53407 0
M  V30 26983 C 2485.93 1.1033 -1.69804 0
M  V30 26984 C 2486.26 1.89172 -0.45212 0
M  V30 26985 O 2485.52 1.87337 0.565984 0
M  V30 26986 C 2485.82 2.08591 -2.90215 0
M  V30 26987 C 2485.48 1.46195 -4.26542 0
M  V30 26988 C 2484.14 1.28907 -4.63612 0
M  V30 26989 C 2486.5 1.01092 -5.11302 0
M  V30 26990 C 2483.82 0.651054 -5.83076 0
M  V30 26991 C 2486.18 0.386896 -6.31416 0
M  V30 26992 C 2484.84 0.20154 -6.67196 0
M  V30 26993 H 2484.11 0.403726 -0.621358 0
M  V30 26994 H 2486.76 0.384576 -1.87599 0
M  V30 26995 H 2485.06 2.86783 -2.66951 0
M  V30 26996 H 2486.76 2.65977 -3.00096 0
M  V30 26997 H 2483.35 1.60646 -3.97355 0
M  V30 26998 H 2487.53 1.13241 -4.83208 0
M  V30 26999 H 2482.79 0.495898 -6.09386 0
M  V30 27000 H 2486.96 0.0292339 -6.96394 0
M  V30 27001 H 2484.59 -0.2949 -7.59628 0
M  V30 27002 N 2486.16 1.44842 0.621179 0
M  V30 27003 C 2487.13 1.52103 1.71457 0
M  V30 27004 C 2488.13 0.40196 1.55695 0
M  V30 27005 O 2489.32 0.664953 1.61009 0
M  V30 27006 C 2486.45 1.40453 3.10622 0
M  V30 27007 H 2487.64 2.49509 1.66389 0
M  V30 27008 H 2485.2 1.32081 0.835721 0
M  V30 27009 H 2485.93 0.441793 3.21277 0
M  V30 27010 H 2485.72 2.21608 3.23469 0
M  V30 27011 H 2487.21 1.48537 3.9029 0
M  V30 27012 N 2487.64 -0.862479 1.31905 0
M  V30 27013 C 2488.87 -1.64632 1.24819 0
M  V30 27014 C 2489.28 -1.88268 -0.187546 0
M  V30 27015 O 2488.62 -1.44637 -1.13251 0
M  V30 27016 C 2488.69 -3.033 1.93001 0
M  V30 27017 C 2488.35 -3.0274 3.42341 0
M  V30 27018 C 2489.35 -2.80154 4.37961 0
M  V30 27019 C 2487.03 -3.23623 3.84153 0
M  V30 27020 C 2489.03 -2.78443 5.73366 0
M  V30 27021 C 2486.71 -3.2154 5.19669 0
M  V30 27022 C 2487.71 -2.98977 6.14086 0
M  V30 27023 O 2487.4 -2.96753 7.47123 0
M  V30 27024 H 2487.13 -0.519762 0.432231 0
M  V30 27025 H 2489.68 -1.08424 1.74452 0
M  V30 27026 H 2487.91 -3.61266 1.37928 0
M  V30 27027 H 2489.6 -3.6394 1.7973 0
M  V30 27028 H 2490.37 -2.63795 4.06986 0
M  V30 27029 H 2486.25 -3.40213 3.11089 0
M  V30 27030 H 2489.79 -2.60752 6.47035 0
M  V30 27031 H 2485.69 -3.37442 5.50276 0
M  V30 27032 H 2486.46 -3.12762 7.56388 0
M  V30 27033 N 2489.12 -1.14988 -1.07775 0
M  V30 27034 C 2490.37 -0.923454 -1.80555 0
M  V30 27035 C 2490.7 0.548304 -1.86299 0
M  V30 27036 O 2489.97 1.40637 -1.34356 0
M  V30 27037 C 2490.26 -1.53305 -3.25837 0
M  V30 27038 C 2490.11 -3.07511 -3.28264 0
M  V30 27039 C 2491.43 -1.21526 -4.22989 0
M  V30 27040 H 2488.55 -0.336906 -0.655487 0
M  V30 27041 H 2491.19 -1.42085 -1.26142 0
M  V30 27042 H 2489.34 -1.11006 -3.72304 0
M  V30 27043 H 2491.01 -3.58686 -2.90073 0
M  V30 27044 H 2489.26 -3.41624 -2.67349 0
M  V30 27045 H 2489.93 -3.45274 -4.30685 0
M  V30 27046 H 2492.4 -1.58107 -3.84891 0
M  V30 27047 H 2491.28 -1.66802 -5.22942 0
M  V30 27048 H 2491.54 -0.131582 -4.41904 0
M  V30 27049 N 2490.6 1.26049 -0.946007 0
M  V30 27050 C 2491.55 2.26207 -0.45813 0
M  V30 27051 C 2492.52 1.58868 0.484788 0
M  V30 27052 O 2493.7 1.86561 0.399936 0
M  V30 27053 C 2490.84 3.44073 0.266071 0
M  V30 27054 C 2489.95 4.26074 -0.71308 0
M  V30 27055 C 2489.09 5.3119 0.032808 0
M  V30 27056 C 2488.13 6.04873 -0.937846 0
M  V30 27057 N 2487.26 7.01745 -0.223397 0
M  V30 27058 H 2492.1 2.67311 -1.31715 0
M  V30 27059 H 2489.64 1.31427 -0.660713 0
M  V30 27060 H 2491.6 4.11244 0.702441 0
M  V30 27061 H 2490.23 3.03869 1.0892 0
M  V30 27062 H 2489.28 3.58646 -1.26795 0
M  V30 27063 H 2490.59 4.77133 -1.45414 0
M  V30 27064 H 2489.75 6.04396 0.528229 0
M  V30 27065 H 2488.49 4.80982 0.806717 0
M  V30 27066 H 2487.49 5.30489 -1.44435 0
M  V30 27067 H 2488.72 6.5717 -1.71184 0
M  V30 27068 H 2486.66 6.5384 0.531931 0
M  V30 27069 H 2486.58 7.50579 -0.903701 0
M  V30 27070 H 2487.85 7.79097 0.250771 0
M  V30 27071 N 2492.08 0.71358 1.4052 0
M  V30 27072 C 2493.49 0.386934 1.54839 0
M  V30 27073 C 2493.69 -1.10447 1.68534 0
M  V30 27074 O 2492.75 -1.8905 1.67381 0
M  V30 27075 C 2494.06 1.15123 2.7779 0
M  V30 27076 C 2495.61 1.13734 2.91605 0
M  V30 27077 C 2496.08 1.88376 4.17467 0
M  V30 27078 N 2497.58 1.85434 4.24462 0
M  V30 27079 C 2498.31 2.40013 5.20751 0
M  V30 27080 N 2497.81 3.0314 6.22959 0
M  V30 27081 N 2499.6 2.30167 5.12815 0
M  V30 27082 H 2491.75 1.68065 1.29876 0
M  V30 27083 H 2494.01 0.710258 0.627883 0
M  V30 27084 H 2493.72 2.20566 2.73941 0
M  V30 27085 H 2493.59 0.741542 3.69839 0
M  V30 27086 H 2495.98 0.0911127 2.94959 0
M  V30 27087 H 2496.06 1.58624 2.00679 0
M  V30 27088 H 2495.71 2.92987 4.14874 0
M  V30 27089 H 2495.64 1.40907 5.07398 0
M  V30 27090 H 2498.13 1.39427 3.51239 0
M  V30 27091 H 2498.44 3.42307 6.92853 0
M  V30 27092 H 2496.78 3.07223 6.23409 0
M  V30 27093 H 2499.98 1.80509 4.31896 0
M  V30 27094 H 2500.15 2.73003 5.87685 0
M  V30 27095 N 2493.55 -1.50749 0.459618 0
M  V30 27096 C 2494.46 -2.32033 -0.346089 0
M  V30 27097 C 2495.48 -1.41911 -1.00684 0
M  V30 27098 O 2496.66 -1.74972 -0.99733 0
M  V30 27099 C 2493.72 -3.16276 -1.42024 0
M  V30 27100 C 2492.78 -4.22205 -0.777288 0
M  V30 27101 C 2492.02 -5.02421 -1.80025 0
M  V30 27102 O 2492.24 -4.83558 -3.02536 0
M  V30 27103 O 2491.17 -5.85904 -1.37843 0
M  V30 27104 H 2495 -3.02029 0.318107 0
M  V30 27105 H 2492.58 -1.47746 0.221689 0
M  V30 27106 H 2494.47 -3.68581 -2.04269 0
M  V30 27107 H 2493.14 -2.4902 -2.06811 0
M  V30 27108 H 2492.05 -3.7392 -0.11619 0
M  V30 27109 H 2493.38 -4.91897 -0.172548 0
M  V30 27110 N 2495.03 -0.191784 -1.56429 0
M  V30 27111 C 2496.28 0.448519 -1.97778 0
M  V30 27112 C 2496.61 1.61499 -1.0785 0
M  V30 27113 O 2495.89 1.94066 -0.129808 0
M  V30 27114 C 2496.17 0.911845 -3.48364 0
M  V30 27115 C 2496.02 -0.256215 -4.4907 0
M  V30 27116 C 2497.34 1.77849 -4.02564 0
M  V30 27117 H 2494.46 0.16156 -0.719074 0
M  V30 27118 H 2497.1 -0.28204 -1.87895 0
M  V30 27119 H 2495.25 1.53436 -3.56917 0
M  V30 27120 H 2496.92 -0.893812 -4.52558 0
M  V30 27121 H 2495.17 -0.90851 -4.2418 0
M  V30 27122 H 2495.84 0.110433 -5.5189 0
M  V30 27123 H 2498.31 1.25352 -3.9677 0
M  V30 27124 H 2497.19 2.07165 -5.08305 0
M  V30 27125 H 2497.45 2.73152 -3.47621 0
M  V30 27126 N 2496.51 1.57387 0.0818378 0
M  V30 27127 C 2497.76 1.86386 0.781335 0
M  V30 27128 C 2498.08 0.782374 1.78617 0
M  V30 27129 O 2497.35 -0.190027 1.94976 0
M  V30 27130 H 2495.93 0.687756 0.29155 0
M  V30 27131 H 2498.59 1.94807 0.0603137 0
M  V30 27132 H 2497.69 2.83564 1.30375 0
M  V30 27133 N 2497.99 -0.35299 1.53596 0
M  V30 27134 C 2499.24 -1.09165 1.69605 0
M  V30 27135 C 2499.55 -1.90091 0.460959 0
M  V30 27136 O 2500.76 -2.66822 0.501821 0
M  V30 27137 C 2499.21 -1.99005 2.99875 0
M  V30 27138 C 2498.82 -1.23331 4.30689 0
M  V30 27139 C 2500.56 -2.72786 3.25251 0
M  V30 27140 C 2498.47 -2.12146 5.5204 0
M  V30 27141 H 2497.4 -0.41125 0.631973 0
M  V30 27142 H 2500.05 -0.351771 1.80097 0
M  V30 27143 H 2498.43 -2.76775 2.83217 0
M  V30 27144 H 2499.61 -0.505376 4.5802 0
M  V30 27145 H 2497.92 -0.613591 4.11854 0
M  V30 27146 H 2500.52 -3.39487 4.13101 0
M  V30 27147 H 2500.86 -3.38841 2.41852 0
M  V30 27148 H 2501.4 -2.02094 3.42641 0
M  V30 27149 H 2498.14 -1.50648 6.37954 0
M  V30 27150 H 2497.66 -2.82755 5.28971 0
M  V30 27151 H 2499.33 -2.71417 5.87318 0
M  V30 27152 N 2499.47 -1.45169 -0.613489 0
M  V30 27153 C 2500.74 -1.39352 -1.37261 0
M  V30 27154 C 2501.12 -0.0611219 -2.11011 0
M  V30 27155 O 2500.47 0.956789 -2.07504 0
M  V30 27156 C 2500.68 -2.60336 -2.32435 0
M  V30 27157 C 2502.03 -3.05168 -2.95225 0
M  V30 27158 O 2503.05 -2.60667 -2.42758 0
M  V30 27159 O 2501.91 -3.82378 -3.90447 0
M  V30 27160 H 2499.01 -0.552707 -0.615178 0
M  V30 27161 H 2501.55 -1.57288 -0.637069 0
M  V30 27162 H 2500.33 -3.48899 -1.77158 0
M  V30 27163 H 2499.95 -2.44703 -3.13378 0
M  V30 27164 N 2500.95 0.855472 -1.32361 0
M  V30 27165 C 2502.22 1.59307 -1.13494 0
M  V30 27166 C 2502.6 2.08885 0.304993 0
M  V30 27167 O 2501.95 1.87814 1.30147 0
M  V30 27168 C 2502.16 2.73984 -2.16181 0
M  V30 27169 C 2503.51 3.43585 -2.49469 0
M  V30 27170 O 2504.53 2.84207 -2.1472 0
M  V30 27171 O 2503.39 4.50733 -3.09034 0
M  V30 27172 H 2500.49 0.701551 -0.437899 0
M  V30 27173 H 2503.03 0.899671 -1.43889 0
M  V30 27174 H 2501.8 2.34868 -3.12974 0
M  V30 27175 H 2501.43 3.51 -1.86775 0
M  V30 27176 N 2502.42 1.15558 1.07164 0
M  V30 27177 C 2503.36 0.79763 2.13806 0
M  V30 27178 C 2504.33 -0.226783 1.61011 0
M  V30 27179 O 2505.52 -0.112899 1.88162 0
M  V30 27180 C 2502.65 0.18643 3.38187 0
M  V30 27181 C 2501.69 1.18304 4.09764 0
M  V30 27182 S 2502.52 2.72592 4.60927 0
M  V30 27183 C 2503.68 2.12897 5.8858 0
M  V30 27184 H 2503.91 1.70087 2.4384 0
M  V30 27185 H 2501.45 0.978127 1.19466 0
M  V30 27186 H 2503.4 -0.159764 4.10189 0
M  V30 27187 H 2502.07 -0.694435 3.06327 0
M  V30 27188 H 2501.26 0.70365 4.99064 0
M  V30 27189 H 2500.86 1.47387 3.43734 0
M  V30 27190 H 2503.15 1.49219 6.60863 0
M  V30 27191 H 2504.1 3.00371 6.41235 0
M  V30 27192 H 2504.5 1.57126 5.42192 0
M  V30 27193 N 2503.9 -1.25546 0.952678 0
M  V30 27194 C 2505.15 -1.93207 0.606407 0
M  V30 27195 C 2505.48 -1.74637 -0.856279 0
M  V30 27196 O 2504.73 -1.08379 -1.62949 0
M  V30 27197 C 2505.03 -3.4565 0.908879 0
M  V30 27198 C 2504.7 -3.84373 2.35728 0
M  V30 27199 C 2503.36 -3.94655 2.75319 0
M  V30 27200 C 2505.71 -4.03585 3.298 0
M  V30 27201 C 2503.04 -4.21555 4.08055 0
M  V30 27202 C 2505.39 -4.31977 4.62146 0
M  V30 27203 C 2504.05 -4.40475 5.01536 0
M  V30 27204 H 2503.32 -0.706995 0.2219 0
M  V30 27205 H 2505.97 -1.4913 1.20135 0
M  V30 27206 H 2504.28 -3.91115 0.231525 0
M  V30 27207 H 2505.97 -3.96185 0.619567 0
M  V30 27208 H 2502.56 -3.76925 2.04024 0
M  V30 27209 H 2506.75 -3.95058 3.00404 0
M  V30 27210 H 2502 -4.26349 4.38219 0
M  V30 27211 H 2506.18 -4.45788 5.3502 0
M  V30 27212 H 2503.8 -4.61072 6.04414 0
M  V30 27213 N 2505.38 -0.721022 -1.40139 0
M  V30 27214 C 2506.33 -0.0608955 -2.3252 0
M  V30 27215 C 2507.32 0.741125 -1.52328 0
M  V30 27216 O 2508.53 0.643882 -1.6809 0
M  V30 27217 H 2504.9 -0.000889883 -0.751999 0
M  V30 27218 H 2506.87 -0.856665 -2.85839 0
M  V30 27219 C 2505.62 0.84275 -3.37332 0
M  V30 27220 H 2504.95 0.235013 -3.99109 0
M  V30 27221 H 2506.39 1.2725 -4.04454 0
M  V30 27222 C 2504.84 1.97069 -2.7325 0
M  V30 27223 O 2505.37 3.06205 -2.60003 0
M  V30 27224 N 2503.58 1.75593 -2.3155 0
M  V30 27225 H 2503.13 0.868325 -2.42524 0
M  V30 27226 H 2503.09 2.51241 -1.89012 0
M  V30 27227 N 2506.86 1.50503 -0.467606 0
M  V30 27228 C 2508.1 2.02306 0.0885864 0
M  V30 27229 C 2508.43 1.34984 1.40034 0
M  V30 27230 O 2507.69 0.463351 1.90136 0
M  V30 27231 C 2507.99 3.55929 0.323932 0
M  V30 27232 C 2507.65 4.4171 -0.905695 0
M  V30 27233 C 2506.31 4.64873 -1.24284 0
M  V30 27234 C 2508.67 4.91842 -1.72456 0
M  V30 27235 C 2505.99 5.35412 -2.39897 0
M  V30 27236 C 2508.35 5.63651 -2.87195 0
M  V30 27237 C 2507.01 5.85068 -3.21328 0
M  V30 27238 H 2506.28 0.740291 0.032416 0
M  V30 27239 H 2508.93 1.81152 -0.620977 0
M  V30 27240 H 2507.23 3.75579 1.11571 0
M  V30 27241 H 2508.93 3.93573 0.768191 0
M  V30 27242 H 2505.52 4.23899 -0.633031 0
M  V30 27243 H 2509.7 4.73804 -1.47728 0
M  V30 27244 H 2504.96 5.50203 -2.6662 0
M  V30 27245 H 2509.13 6.01478 -3.50995 0
M  V30 27246 H 2506.76 6.39504 -4.11021 0
M  V30 27247 N 2508.34 0.200077 1.56325 0
M  V30 27248 C 2509.25 -0.730629 2.22933 0
M  V30 27249 C 2510.26 -1.23074 1.22999 0
M  V30 27250 O 2511.44 -1.27686 1.55751 0
M  V30 27251 C 2508.5 -1.93093 2.87951 0
M  V30 27252 C 2507.56 -1.4749 4.03169 0
M  V30 27253 C 2506.8 -2.61799 4.65078 0
M  V30 27254 O 2507.02 -3.79406 4.2592 0
M  V30 27255 O 2505.95 -2.34227 5.54456 0
M  V30 27256 H 2509.78 -0.193338 3.03084 0
M  V30 27257 H 2507.36 -0.0294359 1.49371 0
M  V30 27258 H 2509.25 -2.63234 3.29068 0
M  V30 27259 H 2507.92 -2.45673 2.10776 0
M  V30 27260 H 2506.83 -0.742137 3.66665 0
M  V30 27261 H 2508.16 -0.995711 4.82023 0
M  V30 27262 N 2509.81 -1.57429 -0.0734901 0
M  V30 27263 C 2511.04 -1.91391 -0.785936 0
M  V30 27264 C 2511.46 -0.795877 -1.71205 0
M  V30 27265 O 2510.81 0.230883 -1.81034 0
M  V30 27266 C 2510.86 -3.25094 -1.58101 0
M  V30 27267 O 2510.59 -4.32598 -0.692124 0
M  V30 27268 C 2512.09 -3.7306 -2.39461 0
M  V30 27269 H 2509.31 -0.632667 -0.223547 0
M  V30 27270 H 2511.85 -2.04452 -0.044266 0
M  V30 27271 H 2510.01 -3.13566 -2.27498 0
M  V30 27272 H 2510.42 -5.09511 -1.24496 0
M  V30 27273 H 2511.89 -4.69247 -2.90707 0
M  V30 27274 H 2512.37 -3.01984 -3.18908 0
M  V30 27275 H 2512.98 -3.87527 -1.75224 0
M  V30 27276 N 2511.29 0.344839 -1.53781 0
M  V30 27277 C 2512.54 1.08523 -1.70965 0
M  V30 27278 C 2512.87 1.88682 -0.472159 0
M  V30 27279 O 2512.12 1.87927 0.546083 0
M  V30 27280 C 2512.42 2.05501 -2.92411 0
M  V30 27281 C 2512.09 1.41663 -4.28068 0
M  V30 27282 C 2510.75 1.23982 -4.64954 0
M  V30 27283 C 2513.1 0.956636 -5.12346 0
M  V30 27284 C 2510.43 0.589175 -5.83734 0
M  V30 27285 C 2512.78 0.319904 -6.31791 0
M  V30 27286 C 2511.44 0.130764 -6.67372 0
M  V30 27287 H 2510.71 0.397113 -0.625605 0
M  V30 27288 H 2513.36 0.364657 -1.87996 0
M  V30 27289 H 2511.67 2.83935 -2.69978 0
M  V30 27290 H 2513.36 2.62779 -3.029 0
M  V30 27291 H 2509.95 1.56422 -3.99036 0
M  V30 27292 H 2514.14 1.08109 -4.84382 0
M  V30 27293 H 2509.39 0.431237 -6.09877 0
M  V30 27294 H 2513.57 -0.0446296 -6.96386 0
M  V30 27295 H 2511.19 -0.375452 -7.59272 0
M  V30 27296 N 2512.77 1.45492 0.605781 0
M  V30 27297 C 2514.02 1.49308 1.36204 0
M  V30 27298 C 2514.34 0.136897 1.94519 0
M  V30 27299 O 2513.61 -0.833952 1.77263 0
M  V30 27300 H 2512.19 0.549852 0.50564 0
M  V30 27301 H 2514.85 1.8146 0.711208 0
M  V30 27302 H 2513.95 2.2329 2.18055 0
M  V30 27303 N 2514.25 -0.848441 1.32813 0
M  V30 27304 C 2515.2 -1.97893 1.22234 0
M  V30 27305 C 2516.19 -1.68932 0.125778 0
M  V30 27306 O 2517.4 -1.77663 0.289114 0
M  V30 27307 H 2513.77 -0.64947 0.379069 0
M  V30 27308 H 2515.74 -2.03942 2.17831 0
M  V30 27309 C 2514.49 -3.33935 0.968631 0
M  V30 27310 H 2513.81 -3.56753 1.80464 0
M  V30 27311 H 2515.25 -4.13565 0.934881 0
M  V30 27312 C 2513.71 -3.35294 -0.328569 0
M  V30 27313 O 2514.24 -3.78747 -1.33841 0
M  V30 27314 N 2512.45 -2.88451 -0.352737 0
M  V30 27315 H 2512 -2.53284 0.469586 0
M  V30 27316 H 2511.95 -2.89743 -1.22051 0
M  V30 27317 N 2515.73 -1.16125 -1.06549 0
M  V30 27318 C 2516.95 -0.965767 -1.83542 0
M  V30 27319 C 2517.38 0.48107 -1.81844 0
M  V30 27320 O 2516.73 1.34352 -1.21735 0
M  V30 27321 C 2516.78 -1.49462 -3.28167 0
M  V30 27322 O 2515.89 -0.699228 -4.06429 0
M  V30 27323 H 2515.23 -0.343874 -0.56802 0
M  V30 27324 H 2517.76 -1.54301 -1.34359 0
M  V30 27325 H 2517.77 -1.51098 -3.7899 0
M  V30 27326 H 2516.44 -2.5479 -3.28717 0
M  V30 27327 H 2515.02 -0.753164 -3.65215 0
M  V30 27328 N 2517.2 1.25039 -0.959323 0
M  V30 27329 C 2518.14 2.24161 -0.427458 0
M  V30 27330 C 2519.12 1.5492 0.49381 0
M  V30 27331 O 2520.3 1.83597 0.427112 0
M  V30 27332 C 2517.43 3.36518 0.383834 0
M  V30 27333 C 2516.47 4.23807 -0.478506 0
M  V30 27334 S 2517.31 5.00141 -1.91362 0
M  V30 27335 C 2518.46 6.15963 -1.11088 0
M  V30 27336 H 2518.69 2.68928 -1.26748 0
M  V30 27337 H 2516.23 1.34188 -0.763737 0
M  V30 27338 H 2518.19 4.01688 0.845968 0
M  V30 27339 H 2516.85 2.90326 1.19873 0
M  V30 27340 H 2516.04 5.03794 0.143972 0
M  V30 27341 H 2515.64 3.63595 -0.876034 0
M  V30 27342 H 2517.93 6.76533 -0.361818 0
M  V30 27343 H 2518.88 6.82554 -1.88484 0
M  V30 27344 H 2519.28 5.60872 -0.638942 0
M  V30 27345 N 2518.68 0.728444 1.39755 0
M  V30 27346 C 2519.93 0.270443 1.99879 0
M  V30 27347 C 2520.24 -1.14685 1.58451 0
M  V30 27348 O 2521.45 -1.70403 2.11365 0
M  V30 27349 C 2519.91 0.432583 3.57291 0
M  V30 27350 C 2519.51 1.85734 4.07685 0
M  V30 27351 C 2521.26 0.0360253 4.24485 0
M  V30 27352 C 2519.17 1.96938 5.57646 0
M  V30 27353 H 2518.1 0.0973603 0.747688 0
M  V30 27354 H 2520.75 0.901384 1.59835 0
M  V30 27355 H 2519.13 -0.26715 3.95098 0
M  V30 27356 H 2520.3 2.58849 3.81226 0
M  V30 27357 H 2518.62 2.20652 3.53131 0
M  V30 27358 H 2521.21 0.0988423 5.34609 0
M  V30 27359 H 2521.56 -1.0078 4.03917 0
M  V30 27360 H 2522.09 0.686673 3.91829 0
M  V30 27361 H 2518.83 2.99486 5.83085 0
M  V30 27362 H 2518.35 1.28251 5.85928 0
M  V30 27363 H 2520.03 1.74748 6.22954 0
M  V30 27364 N 2520.16 -1.50253 0.475581 0
M  V30 27365 C 2521.4 -2.04257 -0.0765443 0
M  V30 27366 C 2521.76 -1.34939 -1.36585 0
M  V30 27367 O 2522.97 -1.79523 -2.00063 0
M  V30 27368 C 2521.24 -3.56513 -0.251605 0
M  V30 27369 S 2522.8 -4.32139 -0.76164 0
M  V30 27370 H 2519.61 -0.710865 -0.0138331 0
M  V30 27371 H 2522.22 -1.84597 0.643746 0
M  V30 27372 H 2520.92 -4.04516 0.692476 0
M  V30 27373 H 2520.45 -3.80534 -0.997879 0
M  V30 27374 H 2522.47 -4.52576 -2.03443 0
M  V30 27375 N 2521.64 -0.208365 -1.56217 0
M  V30 27376 C 2522.57 0.702077 -2.22695 0
M  V30 27377 C 2523.55 1.21118 -1.19434 0
M  V30 27378 O 2524.73 1.2576 -1.4798 0
M  V30 27379 C 2521.86 1.91605 -2.89663 0
M  V30 27380 C 2520.82 1.54133 -3.99283 0
M  V30 27381 C 2520.14 2.833 -4.53481 0
M  V30 27382 C 2521.44 0.741248 -5.17013 0
M  V30 27383 H 2523.14 0.147846 -2.99035 0
M  V30 27384 H 2520.68 0.0696698 -1.43831 0
M  V30 27385 H 2522.64 2.5583 -3.34857 0
M  V30 27386 H 2521.36 2.49504 -2.1075 0
M  V30 27387 H 2520.02 0.922606 -3.54801 0
M  V30 27388 H 2519.67 3.39316 -3.71314 0
M  V30 27389 H 2519.37 2.58967 -5.27456 0
M  V30 27390 H 2520.89 3.48491 -5.01385 0
M  V30 27391 H 2522.31 1.2869 -5.5867 0
M  V30 27392 H 2520.7 0.595522 -5.97138 0
M  V30 27393 H 2521.77 -0.254936 -4.84229 0
M  V30 27394 N 2523.12 1.57465 0.0651402 0
M  V30 27395 C 2524.36 1.87574 0.76303 0
M  V30 27396 C 2524.69 0.800993 1.77241 0
M  V30 27397 O 2523.95 -0.202282 1.94652 0
M  V30 27398 C 2524.25 3.24364 1.50075 0
M  V30 27399 C 2523.91 4.46467 0.630738 0
M  V30 27400 C 2522.57 4.79609 0.390998 0
M  V30 27401 C 2524.93 5.21193 0.0278549 0
M  V30 27402 C 2522.25 5.84886 -0.460997 0
M  V30 27403 C 2524.61 6.27372 -0.811632 0
M  V30 27404 C 2523.27 6.59011 -1.06118 0
M  V30 27405 H 2522.54 0.686383 0.279212 0
M  V30 27406 H 2525.19 1.91485 0.0236389 0
M  V30 27407 H 2523.49 3.16275 2.31252 0
M  V30 27408 H 2525.19 3.44897 2.04565 0
M  V30 27409 H 2521.78 4.20531 0.827727 0
M  V30 27410 H 2525.96 4.95896 0.200175 0
M  V30 27411 H 2521.22 6.07794 -0.663014 0
M  V30 27412 H 2525.39 6.84433 -1.28549 0
M  V30 27413 H 2523.02 7.40414 -1.72313 0
M  V30 27414 N 2524.59 -0.336679 1.53962 0
M  V30 27415 C 2525.53 -1.43457 1.78753 0
M  V30 27416 C 2526.54 -1.48417 0.669045 0
M  V30 27417 O 2527.73 -1.51376 0.94591 0
M  V30 27418 C 2524.83 -2.82075 1.87848 0
M  V30 27419 C 2524 -3.00473 3.17859 0
M  V30 27420 C 2523.06 -4.19374 3.17824 0
M  V30 27421 O 2522.09 -4.13161 3.91518 0
M  V30 27422 N 2523.29 -5.28256 2.40678 0
M  V30 27423 H 2526.05 -1.22558 2.73495 0
M  V30 27424 H 2523.61 -0.526598 1.53097 0
M  V30 27425 H 2525.61 -3.59803 1.85268 0
M  V30 27426 H 2524.18 -2.96085 1.00263 0
M  V30 27427 H 2523.4 -2.10157 3.33508 0
M  V30 27428 H 2524.68 -3.09653 4.03723 0
M  V30 27429 H 2524.08 -5.36175 1.80369 0
M  V30 27430 H 2522.64 -6.04452 2.43888 0
M  V30 27431 N 2526.07 -1.45812 -0.598057 0
M  V30 27432 C 2527.32 -1.49596 -1.35292 0
M  V30 27433 C 2527.63 -0.145713 -1.95056 0
M  V30 27434 O 2528.84 -0.0612576 -2.71431 0
M  V30 27435 C 2527.3 -2.63523 -2.45119 0
M  V30 27436 C 2526.9 -4.04902 -1.91725 0
M  V30 27437 C 2528.65 -2.76563 -3.22045 0
M  V30 27438 C 2526.56 -5.10195 -2.99091 0
M  V30 27439 H 2525.49 -0.556687 -0.508542 0
M  V30 27440 H 2528.14 -1.71979 -0.639947 0
M  V30 27441 H 2526.52 -2.3444 -3.19145 0
M  V30 27442 H 2527.69 -4.43706 -1.24344 0
M  V30 27443 H 2526.01 -3.96395 -1.27515 0
M  V30 27444 H 2528.6 -3.52398 -4.02144 0
M  V30 27445 H 2528.95 -1.83533 -3.73659 0
M  V30 27446 H 2529.48 -3.05218 -2.55121 0
M  V30 27447 H 2526.22 -6.04966 -2.52382 0
M  V30 27448 H 2525.74 -4.75951 -3.65008 0
M  V30 27449 H 2527.42 -5.35365 -3.63309 0
M  V30 27450 N 2527.55 0.841385 -1.33261 0
M  V30 27451 C 2528.78 1.62861 -1.27608 0
M  V30 27452 C 2529.19 1.88175 0.153474 0
M  V30 27453 O 2528.55 1.46013 1.09482 0
M  V30 27454 C 2528.6 2.98028 -2.04602 0
M  V30 27455 O 2528.32 2.73828 -3.4198 0
M  V30 27456 C 2529.82 3.92461 -2.06129 0
M  V30 27457 H 2527.04 0.506834 -0.439727 0
M  V30 27458 H 2529.59 1.04821 -1.75593 0
M  V30 27459 H 2527.74 3.52677 -1.60305 0
M  V30 27460 H 2528.16 3.59883 -3.81556 0
M  V30 27461 H 2529.63 4.84526 -2.64459 0
M  V30 27462 H 2530.11 4.26442 -1.0509 0
M  V30 27463 H 2530.71 3.43749 -2.50433 0
M  V30 27464 N 2529.03 1.16688 1.05932 0
M  V30 27465 C 2530.26 0.974961 1.82489 0
M  V30 27466 C 2530.67 -0.476829 1.82679 0
M  V30 27467 O 2530.03 -1.331 1.24862 0
M  V30 27468 C 2530.08 1.49935 3.2894 0
M  V30 27469 O 2529.8 2.89428 3.28881 0
M  V30 27470 C 2531.3 1.35096 4.22213 0
M  V30 27471 H 2528.52 0.345375 0.575289 0
M  V30 27472 H 2531.07 1.54802 1.33628 0
M  V30 27473 H 2529.22 0.968489 3.75099 0
M  V30 27474 H 2529.64 3.13514 4.20487 0
M  V30 27475 H 2531.11 1.76613 5.22984 0
M  V30 27476 H 2531.59 0.297012 4.38195 0
M  V30 27477 H 2532.19 1.87162 3.81904 0
M  V30 27478 N 2530.51 -1.24529 0.96594 0
M  V30 27479 C 2531.73 -1.97148 0.644006 0
M  V30 27480 C 2532.16 -1.7119 -0.779457 0
M  V30 27481 O 2531.52 -0.97458 -1.52878 0
M  V30 27482 C 2531.56 -3.48597 0.922618 0
M  V30 27483 O 2530.67 -4.12399 0.00714921 0
M  V30 27484 H 2530.01 -0.617678 0.243658 0
M  V30 27485 H 2532.54 -1.58351 1.29561 0
M  V30 27486 H 2532.55 -3.98974 0.853443 0
M  V30 27487 H 2531.22 -3.66819 1.96002 0
M  V30 27488 H 2529.8 -3.72675 0.129495 0
M  V30 27489 N 2531.99 -0.735845 -1.39367 0
M  V30 27490 C 2532.95 -0.104914 -2.2896 0
M  V30 27491 C 2533.95 0.666248 -1.46348 0
M  V30 27492 O 2535.14 0.49514 -1.67015 0
M  V30 27493 C 2532.27 0.860598 -3.29858 0
M  V30 27494 H 2533.46 -0.894255 -2.86257 0
M  V30 27495 H 2531.02 -0.50173 -1.48028 0
M  V30 27496 H 2531.75 1.67626 -2.77618 0
M  V30 27497 H 2531.54 0.310258 -3.90871 0
M  V30 27498 H 2533.03 1.2986 -3.96896 0
M  V30 27499 N 2533.46 1.49999 -0.483543 0
M  V30 27500 C 2534.71 2.01989 0.0669915 0
M  V30 27501 C 2535.03 1.36673 1.39088 0
M  V30 27502 O 2534.3 0.516185 1.88977 0
M  V30 27503 H 2532.88 0.746484 0.0277475 0
M  V30 27504 H 2535.54 1.84203 -0.636805 0
M  V30 27505 H 2534.64 3.11397 0.209429 0
M  V30 27506 N 2534.94 0.216646 1.56104 0
M  V30 27507 C 2536.19 -0.410266 1.99219 0
M  V30 27508 C 2536.54 -1.57733 1.10172 0
M  V30 27509 O 2535.84 -1.91007 0.150631 0
M  V30 27510 C 2536.03 -0.898403 3.45924 0
M  V30 27511 C 2535.86 0.219827 4.49162 0
M  V30 27512 C 2534.63 0.684604 5.00641 0
M  V30 27513 C 2536.83 1.03638 5.0375 0
M  V30 27514 N 2534.81 1.7784 5.87576 0
M  V30 27515 C 2536.18 1.97914 5.87563 0
M  V30 27516 C 2538.23 1.07637 4.86126 0
M  V30 27517 C 2536.94 2.95863 6.55635 0
M  V30 27518 C 2538.96 2.04401 5.54954 0
M  V30 27519 C 2538.33 2.97418 6.38531 0
M  V30 27520 H 2534.42 -0.116936 0.773208 0
M  V30 27521 H 2537.01 0.327292 1.91929 0
M  V30 27522 H 2535.18 -1.60534 3.53671 0
M  V30 27523 H 2536.91 -1.49772 3.75966 0
M  V30 27524 H 2533.67 0.274073 4.72806 0
M  V30 27525 H 2534.09 2.32716 6.35746 0
M  V30 27526 H 2538.73 0.371174 4.21168 0
M  V30 27527 H 2536.45 3.67347 7.19779 0
M  V30 27528 H 2540.04 2.08164 5.43286 0
M  V30 27529 H 2538.92 3.71072 6.90851 0
M  V30 27530 N 2536.42 -1.57498 -0.0567885 0
M  V30 27531 C 2537.7 -1.79072 -0.786923 0
M  V30 27532 C 2538.08 -0.807954 -1.95026 0
M  V30 27533 O 2537.42 0.155818 -2.27968 0
M  V30 27534 C 2537.63 -3.26004 -1.24589 0
M  V30 27535 C 2538.98 -3.90244 -1.67316 0
M  V30 27536 O 2540.01 -3.29986 -1.34118 0
M  V30 27537 O 2538.87 -4.96284 -2.28833 0
M  V30 27538 H 2535.96 -0.73543 -0.378249 0
M  V30 27539 H 2538.51 -1.69662 -0.0357042 0
M  V30 27540 H 2537.28 -3.89102 -0.414162 0
M  V30 27541 H 2536.9 -3.40196 -2.05797 0
M  V30 27542 N 2537.9 0.328509 -1.54138 0
M  V30 27543 C 2539.15 1.06493 -1.71766 0
M  V30 27544 C 2539.47 1.88704 -0.491523 0
M  V30 27545 O 2538.74 1.89556 0.494506 0
M  V30 27546 H 2537.32 0.396153 -0.633302 0
M  V30 27547 H 2539.98 0.366143 -1.9143 0
M  V30 27548 H 2539.07 1.73377 -2.59513 0
M  V30 27549 N 2539.38 1.46127 0.590316 0
M  V30 27550 C 2540.31 1.58969 1.71029 0
M  V30 27551 C 2541.29 0.440364 1.64301 0
M  V30 27552 O 2542.47 0.665666 1.82435 0
M  V30 27553 C 2539.6 1.57246 3.09662 0
M  V30 27554 C 2538.56 2.71072 3.31216 0
M  V30 27555 C 2537.88 2.54408 4.70299 0
M  V30 27556 C 2539.18 4.12956 3.19789 0
M  V30 27557 H 2540.88 2.52721 1.60538 0
M  V30 27558 H 2538.42 1.21626 0.770912 0
M  V30 27559 H 2540.37 1.64826 3.87828 0
M  V30 27560 H 2539.1 0.600345 3.21035 0
M  V30 27561 H 2537.76 2.62949 2.55447 0
M  V30 27562 H 2537.41 1.55296 4.78427 0
M  V30 27563 H 2537.11 3.30749 4.85674 0
M  V30 27564 H 2538.63 2.63867 5.50642 0
M  V30 27565 H 2540.04 4.2223 3.87807 0
M  V30 27566 H 2538.44 4.89824 3.46688 0
M  V30 27567 H 2539.51 4.33647 2.16976 0
M  V30 27568 N 2540.85 -0.834306 1.33705 0
M  V30 27569 C 2541.78 -1.95961 1.26971 0
M  V30 27570 C 2542.76 -1.69443 0.149366 0
M  V30 27571 O 2543.95 -1.91203 0.339885 0
M  V30 27572 C 2541.08 -3.32204 1.01281 0
M  V30 27573 C 2540.03 -3.73132 2.09658 0
M  V30 27574 C 2539.36 -5.07232 1.69175 0
M  V30 27575 C 2540.66 -3.86432 3.51379 0
M  V30 27576 H 2542.35 -2.01854 2.21123 0
M  V30 27577 H 2539.9 -0.969775 1.06449 0
M  V30 27578 H 2541.85 -4.10502 0.952178 0
M  V30 27579 H 2540.58 -3.26581 0.0356777 0
M  V30 27580 H 2539.24 -2.97101 2.14771 0
M  V30 27581 H 2538.88 -4.98084 0.701524 0
M  V30 27582 H 2538.58 -5.35587 2.41704 0
M  V30 27583 H 2540.11 -5.88 1.64586 0
M  V30 27584 H 2541.52 -4.5503 3.48742 0
M  V30 27585 H 2539.92 -4.26229 4.22432 0
M  V30 27586 H 2540.99 -2.88752 3.89552 0
M  V30 27587 N 2542.33 -1.17248 -1.05312 0
M  V30 27588 C 2543.29 -0.890394 -2.11198 0
M  V30 27589 C 2544.29 0.118915 -1.6036 0
M  V30 27590 O 2545.48 -0.113116 -1.73832 0
M  V30 27591 C 2542.62 -0.333481 -3.39265 0
M  V30 27592 H 2543.81 -1.8292 -2.37656 0
M  V30 27593 H 2541.36 -0.98278 -1.21537 0
M  V30 27594 H 2542.1 0.612531 -3.18463 0
M  V30 27595 H 2541.88 -1.06089 -3.77475 0
M  V30 27596 H 2543.37 -0.154395 -4.17314 0
M  V30 27597 N 2543.81 1.24015 -0.972531 0
M  V30 27598 C 2545.22 1.74063 -0.6752 0
M  V30 27599 C 2545.57 1.78749 0.808908 0
M  V30 27600 O 2544.7 1.42012 1.63284 0
M  V30 27601 C 2545.29 3.16112 -1.21895 0
M  V30 27602 C 2543.85 3.63649 -0.971422 0
M  V30 27603 C 2543 2.42142 -1.35138 0
M  V30 27604 H 2545.95 1.09649 -1.14729 0
M  V30 27605 H 2545.97 3.75936 -0.587555 0
M  V30 27606 H 2545.48 3.1267 -2.29911 0
M  V30 27607 H 2543.58 3.72484 0.0930031 0
M  V30 27608 H 2543.7 4.50863 -1.62047 0
M  V30 27609 H 2542.06 2.42789 -0.769794 0
M  V30 27610 H 2542.84 2.41377 -2.44115 0
M  V30 27611 N 2545.29 0.743226 1.38974 0
M  V30 27612 C 2546.54 0.291627 1.99581 0
M  V30 27613 C 2546.85 -1.12998 1.59658 0
M  V30 27614 O 2548.06 -1.68152 2.1316 0
M  V30 27615 C 2546.51 0.470454 3.56812 0
M  V30 27616 C 2546.12 1.90048 4.05692 0
M  V30 27617 C 2547.86 0.0810455 4.24423 0
M  V30 27618 C 2545.77 2.02842 5.55526 0
M  V30 27619 H 2544.7 0.105285 0.746613 0
M  V30 27620 H 2547.35 0.918286 1.5887 0
M  V30 27621 H 2545.73 -0.225229 3.95359 0
M  V30 27622 H 2546.91 2.62878 3.7846 0
M  V30 27623 H 2545.22 2.24385 3.50771 0
M  V30 27624 H 2547.82 0.155539 5.34474 0
M  V30 27625 H 2548.16 -0.964899 4.04963 0
M  V30 27626 H 2548.7 0.728193 3.91078 0
M  V30 27627 H 2545.44 3.05654 5.79876 0
M  V30 27628 H 2544.96 1.34458 5.84535 0
M  V30 27629 H 2546.63 1.81346 6.21066 0
M  V30 27630 N 2546.77 -1.4974 0.491491 0
M  V30 27631 C 2547.7 -2.31797 -0.2815 0
M  V30 27632 C 2548.68 -1.39631 -0.971448 0
M  V30 27633 O 2549.86 -1.68545 -0.964689 0
M  V30 27634 C 2546.99 -3.19905 -1.35197 0
M  V30 27635 C 2545.95 -4.20787 -0.782455 0
M  V30 27636 C 2545.27 -4.97767 -1.95274 0
M  V30 27637 C 2546.57 -5.21836 0.220082 0
M  V30 27638 H 2548.27 -2.9667 0.403407 0
M  V30 27639 H 2545.81 -1.42667 0.19545 0
M  V30 27640 H 2547.77 -3.76116 -1.90038 0
M  V30 27641 H 2546.49 -2.52956 -2.06593 0
M  V30 27642 H 2545.15 -3.65706 -0.255864 0
M  V30 27643 H 2544.8 -4.27274 -2.65416 0
M  V30 27644 H 2544.5 -5.66021 -1.57779 0
M  V30 27645 H 2546.02 -5.5682 -2.50567 0
M  V30 27646 H 2547.43 -5.72798 -0.239859 0
M  V30 27647 H 2545.83 -5.97926 0.510365 0
M  V30 27648 H 2546.9 -4.71328 1.13919 0
M  V30 27649 N 2548.24 -0.224922 -1.55987 0
M  V30 27650 C 2549.19 0.700244 -2.21809 0
M  V30 27651 C 2550.19 1.19712 -1.19856 0
M  V30 27652 O 2551.39 1.15655 -1.37927 0
M  V30 27653 H 2547.77 0.244245 -0.71123 0
M  V30 27654 H 2549.74 0.121696 -2.98152 0
M  V30 27655 C 2548.49 1.89615 -2.91447 0
M  V30 27656 H 2547.81 1.52293 -3.69658 0
M  V30 27657 H 2549.25 2.52119 -3.40899 0
M  V30 27658 C 2547.71 2.75365 -1.94103 0
M  V30 27659 O 2548.24 3.74224 -1.4601 0
M  V30 27660 N 2546.45 2.41471 -1.61679 0
M  V30 27661 H 2545.99 1.61133 -2.00982 0
M  V30 27662 H 2545.95 2.99124 -0.968089 0
M  V30 27663 N 2549.72 1.57526 0.0484352 0
M  V30 27664 C 2550.95 1.93007 0.759143 0
M  V30 27665 C 2551.37 0.823347 1.69123 0
M  V30 27666 O 2550.73 -0.222332 1.79932 0
M  V30 27667 C 2550.78 3.27511 1.50893 0
M  V30 27668 O 2549.88 3.18393 2.62106 0
M  V30 27669 H 2549.22 0.631383 0.205553 0
M  V30 27670 H 2551.75 2.04598 0.00969363 0
M  V30 27671 H 2551.76 3.61943 1.88311 0
M  V30 27672 H 2550.44 4.07631 0.825197 0
M  V30 27673 H 2549.02 2.9556 2.27374 0
M  V30 27674 N 2551.2 -0.32033 1.5431 0
M  V30 27675 C 2552.45 -1.0558 1.72329 0
M  V30 27676 C 2552.77 -1.8844 0.501523 0
M  V30 27677 O 2552.04 -1.89816 -0.484446 0
M  V30 27678 H 2550.62 -0.392789 0.635394 0
M  V30 27679 H 2553.28 -0.355986 1.91621 0
M  V30 27680 H 2552.38 -1.71998 2.60429 0
M  V30 27681 N 2552.68 -1.46438 -0.582558 0
M  V30 27682 C 2554.09 -1.45918 -1.16468 0
M  V30 27683 C 2554.44 -0.200111 -1.95177 0
M  V30 27684 O 2553.57 0.696783 -2.04875 0
M  V30 27685 C 2554.16 -2.64371 -2.11881 0
M  V30 27686 C 2552.72 -2.66892 -2.65416 0
M  V30 27687 C 2551.87 -2.38605 -1.4129 0
M  V30 27688 H 2554.82 -1.54315 -0.370487 0
M  V30 27689 H 2554.84 -2.39898 -2.95346 0
M  V30 27690 H 2554.35 -3.55993 -1.54567 0
M  V30 27691 H 2552.45 -1.79343 -3.26599 0
M  V30 27692 H 2552.56 -3.6686 -3.08141 0
M  V30 27693 H 2550.93 -1.88666 -1.71105 0
M  V30 27694 H 2551.71 -3.32404 -0.858067 0
M  V30 27695 N 2554.16 0.827204 -1.34146 0
M  V30 27696 C 2555.57 1.39964 -1.23559 0
M  V30 27697 C 2555.92 1.95695 0.140697 0
M  V30 27698 O 2555.04 1.89725 1.04084 0
M  V30 27699 C 2555.64 2.54437 -2.23712 0
M  V30 27700 C 2554.2 3.07601 -2.1693 0
M  V30 27701 C 2553.34 1.80452 -2.10552 0
M  V30 27702 H 2556.3 0.631965 -1.45574 0
M  V30 27703 H 2556.32 3.32408 -1.85163 0
M  V30 27704 H 2555.83 2.13845 -3.2387 0
M  V30 27705 H 2553.93 3.52709 -1.20113 0
M  V30 27706 H 2554.04 3.66982 -3.07995 0
M  V30 27707 H 2552.41 2.01175 -1.56207 0
M  V30 27708 H 2553.19 1.4204 -3.12537 0
M  V30 27709 N 2555.63 1.17805 1.04688 0
M  V30 27710 C 2556.91 0.879359 1.74719 0
M  V30 27711 C 2557.29 -0.619236 2.01813 0
M  V30 27712 O 2556.64 -1.57206 1.65827 0
M  V30 27713 C 2556.85 1.71981 3.03683 0
M  V30 27714 C 2558.2 1.94293 3.77539 0
M  V30 27715 O 2559.22 1.68982 3.13566 0
M  V30 27716 O 2558.08 2.36864 4.92502 0
M  V30 27717 H 2555.17 0.326069 0.760005 0
M  V30 27718 H 2557.72 1.28527 1.10811 0
M  V30 27719 H 2556.49 2.73599 2.79749 0
M  V30 27720 H 2556.12 1.31201 3.75329 0
M  V30 27721 N 2557.11 -1.23497 0.979094 0
M  V30 27722 C 2558.35 -1.93612 0.655262 0
M  V30 27723 C 2558.72 -1.74708 -0.796306 0
M  V30 27724 O 2559.92 -2.38961 -1.2309 0
M  V30 27725 C 2558.19 -3.42133 1.03343 0
M  V30 27726 S 2559.75 -4.30958 0.825869 0
M  V30 27727 H 2556.57 -0.669263 0.240016 0
M  V30 27728 H 2559.17 -1.4961 1.25846 0
M  V30 27729 H 2557.87 -3.53401 2.08652 0
M  V30 27730 H 2557.4 -3.91136 0.421466 0
M  V30 27731 H 2559.42 -4.95347 -0.290904 0
M  V30 27732 N 2558.59 -0.750586 -1.38578 0
M  V30 27733 C 2559.87 -0.231043 -1.94231 0
M  V30 27734 C 2560.25 1.27015 -1.68613 0
M  V30 27735 O 2559.6 2.04321 -1.023 0
M  V30 27736 C 2559.81 -0.581489 -3.44122 0
M  V30 27737 C 2561.15 -0.539463 -4.21159 0
M  V30 27738 O 2562.18 -0.519603 -3.5239 0
M  V30 27739 O 2561.04 -0.547745 -5.43748 0
M  V30 27740 H 2558.13 -0.0474408 -0.825638 0
M  V30 27741 H 2560.68 -0.830504 -1.47989 0
M  V30 27742 H 2559.45 -1.61839 -3.56264 0
M  V30 27743 H 2559.07 0.0461348 -3.97573 0
M  V30 27744 N 2560.07 1.49477 -0.499425 0
M  V30 27745 C 2561.48 1.8663 -0.0512479 0
M  V30 27746 C 2561.83 1.41189 1.36236 0
M  V30 27747 O 2560.96 0.789087 2.015 0
M  V30 27748 C 2561.55 3.3869 -0.0862246 0
M  V30 27749 C 2560.11 3.75149 0.306604 0
M  V30 27750 C 2559.26 2.73467 -0.459445 0
M  V30 27751 H 2562.21 1.41817 -0.712289 0
M  V30 27752 H 2562.23 3.73828 0.709441 0
M  V30 27753 H 2561.74 3.71733 -1.11518 0
M  V30 27754 H 2559.84 3.47715 1.33885 0
M  V30 27755 H 2559.96 4.79099 -0.0117511 0
M  V30 27756 H 2558.32 2.54539 0.0905198 0
M  V30 27757 H 2559.1 3.09354 -1.48845 0
M  V30 27758 N 2561.55 0.233191 1.55865 0
M  V30 27759 C 2562.82 -0.444954 1.90472 0
M  V30 27760 C 2563.2 -1.76888 1.15212 0
M  V30 27761 O 2562.55 -2.26956 0.265159 0
M  V30 27762 C 2562.76 -0.626499 3.43331 0
M  V30 27763 C 2564.11 -0.928637 4.14321 0
M  V30 27764 O 2565.13 -0.712864 3.48994 0
M  V30 27765 O 2563.99 -1.33877 5.29848 0
M  V30 27766 H 2561.09 -0.236871 0.792351 0
M  V30 27767 H 2563.63 0.27624 1.67437 0
M  V30 27768 H 2562.41 0.306891 3.90095 0
M  V30 27769 H 2562.03 -1.39875 3.72184 0
M  V30 27770 N 2563.03 -1.57549 -0.0400806 0
M  V30 27771 C 2563.97 -2.05833 -1.0441 0
M  V30 27772 C 2564.94 -0.945208 -1.36583 0
M  V30 27773 O 2566.13 -1.21505 -1.4711 0
M  V30 27774 C 2563.27 -2.53343 -2.34332 0
M  V30 27775 C 2562.38 -3.78402 -2.08413 0
M  V30 27776 C 2561.52 -4.14567 -3.32126 0
M  V30 27777 C 2560.55 -5.32575 -3.01712 0
M  V30 27778 N 2559.69 -5.64225 -4.17845 0
M  V30 27779 H 2564.53 -2.91364 -0.625391 0
M  V30 27780 H 2562.07 -1.44067 -0.297192 0
M  V30 27781 H 2564.03 -2.78951 -3.10229 0
M  V30 27782 H 2562.66 -1.70745 -2.73945 0
M  V30 27783 H 2561.71 -3.59944 -1.23062 0
M  V30 27784 H 2563.02 -4.64423 -1.8197 0
M  V30 27785 H 2562.17 -4.41245 -4.16398 0
M  V30 27786 H 2560.91 -3.27176 -3.61673 0
M  V30 27787 H 2559.92 -5.05661 -2.1584 0
M  V30 27788 H 2561.14 -6.2161 -2.73455 0
M  V30 27789 H 2559.09 -4.79794 -4.47364 0
M  V30 27790 H 2559.01 -6.44732 -3.94787 0
M  V30 27791 H 2560.27 -5.95473 -5.03022 0
M  V30 27792 N 2564.5 0.312142 -1.54478 0
M  V30 27793 C 2565.78 1.06764 -1.63893 0
M  V30 27794 C 2566.16 2.05569 -0.480064 0
M  V30 27795 O 2565.51 2.224 0.524448 0
M  V30 27796 C 2565.72 1.75943 -3.01405 0
M  V30 27797 C 2567.07 2.28548 -3.57842 0
M  V30 27798 O 2568.09 1.85992 -3.03785 0
M  V30 27799 O 2566.95 3.06489 -4.52467 0
M  V30 27800 H 2564.04 0.492804 -0.664133 0
M  V30 27801 H 2566.59 0.31112 -1.66824 0
M  V30 27802 H 2565.36 1.04138 -3.77188 0
M  V30 27803 H 2564.98 2.58378 -3.02203 0
M  V30 27804 N 2565.98 1.46745 0.574784 0
M  V30 27805 C 2566.93 1.54322 1.67836 0
M  V30 27806 C 2567.92 0.403487 1.55759 0
M  V30 27807 O 2569.11 0.652376 1.64539 0
M  V30 27808 C 2566.24 1.54396 3.06622 0
M  V30 27809 C 2565.32 2.73691 3.23966 0
M  V30 27810 N 2565.71 3.98546 3.1144 0
M  V30 27811 C 2564.01 2.70082 3.54925 0
M  V30 27812 C 2564.71 4.78343 3.31003 0
M  V30 27813 N 2563.69 4.10354 3.56526 0
M  V30 27814 H 2567.49 2.48645 1.56693 0
M  V30 27815 H 2565 1.42494 0.779046 0
M  V30 27816 H 2567 1.57912 3.85836 0
M  V30 27817 H 2565.66 0.611549 3.18889 0
M  V30 27818 H 2566.67 4.29674 2.89138 0
M  V30 27819 H 2563.35 1.859 3.73828 0
M  V30 27820 H 2564.74 5.87273 3.26435 0
M  V30 27821 N 2567.46 -0.820078 1.34583 0
M  V30 27822 C 2568.87 -1.39307 1.243 0
M  V30 27823 C 2569.22 -1.95767 -0.130317 0
M  V30 27824 O 2568.35 -1.90274 -1.03077 0
M  V30 27825 C 2568.94 -2.53247 2.25058 0
M  V30 27826 C 2567.5 -3.06446 2.18558 0
M  V30 27827 C 2566.65 -1.79333 2.11506 0
M  V30 27828 H 2569.6 -0.624236 1.45907 0
M  V30 27829 H 2569.62 -3.31421 1.86923 0
M  V30 27830 H 2569.13 -2.12125 3.25 0
M  V30 27831 H 2567.23 -3.52067 1.21982 0
M  V30 27832 H 2567.35 -3.65344 3.09937 0
M  V30 27833 H 2565.71 -2.00344 1.57271 0
M  V30 27834 H 2566.49 -1.40381 3.13286 0
M  V30 27835 N 2568.94 -1.18359 -1.04062 0
M  V30 27836 C 2570.19 -0.977044 -1.76913 0
M  V30 27837 C 2570.51 0.494544 -1.88625 0
M  V30 27838 O 2569.78 1.35868 -1.41127 0
M  V30 27839 H 2568.36 -0.358516 -0.655344 0
M  V30 27840 H 2571.02 -1.49041 -1.25589 0
M  V30 27841 H 2570.11 -1.41509 -2.78175 0
M  V30 27842 N 2570.42 1.22976 -0.98563 0
M  V30 27843 C 2571.64 1.96098 -0.675289 0
M  V30 27844 C 2572.07 1.72409 0.752124 0
M  V30 27845 O 2571.42 0.998778 1.51308 0
M  V30 27846 C 2571.47 3.47085 -0.97796 0
M  V30 27847 O 2570.58 4.12336 -0.0727575 0
M  V30 27848 H 2569.92 0.613724 -0.253454 0
M  V30 27849 H 2572.45 1.5627 -1.32064 0
M  V30 27850 H 2572.46 3.97566 -0.916809 0
M  V30 27851 H 2571.13 3.63654 -2.01813 0
M  V30 27852 H 2569.71 3.72422 -0.188768 0
M  V30 27853 N 2571.89 0.757924 1.38178 0
M  V30 27854 C 2573.12 0.325715 2.04826 0
M  V30 27855 C 2573.54 -1.03916 1.5679 0
M  V30 27856 O 2572.9 -1.6631 0.721841 0
M  V30 27857 C 2572.95 0.36251 3.58773 0
M  V30 27858 O 2572.05 -0.641961 4.07373 0
M  V30 27859 H 2571.39 0.143413 0.648328 0
M  V30 27860 H 2573.92 1.03026 1.76768 0
M  V30 27861 H 2573.93 0.214915 4.07434 0
M  V30 27862 H 2572.61 1.35831 3.93094 0
M  V30 27863 H 2571.19 -0.458623 3.70069 0
M  V30 27864 N 2573.37 -1.4921 0.507345 0
M  V30 27865 C 2574.62 -2.0277 -0.0349691 0
M  V30 27866 C 2574.95 -1.38571 -1.36057 0
M  V30 27867 O 2574.23 -0.523575 -1.8732 0
M  V30 27868 C 2574.51 -3.59646 -0.180852 0
M  V30 27869 C 2574.36 -4.34362 1.16832 0
M  V30 27870 C 2575.68 -4.30409 -0.918482 0
M  V30 27871 H 2572.8 -0.736914 -0.0112344 0
M  V30 27872 H 2575.44 -1.78169 0.659987 0
M  V30 27873 H 2573.59 -3.80737 -0.772759 0
M  V30 27874 H 2575.26 -4.2475 1.7996 0
M  V30 27875 H 2573.51 -3.9667 1.75601 0
M  V30 27876 H 2574.18 -5.42504 1.01949 0
M  V30 27877 H 2576.65 -4.14011 -0.416417 0
M  V30 27878 H 2575.53 -5.39909 -0.98941 0
M  V30 27879 H 2575.79 -3.96097 -1.96366 0
M  V30 27880 N 2574.85 -0.241454 -1.55739 0
M  V30 27881 C 2575.8 0.660393 -2.2115 0
M  V30 27882 C 2576.77 1.17543 -1.17358 0
M  V30 27883 O 2577.95 1.2309 -1.45786 0
M  V30 27884 C 2575.09 1.85409 -2.91063 0
M  V30 27885 C 2574.21 1.37609 -4.09497 0
M  V30 27886 C 2573.34 2.52892 -4.67139 0
M  V30 27887 C 2572.38 2.01926 -5.77834 0
M  V30 27888 N 2571.52 3.10555 -6.29682 0
M  V30 27889 H 2576.36 0.0959026 -2.97846 0
M  V30 27890 H 2573.89 0.0355766 -1.47057 0
M  V30 27891 H 2575.85 2.55525 -3.29792 0
M  V30 27892 H 2574.48 2.39114 -2.1685 0
M  V30 27893 H 2573.53 0.569168 -3.76118 0
M  V30 27894 H 2574.85 0.962532 -4.89425 0
M  V30 27895 H 2574 3.31058 -5.08415 0
M  V30 27896 H 2572.74 2.97546 -3.86416 0
M  V30 27897 H 2571.74 1.22228 -5.36041 0
M  V30 27898 H 2572.97 1.58248 -6.60405 0
M  V30 27899 H 2570.91 3.54654 -5.51866 0
M  V30 27900 H 2570.83 2.73514 -7.04788 0
M  V30 27901 H 2572.1 3.88797 -6.75616 0
M  V30 27902 N 2576.33 1.57568 0.0317248 0
M  V30 27903 C 2577.58 1.88777 0.721642 0
M  V30 27904 C 2577.9 0.838803 1.76037 0
M  V30 27905 O 2577.17 -0.1279 1.95482 0
M  V30 27906 H 2575.75 0.696683 0.269522 0
M  V30 27907 H 2578.41 1.949 -0.00169305 0
M  V30 27908 H 2577.51 2.87569 1.21288 0
M  V30 27909 N 2577.81 -0.303946 1.54641 0
M  V30 27910 C 2579.08 -1.05894 1.64456 0
M  V30 27911 C 2579.46 -2.05311 0.490959 0
M  V30 27912 O 2578.81 -2.22675 -0.512646 0
M  V30 27913 C 2579.02 -1.74342 3.02334 0
M  V30 27914 C 2580.37 -2.26647 3.59049 0
M  V30 27915 O 2581.39 -1.84379 3.04767 0
M  V30 27916 O 2580.25 -3.04085 4.54086 0
M  V30 27917 H 2577.35 -0.489275 0.666737 0
M  V30 27918 H 2579.89 -0.302269 1.66986 0
M  V30 27919 H 2578.66 -1.02136 3.77735 0
M  V30 27920 H 2578.29 -2.56771 3.03569 0
M  V30 27921 N 2579.28 -1.47047 -0.566994 0
M  V30 27922 C 2580.52 -1.5474 -1.33547 0
M  V30 27923 C 2580.89 -0.200805 -1.90947 0
M  V30 27924 O 2582.09 -0.152536 -2.68367 0
M  V30 27925 C 2580.36 -2.62716 -2.42312 0
M  V30 27926 S 2581.92 -2.89924 -3.29377 0
M  V30 27927 H 2578.74 -0.546533 -0.454778 0
M  V30 27928 H 2581.34 -1.84372 -0.650158 0
M  V30 27929 H 2580.04 -3.59168 -1.98561 0
M  V30 27930 H 2579.57 -2.34867 -3.15597 0
M  V30 27931 H 2581.59 -2.26392 -4.41544 0
M  V30 27932 N 2580.76 0.812929 -1.35016 0
M  V30 27933 C 2582.01 1.56659 -1.27681 0
M  V30 27934 C 2582.33 1.9442 0.150324 0
M  V30 27935 O 2581.6 1.6309 1.08529 0
M  V30 27936 H 2580.18 0.580925 -0.469612 0
M  V30 27937 H 2582.84 0.970047 -1.69045 0
M  V30 27938 H 2581.94 2.48489 -1.88837 0
M  V30 27939 N 2582.24 1.18909 1.03433 0
M  V30 27940 C 2583.19 0.918391 2.13702 0
M  V30 27941 C 2584.18 -0.123738 1.68947 0
M  V30 27942 O 2585.39 0.0250018 1.79983 0
M  V30 27943 H 2581.76 0.279554 0.698107 0
M  V30 27944 H 2583.73 1.8551 2.33727 0
M  V30 27945 C 2582.48 0.467593 3.44542 0
M  V30 27946 H 2581.81 1.26102 3.79392 0
M  V30 27947 H 2583.25 0.317238 4.22812 0
M  V30 27948 C 2581.71 -0.817531 3.2683 0
M  V30 27949 O 2582.24 -1.88025 3.54978 0
M  V30 27950 N 2580.44 -0.772628 2.80141 0
M  V30 27951 H 2579.99 0.0924336 2.57434 0
M  V30 27952 H 2579.95 -1.63289 2.68671 0
M  V30 27953 N 2583.72 -1.22452 0.992137 0
M  V30 27954 C 2585.13 -1.72967 0.702807 0
M  V30 27955 C 2585.48 -1.80013 -0.780368 0
M  V30 27956 O 2584.61 -1.44591 -1.61004 0
M  V30 27957 C 2585.2 -3.14133 1.26909 0
M  V30 27958 C 2583.76 -3.62057 1.02915 0
M  V30 27959 C 2582.91 -2.39962 1.38974 0
M  V30 27960 H 2585.86 -1.0781 1.16459 0
M  V30 27961 H 2585.88 -3.74954 0.647289 0
M  V30 27962 H 2585.39 -3.08973 2.34856 0
M  V30 27963 H 2583.49 -3.72585 -0.0337324 0
M  V30 27964 H 2583.6 -4.48228 1.69199 0
M  V30 27965 H 2581.97 -2.41533 0.808322 0
M  V30 27966 H 2582.75 -2.37463 2.47924 0
M  V30 27967 N 2585.2 -0.765242 -1.37774 0
M  V30 27968 C 2586.42 -0.336573 -2.04651 0
M  V30 27969 C 2586.85 1.03083 -1.57339 0
M  V30 27970 O 2586.2 1.65925 -0.73065 0
M  V30 27971 C 2586.25 -0.381531 -3.58576 0
M  V30 27972 O 2585.36 0.620348 -4.07708 0
M  V30 27973 H 2584.7 -0.14685 -0.647558 0
M  V30 27974 H 2587.23 -1.03962 -1.76219 0
M  V30 27975 H 2587.24 -0.236519 -4.07314 0
M  V30 27976 H 2585.91 -1.37914 -3.92368 0
M  V30 27977 H 2584.49 0.438991 -3.70307 0
M  V30 27978 N 2586.67 1.48939 -0.515251 0
M  V30 27979 C 2587.92 2.02786 0.0242152 0
M  V30 27980 C 2588.25 1.39291 1.35321 0
M  V30 27981 O 2587.53 0.533502 1.8704 0
M  V30 27982 C 2587.81 3.59736 0.161777 0
M  V30 27983 C 2587.66 4.33736 -1.19134 0
M  V30 27984 C 2588.98 4.3089 0.895644 0
M  V30 27985 H 2586.1 0.736964 0.00732618 0
M  V30 27986 H 2588.74 1.77816 -0.669426 0
M  V30 27987 H 2586.89 3.81141 0.752557 0
M  V30 27988 H 2588.57 4.23789 -1.8221 0
M  V30 27989 H 2586.81 3.95733 -1.77702 0
M  V30 27990 H 2587.48 5.41956 -1.04824 0
M  V30 27991 H 2589.96 4.14226 0.394455 0
M  V30 27992 H 2588.83 5.40426 0.960764 0
M  V30 27993 H 2589.09 3.97133 1.94263 0
M  V30 27994 N 2588.15 0.249709 1.55609 0
M  V30 27995 C 2589.4 -0.373513 1.98618 0
M  V30 27996 C 2589.72 -1.58262 1.13922 0
M  V30 27997 O 2588.99 -1.9463 0.222671 0
M  V30 27998 H 2587.57 -0.140993 0.733573 0
M  V30 27999 H 2590.23 0.34915 1.91747 0
M  V30 28000 H 2589.33 -0.680743 3.04585 0
M  V30 28001 N 2589.63 -1.57583 -0.0233682 0
M  V30 28002 C 2590.88 -1.88711 -0.7121 0
M  V30 28003 C 2591.19 -0.848975 -1.76215 0
M  V30 28004 O 2592.4 -1.04968 -2.50387 0
M  V30 28005 C 2590.86 -3.34912 -1.31764 0
M  V30 28006 C 2590.46 -4.4697 -0.303637 0
M  V30 28007 C 2592.21 -3.75182 -1.98592 0
M  V30 28008 C 2590.11 -5.84234 -0.917842 0
M  V30 28009 H 2589.04 -0.704106 -0.269723 0
M  V30 28010 H 2591.7 -1.8347 0.0333437 0
M  V30 28011 H 2590.08 -3.34917 -2.11298 0
M  V30 28012 H 2591.25 -4.58444 0.465405 0
M  V30 28013 H 2589.57 -4.15569 0.262873 0
M  V30 28014 H 2592.16 -4.75057 -2.45408 0
M  V30 28015 H 2592.51 -3.07473 -2.80653 0
M  V30 28016 H 2593.04 -3.77376 -1.25825 0
M  V30 28017 H 2589.78 -6.55358 -0.136518 0
M  V30 28018 H 2589.3 -5.7647 -1.65659 0
M  V30 28019 H 2590.98 -6.31146 -1.42349 0
M  V30 28020 N 2591.11 0.29574 -1.548 0
M  V30 28021 C 2592.36 1.03029 -1.74331 0
M  V30 28022 C 2592.68 1.87084 -0.531948 0
M  V30 28023 O 2591.94 1.89569 0.486019 0
M  V30 28024 C 2592.24 1.96094 -2.98801 0
M  V30 28025 C 2591.9 1.27973 -4.32358 0
M  V30 28026 C 2590.57 1.09127 -4.68663 0
M  V30 28027 C 2592.92 0.793153 -5.1513 0
M  V30 28028 C 2590.25 0.403166 -5.85313 0
M  V30 28029 C 2592.6 0.118743 -6.32489 0
M  V30 28030 C 2591.26 -0.0816217 -6.6745 0
M  V30 28031 H 2590.53 0.377009 -0.637923 0
M  V30 28032 H 2593.18 0.304663 -1.89061 0
M  V30 28033 H 2591.48 2.75203 -2.78874 0
M  V30 28034 H 2593.18 2.53009 -3.11107 0
M  V30 28035 H 2589.77 1.43648 -4.03811 0
M  V30 28036 H 2593.96 0.926444 -4.87576 0
M  V30 28037 H 2589.21 0.236991 -6.10941 0
M  V30 28038 H 2593.39 -0.266157 -6.95891 0
M  V30 28039 H 2591.01 -0.616818 -7.57693 0
M  V30 28040 N 2592.59 1.47346 0.559187 0
M  V30 28041 C 2593.83 1.53869 1.31645 0
M  V30 28042 C 2594.16 0.200138 1.93468 0
M  V30 28043 O 2593.42 -0.806767 1.78297 0
M  V30 28044 C 2593.72 2.60354 2.44848 0
M  V30 28045 C 2593.38 4.03686 2.00869 0
M  V30 28046 C 2592.04 4.42704 1.88591 0
M  V30 28047 C 2594.4 4.93629 1.67271 0
M  V30 28048 C 2591.72 5.69503 1.41007 0
M  V30 28049 C 2594.08 6.20889 1.21159 0
M  V30 28050 C 2592.74 6.58791 1.07475 0
M  V30 28051 H 2592.01 0.563048 0.481724 0
M  V30 28052 H 2594.66 1.80935 0.627269 0
M  V30 28053 H 2592.96 2.27037 3.19314 0
M  V30 28054 H 2594.66 2.62624 3.03034 0
M  V30 28055 H 2591.25 3.72856 2.11367 0
M  V30 28056 H 2595.43 4.64185 1.7563 0
M  V30 28057 H 2590.69 5.9762 1.29076 0
M  V30 28058 H 2594.86 6.89996 0.942223 0
M  V30 28059 H 2592.49 7.56935 0.703813 0
M  V30 28060 N 2594.07 -0.805758 1.35445 0
M  V30 28061 C 2595.31 -1.56288 1.28764 0
M  V30 28062 C 2595.64 -1.94012 -0.137713 0
M  V30 28063 O 2594.9 -1.61644 -1.10317 0
M  V30 28064 C 2595.19 -2.86212 2.1405 0
M  V30 28065 C 2594.86 -2.67703 3.6283 0
M  V30 28066 C 2593.52 -2.62363 4.03385 0
M  V30 28067 C 2595.87 -2.50178 4.57231 0
M  V30 28068 C 2593.2 -2.37442 5.36506 0
M  V30 28069 C 2595.55 -2.26786 5.90551 0
M  V30 28070 C 2594.22 -2.19869 6.30249 0
M  V30 28071 H 2593.49 -0.5719 0.471181 0
M  V30 28072 H 2596.14 -0.930944 1.67349 0
M  V30 28073 H 2594.44 -3.53788 1.68348 0
M  V30 28074 H 2596.14 -3.43913 2.06216 0
M  V30 28075 H 2592.73 -2.72707 3.30649 0
M  V30 28076 H 2596.91 -2.53315 4.26784 0
M  V30 28077 H 2592.17 -2.30557 5.66263 0
M  V30 28078 H 2596.34 -2.12217 6.63277 0
M  V30 28079 H 2593.97 -2.0032 7.33332 0
M  V30 28080 N 2595.54 -1.19456 -1.02801 0
M  V30 28081 C 2596.79 -0.999202 -1.76476 0
M  V30 28082 C 2597.12 0.468795 -1.88457 0
M  V30 28083 O 2596.4 1.34812 -1.402 0
M  V30 28084 C 2596.68 -1.66987 -3.19041 0
M  V30 28085 C 2596.53 -3.21157 -3.14926 0
M  V30 28086 C 2597.85 -1.39357 -4.17454 0
M  V30 28087 H 2594.97 -0.364404 -0.640608 0
M  V30 28088 H 2597.61 -1.47307 -1.20002 0
M  V30 28089 H 2595.76 -1.26697 -3.6726 0
M  V30 28090 H 2597.44 -3.70666 -2.74598 0
M  V30 28091 H 2595.68 -3.52656 -2.52619 0
M  V30 28092 H 2596.35 -3.6323 -4.15654 0
M  V30 28093 H 2598.83 -1.74289 -3.77839 0
M  V30 28094 H 2597.7 -1.88832 -5.15397 0
M  V30 28095 H 2597.96 -0.318891 -4.40948 0
M  V30 28096 N 2597.02 1.21924 -0.998617 0
M  V30 28097 C 2598.25 1.95371 -0.69605 0
M  V30 28098 C 2598.67 1.73197 0.733795 0
M  V30 28099 O 2598.03 1.01477 1.5024 0
M  V30 28100 C 2598.08 3.46029 -1.01472 0
M  V30 28101 O 2597.18 4.12235 -0.116487 0
M  V30 28102 H 2596.52 0.611001 -0.259949 0
M  V30 28103 H 2599.05 1.5486 -1.33714 0
M  V30 28104 H 2599.06 3.96571 -0.958924 0
M  V30 28105 H 2597.74 3.61493 -2.05659 0
M  V30 28106 H 2596.31 3.72201 -0.228258 0
M  V30 28107 N 2598.5 0.772537 1.37367 0
M  V30 28108 C 2599.73 0.348118 2.03646 0
M  V30 28109 C 2600.14 -1.03479 1.58394 0
M  V30 28110 O 2599.48 -1.67198 0.76095 0
M  V30 28111 C 2599.54 0.313467 3.58131 0
M  V30 28112 C 2599.21 1.6411 4.26517 0
M  V30 28113 C 2600.2 2.59368 4.50582 0
M  V30 28114 C 2597.89 1.91575 4.64332 0
M  V30 28115 C 2599.88 3.80298 5.1152 0
M  V30 28116 C 2597.57 3.12775 5.2499 0
M  V30 28117 C 2598.57 4.06956 5.48521 0
M  V30 28118 O 2598.26 5.26022 6.07911 0
M  V30 28119 H 2597.99 0.143765 0.660536 0
M  V30 28120 H 2600.54 1.04775 1.76667 0
M  V30 28121 H 2598.77 -0.442549 3.84159 0
M  V30 28122 H 2600.46 -0.08399 4.05813 0
M  V30 28123 H 2601.23 2.39431 4.2178 0
M  V30 28124 H 2597.11 1.19096 4.45351 0
M  V30 28125 H 2600.65 4.53823 5.29803 0
M  V30 28126 H 2596.55 3.32598 5.53217 0
M  V30 28127 H 2597.31 5.26858 6.26389 0
M  V30 28128 N 2599.98 -1.48664 0.523142 0
M  V30 28129 C 2601.23 -2.01694 -0.0154046 0
M  V30 28130 C 2601.54 -1.40609 -1.35973 0
M  V30 28131 O 2602.75 -1.85096 -1.98624 0
M  V30 28132 C 2601.2 -3.59816 -0.0778671 0
M  V30 28133 C 2600.81 -4.29883 1.26114 0
M  V30 28134 C 2602.55 -4.20715 -0.565604 0
M  V30 28135 C 2600.46 -5.79919 1.15964 0
M  V30 28136 H 2599.39 -0.75394 -0.00952838 0
M  V30 28137 H 2602.04 -1.70991 0.665895 0
M  V30 28138 H 2600.42 -3.8733 -0.824097 0
M  V30 28139 H 2601.6 -4.14048 2.0224 0
M  V30 28140 H 2599.91 -3.80825 1.68407 0
M  V30 28141 H 2602.51 -5.30618 -0.659406 0
M  V30 28142 H 2602.85 -3.8557 -1.56977 0
M  V30 28143 H 2603.39 -3.97604 0.12474 0
M  V30 28144 H 2600.12 -6.19627 2.13875 0
M  V30 28145 H 2599.64 -5.98187 0.439634 0
M  V30 28146 H 2601.32 -6.41426 0.847473 0
M  V30 28147 N 2601.46 -0.257958 -1.55475 0
M  V30 28148 C 2602.7 0.36424 -1.98384 0
M  V30 28149 C 2603.02 1.58256 -1.14954 0
M  V30 28150 O 2604.22 2.27661 -1.47928 0
M  V30 28151 C 2602.68 0.699417 -3.53038 0
M  V30 28152 C 2602.29 -0.498124 -4.45222 0
M  V30 28153 C 2604.03 1.28519 -4.04578 0
M  V30 28154 C 2601.94 -0.138487 -5.91238 0
M  V30 28155 H 2600.87 0.139867 -0.740914 0
M  V30 28156 H 2603.52 -0.359915 -1.79936 0
M  V30 28157 H 2601.9 1.48201 -3.67223 0
M  V30 28158 H 2603.08 -1.2753 -4.42801 0
M  V30 28159 H 2601.39 -0.999574 -4.04225 0
M  V30 28160 H 2603.99 1.56779 -5.11199 0
M  V30 28161 H 2604.33 2.21338 -3.52584 0
M  V30 28162 H 2604.86 0.565268 -3.93763 0
M  V30 28163 H 2601.6 -1.0341 -6.47292 0
M  V30 28164 H 2601.12 0.602269 -5.96769 0
M  V30 28165 H 2602.8 0.275417 -6.46414 0
M  V30 28166 N 2602.93 1.57593 0.0150108 0
M  V30 28167 C 2604.18 1.89086 0.702082 0
M  V30 28168 C 2604.5 0.858308 1.75762 0
M  V30 28169 O 2605.7 1.06295 2.49827 0
M  V30 28170 C 2604.16 3.35606 1.29986 0
M  V30 28171 C 2603.77 4.47125 0.279929 0
M  V30 28172 C 2605.51 3.7623 1.96599 0
M  V30 28173 C 2603.42 5.84713 0.886846 0
M  V30 28174 H 2602.35 0.705527 0.265985 0
M  V30 28175 H 2605 1.83449 -0.0430731 0
M  V30 28176 H 2603.38 3.36033 2.09519 0
M  V30 28177 H 2604.55 4.5819 -0.489711 0
M  V30 28178 H 2602.87 4.15424 -0.284908 0
M  V30 28179 H 2605.47 4.76352 2.42885 0
M  V30 28180 H 2605.81 3.08957 2.79019 0
M  V30 28181 H 2606.34 3.78038 1.23822 0
M  V30 28182 H 2603.08 6.55421 0.101761 0
M  V30 28183 H 2602.6 5.7734 1.626 0
M  V30 28184 H 2604.28 6.31893 1.38999 0
M  V30 28185 N 2604.41 -0.287527 1.54955 0
M  V30 28186 C 2605.64 -1.04394 1.79211 0
M  V30 28187 C 2606.06 -1.79681 0.556463 0
M  V30 28188 O 2605.42 -1.74455 -0.493487 0
M  V30 28189 C 2605.47 -1.98963 3.00742 0
M  V30 28190 O 2604.57 -3.07495 2.7481 0
M  V30 28191 H 2603.91 -0.299217 0.592761 0
M  V30 28192 H 2606.44 -0.320851 2.02069 0
M  V30 28193 H 2606.45 -2.41184 3.29081 0
M  V30 28194 H 2605.13 -1.43575 3.90332 0
M  V30 28195 H 2603.71 -2.69693 2.57527 0
M  V30 28196 N 2605.89 -1.47641 -0.551365 0
M  V30 28197 C 2607.14 -1.54565 -1.30827 0
M  V30 28198 C 2607.47 -0.210395 -1.93359 0
M  V30 28199 O 2606.72 0.797301 -1.78722 0
M  V30 28200 C 2607.02 -2.61649 -2.43464 0
M  V30 28201 C 2606.69 -4.04746 -1.98725 0
M  V30 28202 C 2605.35 -4.43698 -1.86241 0
M  V30 28203 C 2607.7 -4.94509 -1.64651 0
M  V30 28204 C 2605.03 -5.70243 -1.37985 0
M  V30 28205 C 2607.38 -6.21523 -1.17864 0
M  V30 28206 C 2606.04 -6.59352 -1.0398 0
M  V30 28207 H 2605.31 -0.565595 -0.478731 0
M  V30 28208 H 2607.96 -1.81265 -0.617665 0
M  V30 28209 H 2606.27 -2.28727 -3.18105 0
M  V30 28210 H 2607.96 -2.64228 -3.01637 0
M  V30 28211 H 2604.55 -3.73972 -2.09387 0
M  V30 28212 H 2608.74 -4.6511 -1.73166 0
M  V30 28213 H 2603.99 -5.98296 -1.25904 0
M  V30 28214 H 2608.17 -6.90486 -0.905618 0
M  V30 28215 H 2605.79 -7.57298 -0.663661 0
M  V30 28216 N 2607.37 0.798563 -1.3587 0
M  V30 28217 C 2608.3 1.92526 -1.32121 0
M  V30 28218 C 2609.28 1.68987 -0.194239 0
M  V30 28219 O 2610.46 1.90234 -0.39046 0
M  V30 28220 C 2607.59 3.29402 -1.10053 0
M  V30 28221 C 2606.55 3.67442 -2.19477 0
M  V30 28222 C 2605.87 5.02568 -1.82564 0
M  V30 28223 C 2607.17 3.7698 -3.61501 0
M  V30 28224 H 2608.87 1.9592 -2.26397 0
M  V30 28225 H 2606.41 0.941211 -1.08983 0
M  V30 28226 H 2608.37 4.07833 -1.06068 0
M  V30 28227 H 2607.09 3.26371 -0.122252 0
M  V30 28228 H 2605.75 2.91302 -2.22573 0
M  V30 28229 H 2605.4 4.96049 -0.833336 0
M  V30 28230 H 2605.1 5.2899 -2.55819 0
M  V30 28231 H 2606.62 5.83429 -1.80118 0
M  V30 28232 H 2608.04 4.45624 -3.60683 0
M  V30 28233 H 2606.43 4.14879 -4.33584 0
M  V30 28234 H 2607.5 2.78322 -3.9707 0
M  V30 28235 N 2608.85 1.19999 1.02166 0
M  V30 28236 C 2610.09 1.00855 1.75944 0
M  V30 28237 C 2610.43 -0.458794 1.88703 0
M  V30 28238 O 2609.7 -1.34066 1.40913 0
M  V30 28239 C 2609.98 1.68677 3.18151 0
M  V30 28240 C 2609.84 3.22822 3.13218 0
M  V30 28241 C 2611.16 1.41569 4.16709 0
M  V30 28242 H 2608.27 0.367796 0.638666 0
M  V30 28243 H 2610.92 1.47942 1.19219 0
M  V30 28244 H 2609.07 1.28643 3.66583 0
M  V30 28245 H 2610.74 3.72117 2.72629 0
M  V30 28246 H 2608.98 3.53991 2.50745 0
M  V30 28247 H 2609.65 3.65429 4.13721 0
M  V30 28248 H 2612.13 1.76291 3.7691 0
M  V30 28249 H 2611 1.91563 5.14388 0
M  V30 28250 H 2611.27 0.342271 4.40773 0
M  V30 28251 N 2610.32 -1.21392 1.00507 0
M  V30 28252 C 2611.57 -1.90743 0.688826 0
M  V30 28253 C 2611.9 -1.77915 -0.778455 0
M  V30 28254 O 2611.18 -1.15584 -1.56431 0
M  V30 28255 C 2611.46 -3.42543 1.11069 0
M  V30 28256 C 2611.31 -3.64362 2.63743 0
M  V30 28257 C 2612.63 -4.34922 0.673135 0
M  V30 28258 H 2609.75 -0.692683 0.251714 0
M  V30 28259 H 2612.39 -1.43024 1.25076 0
M  V30 28260 H 2610.54 -3.83315 0.632575 0
M  V30 28261 H 2612.22 -3.32916 3.19319 0
M  V30 28262 H 2610.46 -3.08225 3.05253 0
M  V30 28263 H 2611.13 -4.70722 2.88313 0
M  V30 28264 H 2613.61 -4.01732 1.08399 0
M  V30 28265 H 2612.48 -5.39779 0.996478 0
M  V30 28266 H 2612.74 -4.40045 -0.425731 0
M  V30 28267 N 2611.8 -0.779811 -1.36955 0
M  V30 28268 C 2613.05 -0.348316 -1.99786 0
M  V30 28269 C 2613.38 1.07462 -1.61758 0
M  V30 28270 O 2612.66 1.74074 -0.867669 0
M  V30 28271 C 2612.94 -0.501102 -3.56596 0
M  V30 28272 C 2612.79 -1.96704 -4.04509 0
M  V30 28273 C 2614.11 0.0897324 -4.40009 0
M  V30 28274 H 2611.23 -0.128034 -0.725794 0
M  V30 28275 H 2613.87 -0.98436 -1.62513 0
M  V30 28276 H 2612.02 0.0403664 -3.88479 0
M  V30 28277 H 2613.69 -2.56883 -3.83156 0
M  V30 28278 H 2611.94 -2.47303 -3.56404 0
M  V30 28279 H 2612.61 -2.02495 -5.13517 0
M  V30 28280 H 2615.08 -0.372366 -4.14431 0
M  V30 28281 H 2613.96 -0.047257 -5.4888 0
M  V30 28282 H 2614.22 1.18088 -4.26037 0
M  V30 28283 N 2613.28 1.48384 -0.531019 0
M  V30 28284 C 2614.23 2.31311 0.244554 0
M  V30 28285 C 2615.22 1.41293 0.934485 0
M  V30 28286 O 2616.43 1.58194 0.858752 0
M  V30 28287 H 2612.8 0.745622 0.097734 0
M  V30 28288 H 2614.77 2.94604 -0.474421 0
M  V30 28289 C 2613.52 3.23367 1.27785 0
M  V30 28290 H 2612.85 3.9258 0.75637 0
M  V30 28291 H 2614.29 3.84274 1.79191 0
M  V30 28292 C 2612.75 2.45046 2.31201 0
M  V30 28293 O 2613.28 2.17602 3.37657 0
M  V30 28294 N 2611.48 2.06523 2.04442 0
M  V30 28295 H 2611.03 2.29042 1.17887 0
M  V30 28296 H 2610.99 1.54432 2.73858 0
M  V30 28297 N 2614.76 0.2662 1.55336 0
M  V30 28298 C 2615.69 -0.666258 2.18257 0
M  V30 28299 C 2616.67 -1.15878 1.14066 0
M  V30 28300 O 2617.85 -1.23339 1.42548 0
M  V30 28301 C 2614.98 -1.90763 2.7987 0
M  V30 28302 C 2614.03 -1.55134 3.97285 0
M  V30 28303 S 2614.86 -0.637219 5.31695 0
M  V30 28304 C 2616.02 -1.88716 5.96772 0
M  V30 28305 H 2616.25 -0.131595 2.97009 0
M  V30 28306 H 2613.78 0.050514 1.54317 0
M  V30 28307 H 2615.74 -2.62019 3.16 0
M  V30 28308 H 2614.4 -2.41342 2.01029 0
M  V30 28309 H 2613.59 -2.47482 4.39054 0
M  V30 28310 H 2613.2 -0.919049 3.62532 0
M  V30 28311 H 2615.49 -2.83217 6.15463 0
M  V30 28312 H 2616.43 -1.51264 6.91755 0
M  V30 28313 H 2616.84 -2.04804 5.26038 0
M  V30 28314 N 2616.24 -1.57599 -0.0066531 0
M  V30 28315 C 2617.47 -1.9427 -0.703032 0
M  V30 28316 C 2617.87 -0.866251 -1.68204 0
M  V30 28317 O 2617.22 0.164055 -1.82966 0
M  V30 28318 C 2617.28 -3.2689 -1.49611 0
M  V30 28319 C 2616.94 -4.51921 -0.679414 0
M  V30 28320 C 2617.94 -5.19891 0.0300421 0
M  V30 28321 C 2615.63 -4.98367 -0.627345 0
M  V30 28322 C 2617.62 -6.32602 0.780625 0
M  V30 28323 C 2615.31 -6.10968 0.126968 0
M  V30 28324 C 2616.3 -6.77942 0.829693 0
M  V30 28325 O 2615.99 -7.88386 1.57171 0
M  V30 28326 H 2615.72 -0.645362 -0.201206 0
M  V30 28327 H 2618.28 -2.05364 0.0385687 0
M  V30 28328 H 2616.51 -3.12186 -2.28204 0
M  V30 28329 H 2618.2 -3.48722 -2.0772 0
M  V30 28330 H 2618.96 -4.85 -0.00107438 0
M  V30 28331 H 2614.84 -4.46067 -1.16384 0
M  V30 28332 H 2618.39 -6.84811 1.32966 0
M  V30 28333 H 2614.28 -6.45302 0.159929 0
M  V30 28334 H 2615.05 -8.04866 1.48773 0
M  V30 28335 N 2617.72 0.279305 -1.55105 0
M  V30 28336 C 2618.96 1.00949 -1.7462 0
M  V30 28337 C 2619.28 1.87675 -0.551129 0
M  V30 28338 O 2620.48 2.64124 -0.628554 0
M  V30 28339 C 2618.94 1.84471 -3.09028 0
M  V30 28340 C 2618.55 1.02642 -4.36083 0
M  V30 28341 C 2620.29 2.56957 -3.37895 0
M  V30 28342 C 2618.2 1.85566 -5.61533 0
M  V30 28343 H 2617.13 0.380629 -0.650875 0
M  V30 28344 H 2619.78 0.265444 -1.8157 0
M  V30 28345 H 2618.16 2.62947 -2.961 0
M  V30 28346 H 2619.34 0.286273 -4.5991 0
M  V30 28347 H 2617.65 0.416391 -4.14313 0
M  V30 28348 H 2620.25 3.19391 -4.28828 0
M  V30 28349 H 2620.59 3.26916 -2.57743 0
M  V30 28350 H 2621.12 1.85516 -3.51893 0
M  V30 28351 H 2617.86 1.20039 -6.44415 0
M  V30 28352 H 2617.38 2.57195 -5.41859 0
M  V30 28353 H 2619.06 2.43086 -5.99598 0
M  V30 28354 N 2619.19 1.47931 0.543528 0
M  V30 28355 C 2620.16 1.60978 1.63153 0
M  V30 28356 C 2621.16 0.483926 1.53345 0
M  V30 28357 O 2622.35 0.749366 1.57258 0
M  V30 28358 C 2619.48 1.56721 3.0274 0
M  V30 28359 H 2620.67 2.57978 1.52929 0
M  V30 28360 H 2618.22 1.36325 0.764533 0
M  V30 28361 H 2618.96 0.611474 3.18483 0
M  V30 28362 H 2618.74 2.38443 3.11267 0
M  V30 28363 H 2620.23 1.69017 3.81868 0
M  V30 28364 N 2620.67 -0.791347 1.36292 0
M  V30 28365 C 2621.92 -1.55143 1.30608 0
M  V30 28366 C 2622.25 -1.93859 -0.115008 0
M  V30 28367 O 2621.53 -1.62558 -1.06795 0
M  V30 28368 C 2621.81 -2.82981 2.22697 0
M  V30 28369 C 2621.66 -2.50644 3.73494 0
M  V30 28370 C 2622.98 -3.84792 2.13595 0
M  V30 28371 H 2620.1 -0.56286 0.475771 0
M  V30 28372 H 2622.74 -0.909328 1.66827 0
M  V30 28373 H 2620.89 -3.37775 1.91939 0
M  V30 28374 H 2622.56 -2.01917 4.14762 0
M  V30 28375 H 2620.81 -1.83615 3.93024 0
M  V30 28376 H 2621.48 -3.41941 4.33336 0
M  V30 28377 H 2623.95 -3.3944 2.40665 0
M  V30 28378 H 2622.83 -4.71993 2.80203 0
M  V30 28379 H 2623.09 -4.27609 1.12264 0
M  V30 28380 N 2622.15 -1.2054 -1.01528 0
M  V30 28381 C 2623.4 -1.0106 -1.74556 0
M  V30 28382 C 2623.71 0.457723 -1.90169 0
M  V30 28383 O 2624.92 0.771676 -2.60303 0
M  V30 28384 C 2623.37 -1.75946 -3.1396 0
M  V30 28385 C 2622.98 -3.2688 -3.06355 0
M  V30 28386 C 2624.73 -1.64839 -3.91188 0
M  V30 28387 C 2622.63 -3.94299 -4.40775 0
M  V30 28388 H 2621.56 -0.374517 -0.654411 0
M  V30 28389 H 2624.21 -1.44173 -1.13518 0
M  V30 28390 H 2622.6 -1.2562 -3.75547 0
M  V30 28391 H 2623.77 -3.8443 -2.54068 0
M  V30 28392 H 2622.08 -3.38415 -2.42619 0
M  V30 28393 H 2624.68 -2.12548 -4.9064 0
M  V30 28394 H 2625.02 -0.604818 -4.11883 0
M  V30 28395 H 2625.56 -2.12585 -3.36233 0
M  V30 28396 H 2622.3 -4.98813 -4.25283 0
M  V30 28397 H 2621.82 -3.41538 -4.93064 0
M  V30 28398 H 2623.5 -3.98626 -5.09614 0
M  V30 28399 N 2623.63 1.20858 -1.01149 0
M  V30 28400 C 2624.56 2.25721 -0.597702 0
M  V30 28401 C 2625.54 1.65692 0.384714 0
M  V30 28402 O 2626.72 1.92296 0.271269 0
M  V30 28403 C 2623.85 3.4723 0.0699539 0
M  V30 28404 C 2622.81 4.19817 -0.832917 0
M  V30 28405 C 2622.13 5.34691 -0.0313142 0
M  V30 28406 C 2623.43 4.7651 -2.13858 0
M  V30 28407 H 2625.13 2.60587 -1.47428 0
M  V30 28408 H 2622.67 1.25261 -0.710323 0
M  V30 28409 H 2624.63 4.19764 0.370956 0
M  V30 28410 H 2623.35 3.11512 0.981205 0
M  V30 28411 H 2622.01 3.49142 -1.11784 0
M  V30 28412 H 2621.66 4.95217 0.881428 0
M  V30 28413 H 2621.36 5.84186 -0.632536 0
M  V30 28414 H 2622.88 6.10032 0.263353 0
M  V30 28415 H 2624.3 5.4089 -1.90029 0
M  V30 28416 H 2622.69 5.36421 -2.69022 0
M  V30 28417 H 2623.76 3.95533 -2.80502 0
M  V30 28418 N 2625.11 0.787064 1.3654 0
M  V30 28419 C 2626.02 0.184937 2.3387 0
M  V30 28420 C 2627.03 -0.661668 1.60928 0
M  V30 28421 O 2628.21 -0.578006 1.92928 0
M  V30 28422 C 2625.27 -0.672085 3.40123 0
M  V30 28423 C 2624.33 0.192746 4.28867 0
M  V30 28424 C 2623.57 -0.623468 5.30046 0
M  V30 28425 O 2623.79 -1.8596 5.39236 0
M  V30 28426 O 2622.72 -0.024601 6.01895 0
M  V30 28427 H 2626.55 0.989613 2.87124 0
M  V30 28428 H 2624.13 0.54848 1.38968 0
M  V30 28429 H 2626.02 -1.16087 4.05095 0
M  V30 28430 H 2624.69 -1.45469 2.89172 0
M  V30 28431 H 2623.6 0.72823 3.66944 0
M  V30 28432 H 2624.93 0.938807 4.83164 0
M  V30 28433 N 2626.58 -1.48101 0.53888 0
M  V30 28434 C 2627.53 -2.31437 -0.232284 0
M  V30 28435 C 2628.53 -1.41787 -0.926979 0
M  V30 28436 O 2629.73 -1.58648 -0.85035 0
M  V30 28437 H 2626.11 -0.74613 -0.0937785 0
M  V30 28438 H 2628.08 -2.94349 0.490038 0
M  V30 28439 C 2626.83 -3.2404 -1.26068 0
M  V30 28440 H 2626.15 -3.92976 -0.73554 0
M  V30 28441 H 2627.59 -3.85219 -1.7715 0
M  V30 28442 C 2626.05 -2.46269 -2.29898 0
M  V30 28443 O 2626.58 -2.1939 -3.36498 0
M  V30 28444 N 2624.78 -2.07604 -2.03344 0
M  V30 28445 H 2624.33 -2.29664 -1.16671 0
M  V30 28446 H 2624.29 -1.55882 -2.73035 0
M  V30 28447 N 2628.06 -0.274434 -1.55192 0
M  V30 28448 C 2629.31 0.342544 -1.99582 0
M  V30 28449 C 2629.64 1.55912 -1.16283 0
M  V30 28450 O 2628.89 1.94456 -0.220324 0
M  V30 28451 C 2629.19 0.769397 -3.4902 0
M  V30 28452 C 2628.86 -0.342468 -4.49598 0
M  V30 28453 C 2627.52 -0.64777 -4.7682 0
M  V30 28454 C 2629.87 -1.09172 -5.09638 0
M  V30 28455 C 2627.2 -1.70591 -5.61351 0
M  V30 28456 C 2629.55 -2.13958 -5.95319 0
M  V30 28457 C 2628.21 -2.45124 -6.20863 0
M  V30 28458 H 2627.48 0.125346 -0.730321 0
M  V30 28459 H 2630.13 -0.388004 -1.87528 0
M  V30 28460 H 2628.44 1.57961 -3.58547 0
M  V30 28461 H 2630.13 1.25751 -3.80773 0
M  V30 28462 H 2626.72 -0.0943933 -4.28496 0
M  V30 28463 H 2630.91 -0.86911 -4.88631 0
M  V30 28464 H 2626.16 -1.9524 -5.79389 0
M  V30 28465 H 2630.34 -2.7249 -6.40876 0
M  V30 28466 H 2627.96 -3.27252 -6.86156 0
M  V30 28467 N 2629.54 1.576 -0.00170483 0
M  V30 28468 C 2630.76 1.95325 0.697355 0
M  V30 28469 C 2631.19 0.876735 1.66418 0
M  V30 28470 O 2630.55 -0.164976 1.80548 0
M  V30 28471 C 2630.6 3.32146 1.40397 0
M  V30 28472 O 2629.7 3.2657 2.51844 0
M  V30 28473 H 2629.04 0.637603 0.185362 0
M  V30 28474 H 2631.57 2.04525 -0.0554025 0
M  V30 28475 H 2631.58 3.67751 1.76701 0
M  V30 28476 H 2630.26 4.1005 0.695095 0
M  V30 28477 H 2628.83 3.02644 2.17856 0
M  V30 28478 N 2631.02 -0.271076 1.55251 0
M  V30 28479 C 2632.26 -1.00391 1.76209 0
M  V30 28480 C 2632.6 -1.85871 0.562636 0
M  V30 28481 O 2631.87 -1.89464 -0.439752 0
M  V30 28482 C 2632.15 -1.88484 3.06832 0
M  V30 28483 C 2632.01 -1.05984 4.37135 0
M  V30 28484 C 2633.33 -2.8716 3.33508 0
M  V30 28485 H 2630.45 -0.363551 0.641093 0
M  V30 28486 H 2633.09 -0.276156 1.87982 0
M  V30 28487 H 2631.24 -2.50535 2.96925 0
M  V30 28488 H 2632.91 -0.459898 4.59002 0
M  V30 28489 H 2631.15 -0.363367 4.32275 0
M  V30 28490 H 2631.82 -1.70946 5.24863 0
M  V30 28491 H 2634.3 -2.35244 3.4322 0
M  V30 28492 H 2633.18 -3.45939 4.26166 0
M  V30 28493 H 2633.44 -3.62383 2.53241 0
M  V30 28494 N 2632.5 -1.48217 -0.535675 0
M  V30 28495 C 2633.46 -1.61841 -1.62297 0
M  V30 28496 C 2634.46 -0.492051 -1.53087 0
M  V30 28497 O 2635.65 -0.757695 -1.56859 0
M  V30 28498 C 2632.78 -1.58324 -3.01904 0
M  V30 28499 H 2633.97 -2.58785 -1.51559 0
M  V30 28500 H 2631.53 -1.36729 -0.757293 0
M  V30 28501 H 2632.26 -0.628355 -3.18154 0
M  V30 28502 H 2632.05 -2.4009 -3.09998 0
M  V30 28503 H 2633.54 -1.7104 -3.80966 0
M  V30 28504 N 2633.97 0.784108 -1.3671 0
M  V30 28505 C 2635.2 1.57303 -1.344 0
M  V30 28506 C 2635.62 1.88657 0.0735246 0
M  V30 28507 O 2634.97 1.50525 1.03191 0
M  V30 28508 C 2635.03 2.89082 -2.17058 0
M  V30 28509 O 2634.75 2.59077 -3.53286 0
M  V30 28510 C 2636.25 3.83365 -2.22589 0
M  V30 28511 H 2633.47 0.487728 -0.460828 0
M  V30 28512 H 2636.01 0.972788 -1.79881 0
M  V30 28513 H 2634.17 3.45561 -1.75119 0
M  V30 28514 H 2634.58 3.43376 -3.96476 0
M  V30 28515 H 2636.05 4.72873 -2.84772 0
M  V30 28516 H 2636.53 4.21601 -1.23083 0
M  V30 28517 H 2637.14 3.32818 -2.64787 0
M  V30 28518 N 2635.45 1.21076 1.00888 0
M  V30 28519 C 2636.36 0.982462 2.13037 0
M  V30 28520 C 2637.38 -0.0641856 1.73882 0
M  V30 28521 O 2638.55 0.124996 2.01012 0
M  V30 28522 C 2635.62 0.545864 3.42376 0
M  V30 28523 C 2634.68 1.66427 3.95728 0
M  V30 28524 C 2633.91 1.24841 5.18893 0
M  V30 28525 O 2634.14 0.120365 5.70273 0
M  V30 28526 O 2633.07 2.05883 5.65593 0
M  V30 28527 H 2636.9 1.92167 2.35171 0
M  V30 28528 H 2634.48 0.995305 1.11418 0
M  V30 28529 H 2636.36 0.311986 4.20244 0
M  V30 28530 H 2635.04 -0.364671 3.21639 0
M  V30 28531 H 2633.95 1.95251 3.19105 0
M  V30 28532 H 2635.28 2.55209 4.20867 0
M  V30 28533 N 2636.93 -1.2032 1.01789 0
M  V30 28534 C 2637.84 -2.26826 0.598938 0
M  V30 28535 C 2638.86 -1.70147 -0.36415 0
M  V30 28536 O 2640.03 -2.00142 -0.224777 0
M  V30 28537 C 2637.1 -3.46657 -0.054916 0
M  V30 28538 C 2636.16 -4.18559 0.954279 0
M  V30 28539 C 2635.39 -5.32669 0.331533 0
M  V30 28540 O 2635.61 -5.63751 -0.868411 0
M  V30 28541 O 2634.55 -5.9269 1.0489 0
M  V30 28542 H 2638.37 -2.6488 1.48567 0
M  V30 28543 H 2635.96 -1.26963 0.787456 0
M  V30 28544 H 2637.84 -4.19301 -0.420028 0
M  V30 28545 H 2636.52 -3.10474 -0.915822 0
M  V30 28546 H 2635.42 -3.48081 1.37078 0
M  V30 28547 H 2636.76 -4.58685 1.78519 0
M  V30 28548 N 2638.41 -0.794293 -1.3612 0
M  V30 28549 C 2639.63 -0.379907 -2.03891 0
M  V30 28550 C 2640.06 0.997223 -1.5949 0
M  V30 28551 O 2639.42 1.64338 -0.765681 0
M  V30 28552 C 2639.46 -0.457505 -3.57686 0
M  V30 28553 O 2638.57 0.533728 -4.08932 0
M  V30 28554 H 2637.91 -0.160552 -0.644297 0
M  V30 28555 H 2640.44 -1.07676 -1.73974 0
M  V30 28556 H 2640.45 -0.322864 -4.06721 0
M  V30 28557 H 2639.12 -1.46206 -3.89354 0
M  V30 28558 H 2637.7 0.360344 -3.71155 0
M  V30 28559 N 2639.89 1.47813 -0.546727 0
M  V30 28560 C 2640.85 2.28358 0.196247 0
M  V30 28561 C 2641.85 1.36347 0.852413 0
M  V30 28562 O 2643.04 1.59079 0.709885 0
M  V30 28563 C 2640.17 3.15724 1.28574 0
M  V30 28564 H 2641.36 2.95512 -0.511138 0
M  V30 28565 H 2638.92 1.53329 -0.303275 0
M  V30 28566 H 2639.65 2.53238 2.02585 0
M  V30 28567 H 2639.44 3.83426 0.820161 0
M  V30 28568 H 2640.93 3.76438 1.80787 0
M  V30 28569 N 2641.36 0.28266 1.55044 0
M  V30 28570 C 2642.27 -0.61143 2.26492 0
M  V30 28571 C 2643.29 -1.16381 1.2935 0
M  V30 28572 O 2644.47 -1.1925 1.623 0
M  V30 28573 C 2641.53 -1.77558 2.97782 0
M  V30 28574 C 2640.59 -1.25911 4.1042 0
M  V30 28575 C 2639.83 -2.36778 4.78301 0
M  V30 28576 O 2640.05 -3.56295 4.45432 0
M  V30 28577 O 2638.98 -2.04507 5.66092 0
M  V30 28578 H 2642.81 -0.0324082 3.03683 0
M  V30 28579 H 2640.39 0.0497838 1.49317 0
M  V30 28580 H 2642.28 -2.45421 3.42559 0
M  V30 28581 H 2640.95 -2.34155 2.23502 0
M  V30 28582 H 2639.86 -0.546732 3.70083 0
M  V30 28583 H 2641.19 -0.738801 4.86624 0
M  V30 28584 N 2642.84 -1.57597 0.0100627 0
M  V30 28585 C 2644.25 -1.78978 -0.531394 0
M  V30 28586 C 2644.6 -0.918485 -1.73373 0
M  V30 28587 O 2643.73 -0.123673 -2.16046 0
M  V30 28588 C 2644.32 -3.24593 -0.970803 0
M  V30 28589 C 2642.88 -3.47036 -1.4575 0
M  V30 28590 C 2642.03 -2.74202 -0.413336 0
M  V30 28591 H 2644.98 -1.56933 0.236193 0
M  V30 28592 H 2645 -3.33259 -1.83627 0
M  V30 28593 H 2644.51 -3.87982 -0.0955211 0
M  V30 28594 H 2642.62 -2.88875 -2.35334 0
M  V30 28595 H 2642.73 -4.55732 -1.47802 0
M  V30 28596 H 2641.09 -2.39117 -0.877224 0
M  V30 28597 H 2641.88 -3.40296 0.453151 0
M  V30 28598 N 2644.32 0.262839 -1.55393 0
M  V30 28599 C 2645.25 1.32913 -1.9198 0
M  V30 28600 C 2646.23 1.51016 -0.782826 0
M  V30 28601 O 2647.42 1.6389 -1.04181 0
M  V30 28602 C 2644.55 2.68684 -2.2006 0
M  V30 28603 C 2643.5 2.65298 -3.35858 0
M  V30 28604 C 2642.83 4.04715 -3.49442 0
M  V30 28605 C 2644.13 2.23677 -4.71981 0
M  V30 28606 H 2645.82 1.02539 -2.81293 0
M  V30 28607 H 2643.37 0.491823 -1.35341 0
M  V30 28608 H 2645.32 3.43399 -2.44243 0
M  V30 28609 H 2644.04 3.00661 -1.27556 0
M  V30 28610 H 2642.7 1.9304 -3.11659 0
M  V30 28611 H 2642.35 4.33932 -2.54386 0
M  V30 28612 H 2642.05 4.03342 -4.27304 0
M  V30 28613 H 2643.57 4.81155 -3.75929 0
M  V30 28614 H 2644.99 2.88118 -4.95642 0
M  V30 28615 H 2643.39 2.33446 -5.52832 0
M  V30 28616 H 2644.46 1.18819 -4.70117 0
M  V30 28617 N 2645.8 1.48499 0.527807 0
M  V30 28618 C 2647.02 1.60549 1.31297 0
M  V30 28619 C 2647.45 0.266753 1.86199 0
M  V30 28620 O 2646.81 -0.761889 1.64514 0
M  V30 28621 C 2646.85 2.65682 2.43814 0
M  V30 28622 O 2645.96 2.22993 3.46912 0
M  V30 28623 H 2645.3 0.538284 0.388775 0
M  V30 28624 H 2647.83 1.94501 0.634862 0
M  V30 28625 H 2647.84 2.87023 2.89968 0
M  V30 28626 H 2646.51 3.62872 2.03215 0
M  V30 28627 H 2645.09 2.11875 3.06861 0
M  V30 28628 N 2647.28 -0.776847 1.37123 0
M  V30 28629 C 2648.19 -1.92108 1.34654 0
M  V30 28630 C 2649.2 -1.7224 0.246854 0
M  V30 28631 O 2650.38 -1.95563 0.481374 0
M  V30 28632 C 2647.44 -3.27158 1.14754 0
M  V30 28633 C 2646.51 -3.59716 2.34314 0
M  V30 28634 C 2645.74 -4.88322 2.15354 0
M  V30 28635 O 2645.96 -5.5899 1.13517 0
M  V30 28636 O 2644.9 -5.19825 3.03423 0
M  V30 28637 H 2648.72 -1.97142 2.31017 0
M  V30 28638 H 2646.31 -0.918881 1.178 0
M  V30 28639 H 2648.19 -4.07948 1.05623 0
M  V30 28640 H 2646.86 -3.22988 0.214618 0
M  V30 28641 H 2645.77 -2.79181 2.49016 0
M  V30 28642 H 2647.1 -3.68623 3.26156 0
M  V30 28643 N 2648.76 -1.2161 -1.00244 0
M  V30 28644 C 2650.03 -0.943599 -1.71335 0
M  V30 28645 C 2650.41 0.543907 -2.03973 0
M  V30 28646 O 2649.76 1.50943 -1.71547 0
M  V30 28647 C 2649.97 -1.83133 -2.97091 0
M  V30 28648 C 2651.32 -2.08171 -3.70067 0
M  V30 28649 O 2652.34 -1.80503 -3.07078 0
M  V30 28650 O 2651.2 -2.54979 -4.83371 0
M  V30 28651 H 2648.3 -0.354052 -0.74738 0
M  V30 28652 H 2650.84 -1.32551 -1.05964 0
M  V30 28653 H 2649.61 -2.83793 -2.69402 0
M  V30 28654 H 2649.24 -1.4504 -3.70201 0
M  V30 28655 N 2650.23 1.19778 -1.02425 0
M  V30 28656 C 2651.51 1.8508 -0.632834 0
M  V30 28657 C 2651.89 1.91481 0.888711 0
M  V30 28658 O 2651.24 1.42835 1.78355 0
M  V30 28659 C 2651.45 3.24303 -1.28953 0
M  V30 28660 C 2652.8 4.00511 -1.40983 0
M  V30 28661 O 2653.82 3.33684 -1.24634 0
M  V30 28662 O 2652.68 5.20206 -1.67476 0
M  V30 28663 H 2649.77 0.797377 -0.219362 0
M  V30 28664 H 2652.32 1.27305 -1.12211 0
M  V30 28665 H 2651.09 3.14452 -2.32886 0
M  V30 28666 H 2650.71 3.89717 -0.787816 0
M  V30 28667 N 2651.71 0.801501 1.35697 0
M  V30 28668 C 2652.96 0.379494 1.98912 0
M  V30 28669 C 2653.29 -1.05201 1.63594 0
M  V30 28670 O 2652.54 -1.74363 0.888593 0
M  V30 28671 C 2652.84 0.504103 3.53827 0
M  V30 28672 C 2652.51 1.89817 4.08999 0
M  V30 28673 C 2651.17 2.27958 4.23779 0
M  V30 28674 C 2653.52 2.81045 4.38934 0
M  V30 28675 C 2650.85 3.56704 4.6581 0
M  V30 28676 C 2653.2 4.09232 4.82402 0
M  V30 28677 C 2651.86 4.47379 4.95387 0
M  V30 28678 H 2651.13 0.138867 0.727872 0
M  V30 28679 H 2653.78 1.02131 1.61993 0
M  V30 28680 H 2652.09 -0.221174 3.91175 0
M  V30 28681 H 2653.78 0.158431 4.00687 0
M  V30 28682 H 2650.37 1.59183 3.97943 0
M  V30 28683 H 2654.56 2.52829 4.27073 0
M  V30 28684 H 2649.81 3.86115 4.74052 0
M  V30 28685 H 2653.99 4.80027 5.04527 0
M  V30 28686 H 2651.61 5.47195 5.27714 0
M  V30 28687 N 2653.19 -1.47521 0.554558 0
M  V30 28688 C 2654.1 -2.33764 -0.197824 0
M  V30 28689 C 2655.12 -1.48027 -0.91455 0
M  V30 28690 O 2656.29 -1.80961 -0.884036 0
M  V30 28691 C 2653.36 -3.24667 -1.21622 0
M  V30 28692 C 2652.42 -4.26293 -0.507208 0
M  V30 28693 C 2651.65 -5.12853 -1.47709 0
M  V30 28694 O 2651.87 -5.01819 -2.71171 0
M  V30 28695 O 2650.81 -5.93484 -1.00303 0
M  V30 28696 H 2654.63 -2.99395 0.509543 0
M  V30 28697 H 2652.22 -1.46037 0.315202 0
M  V30 28698 H 2654.1 -3.80826 -1.80415 0
M  V30 28699 H 2652.78 -2.61668 -1.90556 0
M  V30 28700 H 2651.68 -3.73902 0.121844 0
M  V30 28701 H 2653.02 -4.91999 0.14063 0
M  V30 28702 N 2654.67 -0.290879 -1.54892 0
M  V30 28703 C 2655.6 0.631451 -2.1929 0
M  V30 28704 C 2656.58 1.14049 -1.15895 0
M  V30 28705 O 2657.76 1.21055 -1.44492 0
M  V30 28706 C 2654.89 1.86286 -2.8287 0
M  V30 28707 C 2653.94 1.48794 -3.99703 0
M  V30 28708 S 2654.77 0.552551 -5.32642 0
M  V30 28709 C 2655.92 1.79198 -5.99699 0
M  V30 28710 H 2656.16 0.0843269 -2.9718 0
M  V30 28711 H 2653.69 -0.0750581 -1.54217 0
M  V30 28712 H 2655.65 2.56959 -3.20129 0
M  V30 28713 H 2654.31 2.38114 -2.04843 0
M  V30 28714 H 2653.5 2.40466 -4.42936 0
M  V30 28715 H 2653.1 0.861257 -3.63948 0
M  V30 28716 H 2655.4 2.73389 -6.19891 0
M  V30 28717 H 2656.34 1.40239 -6.94074 0
M  V30 28718 H 2656.75 1.9641 -5.29229 0
M  V30 28719 N 2656.15 1.57589 -0.0184203 0
M  V30 28720 C 2657.39 1.91355 0.662528 0
M  V30 28721 C 2657.72 0.893818 1.72746 0
M  V30 28722 O 2656.98 -0.0988166 1.9545 0
M  V30 28723 C 2657.27 3.31863 1.3267 0
M  V30 28724 C 2656.94 4.49182 0.393189 0
M  V30 28725 C 2655.6 4.81007 0.136218 0
M  V30 28726 C 2657.95 5.20607 -0.248457 0
M  V30 28727 C 2655.28 5.8162 -0.770384 0
M  V30 28728 C 2657.63 6.22187 -1.14305 0
M  V30 28729 C 2656.3 6.52459 -1.40901 0
M  V30 28730 H 2655.57 0.700218 0.242436 0
M  V30 28731 H 2658.22 1.91342 -0.0778966 0
M  V30 28732 H 2656.52 3.28088 2.14162 0
M  V30 28733 H 2658.22 3.55256 1.85995 0
M  V30 28734 H 2654.81 4.24328 0.603648 0
M  V30 28735 H 2658.99 4.9626 -0.0629703 0
M  V30 28736 H 2654.25 6.03425 -0.98426 0
M  V30 28737 H 2658.42 6.76656 -1.64649 0
M  V30 28738 H 2656.05 7.30239 -2.11319 0
M  V30 28739 N 2657.62 -0.254594 1.5553 0
M  V30 28740 C 2658.85 -1.00001 1.80786 0
M  V30 28741 C 2659.26 -1.79741 0.590742 0
M  V30 28742 O 2658.6 -1.78104 -0.449957 0
M  V30 28743 C 2658.67 -1.99191 2.99271 0
M  V30 28744 C 2658.33 -1.38217 4.35597 0
M  V30 28745 C 2659.33 -0.788521 5.13886 0
M  V30 28746 C 2657.01 -1.40384 4.82284 0
M  V30 28747 C 2659.01 -0.224671 6.37004 0
M  V30 28748 C 2656.69 -0.836137 6.05353 0
M  V30 28749 C 2657.69 -0.24757 6.82551 0
M  V30 28750 O 2657.38 0.31139 8.03297 0
M  V30 28751 H 2657.11 -0.300264 0.605655 0
M  V30 28752 H 2659.67 -0.285107 2.03412 0
M  V30 28753 H 2657.9 -2.74491 2.72381 0
M  V30 28754 H 2659.58 -2.60012 3.11687 0
M  V30 28755 H 2660.35 -0.764339 4.78939 0
M  V30 28756 H 2656.23 -1.85134 4.22192 0
M  V30 28757 H 2659.77 0.235358 6.97203 0
M  V30 28758 H 2655.67 -0.85762 6.39777 0
M  V30 28759 H 2656.44 0.202514 8.18249 0
M  V30 28760 N 2659.1 -1.48777 -0.519925 0
M  V30 28761 C 2660.01 -1.66747 -1.65023 0
M  V30 28762 C 2661.03 -0.549983 -1.65079 0
M  V30 28763 O 2662.2 -0.822328 -1.83847 0
M  V30 28764 C 2659.27 -1.71244 -3.01457 0
M  V30 28765 C 2658.33 -2.94693 -3.12177 0
M  V30 28766 C 2657.56 -2.98965 -4.42103 0
M  V30 28767 O 2657.79 -2.1136 -5.29795 0
M  V30 28768 O 2656.72 -3.91241 -4.57399 0
M  V30 28769 H 2660.55 -2.62464 -1.52796 0
M  V30 28770 H 2658.13 -1.32296 -0.694134 0
M  V30 28771 H 2660.01 -1.76664 -3.82581 0
M  V30 28772 H 2658.69 -0.78703 -3.13987 0
M  V30 28773 H 2657.59 -2.94801 -2.30311 0
M  V30 28774 H 2658.93 -3.86652 -3.04568 0
M  V30 28775 N 2660.58 0.769564 -1.37534 0
M  V30 28776 C 2661.83 1.53046 -1.33059 0
M  V30 28777 C 2662.16 1.94018 0.0841524 0
M  V30 28778 O 2661.43 1.64236 1.04195 0
M  V30 28779 C 2661.72 2.79402 -2.27171 0
M  V30 28780 C 2661.57 2.44671 -3.77434 0
M  V30 28781 C 2662.89 3.81346 -2.1969 0
M  V30 28782 H 2660.01 0.55522 -0.484665 0
M  V30 28783 H 2662.65 0.882673 -1.68252 0
M  V30 28784 H 2660.8 3.34678 -1.97288 0
M  V30 28785 H 2662.47 1.95293 -4.17922 0
M  V30 28786 H 2660.71 1.77339 -3.95896 0
M  V30 28787 H 2661.39 3.35004 -4.38721 0
M  V30 28788 H 2663.86 3.35569 -2.46034 0
M  V30 28789 H 2662.74 4.67476 -2.87676 0
M  V30 28790 H 2663 4.25769 -1.19052 0
M  V30 28791 N 2662.06 1.22139 0.995977 0
M  V30 28792 C 2663.3 1.0557 1.73858 0
M  V30 28793 C 2663.66 -0.405385 1.88081 0
M  V30 28794 O 2662.95 -1.29658 1.41065 0
M  V30 28795 C 2663.15 1.69685 3.1455 0
M  V30 28796 C 2662.98 3.21877 3.14047 0
M  V30 28797 C 2661.75 3.90966 3.20115 0
M  V30 28798 C 2663.94 4.18851 2.98444 0
M  V30 28799 N 2661.93 5.3027 3.09333 0
M  V30 28800 C 2663.3 5.44965 2.95657 0
M  V30 28801 C 2665.35 4.09782 2.82812 0
M  V30 28802 C 2664.05 6.63054 2.7884 0
M  V30 28803 C 2666.08 5.27518 2.67355 0
M  V30 28804 C 2665.44 6.52549 2.65253 0
M  V30 28805 H 2661.54 0.440717 0.645982 0
M  V30 28806 H 2664.13 1.54633 1.18308 0
M  V30 28807 H 2662.3 1.23176 3.68351 0
M  V30 28808 H 2664.03 1.46236 3.77355 0
M  V30 28809 H 2660.78 3.41946 3.27673 0
M  V30 28810 H 2661.21 6.03258 3.0726 0
M  V30 28811 H 2665.85 3.13905 2.83238 0
M  V30 28812 H 2663.57 7.59083 2.77161 0
M  V30 28813 H 2667.15 5.2233 2.56247 0
M  V30 28814 H 2666.03 7.42118 2.53437 0
M  V30 28815 N 2663.54 -1.19233 1.03059 0
M  V30 28816 C 2664.45 -2.26178 0.622962 0
M  V30 28817 C 2665.46 -1.70523 -0.346083 0
M  V30 28818 O 2666.64 -2.00369 -0.203537 0
M  V30 28819 C 2663.7 -3.46695 -0.0181454 0
M  V30 28820 C 2662.76 -4.17524 0.998619 0
M  V30 28821 C 2662 -5.32288 0.388011 0
M  V30 28822 O 2662.22 -5.6464 -0.808569 0
M  V30 28823 O 2661.15 -5.91544 1.11171 0
M  V30 28824 H 2664.98 -2.6329 1.51368 0
M  V30 28825 H 2662.57 -1.2612 0.800878 0
M  V30 28826 H 2664.45 -4.19723 -0.375532 0
M  V30 28827 H 2663.12 -3.11428 -0.88284 0
M  V30 28828 H 2662.03 -3.46608 1.40762 0
M  V30 28829 H 2663.36 -4.56766 1.83374 0
M  V30 28830 N 2665.01 -0.808686 -1.3527 0
M  V30 28831 C 2665.96 -0.218523 -2.29763 0
M  V30 28832 C 2666.93 0.648625 -1.52912 0
M  V30 28833 O 2668.12 0.593265 -1.81342 0
M  V30 28834 C 2665.26 0.625222 -3.39389 0
M  V30 28835 C 2664.37 -0.262592 -4.31201 0
M  V30 28836 C 2663.5 0.589359 -5.2792 0
M  V30 28837 C 2662.54 -0.298724 -6.11371 0
M  V30 28838 N 2661.68 0.51332 -7.00221 0
M  V30 28839 H 2666.52 -1.02973 -2.79644 0
M  V30 28840 H 2664.06 -0.519328 -1.37628 0
M  V30 28841 H 2666.02 1.12959 -4.01617 0
M  V30 28842 H 2664.65 1.40168 -2.9078 0
M  V30 28843 H 2663.7 -0.885078 -3.6996 0
M  V30 28844 H 2665.01 -0.946057 -4.89746 0
M  V30 28845 H 2664.16 1.15878 -5.95531 0
M  V30 28846 H 2662.9 1.30638 -4.69878 0
M  V30 28847 H 2661.91 -0.880396 -5.42705 0
M  V30 28848 H 2663.13 -1.01364 -6.71492 0
M  V30 28849 H 2661.08 1.21428 -6.44664 0
M  V30 28850 H 2661 -0.112055 -7.55917 0
M  V30 28851 H 2662.26 1.06595 -7.72177 0
M  V30 28852 N 2666.49 1.47225 -0.562374 0
M  V30 28853 C 2667.74 2.0246 -0.0402521 0
M  V30 28854 C 2668.07 1.43616 1.31166 0
M  V30 28855 O 2667.32 0.583333 1.86804 0
M  V30 28856 C 2667.62 3.57269 0.0969189 0
M  V30 28857 C 2667.29 4.35056 -1.18477 0
M  V30 28858 C 2665.95 4.56028 -1.53596 0
M  V30 28859 C 2668.3 4.79878 -2.03387 0
M  V30 28860 C 2665.63 5.19072 -2.73462 0
M  V30 28861 C 2667.98 5.44245 -3.2246 0
M  V30 28862 C 2666.65 5.63449 -3.57885 0
M  V30 28863 H 2665.92 0.740854 -0.0147293 0
M  V30 28864 H 2668.56 1.76836 -0.734926 0
M  V30 28865 H 2666.87 3.81914 0.874593 0
M  V30 28866 H 2668.56 3.97662 0.516338 0
M  V30 28867 H 2665.15 4.19015 -0.901334 0
M  V30 28868 H 2669.34 4.6345 -1.77561 0
M  V30 28869 H 2664.59 5.32133 -3.01071 0
M  V30 28870 H 2668.77 5.77938 -3.88536 0
M  V30 28871 H 2666.4 6.1207 -4.50859 0
M  V30 28872 N 2667.97 0.299089 1.54736 0
M  V30 28873 C 2669.25 -0.363768 1.92188 0
M  V30 28874 C 2669.63 -1.71843 1.2261 0
M  V30 28875 O 2668.98 -2.25627 0.36118 0
M  V30 28876 C 2669.19 -0.480317 3.45679 0
M  V30 28877 C 2670.53 -0.752074 4.17886 0
M  V30 28878 O 2671.56 -0.564202 3.51703 0
M  V30 28879 O 2670.42 -1.11284 5.3505 0
M  V30 28880 H 2667.51 -0.203052 0.801685 0
M  V30 28881 H 2670.06 0.347007 1.66114 0
M  V30 28882 H 2668.83 0.472067 3.88442 0
M  V30 28883 H 2668.45 -1.23963 3.77781 0
M  V30 28884 N 2669.45 -1.57577 0.0267774 0
M  V30 28885 C 2670.86 -1.79531 -0.512382 0
M  V30 28886 C 2671.21 -0.936822 -1.72389 0
M  V30 28887 O 2670.34 -0.146581 -2.15903 0
M  V30 28888 C 2670.93 -3.25605 -0.93632 0
M  V30 28889 C 2669.49 -3.48562 -1.42061 0
M  V30 28890 C 2668.64 -2.74625 -0.38423 0
M  V30 28891 H 2671.59 -1.56673 0.252825 0
M  V30 28892 H 2671.61 -3.35187 -1.80082 0
M  V30 28893 H 2671.12 -3.88062 -0.054365 0
M  V30 28894 H 2669.22 -2.91355 -2.32257 0
M  V30 28895 H 2669.33 -4.57274 -1.4296 0
M  V30 28896 H 2667.7 -2.40034 -0.851813 0
M  V30 28897 H 2668.48 -3.39796 0.489219 0
M  V30 28898 N 2670.93 0.246342 -1.55663 0
M  V30 28899 C 2672.2 0.997169 -1.68273 0
M  V30 28900 C 2672.58 2.03348 -0.566821 0
M  V30 28901 O 2671.93 2.24424 0.429648 0
M  V30 28902 C 2672.14 1.63001 -3.08597 0
M  V30 28903 C 2673.49 2.13165 -3.67214 0
M  V30 28904 O 2674.51 1.7294 -3.114 0
M  V30 28905 O 2673.37 2.87023 -4.65059 0
M  V30 28906 H 2670.47 0.464193 -0.684437 0
M  V30 28907 H 2673.01 0.240085 -1.67993 0
M  V30 28908 H 2671.78 0.88046 -3.81266 0
M  V30 28909 H 2671.41 2.45328 -3.1289 0
M  V30 28910 N 2672.4 1.4905 0.512027 0
M  V30 28911 C 2673.37 1.64402 1.59702 0
M  V30 28912 C 2674.37 0.516344 1.52284 0
M  V30 28913 O 2675.56 0.782554 1.55633 0
M  V30 28914 C 2672.69 1.63107 2.99347 0
M  V30 28915 H 2673.88 2.61164 1.47423 0
M  V30 28916 H 2671.44 1.37916 0.735445 0
M  V30 28917 H 2672.17 0.678891 3.17114 0
M  V30 28918 H 2671.96 2.44992 3.0614 0
M  V30 28919 H 2673.45 1.77079 3.78197 0
M  V30 28920 N 2673.88 -0.762259 1.3794 0
M  V30 28921 C 2675.11 -1.55145 1.36886 0
M  V30 28922 C 2675.53 -1.8875 -0.0435016 0
M  V30 28923 O 2674.88 -1.52148 -1.00783 0
M  V30 28924 C 2674.93 -2.85592 2.21629 0
M  V30 28925 O 2674.65 -2.53423 3.57363 0
M  V30 28926 C 2676.16 -3.79776 2.2866 0
M  V30 28927 H 2673.38 -0.480335 0.468529 0
M  V30 28928 H 2675.92 -0.944047 1.81406 0
M  V30 28929 H 2674.07 -3.42731 1.80594 0
M  V30 28930 H 2674.49 -3.37025 4.01889 0
M  V30 28931 H 2675.96 -4.68283 2.92259 0
M  V30 28932 H 2676.44 -4.19589 1.29774 0
M  V30 28933 H 2677.05 -3.28563 2.70049 0
M  V30 28934 N 2675.36 -1.22666 -0.989486 0
M  V30 28935 C 2676.29 -0.957578 -2.08238 0
M  V30 28936 C 2677.31 0.0650812 -1.6267 0
M  V30 28937 O 2678.49 -0.169343 -1.77695 0
M  V30 28938 C 2675.59 -0.419204 -3.36297 0
M  V30 28939 C 2674.77 -1.49989 -4.1088 0
M  V30 28940 C 2673.83 -0.967995 -5.1722 0
M  V30 28941 O 2672.85 -1.65496 -5.4461 0
M  V30 28942 N 2674.05 0.208858 -5.80124 0
M  V30 28943 H 2676.82 -1.89847 -2.31901 0
M  V30 28944 H 2674.38 -1.13401 -1.1555 0
M  V30 28945 H 2676.37 -0.0486162 -4.04671 0
M  V30 28946 H 2674.94 0.426883 -3.09672 0
M  V30 28947 H 2674.16 -2.04365 -3.37088 0
M  V30 28948 H 2675.45 -2.2269 -4.57479 0
M  V30 28949 H 2674.85 0.783719 -5.60245 0
M  V30 28950 H 2673.41 0.520798 -6.49716 0
M  V30 28951 N 2676.84 1.18685 -1.0369 0
M  V30 28952 C 2678.09 1.88571 -0.738063 0
M  V30 28953 C 2678.41 1.80121 0.733941 0
M  V30 28954 O 2677.67 1.19347 1.55096 0
M  V30 28955 C 2677.97 3.38568 -1.14483 0
M  V30 28956 C 2677.63 3.67221 -2.61647 0
M  V30 28957 C 2676.3 3.74751 -3.01852 0
M  V30 28958 C 2678.65 3.79907 -3.56819 0
M  V30 28959 C 2675.98 3.92443 -4.36125 0
M  V30 28960 C 2678.33 3.99114 -4.90806 0
M  V30 28961 C 2676.99 4.04879 -5.30688 0
M  V30 28962 H 2676.26 0.690029 -0.270076 0
M  V30 28963 H 2678.91 1.405 -1.30123 0
M  V30 28964 H 2677.21 3.88591 -0.500406 0
M  V30 28965 H 2678.91 3.90976 -0.891019 0
M  V30 28966 H 2675.5 3.61975 -2.29504 0
M  V30 28967 H 2679.69 3.73426 -3.26905 0
M  V30 28968 H 2674.94 3.95148 -4.66549 0
M  V30 28969 H 2679.12 4.07872 -5.64458 0
M  V30 28970 H 2676.74 4.1834 -6.34741 0
M  V30 28971 N 2678.32 0.815849 1.34839 0
M  V30 28972 C 2679.57 0.397011 1.97754 0
M  V30 28973 C 2679.88 -1.04376 1.65424 0
M  V30 28974 O 2681.09 -1.56616 2.21774 0
M  V30 28975 C 2679.54 0.658931 3.53816 0
M  V30 28976 C 2679.15 2.11285 3.95047 0
M  V30 28977 C 2680.89 0.305909 4.23396 0
M  V30 28978 C 2678.8 2.32004 5.43993 0
M  V30 28979 H 2677.73 0.144713 0.739982 0
M  V30 28980 H 2680.38 1.00121 1.53779 0
M  V30 28981 H 2678.76 -0.0153416 3.95997 0
M  V30 28982 H 2679.94 2.8257 3.63993 0
M  V30 28983 H 2678.25 2.42663 3.38384 0
M  V30 28984 H 2680.85 0.438633 5.32898 0
M  V30 28985 H 2681.19 -0.74888 4.09509 0
M  V30 28986 H 2681.73 0.934471 3.86668 0
M  V30 28987 H 2678.46 3.35962 5.62859 0
M  V30 28988 H 2677.98 1.65254 5.76586 0
M  V30 28989 H 2679.66 2.14012 6.1058 0
M  V30 28990 N 2679.8 -1.46924 0.570174 0
M  V30 28991 C 2680.71 -2.33961 -0.173019 0
M  V30 28992 C 2681.72 -1.48989 -0.898798 0
M  V30 28993 O 2682.9 -1.81888 -0.864793 0
M  V30 28994 C 2679.96 -3.25939 -1.18172 0
M  V30 28995 C 2679.02 -4.26807 -0.461966 0
M  V30 28996 C 2678.26 -5.1439 -1.42261 0
M  V30 28997 O 2678.48 -5.04667 -2.65833 0
M  V30 28998 O 2677.41 -5.94514 -0.940023 0
M  V30 28999 H 2681.24 -2.98838 0.541269 0
M  V30 29000 H 2678.82 -1.45695 0.330673 0
M  V30 29001 H 2680.71 -3.82718 -1.76365 0
M  V30 29002 H 2679.38 -2.63675 -1.8777 0
M  V30 29003 H 2678.29 -3.73751 0.161494 0
M  V30 29004 H 2679.62 -4.91822 0.192805 0
M  V30 29005 N 2681.27 -0.307291 -1.54575 0
M  V30 29006 C 2682.52 0.300132 -2.00263 0
M  V30 29007 C 2682.85 1.53411 -1.19564 0
M  V30 29008 O 2682.1 1.93945 -0.261521 0
M  V30 29009 C 2682.4 0.695191 -3.50574 0
M  V30 29010 C 2682.07 -0.437758 -4.4877 0
M  V30 29011 C 2680.73 -0.748765 -4.75339 0
M  V30 29012 C 2683.08 -1.19958 -5.07208 0
M  V30 29013 C 2680.41 -1.8246 -5.57607 0
M  V30 29014 C 2682.76 -2.26538 -5.90647 0
M  V30 29015 C 2681.43 -2.58238 -6.15524 0
M  V30 29016 H 2680.7 0.109826 -0.732816 0
M  V30 29017 H 2683.34 -0.427694 -1.86663 0
M  V30 29018 H 2681.65 1.5032 -3.61817 0
M  V30 29019 H 2683.35 1.17646 -3.83354 0
M  V30 29020 H 2679.94 -0.185262 -4.28199 0
M  V30 29021 H 2684.12 -0.97256 -4.86677 0
M  V30 29022 H 2679.38 -2.07486 -5.75117 0
M  V30 29023 H 2683.55 -2.86022 -6.34952 0
M  V30 29024 H 2681.18 -3.41732 -6.7906 0
M  V30 29025 N 2682.75 1.57561 -0.0351337 0
M  V30 29026 C 2683.71 2.09494 0.929782 0
M  V30 29027 C 2684.71 1.01121 1.25024 0
M  V30 29028 O 2685.9 1.27258 1.18959 0
M  V30 29029 C 2683.04 2.56581 2.24452 0
M  V30 29030 H 2684.23 2.96036 0.479883 0
M  V30 29031 H 2681.78 1.54842 0.213005 0
M  V30 29032 H 2682.52 1.73386 2.74058 0
M  V30 29033 H 2682.3 3.35761 2.02502 0
M  V30 29034 H 2683.79 2.96964 2.93602 0
M  V30 29035 N 2684.23 -0.238084 1.55791 0
M  V30 29036 C 2685.18 -1.29489 1.91053 0
M  V30 29037 C 2686.15 -1.47395 0.765759 0
M  V30 29038 O 2687.33 -1.61235 1.0202 0
M  V30 29039 C 2684.47 -2.64358 2.2183 0
M  V30 29040 C 2683.58 -2.54388 3.49157 0
M  V30 29041 C 2682.72 -3.81669 3.69462 0
M  V30 29042 C 2681.76 -3.66352 4.90359 0
M  V30 29043 N 2680.9 -4.85545 5.07139 0
M  V30 29044 H 2685.74 -0.987183 2.81174 0
M  V30 29045 H 2683.27 -0.476179 1.3918 0
M  V30 29046 H 2685.23 -3.42875 2.37681 0
M  V30 29047 H 2683.86 -2.9326 1.34902 0
M  V30 29048 H 2682.91 -1.67393 3.4159 0
M  V30 29049 H 2684.22 -2.38984 4.37822 0
M  V30 29050 H 2683.38 -4.6863 3.8532 0
M  V30 29051 H 2682.12 -3.9998 2.79047 0
M  V30 29052 H 2681.12 -2.77776 4.74469 0
M  V30 29053 H 2682.35 -3.49528 5.82243 0
M  V30 29054 H 2680.29 -5.04201 4.19663 0
M  V30 29055 H 2680.21 -4.72805 5.89908 0
M  V30 29056 H 2681.48 -5.73979 5.27417 0
M  V30 29057 N 2685.71 -1.4932 -0.504115 0
M  V30 29058 C 2686.64 -1.6867 -1.6147 0
M  V30 29059 C 2687.62 -0.535407 -1.61454 0
M  V30 29060 O 2688.8 -0.770899 -1.78244 0
M  V30 29061 C 2685.93 -1.75033 -2.99968 0
M  V30 29062 C 2684.89 -2.89921 -3.14849 0
M  V30 29063 C 2684.21 -2.81395 -4.54666 0
M  V30 29064 C 2685.51 -4.30898 -2.95168 0
M  V30 29065 H 2687.21 -2.61651 -1.45531 0
M  V30 29066 H 2684.75 -1.25914 -0.698689 0
M  V30 29067 H 2686.71 -1.87157 -3.77558 0
M  V30 29068 H 2685.43 -0.786496 -3.16989 0
M  V30 29069 H 2684.09 -2.77395 -2.39682 0
M  V30 29070 H 2683.74 -1.82926 -4.68559 0
M  V30 29071 H 2683.44 -3.58503 -4.65564 0
M  V30 29072 H 2684.96 -2.95522 -5.34321 0
M  V30 29073 H 2686.38 -4.44122 -3.62531 0
M  V30 29074 H 2684.77 -5.09204 -3.1754 0
M  V30 29075 H 2685.84 -4.45559 -1.91324 0
M  V30 29076 N 2687.19 0.754933 -1.38342 0
M  V30 29077 C 2688.41 1.54928 -1.37885 0
M  V30 29078 C 2688.84 1.88077 0.0296055 0
M  V30 29079 O 2688.19 1.50474 1.0113 0
M  V30 29080 C 2688.24 2.82588 -2.24001 0
M  V30 29081 O 2687.35 3.77683 -1.65619 0
M  V30 29082 H 2686.69 0.468644 -0.470392 0
M  V30 29083 H 2689.22 0.93305 -1.82086 0
M  V30 29084 H 2689.23 3.31526 -2.37812 0
M  V30 29085 H 2687.9 2.57791 -3.26369 0
M  V30 29086 H 2686.48 3.36381 -1.60942 0
M  V30 29087 N 2688.66 1.23189 0.982967 0
M  V30 29088 C 2689.94 0.970737 1.69812 0
M  V30 29089 C 2690.32 -0.511388 2.04812 0
M  V30 29090 O 2689.67 -1.48195 1.73927 0
M  V30 29091 C 2689.88 1.87837 2.9414 0
M  V30 29092 C 2691.23 2.14032 3.66709 0
M  V30 29093 O 2692.25 1.85366 3.04168 0
M  V30 29094 O 2691.11 2.62637 4.79254 0
M  V30 29095 H 2688.2 0.365897 0.741652 0
M  V30 29096 H 2690.75 1.3422 1.03842 0
M  V30 29097 H 2689.52 2.88043 2.64853 0
M  V30 29098 H 2689.14 1.50912 3.67847 0
M  V30 29099 N 2690.14 -1.18133 1.04318 0
M  V30 29100 C 2691.39 -1.88177 0.748053 0
M  V30 29101 C 2691.72 -1.80508 -0.724379 0
M  V30 29102 O 2690.97 -1.20168 -1.54461 0
M  V30 29103 C 2691.27 -3.37956 1.16277 0
M  V30 29104 C 2690.94 -3.65829 2.63591 0
M  V30 29105 C 2689.6 -3.73145 3.03835 0
M  V30 29106 C 2691.95 -3.7801 3.58829 0
M  V30 29107 C 2689.28 -3.90125 4.382 0
M  V30 29108 C 2691.63 -3.96506 4.92916 0
M  V30 29109 C 2690.29 -4.02059 5.32827 0
M  V30 29110 H 2689.56 -0.688587 0.273732 0
M  V30 29111 H 2692.21 -1.39808 1.30866 0
M  V30 29112 H 2690.52 -3.8832 0.521007 0
M  V30 29113 H 2692.21 -3.90497 0.911741 0
M  V30 29114 H 2688.8 -3.60753 2.31421 0
M  V30 29115 H 2692.99 -3.71687 3.28881 0
M  V30 29116 H 2688.24 -3.92669 4.68638 0
M  V30 29117 H 2692.42 -4.04873 5.66614 0
M  V30 29118 H 2690.04 -4.14968 6.3695 0
M  V30 29119 N 2691.62 -0.822988 -1.34405 0
M  V30 29120 C 2692.58 -0.250311 -2.27829 0
M  V30 29121 C 2693.58 0.571827 -1.50289 0
M  V30 29122 O 2694.77 0.387923 -1.69826 0
M  V30 29123 C 2691.91 0.649078 -3.34664 0
M  V30 29124 H 2693.1 -1.07449 -2.7999 0
M  V30 29125 H 2690.65 -0.594855 -1.44538 0
M  V30 29126 H 2691.39 1.49632 -2.87717 0
M  V30 29127 H 2691.17 0.061051 -3.92052 0
M  V30 29128 H 2692.66 1.04356 -4.04351 0
M  V30 29129 N 2693.1 1.4662 -0.577957 0
M  V30 29130 C 2694.38 1.95599 0.00491849 0
M  V30 29131 C 2694.76 1.52062 1.46425 0
M  V30 29132 O 2694.1 0.769083 2.15168 0
M  V30 29133 C 2694.31 3.48623 -0.162176 0
M  V30 29134 C 2695.66 4.24591 -0.027537 0
M  V30 29135 O 2696.69 3.56084 -0.0907693 0
M  V30 29136 O 2695.54 5.46385 0.112104 0
M  V30 29137 H 2692.64 0.825332 0.0524912 0
M  V30 29138 H 2695.18 1.56926 -0.645942 0
M  V30 29139 H 2693.96 3.73183 -1.17686 0
M  V30 29140 H 2693.58 3.94114 0.525337 0
M  V30 29141 N 2694.58 0.315484 1.5441 0
M  V30 29142 C 2695.54 -0.541381 2.22714 0
M  V30 29143 C 2696.54 -1.04993 1.21792 0
M  V30 29144 O 2697.73 -0.943641 1.46428 0
M  V30 29145 C 2694.86 -1.75111 2.92488 0
M  V30 29146 H 2696.05 0.0556036 2.99848 0
M  V30 29147 H 2693.61 0.0664727 1.56159 0
M  V30 29148 H 2694.34 -2.38754 2.1947 0
M  V30 29149 H 2694.13 -1.39395 3.66485 0
M  V30 29150 H 2695.62 -2.35953 3.44552 0
M  V30 29151 N 2696.05 -1.5754 0.0434891 0
M  V30 29152 C 2696.98 -2.1411 -0.931613 0
M  V30 29153 C 2697.97 -1.06082 -1.32969 0
M  V30 29154 O 2699.15 -1.33985 -1.40576 0
M  V30 29155 C 2696.28 -2.67986 -2.20909 0
M  V30 29156 C 2695.23 -3.8093 -1.95132 0
M  V30 29157 C 2694.56 -4.21291 -3.29269 0
M  V30 29158 C 2695.86 -5.06397 -1.27904 0
M  V30 29159 H 2697.55 -2.95838 -0.460445 0
M  V30 29160 H 2695.1 -1.42309 -0.220033 0
M  V30 29161 H 2697.05 -3.06199 -2.89517 0
M  V30 29162 H 2695.78 -1.83439 -2.70218 0
M  V30 29163 H 2694.44 -3.43177 -1.28939 0
M  V30 29164 H 2694.08 -3.33706 -3.76364 0
M  V30 29165 H 2693.78 -4.97409 -3.12823 0
M  V30 29166 H 2695.31 -4.62098 -3.99121 0
M  V30 29167 H 2696.72 -5.42105 -1.86534 0
M  V30 29168 H 2695.12 -5.87607 -1.21809 0
M  V30 29169 H 2696.19 -4.84234 -0.253981 0
M  V30 29170 N 2697.53 0.229818 -1.55915 0
M  V30 29171 C 2698.81 0.979265 -1.69321 0
M  V30 29172 C 2699.19 2.02735 -0.588357 0
M  V30 29173 O 2698.54 2.24867 0.405821 0
M  V30 29174 C 2698.75 1.59718 -3.10308 0
M  V30 29175 C 2700.1 2.09258 -3.69454 0
M  V30 29176 O 2701.12 1.69628 -3.13217 0
M  V30 29177 O 2699.98 2.82074 -4.68077 0
M  V30 29178 H 2697.07 0.456907 -0.689322 0
M  V30 29179 H 2699.62 0.222253 -1.68238 0
M  V30 29180 H 2698.39 0.839972 -3.82178 0
M  V30 29181 H 2698.01 2.41995 -3.15474 0
M  V30 29182 N 2699.01 1.49585 0.49619 0
M  V30 29183 C 2700.42 1.5246 1.07762 0
M  V30 29184 C 2700.77 0.313564 1.93678 0
M  V30 29185 O 2699.9 -0.576149 2.08589 0
M  V30 29186 C 2700.49 2.76275 1.96107 0
M  V30 29187 C 2699.05 2.81913 2.49404 0
M  V30 29188 C 2698.2 2.46437 1.27138 0
M  V30 29189 H 2701.15 1.56212 0.279886 0
M  V30 29190 H 2701.17 2.56709 2.80857 0
M  V30 29191 H 2700.68 3.64399 1.33549 0
M  V30 29192 H 2698.78 1.9808 3.15587 0
M  V30 29193 H 2698.9 3.84201 2.86227 0
M  V30 29194 H 2697.26 1.98321 1.59815 0
M  V30 29195 H 2698.04 3.36841 0.662807 0
M  V30 29196 N 2700.49 -0.747586 1.3874 0
M  V30 29197 C 2701.9 -1.32522 1.3151 0
M  V30 29198 C 2702.25 -1.96182 -0.0263618 0
M  V30 29199 O 2701.38 -1.9547 -0.928456 0
M  V30 29200 C 2701.97 -2.40962 2.38166 0
M  V30 29201 C 2700.53 -2.9443 2.34495 0
M  V30 29202 C 2699.68 -1.6787 2.20715 0
M  V30 29203 H 2702.63 -0.546016 1.49011 0
M  V30 29204 H 2702.65 -3.21047 2.04228 0
M  V30 29205 H 2702.16 -1.94599 3.35787 0
M  V30 29206 H 2700.26 -3.45106 1.40473 0
M  V30 29207 H 2700.37 -3.48401 3.28867 0
M  V30 29208 H 2698.74 -1.91726 1.6767 0
M  V30 29209 H 2699.52 -1.23577 3.20287 0
M  V30 29210 N 2701.97 -1.23709 -0.97642 0
M  V30 29211 C 2702.9 -1.04627 -2.08747 0
M  V30 29212 C 2703.88 0.0380657 -1.70057 0
M  V30 29213 O 2705.06 -0.127342 -1.93782 0
M  V30 29214 C 2702.19 -0.640962 -3.41334 0
M  V30 29215 C 2701.15 -1.67309 -3.93944 0
M  V30 29216 C 2700.47 -1.1231 -5.22772 0
M  V30 29217 C 2701.77 -3.06705 -4.22764 0
M  V30 29218 H 2703.47 -1.97559 -2.24968 0
M  V30 29219 H 2701.01 -0.951266 -1.08106 0
M  V30 29220 H 2702.97 -0.494507 -4.18488 0
M  V30 29221 H 2701.69 0.324042 -3.24989 0
M  V30 29222 H 2700.35 -1.80761 -3.18937 0
M  V30 29223 H 2700 -0.148965 -5.02779 0
M  V30 29224 H 2699.7 -1.81277 -5.58939 0
M  V30 29225 H 2701.22 -0.988585 -6.02544 0
M  V30 29226 H 2702.63 -2.96532 -4.90654 0
M  V30 29227 H 2701.03 -3.72945 -4.7014 0
M  V30 29228 H 2702.1 -3.55398 -3.29879 0
M  V30 29229 N 2703.44 1.17579 -1.04943 0
M  V30 29230 C 2704.37 2.23705 -0.669211 0
M  V30 29231 C 2705.36 1.66832 0.331806 0
M  V30 29232 O 2706.54 1.93062 0.209954 0
M  V30 29233 C 2703.67 3.47276 -0.04055 0
M  V30 29234 C 2702.62 4.16955 -0.966057 0
M  V30 29235 C 2701.95 5.34321 -0.201406 0
M  V30 29236 C 2703.25 4.69465 -2.2891 0
M  V30 29237 H 2704.94 2.55765 -1.55643 0
M  V30 29238 H 2702.49 1.22938 -0.749815 0
M  V30 29239 H 2704.44 4.20732 0.237224 0
M  V30 29240 H 2703.17 3.14476 0.881603 0
M  V30 29241 H 2701.83 3.45408 -1.22835 0
M  V30 29242 H 2701.47 4.9777 0.723432 0
M  V30 29243 H 2701.17 5.81877 -0.81807 0
M  V30 29244 H 2702.7 6.10561 0.0691426 0
M  V30 29245 H 2704.11 5.3457 -2.07141 0
M  V30 29246 H 2702.51 5.27591 -2.85951 0
M  V30 29247 H 2703.58 3.86409 -2.92944 0
M  V30 29248 N 2704.92 0.830104 1.33967 0
M  V30 29249 C 2706.17 0.417963 1.97322 0
M  V30 29250 C 2706.48 -1.02615 1.66522 0
M  V30 29251 O 2707.69 -1.54255 2.23422 0
M  V30 29252 C 2706.15 0.696421 3.53098 0
M  V30 29253 C 2705.75 2.15463 3.92784 0
M  V30 29254 C 2707.5 0.350798 4.23048 0
M  V30 29255 C 2705.41 2.3776 5.41502 0
M  V30 29256 H 2704.34 0.152554 0.738406 0
M  V30 29257 H 2706.99 1.01746 1.52709 0
M  V30 29258 H 2705.37 0.02666 3.95991 0
M  V30 29259 H 2706.54 2.86415 3.60975 0
M  V30 29260 H 2704.86 2.46238 3.35791 0
M  V30 29261 H 2707.45 0.49513 5.32403 0
M  V30 29262 H 2707.8 -0.705404 4.1028 0
M  V30 29263 H 2708.33 0.97543 3.85656 0
M  V30 29264 H 2705.07 3.41913 5.59264 0
M  V30 29265 H 2704.59 1.7136 5.74801 0
M  V30 29266 H 2706.27 2.20476 6.08276 0
M  V30 29267 N 2706.4 -1.46311 0.585725 0
M  V30 29268 C 2707.36 -2.28798 -0.135633 0
M  V30 29269 C 2708.36 -1.38559 -0.815964 0
M  V30 29270 O 2709.55 -1.60906 -0.667459 0
M  V30 29271 C 2706.69 -3.19022 -1.20158 0
M  V30 29272 H 2707.88 -2.94053 0.589308 0
M  V30 29273 H 2705.43 -1.52472 0.343821 0
M  V30 29274 H 2706.17 -2.58521 -1.958 0
M  V30 29275 H 2705.95 -3.85466 -0.718214 0
M  V30 29276 H 2707.44 -3.81099 -1.70743 0
M  V30 29277 N 2707.88 -0.323668 -1.54241 0
M  V30 29278 C 2708.83 0.542237 -2.2434 0
M  V30 29279 C 2709.8 1.11157 -1.23423 0
M  V30 29280 O 2710.98 1.15189 -1.52106 0
M  V30 29281 C 2708.12 1.6972 -3.00482 0
M  V30 29282 C 2707.23 1.15709 -4.16216 0
M  V30 29283 C 2706.37 2.27774 -4.79888 0
M  V30 29284 C 2705.41 1.71012 -5.87725 0
M  V30 29285 N 2704.55 2.76741 -6.45259 0
M  V30 29286 H 2709.39 -0.0621137 -2.97935 0
M  V30 29287 H 2706.92 -0.0424252 -1.47039 0
M  V30 29288 H 2708.88 2.37684 -3.42874 0
M  V30 29289 H 2707.51 2.27283 -2.29221 0
M  V30 29290 H 2706.56 0.368996 -3.78606 0
M  V30 29291 H 2707.87 0.701745 -4.93839 0
M  V30 29292 H 2707.03 3.03642 -5.25249 0
M  V30 29293 H 2705.77 2.76645 -4.01645 0
M  V30 29294 H 2704.77 0.936422 -5.41767 0
M  V30 29295 H 2706 1.23018 -6.67865 0
M  V30 29296 H 2703.94 3.24902 -5.6989 0
M  V30 29297 H 2703.86 2.3577 -7.18296 0
M  V30 29298 H 2705.13 3.52437 -6.95276 0
M  V30 29299 N 2709.36 1.57515 -0.0518432 0
M  V30 29300 C 2710.77 1.80324 0.483755 0
M  V30 29301 C 2711.12 0.964129 1.70877 0
M  V30 29302 O 2710.24 0.18091 2.15642 0
M  V30 29303 C 2710.84 3.27053 0.884401 0
M  V30 29304 C 2709.4 3.50778 1.36498 0
M  V30 29305 C 2708.55 2.75202 0.340491 0
M  V30 29306 H 2711.5 1.56251 -0.277718 0
M  V30 29307 H 2711.52 3.3801 1.74727 0
M  V30 29308 H 2711.03 3.88099 -0.00737915 0
M  V30 29309 H 2709.13 2.95013 2.27592 0
M  V30 29310 H 2709.24 4.5949 1.35667 0
M  V30 29311 H 2707.61 2.41359 0.813518 0
M  V30 29312 H 2708.39 3.38975 -0.543216 0
M  V30 29313 N 2710.84 -0.221546 1.56035 0
M  V30 29314 C 2711.78 -1.29418 1.93271 0
M  V30 29315 C 2712.78 -1.4852 0.814753 0
M  V30 29316 O 2713.98 -1.49694 0.999585 0
M  V30 29317 H 2710.36 -0.433899 0.614195 0
M  V30 29318 H 2712.33 -0.952937 2.82775 0
M  V30 29319 C 2711.08 -2.63738 2.26578 0
M  V30 29320 H 2710.4 -2.49847 3.12116 0
M  V30 29321 H 2711.84 -3.37603 2.56516 0
M  V30 29322 C 2710.3 -3.18749 1.09092 0
M  V30 29323 O 2710.83 -4.00154 0.352056 0
M  V30 29324 N 2709.04 -2.77122 0.874742 0
M  V30 29325 H 2708.58 -2.1103 1.4773 0
M  V30 29326 H 2708.54 -3.1427 0.0903901 0
M  V30 29327 N 2712.31 -1.49846 -0.48825 0
M  V30 29328 C 2713.26 -1.67453 -1.58833 0
M  V30 29329 C 2714.23 -0.515885 -1.57886 0
M  V30 29330 O 2715.42 -0.744434 -1.75678 0
M  V30 29331 C 2712.56 -1.7589 -2.96912 0
M  V30 29332 C 2711.67 -3.03144 -3.07779 0
M  V30 29333 C 2710.8 -3.0248 -4.36668 0
M  V30 29334 C 2709.84 -4.2426 -4.41214 0
M  V30 29335 N 2708.98 -4.21434 -5.6155 0
M  V30 29336 H 2713.82 -2.61379 -1.43127 0
M  V30 29337 H 2711.36 -1.29584 -0.696163 0
M  V30 29338 H 2713.31 -1.78762 -3.76962 0
M  V30 29339 H 2711.94 -0.854195 -3.11293 0
M  V30 29340 H 2711 -3.09823 -2.20712 0
M  V30 29341 H 2712.31 -3.93133 -3.06998 0
M  V30 29342 H 2711.46 -3.03986 -5.2505 0
M  V30 29343 H 2710.2 -2.10291 -4.40033 0
M  V30 29344 H 2709.21 -4.22984 -3.51233 0
M  V30 29345 H 2710.43 -5.17656 -4.39555 0
M  V30 29346 H 2708.38 -3.32088 -5.65733 0
M  V30 29347 H 2708.29 -5.05172 -5.62438 0
M  V30 29348 H 2709.56 -4.27061 -6.52104 0
M  V30 29349 N 2713.79 0.740218 -1.39135 0
M  V30 29350 C 2715.04 1.50189 -1.36276 0
M  V30 29351 C 2715.37 1.94152 0.0429794 0
M  V30 29352 O 2714.65 1.6641 1.00688 0
M  V30 29353 C 2714.93 2.74521 -2.33046 0
M  V30 29354 C 2714.78 2.3661 -3.82539 0
M  V30 29355 C 2716.1 3.766 -2.27729 0
M  V30 29356 H 2713.22 0.544814 -0.496333 0
M  V30 29357 H 2715.86 0.846785 -1.70087 0
M  V30 29358 H 2714.01 3.30418 -2.04343 0
M  V30 29359 H 2715.68 1.86384 -4.2197 0
M  V30 29360 H 2713.93 1.68902 -3.99568 0
M  V30 29361 H 2714.6 3.25622 -4.45729 0
M  V30 29362 H 2717.07 3.30274 -2.53097 0
M  V30 29363 H 2715.95 4.61268 -2.97528 0
M  V30 29364 H 2716.21 4.23148 -1.28057 0
M  V30 29365 N 2715.27 1.24225 0.969846 0
M  V30 29366 C 2716.2 0.990586 2.06688 0
M  V30 29367 C 2717.21 -0.0391936 1.62753 0
M  V30 29368 O 2718.4 0.197592 1.77403 0
M  V30 29369 C 2715.5 0.472653 3.35588 0
M  V30 29370 C 2714.68 1.56507 4.08441 0
M  V30 29371 C 2713.74 1.05016 5.15614 0
M  V30 29372 O 2712.76 1.7414 5.41908 0
M  V30 29373 N 2713.96 -0.116539 5.80383 0
M  V30 29374 H 2716.73 1.93512 2.28852 0
M  V30 29375 H 2714.29 1.15225 1.13731 0
M  V30 29376 H 2716.28 0.11299 4.04542 0
M  V30 29377 H 2714.85 -0.377563 3.10311 0
M  V30 29378 H 2714.07 2.09702 3.33795 0
M  V30 29379 H 2715.36 2.2994 4.53878 0
M  V30 29380 H 2714.76 -0.69449 5.61421 0
M  V30 29381 H 2713.31 -0.417368 6.50462 0
M  V30 29382 N 2716.75 -1.1702 1.05565 0
M  V30 29383 C 2717.68 -2.23347 0.681065 0
M  V30 29384 C 2718.66 -1.67006 -0.322954 0
M  V30 29385 O 2719.84 -1.9317 -0.199712 0
M  V30 29386 C 2716.97 -3.4725 0.0589663 0
M  V30 29387 C 2715.93 -4.16437 0.988155 0
M  V30 29388 C 2715.25 -5.34206 0.22974 0
M  V30 29389 C 2716.55 -4.68245 2.31396 0
M  V30 29390 H 2718.25 -2.54936 1.56997 0
M  V30 29391 H 2715.79 -1.22539 0.756324 0
M  V30 29392 H 2717.75 -4.20852 -0.214908 0
M  V30 29393 H 2716.47 -3.14939 -0.864913 0
M  V30 29394 H 2715.13 -3.44752 1.24666 0
M  V30 29395 H 2714.78 -4.98147 -0.697024 0
M  V30 29396 H 2714.48 -5.81435 0.848917 0
M  V30 29397 H 2716 -6.10589 -0.0367621 0
M  V30 29398 H 2717.42 -5.33464 2.09973 0
M  V30 29399 H 2715.81 -5.26067 2.88745 0
M  V30 29400 H 2716.88 -3.8485 2.94989 0
M  V30 29401 N 2718.23 -0.837197 -1.33524 0
M  V30 29402 C 2719.47 -0.428421 -1.97098 0
M  V30 29403 C 2719.79 1.01731 -1.67063 0
M  V30 29404 O 2720.99 1.53068 -2.24237 0
M  V30 29405 C 2719.45 -0.715137 -3.52723 0
M  V30 29406 C 2719.06 -2.17543 -3.91636 0
M  V30 29407 C 2720.8 -0.373229 -4.22856 0
M  V30 29408 C 2718.71 -2.40629 -5.40233 0
M  V30 29409 H 2717.64 -0.156468 -0.737587 0
M  V30 29410 H 2720.29 -1.02555 -1.52167 0
M  V30 29411 H 2718.67 -0.04766 -3.95971 0
M  V30 29412 H 2719.85 -2.88325 -3.59451 0
M  V30 29413 H 2718.16 -2.48016 -3.34481 0
M  V30 29414 H 2720.76 -0.523357 -5.32133 0
M  V30 29415 H 2721.1 0.683636 -4.10648 0
M  V30 29416 H 2721.63 -0.995869 -3.85133 0
M  V30 29417 H 2718.37 -3.44874 -5.57443 0
M  V30 29418 H 2717.89 -1.74406 -5.73884 0
M  V30 29419 H 2719.57 -2.23699 -6.07098 0
M  V30 29420 N 2719.7 1.45999 -0.593476 0
M  V30 29421 C 2720.67 2.28867 0.123497 0
M  V30 29422 C 2721.67 1.3899 0.808604 0
M  V30 29423 O 2722.86 1.61257 0.658916 0
M  V30 29424 C 2719.99 3.19655 1.18464 0
M  V30 29425 H 2721.18 2.93736 -0.604894 0
M  V30 29426 H 2718.73 1.52287 -0.351902 0
M  V30 29427 H 2719.47 2.59555 1.94426 0
M  V30 29428 H 2719.25 3.85842 0.697762 0
M  V30 29429 H 2720.74 3.82 1.68719 0
M  V30 29430 N 2721.18 0.331843 1.54067 0
M  V30 29431 C 2722.12 -0.573088 2.20887 0
M  V30 29432 C 2723.09 -1.10936 1.18878 0
M  V30 29433 O 2724.28 -1.17182 1.47651 0
M  V30 29434 C 2721.4 -1.78721 2.87709 0
M  V30 29435 C 2720.45 -1.38145 4.03508 0
M  V30 29436 S 2721.28 -0.411136 5.33919 0
M  V30 29437 C 2722.44 -1.63235 6.04239 0
M  V30 29438 H 2722.67 -0.00550511 2.97299 0
M  V30 29439 H 2720.21 0.11592 1.53964 0
M  V30 29440 H 2722.16 -2.48381 3.26829 0
M  V30 29441 H 2720.82 -2.32599 2.11084 0
M  V30 29442 H 2720.02 -2.28637 4.49156 0
M  V30 29443 H 2719.62 -0.76446 3.66104 0
M  V30 29444 H 2721.91 -2.56858 6.26921 0
M  V30 29445 H 2722.85 -1.21788 6.97548 0
M  V30 29446 H 2723.26 -1.82309 5.34251 0
M  V30 29447 N 2722.66 -1.57485 0.0601958 0
M  V30 29448 C 2723.94 -1.84416 -0.651923 0
M  V30 29449 C 2724.32 -0.950394 -1.88496 0
M  V30 29450 O 2723.67 -0.0137121 -2.28496 0
M  V30 29451 C 2723.88 -3.34348 -1.00063 0
M  V30 29452 C 2725.22 -4.0158 -1.37908 0
M  V30 29453 O 2726.25 -3.39026 -1.09271 0
M  V30 29454 O 2725.11 -5.11891 -1.9139 0
M  V30 29455 H 2722.2 -0.761461 -0.322655 0
M  V30 29456 H 2724.75 -1.6946 0.0902457 0
M  V30 29457 H 2723.52 -3.91102 -0.124394 0
M  V30 29458 H 2723.14 -3.54524 -1.79995 0
M  V30 29459 N 2724.14 0.213268 -1.5615 0
M  V30 29460 C 2725.07 1.26738 -1.96111 0
M  V30 29461 C 2726.05 1.48449 -0.830475 0
M  V30 29462 O 2727.23 1.60493 -1.09342 0
M  V30 29463 C 2724.36 2.61547 -2.28497 0
M  V30 29464 C 2723.32 2.54479 -3.44129 0
M  V30 29465 C 2722.64 3.93393 -3.62141 0
M  V30 29466 C 2723.94 2.08548 -4.78858 0
M  V30 29467 H 2725.64 0.935384 -2.84413 0
M  V30 29468 H 2723.18 0.448516 -1.36837 0
M  V30 29469 H 2725.14 3.35455 -2.55045 0
M  V30 29470 H 2723.86 2.96451 -1.37057 0
M  V30 29471 H 2722.52 1.83027 -3.17642 0
M  V30 29472 H 2722.17 4.25619 -2.68063 0
M  V30 29473 H 2721.87 3.89544 -4.3992 0
M  V30 29474 H 2723.39 4.68951 -3.91046 0
M  V30 29475 H 2724.81 2.72204 -5.04557 0
M  V30 29476 H 2723.2 2.1574 -5.59979 0
M  V30 29477 H 2724.27 1.03802 -4.73659 0
M  V30 29478 N 2725.62 1.50103 0.480296 0
M  V30 29479 C 2727.03 1.53595 1.06139 0
M  V30 29480 C 2727.38 0.334089 1.93335 0
M  V30 29481 O 2726.5 -0.553993 2.09189 0
M  V30 29482 C 2727.1 2.78339 1.93165 0
M  V30 29483 C 2725.66 2.84542 2.464 0
M  V30 29484 C 2724.8 2.47772 1.24517 0
M  V30 29485 H 2727.76 1.56501 0.263302 0
M  V30 29486 H 2727.78 2.59673 2.78119 0
M  V30 29487 H 2727.29 3.65795 1.29676 0
M  V30 29488 H 2725.39 2.01416 3.13468 0
M  V30 29489 H 2725.5 3.87216 2.82136 0
M  V30 29490 H 2723.87 2.00005 1.57702 0
M  V30 29491 H 2724.65 3.37525 0.627043 0
M  V30 29492 N 2727.09 -0.732829 1.39526 0
M  V30 29493 C 2728.03 -1.85572 1.32809 0
M  V30 29494 C 2729.01 -1.61348 0.201382 0
M  V30 29495 O 2730.19 -1.84585 0.382192 0
M  V30 29496 C 2727.32 -3.21594 1.06277 0
M  V30 29497 C 2726.36 -3.64674 2.21167 0
M  V30 29498 S 2727.2 -3.73789 3.83461 0
M  V30 29499 C 2728.35 -5.12598 3.59158 0
M  V30 29500 H 2728.58 -1.90986 2.27842 0
M  V30 29501 H 2726.12 -0.897905 1.25607 0
M  V30 29502 H 2728.08 -4.00137 0.916532 0
M  V30 29503 H 2726.74 -3.13834 0.129278 0
M  V30 29504 H 2725.93 -4.63392 1.98201 0
M  V30 29505 H 2725.53 -2.93342 2.32005 0
M  V30 29506 H 2727.82 -5.98997 3.16557 0
M  V30 29507 H 2728.77 -5.40594 4.57345 0
M  V30 29508 H 2729.17 -4.82377 2.93212 0
M  V30 29509 N 2728.57 -1.24737 -0.963244 0
M  V30 29510 C 2729.82 -1.09134 -1.70931 0
M  V30 29511 C 2730.15 0.368239 -1.90677 0
M  V30 29512 O 2729.43 1.2719 -1.47149 0
M  V30 29513 C 2729.71 -1.83664 -3.09741 0
M  V30 29514 C 2729.56 -3.37399 -2.97459 0
M  V30 29515 C 2730.88 -1.61289 -4.0948 0
M  V30 29516 H 2728 -0.397849 -0.620391 0
M  V30 29517 H 2730.64 -1.53461 -1.12025 0
M  V30 29518 H 2728.79 -1.45986 -3.60028 0
M  V30 29519 H 2730.46 -3.84701 -2.54564 0
M  V30 29520 H 2728.71 -3.65551 -2.3357 0
M  V30 29521 H 2729.38 -3.84752 -3.95815 0
M  V30 29522 H 2731.85 -1.94073 -3.68069 0
M  V30 29523 H 2730.73 -2.15886 -5.04662 0
M  V30 29524 H 2730.99 -0.552179 -4.38638 0
M  V30 29525 N 2730.05 1.16459 -1.06184 0
M  V30 29526 C 2731.28 1.91407 -0.798633 0
M  V30 29527 C 2731.7 1.76843 0.640956 0
M  V30 29528 O 2731.06 1.09298 1.4465 0
M  V30 29529 C 2731.11 3.40163 -1.19671 0
M  V30 29530 O 2730.21 4.11038 -0.33484 0
M  V30 29531 H 2729.55 0.596363 -0.291972 0
M  V30 29532 H 2732.08 1.47555 -1.41735 0
M  V30 29533 H 2732.09 3.90931 -1.16779 0
M  V30 29534 H 2730.77 3.50083 -2.24532 0
M  V30 29535 H 2729.34 3.70468 -0.425233 0
M  V30 29536 N 2731.53 0.844266 1.33079 0
M  V30 29537 C 2732.78 0.44171 1.97214 0
M  V30 29538 C 2733.1 -1.00367 1.67187 0
M  V30 29539 O 2732.37 -1.69993 0.973618 0
M  V30 29540 H 2730.95 0.160348 0.729587 0
M  V30 29541 H 2733.61 1.07841 1.62346 0
M  V30 29542 H 2732.71 0.578204 3.06697 0
M  V30 29543 N 2733.01 -1.45682 0.60121 0
M  V30 29544 C 2734.28 -1.95582 0.0262003 0
M  V30 29545 C 2734.66 -1.54372 -1.43987 0
M  V30 29546 O 2734.01 -0.803217 -2.13917 0
M  V30 29547 C 2734.22 -3.48321 0.217618 0
M  V30 29548 C 2735.57 -4.24494 0.0950822 0
M  V30 29549 O 2736.59 -3.55895 0.147408 0
M  V30 29550 O 2735.45 -5.46494 -0.0251649 0
M  V30 29551 H 2732.55 -0.826063 -0.0393543 0
M  V30 29552 H 2735.09 -1.55878 0.670825 0
M  V30 29553 H 2733.86 -3.71264 1.23608 0
M  V30 29554 H 2733.49 -3.949 -0.462571 0
M  V30 29555 N 2734.48 -0.340009 -1.53889 0
M  V30 29556 C 2735.9 0.0120472 -1.59595 0
M  V30 29557 C 2736.1 1.49039 -1.35608 0
M  V30 29558 O 2735.16 2.24863 -1.1486 0
M  V30 29559 C 2736.47 -0.420951 -2.97739 0
M  V30 29560 C 2738.02 -0.372995 -3.1077 0
M  V30 29561 C 2738.49 -0.781407 -4.51285 0
M  V30 29562 N 2739.98 -0.735454 -4.57324 0
M  V30 29563 C 2740.72 -1.02346 -5.64192 0
M  V30 29564 N 2740.21 -1.37945 -6.78928 0
M  V30 29565 N 2742.01 -0.947936 -5.54049 0
M  V30 29566 H 2734.16 -1.30302 -1.67736 0
M  V30 29567 H 2736.42 -0.530932 -0.785376 0
M  V30 29568 H 2736.13 -1.45158 -3.20347 0
M  V30 29569 H 2736 0.205655 -3.76639 0
M  V30 29570 H 2738.39 0.648454 -2.87887 0
M  V30 29571 H 2738.47 -1.03476 -2.33937 0
M  V30 29572 H 2738.11 -1.80085 -4.74902 0
M  V30 29573 H 2738.04 -0.0971604 -5.2651 0
M  V30 29574 H 2740.53 -0.472839 -3.7493 0
M  V30 29575 H 2740.85 -1.58415 -7.56389 0
M  V30 29576 H 2739.19 -1.41786 -6.80383 0
M  V30 29577 H 2742.38 -0.669196 -4.63292 0
M  V30 29578 H 2742.56 -1.17574 -6.37244 0
M  V30 29579 N 2735.96 1.57451 -0.0685468 0
M  V30 29580 C 2737.21 1.92542 0.600864 0
M  V30 29581 C 2737.53 0.950269 1.70966 0
M  V30 29582 O 2738.73 1.19388 2.43842 0
M  V30 29583 C 2737.19 3.42025 1.12013 0
M  V30 29584 C 2736.8 4.4798 0.042524 0
M  V30 29585 C 2738.54 3.86122 1.7638 0
M  V30 29586 C 2736.45 5.88592 0.575655 0
M  V30 29587 H 2735.38 0.718634 0.228213 0
M  V30 29588 H 2738.03 1.82963 -0.140255 0
M  V30 29589 H 2736.41 3.46666 1.91412 0
M  V30 29590 H 2737.58 4.5495 -0.7319 0
M  V30 29591 H 2735.9 4.1333 -0.504715 0
M  V30 29592 H 2738.5 4.88557 2.17293 0
M  V30 29593 H 2738.84 3.23313 2.62249 0
M  V30 29594 H 2739.37 3.8407 1.03608 0
M  V30 29595 H 2736.11 6.55039 -0.245807 0
M  V30 29596 H 2735.63 5.85147 1.31767 0
M  V30 29597 H 2737.31 6.38372 1.05309 0
M  V30 29598 N 2737.44 -0.204984 1.56261 0
M  V30 29599 C 2738.39 -1.25794 1.90157 0
M  V30 29600 C 2739.38 -1.41483 0.766252 0
M  V30 29601 O 2740.57 -1.44019 1.02895 0
M  V30 29602 C 2737.7 -2.60489 2.23608 0
M  V30 29603 C 2736.78 -2.48633 3.43573 0
M  V30 29604 N 2737.17 -2.06446 4.6175 0
M  V30 29605 C 2735.47 -2.79552 3.47515 0
M  V30 29606 C 2736.17 -2.06243 5.4391 0
M  V30 29607 N 2735.15 -2.47369 4.84055 0
M  V30 29608 H 2738.95 -0.922937 2.79032 0
M  V30 29609 H 2736.46 -0.413473 1.57048 0
M  V30 29610 H 2738.46 -3.36532 2.46073 0
M  V30 29611 H 2737.12 -2.94821 1.36054 0
M  V30 29612 H 2738.13 -1.77312 4.86601 0
M  V30 29613 H 2734.81 -3.18146 2.70351 0
M  V30 29614 H 2736.2 -1.75611 6.48545 0
M  V30 29615 N 2738.92 -1.50356 -0.472329 0
M  V30 29616 C 2740.16 -1.6292 -1.23436 0
M  V30 29617 C 2740.52 -0.321834 -1.89283 0
M  V30 29618 O 2741.72 -0.322899 -2.66854 0
M  V30 29619 C 2740 -2.77594 -2.25114 0
M  V30 29620 S 2741.55 -3.10284 -3.10273 0
M  V30 29621 H 2738.37 -0.574349 -0.4191 0
M  V30 29622 H 2740.97 -1.88134 -0.531588 0
M  V30 29623 H 2739.68 -3.71069 -1.75318 0
M  V30 29624 H 2739.21 -2.54462 -3.00021 0
M  V30 29625 H 2741.22 -2.54014 -4.26253 0
M  V30 29626 N 2740.4 0.725419 -1.39912 0
M  V30 29627 C 2741.33 1.85252 -1.42141 0
M  V30 29628 C 2742.31 1.6772 -0.283542 0
M  V30 29629 O 2743.49 1.87897 -0.49075 0
M  V30 29630 C 2740.62 3.23105 -1.27359 0
M  V30 29631 C 2739.58 3.55291 -2.38646 0
M  V30 29632 C 2738.9 4.92184 -2.08947 0
M  V30 29633 C 2740.2 3.57288 -3.80976 0
M  V30 29634 H 2741.9 1.83644 -2.36464 0
M  V30 29635 H 2739.44 0.882118 -1.13819 0
M  V30 29636 H 2741.4 4.01637 -1.27537 0
M  V30 29637 H 2740.12 3.25264 -0.295083 0
M  V30 29638 H 2738.78 2.79094 -2.37701 0
M  V30 29639 H 2738.43 4.90934 -1.09511 0
M  V30 29640 H 2738.13 5.14686 -2.835 0
M  V30 29641 H 2739.65 5.73061 -2.10791 0
M  V30 29642 H 2741.07 4.25878 -3.83798 0
M  V30 29643 H 2739.46 3.91312 -4.54967 0
M  V30 29644 H 2740.53 2.56883 -4.11265 0
M  V30 29645 N 2741.88 1.25246 0.956615 0
M  V30 29646 C 2743.15 1.00654 1.67715 0
M  V30 29647 C 2743.53 -0.46783 2.05851 0
M  V30 29648 O 2742.88 -1.44472 1.77031 0
M  V30 29649 C 2743.09 1.94034 2.9009 0
M  V30 29650 C 2744.44 2.21763 3.62086 0
M  V30 29651 O 2745.46 1.91776 3.00167 0
M  V30 29652 O 2744.32 2.72744 4.73575 0
M  V30 29653 H 2741.42 0.381546 0.733724 0
M  V30 29654 H 2743.96 1.36392 1.00972 0
M  V30 29655 H 2742.73 2.93596 2.58683 0
M  V30 29656 H 2742.36 1.5868 3.64563 0
M  V30 29657 N 2743.35 -1.15894 1.068 0
M  V30 29658 C 2744.6 -1.85889 0.782829 0
M  V30 29659 C 2744.92 -1.82895 -0.693466 0
M  V30 29660 O 2746.12 -2.48518 -1.0932 0
M  V30 29661 C 2744.58 -3.33611 1.35026 0
M  V30 29662 C 2744.19 -3.45066 2.85716 0
M  V30 29663 C 2745.93 -4.08827 1.14285 0
M  V30 29664 C 2743.84 -4.86903 3.35678 0
M  V30 29665 H 2742.77 -0.696349 0.289161 0
M  V30 29666 H 2745.42 -1.30764 1.28736 0
M  V30 29667 H 2743.8 -3.88373 0.773475 0
M  V30 29668 H 2744.97 -3.00439 3.4939 0
M  V30 29669 H 2743.29 -2.83289 3.05183 0
M  V30 29670 H 2745.89 -5.13493 1.49096 0
M  V30 29671 H 2746.23 -4.1622 0.0815307 0
M  V30 29672 H 2746.76 -3.60318 1.68569 0
M  V30 29673 H 2743.5 -4.84691 4.41311 0
M  V30 29674 H 2743.02 -5.32134 2.76755 0
M  V30 29675 H 2744.7 -5.55739 3.31305 0
M  V30 29676 N 2744.83 -0.851312 -1.32629 0
M  V30 29677 C 2745.76 -0.308812 -2.31449 0
M  V30 29678 C 2746.74 0.590227 -1.59532 0
M  V30 29679 O 2747.93 0.511172 -1.87352 0
M  V30 29680 C 2745.06 0.506488 -3.43587 0
M  V30 29681 C 2744.01 -0.297828 -4.26963 0
M  V30 29682 C 2743.34 0.642001 -5.30832 0
M  V30 29683 C 2744.64 -1.52174 -4.9964 0
M  V30 29684 H 2746.33 -1.13452 -2.77072 0
M  V30 29685 H 2743.88 -0.546995 -1.33206 0
M  V30 29686 H 2745.83 0.896402 -4.11756 0
M  V30 29687 H 2744.55 1.36553 -2.96683 0
M  V30 29688 H 2743.21 -0.669455 -3.60436 0
M  V30 29689 H 2742.86 1.49779 -4.80182 0
M  V30 29690 H 2742.56 0.107865 -5.87501 0
M  V30 29691 H 2744.09 1.02916 -6.01864 0
M  V30 29692 H 2745.5 -1.20431 -5.60508 0
M  V30 29693 H 2743.9 -1.99357 -5.66018 0
M  V30 29694 H 2744.97 -2.28481 -4.27697 0
M  V30 29695 N 2746.31 1.45361 -0.608928 0
M  V30 29696 C 2747.56 2.02229 -0.104643 0
M  V30 29697 C 2747.88 1.47717 1.26531 0
M  V30 29698 O 2747.14 0.642468 1.84854 0
M  V30 29699 C 2747.44 3.57396 -0.0167924 0
M  V30 29700 C 2747.1 4.31067 -1.32258 0
M  V30 29701 C 2745.77 4.50911 -1.68027 0
M  V30 29702 C 2748.12 4.73165 -2.18551 0
M  V30 29703 C 2745.45 5.10109 -2.89837 0
M  V30 29704 C 2747.8 5.33711 -3.39611 0
M  V30 29705 C 2746.46 5.51777 -3.7563 0
M  V30 29706 H 2745.73 0.74001 -0.0382915 0
M  V30 29707 H 2748.38 1.74409 -0.790813 0
M  V30 29708 H 2746.68 3.84503 0.752648 0
M  V30 29709 H 2748.38 3.99103 0.389564 0
M  V30 29710 H 2744.97 4.15936 -1.03418 0
M  V30 29711 H 2749.16 4.57566 -1.92216 0
M  V30 29712 H 2744.41 5.22286 -3.17848 0
M  V30 29713 H 2748.59 5.65285 -4.06726 0
M  V30 29714 H 2746.21 5.97417 -4.70104 0
M  V30 29715 N 2747.79 0.348166 1.53706 0
M  V30 29716 C 2748.75 -0.494019 2.23813 0
M  V30 29717 C 2749.75 -1.02386 1.23991 0
M  V30 29718 O 2750.94 -0.91237 1.48396 0
M  V30 29719 C 2748.07 -1.68867 2.96136 0
M  V30 29720 H 2749.27 0.119193 2.99663 0
M  V30 29721 H 2746.82 0.0995813 1.55982 0
M  V30 29722 H 2747.55 -2.34045 2.24485 0
M  V30 29723 H 2747.34 -1.3159 3.6936 0
M  V30 29724 H 2748.83 -2.28591 3.49479 0
M  V30 29725 N 2749.27 -1.57412 0.0768958 0
M  V30 29726 C 2750.51 -1.93682 -0.591051 0
M  V30 29727 C 2750.84 -0.957316 -1.6931 0
M  V30 29728 O 2750.1 0.0262084 -1.95682 0
M  V30 29729 C 2750.39 -3.36559 -1.20262 0
M  V30 29730 C 2750.06 -4.50332 -0.226206 0
M  V30 29731 C 2748.72 -4.81181 0.0423987 0
M  V30 29732 C 2751.07 -5.19327 0.441506 0
M  V30 29733 C 2748.4 -5.7836 0.985718 0
M  V30 29734 C 2750.75 -6.17516 1.37318 0
M  V30 29735 C 2749.42 -6.4678 1.6502 0
M  V30 29736 H 2748.69 -0.708734 -0.216281 0
M  V30 29737 H 2751.34 -1.90921 0.148858 0
M  V30 29738 H 2749.64 -3.35811 -2.01838 0
M  V30 29739 H 2751.34 -3.61914 -1.72682 0
M  V30 29740 H 2747.93 -4.26276 -0.445746 0
M  V30 29741 H 2752.11 -4.95684 0.247111 0
M  V30 29742 H 2747.37 -5.99357 1.20754 0
M  V30 29743 H 2751.54 -6.70079 1.89649 0
M  V30 29744 H 2749.17 -7.21893 2.38275 0
M  V30 29745 N 2750.74 0.196695 -1.56368 0
M  V30 29746 C 2751.97 0.933575 -1.8464 0
M  V30 29747 C 2752.39 1.76918 -0.659195 0
M  V30 29748 O 2751.74 1.78666 0.372111 0
M  V30 29749 C 2751.8 1.83103 -3.11698 0
M  V30 29750 O 2751.52 1.02917 -4.2584 0
M  V30 29751 C 2753.02 2.67973 -3.53137 0
M  V30 29752 H 2750.24 0.272463 -0.613193 0
M  V30 29753 H 2752.78 0.204429 -2.03476 0
M  V30 29754 H 2750.94 2.51382 -2.94764 0
M  V30 29755 H 2751.35 1.6406 -4.98181 0
M  V30 29756 H 2752.82 3.26604 -4.4501 0
M  V30 29757 H 2753.3 3.41603 -2.76051 0
M  V30 29758 H 2753.91 2.05068 -3.72595 0
M  V30 29759 N 2752.22 1.50604 0.464349 0
M  V30 29760 C 2753.17 1.69959 1.56149 0
M  V30 29761 C 2754.14 0.540938 1.57045 0
M  V30 29762 O 2755.32 0.772289 1.74472 0
M  V30 29763 C 2752.46 1.80591 2.94076 0
M  V30 29764 C 2751.58 3.08002 3.02917 0
M  V30 29765 C 2750.71 3.09389 4.31801 0
M  V30 29766 C 2749.75 4.31225 4.34409 0
M  V30 29767 N 2748.89 4.30314 5.54774 0
M  V30 29768 H 2753.73 2.63623 1.3895 0
M  V30 29769 H 2751.27 1.30675 0.675459 0
M  V30 29770 H 2753.22 1.84737 3.7407 0
M  V30 29771 H 2751.85 0.903611 3.09895 0
M  V30 29772 H 2750.91 3.13295 2.15755 0
M  V30 29773 H 2752.22 3.97968 3.00705 0
M  V30 29774 H 2751.37 3.12301 5.20147 0
M  V30 29775 H 2750.11 2.17265 4.36632 0
M  V30 29776 H 2749.12 4.28518 3.44459 0
M  V30 29777 H 2750.34 5.24584 4.31264 0
M  V30 29778 H 2748.29 3.41047 5.60378 0
M  V30 29779 H 2748.2 5.14056 5.5433 0
M  V30 29780 H 2749.47 4.37381 6.45227 0
M  V30 29781 N 2753.7 -0.717989 1.40295 0
M  V30 29782 C 2755.12 -1.02575 1.22272 0
M  V30 29783 C 2755.32 -2.0127 0.096233 0
M  V30 29784 O 2754.37 -2.46512 -0.546651 0
M  V30 29785 C 2755.69 -1.57177 2.56351 0
M  V30 29786 C 2757.23 -1.69173 2.63343 0
M  V30 29787 C 2757.71 -2.27181 3.97684 0
M  V30 29788 N 2759.2 -2.34571 3.99413 0
M  V30 29789 C 2759.93 -2.80431 5.00146 0
M  V30 29790 N 2759.43 -3.26062 6.11274 0
M  V30 29791 N 2761.22 -2.79794 4.87516 0
M  V30 29792 H 2753.37 -0.0637526 2.12304 0
M  V30 29793 H 2755.64 -0.090887 0.943633 0
M  V30 29794 H 2755.34 -0.921202 3.39421 0
M  V30 29795 H 2755.22 -2.55736 2.7727 0
M  V30 29796 H 2757.6 -2.33348 1.80645 0
M  V30 29797 H 2757.69 -0.692204 2.46256 0
M  V30 29798 H 2757.33 -1.6363 4.8082 0
M  V30 29799 H 2757.26 -3.27844 4.12099 0
M  V30 29800 H 2759.75 -2.0234 3.19166 0
M  V30 29801 H 2760.06 -3.59616 6.8403 0
M  V30 29802 H 2758.41 -3.24027 6.14843 0
M  V30 29803 H 2761.6 -2.4348 3.99794 0
M  V30 29804 H 2761.77 -3.15218 5.66164 0
M  V30 29805 N 2755.18 -1.25752 -0.94996 0
M  V30 29806 C 2756.42 -1.10941 -1.69764 0
M  V30 29807 C 2756.76 0.347995 -1.91057 0
M  V30 29808 O 2756.03 1.25622 -1.4849 0
M  V30 29809 C 2756.32 -1.86939 -3.07776 0
M  V30 29810 C 2756.17 -3.40535 -2.93864 0
M  V30 29811 C 2757.49 -1.65623 -4.07746 0
M  V30 29812 H 2754.61 -0.404407 -0.616136 0
M  V30 29813 H 2757.25 -1.54641 -1.10391 0
M  V30 29814 H 2755.4 -1.49797 -3.5846 0
M  V30 29815 H 2757.07 -3.87379 -2.5047 0
M  V30 29816 H 2755.31 -3.68008 -2.2968 0
M  V30 29817 H 2755.98 -3.88929 -3.91712 0
M  V30 29818 H 2758.46 -1.97966 -3.6599 0
M  V30 29819 H 2757.34 -2.21227 -5.02344 0
M  V30 29820 H 2757.6 -0.598672 -4.38028 0
M  V30 29821 N 2756.66 1.15326 -1.07413 0
M  V30 29822 C 2757.59 2.22235 -0.716511 0
M  V30 29823 C 2758.57 1.67499 0.296344 0
M  V30 29824 O 2759.75 1.93464 0.168955 0
M  V30 29825 C 2756.88 3.47112 -0.114203 0
M  V30 29826 C 2755.84 4.14812 -1.05428 0
M  V30 29827 C 2755.16 5.33773 -0.314698 0
M  V30 29828 C 2756.46 4.64504 -2.38816 0
M  V30 29829 H 2758.16 2.52406 -1.61033 0
M  V30 29830 H 2755.7 1.2132 -0.775723 0
M  V30 29831 H 2757.66 4.2114 0.147927 0
M  V30 29832 H 2756.38 3.16276 0.814699 0
M  V30 29833 H 2755.04 3.42725 -1.30134 0
M  V30 29834 H 2754.69 4.99193 0.617685 0
M  V30 29835 H 2754.39 5.80011 -0.941311 0
M  V30 29836 H 2755.91 6.1057 -0.060382 0
M  V30 29837 H 2757.32 5.30056 -2.18433 0
M  V30 29838 H 2755.72 5.21407 -2.97078 0
M  V30 29839 H 2756.79 3.80109 -3.01074 0
M  V30 29840 N 2758.13 0.858334 1.32176 0
M  V30 29841 C 2759.38 0.462603 1.96734 0
M  V30 29842 C 2759.7 -0.985882 1.68242 0
M  V30 29843 O 2758.97 -1.6895 0.991593 0
M  V30 29844 H 2757.55 0.168077 0.727846 0
M  V30 29845 H 2760.22 1.09557 1.61193 0
M  V30 29846 H 2759.31 0.610701 3.06067 0
M  V30 29847 N 2759.61 -1.45036 0.616628 0
M  V30 29848 C 2760.52 -2.34393 -0.0984989 0
M  V30 29849 C 2761.54 -1.51773 -0.850944 0
M  V30 29850 O 2762.71 -1.84547 -0.806488 0
M  V30 29851 C 2759.78 -3.29534 -1.07742 0
M  V30 29852 C 2758.84 -4.28061 -0.325946 0
M  V30 29853 C 2758.07 -5.18656 -1.25824 0
M  V30 29854 O 2758.3 -5.12869 -2.49643 0
M  V30 29855 O 2757.23 -5.97204 -0.750407 0
M  V30 29856 H 2761.06 -2.96964 0.636068 0
M  V30 29857 H 2758.64 -1.44569 0.376857 0
M  V30 29858 H 2760.52 -3.88135 -1.641 0
M  V30 29859 H 2759.2 -2.69515 -1.79286 0
M  V30 29860 H 2758.11 -3.73048 0.280319 0
M  V30 29861 H 2759.44 -4.9096 0.349177 0
M  V30 29862 N 2761.09 -0.356312 -1.53519 0
M  V30 29863 C 2762.32 0.239925 -2.06008 0
M  V30 29864 C 2762.74 1.4242 -1.22874 0
M  V30 29865 O 2762.1 1.79629 -0.245547 0
M  V30 29866 C 2762.15 0.620524 -3.55221 0
M  V30 29867 O 2761.25 1.71896 -3.74867 0
M  V30 29868 H 2760.59 0.0371261 -0.662961 0
M  V30 29869 H 2763.12 -0.514229 -1.98032 0
M  V30 29870 H 2763.13 0.894127 -3.98082 0
M  V30 29871 H 2761.81 -0.24548 -4.15175 0
M  V30 29872 H 2760.38 1.44163 -3.43906 0
M  V30 29873 N 2762.57 1.57369 -0.0852427 0
M  V30 29874 C 2763.82 1.9361 0.579624 0
M  V30 29875 C 2764.14 0.967072 1.6933 0
M  V30 29876 O 2763.41 0.0174559 1.95892 0
M  V30 29877 H 2761.99 0.714756 0.217101 0
M  V30 29878 H 2764.65 1.9435 -0.14626 0
M  V30 29879 H 2763.75 2.95773 0.996224 0
M  V30 29880 N 2764.05 -0.188399 1.5647 0
M  V30 29881 C 2764.96 -1.25376 1.98287 0
M  V30 29882 C 2765.97 -1.49423 0.891561 0
M  V30 29883 O 2767.15 -1.61906 1.19785 0
M  V30 29884 C 2764.21 -2.57665 2.31969 0
M  V30 29885 C 2763.27 -2.41631 3.54842 0
M  V30 29886 C 2762.51 -3.67611 3.86908 0
M  V30 29887 O 2762.73 -4.72066 3.20171 0
M  V30 29888 O 2761.66 -3.62741 4.80315 0
M  V30 29889 H 2765.49 -0.928861 2.89147 0
M  V30 29890 H 2763.08 -0.393929 1.44113 0
M  V30 29891 H 2764.96 -3.35733 2.54679 0
M  V30 29892 H 2763.63 -2.89769 1.44276 0
M  V30 29893 H 2762.54 -1.61652 3.37372 0
M  V30 29894 H 2763.87 -2.14457 4.43022 0
M  V30 29895 N 2765.53 -1.50848 -0.456355 0
M  V30 29896 C 2766.46 -1.65443 -1.57174 0
M  V30 29897 C 2767.44 -0.502252 -1.54649 0
M  V30 29898 O 2768.62 -0.723664 -1.74056 0
M  V30 29899 C 2765.75 -1.65057 -2.9576 0
M  V30 29900 C 2764.79 -2.86013 -3.16384 0
M  V30 29901 S 2765.63 -4.4711 -2.94708 0
M  V30 29902 C 2766.78 -4.49439 -4.35609 0
M  V30 29903 H 2767.02 -2.5979 -1.44557 0
M  V30 29904 H 2764.55 -1.40295 -0.644733 0
M  V30 29905 H 2766.51 -1.65518 -3.75651 0
M  V30 29906 H 2765.17 -0.719207 -3.05755 0
M  V30 29907 H 2764.36 -2.82089 -4.17663 0
M  V30 29908 H 2763.96 -2.83195 -2.44288 0
M  V30 29909 H 2766.25 -4.23909 -5.28495 0
M  V30 29910 H 2767.2 -5.51145 -4.44572 0
M  V30 29911 H 2767.61 -3.78975 -4.18376 0
M  V30 29912 N 2767 0.710538 -1.40674 0
M  V30 29913 C 2768.28 1.46396 -1.29721 0
M  V30 29914 C 2768.66 2.1094 0.0821399 0
M  V30 29915 O 2768.01 2.00536 1.09533 0
M  V30 29916 C 2768.22 2.49558 -2.43971 0
M  V30 29917 C 2769.57 3.15243 -2.84441 0
M  V30 29918 O 2770.59 2.59879 -2.43601 0
M  V30 29919 O 2769.45 4.15483 -3.55015 0
M  V30 29920 H 2766.54 0.65125 -0.509709 0
M  V30 29921 H 2769.09 0.742285 -1.52605 0
M  V30 29922 H 2767.86 2.00415 -3.3608 0
M  V30 29923 H 2767.48 3.29254 -2.22885 0
M  V30 29924 N 2768.48 1.26254 0.943277 0
M  V30 29925 C 2769.44 1.07693 2.02324 0
M  V30 29926 C 2770.44 0.0259457 1.60779 0
M  V30 29927 O 2771.63 0.269164 1.72108 0
M  V30 29928 C 2768.77 0.637579 3.34885 0
M  V30 29929 H 2769.96 2.03574 2.20222 0
M  V30 29930 H 2767.51 1.08821 1.12195 0
M  V30 29931 H 2768.25 -0.323321 3.22684 0
M  V30 29932 H 2768.03 1.39643 3.66391 0
M  V30 29933 H 2769.52 0.529491 4.1423 0
M  V30 29934 N 2769.96 -1.14755 1.08024 0
M  V30 29935 C 2770.89 -2.21852 0.728287 0
M  V30 29936 C 2771.87 -1.67654 -0.287457 0
M  V30 29937 O 2773.06 -1.93551 -0.158693 0
M  V30 29938 C 2770.19 -3.47047 0.13261 0
M  V30 29939 C 2769.14 -4.14247 1.07627 0
M  V30 29940 C 2768.47 -5.33599 0.343001 0
M  V30 29941 C 2769.77 -4.63231 2.41276 0
M  V30 29942 H 2771.46 -2.51548 1.6237 0
M  V30 29943 H 2769.01 -1.20907 0.782146 0
M  V30 29944 H 2770.96 -4.21213 -0.125591 0
M  V30 29945 H 2769.68 -3.16703 -0.797915 0
M  V30 29946 H 2768.34 -3.4203 1.3195 0
M  V30 29947 H 2767.99 -4.99514 -0.591203 0
M  V30 29948 H 2767.69 -5.79504 0.972057 0
M  V30 29949 H 2769.21 -6.1053 0.0927611 0
M  V30 29950 H 2770.63 -5.28891 2.21241 0
M  V30 29951 H 2769.02 -5.19824 2.99839 0
M  V30 29952 H 2770.09 -3.78506 3.03086 0
M  V30 29953 N 2771.44 -0.865331 -1.31719 0
M  V30 29954 C 2772.85 -0.556622 -1.49579 0
M  V30 29955 C 2773.05 0.910322 -1.79765 0
M  V30 29956 O 2772.11 1.69277 -1.87354 0
M  V30 29957 C 2773.42 -1.45283 -2.63274 0
M  V30 29958 C 2774.97 -1.45438 -2.77158 0
M  V30 29959 C 2775.45 -2.33605 -3.93945 0
M  V30 29960 N 2776.94 -2.3146 -4.01224 0
M  V30 29961 C 2777.67 -2.96402 -4.9085 0
M  V30 29962 N 2777.17 -3.70496 -5.85409 0
M  V30 29963 N 2778.96 -2.85734 -4.84058 0
M  V30 29964 H 2771.11 -1.81458 -1.10393 0
M  V30 29965 H 2773.37 -0.77564 -0.545056 0
M  V30 29966 H 2773.08 -2.49645 -2.4773 0
M  V30 29967 H 2772.95 -1.14798 -3.59307 0
M  V30 29968 H 2775.34 -0.418362 -2.92119 0
M  V30 29969 H 2775.42 -1.79944 -1.81807 0
M  V30 29970 H 2775.07 -3.37281 -3.79742 0
M  V30 29971 H 2775 -1.96426 -4.88594 0
M  V30 29972 H 2777.49 -1.77599 -3.33567 0
M  V30 29973 H 2777.8 -4.17189 -6.50517 0
M  V30 29974 H 2776.15 -3.74605 -5.85403 0
M  V30 29975 H 2779.34 -2.27391 -4.09159 0
M  V30 29976 H 2779.51 -3.36627 -5.53703 0
M  V30 29977 N 2772.92 1.44707 -0.624311 0
M  V30 29978 C 2774.16 2.01321 -0.123575 0
M  V30 29979 C 2774.48 1.49642 1.25963 0
M  V30 29980 O 2775.68 1.9834 1.85401 0
M  V30 29981 C 2774.14 3.59497 -0.170187 0
M  V30 29982 C 2773.75 4.20174 -1.55429 0
M  V30 29983 C 2775.49 4.23612 0.274439 0
M  V30 29984 C 2773.4 5.70553 -1.55638 0
M  V30 29985 H 2772.33 0.752805 -0.0424316 0
M  V30 29986 H 2774.98 1.65998 -0.782105 0
M  V30 29987 H 2773.36 3.92087 0.555316 0
M  V30 29988 H 2774.54 3.99132 -2.30283 0
M  V30 29989 H 2772.85 3.68319 -1.94242 0
M  V30 29990 H 2775.45 5.339 0.292308 0
M  V30 29991 H 2775.79 3.95468 1.30043 0
M  V30 29992 H 2776.32 3.95801 -0.398345 0
M  V30 29993 H 2773.06 6.03422 -2.56051 0
M  V30 29994 H 2772.58 5.93737 -0.850668 0
M  V30 29995 H 2774.26 6.34064 -1.28732 0
M  V30 29996 N 2774.39 0.364449 1.53328 0
M  V30 29997 C 2775.33 -0.517253 2.23287 0
M  V30 29998 C 2776.34 -1.04709 1.24659 0
M  V30 29999 O 2777.53 -0.953664 1.50889 0
M  V30 30000 C 2774.63 -1.7268 2.91607 0
M  V30 30001 C 2773.8 -1.32865 4.16732 0
M  V30 30002 C 2772.86 -2.40014 4.68273 0
M  V30 30003 O 2771.89 -2.02452 5.31979 0
M  V30 30004 N 2773.09 -3.71583 4.45989 0
M  V30 30005 H 2775.85 0.0819918 2.99588 0
M  V30 30006 H 2773.41 0.189572 1.60786 0
M  V30 30007 H 2775.41 -2.43835 3.22997 0
M  V30 30008 H 2773.98 -2.23294 2.18766 0
M  V30 30009 H 2773.2 -0.447 3.91657 0
M  V30 30010 H 2774.48 -1.03893 4.9808 0
M  V30 30011 H 2773.88 -4.04877 3.95084 0
M  V30 30012 H 2772.44 -4.38845 4.81932 0
M  V30 30013 N 2775.87 -1.57322 0.0935872 0
M  V30 30014 C 2776.8 -2.09597 -0.902468 0
M  V30 30015 C 2777.78 -1.00617 -1.2773 0
M  V30 30016 O 2778.97 -1.28104 -1.38281 0
M  V30 30017 C 2776.09 -2.5717 -2.20412 0
M  V30 30018 C 2775.14 -3.77793 -1.97925 0
M  V30 30019 S 2775.97 -5.21449 -1.21864 0
M  V30 30020 C 2777.13 -5.72371 -2.53263 0
M  V30 30021 H 2777.36 -2.93755 -0.457745 0
M  V30 30022 H 2774.89 -1.53936 -0.119667 0
M  V30 30023 H 2776.85 -2.85237 -2.95212 0
M  V30 30024 H 2775.51 -1.7324 -2.62005 0
M  V30 30025 H 2774.71 -4.09143 -2.94309 0
M  V30 30026 H 2774.31 -3.50212 -1.31254 0
M  V30 30027 H 2776.6 -5.80546 -3.49246 0
M  V30 30028 H 2777.54 -6.709 -2.26493 0
M  V30 30029 H 2777.95 -5.00296 -2.61466 0
M  V30 30030 N 2777.35 0.180099 -1.56568 0
M  V30 30031 C 2778.26 1.24323 -1.9895 0
M  V30 30032 C 2779.28 1.48948 -0.899473 0
M  V30 30033 O 2780.45 1.61269 -1.20642 0
M  V30 30034 C 2777.52 2.56431 -2.33332 0
M  V30 30035 C 2776.58 2.39746 -3.56118 0
M  V30 30036 C 2775.81 3.65554 -3.88852 0
M  V30 30037 O 2776.03 4.70362 -3.2267 0
M  V30 30038 O 2774.97 3.60188 -4.82232 0
M  V30 30039 H 2778.79 0.913514 -2.89635 0
M  V30 30040 H 2776.38 0.386281 -1.4432 0
M  V30 30041 H 2778.26 3.34378 -2.56456 0
M  V30 30042 H 2776.94 2.89 -1.45811 0
M  V30 30043 H 2775.84 1.5986 -3.38224 0
M  V30 30044 H 2777.18 2.12105 -4.44153 0
M  V30 30045 N 2778.83 1.51088 0.448349 0
M  V30 30046 C 2779.74 1.74431 1.56879 0
M  V30 30047 C 2780.75 0.628118 1.62267 0
M  V30 30048 O 2781.93 0.909107 1.79714 0
M  V30 30049 C 2778.99 1.85431 2.92944 0
M  V30 30050 C 2778.06 3.09252 2.97761 0
M  V30 30051 C 2777.29 3.19718 4.27336 0
M  V30 30052 O 2777.51 2.36396 5.19108 0
M  V30 30053 O 2776.45 4.12618 4.38212 0
M  V30 30054 H 2780.27 2.69455 1.40099 0
M  V30 30055 H 2777.86 1.35457 0.630223 0
M  V30 30056 H 2779.74 1.94716 3.73716 0
M  V30 30057 H 2778.41 0.935941 3.09874 0
M  V30 30058 H 2777.32 3.05454 2.15984 0
M  V30 30059 H 2778.65 4.00743 2.85773 0
M  V30 30060 N 2780.31 -0.703068 1.41049 0
M  V30 30061 C 2781.72 -1.01273 1.23353 0
M  V30 30062 C 2781.92 -2.01157 0.117575 0
M  V30 30063 O 2780.98 -2.47078 -0.520475 0
M  V30 30064 C 2782.29 -1.54449 2.58004 0
M  V30 30065 C 2783.84 -1.66371 2.65122 0
M  V30 30066 C 2784.31 -2.22951 4.00071 0
M  V30 30067 N 2785.81 -2.30321 4.01879 0
M  V30 30068 C 2786.54 -2.75111 5.03092 0
M  V30 30069 N 2786.04 -3.1956 6.14698 0
M  V30 30070 N 2787.83 -2.74607 4.90456 0
M  V30 30071 H 2779.98 -0.0412313 2.1236 0
M  V30 30072 H 2782.24 -0.0808734 0.944544 0
M  V30 30073 H 2781.95 -0.88515 3.40379 0
M  V30 30074 H 2781.82 -2.52781 2.79967 0
M  V30 30075 H 2784.21 -2.31419 1.8311 0
M  V30 30076 H 2784.29 -0.666046 2.46977 0
M  V30 30077 H 2783.94 -1.58521 4.82528 0
M  V30 30078 H 2783.87 -3.23455 4.15553 0
M  V30 30079 H 2786.36 -1.98943 3.21294 0
M  V30 30080 H 2786.67 -3.5234 6.87805 0
M  V30 30081 H 2785.01 -3.17488 6.18245 0
M  V30 30082 H 2788.21 -2.39225 4.02354 0
M  V30 30083 H 2788.38 -3.09196 5.69475 0
M  V30 30084 N 2781.78 -1.26752 -0.936569 0
M  V30 30085 C 2783.03 -1.12569 -1.68329 0
M  V30 30086 C 2783.36 0.330134 -1.91678 0
M  V30 30087 O 2782.61 1.25858 -1.49861 0
M  V30 30088 C 2782.91 -1.84499 -3.06096 0
M  V30 30089 C 2782.58 -3.34384 -3.02487 0
M  V30 30090 C 2781.24 -3.75268 -3.0121 0
M  V30 30091 C 2783.59 -4.3006 -2.94445 0
M  V30 30092 C 2780.92 -5.10208 -2.89663 0
M  V30 30093 C 2783.27 -5.65046 -2.84439 0
M  V30 30094 C 2781.94 -6.05235 -2.81508 0
M  V30 30095 H 2781.21 -0.411918 -0.615958 0
M  V30 30096 H 2783.85 -1.57252 -1.09289 0
M  V30 30097 H 2782.16 -1.32299 -3.68788 0
M  V30 30098 H 2783.86 -1.70961 -3.6273 0
M  V30 30099 H 2780.45 -3.01864 -3.04263 0
M  V30 30100 H 2784.63 -3.99452 -2.94537 0
M  V30 30101 H 2779.89 -5.40503 -2.85774 0
M  V30 30102 H 2784.06 -6.38861 -2.77181 0
M  V30 30103 H 2781.69 -7.09752 -2.72316 0
M  V30 30104 N 2783.26 1.1418 -1.08631 0
M  V30 30105 C 2784.2 2.18376 -0.662367 0
M  V30 30106 C 2785.17 1.59277 0.327026 0
M  V30 30107 O 2786.36 1.87087 0.230344 0
M  V30 30108 C 2783.48 3.3869 0.025417 0
M  V30 30109 C 2782.53 4.1636 -0.924487 0
M  V30 30110 S 2783.36 4.77072 -2.43234 0
M  V30 30111 C 2784.52 6.00741 -1.75673 0
M  V30 30112 H 2784.75 2.53999 -1.54506 0
M  V30 30113 H 2782.29 1.25348 -0.901506 0
M  V30 30114 H 2784.24 4.08387 0.41596 0
M  V30 30115 H 2782.9 3.01385 0.884636 0
M  V30 30116 H 2782.1 5.02487 -0.390187 0
M  V30 30117 H 2781.7 3.52278 -1.25604 0
M  V30 30118 H 2783.99 6.68901 -1.07601 0
M  V30 30119 H 2784.93 6.58764 -2.59684 0
M  V30 30120 H 2785.34 5.50956 -1.22913 0
M  V30 30121 N 2784.74 0.872304 1.31258 0
M  V30 30122 C 2785.7 0.334696 2.26743 0
M  V30 30123 C 2786.7 -0.515655 1.52308 0
M  V30 30124 O 2787.89 -0.324626 1.71149 0
M  V30 30125 C 2785.03 -0.524423 3.36842 0
M  V30 30126 H 2786.22 1.17767 2.7581 0
M  V30 30127 H 2783.77 0.648089 1.4223 0
M  V30 30128 H 2784.51 -1.3885 2.93072 0
M  V30 30129 H 2784.29 0.0844988 3.92009 0
M  V30 30130 H 2785.78 -0.892767 4.07945 0
M  V30 30131 N 2786.22 -1.44374 0.631976 0
M  V30 30132 C 2787.44 -2.06912 0.142182 0
M  V30 30133 C 2787.87 -1.46922 -1.17454 0
M  V30 30134 O 2787.23 -0.571005 -1.72073 0
M  V30 30135 C 2787.27 -3.60576 0.0418586 0
M  V30 30136 O 2786.38 -4.00045 -1.00187 0
M  V30 30137 H 2785.72 -0.658516 0.0851607 0
M  V30 30138 H 2788.25 -1.85233 0.868895 0
M  V30 30139 H 2788.26 -4.0773 -0.148445 0
M  V30 30140 H 2786.93 -4.0362 1.00318 0
M  V30 30141 H 2785.51 -3.64521 -0.786067 0
M  V30 30142 N 2787.7 -0.372575 -1.53133 0
M  V30 30143 C 2788.64 0.485641 -2.27474 0
M  V30 30144 C 2789.64 1.07743 -1.30721 0
M  V30 30145 O 2790.84 1.01982 -1.48323 0
M  V30 30146 H 2787.22 0.175343 -0.731272 0
M  V30 30147 H 2789.19 -0.163038 -2.97954 0
M  V30 30148 C 2787.94 1.60972 -3.08193 0
M  V30 30149 H 2787.26 1.16366 -3.8249 0
M  V30 30150 H 2788.7 2.18479 -3.63377 0
M  V30 30151 C 2787.16 2.5561 -2.19465 0
M  V30 30152 O 2787.69 3.58604 -1.81014 0
M  V30 30153 N 2785.9 2.24961 -1.83958 0
M  V30 30154 H 2785.44 1.41243 -2.15425 0
M  V30 30155 H 2785.4 2.88535 -1.24879 0
M  V30 30156 N 2789.17 1.5727 -0.101929 0
M  V30 30157 C 2790.59 1.81772 0.426141 0
M  V30 30158 C 2790.94 1.018 1.67723 0
M  V30 30159 O 2790.06 0.249424 2.14958 0
M  V30 30160 C 2790.66 3.29701 0.779904 0
M  V30 30161 C 2789.22 3.54943 1.25269 0
M  V30 30162 C 2788.36 2.76146 0.252765 0
M  V30 30163 H 2791.31 1.55288 -0.327288 0
M  V30 30164 H 2791.33 3.43398 1.63885 0
M  V30 30165 H 2790.85 3.87879 -0.130846 0
M  V30 30166 H 2788.95 3.02104 2.18092 0
M  V30 30167 H 2789.06 4.63574 1.2098 0
M  V30 30168 H 2787.42 2.43825 0.736319 0
M  V30 30169 H 2788.21 3.37075 -0.650783 0
M  V30 30170 N 2790.65 -0.171793 1.56661 0
M  V30 30171 C 2791.88 -0.908132 1.86461 0
M  V30 30172 C 2792.3 -1.75058 0.688212 0
M  V30 30173 O 2791.66 -1.77635 -0.362722 0
M  V30 30174 C 2791.71 -1.76107 3.14672 0
M  V30 30175 O 2790.81 -2.86263 2.96863 0
M  V30 30176 H 2790.15 -0.254423 0.613323 0
M  V30 30177 H 2792.68 -0.170077 2.03892 0
M  V30 30178 H 2792.69 -2.16109 3.46065 0
M  V30 30179 H 2791.37 -1.14226 3.99907 0
M  V30 30180 H 2789.95 -2.49847 2.76823 0
M  V30 30181 N 2792.13 -1.51324 -0.44033 0
M  V30 30182 C 2793.08 -1.72422 -1.53426 0
M  V30 30183 C 2794.05 -0.565854 -1.56164 0
M  V30 30184 O 2795.23 -0.799948 -1.73221 0
M  V30 30185 C 2792.37 -1.85247 -2.91166 0
M  V30 30186 C 2791.49 -3.12782 -2.97979 0
M  V30 30187 C 2790.62 -3.1622 -4.26824 0
M  V30 30188 C 2789.66 -4.38082 -4.27494 0
M  V30 30189 N 2788.8 -4.39086 -5.47858 0
M  V30 30190 H 2793.64 -2.658 -1.34739 0
M  V30 30191 H 2791.17 -1.31733 -0.654585 0
M  V30 30192 H 2793.13 -1.90664 -3.71084 0
M  V30 30193 H 2791.76 -0.952798 -3.08418 0
M  V30 30194 H 2790.81 -3.16688 -2.10743 0
M  V30 30195 H 2792.13 -4.02701 -2.94335 0
M  V30 30196 H 2791.28 -3.20537 -5.15113 0
M  V30 30197 H 2790.02 -2.24184 -4.3312 0
M  V30 30198 H 2789.02 -4.33944 -3.37598 0
M  V30 30199 H 2790.25 -5.31378 -4.22864 0
M  V30 30200 H 2788.19 -3.49919 -5.54881 0
M  V30 30201 H 2788.11 -5.2281 -5.46082 0
M  V30 30202 H 2789.38 -4.47591 -6.38187 0
M  V30 30203 N 2793.61 0.695578 -1.41419 0
M  V30 30204 C 2794.85 1.45778 -1.40985 0
M  V30 30205 C 2795.19 1.94191 -0.0188104 0
M  V30 30206 O 2794.46 1.69529 0.95343 0
M  V30 30207 C 2794.75 2.66967 -2.41662 0
M  V30 30208 C 2794.6 2.2432 -3.89873 0
M  V30 30209 C 2795.92 3.69164 -2.39595 0
M  V30 30210 H 2793.04 0.528748 -0.513415 0
M  V30 30211 H 2795.68 0.792245 -1.72695 0
M  V30 30212 H 2793.83 3.2375 -2.14752 0
M  V30 30213 H 2795.5 1.72865 -4.27686 0
M  V30 30214 H 2793.74 1.56104 -4.04739 0
M  V30 30215 H 2794.41 3.11277 -4.55862 0
M  V30 30216 H 2796.89 3.22055 -2.63476 0
M  V30 30217 H 2795.77 4.51569 -3.12052 0
M  V30 30218 H 2796.03 4.18859 -1.41454 0
M  V30 30219 N 2795.09 1.27247 0.929833 0
M  V30 30220 C 2796.31 1.16377 1.71672 0
M  V30 30221 C 2796.74 -0.275991 1.86064 0
M  V30 30222 O 2796.1 -1.1999 1.35912 0
M  V30 30223 C 2796.14 1.85008 3.09523 0
M  V30 30224 O 2795.25 1.1466 3.9614 0
M  V30 30225 H 2794.59 0.404873 0.526283 0
M  V30 30226 H 2797.12 1.68278 1.16378 0
M  V30 30227 H 2797.13 1.92283 3.59849 0
M  V30 30228 H 2795.8 2.89744 2.98364 0
M  V30 30229 H 2794.38 1.15439 3.54582 0
M  V30 30230 N 2796.57 -1.13603 1.09235 0
M  V30 30231 C 2797.8 -1.88408 0.84771 0
M  V30 30232 C 2798.2 -1.79283 -0.604493 0
M  V30 30233 O 2797.55 -1.15594 -1.42771 0
M  V30 30234 C 2797.61 -3.38824 1.20159 0
M  V30 30235 C 2797.27 -3.7173 2.6583 0
M  V30 30236 C 2798.27 -3.71137 3.64079 0
M  V30 30237 C 2795.95 -4.01449 3.01901 0
M  V30 30238 C 2797.95 -3.99799 4.96426 0
M  V30 30239 C 2795.64 -4.29773 4.3444 0
M  V30 30240 C 2796.63 -4.28933 5.31512 0
M  V30 30241 O 2796.32 -4.56565 6.61668 0
M  V30 30242 H 2796.05 -0.603373 0.304824 0
M  V30 30243 H 2798.61 -1.44745 1.45733 0
M  V30 30244 H 2796.84 -3.82981 0.535014 0
M  V30 30245 H 2798.53 -3.94951 0.936419 0
M  V30 30246 H 2799.29 -3.48255 3.37556 0
M  V30 30247 H 2795.17 -4.01251 2.26978 0
M  V30 30248 H 2798.72 -3.99059 5.72187 0
M  V30 30249 H 2794.61 -4.52126 4.60708 0
M  V30 30250 H 2795.38 -4.74242 6.67111 0
M  V30 30251 N 2798.04 -0.879253 -1.30793 0
M  V30 30252 C 2798.95 -0.345606 -2.3204 0
M  V30 30253 C 2799.97 0.549236 -1.65104 0
M  V30 30254 O 2801.15 0.443729 -1.96451 0
M  V30 30255 C 2798.21 0.436185 -3.43945 0
M  V30 30256 C 2797.27 -0.487725 -4.2652 0
M  V30 30257 C 2796.5 0.256849 -5.33082 0
M  V30 30258 O 2796.73 1.48371 -5.50765 0
M  V30 30259 O 2795.66 -0.39009 -6.00635 0
M  V30 30260 H 2799.49 -1.18506 -2.79625 0
M  V30 30261 H 2797.07 -0.642909 -1.34859 0
M  V30 30262 H 2798.95 0.879047 -4.1213 0
M  V30 30263 H 2797.63 1.25203 -2.98506 0
M  V30 30264 H 2796.54 -0.97928 -3.61055 0
M  V30 30265 H 2797.87 -1.26942 -4.75549 0
M  V30 30266 N 2799.52 1.44037 -0.639624 0
M  V30 30267 C 2800.93 1.85292 -0.228899 0
M  V30 30268 C 2801.28 1.53531 1.22158 0
M  V30 30269 O 2800.41 0.977552 1.93062 0
M  V30 30270 C 2801 3.36326 -0.408651 0
M  V30 30271 C 2799.56 3.76364 -0.0523615 0
M  V30 30272 C 2798.71 2.67843 -0.718006 0
M  V30 30273 H 2801.66 1.34382 -0.844218 0
M  V30 30274 H 2801.68 3.78888 0.349901 0
M  V30 30275 H 2801.19 3.59411 -1.46442 0
M  V30 30276 H 2799.29 3.58893 1.00134 0
M  V30 30277 H 2799.41 4.76805 -0.468345 0
M  V30 30278 H 2797.77 2.54243 -0.152504 0
M  V30 30279 H 2798.55 2.93759 -1.77653 0
M  V30 30280 N 2801 0.380691 1.52933 0
M  V30 30281 C 2802.25 -0.205442 2.00651 0
M  V30 30282 C 2802.56 -1.4862 1.27167 0
M  V30 30283 O 2803.77 -2.15186 1.65551 0
M  V30 30284 C 2802.22 -0.416663 3.5748 0
M  V30 30285 C 2801.83 0.850346 4.39856 0
M  V30 30286 C 2803.58 -0.959629 4.13511 0
M  V30 30287 C 2801.48 0.607877 5.88268 0
M  V30 30288 H 2800.41 -0.0805482 0.749685 0
M  V30 30289 H 2803.06 0.501763 1.76507 0
M  V30 30290 H 2801.45 -1.1855 3.77838 0
M  V30 30291 H 2802.62 1.62314 4.31266 0
M  V30 30292 H 2800.93 1.31763 3.95003 0
M  V30 30293 H 2803.53 -1.1566 5.22041 0
M  V30 30294 H 2803.87 -1.9262 3.69057 0
M  V30 30295 H 2804.41 -0.250576 3.9701 0
M  V30 30296 H 2801.15 1.5452 6.37027 0
M  V30 30297 H 2800.67 -0.126141 5.99667 0
M  V30 30298 H 2802.35 0.239128 6.46558 0
M  V30 30299 N 2802.48 -1.57214 0.110268 0
M  V30 30300 C 2803.71 -1.99239 -0.557799 0
M  V30 30301 C 2804.12 -0.989762 -1.60777 0
M  V30 30302 O 2803.48 0.0185772 -1.82491 0
M  V30 30303 C 2803.53 -3.41288 -1.19183 0
M  V30 30304 O 2803.25 -4.37714 -0.183842 0
M  V30 30305 C 2804.75 -3.98398 -1.94406 0
M  V30 30306 H 2801.97 -0.654389 -0.14838 0
M  V30 30307 H 2804.51 -2.03577 0.194032 0
M  V30 30308 H 2802.67 -3.37917 -1.8945 0
M  V30 30309 H 2803.08 -5.20539 -0.643383 0
M  V30 30310 H 2804.56 -4.99898 -2.34107 0
M  V30 30311 H 2805.03 -3.37055 -2.81586 0
M  V30 30312 H 2805.64 -4.05289 -1.28921 0
M  V30 30313 N 2803.96 0.163482 -1.5675 0
M  V30 30314 C 2805.18 0.8942 -1.86579 0
M  V30 30315 C 2805.6 1.7548 -0.696574 0
M  V30 30316 O 2804.96 1.79415 0.334129 0
M  V30 30317 C 2805.01 1.76451 -3.15511 0
M  V30 30318 O 2804.73 0.93861 -4.27927 0
M  V30 30319 C 2806.23 2.60422 -3.58741 0
M  V30 30320 H 2803.45 0.259395 -0.618834 0
M  V30 30321 H 2805.99 0.161223 -2.03863 0
M  V30 30322 H 2804.15 2.45073 -3.0003 0
M  V30 30323 H 2804.56 1.53456 -5.01549 0
M  V30 30324 H 2806.04 3.17091 -4.51838 0
M  V30 30325 H 2806.51 3.3567 -2.83235 0
M  V30 30326 H 2807.12 1.97118 -3.76861 0
M  V30 30327 N 2805.43 1.51555 0.432299 0
M  V30 30328 C 2806.66 1.68288 1.20361 0
M  V30 30329 C 2807.08 0.382363 1.84888 0
M  V30 30330 O 2806.43 -0.639597 1.70925 0
M  V30 30331 C 2806.48 2.80212 2.28393 0
M  V30 30332 O 2806.21 4.05225 1.66505 0
M  V30 30333 C 2807.71 3.08257 3.18579 0
M  V30 30334 H 2804.93 0.564603 0.362581 0
M  V30 30335 H 2807.47 1.97997 0.511612 0
M  V30 30336 H 2805.63 2.53088 2.93301 0
M  V30 30337 H 2806.04 4.67422 2.37942 0
M  V30 30338 H 2807.51 3.90141 3.90504 0
M  V30 30339 H 2807.99 2.20867 3.79624 0
M  V30 30340 H 2808.6 3.3706 2.59366 0
M  V30 30341 N 2806.91 -0.688069 1.41786 0
M  V30 30342 C 2807.84 -1.81418 1.47003 0
M  V30 30343 C 2808.82 -1.66909 0.32791 0
M  V30 30344 O 2810.01 -1.8653 0.540395 0
M  V30 30345 C 2807.14 -3.19615 1.35881 0
M  V30 30346 C 2806.09 -3.48839 2.47982 0
M  V30 30347 C 2805.42 -4.86471 2.21923 0
M  V30 30348 C 2806.72 -3.47061 3.90315 0
M  V30 30349 H 2808.41 -1.7731 2.4125 0
M  V30 30350 H 2805.96 -0.851631 1.16117 0
M  V30 30351 H 2807.91 -3.98114 1.38141 0
M  V30 30352 H 2806.63 -3.24368 0.381217 0
M  V30 30353 H 2805.29 -2.72694 2.45017 0
M  V30 30354 H 2804.94 -4.87858 1.22489 0
M  V30 30355 H 2804.64 -5.06989 2.97046 0
M  V30 30356 H 2806.17 -5.67271 2.25911 0
M  V30 30357 H 2807.58 -4.15553 3.94954 0
M  V30 30358 H 2805.98 -3.79112 4.65182 0
M  V30 30359 H 2807.05 -2.45889 4.17932 0
M  V30 30360 N 2808.39 -1.27739 -0.923072 0
M  V30 30361 C 2809.34 -1.10863 -2.0243 0
M  V30 30362 C 2810.31 -0.00838114 -1.66098 0
M  V30 30363 O 2811.49 -0.171575 -1.90027 0
M  V30 30364 C 2808.63 -0.76673 -3.36475 0
M  V30 30365 C 2807.74 -1.94508 -3.85734 0
M  V30 30366 C 2806.88 -1.54464 -5.08246 0
M  V30 30367 C 2805.92 -2.6902 -5.49813 0
M  V30 30368 N 2805.06 -2.29533 -6.6352 0
M  V30 30369 H 2809.9 -2.05092 -2.16197 0
M  V30 30370 H 2807.43 -1.02089 -1.05907 0
M  V30 30371 H 2809.39 -0.549296 -4.13568 0
M  V30 30372 H 2808.02 0.138613 -3.22502 0
M  V30 30373 H 2807.07 -2.27492 -3.04879 0
M  V30 30374 H 2808.38 -2.80426 -4.12508 0
M  V30 30375 H 2807.54 -1.28872 -5.92855 0
M  V30 30376 H 2806.28 -0.656619 -4.8326 0
M  V30 30377 H 2805.28 -2.95321 -4.63752 0
M  V30 30378 H 2806.51 -3.58451 -5.76793 0
M  V30 30379 H 2804.45 -1.43188 -6.40182 0
M  V30 30380 H 2804.37 -3.08989 -6.89972 0
M  V30 30381 H 2805.64 -2.072 -7.51457 0
M  V30 30382 N 2809.87 1.13022 -1.09836 0
M  V30 30383 C 2811.28 1.36387 -0.828899 0
M  V30 30384 C 2811.48 1.93714 0.554722 0
M  V30 30385 O 2810.54 2.15933 1.30879 0
M  V30 30386 C 2811.85 2.31127 -1.92356 0
M  V30 30387 C 2813.4 2.44732 -1.95129 0
M  V30 30388 C 2813.88 3.42782 -3.03751 0
M  V30 30389 N 2815.37 3.50335 -3.03018 0
M  V30 30390 C 2816.1 4.26095 -3.83707 0
M  V30 30391 N 2815.6 5.04973 -4.74315 0
M  V30 30392 N 2817.39 4.21438 -3.71949 0
M  V30 30393 H 2809.54 0.741655 -1.99031 0
M  V30 30394 H 2811.81 0.388888 -0.864564 0
M  V30 30395 H 2811.51 1.96167 -2.9191 0
M  V30 30396 H 2811.39 3.31186 -1.80542 0
M  V30 30397 H 2813.77 2.78975 -0.962118 0
M  V30 30398 H 2813.85 1.44582 -2.11021 0
M  V30 30399 H 2813.5 3.09269 -4.02884 0
M  V30 30400 H 2813.43 4.42747 -2.85102 0
M  V30 30401 H 2815.92 2.94058 -2.37357 0
M  V30 30402 H 2816.23 5.60099 -5.32456 0
M  V30 30403 H 2814.58 5.04191 -4.78348 0
M  V30 30404 H 2817.77 3.58895 -3.0052 0
M  V30 30405 H 2817.94 4.80227 -4.3507 0
M  V30 30406 N 2811.35 0.886177 1.30325 0
M  V30 30407 C 2812.29 0.352109 2.28098 0
M  V30 30408 C 2813.26 -0.558369 1.56434 0
M  V30 30409 O 2814.45 -0.486529 1.84493 0
M  V30 30410 C 2811.59 -0.426285 3.42457 0
M  V30 30411 C 2810.7 0.513547 4.28937 0
M  V30 30412 C 2809.84 -0.280563 5.30459 0
M  V30 30413 C 2808.88 0.654663 6.08589 0
M  V30 30414 N 2808.01 -0.104198 7.02023 0
M  V30 30415 H 2812.85 1.19102 2.73164 0
M  V30 30416 H 2810.39 0.598685 1.34366 0
M  V30 30417 H 2812.35 -0.893515 4.0752 0
M  V30 30418 H 2810.98 -1.22976 2.98457 0
M  V30 30419 H 2810.03 1.09927 3.64171 0
M  V30 30420 H 2811.34 1.22998 4.83397 0
M  V30 30421 H 2810.5 -0.809594 6.01274 0
M  V30 30422 H 2809.23 -1.03021 4.76695 0
M  V30 30423 H 2808.24 1.19531 5.36649 0
M  V30 30424 H 2809.46 1.40342 6.6444 0
M  V30 30425 H 2807.41 -0.836358 6.50647 0
M  V30 30426 H 2807.33 0.552585 7.53978 0
M  V30 30427 H 2808.6 -0.613933 7.77079 0
M  V30 30428 N 2812.82 -1.43695 0.647253 0
M  V30 30429 C 2813.76 -2.29036 -0.086583 0
M  V30 30430 C 2814.77 -1.42179 -0.793026 0
M  V30 30431 O 2815.96 -1.66175 -0.651778 0
M  V30 30432 C 2813.06 -3.18955 -1.14546 0
M  V30 30433 C 2812.23 -4.34318 -0.518345 0
M  V30 30434 C 2811.29 -5.05153 -1.47331 0
M  V30 30435 O 2810.32 -5.60626 -0.984214 0
M  V30 30436 N 2811.52 -5.08099 -2.80741 0
M  V30 30437 H 2814.28 -2.92657 0.645886 0
M  V30 30438 H 2811.84 -1.5432 0.489594 0
M  V30 30439 H 2813.84 -3.63208 -1.78499 0
M  V30 30440 H 2812.41 -2.56974 -1.77997 0
M  V30 30441 H 2811.63 -3.93056 0.300148 0
M  V30 30442 H 2812.91 -5.08737 -0.0803115 0
M  V30 30443 H 2812.31 -4.64392 -3.23043 0
M  V30 30444 H 2810.87 -5.56089 -3.40012 0
M  V30 30445 N 2814.3 -0.388796 -1.52729 0
M  V30 30446 C 2815.21 0.453952 -2.30166 0
M  V30 30447 C 2816.23 1.07194 -1.3706 0
M  V30 30448 O 2817.4 1.07787 -1.70129 0
M  V30 30449 C 2814.47 1.56623 -3.09306 0
M  V30 30450 C 2813.53 0.973393 -4.18119 0
M  V30 30451 C 2812.76 2.03266 -4.93476 0
M  V30 30452 O 2812.99 3.24764 -4.68919 0
M  V30 30453 O 2811.92 1.65024 -5.78836 0
M  V30 30454 H 2815.75 -0.176869 -3.03185 0
M  V30 30455 H 2813.33 -0.152527 -1.48619 0
M  V30 30456 H 2815.21 2.2124 -3.58651 0
M  V30 30457 H 2813.89 2.18202 -2.39101 0
M  V30 30458 H 2812.8 0.290491 -3.7297 0
M  V30 30459 H 2814.13 0.401822 -4.90557 0
M  V30 30460 N 2815.78 1.57153 -0.118604 0
M  V30 30461 C 2816.69 2.18836 0.845446 0
M  V30 30462 C 2817.71 1.1644 1.29297 0
M  V30 30463 O 2818.88 1.48908 1.35604 0
M  V30 30464 C 2815.95 2.77532 2.0779 0
M  V30 30465 C 2815.01 3.94963 1.68233 0
M  V30 30466 C 2814.24 4.5085 2.85604 0
M  V30 30467 O 2814.46 4.05636 4.01018 0
M  V30 30468 O 2813.4 5.4154 2.62712 0
M  V30 30469 H 2817.22 3.0167 0.350515 0
M  V30 30470 H 2814.81 1.49016 0.106987 0
M  V30 30471 H 2816.69 3.1495 2.79972 0
M  V30 30472 H 2815.37 1.9773 2.5629 0
M  V30 30473 H 2814.27 3.62315 0.931599 0
M  V30 30474 H 2815.61 4.762 1.24475 0
M  V30 30475 N 2817.26 -0.155167 1.56834 0
M  V30 30476 C 2818.5 -0.870435 1.8317 0
M  V30 30477 C 2818.84 -1.81185 0.698961 0
M  V30 30478 O 2818.11 -1.92204 -0.298001 0
M  V30 30479 C 2818.4 -1.65205 3.19968 0
M  V30 30480 C 2818.25 -0.732666 4.43793 0
M  V30 30481 C 2819.57 -2.6163 3.5389 0
M  V30 30482 H 2816.69 -0.314995 0.666294 0
M  V30 30483 H 2819.33 -0.135954 1.89513 0
M  V30 30484 H 2817.48 -2.27819 3.14691 0
M  V30 30485 H 2819.15 -0.118154 4.61149 0
M  V30 30486 H 2817.39 -0.0417143 4.3378 0
M  V30 30487 H 2818.06 -1.31542 5.36098 0
M  V30 30488 H 2820.54 -2.09136 3.59724 0
M  V30 30489 H 2819.42 -3.13374 4.50653 0
M  V30 30490 H 2819.68 -3.426 2.79424 0
M  V30 30491 N 2818.74 -1.51782 -0.424256 0
M  V30 30492 C 2819.96 -1.69212 -1.19925 0
M  V30 30493 C 2820.39 -0.394387 -1.83919 0
M  V30 30494 O 2819.74 0.646749 -1.69372 0
M  V30 30495 C 2819.79 -2.81847 -2.24932 0
M  V30 30496 O 2818.9 -2.46362 -3.30726 0
M  V30 30497 H 2818.24 -0.563787 -0.35077 0
M  V30 30498 H 2820.77 -1.98412 -0.499366 0
M  V30 30499 H 2820.78 -3.06317 -2.69507 0
M  V30 30500 H 2819.45 -3.76009 -1.77735 0
M  V30 30501 H 2818.03 -2.3251 -2.91536 0
M  V30 30502 N 2820.21 0.68054 -1.42149 0
M  V30 30503 C 2821.18 1.77599 -1.44883 0
M  V30 30504 C 2822.18 1.57224 -0.337236 0
M  V30 30505 O 2823.37 1.63621 -0.597807 0
M  V30 30506 C 2820.5 3.16164 -1.27489 0
M  V30 30507 H 2821.69 1.76564 -2.42415 0
M  V30 30508 H 2819.25 0.889622 -1.28512 0
M  V30 30509 H 2819.98 3.22829 -0.308567 0
M  V30 30510 H 2819.77 3.32356 -2.08043 0
M  V30 30511 H 2821.26 3.96098 -1.32272 0
M  V30 30512 N 2821.69 1.28226 0.916285 0
M  V30 30513 C 2822.94 1.14611 1.65973 0
M  V30 30514 C 2823.25 -0.305157 1.93205 0
M  V30 30515 O 2824.46 -0.562386 2.65612 0
M  V30 30516 C 2822.92 2.00339 2.98986 0
M  V30 30517 C 2822.52 3.50191 2.79411 0
M  V30 30518 C 2824.27 1.95403 3.76852 0
M  V30 30519 C 2822.18 4.28078 4.08048 0
M  V30 30520 H 2821.11 0.425335 0.62258 0
M  V30 30521 H 2823.76 1.52738 1.01703 0
M  V30 30522 H 2822.14 1.55066 3.64377 0
M  V30 30523 H 2823.31 4.03404 2.22715 0
M  V30 30524 H 2821.63 3.56625 2.1496 0
M  V30 30525 H 2824.22 2.50864 4.72198 0
M  V30 30526 H 2824.57 0.930209 4.05774 0
M  V30 30527 H 2825.1 2.38632 3.18276 0
M  V30 30528 H 2821.84 5.31031 3.843 0
M  V30 30529 H 2821.36 3.79639 4.64364 0
M  V30 30530 H 2823.04 4.37862 4.76325 0
M  V30 30531 N 2823.17 -1.12438 1.10433 0
M  V30 30532 C 2824.42 -1.83304 0.841572 0
M  V30 30533 C 2824.73 -1.85008 -0.634928 0
M  V30 30534 O 2825.94 -2.5187 -1.01359 0
M  V30 30535 C 2824.39 -3.29146 1.45571 0
M  V30 30536 C 2824 -3.35801 2.9655 0
M  V30 30537 C 2825.75 -4.04984 1.27234 0
M  V30 30538 C 2823.65 -4.75977 3.50998 0
M  V30 30539 H 2822.58 -0.686797 0.311168 0
M  V30 30540 H 2825.23 -1.26602 1.32831 0
M  V30 30541 H 2823.62 -3.85715 0.896642 0
M  V30 30542 H 2824.79 -2.89171 3.58771 0
M  V30 30543 H 2823.11 -2.73436 3.14041 0
M  V30 30544 H 2825.7 -5.08489 1.65357 0
M  V30 30545 H 2826.05 -4.1575 0.213907 0
M  V30 30546 H 2826.58 -3.54773 1.79947 0
M  V30 30547 H 2823.32 -4.70405 4.56507 0
M  V30 30548 H 2822.84 -5.2306 2.93544 0
M  V30 30549 H 2824.52 -5.44917 3.48818 0
M  V30 30550 N 2824.65 -0.893076 -1.29853 0
M  V30 30551 C 2825.9 -0.511632 -1.95103 0
M  V30 30552 C 2826.21 0.945537 -1.71228 0
M  V30 30553 O 2827.42 1.4342 -2.30528 0
M  V30 30554 C 2825.87 -0.864095 -3.49373 0
M  V30 30555 C 2825.48 -2.33958 -3.82057 0
M  V30 30556 C 2827.23 -0.552241 -4.20893 0
M  V30 30557 C 2825.13 -2.63325 -5.29541 0
M  V30 30558 H 2824.06 -0.18761 -0.730287 0
M  V30 30559 H 2826.71 -1.08916 -1.4768 0
M  V30 30560 H 2825.1 -0.215562 -3.95413 0
M  V30 30561 H 2826.27 -3.03311 -3.46899 0
M  V30 30562 H 2824.58 -2.61979 -3.2366 0
M  V30 30563 H 2827.18 -0.748582 -5.29434 0
M  V30 30564 H 2827.52 0.508851 -4.13178 0
M  V30 30565 H 2828.06 -1.15832 -3.80562 0
M  V30 30566 H 2824.8 -3.68207 -5.42314 0
M  V30 30567 H 2824.32 -1.9859 -5.6597 0
M  V30 30568 H 2826 -2.49247 -5.97064 0
M  V30 30569 N 2826.13 1.4335 -0.654865 0
M  V30 30570 C 2827.06 2.29079 0.0744354 0
M  V30 30571 C 2828.07 1.42598 0.785475 0
M  V30 30572 O 2829.26 1.66518 0.642956 0
M  V30 30573 C 2826.36 3.19558 1.12853 0
M  V30 30574 C 2825.53 4.34587 0.495305 0
M  V30 30575 C 2824.59 5.05928 1.4465 0
M  V30 30576 O 2823.62 5.6114 0.954468 0
M  V30 30577 N 2824.82 5.09581 2.78043 0
M  V30 30578 H 2827.59 2.92311 -0.661397 0
M  V30 30579 H 2825.15 1.54058 -0.497771 0
M  V30 30580 H 2827.14 3.6415 1.7657 0
M  V30 30581 H 2825.71 2.57915 1.76632 0
M  V30 30582 H 2824.93 3.92891 -0.320989 0
M  V30 30583 H 2826.22 5.08772 0.0533309 0
M  V30 30584 H 2825.62 4.66098 3.20576 0
M  V30 30585 H 2824.17 5.57884 3.37058 0
M  V30 30586 N 2827.61 0.39689 1.52521 0
M  V30 30587 C 2829.02 0.0471939 1.5953 0
M  V30 30588 C 2829.22 -1.43904 1.41046 0
M  V30 30589 O 2828.28 -2.20446 1.23126 0
M  V30 30590 C 2829.59 0.531165 2.95972 0
M  V30 30591 C 2831.14 0.488078 3.09171 0
M  V30 30592 C 2831.61 0.94836 4.48074 0
M  V30 30593 N 2833.1 0.90468 4.54279 0
M  V30 30594 C 2833.84 1.23215 5.60005 0
M  V30 30595 N 2833.34 1.63048 6.7334 0
M  V30 30596 N 2835.13 1.15291 5.50149 0
M  V30 30597 H 2827.28 1.36437 1.62784 0
M  V30 30598 H 2829.54 0.559715 0.76513 0
M  V30 30599 H 2829.25 1.56947 3.14739 0
M  V30 30600 H 2829.12 -0.0657259 3.77143 0
M  V30 30601 H 2831.51 -0.54116 2.90096 0
M  V30 30602 H 2831.59 1.12087 2.29935 0
M  V30 30603 H 2831.23 1.97586 4.67891 0
M  V30 30604 H 2831.16 0.292504 5.25787 0
M  V30 30605 H 2833.66 0.611666 3.72917 0
M  V30 30606 H 2833.97 1.86379 7.49989 0
M  V30 30607 H 2832.31 1.66941 6.74652 0
M  V30 30608 H 2835.5 0.840683 4.60489 0
M  V30 30609 H 2835.68 1.41144 6.32442 0
M  V30 30610 N 2829.08 -1.57088 0.126936 0
M  V30 30611 C 2830.05 -2.14558 -0.806059 0
M  V30 30612 C 2831.05 -1.08239 -1.18916 0
M  V30 30613 O 2832.24 -1.33977 -1.11337 0
M  V30 30614 C 2829.37 -2.69231 -2.09111 0
M  V30 30615 H 2830.56 -2.9833 -0.306469 0
M  V30 30616 H 2828.11 -1.5582 -0.122366 0
M  V30 30617 H 2828.85 -1.8907 -2.63483 0
M  V30 30618 H 2828.63 -3.46996 -1.82581 0
M  V30 30619 H 2830.12 -3.13577 -2.75789 0
M  V30 30620 N 2830.56 0.146848 -1.56914 0
M  V30 30621 C 2831.79 0.873093 -1.87245 0
M  V30 30622 C 2832.2 1.75245 -0.713158 0
M  V30 30623 O 2831.54 1.80781 0.326196 0
M  V30 30624 C 2831.6 1.78102 -3.12282 0
M  V30 30625 C 2831.27 1.07881 -4.44084 0
M  V30 30626 C 2832.27 0.432643 -5.18097 0
M  V30 30627 C 2829.95 1.06827 -4.90809 0
M  V30 30628 C 2831.94 -0.214681 -6.37038 0
M  V30 30629 C 2829.63 0.417136 -6.09675 0
M  V30 30630 C 2830.63 -0.223213 -6.82635 0
M  V30 30631 O 2830.32 -0.864024 -7.99243 0
M  V30 30632 H 2830.05 0.257828 -0.624901 0
M  V30 30633 H 2832.6 0.144304 -2.04892 0
M  V30 30634 H 2830.83 2.55075 -2.90643 0
M  V30 30635 H 2832.52 2.37923 -3.28858 0
M  V30 30636 H 2833.29 0.432592 -4.83067 0
M  V30 30637 H 2829.17 1.55611 -4.33943 0
M  V30 30638 H 2832.71 -0.715087 -6.93925 0
M  V30 30639 H 2828.61 0.414854 -6.44166 0
M  V30 30640 H 2829.38 -0.765708 -8.14911 0
M  V30 30641 N 2832.04 1.52005 0.4162 0
M  V30 30642 C 2833.46 1.4065 0.754295 0
M  V30 30643 C 2833.66 0.505427 1.95058 0
M  V30 30644 O 2832.71 -0.0314613 2.5248 0
M  V30 30645 C 2834.02 2.83057 1.01485 0
M  V30 30646 C 2835.57 2.92352 1.118 0
M  V30 30647 C 2836.05 4.35711 1.41137 0
M  V30 30648 N 2837.54 4.38914 1.48016 0
M  V30 30649 C 2838.27 5.46892 1.72328 0
M  V30 30650 N 2837.77 6.64998 1.94292 0
M  V30 30651 N 2839.56 5.34398 1.74285 0
M  V30 30652 H 2831.71 2.09128 -0.37136 0
M  V30 30653 H 2833.98 0.942297 -0.103828 0
M  V30 30654 H 2833.68 3.51083 0.208283 0
M  V30 30655 H 2833.56 3.23672 1.93692 0
M  V30 30656 H 2835.94 2.24511 1.91517 0
M  V30 30657 H 2836.02 2.55204 0.174465 0
M  V30 30658 H 2835.67 5.04109 0.619395 0
M  V30 30659 H 2835.6 4.70389 2.36731 0
M  V30 30660 H 2838.09 3.53774 1.32861 0
M  V30 30661 H 2838.4 7.43075 2.12272 0
M  V30 30662 H 2836.75 6.68076 1.91571 0
M  V30 30663 H 2839.94 4.41107 1.5666 0
M  V30 30664 H 2840.11 6.18624 1.92894 0
M  V30 30665 N 2833.52 -0.672992 1.42508 0
M  V30 30666 C 2834.93 -0.986333 1.25474 0
M  V30 30667 C 2835.13 -2.00862 0.160217 0
M  V30 30668 O 2834.19 -2.48126 -0.467949 0
M  V30 30669 C 2835.5 -1.48942 2.61222 0
M  V30 30670 C 2837.05 -1.6071 2.68591 0
M  V30 30671 C 2837.53 -2.14414 4.0471 0
M  V30 30672 N 2839.02 -2.21745 4.06674 0
M  V30 30673 C 2839.75 -2.64377 5.08814 0
M  V30 30674 N 2839.25 -3.06449 6.21338 0
M  V30 30675 N 2841.04 -2.64142 4.96171 0
M  V30 30676 H 2833.19 0.00382266 2.124 0
M  V30 30677 H 2835.45 -0.06082 0.946047 0
M  V30 30678 H 2835.16 -0.812752 3.4218 0
M  V30 30679 H 2835.03 -2.46786 2.85266 0
M  V30 30680 H 2837.42 -2.27483 1.87978 0
M  V30 30681 H 2837.5 -0.613509 2.48334 0
M  V30 30682 H 2837.15 -1.4825 4.85782 0
M  V30 30683 H 2837.08 -3.14568 4.22321 0
M  V30 30684 H 2839.57 -1.92084 3.25442 0
M  V30 30685 H 2839.88 -3.37672 6.95124 0
M  V30 30686 H 2838.23 -3.04302 6.2484 0
M  V30 30687 H 2841.42 -2.30637 4.07338 0
M  V30 30688 H 2841.59 -2.97047 5.75906 0
M  V30 30689 N 2835 -1.2871 -0.909472 0
M  V30 30690 C 2836.23 -1.18803 -1.69025 0
M  V30 30691 C 2836.63 0.255297 -1.8747 0
M  V30 30692 O 2835.98 1.18392 -1.4046 0
M  V30 30693 C 2836.04 -1.81942 -3.10061 0
M  V30 30694 C 2835.7 -3.31205 -3.14885 0
M  V30 30695 C 2836.7 -4.27576 -2.95761 0
M  V30 30696 C 2834.38 -3.72236 -3.37262 0
M  V30 30697 C 2836.38 -5.62955 -2.98933 0
M  V30 30698 C 2834.07 -5.07739 -3.40065 0
M  V30 30699 C 2835.06 -6.02908 -3.20921 0
M  V30 30700 O 2834.75 -7.35939 -3.23494 0
M  V30 30701 H 2834.48 -0.413212 -0.535006 0
M  V30 30702 H 2837.04 -1.7043 -1.14642 0
M  V30 30703 H 2835.27 -1.24814 -3.66003 0
M  V30 30704 H 2836.96 -1.66492 -3.70182 0
M  V30 30705 H 2837.72 -3.97211 -2.78295 0
M  V30 30706 H 2833.6 -2.98622 -3.51207 0
M  V30 30707 H 2837.15 -6.37214 -2.83908 0
M  V30 30708 H 2833.04 -5.37753 -3.5706 0
M  V30 30709 H 2833.81 -7.4462 -3.39827 0
M  V30 30710 N 2836.47 1.1185 -1.11028 0
M  V30 30711 C 2837.4 2.19843 -0.786851 0
M  V30 30712 C 2838.38 1.68357 0.242905 0
M  V30 30713 O 2839.57 1.93903 0.107321 0
M  V30 30714 C 2836.7 3.46573 -0.224577 0
M  V30 30715 C 2835.65 4.11248 -1.18572 0
M  V30 30716 C 2834.98 5.32502 -0.484355 0
M  V30 30717 C 2836.28 4.56671 -2.53473 0
M  V30 30718 H 2837.97 2.47155 -1.68982 0
M  V30 30719 H 2835.52 1.18791 -0.813927 0
M  V30 30720 H 2837.47 4.21398 0.0138694 0
M  V30 30721 H 2836.2 3.18707 0.713666 0
M  V30 30722 H 2834.86 3.38412 -1.40972 0
M  V30 30723 H 2834.5 5.00905 0.458558 0
M  V30 30724 H 2834.2 5.76723 -1.12536 0
M  V30 30725 H 2835.73 6.10069 -0.2546 0
M  V30 30726 H 2837.14 5.22839 -2.35186 0
M  V30 30727 H 2835.54 5.11691 -3.13516 0
M  V30 30728 H 2836.61 3.70338 -3.13014 0
M  V30 30729 N 2837.95 0.89995 1.29378 0
M  V30 30730 C 2838.88 0.3945 2.30143 0
M  V30 30731 C 2839.86 -0.530611 1.61612 0
M  V30 30732 O 2841.05 -0.441286 1.8912 0
M  V30 30733 C 2838.18 -0.378619 3.4523 0
M  V30 30734 C 2837.13 0.456087 4.25563 0
M  V30 30735 C 2836.46 -0.444544 5.32849 0
M  V30 30736 C 2837.76 1.70613 4.93648 0
M  V30 30737 H 2839.45 1.23657 2.7267 0
M  V30 30738 H 2837 0.596057 1.31085 0
M  V30 30739 H 2838.95 -0.742964 4.14799 0
M  V30 30740 H 2837.67 -1.25448 3.01547 0
M  V30 30741 H 2836.33 0.802767 3.57703 0
M  V30 30742 H 2835.98 -1.31854 4.85411 0
M  V30 30743 H 2835.68 0.110257 5.87497 0
M  V30 30744 H 2837.21 -0.805076 6.05269 0
M  V30 30745 H 2838.62 1.41151 5.55652 0
M  V30 30746 H 2837.02 2.20227 5.58229 0
M  V30 30747 H 2838.09 2.44197 4.18922 0
M  V30 30748 N 2839.43 -1.43001 0.662458 0
M  V30 30749 C 2840.38 -2.30788 -0.0234918 0
M  V30 30750 C 2841.35 -1.45272 -0.805317 0
M  V30 30751 O 2842.53 -1.74126 -0.78006 0
M  V30 30752 C 2839.67 -3.30967 -0.977487 0
M  V30 30753 C 2838.79 -4.31578 -0.19079 0
M  V30 30754 C 2837.92 -5.18836 -1.13942 0
M  V30 30755 C 2836.96 -6.11134 -0.343688 0
M  V30 30756 N 2836.1 -6.90984 -1.24438 0
M  V30 30757 H 2840.94 -2.88896 0.730972 0
M  V30 30758 H 2838.47 -1.42313 0.372222 0
M  V30 30759 H 2840.43 -3.87566 -1.5443 0
M  V30 30760 H 2839.06 -2.74487 -1.69872 0
M  V30 30761 H 2838.11 -3.77199 0.492455 0
M  V30 30762 H 2839.43 -4.96964 0.427552 0
M  V30 30763 H 2838.58 -5.80106 -1.77656 0
M  V30 30764 H 2837.32 -4.53598 -1.79166 0
M  V30 30765 H 2836.32 -5.48944 0.306747 0
M  V30 30766 H 2837.55 -6.78418 0.30428 0
M  V30 30767 H 2835.49 -6.28386 -1.88325 0
M  V30 30768 H 2835.41 -7.52928 -0.680827 0
M  V30 30769 H 2836.68 -7.56752 -1.86938 0
M  V30 30770 N 2840.91 -0.404973 -1.52308 0
M  V30 30771 C 2841.84 0.457871 -2.2458 0
M  V30 30772 C 2842.85 1.01367 -1.27391 0
M  V30 30773 O 2844.04 0.913323 -1.53364 0
M  V30 30774 C 2841.14 1.64888 -2.96083 0
M  V30 30775 C 2840.32 1.2177 -4.20108 0
M  V30 30776 C 2839.37 2.27514 -4.74472 0
M  V30 30777 O 2838.4 1.88276 -5.3716 0
M  V30 30778 N 2839.6 3.59627 -4.55685 0
M  V30 30779 H 2842.37 -0.161393 -2.99265 0
M  V30 30780 H 2839.93 -0.232135 -1.60227 0
M  V30 30781 H 2841.92 2.35185 -3.29348 0
M  V30 30782 H 2840.49 2.17415 -2.2461 0
M  V30 30783 H 2839.71 0.343002 -3.92705 0
M  V30 30784 H 2841 0.906508 -5.00659 0
M  V30 30785 H 2840.4 3.94259 -4.0568 0
M  V30 30786 H 2838.95 4.25913 -4.93397 0
M  V30 30787 N 2842.39 1.57018 -0.135265 0
M  V30 30788 C 2843.33 2.16162 0.80887 0
M  V30 30789 C 2844.3 1.09115 1.25232 0
M  V30 30790 O 2845.49 1.37101 1.32695 0
M  V30 30791 C 2842.63 2.77817 2.04724 0
M  V30 30792 C 2841.74 3.99221 1.65067 0
M  V30 30793 C 2840.88 4.48911 2.83994 0
M  V30 30794 C 2839.92 5.62808 2.40653 0
M  V30 30795 N 2839.05 6.07168 3.52549 0
M  V30 30796 H 2843.89 2.96509 0.297699 0
M  V30 30797 H 2841.43 1.46477 0.135238 0
M  V30 30798 H 2843.39 3.11702 2.77305 0
M  V30 30799 H 2842.02 2.00133 2.53272 0
M  V30 30800 H 2841.07 3.71391 0.822964 0
M  V30 30801 H 2842.38 4.81769 1.29227 0
M  V30 30802 H 2841.54 4.8479 3.64779 0
M  V30 30803 H 2840.27 3.65345 3.2307 0
M  V30 30804 H 2839.28 5.26517 1.58305 0
M  V30 30805 H 2840.5 6.48151 2.02676 0
M  V30 30806 H 2838.45 5.26541 3.91269 0
M  V30 30807 H 2838.37 6.84614 3.20687 0
M  V30 30808 H 2839.64 6.4769 4.33726 0
M  V30 30809 N 2843.86 -0.138524 1.5699 0
M  V30 30810 C 2845.11 -0.850958 1.84083 0
M  V30 30811 C 2845.44 -1.80434 0.718139 0
M  V30 30812 O 2844.72 -1.92509 -0.277599 0
M  V30 30813 C 2845 -1.61802 3.21702 0
M  V30 30814 C 2844.85 -0.685555 4.44545 0
M  V30 30815 C 2846.17 -2.57862 3.56645 0
M  V30 30816 H 2843.29 -0.30791 0.669597 0
M  V30 30817 H 2845.93 -0.115846 1.89647 0
M  V30 30818 H 2844.08 -2.24469 3.1709 0
M  V30 30819 H 2845.76 -0.0692369 4.61248 0
M  V30 30820 H 2844 0.00429618 4.338 0
M  V30 30821 H 2844.67 -1.25849 5.37463 0
M  V30 30822 H 2847.15 -2.05309 3.61922 0
M  V30 30823 H 2846.02 -3.08576 4.53952 0
M  V30 30824 H 2846.28 -3.39617 2.83042 0
M  V30 30825 N 2845.34 -1.52224 -0.408133 0
M  V30 30826 C 2846.29 -1.75637 -1.49734 0
M  V30 30827 C 2847.26 -0.598851 -1.54929 0
M  V30 30828 O 2848.44 -0.836511 -1.71485 0
M  V30 30829 C 2845.58 -1.91381 -2.87171 0
M  V30 30830 C 2844.7 -3.19032 -2.91277 0
M  V30 30831 C 2843.83 -3.25202 -4.2002 0
M  V30 30832 C 2842.87 -4.47051 -4.18105 0
M  V30 30833 N 2842.01 -4.50608 -5.38421 0
M  V30 30834 H 2846.85 -2.68598 -1.2907 0
M  V30 30835 H 2844.39 -1.33092 -0.626495 0
M  V30 30836 H 2846.34 -1.98493 -3.66956 0
M  V30 30837 H 2844.97 -1.018 -3.06327 0
M  V30 30838 H 2844.03 -3.21087 -2.03978 0
M  V30 30839 H 2845.34 -4.08854 -2.85727 0
M  V30 30840 H 2844.49 -3.31391 -5.08198 0
M  V30 30841 H 2843.23 -2.3332 -4.28267 0
M  V30 30842 H 2842.24 -4.41008 -3.28317 0
M  V30 30843 H 2843.46 -5.40228 -4.11497 0
M  V30 30844 H 2841.41 -3.6161 -5.47334 0
M  V30 30845 H 2841.32 -5.34276 -5.34869 0
M  V30 30846 H 2842.59 -4.61027 -6.28549 0
M  V30 30847 N 2846.82 0.665425 -1.42863 0
M  V30 30848 C 2847.77 1.77871 -1.47073 0
M  V30 30849 C 2848.74 1.62955 -0.321682 0
M  V30 30850 O 2849.92 1.83375 -0.527102 0
M  V30 30851 C 2847.06 3.1596 -1.38793 0
M  V30 30852 C 2846.18 3.42096 -2.63807 0
M  V30 30853 C 2845.31 4.69964 -2.47603 0
M  V30 30854 C 2844.35 4.89166 -3.67944 0
M  V30 30855 N 2843.49 6.08282 -3.50625 0
M  V30 30856 H 2848.33 1.73608 -2.42207 0
M  V30 30857 H 2845.86 0.84738 -1.20241 0
M  V30 30858 H 2847.82 3.95771 -1.31989 0
M  V30 30859 H 2846.45 3.19323 -0.472487 0
M  V30 30860 H 2845.5 2.5647 -2.8094 0
M  V30 30861 H 2846.82 3.52175 -3.53234 0
M  V30 30862 H 2845.97 5.57882 -2.38437 0
M  V30 30863 H 2844.71 4.62185 -1.5568 0
M  V30 30864 H 2843.71 3.99687 -3.77532 0
M  V30 30865 H 2844.94 4.98784 -4.60859 0
M  V30 30866 H 2842.88 6.01658 -2.61427 0
M  V30 30867 H 2842.8 6.19264 -4.33645 0
M  V30 30868 H 2844.07 6.98853 -3.45289 0
M  V30 30869 N 2848.3 1.29191 0.902633 0
M  V30 30870 C 2849.54 1.17165 1.6553 0
M  V30 30871 C 2849.88 -0.276846 1.92217 0
M  V30 30872 O 2849.15 -1.20025 1.5305 0
M  V30 30873 C 2849.44 1.98233 3.00626 0
M  V30 30874 C 2849.29 3.51207 2.81023 0
M  V30 30875 C 2850.61 1.80642 4.01318 0
M  V30 30876 H 2847.73 0.426996 0.600703 0
M  V30 30877 H 2850.37 1.58631 1.04576 0
M  V30 30878 H 2848.52 1.62997 3.52653 0
M  V30 30879 H 2850.19 3.96408 2.3592 0
M  V30 30880 H 2848.43 3.76279 2.15863 0
M  V30 30881 H 2849.1 4.03199 3.77007 0
M  V30 30882 H 2851.58 2.11413 3.58391 0
M  V30 30883 H 2850.46 2.39719 4.93788 0
M  V30 30884 H 2850.72 0.760831 4.35504 0
M  V30 30885 N 2849.78 -1.1126 1.1162 0
M  V30 30886 C 2851 -1.87379 0.889046 0
M  V30 30887 C 2851.43 -1.79699 -0.555852 0
M  V30 30888 O 2850.78 -1.16075 -1.3927 0
M  V30 30889 C 2850.83 -3.34066 1.35765 0
M  V30 30890 O 2849.94 -4.08973 0.530571 0
M  V30 30891 H 2849.28 -0.581753 0.320092 0
M  V30 30892 H 2851.81 -1.40624 1.48613 0
M  V30 30893 H 2851.82 -3.84914 1.35298 0
M  V30 30894 H 2850.49 -3.38972 2.40979 0
M  V30 30895 H 2849.07 -3.68017 0.601503 0
M  V30 30896 N 2851.25 -0.906798 -1.28899 0
M  V30 30897 C 2852.48 -0.551338 -1.99938 0
M  V30 30898 C 2852.9 0.858466 -1.67368 0
M  V30 30899 O 2852.26 1.57258 -0.902204 0
M  V30 30900 C 2852.31 -0.758999 -3.52522 0
M  V30 30901 O 2851.41 0.185236 -4.11984 0
M  V30 30902 H 2850.76 -0.214579 -0.628372 0
M  V30 30903 H 2853.29 -1.22033 -1.64223 0
M  V30 30904 H 2853.3 -0.6664 -4.02521 0
M  V30 30905 H 2851.97 -1.78678 -3.75562 0
M  V30 30906 H 2850.55 0.0444922 -3.72873 0
M  V30 30907 N 2852.73 1.42648 -0.670032 0
M  V30 30908 C 2853.98 2.00826 -0.187561 0
M  V30 30909 C 2854.29 1.53573 1.21139 0
M  V30 30910 O 2855.5 2.04138 1.78997 0
M  V30 30911 C 2853.96 3.58774 -0.284473 0
M  V30 30912 C 2853.56 4.15016 -1.68717 0
M  V30 30913 C 2855.31 4.24271 0.139531 0
M  V30 30914 C 2853.22 5.65313 -1.73711 0
M  V30 30915 H 2852.15 0.751074 -0.06636 0
M  V30 30916 H 2854.8 1.63426 -0.83452 0
M  V30 30917 H 2853.18 3.93655 0.430295 0
M  V30 30918 H 2854.35 3.91604 -2.42864 0
M  V30 30919 H 2852.67 3.61953 -2.05861 0
M  V30 30920 H 2855.26 5.3456 0.122304 0
M  V30 30921 H 2855.61 3.99405 1.17396 0
M  V30 30922 H 2856.14 3.94333 -0.524064 0
M  V30 30923 H 2852.88 5.9497 -2.75119 0
M  V30 30924 H 2852.4 5.9073 -1.03913 0
M  V30 30925 H 2854.08 6.29647 -1.4884 0
M  V30 30926 N 2854.21 0.413044 1.52091 0
M  V30 30927 C 2855.44 -0.160612 2.05975 0
M  V30 30928 C 2855.85 -1.39082 1.28269 0
M  V30 30929 O 2855.19 -1.80733 0.328836 0
M  V30 30930 C 2855.25 -0.572107 3.54919 0
M  V30 30931 C 2854.92 0.547906 4.53704 0
M  V30 30932 C 2855.92 1.41268 5.00339 0
M  V30 30933 C 2853.6 0.721714 4.97088 0
M  V30 30934 C 2855.59 2.43617 5.89007 0
M  V30 30935 C 2853.28 1.74851 5.85551 0
M  V30 30936 C 2854.28 2.60415 6.31406 0
M  V30 30937 O 2853.97 3.61335 7.18117 0
M  V30 30938 H 2853.7 -0.0221817 0.675636 0
M  V30 30939 H 2856.25 0.583765 1.9693 0
M  V30 30940 H 2854.48 -1.36883 3.61663 0
M  V30 30941 H 2856.17 -1.07413 3.9143 0
M  V30 30942 H 2856.94 1.28982 4.67535 0
M  V30 30943 H 2852.82 0.0653721 4.60954 0
M  V30 30944 H 2856.36 3.10436 6.2472 0
M  V30 30945 H 2852.26 1.87167 6.17769 0
M  V30 30946 H 2853.03 3.57626 7.36238 0
M  V30 30947 N 2855.69 -1.56945 0.143591 0
M  V30 30948 C 2856.64 -2.16588 -0.797395 0
M  V30 30949 C 2857.61 -1.09778 -1.24652 0
M  V30 30950 O 2858.79 -1.37803 -1.31966 0
M  V30 30951 C 2855.93 -2.78899 -2.03248 0
M  V30 30952 C 2855.04 -4.0009 -1.62947 0
M  V30 30953 C 2854.18 -4.50411 -2.81609 0
M  V30 30954 C 2853.22 -5.64076 -2.37665 0
M  V30 30955 N 2852.36 -6.0903 -3.49324 0
M  V30 30956 H 2857.2 -2.96663 -0.28197 0
M  V30 30957 H 2854.73 -1.46547 -0.127468 0
M  V30 30958 H 2856.69 -3.13168 -2.75648 0
M  V30 30959 H 2855.32 -2.01473 -2.52207 0
M  V30 30960 H 2854.37 -3.71822 -0.803257 0
M  V30 30961 H 2855.68 -4.82448 -1.26671 0
M  V30 30962 H 2854.84 -4.86717 -3.62203 0
M  V30 30963 H 2853.58 -3.67053 -3.21128 0
M  V30 30964 H 2852.58 -5.27349 -1.5551 0
M  V30 30965 H 2853.81 -6.49216 -1.99236 0
M  V30 30966 H 2851.75 -5.28608 -3.88471 0
M  V30 30967 H 2851.67 -6.86305 -3.17052 0
M  V30 30968 H 2852.94 -6.49981 -4.30285 0
M  V30 30969 N 2857.17 0.130197 -1.57061 0
M  V30 30970 C 2858.11 1.16021 -1.99519 0
M  V30 30971 C 2859.08 1.4177 -0.865477 0
M  V30 30972 O 2860.27 1.53824 -1.12885 0
M  V30 30973 C 2857.41 2.48449 -2.39514 0
M  V30 30974 C 2856.52 2.29731 -3.65852 0
M  V30 30975 C 2855.66 3.55311 -3.94876 0
M  V30 30976 C 2854.7 3.31702 -5.14432 0
M  V30 30977 N 2853.83 4.49456 -5.39383 0
M  V30 30978 H 2858.67 0.791144 -2.87306 0
M  V30 30979 H 2856.21 0.37917 -1.42129 0
M  V30 30980 H 2858.17 3.25687 -2.60736 0
M  V30 30981 H 2856.8 2.8327 -1.54784 0
M  V30 30982 H 2855.85 1.43464 -3.5231 0
M  V30 30983 H 2857.16 2.08255 -4.53245 0
M  V30 30984 H 2856.32 4.40972 -4.16687 0
M  V30 30985 H 2855.06 3.79807 -3.05937 0
M  V30 30986 H 2854.06 2.44431 -4.92477 0
M  V30 30987 H 2855.29 3.08588 -6.04938 0
M  V30 30988 H 2853.23 4.74094 -4.534 0
M  V30 30989 H 2853.15 4.31045 -6.21077 0
M  V30 30990 H 2854.42 5.36283 -5.65704 0
M  V30 30991 N 2858.65 1.52438 0.400055 0
M  V30 30992 C 2859.92 1.57513 1.1597 0
M  V30 30993 C 2860.3 0.361609 2.0798 0
M  V30 30994 O 2859.65 -0.650891 2.19033 0
M  V30 30995 C 2859.86 2.9084 1.92907 0
M  V30 30996 C 2861.21 3.44173 2.48656 0
M  V30 30997 O 2862.23 2.92641 2.03076 0
M  V30 30998 O 2861.09 4.34182 3.31886 0
M  V30 30999 H 2858.19 0.634836 0.530012 0
M  V30 31000 H 2860.73 1.64769 0.406101 0
M  V30 31001 H 2859.5 3.70609 1.25557 0
M  V30 31002 H 2859.13 2.86918 2.75252 0
M  V30 31003 N 2860.12 -0.657839 1.43214 0
M  V30 31004 C 2861.07 -1.77089 1.48014 0
M  V30 31005 C 2862.04 -1.62782 0.33032 0
M  V30 31006 O 2863.23 -1.83093 0.536819 0
M  V30 31007 C 2860.37 -3.15219 1.40467 0
M  V30 31008 C 2859.48 -3.40692 2.65618 0
M  V30 31009 C 2858.61 -4.68645 2.50091 0
M  V30 31010 C 2857.65 -4.87208 3.70533 0
M  V30 31011 N 2856.79 -6.06414 3.53846 0
M  V30 31012 H 2861.63 -1.72321 2.43124 0
M  V30 31013 H 2859.17 -0.840992 1.20689 0
M  V30 31014 H 2861.12 -3.95066 1.34086 0
M  V30 31015 H 2859.75 -3.19068 0.489415 0
M  V30 31016 H 2858.81 -2.54977 2.82296 0
M  V30 31017 H 2860.12 -3.50297 3.55097 0
M  V30 31018 H 2859.27 -5.5661 2.41393 0
M  V30 31019 H 2858.01 -4.61353 1.58129 0
M  V30 31020 H 2857.02 -3.9768 3.79646 0
M  V30 31021 H 2858.24 -4.96333 4.63498 0
M  V30 31022 H 2856.19 -6.00263 2.64614 0
M  V30 31023 H 2856.1 -6.16956 4.36923 0
M  V30 31024 H 2857.37 -6.97012 3.4899 0
M  V30 31025 N 2861.6 -1.29668 -0.895769 0
M  V30 31026 C 2862.85 -1.17634 -1.64337 0
M  V30 31027 C 2863.17 0.271609 -1.93099 0
M  V30 31028 O 2862.44 1.18516 -1.55984 0
M  V30 31029 H 2861.02 -0.432365 -0.609155 0
M  V30 31030 H 2863.68 -1.62648 -1.07386 0
M  V30 31031 H 2862.78 -1.72929 -2.59812 0
M  V30 31032 N 2863.08 1.10667 -1.12208 0
M  V30 31033 C 2864.03 2.1694 -0.787754 0
M  V30 31034 C 2865 1.64292 0.244414 0
M  V30 31035 O 2866.18 1.90425 0.119524 0
M  V30 31036 C 2863.32 3.44223 -0.2459 0
M  V30 31037 C 2862.43 4.10836 -1.33559 0
M  V30 31038 C 2861.57 5.2583 -0.753429 0
M  V30 31039 C 2860.61 5.84341 -1.82241 0
M  V30 31040 N 2859.75 6.90717 -1.25914 0
M  V30 31041 H 2864.59 2.44882 -1.69813 0
M  V30 31042 H 2862.12 1.20205 -0.847883 0
M  V30 31043 H 2864.08 4.17111 0.0862906 0
M  V30 31044 H 2862.71 3.16639 0.627647 0
M  V30 31045 H 2861.76 3.35941 -1.7846 0
M  V30 31046 H 2863.07 4.50369 -2.14404 0
M  V30 31047 H 2862.23 6.0556 -0.371767 0
M  V30 31048 H 2860.97 4.87624 0.086244 0
M  V30 31049 H 2859.97 5.03283 -2.21329 0
M  V30 31050 H 2861.2 6.24612 -2.66526 0
M  V30 31051 H 2859.14 6.54514 -0.441255 0
M  V30 31052 H 2859.06 7.28949 -2.00421 0
M  V30 31053 H 2860.33 7.74233 -0.904634 0
M  V30 31054 N 2864.56 0.913621 1.28416 0
M  V30 31055 C 2865.47 0.407006 2.31042 0
M  V30 31056 C 2866.48 -0.505269 1.66502 0
M  V30 31057 O 2867.66 -0.391487 1.97558 0
M  V30 31058 C 2864.72 -0.344841 3.44981 0
M  V30 31059 C 2863.79 0.600638 4.25077 0
M  V30 31060 C 2863.02 -0.115422 5.33575 0
M  V30 31061 O 2863.24 -1.33717 5.54505 0
M  V30 31062 O 2862.18 0.549201 5.99389 0
M  V30 31063 H 2866 1.25878 2.76385 0
M  V30 31064 H 2863.59 0.678438 1.33107 0
M  V30 31065 H 2865.47 -0.769469 4.14315 0
M  V30 31066 H 2864.14 -1.17245 3.01721 0
M  V30 31067 H 2863.05 1.07466 3.58332 0
M  V30 31068 H 2864.38 1.39506 4.72016 0
M  V30 31069 N 2866.04 -1.4229 0.677588 0
M  V30 31070 C 2867.28 -2.0337 0.20493 0
M  V30 31071 C 2867.64 -1.52432 -1.16741 0
M  V30 31072 O 2868.84 -2.05317 -1.73489 0
M  V30 31073 C 2867.11 -3.56588 0.240805 0
M  V30 31074 S 2868.67 -4.38507 -0.160443 0
M  V30 31075 H 2865.49 -0.70602 0.0840056 0
M  V30 31076 H 2868.09 -1.73997 0.891362 0
M  V30 31077 H 2866.79 -3.91158 1.2419 0
M  V30 31078 H 2866.33 -3.90638 -0.46537 0
M  V30 31079 H 2868.34 -4.76244 -1.39307 0
M  V30 31080 N 2867.51 -0.421104 -1.5187 0
M  V30 31081 C 2868.79 0.209896 -1.94471 0
M  V30 31082 C 2869.17 1.61556 -1.35878 0
M  V30 31083 O 2868.52 2.22044 -0.539333 0
M  V30 31084 C 2868.73 0.204103 -3.48403 0
M  V30 31085 C 2870.08 0.417622 -4.22541 0
M  V30 31086 O 2871.1 0.282937 -3.55075 0
M  V30 31087 O 2869.96 0.684144 -5.42201 0
M  V30 31088 H 2867.05 0.138704 -0.815285 0
M  V30 31089 H 2869.6 -0.477913 -1.62831 0
M  V30 31090 H 2868.37 -0.77925 -3.83462 0
M  V30 31091 H 2867.99 0.935508 -3.86438 0
M  V30 31092 N 2868.99 1.56866 -0.151912 0
M  V30 31093 C 2870.24 1.95894 0.496986 0
M  V30 31094 C 2870.56 1.03802 1.65076 0
M  V30 31095 O 2869.83 0.100525 1.95642 0
M  V30 31096 H 2868.41 0.723321 0.18659 0
M  V30 31097 H 2871.07 1.93555 -0.228559 0
M  V30 31098 H 2870.17 2.99732 0.86988 0
M  V30 31099 N 2870.47 -0.121866 1.57128 0
M  V30 31100 C 2871.7 -0.844418 1.88884 0
M  V30 31101 C 2872.11 -1.73572 0.742854 0
M  V30 31102 O 2871.47 -1.80238 -0.286443 0
M  V30 31103 C 2871.52 -1.68023 3.20079 0
M  V30 31104 O 2871.24 -0.824823 4.30265 0
M  V30 31105 C 2872.74 -2.50819 3.6552 0
M  V30 31106 H 2869.96 -0.242896 0.625494 0
M  V30 31107 H 2872.51 -0.107115 2.04219 0
M  V30 31108 H 2870.66 -2.37032 3.06422 0
M  V30 31109 H 2871.08 -1.40104 5.05441 0
M  V30 31110 H 2872.55 -3.05 4.60086 0
M  V30 31111 H 2873.03 -3.28043 2.92035 0
M  V30 31112 H 2873.63 -1.87057 3.81955 0
M  V30 31113 N 2871.95 -1.52648 -0.391965 0
M  V30 31114 C 2873.36 -1.59522 -0.970036 0
M  V30 31115 C 2873.71 -0.44624 -1.91058 0
M  V30 31116 O 2872.84 0.431088 -2.12063 0
M  V30 31117 C 2873.43 -2.89128 -1.76609 0
M  V30 31118 C 2871.99 -2.98424 -2.29391 0
M  V30 31119 C 2871.14 -2.5461 -1.09859 0
M  V30 31120 H 2874.09 -1.57769 -0.17161 0
M  V30 31121 H 2874.11 -2.75447 -2.62506 0
M  V30 31122 H 2873.62 -3.72733 -1.08129 0
M  V30 31123 H 2871.72 -2.1935 -3.01192 0
M  V30 31124 H 2871.83 -4.03006 -2.59081 0
M  V30 31125 H 2870.2 -2.0886 -1.45773 0
M  V30 31126 H 2870.98 -3.40607 -0.42919 0
M  V30 31127 N 2873.43 0.650235 -1.43561 0
M  V30 31128 C 2874.68 1.40597 -1.44621 0
M  V30 31129 C 2874.99 1.95455 -0.0752989 0
M  V30 31130 O 2876.19 2.71475 0.0366354 0
M  V30 31131 C 2874.65 2.5446 -2.54515 0
M  V30 31132 C 2874.26 2.06197 -3.97727 0
M  V30 31133 C 2876 3.31806 -2.64773 0
M  V30 31134 C 2873.91 3.17289 -4.99081 0
M  V30 31135 H 2872.84 0.528281 -0.537992 0
M  V30 31136 H 2875.49 0.701531 -1.69561 0
M  V30 31137 H 2873.87 3.2739 -2.22783 0
M  V30 31138 H 2875.05 1.4026 -4.38935 0
M  V30 31139 H 2873.36 1.41722 -3.9154 0
M  V30 31140 H 2875.96 4.14587 -3.37671 0
M  V30 31141 H 2876.3 3.80033 -1.69943 0
M  V30 31142 H 2876.83 2.65959 -2.95822 0
M  V30 31143 H 2873.57 2.74027 -5.95474 0
M  V30 31144 H 2873.09 3.81929 -4.62482 0
M  V30 31145 H 2874.77 3.82373 -5.21919 0
M  V30 31146 N 2874.9 1.30141 0.88888 0
M  V30 31147 C 2875.85 1.16191 1.9942 0
M  V30 31148 C 2876.82 0.0524161 1.66017 0
M  V30 31149 O 2878.01 0.221897 1.89505 0
M  V30 31150 C 2875.15 0.855671 3.34324 0
M  V30 31151 C 2874.26 2.04667 3.80441 0
M  V30 31152 C 2873.39 1.67885 5.03972 0
M  V30 31153 C 2872.43 2.83503 5.42487 0
M  V30 31154 N 2871.57 2.47044 6.57201 0
M  V30 31155 H 2876.41 2.10752 2.10683 0
M  V30 31156 H 2873.95 1.04861 1.03163 0
M  V30 31157 H 2875.91 0.658753 4.11966 0
M  V30 31158 H 2874.54 -0.0530588 3.22756 0
M  V30 31159 H 2873.59 2.35496 2.98741 0
M  V30 31160 H 2874.9 2.91265 4.04928 0
M  V30 31161 H 2874.05 1.44545 5.8923 0
M  V30 31162 H 2872.79 0.784515 4.81349 0
M  V30 31163 H 2871.8 3.07513 4.55759 0
M  V30 31164 H 2873.02 3.73617 5.67086 0
M  V30 31165 H 2870.97 1.60111 6.36161 0
M  V30 31166 H 2870.89 3.27173 6.81538 0
M  V30 31167 H 2872.15 2.27051 7.457 0
M  V30 31168 N 2876.38 -1.1007 1.12794 0
M  V30 31169 C 2877.29 -2.20084 0.812407 0
M  V30 31170 C 2878.31 -1.72843 -0.200319 0
M  V30 31171 O 2879.48 -2.01373 -0.0329908 0
M  V30 31172 C 2876.55 -3.45602 0.275746 0
M  V30 31173 C 2875.61 -4.07558 1.34888 0
M  V30 31174 C 2874.84 -5.27084 0.837731 0
M  V30 31175 O 2875.07 -5.69461 -0.327124 0
M  V30 31176 O 2874 -5.79994 1.60904 0
M  V30 31177 H 2877.83 -2.49514 1.73137 0
M  V30 31178 H 2875.41 -1.18879 0.904884 0
M  V30 31179 H 2877.29 -4.21396 -0.0184635 0
M  V30 31180 H 2875.97 -3.1779 -0.615727 0
M  V30 31181 H 2874.88 -3.33431 1.69631 0
M  V30 31182 H 2876.21 -4.39581 2.21425 0
M  V30 31183 N 2877.86 -0.920419 -1.2793 0
M  V30 31184 C 2879.14 -0.475721 -1.89727 0
M  V30 31185 C 2879.52 1.04584 -1.83372 0
M  V30 31186 O 2878.87 1.89683 -1.27408 0
M  V30 31187 C 2879.08 -1.0136 -3.33957 0
M  V30 31188 C 2880.42 -1.0697 -4.10905 0
M  V30 31189 O 2881.45 -0.962707 -3.42944 0
M  V30 31190 O 2880.31 -1.23352 -5.32397 0
M  V30 31191 H 2877.4 -0.151859 -0.812938 0
M  V30 31192 H 2879.95 -1.01164 -1.3625 0
M  V30 31193 H 2878.72 -2.05752 -3.32839 0
M  V30 31194 H 2878.34 -0.458898 -3.94943 0
M  V30 31195 N 2879.34 1.41929 -0.685124 0
M  V30 31196 C 2880.57 2.05723 -0.220408 0
M  V30 31197 C 2880.98 1.51518 1.1264 0
M  V30 31198 O 2880.34 0.659144 1.70181 0
M  V30 31199 C 2880.39 3.61154 -0.158038 0
M  V30 31200 O 2880.11 4.13351 -1.45163 0
M  V30 31201 C 2881.61 4.42078 0.328931 0
M  V30 31202 H 2878.83 0.662775 -0.104737 0
M  V30 31203 H 2881.38 1.81885 -0.934768 0
M  V30 31204 H 2879.53 3.84067 0.507076 0
M  V30 31205 H 2879.94 5.0731 -1.33181 0
M  V30 31206 H 2881.42 5.51063 0.321462 0
M  V30 31207 H 2881.9 4.17417 1.36601 0
M  V30 31208 H 2882.5 4.24206 -0.304811 0
M  V30 31209 N 2880.82 0.429152 1.51644 0
M  V30 31210 C 2881.75 -0.377107 2.30435 0
M  V30 31211 C 2882.73 -1.02836 1.35495 0
M  V30 31212 O 2883.91 -1.03356 1.64412 0
M  V30 31213 C 2881.04 -1.4831 3.14041 0
M  V30 31214 C 2880 -0.955782 4.17192 0
M  V30 31215 C 2879.32 -2.1569 4.89267 0
M  V30 31216 C 2880.62 0.00411317 5.223 0
M  V30 31217 H 2882.32 0.280388 2.98084 0
M  V30 31218 H 2879.86 0.13629 1.43354 0
M  V30 31219 H 2881.82 -2.05428 3.67936 0
M  V30 31220 H 2880.54 -2.16876 2.44197 0
M  V30 31221 H 2879.2 -0.406865 3.64335 0
M  V30 31222 H 2878.85 -2.82857 4.15934 0
M  V30 31223 H 2878.55 -1.81049 5.59012 0
M  V30 31224 H 2880.07 -2.73377 5.45983 0
M  V30 31225 H 2881.48 -0.476507 5.71316 0
M  V30 31226 H 2879.88 0.262685 5.99525 0
M  V30 31227 H 2880.95 0.94332 4.75636 0
M  V30 31228 N 2882.29 -1.56783 0.160229 0
M  V30 31229 C 2883.54 -1.95718 -0.487585 0
M  V30 31230 C 2883.86 -1.04833 -1.65134 0
M  V30 31231 O 2885.06 -1.33402 -2.36466 0
M  V30 31232 C 2883.52 -3.47974 -0.918818 0
M  V30 31233 C 2883.13 -4.47466 0.218733 0
M  V30 31234 C 2884.87 -3.95749 -1.53568 0
M  V30 31235 C 2882.78 -5.90947 -0.23151 0
M  V30 31236 H 2881.71 -0.730717 -0.185926 0
M  V30 31237 H 2884.36 -1.81834 0.246689 0
M  V30 31238 H 2882.74 -3.57237 -1.70874 0
M  V30 31239 H 2883.91 -4.49909 0.995904 0
M  V30 31240 H 2882.23 -4.09684 0.744839 0
M  V30 31241 H 2884.83 -5.00395 -1.88439 0
M  V30 31242 H 2885.17 -3.38052 -2.42953 0
M  V30 31243 H 2885.7 -3.89458 -0.810398 0
M  V30 31244 H 2882.44 -6.52492 0.627295 0
M  V30 31245 H 2881.96 -5.91834 -0.974275 0
M  V30 31246 H 2883.64 -6.43426 -0.679107 0
M  V30 31247 N 2883.77 0.113531 -1.57191 0
M  V30 31248 C 2885.05 0.850968 -1.76119 0
M  V30 31249 C 2885.43 1.97812 -0.73712 0
M  V30 31250 O 2884.78 2.27258 0.237902 0
M  V30 31251 C 2884.99 1.3626 -3.21301 0
M  V30 31252 C 2886.34 1.81276 -3.83958 0
M  V30 31253 O 2887.36 1.45927 -3.24937 0
M  V30 31254 O 2886.22 2.46576 -4.87711 0
M  V30 31255 H 2883.31 0.404516 -0.721315 0
M  V30 31256 H 2885.86 0.0968458 -1.69423 0
M  V30 31257 H 2884.63 0.554167 -3.87356 0
M  V30 31258 H 2884.25 2.17928 -3.32556 0
M  V30 31259 N 2885.25 1.52854 0.383864 0
M  V30 31260 C 2886.2 1.77997 1.46921 0
M  V30 31261 C 2887.17 0.623423 1.53957 0
M  V30 31262 O 2888.35 0.863687 1.70133 0
M  V30 31263 C 2885.49 1.95926 2.8409 0
M  V30 31264 C 2884.61 3.23626 2.86165 0
M  V30 31265 C 2883.74 3.31843 4.14794 0
M  V30 31266 C 2882.78 4.53646 4.1094 0
M  V30 31267 N 2881.92 4.59116 5.31184 0
M  V30 31268 H 2886.76 2.70617 1.24781 0
M  V30 31269 H 2884.29 1.34072 0.605242 0
M  V30 31270 H 2886.25 2.04305 3.63751 0
M  V30 31271 H 2884.88 1.06661 3.04669 0
M  V30 31272 H 2883.93 3.24292 1.98844 0
M  V30 31273 H 2885.25 4.13348 2.79187 0
M  V30 31274 H 2884.4 3.39434 5.02861 0
M  V30 31275 H 2883.14 2.40104 4.24501 0
M  V30 31276 H 2882.14 4.46175 3.2126 0
M  V30 31277 H 2883.37 5.46707 4.02851 0
M  V30 31278 H 2881.32 3.70272 5.41512 0
M  V30 31279 H 2881.23 5.42718 5.26302 0
M  V30 31280 H 2882.5 4.70969 6.21135 0
M  V30 31281 N 2886.73 -0.642612 1.43904 0
M  V30 31282 C 2887.66 -1.76649 1.527 0
M  V30 31283 C 2888.64 -1.65782 0.380845 0
M  V30 31284 O 2889.83 -1.84716 0.599464 0
M  V30 31285 C 2886.96 -3.1513 1.45981 0
M  V30 31286 C 2885.91 -3.40773 2.58955 0
M  V30 31287 C 2885.24 -4.79165 2.37288 0
M  V30 31288 C 2886.54 -3.34468 4.01159 0
M  V30 31289 H 2888.23 -1.69545 2.46769 0
M  V30 31290 H 2885.78 -0.814258 1.18768 0
M  V30 31291 H 2887.73 -3.93518 1.50737 0
M  V30 31292 H 2886.45 -3.22991 0.484219 0
M  V30 31293 H 2885.11 -2.64761 2.53569 0
M  V30 31294 H 2884.76 -4.83714 1.37947 0
M  V30 31295 H 2884.46 -4.97282 3.13025 0
M  V30 31296 H 2885.98 -5.59797 2.43844 0
M  V30 31297 H 2887.4 -4.02777 4.07975 0
M  V30 31298 H 2885.79 -3.64121 4.77007 0
M  V30 31299 H 2886.86 -2.32468 4.25543 0
M  V30 31300 N 2888.21 -1.30611 -0.881966 0
M  V30 31301 C 2889.16 -1.17158 -2.00939 0
M  V30 31302 C 2890.15 -0.0827452 -1.69198 0
M  V30 31303 O 2891.36 -0.243806 -1.78341 0
M  V30 31304 H 2887.73 -0.362418 -0.658906 0
M  V30 31305 H 2889.7 -2.1257 -2.09419 0
M  V30 31306 C 2888.45 -0.883332 -3.36292 0
M  V30 31307 H 2887.77 -1.71326 -3.6123 0
M  V30 31308 H 2889.21 -0.829328 -4.1581 0
M  V30 31309 C 2887.67 0.413793 -3.34349 0
M  V30 31310 O 2888.2 1.43437 -3.75218 0
M  V30 31311 N 2886.41 0.426032 -2.8746 0
M  V30 31312 H 2885.96 -0.404974 -2.54397 0
M  V30 31313 H 2885.91 1.29386 -2.86543 0
M  V30 31314 N 2889.69 1.0947 -1.13376 0
M  V30 31315 C 2890.6 2.1965 -0.824068 0
M  V30 31316 C 2891.61 1.72947 0.191149 0
M  V30 31317 O 2892.79 2.01388 0.022311 0
M  V30 31318 C 2889.85 3.45451 -0.29407 0
M  V30 31319 C 2888.91 4.06837 -1.37047 0
M  V30 31320 C 2888.15 5.26633 -0.865672 0
M  V30 31321 O 2888.37 5.69627 0.29692 0
M  V30 31322 O 2887.3 5.79133 -1.63978 0
M  V30 31323 H 2891.13 2.48592 -1.74458 0
M  V30 31324 H 2888.71 1.18397 -0.911176 0
M  V30 31325 H 2890.6 4.214 -0.00388446 0
M  V30 31326 H 2889.27 3.18112 0.598865 0
M  V30 31327 H 2888.18 3.32527 -1.71397 0
M  V30 31328 H 2889.51 4.38401 -2.23754 0
M  V30 31329 N 2891.16 0.92719 1.2744 0
M  V30 31330 C 2892.11 0.416373 2.28843 0
M  V30 31331 C 2893.11 -0.499028 1.61883 0
M  V30 31332 O 2894.31 -0.378786 1.75969 0
M  V30 31333 H 2890.69 0.116078 0.742987 0
M  V30 31334 H 2892.66 1.28443 2.69342 0
M  V30 31335 C 2891.41 -0.316046 3.46261 0
M  V30 31336 H 2890.73 0.379152 3.97998 0
M  V30 31337 H 2892.17 -0.637901 4.19174 0
M  V30 31338 C 2890.63 -1.52884 3.00213 0
M  V30 31339 O 2891.16 -2.62761 3.03841 0
M  V30 31340 N 2889.36 -1.3805 2.55716 0
M  V30 31341 H 2888.91 -0.486556 2.52963 0
M  V30 31342 H 2888.87 -2.19321 2.25268 0
M  V30 31343 N 2892.64 -1.41564 0.692641 0
M  V30 31344 C 2893.87 -2.06123 0.229813 0
M  V30 31345 C 2894.29 -1.51772 -1.11117 0
M  V30 31346 O 2893.65 -0.643474 -1.69497 0
M  V30 31347 C 2893.7 -3.60074 0.194753 0
M  V30 31348 O 2892.8 -4.03935 -0.831295 0
M  V30 31349 H 2892.14 -0.654312 0.113014 0
M  V30 31350 H 2894.67 -1.81381 0.946677 0
M  V30 31351 H 2894.68 -4.07993 0.0246204 0
M  V30 31352 H 2893.36 -3.99002 1.17346 0
M  V30 31353 H 2891.93 -3.67527 -0.630754 0
M  V30 31354 N 2894.12 -0.437188 -1.51415 0
M  V30 31355 C 2895.35 0.128008 -2.06504 0
M  V30 31356 C 2895.76 1.36473 -1.30463 0
M  V30 31357 O 2895.12 1.7883 -0.364158 0
M  V30 31358 C 2895.17 0.450374 -3.58684 0
M  V30 31359 O 2894.89 -0.737262 -4.31852 0
M  V30 31360 C 2896.39 1.06626 -4.30286 0
M  V30 31361 H 2893.61 0.0079909 -0.670952 0
M  V30 31362 H 2896.16 -0.616227 -1.94995 0
M  V30 31363 H 2894.31 1.14451 -3.70108 0
M  V30 31364 H 2894.73 -0.461439 -5.22466 0
M  V30 31365 H 2896.2 1.24182 -5.3785 0
M  V30 31366 H 2896.68 2.04723 -3.88568 0
M  V30 31367 H 2897.28 0.41151 -4.23304 0
M  V30 31368 N 2895.6 1.56696 -0.168541 0
M  V30 31369 C 2897.01 1.83415 0.348662 0
M  V30 31370 C 2897.36 1.08823 1.63255 0
M  V30 31371 O 2896.48 0.34037 2.13706 0
M  V30 31372 C 2897.08 3.32712 0.639365 0
M  V30 31373 C 2895.64 3.59937 1.10102 0
M  V30 31374 C 2894.79 2.76969 0.135415 0
M  V30 31375 H 2897.74 1.53761 -0.392856 0
M  V30 31376 H 2897.76 3.5004 1.49173 0
M  V30 31377 H 2897.27 3.86975 -0.295241 0
M  V30 31378 H 2895.37 3.11082 2.05082 0
M  V30 31379 H 2895.48 4.68288 1.0121 0
M  V30 31380 H 2893.85 2.46728 0.632242 0
M  V30 31381 H 2894.63 3.34012 -0.793162 0
M  V30 31382 N 2897.08 -0.105193 1.57249 0
M  V30 31383 C 2897.99 -1.14689 2.04655 0
M  V30 31384 C 2899 -1.44487 0.969513 0
M  V30 31385 O 2900.18 -1.55329 1.28199 0
M  V30 31386 C 2897.24 -2.45006 2.45301 0
M  V30 31387 C 2896.3 -2.22482 3.67151 0
M  V30 31388 C 2895.54 -3.46585 4.0585 0
M  V30 31389 O 2895.76 -4.54431 3.44744 0
M  V30 31390 O 2894.69 -3.3677 4.98868 0
M  V30 31391 H 2898.52 -0.774285 2.93664 0
M  V30 31392 H 2896.1 -0.316984 1.45999 0
M  V30 31393 H 2897.99 -3.21761 2.72117 0
M  V30 31394 H 2896.66 -2.81714 1.59433 0
M  V30 31395 H 2895.57 -1.43541 3.45466 0
M  V30 31396 H 2896.9 -1.90672 4.53767 0
M  V30 31397 N 2898.55 -1.53055 -0.375752 0
M  V30 31398 C 2899.5 -1.78774 -1.45974 0
M  V30 31399 C 2900.47 -0.631579 -1.53624 0
M  V30 31400 O 2901.66 -0.872697 -1.69672 0
M  V30 31401 C 2898.8 -1.97429 -2.83047 0
M  V30 31402 C 2897.91 -3.25139 -2.84445 0
M  V30 31403 C 2897.04 -3.34038 -4.13028 0
M  V30 31404 C 2896.08 -4.55819 -4.08528 0
M  V30 31405 N 2895.22 -4.61927 -5.28742 0
M  V30 31406 H 2900.06 -2.71275 -1.23344 0
M  V30 31407 H 2897.6 -1.34391 -0.598123 0
M  V30 31408 H 2899.56 -2.06232 -3.62663 0
M  V30 31409 H 2898.19 -1.08275 -3.04099 0
M  V30 31410 H 2897.24 -3.25342 -1.97122 0
M  V30 31411 H 2898.55 -4.14822 -2.76991 0
M  V30 31412 H 2897.7 -3.42096 -5.01054 0
M  V30 31413 H 2896.44 -2.42352 -4.23222 0
M  V30 31414 H 2895.45 -4.47872 -3.18889 0
M  V30 31415 H 2896.67 -5.48835 -3.99946 0
M  V30 31416 H 2894.62 -3.73138 -5.3954 0
M  V30 31417 H 2894.54 -5.45501 -5.23416 0
M  V30 31418 H 2895.8 -4.74256 -6.18629 0
M  V30 31419 N 2900.03 0.634971 -1.44242 0
M  V30 31420 C 2901.26 1.4219 -1.50298 0
M  V30 31421 C 2901.68 1.88375 -0.126613 0
M  V30 31422 O 2901.03 1.60604 0.866752 0
M  V30 31423 C 2901.08 2.64478 -2.46442 0
M  V30 31424 O 2900.8 2.20219 -3.78728 0
M  V30 31425 C 2902.31 3.57646 -2.61924 0
M  V30 31426 H 2899.53 0.436201 -0.509872 0
M  V30 31427 H 2902.07 0.776887 -1.89168 0
M  V30 31428 H 2900.22 3.25079 -2.10718 0
M  V30 31429 H 2900.64 2.99472 -4.306 0
M  V30 31430 H 2902.11 4.40068 -3.33233 0
M  V30 31431 H 2902.59 4.06201 -1.67024 0
M  V30 31432 H 2903.2 3.02916 -2.98533 0
M  V30 31433 N 2901.51 1.31076 0.875027 0
M  V30 31434 C 2902.79 1.11116 1.60974 0
M  V30 31435 C 2903.17 -0.335969 2.08409 0
M  V30 31436 O 2902.52 -1.32921 1.85861 0
M  V30 31437 C 2902.73 2.12089 2.77163 0
M  V30 31438 C 2904.07 2.44341 3.4725 0
M  V30 31439 O 2905.1 2.10477 2.87364 0
M  V30 31440 O 2903.96 3.02309 4.55271 0
M  V30 31441 H 2901.05 0.427436 0.707974 0
M  V30 31442 H 2903.6 1.42537 0.920932 0
M  V30 31443 H 2902.37 3.09453 2.39488 0
M  V30 31444 H 2901.99 1.81544 3.53734 0
M  V30 31445 N 2902.99 -1.08867 1.13955 0
M  V30 31446 C 2903.92 -2.14967 0.765803 0
M  V30 31447 C 2904.9 -1.60656 -0.25066 0
M  V30 31448 O 2906.08 -1.87973 -0.140819 0
M  V30 31449 C 2903.21 -3.38426 0.136206 0
M  V30 31450 C 2902.26 -4.11475 1.12208 0
M  V30 31451 S 2903.09 -4.64923 2.65719 0
M  V30 31452 C 2904.25 -5.91675 2.04136 0
M  V30 31453 H 2904.48 -2.46338 1.66448 0
M  V30 31454 H 2902.01 -1.20905 0.960284 0
M  V30 31455 H 2903.97 -4.09907 -0.22064 0
M  V30 31456 H 2902.63 -3.05263 -0.739833 0
M  V30 31457 H 2901.82 -5.00053 0.629486 0
M  V30 31458 H 2901.43 -3.45884 1.42268 0
M  V30 31459 H 2903.72 -6.63005 1.39392 0
M  V30 31460 H 2904.66 -6.45624 2.90819 0
M  V30 31461 H 2905.07 -5.44464 1.4906 0
M  V30 31462 N 2904.47 -0.933936 -1.26946 0
M  V30 31463 C 2905.69 -0.594175 -1.98185 0
M  V30 31464 C 2906.11 0.829228 -1.69615 0
M  V30 31465 O 2905.47 1.55195 -0.960241 0
M  V30 31466 C 2905.52 -0.818088 -3.52122 0
M  V30 31467 O 2905.24 -2.1855 -3.79694 0
M  V30 31468 C 2906.74 -0.487887 -4.40607 0
M  V30 31469 H 2903.96 -0.22458 -0.632301 0
M  V30 31470 H 2906.5 -1.25266 -1.61643 0
M  V30 31471 H 2904.66 -0.206314 -3.8685 0
M  V30 31472 H 2905.07 -2.24013 -4.74256 0
M  V30 31473 H 2906.55 -0.695222 -5.47604 0
M  V30 31474 H 2907.02 0.576837 -4.35395 0
M  V30 31475 H 2907.63 -1.07807 -4.11409 0
M  V30 31476 N 2905.94 1.41194 -0.700139 0
M  V30 31477 C 2907.36 1.84154 -0.307281 0
M  V30 31478 C 2907.71 1.58574 1.15537 0
M  V30 31479 O 2906.83 1.05856 1.88742 0
M  V30 31480 C 2907.43 3.34291 -0.550931 0
M  V30 31481 C 2905.99 3.75803 -0.211943 0
M  V30 31482 C 2905.13 2.64557 -0.830961 0
M  V30 31483 H 2908.08 1.30681 -0.900454 0
M  V30 31484 H 2908.1 3.80031 0.188887 0
M  V30 31485 H 2907.62 3.52877 -1.61554 0
M  V30 31486 H 2905.72 3.62817 0.848219 0
M  V30 31487 H 2905.83 4.7439 -0.670153 0
M  V30 31488 H 2904.19 2.53367 -0.260199 0
M  V30 31489 H 2904.98 2.8596 -1.89953 0
M  V30 31490 N 2907.42 0.445212 1.51181 0
M  V30 31491 C 2908.65 -0.119409 2.07056 0
M  V30 31492 C 2909.07 -1.35014 1.30969 0
M  V30 31493 O 2908.43 -1.77892 0.349859 0
M  V30 31494 C 2908.48 -0.412365 3.58234 0
M  V30 31495 O 2907.58 -1.49747 3.84252 0
M  V30 31496 H 2906.92 0.00158965 0.663998 0
M  V30 31497 H 2909.45 0.628813 1.94697 0
M  V30 31498 H 2909.46 -0.660513 4.02618 0
M  V30 31499 H 2908.14 0.487121 4.13037 0
M  V30 31500 H 2906.72 -1.23867 3.51726 0
M  V30 31501 N 2908.9 -1.56605 0.176849 0
M  V30 31502 C 2910.13 -2.01426 -0.472793 0
M  V30 31503 C 2910.54 -1.05706 -1.56434 0
M  V30 31504 O 2909.9 -0.05884 -1.82405 0
M  V30 31505 C 2909.95 -3.46036 -1.04601 0
M  V30 31506 O 2909.67 -4.381 0.00197309 0
M  V30 31507 C 2911.17 -4.06285 -1.77333 0
M  V30 31508 H 2908.39 -0.660093 -0.120492 0
M  V30 31509 H 2910.94 -2.02571 0.280202 0
M  V30 31510 H 2909.09 -3.45648 -1.74947 0
M  V30 31511 H 2909.51 -5.22799 -0.422026 0
M  V30 31512 H 2910.98 -5.09377 -2.12694 0
M  V30 31513 H 2911.46 -3.48694 -2.67037 0
M  V30 31514 H 2912.06 -4.10393 -1.11616 0
M  V30 31515 N 2910.38 0.0968524 -1.57302 0
M  V30 31516 C 2911.61 0.814261 -1.90204 0
M  V30 31517 C 2912.02 1.72368 -0.770374 0
M  V30 31518 O 2911.38 1.80671 0.257732 0
M  V30 31519 C 2911.43 1.6291 -3.22711 0
M  V30 31520 O 2911.15 0.756267 -4.31523 0
M  V30 31521 C 2912.65 2.44972 -3.69464 0
M  V30 31522 H 2909.87 0.232914 -0.629279 0
M  V30 31523 H 2912.42 0.0746122 -2.04364 0
M  V30 31524 H 2910.57 2.32128 -3.10154 0
M  V30 31525 H 2910.98 1.32046 -5.07606 0
M  V30 31526 H 2912.46 2.97641 -4.6488 0
M  V30 31527 H 2912.94 3.23355 -2.97217 0
M  V30 31528 H 2913.54 1.80957 -3.84883 0
M  V30 31529 N 2911.86 1.53252 0.36763 0
M  V30 31530 C 2913.08 1.73546 1.13562 0
M  V30 31531 C 2913.51 0.462376 1.82329 0
M  V30 31532 O 2912.86 -0.583442 1.71656 0
M  V30 31533 C 2912.91 2.90001 2.14317 0
M  V30 31534 O 2912.02 2.58467 3.21355 0
M  V30 31535 H 2911.36 0.576418 0.329604 0
M  V30 31536 H 2913.89 2.00129 0.425382 0
M  V30 31537 H 2913.9 3.16108 2.57953 0
M  V30 31538 H 2912.57 3.82347 1.63657 0
M  V30 31539 H 2911.15 2.4317 2.82706 0
M  V30 31540 N 2913.34 -0.627313 1.44577 0
M  V30 31541 C 2914.75 -1.209 1.42268 0
M  V30 31542 C 2915.1 -1.957 0.139998 0
M  V30 31543 O 2914.22 -2.02636 -0.759454 0
M  V30 31544 C 2914.82 -2.1991 2.57731 0
M  V30 31545 C 2913.38 -2.73498 2.58604 0
M  V30 31546 C 2912.52 -1.4856 2.34148 0
M  V30 31547 H 2915.47 -0.417764 1.53103 0
M  V30 31548 H 2915.5 -3.02584 2.30702 0
M  V30 31549 H 2915.01 -1.65441 3.51071 0
M  V30 31550 H 2913.11 -3.31959 1.69216 0
M  V30 31551 H 2913.22 -3.19276 3.57211 0
M  V30 31552 H 2911.59 -1.76826 1.83316 0
M  V30 31553 H 2912.37 -0.959877 3.29608 0
M  V30 31554 N 2914.81 -1.31539 -0.868063 0
M  V30 31555 C 2916.22 -1.19197 -1.43697 0
M  V30 31556 C 2916.58 0.200808 -1.9517 0
M  V30 31557 O 2915.7 1.09869 -1.86434 0
M  V30 31558 C 2916.3 -2.15782 -2.61196 0
M  V30 31559 C 2914.85 -2.07368 -3.14126 0
M  V30 31560 C 2914 -2.04904 -1.86842 0
M  V30 31561 H 2916.95 -1.43562 -0.676432 0
M  V30 31562 H 2916.97 -1.74853 -3.37945 0
M  V30 31563 H 2916.49 -3.17141 -2.23703 0
M  V30 31564 H 2914.59 -1.09211 -3.56236 0
M  V30 31565 H 2914.7 -2.96564 -3.7628 0
M  V30 31566 H 2913.06 -1.49946 -2.05884 0
M  V30 31567 H 2913.85 -3.08022 -1.51584 0
M  V30 31568 N 2916.29 1.08262 -1.1453 0
M  V30 31569 C 2917.52 1.84956 -0.938414 0
M  V30 31570 C 2917.94 1.8111 0.508012 0
M  V30 31571 O 2917.3 1.19727 1.36144 0
M  V30 31572 C 2917.35 3.30349 -1.44574 0
M  V30 31573 O 2916.45 4.07422 -0.638816 0
M  V30 31574 H 2915.79 0.573062 -0.335404 0
M  V30 31575 H 2918.32 1.36635 -1.5229 0
M  V30 31576 H 2918.33 3.81191 -1.45456 0
M  V30 31577 H 2917.01 3.32463 -2.49882 0
M  V30 31578 H 2915.58 3.66293 -0.698865 0
M  V30 31579 N 2917.77 0.940655 1.26449 0
M  V30 31580 C 2919 0.6038 1.9758 0
M  V30 31581 C 2919.41 -0.825365 1.70248 0
M  V30 31582 O 2918.75 -1.56187 0.967028 0
M  V30 31583 C 2918.81 0.765525 3.51255 0
M  V30 31584 C 2918.48 2.16922 4.02236 0
M  V30 31585 C 2919.47 3.14464 4.14015 0
M  V30 31586 C 2917.16 2.48966 4.36258 0
M  V30 31587 C 2919.15 4.42151 4.59109 0
M  V30 31588 C 2916.84 3.76885 4.81041 0
M  V30 31589 C 2917.84 4.73291 4.92428 0
M  V30 31590 O 2917.53 5.98932 5.36223 0
M  V30 31591 H 2917.26 0.226447 0.636944 0
M  V30 31592 H 2919.81 1.26353 1.61938 0
M  V30 31593 H 2918.04 0.0486636 3.86669 0
M  V30 31594 H 2919.73 0.431808 4.03597 0
M  V30 31595 H 2920.5 2.91032 3.87976 0
M  V30 31596 H 2916.38 1.74663 4.26631 0
M  V30 31597 H 2919.92 5.17402 4.67911 0
M  V30 31598 H 2915.82 4.0013 5.06524 0
M  V30 31599 H 2916.58 6.02107 5.54445 0
M  V30 31600 N 2919.25 -1.40821 0.707617 0
M  V30 31601 C 2920.52 -1.94849 0.171206 0
M  V30 31602 C 2920.9 -1.64628 -1.3214 0
M  V30 31603 O 2920.25 -0.959683 -2.0737 0
M  V30 31604 C 2920.46 -3.45747 0.475394 0
M  V30 31605 C 2921.81 -4.22619 0.409699 0
M  V30 31606 O 2922.83 -3.53821 0.410996 0
M  V30 31607 O 2921.69 -5.45175 0.38028 0
M  V30 31608 H 2918.79 -0.826707 0.0220295 0
M  V30 31609 H 2921.33 -1.50473 0.784604 0
M  V30 31610 H 2920.11 -3.61072 1.50807 0
M  V30 31611 H 2919.73 -3.97243 -0.168369 0
M  V30 31612 N 2920.73 -0.453223 -1.50943 0
M  V30 31613 C 2921.95 0.108426 -2.07116 0
M  V30 31614 C 2922.38 1.34318 -1.31683 0
M  V30 31615 O 2921.73 1.77704 -0.359288 0
M  V30 31616 C 2921.78 0.393361 -3.58448 0
M  V30 31617 O 2920.89 1.47708 -3.85041 0
M  V30 31618 H 2920.23 -0.00511097 -0.66398 0
M  V30 31619 H 2922.76 -0.639129 -1.94361 0
M  V30 31620 H 2922.77 0.639151 -4.02963 0
M  V30 31621 H 2921.44 -0.509019 -4.12773 0
M  V30 31622 H 2920.02 1.22 -3.52378 0
M  V30 31623 N 2922.2 1.56509 -0.185151 0
M  V30 31624 C 2923.45 1.97586 0.456899 0
M  V30 31625 C 2923.78 1.07164 1.61955 0
M  V30 31626 O 2923.06 0.12158 1.9412 0
M  V30 31627 C 2923.34 3.47974 0.926604 0
M  V30 31628 C 2923.19 4.49174 -0.237176 0
M  V30 31629 C 2924.51 4.01806 1.79554 0
M  V30 31630 H 2921.63 0.718383 0.164606 0
M  V30 31631 H 2924.27 1.88013 -0.274072 0
M  V30 31632 H 2922.42 3.56263 1.54947 0
M  V30 31633 H 2924.1 4.52933 -0.87462 0
M  V30 31634 H 2922.34 4.24561 -0.890521 0
M  V30 31635 H 2923.01 5.51838 0.133827 0
M  V30 31636 H 2925.49 3.96235 1.27033 0
M  V30 31637 H 2924.36 5.07422 2.09318 0
M  V30 31638 H 2924.62 3.4646 2.74623 0
M  V30 31639 N 2923.68 -0.0885089 1.57351 0
M  V30 31640 C 2924.91 -0.804163 1.90633 0
M  V30 31641 C 2925.32 -1.71957 0.779504 0
M  V30 31642 O 2924.68 -1.80805 -0.248147 0
M  V30 31643 C 2924.73 -1.61196 3.23571 0
M  V30 31644 O 2924.45 -0.733371 4.31918 0
M  V30 31645 C 2925.95 -2.43009 3.70758 0
M  V30 31646 H 2923.17 -0.229574 0.630505 0
M  V30 31647 H 2925.72 -0.0637733 2.04401 0
M  V30 31648 H 2923.87 -2.30479 3.11381 0
M  V30 31649 H 2924.29 -1.29352 5.083 0
M  V30 31650 H 2925.76 -2.95172 4.66452 0
M  V30 31651 H 2926.24 -3.21775 2.98928 0
M  V30 31652 H 2926.84 -1.78913 3.85837 0
M  V30 31653 N 2925.16 -1.53445 -0.359498 0
M  V30 31654 C 2926.11 -1.80312 -1.4407 0
M  V30 31655 C 2927.08 -0.647837 -1.52945 0
M  V30 31656 O 2928.26 -0.890644 -1.68737 0
M  V30 31657 C 2925.4 -2.0042 -2.80937 0
M  V30 31658 C 2924.51 -3.28137 -2.8098 0
M  V30 31659 C 2923.65 -3.384 -4.09462 0
M  V30 31660 C 2922.69 -4.60126 -4.03671 0
M  V30 31661 N 2921.83 -4.67509 -5.23813 0
M  V30 31662 H 2926.67 -2.72568 -1.2046 0
M  V30 31663 H 2924.2 -1.35018 -0.583836 0
M  V30 31664 H 2926.16 -2.10067 -3.60455 0
M  V30 31665 H 2924.79 -1.11494 -3.02934 0
M  V30 31666 H 2923.84 -3.27414 -1.9366 0
M  V30 31667 H 2925.15 -4.17737 -2.72575 0
M  V30 31668 H 2924.31 -3.47391 -4.97398 0
M  V30 31669 H 2923.05 -2.46827 -4.20628 0
M  V30 31670 H 2922.05 -4.5123 -3.14121 0
M  V30 31671 H 2923.28 -5.53046 -3.94102 0
M  V30 31672 H 2921.22 -3.7884 -5.35552 0
M  V30 31673 H 2921.14 -5.51022 -5.17601 0
M  V30 31674 H 2922.41 -4.80791 -6.13564 0
M  V30 31675 N 2926.64 0.619637 -1.44908 0
M  V30 31676 C 2928.05 1.20144 -1.42907 0
M  V30 31677 C 2928.4 1.95623 -0.150375 0
M  V30 31678 O 2927.52 2.03036 0.748697 0
M  V30 31679 C 2928.12 2.1854 -2.58893 0
M  V30 31680 C 2926.68 2.72122 -2.60051 0
M  V30 31681 C 2925.83 1.47316 -2.34932 0
M  V30 31682 H 2928.78 0.409639 -1.53322 0
M  V30 31683 H 2928.8 3.01356 -2.32303 0
M  V30 31684 H 2928.31 1.63577 -3.51944 0
M  V30 31685 H 2926.41 3.31057 -1.70974 0
M  V30 31686 H 2926.52 3.17377 -3.58899 0
M  V30 31687 H 2924.89 1.75851 -1.84251 0
M  V30 31688 H 2925.67 0.942384 -3.30112 0
M  V30 31689 N 2928.12 1.31997 0.861075 0
M  V30 31690 C 2929.03 1.22377 2.00152 0
M  V30 31691 C 2930.04 0.138662 1.73447 0
M  V30 31692 O 2931.22 0.358139 1.9819 0
M  V30 31693 C 2928.28 0.940703 3.33694 0
M  V30 31694 C 2927.34 2.11361 3.73664 0
M  V30 31695 C 2926.58 1.84395 5.00833 0
M  V30 31696 O 2926.8 0.783386 5.64995 0
M  V30 31697 O 2925.73 2.70323 5.37782 0
M  V30 31698 H 2929.56 2.18236 2.11203 0
M  V30 31699 H 2927.15 1.11824 0.990748 0
M  V30 31700 H 2929.03 0.799059 4.13755 0
M  V30 31701 H 2927.7 0.0122205 3.23698 0
M  V30 31702 H 2926.61 2.3107 2.94207 0
M  V30 31703 H 2927.94 3.02466 3.88298 0
M  V30 31704 N 2929.59 -1.07653 1.15103 0
M  V30 31705 C 2930.54 -2.14775 0.844995 0
M  V30 31706 C 2931.51 -1.64882 -0.200769 0
M  V30 31707 O 2932.7 -1.90675 -0.0689943 0
M  V30 31708 C 2929.84 -3.4345 0.337079 0
M  V30 31709 C 2928.95 -4.0715 1.44405 0
M  V30 31710 C 2928.08 -5.23647 0.892579 0
M  V30 31711 C 2927.12 -5.79304 1.9767 0
M  V30 31712 N 2926.26 -6.87136 1.44183 0
M  V30 31713 H 2931.1 -2.40294 1.76246 0
M  V30 31714 H 2928.64 -1.17915 0.879455 0
M  V30 31715 H 2930.6 -4.17193 0.0243293 0
M  V30 31716 H 2929.23 -3.18192 -0.543475 0
M  V30 31717 H 2928.28 -3.31091 1.87305 0
M  V30 31718 H 2929.59 -4.44526 2.26269 0
M  V30 31719 H 2928.74 -6.04361 0.532189 0
M  V30 31720 H 2927.48 -4.87681 0.0430712 0
M  V30 31721 H 2926.49 -4.97238 2.34595 0
M  V30 31722 H 2927.71 -6.17326 2.82993 0
M  V30 31723 H 2925.66 -6.53114 0.614632 0
M  V30 31724 H 2925.58 -7.23379 2.19678 0
M  V30 31725 H 2926.84 -7.71562 1.10959 0
M  V30 31726 N 2931.07 -0.947348 -1.25949 0
M  V30 31727 C 2931.98 -0.46812 -2.29882 0
M  V30 31728 C 2933 0.460946 -1.67783 0
M  V30 31729 O 2934.17 0.338971 -1.98527 0
M  V30 31730 C 2931.24 0.253254 -3.45774 0
M  V30 31731 C 2930.3 -0.713129 -4.23336 0
M  V30 31732 C 2929.53 -0.0260868 -5.33694 0
M  V30 31733 O 2929.76 1.18968 -5.57856 0
M  V30 31734 O 2928.69 -0.707925 -5.97722 0
M  V30 31735 H 2932.52 -1.33161 -2.7295 0
M  V30 31736 H 2930.1 -0.713491 -1.31262 0
M  V30 31737 H 2931.98 0.65935 -4.1621 0
M  V30 31738 H 2930.66 1.09204 -3.04723 0
M  V30 31739 H 2929.57 -1.16929 -3.55357 0
M  V30 31740 H 2930.9 -1.51971 -4.68151 0
M  V30 31741 N 2932.55 1.40444 -0.715075 0
M  V30 31742 C 2933.5 2.30716 -0.0621798 0
M  V30 31743 C 2934.47 1.4816 0.750845 0
M  V30 31744 O 2935.65 1.76901 0.714897 0
M  V30 31745 C 2932.79 3.34367 0.853977 0
M  V30 31746 C 2931.91 4.31989 0.0304806 0
M  V30 31747 C 2931.04 5.22707 0.94607 0
M  V30 31748 C 2930.08 6.11989 0.116633 0
M  V30 31749 N 2929.22 6.95127 0.987072 0
M  V30 31750 H 2934.06 2.85984 -0.83769 0
M  V30 31751 H 2931.59 1.40833 -0.424784 0
M  V30 31752 H 2933.55 3.9303 1.39939 0
M  V30 31753 H 2932.18 2.80603 1.59567 0
M  V30 31754 H 2931.23 3.75111 -0.63211 0
M  V30 31755 H 2932.55 4.95035 -0.611702 0
M  V30 31756 H 2931.7 5.863 1.56003 0
M  V30 31757 H 2930.44 4.59935 1.62207 0
M  V30 31758 H 2929.44 5.47427 -0.510272 0
M  V30 31759 H 2930.67 6.76821 -0.555861 0
M  V30 31760 H 2928.61 6.34943 1.64874 0
M  V30 31761 H 2928.53 7.54936 0.400913 0
M  V30 31762 H 2929.8 7.63169 1.58723 0
M  V30 31763 N 2934.03 0.461222 1.507 0
M  V30 31764 C 2935.28 -0.0971615 2.02267 0
M  V30 31765 C 2935.6 -1.40605 1.34389 0
M  V30 31766 O 2934.86 -1.9033 0.455287 0
M  V30 31767 C 2935.16 -0.339017 3.55788 0
M  V30 31768 C 2934.82 0.886963 4.4209 0
M  V30 31769 C 2933.49 1.22312 4.65396 0
M  V30 31770 C 2935.84 1.7037 4.92568 0
M  V30 31771 C 2933.17 2.37625 5.36424 0
M  V30 31772 C 2935.52 2.84803 5.64863 0
M  V30 31773 C 2934.18 3.18845 5.86425 0
M  V30 31774 H 2933.45 -0.0355539 0.740147 0
M  V30 31775 H 2936.1 0.613292 1.81414 0
M  V30 31776 H 2934.4 -1.13162 3.75102 0
M  V30 31777 H 2936.1 -0.784868 3.93244 0
M  V30 31778 H 2932.69 0.615056 4.24164 0
M  V30 31779 H 2936.87 1.45718 4.74426 0
M  V30 31780 H 2932.13 2.64285 5.51329 0
M  V30 31781 H 2936.3 3.48442 6.0296 0
M  V30 31782 H 2933.93 4.08307 6.41241 0
M  V30 31783 N 2935.51 -1.56408 0.193449 0
M  V30 31784 C 2936.42 -2.22621 -0.740073 0
M  V30 31785 C 2937.43 -1.22476 -1.23594 0
M  V30 31786 O 2938.61 -1.55208 -1.28345 0
M  V30 31787 C 2935.67 -2.8713 -1.94312 0
M  V30 31788 C 2934.73 -4.0254 -1.49198 0
M  V30 31789 C 2933.97 -4.63964 -2.63768 0
M  V30 31790 O 2934.19 -4.24308 -3.81208 0
M  V30 31791 O 2933.12 -5.53458 -2.36575 0
M  V30 31792 H 2936.95 -3.02999 -0.206184 0
M  V30 31793 H 2934.54 -1.49357 -0.0357676 0
M  V30 31794 H 2936.42 -3.27949 -2.64627 0
M  V30 31795 H 2935.09 -2.09732 -2.46564 0
M  V30 31796 H 2934 -3.66347 -0.757673 0
M  V30 31797 H 2935.33 -4.81597 -1.01614 0
M  V30 31798 N 2936.98 0.0801629 -1.57396 0
M  V30 31799 C 2937.93 1.09614 -2.03109 0
M  V30 31800 C 2938.9 1.38945 -0.910142 0
M  V30 31801 O 2940.09 1.50154 -1.17721 0
M  V30 31802 C 2937.23 2.40703 -2.47297 0
M  V30 31803 C 2936.34 2.17975 -3.72976 0
M  V30 31804 C 2935.47 3.42569 -4.05981 0
M  V30 31805 C 2934.51 3.15168 -5.24724 0
M  V30 31806 N 2933.65 4.32069 -5.53409 0
M  V30 31807 H 2938.49 0.699339 -2.89678 0
M  V30 31808 H 2936.03 0.33376 -1.43264 0
M  V30 31809 H 2937.99 3.17227 -2.70966 0
M  V30 31810 H 2936.62 2.78202 -1.63718 0
M  V30 31811 H 2935.67 1.32183 -3.56696 0
M  V30 31812 H 2936.98 1.9373 -4.59641 0
M  V30 31813 H 2936.13 4.27493 -4.30505 0
M  V30 31814 H 2934.87 3.69882 -3.17866 0
M  V30 31815 H 2933.88 2.28639 -5.00004 0
M  V30 31816 H 2935.1 2.89186 -6.1445 0
M  V30 31817 H 2933.05 4.59429 -4.68253 0
M  V30 31818 H 2932.97 4.11067 -6.34476 0
M  V30 31819 H 2934.23 5.18014 -5.82479 0
M  V30 31820 N 2938.46 1.53634 0.351355 0
M  V30 31821 C 2939.74 1.61122 1.10901 0
M  V30 31822 C 2940.12 0.427593 2.06724 0
M  V30 31823 O 2939.47 -0.580877 2.20993 0
M  V30 31824 C 2939.68 2.9683 1.83556 0
M  V30 31825 C 2941.03 3.5191 2.37581 0
M  V30 31826 O 2942.05 2.98953 1.93663 0
M  V30 31827 O 2940.91 4.44521 3.17905 0
M  V30 31828 H 2938 0.651377 0.509546 0
M  V30 31829 H 2940.55 1.65978 0.353475 0
M  V30 31830 H 2939.32 3.74416 1.13703 0
M  V30 31831 H 2938.94 2.9553 2.65985 0
M  V30 31832 N 2939.94 -0.611943 1.45234 0
M  V30 31833 C 2940.89 -1.7229 1.53573 0
M  V30 31834 C 2941.86 -1.61649 0.38194 0
M  V30 31835 O 2943.04 -1.81292 0.594797 0
M  V30 31836 C 2940.18 -3.10591 1.50424 0
M  V30 31837 C 2939.3 -3.3207 2.76322 0
M  V30 31838 C 2938.43 -4.60451 2.64874 0
M  V30 31839 C 2937.47 -4.75173 3.85846 0
M  V30 31840 N 2936.61 -5.9485 3.72959 0
M  V30 31841 H 2941.45 -1.64499 2.48483 0
M  V30 31842 H 2938.98 -0.80217 1.23303 0
M  V30 31843 H 2940.94 -3.906 1.46587 0
M  V30 31844 H 2939.57 -3.1735 0.590677 0
M  V30 31845 H 2938.62 -2.45867 2.90265 0
M  V30 31846 H 2939.94 -3.38822 3.66061 0
M  V30 31847 H 2939.09 -5.48648 2.58978 0
M  V30 31848 H 2937.83 -4.56089 1.72727 0
M  V30 31849 H 2936.83 -3.854 3.92106 0
M  V30 31850 H 2938.06 -4.81336 4.79054 0
M  V30 31851 H 2936 -5.9154 2.83577 0
M  V30 31852 H 2935.92 -6.02743 4.5633 0
M  V30 31853 H 2937.19 -6.85557 3.70988 0
M  V30 31854 N 2941.42 -1.32452 -0.854063 0
M  V30 31855 C 2942.64 -1.26188 -1.64594 0
M  V30 31856 C 2943.07 0.167041 -1.87357 0
M  V30 31857 O 2942.43 1.11862 -1.42677 0
M  V30 31858 C 2942.47 -2.0274 -2.9821 0
M  V30 31859 O 2941.58 -1.37561 -3.88781 0
M  V30 31860 H 2940.92 -0.434868 -0.501783 0
M  V30 31861 H 2943.45 -1.74777 -1.06369 0
M  V30 31862 H 2943.46 -2.12936 -3.48026 0
M  V30 31863 H 2942.13 -3.06647 -2.80964 0
M  V30 31864 H 2940.71 -1.35916 -3.47248 0
M  V30 31865 N 2942.9 1.07041 -1.15672 0
M  V30 31866 C 2943.81 2.17853 -0.870473 0
M  V30 31867 C 2944.82 1.73313 0.154422 0
M  V30 31868 O 2946 2.0139 -0.0204113 0
M  V30 31869 C 2943.06 3.44749 -0.367279 0
M  V30 31870 C 2942.13 4.03839 -1.45646 0
M  V30 31871 C 2941.36 5.24678 -0.977184 0
M  V30 31872 O 2941.58 5.70128 0.176027 0
M  V30 31873 O 2940.52 5.75524 -1.76225 0
M  V30 31874 H 2944.34 2.44836 -1.79692 0
M  V30 31875 H 2941.93 1.16438 -0.936085 0
M  V30 31876 H 2943.81 4.21297 -0.0932687 0
M  V30 31877 H 2942.48 3.19311 0.531254 0
M  V30 31878 H 2941.39 3.28816 -1.78412 0
M  V30 31879 H 2942.72 4.33556 -2.33002 0
M  V30 31880 N 2944.38 0.954014 1.25445 0
M  V30 31881 C 2945.32 0.472524 2.25911 0
M  V30 31882 C 2946.29 -0.474662 1.59173 0
M  V30 31883 O 2947.48 -0.388049 1.86812 0
M  V30 31884 C 2944.62 -0.244157 3.44235 0
M  V30 31885 C 2943.73 0.740196 4.25611 0
M  V30 31886 C 2942.87 0.00101564 5.312 0
M  V30 31887 C 2941.9 0.976342 6.04263 0
M  V30 31888 N 2941.04 0.268075 7.01588 0
M  V30 31889 H 2945.88 1.33415 2.66467 0
M  V30 31890 H 2943.42 0.669068 1.31003 0
M  V30 31891 H 2945.38 -0.676242 4.11683 0
M  V30 31892 H 2944.01 -1.06983 3.04556 0
M  V30 31893 H 2943.06 1.29076 3.57832 0
M  V30 31894 H 2944.37 1.48449 4.76198 0
M  V30 31895 H 2943.52 -0.489734 6.0472 0
M  V30 31896 H 2942.26 -0.776074 4.81486 0
M  V30 31897 H 2941.27 1.4781 5.29559 0
M  V30 31898 H 2942.49 1.75365 6.56067 0
M  V30 31899 H 2940.44 -0.490288 6.54165 0
M  V30 31900 H 2940.36 0.951475 7.49989 0
M  V30 31901 H 2941.62 -0.201157 7.7924 0
M  V30 31902 N 2945.85 -1.40063 0.722513 0
M  V30 31903 C 2946.76 -2.34478 0.0756396 0
M  V30 31904 C 2947.78 -1.57667 -0.736018 0
M  V30 31905 O 2948.96 -1.90021 -0.667374 0
M  V30 31906 C 2946.02 -3.36618 -0.830015 0
M  V30 31907 C 2945.08 -4.29299 -0.00752338 0
M  V30 31908 C 2944.31 -5.2656 -0.870046 0
M  V30 31909 O 2944.54 -5.29974 -2.10912 0
M  V30 31910 O 2943.47 -6.01125 -0.305348 0
M  V30 31911 H 2947.3 -2.91428 0.854597 0
M  V30 31912 H 2944.88 -1.41375 0.483057 0
M  V30 31913 H 2946.76 -3.99239 -1.34857 0
M  V30 31914 H 2945.44 -2.82071 -1.588 0
M  V30 31915 H 2944.35 -3.69941 0.556264 0
M  V30 31916 H 2945.68 -4.87017 0.712397 0
M  V30 31917 N 2947.33 -0.469207 -1.50453 0
M  V30 31918 C 2948.61 0.14792 -1.9504 0
M  V30 31919 C 2948.99 1.57151 -1.40949 0
M  V30 31920 O 2948.34 2.20216 -0.609702 0
M  V30 31921 C 2948.55 0.0931585 -3.48876 0
M  V30 31922 C 2949.89 0.282982 -4.23656 0
M  V30 31923 O 2950.92 0.169829 -3.55795 0
M  V30 31924 O 2949.78 0.511301 -5.44103 0
M  V30 31925 H 2946.87 0.112696 -0.819285 0
M  V30 31926 H 2949.42 -0.529474 -1.61229 0
M  V30 31927 H 2948.19 -0.900851 -3.80789 0
M  V30 31928 H 2947.81 0.812093 -3.89218 0
M  V30 31929 N 2948.81 1.56303 -0.201741 0
M  V30 31930 C 2949.76 2.19398 0.71646 0
M  V30 31931 C 2950.73 1.14328 1.20492 0
M  V30 31932 O 2951.91 1.42606 1.2676 0
M  V30 31933 C 2949.05 2.8625 1.92757 0
M  V30 31934 C 2948.16 4.05862 1.47986 0
M  V30 31935 C 2947.3 4.60552 2.64698 0
M  V30 31936 C 2946.34 5.72508 2.16566 0
M  V30 31937 N 2945.48 6.21575 3.2648 0
M  V30 31938 H 2950.32 2.97505 0.171672 0
M  V30 31939 H 2947.85 1.46919 0.0729902 0
M  V30 31940 H 2949.81 3.23183 2.63835 0
M  V30 31941 H 2948.44 2.10695 2.44556 0
M  V30 31942 H 2947.49 3.74548 0.664704 0
M  V30 31943 H 2948.8 4.86817 1.08678 0
M  V30 31944 H 2947.96 4.99825 3.43889 0
M  V30 31945 H 2946.7 3.78719 3.07284 0
M  V30 31946 H 2945.7 5.32757 1.35831 0
M  V30 31947 H 2946.93 6.56164 1.75003 0
M  V30 31948 H 2944.87 5.42662 3.68584 0
M  V30 31949 H 2944.79 6.97599 2.91361 0
M  V30 31950 H 2946.06 6.65503 4.05865 0
M  V30 31951 N 2950.29 -0.0718147 1.57436 0
M  V30 31952 C 2951.54 -0.769451 1.86879 0
M  V30 31953 C 2951.86 -1.78115 0.793731 0
M  V30 31954 O 2951.13 -1.95093 -0.177608 0
M  V30 31955 H 2949.71 -0.287165 0.689598 0
M  V30 31956 H 2952.37 -0.0479084 1.94841 0
M  V30 31957 H 2951.46 -1.28567 2.84389 0
M  V30 31958 N 2951.77 -1.53818 -0.343203 0
M  V30 31959 C 2952.71 -1.8183 -1.4215 0
M  V30 31960 C 2953.68 -0.664023 -1.5225 0
M  V30 31961 O 2954.87 -0.908491 -1.67783 0
M  V30 31962 C 2952.01 -2.03389 -2.78796 0
M  V30 31963 C 2951.12 -3.31099 -2.77484 0
M  V30 31964 C 2950.26 -3.42724 -4.0585 0
M  V30 31965 C 2949.29 -4.64382 -3.98768 0
M  V30 31966 N 2948.43 -4.73038 -5.18825 0
M  V30 31967 H 2953.27 -2.73831 -1.17562 0
M  V30 31968 H 2950.81 -1.35629 -0.569482 0
M  V30 31969 H 2952.77 -2.13878 -3.58207 0
M  V30 31970 H 2951.4 -1.14701 -3.01734 0
M  V30 31971 H 2950.45 -3.2945 -1.90176 0
M  V30 31972 H 2951.76 -4.20605 -2.68129 0
M  V30 31973 H 2950.91 -3.52647 -4.93685 0
M  V30 31974 H 2949.65 -2.51275 -4.17986 0
M  V30 31975 H 2948.66 -4.54536 -3.09317 0
M  V30 31976 H 2949.88 -5.57195 -3.88214 0
M  V30 31977 H 2947.83 -3.84499 -5.31504 0
M  V30 31978 H 2947.75 -5.56481 -5.11728 0
M  V30 31979 H 2949.01 -4.87271 -6.0843 0
M  V30 31980 N 2953.24 0.604233 -1.45557 0
M  V30 31981 C 2954.52 1.3637 -1.40223 0
M  V30 31982 C 2954.9 2.10968 -0.0745566 0
M  V30 31983 O 2954.25 2.08109 0.943557 0
M  V30 31984 C 2954.46 2.30773 -2.61811 0
M  V30 31985 C 2955.81 2.93276 -3.07042 0
M  V30 31986 O 2956.83 2.41093 -2.62207 0
M  V30 31987 O 2955.69 3.88004 -3.84857 0
M  V30 31988 H 2952.78 0.611646 -0.556613 0
M  V30 31989 H 2955.33 0.627041 -1.5769 0
M  V30 31990 H 2954.1 1.74933 -3.5002 0
M  V30 31991 H 2953.72 3.11814 -2.46694 0
M  V30 31992 N 2954.72 1.32903 0.847027 0
M  V30 31993 C 2955.97 1.23248 1.59665 0
M  V30 31994 C 2956.28 -0.202315 1.94551 0
M  V30 31995 O 2957.49 -0.4208 2.68219 0
M  V30 31996 C 2955.95 2.15906 2.87946 0
M  V30 31997 C 2955.55 3.6451 2.60455 0
M  V30 31998 C 2957.3 2.15105 3.65965 0
M  V30 31999 C 2955.2 4.49106 3.84783 0
M  V30 32000 H 2954.13 0.457739 0.599159 0
M  V30 32001 H 2956.79 1.57914 0.934634 0
M  V30 32002 H 2955.17 1.74163 3.55645 0
M  V30 32003 H 2956.34 4.14642 2.01019 0
M  V30 32004 H 2954.66 3.67518 1.95753 0
M  V30 32005 H 2957.25 2.75542 4.58237 0
M  V30 32006 H 2957.6 1.14399 4.00273 0
M  V30 32007 H 2958.13 2.55167 3.05179 0
M  V30 32008 H 2954.87 5.50655 3.55611 0
M  V30 32009 H 2954.39 4.03721 4.43587 0
M  V30 32010 H 2956.07 4.62495 4.52446 0
M  V30 32011 N 2956.2 -1.06426 1.16238 0
M  V30 32012 C 2957.62 -1.31322 0.907007 0
M  V30 32013 C 2957.82 -1.96619 -0.440837 0
M  V30 32014 O 2956.87 -2.23196 -1.18066 0
M  V30 32015 C 2958.18 -2.19518 2.05505 0
M  V30 32016 C 2959.73 -2.32939 2.09065 0
M  V30 32017 C 2960.21 -3.24489 3.2322 0
M  V30 32018 N 2961.7 -3.32072 3.22928 0
M  V30 32019 C 2962.43 -4.02999 4.07897 0
M  V30 32020 N 2961.93 -4.7646 5.02949 0
M  V30 32021 N 2963.72 -3.99036 3.95888 0
M  V30 32022 H 2955.87 -0.624353 2.03016 0
M  V30 32023 H 2958.14 -0.33782 0.885766 0
M  V30 32024 H 2957.84 -1.78814 3.0285 0
M  V30 32025 H 2957.72 -3.20097 1.99544 0
M  V30 32026 H 2960.1 -2.72891 1.12313 0
M  V30 32027 H 2960.18 -1.32033 2.19091 0
M  V30 32028 H 2959.83 -2.85253 4.2023 0
M  V30 32029 H 2959.76 -4.25371 3.1043 0
M  V30 32030 H 2962.25 -2.79719 2.54098 0
M  V30 32031 H 2962.56 -5.28102 5.64205 0
M  V30 32032 H 2960.91 -4.75444 5.0693 0
M  V30 32033 H 2964.1 -3.40763 3.20933 0
M  V30 32034 H 2964.27 -4.54044 4.62329 0
M  V30 32035 N 2957.68 -0.960653 -1.24937 0
M  V30 32036 C 2958.59 -0.492475 -2.29373 0
M  V30 32037 C 2959.6 0.443124 -1.68263 0
M  V30 32038 O 2960.78 0.317895 -1.98875 0
M  V30 32039 C 2957.85 0.216566 -3.46023 0
M  V30 32040 C 2956.91 -0.757989 -4.22555 0
M  V30 32041 C 2956.14 -0.0826907 -5.33636 0
M  V30 32042 O 2956.36 1.13045 -5.59086 0
M  V30 32043 O 2955.3 -0.771282 -5.96938 0
M  V30 32044 H 2959.12 -1.36049 -2.71522 0
M  V30 32045 H 2956.71 -0.727373 -1.30498 0
M  V30 32046 H 2958.59 0.615168 -4.16886 0
M  V30 32047 H 2957.26 1.05966 -3.05864 0
M  V30 32048 H 2956.17 -1.20692 -3.54097 0
M  V30 32049 H 2957.5 -1.56928 -4.66513 0
M  V30 32050 N 2959.16 1.39677 -0.729931 0
M  V30 32051 C 2960.38 2.05441 -0.284382 0
M  V30 32052 C 2960.81 1.54665 1.07054 0
M  V30 32053 O 2960.16 0.688187 1.67731 0
M  V30 32054 C 2960.21 3.59431 -0.290152 0
M  V30 32055 O 2959.32 4.05997 0.723906 0
M  V30 32056 H 2958.66 0.651085 -0.130322 0
M  V30 32057 H 2961.19 1.78808 -0.994434 0
M  V30 32058 H 2961.2 4.07784 -0.132784 0
M  V30 32059 H 2959.87 3.95751 -1.27884 0
M  V30 32060 H 2958.45 3.6907 0.533089 0
M  V30 32061 N 2960.63 0.47718 1.50202 0
M  V30 32062 C 2961.58 -0.31382 2.28657 0
M  V30 32063 C 2962.55 -0.981778 1.33979 0
M  V30 32064 O 2963.74 -0.993043 1.62921 0
M  V30 32065 C 2960.88 -1.38633 3.1603 0
M  V30 32066 C 2959.99 -0.73254 4.25744 0
M  V30 32067 C 2959.12 -1.78346 5.00366 0
M  V30 32068 C 2958.16 -1.11025 6.01947 0
M  V30 32069 N 2957.3 -2.10429 6.69824 0
M  V30 32070 H 2962.14 0.361497 2.95799 0
M  V30 32071 H 2959.68 0.190119 1.45866 0
M  V30 32072 H 2961.64 -2.01988 3.65043 0
M  V30 32073 H 2960.27 -2.03073 2.50921 0
M  V30 32074 H 2959.32 0.0137214 3.80398 0
M  V30 32075 H 2960.63 -0.201425 4.98393 0
M  V30 32076 H 2959.78 -2.49266 5.53129 0
M  V30 32077 H 2958.52 -2.34839 4.27436 0
M  V30 32078 H 2957.53 -0.386701 5.48438 0
M  V30 32079 H 2958.75 -0.552129 6.76852 0
M  V30 32080 H 2956.7 -2.65928 5.99682 0
M  V30 32081 H 2956.62 -1.62319 7.38369 0
M  V30 32082 H 2957.88 -2.80711 7.27201 0
M  V30 32083 N 2962.11 -1.56194 0.210027 0
M  V30 32084 C 2963.06 -2.19775 -0.704815 0
M  V30 32085 C 2964.03 -1.14966 -1.19884 0
M  V30 32086 O 2965.21 -1.43276 -1.26002 0
M  V30 32087 C 2962.35 -2.87268 -1.91236 0
M  V30 32088 C 2961.47 -4.06641 -1.45831 0
M  V30 32089 C 2960.6 -4.61949 -2.62252 0
M  V30 32090 C 2959.64 -5.73649 -2.13527 0
M  V30 32091 N 2958.78 -6.23298 -3.23179 0
M  V30 32092 H 2963.62 -2.97592 -0.155892 0
M  V30 32093 H 2961.16 -1.46955 -0.0651977 0
M  V30 32094 H 2963.11 -3.24577 -2.62117 0
M  V30 32095 H 2961.74 -2.11989 -2.43435 0
M  V30 32096 H 2960.8 -3.74895 -0.644831 0
M  V30 32097 H 2962.11 -4.87386 -1.06094 0
M  V30 32098 H 2961.26 -5.01642 -3.41234 0
M  V30 32099 H 2960 -3.80343 -3.05271 0
M  V30 32100 H 2959.01 -5.3347 -1.33004 0
M  V30 32101 H 2960.23 -6.57082 -1.71521 0
M  V30 32102 H 2958.18 -5.44609 -3.65701 0
M  V30 32103 H 2958.09 -6.99134 -2.87658 0
M  V30 32104 H 2959.36 -6.67646 -4.0233 0
M  V30 32105 O 2963.63 -0.0733922 -1.61333 0
M  V30 32106 H 2964.32 0.532583 -1.86234 0
M  V30 END ATOM
M  V30 BEGIN BOND
M  V30 END BOND
M  V30 END CTAB
M  END
$$$$
