drugbank_target|P43912 tRNA (guanine-N(1)-)-methyltransferase (DB01752)
 OpenBabel12092120223D

  0  0  0     0  0            999 V3000
M  V30 BEGIN CTAB
M  V30 COUNTS 5490 5855 0 0 0
M  V30 BEGIN ATOM
M  V30 1 H -2.588 8.49073 -0.0679273 0
M  V30 2 O -1.492 9.37262 0.0843559 0
M  V30 3 P 0 8.791 0 0
M  V30 4 O 1.422 9.31096 0.027933 0
M  V30 5 O -0.36 7.77869 -1.04071 0
M  V30 6 O -0.323 8.09533 1.41463 0
M  V30 7 C -0.483 9.0349 2.53943 0
M  V30 8 C 0.057 8.35226 3.79016 0
M  V30 9 O -0.999 7.57992 4.15078 0
M  V30 10 C 1.275 7.45087 3.67298 0
M  V30 11 O 2.013 7.27796 4.85194 0
M  V30 12 C 0.606 6.17323 3.12027 0
M  V30 13 O 1.405 5.04231 3.47188 0
M  V30 14 C -0.731 6.19961 3.81809 0
M  V30 15 H -0.699 5.58218 4.73051 0
M  V30 16 H 0.484 6.21726 2.02589 0
M  V30 17 H 1.968 7.86112 2.9231 0
M  V30 18 H 0.274 9.11627 4.55076 0
M  V30 19 H 0.084 9.9573 2.34194 0
M  V30 20 H -1.546 9.2792 2.67832 0
M  V30 21 H 1.093 4.67702 4.28772 0
M  V30 22 P 2.95057 7.39546 4.75277 0
M  V30 23 O 4.37257 7.81777 5.05738 0
M  V30 24 O 2.59057 7.1065 3.32998 0
M  V30 25 O 2.62757 6.04542 5.56673 0
M  V30 26 C 2.46757 6.22772 7.02095 0
M  V30 27 C 3.00757 4.97725 7.70406 0
M  V30 28 O 1.95157 4.13256 7.58987 0
M  V30 29 C 4.22557 4.28231 7.11815 0
M  V30 30 O 4.96357 3.49945 8.01648 0
M  V30 31 C 3.55657 3.5063 5.96244 0
M  V30 32 O 4.35557 2.36482 5.64681 0
M  V30 33 C 2.21957 3.15122 6.56374 0
M  V30 34 H 2.25157 2.13853 6.99751 0
M  V30 35 H 3.43457 4.13501 5.06559 0
M  V30 36 H 4.91857 5.03285 6.70911 0
M  V30 37 H 3.22457 5.20877 8.75697 0
M  V30 38 H 3.03457 7.11046 7.35349 0
M  V30 39 H 1.40457 6.35815 7.26986 0
M  V30 40 H 4.04357 1.61644 6.13565 0
M  V30 41 P 5.90114 3.65191 7.99657 0
M  V30 42 O 7.32314 3.8425 8.48115 0
M  V30 43 O 5.54114 4.17805 6.64342 0
M  V30 44 O 5.57814 2.07613 7.95143 0
M  V30 45 C 5.41814 1.44328 9.27336 0
M  V30 46 C 5.95814 0.0220036 9.17197 0
M  V30 47 O 4.90214 -0.626867 8.61923 0
M  V30 48 C 7.17614 -0.24586 8.30336 0
M  V30 49 O 7.91414 -1.39011 8.63583 0
M  V30 50 C 6.50714 -0.273849 6.91158 0
M  V30 51 O 7.30614 -1.06348 6.02892 0
M  V30 52 C 5.17014 -0.897649 7.22545 0
M  V30 53 H 5.20214 -1.9841 7.04286 0
M  V30 54 H 6.38514 0.739928 6.497 0
M  V30 55 H 7.86914 0.60668 8.36503 0
M  V30 56 H 6.17514 -0.352479 10.1829 0
M  V30 57 H 5.98514 2.00611 10.0304 0
M  V30 58 H 4.35514 1.41843 9.55327 0
M  V30 59 H 6.99414 -1.95734 6.03555 0
M  V30 60 P 8.85171 -1.25109 8.70152 0
M  V30 61 O 10.2737 -1.35303 9.21419 0
M  V30 62 O 8.49171 -0.0769065 7.84762 0
M  V30 63 O 8.52871 -2.55232 7.81161 0
M  V30 64 C 8.36871 -3.79939 8.58154 0
M  V30 65 C 8.90871 -4.93969 7.72701 0
M  V30 66 O 7.85371 -5.18726 6.91205 0
M  V30 67 C 10.1267 -4.69597 6.85231 0
M  V30 68 O 10.8647 -5.83832 6.51337 0
M  V30 69 C 9.45871 -3.96706 5.66633 0
M  V30 70 O 10.2567 -4.15346 4.49615 0
M  V30 71 C 8.12071 -4.66153 5.59313 0
M  V30 72 N 7.07771 -3.71582 5.24027 0
M  V30 73 C 7.13971 -2.46018 5.67902 0
M  V30 74 N 6.09471 -1.74868 5.24518 0
M  V30 75 C 5.36071 -2.61333 4.54528 0
M  V30 76 C 4.05471 -2.46162 3.95441 0
M  V30 77 O 3.32171 -1.46013 3.94122 0
M  V30 78 N 3.62471 -3.59334 3.34752 0
M  V30 79 C 4.37371 -4.79605 3.3023 0
M  V30 80 N 3.77671 -5.82109 2.6065 0
M  V30 81 N 5.52671 -4.97402 3.8843 0
M  V30 82 C 5.98371 -3.86258 4.50476 0
M  V30 83 H 8.15271 -5.47679 4.85214 0
M  V30 84 H 9.33571 -2.88964 5.86476 0
M  V30 85 H 10.8207 -4.01947 7.36109 0
M  V30 86 H 9.12571 -5.80182 8.37584 0
M  V30 87 H 8.93571 -3.73517 9.52265 0
M  V30 88 H 7.30471 -3.97163 8.80359 0
M  V30 89 H 2.72871 -3.5825 2.90294 0
M  V30 90 H 7.93571 -2.06161 6.30974 0
M  V30 91 H 2.86571 -5.66979 2.15354 0
M  V30 92 H 4.24171 -6.73686 2.54344 0
M  V30 93 H 9.94571 -4.90891 4.01857 0
M  V30 94 P 11.8023 -5.75688 6.64379 0
M  V30 95 O 13.2243 -6.11849 7.01846 0
M  V30 96 O 11.4423 -4.30744 6.56026 0
M  V30 97 O 11.4793 -6.37042 5.19165 0
M  V30 98 C 11.3193 -7.83578 5.16515 0
M  V30 99 C 11.8593 -8.33398 3.83019 0
M  V30 100 O 10.8033 -8.10074 3.01034 0
M  V30 101 C 13.0773 -7.65514 3.2257 0
M  V30 102 O 13.8153 -8.4329 2.32297 0
M  V30 103 C 12.4083 -6.40075 2.62207 0
M  V30 104 O 13.2073 -5.92589 1.53712 0
M  V30 105 C 11.0713 -6.9454 2.18503 0
M  V30 106 H 11.1033 -7.23063 1.12091 0
M  V30 107 H 12.2863 -5.6025 3.37201 0
M  V30 108 H 13.7703 -7.35707 4.02681 0
M  V30 109 H 12.0763 -9.40912 3.9095 0
M  V30 110 H 11.8863 -8.29056 5.99158 0
M  V30 111 H 10.2563 -8.10073 5.25882 0
M  V30 112 H 12.8953 -6.30324 0.726794 0
M  V30 113 P 14.7528 -8.4349 2.47671 0
M  V30 114 O 16.1748 -8.94167 2.5964 0
M  V30 115 O 14.3928 -7.1704 3.19006 0
M  V30 116 O 14.4298 -8.16596 0.923387 0
M  V30 117 C 14.2698 -9.38437 0.108857 0
M  V30 118 C 14.8098 -9.08175 -1.28353 0
M  V30 119 O 13.7538 -8.44229 -1.84713 0
M  V30 120 C 16.0278 -8.18386 -1.42505 0
M  V30 121 O 16.7659 -8.3501 -2.60497 0
M  V30 122 C 15.3588 -6.80225 -1.25468 0
M  V30 123 O 16.1578 -5.81621 -1.91066 0
M  V30 124 C 14.0218 -7.02416 -1.9168 0
M  V30 125 H 14.0538 -6.6888 -2.96621 0
M  V30 126 H 15.2368 -6.53617 -0.192223 0
M  V30 127 H 16.7208 -8.36622 -0.589963 0
M  V30 128 H 15.0268 -10.0291 -1.79807 0
M  V30 129 H 14.8368 -10.2138 0.558219 0
M  V30 130 H 13.2068 -9.6579 0.0444202 0
M  V30 131 H 15.8458 -5.69556 -2.79637 0
M  V30 132 P 17.7034 -8.4349 -2.47671 0
M  V30 133 O 19.1254 -8.92593 -2.65 0
M  V30 134 O 17.3434 -7.7568 -1.19296 0
M  V30 135 O 17.3804 -7.36886 -3.63805 0
M  V30 136 C 17.2204 -7.95349 -4.982 0
M  V30 137 C 17.7604 -6.94612 -5.98974 0
M  V30 138 O 16.7044 -6.10347 -6.11815 0
M  V30 139 C 18.9784 -6.11426 -5.62335 0
M  V30 140 O 19.7164 -5.6162 -6.70584 0
M  V30 141 C 18.3094 -5.04409 -4.73308 0
M  V30 142 O 19.1084 -3.85992 -4.75183 0
M  V30 143 C 16.9724 -4.8728 -5.41006 0
M  V30 144 H 17.0044 -4.02333 -6.11157 0
M  V30 145 H 18.1874 -5.39466 -3.69543 0
M  V30 146 H 19.6714 -6.71916 -5.01943 0
M  V30 147 H 17.9774 -7.4649 -6.93477 0
M  V30 148 H 17.7874 -8.89416 -5.05237 0
M  V30 149 H 16.1574 -8.14876 -5.18409 0
M  V30 150 H 18.7964 -3.27957 -5.4317 0
M  V30 151 P 20.654 -5.75688 -6.64379 0
M  V30 152 O 22.076 -6.07627 -7.05504 0
M  V30 153 O 20.294 -5.88047 -5.19722 0
M  V30 154 O 20.331 -4.2322 -7.04443 0
M  V30 155 C 20.171 -3.99743 -8.4911 0
M  V30 156 C 20.711 -2.60516 -8.79425 0
M  V30 157 O 19.655 -1.82684 -8.4467 0
M  V30 158 C 21.929 -2.10343 -8.03628 0
M  V30 159 O 22.667 -1.09919 -8.67766 0
M  V30 160 C 21.26 -1.68446 -6.70876 0
M  V30 161 O 22.059 -0.678137 -6.08433 0
M  V30 162 C 19.923 -1.17436 -7.18567 0
M  V30 163 H 19.955 -0.0804732 -7.31656 0
M  V30 164 H 21.138 -2.54037 -6.02537 0
M  V30 165 H 22.622 -2.93881 -7.85526 0
M  V30 166 H 20.928 -2.53065 -9.86973 0
M  V30 167 H 20.738 -4.75072 -9.05887 0
M  V30 168 H 19.108 -4.05244 -8.76668 0
M  V30 169 H 21.747 0.177647 -6.34251 0
M  V30 170 P 23.6046 -1.25109 -8.70152 0
M  V30 171 O 25.0266 -1.29744 -9.22016 0
M  V30 172 O 23.2446 -2.13714 -7.55141 0
M  V30 173 O 23.2816 0.248149 -8.21425 0
M  V30 174 C 23.1216 1.22779 -9.30434 0
M  V30 175 C 23.6616 2.56293 -8.80664 0
M  V30 176 O 22.6056 3.02979 -8.09349 0
M  V30 177 C 24.8796 2.57523 -7.89775 0
M  V30 178 O 25.6176 3.7668 -7.89438 0
M  V30 179 C 24.2106 2.20997 -6.55446 0
M  V30 180 O 25.0096 2.71895 -5.48509 0
M  V30 181 C 22.8736 2.89693 -6.67988 0
M  V30 182 H 22.9056 3.88793 -6.19859 0
M  V30 183 H 24.0886 1.12046 -6.44229 0
M  V30 184 H 25.5726 1.7746 -8.19711 0
M  V30 185 H 23.8786 3.20706 -9.67112 0
M  V30 186 H 23.6886 0.901032 -10.1892 0
M  V30 187 H 22.0586 1.33049 -9.56592 0
M  V30 188 H 24.6976 3.57847 -5.23962 0
M  V30 189 P 26.5551 3.65191 -7.99657 0
M  V30 190 O 27.9771 3.89332 -8.45794 0
M  V30 191 O 26.1951 2.28472 -7.50807 0
M  V30 192 O 26.2321 4.64972 -6.77611 0
M  V30 193 C 26.0721 6.06319 -7.16352 0
M  V30 194 C 26.6121 6.91731 -6.02299 0
M  V30 195 O 25.5561 6.92449 -5.17064 0
M  V30 196 C 27.8301 6.43627 -5.25174 0
M  V30 197 O 28.5681 7.43686 -4.60469 0
M  V30 198 C 27.1611 5.40275 -4.31916 0
M  V30 199 O 27.9601 5.25279 -3.14438 0
M  V30 200 C 25.8241 6.04847 -4.05327 0
M  V30 201 H 25.8561 6.62195 -3.11261 0
M  V30 202 H 27.0391 4.42556 -4.81383 0
M  V30 203 H 28.5231 5.92458 -5.93643 0
M  V30 204 H 26.8291 7.92655 -6.402 0
M  V30 205 H 26.6391 6.26671 -8.0846 0
M  V30 206 H 25.0091 6.29101 -7.32804 0
M  V30 207 H 27.6481 5.84315 -2.47318 0
M  V30 208 P 29.5057 7.39546 -4.75277 0
M  V30 209 O 30.9277 7.84798 -5.01039 0
M  V30 210 O 29.1457 5.9812 -5.08098 0
M  V30 211 O 29.1827 7.57503 -3.1866 0
M  V30 212 C 29.0227 8.97357 -2.74833 0
M  V30 213 C 29.5627 9.07548 -1.32709 0
M  V30 214 O 28.5067 8.62072 -0.606159 0
M  V30 215 C 30.7807 8.25383 -0.938334 0
M  V30 216 O 31.5187 8.74577 0.146954 0
M  V30 217 C 30.1117 6.8802 -0.712559 0
M  V30 218 O 30.9107 6.1189 0.194655 0
M  V30 219 C 28.7747 7.27966 -0.139777 0
M  V30 220 H 28.8067 7.25354 0.961601 0
M  V30 221 H 29.9897 6.32557 -1.65702 0
M  V30 222 H 31.4737 8.19355 -1.79097 0
M  V30 223 H 29.7797 10.1294 -1.10029 0
M  V30 224 H 29.5897 9.64276 -3.41316 0
M  V30 225 H 27.9597 9.25417 -2.76357 0
M  V30 226 H 30.5987 6.25267 1.07847 0
M  V30 227 P 32.4563 8.791 -9.96115e-15 0
M  V30 228 O 33.8783 9.31096 0.027933 0
M  V30 229 O 32.0963 7.77869 -1.04071 0
M  V30 230 O 32.1333 8.09533 1.41463 0
M  V30 231 C 31.9733 9.0349 2.53943 0
M  V30 232 C 32.5133 8.35226 3.79016 0
M  V30 233 O 31.4573 7.57992 4.15078 0
M  V30 234 C 33.7313 7.45087 3.67298 0
M  V30 235 O 34.4693 7.27796 4.85194 0
M  V30 236 C 33.0623 6.17323 3.12027 0
M  V30 237 O 33.8613 5.04231 3.47188 0
M  V30 238 C 31.7253 6.19961 3.81809 0
M  V30 239 H 31.7573 5.58218 4.73051 0
M  V30 240 H 32.9403 6.21726 2.02589 0
M  V30 241 H 34.4243 7.86112 2.9231 0
M  V30 242 H 32.7303 9.11627 4.55076 0
M  V30 243 H 32.5403 9.9573 2.34194 0
M  V30 244 H 30.9103 9.2792 2.67832 0
M  V30 245 H 33.5493 4.67702 4.28772 0
M  V30 246 P 35.4068 7.39546 4.75277 0
M  V30 247 O 36.8288 7.81777 5.05738 0
M  V30 248 O 35.0468 7.1065 3.32998 0
M  V30 249 O 35.0838 6.04542 5.56673 0
M  V30 250 C 34.9238 6.22772 7.02095 0
M  V30 251 C 35.4638 4.97725 7.70406 0
M  V30 252 O 34.4078 4.13256 7.58987 0
M  V30 253 C 36.6818 4.28231 7.11815 0
M  V30 254 O 37.4198 3.49945 8.01648 0
M  V30 255 C 36.0128 3.5063 5.96244 0
M  V30 256 O 36.8118 2.36482 5.64681 0
M  V30 257 C 34.6758 3.15122 6.56374 0
M  V30 258 H 34.7078 2.13853 6.99751 0
M  V30 259 H 35.8908 4.13501 5.06559 0
M  V30 260 H 37.3748 5.03285 6.70911 0
M  V30 261 H 35.6808 5.20877 8.75697 0
M  V30 262 H 35.4908 7.11046 7.35349 0
M  V30 263 H 33.8608 6.35815 7.26986 0
M  V30 264 H 36.4998 1.61644 6.13565 0
M  V30 265 P 38.3574 3.65191 7.99657 0
M  V30 266 O 39.7794 3.8425 8.48115 0
M  V30 267 O 37.9974 4.17805 6.64342 0
M  V30 268 O 38.0344 2.07613 7.95143 0
M  V30 269 C 37.8744 1.44328 9.27336 0
M  V30 270 C 38.4144 0.0220036 9.17197 0
M  V30 271 O 37.3584 -0.626867 8.61923 0
M  V30 272 C 39.6324 -0.24586 8.30336 0
M  V30 273 O 40.3704 -1.39011 8.63583 0
M  V30 274 C 38.9634 -0.273849 6.91158 0
M  V30 275 O 39.7624 -1.06348 6.02892 0
M  V30 276 C 37.6264 -0.897649 7.22545 0
M  V30 277 H 37.6584 -1.9841 7.04286 0
M  V30 278 H 38.8414 0.739928 6.497 0
M  V30 279 H 40.3254 0.60668 8.36503 0
M  V30 280 H 38.6314 -0.352479 10.1829 0
M  V30 281 H 38.4414 2.00611 10.0304 0
M  V30 282 H 36.8114 1.41843 9.55327 0
M  V30 283 H 39.4504 -1.95734 6.03555 0
M  V30 284 P 41.308 -1.25109 8.70152 0
M  V30 285 O 42.729 -1.35288 9.2132 0
M  V30 286 O 40.948 -0.0769065 7.84762 0
M  V30 287 O 40.985 -2.55232 7.81161 0
M  V30 288 C 40.824 -3.79979 8.58246 0
M  V30 289 C 41.365 -4.94023 7.72785 0
M  V30 290 O 40.31 -5.18666 6.91125 0
M  V30 291 C 42.583 -4.69597 6.85231 0
M  V30 292 O 43.321 -5.83832 6.51337 0
M  V30 293 C 41.915 -3.96706 5.66633 0
M  V30 294 O 42.713 -4.14896 4.5003 0
M  V30 295 C 40.577 -4.66153 5.59313 0
M  V30 296 N 39.534 -3.71582 5.24027 0
M  V30 297 C 39.703 -2.39715 5.48833 0
M  V30 298 N 38.676 -1.65863 5.12845 0
M  V30 299 C 37.791 -2.57637 4.5973 0
M  V30 300 C 36.524 -2.40278 4.01027 0
M  V30 301 N 35.925 -1.19549 3.86744 0
M  V30 302 N 35.959 -3.57711 3.59575 0
M  V30 303 C 36.561 -4.80324 3.70476 0
M  V30 304 N 37.738 -5.01121 4.23801 0
M  V30 305 C 38.313 -3.84757 4.66372 0
M  V30 306 H 40.609 -5.47604 4.85148 0
M  V30 307 H 41.792 -2.8955 5.86187 0
M  V30 308 H 43.275 -4.0121 7.36511 0
M  V30 309 H 41.581 -5.81019 8.37003 0
M  V30 310 H 41.391 -3.73517 9.52265 0
M  V30 311 H 39.761 -3.97163 8.80359 0
M  V30 312 H 36.025 -5.66348 3.3183 0
M  V30 313 H 40.603 -1.98804 5.94332 0
M  V30 314 H 34.995 -1.13147 3.4281 0
M  V30 315 H 36.399 -0.344074 4.19692 0
M  V30 316 H 42.401 -4.90891 4.01857 0
M  V30 317 P 44.2585 -5.75688 6.64379 0
M  V30 318 O 45.6805 -6.11849 7.01846 0
M  V30 319 O 43.8985 -4.30744 6.56026 0
M  V30 320 O 43.9355 -6.37042 5.19165 0
M  V30 321 C 43.7755 -7.83578 5.16515 0
M  V30 322 C 44.3155 -8.33398 3.83019 0
M  V30 323 O 43.2595 -8.10074 3.01034 0
M  V30 324 C 45.5335 -7.65514 3.2257 0
M  V30 325 O 46.2715 -8.4329 2.32297 0
M  V30 326 C 44.8645 -6.40075 2.62207 0
M  V30 327 O 45.6635 -5.92589 1.53712 0
M  V30 328 C 43.5275 -6.9454 2.18503 0
M  V30 329 H 43.5595 -7.23063 1.12091 0
M  V30 330 H 44.7425 -5.6025 3.37201 0
M  V30 331 H 46.2265 -7.35707 4.02681 0
M  V30 332 H 44.5325 -9.40912 3.9095 0
M  V30 333 H 44.3425 -8.29056 5.99158 0
M  V30 334 H 42.7125 -8.10073 5.25882 0
M  V30 335 H 45.3515 -6.30324 0.726794 0
M  V30 336 P 47.2091 -8.4349 2.47671 0
M  V30 337 O 48.6311 -8.94167 2.5964 0
M  V30 338 O 46.8491 -7.1704 3.19006 0
M  V30 339 O 46.8861 -8.16596 0.923387 0
M  V30 340 C 46.7261 -9.38437 0.108857 0
M  V30 341 C 47.2661 -9.08175 -1.28353 0
M  V30 342 O 46.2101 -8.44229 -1.84713 0
M  V30 343 C 48.4841 -8.18386 -1.42505 0
M  V30 344 O 49.2221 -8.3501 -2.60497 0
M  V30 345 C 47.8151 -6.80225 -1.25468 0
M  V30 346 O 48.6141 -5.81621 -1.91066 0
M  V30 347 C 46.4781 -7.02416 -1.9168 0
M  V30 348 H 46.5101 -6.6888 -2.96621 0
M  V30 349 H 47.6931 -6.53617 -0.192223 0
M  V30 350 H 49.1771 -8.36622 -0.589963 0
M  V30 351 H 47.4831 -10.0291 -1.79807 0
M  V30 352 H 47.2931 -10.2138 0.558219 0
M  V30 353 H 45.6631 -9.6579 0.0444202 0
M  V30 354 H 48.3021 -5.69556 -2.79637 0
M  V30 355 P 50.1597 -8.4349 -2.47671 0
M  V30 356 O 51.5817 -8.92593 -2.65 0
M  V30 357 O 49.7997 -7.7568 -1.19296 0
M  V30 358 O 49.8367 -7.36886 -3.63805 0
M  V30 359 C 49.6767 -7.95349 -4.982 0
M  V30 360 C 50.2167 -6.94612 -5.98974 0
M  V30 361 O 49.1607 -6.10347 -6.11815 0
M  V30 362 C 51.4347 -6.11426 -5.62335 0
M  V30 363 O 52.1727 -5.6162 -6.70584 0
M  V30 364 C 50.7657 -5.04409 -4.73308 0
M  V30 365 O 51.5647 -3.85992 -4.75183 0
M  V30 366 C 49.4287 -4.8728 -5.41006 0
M  V30 367 H 49.4607 -4.02333 -6.11157 0
M  V30 368 H 50.6437 -5.39466 -3.69543 0
M  V30 369 H 52.1277 -6.71916 -5.01943 0
M  V30 370 H 50.4337 -7.4649 -6.93477 0
M  V30 371 H 50.2437 -8.89416 -5.05237 0
M  V30 372 H 48.6137 -8.14876 -5.18409 0
M  V30 373 H 51.2527 -3.27957 -5.4317 0
M  V30 374 P 53.1103 -5.75688 -6.64379 0
M  V30 375 O 54.5323 -6.07627 -7.05504 0
M  V30 376 O 52.7503 -5.88047 -5.19722 0
M  V30 377 O 52.7873 -4.2322 -7.04443 0
M  V30 378 C 52.6273 -3.99743 -8.4911 0
M  V30 379 C 53.1673 -2.60516 -8.79425 0
M  V30 380 O 52.1113 -1.82684 -8.4467 0
M  V30 381 C 54.3853 -2.10343 -8.03628 0
M  V30 382 O 55.1233 -1.09919 -8.67766 0
M  V30 383 C 53.7163 -1.68446 -6.70876 0
M  V30 384 O 54.5153 -0.678137 -6.08433 0
M  V30 385 C 52.3793 -1.17436 -7.18567 0
M  V30 386 H 52.4113 -0.0804732 -7.31656 0
M  V30 387 H 53.5943 -2.54037 -6.02537 0
M  V30 388 H 55.0783 -2.93881 -7.85526 0
M  V30 389 H 53.3843 -2.53065 -9.86973 0
M  V30 390 H 53.1943 -4.75072 -9.05887 0
M  V30 391 H 51.5643 -4.05244 -8.76668 0
M  V30 392 H 54.2033 0.177647 -6.34251 0
M  V30 393 P 56.0608 -1.25109 -8.70152 0
M  V30 394 O 57.4828 -1.29772 -9.22214 0
M  V30 395 O 55.7008 -2.13714 -7.55141 0
M  V30 396 O 55.7378 0.248149 -8.21425 0
M  V30 397 C 55.5778 1.22779 -9.30434 0
M  V30 398 C 56.1178 2.56265 -8.80568 0
M  V30 399 O 55.0628 3.02979 -8.09349 0
M  V30 400 C 57.3358 2.57523 -7.89775 0
M  V30 401 O 58.0738 3.7668 -7.89438 0
M  V30 402 C 56.6678 2.20997 -6.55446 0
M  V30 403 O 57.4658 2.71851 -5.48419 0
M  V30 404 C 55.3298 2.89693 -6.67988 0
M  V30 405 N 54.2868 2.08895 -6.07487 0
M  V30 406 C 54.3488 0.760559 -6.14209 0
M  V30 407 N 53.3038 0.200108 -5.52538 0
M  V30 408 C 52.5698 1.22692 -5.09742 0
M  V30 409 C 51.2638 1.24782 -4.48775 0
M  V30 410 O 50.5308 0.290617 -4.19294 0
M  V30 411 N 50.8338 2.50468 -4.22428 0
M  V30 412 C 51.5828 3.67142 -4.51974 0
M  V30 413 N 50.9858 4.85096 -4.14091 0
M  V30 414 N 52.7358 3.67821 -5.12831 0
M  V30 415 C 53.1928 2.43698 -5.4105 0
M  V30 416 H 55.3618 3.88793 -6.19859 0
M  V30 417 H 56.5448 1.12029 -6.4413 0
M  V30 418 H 58.0298 1.78279 -8.19533 0
M  V30 419 H 56.3348 3.20706 -9.67112 0
M  V30 420 H 56.1448 0.901032 -10.1892 0
M  V30 421 H 54.5138 1.33049 -9.56592 0
M  V30 422 H 49.9378 2.61953 -3.79465 0
M  V30 423 H 55.1448 0.200439 -6.63497 0
M  V30 424 H 50.0748 4.8334 -3.66367 0
M  V30 425 H 51.4508 5.7474 -4.33841 0
M  V30 426 H 57.1548 3.5779 -5.23879 0
M  V30 427 P 59.0114 3.65191 -7.99657 0
M  V30 428 O 60.4334 3.89332 -8.45794 0
M  V30 429 O 58.6514 2.28472 -7.50807 0
M  V30 430 O 58.6884 4.64972 -6.77611 0
M  V30 431 C 58.5284 6.06319 -7.16352 0
M  V30 432 C 59.0684 6.91731 -6.02299 0
M  V30 433 O 58.0124 6.92449 -5.17064 0
M  V30 434 C 60.2864 6.43627 -5.25174 0
M  V30 435 O 61.0244 7.43686 -4.60469 0
M  V30 436 C 59.6174 5.40275 -4.31916 0
M  V30 437 O 60.4164 5.25279 -3.14438 0
M  V30 438 C 58.2804 6.04847 -4.05327 0
M  V30 439 H 58.3124 6.62195 -3.11261 0
M  V30 440 H 59.4954 4.42556 -4.81383 0
M  V30 441 H 60.9794 5.92458 -5.93643 0
M  V30 442 H 59.2854 7.92655 -6.402 0
M  V30 443 H 59.0954 6.26671 -8.0846 0
M  V30 444 H 57.4654 6.29101 -7.32804 0
M  V30 445 H 60.1044 5.84315 -2.47318 0
M  V30 446 P 61.962 7.39546 -4.75277 0
M  V30 447 O 63.384 7.84798 -5.01039 0
M  V30 448 O 61.602 5.9812 -5.08098 0
M  V30 449 O 61.639 7.57503 -3.1866 0
M  V30 450 C 61.479 8.97357 -2.74833 0
M  V30 451 C 62.019 9.07548 -1.32709 0
M  V30 452 O 60.963 8.62072 -0.606159 0
M  V30 453 C 63.237 8.25383 -0.938334 0
M  V30 454 O 63.975 8.74577 0.146954 0
M  V30 455 C 62.568 6.8802 -0.712559 0
M  V30 456 O 63.367 6.1189 0.194655 0
M  V30 457 C 61.231 7.27966 -0.139777 0
M  V30 458 H 61.263 7.25354 0.961601 0
M  V30 459 H 62.446 6.32557 -1.65702 0
M  V30 460 H 63.93 8.19355 -1.79097 0
M  V30 461 H 62.236 10.1294 -1.10029 0
M  V30 462 H 62.046 9.64276 -3.41316 0
M  V30 463 H 60.416 9.25417 -2.76357 0
M  V30 464 H 63.055 6.25267 1.07847 0
M  V30 465 P 64.9125 8.791 -3.55383e-14 0
M  V30 466 O 66.3345 9.31296 0.027939 0
M  V30 467 O 64.5525 7.77869 -1.04071 0
M  V30 468 O 64.5895 8.09533 1.41463 0
M  V30 469 C 64.4295 9.0349 2.53943 0
M  V30 470 C 64.9695 8.35135 3.78975 0
M  V30 471 O 63.9145 7.57992 4.15078 0
M  V30 472 C 66.1875 7.45087 3.67298 0
M  V30 473 O 66.9255 7.27796 4.85194 0
M  V30 474 C 65.5195 6.17323 3.12027 0
M  V30 475 O 66.3175 5.04149 3.47132 0
M  V30 476 C 64.1815 6.19961 3.81809 0
M  V30 477 N 63.1385 5.71575 2.93223 0
M  V30 478 C 63.2005 5.97133 1.62693 0
M  V30 479 N 62.1555 5.44066 0.984414 0
M  V30 480 C 61.4215 4.87093 1.93987 0
M  V30 481 C 60.1155 4.26449 1.8738 0
M  V30 482 O 59.3825 4.1089 0.884377 0
M  V30 483 N 59.6855 3.82483 3.08036 0
M  V30 484 C 60.4345 3.95124 4.27727 0
M  V30 485 N 59.8375 3.4084 5.39089 0
M  V30 486 N 61.5875 4.55264 4.3706 0
M  V30 487 C 62.0445 5.00861 3.18217 0
M  V30 488 H 64.2135 5.58218 4.73051 0
M  V30 489 H 65.3965 6.21631 2.02558 0
M  V30 490 H 66.8815 7.85819 2.93096 0
M  V30 491 H 65.1865 9.11627 4.55076 0
M  V30 492 H 64.9965 9.9573 2.34194 0
M  V30 493 H 63.3655 9.2792 2.67832 0
M  V30 494 H 58.7895 3.38323 3.1329 0
M  V30 495 H 63.9965 6.53891 1.14265 0
M  V30 496 H 58.9265 2.93852 5.30559 0
M  V30 497 H 60.3025 3.47631 6.30632 0
M  V30 498 H 66.0065 4.67628 4.28704 0
M  V30 499 P 67.8631 7.39546 4.75277 0
M  V30 500 O 69.2841 7.81861 5.05793 0
M  V30 501 O 67.5031 7.1065 3.32998 0
M  V30 502 O 67.5401 6.04542 5.56673 0
M  V30 503 C 67.3791 6.22839 7.02169 0
M  V30 504 C 67.9201 4.97725 7.70406 0
M  V30 505 O 66.8651 4.13208 7.58899 0
M  V30 506 C 69.1381 4.28231 7.11815 0
M  V30 507 O 69.8761 3.49945 8.01648 0
M  V30 508 C 68.4701 3.5063 5.96244 0
M  V30 509 O 69.2681 2.37008 5.64352 0
M  V30 510 C 67.1321 3.15122 6.56374 0
M  V30 511 N 66.0891 3.22311 5.55692 0
M  V30 512 C 66.2581 3.99655 4.46046 0
M  V30 513 N 65.2311 3.97599 3.63918 0
M  V30 514 C 64.3461 3.11159 4.25334 0
M  V30 515 C 63.0791 2.64972 3.85157 0
M  V30 516 N 62.5141 1.78482 4.74759 0
M  V30 517 C 63.1161 1.37463 5.90819 0
M  V30 518 N 64.2931 1.7733 6.31889 0
M  V30 519 C 64.8681 2.64393 5.43725 0
M  V30 520 H 68.3471 4.12931 5.06895 0
M  V30 521 H 69.8301 5.03285 6.70911 0
M  V30 522 H 68.1361 5.20001 8.76217 0
M  V30 523 H 67.9461 7.11046 7.35349 0
M  V30 524 H 66.3161 6.35815 7.26986 0
M  V30 525 H 67.1581 4.58037 4.27732 0
M  V30 526 H 68.9561 1.61619 6.13468 0
M  V30 527 P 70.8137 3.65191 7.99657 0
M  V30 528 O 72.2347 3.84292 8.48206 0
M  V30 529 O 70.4537 4.17805 6.64342 0
M  V30 530 O 70.4907 2.07613 7.95143 0
M  V30 531 C 70.3297 1.44344 9.27435 0
M  V30 532 C 70.8707 0.0220036 9.17197 0
M  V30 533 O 69.8157 -0.626794 8.61824 0
M  V30 534 C 72.0887 -0.24586 8.30336 0
M  V30 535 O 72.8267 -1.39011 8.63583 0
M  V30 536 C 71.4207 -0.273849 6.91158 0
M  V30 537 O 72.2187 -1.05728 6.029 0
M  V30 538 C 70.0827 -0.897649 7.22545 0
M  V30 539 N 69.0397 -0.292839 6.41732 0
M  V30 540 C 69.2087 0.950603 5.91308 0
M  V30 541 N 68.1817 1.37732 5.21105 0
M  V30 542 C 67.2967 0.318109 5.26039 0
M  V30 543 C 66.0297 0.146766 4.6727 0
M  V30 544 N 65.4307 1.08519 3.89983 0
M  V30 545 N 65.4647 -1.06525 4.95887 0
M  V30 546 C 66.0667 -2.0378 5.71347 0
M  V30 547 N 67.2437 -1.92445 6.27451 0
M  V30 548 C 67.8187 -0.715382 6.00353 0
M  V30 549 H 70.1147 -1.98383 7.04189 0
M  V30 550 H 71.2977 0.733318 6.49674 0
M  V30 551 H 72.7807 0.60668 8.36503 0
M  V30 552 H 71.0867 -0.362662 10.1825 0
M  V30 553 H 70.8967 2.00611 10.0304 0
M  V30 554 H 69.2667 1.41843 9.55327 0
M  V30 555 H 65.5307 -2.97041 5.85344 0
M  V30 556 H 70.1087 1.54076 6.07465 0
M  V30 557 H 64.5007 0.901517 3.49562 0
M  V30 558 H 65.9047 1.97957 3.71669 0
M  V30 559 H 71.9067 -1.95704 6.0346 0
M  V30 560 P 73.7642 -1.25109 8.70152 0
M  V30 561 O 75.1862 -1.35274 9.21221 0
M  V30 562 O 73.4042 -0.0769065 7.84762 0
M  V30 563 O 73.4412 -2.55232 7.81161 0
M  V30 564 C 73.2812 -3.79939 8.58154 0
M  V30 565 C 73.8212 -4.94023 7.72785 0
M  V30 566 O 72.7652 -5.18726 6.91205 0
M  V30 567 C 75.0392 -4.69597 6.85231 0
M  V30 568 O 75.7772 -5.83832 6.51337 0
M  V30 569 C 74.3702 -3.96706 5.66633 0
M  V30 570 O 75.1692 -4.15414 4.49689 0
M  V30 571 C 73.0332 -4.66153 5.59313 0
M  V30 572 H 73.0652 -5.47679 4.85214 0
M  V30 573 H 74.2482 -2.89008 5.86566 0
M  V30 574 H 75.7322 -4.0121 7.36511 0
M  V30 575 H 74.0382 -5.80182 8.37584 0
M  V30 576 H 73.8482 -3.73517 9.52265 0
M  V30 577 H 72.2182 -3.97163 8.80359 0
M  V30 578 H 74.8572 -4.90969 4.01921 0
M  V30 579 P 76.7148 -5.75688 6.64379 0
M  V30 580 O 78.1368 -6.11849 7.01846 0
M  V30 581 O 76.3548 -4.30744 6.56026 0
M  V30 582 O 76.3918 -6.37042 5.19165 0
M  V30 583 C 76.2318 -7.83578 5.16515 0
M  V30 584 C 76.7718 -8.33398 3.83019 0
M  V30 585 O 75.7158 -8.10074 3.01034 0
M  V30 586 C 77.9898 -7.65514 3.2257 0
M  V30 587 O 78.7278 -8.4329 2.32297 0
M  V30 588 C 77.3208 -6.40075 2.62207 0
M  V30 589 O 78.1198 -5.92589 1.53712 0
M  V30 590 C 75.9838 -6.9454 2.18503 0
M  V30 591 H 76.0158 -7.23063 1.12091 0
M  V30 592 H 77.1988 -5.6025 3.37201 0
M  V30 593 H 78.6828 -7.35707 4.02681 0
M  V30 594 H 76.9888 -9.40912 3.9095 0
M  V30 595 H 76.7988 -8.29056 5.99158 0
M  V30 596 H 75.1688 -8.10073 5.25882 0
M  V30 597 H 77.8078 -6.30324 0.726794 0
M  V30 598 P 79.6654 -8.4349 2.47671 0
M  V30 599 O 81.0874 -8.94167 2.5964 0
M  V30 600 O 79.3054 -7.1704 3.19006 0
M  V30 601 O 79.3424 -8.16596 0.923387 0
M  V30 602 C 79.1824 -9.38437 0.108857 0
M  V30 603 C 79.7224 -9.08175 -1.28353 0
M  V30 604 O 78.6664 -8.44229 -1.84713 0
M  V30 605 C 80.9404 -8.18386 -1.42505 0
M  V30 606 O 81.6784 -8.3501 -2.60497 0
M  V30 607 C 80.2714 -6.80225 -1.25468 0
M  V30 608 O 81.0704 -5.81621 -1.91066 0
M  V30 609 C 78.9344 -7.02416 -1.9168 0
M  V30 610 H 78.9664 -6.6888 -2.96621 0
M  V30 611 H 80.1494 -6.53617 -0.192223 0
M  V30 612 H 81.6334 -8.36622 -0.589963 0
M  V30 613 H 79.9394 -10.0291 -1.79807 0
M  V30 614 H 79.7494 -10.2138 0.558219 0
M  V30 615 H 78.1194 -9.6579 0.0444202 0
M  V30 616 H 80.7584 -5.69556 -2.79637 0
M  V30 617 P 82.616 -8.4349 -2.47671 0
M  V30 618 O 84.038 -8.92593 -2.65 0
M  V30 619 O 82.256 -7.7568 -1.19296 0
M  V30 620 O 82.293 -7.36886 -3.63805 0
M  V30 621 C 82.133 -7.95349 -4.982 0
M  V30 622 C 82.673 -6.94612 -5.98974 0
M  V30 623 O 81.617 -6.10347 -6.11815 0
M  V30 624 C 83.891 -6.11426 -5.62335 0
M  V30 625 O 84.629 -5.6162 -6.70584 0
M  V30 626 C 83.222 -5.04409 -4.73308 0
M  V30 627 O 84.021 -3.85992 -4.75183 0
M  V30 628 C 81.885 -4.8728 -5.41006 0
M  V30 629 H 81.917 -4.02333 -6.11157 0
M  V30 630 H 83.1 -5.39466 -3.69543 0
M  V30 631 H 84.584 -6.71916 -5.01943 0
M  V30 632 H 82.89 -7.4649 -6.93477 0
M  V30 633 H 82.7 -8.89416 -5.05237 0
M  V30 634 H 81.07 -8.14876 -5.18409 0
M  V30 635 H 83.709 -3.27957 -5.4317 0
M  V30 636 P 85.5665 -5.75688 -6.64379 0
M  V30 637 O 86.9885 -6.07627 -7.05504 0
M  V30 638 O 85.2065 -5.88047 -5.19722 0
M  V30 639 O 85.2435 -4.2322 -7.04443 0
M  V30 640 C 85.0835 -3.99743 -8.4911 0
M  V30 641 C 85.6235 -2.60516 -8.79425 0
M  V30 642 O 84.5675 -1.82684 -8.4467 0
M  V30 643 C 86.8415 -2.10343 -8.03628 0
M  V30 644 O 87.5795 -1.09919 -8.67766 0
M  V30 645 C 86.1725 -1.68446 -6.70876 0
M  V30 646 O 86.9715 -0.678137 -6.08433 0
M  V30 647 C 84.8355 -1.17436 -7.18567 0
M  V30 648 H 84.8675 -0.0804732 -7.31656 0
M  V30 649 H 86.0505 -2.54037 -6.02537 0
M  V30 650 H 87.5345 -2.93881 -7.85526 0
M  V30 651 H 85.8405 -2.53065 -9.86973 0
M  V30 652 H 85.6505 -4.75072 -9.05887 0
M  V30 653 H 84.0205 -4.05244 -8.76668 0
M  V30 654 H 86.6595 0.177647 -6.34251 0
M  V30 655 P 88.5171 -1.25109 -8.70152 0
M  V30 656 O 89.9391 -1.29744 -9.22016 0
M  V30 657 O 88.1571 -2.13714 -7.55141 0
M  V30 658 O 88.1941 0.248149 -8.21425 0
M  V30 659 C 88.0341 1.22779 -9.30434 0
M  V30 660 C 88.5741 2.56293 -8.80664 0
M  V30 661 O 87.5181 3.02979 -8.09349 0
M  V30 662 C 89.7921 2.57523 -7.89775 0
M  V30 663 O 90.5301 3.7668 -7.89438 0
M  V30 664 C 89.1231 2.20997 -6.55446 0
M  V30 665 O 89.9221 2.71895 -5.48509 0
M  V30 666 C 87.7861 2.89693 -6.67988 0
M  V30 667 H 87.8181 3.88793 -6.19859 0
M  V30 668 H 89.0011 1.12046 -6.44229 0
M  V30 669 H 90.4851 1.7746 -8.19711 0
M  V30 670 H 88.7911 3.20706 -9.67112 0
M  V30 671 H 88.6011 0.901032 -10.1892 0
M  V30 672 H 86.9711 1.33049 -9.56592 0
M  V30 673 H 89.6101 3.57847 -5.23962 0
M  V30 674 P 91.4677 3.65191 -7.99657 0
M  V30 675 O 92.8897 3.89332 -8.45794 0
M  V30 676 O 91.1077 2.28472 -7.50807 0
M  V30 677 O 91.1447 4.64972 -6.77611 0
M  V30 678 C 90.9847 6.06319 -7.16352 0
M  V30 679 C 91.5247 6.91731 -6.02299 0
M  V30 680 O 90.4687 6.92449 -5.17064 0
M  V30 681 C 92.7427 6.43627 -5.25174 0
M  V30 682 O 93.4807 7.43686 -4.60469 0
M  V30 683 C 92.0737 5.40275 -4.31916 0
M  V30 684 O 92.8727 5.25279 -3.14438 0
M  V30 685 C 90.7367 6.04847 -4.05327 0
M  V30 686 H 90.7687 6.62195 -3.11261 0
M  V30 687 H 91.9517 4.42556 -4.81383 0
M  V30 688 H 93.4357 5.92458 -5.93643 0
M  V30 689 H 91.7417 7.92655 -6.402 0
M  V30 690 H 91.5517 6.26671 -8.0846 0
M  V30 691 H 89.9217 6.29101 -7.32804 0
M  V30 692 H 92.5607 5.84315 -2.47318 0
M  V30 693 P 94.4182 7.39546 -4.75277 0
M  V30 694 O 95.8402 7.84798 -5.01039 0
M  V30 695 O 94.0582 5.9812 -5.08098 0
M  V30 696 O 94.0952 7.57503 -3.1866 0
M  V30 697 C 93.9352 8.97357 -2.74833 0
M  V30 698 C 94.4752 9.07548 -1.32709 0
M  V30 699 O 93.4192 8.62072 -0.606159 0
M  V30 700 C 95.6932 8.25383 -0.938334 0
M  V30 701 O 96.4312 8.74577 0.146954 0
M  V30 702 C 95.0242 6.8802 -0.712559 0
M  V30 703 O 95.8232 6.1189 0.194655 0
M  V30 704 C 93.6872 7.27966 -0.139777 0
M  V30 705 H 93.7192 7.25354 0.961601 0
M  V30 706 H 94.9022 6.32557 -1.65702 0
M  V30 707 H 96.3862 8.19355 -1.79097 0
M  V30 708 H 94.6922 10.1294 -1.10029 0
M  V30 709 H 94.5022 9.64276 -3.41316 0
M  V30 710 H 92.8722 9.25417 -2.76357 0
M  V30 711 H 95.5112 6.25267 1.07847 0
M  V30 712 P 97.3688 8.791 -6.89233e-14 0
M  V30 713 O 98.7908 9.31096 0.027933 0
M  V30 714 O 97.0088 7.77869 -1.04071 0
M  V30 715 O 97.0458 8.09533 1.41463 0
M  V30 716 C 96.8858 9.0349 2.53943 0
M  V30 717 C 97.4258 8.35226 3.79016 0
M  V30 718 O 96.3698 7.57992 4.15078 0
M  V30 719 C 98.6438 7.45087 3.67298 0
M  V30 720 O 99.3818 7.27796 4.85194 0
M  V30 721 C 97.9748 6.17323 3.12027 0
M  V30 722 O 98.7738 5.04231 3.47188 0
M  V30 723 C 96.6378 6.19961 3.81809 0
M  V30 724 H 96.6698 5.58218 4.73051 0
M  V30 725 H 97.8528 6.21726 2.02589 0
M  V30 726 H 99.3368 7.86112 2.9231 0
M  V30 727 H 97.6428 9.11627 4.55076 0
M  V30 728 H 97.4528 9.9573 2.34194 0
M  V30 729 H 95.8228 9.2792 2.67832 0
M  V30 730 H 98.4618 4.67702 4.28772 0
M  V30 731 P 100.319 7.39546 4.75277 0
M  V30 732 O 101.72 7.89013 5.04841 0
M  V30 733 O 99.9414 7.16603 3.32298 0
M  V30 734 O 99.9964 6.04468 5.56605 0
M  V30 735 C 99.8364 6.22772 7.02095 0
M  V30 736 C 100.376 4.97671 7.70322 0
M  V30 737 O 99.3204 4.13208 7.58899 0
M  V30 738 C 101.593 4.28231 7.11815 0
M  V30 739 O 102.332 3.49945 8.01648 0
M  V30 740 C 100.926 3.5063 5.96244 0
M  V30 741 O 101.724 2.36443 5.64589 0
M  V30 742 C 99.5884 3.15122 6.56374 0
M  V30 743 N 98.5454 3.22311 5.55692 0
M  V30 744 C 97.5104 2.32244 5.62437 0
M  V30 745 O 97.5494 1.43107 6.50341 0
M  V30 746 N 96.4984 2.40811 4.73368 0
M  V30 747 C 96.5464 3.344 3.77753 0
M  V30 748 N 95.5364 3.41475 2.91848 0
M  V30 749 C 97.6424 4.24712 3.66679 0
M  V30 750 C 98.6084 4.15625 4.58307 0
M  V30 751 H 99.6204 2.13823 6.99656 0
M  V30 752 H 100.803 4.12931 5.06895 0
M  V30 753 H 102.287 5.02674 6.71494 0
M  V30 754 H 100.593 5.20001 8.76217 0
M  V30 755 H 100.402 7.11046 7.35349 0
M  V30 756 H 98.7724 6.35749 7.26911 0
M  V30 757 H 97.6904 4.9828 2.86753 0
M  V30 758 H 99.4544 4.84464 4.54228 0
M  V30 759 H 94.7464 2.75785 2.99862 0
M  V30 760 H 95.5414 4.12304 2.17382 0
M  V30 761 H 101.508 1.65592 6.23485 0
M  V30 762 P 103.27 3.65191 7.99657 0
M  V30 763 O 104.692 3.8425 8.48115 0
M  V30 764 O 102.91 4.17805 6.64342 0
M  V30 765 O 102.947 2.07613 7.95143 0
M  V30 766 C 102.787 1.44328 9.27336 0
M  V30 767 C 103.327 0.0220036 9.17197 0
M  V30 768 O 102.271 -0.626867 8.61923 0
M  V30 769 C 104.545 -0.24586 8.30336 0
M  V30 770 O 105.283 -1.39011 8.63583 0
M  V30 771 C 103.876 -0.273849 6.91158 0
M  V30 772 O 104.675 -1.06348 6.02892 0
M  V30 773 C 102.539 -0.897649 7.22545 0
M  V30 774 H 102.571 -1.9841 7.04286 0
M  V30 775 H 103.754 0.739928 6.497 0
M  V30 776 H 105.238 0.60668 8.36503 0
M  V30 777 H 103.544 -0.352479 10.1829 0
M  V30 778 H 103.354 2.00611 10.0304 0
M  V30 779 H 101.724 1.41843 9.55327 0
M  V30 780 H 104.363 -1.95734 6.03555 0
M  V30 781 P 106.221 -1.25109 8.70152 0
M  V30 782 O 107.643 -1.35274 9.21221 0
M  V30 783 O 105.861 -0.0769065 7.84762 0
M  V30 784 O 105.898 -2.55232 7.81161 0
M  V30 785 C 105.738 -3.79939 8.58154 0
M  V30 786 C 106.278 -4.94023 7.72785 0
M  V30 787 O 105.222 -5.18726 6.91205 0
M  V30 788 C 107.496 -4.69597 6.85231 0
M  V30 789 O 108.234 -5.83832 6.51337 0
M  V30 790 C 106.827 -3.96706 5.66633 0
M  V30 791 O 107.626 -4.15414 4.49689 0
M  V30 792 C 105.49 -4.66153 5.59313 0
M  V30 793 H 105.522 -5.47679 4.85214 0
M  V30 794 H 106.705 -2.89008 5.86566 0
M  V30 795 H 108.189 -4.0121 7.36511 0
M  V30 796 H 106.495 -5.80182 8.37584 0
M  V30 797 H 106.305 -3.73517 9.52265 0
M  V30 798 H 104.675 -3.97163 8.80359 0
M  V30 799 H 107.314 -4.90969 4.01921 0
M  V30 800 P 109.171 -5.75688 6.64379 0
M  V30 801 O 110.593 -6.11849 7.01846 0
M  V30 802 O 108.811 -4.30744 6.56026 0
M  V30 803 O 108.848 -6.37042 5.19165 0
M  V30 804 C 108.688 -7.83578 5.16515 0
M  V30 805 C 109.228 -8.33398 3.83019 0
M  V30 806 O 108.172 -8.10074 3.01034 0
M  V30 807 C 110.446 -7.65514 3.2257 0
M  V30 808 O 111.184 -8.4329 2.32297 0
M  V30 809 C 109.777 -6.40075 2.62207 0
M  V30 810 O 110.576 -5.92589 1.53712 0
M  V30 811 C 108.44 -6.9454 2.18503 0
M  V30 812 H 108.472 -7.23063 1.12091 0
M  V30 813 H 109.655 -5.6025 3.37201 0
M  V30 814 H 111.139 -7.35707 4.02681 0
M  V30 815 H 109.445 -9.40912 3.9095 0
M  V30 816 H 109.255 -8.29056 5.99158 0
M  V30 817 H 107.625 -8.10073 5.25882 0
M  V30 818 H 110.264 -6.30324 0.726794 0
M  V30 819 P 112.122 -8.4349 2.47671 0
M  V30 820 O 113.543 -8.94263 2.59668 0
M  V30 821 O 111.762 -7.1704 3.19006 0
M  V30 822 O 111.799 -8.16596 0.923387 0
M  V30 823 C 111.638 -9.38537 0.108869 0
M  V30 824 C 112.179 -9.08175 -1.28353 0
M  V30 825 O 111.124 -8.44131 -1.84692 0
M  V30 826 C 113.397 -8.18386 -1.42505 0
M  V30 827 O 114.135 -8.3501 -2.60497 0
M  V30 828 C 112.729 -6.80225 -1.25468 0
M  V30 829 O 113.527 -5.81716 -1.90454 0
M  V30 830 C 111.391 -7.02416 -1.9168 0
M  V30 831 N 110.348 -6.31033 -1.20314 0
M  V30 832 C 110.517 -5.98817 0.0994088 0
M  V30 833 N 109.49 -5.35403 0.621694 0
M  V30 834 C 108.605 -5.25212 -0.43376 0
M  V30 835 C 107.338 -4.64602 -0.519722 0
M  V30 836 N 106.773 -4.7568 -1.76013 0
M  V30 837 C 107.375 -5.3653 -2.83017 0
M  V30 838 N 108.552 -5.93676 -2.79782 0
M  V30 839 C 109.127 -5.84061 -1.56249 0
M  V30 840 H 112.606 -6.53498 -0.198729 0
M  V30 841 H 114.089 -8.36622 -0.589963 0
M  V30 842 H 112.395 -10.0273 -1.8081 0
M  V30 843 H 112.205 -10.2138 0.558219 0
M  V30 844 H 110.575 -9.6579 0.0444202 0
M  V30 845 H 111.417 -6.23209 0.660562 0
M  V30 846 H 113.215 -5.69466 -2.79593 0
M  V30 847 P 115.072 -8.4349 -2.47671 0
M  V30 848 O 116.494 -8.92593 -2.65 0
M  V30 849 O 114.712 -7.7568 -1.19296 0
M  V30 850 O 114.749 -7.36886 -3.63805 0
M  V30 851 C 114.589 -7.95349 -4.982 0
M  V30 852 C 115.129 -6.94612 -5.98974 0
M  V30 853 O 114.073 -6.10347 -6.11815 0
M  V30 854 C 116.347 -6.11426 -5.62335 0
M  V30 855 O 117.085 -5.6162 -6.70584 0
M  V30 856 C 115.678 -5.04409 -4.73308 0
M  V30 857 O 116.477 -3.85992 -4.75183 0
M  V30 858 C 114.341 -4.8728 -5.41006 0
M  V30 859 H 114.373 -4.02333 -6.11157 0
M  V30 860 H 115.556 -5.39466 -3.69543 0
M  V30 861 H 117.04 -6.71916 -5.01943 0
M  V30 862 H 115.346 -7.4649 -6.93477 0
M  V30 863 H 115.156 -8.89416 -5.05237 0
M  V30 864 H 113.526 -8.14876 -5.18409 0
M  V30 865 H 116.165 -3.27957 -5.4317 0
M  V30 866 P 118.023 -5.75688 -6.64379 0
M  V30 867 O 119.445 -6.07627 -7.05504 0
M  V30 868 O 117.663 -5.88047 -5.19722 0
M  V30 869 O 117.7 -4.2322 -7.04443 0
M  V30 870 C 117.54 -3.99743 -8.4911 0
M  V30 871 C 118.08 -2.60516 -8.79425 0
M  V30 872 O 117.024 -1.82684 -8.4467 0
M  V30 873 C 119.298 -2.10343 -8.03628 0
M  V30 874 O 120.036 -1.09919 -8.67766 0
M  V30 875 C 118.629 -1.68446 -6.70876 0
M  V30 876 O 119.428 -0.678137 -6.08433 0
M  V30 877 C 117.292 -1.17436 -7.18567 0
M  V30 878 H 117.324 -0.0804732 -7.31656 0
M  V30 879 H 118.507 -2.54037 -6.02537 0
M  V30 880 H 119.991 -2.93881 -7.85526 0
M  V30 881 H 118.297 -2.53065 -9.86973 0
M  V30 882 H 118.107 -4.75072 -9.05887 0
M  V30 883 H 116.477 -4.05244 -8.76668 0
M  V30 884 H 119.116 0.177647 -6.34251 0
M  V30 885 P 120.973 -1.25109 -8.70152 0
M  V30 886 O 122.395 -1.29744 -9.22016 0
M  V30 887 O 120.613 -2.13714 -7.55141 0
M  V30 888 O 120.65 0.248149 -8.21425 0
M  V30 889 C 120.49 1.22779 -9.30434 0
M  V30 890 C 121.03 2.56293 -8.80664 0
M  V30 891 O 119.974 3.02979 -8.09349 0
M  V30 892 C 122.248 2.57523 -7.89775 0
M  V30 893 O 122.986 3.7668 -7.89438 0
M  V30 894 C 121.579 2.20997 -6.55446 0
M  V30 895 O 122.378 2.71895 -5.48509 0
M  V30 896 C 120.242 2.89693 -6.67988 0
M  V30 897 H 120.274 3.88793 -6.19859 0
M  V30 898 H 121.457 1.12046 -6.44229 0
M  V30 899 H 122.941 1.7746 -8.19711 0
M  V30 900 H 121.247 3.20706 -9.67112 0
M  V30 901 H 121.057 0.901032 -10.1892 0
M  V30 902 H 119.427 1.33049 -9.56592 0
M  V30 903 H 122.066 3.57847 -5.23962 0
M  V30 904 P 123.924 3.65191 -7.99657 0
M  V30 905 O 125.346 3.89332 -8.45794 0
M  V30 906 O 123.564 2.28472 -7.50807 0
M  V30 907 O 123.601 4.64972 -6.77611 0
M  V30 908 C 123.441 6.06319 -7.16352 0
M  V30 909 C 123.981 6.91731 -6.02299 0
M  V30 910 O 122.925 6.92449 -5.17064 0
M  V30 911 C 125.199 6.43627 -5.25174 0
M  V30 912 O 125.937 7.43686 -4.60469 0
M  V30 913 C 124.53 5.40275 -4.31916 0
M  V30 914 O 125.329 5.25279 -3.14438 0
M  V30 915 C 123.193 6.04847 -4.05327 0
M  V30 916 H 123.225 6.62195 -3.11261 0
M  V30 917 H 124.408 4.42556 -4.81383 0
M  V30 918 H 125.892 5.92458 -5.93643 0
M  V30 919 H 124.198 7.92655 -6.402 0
M  V30 920 H 124.008 6.26671 -8.0846 0
M  V30 921 H 122.378 6.29101 -7.32804 0
M  V30 922 H 125.017 5.84315 -2.47318 0
M  V30 923 P 126.875 7.39546 -4.75277 0
M  V30 924 O 128.297 7.84798 -5.01039 0
M  V30 925 O 126.515 5.9812 -5.08098 0
M  V30 926 O 126.552 7.57503 -3.1866 0
M  V30 927 C 126.392 8.97357 -2.74833 0
M  V30 928 C 126.932 9.07548 -1.32709 0
M  V30 929 O 125.876 8.62072 -0.606159 0
M  V30 930 C 128.15 8.25383 -0.938334 0
M  V30 931 O 128.888 8.74577 0.146954 0
M  V30 932 C 127.481 6.8802 -0.712559 0
M  V30 933 O 128.28 6.1189 0.194655 0
M  V30 934 C 126.144 7.27966 -0.139777 0
M  V30 935 H 126.176 7.25354 0.961601 0
M  V30 936 H 127.359 6.32557 -1.65702 0
M  V30 937 H 128.843 8.19355 -1.79097 0
M  V30 938 H 127.149 10.1294 -1.10029 0
M  V30 939 H 126.959 9.64276 -3.41316 0
M  V30 940 H 125.329 9.25417 -2.76357 0
M  V30 941 H 127.968 6.25267 1.07847 0
M  V30 942 P 129.825 8.791 -1.02308e-13 0
M  V30 943 O 131.247 9.31096 0.027933 0
M  V30 944 O 129.465 7.77869 -1.04071 0
M  V30 945 O 129.502 8.09533 1.41463 0
M  V30 946 C 129.342 9.0349 2.53943 0
M  V30 947 C 129.882 8.35226 3.79016 0
M  V30 948 O 128.826 7.57992 4.15078 0
M  V30 949 C 131.1 7.45087 3.67298 0
M  V30 950 O 131.838 7.27796 4.85194 0
M  V30 951 C 130.431 6.17323 3.12027 0
M  V30 952 O 131.23 5.04231 3.47188 0
M  V30 953 C 129.094 6.19961 3.81809 0
M  V30 954 H 129.126 5.58218 4.73051 0
M  V30 955 H 130.309 6.21726 2.02589 0
M  V30 956 H 131.793 7.86112 2.9231 0
M  V30 957 H 130.099 9.11627 4.55076 0
M  V30 958 H 129.909 9.9573 2.34194 0
M  V30 959 H 128.279 9.2792 2.67832 0
M  V30 960 H 130.918 4.67702 4.28772 0
M  V30 961 P 132.776 7.39546 4.75277 0
M  V30 962 O 134.198 7.81777 5.05738 0
M  V30 963 O 132.416 7.1065 3.32998 0
M  V30 964 O 132.453 6.04542 5.56673 0
M  V30 965 C 132.293 6.22772 7.02095 0
M  V30 966 C 132.833 4.97725 7.70406 0
M  V30 967 O 131.777 4.13256 7.58987 0
M  V30 968 C 134.051 4.28231 7.11815 0
M  V30 969 O 134.789 3.49945 8.01648 0
M  V30 970 C 133.382 3.5063 5.96244 0
M  V30 971 O 134.181 2.36482 5.64681 0
M  V30 972 C 132.045 3.15122 6.56374 0
M  V30 973 H 132.077 2.13853 6.99751 0
M  V30 974 H 133.26 4.13501 5.06559 0
M  V30 975 H 134.744 5.03285 6.70911 0
M  V30 976 H 133.05 5.20877 8.75697 0
M  V30 977 H 132.86 7.11046 7.35349 0
M  V30 978 H 131.23 6.35815 7.26986 0
M  V30 979 H 133.869 1.61644 6.13565 0
M  V30 980 P 135.726 3.65191 7.99657 0
M  V30 981 O 137.148 3.8425 8.48115 0
M  V30 982 O 135.366 4.17805 6.64342 0
M  V30 983 O 135.403 2.07613 7.95143 0
M  V30 984 C 135.243 1.44328 9.27336 0
M  V30 985 C 135.783 0.0220036 9.17197 0
M  V30 986 O 134.727 -0.626867 8.61923 0
M  V30 987 C 137.001 -0.24586 8.30336 0
M  V30 988 O 137.739 -1.39011 8.63583 0
M  V30 989 C 136.332 -0.273849 6.91158 0
M  V30 990 O 137.131 -1.06348 6.02892 0
M  V30 991 C 134.995 -0.897649 7.22545 0
M  V30 992 H 135.027 -1.9841 7.04286 0
M  V30 993 H 136.21 0.739928 6.497 0
M  V30 994 H 137.694 0.60668 8.36503 0
M  V30 995 H 136 -0.352479 10.1829 0
M  V30 996 H 135.81 2.00611 10.0304 0
M  V30 997 H 134.18 1.41843 9.55327 0
M  V30 998 H 136.819 -1.95734 6.03555 0
M  V30 999 P 138.677 -1.25109 8.70152 0
M  V30 1000 O 140.099 -1.35274 9.21221 0
M  V30 1001 O 138.317 -0.0769065 7.84762 0
M  V30 1002 O 138.354 -2.55232 7.81161 0
M  V30 1003 C 138.194 -3.79939 8.58154 0
M  V30 1004 C 138.734 -4.94023 7.72785 0
M  V30 1005 O 137.678 -5.18726 6.91205 0
M  V30 1006 C 139.952 -4.69597 6.85231 0
M  V30 1007 O 140.69 -5.83832 6.51337 0
M  V30 1008 C 139.283 -3.96706 5.66633 0
M  V30 1009 O 140.082 -4.15414 4.49689 0
M  V30 1010 C 137.946 -4.66153 5.59313 0
M  V30 1011 H 137.978 -5.47679 4.85214 0
M  V30 1012 H 139.161 -2.89008 5.86566 0
M  V30 1013 H 140.645 -4.0121 7.36511 0
M  V30 1014 H 138.951 -5.80182 8.37584 0
M  V30 1015 H 138.761 -3.73517 9.52265 0
M  V30 1016 H 137.131 -3.97163 8.80359 0
M  V30 1017 H 139.77 -4.90969 4.01921 0
M  V30 1018 P 141.627 -5.75688 6.64379 0
M  V30 1019 O 143.049 -6.11849 7.01846 0
M  V30 1020 O 141.267 -4.30744 6.56026 0
M  V30 1021 O 141.304 -6.37042 5.19165 0
M  V30 1022 C 141.144 -7.83578 5.16515 0
M  V30 1023 C 141.684 -8.33398 3.83019 0
M  V30 1024 O 140.628 -8.10074 3.01034 0
M  V30 1025 C 142.902 -7.65514 3.2257 0
M  V30 1026 O 143.64 -8.4329 2.32297 0
M  V30 1027 C 142.233 -6.40075 2.62207 0
M  V30 1028 O 143.032 -5.92589 1.53712 0
M  V30 1029 C 140.896 -6.9454 2.18503 0
M  V30 1030 H 140.928 -7.23063 1.12091 0
M  V30 1031 H 142.111 -5.6025 3.37201 0
M  V30 1032 H 143.595 -7.35707 4.02681 0
M  V30 1033 H 141.901 -9.40912 3.9095 0
M  V30 1034 H 141.711 -8.29056 5.99158 0
M  V30 1035 H 140.081 -8.10073 5.25882 0
M  V30 1036 H 142.72 -6.30324 0.726794 0
M  V30 1037 P 144.578 -8.4349 2.47671 0
M  V30 1038 O 146 -8.94167 2.5964 0
M  V30 1039 O 144.218 -7.1704 3.19006 0
M  V30 1040 O 144.255 -8.16596 0.923387 0
M  V30 1041 C 144.095 -9.38437 0.108857 0
M  V30 1042 C 144.635 -9.08175 -1.28353 0
M  V30 1043 O 143.579 -8.44229 -1.84713 0
M  V30 1044 C 145.853 -8.18386 -1.42505 0
M  V30 1045 O 146.591 -8.3501 -2.60497 0
M  V30 1046 C 145.184 -6.80225 -1.25468 0
M  V30 1047 O 145.983 -5.81621 -1.91066 0
M  V30 1048 C 143.847 -7.02416 -1.9168 0
M  V30 1049 H 143.879 -6.6888 -2.96621 0
M  V30 1050 H 145.062 -6.53617 -0.192223 0
M  V30 1051 H 146.546 -8.36622 -0.589963 0
M  V30 1052 H 144.852 -10.0291 -1.79807 0
M  V30 1053 H 144.662 -10.2138 0.558219 0
M  V30 1054 H 143.032 -9.6579 0.0444202 0
M  V30 1055 H 145.671 -5.69556 -2.79637 0
M  V30 1056 P 147.528 -8.4349 -2.47671 0
M  V30 1057 O 148.95 -8.92593 -2.65 0
M  V30 1058 O 147.168 -7.7568 -1.19296 0
M  V30 1059 O 147.205 -7.36886 -3.63805 0
M  V30 1060 C 147.045 -7.95349 -4.982 0
M  V30 1061 C 147.585 -6.94612 -5.98974 0
M  V30 1062 O 146.529 -6.10347 -6.11815 0
M  V30 1063 C 148.803 -6.11426 -5.62335 0
M  V30 1064 O 149.541 -5.6162 -6.70584 0
M  V30 1065 C 148.134 -5.04409 -4.73308 0
M  V30 1066 O 148.933 -3.85992 -4.75183 0
M  V30 1067 C 146.797 -4.8728 -5.41006 0
M  V30 1068 H 146.829 -4.02333 -6.11157 0
M  V30 1069 H 148.012 -5.39466 -3.69543 0
M  V30 1070 H 149.496 -6.71916 -5.01943 0
M  V30 1071 H 147.802 -7.4649 -6.93477 0
M  V30 1072 H 147.612 -8.89416 -5.05237 0
M  V30 1073 H 145.982 -8.14876 -5.18409 0
M  V30 1074 H 148.621 -3.27957 -5.4317 0
M  V30 1075 P 150.479 -5.75688 -6.64379 0
M  V30 1076 O 151.9 -6.07692 -7.0558 0
M  V30 1077 O 150.119 -5.88047 -5.19722 0
M  V30 1078 O 150.156 -4.2322 -7.04443 0
M  V30 1079 C 149.995 -3.99785 -8.49201 0
M  V30 1080 C 150.536 -2.60516 -8.79425 0
M  V30 1081 O 149.481 -1.82663 -8.44573 0
M  V30 1082 C 151.754 -2.10343 -8.03628 0
M  V30 1083 O 152.492 -1.09919 -8.67766 0
M  V30 1084 C 151.086 -1.68446 -6.70876 0
M  V30 1085 O 151.884 -0.684109 -6.08265 0
M  V30 1086 C 149.748 -1.17436 -7.18567 0
M  V30 1087 N 148.705 -1.52699 -6.23988 0
M  V30 1088 C 148.874 -2.578 -5.40574 0
M  V30 1089 N 147.847 -2.78966 -4.61193 0
M  V30 1090 C 146.962 -1.78725 -4.95769 0
M  V30 1091 C 145.695 -1.45727 -4.44207 0
M  V30 1092 N 145.13 -0.374977 -5.05812 0
M  V30 1093 C 145.732 0.345585 -6.05615 0
M  V30 1094 N 146.909 0.0787651 -6.56253 0
M  V30 1095 C 147.484 -1.00499 -5.96189 0
M  V30 1096 H 150.963 -2.53396 -6.02698 0
M  V30 1097 H 152.446 -2.93881 -7.85526 0
M  V30 1098 H 150.752 -2.52078 -9.87225 0
M  V30 1099 H 150.562 -4.75072 -9.05887 0
M  V30 1100 H 148.932 -4.05244 -8.76668 0
M  V30 1101 H 149.774 -3.18977 -5.3945 0
M  V30 1102 H 151.572 0.177619 -6.34151 0
M  V30 1103 P 153.43 -1.25109 -8.70152 0
M  V30 1104 O 154.852 -1.29744 -9.22016 0
M  V30 1105 O 153.07 -2.13714 -7.55141 0
M  V30 1106 O 153.107 0.248149 -8.21425 0
M  V30 1107 C 152.947 1.22779 -9.30434 0
M  V30 1108 C 153.487 2.56293 -8.80664 0
M  V30 1109 O 152.431 3.02979 -8.09349 0
M  V30 1110 C 154.705 2.57523 -7.89775 0
M  V30 1111 O 155.443 3.7668 -7.89438 0
M  V30 1112 C 154.036 2.20997 -6.55446 0
M  V30 1113 O 154.835 2.71895 -5.48509 0
M  V30 1114 C 152.699 2.89693 -6.67988 0
M  V30 1115 H 152.731 3.88793 -6.19859 0
M  V30 1116 H 153.914 1.12046 -6.44229 0
M  V30 1117 H 155.398 1.7746 -8.19711 0
M  V30 1118 H 153.704 3.20706 -9.67112 0
M  V30 1119 H 153.514 0.901032 -10.1892 0
M  V30 1120 H 151.884 1.33049 -9.56592 0
M  V30 1121 H 154.523 3.57847 -5.23962 0
M  V30 1122 P 156.38 3.65191 -7.99657 0
M  V30 1123 O 157.781 3.87414 -8.52829 0
M  V30 1124 O 156.002 2.26932 -7.566 0
M  V30 1125 O 156.057 4.64915 -6.77529 0
M  V30 1126 C 155.897 6.06319 -7.16352 0
M  V30 1127 C 156.437 6.91655 -6.02234 0
M  V30 1128 O 155.381 6.92369 -5.17005 0
M  V30 1129 C 157.654 6.43627 -5.25174 0
M  V30 1130 O 158.393 7.43686 -4.60469 0
M  V30 1131 C 156.987 5.40275 -4.31916 0
M  V30 1132 O 157.785 5.25193 -3.14386 0
M  V30 1133 C 155.649 6.04847 -4.05327 0
M  V30 1134 N 154.606 5.04166 -3.98114 0
M  V30 1135 C 153.571 5.2366 -3.09923 0
M  V30 1136 O 153.61 6.23355 -2.34204 0
M  V30 1137 N 152.559 4.34279 -3.05727 0
M  V30 1138 C 152.607 3.26317 -3.84756 0
M  V30 1139 C 153.703 3.02504 -4.72573 0
M  V30 1140 C 154.669 3.94493 -4.76618 0
M  V30 1141 H 155.681 6.62104 -3.11218 0
M  V30 1142 H 156.864 4.42969 -4.80867 0
M  V30 1143 H 158.348 5.93122 -5.93121 0
M  V30 1144 H 156.654 7.93295 -6.39407 0
M  V30 1145 H 156.463 6.26671 -8.0846 0
M  V30 1146 H 154.833 6.29036 -7.32728 0
M  V30 1147 H 153.751 2.12921 -5.34017 0
M  V30 1148 H 155.515 3.80658 -5.44176 0
M  V30 1149 H 157.569 5.93572 -2.52637 0
M  V30 1150 P 159.331 7.39546 -4.75277 0
M  V30 1151 O 160.753 7.84966 -5.01146 0
M  V30 1152 O 158.971 5.9812 -5.08098 0
M  V30 1153 O 159.008 7.57503 -3.1866 0
M  V30 1154 C 158.848 8.97357 -2.74833 0
M  V30 1155 C 159.388 9.0745 -1.32694 0
M  V30 1156 O 158.333 8.62072 -0.606159 0
M  V30 1157 C 160.606 8.25383 -0.938334 0
M  V30 1158 O 161.344 8.74577 0.146954 0
M  V30 1159 C 159.938 6.8802 -0.712559 0
M  V30 1160 O 160.736 6.11791 0.194623 0
M  V30 1161 C 158.6 7.27966 -0.139777 0
M  V30 1162 N 157.557 6.39368 -0.623421 0
M  V30 1163 C 157.619 5.90299 -1.85969 0
M  V30 1164 N 156.574 5.10919 -2.1133 0
M  V30 1165 C 155.84 5.14646 -1.0015 0
M  V30 1166 C 154.534 4.60057 -0.729219 0
M  V30 1167 O 153.801 3.93476 -1.47746 0
M  V30 1168 N 154.104 4.88302 0.523505 0
M  V30 1169 C 154.853 5.63646 1.46207 0
M  V30 1170 N 154.256 5.78186 2.69239 0
M  V30 1171 N 156.006 6.19285 1.21544 0
M  V30 1172 C 156.463 5.93392 -0.0308487 0
M  V30 1173 H 158.632 7.25354 0.961601 0
M  V30 1174 H 159.815 6.3246 -1.65676 0
M  V30 1175 H 161.3 8.19533 -1.78278 0
M  V30 1176 H 159.605 10.1294 -1.10029 0
M  V30 1177 H 159.415 9.64276 -3.41316 0
M  V30 1178 H 157.784 9.25417 -2.76357 0
M  V30 1179 H 153.208 4.53993 0.806451 0
M  V30 1180 H 158.415 6.11865 -2.57394 0
M  V30 1181 H 153.345 5.34046 2.87467 0
M  V30 1182 H 154.721 6.33391 3.42578 0
M  V30 1183 H 160.425 6.25169 1.0783 0
M  V30 1184 P 162.281 8.791 -1.35693e-13 0
M  V30 1185 O 163.703 9.31296 0.027939 0
M  V30 1186 O 161.921 7.77869 -1.04071 0
M  V30 1187 O 161.958 8.09533 1.41463 0
M  V30 1188 C 161.798 9.0349 2.53943 0
M  V30 1189 C 162.338 8.35135 3.78975 0
M  V30 1190 O 161.283 7.57992 4.15078 0
M  V30 1191 C 163.556 7.45087 3.67298 0
M  V30 1192 O 164.294 7.27796 4.85194 0
M  V30 1193 C 162.888 6.17323 3.12027 0
M  V30 1194 O 163.686 5.04149 3.47132 0
M  V30 1195 C 161.55 6.19961 3.81809 0
M  V30 1196 N 160.507 5.71575 2.93223 0
M  V30 1197 C 160.569 5.97133 1.62693 0
M  V30 1198 N 159.524 5.44066 0.984414 0
M  V30 1199 C 158.79 4.87093 1.93987 0
M  V30 1200 C 157.484 4.26449 1.8738 0
M  V30 1201 O 156.751 4.1089 0.884377 0
M  V30 1202 N 157.054 3.82483 3.08036 0
M  V30 1203 C 157.803 3.95124 4.27727 0
M  V30 1204 N 157.206 3.4084 5.39089 0
M  V30 1205 N 158.956 4.55264 4.3706 0
M  V30 1206 C 159.413 5.00861 3.18217 0
M  V30 1207 H 161.582 5.58218 4.73051 0
M  V30 1208 H 162.765 6.21631 2.02558 0
M  V30 1209 H 164.25 7.85819 2.93096 0
M  V30 1210 H 162.555 9.11627 4.55076 0
M  V30 1211 H 162.365 9.9573 2.34194 0
M  V30 1212 H 160.734 9.2792 2.67832 0
M  V30 1213 H 156.158 3.38323 3.1329 0
M  V30 1214 H 161.365 6.53891 1.14265 0
M  V30 1215 H 156.295 2.93852 5.30559 0
M  V30 1216 H 157.671 3.47631 6.30632 0
M  V30 1217 H 163.375 4.67628 4.28704 0
M  V30 1218 P 165.232 7.39546 4.75277 0
M  V30 1219 O 166.654 7.81945 5.05847 0
M  V30 1220 O 164.872 7.1065 3.32998 0
M  V30 1221 O 164.909 6.04542 5.56673 0
M  V30 1222 C 164.749 6.22772 7.02095 0
M  V30 1223 C 165.289 4.97671 7.70322 0
M  V30 1224 O 164.234 4.13256 7.58987 0
M  V30 1225 C 166.507 4.28231 7.11815 0
M  V30 1226 O 167.245 3.49945 8.01648 0
M  V30 1227 C 165.839 3.5063 5.96244 0
M  V30 1228 O 166.637 2.36443 5.64589 0
M  V30 1229 C 164.501 3.15122 6.56374 0
M  V30 1230 N 163.458 3.22311 5.55692 0
M  V30 1231 C 163.52 4.14382 4.59701 0
M  V30 1232 N 162.475 4.04476 3.76958 0
M  V30 1233 C 161.741 3.04892 4.26534 0
M  V30 1234 C 160.435 2.57447 3.88189 0
M  V30 1235 O 159.702 2.9785 2.96543 0
M  V30 1236 N 160.005 1.55228 4.65922 0
M  V30 1237 C 160.754 1.01152 5.73447 0
M  V30 1238 N 160.157 -0.0472117 6.37783 0
M  V30 1239 N 161.907 1.467 6.13813 0
M  V30 1240 C 162.364 2.4931 5.38487 0
M  V30 1241 H 164.533 2.13853 6.99751 0
M  V30 1242 H 165.716 4.13438 5.06482 0
M  V30 1243 H 167.201 5.02614 6.71414 0
M  V30 1244 H 165.506 5.20877 8.75697 0
M  V30 1245 H 165.316 7.11046 7.35349 0
M  V30 1246 H 163.685 6.35815 7.26986 0
M  V30 1247 H 159.109 1.15238 4.46468 0
M  V30 1248 H 164.316 4.88312 4.49647 0
M  V30 1249 H 159.246 -0.396382 6.05203 0
M  V30 1250 H 160.622 -0.484997 7.18465 0
M  V30 1251 H 166.326 1.61619 6.13468 0
M  V30 1252 P 168.182 3.65191 7.99657 0
M  V30 1253 O 169.604 3.8425 8.48115 0
M  V30 1254 O 167.822 4.17805 6.64342 0
M  V30 1255 O 167.859 2.07613 7.95143 0
M  V30 1256 C 167.699 1.44328 9.27336 0
M  V30 1257 C 168.239 0.0220036 9.17197 0
M  V30 1258 O 167.183 -0.626867 8.61923 0
M  V30 1259 C 169.457 -0.24586 8.30336 0
M  V30 1260 O 170.195 -1.39011 8.63583 0
M  V30 1261 C 168.788 -0.273849 6.91158 0
M  V30 1262 O 169.587 -1.06348 6.02892 0
M  V30 1263 C 167.451 -0.897649 7.22545 0
M  V30 1264 H 167.483 -1.9841 7.04286 0
M  V30 1265 H 168.666 0.739928 6.497 0
M  V30 1266 H 170.15 0.60668 8.36503 0
M  V30 1267 H 168.456 -0.352479 10.1829 0
M  V30 1268 H 168.266 2.00611 10.0304 0
M  V30 1269 H 166.636 1.41843 9.55327 0
M  V30 1270 H 169.275 -1.95734 6.03555 0
M  V30 1271 P 171.133 -1.25109 8.70152 0
M  V30 1272 O 172.555 -1.35303 9.21419 0
M  V30 1273 O 170.773 -0.0769065 7.84762 0
M  V30 1274 O 170.81 -2.55232 7.81161 0
M  V30 1275 C 170.65 -3.79939 8.58154 0
M  V30 1276 C 171.19 -4.93969 7.72701 0
M  V30 1277 O 170.135 -5.18726 6.91205 0
M  V30 1278 C 172.408 -4.69597 6.85231 0
M  V30 1279 O 173.146 -5.83832 6.51337 0
M  V30 1280 C 171.74 -3.96706 5.66633 0
M  V30 1281 O 172.538 -4.15346 4.49615 0
M  V30 1282 C 170.402 -4.66153 5.59313 0
M  V30 1283 N 169.359 -3.71582 5.24027 0
M  V30 1284 C 169.421 -2.46018 5.67902 0
M  V30 1285 N 168.376 -1.74868 5.24518 0
M  V30 1286 C 167.642 -2.61333 4.54528 0
M  V30 1287 C 166.336 -2.46162 3.95441 0
M  V30 1288 O 165.603 -1.46013 3.94122 0
M  V30 1289 N 165.906 -3.59334 3.34752 0
M  V30 1290 C 166.655 -4.79605 3.3023 0
M  V30 1291 N 166.058 -5.82109 2.6065 0
M  V30 1292 N 167.808 -4.97402 3.8843 0
M  V30 1293 C 168.265 -3.86258 4.50476 0
M  V30 1294 H 170.434 -5.47679 4.85214 0
M  V30 1295 H 171.617 -2.88964 5.86476 0
M  V30 1296 H 173.102 -4.01947 7.36109 0
M  V30 1297 H 171.407 -5.80182 8.37584 0
M  V30 1298 H 171.217 -3.73517 9.52265 0
M  V30 1299 H 169.586 -3.97163 8.80359 0
M  V30 1300 H 165.01 -3.5825 2.90294 0
M  V30 1301 H 170.217 -2.06161 6.30974 0
M  V30 1302 H 165.147 -5.66979 2.15354 0
M  V30 1303 H 166.523 -6.73686 2.54344 0
M  V30 1304 H 172.227 -4.90891 4.01857 0
M  V30 1305 P 174.084 -5.75688 6.64379 0
M  V30 1306 O 175.506 -6.11849 7.01846 0
M  V30 1307 O 173.724 -4.30744 6.56026 0
M  V30 1308 O 173.761 -6.37042 5.19165 0
M  V30 1309 C 173.601 -7.83578 5.16515 0
M  V30 1310 C 174.141 -8.33398 3.83019 0
M  V30 1311 O 173.085 -8.10074 3.01034 0
M  V30 1312 C 175.359 -7.65514 3.2257 0
M  V30 1313 O 176.097 -8.4329 2.32297 0
M  V30 1314 C 174.69 -6.40075 2.62207 0
M  V30 1315 O 175.489 -5.92589 1.53712 0
M  V30 1316 C 173.353 -6.9454 2.18503 0
M  V30 1317 H 173.385 -7.23063 1.12091 0
M  V30 1318 H 174.568 -5.6025 3.37201 0
M  V30 1319 H 176.052 -7.35707 4.02681 0
M  V30 1320 H 174.358 -9.40912 3.9095 0
M  V30 1321 H 174.168 -8.29056 5.99158 0
M  V30 1322 H 172.538 -8.10073 5.25882 0
M  V30 1323 H 175.177 -6.30324 0.726794 0
M  V30 1324 P 177.034 -8.4349 2.47671 0
M  V30 1325 O 178.456 -8.94167 2.5964 0
M  V30 1326 O 176.674 -7.1704 3.19006 0
M  V30 1327 O 176.711 -8.16596 0.923387 0
M  V30 1328 C 176.551 -9.38437 0.108857 0
M  V30 1329 C 177.091 -9.08175 -1.28353 0
M  V30 1330 O 176.035 -8.44229 -1.84713 0
M  V30 1331 C 178.309 -8.18386 -1.42505 0
M  V30 1332 O 179.047 -8.3501 -2.60497 0
M  V30 1333 C 177.64 -6.80225 -1.25468 0
M  V30 1334 O 178.439 -5.81621 -1.91066 0
M  V30 1335 C 176.303 -7.02416 -1.9168 0
M  V30 1336 H 176.335 -6.6888 -2.96621 0
M  V30 1337 H 177.518 -6.53617 -0.192223 0
M  V30 1338 H 179.002 -8.36622 -0.589963 0
M  V30 1339 H 177.308 -10.0291 -1.79807 0
M  V30 1340 H 177.118 -10.2138 0.558219 0
M  V30 1341 H 175.488 -9.6579 0.0444202 0
M  V30 1342 H 178.127 -5.69556 -2.79637 0
M  V30 1343 P 179.985 -8.4349 -2.47671 0
M  V30 1344 O 181.407 -8.92593 -2.65 0
M  V30 1345 O 179.625 -7.7568 -1.19296 0
M  V30 1346 O 179.662 -7.36886 -3.63805 0
M  V30 1347 C 179.502 -7.95349 -4.982 0
M  V30 1348 C 180.042 -6.94612 -5.98974 0
M  V30 1349 O 178.986 -6.10347 -6.11815 0
M  V30 1350 C 181.26 -6.11426 -5.62335 0
M  V30 1351 O 181.998 -5.6162 -6.70584 0
M  V30 1352 C 180.591 -5.04409 -4.73308 0
M  V30 1353 O 181.39 -3.85992 -4.75183 0
M  V30 1354 C 179.254 -4.8728 -5.41006 0
M  V30 1355 H 179.286 -4.02333 -6.11157 0
M  V30 1356 H 180.469 -5.39466 -3.69543 0
M  V30 1357 H 181.953 -6.71916 -5.01943 0
M  V30 1358 H 180.259 -7.4649 -6.93477 0
M  V30 1359 H 180.069 -8.89416 -5.05237 0
M  V30 1360 H 178.439 -8.14876 -5.18409 0
M  V30 1361 H 181.078 -3.27957 -5.4317 0
M  V30 1362 P 182.935 -5.75688 -6.64379 0
M  V30 1363 O 184.357 -6.07627 -7.05504 0
M  V30 1364 O 182.575 -5.88047 -5.19722 0
M  V30 1365 O 182.612 -4.2322 -7.04443 0
M  V30 1366 C 182.452 -3.99743 -8.4911 0
M  V30 1367 C 182.992 -2.60516 -8.79425 0
M  V30 1368 O 181.936 -1.82684 -8.4467 0
M  V30 1369 C 184.21 -2.10343 -8.03628 0
M  V30 1370 O 184.948 -1.09919 -8.67766 0
M  V30 1371 C 183.541 -1.68446 -6.70876 0
M  V30 1372 O 184.34 -0.678137 -6.08433 0
M  V30 1373 C 182.204 -1.17436 -7.18567 0
M  V30 1374 H 182.236 -0.0804732 -7.31656 0
M  V30 1375 H 183.419 -2.54037 -6.02537 0
M  V30 1376 H 184.903 -2.93881 -7.85526 0
M  V30 1377 H 183.209 -2.53065 -9.86973 0
M  V30 1378 H 183.019 -4.75072 -9.05887 0
M  V30 1379 H 181.389 -4.05244 -8.76668 0
M  V30 1380 H 184.028 0.177647 -6.34251 0
M  V30 1381 P 185.886 -1.25109 -8.70152 0
M  V30 1382 O 187.308 -1.29744 -9.22016 0
M  V30 1383 O 185.526 -2.13714 -7.55141 0
M  V30 1384 O 185.563 0.248149 -8.21425 0
M  V30 1385 C 185.403 1.22779 -9.30434 0
M  V30 1386 C 185.943 2.56293 -8.80664 0
M  V30 1387 O 184.887 3.02979 -8.09349 0
M  V30 1388 C 187.161 2.57523 -7.89775 0
M  V30 1389 O 187.899 3.7668 -7.89438 0
M  V30 1390 C 186.492 2.20997 -6.55446 0
M  V30 1391 O 187.291 2.71895 -5.48509 0
M  V30 1392 C 185.155 2.89693 -6.67988 0
M  V30 1393 H 185.187 3.88793 -6.19859 0
M  V30 1394 H 186.37 1.12046 -6.44229 0
M  V30 1395 H 187.854 1.7746 -8.19711 0
M  V30 1396 H 186.16 3.20706 -9.67112 0
M  V30 1397 H 185.97 0.901032 -10.1892 0
M  V30 1398 H 184.34 1.33049 -9.56592 0
M  V30 1399 H 186.979 3.57847 -5.23962 0
M  V30 1400 P 188.836 3.65191 -7.99657 0
M  V30 1401 O 190.258 3.89332 -8.45794 0
M  V30 1402 O 188.476 2.28472 -7.50807 0
M  V30 1403 O 188.513 4.64972 -6.77611 0
M  V30 1404 C 188.353 6.06319 -7.16352 0
M  V30 1405 C 188.893 6.91731 -6.02299 0
M  V30 1406 O 187.837 6.92449 -5.17064 0
M  V30 1407 C 190.111 6.43627 -5.25174 0
M  V30 1408 O 190.849 7.43686 -4.60469 0
M  V30 1409 C 189.442 5.40275 -4.31916 0
M  V30 1410 O 190.241 5.25279 -3.14438 0
M  V30 1411 C 188.105 6.04847 -4.05327 0
M  V30 1412 H 188.137 6.62195 -3.11261 0
M  V30 1413 H 189.32 4.42556 -4.81383 0
M  V30 1414 H 190.804 5.92458 -5.93643 0
M  V30 1415 H 189.11 7.92655 -6.402 0
M  V30 1416 H 188.92 6.26671 -8.0846 0
M  V30 1417 H 187.29 6.29101 -7.32804 0
M  V30 1418 H 189.929 5.84315 -2.47318 0
M  V30 1419 P 191.787 7.39546 -4.75277 0
M  V30 1420 O 193.209 7.84798 -5.01039 0
M  V30 1421 O 191.427 5.9812 -5.08098 0
M  V30 1422 O 191.464 7.57503 -3.1866 0
M  V30 1423 C 191.304 8.97357 -2.74833 0
M  V30 1424 C 191.844 9.07548 -1.32709 0
M  V30 1425 O 190.788 8.62072 -0.606159 0
M  V30 1426 C 193.062 8.25383 -0.938334 0
M  V30 1427 O 193.8 8.74577 0.146954 0
M  V30 1428 C 192.393 6.8802 -0.712559 0
M  V30 1429 O 193.192 6.1189 0.194655 0
M  V30 1430 C 191.056 7.27966 -0.139777 0
M  V30 1431 H 191.088 7.25354 0.961601 0
M  V30 1432 H 192.271 6.32557 -1.65702 0
M  V30 1433 H 193.755 8.19355 -1.79097 0
M  V30 1434 H 192.061 10.1294 -1.10029 0
M  V30 1435 H 191.871 9.64276 -3.41316 0
M  V30 1436 H 190.241 9.25417 -2.76357 0
M  V30 1437 H 192.88 6.25267 1.07847 0
M  V30 1438 P 194.738 8.791 1.12009e-13 0
M  V30 1439 O 196.16 9.31096 0.027933 0
M  V30 1440 O 194.378 7.77869 -1.04071 0
M  V30 1441 O 194.415 8.09533 1.41463 0
M  V30 1442 C 194.255 9.0349 2.53943 0
M  V30 1443 C 194.795 8.35226 3.79016 0
M  V30 1444 O 193.739 7.57992 4.15078 0
M  V30 1445 C 196.013 7.45087 3.67298 0
M  V30 1446 O 196.751 7.27796 4.85194 0
M  V30 1447 C 195.344 6.17323 3.12027 0
M  V30 1448 O 196.143 5.04231 3.47188 0
M  V30 1449 C 194.007 6.19961 3.81809 0
M  V30 1450 H 194.039 5.58218 4.73051 0
M  V30 1451 H 195.222 6.21726 2.02589 0
M  V30 1452 H 196.706 7.86112 2.9231 0
M  V30 1453 H 195.012 9.11627 4.55076 0
M  V30 1454 H 194.822 9.9573 2.34194 0
M  V30 1455 H 193.192 9.2792 2.67832 0
M  V30 1456 H 195.831 4.67702 4.28772 0
M  V30 1457 P 197.688 7.39546 4.75277 0
M  V30 1458 O 199.109 7.81861 5.05793 0
M  V30 1459 O 197.328 7.1065 3.32998 0
M  V30 1460 O 197.365 6.04542 5.56673 0
M  V30 1461 C 197.204 6.22839 7.02169 0
M  V30 1462 C 197.745 4.97725 7.70406 0
M  V30 1463 O 196.69 4.13208 7.58899 0
M  V30 1464 C 198.963 4.28231 7.11815 0
M  V30 1465 O 199.701 3.49945 8.01648 0
M  V30 1466 C 198.295 3.5063 5.96244 0
M  V30 1467 O 199.093 2.37008 5.64352 0
M  V30 1468 C 196.957 3.15122 6.56374 0
M  V30 1469 N 195.914 3.22311 5.55692 0
M  V30 1470 C 196.083 3.99655 4.46046 0
M  V30 1471 N 195.056 3.97599 3.63918 0
M  V30 1472 C 194.171 3.11159 4.25334 0
M  V30 1473 C 192.904 2.64972 3.85157 0
M  V30 1474 N 192.339 1.78482 4.74759 0
M  V30 1475 C 192.941 1.37463 5.90819 0
M  V30 1476 N 194.118 1.7733 6.31889 0
M  V30 1477 C 194.693 2.64393 5.43725 0
M  V30 1478 H 198.172 4.12931 5.06895 0
M  V30 1479 H 199.655 5.03285 6.70911 0
M  V30 1480 H 197.961 5.20001 8.76217 0
M  V30 1481 H 197.771 7.11046 7.35349 0
M  V30 1482 H 196.141 6.35815 7.26986 0
M  V30 1483 H 196.983 4.58037 4.27732 0
M  V30 1484 H 198.781 1.61619 6.13468 0
M  V30 1485 P 200.639 3.65191 7.99657 0
M  V30 1486 O 202.061 3.8425 8.48115 0
M  V30 1487 O 200.279 4.17805 6.64342 0
M  V30 1488 O 200.316 2.07613 7.95143 0
M  V30 1489 C 200.156 1.44328 9.27336 0
M  V30 1490 C 200.696 0.0220036 9.17197 0
M  V30 1491 O 199.64 -0.626867 8.61923 0
M  V30 1492 C 201.914 -0.24586 8.30336 0
M  V30 1493 O 202.652 -1.39011 8.63583 0
M  V30 1494 C 201.245 -0.273849 6.91158 0
M  V30 1495 O 202.044 -1.06348 6.02892 0
M  V30 1496 C 199.908 -0.897649 7.22545 0
M  V30 1497 H 199.94 -1.9841 7.04286 0
M  V30 1498 H 201.123 0.739928 6.497 0
M  V30 1499 H 202.607 0.60668 8.36503 0
M  V30 1500 H 200.913 -0.352479 10.1829 0
M  V30 1501 H 200.723 2.00611 10.0304 0
M  V30 1502 H 199.093 1.41843 9.55327 0
M  V30 1503 H 201.732 -1.95734 6.03555 0
M  V30 1504 P 203.589 -1.25109 8.70152 0
M  V30 1505 O 205.01 -1.35288 9.2132 0
M  V30 1506 O 203.229 -0.0769065 7.84762 0
M  V30 1507 O 203.266 -2.55232 7.81161 0
M  V30 1508 C 203.105 -3.79979 8.58246 0
M  V30 1509 C 203.646 -4.94023 7.72785 0
M  V30 1510 O 202.591 -5.18666 6.91125 0
M  V30 1511 C 204.864 -4.69597 6.85231 0
M  V30 1512 O 205.602 -5.83832 6.51337 0
M  V30 1513 C 204.196 -3.96706 5.66633 0
M  V30 1514 O 204.994 -4.14896 4.5003 0
M  V30 1515 C 202.858 -4.66153 5.59313 0
M  V30 1516 N 201.815 -3.71582 5.24027 0
M  V30 1517 C 201.984 -2.39715 5.48833 0
M  V30 1518 N 200.957 -1.65863 5.12845 0
M  V30 1519 C 200.072 -2.57637 4.5973 0
M  V30 1520 C 198.805 -2.40278 4.01027 0
M  V30 1521 N 198.206 -1.19549 3.86744 0
M  V30 1522 N 198.24 -3.57711 3.59575 0
M  V30 1523 C 198.842 -4.80324 3.70476 0
M  V30 1524 N 200.019 -5.01121 4.23801 0
M  V30 1525 C 200.594 -3.84757 4.66372 0
M  V30 1526 H 202.89 -5.47604 4.85148 0
M  V30 1527 H 204.073 -2.8955 5.86187 0
M  V30 1528 H 205.556 -4.0121 7.36511 0
M  V30 1529 H 203.862 -5.81019 8.37003 0
M  V30 1530 H 203.672 -3.73517 9.52265 0
M  V30 1531 H 202.042 -3.97163 8.80359 0
M  V30 1532 H 198.306 -5.66348 3.3183 0
M  V30 1533 H 202.884 -1.98804 5.94332 0
M  V30 1534 H 197.276 -1.13147 3.4281 0
M  V30 1535 H 198.68 -0.344074 4.19692 0
M  V30 1536 H 204.682 -4.90891 4.01857 0
M  V30 1537 P 206.54 -5.75688 6.64379 0
M  V30 1538 O 207.962 -6.11849 7.01846 0
M  V30 1539 O 206.18 -4.30744 6.56026 0
M  V30 1540 O 206.217 -6.37042 5.19165 0
M  V30 1541 C 206.057 -7.83578 5.16515 0
M  V30 1542 C 206.597 -8.33398 3.83019 0
M  V30 1543 O 205.541 -8.10074 3.01034 0
M  V30 1544 C 207.815 -7.65514 3.2257 0
M  V30 1545 O 208.553 -8.4329 2.32297 0
M  V30 1546 C 207.146 -6.40075 2.62207 0
M  V30 1547 O 207.945 -5.92589 1.53712 0
M  V30 1548 C 205.809 -6.9454 2.18503 0
M  V30 1549 H 205.841 -7.23063 1.12091 0
M  V30 1550 H 207.024 -5.6025 3.37201 0
M  V30 1551 H 208.508 -7.35707 4.02681 0
M  V30 1552 H 206.814 -9.40912 3.9095 0
M  V30 1553 H 206.624 -8.29056 5.99158 0
M  V30 1554 H 204.994 -8.10073 5.25882 0
M  V30 1555 H 207.633 -6.30324 0.726794 0
M  V30 1556 P 209.49 -8.4349 2.47671 0
M  V30 1557 O 210.912 -8.94167 2.5964 0
M  V30 1558 O 209.13 -7.1704 3.19006 0
M  V30 1559 O 209.167 -8.16596 0.923387 0
M  V30 1560 C 209.007 -9.38437 0.108857 0
M  V30 1561 C 209.547 -9.08175 -1.28353 0
M  V30 1562 O 208.491 -8.44229 -1.84713 0
M  V30 1563 C 210.765 -8.18386 -1.42505 0
M  V30 1564 O 211.503 -8.3501 -2.60497 0
M  V30 1565 C 210.096 -6.80225 -1.25468 0
M  V30 1566 O 210.895 -5.81621 -1.91066 0
M  V30 1567 C 208.759 -7.02416 -1.9168 0
M  V30 1568 H 208.791 -6.6888 -2.96621 0
M  V30 1569 H 209.974 -6.53617 -0.192223 0
M  V30 1570 H 211.458 -8.36622 -0.589963 0
M  V30 1571 H 209.764 -10.0291 -1.79807 0
M  V30 1572 H 209.574 -10.2138 0.558219 0
M  V30 1573 H 207.944 -9.6579 0.0444202 0
M  V30 1574 H 210.583 -5.69556 -2.79637 0
M  V30 1575 P 212.441 -8.4349 -2.47671 0
M  V30 1576 O 213.863 -8.92593 -2.65 0
M  V30 1577 O 212.081 -7.7568 -1.19296 0
M  V30 1578 O 212.118 -7.36886 -3.63805 0
M  V30 1579 C 211.958 -7.95349 -4.982 0
M  V30 1580 C 212.498 -6.94612 -5.98974 0
M  V30 1581 O 211.442 -6.10347 -6.11815 0
M  V30 1582 C 213.716 -6.11426 -5.62335 0
M  V30 1583 O 214.454 -5.6162 -6.70584 0
M  V30 1584 C 213.047 -5.04409 -4.73308 0
M  V30 1585 O 213.846 -3.85992 -4.75183 0
M  V30 1586 C 211.71 -4.8728 -5.41006 0
M  V30 1587 H 211.742 -4.02333 -6.11157 0
M  V30 1588 H 212.925 -5.39466 -3.69543 0
M  V30 1589 H 214.409 -6.71916 -5.01943 0
M  V30 1590 H 212.715 -7.4649 -6.93477 0
M  V30 1591 H 212.525 -8.89416 -5.05237 0
M  V30 1592 H 210.895 -8.14876 -5.18409 0
M  V30 1593 H 213.534 -3.27957 -5.4317 0
M  V30 1594 P 215.392 -5.75688 -6.64379 0
M  V30 1595 O 216.813 -6.07692 -7.0558 0
M  V30 1596 O 215.032 -5.88047 -5.19722 0
M  V30 1597 O 215.069 -4.2322 -7.04443 0
M  V30 1598 C 214.908 -3.99785 -8.49201 0
M  V30 1599 C 215.449 -2.60516 -8.79425 0
M  V30 1600 O 214.394 -1.82663 -8.44573 0
M  V30 1601 C 216.667 -2.10343 -8.03628 0
M  V30 1602 O 217.405 -1.09919 -8.67766 0
M  V30 1603 C 215.999 -1.68446 -6.70876 0
M  V30 1604 O 216.797 -0.684109 -6.08265 0
M  V30 1605 C 214.661 -1.17436 -7.18567 0
M  V30 1606 N 213.618 -1.52699 -6.23988 0
M  V30 1607 C 213.787 -2.578 -5.40574 0
M  V30 1608 N 212.76 -2.78966 -4.61193 0
M  V30 1609 C 211.875 -1.78725 -4.95769 0
M  V30 1610 C 210.608 -1.45727 -4.44207 0
M  V30 1611 N 210.009 -2.13994 -3.43613 0
M  V30 1612 N 210.043 -0.374977 -5.05812 0
M  V30 1613 C 210.645 0.345585 -6.05615 0
M  V30 1614 N 211.822 0.0787651 -6.56253 0
M  V30 1615 C 212.397 -1.00499 -5.96189 0
M  V30 1616 H 214.693 -0.0804622 -7.31556 0
M  V30 1617 H 215.876 -2.53396 -6.02698 0
M  V30 1618 H 217.359 -2.93881 -7.85526 0
M  V30 1619 H 215.665 -2.52078 -9.87225 0
M  V30 1620 H 215.475 -4.75072 -9.05887 0
M  V30 1621 H 213.845 -4.05244 -8.76668 0
M  V30 1622 H 210.109 1.20098 -6.4532 0
M  V30 1623 H 214.687 -3.18977 -5.3945 0
M  V30 1624 H 209.079 -1.84983 -3.10004 0
M  V30 1625 H 210.483 -2.9465 -3.00843 0
M  V30 1626 H 216.485 0.177619 -6.34151 0
M  V30 1627 P 218.342 -1.25109 -8.70152 0
M  V30 1628 O 219.764 -1.29744 -9.22016 0
M  V30 1629 O 217.982 -2.13714 -7.55141 0
M  V30 1630 O 218.019 0.248149 -8.21425 0
M  V30 1631 C 217.859 1.22779 -9.30434 0
M  V30 1632 C 218.399 2.56293 -8.80664 0
M  V30 1633 O 217.343 3.02979 -8.09349 0
M  V30 1634 C 219.617 2.57523 -7.89775 0
M  V30 1635 O 220.355 3.7668 -7.89438 0
M  V30 1636 C 218.948 2.20997 -6.55446 0
M  V30 1637 O 219.747 2.71895 -5.48509 0
M  V30 1638 C 217.611 2.89693 -6.67988 0
M  V30 1639 H 217.643 3.88793 -6.19859 0
M  V30 1640 H 218.826 1.12046 -6.44229 0
M  V30 1641 H 220.31 1.7746 -8.19711 0
M  V30 1642 H 218.616 3.20706 -9.67112 0
M  V30 1643 H 218.426 0.901032 -10.1892 0
M  V30 1644 H 216.796 1.33049 -9.56592 0
M  V30 1645 H 219.435 3.57847 -5.23962 0
M  V30 1646 P 221.293 3.65191 -7.99657 0
M  V30 1647 O 222.714 3.89374 -8.45885 0
M  V30 1648 O 220.933 2.28472 -7.50807 0
M  V30 1649 O 220.97 4.64972 -6.77611 0
M  V30 1650 C 220.809 6.06383 -7.16428 0
M  V30 1651 C 221.35 6.91731 -6.02299 0
M  V30 1652 O 220.295 6.92369 -5.17005 0
M  V30 1653 C 222.568 6.43627 -5.25174 0
M  V30 1654 O 223.306 7.43686 -4.60469 0
M  V30 1655 C 221.9 5.40275 -4.31916 0
M  V30 1656 O 222.698 5.24878 -3.14911 0
M  V30 1657 C 220.562 6.04847 -4.05327 0
M  V30 1658 N 219.519 5.04166 -3.98114 0
M  V30 1659 C 219.688 3.84629 -4.59066 0
M  V30 1660 N 218.661 3.0363 -4.45343 0
M  V30 1661 C 217.776 3.76722 -3.68523 0
M  V30 1662 C 216.509 3.43528 -3.17088 0
M  V30 1663 N 215.91 2.23665 -3.37397 0
M  V30 1664 N 215.944 4.44526 -2.44231 0
M  V30 1665 C 216.546 5.65243 -2.20146 0
M  V30 1666 N 217.723 6.00221 -2.65453 0
M  V30 1667 C 218.298 5.00564 -3.39083 0
M  V30 1668 H 220.594 6.62104 -3.11218 0
M  V30 1669 H 221.777 4.42969 -4.80867 0
M  V30 1670 H 223.26 5.92458 -5.93643 0
M  V30 1671 H 221.566 7.93295 -6.39407 0
M  V30 1672 H 221.376 6.26671 -8.0846 0
M  V30 1673 H 219.746 6.29101 -7.32804 0
M  V30 1674 H 216.01 6.36894 -1.5883 0
M  V30 1675 H 220.588 3.58193 -5.14248 0
M  V30 1676 H 214.98 2.05145 -2.97047 0
M  V30 1677 H 216.384 1.51255 -3.92998 0
M  V30 1678 H 222.386 5.84223 -2.47279 0
M  V30 1679 P 224.243 7.39546 -4.75277 0
M  V30 1680 O 225.664 7.84882 -5.01092 0
M  V30 1681 O 223.883 5.9812 -5.08098 0
M  V30 1682 O 223.92 7.57503 -3.1866 0
M  V30 1683 C 223.759 8.97452 -2.74862 0
M  V30 1684 C 224.3 9.07548 -1.32709 0
M  V30 1685 O 223.245 8.61972 -0.606089 0
M  V30 1686 C 225.518 8.25383 -0.938334 0
M  V30 1687 O 226.256 8.74577 0.146954 0
M  V30 1688 C 224.85 6.8802 -0.712559 0
M  V30 1689 O 225.648 6.1181 0.188505 0
M  V30 1690 C 223.512 7.27966 -0.139777 0
M  V30 1691 N 222.469 6.39368 -0.623421 0
M  V30 1692 C 222.638 5.71761 -1.78245 0
M  V30 1693 N 221.611 4.962 -2.10491 0
M  V30 1694 C 220.726 5.16158 -1.0635 0
M  V30 1695 C 219.459 4.60425 -0.810266 0
M  V30 1696 N 218.86 3.7057 -1.62914 0
M  V30 1697 N 218.894 5.06 0.348685 0
M  V30 1698 C 219.496 5.94532 1.20395 0
M  V30 1699 N 220.673 6.48452 1.01191 0
M  V30 1700 C 221.248 6.04423 -0.146291 0
M  V30 1701 H 223.544 7.25255 0.961469 0
M  V30 1702 H 224.727 6.32625 -1.65044 0
M  V30 1703 H 226.21 8.19355 -1.79097 0
M  V30 1704 H 224.516 10.1305 -1.09016 0
M  V30 1705 H 224.326 9.64276 -3.41316 0
M  V30 1706 H 222.696 9.25417 -2.76357 0
M  V30 1707 H 218.96 6.21659 2.10714 0
M  V30 1708 H 223.538 5.79354 -2.38959 0
M  V30 1709 H 217.93 3.33174 -1.38982 0
M  V30 1710 H 219.334 3.39714 -2.48836 0
M  V30 1711 H 225.336 6.25169 1.0783 0
M  V30 1712 P 227.194 8.791 4.22174e-13 0
M  V30 1713 O 228.615 9.31196 0.027936 0
M  V30 1714 O 226.834 7.77869 -1.04071 0
M  V30 1715 O 226.871 8.09533 1.41463 0
M  V30 1716 C 226.71 9.03587 2.5397 0
M  V30 1717 C 227.251 8.35226 3.79016 0
M  V30 1718 O 226.196 7.57904 4.1503 0
M  V30 1719 C 228.469 7.45087 3.67298 0
M  V30 1720 O 229.207 7.27796 4.85194 0
M  V30 1721 C 227.801 6.17323 3.12027 0
M  V30 1722 O 228.599 5.04496 3.46627 0
M  V30 1723 C 226.463 6.19961 3.81809 0
M  V30 1724 N 225.42 5.71575 2.93223 0
M  V30 1725 C 225.589 5.77362 1.59168 0
M  V30 1726 N 224.562 5.3123 0.911893 0
M  V30 1727 C 223.677 4.91717 1.89588 0
M  V30 1728 C 222.41 4.3114 1.8076 0
M  V30 1729 N 221.811 3.99821 0.632928 0
M  V30 1730 N 221.845 4.06823 3.02898 0
M  V30 1731 C 222.447 4.35062 4.22711 0
M  V30 1732 N 223.624 4.90805 4.35707 0
M  V30 1733 C 224.199 5.16382 3.14469 0
M  V30 1734 H 226.495 5.58142 4.72986 0
M  V30 1735 H 227.678 6.21428 2.0318 0
M  V30 1736 H 229.161 7.86112 2.9231 0
M  V30 1737 H 227.467 9.11171 4.55987 0
M  V30 1738 H 227.277 9.9573 2.34194 0
M  V30 1739 H 225.647 9.2792 2.67832 0
M  V30 1740 H 221.911 4.09052 5.13359 0
M  V30 1741 H 226.489 6.16575 1.12198 0
M  V30 1742 H 220.881 3.55423 0.632085 0
M  V30 1743 H 222.285 4.20317 -0.256712 0
M  V30 1744 H 228.287 4.67628 4.28704 0
M  V30 1745 P 230.144 7.39546 4.75277 0
M  V30 1746 O 231.566 7.81945 5.05847 0
M  V30 1747 O 229.784 7.1065 3.32998 0
M  V30 1748 O 229.821 6.04542 5.56673 0
M  V30 1749 C 229.661 6.22772 7.02095 0
M  V30 1750 C 230.201 4.97671 7.70322 0
M  V30 1751 O 229.146 4.13256 7.58987 0
M  V30 1752 C 231.419 4.28231 7.11815 0
M  V30 1753 O 232.157 3.49945 8.01648 0
M  V30 1754 C 230.751 3.5063 5.96244 0
M  V30 1755 O 231.549 2.36443 5.64589 0
M  V30 1756 C 229.413 3.15122 6.56374 0
M  V30 1757 N 228.37 3.22311 5.55692 0
M  V30 1758 C 228.432 4.14382 4.59701 0
M  V30 1759 N 227.387 4.04476 3.76958 0
M  V30 1760 C 226.653 3.04892 4.26534 0
M  V30 1761 C 225.347 2.57447 3.88189 0
M  V30 1762 O 224.614 2.9785 2.96543 0
M  V30 1763 N 224.917 1.55228 4.65922 0
M  V30 1764 C 225.666 1.01152 5.73447 0
M  V30 1765 N 225.069 -0.0472117 6.37783 0
M  V30 1766 N 226.819 1.467 6.13813 0
M  V30 1767 C 227.276 2.4931 5.38487 0
M  V30 1768 H 229.445 2.13853 6.99751 0
M  V30 1769 H 230.628 4.13438 5.06482 0
M  V30 1770 H 232.113 5.02614 6.71414 0
M  V30 1771 H 230.418 5.20877 8.75697 0
M  V30 1772 H 230.228 7.11046 7.35349 0
M  V30 1773 H 228.597 6.35815 7.26986 0
M  V30 1774 H 224.021 1.15238 4.46468 0
M  V30 1775 H 229.228 4.88312 4.49647 0
M  V30 1776 H 224.158 -0.396382 6.05203 0
M  V30 1777 H 225.534 -0.484997 7.18465 0
M  V30 1778 H 231.238 1.61619 6.13468 0
M  V30 1779 P 233.095 3.65191 7.99657 0
M  V30 1780 O 234.517 3.8425 8.48115 0
M  V30 1781 O 232.735 4.17805 6.64342 0
M  V30 1782 O 232.772 2.07613 7.95143 0
M  V30 1783 C 232.612 1.44328 9.27336 0
M  V30 1784 C 233.152 0.0220036 9.17197 0
M  V30 1785 O 232.096 -0.626867 8.61923 0
M  V30 1786 C 234.37 -0.24586 8.30336 0
M  V30 1787 O 235.108 -1.39011 8.63583 0
M  V30 1788 C 233.701 -0.273849 6.91158 0
M  V30 1789 O 234.5 -1.06348 6.02892 0
M  V30 1790 C 232.364 -0.897649 7.22545 0
M  V30 1791 H 232.396 -1.9841 7.04286 0
M  V30 1792 H 233.579 0.739928 6.497 0
M  V30 1793 H 235.063 0.60668 8.36503 0
M  V30 1794 H 233.369 -0.352479 10.1829 0
M  V30 1795 H 233.179 2.00611 10.0304 0
M  V30 1796 H 231.549 1.41843 9.55327 0
M  V30 1797 H 234.188 -1.95734 6.03555 0
M  V30 1798 P 236.046 -1.25109 8.70152 0
M  V30 1799 O 237.468 -1.35303 9.21419 0
M  V30 1800 O 235.686 -0.0769065 7.84762 0
M  V30 1801 O 235.723 -2.55232 7.81161 0
M  V30 1802 C 235.563 -3.79939 8.58154 0
M  V30 1803 C 236.103 -4.93969 7.72701 0
M  V30 1804 O 235.048 -5.18726 6.91205 0
M  V30 1805 C 237.321 -4.69597 6.85231 0
M  V30 1806 O 238.059 -5.83832 6.51337 0
M  V30 1807 C 236.653 -3.96706 5.66633 0
M  V30 1808 O 237.451 -4.15346 4.49615 0
M  V30 1809 C 235.315 -4.66153 5.59313 0
M  V30 1810 N 234.272 -3.71582 5.24027 0
M  V30 1811 C 234.334 -2.46018 5.67902 0
M  V30 1812 N 233.289 -1.74868 5.24518 0
M  V30 1813 C 232.555 -2.61333 4.54528 0
M  V30 1814 C 231.249 -2.46162 3.95441 0
M  V30 1815 O 230.516 -1.46013 3.94122 0
M  V30 1816 N 230.819 -3.59334 3.34752 0
M  V30 1817 C 231.568 -4.79605 3.3023 0
M  V30 1818 N 230.971 -5.82109 2.6065 0
M  V30 1819 N 232.721 -4.97402 3.8843 0
M  V30 1820 C 233.178 -3.86258 4.50476 0
M  V30 1821 H 235.347 -5.47679 4.85214 0
M  V30 1822 H 236.53 -2.88964 5.86476 0
M  V30 1823 H 238.015 -4.01947 7.36109 0
M  V30 1824 H 236.32 -5.80182 8.37584 0
M  V30 1825 H 236.13 -3.73517 9.52265 0
M  V30 1826 H 234.499 -3.97163 8.80359 0
M  V30 1827 H 229.923 -3.5825 2.90294 0
M  V30 1828 H 235.13 -2.06161 6.30974 0
M  V30 1829 H 230.06 -5.66979 2.15354 0
M  V30 1830 H 231.436 -6.73686 2.54344 0
M  V30 1831 H 237.14 -4.90891 4.01857 0
M  V30 1832 P 238.996 -5.75688 6.64379 0
M  V30 1833 O 240.417 -6.11915 7.01921 0
M  V30 1834 O 238.636 -4.30744 6.56026 0
M  V30 1835 O 238.673 -6.37042 5.19165 0
M  V30 1836 C 238.512 -7.83662 5.1657 0
M  V30 1837 C 239.053 -8.33398 3.83019 0
M  V30 1838 O 237.998 -8.0998 3.00999 0
M  V30 1839 C 240.271 -7.65514 3.2257 0
M  V30 1840 O 241.009 -8.4329 2.32297 0
M  V30 1841 C 239.603 -6.40075 2.62207 0
M  V30 1842 O 240.401 -5.92338 1.5428 0
M  V30 1843 C 238.265 -6.9454 2.18503 0
M  V30 1844 N 237.222 -5.95905 2.39948 0
M  V30 1845 C 237.391 -4.98383 3.32108 0
M  V30 1846 N 236.364 -4.16798 3.41761 0
M  V30 1847 C 235.479 -4.65287 2.47461 0
M  V30 1848 C 234.212 -4.18946 2.07461 0
M  V30 1849 N 233.613 -3.09661 2.60717 0
M  V30 1850 N 233.647 -4.95327 1.09101 0
M  V30 1851 C 234.249 -6.04369 0.519812 0
M  V30 1852 N 235.426 -6.50694 0.855982 0
M  V30 1853 C 236.001 -5.75818 1.84322 0
M  V30 1854 H 238.297 -7.22964 1.12076 0
M  V30 1855 H 239.48 -5.60502 3.36589 0
M  V30 1856 H 240.963 -7.35707 4.02681 0
M  V30 1857 H 239.269 -9.41302 3.90009 0
M  V30 1858 H 239.079 -8.29056 5.99158 0
M  V30 1859 H 237.449 -8.10073 5.25882 0
M  V30 1860 H 233.713 -6.55843 -0.270373 0
M  V30 1861 H 238.291 -4.88564 3.92502 0
M  V30 1862 H 232.683 -2.80523 2.27218 0
M  V30 1863 H 234.087 -2.55848 3.34465 0
M  V30 1864 H 240.089 -6.30224 0.72668 0
M  V30 1865 P 241.947 -8.4349 2.47671 0
M  V30 1866 O 243.369 -8.94167 2.5964 0
M  V30 1867 O 241.587 -7.1704 3.19006 0
M  V30 1868 O 241.624 -8.16596 0.923387 0
M  V30 1869 C 241.464 -9.38437 0.108857 0
M  V30 1870 C 242.004 -9.08175 -1.28353 0
M  V30 1871 O 240.948 -8.44229 -1.84713 0
M  V30 1872 C 243.222 -8.18386 -1.42505 0
M  V30 1873 O 243.96 -8.3501 -2.60497 0
M  V30 1874 C 242.553 -6.80225 -1.25468 0
M  V30 1875 O 243.352 -5.81621 -1.91066 0
M  V30 1876 C 241.216 -7.02416 -1.9168 0
M  V30 1877 H 241.248 -6.6888 -2.96621 0
M  V30 1878 H 242.431 -6.53617 -0.192223 0
M  V30 1879 H 243.915 -8.36622 -0.589963 0
M  V30 1880 H 242.221 -10.0291 -1.79807 0
M  V30 1881 H 242.031 -10.2138 0.558219 0
M  V30 1882 H 240.401 -9.6579 0.0444202 0
M  V30 1883 H 243.04 -5.69556 -2.79637 0
M  V30 1884 P 244.897 -8.4349 -2.47671 0
M  V30 1885 O 246.319 -8.92593 -2.65 0
M  V30 1886 O 244.537 -7.7568 -1.19296 0
M  V30 1887 O 244.574 -7.36886 -3.63805 0
M  V30 1888 C 244.414 -7.95349 -4.982 0
M  V30 1889 C 244.954 -6.94612 -5.98974 0
M  V30 1890 O 243.898 -6.10347 -6.11815 0
M  V30 1891 C 246.172 -6.11426 -5.62335 0
M  V30 1892 O 246.91 -5.6162 -6.70584 0
M  V30 1893 C 245.503 -5.04409 -4.73308 0
M  V30 1894 O 246.302 -3.85992 -4.75183 0
M  V30 1895 C 244.166 -4.8728 -5.41006 0
M  V30 1896 H 244.198 -4.02333 -6.11157 0
M  V30 1897 H 245.381 -5.39466 -3.69543 0
M  V30 1898 H 246.865 -6.71916 -5.01943 0
M  V30 1899 H 245.171 -7.4649 -6.93477 0
M  V30 1900 H 244.981 -8.89416 -5.05237 0
M  V30 1901 H 243.351 -8.14876 -5.18409 0
M  V30 1902 H 245.99 -3.27957 -5.4317 0
M  V30 1903 P 247.848 -5.75688 -6.64379 0
M  V30 1904 O 249.27 -6.07627 -7.05504 0
M  V30 1905 O 247.488 -5.88047 -5.19722 0
M  V30 1906 O 247.525 -4.2322 -7.04443 0
M  V30 1907 C 247.365 -3.99743 -8.4911 0
M  V30 1908 C 247.905 -2.60516 -8.79425 0
M  V30 1909 O 246.849 -1.82684 -8.4467 0
M  V30 1910 C 249.123 -2.10343 -8.03628 0
M  V30 1911 O 249.861 -1.09919 -8.67766 0
M  V30 1912 C 248.454 -1.68446 -6.70876 0
M  V30 1913 O 249.253 -0.678137 -6.08433 0
M  V30 1914 C 247.117 -1.17436 -7.18567 0
M  V30 1915 H 247.149 -0.0804732 -7.31656 0
M  V30 1916 H 248.332 -2.54037 -6.02537 0
M  V30 1917 H 249.816 -2.93881 -7.85526 0
M  V30 1918 H 248.122 -2.53065 -9.86973 0
M  V30 1919 H 247.932 -4.75072 -9.05887 0
M  V30 1920 H 246.302 -4.05244 -8.76668 0
M  V30 1921 H 248.941 0.177647 -6.34251 0
M  V30 1922 P 250.798 -1.25109 -8.70152 0
M  V30 1923 O 252.199 -1.3516 -9.26897 0
M  V30 1924 O 250.42 -2.18141 -7.59181 0
M  V30 1925 O 250.475 0.248118 -8.21325 0
M  V30 1926 C 250.315 1.22779 -9.30434 0
M  V30 1927 C 250.855 2.56265 -8.80568 0
M  V30 1928 O 249.799 3.02944 -8.09255 0
M  V30 1929 C 252.072 2.57523 -7.89775 0
M  V30 1930 O 252.811 3.7668 -7.89438 0
M  V30 1931 C 251.405 2.20997 -6.55446 0
M  V30 1932 O 252.203 2.71851 -5.48419 0
M  V30 1933 C 250.067 2.89693 -6.67988 0
M  V30 1934 N 249.024 2.08895 -6.07487 0
M  V30 1935 C 247.989 2.72974 -5.43836 0
M  V30 1936 O 248.028 3.97779 -5.34036 0
M  V30 1937 N 246.977 2.0005 -4.91983 0
M  V30 1938 C 247.025 0.66501 -5.00098 0
M  V30 1939 C 248.121 -0.0100979 -5.61099 0
M  V30 1940 C 249.087 0.74189 -6.14236 0
M  V30 1941 H 250.099 3.8874 -6.19774 0
M  V30 1942 H 251.282 1.12673 -6.44018 0
M  V30 1943 H 252.766 1.783 -8.19631 0
M  V30 1944 H 251.072 3.21673 -9.66791 0
M  V30 1945 H 250.881 0.901032 -10.1892 0
M  V30 1946 H 249.251 1.33036 -9.56493 0
M  V30 1947 H 248.169 -1.09591 -5.64358 0
M  V30 1948 H 249.933 0.260263 -6.6359 0
M  V30 1949 H 251.987 3.62759 -5.33442 0
M  V30 1950 P 253.749 3.65191 -7.99657 0
M  V30 1951 O 255.171 3.89332 -8.45794 0
M  V30 1952 O 253.389 2.28472 -7.50807 0
M  V30 1953 O 253.426 4.64972 -6.77611 0
M  V30 1954 C 253.266 6.06319 -7.16352 0
M  V30 1955 C 253.806 6.91731 -6.02299 0
M  V30 1956 O 252.75 6.92449 -5.17064 0
M  V30 1957 C 255.024 6.43627 -5.25174 0
M  V30 1958 O 255.762 7.43686 -4.60469 0
M  V30 1959 C 254.355 5.40275 -4.31916 0
M  V30 1960 O 255.154 5.25279 -3.14438 0
M  V30 1961 C 253.018 6.04847 -4.05327 0
M  V30 1962 H 253.05 6.62195 -3.11261 0
M  V30 1963 H 254.233 4.42556 -4.81383 0
M  V30 1964 H 255.717 5.92458 -5.93643 0
M  V30 1965 H 254.023 7.92655 -6.402 0
M  V30 1966 H 253.833 6.26671 -8.0846 0
M  V30 1967 H 252.203 6.29101 -7.32804 0
M  V30 1968 H 254.842 5.84315 -2.47318 0
M  V30 1969 P 256.7 7.39546 -4.75277 0
M  V30 1970 O 258.122 7.84798 -5.01039 0
M  V30 1971 O 256.34 5.9812 -5.08098 0
M  V30 1972 O 256.377 7.57503 -3.1866 0
M  V30 1973 C 256.217 8.97357 -2.74833 0
M  V30 1974 C 256.757 9.07548 -1.32709 0
M  V30 1975 O 255.701 8.62072 -0.606159 0
M  V30 1976 C 257.975 8.25383 -0.938334 0
M  V30 1977 O 258.713 8.74577 0.146954 0
M  V30 1978 C 257.306 6.8802 -0.712559 0
M  V30 1979 O 258.105 6.1189 0.194655 0
M  V30 1980 C 255.969 7.27966 -0.139777 0
M  V30 1981 H 256.001 7.25354 0.961601 0
M  V30 1982 H 257.184 6.32557 -1.65702 0
M  V30 1983 H 258.668 8.19355 -1.79097 0
M  V30 1984 H 256.974 10.1294 -1.10029 0
M  V30 1985 H 256.784 9.64276 -3.41316 0
M  V30 1986 H 255.154 9.25417 -2.76357 0
M  V30 1987 H 257.793 6.25267 1.07847 0
M  V30 1988 P 259.65 8.791 7.3234e-13 0
M  V30 1989 O 261.072 9.31096 0.027933 0
M  V30 1990 O 259.29 7.77869 -1.04071 0
M  V30 1991 O 259.327 8.09533 1.41463 0
M  V30 1992 C 259.167 9.0349 2.53943 0
M  V30 1993 C 259.707 8.35226 3.79016 0
M  V30 1994 O 258.651 7.57992 4.15078 0
M  V30 1995 C 260.925 7.45087 3.67298 0
M  V30 1996 O 261.663 7.27796 4.85194 0
M  V30 1997 C 260.256 6.17323 3.12027 0
M  V30 1998 O 261.055 5.04231 3.47188 0
M  V30 1999 C 258.919 6.19961 3.81809 0
M  V30 2000 H 258.951 5.58218 4.73051 0
M  V30 2001 H 260.134 6.21726 2.02589 0
M  V30 2002 H 261.618 7.86112 2.9231 0
M  V30 2003 H 259.924 9.11627 4.55076 0
M  V30 2004 H 259.734 9.9573 2.34194 0
M  V30 2005 H 258.104 9.2792 2.67832 0
M  V30 2006 H 260.743 4.67702 4.28772 0
M  V30 2007 P 262.601 7.39546 4.75277 0
M  V30 2008 O 264.023 7.81777 5.05738 0
M  V30 2009 O 262.241 7.1065 3.32998 0
M  V30 2010 O 262.278 6.04542 5.56673 0
M  V30 2011 C 262.118 6.22772 7.02095 0
M  V30 2012 C 262.658 4.97725 7.70406 0
M  V30 2013 O 261.602 4.13256 7.58987 0
M  V30 2014 C 263.876 4.28231 7.11815 0
M  V30 2015 O 264.614 3.49945 8.01648 0
M  V30 2016 C 263.207 3.5063 5.96244 0
M  V30 2017 O 264.006 2.36482 5.64681 0
M  V30 2018 C 261.87 3.15122 6.56374 0
M  V30 2019 H 261.902 2.13853 6.99751 0
M  V30 2020 H 263.085 4.13501 5.06559 0
M  V30 2021 H 264.569 5.03285 6.70911 0
M  V30 2022 H 262.875 5.20877 8.75697 0
M  V30 2023 H 262.685 7.11046 7.35349 0
M  V30 2024 H 261.055 6.35815 7.26986 0
M  V30 2025 H 263.694 1.61644 6.13565 0
M  V30 2026 P 265.551 3.65191 7.99657 0
M  V30 2027 O 266.973 3.84333 8.48297 0
M  V30 2028 O 265.191 4.17805 6.64342 0
M  V30 2029 O 265.228 2.07613 7.95143 0
M  V30 2030 C 265.068 1.44328 9.27336 0
M  V30 2031 C 265.608 0.0220012 9.17097 0
M  V30 2032 O 264.553 -0.626867 8.61923 0
M  V30 2033 C 266.826 -0.24586 8.30336 0
M  V30 2034 O 267.564 -1.39011 8.63583 0
M  V30 2035 C 266.158 -0.273849 6.91158 0
M  V30 2036 O 266.956 -1.06331 6.02794 0
M  V30 2037 C 264.82 -0.897649 7.22545 0
M  V30 2038 N 263.777 -0.292839 6.41732 0
M  V30 2039 C 263.839 1.00068 6.10757 0
M  V30 2040 N 262.794 1.36468 5.35794 0
M  V30 2041 C 262.06 0.258894 5.2366 0
M  V30 2042 C 260.754 0.0670682 4.65752 0
M  V30 2043 O 260.021 0.902443 4.10497 0
M  V30 2044 N 260.324 -1.2131 4.75881 0
M  V30 2045 C 261.073 -2.24934 5.37101 0
M  V30 2046 N 260.476 -3.48783 5.33984 0
M  V30 2047 N 262.226 -2.0844 5.95684 0
M  V30 2048 C 262.683 -0.81395 5.87791 0
M  V30 2049 H 264.852 -1.9841 7.04286 0
M  V30 2050 H 266.035 0.739815 6.49601 0
M  V30 2051 H 267.52 0.598315 8.36563 0
M  V30 2052 H 265.825 -0.352479 10.1829 0
M  V30 2053 H 265.635 2.00611 10.0304 0
M  V30 2054 H 264.004 1.41843 9.55327 0
M  V30 2055 H 259.428 -1.44434 4.37895 0
M  V30 2056 H 264.635 1.67697 6.42268 0
M  V30 2057 H 259.565 -3.60543 4.87699 0
M  V30 2058 H 260.941 -4.29232 5.7819 0
M  V30 2059 H 266.645 -1.95704 6.0346 0
M  V30 2060 P 268.502 -1.25109 8.70152 0
M  V30 2061 O 269.923 -1.35288 9.2132 0
M  V30 2062 O 268.142 -0.0769065 7.84762 0
M  V30 2063 O 268.179 -2.55232 7.81161 0
M  V30 2064 C 268.018 -3.79979 8.58246 0
M  V30 2065 C 268.559 -4.94023 7.72785 0
M  V30 2066 O 267.504 -5.18666 6.91125 0
M  V30 2067 C 269.777 -4.69597 6.85231 0
M  V30 2068 O 270.515 -5.83832 6.51337 0
M  V30 2069 C 269.109 -3.96706 5.66633 0
M  V30 2070 O 269.907 -4.14896 4.5003 0
M  V30 2071 C 267.771 -4.66153 5.59313 0
M  V30 2072 N 266.728 -3.71582 5.24027 0
M  V30 2073 C 266.897 -2.39715 5.48833 0
M  V30 2074 N 265.87 -1.65863 5.12845 0
M  V30 2075 C 264.985 -2.57637 4.5973 0
M  V30 2076 C 263.718 -2.40278 4.01027 0
M  V30 2077 N 263.153 -3.57711 3.59575 0
M  V30 2078 C 263.755 -4.80324 3.70476 0
M  V30 2079 N 264.932 -5.01121 4.23801 0
M  V30 2080 C 265.507 -3.84757 4.66372 0
M  V30 2081 H 268.986 -2.8955 5.86187 0
M  V30 2082 H 270.469 -4.0121 7.36511 0
M  V30 2083 H 268.775 -5.81019 8.37003 0
M  V30 2084 H 268.585 -3.73517 9.52265 0
M  V30 2085 H 266.955 -3.97163 8.80359 0
M  V30 2086 H 267.797 -1.98804 5.94332 0
M  V30 2087 H 269.595 -4.90891 4.01857 0
M  V30 2088 P 271.452 -5.75688 6.64379 0
M  V30 2089 O 272.874 -6.11849 7.01846 0
M  V30 2090 O 271.092 -4.30744 6.56026 0
M  V30 2091 O 271.129 -6.37042 5.19165 0
M  V30 2092 C 270.969 -7.83578 5.16515 0
M  V30 2093 C 271.509 -8.33398 3.83019 0
M  V30 2094 O 270.453 -8.10074 3.01034 0
M  V30 2095 C 272.727 -7.65514 3.2257 0
M  V30 2096 O 273.465 -8.4329 2.32297 0
M  V30 2097 C 272.058 -6.40075 2.62207 0
M  V30 2098 O 272.857 -5.92589 1.53712 0
M  V30 2099 C 270.721 -6.9454 2.18503 0
M  V30 2100 H 270.753 -7.23063 1.12091 0
M  V30 2101 H 271.936 -5.6025 3.37201 0
M  V30 2102 H 273.42 -7.35707 4.02681 0
M  V30 2103 H 271.726 -9.40912 3.9095 0
M  V30 2104 H 271.536 -8.29056 5.99158 0
M  V30 2105 H 269.906 -8.10073 5.25882 0
M  V30 2106 H 272.545 -6.30324 0.726794 0
M  V30 2107 P 274.403 -8.4349 2.47671 0
M  V30 2108 O 275.825 -8.94167 2.5964 0
M  V30 2109 O 274.043 -7.1704 3.19006 0
M  V30 2110 O 274.08 -8.16596 0.923387 0
M  V30 2111 C 273.92 -9.38437 0.108857 0
M  V30 2112 C 274.46 -9.08175 -1.28353 0
M  V30 2113 O 273.404 -8.44229 -1.84713 0
M  V30 2114 C 275.678 -8.18386 -1.42505 0
M  V30 2115 O 276.416 -8.3501 -2.60497 0
M  V30 2116 C 275.009 -6.80225 -1.25468 0
M  V30 2117 O 275.808 -5.81621 -1.91066 0
M  V30 2118 C 273.672 -7.02416 -1.9168 0
M  V30 2119 H 273.704 -6.6888 -2.96621 0
M  V30 2120 H 274.887 -6.53617 -0.192223 0
M  V30 2121 H 276.371 -8.36622 -0.589963 0
M  V30 2122 H 274.677 -10.0291 -1.79807 0
M  V30 2123 H 274.487 -10.2138 0.558219 0
M  V30 2124 H 272.857 -9.6579 0.0444202 0
M  V30 2125 H 275.496 -5.69556 -2.79637 0
M  V30 2126 P 277.354 -8.4349 -2.47671 0
M  V30 2127 O 278.776 -8.92593 -2.65 0
M  V30 2128 O 276.994 -7.7568 -1.19296 0
M  V30 2129 O 277.031 -7.36886 -3.63805 0
M  V30 2130 C 276.871 -7.95349 -4.982 0
M  V30 2131 C 277.411 -6.94612 -5.98974 0
M  V30 2132 O 276.355 -6.10347 -6.11815 0
M  V30 2133 C 278.629 -6.11426 -5.62335 0
M  V30 2134 O 279.367 -5.6162 -6.70584 0
M  V30 2135 C 277.96 -5.04409 -4.73308 0
M  V30 2136 O 278.759 -3.85992 -4.75183 0
M  V30 2137 C 276.623 -4.8728 -5.41006 0
M  V30 2138 H 276.655 -4.02333 -6.11157 0
M  V30 2139 H 277.838 -5.39466 -3.69543 0
M  V30 2140 H 279.322 -6.71916 -5.01943 0
M  V30 2141 H 277.628 -7.4649 -6.93477 0
M  V30 2142 H 277.438 -8.89416 -5.05237 0
M  V30 2143 H 275.808 -8.14876 -5.18409 0
M  V30 2144 H 278.447 -3.27957 -5.4317 0
M  V30 2145 P 280.304 -5.75688 -6.64379 0
M  V30 2146 O 281.726 -6.07627 -7.05504 0
M  V30 2147 O 279.944 -5.88047 -5.19722 0
M  V30 2148 O 279.981 -4.2322 -7.04443 0
M  V30 2149 C 279.821 -3.99743 -8.4911 0
M  V30 2150 C 280.361 -2.60516 -8.79425 0
M  V30 2151 O 279.305 -1.82684 -8.4467 0
M  V30 2152 C 281.579 -2.10343 -8.03628 0
M  V30 2153 O 282.317 -1.09919 -8.67766 0
M  V30 2154 C 280.91 -1.68446 -6.70876 0
M  V30 2155 O 281.709 -0.678137 -6.08433 0
M  V30 2156 C 279.573 -1.17436 -7.18567 0
M  V30 2157 H 279.605 -0.0804732 -7.31656 0
M  V30 2158 H 280.788 -2.54037 -6.02537 0
M  V30 2159 H 282.272 -2.93881 -7.85526 0
M  V30 2160 H 280.578 -2.53065 -9.86973 0
M  V30 2161 H 280.388 -4.75072 -9.05887 0
M  V30 2162 H 278.758 -4.05244 -8.76668 0
M  V30 2163 H 281.397 0.177647 -6.34251 0
M  V30 2164 P 283.255 -1.25109 -8.70152 0
M  V30 2165 O 284.677 -1.29772 -9.22214 0
M  V30 2166 O 282.895 -2.13714 -7.55141 0
M  V30 2167 O 282.932 0.248149 -8.21425 0
M  V30 2168 C 282.772 1.22779 -9.30434 0
M  V30 2169 C 283.312 2.56265 -8.80568 0
M  V30 2170 O 282.257 3.02979 -8.09349 0
M  V30 2171 C 284.53 2.57523 -7.89775 0
M  V30 2172 O 285.268 3.7668 -7.89438 0
M  V30 2173 C 283.862 2.20997 -6.55446 0
M  V30 2174 O 284.66 2.71851 -5.48419 0
M  V30 2175 C 282.524 2.89693 -6.67988 0
M  V30 2176 N 281.481 2.08895 -6.07487 0
M  V30 2177 C 281.543 0.760559 -6.14209 0
M  V30 2178 N 280.498 0.200108 -5.52538 0
M  V30 2179 C 279.764 1.22692 -5.09742 0
M  V30 2180 C 278.458 1.24782 -4.48775 0
M  V30 2181 O 277.725 0.290617 -4.19294 0
M  V30 2182 N 278.028 2.50468 -4.22428 0
M  V30 2183 C 278.777 3.67142 -4.51974 0
M  V30 2184 N 278.18 4.85096 -4.14091 0
M  V30 2185 N 279.93 3.67821 -5.12831 0
M  V30 2186 C 280.387 2.43698 -5.4105 0
M  V30 2187 H 282.556 3.88793 -6.19859 0
M  V30 2188 H 283.739 1.12029 -6.4413 0
M  V30 2189 H 285.224 1.78279 -8.19533 0
M  V30 2190 H 283.529 3.20706 -9.67112 0
M  V30 2191 H 283.339 0.901032 -10.1892 0
M  V30 2192 H 281.708 1.33049 -9.56592 0
M  V30 2193 H 277.132 2.61953 -3.79465 0
M  V30 2194 H 282.339 0.200439 -6.63497 0
M  V30 2195 H 277.269 4.8334 -3.66367 0
M  V30 2196 H 278.645 5.7474 -4.33841 0
M  V30 2197 H 284.349 3.5779 -5.23879 0
M  V30 2198 P 286.205 3.65191 -7.99657 0
M  V30 2199 O 287.627 3.89416 -8.45976 0
M  V30 2200 O 285.845 2.28472 -7.50807 0
M  V30 2201 O 285.882 4.64972 -6.77611 0
M  V30 2202 C 285.722 6.06319 -7.16352 0
M  V30 2203 C 286.262 6.91655 -6.02234 0
M  V30 2204 O 285.207 6.92449 -5.17064 0
M  V30 2205 C 287.48 6.43627 -5.25174 0
M  V30 2206 O 288.218 7.43686 -4.60469 0
M  V30 2207 C 286.812 5.40275 -4.31916 0
M  V30 2208 O 287.61 5.25193 -3.14386 0
M  V30 2209 C 285.474 6.04847 -4.05327 0
M  V30 2210 N 284.431 5.04166 -3.98114 0
M  V30 2211 C 284.493 3.96049 -4.75587 0
M  V30 2212 N 283.448 3.15559 -4.54006 0
M  V30 2213 C 282.714 3.78802 -3.62491 0
M  V30 2214 C 281.408 3.476 -3.10071 0
M  V30 2215 O 280.675 2.51136 -3.37021 0
M  V30 2216 N 280.978 4.39088 -2.19956 0
M  V30 2217 C 281.727 5.53215 -1.81733 0
M  V30 2218 N 281.13 6.31963 -0.860928 0
M  V30 2219 N 282.88 5.86688 -2.32562 0
M  V30 2220 C 283.337 4.97525 -3.23407 0
M  V30 2221 H 285.506 6.62195 -3.11261 0
M  V30 2222 H 286.689 4.42488 -4.8131 0
M  V30 2223 H 288.174 5.93051 -5.9305 0
M  V30 2224 H 286.479 7.92655 -6.402 0
M  V30 2225 H 286.289 6.26671 -8.0846 0
M  V30 2226 H 284.658 6.29101 -7.32804 0
M  V30 2227 H 280.082 4.25523 -1.77604 0
M  V30 2228 H 285.289 3.75576 -5.47333 0
M  V30 2229 H 280.219 6.04684 -0.468946 0
M  V30 2230 H 281.595 7.18054 -0.542422 0
M  V30 2231 H 287.299 5.84223 -2.47279 0
M  V30 2232 P 289.156 7.39546 -4.75277 0
M  V30 2233 O 290.578 7.84798 -5.01039 0
M  V30 2234 O 288.796 5.9812 -5.08098 0
M  V30 2235 O 288.833 7.57503 -3.1866 0
M  V30 2236 C 288.673 8.97357 -2.74833 0
M  V30 2237 C 289.213 9.07548 -1.32709 0
M  V30 2238 O 288.157 8.62072 -0.606159 0
M  V30 2239 C 290.431 8.25383 -0.938334 0
M  V30 2240 O 291.169 8.74577 0.146954 0
M  V30 2241 C 289.762 6.8802 -0.712559 0
M  V30 2242 O 290.561 6.1189 0.194655 0
M  V30 2243 C 288.425 7.27966 -0.139777 0
M  V30 2244 H 288.457 7.25354 0.961601 0
M  V30 2245 H 289.64 6.32557 -1.65702 0
M  V30 2246 H 291.124 8.19355 -1.79097 0
M  V30 2247 H 289.43 10.1294 -1.10029 0
M  V30 2248 H 289.24 9.64276 -3.41316 0
M  V30 2249 H 287.61 9.25417 -2.76357 0
M  V30 2250 H 290.249 6.25267 1.07847 0
M  V30 2251 P 292.106 8.791 1.04251e-12 0
M  V30 2252 O 293.528 9.31096 0.027933 0
M  V30 2253 O 291.746 7.77869 -1.04071 0
M  V30 2254 O 291.783 8.09533 1.41463 0
M  V30 2255 C 291.623 9.0349 2.53943 0
M  V30 2256 C 292.163 8.35226 3.79016 0
M  V30 2257 O 291.107 7.57992 4.15078 0
M  V30 2258 C 293.381 7.45087 3.67298 0
M  V30 2259 O 294.119 7.27796 4.85194 0
M  V30 2260 C 292.712 6.17323 3.12027 0
M  V30 2261 O 293.511 5.04231 3.47188 0
M  V30 2262 C 291.375 6.19961 3.81809 0
M  V30 2263 H 291.407 5.58218 4.73051 0
M  V30 2264 H 292.59 6.21726 2.02589 0
M  V30 2265 H 294.074 7.86112 2.9231 0
M  V30 2266 H 292.38 9.11627 4.55076 0
M  V30 2267 H 292.19 9.9573 2.34194 0
M  V30 2268 H 290.56 9.2792 2.67832 0
M  V30 2269 H 293.199 4.67702 4.28772 0
M  V30 2270 P 295.057 7.39546 4.75277 0
M  V30 2271 O 296.479 7.81777 5.05738 0
M  V30 2272 O 294.697 7.1065 3.32998 0
M  V30 2273 O 294.734 6.04542 5.56673 0
M  V30 2274 C 294.574 6.22772 7.02095 0
M  V30 2275 C 295.114 4.97725 7.70406 0
M  V30 2276 O 294.058 4.13256 7.58987 0
M  V30 2277 C 296.332 4.28231 7.11815 0
M  V30 2278 O 297.07 3.49945 8.01648 0
M  V30 2279 C 295.663 3.5063 5.96244 0
M  V30 2280 O 296.462 2.36482 5.64681 0
M  V30 2281 C 294.326 3.15122 6.56374 0
M  V30 2282 H 294.358 2.13853 6.99751 0
M  V30 2283 H 295.541 4.13501 5.06559 0
M  V30 2284 H 297.025 5.03285 6.70911 0
M  V30 2285 H 295.331 5.20877 8.75697 0
M  V30 2286 H 295.141 7.11046 7.35349 0
M  V30 2287 H 293.511 6.35815 7.26986 0
M  V30 2288 H 296.15 1.61644 6.13565 0
M  V30 2289 P 298.008 3.65191 7.99657 0
M  V30 2290 O 299.43 3.8425 8.48115 0
M  V30 2291 O 297.648 4.17805 6.64342 0
M  V30 2292 O 297.685 2.07613 7.95143 0
M  V30 2293 C 297.525 1.44328 9.27336 0
M  V30 2294 C 298.065 0.0220036 9.17197 0
M  V30 2295 O 297.009 -0.626867 8.61923 0
M  V30 2296 C 299.283 -0.24586 8.30336 0
M  V30 2297 O 300.021 -1.39011 8.63583 0
M  V30 2298 C 298.614 -0.273849 6.91158 0
M  V30 2299 O 299.413 -1.06348 6.02892 0
M  V30 2300 C 297.277 -0.897649 7.22545 0
M  V30 2301 H 297.309 -1.9841 7.04286 0
M  V30 2302 H 298.492 0.739928 6.497 0
M  V30 2303 H 299.976 0.60668 8.36503 0
M  V30 2304 H 298.282 -0.352479 10.1829 0
M  V30 2305 H 298.092 2.00611 10.0304 0
M  V30 2306 H 296.462 1.41843 9.55327 0
M  V30 2307 H 299.101 -1.95734 6.03555 0
M  V30 2308 P 300.958 -1.25109 8.70152 0
M  V30 2309 O 302.379 -1.35288 9.2132 0
M  V30 2310 O 300.598 -0.0769065 7.84762 0
M  V30 2311 O 300.635 -2.55232 7.81161 0
M  V30 2312 C 300.474 -3.79979 8.58246 0
M  V30 2313 C 301.015 -4.94023 7.72785 0
M  V30 2314 O 299.96 -5.18666 6.91125 0
M  V30 2315 C 302.233 -4.69597 6.85231 0
M  V30 2316 O 302.971 -5.83832 6.51337 0
M  V30 2317 C 301.565 -3.96706 5.66633 0
M  V30 2318 O 302.363 -4.14896 4.5003 0
M  V30 2319 C 300.227 -4.66153 5.59313 0
M  V30 2320 N 299.184 -3.71582 5.24027 0
M  V30 2321 C 299.353 -2.39715 5.48833 0
M  V30 2322 N 298.326 -1.65863 5.12845 0
M  V30 2323 C 297.441 -2.57637 4.5973 0
M  V30 2324 C 296.174 -2.40278 4.01027 0
M  V30 2325 N 295.575 -1.19549 3.86744 0
M  V30 2326 N 295.609 -3.57711 3.59575 0
M  V30 2327 C 296.211 -4.80324 3.70476 0
M  V30 2328 N 297.388 -5.01121 4.23801 0
M  V30 2329 C 297.963 -3.84757 4.66372 0
M  V30 2330 H 300.259 -5.47604 4.85148 0
M  V30 2331 H 301.442 -2.8955 5.86187 0
M  V30 2332 H 302.925 -4.0121 7.36511 0
M  V30 2333 H 301.231 -5.81019 8.37003 0
M  V30 2334 H 301.041 -3.73517 9.52265 0
M  V30 2335 H 299.411 -3.97163 8.80359 0
M  V30 2336 H 295.675 -5.66348 3.3183 0
M  V30 2337 H 300.253 -1.98804 5.94332 0
M  V30 2338 H 294.645 -1.13147 3.4281 0
M  V30 2339 H 296.049 -0.344074 4.19692 0
M  V30 2340 H 302.051 -4.90891 4.01857 0
M  V30 2341 P 303.909 -5.75688 6.64379 0
M  V30 2342 O 305.331 -6.11849 7.01846 0
M  V30 2343 O 303.549 -4.30744 6.56026 0
M  V30 2344 O 303.586 -6.37042 5.19165 0
M  V30 2345 C 303.426 -7.83578 5.16515 0
M  V30 2346 C 303.966 -8.33398 3.83019 0
M  V30 2347 O 302.91 -8.10074 3.01034 0
M  V30 2348 C 305.184 -7.65514 3.2257 0
M  V30 2349 O 305.922 -8.4329 2.32297 0
M  V30 2350 C 304.515 -6.40075 2.62207 0
M  V30 2351 O 305.314 -5.92589 1.53712 0
M  V30 2352 C 303.178 -6.9454 2.18503 0
M  V30 2353 H 303.21 -7.23063 1.12091 0
M  V30 2354 H 304.393 -5.6025 3.37201 0
M  V30 2355 H 305.877 -7.35707 4.02681 0
M  V30 2356 H 304.183 -9.40912 3.9095 0
M  V30 2357 H 303.993 -8.29056 5.99158 0
M  V30 2358 H 302.363 -8.10073 5.25882 0
M  V30 2359 H 305.002 -6.30324 0.726794 0
M  V30 2360 P 306.859 -8.4349 2.47671 0
M  V30 2361 O 308.281 -8.94167 2.5964 0
M  V30 2362 O 306.499 -7.1704 3.19006 0
M  V30 2363 O 306.536 -8.16596 0.923387 0
M  V30 2364 C 306.376 -9.38437 0.108857 0
M  V30 2365 C 306.916 -9.08175 -1.28353 0
M  V30 2366 O 305.86 -8.44229 -1.84713 0
M  V30 2367 C 308.134 -8.18386 -1.42505 0
M  V30 2368 O 308.872 -8.3501 -2.60497 0
M  V30 2369 C 307.465 -6.80225 -1.25468 0
M  V30 2370 O 308.264 -5.81621 -1.91066 0
M  V30 2371 C 306.128 -7.02416 -1.9168 0
M  V30 2372 H 306.16 -6.6888 -2.96621 0
M  V30 2373 H 307.343 -6.53617 -0.192223 0
M  V30 2374 H 308.827 -8.36622 -0.589963 0
M  V30 2375 H 307.133 -10.0291 -1.79807 0
M  V30 2376 H 306.943 -10.2138 0.558219 0
M  V30 2377 H 305.313 -9.6579 0.0444202 0
M  V30 2378 H 307.952 -5.69556 -2.79637 0
M  V30 2379 P 309.81 -8.4349 -2.47671 0
M  V30 2380 O 311.232 -8.92593 -2.65 0
M  V30 2381 O 309.45 -7.7568 -1.19296 0
M  V30 2382 O 309.487 -7.36886 -3.63805 0
M  V30 2383 C 309.327 -7.95349 -4.982 0
M  V30 2384 C 309.867 -6.94612 -5.98974 0
M  V30 2385 O 308.811 -6.10347 -6.11815 0
M  V30 2386 C 311.085 -6.11426 -5.62335 0
M  V30 2387 O 311.823 -5.6162 -6.70584 0
M  V30 2388 C 310.416 -5.04409 -4.73308 0
M  V30 2389 O 311.215 -3.85992 -4.75183 0
M  V30 2390 C 309.079 -4.8728 -5.41006 0
M  V30 2391 H 309.111 -4.02333 -6.11157 0
M  V30 2392 H 310.294 -5.39466 -3.69543 0
M  V30 2393 H 311.778 -6.71916 -5.01943 0
M  V30 2394 H 310.084 -7.4649 -6.93477 0
M  V30 2395 H 309.894 -8.89416 -5.05237 0
M  V30 2396 H 308.264 -8.14876 -5.18409 0
M  V30 2397 H 310.903 -3.27957 -5.4317 0
M  V30 2398 P 312.76 -5.75688 -6.64379 0
M  V30 2399 O 314.182 -6.07627 -7.05504 0
M  V30 2400 O 312.4 -5.88047 -5.19722 0
M  V30 2401 O 312.437 -4.2322 -7.04443 0
M  V30 2402 C 312.277 -3.99743 -8.4911 0
M  V30 2403 C 312.817 -2.60516 -8.79425 0
M  V30 2404 O 311.761 -1.82684 -8.4467 0
M  V30 2405 C 314.035 -2.10343 -8.03628 0
M  V30 2406 O 314.773 -1.09919 -8.67766 0
M  V30 2407 C 313.366 -1.68446 -6.70876 0
M  V30 2408 O 314.165 -0.678137 -6.08433 0
M  V30 2409 C 312.029 -1.17436 -7.18567 0
M  V30 2410 H 312.061 -0.0804732 -7.31656 0
M  V30 2411 H 313.244 -2.54037 -6.02537 0
M  V30 2412 H 314.728 -2.93881 -7.85526 0
M  V30 2413 H 313.034 -2.53065 -9.86973 0
M  V30 2414 H 312.844 -4.75072 -9.05887 0
M  V30 2415 H 311.214 -4.05244 -8.76668 0
M  V30 2416 H 313.853 0.177647 -6.34251 0
M  V30 2417 P 315.711 -1.25109 -8.70152 0
M  V30 2418 O 317.133 -1.29744 -9.22016 0
M  V30 2419 O 315.351 -2.13714 -7.55141 0
M  V30 2420 O 315.388 0.248149 -8.21425 0
M  V30 2421 C 315.228 1.22779 -9.30434 0
M  V30 2422 C 315.768 2.56293 -8.80664 0
M  V30 2423 O 314.712 3.02979 -8.09349 0
M  V30 2424 C 316.986 2.57523 -7.89775 0
M  V30 2425 O 317.724 3.7668 -7.89438 0
M  V30 2426 C 316.317 2.20997 -6.55446 0
M  V30 2427 O 317.116 2.71895 -5.48509 0
M  V30 2428 C 314.98 2.89693 -6.67988 0
M  V30 2429 H 315.012 3.88793 -6.19859 0
M  V30 2430 H 316.195 1.12046 -6.44229 0
M  V30 2431 H 317.679 1.7746 -8.19711 0
M  V30 2432 H 315.985 3.20706 -9.67112 0
M  V30 2433 H 315.795 0.901032 -10.1892 0
M  V30 2434 H 314.165 1.33049 -9.56592 0
M  V30 2435 H 316.804 3.57847 -5.23962 0
M  V30 2436 P 318.662 3.65191 -7.99657 0
M  V30 2437 O 320.084 3.89332 -8.45794 0
M  V30 2438 O 318.302 2.28472 -7.50807 0
M  V30 2439 O 318.339 4.64972 -6.77611 0
M  V30 2440 C 318.179 6.06319 -7.16352 0
M  V30 2441 C 318.719 6.91731 -6.02299 0
M  V30 2442 O 317.663 6.92449 -5.17064 0
M  V30 2443 C 319.937 6.43627 -5.25174 0
M  V30 2444 O 320.675 7.43686 -4.60469 0
M  V30 2445 C 319.268 5.40275 -4.31916 0
M  V30 2446 O 320.067 5.25279 -3.14438 0
M  V30 2447 C 317.931 6.04847 -4.05327 0
M  V30 2448 H 317.963 6.62195 -3.11261 0
M  V30 2449 H 319.146 4.42556 -4.81383 0
M  V30 2450 H 320.63 5.92458 -5.93643 0
M  V30 2451 H 318.936 7.92655 -6.402 0
M  V30 2452 H 318.746 6.26671 -8.0846 0
M  V30 2453 H 317.116 6.29101 -7.32804 0
M  V30 2454 H 319.755 5.84315 -2.47318 0
M  V30 2455 P 321.612 7.39546 -4.75277 0
M  V30 2456 O 323.034 7.84798 -5.01039 0
M  V30 2457 O 321.252 5.9812 -5.08098 0
M  V30 2458 O 321.289 7.57503 -3.1866 0
M  V30 2459 C 321.129 8.97357 -2.74833 0
M  V30 2460 C 321.669 9.07548 -1.32709 0
M  V30 2461 O 320.613 8.62072 -0.606159 0
M  V30 2462 C 322.887 8.25383 -0.938334 0
M  V30 2463 O 323.625 8.74577 0.146954 0
M  V30 2464 C 322.218 6.8802 -0.712559 0
M  V30 2465 O 323.017 6.1189 0.194655 0
M  V30 2466 C 320.881 7.27966 -0.139777 0
M  V30 2467 H 320.913 7.25354 0.961601 0
M  V30 2468 H 322.096 6.32557 -1.65702 0
M  V30 2469 H 323.58 8.19355 -1.79097 0
M  V30 2470 H 321.886 10.1294 -1.10029 0
M  V30 2471 H 321.696 9.64276 -3.41316 0
M  V30 2472 H 320.066 9.25417 -2.76357 0
M  V30 2473 H 322.705 6.25267 1.07847 0
M  V30 2474 P 324.563 8.791 1.35267e-12 0
M  V30 2475 O 325.985 9.31096 0.027933 0
M  V30 2476 O 324.203 7.77869 -1.04071 0
M  V30 2477 O 324.24 8.09533 1.41463 0
M  V30 2478 C 324.08 9.0349 2.53943 0
M  V30 2479 C 324.62 8.35226 3.79016 0
M  V30 2480 O 323.564 7.57992 4.15078 0
M  V30 2481 C 325.838 7.45087 3.67298 0
M  V30 2482 O 326.576 7.27796 4.85194 0
M  V30 2483 C 325.169 6.17323 3.12027 0
M  V30 2484 O 325.968 5.04231 3.47188 0
M  V30 2485 C 323.832 6.19961 3.81809 0
M  V30 2486 H 323.864 5.58218 4.73051 0
M  V30 2487 H 325.047 6.21726 2.02589 0
M  V30 2488 H 326.531 7.86112 2.9231 0
M  V30 2489 H 324.837 9.11627 4.55076 0
M  V30 2490 H 324.647 9.9573 2.34194 0
M  V30 2491 H 323.017 9.2792 2.67832 0
M  V30 2492 H 325.656 4.67702 4.28772 0
M  V30 2493 P 327.513 7.39546 4.75277 0
M  V30 2494 O 328.914 7.89013 5.04841 0
M  V30 2495 O 327.135 7.16603 3.32298 0
M  V30 2496 O 327.19 6.04468 5.56605 0
M  V30 2497 C 327.03 6.22772 7.02095 0
M  V30 2498 C 327.57 4.97671 7.70322 0
M  V30 2499 O 326.514 4.13208 7.58899 0
M  V30 2500 C 328.787 4.28231 7.11815 0
M  V30 2501 O 329.526 3.49945 8.01648 0
M  V30 2502 C 328.12 3.5063 5.96244 0
M  V30 2503 O 328.918 2.36443 5.64589 0
M  V30 2504 C 326.782 3.15122 6.56374 0
M  V30 2505 N 325.739 3.22311 5.55692 0
M  V30 2506 C 324.704 2.32244 5.62437 0
M  V30 2507 O 324.743 1.43107 6.50341 0
M  V30 2508 N 323.692 2.40811 4.73368 0
M  V30 2509 C 323.74 3.344 3.77753 0
M  V30 2510 N 322.73 3.41475 2.91848 0
M  V30 2511 C 324.836 4.24712 3.66679 0
M  V30 2512 C 325.802 4.15625 4.58307 0
M  V30 2513 H 326.814 2.13823 6.99656 0
M  V30 2514 H 327.997 4.12931 5.06895 0
M  V30 2515 H 329.481 5.02674 6.71494 0
M  V30 2516 H 327.787 5.20001 8.76217 0
M  V30 2517 H 327.596 7.11046 7.35349 0
M  V30 2518 H 325.966 6.35749 7.26911 0
M  V30 2519 H 324.884 4.9828 2.86753 0
M  V30 2520 H 326.648 4.84464 4.54228 0
M  V30 2521 H 321.94 2.75785 2.99862 0
M  V30 2522 H 322.735 4.12304 2.17382 0
M  V30 2523 H 328.702 1.65592 6.23485 0
M  V30 2524 P 330.464 3.65191 7.99657 0
M  V30 2525 O 331.886 3.84333 8.48297 0
M  V30 2526 O 330.104 4.17805 6.64342 0
M  V30 2527 O 330.141 2.07613 7.95143 0
M  V30 2528 C 329.981 1.44328 9.27336 0
M  V30 2529 C 330.521 0.0220012 9.17097 0
M  V30 2530 O 329.466 -0.626867 8.61923 0
M  V30 2531 C 331.739 -0.24586 8.30336 0
M  V30 2532 O 332.477 -1.39011 8.63583 0
M  V30 2533 C 331.071 -0.273849 6.91158 0
M  V30 2534 O 331.869 -1.06331 6.02794 0
M  V30 2535 C 329.733 -0.897649 7.22545 0
M  V30 2536 N 328.69 -0.292839 6.41732 0
M  V30 2537 C 328.752 1.00068 6.10757 0
M  V30 2538 N 327.707 1.36468 5.35794 0
M  V30 2539 C 326.973 0.258894 5.2366 0
M  V30 2540 C 325.667 0.0670682 4.65752 0
M  V30 2541 O 324.934 0.902443 4.10497 0
M  V30 2542 N 325.237 -1.2131 4.75881 0
M  V30 2543 C 325.986 -2.24934 5.37101 0
M  V30 2544 N 325.389 -3.48783 5.33984 0
M  V30 2545 N 327.139 -2.0844 5.95684 0
M  V30 2546 C 327.596 -0.81395 5.87791 0
M  V30 2547 H 329.765 -1.9841 7.04286 0
M  V30 2548 H 330.948 0.739815 6.49601 0
M  V30 2549 H 332.433 0.598315 8.36563 0
M  V30 2550 H 330.738 -0.352479 10.1829 0
M  V30 2551 H 330.548 2.00611 10.0304 0
M  V30 2552 H 328.917 1.41843 9.55327 0
M  V30 2553 H 324.341 -1.44434 4.37895 0
M  V30 2554 H 329.548 1.67697 6.42268 0
M  V30 2555 H 324.478 -3.60543 4.87699 0
M  V30 2556 H 325.854 -4.29232 5.7819 0
M  V30 2557 H 331.558 -1.95704 6.0346 0
M  V30 2558 P 333.414 -1.25109 8.70152 0
M  V30 2559 O 334.835 -1.35288 9.2132 0
M  V30 2560 O 333.054 -0.0769065 7.84762 0
M  V30 2561 O 333.091 -2.55232 7.81161 0
M  V30 2562 C 332.93 -3.79979 8.58246 0
M  V30 2563 C 333.471 -4.94023 7.72785 0
M  V30 2564 O 332.416 -5.18666 6.91125 0
M  V30 2565 C 334.689 -4.69597 6.85231 0
M  V30 2566 O 335.427 -5.83832 6.51337 0
M  V30 2567 C 334.021 -3.96706 5.66633 0
M  V30 2568 O 334.819 -4.14896 4.5003 0
M  V30 2569 C 332.683 -4.66153 5.59313 0
M  V30 2570 N 331.64 -3.71582 5.24027 0
M  V30 2571 C 331.809 -2.39715 5.48833 0
M  V30 2572 N 330.782 -1.65863 5.12845 0
M  V30 2573 C 329.897 -2.57637 4.5973 0
M  V30 2574 C 328.63 -2.40278 4.01027 0
M  V30 2575 N 328.065 -3.57711 3.59575 0
M  V30 2576 C 328.667 -4.80324 3.70476 0
M  V30 2577 N 329.844 -5.01121 4.23801 0
M  V30 2578 C 330.419 -3.84757 4.66372 0
M  V30 2579 H 333.898 -2.8955 5.86187 0
M  V30 2580 H 335.381 -4.0121 7.36511 0
M  V30 2581 H 333.687 -5.81019 8.37003 0
M  V30 2582 H 333.497 -3.73517 9.52265 0
M  V30 2583 H 331.867 -3.97163 8.80359 0
M  V30 2584 H 332.709 -1.98804 5.94332 0
M  V30 2585 H 334.507 -4.90891 4.01857 0
M  V30 2586 P 336.365 -5.75688 6.64379 0
M  V30 2587 O 337.766 -6.11991 7.09136 0
M  V30 2588 O 335.987 -4.30899 6.62018 0
M  V30 2589 O 336.042 -6.36965 5.19102 0
M  V30 2590 C 335.882 -7.83578 5.16515 0
M  V30 2591 C 336.422 -8.33307 3.82977 0
M  V30 2592 O 335.366 -8.0998 3.00999 0
M  V30 2593 C 337.639 -7.65514 3.2257 0
M  V30 2594 O 338.378 -8.4329 2.32297 0
M  V30 2595 C 336.972 -6.40075 2.62207 0
M  V30 2596 O 337.77 -5.92492 1.53687 0
M  V30 2597 C 335.634 -6.9454 2.18503 0
M  V30 2598 N 334.591 -5.95905 2.39948 0
M  V30 2599 C 333.556 -5.89764 1.49837 0
M  V30 2600 O 333.595 -6.64088 0.490975 0
M  V30 2601 N 332.544 -5.02821 1.70992 0
M  V30 2602 C 332.592 -4.21498 2.77236 0
M  V30 2603 C 333.688 -4.23389 3.68205 0
M  V30 2604 C 334.654 -5.12792 3.46171 0
M  V30 2605 H 335.666 -7.22964 1.12076 0
M  V30 2606 H 336.849 -5.60502 3.36589 0
M  V30 2607 H 338.333 -7.36197 4.01993 0
M  V30 2608 H 336.639 -9.41302 3.90009 0
M  V30 2609 H 336.448 -8.29056 5.99158 0
M  V30 2610 H 334.818 -8.09989 5.25828 0
M  V30 2611 H 333.736 -3.54747 4.52399 0
M  V30 2612 H 335.5 -5.18551 4.1489 0
M  V30 2613 H 337.554 -6.40705 0.751752 0
M  V30 2614 P 339.316 -8.4349 2.47671 0
M  V30 2615 O 340.738 -8.94167 2.5964 0
M  V30 2616 O 338.956 -7.1704 3.19006 0
M  V30 2617 O 338.993 -8.16596 0.923387 0
M  V30 2618 C 338.833 -9.38437 0.108857 0
M  V30 2619 C 339.373 -9.08175 -1.28353 0
M  V30 2620 O 338.317 -8.44229 -1.84713 0
M  V30 2621 C 340.591 -8.18386 -1.42505 0
M  V30 2622 O 341.329 -8.3501 -2.60497 0
M  V30 2623 C 339.922 -6.80225 -1.25468 0
M  V30 2624 O 340.721 -5.81621 -1.91066 0
M  V30 2625 C 338.585 -7.02416 -1.9168 0
M  V30 2626 H 338.617 -6.6888 -2.96621 0
M  V30 2627 H 339.8 -6.53617 -0.192223 0
M  V30 2628 H 341.284 -8.36622 -0.589963 0
M  V30 2629 H 339.59 -10.0291 -1.79807 0
M  V30 2630 H 339.4 -10.2138 0.558219 0
M  V30 2631 H 337.77 -9.6579 0.0444202 0
M  V30 2632 H 340.409 -5.69556 -2.79637 0
M  V30 2633 P 342.266 -8.4349 -2.47671 0
M  V30 2634 O 343.688 -8.92785 -2.65057 0
M  V30 2635 O 341.906 -7.7568 -1.19296 0
M  V30 2636 O 341.943 -7.36886 -3.63805 0
M  V30 2637 C 341.783 -7.95349 -4.982 0
M  V30 2638 C 342.323 -6.94537 -5.98908 0
M  V30 2639 O 341.268 -6.10347 -6.11815 0
M  V30 2640 C 343.541 -6.11426 -5.62335 0
M  V30 2641 O 344.279 -5.6162 -6.70584 0
M  V30 2642 C 342.873 -5.04409 -4.73308 0
M  V30 2643 O 343.671 -3.85929 -4.75106 0
M  V30 2644 C 341.535 -4.8728 -5.41006 0
M  V30 2645 N 340.492 -4.65812 -4.42377 0
M  V30 2646 C 340.554 -5.27109 -3.24335 0
M  V30 2647 N 339.509 -4.94293 -2.47735 0
M  V30 2648 C 338.775 -4.1271 -3.23359 0
M  V30 2649 C 337.469 -3.56384 -2.99934 0
M  V30 2650 O 336.736 -3.69331 -2.00616 0
M  V30 2651 N 337.039 -2.80206 -4.03316 0
M  V30 2652 C 337.788 -2.58614 -5.2172 0
M  V30 2653 N 337.191 -1.75154 -6.13278 0
M  V30 2654 N 338.941 -3.13689 -5.47619 0
M  V30 2655 C 339.398 -3.90921 -4.46436 0
M  V30 2656 H 341.567 -4.02333 -6.11157 0
M  V30 2657 H 342.75 -5.39383 -3.69487 0
M  V30 2658 H 344.235 -6.71414 -5.02615 0
M  V30 2659 H 342.54 -7.4649 -6.93477 0
M  V30 2660 H 342.35 -8.89416 -5.05237 0
M  V30 2661 H 340.719 -8.14876 -5.18409 0
M  V30 2662 H 336.143 -2.36355 -3.95916 0
M  V30 2663 H 341.35 -5.95212 -2.93859 0
M  V30 2664 H 336.28 -1.32473 -5.91856 0
M  V30 2665 H 337.656 -1.5588 -7.03026 0
M  V30 2666 H 343.36 -3.27906 -5.43085 0
M  V30 2667 P 345.217 -5.75688 -6.64379 0
M  V30 2668 O 346.639 -6.07627 -7.05504 0
M  V30 2669 O 344.857 -5.88047 -5.19722 0
M  V30 2670 O 344.894 -4.2322 -7.04443 0
M  V30 2671 C 344.734 -3.99743 -8.4911 0
M  V30 2672 C 345.274 -2.60516 -8.79425 0
M  V30 2673 O 344.218 -1.82684 -8.4467 0
M  V30 2674 C 346.492 -2.10343 -8.03628 0
M  V30 2675 O 347.23 -1.09919 -8.67766 0
M  V30 2676 C 345.823 -1.68446 -6.70876 0
M  V30 2677 O 346.622 -0.678137 -6.08433 0
M  V30 2678 C 344.486 -1.17436 -7.18567 0
M  V30 2679 H 344.518 -0.0804732 -7.31656 0
M  V30 2680 H 345.701 -2.54037 -6.02537 0
M  V30 2681 H 347.185 -2.93881 -7.85526 0
M  V30 2682 H 345.491 -2.53065 -9.86973 0
M  V30 2683 H 345.301 -4.75072 -9.05887 0
M  V30 2684 H 343.671 -4.05244 -8.76668 0
M  V30 2685 H 346.31 0.177647 -6.34251 0
M  V30 2686 P 348.167 -1.25109 -8.70152 0
M  V30 2687 O 349.589 -1.29744 -9.22016 0
M  V30 2688 O 347.807 -2.13714 -7.55141 0
M  V30 2689 O 347.844 0.248149 -8.21425 0
M  V30 2690 C 347.684 1.22779 -9.30434 0
M  V30 2691 C 348.224 2.56293 -8.80664 0
M  V30 2692 O 347.168 3.02979 -8.09349 0
M  V30 2693 C 349.442 2.57523 -7.89775 0
M  V30 2694 O 350.18 3.7668 -7.89438 0
M  V30 2695 C 348.773 2.20997 -6.55446 0
M  V30 2696 O 349.572 2.71895 -5.48509 0
M  V30 2697 C 347.436 2.89693 -6.67988 0
M  V30 2698 H 347.468 3.88793 -6.19859 0
M  V30 2699 H 348.651 1.12046 -6.44229 0
M  V30 2700 H 350.135 1.7746 -8.19711 0
M  V30 2701 H 348.441 3.20706 -9.67112 0
M  V30 2702 H 348.251 0.901032 -10.1892 0
M  V30 2703 H 346.621 1.33049 -9.56592 0
M  V30 2704 H 349.26 3.57847 -5.23962 0
M  V30 2705 P 351.118 3.65191 -7.99657 0
M  V30 2706 O 352.54 3.89332 -8.45794 0
M  V30 2707 O 350.758 2.28472 -7.50807 0
M  V30 2708 O 350.795 4.64972 -6.77611 0
M  V30 2709 C 350.635 6.06319 -7.16352 0
M  V30 2710 C 351.175 6.91731 -6.02299 0
M  V30 2711 O 350.119 6.92449 -5.17064 0
M  V30 2712 C 352.393 6.43627 -5.25174 0
M  V30 2713 O 353.131 7.43686 -4.60469 0
M  V30 2714 C 351.724 5.40275 -4.31916 0
M  V30 2715 O 352.523 5.25279 -3.14438 0
M  V30 2716 C 350.387 6.04847 -4.05327 0
M  V30 2717 H 350.419 6.62195 -3.11261 0
M  V30 2718 H 351.602 4.42556 -4.81383 0
M  V30 2719 H 353.086 5.92458 -5.93643 0
M  V30 2720 H 351.392 7.92655 -6.402 0
M  V30 2721 H 351.202 6.26671 -8.0846 0
M  V30 2722 H 349.572 6.29101 -7.32804 0
M  V30 2723 H 352.211 5.84315 -2.47318 0
M  V30 2724 P 354.068 7.39546 -4.75277 0
M  V30 2725 O 355.489 7.84882 -5.01092 0
M  V30 2726 O 353.708 5.9812 -5.08098 0
M  V30 2727 O 353.745 7.57503 -3.1866 0
M  V30 2728 C 353.584 8.97452 -2.74862 0
M  V30 2729 C 354.125 9.07548 -1.32709 0
M  V30 2730 O 353.07 8.61972 -0.606089 0
M  V30 2731 C 355.343 8.25383 -0.938334 0
M  V30 2732 O 356.081 8.74577 0.146954 0
M  V30 2733 C 354.675 6.8802 -0.712559 0
M  V30 2734 O 355.473 6.1181 0.188505 0
M  V30 2735 C 353.337 7.27966 -0.139777 0
M  V30 2736 N 352.294 6.39368 -0.623421 0
M  V30 2737 C 352.463 5.71761 -1.78245 0
M  V30 2738 N 351.436 4.962 -2.10491 0
M  V30 2739 C 350.551 5.16158 -1.0635 0
M  V30 2740 C 349.284 4.60425 -0.810266 0
M  V30 2741 N 348.719 5.06 0.348685 0
M  V30 2742 C 349.321 5.94532 1.20395 0
M  V30 2743 N 350.498 6.48452 1.01191 0
M  V30 2744 C 351.073 6.04423 -0.146291 0
M  V30 2745 H 354.552 6.32625 -1.65044 0
M  V30 2746 H 356.035 8.19355 -1.79097 0
M  V30 2747 H 354.341 10.1305 -1.09016 0
M  V30 2748 H 354.151 9.64276 -3.41316 0
M  V30 2749 H 352.521 9.25417 -2.76357 0
M  V30 2750 H 353.363 5.79354 -2.38959 0
M  V30 2751 H 355.161 6.25169 1.0783 0
M  V30 2752 P 357.019 8.791 1.66284e-12 0
M  V30 2753 O 358.441 9.31096 0.027933 0
M  V30 2754 O 356.659 7.77869 -1.04071 0
M  V30 2755 O 356.696 8.09533 1.41463 0
M  V30 2756 C 356.536 9.0349 2.53943 0
M  V30 2757 C 357.076 8.35226 3.79016 0
M  V30 2758 O 356.02 7.57992 4.15078 0
M  V30 2759 C 358.294 7.45087 3.67298 0
M  V30 2760 O 359.032 7.27796 4.85194 0
M  V30 2761 C 357.625 6.17323 3.12027 0
M  V30 2762 O 358.424 5.04231 3.47188 0
M  V30 2763 C 356.288 6.19961 3.81809 0
M  V30 2764 H 356.32 5.58218 4.73051 0
M  V30 2765 H 357.503 6.21726 2.02589 0
M  V30 2766 H 358.987 7.86112 2.9231 0
M  V30 2767 H 357.293 9.11627 4.55076 0
M  V30 2768 H 357.103 9.9573 2.34194 0
M  V30 2769 H 355.473 9.2792 2.67832 0
M  V30 2770 H 358.112 4.67702 4.28772 0
M  V30 2771 P 359.97 7.39546 4.75277 0
M  V30 2772 O 361.392 7.81777 5.05738 0
M  V30 2773 O 359.61 7.1065 3.32998 0
M  V30 2774 O 359.647 6.04542 5.56673 0
M  V30 2775 C 359.487 6.22772 7.02095 0
M  V30 2776 C 360.027 4.97725 7.70406 0
M  V30 2777 O 358.971 4.13256 7.58987 0
M  V30 2778 C 361.245 4.28231 7.11815 0
M  V30 2779 O 361.983 3.49945 8.01648 0
M  V30 2780 C 360.576 3.5063 5.96244 0
M  V30 2781 O 361.375 2.36482 5.64681 0
M  V30 2782 C 359.239 3.15122 6.56374 0
M  V30 2783 H 359.271 2.13853 6.99751 0
M  V30 2784 H 360.454 4.13501 5.06559 0
M  V30 2785 H 361.938 5.03285 6.70911 0
M  V30 2786 H 360.244 5.20877 8.75697 0
M  V30 2787 H 360.054 7.11046 7.35349 0
M  V30 2788 H 358.424 6.35815 7.26986 0
M  V30 2789 H 361.063 1.61644 6.13565 0
M  V30 2790 P 362.92 3.65191 7.99657 0
M  V30 2791 O 364.342 3.8425 8.48115 0
M  V30 2792 O 362.56 4.17805 6.64342 0
M  V30 2793 O 362.597 2.07613 7.95143 0
M  V30 2794 C 362.437 1.44328 9.27336 0
M  V30 2795 C 362.977 0.0220036 9.17197 0
M  V30 2796 O 361.921 -0.626867 8.61923 0
M  V30 2797 C 364.195 -0.24586 8.30336 0
M  V30 2798 O 364.933 -1.39011 8.63583 0
M  V30 2799 C 363.526 -0.273849 6.91158 0
M  V30 2800 O 364.325 -1.06348 6.02892 0
M  V30 2801 C 362.189 -0.897649 7.22545 0
M  V30 2802 H 362.221 -1.9841 7.04286 0
M  V30 2803 H 363.404 0.739928 6.497 0
M  V30 2804 H 364.888 0.60668 8.36503 0
M  V30 2805 H 363.194 -0.352479 10.1829 0
M  V30 2806 H 363.004 2.00611 10.0304 0
M  V30 2807 H 361.374 1.41843 9.55327 0
M  V30 2808 H 364.013 -1.95734 6.03555 0
M  V30 2809 P 365.871 -1.25109 8.70152 0
M  V30 2810 O 367.293 -1.35274 9.21221 0
M  V30 2811 O 365.511 -0.0769065 7.84762 0
M  V30 2812 O 365.548 -2.55232 7.81161 0
M  V30 2813 C 365.388 -3.79939 8.58154 0
M  V30 2814 C 365.928 -4.94023 7.72785 0
M  V30 2815 O 364.872 -5.18726 6.91205 0
M  V30 2816 C 367.146 -4.69597 6.85231 0
M  V30 2817 O 367.884 -5.83832 6.51337 0
M  V30 2818 C 366.477 -3.96706 5.66633 0
M  V30 2819 O 367.276 -4.15414 4.49689 0
M  V30 2820 C 365.14 -4.66153 5.59313 0
M  V30 2821 H 365.172 -5.47679 4.85214 0
M  V30 2822 H 366.355 -2.89008 5.86566 0
M  V30 2823 H 367.839 -4.0121 7.36511 0
M  V30 2824 H 366.145 -5.80182 8.37584 0
M  V30 2825 H 365.955 -3.73517 9.52265 0
M  V30 2826 H 364.325 -3.97163 8.80359 0
M  V30 2827 H 366.964 -4.90969 4.01921 0
M  V30 2828 P 368.821 -5.75688 6.64379 0
M  V30 2829 O 370.243 -6.11849 7.01846 0
M  V30 2830 O 368.461 -4.30744 6.56026 0
M  V30 2831 O 368.498 -6.37042 5.19165 0
M  V30 2832 C 368.338 -7.83578 5.16515 0
M  V30 2833 C 368.878 -8.33398 3.83019 0
M  V30 2834 O 367.822 -8.10074 3.01034 0
M  V30 2835 C 370.096 -7.65514 3.2257 0
M  V30 2836 O 370.834 -8.4329 2.32297 0
M  V30 2837 C 369.427 -6.40075 2.62207 0
M  V30 2838 O 370.226 -5.92589 1.53712 0
M  V30 2839 C 368.09 -6.9454 2.18503 0
M  V30 2840 H 368.122 -7.23063 1.12091 0
M  V30 2841 H 369.305 -5.6025 3.37201 0
M  V30 2842 H 370.789 -7.35707 4.02681 0
M  V30 2843 H 369.095 -9.40912 3.9095 0
M  V30 2844 H 368.905 -8.29056 5.99158 0
M  V30 2845 H 367.275 -8.10073 5.25882 0
M  V30 2846 H 369.914 -6.30324 0.726794 0
M  V30 2847 P 371.772 -8.4349 2.47671 0
M  V30 2848 O 373.194 -8.94167 2.5964 0
M  V30 2849 O 371.412 -7.1704 3.19006 0
M  V30 2850 O 371.449 -8.16596 0.923387 0
M  V30 2851 C 371.289 -9.38437 0.108857 0
M  V30 2852 C 371.829 -9.08175 -1.28353 0
M  V30 2853 O 370.773 -8.44229 -1.84713 0
M  V30 2854 C 373.047 -8.18386 -1.42505 0
M  V30 2855 O 373.785 -8.3501 -2.60497 0
M  V30 2856 C 372.378 -6.80225 -1.25468 0
M  V30 2857 O 373.177 -5.81621 -1.91066 0
M  V30 2858 C 371.041 -7.02416 -1.9168 0
M  V30 2859 H 371.073 -6.6888 -2.96621 0
M  V30 2860 H 372.256 -6.53617 -0.192223 0
M  V30 2861 H 373.74 -8.36622 -0.589963 0
M  V30 2862 H 372.046 -10.0291 -1.79807 0
M  V30 2863 H 371.856 -10.2138 0.558219 0
M  V30 2864 H 370.226 -9.6579 0.0444202 0
M  V30 2865 H 372.865 -5.69556 -2.79637 0
M  V30 2866 P 374.722 -8.4349 -2.47671 0
M  V30 2867 O 376.144 -8.92593 -2.65 0
M  V30 2868 O 374.362 -7.7568 -1.19296 0
M  V30 2869 O 374.399 -7.36886 -3.63805 0
M  V30 2870 C 374.239 -7.95349 -4.982 0
M  V30 2871 C 374.779 -6.94612 -5.98974 0
M  V30 2872 O 373.723 -6.10347 -6.11815 0
M  V30 2873 C 375.997 -6.11426 -5.62335 0
M  V30 2874 O 376.735 -5.6162 -6.70584 0
M  V30 2875 C 375.328 -5.04409 -4.73308 0
M  V30 2876 O 376.127 -3.85992 -4.75183 0
M  V30 2877 C 373.991 -4.8728 -5.41006 0
M  V30 2878 H 374.023 -4.02333 -6.11157 0
M  V30 2879 H 375.206 -5.39466 -3.69543 0
M  V30 2880 H 376.69 -6.71916 -5.01943 0
M  V30 2881 H 374.996 -7.4649 -6.93477 0
M  V30 2882 H 374.806 -8.89416 -5.05237 0
M  V30 2883 H 373.176 -8.14876 -5.18409 0
M  V30 2884 H 375.815 -3.27957 -5.4317 0
M  V30 2885 P 377.673 -5.75688 -6.64379 0
M  V30 2886 O 379.095 -6.07627 -7.05504 0
M  V30 2887 O 377.313 -5.88047 -5.19722 0
M  V30 2888 O 377.35 -4.2322 -7.04443 0
M  V30 2889 C 377.19 -3.99743 -8.4911 0
M  V30 2890 C 377.73 -2.60516 -8.79425 0
M  V30 2891 O 376.674 -1.82684 -8.4467 0
M  V30 2892 C 378.948 -2.10343 -8.03628 0
M  V30 2893 O 379.686 -1.09919 -8.67766 0
M  V30 2894 C 378.279 -1.68446 -6.70876 0
M  V30 2895 O 379.078 -0.678137 -6.08433 0
M  V30 2896 C 376.942 -1.17436 -7.18567 0
M  V30 2897 H 376.974 -0.0804732 -7.31656 0
M  V30 2898 H 378.157 -2.54037 -6.02537 0
M  V30 2899 H 379.641 -2.93881 -7.85526 0
M  V30 2900 H 377.947 -2.53065 -9.86973 0
M  V30 2901 H 377.757 -4.75072 -9.05887 0
M  V30 2902 H 376.127 -4.05244 -8.76668 0
M  V30 2903 H 378.766 0.177647 -6.34251 0
M  V30 2904 P 380.624 -1.25109 -8.70152 0
M  V30 2905 O 382.046 -1.29744 -9.22016 0
M  V30 2906 O 380.264 -2.13714 -7.55141 0
M  V30 2907 O 380.301 0.248149 -8.21425 0
M  V30 2908 C 380.141 1.22779 -9.30434 0
M  V30 2909 C 380.681 2.56293 -8.80664 0
M  V30 2910 O 379.625 3.02979 -8.09349 0
M  V30 2911 C 381.899 2.57523 -7.89775 0
M  V30 2912 O 382.637 3.7668 -7.89438 0
M  V30 2913 C 381.23 2.20997 -6.55446 0
M  V30 2914 O 382.029 2.71895 -5.48509 0
M  V30 2915 C 379.893 2.89693 -6.67988 0
M  V30 2916 H 379.925 3.88793 -6.19859 0
M  V30 2917 H 381.108 1.12046 -6.44229 0
M  V30 2918 H 382.592 1.7746 -8.19711 0
M  V30 2919 H 380.898 3.20706 -9.67112 0
M  V30 2920 H 380.708 0.901032 -10.1892 0
M  V30 2921 H 379.078 1.33049 -9.56592 0
M  V30 2922 H 381.717 3.57847 -5.23962 0
M  V30 2923 P 383.574 3.65191 -7.99657 0
M  V30 2924 O 384.996 3.89332 -8.45794 0
M  V30 2925 O 383.214 2.28472 -7.50807 0
M  V30 2926 O 383.251 4.64972 -6.77611 0
M  V30 2927 C 383.091 6.06319 -7.16352 0
M  V30 2928 C 383.631 6.91731 -6.02299 0
M  V30 2929 O 382.575 6.92449 -5.17064 0
M  V30 2930 C 384.849 6.43627 -5.25174 0
M  V30 2931 O 385.587 7.43686 -4.60469 0
M  V30 2932 C 384.18 5.40275 -4.31916 0
M  V30 2933 O 384.979 5.25279 -3.14438 0
M  V30 2934 C 382.843 6.04847 -4.05327 0
M  V30 2935 H 382.875 6.62195 -3.11261 0
M  V30 2936 H 384.058 4.42556 -4.81383 0
M  V30 2937 H 385.542 5.92458 -5.93643 0
M  V30 2938 H 383.848 7.92655 -6.402 0
M  V30 2939 H 383.658 6.26671 -8.0846 0
M  V30 2940 H 382.028 6.29101 -7.32804 0
M  V30 2941 H 384.667 5.84315 -2.47318 0
M  V30 2942 P 386.525 7.39546 -4.75277 0
M  V30 2943 O 387.947 7.84798 -5.01039 0
M  V30 2944 O 386.165 5.9812 -5.08098 0
M  V30 2945 O 386.202 7.57503 -3.1866 0
M  V30 2946 C 386.042 8.97357 -2.74833 0
M  V30 2947 C 386.582 9.07548 -1.32709 0
M  V30 2948 O 385.526 8.62072 -0.606159 0
M  V30 2949 C 387.8 8.25383 -0.938334 0
M  V30 2950 O 388.538 8.74577 0.146954 0
M  V30 2951 C 387.131 6.8802 -0.712559 0
M  V30 2952 O 387.93 6.1189 0.194655 0
M  V30 2953 C 385.794 7.27966 -0.139777 0
M  V30 2954 H 385.826 7.25354 0.961601 0
M  V30 2955 H 387.009 6.32557 -1.65702 0
M  V30 2956 H 388.493 8.19355 -1.79097 0
M  V30 2957 H 386.799 10.1294 -1.10029 0
M  V30 2958 H 386.609 9.64276 -3.41316 0
M  V30 2959 H 384.979 9.25417 -2.76357 0
M  V30 2960 H 387.618 6.25267 1.07847 0
M  V30 2961 P 389.475 8.791 1.973e-12 0
M  V30 2962 O 390.897 9.31096 0.027933 0
M  V30 2963 O 389.115 7.77869 -1.04071 0
M  V30 2964 O 389.152 8.09533 1.41463 0
M  V30 2965 C 388.992 9.0349 2.53943 0
M  V30 2966 C 389.532 8.35226 3.79016 0
M  V30 2967 O 388.476 7.57992 4.15078 0
M  V30 2968 C 390.75 7.45087 3.67298 0
M  V30 2969 O 391.488 7.27796 4.85194 0
M  V30 2970 C 390.081 6.17323 3.12027 0
M  V30 2971 O 390.88 5.04231 3.47188 0
M  V30 2972 C 388.744 6.19961 3.81809 0
M  V30 2973 H 388.776 5.58218 4.73051 0
M  V30 2974 H 389.959 6.21726 2.02589 0
M  V30 2975 H 391.443 7.86112 2.9231 0
M  V30 2976 H 389.749 9.11627 4.55076 0
M  V30 2977 H 389.559 9.9573 2.34194 0
M  V30 2978 H 387.929 9.2792 2.67832 0
M  V30 2979 H 390.568 4.67702 4.28772 0
M  V30 2980 P 392.426 7.39546 4.75277 0
M  V30 2981 O 393.848 7.81945 5.05847 0
M  V30 2982 O 392.066 7.1065 3.32998 0
M  V30 2983 O 392.103 6.04542 5.56673 0
M  V30 2984 C 391.943 6.22772 7.02095 0
M  V30 2985 C 392.483 4.97671 7.70322 0
M  V30 2986 O 391.428 4.13256 7.58987 0
M  V30 2987 C 393.701 4.28231 7.11815 0
M  V30 2988 O 394.439 3.49945 8.01648 0
M  V30 2989 C 393.033 3.5063 5.96244 0
M  V30 2990 O 393.831 2.36443 5.64589 0
M  V30 2991 C 391.695 3.15122 6.56374 0
M  V30 2992 N 390.652 3.22311 5.55692 0
M  V30 2993 C 390.714 4.14382 4.59701 0
M  V30 2994 N 389.669 4.04476 3.76958 0
M  V30 2995 C 388.935 3.04892 4.26534 0
M  V30 2996 C 387.629 2.57447 3.88189 0
M  V30 2997 O 386.896 2.9785 2.96543 0
M  V30 2998 N 387.199 1.55228 4.65922 0
M  V30 2999 C 387.948 1.01152 5.73447 0
M  V30 3000 N 387.351 -0.0472117 6.37783 0
M  V30 3001 N 389.101 1.467 6.13813 0
M  V30 3002 C 389.558 2.4931 5.38487 0
M  V30 3003 H 391.727 2.13853 6.99751 0
M  V30 3004 H 392.91 4.13438 5.06482 0
M  V30 3005 H 394.395 5.02614 6.71414 0
M  V30 3006 H 392.7 5.20877 8.75697 0
M  V30 3007 H 392.51 7.11046 7.35349 0
M  V30 3008 H 390.879 6.35815 7.26986 0
M  V30 3009 H 386.303 1.15238 4.46468 0
M  V30 3010 H 391.51 4.88312 4.49647 0
M  V30 3011 H 386.44 -0.396382 6.05203 0
M  V30 3012 H 387.816 -0.484997 7.18465 0
M  V30 3013 H 393.52 1.61619 6.13468 0
M  V30 3014 P 395.376 3.65191 7.99657 0
M  V30 3015 O 396.798 3.8425 8.48115 0
M  V30 3016 O 395.016 4.17805 6.64342 0
M  V30 3017 O 395.053 2.07613 7.95143 0
M  V30 3018 C 394.893 1.44328 9.27336 0
M  V30 3019 C 395.433 0.0220036 9.17197 0
M  V30 3020 O 394.377 -0.626867 8.61923 0
M  V30 3021 C 396.651 -0.24586 8.30336 0
M  V30 3022 O 397.389 -1.39011 8.63583 0
M  V30 3023 C 395.982 -0.273849 6.91158 0
M  V30 3024 O 396.781 -1.06348 6.02892 0
M  V30 3025 C 394.645 -0.897649 7.22545 0
M  V30 3026 H 394.677 -1.9841 7.04286 0
M  V30 3027 H 395.86 0.739928 6.497 0
M  V30 3028 H 397.344 0.60668 8.36503 0
M  V30 3029 H 395.65 -0.352479 10.1829 0
M  V30 3030 H 395.46 2.00611 10.0304 0
M  V30 3031 H 393.83 1.41843 9.55327 0
M  V30 3032 H 396.469 -1.95734 6.03555 0
M  V30 3033 P 398.327 -1.25109 8.70152 0
M  V30 3034 O 399.728 -1.31452 9.27431 0
M  V30 3035 O 397.949 -0.0458113 7.89887 0
M  V30 3036 O 398.004 -2.55201 7.81066 0
M  V30 3037 C 397.844 -3.79939 8.58154 0
M  V30 3038 C 398.384 -4.93969 7.72701 0
M  V30 3039 O 397.328 -5.18666 6.91125 0
M  V30 3040 C 399.601 -4.69597 6.85231 0
M  V30 3041 O 400.34 -5.83832 6.51337 0
M  V30 3042 C 398.934 -3.96706 5.66633 0
M  V30 3043 O 399.732 -4.15346 4.49615 0
M  V30 3044 C 397.596 -4.66153 5.59313 0
M  V30 3045 N 396.553 -3.71582 5.24027 0
M  V30 3046 C 395.518 -4.15133 4.44901 0
M  V30 3047 O 395.557 -5.32122 4.00336 0
M  V30 3048 N 394.506 -3.30554 4.15693 0
M  V30 3049 C 394.554 -2.04701 4.61105 0
M  V30 3050 C 395.65 -1.57111 5.38655 0
M  V30 3051 C 396.616 -2.44234 5.68454 0
M  V30 3052 H 397.628 -5.47604 4.85148 0
M  V30 3053 H 398.811 -2.8955 5.86187 0
M  V30 3054 H 400.295 -4.01995 7.36197 0
M  V30 3055 H 398.601 -5.81019 8.37003 0
M  V30 3056 H 398.41 -3.73517 9.52265 0
M  V30 3057 H 396.78 -3.97122 8.80267 0
M  V30 3058 H 395.698 -0.538464 5.72373 0
M  V30 3059 H 397.462 -2.11927 6.29377 0
M  V30 3060 H 399.516 -4.98352 4.09633 0
M  V30 3061 P 401.278 -5.75688 6.64379 0
M  V30 3062 O 402.7 -6.11849 7.01846 0
M  V30 3063 O 400.918 -4.30744 6.56026 0
M  V30 3064 O 400.955 -6.37042 5.19165 0
M  V30 3065 C 400.795 -7.83578 5.16515 0
M  V30 3066 C 401.335 -8.33398 3.83019 0
M  V30 3067 O 400.279 -8.10074 3.01034 0
M  V30 3068 C 402.553 -7.65514 3.2257 0
M  V30 3069 O 403.291 -8.4329 2.32297 0
M  V30 3070 C 401.884 -6.40075 2.62207 0
M  V30 3071 O 402.683 -5.92589 1.53712 0
M  V30 3072 C 400.547 -6.9454 2.18503 0
M  V30 3073 H 400.579 -7.23063 1.12091 0
M  V30 3074 H 401.762 -5.6025 3.37201 0
M  V30 3075 H 403.246 -7.35707 4.02681 0
M  V30 3076 H 401.552 -9.40912 3.9095 0
M  V30 3077 H 401.362 -8.29056 5.99158 0
M  V30 3078 H 399.732 -8.10073 5.25882 0
M  V30 3079 H 402.371 -6.30324 0.726794 0
M  V30 3080 P 404.228 -8.4349 2.47671 0
M  V30 3081 O 405.65 -8.94167 2.5964 0
M  V30 3082 O 403.868 -7.1704 3.19006 0
M  V30 3083 O 403.905 -8.16596 0.923387 0
M  V30 3084 C 403.745 -9.38437 0.108857 0
M  V30 3085 C 404.285 -9.08175 -1.28353 0
M  V30 3086 O 403.229 -8.44229 -1.84713 0
M  V30 3087 C 405.503 -8.18386 -1.42505 0
M  V30 3088 O 406.241 -8.3501 -2.60497 0
M  V30 3089 C 404.834 -6.80225 -1.25468 0
M  V30 3090 O 405.633 -5.81621 -1.91066 0
M  V30 3091 C 403.497 -7.02416 -1.9168 0
M  V30 3092 H 403.529 -6.6888 -2.96621 0
M  V30 3093 H 404.712 -6.53617 -0.192223 0
M  V30 3094 H 406.196 -8.36622 -0.589963 0
M  V30 3095 H 404.502 -10.0291 -1.79807 0
M  V30 3096 H 404.312 -10.2138 0.558219 0
M  V30 3097 H 402.682 -9.6579 0.0444202 0
M  V30 3098 H 405.321 -5.69556 -2.79637 0
M  V30 3099 P 407.179 -8.4349 -2.47671 0
M  V30 3100 O 408.601 -8.92593 -2.65 0
M  V30 3101 O 406.819 -7.7568 -1.19296 0
M  V30 3102 O 406.856 -7.36886 -3.63805 0
M  V30 3103 C 406.696 -7.95349 -4.982 0
M  V30 3104 C 407.236 -6.94612 -5.98974 0
M  V30 3105 O 406.18 -6.10347 -6.11815 0
M  V30 3106 C 408.454 -6.11426 -5.62335 0
M  V30 3107 O 409.192 -5.6162 -6.70584 0
M  V30 3108 C 407.785 -5.04409 -4.73308 0
M  V30 3109 O 408.584 -3.85992 -4.75183 0
M  V30 3110 C 406.448 -4.8728 -5.41006 0
M  V30 3111 H 406.48 -4.02333 -6.11157 0
M  V30 3112 H 407.663 -5.39466 -3.69543 0
M  V30 3113 H 409.147 -6.71916 -5.01943 0
M  V30 3114 H 407.453 -7.4649 -6.93477 0
M  V30 3115 H 407.263 -8.89416 -5.05237 0
M  V30 3116 H 405.633 -8.14876 -5.18409 0
M  V30 3117 H 408.272 -3.27957 -5.4317 0
M  V30 3118 P 410.129 -5.75688 -6.64379 0
M  V30 3119 O 411.551 -6.07758 -7.05656 0
M  V30 3120 O 409.769 -5.88047 -5.19722 0
M  V30 3121 O 409.806 -4.2322 -7.04443 0
M  V30 3122 C 409.646 -3.99743 -8.4911 0
M  V30 3123 C 410.186 -2.60487 -8.79329 0
M  V30 3124 O 409.131 -1.82684 -8.4467 0
M  V30 3125 C 411.404 -2.10343 -8.03628 0
M  V30 3126 O 412.142 -1.09919 -8.67766 0
M  V30 3127 C 410.736 -1.68446 -6.70876 0
M  V30 3128 O 411.534 -0.678026 -6.08333 0
M  V30 3129 C 409.398 -1.17436 -7.18567 0
M  V30 3130 N 408.355 -1.52699 -6.23988 0
M  V30 3131 C 408.417 -2.68084 -5.57824 0
M  V30 3132 N 407.372 -2.8189 -4.75643 0
M  V30 3133 C 406.638 -1.72373 -4.95155 0
M  V30 3134 C 405.332 -1.37653 -4.44996 0
M  V30 3135 O 404.599 -2.02239 -3.68445 0
M  V30 3136 N 404.902 -0.17675 -4.90782 0
M  V30 3137 C 405.651 0.645036 -5.78716 0
M  V30 3138 N 405.054 1.84214 -6.10618 0
M  V30 3139 N 406.804 0.321732 -6.30279 0
M  V30 3140 C 407.261 -0.87502 -5.86913 0
M  V30 3141 H 409.43 -0.0804732 -7.31656 0
M  V30 3142 H 410.613 -2.53998 -6.02444 0
M  V30 3143 H 412.098 -2.93095 -7.8582 0
M  V30 3144 H 410.403 -2.53065 -9.86973 0
M  V30 3145 H 410.213 -4.75072 -9.05887 0
M  V30 3146 H 408.582 -4.05244 -8.76668 0
M  V30 3147 H 404.006 0.152143 -4.60849 0
M  V30 3148 H 409.213 -3.41852 -5.69006 0
M  V30 3149 H 404.143 2.08538 -5.69521 0
M  V30 3150 H 405.519 2.4895 -6.75698 0
M  V30 3151 H 411.223 0.177619 -6.34151 0
M  V30 3152 P 413.08 -1.25109 -8.70152 0
M  V30 3153 O 414.502 -1.29772 -9.22214 0
M  V30 3154 O 412.72 -2.13714 -7.55141 0
M  V30 3155 O 412.757 0.248149 -8.21425 0
M  V30 3156 C 412.597 1.22779 -9.30434 0
M  V30 3157 C 413.137 2.56265 -8.80568 0
M  V30 3158 O 412.082 3.02979 -8.09349 0
M  V30 3159 C 414.355 2.57523 -7.89775 0
M  V30 3160 O 415.093 3.7668 -7.89438 0
M  V30 3161 C 413.687 2.20997 -6.55446 0
M  V30 3162 O 414.485 2.71851 -5.48419 0
M  V30 3163 C 412.349 2.89693 -6.67988 0
M  V30 3164 N 411.306 2.08895 -6.07487 0
M  V30 3165 C 411.368 0.760559 -6.14209 0
M  V30 3166 N 410.323 0.200108 -5.52538 0
M  V30 3167 C 409.589 1.22692 -5.09742 0
M  V30 3168 C 408.283 1.24782 -4.48775 0
M  V30 3169 O 407.55 0.290617 -4.19294 0
M  V30 3170 N 407.853 2.50468 -4.22428 0
M  V30 3171 C 408.602 3.67142 -4.51974 0
M  V30 3172 N 408.005 4.85096 -4.14091 0
M  V30 3173 N 409.755 3.67821 -5.12831 0
M  V30 3174 C 410.212 2.43698 -5.4105 0
M  V30 3175 H 412.381 3.88793 -6.19859 0
M  V30 3176 H 413.564 1.12029 -6.4413 0
M  V30 3177 H 415.049 1.78279 -8.19533 0
M  V30 3178 H 413.354 3.20706 -9.67112 0
M  V30 3179 H 413.164 0.901032 -10.1892 0
M  V30 3180 H 411.533 1.33049 -9.56592 0
M  V30 3181 H 406.957 2.61953 -3.79465 0
M  V30 3182 H 412.164 0.200439 -6.63497 0
M  V30 3183 H 407.094 4.8334 -3.66367 0
M  V30 3184 H 408.47 5.7474 -4.33841 0
M  V30 3185 H 414.174 3.5779 -5.23879 0
M  V30 3186 P 416.03 3.65191 -7.99657 0
M  V30 3187 O 417.452 3.89332 -8.45794 0
M  V30 3188 O 415.67 2.28472 -7.50807 0
M  V30 3189 O 415.707 4.64972 -6.77611 0
M  V30 3190 C 415.547 6.06319 -7.16352 0
M  V30 3191 C 416.087 6.91731 -6.02299 0
M  V30 3192 O 415.031 6.92449 -5.17064 0
M  V30 3193 C 417.305 6.43627 -5.25174 0
M  V30 3194 O 418.043 7.43686 -4.60469 0
M  V30 3195 C 416.636 5.40275 -4.31916 0
M  V30 3196 O 417.435 5.25279 -3.14438 0
M  V30 3197 C 415.299 6.04847 -4.05327 0
M  V30 3198 H 415.331 6.62195 -3.11261 0
M  V30 3199 H 416.514 4.42556 -4.81383 0
M  V30 3200 H 417.998 5.92458 -5.93643 0
M  V30 3201 H 416.304 7.92655 -6.402 0
M  V30 3202 H 416.114 6.26671 -8.0846 0
M  V30 3203 H 414.484 6.29101 -7.32804 0
M  V30 3204 H 417.123 5.84315 -2.47318 0
M  V30 3205 P 418.981 7.39546 -4.75277 0
M  V30 3206 O 420.403 7.84798 -5.01039 0
M  V30 3207 O 418.621 5.9812 -5.08098 0
M  V30 3208 O 418.658 7.57503 -3.1866 0
M  V30 3209 C 418.498 8.97357 -2.74833 0
M  V30 3210 C 419.038 9.07548 -1.32709 0
M  V30 3211 O 417.982 8.62072 -0.606159 0
M  V30 3212 C 420.256 8.25383 -0.938334 0
M  V30 3213 O 420.994 8.74577 0.146954 0
M  V30 3214 C 419.587 6.8802 -0.712559 0
M  V30 3215 O 420.386 6.1189 0.194655 0
M  V30 3216 C 418.25 7.27966 -0.139777 0
M  V30 3217 H 418.282 7.25354 0.961601 0
M  V30 3218 H 419.465 6.32557 -1.65702 0
M  V30 3219 H 420.949 8.19355 -1.79097 0
M  V30 3220 H 419.255 10.1294 -1.10029 0
M  V30 3221 H 419.065 9.64276 -3.41316 0
M  V30 3222 H 417.435 9.25417 -2.76357 0
M  V30 3223 H 420.074 6.25267 1.07847 0
M  V30 3224 P 421.932 8.791 2.28317e-12 0
M  V30 3225 O 423.354 9.31096 0.027933 0
M  V30 3226 O 421.572 7.77869 -1.04071 0
M  V30 3227 O 421.609 8.09533 1.41463 0
M  V30 3228 C 421.449 9.0349 2.53943 0
M  V30 3229 C 421.989 8.35226 3.79016 0
M  V30 3230 O 420.933 7.57992 4.15078 0
M  V30 3231 C 423.207 7.45087 3.67298 0
M  V30 3232 O 423.945 7.27796 4.85194 0
M  V30 3233 C 422.538 6.17323 3.12027 0
M  V30 3234 O 423.337 5.04231 3.47188 0
M  V30 3235 C 421.201 6.19961 3.81809 0
M  V30 3236 H 421.233 5.58218 4.73051 0
M  V30 3237 H 422.416 6.21726 2.02589 0
M  V30 3238 H 423.9 7.86112 2.9231 0
M  V30 3239 H 422.206 9.11627 4.55076 0
M  V30 3240 H 422.016 9.9573 2.34194 0
M  V30 3241 H 420.386 9.2792 2.67832 0
M  V30 3242 H 423.025 4.67702 4.28772 0
M  V30 3243 P 424.882 7.39546 4.75277 0
M  V30 3244 O 426.303 7.81861 5.05793 0
M  V30 3245 O 424.522 7.1065 3.32998 0
M  V30 3246 O 424.559 6.04542 5.56673 0
M  V30 3247 C 424.398 6.22839 7.02169 0
M  V30 3248 C 424.939 4.97725 7.70406 0
M  V30 3249 O 423.884 4.13208 7.58899 0
M  V30 3250 C 426.157 4.28231 7.11815 0
M  V30 3251 O 426.895 3.49945 8.01648 0
M  V30 3252 C 425.489 3.5063 5.96244 0
M  V30 3253 O 426.287 2.37008 5.64352 0
M  V30 3254 C 424.151 3.15122 6.56374 0
M  V30 3255 N 423.108 3.22311 5.55692 0
M  V30 3256 C 423.277 3.99655 4.46046 0
M  V30 3257 N 422.25 3.97599 3.63918 0
M  V30 3258 C 421.365 3.11159 4.25334 0
M  V30 3259 C 420.098 2.64972 3.85157 0
M  V30 3260 N 419.499 3.02132 2.69405 0
M  V30 3261 N 419.533 1.78482 4.74759 0
M  V30 3262 C 420.135 1.37463 5.90819 0
M  V30 3263 N 421.312 1.7733 6.31889 0
M  V30 3264 C 421.887 2.64393 5.43725 0
M  V30 3265 H 424.183 2.13823 6.99656 0
M  V30 3266 H 425.366 4.12931 5.06895 0
M  V30 3267 H 426.849 5.03285 6.70911 0
M  V30 3268 H 425.155 5.20001 8.76217 0
M  V30 3269 H 424.965 7.11046 7.35349 0
M  V30 3270 H 423.335 6.35815 7.26986 0
M  V30 3271 H 419.599 0.66574 6.53015 0
M  V30 3272 H 424.177 4.58037 4.27732 0
M  V30 3273 H 418.569 2.64828 2.45331 0
M  V30 3274 H 419.973 3.67472 2.05644 0
M  V30 3275 H 425.975 1.61619 6.13468 0
M  V30 3276 P 427.833 3.65191 7.99657 0
M  V30 3277 O 429.255 3.8425 8.48115 0
M  V30 3278 O 427.473 4.17805 6.64342 0
M  V30 3279 O 427.51 2.07613 7.95143 0
M  V30 3280 C 427.35 1.44328 9.27336 0
M  V30 3281 C 427.89 0.0220036 9.17197 0
M  V30 3282 O 426.834 -0.626867 8.61923 0
M  V30 3283 C 429.108 -0.24586 8.30336 0
M  V30 3284 O 429.846 -1.39011 8.63583 0
M  V30 3285 C 428.439 -0.273849 6.91158 0
M  V30 3286 O 429.238 -1.06348 6.02892 0
M  V30 3287 C 427.102 -0.897649 7.22545 0
M  V30 3288 H 427.134 -1.9841 7.04286 0
M  V30 3289 H 428.317 0.739928 6.497 0
M  V30 3290 H 429.801 0.60668 8.36503 0
M  V30 3291 H 428.107 -0.352479 10.1829 0
M  V30 3292 H 427.917 2.00611 10.0304 0
M  V30 3293 H 426.287 1.41843 9.55327 0
M  V30 3294 H 428.926 -1.95734 6.03555 0
M  V30 3295 P 430.783 -1.25109 8.70152 0
M  V30 3296 O 432.205 -1.35274 9.21221 0
M  V30 3297 O 430.423 -0.0769065 7.84762 0
M  V30 3298 O 430.46 -2.55232 7.81161 0
M  V30 3299 C 430.3 -3.79939 8.58154 0
M  V30 3300 C 430.84 -4.94023 7.72785 0
M  V30 3301 O 429.784 -5.18726 6.91205 0
M  V30 3302 C 432.058 -4.69597 6.85231 0
M  V30 3303 O 432.796 -5.83832 6.51337 0
M  V30 3304 C 431.389 -3.96706 5.66633 0
M  V30 3305 O 432.188 -4.15414 4.49689 0
M  V30 3306 C 430.052 -4.66153 5.59313 0
M  V30 3307 H 430.084 -5.47679 4.85214 0
M  V30 3308 H 431.267 -2.89008 5.86566 0
M  V30 3309 H 432.751 -4.0121 7.36511 0
M  V30 3310 H 431.057 -5.80182 8.37584 0
M  V30 3311 H 430.867 -3.73517 9.52265 0
M  V30 3312 H 429.237 -3.97163 8.80359 0
M  V30 3313 H 431.876 -4.90969 4.01921 0
M  V30 3314 P 433.734 -5.75688 6.64379 0
M  V30 3315 O 435.156 -6.11849 7.01846 0
M  V30 3316 O 433.374 -4.30744 6.56026 0
M  V30 3317 O 433.411 -6.37042 5.19165 0
M  V30 3318 C 433.251 -7.83578 5.16515 0
M  V30 3319 C 433.791 -8.33398 3.83019 0
M  V30 3320 O 432.735 -8.10074 3.01034 0
M  V30 3321 C 435.009 -7.65514 3.2257 0
M  V30 3322 O 435.747 -8.4329 2.32297 0
M  V30 3323 C 434.34 -6.40075 2.62207 0
M  V30 3324 O 435.139 -5.92589 1.53712 0
M  V30 3325 C 433.003 -6.9454 2.18503 0
M  V30 3326 H 433.035 -7.23063 1.12091 0
M  V30 3327 H 434.218 -5.6025 3.37201 0
M  V30 3328 H 435.702 -7.35707 4.02681 0
M  V30 3329 H 434.008 -9.40912 3.9095 0
M  V30 3330 H 433.818 -8.29056 5.99158 0
M  V30 3331 H 432.188 -8.10073 5.25882 0
M  V30 3332 H 434.827 -6.30324 0.726794 0
M  V30 3333 P 436.684 -8.4349 2.47671 0
M  V30 3334 O 438.106 -8.94167 2.5964 0
M  V30 3335 O 436.324 -7.1704 3.19006 0
M  V30 3336 O 436.361 -8.16596 0.923387 0
M  V30 3337 C 436.201 -9.38437 0.108857 0
M  V30 3338 C 436.741 -9.08175 -1.28353 0
M  V30 3339 O 435.685 -8.44229 -1.84713 0
M  V30 3340 C 437.959 -8.18386 -1.42505 0
M  V30 3341 O 438.697 -8.3501 -2.60497 0
M  V30 3342 C 437.29 -6.80225 -1.25468 0
M  V30 3343 O 438.089 -5.81621 -1.91066 0
M  V30 3344 C 435.953 -7.02416 -1.9168 0
M  V30 3345 H 435.985 -6.6888 -2.96621 0
M  V30 3346 H 437.168 -6.53617 -0.192223 0
M  V30 3347 H 438.652 -8.36622 -0.589963 0
M  V30 3348 H 436.958 -10.0291 -1.79807 0
M  V30 3349 H 436.768 -10.2138 0.558219 0
M  V30 3350 H 435.138 -9.6579 0.0444202 0
M  V30 3351 H 437.777 -5.69556 -2.79637 0
M  V30 3352 P 439.635 -8.4349 -2.47671 0
M  V30 3353 O 441.057 -8.92593 -2.65 0
M  V30 3354 O 439.275 -7.7568 -1.19296 0
M  V30 3355 O 439.312 -7.36886 -3.63805 0
M  V30 3356 C 439.152 -7.95349 -4.982 0
M  V30 3357 C 439.692 -6.94612 -5.98974 0
M  V30 3358 O 438.636 -6.10347 -6.11815 0
M  V30 3359 C 440.91 -6.11426 -5.62335 0
M  V30 3360 O 441.648 -5.6162 -6.70584 0
M  V30 3361 C 440.241 -5.04409 -4.73308 0
M  V30 3362 O 441.04 -3.85992 -4.75183 0
M  V30 3363 C 438.904 -4.8728 -5.41006 0
M  V30 3364 H 438.936 -4.02333 -6.11157 0
M  V30 3365 H 440.119 -5.39466 -3.69543 0
M  V30 3366 H 441.603 -6.71916 -5.01943 0
M  V30 3367 H 439.909 -7.4649 -6.93477 0
M  V30 3368 H 439.719 -8.89416 -5.05237 0
M  V30 3369 H 438.089 -8.14876 -5.18409 0
M  V30 3370 H 440.728 -3.27957 -5.4317 0
M  V30 3371 P 442.586 -5.75688 -6.64379 0
M  V30 3372 O 444.007 -6.07692 -7.0558 0
M  V30 3373 O 442.226 -5.88047 -5.19722 0
M  V30 3374 O 442.263 -4.2322 -7.04443 0
M  V30 3375 C 442.102 -3.99785 -8.49201 0
M  V30 3376 C 442.643 -2.60516 -8.79425 0
M  V30 3377 O 441.588 -1.82663 -8.44573 0
M  V30 3378 C 443.861 -2.10343 -8.03628 0
M  V30 3379 O 444.599 -1.09919 -8.67766 0
M  V30 3380 C 443.193 -1.68446 -6.70876 0
M  V30 3381 O 443.991 -0.684109 -6.08265 0
M  V30 3382 C 441.855 -1.17436 -7.18567 0
M  V30 3383 N 440.812 -1.52699 -6.23988 0
M  V30 3384 C 440.981 -2.578 -5.40574 0
M  V30 3385 N 439.954 -2.78966 -4.61193 0
M  V30 3386 C 439.069 -1.78725 -4.95769 0
M  V30 3387 C 437.802 -1.45727 -4.44207 0
M  V30 3388 N 437.203 -2.13994 -3.43613 0
M  V30 3389 N 437.237 -0.374977 -5.05812 0
M  V30 3390 C 437.839 0.345585 -6.05615 0
M  V30 3391 N 439.016 0.0787651 -6.56253 0
M  V30 3392 C 439.591 -1.00499 -5.96189 0
M  V30 3393 H 441.887 -0.0804622 -7.31556 0
M  V30 3394 H 443.07 -2.53396 -6.02698 0
M  V30 3395 H 444.553 -2.93881 -7.85526 0
M  V30 3396 H 442.859 -2.52078 -9.87225 0
M  V30 3397 H 442.669 -4.75072 -9.05887 0
M  V30 3398 H 441.039 -4.05244 -8.76668 0
M  V30 3399 H 437.303 1.20098 -6.4532 0
M  V30 3400 H 441.881 -3.18977 -5.3945 0
M  V30 3401 H 436.273 -1.84983 -3.10004 0
M  V30 3402 H 437.677 -2.9465 -3.00843 0
M  V30 3403 H 443.679 0.177619 -6.34151 0
M  V30 3404 P 445.536 -1.25109 -8.70152 0
M  V30 3405 O 446.958 -1.29744 -9.22016 0
M  V30 3406 O 445.176 -2.13714 -7.55141 0
M  V30 3407 O 445.213 0.248149 -8.21425 0
M  V30 3408 C 445.053 1.22779 -9.30434 0
M  V30 3409 C 445.593 2.56293 -8.80664 0
M  V30 3410 O 444.537 3.02979 -8.09349 0
M  V30 3411 C 446.811 2.57523 -7.89775 0
M  V30 3412 O 447.549 3.7668 -7.89438 0
M  V30 3413 C 446.142 2.20997 -6.55446 0
M  V30 3414 O 446.941 2.71895 -5.48509 0
M  V30 3415 C 444.805 2.89693 -6.67988 0
M  V30 3416 H 444.837 3.88793 -6.19859 0
M  V30 3417 H 446.02 1.12046 -6.44229 0
M  V30 3418 H 447.504 1.7746 -8.19711 0
M  V30 3419 H 445.81 3.20706 -9.67112 0
M  V30 3420 H 445.62 0.901032 -10.1892 0
M  V30 3421 H 443.99 1.33049 -9.56592 0
M  V30 3422 H 446.629 3.57847 -5.23962 0
M  V30 3423 P 448.487 3.65191 -7.99657 0
M  V30 3424 O 449.908 3.89374 -8.45885 0
M  V30 3425 O 448.127 2.28472 -7.50807 0
M  V30 3426 O 448.164 4.64972 -6.77611 0
M  V30 3427 C 448.003 6.06383 -7.16428 0
M  V30 3428 C 448.544 6.91731 -6.02299 0
M  V30 3429 O 447.489 6.92369 -5.17005 0
M  V30 3430 C 449.762 6.43627 -5.25174 0
M  V30 3431 O 450.5 7.43686 -4.60469 0
M  V30 3432 C 449.094 5.40275 -4.31916 0
M  V30 3433 O 449.892 5.24878 -3.14911 0
M  V30 3434 C 447.756 6.04847 -4.05327 0
M  V30 3435 N 446.713 5.04166 -3.98114 0
M  V30 3436 C 446.882 3.84629 -4.59066 0
M  V30 3437 N 445.855 3.0363 -4.45343 0
M  V30 3438 C 444.97 3.76722 -3.68523 0
M  V30 3439 C 443.703 3.43528 -3.17088 0
M  V30 3440 N 443.104 2.23665 -3.37397 0
M  V30 3441 N 443.138 4.44526 -2.44231 0
M  V30 3442 C 443.74 5.65243 -2.20146 0
M  V30 3443 N 444.917 6.00221 -2.65453 0
M  V30 3444 C 445.492 5.00564 -3.39083 0
M  V30 3445 H 447.788 6.62104 -3.11218 0
M  V30 3446 H 448.971 4.42969 -4.80867 0
M  V30 3447 H 450.454 5.92458 -5.93643 0
M  V30 3448 H 448.76 7.93295 -6.39407 0
M  V30 3449 H 448.57 6.26671 -8.0846 0
M  V30 3450 H 446.94 6.29101 -7.32804 0
M  V30 3451 H 443.204 6.36894 -1.5883 0
M  V30 3452 H 447.782 3.58193 -5.14248 0
M  V30 3453 H 442.174 2.05145 -2.97047 0
M  V30 3454 H 443.578 1.51255 -3.92998 0
M  V30 3455 H 449.58 5.84223 -2.47279 0
M  V30 3456 P 451.437 7.39546 -4.75277 0
M  V30 3457 O 452.858 7.84882 -5.01092 0
M  V30 3458 O 451.077 5.9812 -5.08098 0
M  V30 3459 O 451.114 7.57503 -3.1866 0
M  V30 3460 C 450.953 8.97452 -2.74862 0
M  V30 3461 C 451.494 9.07548 -1.32709 0
M  V30 3462 O 450.439 8.61972 -0.606089 0
M  V30 3463 C 452.712 8.25383 -0.938334 0
M  V30 3464 O 453.45 8.74577 0.146954 0
M  V30 3465 C 452.044 6.8802 -0.712559 0
M  V30 3466 O 452.842 6.1181 0.188505 0
M  V30 3467 C 450.706 7.27966 -0.139777 0
M  V30 3468 N 449.663 6.39368 -0.623421 0
M  V30 3469 C 449.832 5.71761 -1.78245 0
M  V30 3470 N 448.805 4.962 -2.10491 0
M  V30 3471 C 447.92 5.16158 -1.0635 0
M  V30 3472 C 446.653 4.60425 -0.810266 0
M  V30 3473 N 446.088 5.06 0.348685 0
M  V30 3474 C 446.69 5.94532 1.20395 0
M  V30 3475 N 447.867 6.48452 1.01191 0
M  V30 3476 C 448.442 6.04423 -0.146291 0
M  V30 3477 H 451.921 6.32625 -1.65044 0
M  V30 3478 H 453.404 8.19355 -1.79097 0
M  V30 3479 H 451.71 10.1305 -1.09016 0
M  V30 3480 H 451.52 9.64276 -3.41316 0
M  V30 3481 H 449.89 9.25417 -2.76357 0
M  V30 3482 H 450.732 5.79354 -2.38959 0
M  V30 3483 H 452.53 6.25169 1.0783 0
M  V30 3484 P 454.388 8.791 2.59334e-12 0
M  V30 3485 O 455.81 9.31096 0.027933 0
M  V30 3486 O 454.028 7.77869 -1.04071 0
M  V30 3487 O 454.065 8.09533 1.41463 0
M  V30 3488 C 453.905 9.0349 2.53943 0
M  V30 3489 C 454.445 8.35226 3.79016 0
M  V30 3490 O 453.389 7.57992 4.15078 0
M  V30 3491 C 455.663 7.45087 3.67298 0
M  V30 3492 O 456.401 7.27796 4.85194 0
M  V30 3493 C 454.994 6.17323 3.12027 0
M  V30 3494 O 455.793 5.04231 3.47188 0
M  V30 3495 C 453.657 6.19961 3.81809 0
M  V30 3496 H 453.689 5.58218 4.73051 0
M  V30 3497 H 454.872 6.21726 2.02589 0
M  V30 3498 H 456.356 7.86112 2.9231 0
M  V30 3499 H 454.662 9.11627 4.55076 0
M  V30 3500 H 454.472 9.9573 2.34194 0
M  V30 3501 H 452.842 9.2792 2.67832 0
M  V30 3502 H 455.481 4.67702 4.28772 0
M  V30 3503 P 457.338 7.39546 4.75277 0
M  V30 3504 O 458.76 7.81777 5.05738 0
M  V30 3505 O 456.978 7.1065 3.32998 0
M  V30 3506 O 457.015 6.04542 5.56673 0
M  V30 3507 C 456.855 6.22772 7.02095 0
M  V30 3508 C 457.395 4.97725 7.70406 0
M  V30 3509 O 456.339 4.13256 7.58987 0
M  V30 3510 C 458.613 4.28231 7.11815 0
M  V30 3511 O 459.351 3.49945 8.01648 0
M  V30 3512 C 457.944 3.5063 5.96244 0
M  V30 3513 O 458.743 2.36482 5.64681 0
M  V30 3514 C 456.607 3.15122 6.56374 0
M  V30 3515 H 456.639 2.13853 6.99751 0
M  V30 3516 H 457.822 4.13501 5.06559 0
M  V30 3517 H 459.306 5.03285 6.70911 0
M  V30 3518 H 457.612 5.20877 8.75697 0
M  V30 3519 H 457.422 7.11046 7.35349 0
M  V30 3520 H 455.792 6.35815 7.26986 0
M  V30 3521 H 458.431 1.61644 6.13565 0
M  V30 3522 P 460.289 3.65191 7.99657 0
M  V30 3523 O 461.711 3.8425 8.48115 0
M  V30 3524 O 459.929 4.17805 6.64342 0
M  V30 3525 O 459.966 2.07613 7.95143 0
M  V30 3526 C 459.806 1.44328 9.27336 0
M  V30 3527 C 460.346 0.0220036 9.17197 0
M  V30 3528 O 459.29 -0.626867 8.61923 0
M  V30 3529 C 461.564 -0.24586 8.30336 0
M  V30 3530 O 462.302 -1.39011 8.63583 0
M  V30 3531 C 460.895 -0.273849 6.91158 0
M  V30 3532 O 461.694 -1.06348 6.02892 0
M  V30 3533 C 459.558 -0.897649 7.22545 0
M  V30 3534 H 459.59 -1.9841 7.04286 0
M  V30 3535 H 460.773 0.739928 6.497 0
M  V30 3536 H 462.257 0.60668 8.36503 0
M  V30 3537 H 460.563 -0.352479 10.1829 0
M  V30 3538 H 460.373 2.00611 10.0304 0
M  V30 3539 H 458.743 1.41843 9.55327 0
M  V30 3540 H 461.382 -1.95734 6.03555 0
M  V30 3541 P 463.239 -1.25109 8.70152 0
M  V30 3542 O 464.661 -1.35303 9.21419 0
M  V30 3543 O 462.879 -0.0769065 7.84762 0
M  V30 3544 O 462.916 -2.55232 7.81161 0
M  V30 3545 C 462.756 -3.79939 8.58154 0
M  V30 3546 C 463.296 -4.93969 7.72701 0
M  V30 3547 O 462.241 -5.18726 6.91205 0
M  V30 3548 C 464.514 -4.69597 6.85231 0
M  V30 3549 O 465.252 -5.83832 6.51337 0
M  V30 3550 C 463.846 -3.96706 5.66633 0
M  V30 3551 O 464.644 -4.15346 4.49615 0
M  V30 3552 C 462.508 -4.66153 5.59313 0
M  V30 3553 N 461.465 -3.71582 5.24027 0
M  V30 3554 C 461.527 -2.46018 5.67902 0
M  V30 3555 N 460.482 -1.74868 5.24518 0
M  V30 3556 C 459.748 -2.61333 4.54528 0
M  V30 3557 C 458.442 -2.46162 3.95441 0
M  V30 3558 O 457.709 -1.46013 3.94122 0
M  V30 3559 N 458.012 -3.59334 3.34752 0
M  V30 3560 C 458.761 -4.79605 3.3023 0
M  V30 3561 N 458.164 -5.82109 2.6065 0
M  V30 3562 N 459.914 -4.97402 3.8843 0
M  V30 3563 C 460.371 -3.86258 4.50476 0
M  V30 3564 H 462.54 -5.47679 4.85214 0
M  V30 3565 H 463.723 -2.88964 5.86476 0
M  V30 3566 H 465.208 -4.01947 7.36109 0
M  V30 3567 H 463.513 -5.80182 8.37584 0
M  V30 3568 H 463.323 -3.73517 9.52265 0
M  V30 3569 H 461.692 -3.97163 8.80359 0
M  V30 3570 H 457.116 -3.5825 2.90294 0
M  V30 3571 H 462.323 -2.06161 6.30974 0
M  V30 3572 H 457.253 -5.66979 2.15354 0
M  V30 3573 H 458.629 -6.73686 2.54344 0
M  V30 3574 H 464.333 -4.90891 4.01857 0
M  V30 3575 P 466.19 -5.75688 6.64379 0
M  V30 3576 O 467.612 -6.11849 7.01846 0
M  V30 3577 O 465.83 -4.30744 6.56026 0
M  V30 3578 O 465.867 -6.37042 5.19165 0
M  V30 3579 C 465.707 -7.83578 5.16515 0
M  V30 3580 C 466.247 -8.33398 3.83019 0
M  V30 3581 O 465.191 -8.10074 3.01034 0
M  V30 3582 C 467.465 -7.65514 3.2257 0
M  V30 3583 O 468.203 -8.4329 2.32297 0
M  V30 3584 C 466.796 -6.40075 2.62207 0
M  V30 3585 O 467.595 -5.92589 1.53712 0
M  V30 3586 C 465.459 -6.9454 2.18503 0
M  V30 3587 H 465.491 -7.23063 1.12091 0
M  V30 3588 H 466.674 -5.6025 3.37201 0
M  V30 3589 H 468.158 -7.35707 4.02681 0
M  V30 3590 H 466.464 -9.40912 3.9095 0
M  V30 3591 H 466.274 -8.29056 5.99158 0
M  V30 3592 H 464.644 -8.10073 5.25882 0
M  V30 3593 H 467.283 -6.30324 0.726794 0
M  V30 3594 P 469.141 -8.4349 2.47671 0
M  V30 3595 O 470.563 -8.94167 2.5964 0
M  V30 3596 O 468.781 -7.1704 3.19006 0
M  V30 3597 O 468.818 -8.16596 0.923387 0
M  V30 3598 C 468.658 -9.38437 0.108857 0
M  V30 3599 C 469.198 -9.08175 -1.28353 0
M  V30 3600 O 468.142 -8.44229 -1.84713 0
M  V30 3601 C 470.416 -8.18386 -1.42505 0
M  V30 3602 O 471.154 -8.3501 -2.60497 0
M  V30 3603 C 469.747 -6.80225 -1.25468 0
M  V30 3604 O 470.546 -5.81621 -1.91066 0
M  V30 3605 C 468.41 -7.02416 -1.9168 0
M  V30 3606 H 468.442 -6.6888 -2.96621 0
M  V30 3607 H 469.625 -6.53617 -0.192223 0
M  V30 3608 H 471.109 -8.36622 -0.589963 0
M  V30 3609 H 469.415 -10.0291 -1.79807 0
M  V30 3610 H 469.225 -10.2138 0.558219 0
M  V30 3611 H 467.595 -9.6579 0.0444202 0
M  V30 3612 H 470.234 -5.69556 -2.79637 0
M  V30 3613 P 472.091 -8.4349 -2.47671 0
M  V30 3614 O 473.513 -8.92785 -2.65057 0
M  V30 3615 O 471.731 -7.7568 -1.19296 0
M  V30 3616 O 471.768 -7.36886 -3.63805 0
M  V30 3617 C 471.608 -7.95349 -4.982 0
M  V30 3618 C 472.148 -6.94537 -5.98908 0
M  V30 3619 O 471.093 -6.10347 -6.11815 0
M  V30 3620 C 473.366 -6.11426 -5.62335 0
M  V30 3621 O 474.104 -5.6162 -6.70584 0
M  V30 3622 C 472.698 -5.04409 -4.73308 0
M  V30 3623 O 473.496 -3.85929 -4.75106 0
M  V30 3624 C 471.36 -4.8728 -5.41006 0
M  V30 3625 N 470.317 -4.65812 -4.42377 0
M  V30 3626 C 470.379 -5.27109 -3.24335 0
M  V30 3627 N 469.334 -4.94293 -2.47735 0
M  V30 3628 C 468.6 -4.1271 -3.23359 0
M  V30 3629 C 467.294 -3.56384 -2.99934 0
M  V30 3630 O 466.561 -3.69331 -2.00616 0
M  V30 3631 N 466.864 -2.80206 -4.03316 0
M  V30 3632 C 467.613 -2.58614 -5.2172 0
M  V30 3633 N 467.016 -1.75154 -6.13278 0
M  V30 3634 N 468.766 -3.13689 -5.47619 0
M  V30 3635 C 469.223 -3.90921 -4.46436 0
M  V30 3636 H 471.392 -4.02333 -6.11157 0
M  V30 3637 H 472.575 -5.39383 -3.69487 0
M  V30 3638 H 474.06 -6.71414 -5.02615 0
M  V30 3639 H 472.365 -7.4649 -6.93477 0
M  V30 3640 H 472.175 -8.89416 -5.05237 0
M  V30 3641 H 470.544 -8.14876 -5.18409 0
M  V30 3642 H 465.968 -2.36355 -3.95916 0
M  V30 3643 H 471.175 -5.95212 -2.93859 0
M  V30 3644 H 466.105 -1.32473 -5.91856 0
M  V30 3645 H 467.481 -1.5588 -7.03026 0
M  V30 3646 H 473.185 -3.27906 -5.43085 0
M  V30 3647 P 475.042 -5.75688 -6.64379 0
M  V30 3648 O 476.464 -6.07627 -7.05504 0
M  V30 3649 O 474.682 -5.88047 -5.19722 0
M  V30 3650 O 474.719 -4.2322 -7.04443 0
M  V30 3651 C 474.559 -3.99743 -8.4911 0
M  V30 3652 C 475.099 -2.60516 -8.79425 0
M  V30 3653 O 474.043 -1.82684 -8.4467 0
M  V30 3654 C 476.317 -2.10343 -8.03628 0
M  V30 3655 O 477.055 -1.09919 -8.67766 0
M  V30 3656 C 475.648 -1.68446 -6.70876 0
M  V30 3657 O 476.447 -0.678137 -6.08433 0
M  V30 3658 C 474.311 -1.17436 -7.18567 0
M  V30 3659 H 474.343 -0.0804732 -7.31656 0
M  V30 3660 H 475.526 -2.54037 -6.02537 0
M  V30 3661 H 477.01 -2.93881 -7.85526 0
M  V30 3662 H 475.316 -2.53065 -9.86973 0
M  V30 3663 H 475.126 -4.75072 -9.05887 0
M  V30 3664 H 473.496 -4.05244 -8.76668 0
M  V30 3665 H 476.135 0.177647 -6.34251 0
M  V30 3666 P 477.992 -1.25109 -8.70152 0
M  V30 3667 O 479.414 -1.29744 -9.22016 0
M  V30 3668 O 477.632 -2.13714 -7.55141 0
M  V30 3669 O 477.669 0.248149 -8.21425 0
M  V30 3670 C 477.509 1.22779 -9.30434 0
M  V30 3671 C 478.049 2.56293 -8.80664 0
M  V30 3672 O 476.993 3.02979 -8.09349 0
M  V30 3673 C 479.267 2.57523 -7.89775 0
M  V30 3674 O 480.005 3.7668 -7.89438 0
M  V30 3675 C 478.598 2.20997 -6.55446 0
M  V30 3676 O 479.397 2.71895 -5.48509 0
M  V30 3677 C 477.261 2.89693 -6.67988 0
M  V30 3678 H 477.293 3.88793 -6.19859 0
M  V30 3679 H 478.476 1.12046 -6.44229 0
M  V30 3680 H 479.96 1.7746 -8.19711 0
M  V30 3681 H 478.266 3.20706 -9.67112 0
M  V30 3682 H 478.076 0.901032 -10.1892 0
M  V30 3683 H 476.446 1.33049 -9.56592 0
M  V30 3684 H 479.085 3.57847 -5.23962 0
M  V30 3685 P 480.943 3.65191 -7.99657 0
M  V30 3686 O 482.364 3.89374 -8.45885 0
M  V30 3687 O 480.583 2.28472 -7.50807 0
M  V30 3688 O 480.62 4.64972 -6.77611 0
M  V30 3689 C 480.459 6.06383 -7.16428 0
M  V30 3690 C 481 6.91731 -6.02299 0
M  V30 3691 O 479.945 6.92369 -5.17005 0
M  V30 3692 C 482.218 6.43627 -5.25174 0
M  V30 3693 O 482.956 7.43686 -4.60469 0
M  V30 3694 C 481.55 5.40275 -4.31916 0
M  V30 3695 O 482.348 5.24878 -3.14911 0
M  V30 3696 C 480.212 6.04847 -4.05327 0
M  V30 3697 N 479.169 5.04166 -3.98114 0
M  V30 3698 C 479.338 3.84629 -4.59066 0
M  V30 3699 N 478.311 3.0363 -4.45343 0
M  V30 3700 C 477.426 3.76722 -3.68523 0
M  V30 3701 C 476.159 3.43528 -3.17088 0
M  V30 3702 N 475.56 2.23665 -3.37397 0
M  V30 3703 N 475.594 4.44526 -2.44231 0
M  V30 3704 C 476.196 5.65243 -2.20146 0
M  V30 3705 N 477.373 6.00221 -2.65453 0
M  V30 3706 C 477.948 5.00564 -3.39083 0
M  V30 3707 H 480.244 6.62104 -3.11218 0
M  V30 3708 H 481.427 4.42969 -4.80867 0
M  V30 3709 H 482.91 5.92458 -5.93643 0
M  V30 3710 H 481.216 7.93295 -6.39407 0
M  V30 3711 H 481.026 6.26671 -8.0846 0
M  V30 3712 H 479.396 6.29101 -7.32804 0
M  V30 3713 H 475.66 6.36894 -1.5883 0
M  V30 3714 H 480.238 3.58193 -5.14248 0
M  V30 3715 H 474.63 2.05145 -2.97047 0
M  V30 3716 H 476.034 1.51255 -3.92998 0
M  V30 3717 H 482.036 5.84223 -2.47279 0
M  V30 3718 P 483.893 7.39546 -4.75277 0
M  V30 3719 O 485.315 7.84798 -5.01039 0
M  V30 3720 O 483.533 5.9812 -5.08098 0
M  V30 3721 O 483.57 7.57503 -3.1866 0
M  V30 3722 C 483.41 8.97357 -2.74833 0
M  V30 3723 C 483.95 9.07548 -1.32709 0
M  V30 3724 O 482.894 8.62072 -0.606159 0
M  V30 3725 C 485.168 8.25383 -0.938334 0
M  V30 3726 O 485.906 8.74577 0.146954 0
M  V30 3727 C 484.499 6.8802 -0.712559 0
M  V30 3728 O 485.298 6.1189 0.194655 0
M  V30 3729 C 483.162 7.27966 -0.139777 0
M  V30 3730 H 483.194 7.25354 0.961601 0
M  V30 3731 H 484.377 6.32557 -1.65702 0
M  V30 3732 H 485.861 8.19355 -1.79097 0
M  V30 3733 H 484.167 10.1294 -1.10029 0
M  V30 3734 H 483.977 9.64276 -3.41316 0
M  V30 3735 H 482.347 9.25417 -2.76357 0
M  V30 3736 H 484.986 6.25267 1.07847 0
M  V30 3737 P 486.844 8.791 2.9035e-12 0
M  V30 3738 O 488.265 9.31196 0.027936 0
M  V30 3739 O 486.484 7.77869 -1.04071 0
M  V30 3740 O 486.521 8.09533 1.41463 0
M  V30 3741 C 486.36 9.03587 2.5397 0
M  V30 3742 C 486.901 8.35226 3.79016 0
M  V30 3743 O 485.846 7.57904 4.1503 0
M  V30 3744 C 488.119 7.45087 3.67298 0
M  V30 3745 O 488.857 7.27796 4.85194 0
M  V30 3746 C 487.451 6.17323 3.12027 0
M  V30 3747 O 488.249 5.04496 3.46627 0
M  V30 3748 C 486.113 6.19961 3.81809 0
M  V30 3749 N 485.07 5.71575 2.93223 0
M  V30 3750 C 485.239 5.77362 1.59168 0
M  V30 3751 N 484.212 5.3123 0.911893 0
M  V30 3752 C 483.327 4.91717 1.89588 0
M  V30 3753 C 482.06 4.3114 1.8076 0
M  V30 3754 N 481.461 3.99821 0.632928 0
M  V30 3755 N 481.495 4.06823 3.02898 0
M  V30 3756 C 482.097 4.35062 4.22711 0
M  V30 3757 N 483.274 4.90805 4.35707 0
M  V30 3758 C 483.849 5.16382 3.14469 0
M  V30 3759 H 486.145 5.58142 4.72986 0
M  V30 3760 H 487.328 6.21428 2.0318 0
M  V30 3761 H 488.811 7.86112 2.9231 0
M  V30 3762 H 487.117 9.11171 4.55987 0
M  V30 3763 H 486.927 9.9573 2.34194 0
M  V30 3764 H 485.297 9.2792 2.67832 0
M  V30 3765 H 481.561 4.09052 5.13359 0
M  V30 3766 H 486.139 6.16575 1.12198 0
M  V30 3767 H 480.531 3.55423 0.632085 0
M  V30 3768 H 481.935 4.20317 -0.256712 0
M  V30 3769 H 487.937 4.67628 4.28704 0
M  V30 3770 P 489.795 7.39546 4.75277 0
M  V30 3771 O 491.217 7.81777 5.05738 0
M  V30 3772 O 489.435 7.1065 3.32998 0
M  V30 3773 O 489.472 6.04542 5.56673 0
M  V30 3774 C 489.312 6.22772 7.02095 0
M  V30 3775 C 489.852 4.97725 7.70406 0
M  V30 3776 O 488.796 4.13256 7.58987 0
M  V30 3777 C 491.07 4.28231 7.11815 0
M  V30 3778 O 491.808 3.49945 8.01648 0
M  V30 3779 C 490.401 3.5063 5.96244 0
M  V30 3780 O 491.2 2.36482 5.64681 0
M  V30 3781 C 489.064 3.15122 6.56374 0
M  V30 3782 H 489.096 2.13853 6.99751 0
M  V30 3783 H 490.279 4.13501 5.06559 0
M  V30 3784 H 491.763 5.03285 6.70911 0
M  V30 3785 H 490.069 5.20877 8.75697 0
M  V30 3786 H 489.879 7.11046 7.35349 0
M  V30 3787 H 488.249 6.35815 7.26986 0
M  V30 3788 H 490.888 1.61644 6.13565 0
M  V30 3789 P 492.745 3.65191 7.99657 0
M  V30 3790 O 494.167 3.8425 8.48115 0
M  V30 3791 O 492.385 4.17805 6.64342 0
M  V30 3792 O 492.422 2.07613 7.95143 0
M  V30 3793 C 492.262 1.44328 9.27336 0
M  V30 3794 C 492.802 0.0220036 9.17197 0
M  V30 3795 O 491.746 -0.626867 8.61923 0
M  V30 3796 C 494.02 -0.24586 8.30336 0
M  V30 3797 O 494.758 -1.39011 8.63583 0
M  V30 3798 C 493.351 -0.273849 6.91158 0
M  V30 3799 O 494.15 -1.06348 6.02892 0
M  V30 3800 C 492.014 -0.897649 7.22545 0
M  V30 3801 H 492.046 -1.9841 7.04286 0
M  V30 3802 H 493.229 0.739928 6.497 0
M  V30 3803 H 494.713 0.60668 8.36503 0
M  V30 3804 H 493.019 -0.352479 10.1829 0
M  V30 3805 H 492.829 2.00611 10.0304 0
M  V30 3806 H 491.199 1.41843 9.55327 0
M  V30 3807 H 493.838 -1.95734 6.03555 0
M  V30 3808 P 495.696 -1.25109 8.70152 0
M  V30 3809 O 497.118 -1.35274 9.21221 0
M  V30 3810 O 495.336 -0.0769065 7.84762 0
M  V30 3811 O 495.373 -2.55232 7.81161 0
M  V30 3812 C 495.213 -3.79939 8.58154 0
M  V30 3813 C 495.753 -4.94023 7.72785 0
M  V30 3814 O 494.697 -5.18726 6.91205 0
M  V30 3815 C 496.971 -4.69597 6.85231 0
M  V30 3816 O 497.709 -5.83832 6.51337 0
M  V30 3817 C 496.302 -3.96706 5.66633 0
M  V30 3818 O 497.101 -4.15414 4.49689 0
M  V30 3819 C 494.965 -4.66153 5.59313 0
M  V30 3820 H 494.997 -5.47679 4.85214 0
M  V30 3821 H 496.18 -2.89008 5.86566 0
M  V30 3822 H 497.664 -4.0121 7.36511 0
M  V30 3823 H 495.97 -5.80182 8.37584 0
M  V30 3824 H 495.78 -3.73517 9.52265 0
M  V30 3825 H 494.15 -3.97163 8.80359 0
M  V30 3826 H 496.789 -4.90969 4.01921 0
M  V30 3827 P 498.646 -5.75688 6.64379 0
M  V30 3828 O 500.068 -6.11849 7.01846 0
M  V30 3829 O 498.286 -4.30744 6.56026 0
M  V30 3830 O 498.323 -6.37042 5.19165 0
M  V30 3831 C 498.163 -7.83578 5.16515 0
M  V30 3832 C 498.703 -8.33398 3.83019 0
M  V30 3833 O 497.647 -8.10074 3.01034 0
M  V30 3834 C 499.921 -7.65514 3.2257 0
M  V30 3835 O 500.659 -8.4329 2.32297 0
M  V30 3836 C 499.252 -6.40075 2.62207 0
M  V30 3837 O 500.051 -5.92589 1.53712 0
M  V30 3838 C 497.915 -6.9454 2.18503 0
M  V30 3839 H 497.947 -7.23063 1.12091 0
M  V30 3840 H 499.13 -5.6025 3.37201 0
M  V30 3841 H 500.614 -7.35707 4.02681 0
M  V30 3842 H 498.92 -9.40912 3.9095 0
M  V30 3843 H 498.73 -8.29056 5.99158 0
M  V30 3844 H 497.1 -8.10073 5.25882 0
M  V30 3845 H 499.739 -6.30324 0.726794 0
M  V30 3846 P 501.597 -8.4349 2.47671 0
M  V30 3847 O 503.019 -8.94167 2.5964 0
M  V30 3848 O 501.237 -7.1704 3.19006 0
M  V30 3849 O 501.274 -8.16596 0.923387 0
M  V30 3850 C 501.114 -9.38437 0.108857 0
M  V30 3851 C 501.654 -9.08175 -1.28353 0
M  V30 3852 O 500.598 -8.44229 -1.84713 0
M  V30 3853 C 502.872 -8.18386 -1.42505 0
M  V30 3854 O 503.61 -8.3501 -2.60497 0
M  V30 3855 C 502.203 -6.80225 -1.25468 0
M  V30 3856 O 503.002 -5.81621 -1.91066 0
M  V30 3857 C 500.866 -7.02416 -1.9168 0
M  V30 3858 H 500.898 -6.6888 -2.96621 0
M  V30 3859 H 502.081 -6.53617 -0.192223 0
M  V30 3860 H 503.565 -8.36622 -0.589963 0
M  V30 3861 H 501.871 -10.0291 -1.79807 0
M  V30 3862 H 501.681 -10.2138 0.558219 0
M  V30 3863 H 500.051 -9.6579 0.0444202 0
M  V30 3864 H 502.69 -5.69556 -2.79637 0
M  V30 3865 P 504.547 -8.4349 -2.47671 0
M  V30 3866 O 505.968 -8.92689 -2.65029 0
M  V30 3867 O 504.187 -7.7568 -1.19296 0
M  V30 3868 O 504.224 -7.36886 -3.63805 0
M  V30 3869 C 504.063 -7.95433 -4.98253 0
M  V30 3870 C 504.604 -6.94612 -5.98974 0
M  V30 3871 O 503.549 -6.10277 -6.11744 0
M  V30 3872 C 505.822 -6.11426 -5.62335 0
M  V30 3873 O 506.56 -5.6162 -6.70584 0
M  V30 3874 C 505.154 -5.04409 -4.73308 0
M  V30 3875 O 505.952 -3.86404 -4.74719 0
M  V30 3876 C 503.816 -4.8728 -5.41006 0
M  V30 3877 N 502.773 -4.65812 -4.42377 0
M  V30 3878 C 502.942 -5.09132 -3.15382 0
M  V30 3879 N 501.915 -4.84021 -2.3716 0
M  V30 3880 C 501.03 -4.18386 -3.20441 0
M  V30 3881 C 499.763 -3.6275 -2.94905 0
M  V30 3882 N 499.164 -3.65794 -1.73372 0
M  V30 3883 N 499.198 -3.05008 -4.05243 0
M  V30 3884 C 499.8 -2.98348 -5.28159 0
M  V30 3885 N 500.977 -3.48171 -5.56333 0
M  V30 3886 C 501.552 -4.06869 -4.47212 0
M  V30 3887 H 503.848 -4.02278 -6.11074 0
M  V30 3888 H 505.031 -5.39013 -3.70026 0
M  V30 3889 H 506.514 -6.71916 -5.01943 0
M  V30 3890 H 504.82 -7.45796 -6.94223 0
M  V30 3891 H 504.63 -8.89416 -5.05237 0
M  V30 3892 H 503 -8.14876 -5.18409 0
M  V30 3893 H 499.264 -2.47853 -6.07807 0
M  V30 3894 H 503.842 -5.59989 -2.81362 0
M  V30 3895 H 498.234 -3.23218 -1.60782 0
M  V30 3896 H 499.638 -4.10523 -0.937856 0
M  V30 3897 H 505.64 -3.27906 -5.43085 0
M  V30 3898 P 507.498 -5.75688 -6.64379 0
M  V30 3899 O 508.92 -6.07627 -7.05504 0
M  V30 3900 O 507.138 -5.88047 -5.19722 0
M  V30 3901 O 507.175 -4.2322 -7.04443 0
M  V30 3902 C 507.015 -3.99743 -8.4911 0
M  V30 3903 C 507.555 -2.60516 -8.79425 0
M  V30 3904 O 506.499 -1.82684 -8.4467 0
M  V30 3905 C 508.773 -2.10343 -8.03628 0
M  V30 3906 O 509.511 -1.09919 -8.67766 0
M  V30 3907 C 508.104 -1.68446 -6.70876 0
M  V30 3908 O 508.903 -0.678137 -6.08433 0
M  V30 3909 C 506.767 -1.17436 -7.18567 0
M  V30 3910 H 506.799 -0.0804732 -7.31656 0
M  V30 3911 H 507.982 -2.54037 -6.02537 0
M  V30 3912 H 509.466 -2.93881 -7.85526 0
M  V30 3913 H 507.772 -2.53065 -9.86973 0
M  V30 3914 H 507.582 -4.75072 -9.05887 0
M  V30 3915 H 505.952 -4.05244 -8.76668 0
M  V30 3916 H 508.591 0.177647 -6.34251 0
M  V30 3917 P 510.449 -1.25109 -8.70152 0
M  V30 3918 O 511.871 -1.29772 -9.22214 0
M  V30 3919 O 510.089 -2.13714 -7.55141 0
M  V30 3920 O 510.126 0.248149 -8.21425 0
M  V30 3921 C 509.966 1.22779 -9.30434 0
M  V30 3922 C 510.506 2.56265 -8.80568 0
M  V30 3923 O 509.451 3.02979 -8.09349 0
M  V30 3924 C 511.724 2.57523 -7.89775 0
M  V30 3925 O 512.462 3.7668 -7.89438 0
M  V30 3926 C 511.056 2.20997 -6.55446 0
M  V30 3927 O 511.854 2.71851 -5.48419 0
M  V30 3928 C 509.718 2.89693 -6.67988 0
M  V30 3929 N 508.675 2.08895 -6.07487 0
M  V30 3930 C 508.737 0.760559 -6.14209 0
M  V30 3931 N 507.692 0.200108 -5.52538 0
M  V30 3932 C 506.958 1.22692 -5.09742 0
M  V30 3933 C 505.652 1.24782 -4.48775 0
M  V30 3934 O 504.919 0.290617 -4.19294 0
M  V30 3935 N 505.222 2.50468 -4.22428 0
M  V30 3936 C 505.971 3.67142 -4.51974 0
M  V30 3937 N 505.374 4.85096 -4.14091 0
M  V30 3938 N 507.124 3.67821 -5.12831 0
M  V30 3939 C 507.581 2.43698 -5.4105 0
M  V30 3940 H 509.75 3.88793 -6.19859 0
M  V30 3941 H 510.933 1.12029 -6.4413 0
M  V30 3942 H 512.418 1.78279 -8.19533 0
M  V30 3943 H 510.723 3.20706 -9.67112 0
M  V30 3944 H 510.533 0.901032 -10.1892 0
M  V30 3945 H 508.902 1.33049 -9.56592 0
M  V30 3946 H 504.326 2.61953 -3.79465 0
M  V30 3947 H 509.533 0.200439 -6.63497 0
M  V30 3948 H 504.463 4.8334 -3.66367 0
M  V30 3949 H 505.839 5.7474 -4.33841 0
M  V30 3950 H 511.543 3.5779 -5.23879 0
M  V30 3951 P 513.399 3.65191 -7.99657 0
M  V30 3952 O 514.821 3.89332 -8.45794 0
M  V30 3953 O 513.039 2.28472 -7.50807 0
M  V30 3954 O 513.076 4.64972 -6.77611 0
M  V30 3955 C 512.916 6.06319 -7.16352 0
M  V30 3956 C 513.456 6.91731 -6.02299 0
M  V30 3957 O 512.4 6.92449 -5.17064 0
M  V30 3958 C 514.674 6.43627 -5.25174 0
M  V30 3959 O 515.412 7.43686 -4.60469 0
M  V30 3960 C 514.005 5.40275 -4.31916 0
M  V30 3961 O 514.804 5.25279 -3.14438 0
M  V30 3962 C 512.668 6.04847 -4.05327 0
M  V30 3963 H 512.7 6.62195 -3.11261 0
M  V30 3964 H 513.883 4.42556 -4.81383 0
M  V30 3965 H 515.367 5.92458 -5.93643 0
M  V30 3966 H 513.673 7.92655 -6.402 0
M  V30 3967 H 513.483 6.26671 -8.0846 0
M  V30 3968 H 511.853 6.29101 -7.32804 0
M  V30 3969 H 514.492 5.84315 -2.47318 0
M  V30 3970 P 516.35 7.39546 -4.75277 0
M  V30 3971 O 517.772 7.84798 -5.01039 0
M  V30 3972 O 515.99 5.9812 -5.08098 0
M  V30 3973 O 516.027 7.57503 -3.1866 0
M  V30 3974 C 515.867 8.97357 -2.74833 0
M  V30 3975 C 516.407 9.07548 -1.32709 0
M  V30 3976 O 515.351 8.62072 -0.606159 0
M  V30 3977 C 517.625 8.25383 -0.938334 0
M  V30 3978 O 518.363 8.74577 0.146954 0
M  V30 3979 C 516.956 6.8802 -0.712559 0
M  V30 3980 O 517.755 6.1189 0.194655 0
M  V30 3981 C 515.619 7.27966 -0.139777 0
M  V30 3982 H 515.651 7.25354 0.961601 0
M  V30 3983 H 516.834 6.32557 -1.65702 0
M  V30 3984 H 518.318 8.19355 -1.79097 0
M  V30 3985 H 516.624 10.1294 -1.10029 0
M  V30 3986 H 516.434 9.64276 -3.41316 0
M  V30 3987 H 514.804 9.25417 -2.76357 0
M  V30 3988 H 517.443 6.25267 1.07847 0
M  V30 3989 P 519.3 8.791 3.21367e-12 0
M  V30 3990 O 520.722 9.31096 0.027933 0
M  V30 3991 O 518.94 7.77869 -1.04071 0
M  V30 3992 O 518.977 8.09533 1.41463 0
M  V30 3993 C 518.817 9.0349 2.53943 0
M  V30 3994 C 519.357 8.35226 3.79016 0
M  V30 3995 O 518.301 7.57992 4.15078 0
M  V30 3996 C 520.575 7.45087 3.67298 0
M  V30 3997 O 521.313 7.27796 4.85194 0
M  V30 3998 C 519.906 6.17323 3.12027 0
M  V30 3999 O 520.705 5.04231 3.47188 0
M  V30 4000 C 518.569 6.19961 3.81809 0
M  V30 4001 H 518.601 5.58218 4.73051 0
M  V30 4002 H 519.784 6.21726 2.02589 0
M  V30 4003 H 521.268 7.86112 2.9231 0
M  V30 4004 H 519.574 9.11627 4.55076 0
M  V30 4005 H 519.384 9.9573 2.34194 0
M  V30 4006 H 517.754 9.2792 2.67832 0
M  V30 4007 H 520.393 4.67702 4.28772 0
M  V30 4008 P 522.251 7.39546 4.75277 0
M  V30 4009 O 523.652 7.89013 5.04841 0
M  V30 4010 O 521.873 7.16603 3.32298 0
M  V30 4011 O 521.928 6.04468 5.56605 0
M  V30 4012 C 521.768 6.22772 7.02095 0
M  V30 4013 C 522.308 4.97671 7.70322 0
M  V30 4014 O 521.252 4.13208 7.58899 0
M  V30 4015 C 523.525 4.28231 7.11815 0
M  V30 4016 O 524.264 3.49945 8.01648 0
M  V30 4017 C 522.858 3.5063 5.96244 0
M  V30 4018 O 523.656 2.36443 5.64589 0
M  V30 4019 C 521.52 3.15122 6.56374 0
M  V30 4020 N 520.477 3.22311 5.55692 0
M  V30 4021 C 519.442 2.32244 5.62437 0
M  V30 4022 O 519.481 1.43107 6.50341 0
M  V30 4023 N 518.43 2.40811 4.73368 0
M  V30 4024 C 518.478 3.344 3.77753 0
M  V30 4025 N 517.468 3.41475 2.91848 0
M  V30 4026 C 519.574 4.24712 3.66679 0
M  V30 4027 C 520.54 4.15625 4.58307 0
M  V30 4028 H 521.552 2.13823 6.99656 0
M  V30 4029 H 522.735 4.12931 5.06895 0
M  V30 4030 H 524.219 5.02674 6.71494 0
M  V30 4031 H 522.525 5.20001 8.76217 0
M  V30 4032 H 522.334 7.11046 7.35349 0
M  V30 4033 H 520.704 6.35749 7.26911 0
M  V30 4034 H 519.622 4.9828 2.86753 0
M  V30 4035 H 521.386 4.84464 4.54228 0
M  V30 4036 H 516.678 2.75785 2.99862 0
M  V30 4037 H 517.473 4.12304 2.17382 0
M  V30 4038 H 523.44 1.65592 6.23485 0
M  V30 4039 P 525.201 3.65191 7.99657 0
M  V30 4040 O 526.623 3.8425 8.48115 0
M  V30 4041 O 524.841 4.17805 6.64342 0
M  V30 4042 O 524.878 2.07613 7.95143 0
M  V30 4043 C 524.718 1.44328 9.27336 0
M  V30 4044 C 525.258 0.0220036 9.17197 0
M  V30 4045 O 524.202 -0.626867 8.61923 0
M  V30 4046 C 526.476 -0.24586 8.30336 0
M  V30 4047 O 527.214 -1.39011 8.63583 0
M  V30 4048 C 525.807 -0.273849 6.91158 0
M  V30 4049 O 526.606 -1.06348 6.02892 0
M  V30 4050 C 524.47 -0.897649 7.22545 0
M  V30 4051 H 524.502 -1.9841 7.04286 0
M  V30 4052 H 525.685 0.739928 6.497 0
M  V30 4053 H 527.169 0.60668 8.36503 0
M  V30 4054 H 525.475 -0.352479 10.1829 0
M  V30 4055 H 525.285 2.00611 10.0304 0
M  V30 4056 H 523.655 1.41843 9.55327 0
M  V30 4057 H 526.294 -1.95734 6.03555 0
M  V30 4058 P 528.152 -1.25109 8.70152 0
M  V30 4059 O 529.574 -1.35274 9.21221 0
M  V30 4060 O 527.792 -0.0769065 7.84762 0
M  V30 4061 O 527.829 -2.55232 7.81161 0
M  V30 4062 C 527.669 -3.79939 8.58154 0
M  V30 4063 C 528.209 -4.94023 7.72785 0
M  V30 4064 O 527.153 -5.18726 6.91205 0
M  V30 4065 C 529.427 -4.69597 6.85231 0
M  V30 4066 O 530.165 -5.83832 6.51337 0
M  V30 4067 C 528.758 -3.96706 5.66633 0
M  V30 4068 O 529.557 -4.15414 4.49689 0
M  V30 4069 C 527.421 -4.66153 5.59313 0
M  V30 4070 H 527.453 -5.47679 4.85214 0
M  V30 4071 H 528.636 -2.89008 5.86566 0
M  V30 4072 H 530.12 -4.0121 7.36511 0
M  V30 4073 H 528.426 -5.80182 8.37584 0
M  V30 4074 H 528.236 -3.73517 9.52265 0
M  V30 4075 H 526.606 -3.97163 8.80359 0
M  V30 4076 H 529.245 -4.90969 4.01921 0
M  V30 4077 P 531.103 -5.75688 6.64379 0
M  V30 4078 O 532.504 -6.11991 7.09136 0
M  V30 4079 O 530.725 -4.30899 6.62018 0
M  V30 4080 O 530.78 -6.36965 5.19102 0
M  V30 4081 C 530.62 -7.83578 5.16515 0
M  V30 4082 C 531.16 -8.33307 3.82977 0
M  V30 4083 O 530.104 -8.0998 3.00999 0
M  V30 4084 C 532.377 -7.65514 3.2257 0
M  V30 4085 O 533.116 -8.4329 2.32297 0
M  V30 4086 C 531.71 -6.40075 2.62207 0
M  V30 4087 O 532.508 -5.92492 1.53687 0
M  V30 4088 C 530.372 -6.9454 2.18503 0
M  V30 4089 N 529.329 -5.95905 2.39948 0
M  V30 4090 C 528.294 -5.89764 1.49837 0
M  V30 4091 O 528.333 -6.64088 0.490975 0
M  V30 4092 N 527.282 -5.02821 1.70992 0
M  V30 4093 C 527.33 -4.21498 2.77236 0
M  V30 4094 C 528.426 -4.23389 3.68205 0
M  V30 4095 C 529.392 -5.12792 3.46171 0
M  V30 4096 H 530.404 -7.22964 1.12076 0
M  V30 4097 H 531.587 -5.60502 3.36589 0
M  V30 4098 H 533.071 -7.36197 4.01993 0
M  V30 4099 H 531.377 -9.41302 3.90009 0
M  V30 4100 H 531.186 -8.29056 5.99158 0
M  V30 4101 H 529.556 -8.09989 5.25828 0
M  V30 4102 H 528.474 -3.54747 4.52399 0
M  V30 4103 H 530.238 -5.18551 4.1489 0
M  V30 4104 H 532.292 -6.40705 0.751752 0
M  V30 4105 P 534.053 -8.4349 2.47671 0
M  V30 4106 O 535.475 -8.94167 2.5964 0
M  V30 4107 O 533.693 -7.1704 3.19006 0
M  V30 4108 O 533.73 -8.16596 0.923387 0
M  V30 4109 C 533.57 -9.38437 0.108857 0
M  V30 4110 C 534.11 -9.08175 -1.28353 0
M  V30 4111 O 533.054 -8.44229 -1.84713 0
M  V30 4112 C 535.328 -8.18386 -1.42505 0
M  V30 4113 O 536.066 -8.3501 -2.60497 0
M  V30 4114 C 534.659 -6.80225 -1.25468 0
M  V30 4115 O 535.458 -5.81621 -1.91066 0
M  V30 4116 C 533.322 -7.02416 -1.9168 0
M  V30 4117 H 533.354 -6.6888 -2.96621 0
M  V30 4118 H 534.537 -6.53617 -0.192223 0
M  V30 4119 H 536.021 -8.36622 -0.589963 0
M  V30 4120 H 534.327 -10.0291 -1.79807 0
M  V30 4121 H 534.137 -10.2138 0.558219 0
M  V30 4122 H 532.507 -9.6579 0.0444202 0
M  V30 4123 H 535.146 -5.69556 -2.79637 0
M  V30 4124 P 537.004 -8.4349 -2.47671 0
M  V30 4125 O 538.425 -8.92689 -2.65029 0
M  V30 4126 O 536.644 -7.7568 -1.19296 0
M  V30 4127 O 536.681 -7.36886 -3.63805 0
M  V30 4128 C 536.52 -7.95433 -4.98253 0
M  V30 4129 C 537.061 -6.94612 -5.98974 0
M  V30 4130 O 536.006 -6.10277 -6.11744 0
M  V30 4131 C 538.279 -6.11426 -5.62335 0
M  V30 4132 O 539.017 -5.6162 -6.70584 0
M  V30 4133 C 537.611 -5.04409 -4.73308 0
M  V30 4134 O 538.409 -3.86404 -4.74719 0
M  V30 4135 C 536.273 -4.8728 -5.41006 0
M  V30 4136 N 535.23 -4.65812 -4.42377 0
M  V30 4137 C 535.399 -5.09132 -3.15382 0
M  V30 4138 N 534.372 -4.84021 -2.3716 0
M  V30 4139 C 533.487 -4.18386 -3.20441 0
M  V30 4140 C 532.22 -3.6275 -2.94905 0
M  V30 4141 N 531.655 -3.05008 -4.05243 0
M  V30 4142 C 532.257 -2.98348 -5.28159 0
M  V30 4143 N 533.434 -3.48171 -5.56333 0
M  V30 4144 C 534.009 -4.06869 -4.47212 0
M  V30 4145 H 537.488 -5.39013 -3.70026 0
M  V30 4146 H 538.971 -6.71916 -5.01943 0
M  V30 4147 H 537.277 -7.45796 -6.94223 0
M  V30 4148 H 537.087 -8.89416 -5.05237 0
M  V30 4149 H 535.457 -8.14876 -5.18409 0
M  V30 4150 H 536.299 -5.59989 -2.81362 0
M  V30 4151 H 538.097 -3.27906 -5.43085 0
M  V30 4152 P 539.954 -5.75688 -6.64379 0
M  V30 4153 O 541.376 -6.07627 -7.05504 0
M  V30 4154 O 539.594 -5.88047 -5.19722 0
M  V30 4155 O 539.631 -4.2322 -7.04443 0
M  V30 4156 C 539.471 -3.99743 -8.4911 0
M  V30 4157 C 540.011 -2.60516 -8.79425 0
M  V30 4158 O 538.955 -1.82684 -8.4467 0
M  V30 4159 C 541.229 -2.10343 -8.03628 0
M  V30 4160 O 541.967 -1.09919 -8.67766 0
M  V30 4161 C 540.56 -1.68446 -6.70876 0
M  V30 4162 O 541.359 -0.678137 -6.08433 0
M  V30 4163 C 539.223 -1.17436 -7.18567 0
M  V30 4164 H 539.255 -0.0804732 -7.31656 0
M  V30 4165 H 540.438 -2.54037 -6.02537 0
M  V30 4166 H 541.922 -2.93881 -7.85526 0
M  V30 4167 H 540.228 -2.53065 -9.86973 0
M  V30 4168 H 540.038 -4.75072 -9.05887 0
M  V30 4169 H 538.408 -4.05244 -8.76668 0
M  V30 4170 H 541.047 0.177647 -6.34251 0
M  V30 4171 P 542.905 -1.25109 -8.70152 0
M  V30 4172 O 544.327 -1.29744 -9.22016 0
M  V30 4173 O 542.545 -2.13714 -7.55141 0
M  V30 4174 O 542.582 0.248149 -8.21425 0
M  V30 4175 C 542.422 1.22779 -9.30434 0
M  V30 4176 C 542.962 2.56293 -8.80664 0
M  V30 4177 O 541.906 3.02979 -8.09349 0
M  V30 4178 C 544.18 2.57523 -7.89775 0
M  V30 4179 O 544.918 3.7668 -7.89438 0
M  V30 4180 C 543.511 2.20997 -6.55446 0
M  V30 4181 O 544.31 2.71895 -5.48509 0
M  V30 4182 C 542.174 2.89693 -6.67988 0
M  V30 4183 H 542.206 3.88793 -6.19859 0
M  V30 4184 H 543.389 1.12046 -6.44229 0
M  V30 4185 H 544.873 1.7746 -8.19711 0
M  V30 4186 H 543.179 3.20706 -9.67112 0
M  V30 4187 H 542.989 0.901032 -10.1892 0
M  V30 4188 H 541.359 1.33049 -9.56592 0
M  V30 4189 H 543.998 3.57847 -5.23962 0
M  V30 4190 P 545.855 3.65191 -7.99657 0
M  V30 4191 O 547.277 3.89332 -8.45794 0
M  V30 4192 O 545.495 2.28472 -7.50807 0
M  V30 4193 O 545.532 4.64972 -6.77611 0
M  V30 4194 C 545.372 6.06319 -7.16352 0
M  V30 4195 C 545.912 6.91731 -6.02299 0
M  V30 4196 O 544.856 6.92449 -5.17064 0
M  V30 4197 C 547.13 6.43627 -5.25174 0
M  V30 4198 O 547.868 7.43686 -4.60469 0
M  V30 4199 C 546.461 5.40275 -4.31916 0
M  V30 4200 O 547.26 5.25279 -3.14438 0
M  V30 4201 C 545.124 6.04847 -4.05327 0
M  V30 4202 H 545.156 6.62195 -3.11261 0
M  V30 4203 H 546.339 4.42556 -4.81383 0
M  V30 4204 H 547.823 5.92458 -5.93643 0
M  V30 4205 H 546.129 7.92655 -6.402 0
M  V30 4206 H 545.939 6.26671 -8.0846 0
M  V30 4207 H 544.309 6.29101 -7.32804 0
M  V30 4208 H 546.948 5.84315 -2.47318 0
M  V30 4209 P 548.806 7.39546 -4.75277 0
M  V30 4210 O 550.228 7.84798 -5.01039 0
M  V30 4211 O 548.446 5.9812 -5.08098 0
M  V30 4212 O 548.483 7.57503 -3.1866 0
M  V30 4213 C 548.323 8.97357 -2.74833 0
M  V30 4214 C 548.863 9.07548 -1.32709 0
M  V30 4215 O 547.807 8.62072 -0.606159 0
M  V30 4216 C 550.081 8.25383 -0.938334 0
M  V30 4217 O 550.819 8.74577 0.146954 0
M  V30 4218 C 549.412 6.8802 -0.712559 0
M  V30 4219 O 550.211 6.1189 0.194655 0
M  V30 4220 C 548.075 7.27966 -0.139777 0
M  V30 4221 H 548.107 7.25354 0.961601 0
M  V30 4222 H 549.29 6.32557 -1.65702 0
M  V30 4223 H 550.774 8.19355 -1.79097 0
M  V30 4224 H 549.08 10.1294 -1.10029 0
M  V30 4225 H 548.89 9.64276 -3.41316 0
M  V30 4226 H 547.26 9.25417 -2.76357 0
M  V30 4227 H 549.899 6.25267 1.07847 0
M  V30 4228 P 551.757 8.791 3.52383e-12 0
M  V30 4229 O 553.179 9.31096 0.027933 0
M  V30 4230 O 551.397 7.77869 -1.04071 0
M  V30 4231 O 551.434 8.09533 1.41463 0
M  V30 4232 C 551.274 9.0349 2.53943 0
M  V30 4233 C 551.814 8.35226 3.79016 0
M  V30 4234 O 550.758 7.57992 4.15078 0
M  V30 4235 C 553.032 7.45087 3.67298 0
M  V30 4236 O 553.77 7.27796 4.85194 0
M  V30 4237 C 552.363 6.17323 3.12027 0
M  V30 4238 O 553.162 5.04231 3.47188 0
M  V30 4239 C 551.026 6.19961 3.81809 0
M  V30 4240 H 551.058 5.58218 4.73051 0
M  V30 4241 H 552.241 6.21726 2.02589 0
M  V30 4242 H 553.725 7.86112 2.9231 0
M  V30 4243 H 552.031 9.11627 4.55076 0
M  V30 4244 H 551.841 9.9573 2.34194 0
M  V30 4245 H 550.211 9.2792 2.67832 0
M  V30 4246 H 552.85 4.67702 4.28772 0
M  V30 4247 P 554.707 7.39546 4.75277 0
M  V30 4248 O 556.129 7.81945 5.05847 0
M  V30 4249 O 554.347 7.1065 3.32998 0
M  V30 4250 O 554.384 6.04542 5.56673 0
M  V30 4251 C 554.224 6.22772 7.02095 0
M  V30 4252 C 554.764 4.97671 7.70322 0
M  V30 4253 O 553.709 4.13256 7.58987 0
M  V30 4254 C 555.982 4.28231 7.11815 0
M  V30 4255 O 556.72 3.49945 8.01648 0
M  V30 4256 C 555.314 3.5063 5.96244 0
M  V30 4257 O 556.112 2.36443 5.64589 0
M  V30 4258 C 553.976 3.15122 6.56374 0
M  V30 4259 N 552.933 3.22311 5.55692 0
M  V30 4260 C 552.995 4.14382 4.59701 0
M  V30 4261 N 551.95 4.04476 3.76958 0
M  V30 4262 C 551.216 3.04892 4.26534 0
M  V30 4263 C 549.91 2.57447 3.88189 0
M  V30 4264 O 549.177 2.9785 2.96543 0
M  V30 4265 N 549.48 1.55228 4.65922 0
M  V30 4266 C 550.229 1.01152 5.73447 0
M  V30 4267 N 549.632 -0.0472117 6.37783 0
M  V30 4268 N 551.382 1.467 6.13813 0
M  V30 4269 C 551.839 2.4931 5.38487 0
M  V30 4270 H 554.008 2.13853 6.99751 0
M  V30 4271 H 555.191 4.13438 5.06482 0
M  V30 4272 H 556.676 5.02614 6.71414 0
M  V30 4273 H 554.981 5.20877 8.75697 0
M  V30 4274 H 554.791 7.11046 7.35349 0
M  V30 4275 H 553.16 6.35815 7.26986 0
M  V30 4276 H 548.584 1.15238 4.46468 0
M  V30 4277 H 553.791 4.88312 4.49647 0
M  V30 4278 H 548.721 -0.396382 6.05203 0
M  V30 4279 H 550.097 -0.484997 7.18465 0
M  V30 4280 H 555.801 1.61619 6.13468 0
M  V30 4281 P 557.658 3.65191 7.99657 0
M  V30 4282 O 559.08 3.8425 8.48115 0
M  V30 4283 O 557.298 4.17805 6.64342 0
M  V30 4284 O 557.335 2.07613 7.95143 0
M  V30 4285 C 557.175 1.44328 9.27336 0
M  V30 4286 C 557.715 0.0220036 9.17197 0
M  V30 4287 O 556.659 -0.626867 8.61923 0
M  V30 4288 C 558.933 -0.24586 8.30336 0
M  V30 4289 O 559.671 -1.39011 8.63583 0
M  V30 4290 C 558.264 -0.273849 6.91158 0
M  V30 4291 O 559.063 -1.06348 6.02892 0
M  V30 4292 C 556.927 -0.897649 7.22545 0
M  V30 4293 H 556.959 -1.9841 7.04286 0
M  V30 4294 H 558.142 0.739928 6.497 0
M  V30 4295 H 559.626 0.60668 8.36503 0
M  V30 4296 H 557.932 -0.352479 10.1829 0
M  V30 4297 H 557.742 2.00611 10.0304 0
M  V30 4298 H 556.112 1.41843 9.55327 0
M  V30 4299 H 558.751 -1.95734 6.03555 0
M  V30 4300 P 560.608 -1.25109 8.70152 0
M  V30 4301 O 562.03 -1.35274 9.21221 0
M  V30 4302 O 560.248 -0.0769065 7.84762 0
M  V30 4303 O 560.285 -2.55232 7.81161 0
M  V30 4304 C 560.125 -3.79939 8.58154 0
M  V30 4305 C 560.665 -4.94023 7.72785 0
M  V30 4306 O 559.609 -5.18726 6.91205 0
M  V30 4307 C 561.883 -4.69597 6.85231 0
M  V30 4308 O 562.621 -5.83832 6.51337 0
M  V30 4309 C 561.214 -3.96706 5.66633 0
M  V30 4310 O 562.013 -4.15414 4.49689 0
M  V30 4311 C 559.877 -4.66153 5.59313 0
M  V30 4312 H 559.909 -5.47679 4.85214 0
M  V30 4313 H 561.092 -2.89008 5.86566 0
M  V30 4314 H 562.576 -4.0121 7.36511 0
M  V30 4315 H 560.882 -5.80182 8.37584 0
M  V30 4316 H 560.692 -3.73517 9.52265 0
M  V30 4317 H 559.062 -3.97163 8.80359 0
M  V30 4318 H 561.701 -4.90969 4.01921 0
M  V30 4319 P 563.559 -5.75688 6.64379 0
M  V30 4320 O 564.981 -6.11849 7.01846 0
M  V30 4321 O 563.199 -4.30744 6.56026 0
M  V30 4322 O 563.236 -6.37042 5.19165 0
M  V30 4323 C 563.076 -7.83578 5.16515 0
M  V30 4324 C 563.616 -8.33398 3.83019 0
M  V30 4325 O 562.56 -8.10074 3.01034 0
M  V30 4326 C 564.834 -7.65514 3.2257 0
M  V30 4327 O 565.572 -8.4329 2.32297 0
M  V30 4328 C 564.165 -6.40075 2.62207 0
M  V30 4329 O 564.964 -5.92589 1.53712 0
M  V30 4330 C 562.828 -6.9454 2.18503 0
M  V30 4331 H 562.86 -7.23063 1.12091 0
M  V30 4332 H 564.043 -5.6025 3.37201 0
M  V30 4333 H 565.527 -7.35707 4.02681 0
M  V30 4334 H 563.833 -9.40912 3.9095 0
M  V30 4335 H 563.643 -8.29056 5.99158 0
M  V30 4336 H 562.013 -8.10073 5.25882 0
M  V30 4337 H 564.652 -6.30324 0.726794 0
M  V30 4338 P 566.509 -8.4349 2.47671 0
M  V30 4339 O 567.931 -8.94167 2.5964 0
M  V30 4340 O 566.149 -7.1704 3.19006 0
M  V30 4341 O 566.186 -8.16596 0.923387 0
M  V30 4342 C 566.026 -9.38437 0.108857 0
M  V30 4343 C 566.566 -9.08175 -1.28353 0
M  V30 4344 O 565.51 -8.44229 -1.84713 0
M  V30 4345 C 567.784 -8.18386 -1.42505 0
M  V30 4346 O 568.522 -8.3501 -2.60497 0
M  V30 4347 C 567.115 -6.80225 -1.25468 0
M  V30 4348 O 567.914 -5.81621 -1.91066 0
M  V30 4349 C 565.778 -7.02416 -1.9168 0
M  V30 4350 H 565.81 -6.6888 -2.96621 0
M  V30 4351 H 566.993 -6.53617 -0.192223 0
M  V30 4352 H 568.477 -8.36622 -0.589963 0
M  V30 4353 H 566.783 -10.0291 -1.79807 0
M  V30 4354 H 566.593 -10.2138 0.558219 0
M  V30 4355 H 564.963 -9.6579 0.0444202 0
M  V30 4356 H 567.602 -5.69556 -2.79637 0
M  V30 4357 P 569.46 -8.4349 -2.47671 0
M  V30 4358 O 570.882 -8.92593 -2.65 0
M  V30 4359 O 569.1 -7.7568 -1.19296 0
M  V30 4360 O 569.137 -7.36886 -3.63805 0
M  V30 4361 C 568.977 -7.95349 -4.982 0
M  V30 4362 C 569.517 -6.94612 -5.98974 0
M  V30 4363 O 568.461 -6.10347 -6.11815 0
M  V30 4364 C 570.735 -6.11426 -5.62335 0
M  V30 4365 O 571.473 -5.6162 -6.70584 0
M  V30 4366 C 570.066 -5.04409 -4.73308 0
M  V30 4367 O 570.865 -3.85992 -4.75183 0
M  V30 4368 C 568.729 -4.8728 -5.41006 0
M  V30 4369 H 568.761 -4.02333 -6.11157 0
M  V30 4370 H 569.944 -5.39466 -3.69543 0
M  V30 4371 H 571.428 -6.71916 -5.01943 0
M  V30 4372 H 569.734 -7.4649 -6.93477 0
M  V30 4373 H 569.544 -8.89416 -5.05237 0
M  V30 4374 H 567.914 -8.14876 -5.18409 0
M  V30 4375 H 570.553 -3.27957 -5.4317 0
M  V30 4376 P 572.411 -5.75688 -6.64379 0
M  V30 4377 O 573.833 -6.07627 -7.05504 0
M  V30 4378 O 572.051 -5.88047 -5.19722 0
M  V30 4379 O 572.088 -4.2322 -7.04443 0
M  V30 4380 C 571.928 -3.99743 -8.4911 0
M  V30 4381 C 572.468 -2.60516 -8.79425 0
M  V30 4382 O 571.412 -1.82684 -8.4467 0
M  V30 4383 C 573.686 -2.10343 -8.03628 0
M  V30 4384 O 574.424 -1.09919 -8.67766 0
M  V30 4385 C 573.017 -1.68446 -6.70876 0
M  V30 4386 O 573.816 -0.678137 -6.08433 0
M  V30 4387 C 571.68 -1.17436 -7.18567 0
M  V30 4388 H 571.712 -0.0804732 -7.31656 0
M  V30 4389 H 572.895 -2.54037 -6.02537 0
M  V30 4390 H 574.379 -2.93881 -7.85526 0
M  V30 4391 H 572.685 -2.53065 -9.86973 0
M  V30 4392 H 572.495 -4.75072 -9.05887 0
M  V30 4393 H 570.865 -4.05244 -8.76668 0
M  V30 4394 H 573.504 0.177647 -6.34251 0
M  V30 4395 P 575.361 -1.25109 -8.70152 0
M  V30 4396 O 576.783 -1.29744 -9.22016 0
M  V30 4397 O 575.001 -2.13714 -7.55141 0
M  V30 4398 O 575.038 0.248149 -8.21425 0
M  V30 4399 C 574.878 1.22779 -9.30434 0
M  V30 4400 C 575.418 2.56293 -8.80664 0
M  V30 4401 O 574.362 3.02979 -8.09349 0
M  V30 4402 C 576.636 2.57523 -7.89775 0
M  V30 4403 O 577.374 3.7668 -7.89438 0
M  V30 4404 C 575.967 2.20997 -6.55446 0
M  V30 4405 O 576.766 2.71895 -5.48509 0
M  V30 4406 C 574.63 2.89693 -6.67988 0
M  V30 4407 H 574.662 3.88793 -6.19859 0
M  V30 4408 H 575.845 1.12046 -6.44229 0
M  V30 4409 H 577.329 1.7746 -8.19711 0
M  V30 4410 H 575.635 3.20706 -9.67112 0
M  V30 4411 H 575.445 0.901032 -10.1892 0
M  V30 4412 H 573.815 1.33049 -9.56592 0
M  V30 4413 H 576.454 3.57847 -5.23962 0
M  V30 4414 P 578.312 3.65191 -7.99657 0
M  V30 4415 O 579.734 3.89332 -8.45794 0
M  V30 4416 O 577.952 2.28472 -7.50807 0
M  V30 4417 O 577.989 4.64972 -6.77611 0
M  V30 4418 C 577.829 6.06319 -7.16352 0
M  V30 4419 C 578.369 6.91731 -6.02299 0
M  V30 4420 O 577.313 6.92449 -5.17064 0
M  V30 4421 C 579.587 6.43627 -5.25174 0
M  V30 4422 O 580.325 7.43686 -4.60469 0
M  V30 4423 C 578.918 5.40275 -4.31916 0
M  V30 4424 O 579.717 5.25279 -3.14438 0
M  V30 4425 C 577.581 6.04847 -4.05327 0
M  V30 4426 H 577.613 6.62195 -3.11261 0
M  V30 4427 H 578.796 4.42556 -4.81383 0
M  V30 4428 H 580.28 5.92458 -5.93643 0
M  V30 4429 H 578.586 7.92655 -6.402 0
M  V30 4430 H 578.396 6.26671 -8.0846 0
M  V30 4431 H 576.766 6.29101 -7.32804 0
M  V30 4432 H 579.405 5.84315 -2.47318 0
M  V30 4433 P 581.262 7.39546 -4.75277 0
M  V30 4434 O 582.684 7.84798 -5.01039 0
M  V30 4435 O 580.902 5.9812 -5.08098 0
M  V30 4436 O 580.939 7.57503 -3.1866 0
M  V30 4437 C 580.779 8.97357 -2.74833 0
M  V30 4438 C 581.319 9.07548 -1.32709 0
M  V30 4439 O 580.263 8.62072 -0.606159 0
M  V30 4440 C 582.537 8.25383 -0.938334 0
M  V30 4441 O 583.275 8.74577 0.146954 0
M  V30 4442 C 581.868 6.8802 -0.712559 0
M  V30 4443 O 582.667 6.1189 0.194655 0
M  V30 4444 C 580.531 7.27966 -0.139777 0
M  V30 4445 H 580.563 7.25354 0.961601 0
M  V30 4446 H 581.746 6.32557 -1.65702 0
M  V30 4447 H 583.23 8.19355 -1.79097 0
M  V30 4448 H 581.536 10.1294 -1.10029 0
M  V30 4449 H 581.346 9.64276 -3.41316 0
M  V30 4450 H 579.716 9.25417 -2.76357 0
M  V30 4451 H 582.355 6.25267 1.07847 0
M  V30 4452 P 584.213 8.791 3.834e-12 0
M  V30 4453 O 585.635 9.31296 0.027939 0
M  V30 4454 O 583.853 7.77869 -1.04071 0
M  V30 4455 O 583.89 8.09533 1.41463 0
M  V30 4456 C 583.73 9.0349 2.53943 0
M  V30 4457 C 584.27 8.35135 3.78975 0
M  V30 4458 O 583.215 7.57992 4.15078 0
M  V30 4459 C 585.488 7.45087 3.67298 0
M  V30 4460 O 586.226 7.27796 4.85194 0
M  V30 4461 C 584.82 6.17323 3.12027 0
M  V30 4462 O 585.618 5.04149 3.47132 0
M  V30 4463 C 583.482 6.19961 3.81809 0
M  V30 4464 N 582.439 5.71575 2.93223 0
M  V30 4465 C 582.501 5.97133 1.62693 0
M  V30 4466 N 581.456 5.44066 0.984414 0
M  V30 4467 C 580.722 4.87093 1.93987 0
M  V30 4468 C 579.416 4.26449 1.8738 0
M  V30 4469 O 578.683 4.1089 0.884377 0
M  V30 4470 N 578.986 3.82483 3.08036 0
M  V30 4471 C 579.735 3.95124 4.27727 0
M  V30 4472 N 579.138 3.4084 5.39089 0
M  V30 4473 N 580.888 4.55264 4.3706 0
M  V30 4474 C 581.345 5.00861 3.18217 0
M  V30 4475 H 583.514 5.58218 4.73051 0
M  V30 4476 H 584.697 6.21631 2.02558 0
M  V30 4477 H 586.182 7.85819 2.93096 0
M  V30 4478 H 584.487 9.11627 4.55076 0
M  V30 4479 H 584.297 9.9573 2.34194 0
M  V30 4480 H 582.666 9.2792 2.67832 0
M  V30 4481 H 578.09 3.38323 3.1329 0
M  V30 4482 H 583.297 6.53891 1.14265 0
M  V30 4483 H 578.227 2.93852 5.30559 0
M  V30 4484 H 579.603 3.47631 6.30632 0
M  V30 4485 H 585.307 4.67628 4.28704 0
M  V30 4486 P 587.163 7.39546 4.75277 0
M  V30 4487 O 588.585 7.81777 5.05738 0
M  V30 4488 O 586.803 7.1065 3.32998 0
M  V30 4489 O 586.84 6.04542 5.56673 0
M  V30 4490 C 586.68 6.22772 7.02095 0
M  V30 4491 C 587.22 4.97725 7.70406 0
M  V30 4492 O 586.164 4.13256 7.58987 0
M  V30 4493 C 588.438 4.28231 7.11815 0
M  V30 4494 O 589.176 3.49945 8.01648 0
M  V30 4495 C 587.769 3.5063 5.96244 0
M  V30 4496 O 588.568 2.36482 5.64681 0
M  V30 4497 C 586.432 3.15122 6.56374 0
M  V30 4498 H 586.464 2.13853 6.99751 0
M  V30 4499 H 587.647 4.13501 5.06559 0
M  V30 4500 H 589.131 5.03285 6.70911 0
M  V30 4501 H 587.437 5.20877 8.75697 0
M  V30 4502 H 587.247 7.11046 7.35349 0
M  V30 4503 H 585.617 6.35815 7.26986 0
M  V30 4504 H 588.256 1.61644 6.13565 0
M  V30 4505 P 590.114 3.65191 7.99657 0
M  V30 4506 O 591.536 3.8425 8.48115 0
M  V30 4507 O 589.754 4.17805 6.64342 0
M  V30 4508 O 589.791 2.07613 7.95143 0
M  V30 4509 C 589.631 1.44328 9.27336 0
M  V30 4510 C 590.171 0.0220036 9.17197 0
M  V30 4511 O 589.115 -0.626867 8.61923 0
M  V30 4512 C 591.389 -0.24586 8.30336 0
M  V30 4513 O 592.127 -1.39011 8.63583 0
M  V30 4514 C 590.72 -0.273849 6.91158 0
M  V30 4515 O 591.519 -1.06348 6.02892 0
M  V30 4516 C 589.383 -0.897649 7.22545 0
M  V30 4517 H 589.415 -1.9841 7.04286 0
M  V30 4518 H 590.598 0.739928 6.497 0
M  V30 4519 H 592.082 0.60668 8.36503 0
M  V30 4520 H 590.388 -0.352479 10.1829 0
M  V30 4521 H 590.198 2.00611 10.0304 0
M  V30 4522 H 588.568 1.41843 9.55327 0
M  V30 4523 H 591.207 -1.95734 6.03555 0
M  V30 4524 P 593.065 -1.25109 8.70152 0
M  V30 4525 O 594.487 -1.35274 9.21221 0
M  V30 4526 O 592.705 -0.0769065 7.84762 0
M  V30 4527 O 592.742 -2.55232 7.81161 0
M  V30 4528 C 592.582 -3.79939 8.58154 0
M  V30 4529 C 593.122 -4.94023 7.72785 0
M  V30 4530 O 592.066 -5.18726 6.91205 0
M  V30 4531 C 594.34 -4.69597 6.85231 0
M  V30 4532 O 595.078 -5.83832 6.51337 0
M  V30 4533 C 593.671 -3.96706 5.66633 0
M  V30 4534 O 594.47 -4.15414 4.49689 0
M  V30 4535 C 592.334 -4.66153 5.59313 0
M  V30 4536 H 592.366 -5.47679 4.85214 0
M  V30 4537 H 593.549 -2.89008 5.86566 0
M  V30 4538 H 595.033 -4.0121 7.36511 0
M  V30 4539 H 593.339 -5.80182 8.37584 0
M  V30 4540 H 593.149 -3.73517 9.52265 0
M  V30 4541 H 591.519 -3.97163 8.80359 0
M  V30 4542 H 594.158 -4.90969 4.01921 0
M  V30 4543 P 596.015 -5.75688 6.64379 0
M  V30 4544 O 597.437 -6.11849 7.01846 0
M  V30 4545 O 595.655 -4.30744 6.56026 0
M  V30 4546 O 595.692 -6.37042 5.19165 0
M  V30 4547 C 595.532 -7.83578 5.16515 0
M  V30 4548 C 596.072 -8.33398 3.83019 0
M  V30 4549 O 595.016 -8.10074 3.01034 0
M  V30 4550 C 597.29 -7.65514 3.2257 0
M  V30 4551 O 598.028 -8.4329 2.32297 0
M  V30 4552 C 596.621 -6.40075 2.62207 0
M  V30 4553 O 597.42 -5.92589 1.53712 0
M  V30 4554 C 595.284 -6.9454 2.18503 0
M  V30 4555 H 595.316 -7.23063 1.12091 0
M  V30 4556 H 596.499 -5.6025 3.37201 0
M  V30 4557 H 597.983 -7.35707 4.02681 0
M  V30 4558 H 596.289 -9.40912 3.9095 0
M  V30 4559 H 596.099 -8.29056 5.99158 0
M  V30 4560 H 594.469 -8.10073 5.25882 0
M  V30 4561 H 597.108 -6.30324 0.726794 0
M  V30 4562 P 598.966 -8.4349 2.47671 0
M  V30 4563 O 600.388 -8.94167 2.5964 0
M  V30 4564 O 598.606 -7.1704 3.19006 0
M  V30 4565 O 598.643 -8.16596 0.923387 0
M  V30 4566 C 598.483 -9.38437 0.108857 0
M  V30 4567 C 599.023 -9.08175 -1.28353 0
M  V30 4568 O 597.967 -8.44229 -1.84713 0
M  V30 4569 C 600.241 -8.18386 -1.42505 0
M  V30 4570 O 600.979 -8.3501 -2.60497 0
M  V30 4571 C 599.572 -6.80225 -1.25468 0
M  V30 4572 O 600.371 -5.81621 -1.91066 0
M  V30 4573 C 598.235 -7.02416 -1.9168 0
M  V30 4574 H 598.267 -6.6888 -2.96621 0
M  V30 4575 H 599.45 -6.53617 -0.192223 0
M  V30 4576 H 600.934 -8.36622 -0.589963 0
M  V30 4577 H 599.24 -10.0291 -1.79807 0
M  V30 4578 H 599.05 -10.2138 0.558219 0
M  V30 4579 H 597.42 -9.6579 0.0444202 0
M  V30 4580 H 600.059 -5.69556 -2.79637 0
M  V30 4581 P 601.916 -8.4349 -2.47671 0
M  V30 4582 O 603.337 -8.92689 -2.65029 0
M  V30 4583 O 601.556 -7.7568 -1.19296 0
M  V30 4584 O 601.593 -7.36886 -3.63805 0
M  V30 4585 C 601.432 -7.95433 -4.98253 0
M  V30 4586 C 601.973 -6.94612 -5.98974 0
M  V30 4587 O 600.918 -6.10277 -6.11744 0
M  V30 4588 C 603.191 -6.11426 -5.62335 0
M  V30 4589 O 603.929 -5.6162 -6.70584 0
M  V30 4590 C 602.523 -5.04409 -4.73308 0
M  V30 4591 O 603.321 -3.86404 -4.74719 0
M  V30 4592 C 601.185 -4.8728 -5.41006 0
M  V30 4593 N 600.142 -4.65812 -4.42377 0
M  V30 4594 C 600.311 -5.09132 -3.15382 0
M  V30 4595 N 599.284 -4.84021 -2.3716 0
M  V30 4596 C 598.399 -4.18386 -3.20441 0
M  V30 4597 C 597.132 -3.6275 -2.94905 0
M  V30 4598 N 596.567 -3.05008 -4.05243 0
M  V30 4599 C 597.169 -2.98348 -5.28159 0
M  V30 4600 N 598.346 -3.48171 -5.56333 0
M  V30 4601 C 598.921 -4.06869 -4.47212 0
M  V30 4602 H 602.4 -5.39013 -3.70026 0
M  V30 4603 H 603.883 -6.71916 -5.01943 0
M  V30 4604 H 602.189 -7.45796 -6.94223 0
M  V30 4605 H 601.999 -8.89416 -5.05237 0
M  V30 4606 H 600.369 -8.14876 -5.18409 0
M  V30 4607 H 601.211 -5.59989 -2.81362 0
M  V30 4608 H 603.009 -3.27906 -5.43085 0
M  V30 4609 P 604.867 -5.75688 -6.64379 0
M  V30 4610 O 606.289 -6.07627 -7.05504 0
M  V30 4611 O 604.507 -5.88047 -5.19722 0
M  V30 4612 O 604.544 -4.2322 -7.04443 0
M  V30 4613 C 604.384 -3.99743 -8.4911 0
M  V30 4614 C 604.924 -2.60516 -8.79425 0
M  V30 4615 O 603.868 -1.82684 -8.4467 0
M  V30 4616 C 606.142 -2.10343 -8.03628 0
M  V30 4617 O 606.88 -1.09919 -8.67766 0
M  V30 4618 C 605.473 -1.68446 -6.70876 0
M  V30 4619 O 606.272 -0.678137 -6.08433 0
M  V30 4620 C 604.136 -1.17436 -7.18567 0
M  V30 4621 H 604.168 -0.0804732 -7.31656 0
M  V30 4622 H 605.351 -2.54037 -6.02537 0
M  V30 4623 H 606.835 -2.93881 -7.85526 0
M  V30 4624 H 605.141 -2.53065 -9.86973 0
M  V30 4625 H 604.951 -4.75072 -9.05887 0
M  V30 4626 H 603.321 -4.05244 -8.76668 0
M  V30 4627 H 605.96 0.177647 -6.34251 0
M  V30 4628 P 607.817 -1.25109 -8.70152 0
M  V30 4629 O 609.239 -1.29744 -9.22016 0
M  V30 4630 O 607.457 -2.13714 -7.55141 0
M  V30 4631 O 607.494 0.248149 -8.21425 0
M  V30 4632 C 607.334 1.22779 -9.30434 0
M  V30 4633 C 607.874 2.56293 -8.80664 0
M  V30 4634 O 606.818 3.02979 -8.09349 0
M  V30 4635 C 609.092 2.57523 -7.89775 0
M  V30 4636 O 609.83 3.7668 -7.89438 0
M  V30 4637 C 608.423 2.20997 -6.55446 0
M  V30 4638 O 609.222 2.71895 -5.48509 0
M  V30 4639 C 607.086 2.89693 -6.67988 0
M  V30 4640 H 607.118 3.88793 -6.19859 0
M  V30 4641 H 608.301 1.12046 -6.44229 0
M  V30 4642 H 609.785 1.7746 -8.19711 0
M  V30 4643 H 608.091 3.20706 -9.67112 0
M  V30 4644 H 607.901 0.901032 -10.1892 0
M  V30 4645 H 606.271 1.33049 -9.56592 0
M  V30 4646 H 608.91 3.57847 -5.23962 0
M  V30 4647 P 610.768 3.65191 -7.99657 0
M  V30 4648 O 612.189 3.89374 -8.45885 0
M  V30 4649 O 610.408 2.28472 -7.50807 0
M  V30 4650 O 610.445 4.64972 -6.77611 0
M  V30 4651 C 610.284 6.06383 -7.16428 0
M  V30 4652 C 610.825 6.91731 -6.02299 0
M  V30 4653 O 609.77 6.92369 -5.17005 0
M  V30 4654 C 612.043 6.43627 -5.25174 0
M  V30 4655 O 612.781 7.43686 -4.60469 0
M  V30 4656 C 611.375 5.40275 -4.31916 0
M  V30 4657 O 612.173 5.24878 -3.14911 0
M  V30 4658 C 610.037 6.04847 -4.05327 0
M  V30 4659 N 608.994 5.04166 -3.98114 0
M  V30 4660 C 609.163 3.84629 -4.59066 0
M  V30 4661 N 608.136 3.0363 -4.45343 0
M  V30 4662 C 607.251 3.76722 -3.68523 0
M  V30 4663 C 605.984 3.43528 -3.17088 0
M  V30 4664 N 605.419 4.44526 -2.44231 0
M  V30 4665 C 606.021 5.65243 -2.20146 0
M  V30 4666 N 607.198 6.00221 -2.65453 0
M  V30 4667 C 607.773 5.00564 -3.39083 0
M  V30 4668 H 611.252 4.42969 -4.80867 0
M  V30 4669 H 612.735 5.92458 -5.93643 0
M  V30 4670 H 611.041 7.93295 -6.39407 0
M  V30 4671 H 610.851 6.26671 -8.0846 0
M  V30 4672 H 609.221 6.29101 -7.32804 0
M  V30 4673 H 610.063 3.58193 -5.14248 0
M  V30 4674 H 611.861 5.84223 -2.47279 0
M  V30 4675 P 613.719 7.39546 -4.75277 0
M  V30 4676 O 615.141 7.84798 -5.01039 0
M  V30 4677 O 613.359 5.9812 -5.08098 0
M  V30 4678 O 613.396 7.57503 -3.1866 0
M  V30 4679 C 613.236 8.97357 -2.74833 0
M  V30 4680 C 613.776 9.07548 -1.32709 0
M  V30 4681 O 612.72 8.62072 -0.606159 0
M  V30 4682 C 614.994 8.25383 -0.938334 0
M  V30 4683 O 615.732 8.74577 0.146954 0
M  V30 4684 C 614.325 6.8802 -0.712559 0
M  V30 4685 O 615.124 6.1189 0.194655 0
M  V30 4686 C 612.988 7.27966 -0.139777 0
M  V30 4687 H 613.02 7.25354 0.961601 0
M  V30 4688 H 614.203 6.32557 -1.65702 0
M  V30 4689 H 615.687 8.19355 -1.79097 0
M  V30 4690 H 613.993 10.1294 -1.10029 0
M  V30 4691 H 613.803 9.64276 -3.41316 0
M  V30 4692 H 612.173 9.25417 -2.76357 0
M  V30 4693 H 614.812 6.25267 1.07847 0
M  V30 4694 P 616.669 8.791 4.14417e-12 0
M  V30 4695 O 618.091 9.31096 0.027933 0
M  V30 4696 O 616.309 7.77869 -1.04071 0
M  V30 4697 O 616.346 8.09533 1.41463 0
M  V30 4698 C 616.186 9.0349 2.53943 0
M  V30 4699 C 616.726 8.35226 3.79016 0
M  V30 4700 O 615.67 7.57992 4.15078 0
M  V30 4701 C 617.944 7.45087 3.67298 0
M  V30 4702 O 618.682 7.27796 4.85194 0
M  V30 4703 C 617.275 6.17323 3.12027 0
M  V30 4704 O 618.074 5.04231 3.47188 0
M  V30 4705 C 615.938 6.19961 3.81809 0
M  V30 4706 H 615.97 5.58218 4.73051 0
M  V30 4707 H 617.153 6.21726 2.02589 0
M  V30 4708 H 618.637 7.86112 2.9231 0
M  V30 4709 H 616.943 9.11627 4.55076 0
M  V30 4710 H 616.753 9.9573 2.34194 0
M  V30 4711 H 615.123 9.2792 2.67832 0
M  V30 4712 H 617.762 4.67702 4.28772 0
M  V30 4713 P 619.62 7.39546 4.75277 0
M  V30 4714 O 621.042 7.81777 5.05738 0
M  V30 4715 O 619.26 7.1065 3.32998 0
M  V30 4716 O 619.297 6.04542 5.56673 0
M  V30 4717 C 619.137 6.22772 7.02095 0
M  V30 4718 C 619.677 4.97725 7.70406 0
M  V30 4719 O 618.621 4.13256 7.58987 0
M  V30 4720 C 620.895 4.28231 7.11815 0
M  V30 4721 O 621.633 3.49945 8.01648 0
M  V30 4722 C 620.226 3.5063 5.96244 0
M  V30 4723 O 621.025 2.36482 5.64681 0
M  V30 4724 C 618.889 3.15122 6.56374 0
M  V30 4725 H 618.921 2.13853 6.99751 0
M  V30 4726 H 620.104 4.13501 5.06559 0
M  V30 4727 H 621.588 5.03285 6.70911 0
M  V30 4728 H 619.894 5.20877 8.75697 0
M  V30 4729 H 619.704 7.11046 7.35349 0
M  V30 4730 H 618.074 6.35815 7.26986 0
M  V30 4731 H 620.713 1.61644 6.13565 0
M  V30 4732 P 622.57 3.65191 7.99657 0
M  V30 4733 O 623.992 3.8425 8.48115 0
M  V30 4734 O 622.21 4.17805 6.64342 0
M  V30 4735 O 622.247 2.07613 7.95143 0
M  V30 4736 C 622.087 1.44328 9.27336 0
M  V30 4737 C 622.627 0.0220036 9.17197 0
M  V30 4738 O 621.571 -0.626867 8.61923 0
M  V30 4739 C 623.845 -0.24586 8.30336 0
M  V30 4740 O 624.583 -1.39011 8.63583 0
M  V30 4741 C 623.176 -0.273849 6.91158 0
M  V30 4742 O 623.975 -1.06348 6.02892 0
M  V30 4743 C 621.839 -0.897649 7.22545 0
M  V30 4744 H 621.871 -1.9841 7.04286 0
M  V30 4745 H 623.054 0.739928 6.497 0
M  V30 4746 H 624.538 0.60668 8.36503 0
M  V30 4747 H 622.844 -0.352479 10.1829 0
M  V30 4748 H 622.654 2.00611 10.0304 0
M  V30 4749 H 621.024 1.41843 9.55327 0
M  V30 4750 H 623.663 -1.95734 6.03555 0
M  V30 4751 P 625.521 -1.25109 8.70152 0
M  V30 4752 O 626.943 -1.35274 9.21221 0
M  V30 4753 O 625.161 -0.0769065 7.84762 0
M  V30 4754 O 625.198 -2.55232 7.81161 0
M  V30 4755 C 625.038 -3.79939 8.58154 0
M  V30 4756 C 625.578 -4.94023 7.72785 0
M  V30 4757 O 624.522 -5.18726 6.91205 0
M  V30 4758 C 626.796 -4.69597 6.85231 0
M  V30 4759 O 627.534 -5.83832 6.51337 0
M  V30 4760 C 626.127 -3.96706 5.66633 0
M  V30 4761 O 626.926 -4.15414 4.49689 0
M  V30 4762 C 624.79 -4.66153 5.59313 0
M  V30 4763 H 624.822 -5.47679 4.85214 0
M  V30 4764 H 626.005 -2.89008 5.86566 0
M  V30 4765 H 627.489 -4.0121 7.36511 0
M  V30 4766 H 625.795 -5.80182 8.37584 0
M  V30 4767 H 625.605 -3.73517 9.52265 0
M  V30 4768 H 623.975 -3.97163 8.80359 0
M  V30 4769 H 626.614 -4.90969 4.01921 0
M  V30 4770 P 628.471 -5.75688 6.64379 0
M  V30 4771 O 629.893 -6.11849 7.01846 0
M  V30 4772 O 628.111 -4.30744 6.56026 0
M  V30 4773 O 628.148 -6.37042 5.19165 0
M  V30 4774 C 627.988 -7.83578 5.16515 0
M  V30 4775 C 628.528 -8.33398 3.83019 0
M  V30 4776 O 627.472 -8.10074 3.01034 0
M  V30 4777 C 629.746 -7.65514 3.2257 0
M  V30 4778 O 630.484 -8.4329 2.32297 0
M  V30 4779 C 629.077 -6.40075 2.62207 0
M  V30 4780 O 629.876 -5.92589 1.53712 0
M  V30 4781 C 627.74 -6.9454 2.18503 0
M  V30 4782 H 627.772 -7.23063 1.12091 0
M  V30 4783 H 628.955 -5.6025 3.37201 0
M  V30 4784 H 630.439 -7.35707 4.02681 0
M  V30 4785 H 628.745 -9.40912 3.9095 0
M  V30 4786 H 628.555 -8.29056 5.99158 0
M  V30 4787 H 626.925 -8.10073 5.25882 0
M  V30 4788 H 629.564 -6.30324 0.726794 0
M  V30 4789 P 631.422 -8.4349 2.47671 0
M  V30 4790 O 632.843 -8.94263 2.59668 0
M  V30 4791 O 631.062 -7.1704 3.19006 0
M  V30 4792 O 631.099 -8.16596 0.923387 0
M  V30 4793 C 630.938 -9.38537 0.108869 0
M  V30 4794 C 631.479 -9.08175 -1.28353 0
M  V30 4795 O 630.424 -8.44131 -1.84692 0
M  V30 4796 C 632.697 -8.18386 -1.42505 0
M  V30 4797 O 633.435 -8.3501 -2.60497 0
M  V30 4798 C 632.029 -6.80225 -1.25468 0
M  V30 4799 O 632.827 -5.81716 -1.90454 0
M  V30 4800 C 630.691 -7.02416 -1.9168 0
M  V30 4801 N 629.648 -6.31033 -1.20314 0
M  V30 4802 C 629.817 -5.98817 0.0994088 0
M  V30 4803 N 628.79 -5.35403 0.621694 0
M  V30 4804 C 627.905 -5.25212 -0.43376 0
M  V30 4805 C 626.638 -4.64602 -0.519722 0
M  V30 4806 N 626.073 -4.7568 -1.76013 0
M  V30 4807 C 626.675 -5.3653 -2.83017 0
M  V30 4808 N 627.852 -5.93676 -2.79782 0
M  V30 4809 C 628.427 -5.84061 -1.56249 0
M  V30 4810 H 631.906 -6.53498 -0.198729 0
M  V30 4811 H 633.389 -8.36622 -0.589963 0
M  V30 4812 H 631.695 -10.0273 -1.8081 0
M  V30 4813 H 631.505 -10.2138 0.558219 0
M  V30 4814 H 629.875 -9.6579 0.0444202 0
M  V30 4815 H 630.717 -6.23209 0.660562 0
M  V30 4816 H 632.515 -5.69466 -2.79593 0
M  V30 4817 P 634.373 -8.4349 -2.47671 0
M  V30 4818 O 635.795 -8.92593 -2.65 0
M  V30 4819 O 634.013 -7.7568 -1.19296 0
M  V30 4820 O 634.05 -7.36886 -3.63805 0
M  V30 4821 C 633.89 -7.95349 -4.982 0
M  V30 4822 C 634.43 -6.94612 -5.98974 0
M  V30 4823 O 633.374 -6.10347 -6.11815 0
M  V30 4824 C 635.648 -6.11426 -5.62335 0
M  V30 4825 O 636.386 -5.6162 -6.70584 0
M  V30 4826 C 634.979 -5.04409 -4.73308 0
M  V30 4827 O 635.778 -3.85992 -4.75183 0
M  V30 4828 C 633.642 -4.8728 -5.41006 0
M  V30 4829 H 633.674 -4.02333 -6.11157 0
M  V30 4830 H 634.857 -5.39466 -3.69543 0
M  V30 4831 H 636.341 -6.71916 -5.01943 0
M  V30 4832 H 634.647 -7.4649 -6.93477 0
M  V30 4833 H 634.457 -8.89416 -5.05237 0
M  V30 4834 H 632.827 -8.14876 -5.18409 0
M  V30 4835 H 635.466 -3.27957 -5.4317 0
M  V30 4836 P 637.323 -5.75688 -6.64379 0
M  V30 4837 O 638.745 -6.07627 -7.05504 0
M  V30 4838 O 636.963 -5.88047 -5.19722 0
M  V30 4839 O 637 -4.2322 -7.04443 0
M  V30 4840 C 636.84 -3.99743 -8.4911 0
M  V30 4841 C 637.38 -2.60516 -8.79425 0
M  V30 4842 O 636.324 -1.82684 -8.4467 0
M  V30 4843 C 638.598 -2.10343 -8.03628 0
M  V30 4844 O 639.336 -1.09919 -8.67766 0
M  V30 4845 C 637.929 -1.68446 -6.70876 0
M  V30 4846 O 638.728 -0.678137 -6.08433 0
M  V30 4847 C 636.592 -1.17436 -7.18567 0
M  V30 4848 H 636.624 -0.0804732 -7.31656 0
M  V30 4849 H 637.807 -2.54037 -6.02537 0
M  V30 4850 H 639.291 -2.93881 -7.85526 0
M  V30 4851 H 637.597 -2.53065 -9.86973 0
M  V30 4852 H 637.407 -4.75072 -9.05887 0
M  V30 4853 H 635.777 -4.05244 -8.76668 0
M  V30 4854 H 638.416 0.177647 -6.34251 0
M  V30 4855 P 640.274 -1.25109 -8.70152 0
M  V30 4856 O 641.696 -1.29744 -9.22016 0
M  V30 4857 O 639.914 -2.13714 -7.55141 0
M  V30 4858 O 639.951 0.248149 -8.21425 0
M  V30 4859 C 639.791 1.22779 -9.30434 0
M  V30 4860 C 640.331 2.56293 -8.80664 0
M  V30 4861 O 639.275 3.02979 -8.09349 0
M  V30 4862 C 641.549 2.57523 -7.89775 0
M  V30 4863 O 642.287 3.7668 -7.89438 0
M  V30 4864 C 640.88 2.20997 -6.55446 0
M  V30 4865 O 641.679 2.71895 -5.48509 0
M  V30 4866 C 639.543 2.89693 -6.67988 0
M  V30 4867 H 639.575 3.88793 -6.19859 0
M  V30 4868 H 640.758 1.12046 -6.44229 0
M  V30 4869 H 642.242 1.7746 -8.19711 0
M  V30 4870 H 640.548 3.20706 -9.67112 0
M  V30 4871 H 640.358 0.901032 -10.1892 0
M  V30 4872 H 638.728 1.33049 -9.56592 0
M  V30 4873 H 641.367 3.57847 -5.23962 0
M  V30 4874 P 643.224 3.65191 -7.99657 0
M  V30 4875 O 644.645 3.89374 -8.45885 0
M  V30 4876 O 642.864 2.28472 -7.50807 0
M  V30 4877 O 642.901 4.64972 -6.77611 0
M  V30 4878 C 642.74 6.06383 -7.16428 0
M  V30 4879 C 643.281 6.91731 -6.02299 0
M  V30 4880 O 642.226 6.92369 -5.17005 0
M  V30 4881 C 644.499 6.43627 -5.25174 0
M  V30 4882 O 645.237 7.43686 -4.60469 0
M  V30 4883 C 643.831 5.40275 -4.31916 0
M  V30 4884 O 644.629 5.24878 -3.14911 0
M  V30 4885 C 642.493 6.04847 -4.05327 0
M  V30 4886 N 641.45 5.04166 -3.98114 0
M  V30 4887 C 641.619 3.84629 -4.59066 0
M  V30 4888 N 640.592 3.0363 -4.45343 0
M  V30 4889 C 639.707 3.76722 -3.68523 0
M  V30 4890 C 638.44 3.43528 -3.17088 0
M  V30 4891 N 637.875 4.44526 -2.44231 0
M  V30 4892 C 638.477 5.65243 -2.20146 0
M  V30 4893 N 639.654 6.00221 -2.65453 0
M  V30 4894 C 640.229 5.00564 -3.39083 0
M  V30 4895 H 643.708 4.42969 -4.80867 0
M  V30 4896 H 645.191 5.92458 -5.93643 0
M  V30 4897 H 643.497 7.93295 -6.39407 0
M  V30 4898 H 643.307 6.26671 -8.0846 0
M  V30 4899 H 641.677 6.29101 -7.32804 0
M  V30 4900 H 642.519 3.58193 -5.14248 0
M  V30 4901 H 644.317 5.84223 -2.47279 0
M  V30 4902 P 646.175 7.39546 -4.75277 0
M  V30 4903 O 647.596 7.84882 -5.01092 0
M  V30 4904 O 645.815 5.9812 -5.08098 0
M  V30 4905 O 645.852 7.57503 -3.1866 0
M  V30 4906 C 645.691 8.97452 -2.74862 0
M  V30 4907 C 646.232 9.07548 -1.32709 0
M  V30 4908 O 645.177 8.61972 -0.606089 0
M  V30 4909 C 647.45 8.25383 -0.938334 0
M  V30 4910 O 648.188 8.74577 0.146954 0
M  V30 4911 C 646.782 6.8802 -0.712559 0
M  V30 4912 O 647.58 6.1181 0.188505 0
M  V30 4913 C 645.444 7.27966 -0.139777 0
M  V30 4914 N 644.401 6.39368 -0.623421 0
M  V30 4915 C 644.57 5.71761 -1.78245 0
M  V30 4916 N 643.543 4.962 -2.10491 0
M  V30 4917 C 642.658 5.16158 -1.0635 0
M  V30 4918 C 641.391 4.60425 -0.810266 0
M  V30 4919 N 640.826 5.06 0.348685 0
M  V30 4920 C 641.428 5.94532 1.20395 0
M  V30 4921 N 642.605 6.48452 1.01191 0
M  V30 4922 C 643.18 6.04423 -0.146291 0
M  V30 4923 H 646.659 6.32625 -1.65044 0
M  V30 4924 H 648.142 8.19355 -1.79097 0
M  V30 4925 H 646.448 10.1305 -1.09016 0
M  V30 4926 H 646.258 9.64276 -3.41316 0
M  V30 4927 H 644.628 9.25417 -2.76357 0
M  V30 4928 H 645.47 5.79354 -2.38959 0
M  V30 4929 H 647.268 6.25169 1.0783 0
M  V30 4930 P 649.125 8.791 4.45433e-12 0
M  V30 4931 O 650.547 9.31096 0.027933 0
M  V30 4932 O 648.765 7.77869 -1.04071 0
M  V30 4933 O 648.802 8.09533 1.41463 0
M  V30 4934 C 648.642 9.0349 2.53943 0
M  V30 4935 C 649.182 8.35226 3.79016 0
M  V30 4936 O 648.126 7.57992 4.15078 0
M  V30 4937 C 650.4 7.45087 3.67298 0
M  V30 4938 O 651.138 7.27796 4.85194 0
M  V30 4939 C 649.731 6.17323 3.12027 0
M  V30 4940 O 650.53 5.04231 3.47188 0
M  V30 4941 C 648.394 6.19961 3.81809 0
M  V30 4942 H 648.426 5.58218 4.73051 0
M  V30 4943 H 649.609 6.21726 2.02589 0
M  V30 4944 H 651.093 7.86112 2.9231 0
M  V30 4945 H 649.399 9.11627 4.55076 0
M  V30 4946 H 649.209 9.9573 2.34194 0
M  V30 4947 H 647.579 9.2792 2.67832 0
M  V30 4948 H 650.218 4.67702 4.28772 0
M  V30 4949 P 652.076 7.39546 4.75277 0
M  V30 4950 O 653.498 7.81777 5.05738 0
M  V30 4951 O 651.716 7.1065 3.32998 0
M  V30 4952 O 651.753 6.04542 5.56673 0
M  V30 4953 C 651.593 6.22772 7.02095 0
M  V30 4954 C 652.133 4.97725 7.70406 0
M  V30 4955 O 651.077 4.13256 7.58987 0
M  V30 4956 C 653.351 4.28231 7.11815 0
M  V30 4957 O 654.089 3.49945 8.01648 0
M  V30 4958 C 652.682 3.5063 5.96244 0
M  V30 4959 O 653.481 2.36482 5.64681 0
M  V30 4960 C 651.345 3.15122 6.56374 0
M  V30 4961 H 651.377 2.13853 6.99751 0
M  V30 4962 H 652.56 4.13501 5.06559 0
M  V30 4963 H 654.044 5.03285 6.70911 0
M  V30 4964 H 652.35 5.20877 8.75697 0
M  V30 4965 H 652.16 7.11046 7.35349 0
M  V30 4966 H 650.53 6.35815 7.26986 0
M  V30 4967 H 653.169 1.61644 6.13565 0
M  V30 4968 P 655.027 3.65191 7.99657 0
M  V30 4969 O 656.449 3.8425 8.48115 0
M  V30 4970 O 654.667 4.17805 6.64342 0
M  V30 4971 O 654.704 2.07613 7.95143 0
M  V30 4972 C 654.544 1.44328 9.27336 0
M  V30 4973 C 655.084 0.0220036 9.17197 0
M  V30 4974 O 654.028 -0.626867 8.61923 0
M  V30 4975 C 656.302 -0.24586 8.30336 0
M  V30 4976 O 657.04 -1.39011 8.63583 0
M  V30 4977 C 655.633 -0.273849 6.91158 0
M  V30 4978 O 656.432 -1.06348 6.02892 0
M  V30 4979 C 654.296 -0.897649 7.22545 0
M  V30 4980 H 654.328 -1.9841 7.04286 0
M  V30 4981 H 655.511 0.739928 6.497 0
M  V30 4982 H 656.995 0.60668 8.36503 0
M  V30 4983 H 655.301 -0.352479 10.1829 0
M  V30 4984 H 655.111 2.00611 10.0304 0
M  V30 4985 H 653.481 1.41843 9.55327 0
M  V30 4986 H 656.12 -1.95734 6.03555 0
M  V30 4987 P 657.977 -1.25109 8.70152 0
M  V30 4988 O 659.399 -1.35274 9.21221 0
M  V30 4989 O 657.617 -0.0769065 7.84762 0
M  V30 4990 O 657.654 -2.55232 7.81161 0
M  V30 4991 C 657.494 -3.79939 8.58154 0
M  V30 4992 C 658.034 -4.94023 7.72785 0
M  V30 4993 O 656.978 -5.18726 6.91205 0
M  V30 4994 C 659.252 -4.69597 6.85231 0
M  V30 4995 O 659.99 -5.83832 6.51337 0
M  V30 4996 C 658.583 -3.96706 5.66633 0
M  V30 4997 O 659.382 -4.15414 4.49689 0
M  V30 4998 C 657.246 -4.66153 5.59313 0
M  V30 4999 H 657.278 -5.47679 4.85214 0
M  V30 5000 H 658.461 -2.89008 5.86566 0
M  V30 5001 H 659.945 -4.0121 7.36511 0
M  V30 5002 H 658.251 -5.80182 8.37584 0
M  V30 5003 H 658.061 -3.73517 9.52265 0
M  V30 5004 H 656.431 -3.97163 8.80359 0
M  V30 5005 H 659.07 -4.90969 4.01921 0
M  V30 5006 P 660.928 -5.75688 6.64379 0
M  V30 5007 O 662.35 -6.11849 7.01846 0
M  V30 5008 O 660.568 -4.30744 6.56026 0
M  V30 5009 O 660.605 -6.37042 5.19165 0
M  V30 5010 C 660.445 -7.83578 5.16515 0
M  V30 5011 C 660.985 -8.33398 3.83019 0
M  V30 5012 O 659.929 -8.10074 3.01034 0
M  V30 5013 C 662.203 -7.65514 3.2257 0
M  V30 5014 O 662.941 -8.4329 2.32297 0
M  V30 5015 C 661.534 -6.40075 2.62207 0
M  V30 5016 O 662.333 -5.92589 1.53712 0
M  V30 5017 C 660.197 -6.9454 2.18503 0
M  V30 5018 H 660.229 -7.23063 1.12091 0
M  V30 5019 H 661.412 -5.6025 3.37201 0
M  V30 5020 H 662.896 -7.35707 4.02681 0
M  V30 5021 H 661.202 -9.40912 3.9095 0
M  V30 5022 H 661.012 -8.29056 5.99158 0
M  V30 5023 H 659.382 -8.10073 5.25882 0
M  V30 5024 H 662.021 -6.30324 0.726794 0
M  V30 5025 P 663.878 -8.4349 2.47671 0
M  V30 5026 O 665.3 -8.94359 2.59696 0
M  V30 5027 O 663.518 -7.1704 3.19006 0
M  V30 5028 O 663.555 -8.16596 0.923387 0
M  V30 5029 C 663.395 -9.38437 0.108857 0
M  V30 5030 C 663.935 -9.08076 -1.28339 0
M  V30 5031 O 662.88 -8.44229 -1.84713 0
M  V30 5032 C 665.153 -8.18386 -1.42505 0
M  V30 5033 O 665.891 -8.3501 -2.60497 0
M  V30 5034 C 664.485 -6.80225 -1.25468 0
M  V30 5035 O 665.283 -5.81526 -1.91035 0
M  V30 5036 C 663.147 -7.02416 -1.9168 0
M  V30 5037 N 662.104 -6.31033 -1.20314 0
M  V30 5038 C 662.166 -6.18781 0.121293 0
M  V30 5039 N 661.121 -5.49762 0.588272 0
M  V30 5040 C 660.387 -5.22015 -0.488988 0
M  V30 5041 C 659.081 -4.61966 -0.596448 0
M  V30 5042 O 658.348 -4.19162 0.309059 0
M  V30 5043 N 658.651 -4.53773 -1.878 0
M  V30 5044 C 659.4 -4.99623 -2.99082 0
M  V30 5045 N 658.803 -4.78912 -4.21227 0
M  V30 5046 N 660.553 -5.59957 -2.91093 0
M  V30 5047 C 661.01 -5.70225 -1.64218 0
M  V30 5048 H 663.179 -6.6888 -2.96621 0
M  V30 5049 H 664.362 -6.53517 -0.192194 0
M  V30 5050 H 665.847 -8.36563 -0.598329 0
M  V30 5051 H 664.152 -10.0291 -1.79807 0
M  V30 5052 H 663.962 -10.2138 0.558219 0
M  V30 5053 H 662.331 -9.6579 0.0444202 0
M  V30 5054 H 657.755 -4.12883 -2.05283 0
M  V30 5055 H 662.962 -6.59596 0.745856 0
M  V30 5056 H 657.892 -4.31425 -4.2628 0
M  V30 5057 H 659.268 -5.11219 -5.07148 0
M  V30 5058 H 664.972 -5.69466 -2.79593 0
M  V30 5059 P 666.829 -8.4349 -2.47671 0
M  V30 5060 O 668.251 -8.92593 -2.65 0
M  V30 5061 O 666.469 -7.7568 -1.19296 0
M  V30 5062 O 666.506 -7.36886 -3.63805 0
M  V30 5063 C 666.346 -7.95349 -4.982 0
M  V30 5064 C 666.886 -6.94612 -5.98974 0
M  V30 5065 O 665.83 -6.10347 -6.11815 0
M  V30 5066 C 668.104 -6.11426 -5.62335 0
M  V30 5067 O 668.842 -5.6162 -6.70584 0
M  V30 5068 C 667.435 -5.04409 -4.73308 0
M  V30 5069 O 668.234 -3.85992 -4.75183 0
M  V30 5070 C 666.098 -4.8728 -5.41006 0
M  V30 5071 H 666.13 -4.02333 -6.11157 0
M  V30 5072 H 667.313 -5.39466 -3.69543 0
M  V30 5073 H 668.797 -6.71916 -5.01943 0
M  V30 5074 H 667.103 -7.4649 -6.93477 0
M  V30 5075 H 666.913 -8.89416 -5.05237 0
M  V30 5076 H 665.283 -8.14876 -5.18409 0
M  V30 5077 H 667.922 -3.27957 -5.4317 0
M  V30 5078 P 669.779 -5.75688 -6.64379 0
M  V30 5079 O 671.2 -6.07692 -7.0558 0
M  V30 5080 O 669.419 -5.88047 -5.19722 0
M  V30 5081 O 669.456 -4.2322 -7.04443 0
M  V30 5082 C 669.295 -3.99785 -8.49201 0
M  V30 5083 C 669.836 -2.60516 -8.79425 0
M  V30 5084 O 668.781 -1.82663 -8.44573 0
M  V30 5085 C 671.054 -2.10343 -8.03628 0
M  V30 5086 O 671.792 -1.09919 -8.67766 0
M  V30 5087 C 670.386 -1.68446 -6.70876 0
M  V30 5088 O 671.184 -0.684109 -6.08265 0
M  V30 5089 C 669.048 -1.17436 -7.18567 0
M  V30 5090 N 668.005 -1.52699 -6.23988 0
M  V30 5091 C 668.174 -2.578 -5.40574 0
M  V30 5092 N 667.147 -2.78966 -4.61193 0
M  V30 5093 C 666.262 -1.78725 -4.95769 0
M  V30 5094 C 664.995 -1.45727 -4.44207 0
M  V30 5095 N 664.396 -2.13994 -3.43613 0
M  V30 5096 N 664.43 -0.374977 -5.05812 0
M  V30 5097 C 665.032 0.345585 -6.05615 0
M  V30 5098 N 666.209 0.0787651 -6.56253 0
M  V30 5099 C 666.784 -1.00499 -5.96189 0
M  V30 5100 H 669.08 -0.0804622 -7.31556 0
M  V30 5101 H 670.263 -2.53396 -6.02698 0
M  V30 5102 H 671.746 -2.93881 -7.85526 0
M  V30 5103 H 670.052 -2.52078 -9.87225 0
M  V30 5104 H 669.862 -4.75072 -9.05887 0
M  V30 5105 H 668.232 -4.05244 -8.76668 0
M  V30 5106 H 664.496 1.20098 -6.4532 0
M  V30 5107 H 669.074 -3.18977 -5.3945 0
M  V30 5108 H 663.466 -1.84983 -3.10004 0
M  V30 5109 H 664.87 -2.9465 -3.00843 0
M  V30 5110 H 670.872 0.177619 -6.34151 0
M  V30 5111 P 672.73 -1.25109 -8.70152 0
M  V30 5112 O 674.152 -1.29744 -9.22016 0
M  V30 5113 O 672.37 -2.13714 -7.55141 0
M  V30 5114 O 672.407 0.248149 -8.21425 0
M  V30 5115 C 672.247 1.22779 -9.30434 0
M  V30 5116 C 672.787 2.56293 -8.80664 0
M  V30 5117 O 671.731 3.02979 -8.09349 0
M  V30 5118 C 674.005 2.57523 -7.89775 0
M  V30 5119 O 674.743 3.7668 -7.89438 0
M  V30 5120 C 673.336 2.20997 -6.55446 0
M  V30 5121 O 674.135 2.71895 -5.48509 0
M  V30 5122 C 671.999 2.89693 -6.67988 0
M  V30 5123 H 672.031 3.88793 -6.19859 0
M  V30 5124 H 673.214 1.12046 -6.44229 0
M  V30 5125 H 674.698 1.7746 -8.19711 0
M  V30 5126 H 673.004 3.20706 -9.67112 0
M  V30 5127 H 672.814 0.901032 -10.1892 0
M  V30 5128 H 671.184 1.33049 -9.56592 0
M  V30 5129 H 673.823 3.57847 -5.23962 0
M  V30 5130 P 675.681 3.65191 -7.99657 0
M  V30 5131 O 677.103 3.89332 -8.45794 0
M  V30 5132 O 675.321 2.28472 -7.50807 0
M  V30 5133 O 675.358 4.64972 -6.77611 0
M  V30 5134 C 675.198 6.06319 -7.16352 0
M  V30 5135 C 675.738 6.91731 -6.02299 0
M  V30 5136 O 674.682 6.92449 -5.17064 0
M  V30 5137 C 676.956 6.43627 -5.25174 0
M  V30 5138 O 677.694 7.43686 -4.60469 0
M  V30 5139 C 676.287 5.40275 -4.31916 0
M  V30 5140 O 677.086 5.25279 -3.14438 0
M  V30 5141 C 674.95 6.04847 -4.05327 0
M  V30 5142 H 674.982 6.62195 -3.11261 0
M  V30 5143 H 676.165 4.42556 -4.81383 0
M  V30 5144 H 677.649 5.92458 -5.93643 0
M  V30 5145 H 675.955 7.92655 -6.402 0
M  V30 5146 H 675.765 6.26671 -8.0846 0
M  V30 5147 H 674.135 6.29101 -7.32804 0
M  V30 5148 H 676.774 5.84315 -2.47318 0
M  V30 5149 P 678.631 7.39546 -4.75277 0
M  V30 5150 O 680.053 7.84798 -5.01039 0
M  V30 5151 O 678.271 5.9812 -5.08098 0
M  V30 5152 O 678.308 7.57503 -3.1866 0
M  V30 5153 C 678.148 8.97357 -2.74833 0
M  V30 5154 C 678.688 9.07548 -1.32709 0
M  V30 5155 O 677.632 8.62072 -0.606159 0
M  V30 5156 C 679.906 8.25383 -0.938334 0
M  V30 5157 O 680.644 8.74577 0.146954 0
M  V30 5158 C 679.237 6.8802 -0.712559 0
M  V30 5159 O 680.036 6.1189 0.194655 0
M  V30 5160 C 677.9 7.27966 -0.139777 0
M  V30 5161 H 677.932 7.25354 0.961601 0
M  V30 5162 H 679.115 6.32557 -1.65702 0
M  V30 5163 H 680.599 8.19355 -1.79097 0
M  V30 5164 H 678.905 10.1294 -1.10029 0
M  V30 5165 H 678.715 9.64276 -3.41316 0
M  V30 5166 H 677.085 9.25417 -2.76357 0
M  V30 5167 H 679.724 6.25267 1.07847 0
M  V30 5168 P 681.582 8.791 4.7645e-12 0
M  V30 5169 O 683.004 9.31096 0.027933 0
M  V30 5170 O 681.222 7.77869 -1.04071 0
M  V30 5171 O 681.259 8.09533 1.41463 0
M  V30 5172 C 681.099 9.0349 2.53943 0
M  V30 5173 C 681.639 8.35226 3.79016 0
M  V30 5174 O 680.583 7.57992 4.15078 0
M  V30 5175 C 682.857 7.45087 3.67298 0
M  V30 5176 O 683.595 7.27796 4.85194 0
M  V30 5177 C 682.188 6.17323 3.12027 0
M  V30 5178 O 682.987 5.04231 3.47188 0
M  V30 5179 C 680.851 6.19961 3.81809 0
M  V30 5180 H 680.883 5.58218 4.73051 0
M  V30 5181 H 682.066 6.21726 2.02589 0
M  V30 5182 H 683.55 7.86112 2.9231 0
M  V30 5183 H 681.856 9.11627 4.55076 0
M  V30 5184 H 681.666 9.9573 2.34194 0
M  V30 5185 H 680.036 9.2792 2.67832 0
M  V30 5186 H 682.675 4.67702 4.28772 0
M  V30 5187 P 684.532 7.39546 4.75277 0
M  V30 5188 O 685.954 7.81777 5.05738 0
M  V30 5189 O 684.172 7.1065 3.32998 0
M  V30 5190 O 684.209 6.04542 5.56673 0
M  V30 5191 C 684.049 6.22772 7.02095 0
M  V30 5192 C 684.589 4.97725 7.70406 0
M  V30 5193 O 683.533 4.13256 7.58987 0
M  V30 5194 C 685.807 4.28231 7.11815 0
M  V30 5195 O 686.545 3.49945 8.01648 0
M  V30 5196 C 685.138 3.5063 5.96244 0
M  V30 5197 O 685.937 2.36482 5.64681 0
M  V30 5198 C 683.801 3.15122 6.56374 0
M  V30 5199 H 683.833 2.13853 6.99751 0
M  V30 5200 H 685.016 4.13501 5.06559 0
M  V30 5201 H 686.5 5.03285 6.70911 0
M  V30 5202 H 684.806 5.20877 8.75697 0
M  V30 5203 H 684.616 7.11046 7.35349 0
M  V30 5204 H 682.986 6.35815 7.26986 0
M  V30 5205 H 685.625 1.61644 6.13565 0
M  V30 5206 P 687.483 3.65191 7.99657 0
M  V30 5207 O 688.904 3.84292 8.48206 0
M  V30 5208 O 687.123 4.17805 6.64342 0
M  V30 5209 O 687.16 2.07613 7.95143 0
M  V30 5210 C 686.999 1.44344 9.27435 0
M  V30 5211 C 687.54 0.0220036 9.17197 0
M  V30 5212 O 686.485 -0.626794 8.61824 0
M  V30 5213 C 688.758 -0.24586 8.30336 0
M  V30 5214 O 689.496 -1.39011 8.63583 0
M  V30 5215 C 688.09 -0.273849 6.91158 0
M  V30 5216 O 688.888 -1.05728 6.029 0
M  V30 5217 C 686.752 -0.897649 7.22545 0
M  V30 5218 N 685.709 -0.292839 6.41732 0
M  V30 5219 C 685.878 0.950603 5.91308 0
M  V30 5220 N 684.851 1.37732 5.21105 0
M  V30 5221 C 683.966 0.318109 5.26039 0
M  V30 5222 C 682.699 0.146766 4.6727 0
M  V30 5223 N 682.134 -1.06525 4.95887 0
M  V30 5224 C 682.736 -2.0378 5.71347 0
M  V30 5225 N 683.913 -1.92445 6.27451 0
M  V30 5226 C 684.488 -0.715382 6.00353 0
M  V30 5227 H 687.967 0.733318 6.49674 0
M  V30 5228 H 689.45 0.60668 8.36503 0
M  V30 5229 H 687.756 -0.362662 10.1825 0
M  V30 5230 H 687.566 2.00611 10.0304 0
M  V30 5231 H 685.936 1.41843 9.55327 0
M  V30 5232 H 686.778 1.54076 6.07465 0
M  V30 5233 H 688.576 -1.95704 6.0346 0
M  V30 5234 P 690.433 -1.25109 8.70152 0
M  V30 5235 O 691.855 -1.35274 9.21221 0
M  V30 5236 O 690.073 -0.0769065 7.84762 0
M  V30 5237 O 690.11 -2.55232 7.81161 0
M  V30 5238 C 689.95 -3.79939 8.58154 0
M  V30 5239 C 690.49 -4.94023 7.72785 0
M  V30 5240 O 689.434 -5.18726 6.91205 0
M  V30 5241 C 691.708 -4.69597 6.85231 0
M  V30 5242 O 692.446 -5.83832 6.51337 0
M  V30 5243 C 691.039 -3.96706 5.66633 0
M  V30 5244 O 691.838 -4.15414 4.49689 0
M  V30 5245 C 689.702 -4.66153 5.59313 0
M  V30 5246 H 689.734 -5.47679 4.85214 0
M  V30 5247 H 690.917 -2.89008 5.86566 0
M  V30 5248 H 692.401 -4.0121 7.36511 0
M  V30 5249 H 690.707 -5.80182 8.37584 0
M  V30 5250 H 690.517 -3.73517 9.52265 0
M  V30 5251 H 688.887 -3.97163 8.80359 0
M  V30 5252 H 691.526 -4.90969 4.01921 0
M  V30 5253 P 693.384 -5.75688 6.64379 0
M  V30 5254 O 694.806 -6.11849 7.01846 0
M  V30 5255 O 693.024 -4.30744 6.56026 0
M  V30 5256 O 693.061 -6.37042 5.19165 0
M  V30 5257 C 692.901 -7.83578 5.16515 0
M  V30 5258 C 693.441 -8.33398 3.83019 0
M  V30 5259 O 692.385 -8.10074 3.01034 0
M  V30 5260 C 694.659 -7.65514 3.2257 0
M  V30 5261 O 695.397 -8.4329 2.32297 0
M  V30 5262 C 693.99 -6.40075 2.62207 0
M  V30 5263 O 694.789 -5.92589 1.53712 0
M  V30 5264 C 692.653 -6.9454 2.18503 0
M  V30 5265 H 692.685 -7.23063 1.12091 0
M  V30 5266 H 693.868 -5.6025 3.37201 0
M  V30 5267 H 695.352 -7.35707 4.02681 0
M  V30 5268 H 693.658 -9.40912 3.9095 0
M  V30 5269 H 693.468 -8.29056 5.99158 0
M  V30 5270 H 691.838 -8.10073 5.25882 0
M  V30 5271 H 694.477 -6.30324 0.726794 0
M  V30 5272 P 696.335 -8.4349 2.47671 0
M  V30 5273 O 697.757 -8.94167 2.5964 0
M  V30 5274 O 695.975 -7.1704 3.19006 0
M  V30 5275 O 696.012 -8.16596 0.923387 0
M  V30 5276 C 695.852 -9.38437 0.108857 0
M  V30 5277 C 696.392 -9.08175 -1.28353 0
M  V30 5278 O 695.336 -8.44229 -1.84713 0
M  V30 5279 C 697.61 -8.18386 -1.42505 0
M  V30 5280 O 698.348 -8.3501 -2.60497 0
M  V30 5281 C 696.941 -6.80225 -1.25468 0
M  V30 5282 O 697.74 -5.81621 -1.91066 0
M  V30 5283 C 695.604 -7.02416 -1.9168 0
M  V30 5284 H 695.636 -6.6888 -2.96621 0
M  V30 5285 H 696.819 -6.53617 -0.192223 0
M  V30 5286 H 698.303 -8.36622 -0.589963 0
M  V30 5287 H 696.609 -10.0291 -1.79807 0
M  V30 5288 H 696.419 -10.2138 0.558219 0
M  V30 5289 H 694.789 -9.6579 0.0444202 0
M  V30 5290 H 697.428 -5.69556 -2.79637 0
M  V30 5291 P 699.285 -8.4349 -2.47671 0
M  V30 5292 O 700.707 -8.92593 -2.65 0
M  V30 5293 O 698.925 -7.7568 -1.19296 0
M  V30 5294 O 698.962 -7.36886 -3.63805 0
M  V30 5295 C 698.802 -7.95349 -4.982 0
M  V30 5296 C 699.342 -6.94612 -5.98974 0
M  V30 5297 O 698.286 -6.10347 -6.11815 0
M  V30 5298 C 700.56 -6.11426 -5.62335 0
M  V30 5299 O 701.298 -5.6162 -6.70584 0
M  V30 5300 C 699.891 -5.04409 -4.73308 0
M  V30 5301 O 700.69 -3.85992 -4.75183 0
M  V30 5302 C 698.554 -4.8728 -5.41006 0
M  V30 5303 H 698.586 -4.02333 -6.11157 0
M  V30 5304 H 699.769 -5.39466 -3.69543 0
M  V30 5305 H 701.253 -6.71916 -5.01943 0
M  V30 5306 H 699.559 -7.4649 -6.93477 0
M  V30 5307 H 699.369 -8.89416 -5.05237 0
M  V30 5308 H 697.739 -8.14876 -5.18409 0
M  V30 5309 H 700.378 -3.27957 -5.4317 0
M  V30 5310 P 702.236 -5.75688 -6.64379 0
M  V30 5311 O 703.658 -6.07627 -7.05504 0
M  V30 5312 O 701.876 -5.88047 -5.19722 0
M  V30 5313 O 701.913 -4.2322 -7.04443 0
M  V30 5314 C 701.753 -3.99743 -8.4911 0
M  V30 5315 C 702.293 -2.60516 -8.79425 0
M  V30 5316 O 701.237 -1.82684 -8.4467 0
M  V30 5317 C 703.511 -2.10343 -8.03628 0
M  V30 5318 O 704.249 -1.09919 -8.67766 0
M  V30 5319 C 702.842 -1.68446 -6.70876 0
M  V30 5320 O 703.641 -0.678137 -6.08433 0
M  V30 5321 C 701.505 -1.17436 -7.18567 0
M  V30 5322 H 701.537 -0.0804732 -7.31656 0
M  V30 5323 H 702.72 -2.54037 -6.02537 0
M  V30 5324 H 704.204 -2.93881 -7.85526 0
M  V30 5325 H 702.51 -2.53065 -9.86973 0
M  V30 5326 H 702.32 -4.75072 -9.05887 0
M  V30 5327 H 700.69 -4.05244 -8.76668 0
M  V30 5328 H 703.329 0.177647 -6.34251 0
M  V30 5329 P 705.186 -1.25109 -8.70152 0
M  V30 5330 O 706.607 -1.29758 -9.22115 0
M  V30 5331 O 704.826 -2.13714 -7.55141 0
M  V30 5332 O 704.863 0.248149 -8.21425 0
M  V30 5333 C 704.702 1.22792 -9.30533 0
M  V30 5334 C 705.243 2.56293 -8.80664 0
M  V30 5335 O 704.188 3.02944 -8.09255 0
M  V30 5336 C 706.461 2.57523 -7.89775 0
M  V30 5337 O 707.199 3.7668 -7.89438 0
M  V30 5338 C 705.793 2.20997 -6.55446 0
M  V30 5339 O 706.591 2.71302 -5.48691 0
M  V30 5340 C 704.455 2.89693 -6.67988 0
M  V30 5341 N 703.412 2.08895 -6.07487 0
M  V30 5342 C 703.581 0.753809 -5.94137 0
M  V30 5343 N 702.554 0.146592 -5.38801 0
M  V30 5344 C 701.669 1.1768 -5.13693 0
M  V30 5345 C 700.402 1.17563 -4.52477 0
M  V30 5346 N 699.803 0.057481 -4.04759 0
M  V30 5347 N 699.837 2.41918 -4.45789 0
M  V30 5348 C 700.439 3.56493 -4.90792 0
M  V30 5349 N 701.616 3.61423 -5.47817 0
M  V30 5350 C 702.191 2.37779 -5.5588 0
M  V30 5351 H 704.487 3.8874 -6.19774 0
M  V30 5352 H 705.67 1.12673 -6.44018 0
M  V30 5353 H 707.153 1.7746 -8.19711 0
M  V30 5354 H 705.459 3.21673 -9.66791 0
M  V30 5355 H 705.269 0.901032 -10.1892 0
M  V30 5356 H 703.639 1.33049 -9.56592 0
M  V30 5357 H 699.903 4.49919 -4.77947 0
M  V30 5358 H 704.481 0.233081 -6.26266 0
M  V30 5359 H 698.873 0.119831 -3.60801 0
M  V30 5360 H 700.277 -0.852272 -4.12385 0
M  V30 5361 H 706.279 3.5779 -5.23879 0
M  V30 5362 P 708.137 3.65191 -7.99657 0
M  V30 5363 O 709.559 3.89332 -8.45794 0
M  V30 5364 O 707.777 2.28472 -7.50807 0
M  V30 5365 O 707.814 4.64972 -6.77611 0
M  V30 5366 C 707.654 6.06319 -7.16352 0
M  V30 5367 C 708.194 6.91731 -6.02299 0
M  V30 5368 O 707.138 6.92449 -5.17064 0
M  V30 5369 C 709.412 6.43627 -5.25174 0
M  V30 5370 O 710.15 7.43686 -4.60469 0
M  V30 5371 C 708.743 5.40275 -4.31916 0
M  V30 5372 O 709.542 5.25279 -3.14438 0
M  V30 5373 C 707.406 6.04847 -4.05327 0
M  V30 5374 H 707.438 6.62195 -3.11261 0
M  V30 5375 H 708.621 4.42556 -4.81383 0
M  V30 5376 H 710.105 5.92458 -5.93643 0
M  V30 5377 H 708.411 7.92655 -6.402 0
M  V30 5378 H 708.221 6.26671 -8.0846 0
M  V30 5379 H 706.591 6.29101 -7.32804 0
M  V30 5380 H 709.23 5.84315 -2.47318 0
M  V30 5381 P 711.087 7.39546 -4.75277 0
M  V30 5382 O 712.508 7.84882 -5.01092 0
M  V30 5383 O 710.727 5.9812 -5.08098 0
M  V30 5384 O 710.764 7.57503 -3.1866 0
M  V30 5385 C 710.603 8.97452 -2.74862 0
M  V30 5386 C 711.144 9.07548 -1.32709 0
M  V30 5387 O 710.089 8.61972 -0.606089 0
M  V30 5388 C 712.362 8.25383 -0.938334 0
M  V30 5389 O 713.1 8.74577 0.146954 0
M  V30 5390 C 711.694 6.8802 -0.712559 0
M  V30 5391 O 712.492 6.1181 0.188505 0
M  V30 5392 C 710.356 7.27966 -0.139777 0
M  V30 5393 N 709.313 6.39368 -0.623421 0
M  V30 5394 C 709.482 5.71761 -1.78245 0
M  V30 5395 N 708.455 4.962 -2.10491 0
M  V30 5396 C 707.57 5.16158 -1.0635 0
M  V30 5397 C 706.303 4.60425 -0.810266 0
M  V30 5398 N 705.704 3.7057 -1.62914 0
M  V30 5399 N 705.738 5.06 0.348685 0
M  V30 5400 C 706.34 5.94532 1.20395 0
M  V30 5401 N 707.517 6.48452 1.01191 0
M  V30 5402 C 708.092 6.04423 -0.146291 0
M  V30 5403 H 710.388 7.25255 0.961469 0
M  V30 5404 H 711.571 6.32625 -1.65044 0
M  V30 5405 H 713.054 8.19355 -1.79097 0
M  V30 5406 H 711.36 10.1305 -1.09016 0
M  V30 5407 H 711.17 9.64276 -3.41316 0
M  V30 5408 H 709.54 9.25417 -2.76357 0
M  V30 5409 H 705.804 6.21659 2.10714 0
M  V30 5410 H 710.382 5.79354 -2.38959 0
M  V30 5411 H 704.774 3.33174 -1.38982 0
M  V30 5412 H 706.178 3.39714 -2.48836 0
M  V30 5413 H 712.18 6.25169 1.0783 0
M  V30 5414 P 714.038 8.791 5.07466e-12 0
M  V30 5415 O 715.46 9.31096 0.027933 0
M  V30 5416 O 713.678 7.77869 -1.04071 0
M  V30 5417 O 713.715 8.09533 1.41463 0
M  V30 5418 C 713.555 9.0349 2.53943 0
M  V30 5419 C 714.095 8.35226 3.79016 0
M  V30 5420 O 713.039 7.57992 4.15078 0
M  V30 5421 C 715.313 7.45087 3.67298 0
M  V30 5422 O 716.051 7.27796 4.85194 0
M  V30 5423 C 714.644 6.17323 3.12027 0
M  V30 5424 O 715.443 5.04231 3.47188 0
M  V30 5425 C 713.307 6.19961 3.81809 0
M  V30 5426 H 713.339 5.58218 4.73051 0
M  V30 5427 H 714.522 6.21726 2.02589 0
M  V30 5428 H 716.006 7.86112 2.9231 0
M  V30 5429 H 714.312 9.11627 4.55076 0
M  V30 5430 H 714.122 9.9573 2.34194 0
M  V30 5431 H 712.492 9.2792 2.67832 0
M  V30 5432 H 715.131 4.67702 4.28772 0
M  V30 5433 P 716.989 7.39546 4.75277 0
M  V30 5434 O 718.411 7.81777 5.05738 0
M  V30 5435 O 716.629 7.1065 3.32998 0
M  V30 5436 O 716.666 6.04542 5.56673 0
M  V30 5437 C 716.506 6.22772 7.02095 0
M  V30 5438 C 717.046 4.97725 7.70406 0
M  V30 5439 O 715.99 4.13256 7.58987 0
M  V30 5440 C 718.264 4.28231 7.11815 0
M  V30 5441 O 719.002 3.49945 8.01648 0
M  V30 5442 C 717.595 3.5063 5.96244 0
M  V30 5443 O 718.394 2.36482 5.64681 0
M  V30 5444 C 716.258 3.15122 6.56374 0
M  V30 5445 H 716.29 2.13853 6.99751 0
M  V30 5446 H 717.473 4.13501 5.06559 0
M  V30 5447 H 718.957 5.03285 6.70911 0
M  V30 5448 H 717.263 5.20877 8.75697 0
M  V30 5449 H 717.073 7.11046 7.35349 0
M  V30 5450 H 715.443 6.35815 7.26986 0
M  V30 5451 H 718.082 1.61644 6.13565 0
M  V30 5452 P 719.939 3.65191 7.99657 0
M  V30 5453 O 721.361 3.8425 8.48115 0
M  V30 5454 O 719.579 4.17805 6.64342 0
M  V30 5455 O 719.616 2.07613 7.95143 0
M  V30 5456 C 719.456 1.44328 9.27336 0
M  V30 5457 C 719.996 0.0220036 9.17197 0
M  V30 5458 O 718.94 -0.626867 8.61923 0
M  V30 5459 C 721.214 -0.24586 8.30336 0
M  V30 5460 O 721.952 -1.39011 8.63583 0
M  V30 5461 C 720.545 -0.273849 6.91158 0
M  V30 5462 O 721.344 -1.06348 6.02892 0
M  V30 5463 C 719.208 -0.897649 7.22545 0
M  V30 5464 H 719.24 -1.9841 7.04286 0
M  V30 5465 H 720.423 0.739928 6.497 0
M  V30 5466 H 721.907 0.60668 8.36503 0
M  V30 5467 H 720.213 -0.352479 10.1829 0
M  V30 5468 H 720.023 2.00611 10.0304 0
M  V30 5469 H 718.393 1.41843 9.55327 0
M  V30 5470 H 721.032 -1.95734 6.03555 0
M  V30 5471 P 722.89 -1.25109 8.70152 0
M  V30 5472 O 724.312 -1.35274 9.21221 0
M  V30 5473 O 722.53 -0.0769065 7.84762 0
M  V30 5474 O 722.567 -2.55232 7.81161 0
M  V30 5475 C 722.407 -3.79939 8.58154 0
M  V30 5476 C 722.947 -4.94023 7.72785 0
M  V30 5477 O 721.891 -5.18726 6.91205 0
M  V30 5478 C 724.165 -4.69597 6.85231 0
M  V30 5479 O 724.903 -5.83832 6.51337 0
M  V30 5480 C 723.496 -3.96706 5.66633 0
M  V30 5481 O 724.295 -4.15414 4.49689 0
M  V30 5482 C 722.159 -4.66153 5.59313 0
M  V30 5483 H 722.191 -5.47679 4.85214 0
M  V30 5484 H 723.374 -2.89008 5.86566 0
M  V30 5485 H 724.858 -4.0121 7.36511 0
M  V30 5486 H 723.164 -5.80182 8.37584 0
M  V30 5487 H 722.974 -3.73517 9.52265 0
M  V30 5488 H 721.344 -3.97163 8.80359 0
M  V30 5489 H 723.983 -4.90969 4.01921 0
M  V30 5490 H 726.536 -5.37116 6.25149 0
M  V30 END ATOM
M  V30 BEGIN BOND
M  V30 END BOND
M  V30 END CTAB
M  END
$$$$
