drugbank_target|O95382 Mitogen-activated protein kinase kinase kinase 6 (DB12010)
 OpenBabel12092121163D

  0  0  0     0  0            999 V3000
M  V30 BEGIN CTAB
M  V30 COUNTS 20044 20279 0 0 0
M  V30 BEGIN ATOM
M  V30 1 H -0.908 1.98254 -0.117106 0
M  V30 2 N 0 1.576 0 0
M  V30 3 C 0.933 2.03868 1.02534 0
M  V30 4 C 1.911 0.928543 1.3348 0
M  V30 5 O 3.095 1.19667 1.45644 0
M  V30 6 C 0.222 2.43627 2.35294 0
M  V30 7 C -0.732 3.65373 2.2001 0
M  V30 8 S 0.101 5.13292 1.52614 0
M  V30 9 C 1.257 5.56322 2.86805 0
M  V30 10 H 1.49 2.90518 0.631377 0
M  V30 11 H -0.977 1.52953 0.210867 0
M  V30 12 H 0.981 2.67203 3.11629 0
M  V30 13 H -0.358 1.57376 2.7183 0
M  V30 14 H -1.165 3.90944 3.18086 0
M  V30 15 H -1.563 3.418 1.51819 0
M  V30 16 H 0.729 5.58782 3.83104 0
M  V30 17 H 1.672 6.56266 2.65933 0
M  V30 18 H 2.08 4.83886 2.90714 0
M  V30 19 N 1.4781 -0.272755 1.55222 0
M  V30 20 C 2.4411 -1.32041 1.87344 0
M  V30 21 C 3.4411 -1.42342 0.74803 0
M  V30 22 O 4.6311 -1.41488 1.0162 0
M  V30 23 C 1.7631 -2.70173 2.07893 0
M  V30 24 H 2.9561 -1.04789 2.80997 0
M  V30 25 H 0.5091 -0.51083 1.47717 0
M  V30 26 H 1.2441 -3.02605 1.16622 0
M  V30 27 H 1.0291 -2.64082 2.89833 0
M  V30 28 H 2.5191 -3.45869 2.34017 0
M  V30 29 N 2.9562 -1.48159 -0.537278 0
M  V30 30 C 4.2042 -1.55497 -1.29094 0
M  V30 31 C 4.5252 -0.227454 -1.93669 0
M  V30 32 O 3.7952 0.750386 -1.80959 0
M  V30 33 H 2.3752 -0.572832 -0.47945 0
M  V30 34 H 5.0372 -1.84579 -0.625818 0
M  V30 35 H 4.1332 -2.33216 -2.07405 0
M  V30 36 N 4.4343 0.785586 -1.36625 0
M  V30 37 C 5.8453 1.36101 -1.27803 0
M  V30 38 C 6.1963 1.96035 0.0804875 0
M  V30 39 O 5.3213 1.92834 0.982042 0
M  V30 40 C 5.9163 2.47442 -2.31426 0
M  V30 41 C 4.4753 3.00789 -2.26281 0
M  V30 42 C 3.6223 1.73896 -2.15999 0
M  V30 43 H 6.5733 0.586928 -1.47448 0
M  V30 44 H 6.5943 3.2656 -1.95291 0
M  V30 45 H 6.1063 2.03791 -3.30289 0
M  V30 46 H 4.2073 3.48851 -1.30896 0
M  V30 47 H 4.3203 3.57343 -3.19128 0
M  V30 48 H 2.6843 1.9628 -1.62316 0
M  V30 49 H 3.4673 1.32368 -3.16755 0
M  V30 50 N 5.9124 1.20967 1.01018 0
M  V30 51 C 7.1524 1.03511 1.76252 0
M  V30 52 C 7.5164 -0.42458 1.87247 0
M  V30 53 O 8.7174 -0.719508 2.58991 0
M  V30 54 C 6.9884 1.70726 3.13986 0
M  V30 55 S 8.5474 1.68458 4.05176 0
M  V30 56 H 5.3654 0.371037 0.606508 0
M  V30 57 H 7.9674 1.53628 1.20908 0
M  V30 58 H 6.6714 2.76128 3.03614 0
M  V30 59 H 6.2024 1.20767 3.74405 0
M  V30 60 H 8.2174 0.721987 4.90919 0
M  V30 61 N 7.3905 -1.2043 1.01659 0
M  V30 62 C 8.8015 -1.71517 0.737482 0
M  V30 63 C 9.1525 -1.81547 -0.743973 0
M  V30 64 O 8.2775 -1.47803 -1.58061 0
M  V30 65 C 8.8725 -3.11515 1.33206 0
M  V30 66 C 7.4315 -3.59912 1.10183 0
M  V30 67 C 6.5785 -2.37116 1.43776 0
M  V30 68 H 9.5295 -1.05444 1.18606 0
M  V30 69 H 9.5505 -3.73575 0.722636 0
M  V30 70 H 9.0625 -3.04182 2.41028 0
M  V30 71 H 7.1635 -3.72577 0.0412756 0
M  V30 72 H 7.2765 -4.44731 1.78188 0
M  V30 73 H 5.6405 -2.39857 0.856778 0
M  V30 74 H 6.4235 -2.32424 2.52654 0
M  V30 75 N 8.8686 -0.792821 -1.36206 0
M  V30 76 C 10.2846 -0.474903 -1.52371 0
M  V30 77 C 10.4846 1.00622 -1.74578 0
M  V30 78 O 9.5406 1.79162 -1.77924 0
M  V30 79 C 10.8536 -1.3083 -2.70747 0
M  V30 80 C 12.4016 -1.30234 -2.84619 0
M  V30 81 C 12.8766 -2.11956 -4.06004 0
M  V30 82 N 14.3676 -2.09419 -4.13156 0
M  V30 83 C 15.1026 -2.69419 -5.06163 0
M  V30 84 N 14.5986 -3.3829 -6.04592 0
M  V30 85 N 16.3916 -2.59134 -4.98804 0
M  V30 86 H 8.5426 -1.75222 -1.20046 0
M  V30 87 H 10.8056 -0.745024 -0.586211 0
M  V30 88 H 10.5116 -2.35881 -2.6087 0
M  V30 89 H 10.3856 -0.95196 -3.6499 0
M  V30 90 H 12.7726 -0.259748 -2.93955 0
M  V30 91 H 12.8536 -1.69847 -1.91274 0
M  V30 92 H 12.4976 -3.16248 -3.97429 0
M  V30 93 H 12.4276 -1.69711 -4.98503 0
M  V30 94 H 14.9186 -1.59297 -3.42685 0
M  V30 95 H 15.2316 -3.81394 -6.7213 0
M  V30 96 H 13.5766 -3.42393 -6.04807 0
M  V30 97 H 16.7676 -2.04927 -4.20859 0
M  V30 98 H 16.9406 -3.06185 -5.711 0
M  V30 99 N 10.3467 1.47872 -0.545128 0
M  V30 100 C 11.5717 2.07391 -0.0190611 0
M  V30 101 C 11.9967 1.39688 1.25971 0
M  V30 102 O 11.3547 0.467816 1.7516 0
M  V30 103 C 11.4027 3.60188 0.172335 0
M  V30 104 O 10.5067 3.9339 1.23766 0
M  V30 105 H 9.8477 0.662411 -0.0459059 0
M  V30 106 H 12.3777 1.90066 -0.757365 0
M  V30 107 H 12.3877 4.06129 0.390305 0
M  V30 108 H 11.0627 4.08865 -0.761725 0
M  V30 109 H 9.6397 3.5921 1.00114 0
M  V30 110 N 11.8248 0.280983 1.55075 0
M  V30 111 C 13.0728 -0.333455 1.9933 0
M  V30 112 C 13.3938 -1.55937 1.17085 0
M  V30 113 O 12.6638 -1.94143 0.261805 0
M  V30 114 H 11.2438 -0.126197 0.736263 0
M  V30 115 H 13.9058 0.387678 1.91005 0
M  V30 116 H 13.0018 -0.619292 3.05894 0
M  V30 117 N 13.3029 -1.57598 0.00835791 0
M  V30 118 C 14.2659 -2.07884 -0.965242 0
M  V30 119 C 15.2659 -0.989825 -1.26725 0
M  V30 120 O 16.4559 -1.25218 -1.21104 0
M  V30 121 C 13.5879 -2.52731 -2.28779 0
M  V30 122 H 14.7809 -2.95178 -0.530112 0
M  V30 123 H 12.3339 -1.54458 -0.239283 0
M  V30 124 H 13.0689 -1.68705 -2.76964 0
M  V30 125 H 12.8539 -3.32272 -2.08177 0
M  V30 126 H 14.3439 -2.91933 -2.98605 0
M  V30 127 N 14.781 0.264519 -1.55364 0
M  V30 128 C 15.691 1.34902 -1.91934 0
M  V30 129 C 16.707 1.53595 -0.817593 0
M  V30 130 O 17.883 1.67558 -1.11742 0
M  V30 131 C 14.948 2.68676 -2.19121 0
M  V30 132 C 14.009 2.58657 -3.4263 0
M  V30 133 C 13.242 3.86051 -3.68511 0
M  V30 134 O 13.465 4.87126 -2.96757 0
M  V30 135 O 12.399 3.85744 -4.62045 0
M  V30 136 H 16.225 1.06883 -2.8427 0
M  V30 137 H 13.81 0.463775 -1.42019 0
M  V30 138 H 15.692 3.47759 -2.37995 0
M  V30 139 H 14.367 2.96463 -1.29966 0
M  V30 140 H 13.274 1.7792 -3.29082 0
M  V30 141 H 14.607 2.35818 -4.32031 0
M  V30 142 N 16.2591 1.48442 0.529413 0
M  V30 143 C 17.6751 1.34575 0.858004 0
M  V30 144 C 17.8751 0.3572 1.98309 0
M  V30 145 O 16.9311 -0.221379 2.51528 0
M  V30 146 C 18.2441 2.74617 1.22499 0
M  V30 147 C 19.7921 2.83109 1.33484 0
M  V30 148 C 20.2671 4.23854 1.73526 0
M  V30 149 N 21.7581 4.2653 1.80628 0
M  V30 150 C 22.4931 5.32372 2.12997 0
M  V30 151 N 21.9891 6.48491 2.43786 0
M  V30 152 N 23.7821 5.19766 2.14008 0
M  V30 153 H 15.9331 2.1133 -0.212925 0
M  V30 154 H 18.1961 0.947439 -0.0326199 0
M  V30 155 H 17.9021 3.4852 0.471905 0
M  V30 156 H 17.7761 3.08177 2.17501 0
M  V30 157 H 20.1631 2.09462 2.0787 0
M  V30 158 H 20.2441 2.53168 0.366027 0
M  V30 159 H 19.8881 4.98018 0.997013 0
M  V30 160 H 19.8181 4.5124 2.71459 0
M  V30 161 H 22.3091 3.42772 1.59108 0
M  V30 162 H 22.6221 7.24993 2.67592 0
M  V30 163 H 20.9671 6.51765 2.41304 0
M  V30 164 H 24.1581 4.28066 1.89412 0
M  V30 165 H 24.3311 6.02354 2.38902 0
M  V30 166 N 17.7372 -0.778329 1.37039 0
M  V30 167 C 18.7002 -1.87301 1.32102 0
M  V30 168 C 19.7002 -1.59198 0.226405 0
M  V30 169 O 20.8902 -1.67403 0.481861 0
M  V30 170 C 18.0222 -3.24309 1.05055 0
M  V30 171 H 19.2152 -1.93093 2.29467 0
M  V30 172 H 16.7682 -0.977358 1.21973 0
M  V30 173 H 17.5032 -3.24196 0.0819373 0
M  V30 174 H 17.2882 -3.46098 1.84279 0
M  V30 175 H 18.7782 -4.04382 1.04234 0
M  V30 176 N 19.2153 -1.21501 -1.00376 0
M  V30 177 C 20.4633 -1.03095 -1.73827 0
M  V30 178 C 20.7843 0.436341 -1.90055 0
M  V30 179 O 20.0543 1.31466 -1.45236 0
M  V30 180 H 18.6343 -0.378487 -0.644016 0
M  V30 181 H 21.2963 -1.52831 -1.20949 0
M  V30 182 H 20.3923 -1.49991 -2.73695 0
M  V30 183 N 20.6934 1.19889 -1.02296 0
M  V30 184 C 21.9184 1.9393 -0.735237 0
M  V30 185 C 22.3434 1.74639 0.698782 0
M  V30 186 O 21.7014 1.04481 1.48167 0
M  V30 187 C 21.7494 3.43916 -1.08417 0
M  V30 188 O 20.8534 4.11917 -0.199446 0
M  V30 189 H 20.1944 0.605645 -0.272196 0
M  V30 190 H 22.7244 1.52137 -1.36804 0
M  V30 191 H 22.7344 3.9456 -1.03856 0
M  V30 192 H 21.4094 3.5728 -2.12894 0
M  V30 193 H 19.9864 3.71666 -0.303136 0
M  V30 194 N 22.1715 0.800033 1.35784 0
M  V30 195 C 23.4115 0.382891 2.00782 0
M  V30 196 C 23.7755 -1.02891 1.62103 0
M  V30 197 O 24.9765 -1.54771 2.19771 0
M  V30 198 C 23.2475 0.553299 3.53091 0
M  V30 199 S 24.8065 0.225608 4.3822 0
M  V30 200 H 21.6245 0.145737 0.695904 0
M  V30 201 H 24.2265 1.04085 1.65489 0
M  V30 202 H 22.9305 1.58091 3.78729 0
M  V30 203 H 22.4615 -0.120214 3.93216 0
M  V30 204 H 24.4765 -0.969074 4.86645 0
M  V30 205 N 23.6496 -1.47581 0.552962 0
M  V30 206 C 24.8956 -2.03369 0.0355807 0
M  V30 207 C 25.2506 -1.42016 -1.29805 0
M  V30 208 O 24.5436 -0.564917 -1.83083 0
M  V30 209 C 24.7376 -3.57199 -0.119728 0
M  V30 210 C 24.5666 -4.33468 1.1973 0
M  V30 211 C 23.3366 -4.7353 1.76345 0
M  V30 212 C 25.5346 -4.68866 2.11351 0
M  V30 213 N 23.5166 -5.34426 3.02097 0
M  V30 214 C 24.8876 -5.3002 3.21681 0
M  V30 215 C 26.9426 -4.50795 2.11397 0
M  V30 216 C 25.6456 -5.75011 4.32151 0
M  V30 217 C 27.6716 -4.96782 3.20876 0
M  V30 218 C 27.0336 -5.57981 4.29926 0
M  V30 219 H 23.1326 -0.780058 0.0550806 0
M  V30 220 H 25.7166 -1.80117 0.739315 0
M  V30 221 H 23.8876 -3.80227 -0.792579 0
M  V30 222 H 25.6196 -3.99627 -0.638792 0
M  V30 223 H 22.3746 -4.55352 1.30196 0
M  V30 224 H 22.7986 -5.69421 3.66182 0
M  V30 225 H 27.4406 -4.0284 1.28372 0
M  V30 226 H 25.1586 -6.21959 5.15938 0
M  V30 227 H 28.7446 -4.84573 3.21994 0
M  V30 228 H 27.6246 -5.92918 5.13243 0
M  V30 229 N 25.1277 -0.289203 -1.54924 0
M  V30 230 C 26.0597 0.625583 -2.20497 0
M  V30 231 C 27.0727 1.10667 -1.19402 0
M  V30 232 O 28.2617 1.02615 -1.46056 0
M  V30 233 C 25.3617 1.86702 -2.82835 0
M  V30 234 C 24.5347 1.5304 -4.09753 0
M  V30 235 C 23.5937 2.62576 -4.56005 0
M  V30 236 O 22.6197 2.28167 -5.21468 0
M  V30 237 N 23.8217 3.92901 -4.27328 0
M  V30 238 H 26.5867 0.0642801 -2.99631 0
M  V30 239 H 24.1477 -0.110896 -1.6152 0
M  V30 240 H 26.1397 2.59304 -3.10715 0
M  V30 241 H 24.7097 2.33702 -2.07611 0
M  V30 242 H 23.9297 0.637564 -3.8901 0
M  V30 243 H 25.2177 1.28072 -4.92418 0
M  V30 244 H 24.6157 4.23671 -3.74859 0
M  V30 245 H 23.1727 4.61837 -4.59946 0
M  V30 246 N 26.6058 1.57591 -0.0167156 0
M  V30 247 C 27.8828 1.82547 0.702564 0
M  V30 248 C 28.2628 0.898018 1.91047 0
M  V30 249 O 27.6108 -0.0493456 2.28447 0
M  V30 250 C 27.8208 3.31459 1.09251 0
M  V30 251 C 29.1688 3.97622 1.48937 0
M  V30 252 O 30.1928 3.35881 1.18584 0
M  V30 253 O 29.0518 5.06415 2.05442 0
M  V30 254 H 26.1458 0.752268 0.343544 0
M  V30 255 H 28.6918 1.69644 -0.0434495 0
M  V30 256 H 27.4638 3.9061 0.23227 0
M  V30 257 H 27.0868 3.49422 1.89709 0
M  V30 258 N 28.0839 -0.256276 1.55502 0
M  V30 259 C 29.4949 -0.826068 1.67431 0
M  V30 260 C 29.8459 -1.86396 0.612446 0
M  V30 261 O 28.9709 -2.15031 -0.243025 0
M  V30 262 C 29.5659 -1.50512 3.03532 0
M  V30 263 C 28.1249 -2.02273 3.17431 0
M  V30 264 C 27.2719 -0.870548 2.63281 0
M  V30 265 H 30.2229 -0.0322728 1.58667 0
M  V30 266 H 30.2439 -2.37279 2.97454 0
M  V30 267 H 29.7559 -0.749484 3.80794 0
M  V30 268 H 27.8569 -2.80746 2.44974 0
M  V30 269 H 27.9699 -2.22655 4.24219 0
M  V30 270 H 26.3339 -1.26851 2.20864 0
M  V30 271 H 27.1169 -0.128149 3.43061 0
M  V30 272 N 29.562 -1.4872 -0.521534 0
M  V30 273 C 30.492 -1.66771 -1.63431 0
M  V30 274 C 31.473 -0.516499 -1.62069 0
M  V30 275 O 32.658 -0.750013 -1.79132 0
M  V30 276 C 29.788 -1.71515 -3.01993 0
M  V30 277 C 28.742 -2.86222 -3.18216 0
M  V30 278 C 28.068 -2.76061 -4.57924 0
M  V30 279 C 29.368 -4.27419 -3.00184 0
M  V30 280 H 31.062 -2.59932 -1.48579 0
M  V30 281 H 28.608 -1.25089 -0.713358 0
M  V30 282 H 30.561 -1.82731 -3.7972 0
M  V30 283 H 29.285 -0.749393 -3.17886 0
M  V30 284 H 27.944 -2.74575 -2.42908 0
M  V30 285 H 27.592 -1.77437 -4.70665 0
M  V30 286 H 27.292 -3.53037 -4.69722 0
M  V30 287 H 28.816 -2.89256 -5.37739 0
M  V30 288 H 30.23 -4.39855 -3.67697 0
M  V30 289 H 28.627 -5.05458 -3.2347 0
M  V30 290 H 29.697 -4.43293 -1.96518 0
M  V30 291 N 31.0401 0.771051 -1.3745 0
M  V30 292 C 32.0031 1.86598 -1.33093 0
M  V30 293 C 33.0031 1.59076 -0.234845 0
M  V30 294 O 34.1931 1.67145 -0.490732 0
M  V30 295 C 31.3251 3.23747 -1.06773 0
M  V30 296 H 32.5181 1.91873 -2.30488 0
M  V30 297 H 30.0711 0.970876 -1.2249 0
M  V30 298 H 30.8061 3.24148 -0.099129 0
M  V30 299 H 30.5911 3.45115 -1.86112 0
M  V30 300 H 32.0811 4.03824 -1.06377 0
M  V30 301 N 32.5182 1.22032 0.997298 0
M  V30 302 C 33.7642 1.04376 1.73878 0
M  V30 303 C 34.0972 -0.420716 1.89588 0
M  V30 304 O 33.3722 -1.31202 1.43583 0
M  V30 305 C 33.6552 1.75047 3.14691 0
M  V30 306 C 33.5082 3.29062 3.06656 0
M  V30 307 C 34.8272 1.49928 4.13775 0
M  V30 308 H 31.9462 0.380578 0.631133 0
M  V30 309 H 34.5882 1.50312 1.16217 0
M  V30 310 H 32.7382 1.35996 3.63919 0
M  V30 311 H 34.4102 3.7753 2.65083 0
M  V30 312 H 32.6532 3.58967 2.43568 0
M  V30 313 H 33.3242 3.73683 4.06282 0
M  V30 314 H 35.8002 1.83842 3.73285 0
M  V30 315 H 34.6762 2.01878 5.10428 0
M  V30 316 H 34.9372 0.430929 4.39995 0
M  V30 317 N 33.9963 -1.19345 1.0293 0
M  V30 318 C 34.9593 -2.20793 0.615069 0
M  V30 319 C 35.9593 -1.57553 -0.321533 0
M  V30 320 O 37.1493 -1.73862 -0.108483 0
M  V30 321 C 34.2813 -3.40754 -0.0999222 0
M  V30 322 H 35.4743 -2.58955 1.51269 0
M  V30 323 H 33.0273 -1.3303 0.820534 0
M  V30 324 H 33.7623 -3.0811 -1.01187 0
M  V30 325 H 33.5473 -3.87889 0.57309 0
M  V30 326 H 35.0373 -4.15898 -0.376645 0
M  V30 327 N 35.4744 -0.807222 -1.35358 0
M  V30 328 C 36.4044 -0.232509 -2.3234 0
M  V30 329 C 37.3854 0.642386 -1.57504 0
M  V30 330 O 38.5704 0.572526 -1.85569 0
M  V30 331 C 35.7004 0.619238 -3.41735 0
M  V30 332 C 34.6544 -0.157215 -4.27711 0
M  V30 333 C 33.9804 0.816273 -5.28433 0
M  V30 334 C 35.2804 -1.35656 -5.04376 0
M  V30 335 H 36.9744 -1.04276 -2.80654 0
M  V30 336 H 34.5204 -0.50288 -1.34934 0
M  V30 337 H 36.4734 1.03137 -4.08584 0
M  V30 338 H 35.1974 1.46239 -2.92031 0
M  V30 339 H 33.8564 -0.550525 -3.62443 0
M  V30 340 H 33.5044 1.65494 -4.74996 0
M  V30 341 H 33.2044 0.301067 -5.86828 0
M  V30 342 H 34.7284 1.22659 -5.98153 0
M  V30 343 H 36.1424 -1.01927 -5.64166 0
M  V30 344 H 34.5394 -1.8063 -5.7227 0
M  V30 345 H 35.6094 -2.14288 -4.34981 0
M  V30 346 N 36.9525 1.47285 -0.560781 0
M  V30 347 C 38.1775 2.07359 -0.0410566 0
M  V30 348 C 38.6025 1.41017 1.24483 0
M  V30 349 O 37.9605 0.486368 1.74654 0
M  V30 350 C 38.0085 3.6035 0.134123 0
M  V30 351 O 37.1125 3.94681 1.19587 0
M  V30 352 H 36.4535 0.661887 -0.0529291 0
M  V30 353 H 38.9835 1.89252 -0.777482 0
M  V30 354 H 38.9935 4.0652 0.347207 0
M  V30 355 H 37.6685 4.08034 -0.805047 0
M  V30 356 H 36.2455 3.60251 0.962987 0
M  V30 357 N 38.4306 0.297415 1.54768 0
M  V30 358 C 39.8466 -0.0560823 1.59501 0
M  V30 359 C 40.0466 -1.52725 1.31444 0
M  V30 360 O 39.1026 -2.27947 1.08611 0
M  V30 361 C 40.4156 0.338631 2.98787 0
M  V30 362 C 41.9636 0.287097 3.11681 0
M  V30 363 C 42.4386 0.656579 4.53269 0
M  V30 364 N 43.9296 0.608977 4.59179 0
M  V30 365 C 44.6646 0.867385 5.66802 0
M  V30 366 N 44.1606 1.19157 6.82476 0
M  V30 367 N 45.9536 0.794687 5.56454 0
M  V30 368 H 38.1046 1.25624 1.71267 0
M  V30 369 H 40.3676 0.509057 0.799728 0
M  V30 370 H 40.0736 1.36263 3.2423 0
M  V30 371 H 39.9476 -0.309508 3.75928 0
M  V30 372 H 42.3346 -0.727649 2.85988 0
M  V30 373 H 42.4156 0.969809 2.36703 0
M  V30 374 H 42.0596 1.66912 4.7969 0
M  V30 375 H 41.9896 -0.0481649 5.26578 0
M  V30 376 H 44.4806 0.369198 3.76092 0
M  V30 377 H 44.7936 1.37482 7.60473 0
M  V30 378 H 43.1386 1.22958 6.84037 0
M  V30 379 H 46.3296 0.541098 4.64962 0
M  V30 380 H 46.5026 0.999445 6.40246 0
M  V30 381 N 39.9087 -1.5758 0.0250728 0
M  V30 382 C 41.1567 -1.91255 -0.653151 0
M  V30 383 C 41.4777 -0.901691 -1.729 0
M  V30 384 O 40.7477 0.0573785 -1.95816 0
M  V30 385 H 39.3277 -0.705942 -0.244243 0
M  V30 386 H 41.9897 -1.94767 0.0719209 0
M  V30 387 H 41.0857 -2.91752 -1.10847 0
M  V30 388 N 41.3868 0.248026 -1.55636 0
M  V30 389 C 42.8028 0.596483 -1.48035 0
M  V30 390 C 43.0028 1.88386 -0.715039 0
M  V30 391 O 42.0588 2.51319 -0.243944 0
M  V30 392 C 43.3718 0.700258 -2.92433 0
M  V30 393 C 44.9198 0.792659 -3.02797 0
M  V30 394 C 45.3948 0.928005 -4.485 0
M  V30 395 N 46.8858 0.992903 -4.52433 0
M  V30 396 C 47.6208 1.11687 -5.62418 0
M  V30 397 N 47.1168 1.20645 -6.82214 0
M  V30 398 N 48.9098 1.14994 -5.50212 0
M  V30 399 H 41.0608 -0.597109 -2.03834 0
M  V30 400 H 43.3238 -0.205925 -0.925364 0
M  V30 401 H 43.0298 -0.175658 -3.51261 0
M  V30 402 H 42.9038 1.57255 -3.42857 0
M  V30 403 H 45.2908 1.65903 -2.4405 0
M  V30 404 H 45.3718 -0.104762 -2.55585 0
M  V30 405 H 45.0158 0.0661971 -5.07857 0
M  V30 406 H 44.9458 1.84045 -4.93391 0
M  V30 407 H 47.4368 0.935064 -3.66149 0
M  V30 408 H 47.7498 1.30008 -7.61786 0
M  V30 409 H 46.0948 1.17605 -6.84977 0
M  V30 410 H 49.2858 1.07643 -4.55555 0
M  V30 411 H 49.4588 1.24311 -6.35965 0
M  V30 412 N 42.8649 1.48995 0.513639 0
M  V30 413 C 43.7969 1.60836 1.63293 0
M  V30 414 C 44.8099 0.491701 1.55197 0
M  V30 415 O 45.9989 0.763238 1.6136 0
M  V30 416 C 43.0989 1.53731 3.02027 0
M  V30 417 C 42.2719 2.80715 3.35437 0
M  V30 418 C 41.3309 2.66837 4.53525 0
M  V30 419 O 40.3569 3.40753 4.55934 0
M  V30 420 N 41.5589 1.77539 5.52684 0
M  V30 421 H 44.3239 2.57366 1.53566 0
M  V30 422 H 41.8849 1.45925 0.701259 0
M  V30 423 H 43.8769 1.42118 3.78926 0
M  V30 424 H 42.4469 0.651092 3.05744 0
M  V30 425 H 41.6669 3.06772 2.47557 0
M  V30 426 H 42.9549 3.64927 3.54551 0
M  V30 427 H 42.3529 1.16719 5.53528 0
M  V30 428 H 40.9099 1.71856 6.28736 0
M  V30 429 N 44.343 -0.763751 1.37857 0
M  V30 430 C 45.273 -1.89103 1.36975 0
M  V30 431 C 46.254 -1.68439 0.237152 0
M  V30 432 O 47.439 -1.8918 0.438713 0
M  V30 433 C 44.569 -3.26496 1.18395 0
M  V30 434 C 43.523 -3.61741 2.28751 0
M  V30 435 C 42.849 -4.97762 1.95286 0
M  V30 436 C 44.149 -3.67665 3.70972 0
M  V30 437 H 45.843 -1.90099 2.31307 0
M  V30 438 H 43.389 -0.91319 1.11341 0
M  V30 439 H 45.342 -4.05003 1.16406 0
M  V30 440 H 44.066 -3.25955 0.205215 0
M  V30 441 H 42.725 -2.85547 2.29909 0
M  V30 442 H 42.373 -4.93769 0.959221 0
M  V30 443 H 42.073 -5.22313 2.69189 0
M  V30 444 H 43.597 -5.7866 1.94898 0
M  V30 445 H 45.011 -4.36307 3.719 0
M  V30 446 H 43.408 -4.03718 4.43995 0
M  V30 447 H 44.478 -2.68134 4.0402 0
M  V30 448 N 45.8211 -1.22559 -0.990812 0
M  V30 449 C 46.7841 -0.998863 -2.0629 0
M  V30 450 C 47.7841 0.0354834 -1.60761 0
M  V30 451 O 48.9741 -0.203231 -1.7301 0
M  V30 452 C 46.1061 -0.509203 -3.37076 0
M  V30 453 H 47.2991 -1.95014 -2.27837 0
M  V30 454 H 44.8521 -1.04456 -1.16269 0
M  V30 455 H 45.5871 0.446335 -3.21214 0
M  V30 456 H 45.3721 -1.25547 -3.71457 0
M  V30 457 H 46.8621 -0.370888 -4.1595 0
M  V30 458 N 47.2992 1.18797 -1.03562 0
M  V30 459 C 48.2622 2.20464 -0.626769 0
M  V30 460 C 49.2622 1.57721 0.313173 0
M  V30 461 O 50.4522 1.73917 0.0992615 0
M  V30 462 C 47.5842 3.40802 0.0818498 0
M  V30 463 H 48.7772 2.58149 -1.5264 0
M  V30 464 H 46.3302 1.32593 -0.827578 0
M  V30 465 H 47.0652 3.08642 0.995518 0
M  V30 466 H 46.8502 3.8758 -0.593652 0
M  V30 467 H 48.3402 4.16092 0.354584 0
M  V30 468 N 48.7773 0.814389 1.34928 0
M  V30 469 C 50.1883 0.458364 1.80986 0
M  V30 470 C 50.5393 -1.02042 1.67577 0
M  V30 471 O 49.6643 -1.79352 1.21086 0
M  V30 472 C 50.2593 0.825212 3.28597 0
M  V30 473 C 48.8183 0.521677 3.72767 0
M  V30 474 C 47.9653 1.04668 2.56788 0
M  V30 475 H 50.9163 1.00533 1.22795 0
M  V30 476 H 50.9373 0.12571 3.80292 0
M  V30 477 H 50.4493 1.90154 3.38324 0
M  V30 478 H 48.5503 -0.545589 3.68584 0
M  V30 479 H 48.6633 1.05977 4.67232 0
M  V30 480 H 47.0273 0.468622 2.50352 0
M  V30 481 H 47.8103 2.12927 2.6929 0
M  V30 482 N 50.2554 -1.46986 0.568584 0
M  V30 483 C 51.6664 -1.86188 0.138219 0
M  V30 484 C 52.0174 -1.47388 -1.29504 0
M  V30 485 O 51.1424 -0.88219 -1.97602 0
M  V30 486 C 51.7374 -3.3792 0.244065 0
M  V30 487 C 50.2964 -3.76171 -0.131335 0
M  V30 488 C 49.4434 -2.71027 0.586465 0
M  V30 489 H 52.3944 -1.38342 0.777645 0
M  V30 490 H 52.4154 -3.76729 -0.534351 0
M  V30 491 H 51.9274 -3.66128 1.28731 0
M  V30 492 H 50.0284 -3.5358 -1.17526 0
M  V30 493 H 50.1414 -4.78523 0.235146 0
M  V30 494 H 48.5054 -2.54684 0.0282722 0
M  V30 495 H 49.2884 -3.02077 1.63109 0
M  V30 496 N 51.7335 -0.305618 -1.54608 0
M  V30 497 C 52.9815 0.301701 -1.99835 0
M  V30 498 C 53.3025 1.54054 -1.19551 0
M  V30 499 O 52.5725 1.93702 -0.292658 0
M  V30 500 H 51.1525 0.114468 -0.738178 0
M  V30 501 H 53.8145 -0.418016 -1.90364 0
M  V30 502 H 52.9105 0.570548 -3.06841 0
M  V30 503 N 53.2116 1.57565 -0.0334293 0
M  V30 504 C 54.6276 1.56297 0.322997 0
M  V30 505 C 54.8276 1.03945 1.7262 0
M  V30 506 O 53.8836 0.688109 2.42943 0
M  V30 507 C 55.1966 3.00232 0.167664 0
M  V30 508 C 56.7446 3.12078 0.240107 0
M  V30 509 C 57.2196 4.57859 0.113513 0
M  V30 510 N 58.7106 4.62887 0.170359 0
M  V30 511 C 59.4456 5.73319 0.0962517 0
M  V30 512 N 58.9416 6.92794 -0.0291881 0
M  V30 513 N 60.7346 5.61898 0.150551 0
M  V30 514 H 52.8856 1.89923 -0.950956 0
M  V30 515 H 55.1486 0.873824 -0.367608 0
M  V30 516 H 54.8546 3.42501 -0.799102 0
M  V30 517 H 54.7286 3.654 0.936083 0
M  V30 518 H 57.1156 2.69718 1.19733 0
M  V30 519 H 57.1966 2.49623 -0.558763 0
M  V30 520 H 56.8406 5.009 -0.840314 0
M  V30 521 H 56.7706 5.18299 0.931302 0
M  V30 522 H 59.2616 3.76954 0.26728 0
M  V30 523 H 59.5746 7.7276 -0.0789252 0
M  V30 524 H 57.9196 6.94971 -0.0640299 0
M  V30 525 H 61.1106 4.67448 0.246981 0
M  V30 526 H 61.2836 6.47938 0.0893365 0
M  V30 527 N 54.6897 -0.239769 1.55765 0
M  V30 528 C 55.9377 -0.964892 1.77579 0
M  V30 529 C 56.2587 -1.85582 0.598699 0
M  V30 530 O 55.5287 -1.92075 -0.385226 0
M  V30 531 H 54.1087 -0.359265 0.654933 0
M  V30 532 H 56.7707 -0.256001 1.93211 0
M  V30 533 H 55.8667 -1.58243 2.69009 0
M  V30 534 N 56.1678 -1.49265 -0.50573 0
M  V30 535 C 57.4078 -1.60128 -1.27038 0
M  V30 536 C 57.7718 -0.279557 -1.89954 0
M  V30 537 O 58.9728 -0.263329 -2.67507 0
M  V30 538 C 57.2438 -2.72507 -2.31246 0
M  V30 539 S 58.8028 -3.0329 -3.17113 0
M  V30 540 H 55.6208 -0.564863 -0.4318 0
M  V30 541 H 58.2228 -1.86902 -0.573397 0
M  V30 542 H 56.9268 -3.67068 -1.83546 0
M  V30 543 H 56.4578 -2.4771 -3.05619 0
M  V30 544 H 58.4728 -2.44448 -4.31809 0
M  V30 545 N 57.6459 0.756429 -1.3826 0
M  V30 546 C 58.6089 1.85176 -1.35065 0
M  V30 547 C 59.6089 1.58818 -0.251703 0
M  V30 548 O 60.7989 1.66615 -0.508433 0
M  V30 549 C 57.9309 3.22596 -1.10201 0
M  V30 550 H 59.1239 1.89417 -2.3251 0
M  V30 551 H 56.6769 0.95783 -1.23512 0
M  V30 552 H 57.4119 3.24025 -0.133504 0
M  V30 553 H 57.1969 3.43122 -1.89762 0
M  V30 554 H 58.6869 4.02673 -1.10654 0
M  V30 555 N 59.124 1.23083 0.984299 0
M  V30 556 C 60.54 0.992637 1.24975 0
M  V30 557 C 60.74 -0.308618 1.99123 0
M  V30 558 O 59.796 -1.02905 2.30579 0
M  V30 559 C 61.109 2.19698 2.05312 0
M  V30 560 C 62.657 2.24147 2.18465 0
M  V30 561 C 63.132 3.44157 3.02192 0
M  V30 562 N 64.623 3.44372 3.09777 0
M  V30 563 C 65.358 4.33886 3.74874 0
M  V30 564 N 64.854 5.3363 4.41827 0
M  V30 565 N 66.647 4.21639 3.71721 0
M  V30 566 H 58.798 2.06731 0.487453 0
M  V30 567 H 61.061 0.906339 0.277944 0
M  V30 568 H 60.767 3.1411 1.58201 0
M  V30 569 H 60.641 2.20465 3.06064 0
M  V30 570 H 63.028 1.30277 2.64786 0
M  V30 571 H 63.109 2.27415 1.17115 0
M  V30 572 H 62.753 4.38332 2.56568 0
M  V30 573 H 62.683 3.3813 4.03702 0
M  V30 574 H 65.174 2.72201 2.62135 0
M  V30 575 H 65.487 5.98196 4.89266 0
M  V30 576 H 63.832 5.37534 4.40548 0
M  V30 577 H 67.023 3.42962 3.18582 0
M  V30 578 H 67.196 4.91604 4.22173 0
M  V30 579 N 60.6021 -1.18246 1.0419 0
M  V30 580 C 61.8271 -1.92736 0.765996 0
M  V30 581 C 62.2521 -1.75728 -0.67091 0
M  V30 582 O 61.6101 -1.06825 -1.46486 0
M  V30 583 C 61.6581 -3.42148 1.13875 0
M  V30 584 O 60.7621 -4.11548 0.264954 0
M  V30 585 H 60.1031 -0.601238 0.281797 0
M  V30 586 H 62.6331 -1.49942 1.39207 0
M  V30 587 H 62.6431 -3.92858 1.1012 0
M  V30 588 H 61.3181 -3.53848 2.18551 0
M  V30 589 H 59.8951 -3.71137 0.362226 0
M  V30 590 N 62.0802 -0.821533 -1.34494 0
M  V30 591 C 63.4962 -0.507117 -1.51329 0
M  V30 592 C 63.6962 0.968964 -1.76673 0
M  V30 593 O 62.7522 1.75348 -1.81685 0
M  V30 594 C 64.0652 -1.36544 -2.67911 0
M  V30 595 C 65.6132 -1.36242 -2.81793 0
M  V30 596 C 66.0882 -2.2052 -4.01416 0
M  V30 597 N 67.5792 -2.18136 -4.08621 0
M  V30 598 C 68.3142 -2.80095 -5.00334 0
M  V30 599 N 67.8102 -3.51039 -5.9728 0
M  V30 600 N 69.6032 -2.69656 -4.93196 0
M  V30 601 H 61.7542 -1.77729 -1.16302 0
M  V30 602 H 64.0172 -0.757291 -0.570276 0
M  V30 603 H 63.7232 -2.41361 -2.55808 0
M  V30 604 H 63.5972 -1.02917 -3.62888 0
M  V30 605 H 65.9842 -0.322041 -2.93338 0
M  V30 606 H 66.0652 -1.73866 -1.87628 0
M  V30 607 H 65.7092 -3.24607 -3.90631 0
M  V30 608 H 65.6392 -1.80247 -4.94791 0
M  V30 609 H 68.1302 -1.6653 -3.39229 0
M  V30 610 H 68.4432 -3.95565 -6.63889 0
M  V30 611 H 66.7882 -3.55145 -5.97409 0
M  V30 612 H 69.9792 -2.13808 -4.16418 0
M  V30 613 H 70.1522 -3.1823 -5.64476 0
M  V30 614 N 63.5583 1.46682 -0.576371 0
M  V30 615 C 64.9693 1.86112 -0.148091 0
M  V30 616 C 65.3203 1.48073 1.2872 0
M  V30 617 O 64.4453 0.892656 1.97131 0
M  V30 618 C 65.0403 3.37786 -0.261982 0
M  V30 619 C 63.5993 3.76235 0.111384 0
M  V30 620 C 62.7463 2.70713 -0.60083 0
M  V30 621 H 65.6973 1.37927 -0.78497 0
M  V30 622 H 65.7183 3.77007 0.514364 0
M  V30 623 H 65.2303 3.6544 -1.30671 0
M  V30 624 H 63.3313 3.54198 1.15649 0
M  V30 625 H 63.4443 4.78391 -0.26052 0
M  V30 626 H 61.8083 2.54666 -0.0417783 0
M  V30 627 H 62.5913 3.01208 -1.64708 0
M  V30 628 N 65.0364 0.313813 1.54444 0
M  V30 629 C 65.9664 -0.549454 2.26943 0
M  V30 630 C 66.9474 -1.12741 1.27372 0
M  V30 631 O 68.1324 -1.15436 1.56167 0
M  V30 632 C 65.2624 -1.71523 3.01989 0
M  V30 633 C 64.2164 -1.26703 4.08816 0
M  V30 634 C 63.5424 -2.51898 4.71647 0
M  V30 635 C 64.8424 -0.388962 5.2085 0
M  V30 636 H 66.5364 0.0552661 2.99349 0
M  V30 637 H 64.0824 0.0280207 1.43973 0
M  V30 638 H 66.0354 -2.32535 3.51433 0
M  V30 639 H 64.7594 -2.34639 2.27183 0
M  V30 640 H 63.4184 -0.679896 3.6024 0
M  V30 641 H 63.0664 -3.13356 3.93468 0
M  V30 642 H 62.7664 -2.22605 5.43802 0
M  V30 643 H 64.2904 -3.1369 5.23861 0
M  V30 644 H 65.7044 -0.905107 5.6611 0
M  V30 645 H 64.1014 -0.18924 5.99802 0
M  V30 646 H 65.1714 0.582699 4.81386 0
M  V30 647 N 66.5145 -1.57545 0.0417849 0
M  V30 648 C 67.7395 -1.97035 -0.647455 0
M  V30 649 C 68.1645 -0.918775 -1.64135 0
M  V30 650 O 67.5225 0.119006 -1.80909 0
M  V30 651 C 67.5705 -3.35609 -1.31905 0
M  V30 652 O 66.6745 -3.3287 -2.43457 0
M  V30 653 H 66.0155 -0.64211 -0.169086 0
M  V30 654 H 68.5455 -2.04318 0.107399 0
M  V30 655 H 68.5555 -3.72126 -1.67291 0
M  V30 656 H 67.2305 -4.11685 -0.590586 0
M  V30 657 H 65.8075 -3.08087 -2.10088 0
M  V30 658 N 67.9926 0.231505 -1.5589 0
M  V30 659 C 69.2386 0.95877 -1.78705 0
M  V30 660 C 69.5716 1.8438 -0.609725 0
M  V30 661 O 68.8466 1.90521 0.391426 0
M  V30 662 C 69.1296 1.8062 -3.11526 0
M  V30 663 C 68.9826 0.948328 -4.39689 0
M  V30 664 C 70.3016 2.78585 -3.40703 0
M  V30 665 H 67.4206 0.347129 -0.650131 0
M  V30 666 H 70.0626 0.228259 -1.88624 0
M  V30 667 H 68.2126 2.42902 -3.03201 0
M  V30 668 H 69.8846 0.343016 -4.60023 0
M  V30 669 H 68.1276 0.253314 -4.3306 0
M  V30 670 H 68.7986 1.57543 -5.29041 0
M  V30 671 H 71.2746 2.26439 -3.49091 0
M  V30 672 H 70.1506 3.34988 -4.34826 0
M  V30 673 H 70.4116 3.55825 -2.62375 0
M  V30 674 N 69.4707 1.49531 0.497807 0
M  V30 675 C 70.7167 1.59415 1.25358 0
M  V30 676 C 71.0497 0.281422 1.9215 0
M  V30 677 O 70.3247 -0.715249 1.80871 0
M  V30 678 C 70.6077 2.75566 2.3181 0
M  V30 679 C 70.4607 4.16642 1.69498 0
M  V30 680 C 71.7797 2.87347 3.33346 0
M  V30 681 H 68.8987 0.580244 0.454408 0
M  V30 682 H 71.5407 1.81827 0.551262 0
M  V30 683 H 69.6907 2.56587 2.91711 0
M  V30 684 H 71.3627 4.47145 1.13399 0
M  V30 685 H 69.6057 4.22141 0.998978 0
M  V30 686 H 70.2767 4.93792 2.46725 0
M  V30 687 H 72.7527 3.04634 2.83438 0
M  V30 688 H 71.6287 3.70289 4.05188 0
M  V30 689 H 71.8897 1.96834 3.95865 0
M  V30 690 N 70.9488 -0.749086 1.3866 0
M  V30 691 C 72.1788 -1.53611 1.38157 0
M  V30 692 C 72.5868 -1.89177 -0.0293595 0
M  V30 693 O 71.9298 -1.53606 -1.00752 0
M  V30 694 C 71.9918 -2.86087 2.17702 0
M  V30 695 C 71.6558 -2.73034 3.66472 0
M  V30 696 C 72.6528 -2.42526 4.59866 0
M  V30 697 C 70.3378 -2.90345 4.09884 0
M  V30 698 C 72.3318 -2.29492 5.94653 0
M  V30 699 C 70.0188 -2.7693 5.4475 0
M  V30 700 C 71.0168 -2.46547 6.36949 0
M  V30 701 O 70.7048 -2.33199 7.69333 0
M  V30 702 H 70.4368 -0.481773 0.474205 0
M  V30 703 H 72.9908 -0.934465 1.82912 0
M  V30 704 H 71.2208 -3.48458 1.67672 0
M  V30 705 H 72.9098 -3.47625 2.09551 0
M  V30 706 H 73.6758 -2.28816 4.27631 0
M  V30 707 H 69.5548 -3.1299 3.38464 0
M  V30 708 H 73.0988 -2.05698 6.66584 0
M  V30 709 H 68.9958 -2.90215 5.76581 0
M  V30 710 H 69.7638 -2.48376 7.79905 0
M  V30 711 N 72.4269 -1.23603 -0.977757 0
M  V30 712 C 73.6729 -1.07129 -1.72195 0
M  V30 713 C 74.0059 0.390501 -1.90233 0
M  V30 714 O 73.2809 1.28902 -1.45653 0
M  V30 715 C 73.5639 -1.80031 -3.11867 0
M  V30 716 C 73.4169 -3.33899 -3.01383 0
M  V30 717 C 74.7359 -1.56492 -4.11337 0
M  V30 718 H 71.8549 -0.390571 -0.624999 0
M  V30 719 H 74.4969 -1.52142 -1.13811 0
M  V30 720 H 72.6469 -1.41768 -3.6171 0
M  V30 721 H 74.3189 -3.81699 -2.59043 0
M  V30 722 H 72.5619 -3.62796 -2.37827 0
M  V30 723 H 73.2329 -3.801 -4.00285 0
M  V30 724 H 75.7089 -1.89757 -3.70313 0
M  V30 725 H 74.5849 -2.09973 -5.07151 0
M  V30 726 H 74.8459 -0.500874 -4.39254 0
M  V30 727 N 73.905 1.17692 -1.04816 0
M  V30 728 C 74.835 2.23777 -0.666791 0
M  V30 729 C 75.816 1.66796 0.33361 0
M  V30 730 O 77.001 1.93039 0.212042 0
M  V30 731 C 74.131 3.47281 -0.0367933 0
M  V30 732 C 73.085 4.17059 -0.961546 0
M  V30 733 C 72.411 5.34342 -0.195626 0
M  V30 734 C 73.711 4.69713 -2.28402 0
M  V30 735 H 75.405 2.55933 -1.55367 0
M  V30 736 H 72.951 1.23019 -0.748484 0
M  V30 737 H 74.904 4.20706 0.241775 0
M  V30 738 H 73.628 3.14381 0.885004 0
M  V30 739 H 72.287 3.45541 -1.22462 0
M  V30 740 H 71.935 4.97692 0.728816 0
M  V30 741 H 71.635 5.81966 -0.811775 0
M  V30 742 H 73.159 6.10553 0.0757473 0
M  V30 743 H 74.573 5.34794 -2.06563 0
M  V30 744 H 72.97 5.279 -2.8538 0
M  V30 745 H 74.04 3.86726 -2.92525 0
M  V30 746 N 75.3831 0.828654 1.34056 0
M  V30 747 C 76.6111 0.43262 2.02326 0
M  V30 748 C 77.0261 -0.963147 1.62385 0
M  V30 749 O 76.3831 -1.62425 0.832121 0
M  V30 750 C 76.4341 0.53182 3.57567 0
M  V30 751 O 76.1551 1.87258 3.96063 0
M  V30 752 C 77.6561 0.131422 4.43105 0
M  V30 753 H 74.8761 0.172923 0.648335 0
M  V30 754 H 77.4201 1.1184 1.71208 0
M  V30 755 H 75.5751 -0.105938 3.87255 0
M  V30 756 H 75.9891 1.85087 4.90758 0
M  V30 757 H 77.4631 0.251904 5.51425 0
M  V30 758 H 77.9401 -0.925645 4.29335 0
M  V30 759 H 78.5461 0.743207 4.18756 0
M  V30 760 N 76.8612 -1.46375 0.584142 0
M  V30 761 C 78.2772 -1.57694 0.245929 0
M  V30 762 C 78.4772 -1.57903 -1.25175 0
M  V30 763 O 77.5332 -1.49676 -2.03355 0
M  V30 764 C 78.8462 -2.87028 0.896402 0
M  V30 765 C 80.3942 -3.00662 0.870127 0
M  V30 766 C 80.8692 -4.32734 1.50017 0
M  V30 767 N 82.3602 -4.39436 1.46458 0
M  V30 768 C 83.0952 -5.40248 1.92144 0
M  V30 769 N 82.5912 -6.47726 2.4581 0
M  V30 770 N 84.3842 -5.31459 1.83052 0
M  V30 771 H 76.5352 -1.44483 1.55687 0
M  V30 772 H 78.7982 -0.689291 0.650831 0
M  V30 773 H 78.5042 -2.9269 1.95002 0
M  V30 774 H 78.3782 -3.75014 0.405486 0
M  V30 775 H 80.7652 -2.94581 -0.174871 0
M  V30 776 H 80.8462 -2.14148 1.39908 0
M  V30 777 H 80.4902 -4.39573 2.54437 0
M  V30 778 H 80.4202 -5.18025 0.946432 0
M  V30 779 H 82.9112 -3.62367 1.07231 0
M  V30 780 H 83.2242 -7.20863 2.78525 0
M  V30 781 H 81.5692 -6.48542 2.49836 0
M  V30 782 H 84.7602 -4.46396 1.40883 0
M  V30 783 H 84.9332 -6.09881 2.18973 0
M  V30 784 N 78.3393 -0.321999 -1.54275 0
M  V30 785 C 79.2493 0.553631 -2.27974 0
M  V30 786 C 80.2653 1.13054 -1.32268 0
M  V30 787 O 81.4413 1.15084 -1.6528 0
M  V30 788 C 78.5063 1.69927 -3.02201 0
M  V30 789 C 77.5673 1.15433 -4.1349 0
M  V30 790 C 76.8003 2.24537 -4.84168 0
M  V30 791 O 77.0233 3.44852 -4.5435 0
M  V30 792 O 75.9573 1.90044 -5.7111 0
M  V30 793 H 79.7833 -0.0448345 -3.03667 0
M  V30 794 H 77.3683 -0.0877418 -1.49142 0
M  V30 795 H 79.2503 2.3663 -3.48689 0
M  V30 796 H 77.9253 2.28395 -2.29385 0
M  V30 797 H 76.8323 0.452436 -3.71354 0
M  V30 798 H 78.1653 0.614805 -4.88345 0
M  V30 799 N 79.8174 1.5752 -0.0501392 0
M  V30 800 C 81.2284 1.80271 0.485705 0
M  V30 801 C 81.5794 0.96228 1.70981 0
M  V30 802 O 80.7044 0.178578 2.15662 0
M  V30 803 C 81.2994 3.26957 0.887938 0
M  V30 804 C 79.8584 3.5063 1.36877 0
M  V30 805 C 79.0054 2.75165 0.343468 0
M  V30 806 H 81.9564 1.56281 -0.276028 0
M  V30 807 H 81.9774 3.37821 1.75093 0
M  V30 808 H 81.4894 3.881 -0.0031809 0
M  V30 809 H 79.5904 2.94766 2.27911 0
M  V30 810 H 79.7034 4.59343 1.36164 0
M  V30 811 H 78.0674 2.4127 0.816128 0
M  V30 812 H 78.8504 3.39034 -0.539548 0
M  V30 813 N 81.2955 -0.223234 1.56011 0
M  V30 814 C 82.2275 -1.30006 1.88762 0
M  V30 815 C 83.2405 -1.43129 0.775746 0
M  V30 816 O 84.4295 -1.44057 1.05403 0
M  V30 817 C 81.5295 -2.67589 2.07965 0
M  V30 818 C 80.7025 -2.76434 3.38973 0
M  V30 819 C 79.7615 -3.95019 3.47629 0
M  V30 820 O 78.7875 -3.83436 4.20672 0
M  V30 821 N 79.9895 -5.09249 2.78649 0
M  V30 822 H 82.7545 -1.02238 2.81722 0
M  V30 823 H 80.3155 -0.413278 1.56536 0
M  V30 824 H 82.3075 -3.45297 2.11073 0
M  V30 825 H 80.8775 -2.87964 1.21638 0
M  V30 826 H 80.0975 -1.85216 3.47978 0
M  V30 827 H 81.3855 -2.79313 4.25278 0
M  V30 828 H 80.7835 -5.21556 2.19081 0
M  V30 829 H 79.3405 -5.85007 2.8742 0
M  V30 830 N 82.7736 -1.49793 -0.48987 0
M  V30 831 C 84.1846 -1.52914 -1.07118 0
M  V30 832 C 84.5356 -0.321738 -1.93544 0
M  V30 833 O 83.6606 0.567338 -2.08831 0
M  V30 834 C 84.2556 -2.771 -1.94938 0
M  V30 835 C 82.8146 -2.82963 -2.48212 0
M  V30 836 C 81.9616 -2.46972 -1.26096 0
M  V30 837 H 84.9126 -1.56329 -0.273289 0
M  V30 838 H 84.9336 -2.57892 -2.79771 0
M  V30 839 H 84.4456 -3.64959 -1.32009 0
M  V30 840 H 82.5466 -1.99411 -3.14748 0
M  V30 841 H 82.6596 -3.85406 -2.84603 0
M  V30 842 H 81.0236 -1.98994 -1.58976 0
M  V30 843 H 81.8066 -3.37118 -0.648581 0
M  V30 844 N 84.2517 0.741722 -1.39055 0
M  V30 845 C 85.4997 1.49818 -1.35643 0
M  V30 846 C 85.8207 1.94938 0.0491642 0
M  V30 847 O 85.0907 1.68505 0.999141 0
M  V30 848 H 83.6707 0.555755 -0.499144 0
M  V30 849 H 86.3327 0.880957 -1.73854 0
M  V30 850 H 85.4287 2.38348 -2.01486 0
M  V30 851 N 85.7298 1.2412 0.971189 0
M  V30 852 C 86.6598 1.05508 2.08304 0
M  V30 853 C 87.6408 -0.0308864 1.70072 0
M  V30 854 O 88.8258 0.135521 1.93727 0
M  V30 855 C 85.9558 0.655365 3.4106 0
M  V30 856 C 84.9098 1.68971 3.93234 0
M  V30 857 C 84.2358 1.14516 5.22293 0
M  V30 858 C 85.5358 3.08487 4.21465 0
M  V30 859 H 87.2298 1.98507 2.24132 0
M  V30 860 H 84.7758 0.955821 1.07704 0
M  V30 861 H 86.7288 0.51217 4.18276 0
M  V30 862 H 85.4528 -0.31032 3.25122 0
M  V30 863 H 84.1118 1.82106 3.18171 0
M  V30 864 H 83.7598 0.170189 5.02712 0
M  V30 865 H 83.4598 1.83635 5.58168 0
M  V30 866 H 84.9838 1.01401 6.02121 0
M  V30 867 H 86.3978 2.98601 4.89398 0
M  V30 868 H 84.7948 3.74926 4.68562 0
M  V30 869 H 85.8648 3.56787 3.28376 0
M  V30 870 N 87.2079 -1.17134 1.05439 0
M  V30 871 C 88.1179 -2.24878 0.668365 0
M  V30 872 C 89.1339 -1.71186 -0.311687 0
M  V30 873 O 90.3099 -2.00738 -0.163161 0
M  V30 874 C 87.3749 -3.46662 0.051648 0
M  V30 875 C 86.4359 -4.15429 1.08246 0
M  V30 876 C 85.6689 -5.31399 0.495082 0
M  V30 877 O 85.8919 -5.66153 -0.694743 0
M  V30 878 O 84.8259 -5.89187 1.23056 0
M  V30 879 H 88.6519 -2.60189 1.56637 0
M  V30 880 H 86.2369 -1.24482 0.826104 0
M  V30 881 H 88.1189 -4.20394 -0.290966 0
M  V30 882 H 86.7939 -3.13142 -0.819971 0
M  V30 883 H 85.7009 -3.43704 1.47711 0
M  V30 884 H 87.0339 -4.52982 1.92532 0
M  V30 885 N 88.686 -0.835752 -1.33615 0
M  V30 886 C 90.097 -0.487099 -1.80234 0
M  V30 887 C 90.448 0.993627 -1.69179 0
M  V30 888 O 89.573 1.77403 -1.23924 0
M  V30 889 C 90.168 -0.877385 -3.27242 0
M  V30 890 C 88.727 -0.580915 -3.7189 0
M  V30 891 C 87.874 -1.0874 -2.5509 0
M  V30 892 H 90.825 -1.02474 -1.2118 0
M  V30 893 H 90.846 -0.186195 -3.80044 0
M  V30 894 H 90.358 -1.95512 -3.35256 0
M  V30 895 H 88.459 0.486881 -3.69405 0
M  V30 896 H 88.572 -1.13396 -4.65487 0
M  V30 897 H 86.936 -0.508392 -2.49575 0
M  V30 898 H 87.719 -2.17184 -2.65868 0
M  V30 899 N 90.1641 1.46063 -0.591896 0
M  V30 900 C 91.5801 1.57561 -0.254288 0
M  V30 901 C 91.7801 1.58565 1.24336 0
M  V30 902 O 90.8361 1.50753 2.02558 0
M  V30 903 C 92.1491 2.86549 -0.911611 0
M  V30 904 C 93.6971 3.00197 -0.886059 0
M  V30 905 C 94.1721 4.31933 -1.5231 0
M  V30 906 N 95.6631 4.38654 -1.48786 0
M  V30 907 C 96.3981 5.39222 -1.95006 0
M  V30 908 N 95.8941 6.46414 -2.49241 0
M  V30 909 N 97.6871 5.3048 -1.85868 0
M  V30 910 H 89.8381 1.43655 -1.56451 0
M  V30 911 H 92.1011 0.68583 -0.654478 0
M  V30 912 H 91.8071 2.91651 -1.96551 0
M  V30 913 H 91.6811 3.74794 -0.425368 0
M  V30 914 H 94.0681 2.9467 0.159246 0
M  V30 915 H 94.1491 2.13403 -1.41041 0
M  V30 916 H 93.7931 4.38217 -2.56765 0
M  V30 917 H 93.7231 5.17516 -0.973891 0
M  V30 918 H 96.2141 3.61793 -1.09151 0
M  V30 919 H 96.5271 7.19376 -2.82344 0
M  V30 920 H 94.8721 6.47208 -2.53272 0
M  V30 921 H 98.0631 4.45643 -1.43248 0
M  V30 922 H 98.2361 6.08711 -2.22204 0
M  V30 923 N 91.6422 0.330177 1.54103 0
M  V30 924 C 92.5522 -0.541534 2.28264 0
M  V30 925 C 93.5682 -1.12351 1.32866 0
M  V30 926 O 94.7442 -1.14206 1.65888 0
M  V30 927 C 91.8092 -1.68322 3.03098 0
M  V30 928 C 90.8702 -1.13238 4.14096 0
M  V30 929 C 90.1032 -2.21966 4.85352 0
M  V30 930 O 90.3262 -3.42437 4.56172 0
M  V30 931 O 89.2602 -1.87013 5.7211 0
M  V30 932 H 93.0862 0.060938 3.03639 0
M  V30 933 H 90.6712 0.09565 1.49093 0
M  V30 934 H 92.5532 -2.34777 3.49939 0
M  V30 935 H 91.2282 -2.27176 2.30593 0
M  V30 936 H 90.1352 -0.432736 3.71589 0
M  V30 937 H 91.4682 -0.588898 4.88664 0
M  V30 938 N 93.1203 -1.57491 0.0584922 0
M  V30 939 C 94.3683 -1.92597 -0.612436 0
M  V30 940 C 94.6893 -0.938162 -1.70949 0
M  V30 941 O 93.9593 0.0158301 -1.95894 0
M  V30 942 H 92.5393 -0.710964 -0.229214 0
M  V30 943 H 95.2013 -1.94571 0.113218 0
M  V30 944 H 94.2973 -2.94038 -1.04633 0
M  V30 945 N 94.5984 0.214957 -1.56127 0
M  V30 946 C 95.8264 0.955092 -1.83536 0
M  V30 947 C 96.2414 1.77677 -0.638472 0
M  V30 948 O 95.5984 1.78219 0.392968 0
M  V30 949 C 95.6494 1.86734 -3.09536 0
M  V30 950 O 95.3704 1.07887 -4.24608 0
M  V30 951 C 96.8714 2.72082 -3.4998 0
M  V30 952 H 94.0914 0.279611 -0.609966 0
M  V30 953 H 96.6354 0.228197 -2.03223 0
M  V30 954 H 94.7904 2.5481 -2.91806 0
M  V30 955 H 95.2044 1.69872 -4.9623 0
M  V30 956 H 96.6784 3.31782 -4.41163 0
M  V30 957 H 97.1554 3.44806 -2.7204 0
M  V30 958 H 97.7614 2.09409 -3.70173 0
M  V30 959 N 96.0765 1.50051 0.48192 0
M  V30 960 C 96.9865 1.7089 1.60728 0
M  V30 961 C 98.0025 0.591788 1.63627 0
M  V30 962 O 99.1785 0.868817 1.81696 0
M  V30 963 C 96.2435 1.78855 2.97005 0
M  V30 964 C 95.3045 3.02537 3.04581 0
M  V30 965 C 94.5375 3.10112 4.34357 0
M  V30 966 O 94.7605 2.24765 5.24249 0
M  V30 967 O 93.6945 4.02747 4.47301 0
M  V30 968 H 97.5205 2.66264 1.46072 0
M  V30 969 H 95.1055 1.34018 0.660264 0
M  V30 970 H 96.9875 1.86336 3.77964 0
M  V30 971 H 95.6625 0.866628 3.11883 0
M  V30 972 H 94.5695 3.00563 2.22739 0
M  V30 973 H 95.9025 3.94272 2.94636 0
M  V30 974 N 97.5546 -0.734337 1.39446 0
M  V30 975 C 98.5176 -1.83004 1.37994 0
M  V30 976 C 99.5176 -1.58397 0.276938 0
M  V30 977 O 100.708 -1.65785 0.534875 0
M  V30 978 C 97.8396 -3.20802 1.1532 0
M  V30 979 H 99.0326 -1.85694 2.35494 0
M  V30 980 H 96.5856 -0.938059 1.25021 0
M  V30 981 H 97.3206 -3.23772 0.185036 0
M  V30 982 H 97.1056 -3.4006 1.95197 0
M  V30 983 H 98.5956 -4.00862 1.17046 0
M  V30 984 N 99.0327 -1.24633 -0.964593 0
M  V30 985 C 99.9427 -1.05859 -2.09359 0
M  V30 986 C 100.959 0.00148855 -1.74 0
M  V30 987 O 102.135 -0.197346 -2.00431 0
M  V30 988 C 99.1997 -0.668879 -3.40187 0
M  V30 989 C 98.2607 -1.80578 -3.89474 0
M  V30 990 C 97.4937 -1.43457 -5.14058 0
M  V30 991 O 97.7167 -0.325775 -5.69469 0
M  V30 992 O 96.6507 -2.2613 -5.57807 0
M  V30 993 H 100.477 -2.00516 -2.28094 0
M  V30 994 H 98.0617 -1.03481 -1.0776 0
M  V30 995 H 99.9437 -0.463211 -4.18846 0
M  V30 996 H 98.6187 0.248536 -3.22744 0
M  V30 997 H 97.5257 -2.06623 -3.11862 0
M  V30 998 H 98.8587 -2.70208 -4.11398 0
M  V30 999 N 100.511 1.16574 -1.06058 0
M  V30 1000 C 101.922 1.68662 -0.800632 0
M  V30 1001 C 102.273 1.84184 0.67608 0
M  V30 1002 O 101.398 1.53568 1.52466 0
M  V30 1003 C 101.993 3.06356 -1.44676 0
M  V30 1004 C 100.552 3.55575 -1.23465 0
M  V30 1005 C 99.6988 2.31616 -1.52477 0
M  V30 1006 H 102.65 1.00969 -1.22438 0
M  V30 1007 H 102.671 3.70636 -0.860788 0
M  V30 1008 H 102.183 2.95027 -2.52152 0
M  V30 1009 H 100.284 3.72167 -0.179527 0
M  V30 1010 H 100.397 4.37812 -1.94571 0
M  V30 1011 H 98.7608 2.36512 -0.945209 0
M  V30 1012 H 99.5438 2.22887 -2.61106 0
M  V30 1013 N 101.989 0.842826 1.3317 0
M  V30 1014 C 102.919 0.294028 2.31641 0
M  V30 1015 C 103.9 -0.600401 1.59151 0
M  V30 1016 O 105.085 -0.523124 1.87022 0
M  V30 1017 C 102.215 -0.528416 3.43257 0
M  V30 1018 C 101.169 0.27056 4.27144 0
M  V30 1019 C 100.495 -0.675881 5.30411 0
M  V30 1020 C 101.795 1.48981 5.00602 0
M  V30 1021 H 103.489 1.11681 2.77791 0
M  V30 1022 H 101.035 0.538478 1.33553 0
M  V30 1023 H 102.988 -0.922674 4.11175 0
M  V30 1024 H 101.712 -1.38445 2.95805 0
M  V30 1025 H 100.371 0.646427 3.60856 0
M  V30 1026 H 100.019 -1.52842 4.79216 0
M  V30 1027 H 99.7189 -0.145374 5.8742 0
M  V30 1028 H 101.243 -1.06757 6.01195 0
M  V30 1029 H 102.657 1.16849 5.61266 0
M  V30 1030 H 101.054 1.95739 5.6728 0
M  V30 1031 H 102.124 2.25746 4.29147 0
M  V30 1032 N 103.467 -1.45747 0.599634 0
M  V30 1033 C 104.878 -1.85853 0.177681 0
M  V30 1034 C 105.229 -1.50102 -1.26348 0
M  V30 1035 O 104.354 -0.923905 -1.95686 0
M  V30 1036 C 104.949 -3.37326 0.315688 0
M  V30 1037 C 103.508 -3.76365 -0.0515144 0
M  V30 1038 C 102.655 -2.69722 0.643822 0
M  V30 1039 H 105.606 -1.36661 0.806814 0
M  V30 1040 H 105.627 -3.77778 -0.454321 0
M  V30 1041 H 105.139 -3.63315 1.36468 0
M  V30 1042 H 103.24 -3.55993 -1.09999 0
M  V30 1043 H 103.353 -4.77916 0.336594 0
M  V30 1044 H 101.717 -2.54567 0.0822881 0
M  V30 1045 H 102.5 -2.98549 1.6948 0
M  V30 1046 N 104.945 -0.338344 -1.53925 0
M  V30 1047 C 105.875 0.51328 -2.27789 0
M  V30 1048 C 106.856 1.107 -1.29149 0
M  V30 1049 O 108.041 1.12937 -1.57984 0
M  V30 1050 C 105.171 1.66697 -3.04679 0
M  V30 1051 C 104.125 1.20183 -4.1078 0
M  V30 1052 C 103.451 2.44363 -4.75595 0
M  V30 1053 C 104.751 0.30605 -5.21403 0
M  V30 1054 H 106.445 -0.102883 -2.99223 0
M  V30 1055 H 103.991 -0.0509219 -1.4391 0
M  V30 1056 H 105.944 2.26915 -3.55088 0
M  V30 1057 H 104.668 2.30995 -2.30887 0
M  V30 1058 H 103.327 0.622499 -3.61276 0
M  V30 1059 H 102.975 3.07057 -3.98403 0
M  V30 1060 H 102.675 2.13925 -5.47275 0
M  V30 1061 H 104.199 3.05317 -5.28786 0
M  V30 1062 H 105.613 0.814929 -5.67478 0
M  V30 1063 H 104.01 0.0937929 -6.00027 0
M  V30 1064 H 105.08 -0.65921 -4.80398 0
M  V30 1065 N 106.423 1.57458 -0.0668435 0
M  V30 1066 C 107.839 1.56947 0.289772 0
M  V30 1067 C 108.039 1.07584 1.70376 0
M  V30 1068 O 107.095 0.739486 2.41429 0
M  V30 1069 C 108.408 3.0052 0.103943 0
M  V30 1070 C 109.956 3.12517 0.173857 0
M  V30 1071 C 110.431 4.57997 0.0163682 0
M  V30 1072 N 111.922 4.63144 0.0721352 0
M  V30 1073 C 112.657 5.73394 -0.0253794 0
M  V30 1074 N 112.153 6.92576 -0.176133 0
M  V30 1075 N 113.946 5.62091 0.0313305 0
M  V30 1076 H 106.097 1.87863 -0.991027 0
M  V30 1077 H 108.36 0.86583 -0.38606 0
M  V30 1078 H 108.066 3.40729 -0.871572 0
M  V30 1079 H 107.94 3.67304 0.858366 0
M  V30 1080 H 110.327 2.72197 1.13985 0
M  V30 1081 H 110.408 2.48381 -0.611586 0
M  V30 1082 H 110.052 4.99005 -0.946374 0
M  V30 1083 H 109.982 5.20158 0.821153 0
M  V30 1084 H 112.473 3.77436 0.187263 0
M  V30 1085 H 112.786 7.72418 -0.242821 0
M  V30 1086 H 111.131 6.94678 -0.211429 0
M  V30 1087 H 114.322 4.67867 0.147773 0
M  V30 1088 H 114.495 6.47982 -0.048121 0
M  V30 1089 N 107.901 -0.206675 1.56239 0
M  V30 1090 C 109.141 -0.93574 1.81723 0
M  V30 1091 C 109.505 -1.80927 0.642609 0
M  V30 1092 O 110.706 -2.57323 0.777081 0
M  V30 1093 C 108.977 -1.74012 3.12177 0
M  V30 1094 S 110.536 -2.52279 3.59028 0
M  V30 1095 H 107.354 -0.314065 0.637875 0
M  V30 1096 H 109.956 -0.200071 1.94474 0
M  V30 1097 H 108.66 -1.0888 3.95693 0
M  V30 1098 H 108.191 -2.51782 3.02274 0
M  V30 1099 H 110.206 -3.76209 3.23545 0
M  V30 1100 N 109.379 -1.50304 -0.473955 0
M  V30 1101 C 110.309 -1.71886 -1.58042 0
M  V30 1102 C 111.29 -0.567799 -1.60344 0
M  V30 1103 O 112.475 -0.806623 -1.76656 0
M  V30 1104 C 109.605 -1.81036 -2.96384 0
M  V30 1105 C 108.559 -2.962 -3.08949 0
M  V30 1106 C 107.885 -2.9049 -4.48909 0
M  V30 1107 C 109.185 -4.36752 -2.86434 0
M  V30 1108 H 110.879 -2.64527 -1.40234 0
M  V30 1109 H 108.425 -1.27295 -0.673201 0
M  V30 1110 H 110.378 -1.94719 -3.73714 0
M  V30 1111 H 109.102 -0.850147 -3.15341 0
M  V30 1112 H 107.761 -2.82164 -2.3405 0
M  V30 1113 H 107.409 -1.92321 -4.64781 0
M  V30 1114 H 107.109 -3.67802 -4.58253 0
M  V30 1115 H 108.633 -3.06218 -5.28264 0
M  V30 1116 H 110.047 -4.5133 -3.53517 0
M  V30 1117 H 108.444 -5.15493 -3.07225 0
M  V30 1118 H 109.514 -4.49321 -1.82316 0
M  V30 1119 N 110.857 0.726932 -1.39834 0
M  V30 1120 C 112.273 1.03354 -1.21615 0
M  V30 1121 C 112.473 2.01327 -0.08338 0
M  V30 1122 O 111.529 2.46158 0.56238 0
M  V30 1123 C 112.842 1.58811 -2.55342 0
M  V30 1124 C 114.39 1.70851 -2.62257 0
M  V30 1125 C 114.865 2.29716 -3.96225 0
M  V30 1126 N 116.356 2.37116 -3.97907 0
M  V30 1127 C 117.091 2.83619 -4.98345 0
M  V30 1128 N 116.587 3.29958 -6.09179 0
M  V30 1129 N 118.38 2.82901 -4.8572 0
M  V30 1130 H 110.531 0.0773069 -2.12259 0
M  V30 1131 H 112.794 0.0969102 -0.943034 0
M  V30 1132 H 112.5 0.942855 -3.38826 0
M  V30 1133 H 112.374 2.57502 -2.75632 0
M  V30 1134 H 114.761 2.34497 -1.79152 0
M  V30 1135 H 114.842 0.707913 -2.45809 0
M  V30 1136 H 114.486 1.66696 -4.79765 0
M  V30 1137 H 114.416 3.30469 -4.09997 0
M  V30 1138 H 116.907 2.04374 -3.17868 0
M  V30 1139 H 117.22 3.63976 -6.8172 0
M  V30 1140 H 115.565 3.27946 -6.12761 0
M  V30 1141 H 118.756 2.46027 -3.98231 0
M  V30 1142 H 118.929 3.18827 -5.6414 0
M  V30 1143 N 112.336 1.25143 0.95797 0
M  V30 1144 C 113.246 1.06968 2.08794 0
M  V30 1145 C 114.262 0.00773911 1.73998 0
M  V30 1146 O 115.438 0.207972 2.00323 0
M  V30 1147 C 112.503 0.68691 3.39827 0
M  V30 1148 C 111.564 1.82641 3.88511 0
M  V30 1149 C 110.797 1.46181 5.1329 0
M  V30 1150 O 111.02 0.355971 5.69288 0
M  V30 1151 O 109.954 2.29085 5.566 0
M  V30 1152 H 113.78 2.01723 2.27027 0
M  V30 1153 H 111.365 1.04051 1.07209 0
M  V30 1154 H 113.247 0.485417 4.18595 0
M  V30 1155 H 111.922 -0.231417 3.22872 0
M  V30 1156 H 110.829 2.08274 3.10762 0
M  V30 1157 H 112.162 2.72386 4.09959 0
M  V30 1158 N 113.814 -1.1601 1.06675 0
M  V30 1159 C 114.777 -2.18724 0.685001 0
M  V30 1160 C 115.777 -1.58496 -0.271246 0
M  V30 1161 O 116.967 -1.74119 -0.0531156 0
M  V30 1162 C 114.099 -3.40899 0.00853648 0
M  V30 1163 H 115.292 -2.54011 1.59431 0
M  V30 1164 H 112.845 -1.30352 0.862441 0
M  V30 1165 H 113.58 -3.11173 -0.913337 0
M  V30 1166 H 113.365 -3.8587 0.696204 0
M  V30 1167 H 114.855 -4.16886 -0.24414 0
M  V30 1168 N 115.292 -0.849877 -1.32721 0
M  V30 1169 C 116.532 -0.457146 -1.99222 0
M  V30 1170 C 116.896 0.968038 -1.6581 0
M  V30 1171 O 118.097 1.46507 -2.25364 0
M  V30 1172 C 116.368 -0.683966 -3.50794 0
M  V30 1173 S 117.927 -0.388095 -4.3708 0
M  V30 1174 H 114.745 -0.171464 -0.690015 0
M  V30 1175 H 117.347 -1.10155 -1.61512 0
M  V30 1176 H 116.051 -1.72038 -3.726 0
M  V30 1177 H 115.582 -0.0258086 -3.93392 0
M  V30 1178 H 117.597 0.787791 -4.89906 0
M  V30 1179 N 116.77 1.45427 -0.607355 0
M  V30 1180 C 117.733 2.28974 0.101693 0
M  V30 1181 C 118.733 1.39754 0.795329 0
M  V30 1182 O 119.923 1.61878 0.643527 0
M  V30 1183 C 117.055 3.20768 1.15414 0
M  V30 1184 H 118.248 2.93147 -0.632844 0
M  V30 1185 H 115.801 1.51945 -0.366391 0
M  V30 1186 H 116.536 2.61395 1.91945 0
M  V30 1187 H 116.321 3.86489 0.66098 0
M  V30 1188 H 117.811 3.83589 1.65073 0
M  V30 1189 N 118.248 0.346503 1.53744 0
M  V30 1190 C 119.18 -0.543316 2.22667 0
M  V30 1191 C 120.193 -1.06159 1.23427 0
M  V30 1192 O 121.382 -0.971235 1.49764 0
M  V30 1193 C 118.482 -1.76076 2.89569 0
M  V30 1194 C 117.655 -1.37727 4.15151 0
M  V30 1195 C 116.714 -2.45471 4.65436 0
M  V30 1196 O 115.74 -2.08655 5.29577 0
M  V30 1197 N 116.942 -3.7677 4.41616 0
M  V30 1198 H 119.707 0.0469703 2.99663 0
M  V30 1199 H 117.268 0.170766 1.60997 0
M  V30 1200 H 119.26 -2.47593 3.20125 0
M  V30 1201 H 117.83 -2.25835 2.16142 0
M  V30 1202 H 117.05 -0.492746 3.91108 0
M  V30 1203 H 118.338 -1.09708 4.96832 0
M  V30 1204 H 117.736 -4.09467 3.90325 0
M  V30 1205 H 116.293 -4.44448 4.7677 0
M  V30 1206 N 119.726 -1.57421 0.075193 0
M  V30 1207 C 120.972 -1.93905 -0.594025 0
M  V30 1208 C 121.305 -0.955701 -1.69056 0
M  V30 1209 O 120.58 0.0145373 -1.94495 0
M  V30 1210 C 120.863 -3.40638 -1.1678 0
M  V30 1211 C 120.716 -4.49733 -0.0776792 0
M  V30 1212 C 122.035 -3.88259 -2.07228 0
M  V30 1213 H 119.154 -0.705105 -0.214466 0
M  V30 1214 H 121.796 -1.8947 0.141854 0
M  V30 1215 H 119.946 -3.44549 -1.79494 0
M  V30 1216 H 121.618 -4.57942 0.555573 0
M  V30 1217 H 119.861 -4.29751 0.591286 0
M  V30 1218 H 120.532 -5.49549 -0.519603 0
M  V30 1219 H 123.008 -3.86376 -1.54445 0
M  V30 1220 H 121.884 -4.91533 -2.44308 0
M  V30 1221 H 122.145 -3.26396 -2.98191 0
M  V30 1222 N 121.204 0.198386 -1.56346 0
M  V30 1223 C 122.615 0.763358 -1.70381 0
M  V30 1224 C 122.966 1.83995 -0.681203 0
M  V30 1225 O 122.091 2.15785 0.16305 0
M  V30 1226 C 122.686 1.39143 -3.08909 0
M  V30 1227 C 121.245 1.90352 -3.2472 0
M  V30 1228 C 120.392 0.772233 -2.6633 0
M  V30 1229 H 123.343 -0.0266377 -1.58678 0
M  V30 1230 H 123.364 2.26076 -3.06055 0
M  V30 1231 H 122.876 0.607638 -3.83314 0
M  V30 1232 H 120.977 2.71461 -2.55225 0
M  V30 1233 H 121.09 2.06757 -4.3219 0
M  V30 1234 H 119.454 1.18566 -2.2542 0
M  V30 1235 H 120.237 0.00073556 -3.433 0
M  V30 1236 N 122.682 1.50554 0.465978 0
M  V30 1237 C 124.098 1.38093 0.800154 0
M  V30 1238 C 124.298 0.440988 1.96615 0
M  V30 1239 O 123.354 -0.114499 2.5224 0
M  V30 1240 C 124.667 2.79565 1.10742 0
M  V30 1241 C 126.215 2.88516 1.21357 0
M  V30 1242 C 126.69 4.30833 1.55393 0
M  V30 1243 N 128.181 4.33807 1.62375 0
M  V30 1244 C 128.916 5.40927 1.90225 0
M  V30 1245 N 128.412 6.58247 2.16062 0
M  V30 1246 N 130.205 5.28376 1.9177 0
M  V30 1247 H 122.356 2.10237 -0.302366 0
M  V30 1248 H 124.619 0.945203 -0.0727746 0
M  V30 1249 H 124.325 3.50208 0.323661 0
M  V30 1250 H 124.199 3.17125 2.04234 0
M  V30 1251 H 126.586 2.1809 1.98799 0
M  V30 1252 H 126.667 2.54492 0.258321 0
M  V30 1253 H 126.311 5.01799 0.784889 0
M  V30 1254 H 126.241 4.62347 2.52076 0
M  V30 1255 H 128.732 3.49212 1.44427 0
M  V30 1256 H 129.045 7.3569 2.36601 0
M  V30 1257 H 127.39 6.61413 2.13444 0
M  V30 1258 H 130.581 4.35715 1.71085 0
M  V30 1259 H 130.754 6.11944 2.13139 0
M  V30 1260 N 124.16 -0.719506 1.40217 0
M  V30 1261 C 125.571 -1.29848 1.34151 0
M  V30 1262 C 125.922 -1.96196 0.0131349 0
M  V30 1263 O 125.047 -1.973 -0.88892 0
M  V30 1264 C 125.642 -2.36118 2.42968 0
M  V30 1265 C 124.201 -2.8965 2.40374 0
M  V30 1266 C 123.348 -1.63393 2.24049 0
M  V30 1267 H 126.299 -0.51591 1.5008 0
M  V30 1268 H 126.32 -3.16871 2.10649 0
M  V30 1269 H 125.832 -1.878 3.39636 0
M  V30 1270 H 123.933 -3.42208 1.47392 0
M  V30 1271 H 124.046 -3.4171 3.35814 0
M  V30 1272 H 122.41 -1.88312 1.71495 0
M  V30 1273 H 123.193 -1.17104 3.2271 0
M  V30 1274 N 125.638 -1.25649 -0.95132 0
M  V30 1275 C 127.054 -1.02542 -1.223 0
M  V30 1276 C 127.254 0.255715 -1.99871 0
M  V30 1277 O 126.31 0.967558 -2.33226 0
M  V30 1278 C 127.623 -2.25065 -1.99415 0
M  V30 1279 C 129.171 -2.29861 -2.12446 0
M  V30 1280 C 129.646 -3.52048 -2.92961 0
M  V30 1281 N 131.137 -3.52465 -3.00538 0
M  V30 1282 C 131.872 -4.43672 -3.63239 0
M  V30 1283 N 131.368 -5.45157 -4.27523 0
M  V30 1284 N 133.161 -4.31346 -3.60412 0
M  V30 1285 H 125.312 -2.07951 -0.432471 0
M  V30 1286 H 127.575 -0.91339 -0.253816 0
M  V30 1287 H 127.281 -3.18194 -1.49817 0
M  V30 1288 H 127.155 -2.28502 -3.00111 0
M  V30 1289 H 129.542 -1.37252 -2.61239 0
M  V30 1290 H 129.623 -2.3044 -1.11044 0
M  V30 1291 H 129.267 -4.44981 -2.44856 0
M  V30 1292 H 129.197 -3.48715 -3.94596 0
M  V30 1293 H 131.688 -2.79056 -2.54826 0
M  V30 1294 H 132.001 -6.10958 -4.73234 0
M  V30 1295 H 130.346 -5.49025 -4.26141 0
M  V30 1296 H 133.537 -3.51288 -3.09377 0
M  V30 1297 H 133.71 -5.02624 -4.0899 0
M  V30 1298 N 127.117 1.15442 -1.07289 0
M  V30 1299 C 128.528 1.67803 -0.818475 0
M  V30 1300 C 128.879 1.8489 0.656507 0
M  V30 1301 O 128.004 1.55176 1.50829 0
M  V30 1302 C 128.599 3.04805 -1.47917 0
M  V30 1303 C 127.158 3.54245 -1.27229 0
M  V30 1304 C 126.305 2.29986 -1.54925 0
M  V30 1305 H 129.256 0.996646 -1.23502 0
M  V30 1306 H 129.277 3.69702 -0.90005 0
M  V30 1307 H 128.789 2.92336 -2.55267 0
M  V30 1308 H 126.89 3.71956 -0.21899 0
M  V30 1309 H 127.003 4.35723 -1.99203 0
M  V30 1310 H 125.367 2.35496 -0.970242 0
M  V30 1311 H 126.15 2.20105 -2.63455 0
M  V30 1312 N 128.595 0.856903 1.32268 0
M  V30 1313 C 130.006 0.515711 1.79436 0
M  V30 1314 C 130.357 -0.966586 1.70738 0
M  V30 1315 O 129.482 -1.75409 1.26731 0
M  V30 1316 C 130.077 0.929335 3.25805 0
M  V30 1317 C 128.636 0.640006 3.70919 0
M  V30 1318 C 127.783 1.12784 2.53328 0
M  V30 1319 H 130.734 1.04389 1.19535 0
M  V30 1320 H 130.755 0.246633 3.797 0
M  V30 1321 H 130.267 2.00821 3.32103 0
M  V30 1322 H 128.368 -0.428051 3.70133 0
M  V30 1323 H 128.481 1.20788 4.63624 0
M  V30 1324 H 126.845 0.548033 2.48734 0
M  V30 1325 H 127.628 2.21387 2.62379 0
M  V30 1326 N 130.073 -1.45103 0.615059 0
M  V30 1327 C 131.484 -1.85654 0.197383 0
M  V30 1328 C 131.835 -1.51433 -1.24749 0
M  V30 1329 O 130.96 -0.944608 -1.94695 0
M  V30 1330 C 131.555 -3.36972 0.351448 0
M  V30 1331 C 130.114 -3.76398 -0.011593 0
M  V30 1332 C 129.261 -2.69024 0.672394 0
M  V30 1333 H 132.212 -1.35797 0.821263 0
M  V30 1334 H 132.233 -3.78239 -0.414227 0
M  V30 1335 H 131.745 -3.61847 1.40314 0
M  V30 1336 H 129.846 -3.5714 -1.06217 0
M  V30 1337 H 129.959 -4.77532 0.387265 0
M  V30 1338 H 128.323 -2.54465 0.109284 0
M  V30 1339 H 129.106 -2.96735 1.72636 0
M  V30 1340 N 131.551 -0.354651 -1.53558 0
M  V30 1341 C 132.483 0.5315 -2.22952 0
M  V30 1342 C 133.496 1.05503 -1.23988 0
M  V30 1343 O 134.685 0.963279 -1.50277 0
M  V30 1344 C 131.785 1.74538 -2.90499 0
M  V30 1345 C 130.958 1.35524 -4.15875 0
M  V30 1346 C 130.017 2.42999 -4.66731 0
M  V30 1347 O 129.043 2.05844 -5.30676 0
M  V30 1348 N 130.245 3.74423 -4.43608 0
M  V30 1349 H 133.01 -0.0628615 -2.99634 0
M  V30 1350 H 130.571 -0.179302 -1.60904 0
M  V30 1351 H 132.563 2.45892 -3.21433 0
M  V30 1352 H 131.133 2.24686 -2.17336 0
M  V30 1353 H 130.353 0.471998 -3.91364 0
M  V30 1354 H 131.641 1.07071 -4.97406 0
M  V30 1355 H 131.039 4.07391 -3.92491 0
M  V30 1356 H 129.596 4.41913 -4.7912 0
M  V30 1357 N 133.029 1.57378 -0.0835403 0
M  V30 1358 C 133.959 2.1641 0.87686 0
M  V30 1359 C 134.94 1.09429 1.30228 0
M  V30 1360 O 136.125 1.37516 1.37124 0
M  V30 1361 C 133.255 2.73517 2.14022 0
M  V30 1362 C 132.209 3.85769 1.85381 0
M  V30 1363 C 131.535 4.29529 3.18448 0
M  V30 1364 C 132.835 5.09486 1.14984 0
M  V30 1365 H 134.529 2.96914 0.385059 0
M  V30 1366 H 132.075 1.42823 0.18377 0
M  V30 1367 H 134.028 3.13463 2.81636 0
M  V30 1368 H 132.752 1.90252 2.65465 0
M  V30 1369 H 131.411 3.46345 1.20169 0
M  V30 1370 H 131.059 3.43169 3.67755 0
M  V30 1371 H 130.759 5.05204 3.00071 0
M  V30 1372 H 132.283 4.72099 3.8724 0
M  V30 1373 H 133.697 5.46674 1.72687 0
M  V30 1374 H 132.094 5.90515 1.06826 0
M  V30 1375 H 133.164 4.84724 0.130749 0
M  V30 1376 N 134.507 -0.190092 1.56449 0
M  V30 1377 C 135.923 -0.54113 1.50146 0
M  V30 1378 C 136.123 -1.85603 0.784465 0
M  V30 1379 O 135.179 -2.5024 0.337051 0
M  V30 1380 C 136.492 -0.591241 2.9483 0
M  V30 1381 C 138.04 -0.679732 3.0553 0
M  V30 1382 C 138.515 -0.760908 4.51635 0
M  V30 1383 N 140.006 -0.824302 4.55806 0
M  V30 1384 C 140.741 -0.907365 5.66175 0
M  V30 1385 N 140.237 -0.952422 6.86222 0
M  V30 1386 N 142.03 -0.94494 5.541 0
M  V30 1387 H 134.181 0.67235 2.01478 0
M  V30 1388 H 136.444 0.240127 0.917084 0
M  V30 1389 H 136.15 0.305905 3.50367 0
M  V30 1390 H 136.024 -1.44422 3.48457 0
M  V30 1391 H 138.411 -1.56731 2.50039 0
M  V30 1392 H 138.492 0.199549 2.5502 0
M  V30 1393 H 138.136 0.122336 5.07753 0
M  V30 1394 H 138.066 -1.65606 4.99882 0
M  V30 1395 H 140.557 -0.798526 3.69367 0
M  V30 1396 H 140.87 -1.01645 7.66086 0
M  V30 1397 H 139.215 -0.921014 6.8887 0
M  V30 1398 H 142.406 -0.906612 4.59236 0
M  V30 1399 H 142.579 -1.00622 6.4014 0
M  V30 1400 N 135.985 -1.50799 -0.457987 0
M  V30 1401 C 137.21 -1.66496 -1.23668 0
M  V30 1402 C 137.635 -0.353288 -1.84752 0
M  V30 1403 O 136.993 0.684346 -1.67888 0
M  V30 1404 C 137.041 -2.76763 -2.3116 0
M  V30 1405 O 136.145 -2.38928 -3.36136 0
M  V30 1406 H 135.486 -0.555828 -0.363252 0
M  V30 1407 H 138.016 -1.9725 -0.543474 0
M  V30 1408 H 138.026 -3.00232 -2.76269 0
M  V30 1409 H 136.701 -3.71954 -1.86073 0
M  V30 1410 H 135.278 -2.25953 -2.96647 0
M  V30 1411 N 137.463 0.71206 -1.40597 0
M  V30 1412 C 138.393 1.83889 -1.43899 0
M  V30 1413 C 139.374 1.67442 -0.299504 0
M  V30 1414 O 140.559 1.87421 -0.508624 0
M  V30 1415 C 137.689 3.21877 -1.30431 0
M  V30 1416 C 136.643 3.53002 -2.42019 0
M  V30 1417 C 135.969 4.90172 -2.13626 0
M  V30 1418 C 137.269 3.53643 -3.84362 0
M  V30 1419 H 138.963 1.81383 -2.38203 0
M  V30 1420 H 136.509 0.871237 -1.14654 0
M  V30 1421 H 138.462 4.00404 -1.31357 0
M  V30 1422 H 137.186 3.24968 -0.326049 0
M  V30 1423 H 135.845 2.76818 -2.40349 0
M  V30 1424 H 135.493 4.89869 -1.14182 0
M  V30 1425 H 135.193 5.11962 -2.88389 0
M  V30 1426 H 136.717 5.71028 -2.1624 0
M  V30 1427 H 138.131 4.22203 -3.87837 0
M  V30 1428 H 136.528 3.86961 -4.58673 0
M  V30 1429 H 137.598 2.52954 -4.13693 0
M  V30 1430 N 138.941 1.26152 0.944643 0
M  V30 1431 C 140.352 1.10454 1.50522 0
M  V30 1432 C 140.703 -0.31635 1.93633 0
M  V30 1433 O 139.828 -1.20746 1.79581 0
M  V30 1434 C 140.423 1.99891 2.73549 0
M  V30 1435 C 138.982 1.88348 3.25886 0
M  V30 1436 C 138.129 1.93447 1.9868 0
M  V30 1437 H 141.08 1.39292 0.760489 0
M  V30 1438 H 141.101 1.54477 3.47732 0
M  V30 1439 H 140.613 3.03297 2.42141 0
M  V30 1440 H 138.714 0.878636 3.62092 0
M  V30 1441 H 138.827 2.73696 3.93227 0
M  V30 1442 H 137.191 1.37456 2.14425 0
M  V30 1443 H 137.974 2.98476 1.69607 0
M  V30 1444 N 140.419 -1.14872 1.07899 0
M  V30 1445 C 141.666 -1.85789 0.805532 0
M  V30 1446 C 141.994 -1.82649 -0.668561 0
M  V30 1447 O 141.249 -1.24858 -1.50695 0
M  V30 1448 C 141.548 -3.34223 1.26609 0
M  V30 1449 C 141.214 -3.57555 2.74709 0
M  V30 1450 C 139.876 -3.63631 3.1516 0
M  V30 1451 C 142.228 -3.66803 3.70277 0
M  V30 1452 C 139.556 -3.76473 4.49983 0
M  V30 1453 C 141.908 -3.8117 5.04869 0
M  V30 1454 C 140.572 -3.85494 5.44932 0
M  V30 1455 H 139.842 -0.679849 0.294765 0
M  V30 1456 H 142.489 -1.3572 1.35101 0
M  V30 1457 H 140.794 -3.86536 0.640103 0
M  V30 1458 H 142.491 -3.87511 1.03132 0
M  V30 1459 H 139.081 -3.5347 2.42398 0
M  V30 1460 H 143.265 -3.61404 3.40149 0
M  V30 1461 H 138.521 -3.7808 4.80484 0
M  V30 1462 H 142.695 -3.87268 5.78789 0
M  V30 1463 H 140.322 -3.95197 6.49403 0
M  V30 1464 N 141.898 -0.863906 -1.31812 0
M  V30 1465 C 143.146 -0.470904 -1.96537 0
M  V30 1466 C 143.467 0.978771 -1.68657 0
M  V30 1467 O 142.737 1.6853 -0.998717 0
M  V30 1468 H 141.317 -0.171148 -0.72713 0
M  V30 1469 H 143.979 -1.10236 -1.60729 0
M  V30 1470 H 143.075 -0.623616 -3.05806 0
M  V30 1471 N 143.376 1.44774 -0.622745 0
M  V30 1472 C 144.604 2.06487 -0.130722 0
M  V30 1473 C 145.019 1.46476 1.19123 0
M  V30 1474 O 144.376 0.584502 1.72887 0
M  V30 1475 C 144.427 3.615 -0.000807207 0
M  V30 1476 O 144.148 4.19274 -1.27048 0
M  V30 1477 C 145.649 4.40229 0.520898 0
M  V30 1478 H 142.869 0.666704 -0.0758106 0
M  V30 1479 H 145.413 1.85779 -0.854774 0
M  V30 1480 H 143.568 3.81498 0.673643 0
M  V30 1481 H 143.982 5.12622 -1.1099 0
M  V30 1482 H 145.456 5.49144 0.560838 0
M  V30 1483 H 145.933 4.1108 1.54627 0
M  V30 1484 H 146.539 4.25131 -0.120018 0
M  V30 1485 N 144.854 0.36279 1.53368 0
M  V30 1486 C 145.784 -0.476976 2.28576 0
M  V30 1487 C 146.765 -1.08631 1.30894 0
M  V30 1488 O 147.95 -1.10409 1.59761 0
M  V30 1489 C 145.08 -1.61828 3.07293 0
M  V30 1490 C 144.034 -1.13633 4.1264 0
M  V30 1491 C 143.36 -2.36766 4.79423 0
M  V30 1492 C 144.66 -0.223061 5.21823 0
M  V30 1493 H 146.354 0.150474 2.99022 0
M  V30 1494 H 143.9 0.0738103 1.43811 0
M  V30 1495 H 145.853 -2.21237 3.58653 0
M  V30 1496 H 144.577 -2.27292 2.34533 0
M  V30 1497 H 143.236 -0.564945 3.62221 0
M  V30 1498 H 142.884 -3.0068 4.03238 0
M  V30 1499 H 142.584 -2.05192 5.50609 0
M  V30 1500 H 144.108 -2.96865 5.33576 0
M  V30 1501 H 145.522 -0.724545 5.68703 0
M  V30 1502 H 143.919 0.001678 6.001 0
M  V30 1503 H 144.989 0.735553 4.79289 0
M  V30 1504 N 146.332 -1.57332 0.0918853 0
M  V30 1505 C 147.242 -2.17368 -0.882505 0
M  V30 1506 C 148.258 -1.14226 -1.31257 0
M  V30 1507 O 149.434 -1.46582 -1.38115 0
M  V30 1508 C 146.499 -2.73962 -2.12476 0
M  V30 1509 C 145.56 -3.92048 -1.7492 0
M  V30 1510 C 144.793 -4.45933 -2.93223 0
M  V30 1511 O 145.016 -3.98764 -4.07852 0
M  V30 1512 O 143.95 -5.36999 -2.71875 0
M  V30 1513 H 147.776 -3.01031 -0.40172 0
M  V30 1514 H 145.361 -1.48813 -0.132291 0
M  V30 1515 H 147.243 -3.10147 -2.85283 0
M  V30 1516 H 145.918 -1.93347 -2.59613 0
M  V30 1517 H 144.825 -3.6068 -0.993025 0
M  V30 1518 H 146.158 -4.74017 -1.32548 0
M  V30 1519 N 147.81 0.181792 -1.56548 0
M  V30 1520 C 148.74 1.22765 -1.98623 0
M  V30 1521 C 149.721 1.46747 -0.860189 0
M  V30 1522 O 150.906 1.58259 -1.12551 0
M  V30 1523 C 148.036 2.56894 -2.33715 0
M  V30 1524 C 146.99 2.475 -3.49182 0
M  V30 1525 C 146.316 3.86023 -3.69986 0
M  V30 1526 C 147.616 1.98866 -4.82959 0
M  V30 1527 H 149.31 0.877942 -2.86239 0
M  V30 1528 H 146.856 0.42088 -1.37712 0
M  V30 1529 H 148.809 3.30253 -2.61746 0
M  V30 1530 H 147.533 2.93632 -1.42997 0
M  V30 1531 H 146.192 1.76596 -3.21262 0
M  V30 1532 H 145.84 4.20136 -2.76576 0
M  V30 1533 H 145.54 3.80609 -4.47672 0
M  V30 1534 H 147.064 4.60984 -4.00407 0
M  V30 1535 H 148.478 2.61992 -5.09934 0
M  V30 1536 H 146.875 2.04424 -5.64208 0
M  V30 1537 H 147.945 0.942465 -4.75653 0
M  V30 1538 N 149.288 1.51039 0.449983 0
M  V30 1539 C 150.536 1.62759 1.19808 0
M  V30 1540 C 150.857 0.339981 1.92013 0
M  V30 1541 O 150.127 -0.643606 1.85026 0
M  V30 1542 H 148.707 0.599811 0.445237 0
M  V30 1543 H 151.369 1.87914 0.517138 0
M  V30 1544 H 150.465 2.44911 1.93455 0
M  V30 1545 N 150.766 -0.704594 1.40972 0
M  V30 1546 C 152.043 -1.45847 1.30338 0
M  V30 1547 C 152.423 -2.10973 -0.0732344 0
M  V30 1548 O 151.771 -2.00997 -1.08685 0
M  V30 1549 C 151.981 -2.48525 2.45023 0
M  V30 1550 C 153.329 -3.1404 2.8577 0
M  V30 1551 O 154.353 -2.58848 2.44696 0
M  V30 1552 O 153.212 -4.13981 3.56766 0
M  V30 1553 H 150.306 -0.649092 0.512454 0
M  V30 1554 H 152.852 -0.735836 1.52917 0
M  V30 1555 H 151.624 -1.98994 3.36923 0
M  V30 1556 H 151.247 -3.2831 2.24272 0
M  V30 1557 N 152.244 -1.26651 -0.937939 0
M  V30 1558 C 153.472 -1.15173 -1.7188 0
M  V30 1559 C 153.887 0.292668 -1.86518 0
M  V30 1560 O 153.244 1.20014 -1.37488 0
M  V30 1561 C 153.295 -1.81925 -3.12387 0
M  V30 1562 O 153.016 -3.2072 -2.98446 0
M  V30 1563 C 154.517 -1.76442 -4.06673 0
M  V30 1564 H 151.737 -0.400911 -0.538063 0
M  V30 1565 H 154.281 -1.67332 -1.1756 0
M  V30 1566 H 152.436 -1.33696 -3.63599 0
M  V30 1567 H 152.85 -3.53802 -3.872 0
M  V30 1568 H 154.324 -2.27781 -5.02812 0
M  V30 1569 H 154.801 -0.731608 -4.33064 0
M  V30 1570 H 155.407 -2.24238 -3.61382 0
M  V30 1571 N 153.722 1.14298 -1.08507 0
M  V30 1572 C 154.685 2.17607 -0.719711 0
M  V30 1573 C 155.685 1.58907 0.245997 0
M  V30 1574 O 156.875 1.74181 0.0254081 0
M  V30 1575 C 154.007 3.40842 -0.0627695 0
M  V30 1576 H 155.2 2.51443 -1.63452 0
M  V30 1577 H 152.753 1.28963 -0.88307 0
M  V30 1578 H 153.488 3.12587 0.863716 0
M  V30 1579 H 153.273 3.84713 -0.757504 0
M  V30 1580 H 154.763 4.17221 0.177786 0
M  V30 1581 N 155.201 0.870884 1.31352 0
M  V30 1582 C 156.164 0.332243 2.26779 0
M  V30 1583 C 157.164 -0.517302 1.52252 0
M  V30 1584 O 158.354 -0.326477 1.71113 0
M  V30 1585 C 155.486 -0.528066 3.36785 0
M  V30 1586 H 156.679 1.17469 2.75937 0
M  V30 1587 H 154.232 0.64655 1.423 0
M  V30 1588 H 154.967 -1.39167 2.92922 0
M  V30 1589 H 154.752 0.0802582 3.92018 0
M  V30 1590 H 156.242 -0.897179 4.07849 0
M  V30 1591 N 156.679 -1.44442 0.630414 0
M  V30 1592 C 157.609 -2.33418 -0.0618083 0
M  V30 1593 C 158.59 -1.48165 -0.835541 0
M  V30 1594 O 159.775 -1.76886 -0.801564 0
M  V30 1595 C 156.905 -3.31222 -1.04449 0
M  V30 1596 C 155.859 -4.26288 -0.382436 0
M  V30 1597 C 155.185 -5.13954 -1.47497 0
M  V30 1598 C 156.485 -5.1744 0.710865 0
M  V30 1599 H 158.179 -2.91548 0.681184 0
M  V30 1600 H 155.725 -1.40191 0.329026 0
M  V30 1601 H 157.678 -3.92351 -1.53748 0
M  V30 1602 H 156.402 -2.71299 -1.81836 0
M  V30 1603 H 155.061 -3.6649 0.0899054 0
M  V30 1604 H 154.709 -4.50385 -2.2397 0
M  V30 1605 H 154.409 -5.7837 -1.03737 0
M  V30 1606 H 155.933 -5.77955 -1.96979 0
M  V30 1607 H 157.347 -5.72509 0.300996 0
M  V30 1608 H 155.744 -5.90455 1.07156 0
M  V30 1609 H 156.814 -4.58496 1.57829 0
M  V30 1610 N 158.157 -0.370918 -1.53173 0
M  V30 1611 C 159.434 0.273754 -1.93675 0
M  V30 1612 C 159.814 1.65938 -1.3049 0
M  V30 1613 O 159.162 2.23698 -0.465999 0
M  V30 1614 C 159.372 0.318602 -3.47543 0
M  V30 1615 C 160.72 0.556392 -4.20939 0
M  V30 1616 O 161.744 0.399587 -3.53952 0
M  V30 1617 O 160.603 0.862133 -5.39657 0
M  V30 1618 H 157.697 0.165448 -0.810281 0
M  V30 1619 H 160.243 -0.42409 -1.64315 0
M  V30 1620 H 159.015 -0.652687 -3.85818 0
M  V30 1621 H 158.638 1.06212 -3.83151 0
M  V30 1622 N 159.635 1.57281 -0.100228 0
M  V30 1623 C 160.598 2.13158 0.842398 0
M  V30 1624 C 161.598 1.06202 1.20738 0
M  V30 1625 O 162.788 1.32066 1.13597 0
M  V30 1626 C 159.92 2.65639 2.13655 0
M  V30 1627 H 161.113 2.97766 0.357114 0
M  V30 1628 H 158.666 1.5559 0.148823 0
M  V30 1629 H 159.401 1.84566 2.66657 0
M  V30 1630 H 159.186 3.43844 1.88451 0
M  V30 1631 H 160.676 3.08846 2.81077 0
M  V30 1632 N 161.113 -0.173488 1.56642 0
M  V30 1633 C 162.36 -0.890465 1.81871 0
M  V30 1634 C 162.688 -1.82339 0.67696 0
M  V30 1635 O 161.943 -1.92795 -0.335926 0
M  V30 1636 C 162.242 -1.72069 3.13252 0
M  V30 1637 C 161.908 -0.936878 4.41059 0
M  V30 1638 C 160.57 -0.720545 4.75775 0
M  V30 1639 C 162.922 -0.386919 5.19762 0
M  V30 1640 C 160.25 0.0568829 5.86672 0
M  V30 1641 C 162.602 0.37741 6.31473 0
M  V30 1642 C 161.266 0.604563 6.64757 0
M  V30 1643 H 160.536 -0.325844 0.665512 0
M  V30 1644 H 163.183 -0.155527 1.90867 0
M  V30 1645 H 161.488 -2.52496 2.99588 0
M  V30 1646 H 163.185 -2.27844 3.29982 0
M  V30 1647 H 159.775 -1.11553 4.13828 0
M  V30 1648 H 163.959 -0.541398 4.93338 0
M  V30 1649 H 159.215 0.242635 6.10918 0
M  V30 1650 H 163.389 0.810825 6.91664 0
M  V30 1651 H 161.016 1.20885 7.50527 0
M  V30 1652 N 162.591 -1.51276 -0.441967 0
M  V30 1653 C 163.821 -1.67273 -1.21257 0
M  V30 1654 C 164.229 -0.367624 -1.85594 0
M  V30 1655 O 163.572 0.663349 -1.71305 0
M  V30 1656 C 163.634 -2.72807 -2.34129 0
M  V30 1657 C 163.298 -4.1554 -1.90198 0
M  V30 1658 C 164.295 -5.00471 -1.40801 0
M  V30 1659 C 161.98 -4.61616 -1.9803 0
M  V30 1660 C 163.974 -6.29536 -0.998174 0
M  V30 1661 C 161.661 -5.90679 -1.56658 0
M  V30 1662 C 162.659 -6.74466 -1.07633 0
M  V30 1663 O 162.347 -8.01116 -0.668459 0
M  V30 1664 H 162.079 -0.564614 -0.371734 0
M  V30 1665 H 164.633 -1.9843 -0.530521 0
M  V30 1666 H 162.863 -2.36954 -3.05597 0
M  V30 1667 H 164.552 -2.77729 -2.96009 0
M  V30 1668 H 165.318 -4.66079 -1.34148 0
M  V30 1669 H 161.197 -3.96526 -2.35135 0
M  V30 1670 H 164.741 -6.94885 -0.61482 0
M  V30 1671 H 160.638 -6.24586 -1.62979 0
M  V30 1672 H 161.406 -8.14633 -0.794722 0
M  V30 1673 N 164.069 0.697108 -1.41344 0
M  V30 1674 C 165.017 1.83237 -1.43272 0
M  V30 1675 C 166.011 1.66522 -0.310947 0
M  V30 1676 O 167.217 1.73402 -0.482899 0
M  V30 1677 H 163.592 0.603802 -0.448249 0
M  V30 1678 H 165.563 1.78727 -2.38954 0
M  V30 1679 C 164.312 3.21245 -1.33029 0
M  V30 1680 H 163.635 3.34723 -2.18633 0
M  V30 1681 H 165.075 4.00763 -1.38439 0
M  V30 1682 C 163.534 3.36873 -0.0424635 0
M  V30 1683 O 164.064 3.91177 0.913421 0
M  V30 1684 N 162.27 2.90581 0.0331145 0
M  V30 1685 H 161.817 2.46577 -0.745506 0
M  V30 1686 H 161.775 3.01416 0.894199 0
M  V30 1687 N 165.547 1.27147 0.931209 0
M  V30 1688 C 166.51 1.09615 2.01289 0
M  V30 1689 C 167.51 0.0412581 1.60747 0
M  V30 1690 O 168.7 0.285545 1.71844 0
M  V30 1691 C 165.832 0.669447 3.34262 0
M  V30 1692 H 167.025 2.05662 2.18273 0
M  V30 1693 H 164.578 1.09885 1.11153 0
M  V30 1694 H 165.313 -0.292572 3.22978 0
M  V30 1695 H 165.098 1.43127 3.65044 0
M  V30 1696 H 166.588 0.568921 4.13706 0
M  V30 1697 N 167.025 -1.13721 1.09112 0
M  V30 1698 C 168.302 -1.81155 0.737706 0
M  V30 1699 C 168.682 -1.96253 -0.777683 0
M  V30 1700 O 168.03 -1.52807 -1.69889 0
M  V30 1701 C 168.24 -3.16392 1.47299 0
M  V30 1702 C 169.588 -3.91787 1.63671 0
M  V30 1703 O 170.612 -3.26005 1.43524 0
M  V30 1704 O 169.471 -5.0977 1.96969 0
M  V30 1705 H 166.565 -0.783518 0.26463 0
M  V30 1706 H 169.111 -1.20676 1.19312 0
M  V30 1707 H 167.883 -3.0061 2.50498 0
M  V30 1708 H 167.506 -3.8457 1.00953 0
M  V30 1709 N 168.503 -0.877838 -1.30888 0
M  V30 1710 C 169.749 -0.493426 -1.96706 0
M  V30 1711 C 170.082 0.953504 -1.6918 0
M  V30 1712 O 169.357 1.67266 -0.992594 0
M  V30 1713 C 169.64 -0.760429 -3.51979 0
M  V30 1714 C 169.493 -2.25747 -3.89048 0
M  V30 1715 C 170.812 -0.232148 -4.39487 0
M  V30 1716 H 167.931 -0.180746 -0.714493 0
M  V30 1717 H 170.573 -1.10052 -1.54882 0
M  V30 1718 H 168.723 -0.243715 -3.87735 0
M  V30 1719 H 170.395 -2.84204 -3.63354 0
M  V30 1720 H 168.638 -2.72694 -3.37373 0
M  V30 1721 H 169.309 -2.39491 -4.97341 0
M  V30 1722 H 171.785 -0.674314 -4.106 0
M  V30 1723 H 170.661 -0.448355 -5.47066 0
M  V30 1724 H 170.922 0.866297 -4.33529 0
M  V30 1725 N 169.982 1.44106 -0.638065 0
M  V30 1726 C 171.228 2.02277 -0.145546 0
M  V30 1727 C 171.561 1.50125 1.23191 0
M  V30 1728 O 170.836 0.688133 1.8192 0
M  V30 1729 C 171.119 3.59829 -0.139791 0
M  V30 1730 C 170.972 4.22247 -1.55008 0
M  V30 1731 C 172.291 4.36873 0.531966 0
M  V30 1732 H 169.41 0.734992 -0.0543632 0
M  V30 1733 H 172.052 1.71592 -0.815863 0
M  V30 1734 H 170.202 3.86102 0.431007 0
M  V30 1735 H 171.874 4.07057 -2.1703 0
M  V30 1736 H 170.117 3.79476 -2.10191 0
M  V30 1737 H 170.788 5.31284 -1.49804 0
M  V30 1738 H 173.264 4.16074 0.0464781 0
M  V30 1739 H 172.14 5.4657 0.505206 0
M  V30 1740 H 172.401 4.11995 1.60352 0
M  V30 1741 N 171.46 0.379036 1.52974 0
M  V30 1742 C 172.706 -0.206727 2.01744 0
M  V30 1743 C 173.039 -1.47314 1.26539 0
M  V30 1744 O 172.314 -1.91084 0.362903 0
M  V30 1745 C 172.597 -0.485066 3.56818 0
M  V30 1746 C 172.45 0.795919 4.42702 0
M  V30 1747 C 173.769 -1.28003 4.21074 0
M  V30 1748 H 170.888 -0.0736607 0.73331 0
M  V30 1749 H 173.53 0.506581 1.83122 0
M  V30 1750 H 171.68 -1.09272 3.72816 0
M  V30 1751 H 173.352 1.43307 4.38476 0
M  V30 1752 H 171.595 1.41344 4.10127 0
M  V30 1753 H 172.266 0.555947 5.49193 0
M  V30 1754 H 174.742 -0.765867 4.08991 0
M  V30 1755 H 173.618 -1.44352 5.29579 0
M  V30 1756 H 173.879 -2.29236 3.78026 0
M  V30 1757 N 172.938 -1.57226 0.108567 0
M  V30 1758 C 173.868 -2.17778 -0.84232 0
M  V30 1759 C 174.849 -1.11487 -1.2847 0
M  V30 1760 O 176.034 -1.39681 -1.34918 0
M  V30 1761 C 173.164 -2.76888 -2.09644 0
M  V30 1762 C 172.118 -3.88669 -1.79221 0
M  V30 1763 C 171.444 -4.34541 -3.11574 0
M  V30 1764 C 172.744 -5.11251 -1.06864 0
M  V30 1765 H 174.438 -2.97489 -0.337774 0
M  V30 1766 H 171.984 -1.43097 -0.161025 0
M  V30 1767 H 173.937 -3.17904 -2.76614 0
M  V30 1768 H 172.661 -1.94451 -2.62405 0
M  V30 1769 H 171.32 -3.48213 -1.14644 0
M  V30 1770 H 170.968 -3.48977 -3.62249 0
M  V30 1771 H 170.668 -5.09914 -2.91996 0
M  V30 1772 H 172.192 -4.782 -3.7968 0
M  V30 1773 H 173.606 -5.49352 -1.63968 0
M  V30 1774 H 172.003 -5.9214 -0.974178 0
M  V30 1775 H 173.073 -4.8487 -0.0536168 0
M  V30 1776 N 174.416 0.165178 -1.56732 0
M  V30 1777 C 175.326 1.22423 -2.00125 0
M  V30 1778 C 176.342 1.48084 -0.913619 0
M  V30 1779 O 177.518 1.60112 -1.22172 0
M  V30 1780 C 174.583 2.54197 -2.35764 0
M  V30 1781 C 173.644 2.36343 -3.58386 0
M  V30 1782 C 172.877 3.61834 -3.92316 0
M  V30 1783 O 173.1 4.67267 -3.27135 0
M  V30 1784 O 172.034 3.55579 -4.85641 0
M  V30 1785 H 175.86 0.885886 -2.90492 0
M  V30 1786 H 173.445 0.372518 -1.44681 0
M  V30 1787 H 175.327 3.3192 -2.59629 0
M  V30 1788 H 174.002 2.87598 -1.48557 0
M  V30 1789 H 172.909 1.56632 -3.39731 0
M  V30 1790 H 174.242 2.07865 -4.46154 0
M  V30 1791 N 175.894 1.51508 0.433938 0
M  V30 1792 C 177.14 1.64588 1.18484 0
M  V30 1793 C 177.473 0.362666 1.90784 0
M  V30 1794 O 176.748 -0.637892 1.83742 0
M  V30 1795 C 177.031 2.85149 2.19913 0
M  V30 1796 C 176.884 4.23456 1.51674 0
M  V30 1797 C 178.203 3.01227 3.20858 0
M  V30 1798 H 175.322 0.598994 0.429389 0
M  V30 1799 H 177.964 1.84002 0.473647 0
M  V30 1800 H 176.114 2.68729 2.80566 0
M  V30 1801 H 177.786 4.51552 0.943322 0
M  V30 1802 H 176.029 4.25998 0.819035 0
M  V30 1803 H 176.7 5.03812 2.2556 0
M  V30 1804 H 179.176 3.16382 2.70263 0
M  V30 1805 H 178.052 3.87141 3.89118 0
M  V30 1806 H 178.313 2.13447 3.8716 0
M  V30 1807 N 177.372 -0.689602 1.41712 0
M  V30 1808 C 178.597 -1.48329 1.44959 0
M  V30 1809 C 179.022 -1.8801 0.0581283 0
M  V30 1810 O 178.38 -1.55026 -0.940035 0
M  V30 1811 C 178.428 -2.71835 2.36935 0
M  V30 1812 O 177.532 -3.69549 1.8305 0
M  V30 1813 H 176.873 -0.446199 0.491734 0
M  V30 1814 H 179.403 -0.847127 1.86239 0
M  V30 1815 H 179.413 -3.20076 2.53013 0
M  V30 1816 H 178.088 -2.42291 3.38035 0
M  V30 1817 H 176.665 -3.2851 1.76452 0
M  V30 1818 N 178.85 -1.27639 -0.924453 0
M  V30 1819 C 180.075 -1.17101 -1.71179 0
M  V30 1820 C 180.5 0.268134 -1.86179 0
M  V30 1821 O 179.858 1.19415 -1.36418 0
M  V30 1822 C 179.906 -1.86313 -3.08739 0
M  V30 1823 O 179.01 -1.16331 -3.95652 0
M  V30 1824 H 178.351 -0.407091 -0.524569 0
M  V30 1825 H 180.881 -1.68767 -1.15666 0
M  V30 1826 H 180.891 -1.938 -3.59034 0
M  V30 1827 H 179.566 -2.91001 -2.97138 0
M  V30 1828 H 178.143 -1.16935 -3.54091 0
M  V30 1829 N 180.328 1.1314 -1.09713 0
M  V30 1830 C 181.553 1.88862 -0.857081 0
M  V30 1831 C 181.978 1.78729 0.586304 0
M  V30 1832 O 181.336 1.13692 1.41222 0
M  V30 1833 C 181.384 3.36325 -1.30069 0
M  V30 1834 O 180.488 4.09815 -0.461007 0
M  V30 1835 H 179.829 0.587108 -0.310162 0
M  V30 1836 H 182.359 1.43129 -1.46203 0
M  V30 1837 H 182.369 3.87157 -1.28738 0
M  V30 1838 H 181.044 3.43017 -2.35185 0
M  V30 1839 H 179.621 3.68986 -0.538888 0
M  V30 1840 N 181.806 0.884767 1.30421 0
M  V30 1841 C 182.736 0.367574 2.30589 0
M  V30 1842 C 183.717 -0.549464 1.60981 0
M  V30 1843 O 184.902 -0.46336 1.88591 0
M  V30 1844 C 182.032 -0.418944 3.44764 0
M  V30 1845 C 180.986 0.406316 4.26067 0
M  V30 1846 C 180.312 -0.506793 5.32293 0
M  V30 1847 C 181.612 1.64832 4.95608 0
M  V30 1848 H 183.306 1.20462 2.74097 0
M  V30 1849 H 180.852 0.580695 1.31772 0
M  V30 1850 H 182.805 -0.791395 4.13902 0
M  V30 1851 H 181.529 -1.28964 3.0006 0
M  V30 1852 H 180.188 0.760903 3.58617 0
M  V30 1853 H 179.836 -1.37519 4.83836 0
M  V30 1854 H 179.536 0.0415828 5.87585 0
M  V30 1855 H 181.06 -0.875764 6.04287 0
M  V30 1856 H 182.474 1.34646 5.57264 0
M  V30 1857 H 180.871 2.13688 5.60765 0
M  V30 1858 H 181.941 2.39284 4.21748 0
M  V30 1859 N 183.284 -1.43765 0.645699 0
M  V30 1860 C 184.53 -2.02197 0.156271 0
M  V30 1861 C 184.863 -1.50776 -1.22393 0
M  V30 1862 O 184.138 -0.697771 -1.81553 0
M  V30 1863 C 184.421 -3.59749 0.158872 0
M  V30 1864 C 184.274 -4.21419 1.57245 0
M  V30 1865 C 185.593 -4.37149 -0.50879 0
M  V30 1866 H 182.712 -0.734694 0.0582602 0
M  V30 1867 H 185.354 -1.71157 0.824951 0
M  V30 1868 H 183.504 -3.86325 -0.410525 0
M  V30 1869 H 185.176 -4.059 2.19186 0
M  V30 1870 H 183.419 -3.78356 2.122 0
M  V30 1871 H 184.09 -5.30482 1.52619 0
M  V30 1872 H 186.566 -4.16093 -0.024412 0
M  V30 1873 H 185.442 -5.4683 -0.476213 0
M  V30 1874 H 185.703 -4.12839 -1.58165 0
M  V30 1875 N 184.763 -0.387143 -1.52771 0
M  V30 1876 C 185.695 0.484089 -2.2403 0
M  V30 1877 C 186.708 1.02849 -1.26198 0
M  V30 1878 O 187.897 0.931186 -1.52286 0
M  V30 1879 C 184.997 1.68337 -2.94136 0
M  V30 1880 C 184.17 1.26672 -4.18656 0
M  V30 1881 C 183.229 2.33045 -4.7178 0
M  V30 1882 O 182.255 1.94541 -5.34923 0
M  V30 1883 N 183.457 3.64929 -4.5145 0
M  V30 1884 H 186.222 -0.126404 -2.99433 0
M  V30 1885 H 183.783 -0.213392 -1.60488 0
M  V30 1886 H 185.775 2.39019 -3.26577 0
M  V30 1887 H 184.345 2.20025 -2.22053 0
M  V30 1888 H 183.565 0.388878 -3.92277 0
M  V30 1889 H 184.853 0.964964 -4.99566 0
M  V30 1890 H 184.251 3.98974 -4.01044 0
M  V30 1891 H 182.808 4.31651 -4.88386 0
M  V30 1892 N 186.241 1.57166 -0.116904 0
M  V30 1893 C 187.652 1.82169 0.408809 0
M  V30 1894 C 188.003 1.03393 1.66746 0
M  V30 1895 O 187.128 0.269886 2.1471 0
M  V30 1896 C 187.723 3.30429 0.748466 0
M  V30 1897 C 186.282 3.5612 1.21882 0
M  V30 1898 C 185.429 2.76374 0.226452 0
M  V30 1899 H 188.38 1.5497 -0.342063 0
M  V30 1900 H 188.401 3.44943 1.60607 0
M  V30 1901 H 187.913 3.87737 -0.167784 0
M  V30 1902 H 186.014 3.04168 2.15204 0
M  V30 1903 H 186.127 4.64705 1.16559 0
M  V30 1904 H 184.491 2.44515 0.713063 0
M  V30 1905 H 185.274 3.3644 -0.682859 0
M  V30 1906 N 187.719 -0.156864 1.56817 0
M  V30 1907 C 188.944 -0.890331 1.87318 0
M  V30 1908 C 189.369 -1.74394 0.704855 0
M  V30 1909 O 188.727 -1.77972 -0.345786 0
M  V30 1910 C 188.775 -1.73102 3.16336 0
M  V30 1911 O 187.879 -2.83422 2.99576 0
M  V30 1912 H 187.22 -0.24857 0.615718 0
M  V30 1913 H 189.75 -0.150649 2.04045 0
M  V30 1914 H 189.76 -2.12803 3.48107 0
M  V30 1915 H 188.435 -1.10412 4.00976 0
M  V30 1916 H 187.012 -2.47199 2.7919 0
M  V30 1917 N 189.197 -1.51736 -0.425897 0
M  V30 1918 C 190.127 -1.76827 -1.52494 0
M  V30 1919 C 191.108 -0.618524 -1.58456 0
M  V30 1920 O 192.293 -0.862416 -1.74 0
M  V30 1921 C 189.423 -1.90374 -2.90474 0
M  V30 1922 C 188.377 -3.0588 -2.99369 0
M  V30 1923 C 187.703 -3.04625 -4.3944 0
M  V30 1924 C 189.003 -4.45644 -2.72394 0
M  V30 1925 H 190.697 -2.68855 -1.31748 0
M  V30 1926 H 188.243 -1.29372 -0.632362 0
M  V30 1927 H 190.196 -2.0651 -3.6733 0
M  V30 1928 H 188.92 -0.95004 -3.12477 0
M  V30 1929 H 187.579 -2.89467 -2.24954 0
M  V30 1930 H 187.227 -2.0701 -4.58428 0
M  V30 1931 H 186.927 -3.82195 -4.46319 0
M  V30 1932 H 188.451 -3.22869 -5.18255 0
M  V30 1933 H 189.865 -4.62348 -3.38979 0
M  V30 1934 H 188.262 -5.25006 -2.9067 0
M  V30 1935 H 189.332 -4.54893 -1.67929 0
M  V30 1936 N 190.675 0.682077 -1.42076 0
M  V30 1937 C 191.922 1.44215 -1.42156 0
M  V30 1938 C 192.25 1.94468 -0.0354186 0
M  V30 1939 O 191.505 1.70816 0.955002 0
M  V30 1940 C 191.804 2.66036 -2.38662 0
M  V30 1941 C 191.47 2.34366 -3.85206 0
M  V30 1942 C 190.132 2.25439 -4.25124 0
M  V30 1943 C 192.484 2.08513 -4.77673 0
M  V30 1944 C 189.812 1.88775 -5.55501 0
M  V30 1945 C 192.164 1.73354 -6.08384 0
M  V30 1946 C 190.828 1.62933 -6.47309 0
M  V30 1947 H 190.098 0.527718 -0.520187 0
M  V30 1948 H 192.745 0.778387 -1.74967 0
M  V30 1949 H 191.05 3.3741 -1.99152 0
M  V30 1950 H 192.747 3.24205 -2.35991 0
M  V30 1951 H 189.337 2.42213 -3.53597 0
M  V30 1952 H 193.521 2.14346 -4.47626 0
M  V30 1953 H 188.777 1.7927 -5.84527 0
M  V30 1954 H 192.951 1.52373 -6.79526 0
M  V30 1955 H 190.578 1.34292 -7.48244 0
M  V30 1956 N 192.153 1.28127 0.917671 0
M  V30 1957 C 193.383 1.17722 1.6978 0
M  V30 1958 C 193.791 -0.267261 1.87303 0
M  V30 1959 O 193.134 -1.19286 1.39702 0
M  V30 1960 C 193.196 1.79958 3.11216 0
M  V30 1961 C 192.86 3.29187 3.16993 0
M  V30 1962 C 193.857 4.25679 2.98485 0
M  V30 1963 C 191.542 3.70075 3.39632 0
M  V30 1964 C 193.536 5.61035 3.02521 0
M  V30 1965 C 191.223 5.05557 3.433 0
M  V30 1966 C 192.221 6.00847 3.24764 0
M  V30 1967 O 191.909 7.33859 3.28187 0
M  V30 1968 H 191.641 0.409788 0.537634 0
M  V30 1969 H 194.195 1.69694 1.15728 0
M  V30 1970 H 192.425 1.22475 3.66793 0
M  V30 1971 H 194.114 1.64125 3.71238 0
M  V30 1972 H 194.88 3.95426 2.80826 0
M  V30 1973 H 190.759 2.96373 3.53106 0
M  V30 1974 H 194.303 6.35388 2.87971 0
M  V30 1975 H 190.2 5.35462 3.60486 0
M  V30 1976 H 190.968 7.42436 3.44575 0
M  V30 1977 N 193.631 -1.12557 1.10312 0
M  V30 1978 C 194.581 -2.16331 0.720076 0
M  V30 1979 C 195.565 -1.58616 -0.270115 0
M  V30 1980 O 196.757 -1.76823 -0.0790507 0
M  V30 1981 C 193.886 -3.42963 0.152113 0
M  V30 1982 C 192.972 -4.07663 1.16927 0
M  V30 1983 N 193.363 -4.47392 2.35953 0
M  V30 1984 C 191.661 -4.34425 1.0095 0
M  V30 1985 C 192.362 -4.97932 3.0073 0
M  V30 1986 N 191.338 -4.93358 2.28252 0
M  V30 1987 H 195.14 -2.44813 1.62616 0
M  V30 1988 H 192.654 -1.29449 0.980654 0
M  V30 1989 H 194.651 -4.16664 -0.14037 0
M  V30 1990 H 193.311 -3.1595 -0.748701 0
M  V30 1991 H 194.322 -4.39802 2.73486 0
M  V30 1992 H 190.999 -4.17177 0.164134 0
M  V30 1993 H 192.389 -5.38397 4.01969 0
M  V30 1994 N 195.109 -0.891671 -1.2995 0
M  V30 1995 C 196.039 -0.379797 -2.30391 0
M  V30 1996 C 197.02 0.540919 -1.6127 0
M  V30 1997 O 198.205 0.453352 -1.88834 0
M  V30 1998 C 195.335 0.400654 -3.44981 0
M  V30 1999 C 194.289 -0.428905 -4.25846 0
M  V30 2000 C 193.615 0.478557 -5.32554 0
M  V30 2001 C 194.915 -1.67458 -4.94727 0
M  V30 2002 H 196.609 -1.21914 -2.73454 0
M  V30 2003 H 194.155 -0.587675 -1.31462 0
M  V30 2004 H 196.108 0.769434 -4.14316 0
M  V30 2005 H 194.832 1.27371 -3.0074 0
M  V30 2006 H 193.491 -0.779911 -3.58208 0
M  V30 2007 H 193.139 1.34951 -4.84559 0
M  V30 2008 H 192.839 -0.0727433 -5.87555 0
M  V30 2009 H 194.363 0.843705 -6.04743 0
M  V30 2010 H 195.777 -1.376 -5.56542 0
M  V30 2011 H 194.174 -2.16659 -5.59624 0
M  V30 2012 H 195.244 -2.41518 -4.20473 0
M  V30 2013 N 196.587 1.43421 -0.653314 0
M  V30 2014 C 197.835 2.01414 -0.166415 0
M  V30 2015 C 198.156 1.51803 1.22397 0
M  V30 2016 O 197.426 0.730693 1.81763 0
M  V30 2017 H 196.006 0.744703 -0.0585319 0
M  V30 2018 H 198.668 1.75629 -0.845003 0
M  V30 2019 H 197.764 3.11734 -0.151111 0
M  V30 2020 N 198.065 0.39524 1.52563 0
M  V30 2021 C 199.311 -0.185318 2.01952 0
M  V30 2022 C 199.644 -1.45964 1.28095 0
M  V30 2023 O 198.919 -1.90689 0.38315 0
M  V30 2024 C 199.202 -0.447193 3.57312 0
M  V30 2025 C 199.055 0.842828 4.41833 0
M  V30 2026 C 200.374 -1.23529 4.22408 0
M  V30 2027 H 197.493 -0.0658788 0.73405 0
M  V30 2028 H 200.135 0.525975 1.82575 0
M  V30 2029 H 198.285 -1.05312 3.73954 0
M  V30 2030 H 199.957 1.4795 4.36931 0
M  V30 2031 H 198.2 1.45686 4.08605 0
M  V30 2032 H 198.871 0.614165 5.48573 0
M  V30 2033 H 201.347 -0.722445 4.0978 0
M  V30 2034 H 200.223 -1.38727 5.3108 0
M  V30 2035 H 200.484 -2.25213 3.80436 0
M  V30 2036 N 199.544 -1.57102 0.125237 0
M  V30 2037 C 200.96 -1.57915 -0.231322 0
M  V30 2038 C 201.16 -1.13833 -1.66266 0
M  V30 2039 O 200.216 -0.828581 -2.38518 0
M  V30 2040 C 201.529 -3.00699 0.00766489 0
M  V30 2041 C 203.077 -3.12947 -0.0577483 0
M  V30 2042 C 203.552 -4.57742 0.153626 0
M  V30 2043 N 205.043 -4.63092 0.0998073 0
M  V30 2044 C 205.778 -5.72905 0.238174 0
M  V30 2045 N 205.274 -6.91445 0.433057 0
M  V30 2046 N 207.067 -5.6182 0.177308 0
M  V30 2047 H 199.218 -1.84055 1.06007 0
M  V30 2048 H 201.481 -0.850905 0.417929 0
M  V30 2049 H 201.187 -3.3726 0.997431 0
M  V30 2050 H 201.061 -3.70236 -0.721452 0
M  V30 2051 H 203.448 -2.7624 -1.03804 0
M  V30 2052 H 203.529 -2.4594 0.70335 0
M  V30 2053 H 203.173 -4.95149 1.13092 0
M  V30 2054 H 203.103 -5.22848 -0.627534 0
M  V30 2055 H 205.594 -3.77871 -0.047051 0
M  V30 2056 H 205.907 -7.70985 0.529332 0
M  V30 2057 H 204.252 -6.93415 0.469109 0
M  V30 2058 H 207.443 -4.68093 0.0259748 0
M  V30 2059 H 207.616 -6.47357 0.288582 0
M  V30 2060 N 201.022 0.148545 -1.56898 0
M  V30 2061 C 201.932 1.20293 -2.01412 0
M  V30 2062 C 202.948 1.47107 -0.929273 0
M  V30 2063 O 204.124 1.58807 -1.23863 0
M  V30 2064 C 201.189 2.51682 -2.38447 0
M  V30 2065 C 200.25 2.32529 -3.60872 0
M  V30 2066 C 199.483 3.57653 -3.96132 0
M  V30 2067 O 199.706 4.63771 -3.32073 0
M  V30 2068 O 198.64 3.50408 -4.89385 0
M  V30 2069 H 202.466 0.855025 -2.91416 0
M  V30 2070 H 200.051 0.357151 -1.45068 0
M  V30 2071 H 201.933 3.29147 -2.63135 0
M  V30 2072 H 200.608 2.86006 -1.51599 0
M  V30 2073 H 199.515 1.53019 -3.41373 0
M  V30 2074 H 200.848 2.03121 -4.48333 0
M  V30 2075 N 202.5 1.5196 0.417844 0
M  V30 2076 C 203.725 1.69717 1.1921 0
M  V30 2077 C 204.15 0.402148 1.83751 0
M  V30 2078 O 203.508 -0.639593 1.69643 0
M  V30 2079 C 203.556 2.82794 2.2374 0
M  V30 2080 O 202.66 2.47756 3.29683 0
M  V30 2081 H 202.001 0.565263 0.348387 0
M  V30 2082 H 204.531 1.98621 0.490985 0
M  V30 2083 H 204.541 3.07452 2.68212 0
M  V30 2084 H 203.216 3.76756 1.76146 0
M  V30 2085 H 201.793 2.33739 2.90552 0
M  V30 2086 N 203.978 -0.674533 1.42435 0
M  V30 2087 C 205.225 -1.43459 1.42919 0
M  V30 2088 C 205.553 -1.94446 0.0457312 0
M  V30 2089 O 204.808 -1.7132 -0.94593 0
M  V30 2090 C 205.107 -2.64767 2.40069 0
M  V30 2091 C 204.773 -2.3232 3.86443 0
M  V30 2092 C 203.435 -2.23182 4.26314 0
M  V30 2093 C 205.787 -2.05977 4.78773 0
M  V30 2094 C 203.115 -1.85827 5.56494 0
M  V30 2095 C 205.467 -1.70125 6.09295 0
M  V30 2096 C 204.131 -1.59498 6.48164 0
M  V30 2097 H 203.401 -0.524952 0.522978 0
M  V30 2098 H 206.048 -0.769097 1.75377 0
M  V30 2099 H 204.353 -3.36349 2.00939 0
M  V30 2100 H 206.05 -3.22949 2.37707 0
M  V30 2101 H 202.64 -2.40334 3.54877 0
M  V30 2102 H 206.824 -2.11969 4.48757 0
M  V30 2103 H 202.08 -1.76168 5.8547 0
M  V30 2104 H 206.254 -1.48767 6.80324 0
M  V30 2105 H 203.881 -1.30322 7.48946 0
M  V30 2106 N 205.456 -1.28612 -0.910864 0
M  V30 2107 C 206.681 -1.1891 -1.69927 0
M  V30 2108 C 207.106 0.248372 -1.86453 0
M  V30 2109 O 206.464 1.17961 -1.37676 0
M  V30 2110 C 206.512 -1.89578 -3.06745 0
M  V30 2111 O 205.616 -1.20521 -3.94396 0
M  V30 2112 H 204.957 -0.412632 -0.520222 0
M  V30 2113 H 207.487 -1.69985 -1.1387 0
M  V30 2114 H 207.497 -1.97597 -3.56958 0
M  V30 2115 H 206.172 -2.94136 -2.94035 0
M  V30 2116 H 204.749 -1.20684 -3.52831 0
M  V30 2117 N 206.934 1.1197 -1.10907 0
M  V30 2118 C 207.867 2.16998 -0.706192 0
M  V30 2119 C 208.845 1.59903 0.294897 0
M  V30 2120 O 210.029 1.87513 0.192636 0
M  V30 2121 C 207.156 3.38673 -0.0427664 0
M  V30 2122 C 206.202 4.14414 -1.00811 0
M  V30 2123 S 207.035 4.72079 -2.52789 0
M  V30 2124 C 208.191 5.97083 -1.87731 0
M  V30 2125 H 208.424 2.50837 -1.59587 0
M  V30 2126 H 205.957 1.23508 -0.926555 0
M  V30 2127 H 207.915 4.09142 0.333668 0
M  V30 2128 H 206.576 3.03105 0.823788 0
M  V30 2129 H 205.769 5.016 -0.491259 0
M  V30 2130 H 205.371 3.49678 -1.3267 0
M  V30 2131 H 207.663 6.66599 -1.21044 0
M  V30 2132 H 208.606 6.53403 -2.72892 0
M  V30 2133 H 209.014 5.4837 -1.33979 0
M  V30 2134 N 208.412 0.89855 1.29475 0
M  V30 2135 C 209.64 0.539261 1.99749 0
M  V30 2136 C 210.055 -0.875716 1.67262 0
M  V30 2137 O 209.412 -1.57786 0.917049 0
M  V30 2138 C 209.463 0.72061 3.54245 0
M  V30 2139 O 209.184 2.07989 3.8558 0
M  V30 2140 C 210.685 0.366118 4.41786 0
M  V30 2141 H 207.905 0.207047 0.638258 0
M  V30 2142 H 210.449 1.20758 1.65039 0
M  V30 2143 H 208.604 0.0994862 3.87272 0
M  V30 2144 H 209.018 2.10841 4.80257 0
M  V30 2145 H 210.492 0.543848 5.49314 0
M  V30 2146 H 210.969 -0.696763 4.33638 0
M  V30 2147 H 211.575 0.964135 4.14228 0
M  V30 2148 N 209.89 -1.43072 0.660911 0
M  V30 2149 C 210.838 -2.32569 -0.0378199 0
M  V30 2150 C 211.832 -1.49046 -0.805092 0
M  V30 2151 O 213.038 -1.65206 -0.714624 0
M  V30 2152 H 209.413 -0.75136 -0.031019 0
M  V30 2153 H 211.384 -2.89216 0.734609 0
M  V30 2154 C 210.133 -3.33453 -0.985124 0
M  V30 2155 H 209.456 -3.97752 -0.404147 0
M  V30 2156 H 210.896 -3.98691 -1.44297 0
M  V30 2157 C 209.355 -2.64642 -2.08486 0
M  V30 2158 O 209.885 -2.46776 -3.16961 0
M  V30 2159 N 208.091 -2.23891 -1.8526 0
M  V30 2160 H 207.638 -2.38621 -0.970449 0
M  V30 2161 H 207.596 -1.78181 -2.59034 0
M  V30 2162 N 211.368 -0.403325 -1.52352 0
M  V30 2163 C 212.316 0.439752 -2.28405 0
M  V30 2164 C 213.31 1.05089 -1.32863 0
M  V30 2165 O 214.516 0.989759 -1.50345 0
M  V30 2166 H 210.891 0.160587 -0.734653 0
M  V30 2167 H 212.862 -0.222983 -2.97566 0
M  V30 2168 C 211.611 1.54736 -3.11371 0
M  V30 2169 H 210.934 1.08643 -3.84755 0
M  V30 2170 H 212.374 2.1112 -3.67701 0
M  V30 2171 C 210.833 2.51141 -2.24566 0
M  V30 2172 O 211.363 3.54887 -1.88196 0
M  V30 2173 N 209.569 2.21213 -1.8845 0
M  V30 2174 H 209.116 1.36878 -2.18225 0
M  V30 2175 H 209.074 2.85963 -1.30662 0
M  V30 2176 N 212.846 1.57033 -0.133567 0
M  V30 2177 C 214.092 1.95976 0.521649 0
M  V30 2178 C 214.425 1.01779 1.65393 0
M  V30 2179 O 213.7 0.0576581 1.94415 0
M  V30 2180 C 213.983 3.44738 1.04057 0
M  V30 2181 C 213.836 4.49711 -0.0892897 0
M  V30 2182 C 215.155 3.95682 1.92675 0
M  V30 2183 H 212.274 0.712579 0.188149 0
M  V30 2184 H 214.916 1.88813 -0.212076 0
M  V30 2185 H 213.066 3.50973 1.66583 0
M  V30 2186 H 214.738 4.55565 -0.725152 0
M  V30 2187 H 212.981 4.27261 -0.750378 0
M  V30 2188 H 213.652 5.51099 0.315284 0
M  V30 2189 H 216.128 3.91841 1.39998 0
M  V30 2190 H 215.004 5.00262 2.25897 0
M  V30 2191 H 215.265 3.37239 2.85872 0
M  V30 2192 N 214.325 -0.140222 1.56975 0
M  V30 2193 C 215.255 -1.17456 2.01808 0
M  V30 2194 C 216.236 -1.44415 0.898794 0
M  V30 2195 O 217.421 -1.5522 1.16707 0
M  V30 2196 C 214.551 -2.50607 2.40444 0
M  V30 2197 C 213.505 -2.38155 3.55621 0
M  V30 2198 C 212.831 -3.76078 3.80091 0
M  V30 2199 C 214.131 -1.85991 4.88062 0
M  V30 2200 H 215.825 -0.801743 2.88466 0
M  V30 2201 H 213.371 -0.38422 1.38779 0
M  V30 2202 H 215.324 -3.23197 2.7041 0
M  V30 2203 H 214.048 -2.89737 1.50732 0
M  V30 2204 H 212.707 -1.68016 3.25832 0
M  V30 2205 H 212.355 -4.12656 2.87618 0
M  V30 2206 H 212.055 -3.68606 4.57606 0
M  V30 2207 H 213.579 -4.50206 4.12488 0
M  V30 2208 H 214.993 -2.4838 5.16701 0
M  V30 2209 H 213.39 -1.89393 5.6943 0
M  V30 2210 H 214.46 -0.816023 4.77984 0
M  V30 2211 N 215.803 -1.52179 -0.40978 0
M  V30 2212 C 216.733 -1.78435 -1.5061 0
M  V30 2213 C 217.714 -0.635295 -1.57791 0
M  V30 2214 O 218.899 -0.880823 -1.73076 0
M  V30 2215 C 216.029 -1.93444 -2.88439 0
M  V30 2216 C 214.983 -3.09038 -2.96108 0
M  V30 2217 C 214.309 -3.09268 -4.36185 0
M  V30 2218 C 215.609 -4.48508 -2.67652 0
M  V30 2219 H 217.303 -2.70237 -1.28889 0
M  V30 2220 H 214.849 -1.30036 -0.618605 0
M  V30 2221 H 216.802 -2.10394 -3.65119 0
M  V30 2222 H 215.526 -0.983129 -3.11452 0
M  V30 2223 H 214.185 -2.91837 -2.21872 0
M  V30 2224 H 213.833 -2.11861 -4.56206 0
M  V30 2225 H 213.533 -3.86907 -4.42241 0
M  V30 2226 H 215.057 -3.28348 -5.14801 0
M  V30 2227 H 216.471 -4.65918 -3.34056 0
M  V30 2228 H 214.868 -5.28059 -2.85085 0
M  V30 2229 H 215.938 -4.56649 -1.63095 0
M  V30 2230 N 217.281 0.66697 -1.42791 0
M  V30 2231 C 218.521 1.43892 -1.4517 0
M  V30 2232 C 218.885 1.91877 -0.0687551 0
M  V30 2233 O 220.086 2.6878 0.0327455 0
M  V30 2234 C 218.357 2.59839 -2.45395 0
M  V30 2235 S 219.916 3.48572 -2.66539 0
M  V30 2236 H 216.734 0.491356 -0.513897 0
M  V30 2237 H 219.336 0.775656 -1.79454 0
M  V30 2238 H 218.04 2.22838 -3.44632 0
M  V30 2239 H 217.571 3.3103 -2.12562 0
M  V30 2240 H 219.586 4.56094 -1.95429 0
M  V30 2241 N 218.759 1.29093 0.90403 0
M  V30 2242 C 219.984 1.19809 1.69294 0
M  V30 2243 C 220.409 -0.238481 1.86582 0
M  V30 2244 O 219.767 -1.1723 1.383 0
M  V30 2245 C 219.815 1.91202 3.05736 0
M  V30 2246 O 218.919 1.22611 3.93752 0
M  V30 2247 H 218.26 0.415385 0.518027 0
M  V30 2248 H 220.79 1.70586 1.12967 0
M  V30 2249 H 220.8 1.99487 3.55906 0
M  V30 2250 H 219.475 2.95692 2.92471 0
M  V30 2251 H 218.052 1.22554 3.52186 0
M  V30 2252 N 220.237 -1.11381 1.11499 0
M  V30 2253 C 221.169 -2.17207 0.731704 0
M  V30 2254 C 222.182 -1.61066 -0.236957 0
M  V30 2255 O 223.371 -1.78489 -0.0197591 0
M  V30 2256 C 220.471 -3.38846 0.0607624 0
M  V30 2257 C 219.644 -4.24451 1.0564 0
M  V30 2258 C 218.703 -5.24562 0.4149 0
M  V30 2259 O 217.729 -5.59071 1.069 0
M  V30 2260 N 218.931 -5.74651 -0.821943 0
M  V30 2261 H 221.696 -2.50699 1.64225 0
M  V30 2262 H 219.257 -1.26908 1.00529 0
M  V30 2263 H 221.249 -4.02911 -0.380139 0
M  V30 2264 H 219.819 -3.03411 -0.752376 0
M  V30 2265 H 219.039 -3.56833 1.67524 0
M  V30 2266 H 220.327 -4.78486 1.72998 0
M  V30 2267 H 219.725 -5.48797 -1.37252 0
M  V30 2268 H 218.282 -6.40549 -1.20582 0
M  V30 2269 N 221.715 -0.905404 -1.28997 0
M  V30 2270 C 222.678 -0.392253 -2.25819 0
M  V30 2271 C 223.678 0.476753 -1.5357 0
M  V30 2272 O 224.868 0.280994 -1.71919 0
M  V30 2273 C 222 0.438588 -3.38067 0
M  V30 2274 H 223.193 -1.24743 -2.72725 0
M  V30 2275 H 220.746 -0.684051 -1.40536 0
M  V30 2276 H 221.481 1.31352 -2.96508 0
M  V30 2277 H 221.266 -0.184167 -3.91667 0
M  V30 2278 H 222.756 0.78873 -4.10084 0
M  V30 2279 N 223.193 1.4272 -0.668489 0
M  V30 2280 C 224.47 1.95248 -0.117373 0
M  V30 2281 C 224.85 1.60919 1.36632 0
M  V30 2282 O 224.198 0.902095 2.09939 0
M  V30 2283 C 224.408 3.46927 -0.379806 0
M  V30 2284 C 225.756 4.23588 -0.292923 0
M  V30 2285 O 226.78 3.5482 -0.313204 0
M  V30 2286 O 225.639 5.46017 -0.229697 0
M  V30 2287 H 222.733 0.827 0.00079152 0
M  V30 2288 H 225.279 1.52581 -0.742783 0
M  V30 2289 H 224.051 3.65096 -1.40786 0
M  V30 2290 H 223.674 3.96627 0.277923 0
M  V30 2291 N 224.671 0.411399 1.52136 0
M  V30 2292 C 225.601 -0.404015 2.29978 0
M  V30 2293 C 226.582 -1.04412 1.34284 0
M  V30 2294 O 227.767 -1.0527 1.63192 0
M  V30 2295 C 224.897 -1.5197 3.12286 0
M  V30 2296 C 223.851 -1.00448 4.16046 0
M  V30 2297 C 223.177 -2.21393 4.86712 0
M  V30 2298 C 224.477 -0.0569336 5.22269 0
M  V30 2299 H 226.171 0.245529 2.98392 0
M  V30 2300 H 223.717 0.119525 1.43503 0
M  V30 2301 H 225.67 -2.09715 3.6551 0
M  V30 2302 H 224.394 -2.19716 2.41646 0
M  V30 2303 H 223.053 -0.449421 3.63835 0
M  V30 2304 H 222.701 -2.87699 4.12599 0
M  V30 2305 H 222.401 -1.87571 5.56858 0
M  V30 2306 H 223.925 -2.7974 5.4275 0
M  V30 2307 H 225.339 -0.54325 5.7072 0
M  V30 2308 H 223.736 0.192594 5.99791 0
M  V30 2309 H 224.806 0.887663 4.76706 0
M  V30 2310 N 226.149 -1.5696 0.141893 0
M  V30 2311 C 227.56 -1.82797 -0.379776 0
M  V30 2312 C 227.911 -1.06033 -1.6508 0
M  V30 2313 O 227.036 -0.304011 -2.14254 0
M  V30 2314 C 227.631 -3.31578 -0.695802 0
M  V30 2315 C 226.19 -3.58014 -1.16201 0
M  V30 2316 C 225.337 -2.76699 -0.182455 0
M  V30 2317 H 228.288 -1.54406 0.366675 0
M  V30 2318 H 228.309 -3.47454 -1.55099 0
M  V30 2319 H 227.821 -3.87421 0.229449 0
M  V30 2320 H 225.922 -3.07553 -2.10338 0
M  V30 2321 H 226.035 -4.66501 -1.09151 0
M  V30 2322 H 224.399 -2.45618 -0.674072 0
M  V30 2323 H 225.182 -3.35311 0.736297 0
M  V30 2324 N 227.627 0.131896 -1.57047 0
M  V30 2325 C 228.904 0.871495 -1.75112 0
M  V30 2326 C 229.284 1.9866 -0.713949 0
M  V30 2327 O 228.632 2.26965 0.264447 0
M  V30 2328 C 228.842 1.40007 -3.19686 0
M  V30 2329 C 230.19 1.85752 -3.81813 0
M  V30 2330 O 231.214 1.49715 -3.23209 0
M  V30 2331 O 230.073 2.5226 -4.84796 0
M  V30 2332 H 227.167 0.412919 -0.716538 0
M  V30 2333 H 229.713 0.116641 -1.69299 0
M  V30 2334 H 228.485 0.599404 -3.86682 0
M  V30 2335 H 228.108 2.218 -3.29986 0
M  V30 2336 N 229.106 1.52395 0.401703 0
M  V30 2337 C 230.036 1.79231 1.49661 0
M  V30 2338 C 231.017 0.643654 1.57452 0
M  V30 2339 O 232.202 0.889989 1.72606 0
M  V30 2340 C 229.332 1.94971 2.87409 0
M  V30 2341 C 228.286 3.10604 2.94465 0
M  V30 2342 C 227.612 3.11577 4.34538 0
M  V30 2343 C 228.912 4.49921 2.6527 0
M  V30 2344 H 230.606 2.70917 1.27454 0
M  V30 2345 H 228.152 1.30362 0.6117 0
M  V30 2346 H 230.105 2.12328 3.63999 0
M  V30 2347 H 228.829 0.999632 3.10926 0
M  V30 2348 H 227.488 2.93009 2.20321 0
M  V30 2349 H 227.136 2.14277 4.55076 0
M  V30 2350 H 226.836 3.89247 4.40183 0
M  V30 2351 H 228.36 3.31073 5.13053 0
M  V30 2352 H 229.774 4.67683 3.31581 0
M  V30 2353 H 228.171 5.29564 2.82281 0
M  V30 2354 H 229.241 4.57507 1.60671 0
M  V30 2355 N 230.584 -0.659388 1.43143 0
M  V30 2356 C 231.516 -1.7849 1.43784 0
M  V30 2357 C 232.529 -1.5932 0.334787 0
M  V30 2358 O 233.718 -1.68155 0.598842 0
M  V30 2359 C 230.818 -3.15828 1.22906 0
M  V30 2360 C 229.991 -3.61711 2.45934 0
M  V30 2361 C 229.05 -4.77831 2.20371 0
M  V30 2362 O 228.076 -4.87586 2.93681 0
M  V30 2363 N 229.278 -5.67611 1.21647 0
M  V30 2364 H 232.043 -1.7842 2.40803 0
M  V30 2365 H 229.604 -0.84302 1.3822 0
M  V30 2366 H 231.596 -3.91189 1.03697 0
M  V30 2367 H 230.166 -3.10707 0.343542 0
M  V30 2368 H 229.386 -2.76861 2.80609 0
M  V30 2369 H 230.674 -3.89112 3.27825 0
M  V30 2370 H 230.072 -5.62397 0.610449 0
M  V30 2371 H 228.629 -6.42719 1.08423 0
M  V30 2372 N 232.062 -1.29571 -0.897171 0
M  V30 2373 C 233.025 -1.14913 -1.98312 0
M  V30 2374 C 234.025 -0.0838629 -1.60581 0
M  V30 2375 O 235.215 -0.331006 -1.71026 0
M  V30 2376 C 232.347 -0.757835 -3.3237 0
M  V30 2377 H 233.54 -2.11377 -2.12743 0
M  V30 2378 H 231.093 -1.12793 -1.08201 0
M  V30 2379 H 231.828 0.206837 -3.2364 0
M  V30 2380 H 231.613 -1.52755 -3.61121 0
M  V30 2381 H 233.103 -0.678408 -4.12053 0
M  V30 2382 N 233.54 1.10788 -1.12088 0
M  V30 2383 C 234.47 2.19083 -0.807755 0
M  V30 2384 C 235.451 1.6858 0.226859 0
M  V30 2385 O 236.636 1.93997 0.0888475 0
M  V30 2386 C 233.766 3.46344 -0.257576 0
M  V30 2387 C 232.72 4.101 -1.22483 0
M  V30 2388 C 232.046 5.32016 -0.535052 0
M  V30 2389 C 233.346 4.54236 -2.57811 0
M  V30 2390 H 235.04 2.45534 -1.71328 0
M  V30 2391 H 232.586 1.1801 -0.825205 0
M  V30 2392 H 234.539 4.21392 -0.0262679 0
M  V30 2393 H 233.263 3.19373 0.683278 0
M  V30 2394 H 231.922 3.37054 -1.44189 0
M  V30 2395 H 231.57 5.01319 0.410827 0
M  V30 2396 H 231.27 5.75625 -1.18024 0
M  V30 2397 H 232.794 6.09799 -0.312695 0
M  V30 2398 H 234.208 5.20575 -2.40155 0
M  V30 2399 H 232.605 5.08682 -3.18375 0
M  V30 2400 H 233.675 3.6734 -3.16528 0
M  V30 2401 N 235.018 0.912232 1.28515 0
M  V30 2402 C 236.434 0.610159 1.47476 0
M  V30 2403 C 236.634 -0.844955 1.82928 0
M  V30 2404 O 235.69 -1.62416 1.93332 0
M  V30 2405 C 237.003 1.54675 2.57868 0
M  V30 2406 C 238.551 1.55331 2.71738 0
M  V30 2407 C 239.026 2.47649 3.85272 0
M  V30 2408 N 240.517 2.45767 3.92623 0
M  V30 2409 C 241.252 3.13896 4.79851 0
M  V30 2410 N 240.748 3.9135 5.71679 0
M  V30 2411 N 242.541 3.02991 4.73448 0
M  V30 2412 H 234.692 1.85318 1.03783 0
M  V30 2413 H 236.955 0.794777 0.516753 0
M  V30 2414 H 236.661 2.5841 2.38574 0
M  V30 2415 H 236.535 1.27671 3.54937 0
M  V30 2416 H 238.922 0.52335 2.90422 0
M  V30 2417 H 239.003 1.86378 1.75205 0
M  V30 2418 H 238.647 3.50745 3.67342 0
M  V30 2419 H 238.577 2.13904 4.81199 0
M  V30 2420 H 241.068 1.89503 3.26951 0
M  V30 2421 H 241.381 4.40359 6.35062 0
M  V30 2422 H 239.726 3.95455 5.71524 0
M  V30 2423 H 242.917 2.41987 4.007 0
M  V30 2424 H 243.09 3.5636 5.41213 0
M  V30 2425 N 236.496 -1.42363 0.676048 0
M  V30 2426 C 237.406 -2.346 -0.00153389 0
M  V30 2427 C 238.422 -1.5516 -0.787485 0
M  V30 2428 O 239.598 -1.87723 -0.729521 0
M  V30 2429 C 236.663 -3.33705 -0.940298 0
M  V30 2430 C 235.724 -4.29042 -0.148739 0
M  V30 2431 C 234.957 -5.23413 -1.04279 0
M  V30 2432 O 235.18 -5.22749 -2.28232 0
M  V30 2433 O 234.114 -5.99795 -0.502925 0
M  V30 2434 H 237.94 -2.94082 0.758268 0
M  V30 2435 H 235.525 -1.42888 0.436289 0
M  V30 2436 H 237.407 -3.94586 -1.47917 0
M  V30 2437 H 236.082 -2.76695 -1.67993 0
M  V30 2438 H 234.989 -3.71571 0.43427 0
M  V30 2439 H 236.322 -4.89097 0.551805 0
M  V30 2440 N 237.974 -0.419461 -1.51915 0
M  V30 2441 C 239.251 0.211999 -1.94448 0
M  V30 2442 C 239.631 1.61703 -1.35703 0
M  V30 2443 O 238.979 2.22102 -0.536931 0
M  V30 2444 C 239.189 0.207872 -3.4838 0
M  V30 2445 C 240.537 0.422192 -4.22496 0
M  V30 2446 O 241.561 0.286778 -3.55044 0
M  V30 2447 O 240.42 0.690009 -5.42126 0
M  V30 2448 H 237.514 0.139586 -0.815135 0
M  V30 2449 H 240.06 -0.476151 -1.62883 0
M  V30 2450 H 238.832 -0.775102 -3.83546 0
M  V30 2451 H 238.455 0.939688 -3.86336 0
M  V30 2452 N 239.452 1.56882 -0.150215 0
M  V30 2453 C 240.698 1.96518 0.500834 0
M  V30 2454 C 241.031 1.03527 1.64304 0
M  V30 2455 O 240.306 0.0782751 1.94342 0
M  V30 2456 C 240.589 3.45822 1.00395 0
M  V30 2457 C 240.442 4.49591 -0.136983 0
M  V30 2458 C 241.761 3.97704 1.88467 0
M  V30 2459 H 238.88 0.714535 0.18058 0
M  V30 2460 H 241.522 1.88577 -0.232091 0
M  V30 2461 H 239.672 3.5272 1.62851 0
M  V30 2462 H 241.344 4.5477 -0.77343 0
M  V30 2463 H 239.587 4.26441 -0.795652 0
M  V30 2464 H 240.258 5.51402 0.256815 0
M  V30 2465 H 242.734 3.93304 1.35834 0
M  V30 2466 H 241.61 5.0263 2.20578 0
M  V30 2467 H 241.871 3.40252 2.82279 0
M  V30 2468 N 240.93 -0.123565 1.57115 0
M  V30 2469 C 242.177 -0.832153 1.84612 0
M  V30 2470 C 242.505 -1.80093 0.734627 0
M  V30 2471 O 241.76 -1.93766 -0.27442 0
M  V30 2472 C 242.059 -1.62016 3.18568 0
M  V30 2473 C 241.725 -0.796084 4.43817 0
M  V30 2474 C 240.387 -0.568816 4.77826 0
M  V30 2475 C 242.739 -0.221364 5.2073 0
M  V30 2476 C 240.067 0.243499 5.86194 0
M  V30 2477 C 242.419 0.578117 6.29953 0
M  V30 2478 C 241.083 0.815744 6.62497 0
M  V30 2479 H 240.353 -0.304507 0.675542 0
M  V30 2480 H 243 -0.0947248 1.91266 0
M  V30 2481 H 241.305 -2.42837 3.0747 0
M  V30 2482 H 243.002 -2.17231 3.37064 0
M  V30 2483 H 239.592 -0.983307 4.17168 0
M  V30 2484 H 243.776 -0.384173 4.94811 0
M  V30 2485 H 239.032 0.436871 6.09837 0
M  V30 2486 H 243.206 1.03046 6.88734 0
M  V30 2487 H 240.833 1.44701 7.46301 0
M  V30 2488 N 242.408 -1.52605 -0.393616 0
M  V30 2489 C 243.34 -1.73303 -1.49995 0
M  V30 2490 C 244.353 -0.613473 -1.50799 0
M  V30 2491 O 245.542 -0.889049 -1.54784 0
M  V30 2492 C 242.642 -1.77245 -2.88855 0
M  V30 2493 C 241.815 -3.06483 -3.12069 0
M  V30 2494 C 240.874 -3.02033 -4.30886 0
M  V30 2495 O 239.9 -3.75907 -4.27414 0
M  V30 2496 N 241.102 -2.20897 -5.36828 0
M  V30 2497 H 243.867 -2.68756 -1.32629 0
M  V30 2498 H 241.428 -1.51036 -0.583083 0
M  V30 2499 H 243.42 -1.7178 -3.66434 0
M  V30 2500 H 241.99 -0.891993 -2.99603 0
M  V30 2501 H 241.21 -3.25474 -2.22396 0
M  V30 2502 H 242.498 -3.91947 -3.2443 0
M  V30 2503 H 241.896 -1.60336 -5.42502 0
M  V30 2504 H 240.453 -2.21275 -6.13091 0
M  V30 2505 N 243.887 0.651787 -1.4349 0
M  V30 2506 C 244.834 1.76462 -1.4876 0
M  V30 2507 C 245.804 1.62641 -0.337189 0
M  V30 2508 O 246.989 1.82864 -0.544544 0
M  V30 2509 C 244.129 3.14623 -1.41796 0
M  V30 2510 C 243.242 3.39568 -2.67053 0
M  V30 2511 C 242.377 4.67585 -2.52068 0
M  V30 2512 C 241.416 4.85639 -3.72587 0
M  V30 2513 N 240.553 6.04915 -3.56402 0
M  V30 2514 H 245.393 1.71293 -2.43849 0
M  V30 2515 H 242.93 0.835889 -1.21043 0
M  V30 2516 H 244.888 3.94496 -1.35753 0
M  V30 2517 H 243.518 3.18859 -0.50288 0
M  V30 2518 H 242.57 2.53783 -2.8337 0
M  V30 2519 H 243.882 3.48795 -3.56572 0
M  V30 2520 H 243.036 5.55586 -2.4374 0
M  V30 2521 H 241.775 4.60681 -1.60075 0
M  V30 2522 H 240.78 3.96073 -3.81321 0
M  V30 2523 H 242.005 4.94372 -4.65589 0
M  V30 2524 H 239.951 5.9914 -2.67146 0
M  V30 2525 H 239.868 6.15106 -4.39524 0
M  V30 2526 H 241.136 6.95533 -3.51929 0
M  V30 2527 N 245.365 1.30045 0.890287 0
M  V30 2528 C 246.313 1.15873 2.01683 0
M  V30 2529 C 247.307 0.0719403 1.69247 0
M  V30 2530 O 248.513 0.232414 1.78493 0
M  V30 2531 H 244.888 0.358203 0.661207 0
M  V30 2532 H 246.859 2.11229 2.10772 0
M  V30 2533 C 245.608 0.861842 3.36849 0
M  V30 2534 H 244.931 1.69016 3.62317 0
M  V30 2535 H 246.371 0.802762 4.16331 0
M  V30 2536 C 244.83 -0.435132 3.34078 0
M  V30 2537 O 245.36 -1.4583 3.74295 0
M  V30 2538 N 243.566 -0.444377 2.87182 0
M  V30 2539 H 243.113 0.388723 2.5465 0
M  V30 2540 H 243.071 -1.31213 2.85711 0
M  V30 2541 N 246.843 -1.10192 1.12674 0
M  V30 2542 C 248.068 -1.86523 0.906853 0
M  V30 2543 C 248.493 -1.80221 -0.538711 0
M  V30 2544 O 247.851 -1.17396 -1.38158 0
M  V30 2545 C 247.899 -3.32758 1.3894 0
M  V30 2546 O 247.003 -4.08449 0.5695 0
M  V30 2547 H 246.344 -0.578678 0.325619 0
M  V30 2548 H 248.874 -1.39203 1.49946 0
M  V30 2549 H 248.884 -3.83608 1.38958 0
M  V30 2550 H 247.559 -3.36661 2.44197 0
M  V30 2551 H 246.136 -3.67427 0.636528 0
M  V30 2552 N 248.321 -0.919034 -1.28029 0
M  V30 2553 C 249.598 -0.473668 -1.89778 0
M  V30 2554 C 249.978 1.04783 -1.83259 0
M  V30 2555 O 249.326 1.8982 -1.27202 0
M  V30 2556 C 249.536 -1.00998 -3.34066 0
M  V30 2557 C 250.884 -1.06525 -4.1102 0
M  V30 2558 O 251.908 -0.958996 -3.43048 0
M  V30 2559 O 250.767 -1.22776 -5.3253 0
M  V30 2560 H 247.861 -0.15098 -0.813101 0
M  V30 2561 H 250.407 -1.01016 -1.36359 0
M  V30 2562 H 249.179 -2.05392 -3.33061 0
M  V30 2563 H 248.802 -0.454626 -3.94992 0
M  V30 2564 N 249.799 1.42003 -0.683588 0
M  V30 2565 C 251.039 2.03282 -0.213513 0
M  V30 2566 C 251.403 1.52924 1.16097 0
M  V30 2567 O 252.604 2.06048 1.7262 0
M  V30 2568 C 250.875 3.56483 -0.255856 0
M  V30 2569 S 252.434 4.3857 0.14193 0
M  V30 2570 H 249.252 0.705659 -0.0869853 0
M  V30 2571 H 251.854 1.73619 -0.8987 0
M  V30 2572 H 250.558 3.90631 -1.25841 0
M  V30 2573 H 250.089 3.90831 0.448875 0
M  V30 2574 H 252.104 4.76828 1.37295 0
M  V30 2575 N 251.277 0.427512 1.51691 0
M  V30 2576 C 252.523 -0.142439 2.02299 0
M  V30 2577 C 252.856 -1.43214 1.31162 0
M  V30 2578 O 252.131 -1.89833 0.423511 0
M  V30 2579 C 252.414 -0.371301 3.58181 0
M  V30 2580 C 252.267 0.936358 4.39946 0
M  V30 2581 C 253.586 -1.14542 4.24933 0
M  V30 2582 H 250.705 -0.0502937 0.735282 0
M  V30 2583 H 253.347 0.564584 1.81418 0
M  V30 2584 H 251.497 -0.973559 3.76104 0
M  V30 2585 H 253.169 1.57184 4.33694 0
M  V30 2586 H 251.412 1.5432 4.05423 0
M  V30 2587 H 252.083 0.730388 5.47147 0
M  V30 2588 H 254.559 -0.635362 4.11221 0
M  V30 2589 H 253.435 -1.27431 5.33903 0
M  V30 2590 H 253.696 -2.17093 3.85127 0
M  V30 2591 N 252.755 -1.56801 0.158532 0
M  V30 2592 C 254.003 -1.96102 -0.488712 0
M  V30 2593 C 254.324 -1.04498 -1.64636 0
M  V30 2594 O 253.594 -0.108783 -1.95598 0
M  V30 2595 H 252.174 -0.724102 -0.183535 0
M  V30 2596 H 254.836 -1.93457 0.236728 0
M  V30 2597 H 253.932 -3.00097 -0.857219 0
M  V30 2598 N 254.233 0.115231 -1.57178 0
M  V30 2599 C 255.458 0.840354 -1.89612 0
M  V30 2600 C 255.883 1.72464 -0.750845 0
M  V30 2601 O 255.241 1.78826 0.298478 0
M  V30 2602 C 255.289 1.64654 -3.20814 0
M  V30 2603 O 254.393 2.7538 -3.06985 0
M  V30 2604 H 253.734 0.232158 -0.622092 0
M  V30 2605 H 256.264 0.0964977 -2.04372 0
M  V30 2606 H 256.274 2.03499 -3.53627 0
M  V30 2607 H 254.949 0.997416 -4.03763 0
M  V30 2608 H 253.526 2.3971 -2.85646 0
M  V30 2609 N 255.711 1.52812 0.385517 0
M  V30 2610 C 256.941 1.71658 1.14966 0
M  V30 2611 C 257.349 0.436253 1.84102 0
M  V30 2612 O 256.692 -0.599313 1.73649 0
M  V30 2613 C 256.754 2.81309 2.23843 0
M  V30 2614 C 256.418 4.22313 1.74644 0
M  V30 2615 C 257.415 5.05352 1.22129 0
M  V30 2616 C 255.1 4.68648 1.80761 0
M  V30 2617 C 257.094 6.32807 0.763838 0
M  V30 2618 C 254.781 5.96086 1.34627 0
M  V30 2619 C 255.779 6.77996 0.825264 0
M  V30 2620 O 255.467 8.03045 0.370669 0
M  V30 2621 H 255.199 0.578022 0.350523 0
M  V30 2622 H 257.753 2.00263 0.456509 0
M  V30 2623 H 255.983 2.48133 2.96592 0
M  V30 2624 H 257.672 2.88524 2.85497 0
M  V30 2625 H 258.438 4.70736 1.16758 0
M  V30 2626 H 254.317 4.04979 2.20256 0
M  V30 2627 H 257.861 6.96689 0.356494 0
M  V30 2628 H 253.758 6.30205 1.39686 0
M  V30 2629 H 254.526 8.17021 0.491829 0
M  V30 2630 N 257.189 -0.644168 1.43834 0
M  V30 2631 C 258.417 -1.43147 1.49387 0
M  V30 2632 C 258.832 -1.88452 0.114583 0
M  V30 2633 O 258.189 -1.60047 -0.876989 0
M  V30 2634 C 258.24 -2.66046 2.44748 0
M  V30 2635 O 257.961 -2.22633 3.77314 0
M  V30 2636 C 259.462 -3.59311 2.59635 0
M  V30 2637 H 256.682 -0.439447 0.507077 0
M  V30 2638 H 259.226 -0.78895 1.88669 0
M  V30 2639 H 257.381 -3.26418 2.08638 0
M  V30 2640 H 257.795 -3.02216 4.28679 0
M  V30 2641 H 259.269 -4.42187 3.30416 0
M  V30 2642 H 259.746 -4.07259 1.64427 0
M  V30 2643 H 260.352 -3.04816 2.96593 0
M  V30 2644 N 258.668 -1.30515 -0.883378 0
M  V30 2645 C 259.598 -1.19607 -2.00541 0
M  V30 2646 C 260.579 -0.086346 -1.69881 0
M  V30 2647 O 261.764 -0.268654 -1.92333 0
M  V30 2648 C 258.894 -0.888758 -3.35736 0
M  V30 2649 C 257.848 -1.95659 -3.8066 0
M  V30 2650 C 257.174 -1.50224 -5.13164 0
M  V30 2651 C 258.474 -3.36788 -3.99213 0
M  V30 2652 H 260.168 -2.13476 -2.09925 0
M  V30 2653 H 257.714 -1.02775 -1.00863 0
M  V30 2654 H 259.667 -0.799094 -4.13754 0
M  V30 2655 H 258.391 0.0856125 -3.26488 0
M  V30 2656 H 257.05 -2.03591 -3.04871 0
M  V30 2657 H 256.698 -0.516092 -5.00345 0
M  V30 2658 H 256.398 -2.2165 -5.44192 0
M  V30 2659 H 257.922 -1.42639 -5.93706 0
M  V30 2660 H 259.336 -3.31605 -4.67665 0
M  V30 2661 H 257.733 -4.06314 -4.41621 0
M  V30 2662 H 258.803 -3.78561 -3.03017 0
M  V30 2663 N 260.146 1.09593 -1.13257 0
M  V30 2664 C 261.395 1.81105 -0.887917 0
M  V30 2665 C 261.708 1.86563 0.587672 0
M  V30 2666 O 262.914 2.54367 0.949204 0
M  V30 2667 C 261.37 3.25338 -1.53895 0
M  V30 2668 C 260.978 3.28151 -3.04994 0
M  V30 2669 C 262.722 4.01617 -1.37492 0
M  V30 2670 C 260.629 4.66897 -3.6299 0
M  V30 2671 H 259.559 0.678661 -0.328534 0
M  V30 2672 H 262.21 1.23183 -1.36008 0
M  V30 2673 H 260.592 3.8331 -0.994446 0
M  V30 2674 H 261.766 2.79953 -3.66009 0
M  V30 2675 H 260.081 2.65361 -3.20893 0
M  V30 2676 H 262.678 5.04119 -1.78235 0
M  V30 2677 H 263.021 4.15072 -0.31957 0
M  V30 2678 H 263.554 3.50082 -1.88912 0
M  V30 2679 H 260.293 4.58643 -4.68323 0
M  V30 2680 H 259.813 5.15426 -3.06752 0
M  V30 2681 H 261.492 5.3587 -3.62563 0
M  V30 2682 N 261.624 0.925811 1.2754 0
M  V30 2683 C 263.035 0.610102 1.7645 0
M  V30 2684 C 263.386 -0.874723 1.75622 0
M  V30 2685 O 262.511 -1.68444 1.35851 0
M  V30 2686 C 263.106 1.10073 3.20421 0
M  V30 2687 C 261.665 0.835723 3.67005 0
M  V30 2688 C 260.812 1.26054 2.46993 0
M  V30 2689 H 263.763 1.10579 1.13833 0
M  V30 2690 H 263.784 0.447557 3.77859 0
M  V30 2691 H 263.296 2.18143 3.20991 0
M  V30 2692 H 261.397 -0.231249 3.71882 0
M  V30 2693 H 261.51 1.45193 4.56569 0
M  V30 2694 H 259.874 0.679111 2.45479 0
M  V30 2695 H 260.657 2.34984 2.50275 0
M  V30 2696 N 263.102 -1.41638 0.69111 0
M  V30 2697 C 264.332 -2.0533 0.228758 0
M  V30 2698 C 264.74 -1.52089 -1.12541 0
M  V30 2699 O 264.083 -0.662145 -1.71351 0
M  V30 2700 C 264.145 -3.59349 0.10407 0
M  V30 2701 C 263.809 -4.35362 1.38956 0
M  V30 2702 C 264.806 -4.64942 2.32648 0
M  V30 2703 C 262.491 -4.74714 1.64169 0
M  V30 2704 C 264.485 -5.32828 3.49818 0
M  V30 2705 C 262.172 -5.42338 2.81625 0
M  V30 2706 C 263.17 -5.71322 3.74273 0
M  V30 2707 O 262.858 -6.37554 4.89673 0
M  V30 2708 H 262.59 -0.667796 0.104997 0
M  V30 2709 H 265.144 -1.82477 0.942938 0
M  V30 2710 H 263.374 -3.80924 -0.665839 0
M  V30 2711 H 265.063 -4.04633 -0.320519 0
M  V30 2712 H 265.829 -4.35025 2.14425 0
M  V30 2713 H 261.708 -4.51538 0.929202 0
M  V30 2714 H 265.252 -5.55368 4.22152 0
M  V30 2715 H 261.149 -5.71673 2.99768 0
M  V30 2716 H 261.917 -6.56049 4.8943 0
M  V30 2717 N 264.58 -0.43555 -1.51462 0
M  V30 2718 C 265.826 0.131709 -2.02372 0
M  V30 2719 C 266.159 1.42516 -1.3192 0
M  V30 2720 O 265.434 1.89606 -0.433573 0
M  V30 2721 C 265.717 0.352301 -3.58373 0
M  V30 2722 C 265.57 -0.959676 -4.39443 0
M  V30 2723 C 266.889 1.12286 -4.25535 0
M  V30 2724 H 264.008 0.0463936 -0.735538 0
M  V30 2725 H 266.65 -0.574197 -1.81116 0
M  V30 2726 H 264.8 0.9536 -3.76615 0
M  V30 2727 H 266.472 -1.59482 -4.32855 0
M  V30 2728 H 264.715 -1.56468 -4.04599 0
M  V30 2729 H 265.386 -0.759394 -5.46752 0
M  V30 2730 H 267.862 0.613545 -4.11552 0
M  V30 2731 H 266.738 1.24598 -5.34571 0
M  V30 2732 H 266.999 2.15048 -3.86273 0
M  V30 2733 N 266.058 1.56714 -0.166846 0
M  V30 2734 C 267.304 1.97039 0.479962 0
M  V30 2735 C 267.637 1.05264 1.63197 0
M  V30 2736 O 266.912 0.0988833 1.94248 0
M  V30 2737 C 267.195 3.46867 0.967212 0
M  V30 2738 C 267.048 4.49421 -0.18466 0
M  V30 2739 C 268.367 3.9968 1.84238 0
M  V30 2740 H 265.486 0.71641 0.172992 0
M  V30 2741 H 268.128 1.8832 -0.252079 0
M  V30 2742 H 266.278 3.54428 1.59101 0
M  V30 2743 H 267.95 4.53924 -0.821621 0
M  V30 2744 H 266.193 4.25573 -0.840837 0
M  V30 2745 H 266.864 5.51644 0.198317 0
M  V30 2746 H 269.34 3.94723 1.31655 0
M  V30 2747 H 268.216 5.04941 2.15234 0
M  V30 2748 H 268.477 3.43226 2.78654 0
M  V30 2749 N 267.536 -0.106894 1.57237 0
M  V30 2750 C 268.764 -0.826389 1.8968 0
M  V30 2751 C 269.179 -1.72856 0.759353 0
M  V30 2752 O 268.536 -1.80503 -0.269263 0
M  V30 2753 C 268.587 -1.64967 3.21665 0
M  V30 2754 O 268.308 -0.783804 4.31031 0
M  V30 2755 C 269.809 -2.47326 3.67892 0
M  V30 2756 H 267.029 -0.236927 0.627779 0
M  V30 2757 H 269.573 -0.0876593 2.04312 0
M  V30 2758 H 267.728 -2.34103 3.08666 0
M  V30 2759 H 268.142 -1.35284 5.06753 0
M  V30 2760 H 269.616 -3.00604 4.6297 0
M  V30 2761 H 270.093 -3.25247 2.95146 0
M  V30 2762 H 270.699 -1.83411 3.83719 0
M  V30 2763 N 269.014 -1.53014 -0.377408 0
M  V30 2764 C 269.977 -1.77957 -1.44444 0
M  V30 2765 C 270.977 -0.649763 -1.47087 0
M  V30 2766 O 272.167 -0.917897 -1.48055 0
M  V30 2767 C 269.299 -1.89089 -2.83651 0
M  V30 2768 H 270.492 -2.73243 -1.23606 0
M  V30 2769 H 268.045 -1.43912 -0.609844 0
M  V30 2770 H 268.78 -0.958293 -3.09818 0
M  V30 2771 H 268.565 -2.71254 -2.83132 0
M  V30 2772 H 270.055 -2.1002 -3.60945 0
M  V30 2773 N 270.492 0.636531 -1.44174 0
M  V30 2774 C 271.72 1.42353 -1.50144 0
M  V30 2775 C 272.135 1.88389 -0.124575 0
M  V30 2776 O 271.492 1.6051 0.868489 0
M  V30 2777 C 271.543 2.64744 -2.46156 0
M  V30 2778 O 271.264 2.20629 -3.7849 0
M  V30 2779 C 272.765 3.57929 -2.61537 0
M  V30 2780 H 269.985 0.436752 -0.5094 0
M  V30 2781 H 272.529 0.778933 -1.89084 0
M  V30 2782 H 270.684 3.25307 -2.10366 0
M  V30 2783 H 271.098 2.99938 -4.30276 0
M  V30 2784 H 272.572 4.40428 -3.32757 0
M  V30 2785 H 273.049 4.06382 -1.66585 0
M  V30 2786 H 273.655 3.03238 -2.98206 0
M  V30 2787 N 271.97 1.30982 0.876444 0
M  V30 2788 C 273.218 1.20058 1.62575 0
M  V30 2789 C 273.539 -0.242947 1.93481 0
M  V30 2790 O 272.809 -1.1619 1.57724 0
M  V30 2791 H 271.389 0.44135 0.602677 0
M  V30 2792 H 274.051 1.64222 1.04962 0
M  V30 2793 H 273.147 1.76762 2.57219 0
M  V30 2794 N 273.449 -1.08991 1.13837 0
M  V30 2795 C 274.865 -1.33312 0.877506 0
M  V30 2796 C 275.065 -1.95587 -0.48456 0
M  V30 2797 O 274.121 -2.20509 -1.23013 0
M  V30 2798 C 275.434 -2.24045 2.0056 0
M  V30 2799 C 276.982 -2.37542 2.03821 0
M  V30 2800 C 277.457 -3.31614 3.15905 0
M  V30 2801 N 278.948 -3.39189 3.15445 0
M  V30 2802 C 279.683 -4.11992 3.98811 0
M  V30 2803 N 279.179 -4.87553 4.92203 0
M  V30 2804 N 280.972 -4.07762 3.86894 0
M  V30 2805 H 273.123 -0.669456 2.01574 0
M  V30 2806 H 275.386 -0.357482 0.878015 0
M  V30 2807 H 275.092 -1.85521 2.98789 0
M  V30 2808 H 274.966 -3.24466 1.92359 0
M  V30 2809 H 277.353 -2.75327 1.06202 0
M  V30 2810 H 277.434 -1.36884 2.16093 0
M  V30 2811 H 277.078 -2.94551 4.13766 0
M  V30 2812 H 277.008 -4.32186 3.0087 0
M  V30 2813 H 279.499 -2.85314 2.47799 0
M  V30 2814 H 279.812 -5.40549 5.52292 0
M  V30 2815 H 278.157 -4.86627 4.96205 0
M  V30 2816 H 281.348 -3.47833 3.13257 0
M  V30 2817 H 281.521 -4.64238 4.52092 0
M  V30 2818 N 274.927 -0.932562 -1.27047 0
M  V30 2819 C 276.173 -0.576412 -1.94436 0
M  V30 2820 C 276.506 0.880891 -1.73072 0
M  V30 2821 O 275.781 1.62905 -1.06264 0
M  V30 2822 C 276.064 -0.909031 -3.48437 0
M  V30 2823 C 275.917 -2.42044 -3.79123 0
M  V30 2824 C 277.236 -0.418341 -4.38107 0
M  V30 2825 H 274.355 -0.210888 -0.706184 0
M  V30 2826 H 276.997 -1.16522 -1.50075 0
M  V30 2827 H 275.147 -0.407947 -3.86352 0
M  V30 2828 H 276.819 -2.99359 -3.50973 0
M  V30 2829 H 275.062 -2.86758 -3.25503 0
M  V30 2830 H 275.733 -2.6037 -4.86736 0
M  V30 2831 H 278.209 -0.847856 -4.0737 0
M  V30 2832 H 277.085 -0.679981 -5.44672 0
M  V30 2833 H 277.346 0.681642 -4.36814 0
M  V30 2834 N 276.405 1.4127 -0.698611 0
M  V30 2835 C 277.335 2.33447 -0.049629 0
M  V30 2836 C 278.316 1.51982 0.763898 0
M  V30 2837 O 279.501 1.80509 0.716257 0
M  V30 2838 C 276.631 3.35828 0.885267 0
M  V30 2839 C 275.585 4.27627 0.178613 0
M  V30 2840 C 274.911 5.20406 1.22807 0
M  V30 2841 C 276.211 5.13459 -0.956933 0
M  V30 2842 H 277.905 2.87966 -0.81951 0
M  V30 2843 H 275.451 1.38461 -0.395538 0
M  V30 2844 H 277.404 3.9924 1.34854 0
M  V30 2845 H 276.128 2.79666 1.68685 0
M  V30 2846 H 274.787 3.65643 -0.26466 0
M  V30 2847 H 274.435 4.60558 2.02226 0
M  V30 2848 H 274.135 5.82661 0.760239 0
M  V30 2849 H 275.659 5.86695 1.69179 0
M  V30 2850 H 277.073 5.70421 -0.573805 0
M  V30 2851 H 275.47 5.8467 -1.35205 0
M  V30 2852 H 276.54 4.50443 -1.79524 0
M  V30 2853 N 277.883 0.443576 1.51229 0
M  V30 2854 C 279.123 -0.119889 2.04048 0
M  V30 2855 C 279.487 -1.39418 1.32009 0
M  V30 2856 O 280.688 -2.03829 1.75235 0
M  V30 2857 C 278.959 -0.327233 3.55899 0
M  V30 2858 S 280.518 -0.853208 4.30425 0
M  V30 2859 H 277.336 -0.028921 0.710412 0
M  V30 2860 H 279.938 0.604413 1.85922 0
M  V30 2861 H 278.642 0.606445 4.05895 0
M  V30 2862 H 278.173 -1.07844 3.7833 0
M  V30 2863 H 280.188 -2.13005 4.48155 0
M  V30 2864 N 279.361 -1.56624 0.175154 0
M  V30 2865 C 280.609 -1.96609 -0.467885 0
M  V30 2866 C 280.93 -1.06238 -1.63519 0
M  V30 2867 O 280.2 -0.129523 -1.95471 0
M  V30 2868 H 278.78 -0.726008 -0.175845 0
M  V30 2869 H 281.442 -1.93195 0.257234 0
M  V30 2870 H 280.538 -3.00989 -0.825342 0
M  V30 2871 N 280.839 0.0985539 -1.57292 0
M  V30 2872 C 282.116 0.834155 -1.76921 0
M  V30 2873 C 282.496 1.97101 -0.755928 0
M  V30 2874 O 281.844 2.27474 0.216245 0
M  V30 2875 C 282.054 1.33194 -3.22584 0
M  V30 2876 C 283.402 1.77611 -3.85668 0
M  V30 2877 O 284.426 1.42825 -3.26312 0
M  V30 2878 O 283.285 2.4192 -4.90038 0
M  V30 2879 H 280.379 0.397628 -0.725135 0
M  V30 2880 H 282.925 0.0807044 -1.69508 0
M  V30 2881 H 281.697 0.517248 -3.87866 0
M  V30 2882 H 281.32 2.1475 -3.34616 0
M  V30 2883 N 282.317 1.53212 0.369288 0
M  V30 2884 C 283.28 1.7872 1.43498 0
M  V30 2885 C 284.28 0.657554 1.46741 0
M  V30 2886 O 285.47 0.925736 1.47566 0
M  V30 2887 C 282.602 1.90591 2.82645 0
M  V30 2888 H 283.795 2.73894 1.22156 0
M  V30 2889 H 281.348 1.44233 0.602203 0
M  V30 2890 H 282.083 0.974709 3.09306 0
M  V30 2891 H 281.868 2.72751 2.8169 0
M  V30 2892 H 283.358 2.11931 3.59826 0
M  V30 2893 N 283.795 -0.628877 1.44509 0
M  V30 2894 C 285.043 -1.38565 1.4712 0
M  V30 2895 C 285.364 -1.94712 0.105899 0
M  V30 2896 O 284.634 -1.75912 -0.862079 0
M  V30 2897 H 283.214 -0.514333 0.541729 0
M  V30 2898 H 285.876 -0.740018 1.80305 0
M  V30 2899 H 284.972 -2.21583 2.19789 0
M  V30 2900 N 285.273 -1.31445 -0.869486 0
M  V30 2901 C 286.203 -1.21727 -1.99261 0
M  V30 2902 C 287.184 -0.104359 -1.6978 0
M  V30 2903 O 288.369 -0.289038 -1.92037 0
M  V30 2904 C 285.499 -0.924317 -3.34774 0
M  V30 2905 C 284.453 -1.99685 -3.78563 0
M  V30 2906 C 283.779 -1.55658 -5.11541 0
M  V30 2907 C 285.079 -3.41003 -3.95619 0
M  V30 2908 H 286.773 -2.1569 -2.07649 0
M  V30 2909 H 284.319 -1.03839 -0.997675 0
M  V30 2910 H 286.272 -0.842934 -4.12883 0
M  V30 2911 H 284.996 0.0509793 -3.2656 0
M  V30 2912 H 283.655 -2.06813 -3.02694 0
M  V30 2913 H 283.303 -0.569132 -4.9977 0
M  V30 2914 H 283.003 -2.27409 -5.41811 0
M  V30 2915 H 284.527 -1.48928 -5.92159 0
M  V30 2916 H 285.941 -3.36547 -4.64122 0
M  V30 2917 H 284.338 -4.10975 -4.37286 0
M  V30 2918 H 285.408 -3.81754 -2.98985 0
M  V30 2919 N 286.751 1.08385 -1.14413 0
M  V30 2920 C 287.681 2.17321 -0.854044 0
M  V30 2921 C 288.662 1.69024 0.191049 0
M  V30 2922 O 289.847 1.94141 0.0476779 0
M  V30 2923 C 286.977 3.45719 -0.330983 0
M  V30 2924 C 285.931 4.07409 -1.31155 0
M  V30 2925 C 285.257 5.30762 -0.64778 0
M  V30 2926 C 286.557 4.48665 -2.67388 0
M  V30 2927 H 288.251 2.41845 -1.76498 0
M  V30 2928 H 285.797 1.16233 -0.850051 0
M  V30 2929 H 287.75 4.21241 -0.115645 0
M  V30 2930 H 286.474 3.2075 0.615381 0
M  V30 2931 H 285.133 3.33919 -1.51306 0
M  V30 2932 H 284.781 5.02078 0.304398 0
M  V30 2933 H 284.481 5.72992 -1.30207 0
M  V30 2934 H 286.005 6.08998 -0.441972 0
M  V30 2935 H 287.419 5.15364 -2.51143 0
M  V30 2936 H 285.816 5.01814 -3.29093 0
M  V30 2937 H 286.886 3.60543 -3.24248 0
M  V30 2938 N 288.23 0.939286 1.26551 0
M  V30 2939 C 289.646 0.641304 1.46149 0
M  V30 2940 C 289.846 -0.805964 1.84679 0
M  V30 2941 O 288.902 -1.58278 1.96734 0
M  V30 2942 C 290.215 1.6011 2.54529 0
M  V30 2943 C 291.763 1.6106 2.68382 0
M  V30 2944 C 292.238 2.55765 3.79932 0
M  V30 2945 N 293.729 2.5404 3.87322 0
M  V30 2946 C 294.464 3.24004 4.73085 0
M  V30 2947 N 293.96 4.03388 5.63249 0
M  V30 2948 N 295.753 3.12965 4.66914 0
M  V30 2949 H 287.904 1.87478 0.998285 0
M  V30 2950 H 290.167 0.805559 0.499779 0
M  V30 2951 H 289.873 2.63412 2.33039 0
M  V30 2952 H 289.747 1.35171 3.52149 0
M  V30 2953 H 292.134 0.584835 2.89247 0
M  V30 2954 H 292.215 1.90053 1.71212 0
M  V30 2955 H 291.859 3.58458 3.5982 0
M  V30 2956 H 291.789 2.24063 4.76554 0
M  V30 2957 H 294.28 1.96396 3.22858 0
M  V30 2958 H 294.593 4.5373 6.25579 0
M  V30 2959 H 292.938 4.07489 5.63008 0
M  V30 2960 H 296.129 2.50432 3.95476 0
M  V30 2961 H 296.302 3.67759 5.33533 0
M  V30 2962 N 289.708 -1.40897 0.706093 0
M  V30 2963 C 290.956 -2.00657 0.241054 0
M  V30 2964 C 291.277 -1.56241 -1.16678 0
M  V30 2965 O 290.547 -0.79765 -1.78926 0
M  V30 2966 H 289.127 -0.742018 0.0861308 0
M  V30 2967 H 291.789 -1.72372 0.909604 0
M  V30 2968 H 290.885 -3.10958 0.266705 0
M  V30 2969 N 291.186 -0.45159 -1.50991 0
M  V30 2970 C 292.116 0.342898 -2.30969 0
M  V30 2971 C 293.097 1.00815 -1.37005 0
M  V30 2972 O 294.282 1.00907 -1.65926 0
M  V30 2973 C 291.412 1.43637 -3.16205 0
M  V30 2974 C 290.366 0.893818 -4.18563 0
M  V30 2975 C 289.692 2.08411 -4.92411 0
M  V30 2976 C 290.992 -0.0815568 -5.22236 0
M  V30 2977 H 292.686 -0.324556 -2.97636 0
M  V30 2978 H 290.232 -0.157531 -1.43136 0
M  V30 2979 H 292.185 1.9995 -3.70942 0
M  V30 2980 H 290.909 2.13232 -2.47386 0
M  V30 2981 H 289.568 0.352798 -3.64898 0
M  V30 2982 H 289.216 2.76658 -4.20082 0
M  V30 2983 H 288.916 1.72741 -5.61636 0
M  V30 2984 H 290.44 2.65251 -5.49976 0
M  V30 2985 H 291.854 0.391742 -5.7196 0
M  V30 2986 H 290.251 -0.351551 -5.99069 0
M  V30 2987 H 291.321 -1.01374 -4.74185 0
M  V30 2988 N 292.664 1.56529 -0.183458 0
M  V30 2989 C 293.627 2.17324 0.728223 0
M  V30 2990 C 294.627 1.12453 1.14939 0
M  V30 2991 O 295.817 1.37902 1.06437 0
M  V30 2992 C 292.949 2.76591 1.99274 0
M  V30 2993 H 294.142 2.99241 0.198772 0
M  V30 2994 H 291.695 1.5616 0.0661391 0
M  V30 2995 H 292.43 1.98441 2.56499 0
M  V30 2996 H 292.215 3.5335 1.69959 0
M  V30 2997 H 293.705 3.23311 2.6431 0
M  V30 2998 N 294.142 -0.090211 1.57342 0
M  V30 2999 C 295.419 -0.824761 1.77361 0
M  V30 3000 C 295.799 -1.96698 0.76637 0
M  V30 3001 O 295.147 -2.27586 -0.204179 0
M  V30 3002 C 295.357 -1.31481 3.23286 0
M  V30 3003 C 296.705 -1.75563 3.86604 0
M  V30 3004 O 297.729 -1.41093 3.27065 0
M  V30 3005 O 296.588 -2.39317 4.91314 0
M  V30 3006 H 293.682 -0.393776 0.727234 0
M  V30 3007 H 296.228 -0.0717138 1.69548 0
M  V30 3008 H 295 -0.496671 3.88135 0
M  V30 3009 H 294.623 -2.12973 3.35751 0
M  V30 3010 N 295.62 -1.53406 -0.361157 0
M  V30 3011 C 296.868 -1.69467 -1.10115 0
M  V30 3012 C 297.189 -0.451352 -1.89705 0
M  V30 3013 O 296.459 0.534636 -1.88463 0
M  V30 3014 H 295.039 -0.624749 -0.409508 0
M  V30 3015 H 297.701 -1.90609 -0.406699 0
M  V30 3016 H 296.797 -2.55774 -1.78847 0
M  V30 3017 N 297.098 0.621204 -1.44841 0
M  V30 3018 C 298.028 1.74366 -1.55303 0
M  V30 3019 C 299.009 1.65199 -0.405385 0
M  V30 3020 O 300.194 1.83807 -0.626787 0
M  V30 3021 C 297.324 3.12931 -1.50637 0
M  V30 3022 C 296.278 3.36896 -2.63979 0
M  V30 3023 C 295.604 4.75594 -2.44366 0
M  V30 3024 C 296.904 3.28483 -4.06074 0
M  V30 3025 H 298.598 1.65867 -2.49256 0
M  V30 3026 H 296.144 0.796558 -1.19962 0
M  V30 3027 H 298.097 3.9124 -1.56555 0
M  V30 3028 H 296.821 3.22237 -0.532057 0
M  V30 3029 H 295.48 2.60972 -2.57467 0
M  V30 3030 H 295.128 4.81616 -1.45105 0
M  V30 3031 H 294.828 4.92586 -3.20364 0
M  V30 3032 H 296.352 5.5612 -2.52117 0
M  V30 3033 H 297.766 3.96684 -4.13902 0
M  V30 3034 H 296.163 3.57008 -4.82354 0
M  V30 3035 H 297.233 2.26133 -4.28943 0
M  V30 3036 N 298.576 1.31904 0.862503 0
M  V30 3037 C 299.822 1.22197 1.61851 0
M  V30 3038 C 300.155 -0.217641 1.92977 0
M  V30 3039 O 299.43 -1.15264 1.56666 0
M  V30 3040 C 299.713 2.07378 2.94391 0
M  V30 3041 C 299.566 3.59678 2.70096 0
M  V30 3042 C 300.885 1.92891 3.95577 0
M  V30 3043 H 298.004 0.445255 0.587296 0
M  V30 3044 H 300.646 1.6177 0.99651 0
M  V30 3045 H 298.796 1.73758 3.47477 0
M  V30 3046 H 300.468 4.03472 2.23625 0
M  V30 3047 H 298.711 3.82735 2.04197 0
M  V30 3048 H 299.382 4.14595 3.64438 0
M  V30 3049 H 301.858 2.22327 3.51724 0
M  V30 3050 H 300.734 2.54781 4.86187 0
M  V30 3051 H 300.995 0.894315 4.3296 0
M  V30 3052 N 300.054 -1.07777 1.14986 0
M  V30 3053 C 300.986 -2.14769 0.800436 0
M  V30 3054 C 301.999 -1.61739 -0.185595 0
M  V30 3055 O 303.188 -1.78462 0.0370358 0
M  V30 3056 C 300.288 -3.38481 0.168533 0
M  V30 3057 C 299.461 -4.20876 1.1909 0
M  V30 3058 C 298.52 -5.22976 0.581575 0
M  V30 3059 O 297.546 -5.55388 1.24633 0
M  V30 3060 N 298.748 -5.76976 -0.638706 0
M  V30 3061 H 301.513 -2.45348 1.72118 0
M  V30 3062 H 299.074 -1.23645 1.04515 0
M  V30 3063 H 301.066 -4.03916 -0.251764 0
M  V30 3064 H 299.636 -3.05651 -0.655467 0
M  V30 3065 H 298.856 -3.51322 1.78791 0
M  V30 3066 H 300.144 -4.7274 1.88133 0
M  V30 3067 H 299.542 -5.52886 -1.19723 0
M  V30 3068 H 298.099 -6.44061 -1.00142 0
M  V30 3069 N 301.532 -0.945985 -1.26051 0
M  V30 3070 C 302.495 -0.463897 -2.24456 0
M  V30 3071 C 303.495 0.427655 -1.55009 0
M  V30 3072 O 304.685 0.226157 -1.72726 0
M  V30 3073 C 301.817 0.330812 -3.39291 0
M  V30 3074 H 303.01 -1.33357 -2.68619 0
M  V30 3075 H 300.563 -0.728416 -1.38289 0
M  V30 3076 H 301.298 1.21852 -3.00537 0
M  V30 3077 H 301.083 -0.308679 -3.90883 0
M  V30 3078 H 302.573 0.657865 -4.12386 0
M  V30 3079 N 303.011 1.40521 -0.713556 0
M  V30 3080 C 304.259 2.00527 -0.251692 0
M  V30 3081 C 304.58 1.56857 1.15848 0
M  V30 3082 O 303.85 0.807127 1.785 0
M  V30 3083 H 302.43 0.741551 -0.0900646 0
M  V30 3084 H 305.092 1.71887 -0.918733 0
M  V30 3085 H 304.188 3.10813 -0.283192 0
M  V30 3086 N 304.489 0.459591 1.5075 0
M  V30 3087 C 305.735 -0.0994966 2.02556 0
M  V30 3088 C 306.068 -1.40399 1.3417 0
M  V30 3089 O 305.343 -1.88892 0.463683 0
M  V30 3090 C 305.626 -0.295242 3.58888 0
M  V30 3091 C 305.479 1.02947 4.37861 0
M  V30 3092 C 306.798 -1.05502 4.27267 0
M  V30 3093 H 303.917 -0.034686 0.736183 0
M  V30 3094 H 306.559 0.602938 1.8018 0
M  V30 3095 H 304.709 -0.893563 3.78084 0
M  V30 3096 H 306.381 1.66348 4.30263 0
M  V30 3097 H 304.624 1.62885 4.02058 0
M  V30 3098 H 305.295 0.846281 5.45474 0
M  V30 3099 H 307.771 -0.547993 4.12476 0
M  V30 3100 H 306.647 -1.16077 5.36486 0
M  V30 3101 H 306.908 -2.08875 3.89645 0
M  V30 3102 N 305.967 -1.56429 0.191757 0
M  V30 3103 C 307.215 -1.97095 -0.447006 0
M  V30 3104 C 307.536 -1.07967 -1.62383 0
M  V30 3105 O 306.806 -0.150248 -1.95323 0
M  V30 3106 H 305.386 -0.727832 -0.168135 0
M  V30 3107 H 308.048 -1.92911 0.27771 0
M  V30 3108 H 307.144 -3.01848 -0.793371 0
M  V30 3109 N 307.445 0.0818655 -1.57387 0
M  V30 3110 C 308.673 0.796108 -1.9097 0
M  V30 3111 C 309.088 1.71626 -0.786757 0
M  V30 3112 O 308.445 1.80908 0.240513 0
M  V30 3113 C 308.496 1.59829 -3.24248 0
M  V30 3114 O 308.217 0.715131 -4.32224 0
M  V30 3115 C 309.718 2.41442 -3.7178 0
M  V30 3116 H 306.938 0.22691 -0.631469 0
M  V30 3117 H 309.482 0.0551439 -2.04426 0
M  V30 3118 H 307.637 2.29163 -3.12351 0
M  V30 3119 H 308.051 1.27205 -5.08841 0
M  V30 3120 H 309.525 2.932 -4.67694 0
M  V30 3121 H 310.002 3.2051 -3.00283 0
M  V30 3122 H 310.608 1.77283 -3.86589 0
M  V30 3123 N 308.923 1.53595 0.353017 0
M  V30 3124 C 309.833 1.83897 1.45667 0
M  V30 3125 C 310.849 0.728334 1.58023 0
M  V30 3126 O 312.025 1.01968 1.73679 0
M  V30 3127 C 309.09 2.03383 2.80778 0
M  V30 3128 C 308.151 3.27262 2.77845 0
M  V30 3129 C 307.384 3.45809 4.06512 0
M  V30 3130 O 307.607 2.68387 5.03314 0
M  V30 3131 O 306.541 4.39207 4.11559 0
M  V30 3132 H 310.367 2.77686 1.2298 0
M  V30 3133 H 307.952 1.39132 0.544308 0
M  V30 3134 H 309.834 2.17698 3.60812 0
M  V30 3135 H 308.509 1.12783 3.03417 0
M  V30 3136 H 307.416 3.18359 1.96465 0
M  V30 3137 H 308.749 4.17824 2.60161 0
M  V30 3138 N 310.401 -0.613514 1.45168 0
M  V30 3139 C 311.364 -1.7065 1.53007 0
M  V30 3140 C 312.364 -1.5548 0.410184 0
M  V30 3141 O 313.554 -1.60656 0.673455 0
M  V30 3142 C 310.686 -3.09875 1.42093 0
M  V30 3143 H 311.879 -1.65068 2.50385 0
M  V30 3144 H 309.432 -0.828728 1.32521 0
M  V30 3145 H 310.167 -3.21039 0.458769 0
M  V30 3146 H 309.952 -3.22293 2.23315 0
M  V30 3147 H 311.442 -3.895 1.50598 0
M  V30 3148 N 311.879 -1.3236 -0.855495 0
M  V30 3149 C 312.809 -1.23833 -1.97958 0
M  V30 3150 C 313.79 -0.122361 -1.69659 0
M  V30 3151 O 314.975 -0.30939 -1.9172 0
M  V30 3152 C 312.105 -0.959772 -3.33775 0
M  V30 3153 C 311.059 -2.03689 -3.76424 0
M  V30 3154 C 310.385 -1.61075 -5.09862 0
M  V30 3155 C 311.685 -3.4518 -3.9198 0
M  V30 3156 H 313.379 -2.1788 -2.0535 0
M  V30 3157 H 310.925 -1.04891 -0.986605 0
M  V30 3158 H 312.878 -0.886678 -4.11966 0
M  V30 3159 H 311.602 0.0163404 -3.26596 0
M  V30 3160 H 310.261 -2.10012 -3.00484 0
M  V30 3161 H 309.909 -0.622107 -4.99138 0
M  V30 3162 H 309.609 -2.33143 -5.39368 0
M  V30 3163 H 311.133 -1.55201 -5.90546 0
M  V30 3164 H 312.547 -3.4145 -4.60526 0
M  V30 3165 H 310.944 -4.1559 -4.32903 0
M  V30 3166 H 312.014 -3.84903 -2.94919 0
M  V30 3167 N 313.357 1.07166 -1.15556 0
M  V30 3168 C 314.287 2.16403 -0.877046 0
M  V30 3169 C 315.268 1.69217 0.173111 0
M  V30 3170 O 316.453 1.94181 0.027084 0
M  V30 3171 C 313.583 3.45349 -0.367632 0
M  V30 3172 C 312.537 4.05995 -1.35468 0
M  V30 3173 C 311.863 5.30045 -0.704038 0
M  V30 3174 C 313.163 4.45804 -2.72132 0
M  V30 3175 H 314.857 2.39959 -1.79053 0
M  V30 3176 H 312.403 1.15325 -0.862331 0
M  V30 3177 H 314.356 4.21095 -0.160317 0
M  V30 3178 H 313.08 3.21385 0.581326 0
M  V30 3179 H 311.739 3.32296 -1.54839 0
M  V30 3180 H 311.387 5.02373 0.251128 0
M  V30 3181 H 311.087 5.71579 -1.36277 0
M  V30 3182 H 312.611 6.08495 -0.50654 0
M  V30 3183 H 314.025 5.12671 -2.56595 0
M  V30 3184 H 312.422 4.98296 -3.34397 0
M  V30 3185 H 313.492 3.57083 -3.28054 0
M  V30 3186 N 314.835 0.952656 1.25548 0
M  V30 3187 C 316.063 0.623496 1.97282 0
M  V30 3188 C 316.478 -0.803987 1.70826 0
M  V30 3189 O 315.835 -1.53755 0.983147 0
M  V30 3190 C 315.886 0.870209 3.5087 0
M  V30 3191 O 315.607 2.24156 3.76412 0
M  V30 3192 C 317.108 0.553164 4.39835 0
M  V30 3193 H 314.328 0.233931 0.628902 0
M  V30 3194 H 316.872 1.27649 1.59768 0
M  V30 3195 H 315.027 0.263652 3.86502 0
M  V30 3196 H 315.441 2.31021 4.70882 0
M  V30 3197 H 316.915 0.776342 5.46513 0
M  V30 3198 H 317.392 -0.512215 4.36203 0
M  V30 3199 H 317.998 1.13896 4.09766 0
M  V30 3200 N 316.313 -1.40141 0.720998 0
M  V30 3201 C 317.724 -1.83678 0.334553 0
M  V30 3202 C 318.075 -1.6027 -1.13173 0
M  V30 3203 O 317.2 -1.08643 -1.87152 0
M  V30 3204 C 317.795 -3.33437 0.600437 0
M  V30 3205 C 316.354 -3.75447 0.267642 0
M  V30 3206 C 315.501 -2.63296 0.870097 0
M  V30 3207 H 318.452 -1.29331 0.919732 0
M  V30 3208 H 318.473 -3.80269 -0.132517 0
M  V30 3209 H 317.985 -3.50442 1.66768 0
M  V30 3210 H 316.086 -3.64035 -0.794329 0
M  V30 3211 H 316.199 -4.73344 0.74042 0
M  V30 3212 H 314.563 -2.52954 0.297739 0
M  V30 3213 H 315.346 -2.83112 1.94172 0
M  V30 3214 N 317.792 -0.46758 -1.50504 0
M  V30 3215 C 318.722 0.318381 -2.31319 0
M  V30 3216 C 319.703 0.993564 -1.38066 0
M  V30 3217 O 320.888 0.991411 -1.66987 0
M  V30 3218 C 318.018 1.40275 -3.17711 0
M  V30 3219 C 316.972 0.849373 -4.19487 0
M  V30 3220 C 316.298 2.03177 -4.94594 0
M  V30 3221 C 317.598 -0.136942 -5.2212 0
M  V30 3222 H 319.292 -0.356106 -2.97275 0
M  V30 3223 H 316.838 -0.172703 -1.42961 0
M  V30 3224 H 318.791 1.96004 -3.73042 0
M  V30 3225 H 317.515 2.10596 -2.49634 0
M  V30 3226 H 316.174 0.314076 -3.65252 0
M  V30 3227 H 315.822 2.72187 -4.22993 0
M  V30 3228 H 315.522 1.66774 -5.63436 0
M  V30 3229 H 317.046 2.59403 -5.52759 0
M  V30 3230 H 318.46 0.331056 -5.72343 0
M  V30 3231 H 316.857 -0.41507 -5.98663 0
M  V30 3232 H 317.927 -1.06398 -4.73083 0
M  V30 3233 N 319.27 1.56325 -0.20005 0
M  V30 3234 C 320.516 1.98012 0.438059 0
M  V30 3235 C 320.849 1.08702 1.60927 0
M  V30 3236 O 320.124 0.140064 1.93995 0
M  V30 3237 C 320.407 3.48841 0.893419 0
M  V30 3238 C 320.26 4.48928 -0.279947 0
M  V30 3239 C 321.579 4.03498 1.75719 0
M  V30 3240 H 318.698 0.719918 0.157757 0
M  V30 3241 H 321.34 1.87743 -0.291968 0
M  V30 3242 H 319.49 3.57723 1.51547 0
M  V30 3243 H 321.162 4.52079 -0.91772 0
M  V30 3244 H 319.405 4.23694 -0.930919 0
M  V30 3245 H 320.076 5.5194 0.0812601 0
M  V30 3246 H 322.552 3.97427 1.23253 0
M  V30 3247 H 321.428 5.09393 2.04476 0
M  V30 3248 H 321.689 3.4906 2.71311 0
M  V30 3249 N 320.748 -0.0735177 1.57428 0
M  V30 3250 C 321.996 -0.771472 1.86796 0
M  V30 3251 C 322.317 -1.78201 0.791804 0
M  V30 3252 O 321.587 -1.95074 -0.179718 0
M  V30 3253 H 320.167 -0.28791 0.689287 0
M  V30 3254 H 322.829 -0.0500161 1.94836 0
M  V30 3255 H 321.925 -1.28874 2.8425 0
M  V30 3256 N 322.226 -1.5378 -0.344866 0
M  V30 3257 C 323.642 -1.44015 -0.687888 0
M  V30 3258 C 323.842 -0.595834 -1.92489 0
M  V30 3259 O 322.898 -0.0863064 -2.52352 0
M  V30 3260 C 324.211 -2.87481 -0.881758 0
M  V30 3261 C 325.759 -2.97247 -0.980459 0
M  V30 3262 C 326.234 -4.41819 -1.20665 0
M  V30 3263 N 327.725 -4.45339 -1.27389 0
M  V30 3264 C 328.46 -5.54333 -1.46639 0
M  V30 3265 N 327.956 -6.73335 -1.63071 0
M  V30 3266 N 329.749 -5.41944 -1.49176 0
M  V30 3267 H 321.9 -2.07169 0.468475 0
M  V30 3268 H 324.163 -0.93643 0.147655 0
M  V30 3269 H 323.869 -3.51672 -0.0443444 0
M  V30 3270 H 323.743 -3.32352 -1.78388 0
M  V30 3271 H 326.13 -2.33197 -1.8084 0
M  V30 3272 H 326.211 -2.5574 -0.0552713 0
M  V30 3273 H 325.855 -5.06449 -0.383652 0
M  V30 3274 H 325.785 -4.80917 -2.14539 0
M  V30 3275 H 328.276 -3.59585 -1.1622 0
M  V30 3276 H 328.589 -7.52165 -1.77391 0
M  V30 3277 H 326.934 -6.76282 -1.60209 0
M  V30 3278 H 330.125 -4.47932 -1.3592 0
M  V30 3279 H 330.298 -6.26946 -1.63837 0
M  V30 3280 N 323.704 0.605807 -1.45491 0
M  V30 3281 C 324.634 1.72709 -1.57143 0
M  V30 3282 C 325.615 1.6476 -0.422884 0
M  V30 3283 O 326.8 1.83132 -0.646247 0
M  V30 3284 C 323.93 3.11316 -1.53948 0
M  V30 3285 C 322.884 3.34077 -2.67537 0
M  V30 3286 C 322.21 4.72975 -2.49397 0
M  V30 3287 C 323.51 3.24158 -4.09535 0
M  V30 3288 H 325.204 1.63214 -2.51001 0
M  V30 3289 H 322.75 0.78379 -1.208 0
M  V30 3290 H 324.703 3.89557 -1.60696 0
M  V30 3291 H 323.427 3.21655 -0.566205 0
M  V30 3292 H 322.086 2.58227 -2.6022 0
M  V30 3293 H 321.734 4.8005 -1.50205 0
M  V30 3294 H 321.434 4.8916 -3.25571 0
M  V30 3295 H 322.958 5.53414 -2.58002 0
M  V30 3296 H 324.372 3.92271 -4.18086 0
M  V30 3297 H 322.769 3.51872 -4.86113 0
M  V30 3298 H 323.839 2.2157 -4.31317 0
M  V30 3299 N 325.182 1.32811 0.848464 0
M  V30 3300 C 326.145 1.22194 1.9391 0
M  V30 3301 C 327.145 0.143404 1.60159 0
M  V30 3302 O 328.335 0.394253 1.6968 0
M  V30 3303 C 325.467 0.88067 3.29328 0
M  V30 3304 H 326.66 2.19127 2.04752 0
M  V30 3305 H 324.213 1.16731 1.0394 0
M  V30 3306 H 324.948 -0.0865776 3.24184 0
M  V30 3307 H 324.733 1.66052 3.55203 0
M  V30 3308 H 326.223 0.830871 4.09251 0
M  V30 3309 N 326.66 -1.06551 1.16123 0
M  V30 3310 C 328.076 -1.3142 0.905585 0
M  V30 3311 C 328.276 -1.96571 -0.442964 0
M  V30 3312 O 327.332 -2.23068 -1.18308 0
M  V30 3313 C 328.645 -2.19741 2.05267 0
M  V30 3314 C 330.193 -2.33165 2.08813 0
M  V30 3315 C 330.668 -3.24838 3.22868 0
M  V30 3316 N 332.159 -3.32421 3.22568 0
M  V30 3317 C 332.894 -4.0344 4.0746 0
M  V30 3318 N 332.39 -4.77003 5.02434 0
M  V30 3319 N 334.183 -3.99464 3.95456 0
M  V30 3320 H 326.334 -0.626548 2.02949 0
M  V30 3321 H 328.597 -0.338777 0.8854 0
M  V30 3322 H 328.303 -1.79142 3.02657 0
M  V30 3323 H 328.177 -3.20313 1.99198 0
M  V30 3324 H 330.564 -2.73013 1.12018 0
M  V30 3325 H 330.645 -1.3227 2.18948 0
M  V30 3326 H 330.289 -2.85708 4.19921 0
M  V30 3327 H 330.219 -4.25707 3.0997 0
M  V30 3328 H 332.71 -2.79994 2.53795 0
M  V30 3329 H 333.023 -5.28712 5.63634 0
M  V30 3330 H 331.368 -4.75992 5.06415 0
M  V30 3331 H 334.559 -3.4111 3.20564 0
M  V30 3332 H 334.732 -4.54544 4.61837 0
M  V30 3333 N 328.138 -0.959301 -1.25041 0
M  V30 3334 C 329.068 -0.501388 -2.28053 0
M  V30 3335 C 330.049 0.454673 -1.63911 0
M  V30 3336 O 331.234 0.352618 -1.90972 0
M  V30 3337 C 328.364 0.217224 -3.4662 0
M  V30 3338 C 327.318 -0.654034 -4.22973 0
M  V30 3339 C 326.644 0.195589 -5.34342 0
M  V30 3340 C 327.944 -1.93447 -4.85155 0
M  V30 3341 H 329.638 -1.36238 -2.66608 0
M  V30 3342 H 327.184 -0.656534 -1.28163 0
M  V30 3343 H 329.137 0.548732 -4.17812 0
M  V30 3344 H 327.861 1.1125 -3.07068 0
M  V30 3345 H 326.52 -0.968693 -3.5357 0
M  V30 3346 H 326.168 1.09076 -4.91031 0
M  V30 3347 H 325.868 -0.384091 -5.86343 0
M  V30 3348 H 327.392 0.521958 -6.08365 0
M  V30 3349 H 328.806 -1.66908 -5.48466 0
M  V30 3350 H 327.203 -2.46018 -5.47353 0
M  V30 3351 H 328.273 -2.63466 -4.07079 0
M  V30 3352 N 329.616 1.39756 -0.72842 0
M  V30 3353 C 330.546 2.33289 -0.0991354 0
M  V30 3354 C 331.527 1.53568 0.731489 0
M  V30 3355 O 332.712 1.81987 0.677807 0
M  V30 3356 C 329.842 3.3763 0.813834 0
M  V30 3357 C 328.796 4.2791 0.0878663 0
M  V30 3358 C 328.122 5.22894 1.11741 0
M  V30 3359 C 329.422 5.11314 -1.06563 0
M  V30 3360 H 331.116 2.86163 -0.880408 0
M  V30 3361 H 328.662 1.37591 -0.424819 0
M  V30 3362 H 330.615 4.0201 1.26355 0
M  V30 3363 H 329.339 2.83181 1.62715 0
M  V30 3364 H 327.998 3.65 -0.342159 0
M  V30 3365 H 327.646 4.64744 1.92412 0
M  V30 3366 H 327.346 5.84143 0.636477 0
M  V30 3367 H 328.87 5.90151 1.56697 0
M  V30 3368 H 330.284 5.69076 -0.694671 0
M  V30 3369 H 328.681 5.81671 -1.47577 0
M  V30 3370 H 329.751 4.46534 -1.89038 0
M  V30 3371 N 331.094 0.475555 1.50254 0
M  V30 3372 C 332.004 -0.321501 2.32387 0
M  V30 3373 C 333.02 -0.991755 1.42969 0
M  V30 3374 O 334.196 -0.978747 1.76018 0
M  V30 3375 C 331.261 -1.38667 3.17762 0
M  V30 3376 C 330.322 -0.732538 4.23004 0
M  V30 3377 C 329.555 -1.74695 5.04299 0
M  V30 3378 O 329.778 -2.97399 4.86734 0
M  V30 3379 O 328.712 -1.31631 5.8733 0
M  V30 3380 H 332.538 0.350071 3.01676 0
M  V30 3381 H 330.123 0.237321 1.47503 0
M  V30 3382 H 332.005 -2.00354 3.70724 0
M  V30 3383 H 330.68 -2.04163 2.51196 0
M  V30 3384 H 329.587 -0.0765902 3.74022 0
M  V30 3385 H 330.92 -0.120452 4.92053 0
M  V30 3386 N 332.573 -1.56217 0.208337 0
M  V30 3387 C 333.536 -2.18455 -0.693557 0
M  V30 3388 C 334.536 -1.14268 -1.13135 0
M  V30 3389 O 335.726 -1.39577 -1.0423 0
M  V30 3390 C 332.858 -2.79727 -1.94848 0
M  V30 3391 H 334.051 -2.99519 -0.15114 0
M  V30 3392 H 331.604 -1.56245 -0.041287 0
M  V30 3393 H 332.339 -2.02497 -2.53309 0
M  V30 3394 H 332.124 -3.56009 -1.64316 0
M  V30 3395 H 333.614 -3.27475 -2.59133 0
M  V30 3396 N 334.051 0.0651679 -1.57465 0
M  V30 3397 C 335.279 0.775808 -1.91804 0
M  V30 3398 C 335.694 1.70782 -0.804916 0
M  V30 3399 O 335.051 1.81153 0.221311 0
M  V30 3400 C 335.102 1.56381 -3.25925 0
M  V30 3401 O 334.823 0.669248 -4.32958 0
M  V30 3402 C 336.324 2.37485 -3.7432 0
M  V30 3403 H 333.544 0.2202 -0.63384 0
M  V30 3404 H 336.088 0.0334587 -2.04473 0
M  V30 3405 H 334.243 2.25837 -3.14764 0
M  V30 3406 H 334.657 1.21801 -5.10162 0
M  V30 3407 H 336.131 2.88223 -4.70778 0
M  V30 3408 H 336.608 3.17307 -3.03666 0
M  V30 3409 H 337.214 1.73173 -3.88447 0
M  V30 3410 N 335.529 1.53961 0.336706 0
M  V30 3411 C 336.94 1.62914 0.911925 0
M  V30 3412 C 337.291 0.514795 1.89326 0
M  V30 3413 O 336.416 -0.354395 2.13478 0
M  V30 3414 C 337.011 2.95304 1.66076 0
M  V30 3415 C 335.57 3.06496 2.18489 0
M  V30 3416 C 334.717 2.58403 1.00613 0
M  V30 3417 H 337.668 1.58285 0.114649 0
M  V30 3418 H 337.689 2.84727 2.5241 0
M  V30 3419 H 337.201 3.76387 0.946276 0
M  V30 3420 H 335.302 2.3006 2.93092 0
M  V30 3421 H 335.415 4.1208 2.44391 0
M  V30 3422 H 333.779 2.13977 1.38152 0
M  V30 3423 H 334.562 3.41932 0.306179 0
M  V30 3424 N 337.007 -0.598083 1.45811 0
M  V30 3425 C 338.235 -1.38322 1.53866 0
M  V30 3426 C 338.65 -1.87992 0.174479 0
M  V30 3427 O 338.007 -1.62756 -0.825627 0
M  V30 3428 C 338.058 -2.58125 2.53089 0
M  V30 3429 O 337.779 -2.10516 3.84206 0
M  V30 3430 C 339.28 -3.50869 2.70935 0
M  V30 3431 H 336.5 -0.423093 0.520801 0
M  V30 3432 H 339.044 -0.728527 1.91083 0
M  V30 3433 H 337.199 -3.19615 2.18917 0
M  V30 3434 H 337.613 -2.88425 4.38077 0
M  V30 3435 H 339.087 -4.31451 3.44317 0
M  V30 3436 H 339.564 -4.01822 1.77301 0
M  V30 3437 H 340.17 -2.95225 3.06141 0
M  V30 3438 N 338.485 -1.33259 -0.841409 0
M  V30 3439 C 339.762 -1.15174 -1.58096 0
M  V30 3440 C 340.142 0.282858 -2.09196 0
M  V30 3441 O 339.49 1.28151 -1.89181 0
M  V30 3442 C 339.7 -2.1907 -2.71679 0
M  V30 3443 C 341.048 -2.53093 -3.40924 0
M  V30 3444 O 342.072 -2.17717 -2.81918 0
M  V30 3445 O 340.931 -3.1379 -4.47435 0
M  V30 3446 H 338.025 -0.445303 -0.696875 0
M  V30 3447 H 340.571 -1.44833 -0.884385 0
M  V30 3448 H 339.343 -3.15443 -2.31541 0
M  V30 3449 H 338.966 -1.90481 -3.49002 0
M  V30 3450 N 339.963 1.05934 -1.16686 0
M  V30 3451 C 341.188 1.83029 -0.975455 0
M  V30 3452 C 341.613 1.82096 0.471452 0
M  V30 3453 O 340.971 1.22443 1.33706 0
M  V30 3454 C 341.019 3.27372 -1.51195 0
M  V30 3455 O 340.123 4.06054 -0.720701 0
M  V30 3456 H 339.464 0.566194 -0.346872 0
M  V30 3457 H 341.994 1.33541 -1.55009 0
M  V30 3458 H 342.004 3.78186 -1.53099 0
M  V30 3459 H 340.679 3.27366 -2.56523 0
M  V30 3460 H 339.256 3.64812 -0.772458 0
M  V30 3461 N 341.441 0.965919 1.2453 0
M  V30 3462 C 342.681 0.634656 1.94297 0
M  V30 3463 C 343.045 -0.814822 1.73852 0
M  V30 3464 O 344.246 -1.25622 2.3764 0
M  V30 3465 C 342.517 0.99702 3.43212 0
M  V30 3466 S 344.076 0.780038 4.31811 0
M  V30 3467 H 340.894 0.232893 0.671775 0
M  V30 3468 H 343.496 1.24249 1.50938 0
M  V30 3469 H 342.2 2.04886 3.55598 0
M  V30 3470 H 341.731 0.379888 3.91562 0
M  V30 3471 H 343.746 -0.343512 4.9501 0
M  V30 3472 N 342.919 -1.39368 0.735821 0
M  V30 3473 C 344.167 -2.00101 0.283562 0
M  V30 3474 C 344.488 -1.5868 -1.13338 0
M  V30 3475 O 343.758 -0.835423 -1.77193 0
M  V30 3476 H 342.338 -0.740024 0.101851 0
M  V30 3477 H 345 -1.70404 0.945962 0
M  V30 3478 H 344.096 -3.10323 0.332604 0
M  V30 3479 N 344.397 -0.483516 -1.5 0
M  V30 3480 C 345.627 0.0643896 -2.065 0
M  V30 3481 C 346.035 1.32949 -1.34615 0
M  V30 3482 O 345.378 1.79003 -0.412756 0
M  V30 3483 C 345.44 0.405983 -3.572 0
M  V30 3484 C 345.104 -0.758875 -4.50655 0
M  V30 3485 C 346.101 -1.64445 -4.93208 0
M  V30 3486 C 343.786 -0.952725 -4.93182 0
M  V30 3487 C 345.78 -2.70818 -5.77006 0
M  V30 3488 C 343.467 -2.01966 -5.76761 0
M  V30 3489 C 344.465 -2.89574 -6.18576 0
M  V30 3490 O 344.153 -3.94429 -7.00486 0
M  V30 3491 H 343.885 -0.00934786 -0.675935 0
M  V30 3492 H 346.439 -0.674959 -1.93993 0
M  V30 3493 H 344.669 1.19869 -3.67652 0
M  V30 3494 H 346.358 0.890433 -3.96013 0
M  V30 3495 H 347.124 -1.50643 -4.61012 0
M  V30 3496 H 343.003 -0.280247 -4.60147 0
M  V30 3497 H 346.547 -3.3923 -6.09565 0
M  V30 3498 H 342.444 -2.1577 -6.0837 0
M  V30 3499 H 343.212 -3.91568 -7.1876 0
M  V30 3500 N 345.875 1.56104 -0.216619 0
M  V30 3501 C 347.122 1.98172 0.416416 0
M  V30 3502 C 347.45 1.10413 1.60122 0
M  V30 3503 O 346.705 0.147967 1.9514 0
M  V30 3504 C 347.004 3.45923 0.898464 0
M  V30 3505 C 346.67 4.50559 -0.175288 0
M  V30 3506 C 345.332 4.78897 -0.470271 0
M  V30 3507 C 347.684 5.1334 -0.901728 0
M  V30 3508 C 345.012 5.67299 -1.4963 0
M  V30 3509 C 347.364 6.02853 -1.91705 0
M  V30 3510 C 346.028 6.29537 -2.21901 0
M  V30 3511 H 345.298 0.725164 0.152377 0
M  V30 3512 H 347.945 1.88839 -0.318103 0
M  V30 3513 H 346.25 3.52434 1.71165 0
M  V30 3514 H 347.947 3.75841 1.39803 0
M  V30 3515 H 344.537 4.28551 0.0647806 0
M  V30 3516 H 348.721 4.91521 -0.687072 0
M  V30 3517 H 343.977 5.86239 -1.73592 0
M  V30 3518 H 348.151 6.50552 -2.48505 0
M  V30 3519 H 345.778 6.97835 -3.01548 0
M  V30 3520 N 347.353 -0.0568162 1.57498 0
M  V30 3521 C 348.769 -0.411933 1.54192 0
M  V30 3522 C 348.969 -1.78287 0.938942 0
M  V30 3523 O 348.025 -2.46483 0.547919 0
M  V30 3524 C 349.338 -0.339244 2.9878 0
M  V30 3525 C 350.886 -0.418348 3.10192 0
M  V30 3526 C 351.361 -0.375407 4.56459 0
M  V30 3527 N 352.852 -0.435038 4.61153 0
M  V30 3528 C 353.587 -0.424265 5.71828 0
M  V30 3529 N 353.083 -0.367418 6.91825 0
M  V30 3530 N 354.876 -0.471938 5.60115 0
M  V30 3531 H 347.027 0.840684 1.95055 0
M  V30 3532 H 349.29 0.316987 0.893433 0
M  V30 3533 H 348.996 0.601742 3.46514 0
M  V30 3534 H 348.87 -1.14371 3.59443 0
M  V30 3535 H 351.257 -1.34976 2.62422 0
M  V30 3536 H 351.338 0.414962 2.52412 0
M  V30 3537 H 350.982 0.552219 5.04889 0
M  V30 3538 H 350.912 -1.22645 5.12119 0
M  V30 3539 H 353.403 -0.482612 3.74806 0
M  V30 3540 H 353.716 -0.363535 7.71944 0
M  V30 3541 H 352.061 -0.333879 6.94198 0
M  V30 3542 H 355.252 -0.514145 4.65268 0
M  V30 3543 H 355.425 -0.460073 6.46365 0
M  V30 3544 N 348.832 -1.54138 -0.328536 0
M  V30 3545 C 349.742 -1.86192 -1.42723 0
M  V30 3546 C 350.758 -0.753382 -1.56844 0
M  V30 3547 O 351.934 -1.04718 -1.72035 0
M  V30 3548 C 348.999 -2.07824 -2.77507 0
M  V30 3549 C 348.06 -3.31641 -2.72603 0
M  V30 3550 C 347.293 -3.52232 -4.00959 0
M  V30 3551 O 347.516 -2.7636 -4.9898 0
M  V30 3552 O 346.45 -4.45699 -4.0452 0
M  V30 3553 H 350.276 -2.79608 -1.18547 0
M  V30 3554 H 347.861 -1.3998 -0.522104 0
M  V30 3555 H 349.743 -2.23411 -3.57303 0
M  V30 3556 H 348.418 -1.17596 -3.01584 0
M  V30 3557 H 347.325 -3.21444 -1.91376 0
M  V30 3558 H 348.658 -4.2191 -2.53481 0
M  V30 3559 N 350.31 0.590341 -1.46126 0
M  V30 3560 C 351.538 1.37504 -1.54597 0
M  V30 3561 C 351.953 1.87897 -0.184447 0
M  V30 3562 O 351.31 1.63192 0.816984 0
M  V30 3563 C 351.361 2.56779 -2.54454 0
M  V30 3564 O 351.082 2.08476 -3.85317 0
M  V30 3565 C 352.583 3.49427 -2.72792 0
M  V30 3566 H 349.803 0.420325 -0.523037 0
M  V30 3567 H 352.347 0.718383 -1.91467 0
M  V30 3568 H 350.502 3.1845 -2.20609 0
M  V30 3569 H 350.916 2.86097 -4.396 0
M  V30 3570 H 352.39 4.29619 -3.466 0
M  V30 3571 H 352.867 4.00876 -1.79429 0
M  V30 3572 H 353.473 2.93598 -3.07702 0
M  V30 3573 N 351.788 1.33704 0.83433 0
M  V30 3574 C 353.037 1.24763 1.58484 0
M  V30 3575 C 353.35 -0.183775 1.94735 0
M  V30 3576 O 354.556 -0.395234 2.68608 0
M  V30 3577 C 353.012 2.18638 2.85876 0
M  V30 3578 C 352.62 3.66974 2.56971 0
M  V30 3579 C 354.364 2.18581 3.63899 0
M  V30 3580 C 352.271 4.5275 3.80488 0
M  V30 3581 H 351.201 0.463425 0.594772 0
M  V30 3582 H 353.852 1.58797 0.919551 0
M  V30 3583 H 352.234 1.77542 3.5397 0
M  V30 3584 H 353.408 4.16538 1.9706 0
M  V30 3585 H 351.723 3.69366 1.92244 0
M  V30 3586 H 354.32 2.79894 4.55591 0
M  V30 3587 H 354.663 1.18207 3.99165 0
M  V30 3588 H 355.196 2.58062 3.02735 0
M  V30 3589 H 351.935 5.54017 3.5035 0
M  V30 3590 H 351.455 4.07927 4.39722 0
M  V30 3591 H 353.134 4.66784 4.4802 0
M  V30 3592 N 353.266 -1.05314 1.17247 0
M  V30 3593 C 354.682 -1.30452 0.919473 0
M  V30 3594 C 354.882 -1.9703 -0.42209 0
M  V30 3595 O 353.938 -2.24311 -1.15935 0
M  V30 3596 C 355.251 -2.17551 2.07586 0
M  V30 3597 C 356.799 -2.30937 2.11275 0
M  V30 3598 C 357.274 -3.21396 3.26296 0
M  V30 3599 N 358.765 -3.28981 3.26076 0
M  V30 3600 C 359.5 -3.99095 4.11716 0
M  V30 3601 N 358.996 -4.71648 5.07465 0
M  V30 3602 N 360.789 -3.95247 3.9967 0
M  V30 3603 H 352.94 -0.604988 2.03602 0
M  V30 3604 H 355.203 -0.329368 0.888944 0
M  V30 3605 H 354.909 -1.75921 3.0454 0
M  V30 3606 H 354.783 -3.18182 2.02584 0
M  V30 3607 H 357.17 -2.71809 1.14907 0
M  V30 3608 H 357.251 -1.2994 2.20339 0
M  V30 3609 H 356.895 -2.81238 4.22927 0
M  V30 3610 H 356.825 -4.22395 3.14467 0
M  V30 3611 H 359.316 -2.77286 2.5675 0
M  V30 3612 H 359.629 -5.22705 5.6921 0
M  V30 3613 H 357.974 -4.70594 5.11435 0
M  V30 3614 H 361.165 -3.37691 3.24164 0
M  V30 3615 H 361.338 -4.4962 4.66632 0
M  V30 3616 N 354.744 -0.972509 -1.24016 0
M  V30 3617 C 356.16 -0.679827 -1.44397 0
M  V30 3618 C 356.36 0.756716 -1.86751 0
M  V30 3619 O 355.416 1.53007 -2.00861 0
M  V30 3620 C 356.729 -1.66803 -2.50195 0
M  V30 3621 C 358.277 -1.68119 -2.64017 0
M  V30 3622 C 358.752 -2.65748 -3.73017 0
M  V30 3623 N 360.243 -2.64219 -3.8045 0
M  V30 3624 C 360.978 -3.36433 -4.64328 0
M  V30 3625 N 360.474 -4.1818 -5.52356 0
M  V30 3626 N 362.267 -3.25235 -4.58453 0
M  V30 3627 H 354.418 -1.90059 -0.948228 0
M  V30 3628 H 356.681 -0.818527 -0.478245 0
M  V30 3629 H 356.387 -2.69498 -2.25973 0
M  V30 3630 H 356.261 -1.4446 -3.48441 0
M  V30 3631 H 358.648 -0.661319 -2.87594 0
M  V30 3632 H 358.729 -1.94525 -1.66113 0
M  V30 3633 H 358.373 -3.67872 -3.50189 0
M  V30 3634 H 358.303 -2.36619 -4.70446 0
M  V30 3635 H 360.794 -2.04887 -3.17537 0
M  V30 3636 H 361.107 -4.70157 -6.13329 0
M  V30 3637 H 359.452 -4.22273 -5.52006 0
M  V30 3638 H 362.643 -2.60829 -3.88698 0
M  V30 3639 H 362.816 -3.81776 -5.23594 0
M  V30 3640 N 356.222 1.38976 -0.743202 0
M  V30 3641 C 357.499 1.94351 -0.220705 0
M  V30 3642 C 357.879 1.67935 1.2791 0
M  V30 3643 O 357.227 1.01211 2.04862 0
M  V30 3644 C 357.437 3.44426 -0.563171 0
M  V30 3645 C 358.785 4.2144 -0.517046 0
M  V30 3646 O 359.809 3.52661 -0.500846 0
M  V30 3647 O 358.668 5.44032 -0.518806 0
M  V30 3648 H 355.762 0.825879 -0.043047 0
M  V30 3649 H 358.308 1.48429 -0.822618 0
M  V30 3650 H 357.08 3.5712 -1.59941 0
M  V30 3651 H 356.703 3.97543 0.0672883 0
M  V30 3652 N 357.7 0.491464 1.49741 0
M  V30 3653 C 358.949 -0.0582189 2.01616 0
M  V30 3654 C 359.262 -1.38927 1.3769 0
M  V30 3655 O 360.468 -2.02509 1.80838 0
M  V30 3656 C 358.924 -0.154235 3.59569 0
M  V30 3657 C 358.532 1.1696 4.32463 0
M  V30 3658 C 360.276 -0.65479 4.1942 0
M  V30 3659 C 358.183 1.03627 5.8225 0
M  V30 3660 H 357.113 -0.0255317 0.753568 0
M  V30 3661 H 359.764 0.629445 1.72367 0
M  V30 3662 H 358.146 -0.906138 3.85493 0
M  V30 3663 H 359.32 1.93405 4.18248 0
M  V30 3664 H 357.635 1.60285 3.84315 0
M  V30 3665 H 360.232 -0.771903 5.29099 0
M  V30 3666 H 360.575 -1.65127 3.8215 0
M  V30 3667 H 361.108 0.040304 3.9778 0
M  V30 3668 H 357.847 2.00672 6.24028 0
M  V30 3669 H 357.367 0.312546 5.98985 0
M  V30 3670 H 359.046 0.711114 6.4308 0
M  V30 3671 N 359.178 -1.55987 0.224894 0
M  V30 3672 C 360.594 -1.59066 -0.130426 0
M  V30 3673 C 360.794 -1.24176 -1.5869 0
M  V30 3674 O 359.85 -0.978592 -2.32766 0
M  V30 3675 C 361.163 -3.00042 0.198883 0
M  V30 3676 C 362.711 -3.1268 0.141391 0
M  V30 3677 C 363.186 -4.55839 0.444422 0
M  V30 3678 N 364.677 -4.6152 0.394115 0
M  V30 3679 C 365.412 -5.70231 0.602038 0
M  V30 3680 N 364.908 -6.87291 0.871914 0
M  V30 3681 N 366.701 -5.59555 0.534245 0
M  V30 3682 H 358.852 -1.76941 1.17497 0
M  V30 3683 H 361.115 -0.822604 0.471197 0
M  V30 3684 H 360.821 -3.30234 1.2099 0
M  V30 3685 H 360.695 -3.74075 -0.484535 0
M  V30 3686 H 363.082 -2.82283 -0.860265 0
M  V30 3687 H 363.163 -2.40969 0.858335 0
M  V30 3688 H 362.807 -4.86954 1.44353 0
M  V30 3689 H 362.737 -5.2578 -0.293752 0
M  V30 3690 H 365.228 -3.77405 0.193356 0
M  V30 3691 H 365.541 -7.66058 1.01858 0
M  V30 3692 H 363.886 -6.89028 0.909145 0
M  V30 3693 H 367.077 -4.6698 0.323612 0
M  V30 3694 H 367.25 -6.44211 0.699693 0
M  V30 3695 N 360.656 0.0484629 -1.57525 0
M  V30 3696 C 361.588 1.08222 -2.02041 0
M  V30 3697 C 362.601 1.33621 -0.930012 0
M  V30 3698 O 363.79 1.3145 -1.20761 0
M  V30 3699 C 360.89 2.42818 -2.36416 0
M  V30 3700 C 360.063 2.37049 -3.67596 0
M  V30 3701 C 359.122 3.53937 -3.89378 0
M  V30 3702 O 358.148 3.34308 -4.60681 0
M  V30 3703 N 359.35 4.75126 -3.3352 0
M  V30 3704 H 362.115 0.702946 -2.9134 0
M  V30 3705 H 359.676 0.236745 -1.6016 0
M  V30 3706 H 361.668 3.197 -2.48141 0
M  V30 3707 H 360.238 2.72661 -1.52888 0
M  V30 3708 H 359.458 1.45395 -3.66407 0
M  V30 3709 H 360.746 2.30318 -4.53686 0
M  V30 3710 H 360.144 4.93976 -2.75688 0
M  V30 3711 H 358.701 5.49439 -3.50656 0
M  V30 3712 N 362.134 1.5431 0.320358 0
M  V30 3713 C 363.097 1.83195 1.3774 0
M  V30 3714 C 364.097 0.703906 1.44575 0
M  V30 3715 O 365.287 0.972214 1.44546 0
M  V30 3716 C 362.419 1.99487 2.76438 0
M  V30 3717 H 363.612 2.77642 1.1338 0
M  V30 3718 H 361.165 1.46076 0.556012 0
M  V30 3719 H 361.9 1.07262 3.06048 0
M  V30 3720 H 361.685 2.81575 2.7287 0
M  V30 3721 H 363.175 2.23271 3.52902 0
M  V30 3722 N 363.613 -0.582584 1.46437 0
M  V30 3723 C 365.029 -0.905962 1.31394 0
M  V30 3724 C 365.229 -1.99468 0.285476 0
M  V30 3725 O 364.285 -2.50566 -0.311914 0
M  V30 3726 C 365.598 -1.3232 2.70022 0
M  V30 3727 C 367.146 -1.43604 2.78113 0
M  V30 3728 C 367.621 -1.88694 4.17323 0
M  V30 3729 N 369.112 -1.95887 4.19741 0
M  V30 3730 C 369.847 -2.32051 5.24347 0
M  V30 3731 N 369.343 -2.67006 6.39281 0
M  V30 3732 N 371.136 -2.32606 5.11713 0
M  V30 3733 H 363.287 0.1366 2.1196 0
M  V30 3734 H 365.55 -0.00155736 0.947999 0
M  V30 3735 H 365.256 -0.597242 3.46592 0
M  V30 3736 H 365.13 -2.28469 3.00136 0
M  V30 3737 H 367.517 -2.15286 2.01832 0
M  V30 3738 H 367.598 -0.457059 2.51684 0
M  V30 3739 H 367.242 -1.1759 4.941 0
M  V30 3740 H 367.172 -2.8755 4.4116 0
M  V30 3741 H 369.663 -1.71362 3.36814 0
M  V30 3742 H 369.976 -2.93554 7.14875 0
M  V30 3743 H 368.321 -2.64644 6.42642 0
M  V30 3744 H 371.512 -2.04721 4.2096 0
M  V30 3745 H 371.685 -2.60462 5.93349 0
M  V30 3746 N 365.091 -1.34144 -0.827227 0
M  V30 3747 C 366.001 -1.27428 -1.96975 0
M  V30 3748 C 367.017 -0.182728 -1.73038 0
M  V30 3749 O 368.193 -0.408426 -1.97215 0
M  V30 3750 C 365.258 -1.02526 -3.31194 0
M  V30 3751 C 364.319 -2.20796 -3.68168 0
M  V30 3752 C 363.552 -1.97073 -4.95982 0
M  V30 3753 O 363.775 -0.926822 -5.6282 0
M  V30 3754 O 362.709 -2.83912 -5.30733 0
M  V30 3755 H 366.535 -2.23537 -2.05584 0
M  V30 3756 H 364.12 -1.14307 -0.961989 0
M  V30 3757 H 366.002 -0.904026 -4.11589 0
M  V30 3758 H 364.677 -0.0945389 -3.23562 0
M  V30 3759 H 363.584 -2.38477 -2.88235 0
M  V30 3760 H 364.917 -3.12243 -3.8048 0
M  V30 3761 N 366.569 1.04691 -1.17803 0
M  V30 3762 C 367.985 1.29963 -0.926379 0
M  V30 3763 C 368.185 1.97251 0.411635 0
M  V30 3764 O 367.241 2.24922 1.14744 0
M  V30 3765 C 368.554 2.16447 -2.08737 0
M  V30 3766 C 370.102 2.29814 -2.12496 0
M  V30 3767 C 370.577 3.19661 -3.27995 0
M  V30 3768 N 372.068 3.27247 -3.27816 0
M  V30 3769 C 372.803 3.96906 -4.13827 0
M  V30 3770 N 372.299 4.6895 -5.09959 0
M  V30 3771 N 374.092 3.93122 -4.01761 0
M  V30 3772 H 366.243 0.594182 -2.0392 0
M  V30 3773 H 368.506 0.324649 -0.890678 0
M  V30 3774 H 368.212 1.74304 -3.05469 0
M  V30 3775 H 368.086 3.17103 -2.04268 0
M  V30 3776 H 370.473 2.71196 -1.16347 0
M  V30 3777 H 370.554 1.2877 -2.21025 0
M  V30 3778 H 370.198 2.78991 -4.24413 0
M  V30 3779 H 370.128 4.20722 -3.16703 0
M  V30 3780 H 372.619 2.75921 -2.58217 0
M  V30 3781 H 372.932 5.19679 -5.71974 0
M  V30 3782 H 371.277 4.67875 -5.13924 0
M  V30 3783 H 374.468 3.35967 -3.2595 0
M  V30 3784 H 374.641 4.47139 -4.6901 0
M  V30 3785 N 368.047 0.979072 1.23499 0
M  V30 3786 C 369.294 0.647219 1.91878 0
M  V30 3787 C 369.622 -0.819074 1.76413 0
M  V30 3788 O 368.877 -1.60616 1.11808 0
M  V30 3789 C 369.176 0.981932 3.43646 0
M  V30 3790 C 368.842 2.43822 3.79291 0
M  V30 3791 C 367.504 2.83622 3.88731 0
M  V30 3792 C 369.856 3.3828 3.96505 0
M  V30 3793 C 367.184 4.16897 4.12812 0
M  V30 3794 C 369.536 4.71197 4.22085 0
M  V30 3795 C 368.2 5.10758 4.29747 0
M  V30 3796 H 367.47 0.236834 0.702133 0
M  V30 3797 H 370.117 1.23268 1.46551 0
M  V30 3798 H 368.422 0.314365 3.90537 0
M  V30 3799 H 370.119 0.703395 3.94783 0
M  V30 3800 H 366.709 2.11966 3.72516 0
M  V30 3801 H 370.893 3.0871 3.88603 0
M  V30 3802 H 366.149 4.47157 4.16966 0
M  V30 3803 H 370.323 5.44348 4.34348 0
M  V30 3804 H 367.95 6.1405 4.48159 0
M  V30 3805 N 369.525 -1.3858 0.750561 0
M  V30 3806 C 370.75 -2.04997 0.314812 0
M  V30 3807 C 371.175 -1.56235 -1.04749 0
M  V30 3808 O 370.533 -0.712981 -1.66692 0
M  V30 3809 C 370.581 -3.58961 0.343415 0
M  V30 3810 O 369.685 -4.07025 -0.663628 0
M  V30 3811 H 369.026 -0.649081 0.139962 0
M  V30 3812 H 371.556 -1.77313 1.02084 0
M  V30 3813 H 371.566 -4.07542 0.193233 0
M  V30 3814 H 370.241 -3.93811 1.33738 0
M  V30 3815 H 368.818 -3.6982 -0.478307 0
M  V30 3816 N 371.003 -0.499398 -1.49478 0
M  V30 3817 C 372.251 0.0455996 -2.02049 0
M  V30 3818 C 372.572 1.37633 -1.38138 0
M  V30 3819 O 371.842 1.8842 -0.536166 0
M  V30 3820 H 370.422 0.0198416 -0.746736 0
M  V30 3821 H 373.084 -0.656274 -1.83519 0
M  V30 3822 H 372.18 0.176445 -3.11601 0
M  V30 3823 N 372.481 1.55866 -0.233164 0
M  V30 3824 C 373.892 1.847 0.272554 0
M  V30 3825 C 374.243 1.15477 1.58617 0
M  V30 3826 O 373.368 0.42841 2.12117 0
M  V30 3827 C 373.963 3.35071 0.501299 0
M  V30 3828 C 372.522 3.6418 0.951304 0
M  V30 3829 C 371.669 2.77292 0.0208209 0
M  V30 3830 H 374.62 1.52005 -0.456074 0
M  V30 3831 H 374.641 3.55906 1.34577 0
M  V30 3832 H 374.153 3.85424 -0.454936 0
M  V30 3833 H 372.254 3.19293 1.92049 0
M  V30 3834 H 372.367 4.72071 0.817675 0
M  V30 3835 H 370.731 2.49131 0.529723 0
M  V30 3836 H 371.514 3.30448 -0.93054 0
M  V30 3837 N 373.959 -0.0401083 1.57549 0
M  V30 3838 C 374.891 -1.07149 2.02612 0
M  V30 3839 C 375.904 -1.33126 0.937085 0
M  V30 3840 O 377.093 -1.30808 1.21456 0
M  V30 3841 C 374.193 -2.41561 2.37701 0
M  V30 3842 C 373.366 -2.35096 3.68848 0
M  V30 3843 C 372.425 -3.51867 3.91249 0
M  V30 3844 O 371.451 -3.3186 4.62447 0
M  V30 3845 N 372.653 -4.73351 3.36035 0
M  V30 3846 H 375.418 -0.687485 2.91708 0
M  V30 3847 H 372.979 -0.228248 1.60283 0
M  V30 3848 H 374.971 -3.18379 2.49833 0
M  V30 3849 H 373.541 -2.71846 1.54332 0
M  V30 3850 H 372.761 -1.4345 3.67173 0
M  V30 3851 H 374.049 -2.27908 4.54901 0
M  V30 3852 H 373.447 -4.92507 2.78304 0
M  V30 3853 H 372.004 -5.47572 3.53565 0
M  V30 3854 N 375.437 -1.54477 -0.31217 0
M  V30 3855 C 376.367 -1.87652 -1.38957 0
M  V30 3856 C 377.348 -0.734358 -1.53431 0
M  V30 3857 O 378.533 -0.98911 -1.67123 0
M  V30 3858 C 375.663 -2.11396 -2.75552 0
M  V30 3859 C 374.617 -3.27243 -2.75855 0
M  V30 3860 C 373.943 -3.36382 -4.15633 0
M  V30 3861 C 375.243 -4.64622 -2.38587 0
M  V30 3862 H 376.937 -2.77887 -1.11442 0
M  V30 3863 H 374.483 -1.33707 -0.534655 0
M  V30 3864 H 376.436 -2.33189 -3.51 0
M  V30 3865 H 375.16 -1.17921 -3.04569 0
M  V30 3866 H 373.819 -3.05356 -2.02863 0
M  V30 3867 H 373.467 -2.40445 -4.41809 0
M  V30 3868 H 373.167 -4.14249 -4.1674 0
M  V30 3869 H 374.691 -3.60422 -4.92877 0
M  V30 3870 H 376.105 -4.86219 -3.03749 0
M  V30 3871 H 374.502 -5.45121 -2.50925 0
M  V30 3872 H 375.572 -4.66097 -1.33723 0
M  V30 3873 N 376.915 0.57481 -1.46744 0
M  V30 3874 C 378.331 0.898981 -1.31873 0
M  V30 3875 C 378.531 1.99313 -0.29605 0
M  V30 3876 O 377.587 2.50728 0.298621 0
M  V30 3877 C 378.9 1.30886 -2.7072 0
M  V30 3878 C 380.448 1.42127 -2.78871 0
M  V30 3879 C 380.923 1.86478 -4.18318 0
M  V30 3880 N 382.414 1.93658 -4.20774 0
M  V30 3881 C 383.149 2.29267 -5.2557 0
M  V30 3882 N 382.645 2.63612 -6.40688 0
M  V30 3883 N 384.438 2.29889 -5.1294 0
M  V30 3884 H 376.589 -0.147839 -2.11885 0
M  V30 3885 H 378.852 -0.00347013 -0.947994 0
M  V30 3886 H 378.558 0.578853 -3.46904 0
M  V30 3887 H 378.432 2.26874 -3.01343 0
M  V30 3888 H 380.819 2.14213 -2.0297 0
M  V30 3889 H 380.9 0.443705 -2.51922 0
M  V30 3890 H 380.544 1.14968 -4.94717 0
M  V30 3891 H 380.474 2.85207 -4.42679 0
M  V30 3892 H 382.965 1.69574 -3.37718 0
M  V30 3893 H 383.278 2.89759 -7.16421 0
M  V30 3894 H 381.623 2.61232 -6.44036 0
M  V30 3895 H 384.814 2.02485 -4.22039 0
M  V30 3896 H 384.987 2.57312 -5.94722 0
M  V30 3897 N 378.394 1.34581 0.820102 0
M  V30 3898 C 379.326 1.22236 1.93884 0
M  V30 3899 C 380.339 0.148776 1.62119 0
M  V30 3900 O 381.528 0.400877 1.7394 0
M  V30 3901 C 378.628 0.856542 3.27897 0
M  V30 3902 C 377.801 2.02569 3.87666 0
M  V30 3903 C 376.86 1.63782 5.00062 0
M  V30 3904 O 375.886 2.35477 5.18208 0
M  V30 3905 N 377.088 0.553611 5.77854 0
M  V30 3906 H 379.853 2.18615 2.05006 0
M  V30 3907 H 377.414 1.27573 0.99683 0
M  V30 3908 H 379.406 0.578806 4.0054 0
M  V30 3909 H 377.976 -0.0171518 3.12595 0
M  V30 3910 H 377.196 2.468 3.07382 0
M  V30 3911 H 378.484 2.80752 4.24329 0
M  V30 3912 H 377.882 -0.0423528 5.65684 0
M  V30 3913 H 376.439 0.335614 6.50935 0
M  V30 3914 N 379.872 -1.04064 1.18357 0
M  V30 3915 C 380.782 -2.15569 0.925596 0
M  V30 3916 C 381.798 -1.7365 -0.110295 0
M  V30 3917 O 382.974 -2.01273 0.0716218 0
M  V30 3918 C 380.039 -3.43704 0.454836 0
M  V30 3919 C 379.1 -4.00004 1.55869 0
M  V30 3920 C 378.333 -5.22023 1.1103 0
M  V30 3921 O 378.556 -5.70392 -0.0309756 0
M  V30 3922 O 377.49 -5.70856 1.90805 0
M  V30 3923 H 381.316 -2.40187 1.8586 0
M  V30 3924 H 378.901 -1.1402 0.965394 0
M  V30 3925 H 380.783 -4.20923 0.200382 0
M  V30 3926 H 379.458 -3.20559 -0.449876 0
M  V30 3927 H 378.365 -3.24172 1.86716 0
M  V30 3928 H 379.698 -4.2749 2.43953 0
M  V30 3929 N 381.35 -0.985608 -1.22978 0
M  V30 3930 C 382.28 -0.549649 -2.26939 0
M  V30 3931 C 383.261 0.419803 -1.64838 0
M  V30 3932 O 384.446 0.31203 -1.91677 0
M  V30 3933 C 381.576 0.143652 -3.47003 0
M  V30 3934 C 380.53 -0.743606 -4.21491 0
M  V30 3935 C 379.856 0.0822027 -5.34637 0
M  V30 3936 C 381.156 -2.03694 -4.80943 0
M  V30 3937 H 382.85 -1.41862 -2.63658 0
M  V30 3938 H 380.396 -0.683571 -1.26741 0
M  V30 3939 H 382.349 0.459985 -4.18882 0
M  V30 3940 H 381.073 1.04711 -3.09359 0
M  V30 3941 H 379.732 -1.04347 -3.51436 0
M  V30 3942 H 379.38 0.986359 -4.93234 0
M  V30 3943 H 379.08 -0.508377 -5.85397 0
M  V30 3944 H 380.604 0.392797 -6.09335 0
M  V30 3945 H 382.018 -1.78504 -5.44802 0
M  V30 3946 H 380.415 -2.57573 -5.42011 0
M  V30 3947 H 381.485 -2.72042 -4.01399 0
M  V30 3948 N 382.828 1.3818 -0.7579 0
M  V30 3949 C 383.791 2.28764 -0.141286 0
M  V30 3950 C 384.791 1.47388 0.642907 0
M  V30 3951 O 385.981 1.67781 0.468536 0
M  V30 3952 C 383.113 3.31184 0.808069 0
M  V30 3953 H 384.306 2.848 -0.939633 0
M  V30 3954 H 381.859 1.47212 -0.525191 0
M  V30 3955 H 382.594 2.80247 1.63193 0
M  V30 3956 H 382.379 3.91314 0.248104 0
M  V30 3957 H 383.869 3.98909 1.23536 0
M  V30 3958 N 384.306 0.507319 1.49211 0
M  V30 3959 C 385.722 0.163682 1.58758 0
M  V30 3960 C 385.922 -1.33208 1.51188 0
M  V30 3961 O 384.978 -2.10855 1.38911 0
M  V30 3962 C 386.291 0.746095 2.91297 0
M  V30 3963 C 387.839 0.712773 3.04776 0
M  V30 3964 C 388.314 1.27336 4.39943 0
M  V30 3965 N 389.805 1.23433 4.46451 0
M  V30 3966 C 390.54 1.63821 5.495 0
M  V30 3967 N 390.036 2.11832 6.5962 0
M  V30 3968 N 391.829 1.55198 5.4025 0
M  V30 3969 H 383.98 1.47972 1.52375 0
M  V30 3970 H 386.243 0.614147 0.722168 0
M  V30 3971 H 385.949 1.79534 3.02424 0
M  V30 3972 H 385.823 0.210137 3.76614 0
M  V30 3973 H 388.21 -0.327656 2.93275 0
M  V30 3974 H 388.291 1.28595 2.21127 0
M  V30 3975 H 387.935 2.3126 4.52196 0
M  V30 3976 H 387.865 0.676066 5.22242 0
M  V30 3977 H 390.356 0.882627 3.67448 0
M  V30 3978 H 390.669 2.40703 7.34358 0
M  V30 3979 H 389.014 2.1581 6.60644 0
M  V30 3980 H 392.205 1.17505 4.53112 0
M  V30 3981 H 392.378 1.86997 6.20432 0
M  V30 3982 N 385.784 -1.5574 0.241426 0
M  V30 3983 C 386.714 -2.24133 -0.654722 0
M  V30 3984 C 387.695 -1.21974 -1.1856 0
M  V30 3985 O 388.88 -1.50612 -1.22595 0
M  V30 3986 C 386.01 -2.93659 -1.85423 0
M  V30 3987 C 384.964 -4.0246 -1.45636 0
M  V30 3988 C 384.29 -4.59383 -2.73626 0
M  V30 3989 C 385.59 -5.18468 -0.631506 0
M  V30 3990 H 387.284 -2.99281 -0.0844353 0
M  V30 3991 H 384.83 -1.43947 -0.0391707 0
M  V30 3992 H 386.783 -3.40203 -2.48676 0
M  V30 3993 H 385.507 -2.15991 -2.44981 0
M  V30 3994 H 384.166 -3.56676 -0.847202 0
M  V30 3995 H 383.814 -3.78422 -3.3137 0
M  V30 3996 H 383.514 -5.32826 -2.4773 0
M  V30 3997 H 385.038 -5.08658 -3.37786 0
M  V30 3998 H 386.452 -5.61272 -1.1682 0
M  V30 3999 H 384.849 -5.98266 -0.468831 0
M  V30 4000 H 385.919 -4.8358 0.357506 0
M  V30 4001 N 387.262 0.0317525 -1.57568 0
M  V30 4002 C 388.194 1.06073 -2.03178 0
M  V30 4003 C 389.207 1.32627 -0.944132 0
M  V30 4004 O 390.396 1.30162 -1.22148 0
M  V30 4005 C 387.496 2.40297 -2.38978 0
M  V30 4006 C 386.669 2.33137 -3.70089 0
M  V30 4007 C 385.728 3.49787 -3.9311 0
M  V30 4008 O 384.754 3.29403 -4.64201 0
M  V30 4009 N 385.956 4.71562 -3.38541 0
M  V30 4010 H 388.721 0.672006 -2.92069 0
M  V30 4011 H 386.282 0.219745 -1.60402 0
M  V30 4012 H 388.274 3.1705 -2.51518 0
M  V30 4013 H 386.844 2.71024 -1.55771 0
M  V30 4014 H 386.064 1.415 -3.67928 0
M  V30 4015 H 387.352 2.25493 -4.56104 0
M  V30 4016 H 386.75 4.91024 -2.80912 0
M  V30 4017 H 385.307 5.45689 -3.56464 0
M  V30 4018 N 388.74 1.54641 0.303973 0
M  V30 4019 C 390.156 1.45788 0.649463 0
M  V30 4020 C 390.356 0.64666 1.90842 0
M  V30 4021 O 389.412 0.153183 2.52035 0
M  V30 4022 C 390.725 2.89718 0.805227 0
M  V30 4023 C 392.273 2.99742 0.901305 0
M  V30 4024 C 392.748 4.44863 1.08909 0
M  V30 4025 N 394.239 4.48559 1.15536 0
M  V30 4026 C 394.974 5.58026 1.3189 0
M  V30 4027 N 394.47 6.77422 1.45161 0
M  V30 4028 N 396.263 5.45708 1.34755 0
M  V30 4029 H 388.414 2.05854 -0.523237 0
M  V30 4030 H 390.677 0.932186 -0.172431 0
M  V30 4031 H 390.383 3.51666 -0.0489108 0
M  V30 4032 H 390.257 3.36964 1.69513 0
M  V30 4033 H 392.644 2.3791 1.74593 0
M  V30 4034 H 392.725 2.55797 -0.0125531 0
M  V30 4035 H 392.369 5.07288 0.249241 0
M  V30 4036 H 392.299 4.86436 2.01713 0
M  V30 4037 H 394.79 3.6254 1.06646 0
M  V30 4038 H 395.103 7.56604 1.57387 0
M  V30 4039 H 393.448 6.80292 1.42223 0
M  V30 4040 H 396.639 4.51378 1.23996 0
M  V30 4041 H 396.812 6.3107 1.47157 0
M  V30 4042 N 390.218 -0.567019 1.47046 0
M  V30 4043 C 391.634 -0.891975 1.32348 0
M  V30 4044 C 391.834 -1.99154 0.306616 0
M  V30 4045 O 390.89 -2.50883 -0.28532 0
M  V30 4046 C 392.203 -1.29449 2.7141 0
M  V30 4047 C 393.751 -1.40646 2.79621 0
M  V30 4048 C 394.226 -1.84257 4.19301 0
M  V30 4049 N 395.717 -1.91424 4.21795 0
M  V30 4050 C 396.452 -2.26476 5.26779 0
M  V30 4051 N 395.948 -2.60211 6.42077 0
M  V30 4052 N 397.741 -2.27166 5.14152 0
M  V30 4053 H 389.892 0.159074 2.11803 0
M  V30 4054 H 392.155 0.00849752 0.947962 0
M  V30 4055 H 391.861 -0.560448 3.47206 0
M  V30 4056 H 391.735 -2.25273 3.02542 0
M  V30 4057 H 394.122 -2.13133 2.04104 0
M  V30 4058 H 394.203 -0.430339 2.52154 0
M  V30 4059 H 393.847 -1.12343 4.95319 0
M  V30 4060 H 393.777 -2.82855 4.44185 0
M  V30 4061 H 396.268 -1.6778 3.38612 0
M  V30 4062 H 396.581 -2.85956 7.17948 0
M  V30 4063 H 394.926 -2.57813 6.45413 0
M  V30 4064 H 398.117 -2.00244 4.23107 0
M  V30 4065 H 398.29 -2.54154 5.96079 0
M  V30 4066 N 391.696 -1.35014 -0.812953 0
M  V30 4067 C 392.626 -1.30069 -1.93919 0
M  V30 4068 C 393.607 -0.176275 -1.69184 0
M  V30 4069 O 394.792 -0.370227 -1.90638 0
M  V30 4070 C 391.922 -1.06547 -3.30552 0
M  V30 4071 C 390.876 -2.15561 -3.69753 0
M  V30 4072 C 390.202 -1.77214 -5.04479 0
M  V30 4073 C 391.502 -3.57476 -3.808 0
M  V30 4074 H 393.196 -2.24303 -1.98314 0
M  V30 4075 H 390.742 -1.07977 -0.952736 0
M  V30 4076 H 392.695 -1.01729 -4.08937 0
M  V30 4077 H 391.419 -0.0875719 -3.26483 0
M  V30 4078 H 390.078 -2.19466 -2.9365 0
M  V30 4079 H 389.726 -0.780589 -4.96906 0
M  V30 4080 H 389.426 -2.50184 -5.31678 0
M  V30 4081 H 390.95 -1.7391 -5.8531 0
M  V30 4082 H 392.364 -3.55929 -4.4943 0
M  V30 4083 H 390.761 -4.29152 -4.19462 0
M  V30 4084 H 391.831 -3.94091 -2.82525 0
M  V30 4085 N 393.175 1.03435 -1.18907 0
M  V30 4086 C 394.452 1.73778 -0.89781 0
M  V30 4087 C 394.832 2.02458 0.597832 0
M  V30 4088 O 394.18 1.67482 1.55441 0
M  V30 4089 C 394.39 3.01845 -1.75187 0
M  V30 4090 C 395.738 3.7546 -1.9828 0
M  V30 4091 O 396.762 3.11759 -1.72293 0
M  V30 4092 O 395.621 4.89966 -2.42065 0
M  V30 4093 H 392.715 0.75651 -0.334098 0
M  V30 4094 H 395.261 1.09444 -1.29693 0
M  V30 4095 H 394.033 2.76836 -2.76545 0
M  V30 4096 H 393.656 3.73919 -1.35167 0
M  V30 4097 N 394.653 0.992116 1.22453 0
M  V30 4098 C 395.878 0.685644 1.95739 0
M  V30 4099 C 396.303 -0.743 1.72804 0
M  V30 4100 O 395.661 -1.50778 1.00676 0
M  V30 4101 C 395.709 0.996293 3.46564 0
M  V30 4102 O 394.813 0.0945512 4.12292 0
M  V30 4103 H 394.154 0.256694 0.612376 0
M  V30 4104 H 396.684 1.32888 1.5557 0
M  V30 4105 H 396.694 0.93781 3.97076 0
M  V30 4106 H 395.369 2.03733 3.62582 0
M  V30 4107 H 393.946 0.208451 3.72317 0
M  V30 4108 N 396.131 -1.37776 0.765217 0
M  V30 4109 C 397.377 -2.00145 0.327072 0
M  V30 4110 C 397.71 -1.60607 -1.09175 0
M  V30 4111 O 396.985 -0.849127 -1.74986 0
M  V30 4112 C 397.268 -3.57109 0.46319 0
M  V30 4113 C 397.121 -4.06576 1.92395 0
M  V30 4114 C 398.44 -4.39888 -0.136473 0
M  V30 4115 H 395.559 -0.727113 0.120316 0
M  V30 4116 H 398.201 -1.63549 0.967039 0
M  V30 4117 H 396.351 -3.88414 -0.0816358 0
M  V30 4118 H 398.023 -3.85864 2.52798 0
M  V30 4119 H 396.266 -3.59011 2.43503 0
M  V30 4120 H 396.937 -5.15639 1.97028 0
M  V30 4121 H 399.413 -4.14803 0.328317 0
M  V30 4122 H 398.289 -5.48899 -0.0110582 0
M  V30 4123 H 398.55 -4.24758 -1.22608 0
M  V30 4124 N 397.609 -0.515225 -1.4894 0
M  V30 4125 C 398.519 0.259774 -2.33157 0
M  V30 4126 C 399.535 0.953501 -1.45548 0
M  V30 4127 O 400.711 0.931735 -1.78552 0
M  V30 4128 C 397.776 1.30193 -3.21326 0
M  V30 4129 C 396.837 0.620129 -4.24797 0
M  V30 4130 C 396.07 1.61263 -5.08753 0
M  V30 4131 O 396.293 2.84389 -4.94448 0
M  V30 4132 O 395.227 1.16013 -5.90614 0
M  V30 4133 H 399.053 -0.429932 -3.00641 0
M  V30 4134 H 396.638 -0.276346 -1.46822 0
M  V30 4135 H 398.52 1.90455 -3.75905 0
M  V30 4136 H 397.195 1.97431 -2.56521 0
M  V30 4137 H 396.102 -0.0226019 -3.74093 0
M  V30 4138 H 397.435 -0.0100493 -4.92199 0
M  V30 4139 N 399.087 1.5561 -0.249682 0
M  V30 4140 C 400.017 2.24477 0.642826 0
M  V30 4141 C 400.998 1.22601 1.17911 0
M  V30 4142 O 402.183 1.5126 1.21795 0
M  V30 4143 C 399.313 2.94638 1.83863 0
M  V30 4144 C 398.267 4.03227 1.435 0
M  V30 4145 C 397.593 4.60828 2.71186 0
M  V30 4146 C 398.893 5.18796 0.604002 0
M  V30 4147 H 400.587 2.99321 0.0685625 0
M  V30 4148 H 398.133 1.43965 0.0315363 0
M  V30 4149 H 400.086 3.41517 2.46868 0
M  V30 4150 H 398.81 2.17287 2.43832 0
M  V30 4151 H 397.469 3.57121 0.828275 0
M  V30 4152 H 397.117 3.80174 3.29358 0
M  V30 4153 H 396.817 5.34132 2.44901 0
M  V30 4154 H 398.341 5.10442 3.35084 0
M  V30 4155 H 399.755 5.61883 1.13842 0
M  V30 4156 H 398.152 5.98506 0.437097 0
M  V30 4157 H 399.222 4.83384 -0.383147 0
M  V30 4158 N 400.565 -0.0233959 1.57583 0
M  V30 4159 C 401.495 -1.02162 2.09965 0
M  V30 4160 C 402.476 -1.3735 1.00344 0
M  V30 4161 O 403.661 -1.46135 1.27899 0
M  V30 4162 C 400.791 -2.32081 2.58371 0
M  V30 4163 C 399.745 -2.1112 3.72307 0
M  V30 4164 C 399.071 -3.46848 4.06941 0
M  V30 4165 C 400.371 -1.49276 5.00514 0
M  V30 4166 H 402.065 -0.585557 2.93618 0
M  V30 4167 H 399.611 -0.280218 1.41247 0
M  V30 4168 H 401.564 -3.02249 2.93639 0
M  V30 4169 H 400.288 -2.77758 1.71808 0
M  V30 4170 H 398.947 -1.43384 3.37397 0
M  V30 4171 H 398.595 -3.90184 3.17436 0
M  V30 4172 H 398.295 -3.33646 4.83688 0
M  V30 4173 H 399.819 -4.18369 4.44747 0
M  V30 4174 H 401.233 -2.09368 5.33702 0
M  V30 4175 H 399.63 -1.46632 5.8191 0
M  V30 4176 H 400.7 -0.459217 4.82721 0
M  V30 4177 N 402.043 -1.548 -0.295768 0
M  V30 4178 C 403.268 -1.78653 -1.05346 0
M  V30 4179 C 403.693 -0.546894 -1.79974 0
M  V30 4180 O 403.051 0.502763 -1.7419 0
M  V30 4181 C 403.099 -2.99679 -2.00561 0
M  V30 4182 O 402.203 -2.7317 -3.08953 0
M  V30 4183 H 401.544 -0.59116 -0.302367 0
M  V30 4184 H 404.074 -2.01895 -0.331598 0
M  V30 4185 H 404.084 -3.27793 -2.42932 0
M  V30 4186 H 402.759 -3.89562 -1.4565 0
M  V30 4187 H 401.336 -2.56089 -2.71059 0
M  V30 4188 N 403.521 0.559213 -1.47345 0
M  V30 4189 C 404.932 1.14134 -1.47751 0
M  V30 4190 C 405.283 1.94834 -0.231103 0
M  V30 4191 O 404.408 2.05957 0.664137 0
M  V30 4192 C 405.003 2.07653 -2.67705 0
M  V30 4193 C 403.562 2.61141 -2.71076 0
M  V30 4194 C 402.709 1.3748 -2.40821 0
M  V30 4195 H 405.66 0.345917 -1.54884 0
M  V30 4196 H 405.681 2.91497 -2.44561 0
M  V30 4197 H 405.193 1.4889 -3.58404 0
M  V30 4198 H 403.294 3.23707 -1.84511 0
M  V30 4199 H 403.407 3.02272 -3.7171 0
M  V30 4200 H 401.771 1.68086 -1.91362 0
M  V30 4201 H 402.554 0.805135 -3.33725 0
M  V30 4202 N 404.999 1.35443 0.805782 0
M  V30 4203 C 406.276 1.19325 1.54987 0
M  V30 4204 C 406.656 -0.227294 2.09873 0
M  V30 4205 O 406.004 -1.2309 1.92512 0
M  V30 4206 C 406.214 2.26196 2.65775 0
M  V30 4207 C 407.562 2.62043 3.34094 0
M  V30 4208 O 408.586 2.25115 2.76046 0
M  V30 4209 O 407.445 3.25542 4.38958 0
M  V30 4210 H 404.539 0.463623 0.684823 0
M  V30 4211 H 407.085 1.47127 0.845674 0
M  V30 4212 H 405.857 3.21471 2.23096 0
M  V30 4213 H 405.48 1.99667 3.43829 0
M  V30 4214 N 406.477 -1.02803 1.19454 0
M  V30 4215 C 407.726 -1.7562 0.991996 0
M  V30 4216 C 408.039 -1.89672 -0.477901 0
M  V30 4217 O 409.245 -2.59468 -0.799287 0
M  V30 4218 C 407.701 -3.15812 1.72601 0
M  V30 4219 C 407.309 -3.0981 3.23607 0
M  V30 4220 C 409.053 -3.92918 1.60674 0
M  V30 4221 C 406.96 -4.44939 3.89594 0
M  V30 4222 H 405.89 -0.658352 0.367543 0
M  V30 4223 H 408.541 -1.15044 1.42959 0
M  V30 4224 H 406.923 -3.7686 1.21624 0
M  V30 4225 H 408.097 -2.58138 3.81709 0
M  V30 4226 H 406.412 -2.46201 3.35819 0
M  V30 4227 H 409.009 -4.9287 2.07323 0
M  V30 4228 H 409.352 -4.12502 0.561025 0
M  V30 4229 H 409.885 -3.38472 2.09001 0
M  V30 4230 H 406.624 -4.30559 4.94267 0
M  V30 4231 H 406.144 -4.96664 3.36281 0
M  V30 4232 H 407.823 -5.1382 3.93189 0
M  V30 4233 N 407.956 -0.998596 -1.21925 0
M  V30 4234 C 409.205 -0.673085 -1.90138 0
M  V30 4235 C 409.518 0.79895 -1.78539 0
M  V30 4236 O 410.724 1.23628 -2.4172 0
M  V30 4237 C 409.18 -1.15339 -3.40918 0
M  V30 4238 C 408.788 -2.65106 -3.61141 0
M  V30 4239 C 410.532 -0.902476 -4.14796 0
M  V30 4240 C 408.439 -3.0671 -5.05651 0
M  V30 4241 H 407.369 -0.248057 -0.712028 0
M  V30 4242 H 410.02 -1.20891 -1.38049 0
M  V30 4243 H 408.402 -0.545658 -3.92223 0
M  V30 4244 H 409.576 -3.31274 -3.20304 0
M  V30 4245 H 407.891 -2.88142 -3.00605 0
M  V30 4246 H 410.488 -1.18895 -5.21314 0
M  V30 4247 H 410.831 0.161349 -4.15987 0
M  V30 4248 H 411.364 -1.47269 -3.69536 0
M  V30 4249 H 408.103 -4.12292 -5.09603 0
M  V30 4250 H 407.623 -2.45249 -5.47369 0
M  V30 4251 H 409.302 -2.9833 -5.74115 0
M  V30 4252 N 409.434 1.37368 -0.772513 0
M  V30 4253 C 410.367 2.27956 -0.105593 0
M  V30 4254 C 411.345 1.46362 0.708295 0
M  V30 4255 O 412.529 1.75695 0.682895 0
M  V30 4256 C 409.656 3.27687 0.856686 0
M  V30 4257 C 408.702 4.26312 0.1267 0
M  V30 4258 S 409.535 5.22206 -1.1858 0
M  V30 4259 C 410.691 6.25488 -0.227081 0
M  V30 4260 H 410.924 2.84171 -0.87372 0
M  V30 4261 H 408.457 1.43654 -0.565939 0
M  V30 4262 H 410.415 3.85653 1.40648 0
M  V30 4263 H 409.076 2.70417 1.59793 0
M  V30 4264 H 408.269 4.96674 0.856212 0
M  V30 4265 H 407.871 3.72339 -0.352117 0
M  V30 4266 H 410.163 6.74836 0.600231 0
M  V30 4267 H 411.106 7.02371 -0.898899 0
M  V30 4268 H 411.514 5.64267 0.162053 0
M  V30 4269 N 410.912 0.523116 1.48665 0
M  V30 4270 C 411.86 -0.256859 2.31177 0
M  V30 4271 C 412.854 -0.94199 1.40794 0
M  V30 4272 O 414.06 -0.867157 1.57735 0
M  V30 4273 H 410.435 -0.1017 0.745091 0
M  V30 4274 H 412.406 0.458739 2.94853 0
M  V30 4275 C 411.155 -1.29503 3.22683 0
M  V30 4276 H 410.478 -0.777248 3.92172 0
M  V30 4277 H 411.918 -1.81233 3.83315 0
M  V30 4278 C 410.377 -2.32501 2.43813 0
M  V30 4279 O 410.907 -3.3881 2.15803 0
M  V30 4280 N 409.113 -2.05538 2.05432 0
M  V30 4281 H 408.66 -1.19104 2.28412 0
M  V30 4282 H 408.618 -2.74676 1.52973 0
M  V30 4283 N 412.39 -1.55475 0.257931 0
M  V30 4284 C 413.32 -2.24815 -0.630912 0
M  V30 4285 C 414.301 -1.23224 -1.17259 0
M  V30 4286 O 415.486 -1.51904 -1.20991 0
M  V30 4287 C 412.616 -2.95609 -1.82298 0
M  V30 4288 C 411.57 -4.03982 -1.41359 0
M  V30 4289 C 410.896 -4.6226 -2.68738 0
M  V30 4290 C 412.196 -5.19109 -0.57648 0
M  V30 4291 H 413.89 -2.99354 -0.0526878 0
M  V30 4292 H 411.436 -1.4398 -0.023901 0
M  V30 4293 H 413.389 -3.42822 -2.45054 0
M  V30 4294 H 412.113 -2.18577 -2.42676 0
M  V30 4295 H 410.772 -3.57555 -0.809324 0
M  V30 4296 H 410.42 -3.81915 -3.27338 0
M  V30 4297 H 410.12 -5.35424 -2.42065 0
M  V30 4298 H 411.644 -5.12212 -3.32372 0
M  V30 4299 H 413.058 -5.62479 -1.10861 0
M  V30 4300 H 411.455 -5.98729 -0.405351 0
M  V30 4301 H 412.525 -4.83174 0.408776 0
M  V30 4302 N 413.868 0.0150385 -1.57593 0
M  V30 4303 C 414.798 1.01047 -2.10503 0
M  V30 4304 C 415.779 1.36816 -1.01071 0
M  V30 4305 O 416.964 1.45455 -1.28672 0
M  V30 4306 C 414.094 2.30708 -2.59598 0
M  V30 4307 C 413.048 2.09142 -3.73421 0
M  V30 4308 C 412.374 3.44685 -4.08774 0
M  V30 4309 C 413.674 1.46619 -5.01298 0
M  V30 4310 H 415.368 0.569978 -2.93925 0
M  V30 4311 H 412.914 0.272724 -1.41394 0
M  V30 4312 H 414.867 3.00687 -2.95238 0
M  V30 4313 H 413.591 2.76843 -1.73279 0
M  V30 4314 H 412.25 1.41592 -3.38153 0
M  V30 4315 H 411.898 3.88495 -3.195 0
M  V30 4316 H 411.598 3.31077 -4.8545 0
M  V30 4317 H 413.122 4.16004 -4.4696 0
M  V30 4318 H 414.536 2.06535 -5.34805 0
M  V30 4319 H 412.933 1.43544 -5.82679 0
M  V30 4320 H 414.003 0.433611 -4.82957 0
M  V30 4321 N 415.346 1.54954 0.287554 0
M  V30 4322 C 416.276 1.89839 1.35954 0
M  V30 4323 C 417.257 0.758675 1.52244 0
M  V30 4324 O 418.442 1.01557 1.65529 0
M  V30 4325 C 415.572 2.15753 2.72154 0
M  V30 4326 C 414.526 3.3159 2.70614 0
M  V30 4327 C 413.852 3.42952 4.10229 0
M  V30 4328 C 415.152 4.68359 2.31165 0
M  V30 4329 H 416.846 2.79625 1.07007 0
M  V30 4330 H 414.392 1.3454 0.513316 0
M  V30 4331 H 416.345 2.38743 3.47246 0
M  V30 4332 H 415.069 1.22752 3.02654 0
M  V30 4333 H 413.728 3.08545 1.97979 0
M  V30 4334 H 413.376 2.47443 4.37928 0
M  V30 4335 H 413.076 4.20826 4.10097 0
M  V30 4336 H 414.6 3.68218 4.87081 0
M  V30 4337 H 416.014 4.9099 2.95976 0
M  V30 4338 H 414.411 5.49044 2.42221 0
M  V30 4339 H 415.481 4.68165 1.26291 0
M  V30 4340 N 416.824 -0.551391 1.4764 0
M  V30 4341 C 418.049 -1.33837 1.58437 0
M  V30 4342 C 418.474 -1.866 0.237063 0
M  V30 4343 O 417.832 -1.6328 -0.787994 0
M  V30 4344 C 417.88 -2.48014 2.61766 0
M  V30 4345 O 416.984 -3.50419 2.1744 0
M  V30 4346 H 416.325 -0.397299 0.532024 0
M  V30 4347 H 418.855 -0.665759 1.93465 0
M  V30 4348 H 418.865 -2.94503 2.82369 0
M  V30 4349 H 417.54 -2.08969 3.5959 0
M  V30 4350 H 416.117 -3.10196 2.06961 0
M  V30 4351 N 418.302 -1.35869 -0.798587 0
M  V30 4352 C 419.532 -1.32529 -1.58491 0
M  V30 4353 C 419.94 0.0975405 -1.88948 0
M  V30 4354 O 419.283 1.06224 -1.49874 0
M  V30 4355 C 419.345 -2.07247 -2.9375 0
M  V30 4356 C 419.009 -3.56391 -2.86068 0
M  V30 4357 C 420.006 -4.50824 -2.58947 0
M  V30 4358 C 417.691 -3.9915 -3.04933 0
M  V30 4359 C 419.685 -5.85993 -2.5078 0
M  V30 4360 C 417.372 -5.34413 -2.96389 0
M  V30 4361 C 418.37 -6.27646 -2.69349 0
M  V30 4362 O 418.058 -7.60426 -2.60782 0
M  V30 4363 H 417.79 -0.456529 -0.498556 0
M  V30 4364 H 420.344 -1.79425 -0.999799 0
M  V30 4365 H 418.574 -1.55001 -3.54276 0
M  V30 4366 H 420.263 -1.96883 -3.54954 0
M  V30 4367 H 421.029 -4.19104 -2.44084 0
M  V30 4368 H 416.908 -3.26961 -3.24989 0
M  V30 4369 H 420.452 -6.58735 -2.29595 0
M  V30 4370 H 416.349 -5.65743 -3.10813 0
M  V30 4371 H 417.117 -7.70444 -2.76331 0
M  V30 4372 N 419.78 1.02168 -1.19998 0
M  V30 4373 C 421.196 1.27969 -0.953737 0
M  V30 4374 C 421.396 1.98079 0.369703 0
M  V30 4375 O 420.452 2.27306 1.09947 0
M  V30 4376 C 421.765 2.11971 -2.13281 0
M  V30 4377 C 423.313 2.25255 -2.17323 0
M  V30 4378 C 423.788 3.12632 -3.34702 0
M  V30 4379 N 425.279 3.2022 -3.34684 0
M  V30 4380 C 426.014 3.88039 -4.22153 0
M  V30 4381 N 425.51 4.58027 -5.19791 0
M  V30 4382 N 427.303 3.84511 -4.10009 0
M  V30 4383 H 419.454 0.550794 -2.05134 0
M  V30 4384 H 421.717 0.305683 -0.897364 0
M  V30 4385 H 421.423 1.67785 -3.09097 0
M  V30 4386 H 421.297 3.12699 -2.10949 0
M  V30 4387 H 423.684 2.68667 -1.22073 0
M  V30 4388 H 423.765 1.24053 -2.23706 0
M  V30 4389 H 423.409 2.69926 -4.30235 0
M  V30 4390 H 423.339 4.13909 -3.25556 0
M  V30 4391 H 425.83 2.70382 -2.64012 0
M  V30 4392 H 426.143 5.07429 -5.82868 0
M  V30 4393 H 424.488 4.56869 -5.23733 0
M  V30 4394 H 427.679 3.28978 -3.33003 0
M  V30 4395 H 427.852 4.3709 -4.78389 0
M  V30 4396 N 421.258 1.00505 1.21394 0
M  V30 4397 C 422.535 0.603277 1.86064 0
M  V30 4398 C 422.915 -0.919095 1.90042 0
M  V30 4399 O 422.263 -1.80607 1.39977 0
M  V30 4400 C 422.473 1.23772 3.26315 0
M  V30 4401 C 423.821 1.34586 4.02705 0
M  V30 4402 O 424.845 1.19304 3.35626 0
M  V30 4403 O 423.704 1.59169 5.22807 0
M  V30 4404 H 420.798 0.206634 0.800769 0
M  V30 4405 H 423.344 1.1017 1.29076 0
M  V30 4406 H 422.116 2.27848 3.18121 0
M  V30 4407 H 421.739 0.725648 3.90922 0
M  V30 4408 N 422.737 -1.36956 0.779787 0
M  V30 4409 C 423.983 -1.99787 0.348281 0
M  V30 4410 C 424.316 -1.61756 -1.07465 0
M  V30 4411 O 423.591 -0.867639 -1.74075 0
M  V30 4412 C 423.874 -3.56597 0.50104 0
M  V30 4413 C 423.727 -4.04513 1.96697 0
M  V30 4414 C 425.046 -4.40008 -0.0898097 0
M  V30 4415 H 422.165 -0.725796 0.128022 0
M  V30 4416 H 424.807 -1.62514 0.984331 0
M  V30 4417 H 422.957 -3.88479 -0.0404347 0
M  V30 4418 H 424.629 -3.83161 2.56876 0
M  V30 4419 H 422.872 -3.56408 2.47297 0
M  V30 4420 H 423.543 -5.1352 2.02486 0
M  V30 4421 H 426.019 -4.14431 0.372293 0
M  V30 4422 H 424.895 -5.4888 0.0471605 0
M  V30 4423 H 425.156 -4.26035 -1.18096 0
M  V30 4424 N 424.215 -0.530993 -1.48385 0
M  V30 4425 C 425.147 0.268353 -2.27624 0
M  V30 4426 C 426.16 0.903525 -1.35426 0
M  V30 4427 O 427.349 0.781796 -1.60469 0
M  V30 4428 C 424.449 1.39535 -3.08842 0
M  V30 4429 C 423.622 0.861913 -4.28824 0
M  V30 4430 C 422.681 1.87016 -4.91845 0
M  V30 4431 O 421.707 1.4267 -5.5103 0
M  V30 4432 N 422.909 3.20238 -4.84178 0
M  V30 4433 H 425.674 -0.41123 -2.96865 0
M  V30 4434 H 423.235 -0.365387 -1.57723 0
M  V30 4435 H 425.227 2.06803 -3.47871 0
M  V30 4436 H 423.797 1.97859 -2.42014 0
M  V30 4437 H 423.017 0.0132126 -3.94198 0
M  V30 4438 H 424.305 0.484415 -5.06489 0
M  V30 4439 H 423.703 3.58932 -4.37246 0
M  V30 4440 H 422.26 3.83136 -5.27305 0
M  V30 4441 N 425.693 1.55336 -0.266172 0
M  V30 4442 C 426.97 1.91372 0.404486 0
M  V30 4443 C 427.35 1.18935 1.74407 0
M  V30 4444 O 426.698 0.3132 2.26343 0
M  V30 4445 C 426.908 3.44581 0.553593 0
M  V30 4446 C 428.256 4.16196 0.840618 0
M  V30 4447 O 429.28 3.50426 0.638739 0
M  V30 4448 O 428.139 5.32567 1.22618 0
M  V30 4449 H 425.233 0.797194 0.220025 0
M  V30 4450 H 427.779 1.66813 -0.311664 0
M  V30 4451 H 426.551 3.89357 -0.389498 0
M  V30 4452 H 426.174 3.75065 1.31955 0
M  V30 4453 N 427.171 -0.0066808 1.57599 0
M  V30 4454 C 428.401 -0.703066 1.94269 0
M  V30 4455 C 428.809 -1.68206 0.866222 0
M  V30 4456 O 428.152 -1.82966 -0.164087 0
M  V30 4457 C 428.214 -1.49616 3.26887 0
M  V30 4458 C 427.878 -0.679494 4.5192 0
M  V30 4459 C 428.875 0.0299508 5.19891 0
M  V30 4460 C 426.56 -0.627433 4.98366 0
M  V30 4461 C 428.554 0.780514 6.32603 0
M  V30 4462 C 426.241 0.126861 6.10968 0
M  V30 4463 C 427.239 0.829574 6.77943 0
M  V30 4464 O 426.927 1.57157 7.88389 0
M  V30 4465 H 426.659 -0.201217 0.645359 0
M  V30 4466 H 429.213 0.0385326 2.05364 0
M  V30 4467 H 427.443 -2.28209 3.12182 0
M  V30 4468 H 429.132 -2.07726 3.48719 0
M  V30 4469 H 429.898 -0.00115963 4.85 0
M  V30 4470 H 425.777 -1.16392 4.46065 0
M  V30 4471 H 429.321 1.32954 6.84813 0
M  V30 4472 H 425.218 0.159815 6.45302 0
M  V30 4473 H 425.986 1.48758 8.04868 0
M  V30 4474 N 428.649 -1.55105 -0.279332 0
M  V30 4475 C 429.874 -1.7976 -1.03446 0
M  V30 4476 C 430.299 -0.565952 -1.79384 0
M  V30 4477 O 429.657 0.484259 -1.74713 0
M  V30 4478 C 429.705 -3.0179 -1.97371 0
M  V30 4479 O 428.809 -2.76432 -3.06038 0
M  V30 4480 H 428.15 -0.594334 -0.29608 0
M  V30 4481 H 430.68 -2.02235 -0.310165 0
M  V30 4482 H 430.69 -3.30351 -2.39441 0
M  V30 4483 H 429.365 -3.91085 -1.4151 0
M  V30 4484 H 427.942 -2.58949 -2.68328 0
M  V30 4485 N 430.127 0.543554 -1.4793 0
M  V30 4486 C 431.09 1.63156 -1.60975 0
M  V30 4487 C 432.09 1.53346 -0.483899 0
M  V30 4488 O 433.28 1.5726 -0.749339 0
M  V30 4489 C 430.412 3.02743 -1.56716 0
M  V30 4490 H 431.605 1.52934 -2.57975 0
M  V30 4491 H 429.158 0.764557 -1.36324 0
M  V30 4492 H 429.893 3.18484 -0.611418 0
M  V30 4493 H 429.678 3.11272 -2.38438 0
M  V30 4494 H 431.168 3.81871 -1.6901 0
M  V30 4495 N 431.605 1.3629 0.791371 0
M  V30 4496 C 432.854 1.29742 1.54434 0
M  V30 4497 C 433.167 -0.121729 1.95221 0
M  V30 4498 O 434.373 -0.309579 2.69729 0
M  V30 4499 C 432.829 2.27623 2.78776 0
M  V30 4500 C 432.437 3.74963 2.45166 0
M  V30 4501 C 434.181 2.30047 3.56761 0
M  V30 4502 C 432.088 4.64626 3.65891 0
M  V30 4503 H 431.018 0.482113 0.579727 0
M  V30 4504 H 433.669 1.61642 0.868565 0
M  V30 4505 H 432.051 1.88714 3.48142 0
M  V30 4506 H 433.225 4.22596 1.83709 0
M  V30 4507 H 431.54 3.75295 1.80396 0
M  V30 4508 H 434.137 2.94247 4.46456 0
M  V30 4509 H 434.48 1.30846 3.95203 0
M  V30 4510 H 435.013 2.67563 2.94372 0
M  V30 4511 H 431.752 5.64883 3.32547 0
M  V30 4512 H 431.272 4.2171 4.26521 0
M  V30 4513 H 432.951 4.80801 4.32943 0
M  V30 4514 N 433.083 -1.0153 1.20538 0
M  V30 4515 C 434.332 -1.74558 1.01057 0
M  V30 4516 C 434.645 -1.90168 -0.457756 0
M  V30 4517 O 435.851 -2.60301 -0.771722 0
M  V30 4518 C 434.307 -3.13963 1.75941 0
M  V30 4519 C 433.915 -3.06361 3.26875 0
M  V30 4520 C 435.659 -3.91191 1.64832 0
M  V30 4521 C 433.566 -4.40782 3.94291 0
M  V30 4522 H 432.496 -0.654417 0.374505 0
M  V30 4523 H 435.147 -1.13521 1.44171 0
M  V30 4524 H 433.529 -3.75549 1.25614 0
M  V30 4525 H 434.703 -2.54074 3.84425 0
M  V30 4526 H 433.018 -2.42625 3.38411 0
M  V30 4527 H 435.615 -4.90644 2.12539 0
M  V30 4528 H 435.958 -4.11884 0.604745 0
M  V30 4529 H 436.491 -3.36236 2.12579 0
M  V30 4530 H 433.23 -4.25292 4.98805 0
M  V30 4531 H 432.75 -4.9307 3.41529 0
M  V30 4532 H 434.429 -5.09621 3.98617 0
M  V30 4533 N 434.561 -1.01147 -1.20859 0
M  V30 4534 C 435.471 -0.58686 -2.27141 0
M  V30 4535 C 436.487 0.373198 -1.69951 0
M  V30 4536 O 437.663 0.235423 -2.00019 0
M  V30 4537 C 434.728 0.0733602 -3.46622 0
M  V30 4538 C 433.789 -0.931995 -4.19061 0
M  V30 4539 C 433.022 -0.303186 -5.32838 0
M  V30 4540 O 433.245 0.898395 -5.63281 0
M  V30 4541 O 432.179 -1.01735 -5.9324 0
M  V30 4542 H 436.005 -1.47155 -2.65667 0
M  V30 4543 H 433.59 -0.780689 -1.2738 0
M  V30 4544 H 435.472 0.442333 -4.19072 0
M  V30 4545 H 434.147 0.932329 -3.09983 0
M  V30 4546 H 433.054 -1.35224 -3.48805 0
M  V30 4547 H 434.387 -1.76076 -4.59628 0
M  V30 4548 N 436.039 1.36541 -0.78704 0
M  V30 4549 C 436.969 2.32659 -0.197992 0
M  V30 4550 C 437.95 1.56533 0.665697 0
M  V30 4551 O 439.135 1.84698 0.60001 0
M  V30 4552 C 436.265 3.40778 0.669901 0
M  V30 4553 C 435.219 4.27897 -0.0937039 0
M  V30 4554 C 434.545 5.27163 0.894629 0
M  V30 4555 C 435.845 5.06334 -1.28154 0
M  V30 4556 H 437.539 2.82171 -1.00099 0
M  V30 4557 H 435.085 1.35665 -0.482793 0
M  V30 4558 H 437.038 4.07008 1.09191 0
M  V30 4559 H 435.762 2.89827 1.50558 0
M  V30 4560 H 434.421 3.6322 -0.49666 0
M  V30 4561 H 434.069 4.72486 1.72527 0
M  V30 4562 H 433.769 5.86317 0.388149 0
M  V30 4563 H 435.293 5.96266 1.31525 0
M  V30 4564 H 436.707 5.65617 -0.93541 0
M  V30 4565 H 435.104 5.74888 -1.72115 0
M  V30 4566 H 436.174 4.38114 -2.07807 0
M  V30 4567 N 437.518 0.538854 1.48102 0
M  V30 4568 C 438.764 0.00801365 2.02798 0
M  V30 4569 C 439.097 -1.3309 1.41424 0
M  V30 4570 O 438.372 -1.86169 0.563158 0
M  V30 4571 C 438.655 -0.104589 3.59948 0
M  V30 4572 C 438.508 1.26012 4.31788 0
M  V30 4573 C 439.827 -0.827055 4.32259 0
M  V30 4574 H 436.946 0.00438624 0.736987 0
M  V30 4575 H 439.588 0.6976 1.7673 0
M  V30 4576 H 437.738 -0.691893 3.82289 0
M  V30 4577 H 439.41 1.88922 4.2084 0
M  V30 4578 H 437.653 1.83968 3.92859 0
M  V30 4579 H 438.324 1.13424 5.40221 0
M  V30 4580 H 440.8 -0.328578 4.14801 0
M  V30 4581 H 439.676 -0.87476 5.41885 0
M  V30 4582 H 439.937 -1.87927 4.0017 0
M  V30 4583 N 438.996 -1.55193 0.274407 0
M  V30 4584 C 439.906 -2.26164 -0.623473 0
M  V30 4585 C 440.922 -1.28729 -1.17068 0
M  V30 4586 O 442.098 -1.61663 -1.20112 0
M  V30 4587 C 439.163 -2.96833 -1.7914 0
M  V30 4588 C 438.224 -4.09745 -1.28093 0
M  V30 4589 C 437.457 -4.77034 -2.3932 0
M  V30 4590 O 437.68 -4.4353 -3.5866 0
M  V30 4591 O 436.614 -5.64996 -2.07516 0
M  V30 4592 H 440.44 -3.03661 -0.0485661 0
M  V30 4593 H 438.025 -1.49341 0.0418382 0
M  V30 4594 H 439.907 -3.41248 -2.4724 0
M  V30 4595 H 438.582 -2.22253 -2.35341 0
M  V30 4596 H 437.489 -3.69787 -0.566416 0
M  V30 4597 H 438.822 -4.86224 -0.764683 0
M  V30 4598 N 440.474 -0.00167713 -1.576 0
M  V30 4599 C 441.702 0.693759 -1.94922 0
M  V30 4600 C 442.117 1.67215 -0.876626 0
M  V30 4601 O 441.474 1.81929 0.144279 0
M  V30 4602 C 441.525 1.42416 -3.32265 0
M  V30 4603 O 441.246 0.485014 -4.35407 0
M  V30 4604 C 442.747 2.21395 -3.84056 0
M  V30 4605 H 439.967 0.193118 -0.642609 0
M  V30 4606 H 442.511 -0.0532952 -2.04431 0
M  V30 4607 H 440.666 2.12284 -3.24059 0
M  V30 4608 H 441.08 1.00053 -5.14868 0
M  V30 4609 H 442.554 2.67996 -4.82578 0
M  V30 4610 H 443.031 3.04142 -3.16851 0
M  V30 4611 H 443.637 1.56542 -3.95443 0
M  V30 4612 N 441.952 1.55251 0.271103 0
M  V30 4613 C 442.882 1.9127 1.33933 0
M  V30 4614 C 443.863 0.77478 1.5143 0
M  V30 4615 O 445.048 1.03307 1.64442 0
M  V30 4616 C 442.178 2.18627 2.69851 0
M  V30 4617 C 441.132 3.34442 2.67081 0
M  V30 4618 C 440.458 3.47284 4.06569 0
M  V30 4619 C 441.758 4.70784 2.26185 0
M  V30 4620 H 443.452 2.80744 1.04035 0
M  V30 4621 H 440.998 1.35077 0.499017 0
M  V30 4622 H 442.951 2.42413 3.44694 0
M  V30 4623 H 441.675 1.25955 3.01335 0
M  V30 4624 H 440.334 3.10627 1.94695 0
M  V30 4625 H 439.982 2.52074 4.35279 0
M  V30 4626 H 439.682 4.25152 4.0561 0
M  V30 4627 H 441.206 3.73363 4.83148 0
M  V30 4628 H 442.62 4.94102 2.90751 0
M  V30 4629 H 441.017 5.51582 2.36384 0
M  V30 4630 H 442.087 4.69478 1.21319 0
M  V30 4631 N 443.43 -0.535701 1.48216 0
M  V30 4632 C 444.362 -1.65662 1.58394 0
M  V30 4633 C 445.375 -1.5591 0.468607 0
M  V30 4634 O 446.564 -1.62475 0.7392 0
M  V30 4635 C 443.664 -3.04276 1.4923 0
M  V30 4636 C 442.837 -3.39567 2.75705 0
M  V30 4637 C 441.896 -4.57436 2.60075 0
M  V30 4638 O 440.922 -4.60942 3.33948 0
M  V30 4639 N 442.124 -5.55259 1.69315 0
M  V30 4640 H 444.889 -1.5737 2.55058 0
M  V30 4641 H 442.45 -0.722845 1.44867 0
M  V30 4642 H 444.442 -3.80994 1.36477 0
M  V30 4643 H 443.012 -3.06677 0.605632 0
M  V30 4644 H 442.232 -2.52083 3.03064 0
M  V30 4645 H 443.52 -3.59929 3.59623 0
M  V30 4646 H 442.918 -5.552 1.08489 0
M  V30 4647 H 441.475 -6.31218 1.62504 0
M  V30 4648 N 444.908 -1.36708 -0.784132 0
M  V30 4649 C 445.871 -1.31307 -1.87859 0
M  V30 4650 C 446.871 -0.219654 -1.59293 0
M  V30 4651 O 448.061 -0.47476 -1.67606 0
M  V30 4652 C 445.193 -1.03679 -3.24751 0
M  V30 4653 H 446.386 -2.28647 -1.94064 0
M  V30 4654 H 443.939 -1.21558 -0.98252 0
M  V30 4655 H 444.674 -0.0681936 -3.24228 0
M  V30 4656 H 444.459 -1.82811 -3.46876 0
M  V30 4657 H 445.949 -1.02518 -4.04821 0
M  V30 4658 N 446.386 1.0089 -1.21074 0
M  V30 4659 C 447.316 2.1145 -0.990523 0
M  V30 4660 C 448.297 1.69897 0.0831699 0
M  V30 4661 O 449.482 1.94052 -0.0758853 0
M  V30 4662 C 446.612 3.42914 -0.550177 0
M  V30 4663 C 445.566 3.98244 -1.56799 0
M  V30 4664 C 444.892 5.25568 -0.984013 0
M  V30 4665 C 446.192 4.30752 -2.95381 0
M  V30 4666 H 447.886 2.3013 -1.91521 0
M  V30 4667 H 445.432 1.10592 -0.92225 0
M  V30 4668 H 447.385 4.19653 -0.383305 0
M  V30 4669 H 446.109 3.24014 0.41015 0
M  V30 4670 H 444.768 3.23621 -1.72236 0
M  V30 4671 H 444.416 5.02998 -0.0155216 0
M  V30 4672 H 444.116 5.63551 -1.66384 0
M  V30 4673 H 445.64 6.04955 -0.828378 0
M  V30 4674 H 447.054 4.98349 -2.8341 0
M  V30 4675 H 445.451 4.79869 -3.60341 0
M  V30 4676 H 446.521 3.39192 -3.46521 0
M  V30 4677 N 447.864 1.01787 1.20321 0
M  V30 4678 C 449.275 0.739307 1.71438 0
M  V30 4679 C 449.626 -0.742041 1.81627 0
M  V30 4680 O 448.751 -1.57903 1.47971 0
M  V30 4681 C 449.346 1.33538 3.11373 0
M  V30 4682 C 447.905 1.10566 3.59795 0
M  V30 4683 C 447.052 1.44028 2.36962 0
M  V30 4684 H 450.003 1.18718 1.05317 0
M  V30 4685 H 450.024 0.726611 3.73498 0
M  V30 4686 H 449.536 2.41352 3.03926 0
M  V30 4687 H 447.637 0.0452405 3.72573 0
M  V30 4688 H 447.75 1.78661 4.44542 0
M  V30 4689 H 446.114 0.85933 2.39766 0
M  V30 4690 H 446.897 2.52901 2.32155 0
M  V30 4691 N 449.342 -1.36122 0.79427 0
M  V30 4692 C 450.57 -2.03362 0.380989 0
M  V30 4693 C 450.985 -1.59881 -1.00416 0
M  V30 4694 O 450.342 -0.790515 -1.6449 0
M  V30 4695 C 450.393 -3.58804 0.440649 0
M  V30 4696 O 450.114 -4.007 1.77118 0
M  V30 4697 C 451.615 -4.43296 0.0186117 0
M  V30 4698 H 448.835 -0.652526 0.156367 0
M  V30 4699 H 451.379 -1.73998 1.07447 0
M  V30 4700 H 449.534 -3.8686 -0.204458 0
M  V30 4701 H 449.948 -4.95309 1.72538 0
M  V30 4702 H 451.422 -5.51887 0.111488 0
M  V30 4703 H 451.899 -4.2684 -1.03461 0
M  V30 4704 H 452.505 -4.20512 0.636395 0
M  V30 4705 N 450.82 -0.546701 -1.47814 0
M  V30 4706 C 452.06 -0.0209604 -2.04389 0
M  V30 4707 C 452.424 1.29993 -1.413 0
M  V30 4708 O 453.625 1.91273 -1.8886 0
M  V30 4709 C 451.896 0.0812844 -3.57308 0
M  V30 4710 S 453.455 0.55467 -4.3528 0
M  V30 4711 H 450.273 -0.0200865 -0.710716 0
M  V30 4712 H 452.875 -0.731055 -1.81317 0
M  V30 4713 H 451.579 -0.884616 -4.00753 0
M  V30 4714 H 451.11 0.815253 -3.8486 0
M  V30 4715 H 453.125 1.81627 -4.61764 0
M  V30 4716 N 452.299 1.55045 -0.282633 0
M  V30 4717 C 453.576 1.9179 0.384166 0
M  V30 4718 C 453.956 1.20778 1.73136 0
M  V30 4719 O 453.304 0.33719 2.25998 0
M  V30 4720 C 453.514 3.45149 0.517014 0
M  V30 4721 C 454.862 4.17064 0.796427 0
M  V30 4722 O 455.886 3.51084 0.601535 0
M  V30 4723 O 454.745 5.33837 1.16962 0
M  V30 4724 H 451.839 0.799483 0.211558 0
M  V30 4725 H 454.385 1.66474 -0.32934 0
M  V30 4726 H 453.157 3.88922 -0.430772 0
M  V30 4727 H 452.78 3.76443 1.2797 0
M  V30 4728 N 453.777 0.010035 1.57597 0
M  V30 4729 C 455.023 -0.673697 1.91283 0
M  V30 4730 C 455.356 -1.72863 0.884979 0
M  V30 4731 O 454.631 -1.94268 -0.0949487 0
M  V30 4732 C 454.914 -1.30766 3.35518 0
M  V30 4733 C 454.767 -0.263578 4.49027 0
M  V30 4734 C 456.086 -2.23105 3.79358 0
M  V30 4735 H 453.205 -0.243439 0.695634 0
M  V30 4736 H 455.847 0.0633864 1.89894 0
M  V30 4737 H 453.997 -1.93588 3.36832 0
M  V30 4738 H 455.669 0.365738 4.59848 0
M  V30 4739 H 453.912 0.413077 4.31829 0
M  V30 4740 H 454.583 -0.746398 5.4693 0
M  V30 4741 H 457.059 -1.70289 3.79659 0
M  V30 4742 H 455.935 -2.64424 4.81011 0
M  V30 4743 H 456.196 -3.11433 3.13787 0
M  V30 4744 N 455.255 -1.55392 -0.262866 0
M  V30 4745 C 456.218 -1.88181 -1.30846 0
M  V30 4746 C 457.218 -0.757079 -1.41862 0
M  V30 4747 O 458.408 -1.02519 -1.40838 0
M  V30 4748 C 455.54 -2.09609 -2.68844 0
M  V30 4749 H 456.733 -2.81659 -1.02997 0
M  V30 4750 H 454.286 -1.48039 -0.501414 0
M  V30 4751 H 455.021 -1.18547 -3.01856 0
M  V30 4752 H 454.806 -2.91508 -2.62231 0
M  V30 4753 H 456.296 -2.36215 -3.44372 0
M  V30 4754 N 456.733 0.527833 -1.48498 0
M  V30 4755 C 457.643 1.65907 -1.65867 0
M  V30 4756 C 458.659 1.6537 -0.541192 0
M  V30 4757 O 459.835 1.84282 -0.812534 0
M  V30 4758 C 456.9 3.02364 -1.69637 0
M  V30 4759 C 455.961 3.1374 -2.93028 0
M  V30 4760 C 455.194 4.43688 -2.96609 0
M  V30 4761 O 455.417 5.30913 -2.08538 0
M  V30 4762 O 454.351 4.59475 -3.88802 0
M  V30 4763 H 458.177 1.5419 -2.61647 0
M  V30 4764 H 455.762 0.701163 -1.31924 0
M  V30 4765 H 457.644 3.83515 -1.74625 0
M  V30 4766 H 456.319 3.14401 -0.770312 0
M  V30 4767 H 455.226 2.31877 -2.93571 0
M  V30 4768 H 456.559 3.06621 -3.85026 0
M  V30 4769 N 458.211 1.37122 0.776871 0
M  V30 4770 C 459.143 1.28342 1.89897 0
M  V30 4771 C 460.156 0.200277 1.61563 0
M  V30 4772 O 461.345 0.456012 1.72577 0
M  V30 4773 C 458.445 0.960427 3.25006 0
M  V30 4774 C 457.618 2.148 3.81025 0
M  V30 4775 C 456.677 1.79608 4.94598 0
M  V30 4776 O 455.703 2.51845 5.10454 0
M  V30 4777 N 456.905 0.737171 5.758 0
M  V30 4778 H 459.67 2.25027 1.97947 0
M  V30 4779 H 457.231 1.3068 0.955739 0
M  V30 4780 H 459.223 0.705942 3.98495 0
M  V30 4781 H 457.793 0.0823066 3.12492 0
M  V30 4782 H 457.013 2.56454 2.99374 0
M  V30 4783 H 458.301 2.9411 4.15183 0
M  V30 4784 H 457.699 0.137637 5.65533 0
M  V30 4785 H 456.256 0.542534 6.49538 0
M  V30 4786 N 459.689 -1.00246 1.21608 0
M  V30 4787 C 460.639 -2.07492 0.945051 0
M  V30 4788 C 461.623 -1.60585 -0.100675 0
M  V30 4789 O 462.815 -1.76667 0.10859 0
M  V30 4790 C 459.944 -3.39425 0.514342 0
M  V30 4791 C 459.03 -3.92993 1.59428 0
M  V30 4792 N 459.421 -4.19898 2.81991 0
M  V30 4793 C 457.719 -4.21297 1.46374 0
M  V30 4794 C 458.42 -4.63297 3.51754 0
M  V30 4795 N 457.396 -4.66421 2.79199 0
M  V30 4796 H 461.198 -2.26222 1.87619 0
M  V30 4797 H 458.712 -1.18339 1.11219 0
M  V30 4798 H 460.709 -4.15808 0.301527 0
M  V30 4799 H 459.369 -3.22101 -0.410008 0
M  V30 4800 H 460.38 -4.08377 3.1851 0
M  V30 4801 H 457.057 -4.13095 0.604863 0
M  V30 4802 H 458.447 -4.92816 4.56708 0
M  V30 4803 N 461.167 -1.02423 -1.1978 0
M  V30 4804 C 462.115 -0.594474 -2.24875 0
M  V30 4805 C 463.109 0.370598 -1.65296 0
M  V30 4806 O 464.315 0.239684 -1.78397 0
M  V30 4807 H 460.69 -0.173961 -0.731602 0
M  V30 4808 H 462.661 -1.4916 -2.58445 0
M  V30 4809 C 461.41 0.0436512 -3.47673 0
M  V30 4810 H 460.733 -0.689963 -3.93801 0
M  V30 4811 H 462.173 0.307362 -4.22884 0
M  V30 4812 C 460.632 1.28881 -3.11274 0
M  V30 4813 O 461.162 2.38135 -3.23503 0
M  V30 4814 N 459.368 1.1758 -2.6575 0
M  V30 4815 H 458.915 0.286769 -2.55999 0
M  V30 4816 H 458.873 2.00988 -2.41767 0
M  V30 4817 N 462.645 1.35699 -0.801477 0
M  V30 4818 C 463.891 1.99208 -0.380022 0
M  V30 4819 C 464.224 1.63445 1.04878 0
M  V30 4820 O 463.499 0.895223 1.72673 0
M  V30 4821 C 463.782 3.55755 -0.557708 0
M  V30 4822 C 463.635 4.01332 -2.03107 0
M  V30 4823 C 464.954 4.40096 0.0197968 0
M  V30 4824 H 462.073 0.723667 -0.139552 0
M  V30 4825 H 464.715 1.60928 -1.01006 0
M  V30 4826 H 462.865 3.88494 -0.0213741 0
M  V30 4827 H 464.537 3.79026 -2.62939 0
M  V30 4828 H 462.78 3.52429 -2.52936 0
M  V30 4829 H 463.451 5.10234 -2.1063 0
M  V30 4830 H 465.927 4.13786 -0.438179 0
M  V30 4831 H 464.803 5.48735 -0.134477 0
M  V30 4832 H 465.064 4.2786 1.11303 0
M  V30 4833 N 464.123 0.554532 1.47522 0
M  V30 4834 C 465.363 0.0317994 2.04375 0
M  V30 4835 C 465.727 -1.29242 1.41988 0
M  V30 4836 O 466.928 -1.90269 1.89872 0
M  V30 4837 C 465.199 -0.0623344 3.57346 0
M  V30 4838 S 466.758 -0.531578 4.35568 0
M  V30 4839 H 463.576 0.0238553 0.7106 0
M  V30 4840 H 466.178 0.74066 1.80927 0
M  V30 4841 H 464.882 0.905857 4.00278 0
M  V30 4842 H 464.413 -0.794831 3.85287 0
M  V30 4843 H 466.428 -1.79175 4.62721 0
M  V30 4844 N 465.601 -1.54893 0.290851 0
M  V30 4845 C 466.848 -1.99933 -0.321391 0
M  V30 4846 C 467.176 -1.17927 -1.54672 0
M  V30 4847 O 466.431 -0.240902 -1.94212 0
M  V30 4848 C 466.73 -3.49815 -0.732397 0
M  V30 4849 C 466.396 -4.4921 0.390056 0
M  V30 4850 C 465.058 -4.76107 0.698223 0
M  V30 4851 C 467.41 -5.08453 1.14562 0
M  V30 4852 C 464.738 -5.59514 1.76526 0
M  V30 4853 C 467.09 -5.9302 2.2025 0
M  V30 4854 C 465.754 -6.18232 2.51684 0
M  V30 4855 H 465.024 -0.731608 -0.117605 0
M  V30 4856 H 467.671 -1.87107 0.407839 0
M  V30 4857 H 465.976 -3.60199 -1.54155 0
M  V30 4858 H 467.673 -3.82083 -1.21712 0
M  V30 4859 H 464.263 -4.28372 0.13976 0
M  V30 4860 H 468.447 -4.87683 0.920801 0
M  V30 4861 H 463.703 -5.77289 2.01364 0
M  V30 4862 H 467.877 -6.37955 2.7926 0
M  V30 4863 H 465.504 -6.82653 3.34499 0
M  V30 4864 N 467.08 -0.0183926 -1.57589 0
M  V30 4865 C 468.03 0.975944 -2.06057 0
M  V30 4866 C 469.014 1.29204 -0.958908 0
M  V30 4867 O 470.206 1.27995 -1.22255 0
M  V30 4868 C 467.335 2.26194 -2.58247 0
M  V30 4869 C 466.421 1.97467 -3.75323 0
M  V30 4870 N 466.812 1.38968 -4.86335 0
M  V30 4871 C 465.11 2.27515 -3.83605 0
M  V30 4872 C 465.811 1.27131 -5.67638 0
M  V30 4873 N 464.787 1.76319 -5.14211 0
M  V30 4874 H 468.589 0.518444 -2.89291 0
M  V30 4875 H 466.103 0.18688 -1.61321 0
M  V30 4876 H 468.1 2.98289 -2.91255 0
M  V30 4877 H 466.76 2.7258 -1.76438 0
M  V30 4878 H 467.771 1.06608 -5.06809 0
M  V30 4879 H 464.448 2.76649 -3.12684 0
M  V30 4880 H 465.838 0.819882 -6.66879 0
M  V30 4881 N 468.558 1.5553 0.254621 0
M  V30 4882 C 469.788 1.80784 1.00004 0
M  V30 4883 C 470.196 0.59071 1.79742 0
M  V30 4884 O 469.539 -0.449988 1.78103 0
M  V30 4885 C 469.601 2.99268 1.99196 0
M  V30 4886 C 469.265 4.35595 1.38224 0
M  V30 4887 C 470.262 5.13884 0.788611 0
M  V30 4888 C 467.947 4.82281 1.40393 0
M  V30 4889 C 469.941 6.37004 0.224783 0
M  V30 4890 C 467.628 6.05351 0.836243 0
M  V30 4891 C 468.626 6.82551 0.24769 0
M  V30 4892 O 468.314 8.03297 -0.311249 0
M  V30 4893 H 468.046 0.60565 0.300274 0
M  V30 4894 H 470.6 2.03411 0.285143 0
M  V30 4895 H 468.83 2.72377 2.74496 0
M  V30 4896 H 470.519 3.11682 2.60018 0
M  V30 4897 H 471.285 4.78938 0.764423 0
M  V30 4898 H 467.164 4.22189 1.85142 0
M  V30 4899 H 470.708 6.97203 -0.235235 0
M  V30 4900 H 466.605 6.39776 0.857733 0
M  V30 4901 H 467.373 8.1825 -0.20237 0
M  V30 4902 N 470.036 -0.519951 1.48776 0
M  V30 4903 C 471.264 -1.29971 1.60982 0
M  V30 4904 C 471.679 -1.86803 0.273885 0
M  V30 4905 O 471.036 -1.66904 -0.738193 0
M  V30 4906 C 471.087 -2.44346 2.66415 0
M  V30 4907 O 470.808 -1.89855 3.94825 0
M  V30 4908 C 472.309 -3.36014 2.89153 0
M  V30 4909 H 469.529 -0.394891 0.542496 0
M  V30 4910 H 472.073 -0.626214 1.94676 0
M  V30 4911 H 470.228 -3.07562 2.35552 0
M  V30 4912 H 470.642 -2.64798 4.5275 0
M  V30 4913 H 472.116 -4.12593 3.66703 0
M  V30 4914 H 472.593 -3.91859 1.98351 0
M  V30 4915 H 473.199 -2.78582 3.21359 0
M  V30 4916 N 471.514 -1.37532 -0.769588 0
M  V30 4917 C 472.761 -1.3286 -1.52822 0
M  V30 4918 C 473.089 0.0862597 -1.94309 0
M  V30 4919 O 472.344 1.05995 -1.6451 0
M  V30 4920 C 472.643 -2.21558 -2.8044 0
M  V30 4921 C 472.309 -3.69796 -2.57996 0
M  V30 4922 C 470.971 -4.10194 -2.51583 0
M  V30 4923 C 473.323 -4.63699 -2.37976 0
M  V30 4924 C 470.651 -5.42608 -2.23144 0
M  V30 4925 C 473.003 -5.96353 -2.1106 0
M  V30 4926 C 471.667 -6.35853 -2.03093 0
M  V30 4927 H 470.937 -0.486168 -0.559215 0
M  V30 4928 H 473.584 -1.69757 -0.886277 0
M  V30 4929 H 471.889 -1.77663 -3.49204 0
M  V30 4930 H 473.586 -2.15256 -3.38328 0
M  V30 4931 H 470.176 -3.37759 -2.63851 0
M  V30 4932 H 474.36 -4.33346 -2.41919 0
M  V30 4933 H 469.616 -5.72173 -2.15472 0
M  V30 4934 H 473.79 -6.68667 -1.94568 0
M  V30 4935 H 471.417 -7.38382 -1.8082 0
M  V30 4936 N 472.992 0.995999 -1.22138 0
M  V30 4937 C 473.955 2.06711 -0.990109 0
M  V30 4938 C 474.955 1.60744 0.0422978 0
M  V30 4939 O 476.145 1.73095 -0.195895 0
M  V30 4940 C 473.277 3.37288 -0.49491 0
M  V30 4941 H 474.47 2.28661 -1.94047 0
M  V30 4942 H 472.023 1.16711 -1.03963 0
M  V30 4943 H 472.758 3.21022 0.459948 0
M  V30 4944 H 472.543 3.71986 -1.23971 0
M  V30 4945 H 474.033 4.16103 -0.353253 0
M  V30 4946 N 474.47 1.03057 1.19235 0
M  V30 4947 C 475.4 0.633497 2.24742 0
M  V30 4948 C 476.381 -0.358335 1.66283 0
M  V30 4949 O 477.566 -0.240676 1.92703 0
M  V30 4950 C 474.696 -0.0147648 3.47297 0
M  V30 4951 C 473.65 0.899527 4.18441 0
M  V30 4952 C 472.976 0.116281 5.34574 0
M  V30 4953 C 474.276 2.21404 4.73051 0
M  V30 4954 H 475.97 1.5155 2.58211 0
M  V30 4955 H 473.516 0.73014 1.24117 0
M  V30 4956 H 475.469 -0.304202 4.20301 0
M  V30 4957 H 474.193 -0.931577 3.13032 0
M  V30 4958 H 472.852 1.17319 3.47321 0
M  V30 4959 H 472.5 -0.802619 4.96555 0
M  V30 4960 H 472.2 0.725293 5.83107 0
M  V30 4961 H 473.724 -0.166376 6.10373 0
M  V30 4962 H 475.138 1.98601 5.37802 0
M  V30 4963 H 473.535 2.77512 5.32078 0
M  V30 4964 H 474.605 2.86752 3.91026 0
M  V30 4965 N 475.948 -1.35272 0.808662 0
M  V30 4966 C 476.896 -2.31663 0.208606 0
M  V30 4967 C 477.89 -1.56731 -0.642778 0
M  V30 4968 O 479.096 -1.71843 -0.53571 0
M  V30 4969 H 475.471 -0.750421 0.0486993 0
M  V30 4970 H 477.442 -2.79814 1.03666 0
M  V30 4971 C 476.191 -3.42008 -0.626573 0
M  V30 4972 H 475.514 -3.99795 0.0192103 0
M  V30 4973 H 476.954 -4.11727 -1.01278 0
M  V30 4974 C 475.413 -2.85226 -1.79298 0
M  V30 4975 O 475.943 -2.78945 -2.89055 0
M  V30 4976 N 474.149 -2.42245 -1.60516 0
M  V30 4977 H 473.696 -2.47554 -0.712375 0
M  V30 4978 H 473.654 -2.04603 -2.38715 0
M  V30 4979 N 477.426 -0.562348 -1.47226 0
M  V30 4980 C 478.842 -0.222492 -1.58042 0
M  V30 4981 C 479.042 1.27505 -1.56028 0
M  V30 4982 O 478.098 2.05555 -1.46641 0
M  V30 4983 C 479.411 -0.853694 -2.88327 0
M  V30 4984 C 480.959 -0.825397 -3.01921 0
M  V30 4985 C 481.434 -1.43576 -4.34914 0
M  V30 4986 N 482.925 -1.39918 -4.41562 0
M  V30 4987 C 483.66 -1.84103 -5.43041 0
M  V30 4988 N 483.156 -2.36167 -6.51304 0
M  V30 4989 N 484.949 -1.75142 -5.34118 0
M  V30 4990 H 477.1 -1.53525 -1.46778 0
M  V30 4991 H 479.363 -0.640527 -0.698877 0
M  V30 4992 H 479.069 -1.90635 -2.95552 0
M  V30 4993 H 478.943 -0.34977 -3.75575 0
M  V30 4994 H 481.33 0.218583 -2.94289 0
M  V30 4995 H 481.411 -1.36713 -2.16202 0
M  V30 4996 H 481.055 -2.47884 -4.43301 0
M  V30 4997 H 480.985 -0.869427 -5.19373 0
M  V30 4998 H 483.476 -1.0184 -3.63919 0
M  V30 4999 H 483.789 -2.67793 -7.24919 0
M  V30 5000 H 482.134 -2.40181 -6.52179 0
M  V30 5001 H 485.325 -1.34241 -4.48439 0
M  V30 5002 H 485.498 -2.09895 -6.13065 0
M  V30 5003 N 478.904 1.54736 -0.299062 0
M  V30 5004 C 480.32 1.59507 0.0543849 0
M  V30 5005 C 480.52 1.31606 1.52585 0
M  V30 5006 O 479.576 1.08853 2.27832 0
M  V30 5007 C 480.889 2.98751 -0.34181 0
M  V30 5008 C 482.437 3.1165 -0.290414 0
M  V30 5009 C 482.912 4.53199 -0.661402 0
M  V30 5010 N 484.403 4.59114 -0.613863 0
M  V30 5011 C 485.138 5.66709 -0.873417 0
M  V30 5012 N 484.634 6.82349 -1.19884 0
M  V30 5013 N 486.427 5.56369 -0.800608 0
M  V30 5014 H 478.578 1.71133 -1.25806 0
M  V30 5015 H 480.841 0.799186 -0.509908 0
M  V30 5016 H 480.547 3.24085 -1.36608 0
M  V30 5017 H 480.421 3.75961 0.305508 0
M  V30 5018 H 482.808 2.86066 0.724605 0
M  V30 5019 H 482.889 2.366 -0.972327 0
M  V30 5020 H 482.533 4.79513 -1.67422 0
M  V30 5021 H 482.463 5.26583 0.0425612 0
M  V30 5022 H 484.954 3.76053 -0.3732 0
M  V30 5023 H 485.267 7.60326 -1.38291 0
M  V30 5024 H 483.612 6.83906 -1.23685 0
M  V30 5025 H 486.803 4.64904 -0.546045 0
M  V30 5026 H 486.976 6.40139 -1.00626 0
M  V30 5027 N 480.382 0.0267497 1.57577 0
M  V30 5028 C 481.33 -0.973923 2.11229 0
M  V30 5029 C 482.324 -1.33849 1.03831 0
M  V30 5030 O 483.53 -1.321 1.22269 0
M  V30 5031 H 479.905 -0.331844 0.674821 0
M  V30 5032 H 481.876 -0.496092 2.94247 0
M  V30 5033 C 480.625 -2.24798 2.65257 0
M  V30 5034 H 479.948 -1.9762 3.47543 0
M  V30 5035 H 481.388 -2.93031 3.06445 0
M  V30 5036 C 479.847 -2.97611 1.57891 0
M  V30 5037 O 480.377 -3.89629 0.97735 0
M  V30 5038 N 478.583 -2.59905 1.29992 0
M  V30 5039 H 478.13 -1.85154 1.79097 0
M  V30 5040 H 478.088 -3.08932 0.583798 0
M  V30 5041 N 481.861 -1.55662 -0.24637 0
M  V30 5042 C 483.277 -1.48098 -0.594907 0
M  V30 5043 C 483.477 -0.717044 -1.8831 0
M  V30 5044 O 482.533 -0.246618 -2.51293 0
M  V30 5045 C 483.846 -2.92507 -0.697146 0
M  V30 5046 C 485.394 -3.02881 -0.789436 0
M  V30 5047 C 485.869 -4.48598 -0.923232 0
M  V30 5048 N 487.36 -4.52538 -0.988088 0
M  V30 5049 C 488.095 -5.62536 -1.11089 0
M  V30 5050 N 487.591 -6.82342 -1.19919 0
M  V30 5051 N 489.384 -5.50334 -1.14408 0
M  V30 5052 H 481.535 -2.0377 0.599278 0
M  V30 5053 H 483.798 -0.925145 0.20691 0
M  V30 5054 H 483.504 -3.51242 0.179396 0
M  V30 5055 H 483.378 -3.43024 -1.5689 0
M  V30 5056 H 485.765 -2.44226 -1.65643 0
M  V30 5057 H 485.846 -2.55574 0.107482 0
M  V30 5058 H 485.49 -5.07864 -0.0607927 0
M  V30 5059 H 485.42 -4.93587 -1.8352 0
M  V30 5060 H 487.911 -3.66248 -0.931167 0
M  V30 5061 H 488.224 -7.61924 -1.29197 0
M  V30 5062 H 486.569 -6.85102 -1.16876 0
M  V30 5063 H 489.76 -4.5567 -1.07158 0
M  V30 5064 H 489.933 -6.36096 -1.23634 0
M  V30 5065 N 483.339 0.512053 -1.4905 0
M  V30 5066 C 484.75 1.09376 -1.51307 0
M  V30 5067 C 485.101 1.94 -0.292971 0
M  V30 5068 O 484.226 2.07965 0.598277 0
M  V30 5069 C 484.821 1.99031 -2.74176 0
M  V30 5070 C 483.38 2.52385 -2.79247 0
M  V30 5071 C 482.527 1.29749 -2.45073 0
M  V30 5072 H 485.478 0.296467 -1.55906 0
M  V30 5073 H 485.499 2.83569 -2.53711 0
M  V30 5074 H 485.011 1.37412 -3.62959 0
M  V30 5075 H 483.112 3.17673 -1.94716 0
M  V30 5076 H 483.225 2.90293 -3.81139 0
M  V30 5077 H 481.589 1.61912 -1.96612 0
M  V30 5078 H 482.372 0.698555 -3.36118 0
M  V30 5079 N 484.817 1.37938 0.762283 0
M  V30 5080 C 486.065 1.33404 1.51815 0
M  V30 5081 C 486.386 -0.0780975 1.94844 0
M  V30 5082 O 485.656 -1.02405 1.67003 0
M  V30 5083 H 484.236 0.490839 0.563104 0
M  V30 5084 H 486.898 1.72527 0.906669 0
M  V30 5085 H 485.994 1.97926 2.41313 0
M  V30 5086 N 486.295 -0.989507 1.22664 0
M  V30 5087 C 487.572 -1.70326 0.961688 0
M  V30 5088 C 487.952 -2.04537 -0.522279 0
M  V30 5089 O 487.3 -1.73136 -1.49118 0
M  V30 5090 C 487.51 -2.95135 1.86269 0
M  V30 5091 C 488.858 -3.67842 2.12078 0
M  V30 5092 O 489.882 -3.0515 1.83745 0
M  V30 5093 O 488.741 -4.80644 2.60083 0
M  V30 5094 H 485.835 -0.743589 0.361946 0
M  V30 5095 H 488.381 -1.04555 1.33665 0
M  V30 5096 H 487.153 -2.66382 2.8663 0
M  V30 5097 H 486.776 -3.68645 1.48952 0
M  V30 5098 N 487.773 -1.03688 -1.18687 0
M  V30 5099 C 489.189 -0.755413 -1.4059 0
M  V30 5100 C 489.389 0.656659 -1.905 0
M  V30 5101 O 488.445 1.42144 -2.08689 0
M  V30 5102 C 489.758 -1.7983 -2.41001 0
M  V30 5103 C 491.306 -1.81877 -2.54735 0
M  V30 5104 C 491.781 -2.85148 -3.58406 0
M  V30 5105 N 493.272 -2.84015 -3.6591 0
M  V30 5106 C 494.007 -3.60573 -4.45841 0
M  V30 5107 N 493.503 -4.46871 -5.29413 0
M  V30 5108 N 495.296 -3.49079 -4.40568 0
M  V30 5109 H 487.447 -1.94818 -0.846148 0
M  V30 5110 H 489.71 -0.842727 -0.434184 0
M  V30 5111 H 489.416 -2.81097 -2.1137 0
M  V30 5112 H 489.29 -1.62727 -3.40294 0
M  V30 5113 H 491.677 -0.812836 -2.83685 0
M  V30 5114 H 491.758 -2.03057 -1.55568 0
M  V30 5115 H 491.402 -3.85918 -3.30197 0
M  V30 5116 H 491.332 -2.61224 -4.57241 0
M  V30 5117 H 493.823 -2.21431 -3.0623 0
M  V30 5118 H 494.136 -5.02007 -5.87545 0
M  V30 5119 H 492.481 -4.5094 -5.28846 0
M  V30 5120 H 495.672 -2.81066 -3.74325 0
M  V30 5121 H 495.845 -4.08994 -5.02621 0
M  V30 5122 N 489.251 1.34841 -0.815825 0
M  V30 5123 C 490.214 2.27959 -0.238185 0
M  V30 5124 C 491.214 1.49983 0.579816 0
M  V30 5125 O 492.404 1.69617 0.396953 0
M  V30 5126 C 489.536 3.34314 0.666876 0
M  V30 5127 H 490.729 2.80558 -1.05958 0
M  V30 5128 H 488.282 1.44852 -0.587156 0
M  V30 5129 H 489.017 2.86916 1.5116 0
M  V30 5130 H 488.802 3.92014 0.0819106 0
M  V30 5131 H 490.292 4.0379 1.06506 0
M  V30 5132 N 490.729 0.570148 1.46925 0
M  V30 5133 C 491.676 -0.170257 2.30171 0
M  V30 5134 C 492.646 -0.896099 1.39855 0
M  V30 5135 O 493.831 -0.889248 1.68811 0
M  V30 5136 C 490.971 -1.18605 3.24079 0
M  V30 5137 C 490.084 -0.464947 4.29491 0
M  V30 5138 C 489.219 -1.46716 5.10537 0
M  V30 5139 C 488.258 -0.731758 6.0771 0
M  V30 5140 N 487.395 -1.68142 6.81669 0
M  V30 5141 H 492.235 0.545713 2.92961 0
M  V30 5142 H 489.772 0.280938 1.44392 0
M  V30 5143 H 491.73 -1.78771 3.76957 0
M  V30 5144 H 490.36 -1.86989 2.63125 0
M  V30 5145 H 489.412 0.251506 3.79568 0
M  V30 5146 H 490.724 0.110548 4.98677 0
M  V30 5147 H 489.878 -2.14199 5.6763 0
M  V30 5148 H 488.617 -2.07658 4.41282 0
M  V30 5149 H 487.622 -0.0430787 5.49783 0
M  V30 5150 H 488.847 -0.127904 6.7898 0
M  V30 5151 H 486.793 -2.27918 6.15134 0
M  V30 5152 H 486.71 -1.15841 7.47072 0
M  V30 5153 H 487.978 -2.347 7.43328 0
M  V30 5154 N 492.207 -1.54576 0.307264 0
M  V30 5155 C 493.17 -2.22423 -0.553224 0
M  V30 5156 C 494.17 -1.21231 -1.05639 0
M  V30 5157 O 495.36 -1.45923 -0.951419 0
M  V30 5158 C 492.492 -2.91552 -1.76664 0
M  V30 5159 H 493.685 -2.99874 0.0396484 0
M  V30 5160 H 491.238 -1.56192 0.0581629 0
M  V30 5161 H 491.973 -2.18196 -2.39918 0
M  V30 5162 H 491.758 -3.65738 -1.41343 0
M  V30 5163 H 493.248 -3.43292 -2.37783 0
M  V30 5164 N 493.685 -0.035106 -1.57561 0
M  V30 5165 C 494.615 0.942993 -2.13612 0
M  V30 5166 C 495.596 1.33531 -1.05373 0
M  V30 5167 O 496.781 1.41287 -1.33235 0
M  V30 5168 C 493.911 2.22332 -2.66807 0
M  V30 5169 C 492.865 1.97156 -3.79886 0
M  V30 5170 C 492.191 3.31506 -4.19533 0
M  V30 5171 C 493.491 1.30596 -5.05709 0
M  V30 5172 H 495.185 0.476179 -2.95589 0
M  V30 5173 H 492.731 0.227602 -1.4219 0
M  V30 5174 H 494.684 2.91142 -3.04654 0
M  V30 5175 H 493.408 2.7119 -1.81999 0
M  V30 5176 H 492.067 1.30763 -3.42486 0
M  V30 5177 H 491.715 3.78134 -3.31698 0
M  V30 5178 H 491.415 3.15465 -4.95738 0
M  V30 5179 H 492.939 4.01574 -4.59968 0
M  V30 5180 H 494.353 1.89416 -5.41105 0
M  V30 5181 H 492.75 1.24934 -5.86951 0
M  V30 5182 H 493.82 0.279742 -4.84092 0
M  V30 5183 N 495.163 1.55791 0.238111 0
M  V30 5184 C 496.388 1.8244 0.986432 0
M  V30 5185 C 496.813 0.613314 1.7782 0
M  V30 5186 O 496.171 -0.437767 1.75935 0
M  V30 5187 C 496.219 3.06917 1.893 0
M  V30 5188 O 495.323 2.84449 2.98601 0
M  V30 5189 H 494.664 0.601975 0.280218 0
M  V30 5190 H 497.194 2.02987 0.256437 0
M  V30 5191 H 497.204 3.36583 2.30598 0
M  V30 5192 H 495.879 3.947 1.31091 0
M  V30 5193 H 494.456 2.65972 2.61368 0
M  V30 5194 N 496.642 -0.504142 1.49319 0
M  V30 5195 C 497.888 -1.26033 1.58882 0
M  V30 5196 C 498.221 -1.92268 0.273274 0
M  V30 5197 O 497.496 -1.80567 -0.72291 0
M  V30 5198 C 497.779 -2.32976 2.7458 0
M  V30 5199 C 497.632 -1.71263 4.1592 0
M  V30 5200 C 498.951 -3.34561 2.85932 0
M  V30 5201 H 496.07 -0.456863 0.578312 0
M  V30 5202 H 498.712 -0.558965 1.81592 0
M  V30 5203 H 496.862 -2.92796 2.55348 0
M  V30 5204 H 498.534 -1.15294 4.4666 0
M  V30 5205 H 496.777 -1.01686 4.21714 0
M  V30 5206 H 497.448 -2.48816 4.92742 0
M  V30 5207 H 499.924 -2.84727 3.0343 0
M  V30 5208 H 498.8 -4.06754 3.68568 0
M  V30 5209 H 499.061 -3.96695 1.95154 0
M  V30 5210 N 498.12 -1.38341 -0.754957 0
M  V30 5211 C 499.05 -1.38176 -1.88227 0
M  V30 5212 C 500.031 -0.247873 -1.68284 0
M  V30 5213 O 501.216 -0.45075 -1.88896 0
M  V30 5214 C 498.346 -1.20471 -3.25736 0
M  V30 5215 C 497.3 -2.3105 -3.60278 0
M  V30 5216 C 496.626 -1.98452 -4.96509 0
M  V30 5217 C 497.926 -3.73305 -3.65295 0
M  V30 5218 H 499.62 -2.32512 -1.88622 0
M  V30 5219 H 497.166 -1.1192 -0.906082 0
M  V30 5220 H 499.119 -1.18982 -4.04254 0
M  V30 5221 H 497.843 -0.225965 -3.25817 0
M  V30 5222 H 496.502 -2.31723 -2.84078 0
M  V30 5223 H 496.15 -0.990641 -4.93148 0
M  V30 5224 H 495.85 -2.7251 -5.20588 0
M  V30 5225 H 497.374 -1.98578 -5.77407 0
M  V30 5226 H 498.788 -3.7467 -4.3393 0
M  V30 5227 H 497.185 -4.46557 -4.00883 0
M  V30 5228 H 498.255 -4.05719 -2.65556 0
M  V30 5229 N 499.598 0.982988 -1.23187 0
M  V30 5230 C 500.528 2.09301 -1.03515 0
M  V30 5231 C 501.509 1.70035 0.0471136 0
M  V30 5232 O 502.694 1.93847 -0.117029 0
M  V30 5233 C 499.824 3.4167 -0.622791 0
M  V30 5234 C 498.778 3.94828 -1.65211 0
M  V30 5235 C 498.104 5.23362 -1.09527 0
M  V30 5236 C 499.404 4.2439 -3.04451 0
M  V30 5237 H 501.098 2.26016 -1.96359 0
M  V30 5238 H 498.644 1.08611 -0.945501 0
M  V30 5239 H 500.597 4.18746 -0.472233 0
M  V30 5240 H 499.321 3.24811 0.341329 0
M  V30 5241 H 497.98 3.19895 -1.79061 0
M  V30 5242 H 497.628 5.02852 -0.122211 0
M  V30 5243 H 497.328 5.59895 -1.783 0
M  V30 5244 H 498.852 6.03062 -0.956511 0
M  V30 5245 H 500.266 4.92225 -2.93917 0
M  V30 5246 H 498.663 4.72118 -3.70438 0
M  V30 5247 H 499.733 3.31765 -3.53638 0
M  V30 5248 N 501.076 1.04316 1.18135 0
M  V30 5249 C 502.487 0.775505 1.69832 0
M  V30 5250 C 502.838 -0.703348 1.8316 0
M  V30 5251 O 501.963 -1.54729 1.51287 0
M  V30 5252 C 502.558 1.40112 3.0847 0
M  V30 5253 C 501.117 1.18172 3.57368 0
M  V30 5254 C 500.264 1.49022 2.33854 0
M  V30 5255 H 503.215 1.20925 1.02775 0
M  V30 5256 H 503.236 0.805672 3.71873 0
M  V30 5257 H 502.748 2.47744 2.98738 0
M  V30 5258 H 500.849 0.124258 3.72393 0
M  V30 5259 H 500.962 1.8805 4.40652 0
M  V30 5260 H 499.326 0.909995 2.37889 0
M  V30 5261 H 500.109 2.57768 2.26738 0
M  V30 5262 N 502.554 -1.34406 0.822964 0
M  V30 5263 C 503.484 -2.32052 0.259608 0
M  V30 5264 C 504.465 -1.58243 -0.623961 0
M  V30 5265 O 505.65 -1.86224 -0.55083 0
M  V30 5266 C 502.78 -3.42434 -0.579314 0
M  V30 5267 C 501.734 -4.27499 0.20712 0
M  V30 5268 C 501.06 -5.29349 -0.754547 0
M  V30 5269 C 502.36 -5.02758 1.41533 0
M  V30 5270 H 504.054 -2.79418 1.07545 0
M  V30 5271 H 501.6 -1.34338 0.518593 0
M  V30 5272 H 503.553 -4.0976 -0.983612 0
M  V30 5273 H 502.277 -2.93717 -1.4282 0
M  V30 5274 H 500.936 -3.61776 0.592787 0
M  V30 5275 H 500.584 -4.76895 -1.59939 0
M  V30 5276 H 500.284 -5.8714 -0.232561 0
M  V30 5277 H 501.808 -5.99544 -1.1567 0
M  V30 5278 H 503.222 -5.62938 1.08504 0
M  V30 5279 H 501.619 -5.70123 1.87296 0
M  V30 5280 H 502.689 -4.32451 2.1935 0
M  V30 5281 N 504.032 -0.577932 -1.46621 0
M  V30 5282 C 505.278 -0.0617793 -2.02706 0
M  V30 5283 C 505.611 1.29294 -1.44903 0
M  V30 5284 O 504.886 1.8461 -0.61232 0
M  V30 5285 C 505.169 0.00911824 -3.60099 0
M  V30 5286 C 505.022 -1.37416 -4.28295 0
M  V30 5287 C 506.341 0.712159 -4.343 0
M  V30 5288 H 503.46 -0.0239246 -0.736612 0
M  V30 5289 H 506.102 -0.744211 -1.74818 0
M  V30 5290 H 504.252 0.590292 -3.83989 0
M  V30 5291 H 505.924 -2.00013 -4.15683 0
M  V30 5292 H 504.167 -1.94319 -3.87843 0
M  V30 5293 H 504.838 -1.27707 -5.37024 0
M  V30 5294 H 507.314 0.218486 -4.15526 0
M  V30 5295 H 506.19 0.730782 -5.44014 0
M  V30 5296 H 506.451 1.77251 -4.05012 0
M  V30 5297 N 505.51 1.54411 -0.315457 0
M  V30 5298 C 506.442 2.21527 0.588067 0
M  V30 5299 C 507.455 1.21263 1.08624 0
M  V30 5300 O 508.644 1.47777 1.00121 0
M  V30 5301 C 505.744 2.85963 1.81875 0
M  V30 5302 C 504.917 4.12291 1.46063 0
M  V30 5303 C 503.976 4.60396 2.54799 0
M  V30 5304 O 503.002 5.25265 2.19283 0
M  V30 5305 N 504.204 4.33935 3.85591 0
M  V30 5306 H 506.969 2.99697 0.013414 0
M  V30 5307 H 504.53 1.61308 -0.138295 0
M  V30 5308 H 506.522 3.15071 2.53993 0
M  V30 5309 H 505.092 2.11548 2.30144 0
M  V30 5310 H 504.312 3.90036 0.571445 0
M  V30 5311 H 505.6 4.9452 1.19695 0
M  V30 5312 H 504.998 3.81996 4.17248 0
M  V30 5313 H 503.555 4.67718 4.53964 0
M  V30 5314 N 506.988 0.0434614 1.5754 0
M  V30 5315 C 507.918 -0.931651 2.14109 0
M  V30 5316 C 508.899 -1.32971 1.06079 0
M  V30 5317 O 510.084 -1.40579 1.33982 0
M  V30 5318 C 507.214 -2.20914 2.67982 0
M  V30 5319 C 506.168 -1.95139 3.80926 0
M  V30 5320 C 505.494 -3.29276 4.21285 0
M  V30 5321 C 506.794 -1.27913 5.06395 0
M  V30 5322 H 508.488 -0.460497 2.95837 0
M  V30 5323 H 506.034 -0.220058 1.42309 0
M  V30 5324 H 507.987 -2.89522 3.06194 0
M  V30 5325 H 506.711 -2.70221 1.83434 0
M  V30 5326 H 505.37 -1.28945 3.43175 0
M  V30 5327 H 505.018 -3.76369 3.33699 0
M  V30 5328 H 504.718 -3.12831 4.97404 0
M  V30 5329 H 506.242 -3.99129 4.62091 0
M  V30 5330 H 507.656 -1.86544 5.42102 0
M  V30 5331 H 506.053 -1.2182 5.87605 0
M  V30 5332 H 507.123 -0.254066 4.84234 0
M  V30 5333 N 508.466 -1.55915 -0.229846 0
M  V30 5334 C 509.376 -1.94891 -1.30593 0
M  V30 5335 C 510.392 -0.851604 -1.51736 0
M  V30 5336 O 511.568 -1.15447 -1.65027 0
M  V30 5337 C 508.633 -2.25052 -2.63728 0
M  V30 5338 C 507.694 -3.48306 -2.5096 0
M  V30 5339 C 506.927 -3.77019 -3.77747 0
M  V30 5340 O 507.15 -3.07534 -4.80395 0
M  V30 5341 O 506.084 -4.70523 -3.75356 0
M  V30 5342 H 509.91 -2.86581 -1.00525 0
M  V30 5343 H 507.495 -1.43017 -0.432025 0
M  V30 5344 H 509.377 -2.45682 -3.42372 0
M  V30 5345 H 508.052 -1.36538 -2.93495 0
M  V30 5346 H 506.959 -3.32964 -1.70546 0
M  V30 5347 H 508.292 -4.37177 -2.26136 0
M  V30 5348 N 509.944 0.496216 -1.49584 0
M  V30 5349 C 511.192 1.24756 -1.58998 0
M  V30 5350 C 511.513 1.92968 -0.280775 0
M  V30 5351 O 510.783 1.82959 0.700198 0
M  V30 5352 H 509.363 0.463471 -0.585836 0
M  V30 5353 H 512.025 0.574678 -1.86235 0
M  V30 5354 H 511.121 2.00895 -2.38847 0
M  V30 5355 N 511.423 1.38739 0.74761 0
M  V30 5356 C 512.648 1.38702 1.54197 0
M  V30 5357 C 513.073 -0.019664 1.8809 0
M  V30 5358 O 512.431 -1.00333 1.51006 0
M  V30 5359 C 512.479 2.25492 2.814 0
M  V30 5360 O 511.583 1.67613 3.76802 0
M  V30 5361 H 510.924 0.472863 0.466151 0
M  V30 5362 H 513.454 1.82577 0.923413 0
M  V30 5363 H 513.464 2.39561 3.30264 0
M  V30 5364 H 512.139 3.27727 2.56062 0
M  V30 5365 H 510.716 1.62718 3.35526 0
M  V30 5366 N 512.901 -0.976442 1.23707 0
M  V30 5367 C 514.147 -1.72081 1.07312 0
M  V30 5368 C 514.48 -1.90275 -0.388476 0
M  V30 5369 O 513.755 -1.4579 -1.28746 0
M  V30 5370 C 514.038 -3.11675 1.80363 0
M  V30 5371 C 513.891 -3.01027 3.3422 0
M  V30 5372 C 515.21 -4.1117 1.5693 0
M  V30 5373 H 512.329 -0.624583 0.391236 0
M  V30 5374 H 514.971 -1.13649 1.52263 0
M  V30 5375 H 513.121 -3.61559 1.42153 0
M  V30 5376 H 514.793 -2.58637 3.81975 0
M  V30 5377 H 513.036 -2.3744 3.63049 0
M  V30 5378 H 513.707 -3.9988 3.80525 0
M  V30 5379 H 516.183 -3.7011 1.90151 0
M  V30 5380 H 515.059 -5.06928 2.10513 0
M  V30 5381 H 515.32 -4.392 0.505548 0
M  V30 5382 N 514.379 -1.04941 -1.1758 0
M  V30 5383 C 515.342 -0.652456 -2.19717 0
M  V30 5384 C 516.342 0.294745 -1.58076 0
M  V30 5385 O 517.532 0.0789579 -1.74021 0
M  V30 5386 C 514.664 0.0420712 -3.40874 0
M  V30 5387 H 515.857 -1.55642 -2.5635 0
M  V30 5388 H 513.41 -0.842995 -1.31618 0
M  V30 5389 H 514.145 0.95943 -3.09783 0
M  V30 5390 H 513.93 -0.638844 -3.86861 0
M  V30 5391 H 515.42 0.306 -4.16477 0
M  V30 5392 N 515.857 1.33968 -0.830081 0
M  V30 5393 C 517.268 1.80439 -0.479455 0
M  V30 5394 C 517.619 1.68756 1.00079 0
M  V30 5395 O 516.744 1.23171 1.77927 0
M  V30 5396 C 517.339 3.27611 -0.863505 0
M  V30 5397 C 515.898 3.72133 -0.565145 0
M  V30 5398 C 515.045 2.55549 -1.07657 0
M  V30 5399 H 517.996 1.21614 -1.0196 0
M  V30 5400 H 518.017 3.8012 -0.170083 0
M  V30 5401 H 517.529 3.36082 -1.94089 0
M  V30 5402 H 515.63 3.69196 0.502536 0
M  V30 5403 H 515.743 4.65963 -1.11422 0
M  V30 5404 H 514.107 2.49788 -0.497807 0
M  V30 5405 H 514.89 2.66786 -2.16055 0
M  V30 5406 N 517.335 0.585699 1.46312 0
M  V30 5407 C 518.612 0.00542031 1.95599 0
M  V30 5408 C 518.992 -1.45619 1.52834 0
M  V30 5409 O 518.34 -2.14759 0.780446 0
M  V30 5410 C 518.55 0.180601 3.48532 0
M  V30 5411 C 519.898 0.049979 4.24571 0
M  V30 5412 O 520.922 0.109589 3.56031 0
M  V30 5413 O 519.781 -0.0832226 5.46437 0
M  V30 5414 H 516.875 -0.0481281 0.825598 0
M  V30 5415 H 519.421 0.654227 1.56582 0
M  V30 5416 H 518.193 1.19657 3.72556 0
M  V30 5417 H 517.816 -0.504498 3.94386 0
M  V30 5418 N 518.813 -1.54241 0.323641 0
M  V30 5419 C 519.743 -2.27289 -0.534993 0
M  V30 5420 C 520.724 -1.28087 -1.11927 0
M  V30 5421 O 521.909 -1.56899 -1.14439 0
M  V30 5422 C 519.039 -3.03075 -1.69596 0
M  V30 5423 C 517.993 -4.09614 -1.24098 0
M  V30 5424 C 517.319 -4.73242 -2.4889 0
M  V30 5425 C 518.619 -5.21087 -0.355789 0
M  V30 5426 H 520.313 -2.99308 0.0743257 0
M  V30 5427 H 517.859 -1.43952 0.0371874 0
M  V30 5428 H 519.812 -3.52907 -2.30293 0
M  V30 5429 H 518.536 -2.28673 -2.33187 0
M  V30 5430 H 517.195 -3.60666 -0.656945 0
M  V30 5431 H 516.843 -3.95455 -3.10845 0
M  V30 5432 H 516.543 -5.45209 -2.19138 0
M  V30 5433 H 518.067 -5.25848 -3.10348 0
M  V30 5434 H 519.481 -5.66675 -0.869042 0
M  V30 5435 H 517.878 -5.9991 -0.151045 0
M  V30 5436 H 518.948 -4.81005 0.613339 0
M  V30 5437 N 520.291 -0.0518155 -1.57515 0
M  V30 5438 C 521.521 0.63048 -1.96745 0
M  V30 5439 C 521.929 1.64875 -0.928054 0
M  V30 5440 O 521.272 1.83449 0.0960678 0
M  V30 5441 C 521.334 1.37381 -3.32215 0
M  V30 5442 C 520.998 0.511298 -4.54131 0
M  V30 5443 C 521.995 -0.222884 -5.19422 0
M  V30 5444 C 519.68 0.442035 -5.00351 0
M  V30 5445 C 521.674 -1.01476 -6.2927 0
M  V30 5446 C 519.361 -0.35353 -6.10077 0
M  V30 5447 C 520.359 -1.08062 -6.74397 0
M  V30 5448 O 520.047 -1.8631 -7.82013 0
M  V30 5449 H 519.779 0.177126 -0.652382 0
M  V30 5450 H 522.333 -0.114726 -2.05079 0
M  V30 5451 H 520.563 2.16466 -3.20436 0
M  V30 5452 H 522.252 1.9464 -3.56188 0
M  V30 5453 H 523.018 -0.178846 -4.8467 0
M  V30 5454 H 518.897 0.997562 -4.50077 0
M  V30 5455 H 522.441 -1.58279 -6.79407 0
M  V30 5456 H 518.338 -0.399205 -6.44264 0
M  V30 5457 H 519.106 -1.78528 -7.98793 0
M  V30 5458 N 521.769 1.56035 0.221574 0
M  V30 5459 C 523.009 1.80822 0.953038 0
M  V30 5460 C 523.373 0.625316 1.81532 0
M  V30 5461 O 524.574 0.752491 2.58052 0
M  V30 5462 C 522.845 3.10503 1.76983 0
M  V30 5463 S 524.404 3.56604 2.55693 0
M  V30 5464 H 521.222 0.634849 0.320137 0
M  V30 5465 H 523.824 1.94274 0.218619 0
M  V30 5466 H 522.528 3.94636 1.12651 0
M  V30 5467 H 522.059 2.99858 2.54655 0
M  V30 5468 H 524.074 3.1994 3.79279 0
M  V30 5469 N 523.247 -0.488276 1.49845 0
M  V30 5470 C 524.18 -1.60651 1.62069 0
M  V30 5471 C 525.158 -1.5568 0.469308 0
M  V30 5472 O 526.342 -1.75553 0.686551 0
M  V30 5473 C 523.469 -2.99197 1.58741 0
M  V30 5474 C 522.515 -3.22385 2.79232 0
M  V30 5475 S 523.348 -3.04133 4.40753 0
M  V30 5476 C 524.504 -4.45052 4.4009 0
M  V30 5477 H 524.737 -1.50039 2.56662 0
M  V30 5478 H 522.27 -0.674371 1.38894 0
M  V30 5479 H 524.228 -3.79081 1.57506 0
M  V30 5480 H 522.889 -3.07213 0.654136 0
M  V30 5481 H 522.082 -4.23557 2.73159 0
M  V30 5482 H 521.684 -2.50245 2.77945 0
M  V30 5483 H 523.976 -5.37375 4.12594 0
M  V30 5484 H 524.919 -4.56172 5.41583 0
M  V30 5485 H 525.327 -4.26327 3.70008 0
M  V30 5486 N 524.725 -1.39134 -0.740242 0
M  V30 5487 C 525.965 -1.37499 -1.51239 0
M  V30 5488 C 526.329 0.0310084 -1.91975 0
M  V30 5489 O 527.53 0.172319 -2.68247 0
M  V30 5490 C 525.801 -2.31566 -2.72235 0
M  V30 5491 S 527.36 -2.48073 -3.61947 0
M  V30 5492 H 524.178 -0.48768 -0.517387 0
M  V30 5493 H 526.78 -1.75183 -0.867826 0
M  V30 5494 H 525.484 -3.32592 -2.40439 0
M  V30 5495 H 525.015 -1.9508 -3.41625 0
M  V30 5496 H 527.03 -1.71473 -4.6563 0
M  V30 5497 N 526.204 0.969867 -1.24223 0
M  V30 5498 C 527.452 1.70918 -1.0785 0
M  V30 5499 C 527.773 1.91186 0.383763 0
M  V30 5500 O 527.043 1.48806 1.27411 0
M  V30 5501 H 525.623 0.633334 -0.396103 0
M  V30 5502 H 528.285 1.16689 -1.56108 0
M  V30 5503 H 527.381 2.69455 -1.57482 0
M  V30 5504 N 527.682 1.05563 1.17022 0
M  V30 5505 C 529.098 0.777684 1.39371 0
M  V30 5506 C 529.298 -0.626269 1.91521 0
M  V30 5507 O 528.354 -1.38806 2.10924 0
M  V30 5508 C 529.667 1.83642 2.3811 0
M  V30 5509 C 531.215 1.85907 2.51809 0
M  V30 5510 C 531.69 2.90813 3.53824 0
M  V30 5511 N 533.181 2.898 3.61345 0
M  V30 5512 C 533.916 3.6762 4.40049 0
M  V30 5513 N 533.412 4.55237 5.22237 0
M  V30 5514 N 535.205 3.56044 4.34959 0
M  V30 5515 H 527.356 1.9614 0.815047 0
M  V30 5516 H 529.619 0.849527 0.420722 0
M  V30 5517 H 529.325 2.84425 2.06871 0
M  V30 5518 H 529.199 1.6812 3.37662 0
M  V30 5519 H 531.586 0.857865 2.82356 0
M  V30 5520 H 531.667 2.05506 1.52318 0
M  V30 5521 H 531.311 3.91122 3.24015 0
M  V30 5522 H 531.241 2.68465 4.53028 0
M  V30 5523 H 533.732 2.26274 3.02669 0
M  V30 5524 H 534.045 5.11291 5.79484 0
M  V30 5525 H 532.39 4.59296 5.21605 0
M  V30 5526 H 535.581 2.86986 3.69806 0
M  V30 5527 H 535.754 4.16938 4.96051 0
M  V30 5528 N 529.16 -1.33526 0.837174 0
M  V30 5529 C 530.409 -1.97098 0.428387 0
M  V30 5530 C 530.722 -1.67062 -1.01734 0
M  V30 5531 O 531.928 -2.24235 -1.53072 0
M  V30 5532 C 530.384 -3.52725 0.715075 0
M  V30 5533 C 529.992 -3.9164 2.17537 0
M  V30 5534 C 531.736 -4.22857 0.373154 0
M  V30 5535 C 529.643 -5.40237 2.40619 0
M  V30 5536 H 528.573 -0.737589 0.156455 0
M  V30 5537 H 531.224 -1.52169 1.02552 0
M  V30 5538 H 529.606 -3.95971 0.0475904 0
M  V30 5539 H 530.78 -3.59456 2.88319 0
M  V30 5540 H 529.095 -3.34485 2.4801 0
M  V30 5541 H 531.692 -5.32133 0.523264 0
M  V30 5542 H 532.035 -4.10647 -0.683708 0
M  V30 5543 H 532.568 -3.85135 0.995801 0
M  V30 5544 H 529.307 -5.57449 3.44864 0
M  V30 5545 H 528.827 -5.73887 1.74396 0
M  V30 5546 H 530.506 -6.07102 2.23688 0
M  V30 5547 N 530.638 -0.59345 -1.46 0
M  V30 5548 C 531.868 -0.0889642 -2.06408 0
M  V30 5549 C 532.276 1.22597 -1.44106 0
M  V30 5550 O 531.619 1.75448 -0.544398 0
M  V30 5551 C 531.681 0.139902 -3.59228 0
M  V30 5552 C 531.345 -1.09107 -4.43784 0
M  V30 5553 C 532.342 -2.00577 -4.79651 0
M  V30 5554 C 530.027 -1.31593 -4.84756 0
M  V30 5555 C 532.021 -3.12873 -5.55328 0
M  V30 5556 C 529.708 -2.44192 -5.60191 0
M  V30 5557 C 530.706 -3.34661 -5.95392 0
M  V30 5558 O 530.394 -4.45302 -6.69299 0
M  V30 5559 H 530.126 -0.0594613 -0.67338 0
M  V30 5560 H 532.68 -0.817 -1.88452 0
M  V30 5561 H 530.91 0.922672 -3.75531 0
M  V30 5562 H 532.599 0.594228 -4.01527 0
M  V30 5563 H 533.365 -1.84425 -4.48567 0
M  V30 5564 H 529.244 -0.620801 -4.56801 0
M  V30 5565 H 532.788 -3.83511 -5.82722 0
M  V30 5566 H 528.685 -2.60303 -5.90688 0
M  V30 5567 H 529.453 -4.43805 -6.87735 0
M  V30 5568 N 532.116 1.54067 -0.331816 0
M  V30 5569 C 533.063 2.24623 0.530372 0
M  V30 5570 C 534.033 1.24009 1.10503 0
M  V30 5571 O 535.218 1.52712 1.14384 0
M  V30 5572 C 532.358 3.01374 1.68129 0
M  V30 5573 C 531.471 4.16821 1.13507 0
M  V30 5574 C 530.606 4.81085 2.25234 0
M  V30 5575 C 529.645 5.88621 1.67903 0
M  V30 5576 N 528.782 6.46713 2.73326 0
M  V30 5577 H 533.622 2.97898 -0.0778607 0
M  V30 5578 H 531.159 1.47014 -0.0501965 0
M  V30 5579 H 533.117 3.44125 2.35868 0
M  V30 5580 H 531.747 2.30419 2.26069 0
M  V30 5581 H 530.799 3.78796 0.348979 0
M  V30 5582 H 532.111 4.94203 0.675633 0
M  V30 5583 H 531.265 5.26846 3.00862 0
M  V30 5584 H 530.004 4.03102 2.74518 0
M  V30 5585 H 529.009 5.42254 0.907773 0
M  V30 5586 H 530.234 6.68506 1.19487 0
M  V30 5587 H 528.18 5.71599 3.21886 0
M  V30 5588 H 528.097 7.19532 2.3197 0
M  V30 5589 H 529.365 6.97129 3.48758 0
M  V30 5590 N 533.594 0.0601682 1.57485 0
M  V30 5591 C 534.871 -0.651956 1.84415 0
M  V30 5592 C 535.251 -1.88498 0.950361 0
M  V30 5593 O 534.599 -2.28496 0.0136719 0
M  V30 5594 C 534.809 -1.00069 3.34346 0
M  V30 5595 C 536.157 -1.37915 4.01578 0
M  V30 5596 O 537.181 -1.09277 3.39024 0
M  V30 5597 O 536.04 -1.91399 5.11887 0
M  V30 5598 H 533.134 -0.322668 0.761455 0
M  V30 5599 H 535.68 0.0902159 1.6946 0
M  V30 5600 H 534.452 -0.124463 3.91102 0
M  V30 5601 H 534.075 -1.80001 3.54521 0
M  V30 5602 N 535.072 -1.5615 -0.213296 0
M  V30 5603 C 536.005 -1.88115 -1.29182 0
M  V30 5604 C 536.983 -0.739348 -1.44819 0
M  V30 5605 O 538.167 -0.988541 -1.605 0
M  V30 5606 C 535.294 -2.09541 -2.66102 0
M  V30 5607 C 534.34 -3.32236 -2.67436 0
M  V30 5608 S 535.173 -4.87915 -2.20679 0
M  V30 5609 C 536.329 -5.12387 -3.59458 0
M  V30 5610 H 536.562 -2.793 -1.01876 0
M  V30 5611 H 534.095 -1.48692 -0.415934 0
M  V30 5612 H 536.053 -2.22568 -3.44925 0
M  V30 5613 H 534.714 -1.19138 -2.90628 0
M  V30 5614 H 533.907 -3.44297 -3.6807 0
M  V30 5615 H 533.509 -3.18108 -1.96681 0
M  V30 5616 H 535.801 -5.01791 -4.55205 0
M  V30 5617 H 536.744 -6.14236 -3.52306 0
M  V30 5618 H 537.152 -4.40089 -3.53528 0
M  V30 5619 N 536.55 0.480323 -1.50102 0
M  V30 5620 C 537.797 1.23307 -1.60629 0
M  V30 5621 C 538.125 1.92135 -0.302375 0
M  V30 5622 O 537.38 1.82321 0.711154 0
M  V30 5623 C 537.679 2.30708 -2.72963 0
M  V30 5624 C 537.345 1.79195 -4.13763 0
M  V30 5625 C 536.007 1.64867 -4.52076 0
M  V30 5626 C 538.359 1.40878 -5.018 0
M  V30 5627 C 535.687 1.10631 -5.76175 0
M  V30 5628 C 538.039 0.880872 -6.26437 0
M  V30 5629 C 536.703 0.724146 -6.6356 0
M  V30 5630 H 535.973 0.451211 -0.587784 0
M  V30 5631 H 538.62 0.53051 -1.84005 0
M  V30 5632 H 536.925 3.06834 -2.43639 0
M  V30 5633 H 538.622 2.88692 -2.78313 0
M  V30 5634 H 535.212 1.91313 -3.83533 0
M  V30 5635 H 539.396 1.50786 -4.7284 0
M  V30 5636 H 534.652 0.972263 -6.0362 0
M  V30 5637 H 538.826 0.575269 -6.9402 0
M  V30 5638 H 536.453 0.301722 -7.59601 0
M  V30 5639 N 538.028 1.39524 0.732853 0
M  V30 5640 C 539.275 1.36865 1.49246 0
M  V30 5641 C 539.603 -0.0347118 1.94469 0
M  V30 5642 O 538.858 -1.01596 1.67262 0
M  V30 5643 C 539.157 2.28916 2.74468 0
M  V30 5644 C 538.823 3.76506 2.481 0
M  V30 5645 C 537.485 4.16721 2.40619 0
M  V30 5646 C 539.837 4.69846 2.25598 0
M  V30 5647 C 537.165 5.48334 2.08679 0
M  V30 5648 C 539.517 6.01739 1.95174 0
M  V30 5649 C 538.181 6.41015 1.86163 0
M  V30 5650 H 537.451 0.500824 0.546129 0
M  V30 5651 H 540.098 1.72047 0.840958 0
M  V30 5652 H 538.403 1.86859 3.4437 0
M  V30 5653 H 540.1 2.2415 3.32502 0
M  V30 5654 H 536.69 3.44635 2.54803 0
M  V30 5655 H 540.874 4.39608 2.30344 0
M  V30 5656 H 536.13 5.77685 2.00226 0
M  V30 5657 H 540.304 6.73591 1.76771 0
M  V30 5658 H 537.931 7.42917 1.61179 0
M  V30 5659 N 539.506 -0.963266 1.24736 0
M  V30 5660 C 540.731 -1.74699 1.11781 0
M  V30 5661 C 541.156 -1.85267 -0.325258 0
M  V30 5662 O 540.514 -1.32681 -1.23553 0
M  V30 5663 C 540.562 -3.14322 1.76731 0
M  V30 5664 O 539.666 -3.99043 1.04109 0
M  V30 5665 H 539.007 -0.53684 0.390767 0
M  V30 5666 H 541.537 -1.20801 1.65131 0
M  V30 5667 H 541.547 -3.64824 1.82668 0
M  V30 5668 H 540.222 -3.05946 2.81726 0
M  V30 5669 H 538.799 -3.5752 1.05991 0
M  V30 5670 N 540.985 -1.06182 -1.16461 0
M  V30 5671 C 542.21 -0.798599 -1.91408 0
M  V30 5672 C 542.635 0.640987 -1.76842 0
M  V30 5673 O 541.993 1.44652 -1.09296 0
M  V30 5674 C 542.041 -1.19665 -3.40165 0
M  V30 5675 O 541.145 -0.334768 -4.11039 0
M  V30 5676 H 540.486 -0.291961 -0.596368 0
M  V30 5677 H 543.016 -1.41732 -1.47557 0
M  V30 5678 H 543.026 -1.16772 -3.90933 0
M  V30 5679 H 541.701 -2.24526 -3.50087 0
M  V30 5680 H 540.278 -0.425168 -3.70468 0
M  V30 5681 N 542.463 1.3308 -0.844243 0
M  V30 5682 C 543.711 1.97215 -0.441676 0
M  V30 5683 C 544.032 1.67185 1.0037 0
M  V30 5684 O 543.302 0.973588 1.69994 0
M  V30 5685 H 541.882 0.72959 -0.160335 0
M  V30 5686 H 544.544 1.62348 -1.07838 0
M  V30 5687 H 543.64 3.06698 -0.57815 0
M  V30 5688 N 543.941 0.601185 1.45683 0
M  V30 5689 C 545.188 0.0938811 2.02282 0
M  V30 5690 C 545.516 -1.27315 1.47041 0
M  V30 5691 O 544.771 -1.85193 0.632623 0
M  V30 5692 C 545.07 -0.00222425 3.574 0
M  V30 5693 C 544.736 1.29963 4.31764 0
M  V30 5694 C 543.398 1.65625 4.51798 0
M  V30 5695 C 545.75 2.1603 4.74321 0
M  V30 5696 C 543.078 2.87119 5.11644 0
M  V30 5697 C 545.43 3.36766 5.3551 0
M  V30 5698 C 544.094 3.72689 5.53768 0
M  V30 5699 H 543.364 0.0343535 0.740203 0
M  V30 5700 H 546.011 0.781522 1.74827 0
M  V30 5701 H 544.316 -0.773096 3.84097 0
M  V30 5702 H 546.013 -0.410794 3.9889 0
M  V30 5703 H 542.603 1.01204 4.1648 0
M  V30 5704 H 546.787 1.89778 4.58582 0
M  V30 5705 H 542.043 3.15065 5.2397 0
M  V30 5706 H 546.217 4.03713 5.67441 0
M  V30 5707 H 543.844 4.66918 5.99909 0
M  V30 5708 N 545.419 -1.53889 0.339982 0
M  V30 5709 C 546.351 -2.22435 -0.55275 0
M  V30 5710 C 547.364 -1.22975 -1.06681 0
M  V30 5711 O 548.553 -1.49351 -0.977575 0
M  V30 5712 C 545.653 -2.8882 -1.77302 0
M  V30 5713 C 544.826 -4.14563 -1.39486 0
M  V30 5714 C 543.885 -4.64391 -2.47442 0
M  V30 5715 O 542.911 -5.28687 -2.10899 0
M  V30 5716 N 544.113 -4.40015 -3.78639 0
M  V30 5717 H 546.878 -2.9968 0.0342669 0
M  V30 5718 H 544.439 -1.61068 0.16394 0
M  V30 5719 H 546.431 -3.19072 -2.48948 0
M  V30 5720 H 545.001 -2.15182 -2.26749 0
M  V30 5721 H 544.221 -3.90896 -0.509321 0
M  V30 5722 H 545.509 -4.96362 -1.11813 0
M  V30 5723 H 544.907 -3.88586 -4.11118 0
M  V30 5724 H 543.464 -4.74881 -4.46465 0
M  V30 5725 N 546.897 -0.0685191 -1.57451 0
M  V30 5726 C 548.174 0.642167 -1.84758 0
M  V30 5727 C 548.554 1.87991 -0.960344 0
M  V30 5728 O 547.902 2.28485 -0.0257894 0
M  V30 5729 C 548.112 0.982946 -3.34872 0
M  V30 5730 C 549.46 1.35784 -4.02303 0
M  V30 5731 O 550.484 1.07477 -3.39598 0
M  V30 5732 O 549.343 1.88681 -5.12895 0
M  V30 5733 H 546.437 0.318625 -0.763156 0
M  V30 5734 H 548.983 -0.0992015 -1.6941 0
M  V30 5735 H 547.755 0.10372 -3.91163 0
M  V30 5736 H 547.378 1.78119 -3.55471 0
M  V30 5737 N 548.375 1.56261 0.205012 0
M  V30 5738 C 549.338 1.92908 1.23771 0
M  V30 5739 C 550.338 0.809208 1.38955 0
M  V30 5740 O 551.528 1.07676 1.36936 0
M  V30 5741 C 548.66 2.19442 2.60879 0
M  V30 5742 H 549.853 2.85287 0.924728 0
M  V30 5743 H 547.406 1.49798 0.446125 0
M  V30 5744 H 548.141 1.29668 2.97248 0
M  V30 5745 H 547.926 3.0104 2.51232 0
M  V30 5746 H 549.416 2.48833 3.35368 0
M  V30 5747 N 549.853 -0.472356 1.50355 0
M  V30 5748 C 551.101 -1.22211 1.60962 0
M  V30 5749 C 551.422 -1.92497 0.311439 0
M  V30 5750 O 550.692 -1.8405 -0.671002 0
M  V30 5751 H 549.272 -0.454092 0.593135 0
M  V30 5752 H 551.934 -0.544977 1.87126 0
M  V30 5753 H 551.03 -1.9707 2.42012 0
M  V30 5754 N 551.331 -1.39911 -0.725443 0
M  V30 5755 C 552.281 -1.35878 -1.83088 0
M  V30 5756 C 553.265 -0.237989 -1.5913 0
M  V30 5757 O 554.457 -0.476302 -1.70471 0
M  V30 5758 C 551.586 -1.21403 -3.21117 0
M  V30 5759 C 550.672 -2.38223 -3.50871 0
M  V30 5760 N 551.063 -3.63703 -3.51502 0
M  V30 5761 C 549.361 -2.31388 -3.81281 0
M  V30 5762 C 550.062 -4.4101 -3.79322 0
M  V30 5763 N 549.038 -3.7072 -3.97577 0
M  V30 5764 H 552.84 -2.3085 -1.81895 0
M  V30 5765 H 550.354 -1.33543 -0.924125 0
M  V30 5766 H 552.351 -1.16597 -4.00263 0
M  V30 5767 H 551.011 -0.273902 -3.23543 0
M  V30 5768 H 552.022 -3.96998 -3.32586 0
M  V30 5769 H 548.699 -1.45689 -3.91256 0
M  V30 5770 H 550.089 -5.49819 -3.86198 0
M  V30 5771 N 552.809 0.956637 -1.25245 0
M  V30 5772 C 554.225 1.22733 -1.02023 0
M  V30 5773 C 554.425 1.99761 0.264186 0
M  V30 5774 O 553.481 2.32814 0.977436 0
M  V30 5775 C 554.794 2.00367 -2.24217 0
M  V30 5776 C 556.342 2.13418 -2.28958 0
M  V30 5777 C 556.817 2.9445 -3.50803 0
M  V30 5778 N 558.308 3.02029 -3.51187 0
M  V30 5779 C 559.043 3.65116 -4.42129 0
M  V30 5780 N 558.539 4.2983 -5.43339 0
M  V30 5781 N 560.332 3.62237 -4.29815 0
M  V30 5782 H 552.483 0.441282 -2.07765 0
M  V30 5783 H 554.746 0.257686 -0.912306 0
M  V30 5784 H 554.452 1.51165 -3.17556 0
M  V30 5785 H 554.326 3.01077 -2.27228 0
M  V30 5786 H 556.713 2.61819 -1.36143 0
M  V30 5787 H 556.794 1.1202 -2.29968 0
M  V30 5788 H 556.438 2.46741 -4.43939 0
M  V30 5789 H 556.368 3.9607 -3.47039 0
M  V30 5790 H 558.859 2.56007 -2.77973 0
M  V30 5791 H 559.172 4.75819 -6.08947 0
M  V30 5792 H 557.517 4.28465 -5.47214 0
M  V30 5793 H 560.708 3.10863 -3.49974 0
M  V30 5794 H 560.881 4.11117 -5.00886 0
M  V30 5795 N 554.287 1.06798 1.15896 0
M  V30 5796 C 555.197 0.694564 2.24083 0
M  V30 5797 C 556.213 -0.291687 1.71538 0
M  V30 5798 O 557.389 -0.139723 2.00915 0
M  V30 5799 C 554.454 0.0921014 3.46578 0
M  V30 5800 C 553.515 1.13087 4.14137 0
M  V30 5801 C 552.748 0.557064 5.30785 0
M  V30 5802 O 552.971 -0.628623 5.66925 0
M  V30 5803 O 551.905 1.29924 5.8771 0
M  V30 5804 H 555.731 1.59663 2.58344 0
M  V30 5805 H 553.316 0.840575 1.2351 0
M  V30 5806 H 555.198 -0.241884 4.20705 0
M  V30 5807 H 553.873 -0.78337 3.14078 0
M  V30 5808 H 552.78 1.51712 3.41957 0
M  V30 5809 H 554.113 1.97805 4.50704 0
M  V30 5810 N 555.766 -1.3263 0.851289 0
M  V30 5811 C 556.698 -2.27824 0.250757 0
M  V30 5812 C 557.711 -1.52285 -0.575598 0
M  V30 5813 O 558.9 -1.73946 -0.400638 0
M  V30 5814 C 556 -3.3232 -0.664571 0
M  V30 5815 C 555.173 -4.37221 0.125187 0
M  V30 5816 C 554.232 -5.21314 -0.715385 0
M  V30 5817 O 553.258 -5.69002 -0.150111 0
M  V30 5818 N 554.46 -5.43823 -2.03069 0
M  V30 5819 H 557.225 -2.79997 1.06873 0
M  V30 5820 H 554.786 -1.45455 0.710943 0
M  V30 5821 H 556.778 -3.85486 -1.23216 0
M  V30 5822 H 555.348 -2.80331 -1.38323 0
M  V30 5823 H 554.568 -3.84384 0.874199 0
M  V30 5824 H 555.856 -5.04399 0.667774 0
M  V30 5825 H 555.254 -5.06803 -2.51332 0
M  V30 5826 H 553.811 -5.99998 -2.54648 0
M  V30 5827 N 557.244 -0.608902 -1.45362 0
M  V30 5828 C 558.207 0.0992563 -2.28985 0
M  V30 5829 C 559.207 0.793841 -1.39838 0
M  V30 5830 O 560.397 0.641804 -1.61946 0
M  V30 5831 C 557.529 1.15073 -3.20891 0
M  V30 5832 H 558.722 -0.635964 -2.93079 0
M  V30 5833 H 556.275 -0.368007 -1.51906 0
M  V30 5834 H 557.01 1.91667 -2.616 0
M  V30 5835 H 556.795 0.656867 -3.86559 0
M  V30 5836 H 558.285 1.64665 -3.83765 0
M  V30 5837 N 558.722 1.53707 -0.348139 0
M  V30 5838 C 559.952 2.05108 0.247864 0
M  V30 5839 C 560.36 1.22252 1.44399 0
M  V30 5840 O 559.703 0.251853 1.81965 0
M  V30 5841 C 559.765 3.52171 0.722187 0
M  V30 5842 C 559.429 4.5562 -0.354902 0
M  V30 5843 C 560.426 5.05883 -1.19911 0
M  V30 5844 C 558.111 4.99703 -0.510145 0
M  V30 5845 C 560.105 5.98814 -2.18406 0
M  V30 5846 C 557.792 5.92443 -1.49848 0
M  V30 5847 C 558.79 6.41887 -2.33389 0
M  V30 5848 O 558.478 7.32802 -3.3054 0
M  V30 5849 H 558.21 0.674086 0.0508296 0
M  V30 5850 H 560.764 1.99229 -0.49968 0
M  V30 5851 H 558.994 3.55529 1.52105 0
M  V30 5852 H 560.683 3.8652 1.23925 0
M  V30 5853 H 561.449 4.72586 -1.09028 0
M  V30 5854 H 557.328 4.60816 0.130274 0
M  V30 5855 H 560.872 6.3733 -2.83649 0
M  V30 5856 H 556.769 6.25155 -1.60786 0
M  V30 5857 H 557.537 7.50749 -3.26064 0
M  V30 5858 N 560.2 0.0768682 1.57412 0
M  V30 5859 C 561.15 -0.898795 2.09537 0
M  V30 5860 C 562.134 -1.25556 1.0062 0
M  V30 5861 O 563.326 -1.23369 1.26921 0
M  V30 5862 C 560.455 -2.16453 2.66464 0
M  V30 5863 C 559.541 -1.83401 3.82393 0
M  V30 5864 N 559.932 -1.20823 4.91157 0
M  V30 5865 C 558.23 -2.13121 3.91785 0
M  V30 5866 C 558.931 -1.05976 5.71965 0
M  V30 5867 N 557.907 -1.57113 5.204 0
M  V30 5868 H 561.709 -0.410718 2.91016 0
M  V30 5869 H 559.223 -0.126878 1.61904 0
M  V30 5870 H 561.22 -2.87274 3.02125 0
M  V30 5871 H 559.88 -2.65844 1.86433 0
M  V30 5872 H 560.891 -0.877249 5.10416 0
M  V30 5873 H 557.568 -2.64854 3.22736 0
M  V30 5874 H 558.958 -0.571809 6.69462 0
M  V30 5875 N 561.678 -1.56367 -0.196722 0
M  V30 5876 C 562.924 -1.81698 -0.914182 0
M  V30 5877 C 563.279 -0.65367 -1.80956 0
M  V30 5878 O 562.572 0.351224 -1.88353 0
M  V30 5879 C 562.766 -3.10663 -1.767 0
M  V30 5880 C 562.595 -4.39428 -0.955689 0
M  V30 5881 C 561.365 -5.01221 -0.64076 0
M  V30 5882 C 563.563 -5.1337 -0.309165 0
M  V30 5883 N 561.545 -6.13608 0.189358 0
M  V30 5884 C 562.916 -6.18815 0.383225 0
M  V30 5885 C 564.971 -4.97393 -0.224726 0
M  V30 5886 C 563.674 -7.10015 1.15201 0
M  V30 5887 C 565.7 -5.89014 0.530658 0
M  V30 5888 C 565.062 -6.93903 1.2115 0
M  V30 5889 H 561.161 -0.716203 -0.31397 0
M  V30 5890 H 563.745 -1.93838 -0.18304 0
M  V30 5891 H 561.916 -2.99762 -2.46976 0
M  V30 5892 H 563.648 -3.24088 -2.42382 0
M  V30 5893 H 560.403 -4.63669 -0.96479 0
M  V30 5894 H 560.827 -6.74389 0.593979 0
M  V30 5895 H 565.469 -4.16331 -0.736754 0
M  V30 5896 H 563.187 -7.9054 1.67547 0
M  V30 5897 H 566.773 -5.78726 0.597326 0
M  V30 5898 H 565.653 -7.63576 1.78665 0
M  V30 5899 N 563.156 0.464375 -1.50603 0
M  V30 5900 C 564.386 1.23727 -1.65454 0
M  V30 5901 C 564.794 1.86119 -0.340032 0
M  V30 5902 O 564.137 1.70301 0.688706 0
M  V30 5903 C 564.199 2.38153 -2.69301 0
M  V30 5904 C 563.863 1.96345 -4.12671 0
M  V30 5905 C 564.86 1.48215 -4.98326 0
M  V30 5906 C 562.545 2.04861 -4.58625 0
M  V30 5907 C 564.539 1.09152 -6.27985 0
M  V30 5908 C 562.226 1.65409 -5.88288 0
M  V30 5909 C 563.224 1.17634 -6.72794 0
M  V30 5910 O 562.912 0.787312 -8.00035 0
M  V30 5911 H 562.644 0.380075 -0.559034 0
M  V30 5912 H 565.198 0.559919 -1.97621 0
M  V30 5913 H 563.428 3.09081 -2.32392 0
M  V30 5914 H 565.117 3.00099 -2.73304 0
M  V30 5915 H 565.883 1.41052 -4.64036 0
M  V30 5916 H 561.762 2.40996 -3.92991 0
M  V30 5917 H 565.306 0.717909 -6.93896 0
M  V30 5918 H 561.203 1.72233 -6.22098 0
M  V30 5919 H 561.971 0.915567 -8.13363 0
M  V30 5920 N 564.634 1.40294 0.718013 0
M  V30 5921 C 566.05 1.2227 1.02577 0
M  V30 5922 C 566.25 0.0961976 2.0127 0
M  V30 5923 O 565.306 -0.546695 2.46511 0
M  V30 5924 C 566.619 2.56348 1.57182 0
M  V30 5925 C 568.167 2.6334 1.69178 0
M  V30 5926 C 568.642 3.9768 2.27188 0
M  V30 5927 N 570.133 3.99409 2.34578 0
M  V30 5928 C 570.868 5.00141 2.8044 0
M  V30 5929 N 570.364 6.11268 3.26073 0
M  V30 5930 N 572.157 4.87511 2.79802 0
M  V30 5931 H 564.308 2.12304 0.0637899 0
M  V30 5932 H 566.571 0.943632 0.0909036 0
M  V30 5933 H 566.277 3.3942 0.921262 0
M  V30 5934 H 566.151 2.77266 2.55741 0
M  V30 5935 H 568.538 1.80641 2.33351 0
M  V30 5936 H 568.619 2.46255 0.692247 0
M  V30 5937 H 568.263 4.80817 1.63638 0
M  V30 5938 H 568.193 4.12093 3.27852 0
M  V30 5939 H 570.684 3.19162 2.02346 0
M  V30 5940 H 570.997 6.84023 3.59628 0
M  V30 5941 H 569.342 6.14837 3.24038 0
M  V30 5942 H 572.533 3.9979 2.43487 0
M  V30 5943 H 572.706 5.66158 3.15228 0
M  V30 5944 N 566.112 -0.949982 1.2575 0
M  V30 5945 C 567.059 -2.04738 1.06541 0
M  V30 5946 C 568.029 -1.66078 -0.0268818 0
M  V30 5947 O 569.214 -1.90348 0.131196 0
M  V30 5948 C 566.354 -3.38027 0.695127 0
M  V30 5949 C 565.467 -3.89776 1.86276 0
M  V30 5950 C 564.602 -5.11411 1.4364 0
M  V30 5951 C 563.641 -5.554 2.57287 0
M  V30 5952 N 562.778 -6.68244 2.15395 0
M  V30 5953 H 567.618 -2.20502 2.00457 0
M  V30 5954 H 565.155 -1.0805 0.998178 0
M  V30 5955 H 567.113 -4.14641 0.461375 0
M  V30 5956 H 565.743 -3.22135 -0.207046 0
M  V30 5957 H 564.795 -3.0964 2.20969 0
M  V30 5958 H 566.107 -4.18368 2.71606 0
M  V30 5959 H 565.261 -5.95457 1.16257 0
M  V30 5960 H 564 -4.84545 0.553879 0
M  V30 5961 H 563.005 -4.69916 2.85409 0
M  V30 5962 H 564.23 -5.84272 3.46125 0
M  V30 5963 H 562.176 -6.43078 1.29565 0
M  V30 5964 H 562.093 -6.96377 2.94272 0
M  V30 5965 H 563.361 -7.55687 1.91201 0
M  V30 5966 N 567.59 -1.07411 -1.15328 0
M  V30 5967 C 568.553 -0.698914 -2.18284 0
M  V30 5968 C 569.553 0.261149 -1.58665 0
M  V30 5969 O 570.743 0.0420277 -1.74149 0
M  V30 5970 C 567.875 -0.0302427 -3.40887 0
M  V30 5971 H 569.068 -1.61045 -2.52991 0
M  V30 5972 H 566.621 -0.870724 -1.298 0
M  V30 5973 H 567.356 0.893505 -3.11748 0
M  V30 5974 H 567.141 -0.720759 -3.85419 0
M  V30 5975 H 568.631 0.21759 -4.17033 0
M  V30 5976 N 569.068 1.32177 -0.85831 0
M  V30 5977 C 570.315 1.97125 -0.463484 0
M  V30 5978 C 570.643 1.67907 0.981705 0
M  V30 5979 O 569.898 0.961717 1.70439 0
M  V30 5980 C 570.197 3.51372 -0.653658 0
M  V30 5981 C 569.863 4.00584 -2.06987 0
M  V30 5982 C 568.525 4.13733 -2.4572 0
M  V30 5983 C 570.877 4.26624 -2.99402 0
M  V30 5984 C 568.205 4.50268 -3.76132 0
M  V30 5985 C 570.557 4.64618 -4.29316 0
M  V30 5986 C 569.221 4.75975 -4.67979 0
M  V30 5987 H 568.491 0.72133 -0.169601 0
M  V30 5988 H 571.138 1.57517 -1.08907 0
M  V30 5989 H 569.443 3.91761 0.0551328 0
M  V30 5990 H 571.14 3.99655 -0.328163 0
M  V30 5991 H 567.73 3.90837 -1.75911 0
M  V30 5992 H 571.914 4.1597 -2.70708 0
M  V30 5993 H 567.17 4.57256 -4.05865 0
M  V30 5994 H 571.344 4.83722 -5.00985 0
M  V30 5995 H 568.971 5.04041 -5.69076 0
M  V30 5996 N 570.547 0.616602 1.45037 0
M  V30 5997 C 571.824 0.0469086 1.95544 0
M  V30 5998 C 572.204 -1.42345 1.55888 0
M  V30 5999 O 571.552 -2.13055 0.825824 0
M  V30 6000 C 571.762 0.254489 3.48071 0
M  V30 6001 C 573.11 0.140025 4.24369 0
M  V30 6002 O 574.134 0.185084 3.55719 0
M  V30 6003 O 572.993 0.0327034 5.4649 0
M  V30 6004 H 570.087 -0.0306051 0.826433 0
M  V30 6005 H 572.633 0.687293 1.55159 0
M  V30 6006 H 571.405 1.27532 3.69934 0
M  V30 6007 H 571.028 -0.42073 3.95368 0
M  V30 6008 N 572.025 -1.5352 0.356285 0
M  V30 6009 C 573.271 -2.01414 -0.236653 0
M  V30 6010 C 573.604 -1.24339 -1.49176 0
M  V30 6011 O 572.879 -0.334496 -1.91602 0
M  V30 6012 C 573.162 -3.56059 -0.537982 0
M  V30 6013 C 573.015 -4.43835 0.730112 0
M  V30 6014 C 574.334 -4.19127 -1.34239 0
M  V30 6015 H 571.453 -0.732135 -0.0845386 0
M  V30 6016 H 574.095 -1.83854 0.479341 0
M  V30 6017 H 572.245 -3.71153 -1.14795 0
M  V30 6018 H 573.917 -4.40555 1.36782 0
M  V30 6019 H 572.16 -4.1218 1.3524 0
M  V30 6020 H 572.831 -5.49958 0.474358 0
M  V30 6021 H 575.307 -4.07809 -0.826498 0
M  V30 6022 H 574.183 -5.27378 -1.52198 0
M  V30 6023 H 574.444 -3.74581 -2.34822 0
M  V30 6024 N 573.503 -0.0852151 -1.57369 0
M  V30 6025 C 574.413 0.891712 -2.16992 0
M  V30 6026 C 575.429 1.3174 -1.13669 0
M  V30 6027 O 576.605 1.38735 -1.45995 0
M  V30 6028 C 573.67 2.13635 -2.73059 0
M  V30 6029 C 572.731 1.7658 -3.91303 0
M  V30 6030 C 571.964 2.95111 -4.44686 0
M  V30 6031 O 572.187 4.09539 -3.97032 0
M  V30 6032 O 571.121 2.74149 -5.35841 0
M  V30 6033 H 574.947 0.414477 -3.00858 0
M  V30 6034 H 572.532 0.138598 -1.48756 0
M  V30 6035 H 574.414 2.86595 -3.08935 0
M  V30 6036 H 573.089 2.6043 -1.92244 0
M  V30 6037 H 571.996 1.00831 -3.60255 0
M  V30 6038 H 573.329 1.34557 -4.7345 0
M  V30 6039 N 574.981 1.5647 0.188427 0
M  V30 6040 C 576.392 1.70864 0.752494 0
M  V30 6041 C 576.743 0.692905 1.83557 0
M  V30 6042 O 575.868 -0.149307 2.15884 0
M  V30 6043 C 576.463 3.09789 1.37173 0
M  V30 6044 C 575.022 3.25925 1.88281 0
M  V30 6045 C 574.169 2.66817 0.755259 0
M  V30 6046 H 577.12 1.58657 -0.0367408 0
M  V30 6047 H 577.141 3.07489 2.24122 0
M  V30 6048 H 576.653 3.83693 0.583219 0
M  V30 6049 H 574.754 2.56948 2.6983 0
M  V30 6050 H 574.867 4.33498 2.04001 0
M  V30 6051 H 573.231 2.2617 1.17128 0
M  V30 6052 H 574.014 3.43294 -0.0211237 0
M  V30 6053 N 576.459 -0.456382 1.50847 0
M  V30 6054 C 577.684 -1.2349 1.66628 0
M  V30 6055 C 578.109 -1.84715 0.355254 0
M  V30 6056 O 577.467 -1.67961 -0.682559 0
M  V30 6057 C 577.515 -2.30865 2.77009 0
M  V30 6058 O 576.619 -3.35882 2.39285 0
M  V30 6059 H 575.96 -0.36266 0.556214 0
M  V30 6060 H 578.49 -0.541374 1.97308 0
M  V30 6061 H 578.5 -2.75949 3.00526 0
M  V30 6062 H 577.175 -1.85677 3.72152 0
M  V30 6063 H 575.752 -2.96406 2.26269 0
M  V30 6064 N 577.937 -1.40673 -0.710563 0
M  V30 6065 C 578.867 -1.44095 -1.83736 0
M  V30 6066 C 579.848 -0.301286 -1.67411 0
M  V30 6067 O 581.033 -0.510618 -1.87367 0
M  V30 6068 C 578.163 -1.30773 -3.21738 0
M  V30 6069 C 577.117 -2.42395 -3.52745 0
M  V30 6070 C 576.443 -2.14147 -4.89944 0
M  V30 6071 C 577.743 -3.84738 -3.53234 0
M  V30 6072 H 579.437 -2.38396 -1.81129 0
M  V30 6073 H 576.983 -1.14746 -0.870017 0
M  V30 6074 H 578.936 -1.31783 -4.00264 0
M  V30 6075 H 577.66 -0.329507 -3.24934 0
M  V30 6076 H 576.319 -2.40643 -2.76562 0
M  V30 6077 H 575.967 -1.14703 -4.89747 0
M  V30 6078 H 575.667 -2.88934 -5.11655 0
M  V30 6079 H 577.191 -2.16848 -5.70797 0
M  V30 6080 H 578.605 -3.88286 -4.2179 0
M  V30 6081 H 577.002 -4.59085 -3.86473 0
M  V30 6082 H 578.072 -4.13962 -2.52514 0
M  V30 6083 N 579.415 0.9433 -1.26252 0
M  V30 6084 C 580.365 2.02746 -1.04297 0
M  V30 6085 C 581.349 1.60882 0.0239435 0
M  V30 6086 O 582.541 1.75947 -0.192757 0
M  V30 6087 C 579.67 3.36585 -0.6757 0
M  V30 6088 C 578.756 3.84939 -1.77996 0
M  V30 6089 N 579.147 4.05966 -3.01704 0
M  V30 6090 C 577.445 4.13833 -1.66308 0
M  V30 6091 C 578.146 4.45987 -3.73458 0
M  V30 6092 N 577.122 4.52569 -3.01135 0
M  V30 6093 H 580.924 2.17012 -1.98199 0
M  V30 6094 H 578.438 1.12898 -1.16738 0
M  V30 6095 H 580.435 4.13896 -0.499571 0
M  V30 6096 H 579.095 3.2369 0.255863 0
M  V30 6097 H 580.106 3.92716 -3.37631 0
M  V30 6098 H 576.783 4.09739 -0.801267 0
M  V30 6099 H 578.173 4.70465 -4.79701 0
M  V30 6100 N 580.893 1.08022 1.14757 0
M  V30 6101 C 582.118 0.82895 1.90114 0
M  V30 6102 C 582.543 -0.612772 1.77839 0
M  V30 6103 O 581.901 -1.42895 1.11583 0
M  V30 6104 C 581.949 1.25062 3.38219 0
M  V30 6105 O 581.053 0.400119 4.10454 0
M  V30 6106 H 580.394 0.301412 0.591648 0
M  V30 6107 H 582.924 1.44062 1.45284 0
M  V30 6108 H 582.934 1.22977 3.89025 0
M  V30 6109 H 581.609 2.30067 3.46471 0
M  V30 6110 H 580.186 0.484052 3.69745 0
M  V30 6111 N 582.371 -1.3172 0.865308 0
M  V30 6112 C 583.619 -1.96487 0.472995 0
M  V30 6113 C 583.94 -1.68761 -0.976975 0
M  V30 6114 O 583.21 -1.00051 -1.68424 0
M  V30 6115 H 581.79 -0.726947 0.171922 0
M  V30 6116 H 584.452 -1.60612 1.10407 0
M  V30 6117 H 583.548 -3.0574 0.62687 0
M  V30 6118 N 583.85 -0.624285 -1.44708 0
M  V30 6119 C 585.099 -0.123539 -2.01321 0
M  V30 6120 C 585.412 1.25966 -1.49639 0
M  V30 6121 O 586.618 1.85405 -1.98336 0
M  V30 6122 C 585.074 -0.170124 -3.59498 0
M  V30 6123 C 584.682 -1.55421 -4.20176 0
M  V30 6124 C 586.426 0.274513 -4.23611 0
M  V30 6125 C 584.332 -1.55628 -5.70556 0
M  V30 6126 H 583.263 -0.0424183 -0.752806 0
M  V30 6127 H 585.913 -0.782076 -1.65999 0
M  V30 6128 H 584.296 0.555385 -3.92086 0
M  V30 6129 H 585.47 -2.30276 -3.99136 0
M  V30 6130 H 583.784 -1.94235 -3.68323 0
M  V30 6131 H 586.382 0.292402 -5.339 0
M  V30 6132 H 586.725 1.3005 -3.95465 0
M  V30 6133 H 587.258 -0.398275 -3.95801 0
M  V30 6134 H 583.997 -2.56041 -6.03426 0
M  V30 6135 H 583.517 -0.850563 -5.93739 0
M  V30 6136 H 585.196 -1.28721 -6.34066 0
M  V30 6137 N 585.328 1.53329 -0.364422 0
M  V30 6138 C 586.276 2.27212 0.497737 0
M  V30 6139 C 587.27 1.30146 1.08437 0
M  V30 6140 O 588.476 1.47778 1.0277 0
M  V30 6141 H 584.851 0.730329 0.179232 0
M  V30 6142 H 586.822 2.98037 -0.147182 0
M  V30 6143 C 585.571 3.07333 1.6261 0
M  V30 6144 H 584.894 3.81866 1.184 0
M  V30 6145 H 586.334 3.62209 2.20409 0
M  V30 6146 C 584.793 2.18102 2.56775 0
M  V30 6147 O 585.323 1.79104 3.59562 0
M  V30 6148 N 583.529 1.82759 2.25937 0
M  V30 6149 H 583.076 2.14671 1.42387 0
M  V30 6150 H 583.034 1.23342 2.89196 0
M  V30 6151 N 586.806 0.0935595 1.57322 0
M  V30 6152 C 587.769 -0.851426 2.12799 0
M  V30 6153 C 588.769 -1.21187 1.0569 0
M  V30 6154 O 589.959 -1.14156 1.31583 0
M  V30 6155 C 587.091 -2.14779 2.64731 0
M  V30 6156 H 588.284 -0.369733 2.97612 0
M  V30 6157 H 585.837 -0.155417 1.55525 0
M  V30 6158 H 586.572 -2.67437 1.83434 0
M  V30 6159 H 586.357 -1.89907 3.43042 0
M  V30 6160 H 587.847 -2.82383 3.07651 0
M  V30 6161 N 588.284 -1.56567 -0.180126 0
M  V30 6162 C 589.247 -1.94852 -1.20686 0
M  V30 6163 C 590.247 -0.831212 -1.3765 0
M  V30 6164 O 591.437 -1.09841 -1.35206 0
M  V30 6165 C 588.569 -2.23565 -2.57355 0
M  V30 6166 H 589.762 -2.86722 -0.879225 0
M  V30 6167 H 587.315 -1.50489 -0.422237 0
M  V30 6168 H 588.05 -1.34381 -2.95148 0
M  V30 6169 H 587.835 -3.04999 -2.46411 0
M  V30 6170 H 589.325 -2.54137 -3.31367 0
M  V30 6171 N 589.762 0.448376 -1.51087 0
M  V30 6172 C 591.008 1.20049 -1.6345 0
M  V30 6173 C 591.341 1.91121 -0.344444 0
M  V30 6174 O 590.616 1.83125 0.655396 0
M  V30 6175 C 590.899 2.22624 -2.83038 0
M  V30 6176 C 590.752 1.55708 -4.21989 0
M  V30 6177 C 592.071 3.23718 -2.98152 0
M  V30 6178 H 589.19 0.435085 -0.59487 0
M  V30 6179 H 591.832 0.491183 -1.83541 0
M  V30 6180 H 589.982 2.83117 -2.66039 0
M  V30 6181 H 591.654 0.986367 -4.50631 0
M  V30 6182 H 589.897 0.859647 -4.25197 0
M  V30 6183 H 590.568 2.30357 -5.01637 0
M  V30 6184 H 593.044 2.73269 -3.13788 0
M  V30 6185 H 591.92 3.92795 -3.83411 0
M  V30 6186 H 592.181 3.89179 -2.09743 0
M  V30 6187 N 591.24 1.41047 0.703093 0
M  V30 6188 C 592.17 1.45067 1.82969 0
M  V30 6189 C 593.151 0.31016 1.67248 0
M  V30 6190 O 594.336 0.520548 1.87093 0
M  V30 6191 C 591.466 1.32478 3.2104 0
M  V30 6192 C 590.42 2.44262 3.51454 0
M  V30 6193 C 589.746 2.16742 4.88801 0
M  V30 6194 C 591.046 3.86606 3.51189 0
M  V30 6195 H 592.74 2.39353 1.79863 0
M  V30 6196 H 590.286 1.15206 0.863919 0
M  V30 6197 H 592.239 1.33904 3.99559 0
M  V30 6198 H 590.963 0.346735 3.24754 0
M  V30 6199 H 589.622 2.42107 2.75282 0
M  V30 6200 H 589.27 1.17299 4.89132 0
M  V30 6201 H 588.97 2.91643 5.10116 0
M  V30 6202 H 590.494 2.19872 5.69639 0
M  V30 6203 H 591.908 3.90517 4.19725 0
M  V30 6204 H 590.305 4.61128 3.84033 0
M  V30 6205 H 591.375 4.15296 2.50315 0
M  V30 6206 N 592.718 -0.936591 1.26751 0
M  V30 6207 C 593.648 -2.05315 1.11212 0
M  V30 6208 C 594.629 -1.70092 0.0160262 0
M  V30 6209 O 595.814 -1.93279 0.188894 0
M  V30 6210 C 592.944 -3.39123 0.749171 0
M  V30 6211 C 591.898 -3.88425 1.79751 0
M  V30 6212 C 591.224 -5.18936 1.28876 0
M  V30 6213 C 592.524 -4.12798 3.19992 0
M  V30 6214 H 594.218 -2.18573 2.04613 0
M  V30 6215 H 591.764 -1.05027 0.985159 0
M  V30 6216 H 593.717 -4.16704 0.627323 0
M  V30 6217 H 592.441 -3.25855 -0.220543 0
M  V30 6218 H 591.1 -3.13028 1.90811 0
M  V30 6219 H 590.748 -5.02051 0.308757 0
M  V30 6220 H 590.448 -5.52892 1.98958 0
M  V30 6221 H 591.972 -5.99096 1.17967 0
M  V30 6222 H 593.386 -4.80977 3.11983 0
M  V30 6223 H 591.783 -4.58044 3.87705 0
M  V30 6224 H 592.853 -3.18412 3.65707 0
M  V30 6225 N 594.196 -1.08629 -1.14182 0
M  V30 6226 C 595.445 -0.812271 -1.84621 0
M  V30 6227 C 595.758 0.664313 -1.83973 0
M  V30 6228 O 596.964 1.05357 -2.50224 0
M  V30 6229 C 595.42 -1.4031 -3.31423 0
M  V30 6230 C 595.028 -2.91164 -3.40481 0
M  V30 6231 C 596.772 -1.20767 -4.06959 0
M  V30 6232 C 594.679 -3.43373 -4.81507 0
M  V30 6233 H 593.609 -0.30019 -0.691666 0
M  V30 6234 H 596.26 -1.30798 -1.28701 0
M  V30 6235 H 594.642 -0.835096 -3.87094 0
M  V30 6236 H 595.816 -3.5412 -2.94848 0
M  V30 6237 H 594.131 -3.09646 -2.78403 0
M  V30 6238 H 596.728 -1.57237 -5.11058 0
M  V30 6239 H 597.071 -0.147664 -4.16038 0
M  V30 6240 H 597.604 -1.74274 -3.57594 0
M  V30 6241 H 594.343 -4.48958 -4.77616 0
M  V30 6242 H 593.863 -2.85176 -5.27669 0
M  V30 6243 H 595.542 -3.40095 -5.50404 0
M  V30 6244 N 595.674 1.31259 -0.872281 0
M  V30 6245 C 596.637 2.26744 -0.334656 0
M  V30 6246 C 597.637 1.52307 0.515681 0
M  V30 6247 O 598.827 1.71148 0.324656 0
M  V30 6248 C 595.959 3.36841 0.524482 0
M  V30 6249 H 597.152 2.75812 -1.17762 0
M  V30 6250 H 594.705 1.42232 -0.648064 0
M  V30 6251 H 595.44 2.93069 1.38855 0
M  V30 6252 H 595.225 3.92009 -0.0844299 0
M  V30 6253 H 596.715 4.07944 0.892838 0
M  V30 6254 N 597.152 0.631951 1.44375 0
M  V30 6255 C 598.115 -0.0628142 2.29114 0
M  V30 6256 C 599.115 -0.771494 1.41084 0
M  V30 6257 O 600.305 -0.615959 1.62947 0
M  V30 6258 C 597.437 -1.09953 3.22681 0
M  V30 6259 H 598.63 0.682509 2.92031 0
M  V30 6260 H 596.183 0.392128 1.51301 0
M  V30 6261 H 596.918 -1.87481 2.64616 0
M  V30 6262 H 596.703 -0.595286 3.87555 0
M  V30 6263 H 598.193 -1.58538 3.86336 0
M  V30 6264 N 598.631 -1.53133 0.372548 0
M  V30 6265 C 599.879 -2.00958 -0.214534 0
M  V30 6266 C 600.2 -1.26135 -1.48711 0
M  V30 6267 O 599.47 -0.376597 -1.92246 0
M  V30 6268 H 598.05 -0.742456 -0.0822664 0
M  V30 6269 H 600.712 -1.88367 0.500385 0
M  V30 6270 H 599.808 -3.09031 -0.436605 0
M  V30 6271 N 600.109 -0.101901 -1.5727 0
M  V30 6272 C 601.041 0.884723 -2.11436 0
M  V30 6273 C 602.054 1.24149 -1.05314 0
M  V30 6274 O 603.243 1.19341 -1.3274 0
M  V30 6275 C 600.343 2.19179 -2.58484 0
M  V30 6276 C 599.516 2.00933 -3.88516 0
M  V30 6277 C 598.575 3.15213 -4.2134 0
M  V30 6278 O 597.601 2.88877 -4.90448 0
M  V30 6279 N 598.803 4.41174 -3.77288 0
M  V30 6280 H 601.568 0.422058 -2.96713 0
M  V30 6281 H 599.129 0.0830128 -1.61687 0
M  V30 6282 H 601.121 2.94593 -2.77484 0
M  V30 6283 H 599.691 2.56847 -1.7818 0
M  V30 6284 H 598.911 1.09809 -3.78597 0
M  V30 6285 H 600.199 1.86026 -4.73573 0
M  V30 6286 H 599.597 4.6545 -3.21516 0
M  V30 6287 H 598.154 5.13515 -4.01429 0
M  V30 6288 N 601.587 1.56661 0.17182 0
M  V30 6289 C 602.537 1.92781 1.21736 0
M  V30 6290 C 603.521 0.796065 1.39827 0
M  V30 6291 O 604.713 1.05924 1.41806 0
M  V30 6292 C 601.842 2.29079 2.55691 0
M  V30 6293 C 600.928 3.48765 2.41296 0
M  V30 6294 N 601.319 4.66022 1.96614 0
M  V30 6295 C 599.617 3.53362 2.72124 0
M  V30 6296 C 600.318 5.48159 1.94669 0
M  V30 6297 N 599.294 4.89189 2.37054 0
M  V30 6298 H 603.096 2.80926 0.863592 0
M  V30 6299 H 600.61 1.57889 0.380096 0
M  V30 6300 H 602.607 2.5315 3.31241 0
M  V30 6301 H 601.267 1.42272 2.91871 0
M  V30 6302 H 602.278 4.9025 1.66959 0
M  V30 6303 H 598.955 2.77033 3.12345 0
M  V30 6304 H 600.345 6.52121 1.61826 0
M  V30 6305 N 603.065 -0.440357 1.51323 0
M  V30 6306 C 604.312 -1.19004 1.63842 0
M  V30 6307 C 604.64 -1.91266 0.35321 0
M  V30 6308 O 603.895 -1.84143 -0.662565 0
M  V30 6309 C 604.194 -2.2339 2.78984 0
M  V30 6310 C 603.86 -1.68162 4.18369 0
M  V30 6311 C 602.522 -1.52823 4.56288 0
M  V30 6312 C 604.874 -1.27524 5.05358 0
M  V30 6313 C 602.202 -0.953157 5.78906 0
M  V30 6314 C 604.554 -0.714474 6.28552 0
M  V30 6315 C 603.218 -0.547961 6.65247 0
M  V30 6316 H 602.488 -0.435468 0.59954 0
M  V30 6317 H 605.135 -0.481538 1.85347 0
M  V30 6318 H 603.44 -3.00267 2.51688 0
M  V30 6319 H 605.137 -2.81211 2.85869 0
M  V30 6320 H 601.727 -1.81077 3.8847 0
M  V30 6321 H 605.911 -1.38197 4.76671 0
M  V30 6322 H 601.167 -0.811882 6.05986 0
M  V30 6323 H 605.341 -0.391059 6.95301 0
M  V30 6324 H 602.968 -0.100222 7.60134 0
M  V30 6325 N 604.543 -1.41418 -0.695603 0
M  V30 6326 C 605.453 -1.45622 -1.83933 0
M  V30 6327 C 606.469 -0.346825 -1.70508 0
M  V30 6328 O 607.645 -0.59454 -1.92424 0
M  V30 6329 C 604.71 -1.33627 -3.19914 0
M  V30 6330 C 603.771 -2.54882 -3.45447 0
M  V30 6331 C 603.004 -2.43449 -4.7494 0
M  V30 6332 O 603.227 -1.45905 -5.51424 0
M  V30 6333 O 602.161 -3.33206 -5.01256 0
M  V30 6334 H 605.987 -2.42114 -1.83342 0
M  V30 6335 H 603.572 -1.22956 -0.848658 0
M  V30 6336 H 605.454 -1.29221 -4.01098 0
M  V30 6337 H 604.129 -0.402508 -3.21188 0
M  V30 6338 H 603.036 -2.64865 -2.64192 0
M  V30 6339 H 604.369 -3.47087 -3.48987 0
M  V30 6340 N 606.021 0.929856 -1.27246 0
M  V30 6341 C 607.298 1.65544 -1.04186 0
M  V30 6342 C 607.678 2.06796 0.424097 0
M  V30 6343 O 607.026 1.80053 1.40688 0
M  V30 6344 C 607.236 2.85912 -2.00138 0
M  V30 6345 C 608.584 3.57305 -2.29387 0
M  V30 6346 O 609.608 2.96036 -1.98094 0
M  V30 6347 O 608.467 4.67688 -2.82719 0
M  V30 6348 H 605.561 0.725473 -0.397011 0
M  V30 6349 H 608.107 0.980583 -1.38501 0
M  V30 6350 H 606.879 2.52403 -2.99013 0
M  V30 6351 H 606.502 3.61118 -1.66371 0
M  V30 6352 N 607.499 1.09233 1.13605 0
M  V30 6353 C 608.724 0.849067 1.89224 0
M  V30 6354 C 609.149 -0.593875 1.78479 0
M  V30 6355 O 608.507 -1.41703 1.13092 0
M  V30 6356 C 608.555 1.28642 3.36873 0
M  V30 6357 O 607.659 0.44363 4.10007 0
M  V30 6358 H 607 0.30767 0.588417 0
M  V30 6359 H 609.53 1.45595 1.43748 0
M  V30 6360 H 609.54 1.27096 3.87699 0
M  V30 6361 H 608.215 2.33729 3.44011 0
M  V30 6362 H 606.792 0.523241 3.69211 0
M  V30 6363 N 608.977 -1.30795 0.87923 0
M  V30 6364 C 609.924 -2.28282 0.339968 0
M  V30 6365 C 610.894 -1.56134 -0.566685 0
M  V30 6366 O 612.079 -1.84231 -0.496338 0
M  V30 6367 C 609.219 -3.42225 -0.444501 0
M  V30 6368 C 608.332 -4.29204 0.490717 0
M  V30 6369 C 607.467 -5.30302 -0.308784 0
M  V30 6370 C 606.506 -6.08929 0.622272 0
M  V30 6371 N 605.643 -7.01957 -0.14155 0
M  V30 6372 H 610.483 -2.73794 1.17647 0
M  V30 6373 H 608.02 -1.34682 0.591527 0
M  V30 6374 H 609.978 -4.07038 -0.915186 0
M  V30 6375 H 608.608 -2.97799 -1.24562 0
M  V30 6376 H 607.66 -3.6475 1.07988 0
M  V30 6377 H 608.972 -4.84045 1.20425 0
M  V30 6378 H 608.126 -6.00835 -0.841575 0
M  V30 6379 H 606.865 -4.7614 -1.05556 0
M  V30 6380 H 605.87 -5.37278 1.16674 0
M  V30 6381 H 607.095 -6.65178 1.36804 0
M  V30 6382 H 605.041 -6.50192 -0.870966 0
M  V30 6383 H 604.958 -7.54261 0.51246 0
M  V30 6384 H 606.226 -7.76741 -0.655271 0
M  V30 6385 N 610.455 -0.639598 -1.44038 0
M  V30 6386 C 611.365 0.0612377 -2.3452 0
M  V30 6387 C 612.381 0.826717 -1.53106 0
M  V30 6388 O 613.557 0.777059 -1.85806 0
M  V30 6389 C 610.622 1.02492 -3.31204 0
M  V30 6390 C 609.683 0.25788 -4.28525 0
M  V30 6391 C 608.916 1.17566 -5.2059 0
M  V30 6392 O 609.139 2.41461 -5.16771 0
M  V30 6393 O 608.073 0.655407 -5.98321 0
M  V30 6394 H 611.899 -0.68318 -2.95916 0
M  V30 6395 H 609.484 -0.399784 -1.43952 0
M  V30 6396 H 611.366 1.57911 -3.90694 0
M  V30 6397 H 610.041 1.7498 -2.7233 0
M  V30 6398 H 608.948 -0.339566 -3.72556 0
M  V30 6399 H 610.281 -0.427154 -4.90343 0
M  V30 6400 N 611.933 1.52934 -0.380664 0
M  V30 6401 C 612.863 2.29118 0.450268 0
M  V30 6402 C 613.844 1.32153 1.07096 0
M  V30 6403 O 615.029 1.61038 1.08537 0
M  V30 6404 C 612.159 3.09161 1.58231 0
M  V30 6405 C 611.113 4.13938 1.0881 0
M  V30 6406 C 610.439 4.82153 2.31155 0
M  V30 6407 C 611.739 5.22048 0.162146 0
M  V30 6408 H 613.433 2.98826 -0.185361 0
M  V30 6409 H 610.979 1.43715 -0.0905886 0
M  V30 6410 H 612.932 3.61211 2.17036 0
M  V30 6411 H 611.656 2.3717 2.2454 0
M  V30 6412 H 610.315 3.62855 0.522633 0
M  V30 6413 H 609.963 4.06719 2.95953 0
M  V30 6414 H 609.663 5.52966 1.98752 0
M  V30 6415 H 611.187 5.37004 2.90618 0
M  V30 6416 H 612.601 5.6951 0.658126 0
M  V30 6417 H 610.998 6.00057 -0.0717122 0
M  V30 6418 H 612.068 4.78398 -0.791438 0
M  V30 6419 N 613.412 0.11024 1.57214 0
M  V30 6420 C 614.828 -0.24638 1.57687 0
M  V30 6421 C 615.028 -1.67344 1.12241 0
M  V30 6422 O 614.084 -2.39298 0.805783 0
M  V30 6423 C 615.397 -0.0210288 3.00693 0
M  V30 6424 C 616.945 -0.0876077 3.12877 0
M  V30 6425 C 617.42 0.10994 4.57868 0
M  V30 6426 N 618.911 0.0556135 4.63167 0
M  V30 6427 C 619.646 0.183495 5.73106 0
M  V30 6428 N 619.142 0.367058 6.91827 0
M  V30 6429 N 620.935 0.123689 5.61964 0
M  V30 6430 H 613.086 1.04246 1.85058 0
M  V30 6431 H 615.349 0.40979 0.854854 0
M  V30 6432 H 615.055 0.965203 3.38196 0
M  V30 6433 H 614.929 -0.756748 3.69531 0
M  V30 6434 H 617.316 -1.06436 2.75237 0
M  V30 6435 H 617.397 0.67985 2.466 0
M  V30 6436 H 617.041 1.08362 4.96206 0
M  V30 6437 H 616.971 -0.677397 5.22225 0
M  V30 6438 H 619.462 -0.0831062 3.77809 0
M  V30 6439 H 619.775 0.455739 7.71455 0
M  V30 6440 H 618.12 0.40292 6.93831 0
M  V30 6441 H 621.311 -0.0186928 4.68096 0
M  V30 6442 H 621.484 0.226797 6.47603 0
M  V30 6443 N 614.89 -1.56749 -0.16351 0
M  V30 6444 C 615.82 -2.00042 -1.20438 0
M  V30 6445 C 616.801 -0.877256 -1.45733 0
M  V30 6446 O 617.986 -1.1439 -1.56935 0
M  V30 6447 C 615.116 -2.36697 -2.54149 0
M  V30 6448 C 614.07 -3.52046 -2.43408 0
M  V30 6449 C 613.396 -3.74466 -3.81679 0
M  V30 6450 C 614.696 -4.85247 -1.93216 0
M  V30 6451 H 616.39 -2.87244 -0.844477 0
M  V30 6452 H 613.936 -1.38194 -0.40478 0
M  V30 6453 H 615.889 -2.65582 -3.27176 0
M  V30 6454 H 614.613 -1.46414 -2.91943 0
M  V30 6455 H 613.272 -3.23301 -1.72834 0
M  V30 6456 H 612.92 -2.81461 -4.1688 0
M  V30 6457 H 612.62 -4.52084 -3.75359 0
M  V30 6458 H 614.144 -4.0576 -4.5628 0
M  V30 6459 H 615.558 -5.12957 -2.56023 0
M  V30 6460 H 613.955 -5.66556 -1.97825 0
M  V30 6461 H 615.025 -4.7672 -0.88689 0
M  V30 6462 N 616.368 0.432326 -1.51554 0
M  V30 6463 C 617.617 1.17831 -1.63703 0
M  V30 6464 C 617.93 1.92229 -0.36156 0
M  V30 6465 O 619.136 2.69069 -0.362495 0
M  V30 6466 C 617.592 2.14318 -2.89129 0
M  V30 6467 C 617.2 1.45544 -4.23699 0
M  V30 6468 C 618.944 2.89319 -3.10636 0
M  V30 6469 C 616.851 2.40545 -5.4027 0
M  V30 6470 H 615.781 0.443533 -0.60975 0
M  V30 6471 H 618.432 0.444878 -1.78026 0
M  V30 6472 H 616.814 2.91117 -2.68452 0
M  V30 6473 H 617.988 0.742693 -4.54775 0
M  V30 6474 H 616.303 0.826772 -4.0811 0
M  V30 6475 H 618.9 3.60495 -3.94902 0
M  V30 6476 H 619.243 3.50951 -2.23918 0
M  V30 6477 H 619.776 2.19625 -3.31677 0
M  V30 6478 H 616.515 1.83594 -6.29264 0
M  V30 6479 H 616.035 3.09859 -5.13563 0
M  V30 6480 H 617.714 3.01569 -5.72421 0
M  V30 6481 N 617.846 1.41785 0.688094 0
M  V30 6482 C 619.094 1.41264 1.4453 0
M  V30 6483 C 619.415 0.0252946 1.94984 0
M  V30 6484 O 618.685 -0.934081 1.72197 0
M  V30 6485 H 617.265 0.519998 0.536294 0
M  V30 6486 H 619.927 1.7709 0.813941 0
M  V30 6487 H 619.023 2.10439 2.30482 0
M  V30 6488 N 619.324 -0.923095 1.27737 0
M  V30 6489 C 620.257 -2.02515 1.05181 0
M  V30 6490 C 621.235 -1.62574 -0.0292204 0
M  V30 6491 O 622.419 -1.88137 0.116848 0
M  V30 6492 C 619.546 -3.33407 0.596468 0
M  V30 6493 C 618.592 -3.92328 1.67276 0
M  V30 6494 S 619.425 -4.24342 3.26641 0
M  V30 6495 C 620.581 -5.58308 2.82919 0
M  V30 6496 H 620.814 -2.21336 1.98488 0
M  V30 6497 H 618.347 -1.06679 1.1162 0
M  V30 6498 H 620.305 -4.09086 0.34044 0
M  V30 6499 H 618.966 -3.125 -0.316614 0
M  V30 6500 H 618.159 -4.86797 1.30556 0
M  V30 6501 H 617.761 -3.2325 1.8811 0
M  V30 6502 H 620.053 -6.37801 2.28509 0
M  V30 6503 H 620.996 -5.99931 3.7615 0
M  V30 6504 H 621.404 -5.19049 2.21919 0
M  V30 6505 N 620.802 -1.09834 -1.13024 0
M  V30 6506 C 621.749 -0.741522 -2.18564 0
M  V30 6507 C 622.719 0.279236 -1.63736 0
M  V30 6508 O 623.904 0.159923 -1.90129 0
M  V30 6509 C 621.044 -0.17277 -3.44667 0
M  V30 6510 C 620.157 -1.24808 -4.13578 0
M  V30 6511 C 619.292 -0.641631 -5.27311 0
M  V30 6512 C 618.331 -1.69795 -5.88078 0
M  V30 6513 N 617.468 -1.11223 -6.93234 0
M  V30 6514 H 622.308 -1.64576 -2.48432 0
M  V30 6515 H 619.845 -0.822174 -1.21978 0
M  V30 6516 H 621.803 0.17482 -4.16834 0
M  V30 6517 H 620.433 0.694725 -3.15235 0
M  V30 6518 H 619.485 -1.71288 -3.39653 0
M  V30 6519 H 620.797 -2.04795 -4.54819 0
M  V30 6520 H 619.951 -0.243128 -6.06213 0
M  V30 6521 H 618.69 0.189742 -4.87331 0
M  V30 6522 H 617.695 -2.10595 -5.07868 0
M  V30 6523 H 618.92 -2.53206 -6.3013 0
M  V30 6524 H 616.866 -0.302208 -6.55304 0
M  V30 6525 H 616.783 -1.84901 -7.3304 0
M  V30 6526 H 618.051 -0.740068 -7.75979 0
M  V30 6527 N 622.28 1.30327 -0.886154 0
M  V30 6528 C 623.21 2.30549 -0.370028 0
M  V30 6529 C 624.191 1.61039 0.547751 0
M  V30 6530 O 625.376 1.8864 0.461353 0
M  V30 6531 C 622.506 3.44808 0.415275 0
M  V30 6532 C 621.46 4.26024 -0.41085 0
M  V30 6533 C 620.786 5.32347 0.501128 0
M  V30 6534 C 622.086 4.95433 -1.65359 0
M  V30 6535 H 623.78 2.73969 -1.20754 0
M  V30 6536 H 621.326 1.3171 -0.582097 0
M  V30 6537 H 623.279 4.13986 0.78699 0
M  V30 6538 H 622.003 3.00197 1.28644 0
M  V30 6539 H 620.662 3.58535 -0.764719 0
M  V30 6540 H 620.31 4.83982 1.37004 0
M  V30 6541 H 620.01 5.87581 -0.0478356 0
M  V30 6542 H 621.534 6.0438 0.869333 0
M  V30 6543 H 622.948 5.5712 -1.35239 0
M  V30 6544 H 621.345 5.60537 -2.14284 0
M  V30 6545 H 622.415 4.21493 -2.39733 0
M  V30 6546 N 623.758 0.647228 1.43697 0
M  V30 6547 C 625.006 0.157876 2.01482 0
M  V30 6548 C 625.327 -1.23039 1.51282 0
M  V30 6549 O 624.597 -1.82071 0.722982 0
M  V30 6550 H 623.177 0.0553745 0.744945 0
M  V30 6551 H 625.839 0.83755 1.75986 0
M  V30 6552 H 624.935 0.137895 3.11795 0
M  V30 6553 N 625.236 -1.5273 0.388769 0
M  V30 6554 C 626.476 -2.03483 -0.193372 0
M  V30 6555 C 626.84 -1.26897 -1.44087 0
M  V30 6556 O 628.041 -1.67773 -2.10014 0
M  V30 6557 C 626.312 -3.54488 -0.455325 0
M  V30 6558 S 627.871 -4.27069 -1.00783 0
M  V30 6559 H 624.689 -0.708907 -0.0545131 0
M  V30 6560 H 627.291 -1.8798 0.536993 0
M  V30 6561 H 625.995 -4.07817 0.459722 0
M  V30 6562 H 625.526 -3.74196 -1.21413 0
M  V30 6563 H 627.541 -4.40185 -2.29023 0
M  V30 6564 N 626.714 -0.118576 -1.57153 0
M  V30 6565 C 627.644 0.828436 -2.1831 0
M  V30 6566 C 628.625 1.27758 -1.12303 0
M  V30 6567 O 629.81 1.34026 -1.40537 0
M  V30 6568 C 626.94 2.07876 -2.78217 0
M  V30 6569 C 625.894 1.76742 -3.89803 0
M  V30 6570 C 625.22 3.08801 -4.36516 0
M  V30 6571 C 626.52 1.03606 -5.11921 0
M  V30 6572 H 628.214 0.318824 -2.97698 0
M  V30 6573 H 625.76 0.151911 -1.43196 0
M  V30 6574 H 627.713 2.74584 -3.19659 0
M  V30 6575 H 626.437 2.61161 -1.96118 0
M  V30 6576 H 625.096 1.12424 -3.48936 0
M  V30 6577 H 624.744 3.6002 -3.51276 0
M  V30 6578 H 624.444 2.88743 -5.11763 0
M  V30 6579 H 625.968 3.76627 -4.80608 0
M  V30 6580 H 627.382 1.60467 -5.50385 0
M  V30 6581 H 625.779 0.936454 -5.92748 0
M  V30 6582 H 626.849 0.0227421 -4.84895 0
M  V30 6583 N 628.193 1.56834 0.155195 0
M  V30 6584 C 629.123 2.00678 1.19376 0
M  V30 6585 C 630.104 0.884973 1.45266 0
M  V30 6586 O 631.289 1.1522 1.56326 0
M  V30 6587 C 628.419 2.38042 2.5289 0
M  V30 6588 C 627.373 3.53332 2.41538 0
M  V30 6589 C 626.699 3.76485 3.79688 0
M  V30 6590 C 627.999 4.86265 1.9064 0
M  V30 6591 H 629.693 2.87688 0.829232 0
M  V30 6592 H 627.239 1.38407 0.397445 0
M  V30 6593 H 629.192 2.67314 3.25763 0
M  V30 6594 H 627.916 1.4796 2.91162 0
M  V30 6595 H 626.575 3.24213 1.71117 0
M  V30 6596 H 626.223 2.83667 4.15382 0
M  V30 6597 H 625.923 4.54068 3.72956 0
M  V30 6598 H 627.447 4.08174 4.54122 0
M  V30 6599 H 628.861 5.14308 2.53299 0
M  V30 6600 H 627.258 5.67597 1.94818 0
M  V30 6601 H 628.328 4.77184 0.861596 0
M  V30 6602 N 629.671 -0.424282 1.51781 0
M  V30 6603 C 630.634 -1.49848 1.73431 0
M  V30 6604 C 631.634 -1.49016 0.604225 0
M  V30 6605 O 632.824 -1.50808 0.871935 0
M  V30 6606 C 629.956 -2.89332 1.80277 0
M  V30 6607 H 631.149 -1.3195 2.69312 0
M  V30 6608 H 628.702 -0.653809 1.41968 0
M  V30 6609 H 629.437 -3.12618 0.862568 0
M  V30 6610 H 629.222 -2.9134 2.62419 0
M  V30 6611 H 630.712 -3.67233 1.98821 0
M  V30 6612 N 631.149 -1.42148 -0.680565 0
M  V30 6613 C 632.565 -1.24947 -0.992995 0
M  V30 6614 C 632.765 -0.149527 -2.00944 0
M  V30 6615 O 631.821 0.481145 -2.47873 0
M  V30 6616 C 633.134 -2.60426 -1.5033 0
M  V30 6617 C 634.682 -2.67733 -1.62137 0
M  V30 6618 C 635.157 -4.03564 -2.16565 0
M  V30 6619 N 636.648 -4.05488 -2.23905 0
M  V30 6620 C 637.383 -5.07401 -2.67081 0
M  V30 6621 N 636.879 -6.19698 -3.09751 0
M  V30 6622 N 638.672 -4.94758 -2.66778 0
M  V30 6623 H 630.823 -2.12399 -0.0074788 0
M  V30 6624 H 633.086 -0.94571 -0.0658529 0
M  V30 6625 H 632.792 -3.41743 -0.830947 0
M  V30 6626 H 632.666 -2.83949 -2.483 0
M  V30 6627 H 635.053 -1.86765 -2.2848 0
M  V30 6628 H 635.134 -2.48004 -0.626713 0
M  V30 6629 H 634.778 -4.84987 -1.50833 0
M  V30 6630 H 634.708 -4.20641 -3.1681 0
M  V30 6631 H 637.199 -3.24415 -1.93812 0
M  V30 6632 H 637.512 -6.93318 -3.41365 0
M  V30 6633 H 635.857 -6.23212 -3.07623 0
M  V30 6634 H 639.048 -4.06105 -2.32801 0
M  V30 6635 H 639.221 -5.74317 -3.00107 0
M  V30 6636 N 632.627 0.916307 -1.28225 0
M  V30 6637 C 633.574 2.01841 -1.11932 0
M  V30 6638 C 634.544 1.66091 -0.0171604 0
M  V30 6639 O 635.729 1.89934 -0.181617 0
M  V30 6640 C 632.869 3.36065 -0.784504 0
M  V30 6641 C 631.982 3.847 -1.96544 0
M  V30 6642 C 631.117 5.07423 -1.57149 0
M  V30 6643 C 630.156 5.48384 -2.71922 0
M  V30 6644 N 629.293 6.62298 -2.33037 0
M  V30 6645 H 634.133 2.1511 -2.06232 0
M  V30 6646 H 631.67 1.05366 -1.02647 0
M  V30 6647 H 633.628 4.13272 -0.571148 0
M  V30 6648 H 632.258 3.22571 0.121565 0
M  V30 6649 H 631.31 3.03673 -2.291 0
M  V30 6650 H 632.622 4.1102 -2.82603 0
M  V30 6651 H 631.776 5.92165 -1.32004 0
M  V30 6652 H 630.515 4.82906 -0.682153 0
M  V30 6653 H 629.52 4.62184 -2.97768 0
M  V30 6654 H 630.745 5.7489 -3.61494 0
M  V30 6655 H 628.691 6.39416 -1.4657 0
M  V30 6656 H 628.608 6.8833 -3.12631 0
M  V30 6657 H 629.876 7.50352 -2.11169 0
M  V30 6658 N 634.105 1.10431 1.1244 0
M  V30 6659 C 635.353 0.845045 1.83585 0
M  V30 6660 C 635.674 -0.631168 1.84503 0
M  V30 6661 O 634.944 -1.45825 1.30813 0
M  V30 6662 H 633.524 0.309628 0.679809 0
M  V30 6663 H 636.186 1.39458 1.36153 0
M  V30 6664 H 635.282 1.20786 2.8778 0
M  V30 6665 N 635.583 -1.29855 0.893053 0
M  V30 6666 C 636.823 -1.97612 0.522399 0
M  V30 6667 C 637.187 -1.68903 -0.913 0
M  V30 6668 O 638.388 -2.30059 -1.39019 0
M  V30 6669 C 636.659 -3.48356 0.79893 0
M  V30 6670 S 638.218 -4.35568 0.531588 0
M  V30 6671 H 635.036 -0.684005 0.194058 0
M  V30 6672 H 637.638 -1.57803 1.15406 0
M  V30 6673 H 636.342 -3.66743 1.84196 0
M  V30 6674 H 635.873 -3.93094 0.155133 0
M  V30 6675 H 637.888 -4.92232 -0.626295 0
M  V30 6676 N 637.061 -0.65484 -1.43351 0
M  V30 6677 C 638.307 -0.169142 -2.02093 0
M  V30 6678 C 638.64 1.21431 -1.51553 0
M  V30 6679 O 637.915 1.81105 -0.709317 0
M  V30 6680 C 638.198 -0.181775 -3.59641 0
M  V30 6681 C 638.051 -1.59926 -4.20409 0
M  V30 6682 C 639.37 0.480945 -4.37464 0
M  V30 6683 H 636.489 -0.0629371 -0.734308 0
M  V30 6684 H 639.131 -0.835833 -1.70628 0
M  V30 6685 H 637.281 0.385918 -3.86578 0
M  V30 6686 H 638.953 -2.21766 -4.04497 0
M  V30 6687 H 637.196 -2.14605 -3.76998 0
M  V30 6688 H 637.867 -1.55994 -5.295 0
M  V30 6689 H 640.343 -0.00208273 -4.161 0
M  V30 6690 H 639.219 0.441384 -5.47122 0
M  V30 6691 H 639.48 1.55533 -4.13838 0
M  V30 6692 N 638.539 1.52521 -0.396863 0
M  V30 6693 C 639.449 2.30403 0.44178 0
M  V30 6694 C 640.465 1.37625 1.06468 0
M  V30 6695 O 641.641 1.70697 1.06886 0
M  V30 6696 C 638.706 3.1013 1.54986 0
M  V30 6697 C 637.767 4.18628 0.951279 0
M  V30 6698 C 637 4.94543 2.00655 0
M  V30 6699 O 637.223 4.70629 3.22281 0
M  V30 6700 O 636.157 5.797 1.61962 0
M  V30 6701 H 639.983 3.03087 -0.192892 0
M  V30 6702 H 637.568 1.48537 -0.16038 0
M  V30 6703 H 639.45 3.59816 2.19341 0
M  V30 6704 H 638.125 2.40251 2.16935 0
M  V30 6705 H 637.032 3.73119 0.270773 0
M  V30 6706 H 638.365 4.90763 0.375887 0
M  V30 6707 N 640.017 0.126909 1.57088 0
M  V30 6708 C 640.964 -0.82036 2.15728 0
M  V30 6709 C 641.934 -1.25811 1.08447 0
M  V30 6710 O 643.119 -1.33422 1.36393 0
M  V30 6711 C 640.259 -2.06199 2.76724 0
M  V30 6712 C 639.372 -1.67188 3.98337 0
M  V30 6713 C 638.507 -2.86378 4.47393 0
M  V30 6714 C 637.546 -2.43644 5.61519 0
M  V30 6715 N 636.683 -3.55775 6.05284 0
M  V30 6716 H 641.523 -0.313472 2.96347 0
M  V30 6717 H 639.06 -0.14303 1.46403 0
M  V30 6718 H 641.018 -2.78959 3.10222 0
M  V30 6719 H 639.648 -2.54333 1.98782 0
M  V30 6720 H 638.7 -0.842714 3.70948 0
M  V30 6721 H 640.012 -1.31789 4.81075 0
M  V30 6722 H 639.166 -3.67353 4.82842 0
M  V30 6723 H 637.905 -3.25009 3.63621 0
M  V30 6724 H 636.91 -1.61104 5.25667 0
M  V30 6725 H 638.135 -2.06122 6.47063 0
M  V30 6726 H 636.081 -3.94065 5.24451 0
M  V30 6727 H 635.998 -3.24325 6.82898 0
M  V30 6728 H 637.266 -4.37166 6.45373 0
M  V30 6729 N 641.495 -1.56914 -0.146875 0
M  V30 6730 C 642.428 -1.93425 -1.21087 0
M  V30 6731 C 643.406 -0.800106 -1.41552 0
M  V30 6732 O 644.59 -1.05572 -1.56162 0
M  V30 6733 C 641.717 -2.20639 -2.56975 0
M  V30 6734 C 640.763 -3.43279 -2.53104 0
M  V30 6735 S 641.596 -4.96836 -1.99786 0
M  V30 6736 C 642.752 -5.27172 -3.37403 0
M  V30 6737 H 642.985 -2.8337 -0.899378 0
M  V30 6738 H 640.518 -1.50322 -0.352494 0
M  V30 6739 H 642.476 -2.36998 -3.35175 0
M  V30 6740 H 641.137 -1.31357 -2.85314 0
M  V30 6741 H 640.33 -3.59599 -3.53136 0
M  V30 6742 H 639.932 -3.26163 -1.83012 0
M  V30 6743 H 642.224 -5.20647 -4.33513 0
M  V30 6744 H 643.167 -6.28626 -3.25937 0
M  V30 6745 H 643.575 -4.54687 -3.34544 0
M  V30 6746 N 642.974 0.416227 -1.52004 0
M  V30 6747 C 643.906 1.52552 -1.71058 0
M  V30 6748 C 644.919 1.51693 -0.59102 0
M  V30 6749 O 646.108 1.56087 -0.865973 0
M  V30 6750 C 643.208 2.91455 -1.72937 0
M  V30 6751 C 642.381 3.16584 -3.01816 0
M  V30 6752 C 641.44 4.35322 -2.95603 0
M  V30 6753 O 640.466 4.32947 -3.6952 0
M  V30 6754 N 641.668 5.40049 -2.12903 0
M  V30 6755 H 644.433 1.36604 -2.66757 0
M  V30 6756 H 641.994 0.60544 -1.50153 0
M  V30 6757 H 643.986 3.68944 -1.66321 0
M  V30 6758 H 642.556 3.00895 -0.847418 0
M  V30 6759 H 641.776 2.27203 -3.22137 0
M  V30 6760 H 643.064 3.30213 -3.87088 0
M  V30 6761 H 642.462 5.44823 -1.52265 0
M  V30 6762 H 641.019 6.16308 -2.1215 0
M  V30 6763 N 644.452 1.42507 0.673017 0
M  V30 6764 C 645.682 1.46261 1.45916 0
M  V30 6765 C 646.09 0.0729724 1.89059 0
M  V30 6766 O 645.433 -0.922987 1.58829 0
M  V30 6767 C 645.495 2.32853 2.73898 0
M  V30 6768 C 645.159 3.80699 2.52819 0
M  V30 6769 C 646.156 4.72307 2.17306 0
M  V30 6770 C 643.841 4.24983 2.67758 0
M  V30 6771 C 645.835 6.06192 1.97003 0
M  V30 6772 C 643.522 5.58927 2.4707 0
M  V30 6773 C 644.52 6.49348 2.11746 0
M  V30 6774 O 644.208 7.80817 1.91259 0
M  V30 6775 H 643.94 0.499561 0.455428 0
M  V30 6776 H 646.494 1.87697 0.834196 0
M  V30 6777 H 644.724 1.86268 3.38882 0
M  V30 6778 H 646.413 2.28041 3.35786 0
M  V30 6779 H 647.179 4.39378 2.05359 0
M  V30 6780 H 643.058 3.54893 2.94231 0
M  V30 6781 H 646.602 6.76731 1.69355 0
M  V30 6782 H 642.499 5.91429 2.58615 0
M  V30 6783 H 643.267 7.92194 2.05843 0
M  V30 6784 N 645.93 -0.909495 1.28709 0
M  V30 6785 C 647.16 -1.69027 1.188 0
M  V30 6786 C 647.568 -1.87469 -0.255329 0
M  V30 6787 O 646.911 -1.40458 -1.18394 0
M  V30 6788 C 646.973 -3.10064 1.81936 0
M  V30 6789 C 646.637 -3.14891 3.31199 0
M  V30 6790 C 647.634 -2.95768 4.27571 0
M  V30 6791 C 645.319 -3.37269 3.7223 0
M  V30 6792 C 647.313 -2.98942 5.6295 0
M  V30 6793 C 645 -3.40074 5.07733 0
M  V30 6794 C 645.998 -3.20932 6.02903 0
M  V30 6795 O 645.686 -3.23507 7.35934 0
M  V30 6796 H 645.418 -0.535014 0.413203 0
M  V30 6797 H 647.972 -1.14645 1.70428 0
M  V30 6798 H 646.202 -3.66005 1.24808 0
M  V30 6799 H 647.891 -3.70185 1.66486 0
M  V30 6800 H 648.657 -2.78302 3.97206 0
M  V30 6801 H 644.536 -3.51212 2.98615 0
M  V30 6802 H 648.08 -2.83919 6.37209 0
M  V30 6803 H 643.977 -3.5707 5.37747 0
M  V30 6804 H 644.745 -3.3984 7.44615 0
M  V30 6805 N 647.408 -1.11026 -1.11852 0
M  V30 6806 C 648.654 -0.867633 -1.83967 0
M  V30 6807 C 649.009 0.600309 -1.82795 0
M  V30 6808 O 648.302 1.43731 -1.26696 0
M  V30 6809 C 648.496 -1.35777 -3.30604 0
M  V30 6810 C 648.325 -2.87183 -3.46058 0
M  V30 6811 C 647.095 -3.55256 -3.59334 0
M  V30 6812 C 649.293 -3.85258 -3.40706 0
M  V30 6813 N 647.275 -4.94923 -3.63215 0
M  V30 6814 C 648.646 -5.1097 -3.51155 0
M  V30 6815 C 650.701 -3.77879 -3.2421 0
M  V30 6816 C 649.404 -6.30171 -3.46809 0
M  V30 6817 C 651.43 -4.96586 -3.2118 0
M  V30 6818 C 650.792 -6.21149 -3.32196 0
M  V30 6819 H 646.891 -0.370574 -0.688621 0
M  V30 6820 H 649.475 -1.41379 -1.33865 0
M  V30 6821 H 647.646 -0.83885 -3.79233 0
M  V30 6822 H 649.378 -1.05874 -3.90606 0
M  V30 6823 H 646.133 -3.05714 -3.61713 0
M  V30 6824 H 646.557 -5.67726 -3.68804 0
M  V30 6825 H 651.199 -2.82485 -3.14582 0
M  V30 6826 H 648.917 -7.25847 -3.55206 0
M  V30 6827 H 652.503 -4.92591 -3.09589 0
M  V30 6828 H 651.383 -7.11463 -3.29834 0
M  V30 6829 N 648.886 1.2938 -0.899927 0
M  V30 6830 C 650.163 1.9046 -0.445443 0
M  V30 6831 C 650.543 1.81683 1.07492 0
M  V30 6832 O 649.891 1.24371 1.91688 0
M  V30 6833 C 650.101 3.35529 -0.960279 0
M  V30 6834 C 651.449 4.12556 -1.00412 0
M  V30 6835 O 652.473 3.44434 -0.907965 0
M  V30 6836 O 651.332 5.34294 -1.14857 0
M  V30 6837 H 648.426 0.815253 -0.138893 0
M  V30 6838 H 650.972 1.37844 -0.989808 0
M  V30 6839 H 649.744 3.36074 -2.00425 0
M  V30 6840 H 649.367 3.95624 -0.395939 0
M  V30 6841 N 650.364 0.662433 1.43002 0
M  V30 6842 C 651.61 0.179857 2.02001 0
M  V30 6843 C 651.943 -1.20625 1.52195 0
M  V30 6844 O 651.218 -1.80726 0.718911 0
M  V30 6845 C 651.501 0.200845 3.59539 0
M  V30 6846 C 651.354 1.62153 4.19555 0
M  V30 6847 C 652.673 -0.457738 4.37713 0
M  V30 6848 H 649.792 0.0668305 0.733964 0
M  V30 6849 H 652.434 0.84487 1.70182 0
M  V30 6850 H 650.584 -0.365411 3.86778 0
M  V30 6851 H 652.256 2.23908 4.03315 0
M  V30 6852 H 650.499 2.16601 3.75854 0
M  V30 6853 H 651.17 1.58799 5.28665 0
M  V30 6854 H 653.646 0.0241495 4.16093 0
M  V30 6855 H 652.522 -0.412363 5.47349 0
M  V30 6856 H 652.783 -1.53336 4.14657 0
M  V30 6857 N 651.842 -1.52309 0.404946 0
M  V30 6858 C 653.09 -2.01368 -0.17186 0
M  V30 6859 C 653.411 -1.29261 -1.46002 0
M  V30 6860 O 652.681 -0.41729 -1.91404 0
M  V30 6861 H 651.261 -0.744034 -0.0664993 0
M  V30 6862 H 653.923 -1.87263 0.540228 0
M  V30 6863 H 653.019 -3.09888 -0.370957 0
M  V30 6864 N 653.32 -0.135238 -1.57019 0
M  V30 6865 C 654.567 0.518794 -1.95742 0
M  V30 6866 C 654.895 1.65642 -1.01947 0
M  V30 6867 O 654.15 1.95645 -0.0464016 0
M  V30 6868 C 654.449 1.07694 -3.40788 0
M  V30 6869 C 654.115 0.058992 -4.50861 0
M  V30 6870 C 652.777 -0.220872 -4.80693 0
M  V30 6871 C 655.129 -0.633856 -5.17331 0
M  V30 6872 C 652.457 -1.19959 -5.74305 0
M  V30 6873 C 654.809 -1.60131 -6.11997 0
M  V30 6874 C 653.473 -1.889 -6.40213 0
M  V30 6875 H 652.743 0.18984 -0.716269 0
M  V30 6876 H 655.39 -0.219581 -1.90237 0
M  V30 6877 H 653.695 1.89241 -3.43067 0
M  V30 6878 H 655.392 1.59137 -3.68071 0
M  V30 6879 H 651.982 0.287304 -4.27636 0
M  V30 6880 H 656.166 -0.430823 -4.94427 0
M  V30 6881 H 651.422 -1.42905 -5.94465 0
M  V30 6882 H 655.596 -2.14376 -6.62583 0
M  V30 6883 H 653.223 -2.64891 -7.12556 0
M  V30 6884 N 654.798 1.5699 0.138552 0
M  V30 6885 C 656.028 1.87704 0.863184 0
M  V30 6886 C 656.436 0.722411 1.74865 0
M  V30 6887 O 655.779 -0.316636 1.80951 0
M  V30 6888 C 655.841 3.13219 1.76449 0
M  V30 6889 C 655.505 4.44648 1.05532 0
M  V30 6890 C 656.502 5.18318 0.405252 0
M  V30 6891 C 654.187 4.91367 1.04231 0
M  V30 6892 C 656.181 6.36916 -0.24835 0
M  V30 6893 C 653.868 6.09887 0.384904 0
M  V30 6894 C 654.866 6.82508 -0.259292 0
M  V30 6895 O 654.554 7.98775 -0.906258 0
M  V30 6896 H 654.286 0.626255 0.254521 0
M  V30 6897 H 656.84 2.04966 0.133472 0
M  V30 6898 H 655.07 2.91988 2.53535 0
M  V30 6899 H 656.759 3.30111 2.36181 0
M  V30 6900 H 657.525 4.83289 0.407053 0
M  V30 6901 H 653.404 4.34759 1.53315 0
M  V30 6902 H 656.948 6.93538 -0.751755 0
M  V30 6903 H 652.845 6.44376 0.380799 0
M  V30 6904 H 653.613 8.14494 -0.80877 0
M  V30 6905 N 656.276 -0.40816 1.52223 0
M  V30 6906 C 657.206 -1.5042 1.78595 0
M  V30 6907 C 658.187 -1.57723 0.636974 0
M  V30 6908 O 659.372 -1.72982 0.882664 0
M  V30 6909 C 656.502 -2.88232 1.93751 0
M  V30 6910 C 655.456 -2.95779 3.09352 0
M  V30 6911 C 654.782 -4.35855 3.09732 0
M  V30 6912 C 656.082 -2.67175 4.48793 0
M  V30 6913 H 657.776 -1.28601 2.70374 0
M  V30 6914 H 655.322 -0.617221 1.30101 0
M  V30 6915 H 657.275 -3.64895 2.10783 0
M  V30 6916 H 655.999 -3.11347 0.986443 0
M  V30 6917 H 654.658 -2.21561 2.92072 0
M  V30 6918 H 654.306 -4.55981 2.12346 0
M  V30 6919 H 654.006 -4.41829 3.87377 0
M  V30 6920 H 655.53 -5.14451 3.28895 0
M  V30 6921 H 656.944 -3.3356 4.66273 0
M  V30 6922 H 655.341 -2.84523 5.28362 0
M  V30 6923 H 656.411 -1.62609 4.56822 0
M  V30 6924 N 657.755 -1.42862 -0.66545 0
M  V30 6925 C 659.003 -1.43546 -1.42264 0
M  V30 6926 C 659.324 -0.0563116 -1.94919 0
M  V30 6927 O 658.594 0.906568 -1.73661 0
M  V30 6928 H 657.174 -0.528464 -0.527953 0
M  V30 6929 H 659.836 -1.78363 -0.785665 0
M  V30 6930 H 658.932 -2.14079 -2.27105 0
M  V30 6931 N 659.233 0.902656 -1.29189 0
M  V30 6932 C 660.196 1.98797 -1.14071 0
M  V30 6933 C 661.196 1.60615 -0.0770549 0
M  V30 6934 O 662.386 1.71165 -0.323753 0
M  V30 6935 C 659.518 3.32688 -0.743739 0
M  V30 6936 H 660.711 2.13637 -2.10473 0
M  V30 6937 H 658.264 1.08678 -1.12334 0
M  V30 6938 H 658.999 3.23549 0.220554 0
M  V30 6939 H 658.784 3.61765 -1.51223 0
M  V30 6940 H 660.274 4.12337 -0.660935 0
M  V30 6941 N 660.711 1.11618 1.11262 0
M  V30 6942 C 661.643 0.734015 2.17129 0
M  V30 6943 C 662.656 -0.235243 1.61091 0
M  V30 6944 O 663.845 -0.0178597 1.78491 0
M  V30 6945 C 660.945 0.0643682 3.38839 0
M  V30 6946 C 660.118 1.06092 4.24339 0
M  V30 6947 C 659.177 0.420482 5.24517 0
M  V30 6948 O 658.203 1.07495 5.58957 0
M  V30 6949 N 659.405 -0.815828 5.74739 0
M  V30 6950 H 662.17 1.64492 2.50524 0
M  V30 6951 H 659.731 1.00664 1.26801 0
M  V30 6952 H 661.723 -0.375851 4.02951 0
M  V30 6953 H 660.293 -0.749147 3.03491 0
M  V30 6954 H 659.513 1.67903 3.56654 0
M  V30 6955 H 660.801 1.73507 4.78302 0
M  V30 6956 H 660.199 -1.36668 5.48943 0
M  V30 6957 H 658.756 -1.199 6.40677 0
M  V30 6958 N 662.189 -1.289 0.906776 0
M  V30 6959 C 663.438 -1.9455 0.532262 0
M  V30 6960 C 663.751 -1.72219 -0.927353 0
M  V30 6961 O 664.957 -2.32033 -1.40971 0
M  V30 6962 C 663.413 -3.48438 0.901041 0
M  V30 6963 C 663.021 -3.79558 2.37991 0
M  V30 6964 C 664.765 -4.20284 0.596777 0
M  V30 6965 C 662.672 -5.26723 2.68918 0
M  V30 6966 H 661.602 -0.728259 0.195333 0
M  V30 6967 H 664.253 -1.46519 1.10474 0
M  V30 6968 H 662.635 -3.95162 0.257419 0
M  V30 6969 H 663.809 -3.43668 3.06967 0
M  V30 6970 H 662.124 -3.20868 2.65391 0
M  V30 6971 H 664.721 -5.28612 0.8046 0
M  V30 6972 H 665.064 -4.13694 -0.465072 0
M  V30 6973 H 665.597 -3.79315 1.19855 0
M  V30 6974 H 662.336 -5.38384 3.73928 0
M  V30 6975 H 661.856 -5.63836 2.04571 0
M  V30 6976 H 663.535 -5.94391 2.55555 0
M  V30 6977 N 663.667 -0.670007 -1.42649 0
M  V30 6978 C 664.597 -0.00258501 -2.335 0
M  V30 6979 C 665.578 0.794364 -1.50412 0
M  V30 6980 O 666.763 0.75248 -1.79029 0
M  V30 6981 C 663.893 0.952748 -3.33976 0
M  V30 6982 C 662.847 0.264733 -4.2718 0
M  V30 6983 C 662.173 1.33267 -5.17826 0
M  V30 6984 C 663.473 -0.853289 -5.15283 0
M  V30 6985 H 665.167 -0.761326 -2.89559 0
M  V30 6986 H 662.713 -0.367561 -1.3923 0
M  V30 6987 H 664.666 1.4287 -3.96442 0
M  V30 6988 H 663.39 1.74285 -2.7621 0
M  V30 6989 H 662.049 -0.190938 -3.66102 0
M  V30 6990 H 661.697 2.11464 -4.5639 0
M  V30 6991 H 661.397 0.877476 -5.81011 0
M  V30 6992 H 662.921 1.80965 -5.83167 0
M  V30 6993 H 664.335 -0.458763 -5.71462 0
M  V30 6994 H 662.732 -1.23398 -5.87276 0
M  V30 6995 H 663.802 -1.70412 -4.53969 0
M  V30 6996 N 665.145 1.52092 -0.413018 0
M  V30 6997 C 666.108 2.25706 0.398687 0
M  V30 6998 C 667.108 1.28221 0.970368 0
M  V30 6999 O 668.298 1.52131 0.848635 0
M  V30 7000 C 665.43 3.03029 1.5616 0
M  V30 7001 H 666.623 2.98888 -0.246131 0
M  V30 7002 H 664.176 1.5542 -0.165622 0
M  V30 7003 H 664.911 2.34205 2.24317 0
M  V30 7004 H 664.696 3.74606 1.15812 0
M  V30 7005 H 666.186 3.58857 2.13569 0
M  V30 7006 N 666.623 0.143563 1.56945 0
M  V30 7007 C 667.571 -0.814556 2.17871 0
M  V30 7008 C 668.565 -1.25778 1.13474 0
M  V30 7009 O 669.771 -1.22666 1.31731 0
M  V30 7010 H 666.146 -0.280873 0.697578 0
M  V30 7011 H 668.117 -0.276459 2.97117 0
M  V30 7012 C 666.866 -2.04503 2.81201 0
M  V30 7013 H 666.189 -1.71296 3.61245 0
M  V30 7014 H 667.629 -2.69493 3.27337 0
M  V30 7015 C 666.088 -2.85079 1.79532 0
M  V30 7016 O 666.618 -3.81306 1.26368 0
M  V30 7017 N 664.824 -2.49546 1.48913 0
M  V30 7018 H 664.371 -1.71359 1.92338 0
M  V30 7019 H 664.329 -3.03751 0.811348 0
M  V30 7020 N 668.101 -1.57061 -0.130224 0
M  V30 7021 C 669.378 -1.75205 -0.869631 0
M  V30 7022 C 669.758 -0.716063 -1.98584 0
M  V30 7023 O 669.106 0.262032 -2.26993 0
M  V30 7024 C 669.316 -3.19835 -1.39666 0
M  V30 7025 C 670.664 -3.82011 -1.85345 0
M  V30 7026 O 671.688 -3.23368 -1.49371 0
M  V30 7027 O 670.547 -4.85064 -2.51744 0
M  V30 7028 H 667.641 -0.716977 -0.412157 0
M  V30 7029 H 670.187 -1.69311 -0.11484 0
M  V30 7030 H 668.959 -3.86745 -0.595288 0
M  V30 7031 H 668.582 -3.30222 -2.21448 0
M  V30 7032 N 669.579 0.400081 -1.52437 0
M  V30 7033 C 670.99 0.97851 -1.59003 0
M  V30 7034 C 671.341 1.91293 -0.436068 0
M  V30 7035 O 670.466 2.1183 0.442365 0
M  V30 7036 C 671.061 1.78145 -2.88184 0
M  V30 7037 C 669.62 2.30976 -2.97199 0
M  V30 7038 C 668.767 1.11212 -2.54022 0
M  V30 7039 H 671.718 0.180002 -1.57676 0
M  V30 7040 H 671.739 2.63968 -2.74046 0
M  V30 7041 H 671.251 1.1011 -3.72152 0
M  V30 7042 H 669.352 3.02355 -2.17744 0
M  V30 7043 H 669.465 2.61221 -4.01622 0
M  V30 7044 H 667.829 1.46882 -2.08081 0
M  V30 7045 H 668.612 0.447307 -3.40373 0
M  V30 7046 N 671.057 1.43213 0.657864 0
M  V30 7047 C 672.285 1.48015 1.44566 0
M  V30 7048 C 672.7 0.0965951 1.88553 0
M  V30 7049 O 672.057 -0.892221 1.59203 0
M  V30 7050 C 672.108 2.42199 2.68369 0
M  V30 7051 O 671.829 3.75173 2.26223 0
M  V30 7052 C 673.33 2.56195 3.61772 0
M  V30 7053 H 670.55 0.502861 0.444266 0
M  V30 7054 H 673.094 1.87907 0.806917 0
M  V30 7055 H 671.249 2.05514 3.28394 0
M  V30 7056 H 671.663 4.25776 3.06293 0
M  V30 7057 H 673.137 3.26182 4.4532 0
M  V30 7058 H 673.614 1.60534 4.0881 0
M  V30 7059 H 674.22 2.93671 3.07632 0
M  V30 7060 N 672.536 -0.895792 1.29666 0
M  V30 7061 C 673.468 -2.00563 1.10937 0
M  V30 7062 C 674.481 -1.62705 0.055734 0
M  V30 7063 O 675.67 -1.7595 0.300656 0
M  V30 7064 C 672.77 -3.32262 0.667448 0
M  V30 7065 C 671.943 -3.98625 1.80047 0
M  V30 7066 C 671.002 -5.08617 1.3489 0
M  V30 7067 O 670.028 -5.30837 2.05429 0
M  V30 7068 N 671.23 -5.80076 0.221937 0
M  V30 7069 H 673.995 -2.17184 2.06522 0
M  V30 7070 H 671.556 -1.06822 1.21658 0
M  V30 7071 H 673.548 -4.03196 0.348586 0
M  V30 7072 H 672.118 -3.11985 -0.196055 0
M  V30 7073 H 671.338 -3.21005 2.28801 0
M  V30 7074 H 672.626 -4.39704 2.56003 0
M  V30 7075 H 672.024 -5.64514 -0.366084 0
M  V30 7076 H 670.581 -6.51789 -0.0375346 0
M  V30 7077 N 674.014 -1.12206 -1.10668 0
M  V30 7078 C 675.26 -0.877172 -1.82848 0
M  V30 7079 C 675.593 0.595571 -1.84842 0
M  V30 7080 O 674.868 1.44013 -1.30731 0
M  V30 7081 C 675.151 -1.44957 -3.29635 0
M  V30 7082 C 675.004 -2.99051 -3.35989 0
M  V30 7083 C 676.323 -1.10714 -4.25946 0
M  V30 7084 H 673.442 -0.320103 -0.663854 0
M  V30 7085 H 676.084 -1.38827 -1.2972 0
M  V30 7086 H 674.234 -1.01488 -3.7501 0
M  V30 7087 H 675.906 -3.51182 -2.99113 0
M  V30 7088 H 674.149 -3.34705 -2.75962 0
M  V30 7089 H 674.82 -3.34194 -4.39339 0
M  V30 7090 H 677.296 -1.48254 -3.88793 0
M  V30 7091 H 676.172 -1.5343 -5.2702 0
M  V30 7092 H 676.433 -0.019 -4.42096 0
M  V30 7093 N 675.492 1.28418 -0.913599 0
M  V30 7094 C 676.738 1.9527 -0.547484 0
M  V30 7095 C 677.071 1.71745 0.906486 0
M  V30 7096 O 676.346 1.03834 1.64465 0
M  V30 7097 C 676.629 3.49748 -0.857205 0
M  V30 7098 C 676.482 3.82675 -2.3639 0
M  V30 7099 C 677.801 4.3868 -0.353258 0
M  V30 7100 H 674.92 0.709236 -0.200381 0
M  V30 7101 H 677.562 1.51789 -1.14281 0
M  V30 7102 H 675.712 3.86915 -0.350548 0
M  V30 7103 H 677.384 3.55378 -2.94116 0
M  V30 7104 H 675.627 3.29724 -2.81894 0
M  V30 7105 H 676.298 4.90547 -2.53115 0
M  V30 7106 H 678.774 4.08584 -0.787288 0
M  V30 7107 H 677.65 5.45621 -0.599049 0
M  V30 7108 H 677.911 4.35753 0.746413 0
M  V30 7109 N 676.97 0.677563 1.42291 0
M  V30 7110 C 677.9 0.014968 2.33495 0
M  V30 7111 C 678.881 -0.786376 1.50831 0
M  V30 7112 O 680.066 -0.742975 1.79426 0
M  V30 7113 C 677.196 -0.935023 3.34477 0
M  V30 7114 C 676.15 -0.242074 4.27315 0
M  V30 7115 C 675.476 -1.30519 5.18526 0
M  V30 7116 C 676.776 0.880604 5.14823 0
M  V30 7117 H 678.47 0.776671 2.89151 0
M  V30 7118 H 676.016 0.37494 1.39033 0
M  V30 7119 H 677.969 -1.40766 3.97194 0
M  V30 7120 H 676.693 -1.72818 2.77131 0
M  V30 7121 H 675.352 0.210351 3.65996 0
M  V30 7122 H 675 -2.09041 4.57505 0
M  V30 7123 H 674.7 -0.846652 5.81468 0
M  V30 7124 H 676.224 -1.7787 5.84119 0
M  V30 7125 H 677.638 0.489062 5.7121 0
M  V30 7126 H 676.035 1.26511 5.86613 0
M  V30 7127 H 677.105 1.72818 4.53059 0
M  V30 7128 N 678.448 -1.51871 0.421078 0
M  V30 7129 C 679.411 -2.25914 -0.386712 0
M  V30 7130 C 680.411 -1.28733 -0.963555 0
M  V30 7131 O 681.601 -1.52579 -0.840556 0
M  V30 7132 C 678.733 -3.03853 -1.54551 0
M  V30 7133 H 679.926 -2.98754 0.261978 0
M  V30 7134 H 677.479 -1.5533 0.173862 0
M  V30 7135 H 678.214 -2.35392 -2.23072 0
M  V30 7136 H 677.999 -3.75215 -1.13824 0
M  V30 7137 H 679.489 -3.59984 -2.11663 0
M  V30 7138 N 679.926 -0.151884 -1.56866 0
M  V30 7139 C 680.889 0.771861 -2.15812 0
M  V30 7140 C 681.889 1.17181 -1.10115 0
M  V30 7141 O 683.079 1.09194 -1.35729 0
M  V30 7142 C 680.211 2.04806 -2.7252 0
M  V30 7143 H 681.404 0.259021 -2.98779 0
M  V30 7144 H 678.957 0.097588 -1.55995 0
M  V30 7145 H 679.692 2.60445 -1.93233 0
M  V30 7146 H 679.477 1.77044 -3.49854 0
M  V30 7147 H 680.967 2.70771 -3.1792 0
M  V30 7148 N 681.404 1.57128 0.121893 0
M  V30 7149 C 682.314 2.03425 1.16857 0
M  V30 7150 C 683.33 0.954108 1.45509 0
M  V30 7151 O 684.506 1.26541 1.56682 0
M  V30 7152 C 681.571 2.42685 2.47599 0
M  V30 7153 C 680.632 3.64767 2.2637 0
M  V30 7154 C 679.865 4.02145 3.50878 0
M  V30 7155 O 680.088 3.39897 4.58068 0
M  V30 7156 O 679.022 4.95262 3.42051 0
M  V30 7157 H 682.848 2.92825 0.80544 0
M  V30 7158 H 680.433 1.45654 0.332477 0
M  V30 7159 H 682.315 2.68684 3.24634 0
M  V30 7160 H 680.99 1.56432 2.83392 0
M  V30 7161 H 679.897 3.43922 1.47203 0
M  V30 7162 H 681.23 4.51716 1.95482 0
M  V30 7163 N 682.882 -0.391992 1.52647 0
M  V30 7164 C 683.814 -1.49811 1.73463 0
M  V30 7165 C 684.827 -1.50734 0.615078 0
M  V30 7166 O 686.016 -1.5469 0.890696 0
M  V30 7167 C 683.116 -2.88667 1.77552 0
M  V30 7168 C 682.289 -3.11743 3.06815 0
M  V30 7169 C 681.348 -4.30564 3.02491 0
M  V30 7170 O 680.374 -4.27014 3.76361 0
M  V30 7171 N 681.576 -5.36593 2.21468 0
M  V30 7172 H 684.341 -1.32343 2.68897 0
M  V30 7173 H 681.902 -0.581475 1.51098 0
M  V30 7174 H 683.894 -3.66251 1.7217 0
M  V30 7175 H 682.464 -2.99508 0.895181 0
M  V30 7176 H 681.684 -2.2205 3.25711 0
M  V30 7177 H 682.972 -3.24013 3.92292 0
M  V30 7178 H 682.37 -5.42332 1.60913 0
M  V30 7179 H 680.927 -6.12855 2.21928 0
M  V30 7180 N 684.36 -1.4356 -0.65026 0
M  V30 7181 C 685.29 -1.51758 -1.77459 0
M  V30 7182 C 686.271 -0.372019 -1.65982 0
M  V30 7183 O 687.456 -0.589627 -1.85033 0
M  V30 7184 C 684.586 -1.44302 -3.15902 0
M  V30 7185 C 683.54 -2.57138 -3.42146 0
M  V30 7186 C 682.866 -2.34735 -4.8042 0
M  V30 7187 C 684.166 -3.99373 -3.36598 0
M  V30 7188 H 685.86 -2.45863 -1.70855 0
M  V30 7189 H 683.406 -1.18333 -0.820566 0
M  V30 7190 H 685.359 -1.48641 -3.94314 0
M  V30 7191 H 684.083 -0.467026 -3.23244 0
M  V30 7192 H 682.742 -2.52157 -2.66106 0
M  V30 7193 H 682.39 -1.35372 -4.84441 0
M  V30 7194 H 682.09 -3.10375 -4.9894 0
M  V30 7195 H 683.614 -2.40862 -5.61086 0
M  V30 7196 H 685.028 -4.05826 -4.04942 0
M  V30 7197 H 683.425 -4.75063 -3.66654 0
M  V30 7198 H 684.495 -4.243 -2.34729 0
M  V30 7199 N 685.838 0.888903 -1.30139 0
M  V30 7200 C 687.068 1.67115 -1.21474 0
M  V30 7201 C 687.476 1.87852 0.225472 0
M  V30 7202 O 686.819 1.42324 1.16145 0
M  V30 7203 C 686.881 3.0713 -1.86846 0
M  V30 7204 C 686.545 3.09582 -3.36167 0
M  V30 7205 C 687.542 2.88929 -4.32222 0
M  V30 7206 C 685.227 3.31304 -3.77549 0
M  V30 7207 C 687.221 2.89949 -5.67634 0
M  V30 7208 C 684.908 3.31954 -5.13079 0
M  V30 7209 C 685.906 3.113 -6.07932 0
M  V30 7210 O 685.594 3.11758 -7.40987 0
M  V30 7211 H 685.326 0.528372 -0.421662 0
M  V30 7212 H 687.88 1.11919 -1.7223 0
M  V30 7213 H 686.11 3.63973 -1.30615 0
M  V30 7214 H 687.799 3.6749 -1.72354 0
M  V30 7215 H 688.565 2.71948 -4.01584 0
M  V30 7216 H 684.444 3.46417 -3.04165 0
M  V30 7217 H 687.988 2.73746 -6.41645 0
M  V30 7218 H 683.885 3.48469 -5.43359 0
M  V30 7219 H 684.653 3.27951 -7.49927 0
M  V30 7220 N 687.317 1.12792 1.10072 0
M  V30 7221 C 688.264 0.79921 2.16521 0
M  V30 7222 C 689.234 -0.235726 1.64419 0
M  V30 7223 O 690.419 -0.109457 1.90486 0
M  V30 7224 C 687.559 0.264091 3.44088 0
M  V30 7225 C 686.672 1.35729 4.10124 0
M  V30 7226 C 685.807 0.781212 5.25424 0
M  V30 7227 C 684.846 1.85327 5.8337 0
M  V30 7228 N 683.983 1.29564 6.90042 0
M  V30 7229 H 688.823 1.71105 2.43981 0
M  V30 7230 H 686.36 0.854225 1.19756 0
M  V30 7231 H 688.318 -0.0642423 4.17151 0
M  V30 7232 H 686.948 -0.610901 3.16967 0
M  V30 7233 H 686 1.80234 3.34993 0
M  V30 7234 H 687.312 2.16782 4.4923 0
M  V30 7235 H 686.466 0.403769 6.05355 0
M  V30 7236 H 685.205 -0.0604686 4.87663 0
M  V30 7237 H 684.21 2.23986 5.02106 0
M  V30 7238 H 685.435 2.69824 6.23195 0
M  V30 7239 H 683.381 0.475844 6.54272 0
M  V30 7240 H 683.298 2.04271 7.2788 0
M  V30 7241 H 684.566 0.945545 7.73744 0
M  V30 7242 N 688.795 -1.27931 0.920396 0
M  V30 7243 C 689.725 -2.29487 0.431024 0
M  V30 7244 C 690.706 -1.62435 -0.504861 0
M  V30 7245 O 691.891 -1.89797 -0.411176 0
M  V30 7246 C 689.021 -3.45788 -0.323709 0
M  V30 7247 C 687.975 -4.24784 0.523658 0
M  V30 7248 C 687.301 -5.33488 -0.359809 0
M  V30 7249 C 688.601 -4.90874 1.78437 0
M  V30 7250 H 690.295 -2.70671 1.27975 0
M  V30 7251 H 687.841 -1.30121 0.616813 0
M  V30 7252 H 689.794 -4.15927 -0.676952 0
M  V30 7253 H 688.518 -3.03502 -1.2064 0
M  V30 7254 H 687.177 -3.56382 0.85951 0
M  V30 7255 H 686.825 -4.87445 -1.24124 0
M  V30 7256 H 686.525 -5.87247 0.203605 0
M  V30 7257 H 688.049 -6.06472 -0.708787 0
M  V30 7258 H 689.463 -5.53339 1.49963 0
M  V30 7259 H 687.86 -5.54659 2.29071 0
M  V30 7260 H 688.93 -4.14988 2.50824 0
M  V30 7261 N 690.273 -0.685099 -1.4193 0
M  V30 7262 C 691.221 -0.00165985 -2.326 0
M  V30 7263 C 692.215 0.779678 -1.50391 0
M  V30 7264 O 693.421 0.68648 -1.66395 0
M  V30 7265 H 689.796 0.0182616 -0.751778 0
M  V30 7266 H 691.767 -0.783592 -2.87928 0
M  V30 7267 C 690.516 0.928385 -3.35077 0
M  V30 7268 H 689.839 0.336578 -3.98381 0
M  V30 7269 H 691.279 1.37509 -4.01083 0
M  V30 7270 C 689.738 2.03964 -2.68142 0
M  V30 7271 O 690.268 3.12727 -2.5212 0
M  V30 7272 N 688.474 1.81433 -2.27003 0
M  V30 7273 H 688.021 0.929807 -2.40234 0
M  V30 7274 H 687.979 2.55973 -1.82552 0
M  V30 7275 N 691.751 1.51645 -0.429126 0
M  V30 7276 C 692.714 2.26116 0.374726 0
M  V30 7277 C 693.714 1.29242 0.956714 0
M  V30 7278 O 694.904 1.53022 0.832452 0
M  V30 7279 C 692.036 3.04669 1.52937 0
M  V30 7280 H 693.229 2.9861 -0.277818 0
M  V30 7281 H 690.782 1.55236 -0.182097 0
M  V30 7282 H 691.517 2.36571 2.21821 0
M  V30 7283 H 691.302 3.75814 1.11833 0
M  V30 7284 H 692.792 3.61102 2.09751 0
M  V30 7285 N 693.229 0.160201 1.56784 0
M  V30 7286 C 694.64 -0.358417 1.83227 0
M  V30 7287 C 694.991 -1.63831 1.07952 0
M  V30 7288 O 694.116 -2.13885 0.328995 0
M  V30 7289 C 694.711 -0.657058 3.32368 0
M  V30 7290 C 693.27 -1.12015 3.59346 0
M  V30 7291 C 692.417 -0.15015 2.76893 0
M  V30 7292 H 695.368 0.384669 1.53967 0
M  V30 7293 H 695.389 -1.51033 3.49241 0
M  V30 7294 H 694.901 0.274647 3.87127 0
M  V30 7295 H 693.002 -2.06734 3.09987 0
M  V30 7296 H 693.115 -1.037 4.67743 0
M  V30 7297 H 691.479 -0.645361 2.46388 0
M  V30 7298 H 692.262 0.775379 3.34429 0
M  V30 7299 N 694.707 -1.5719 -0.113559 0
M  V30 7300 C 695.956 -1.84325 -0.818984 0
M  V30 7301 C 696.269 -0.746685 -1.80787 0
M  V30 7302 O 697.475 -0.904596 -2.55987 0
M  V30 7303 C 695.931 -3.26818 -1.50724 0
M  V30 7304 C 695.539 -4.44498 -0.559065 0
M  V30 7305 C 697.283 -3.63196 -2.19748 0
M  V30 7306 C 695.19 -5.7802 -1.25086 0
M  V30 7307 H 694.12 -0.687507 -0.309596 0
M  V30 7308 H 696.771 -1.8336 -0.0717621 0
M  V30 7309 H 695.153 -3.22269 -2.30128 0
M  V30 7310 H 696.327 -4.60356 0.202146 0
M  V30 7311 H 694.642 -4.16393 0.024495 0
M  V30 7312 H 697.239 -4.60226 -2.72206 0
M  V30 7313 H 697.582 -2.90899 -2.97798 0
M  V30 7314 H 698.115 -3.69553 -1.47226 0
M  V30 7315 H 694.854 -6.53501 -0.511539 0
M  V30 7316 H 694.374 -5.66038 -1.98395 0
M  V30 7317 H 696.053 -6.2196 -1.78253 0
M  V30 7318 N 696.185 0.383891 -1.52853 0
M  V30 7319 C 697.431 1.12667 -1.69345 0
M  V30 7320 C 697.786 1.87519 -0.430635 0
M  V30 7321 O 697.079 1.82742 0.575846 0
M  V30 7322 C 697.273 2.12881 -2.87082 0
M  V30 7323 C 697.102 1.47873 -4.24692 0
M  V30 7324 C 695.872 1.24064 -4.89833 0
M  V30 7325 C 698.07 0.926118 -5.05893 0
M  V30 7326 N 696.052 0.552138 -6.11412 0
M  V30 7327 C 697.423 0.365966 -6.18919 0
M  V30 7328 C 699.478 0.823023 -4.91051 0
M  V30 7329 C 698.181 -0.287204 -7.18726 0
M  V30 7330 C 700.207 0.183666 -5.91115 0
M  V30 7331 C 699.569 -0.365693 -7.0345 0
M  V30 7332 H 695.668 0.398064 -0.673104 0
M  V30 7333 H 698.252 0.415504 -1.90215 0
M  V30 7334 H 696.423 2.81329 -2.67784 0
M  V30 7335 H 698.155 2.79703 -2.92486 0
M  V30 7336 H 694.91 1.51701 -4.48647 0
M  V30 7337 H 695.334 0.223783 -6.7663 0
M  V30 7338 H 699.976 1.23354 -4.04405 0
M  V30 7339 H 697.694 -0.709719 -8.04977 0
M  V30 7340 H 701.28 0.105074 -5.81705 0
M  V30 7341 H 700.16 -0.85261 -7.79551 0
M  V30 7342 N 697.663 1.43903 0.642637 0
M  V30 7343 C 698.893 1.49323 1.4278 0
M  V30 7344 C 699.301 0.113058 1.88862 0
M  V30 7345 O 698.644 -0.889089 1.60751 0
M  V30 7346 C 698.706 2.3861 2.68897 0
M  V30 7347 C 698.37 3.85976 2.44687 0
M  V30 7348 C 699.367 4.7681 2.07239 0
M  V30 7349 C 697.052 4.30567 2.58683 0
M  V30 7350 C 699.046 6.10234 1.841 0
M  V30 7351 C 696.733 5.64042 2.35159 0
M  V30 7352 C 697.731 6.53693 1.97925 0
M  V30 7353 O 697.419 7.84698 1.74654 0
M  V30 7354 H 697.151 0.509109 0.444729 0
M  V30 7355 H 699.705 1.89425 0.794195 0
M  V30 7356 H 697.935 1.93415 3.34855 0
M  V30 7357 H 699.624 2.35112 3.30873 0
M  V30 7358 H 700.39 4.43635 1.95993 0
M  V30 7359 H 696.269 3.61054 2.86637 0
M  V30 7360 H 699.813 6.80171 1.54962 0
M  V30 7361 H 695.71 5.96782 2.46011 0
M  V30 7362 H 696.478 7.96382 1.88993 0
M  V30 7363 N 699.141 -0.881989 1.30609 0
M  V30 7364 C 700.071 -2.00413 1.1982 0
M  V30 7365 C 701.052 -1.69871 0.0881538 0
M  V30 7366 O 702.237 -1.92304 0.2707 0
M  V30 7367 C 699.367 -3.35641 0.89233 0
M  V30 7368 C 698.321 -3.80451 1.96064 0
M  V30 7369 C 697.647 -5.13003 1.5077 0
M  V30 7370 C 698.947 -3.98855 3.37213 0
M  V30 7371 H 700.641 -2.09698 2.13699 0
M  V30 7372 H 698.187 -1.00754 1.02882 0
M  V30 7373 H 700.14 -4.13669 0.803497 0
M  V30 7374 H 698.864 -3.26497 -0.0821381 0
M  V30 7375 H 697.523 -3.04654 2.03916 0
M  V30 7376 H 697.171 -5.0029 0.521417 0
M  V30 7377 H 696.871 -5.43956 2.22229 0
M  V30 7378 H 698.395 -5.93554 1.43271 0
M  V30 7379 H 699.809 -4.67312 3.32103 0
M  V30 7380 H 698.206 -4.41188 4.06784 0
M  V30 7381 H 699.276 -3.02614 3.78883 0
M  V30 7382 N 700.619 -1.13374 -1.09472 0
M  V30 7383 C 701.865 -0.896516 -1.81908 0
M  V30 7384 C 702.198 0.575933 -1.85463 0
M  V30 7385 O 701.473 1.42618 -1.32251 0
M  V30 7386 C 701.756 -1.48445 -3.28079 0
M  V30 7387 C 701.609 -3.02598 -3.32798 0
M  V30 7388 C 702.928 -1.15226 -4.24748 0
M  V30 7389 H 700.047 -0.327127 -0.660422 0
M  V30 7390 H 702.689 -1.40195 -1.2824 0
M  V30 7391 H 700.839 -1.0546 -3.73912 0
M  V30 7392 H 702.511 -3.54335 -2.95372 0
M  V30 7393 H 700.754 -3.37613 -2.72397 0
M  V30 7394 H 701.425 -3.38835 -4.3577 0
M  V30 7395 H 703.901 -1.52369 -3.87199 0
M  V30 7396 H 702.777 -1.59012 -5.25363 0
M  V30 7397 H 703.038 -0.0658891 -4.42051 0
M  V30 7398 N 702.098 1.27442 -0.927168 0
M  V30 7399 C 703.323 1.99036 -0.583042 0
M  V30 7400 C 703.748 1.68711 0.83176 0
M  V30 7401 O 703.106 0.927081 1.55804 0
M  V30 7402 C 703.154 3.51271 -0.814925 0
M  V30 7403 O 702.258 4.12226 0.119742 0
M  V30 7404 H 701.599 0.624883 -0.224538 0
M  V30 7405 H 704.129 1.62263 -1.24628 0
M  V30 7406 H 704.139 4.01411 -0.730282 0
M  V30 7407 H 702.814 3.72676 -1.84623 0
M  V30 7408 H 701.391 3.72897 -0.0147688 0
M  V30 7409 N 703.576 0.692616 1.41565 0
M  V30 7410 C 704.822 0.222664 2.01574 0
M  V30 7411 C 705.155 -1.1737 1.54719 0
M  V30 7412 O 704.43 -1.79161 0.757084 0
M  V30 7413 C 704.713 0.277064 3.59033 0
M  V30 7414 C 704.566 1.71016 4.16021 0
M  V30 7415 C 705.885 -0.36479 4.38586 0
M  V30 7416 H 703.004 0.0823839 0.732381 0
M  V30 7417 H 705.646 0.880778 1.68352 0
M  V30 7418 H 703.796 -0.283288 3.87466 0
M  V30 7419 H 705.468 2.32413 3.98475 0
M  V30 7420 H 703.711 2.24525 3.71175 0
M  V30 7421 H 704.382 1.69978 5.25178 0
M  V30 7422 H 706.858 0.112404 4.15948 0
M  V30 7423 H 705.734 -0.296169 5.481 0
M  V30 7424 H 705.995 -1.44506 4.17816 0
M  V30 7425 N 705.054 -1.51416 0.437162 0
M  V30 7426 C 705.987 -2.24309 -0.419602 0
M  V30 7427 C 706.965 -1.26236 -1.02485 0
M  V30 7428 O 708.149 -1.5537 -1.06735 0
M  V30 7429 C 705.276 -2.99335 -1.58482 0
M  V30 7430 C 704.322 -4.12064 -1.10027 0
M  V30 7431 S 705.155 -5.35483 -0.0424476 0
M  V30 7432 C 706.311 -6.14047 -1.21234 0
M  V30 7433 H 706.544 -2.96632 0.199259 0
M  V30 7434 H 704.077 -1.528 0.22168 0
M  V30 7435 H 706.035 -3.43159 -2.25282 0
M  V30 7436 H 704.696 -2.26602 -2.17509 0
M  V30 7437 H 703.889 -4.63836 -1.97161 0
M  V30 7438 H 703.491 -3.70499 -0.510507 0
M  V30 7439 H 705.783 -6.43123 -2.13072 0
M  V30 7440 H 706.726 -7.04279 -0.734582 0
M  V30 7441 H 707.134 -5.45538 -1.45082 0
M  V30 7442 N 706.532 -0.168513 -1.56696 0
M  V30 7443 C 707.442 0.775435 -2.21414 0
M  V30 7444 C 708.458 1.25529 -1.20492 0
M  V30 7445 O 709.634 1.30801 -1.53144 0
M  V30 7446 C 706.699 1.9886 -2.83999 0
M  V30 7447 C 705.76 1.5559 -4.00113 0
M  V30 7448 C 704.993 2.71124 -4.59704 0
M  V30 7449 O 705.216 3.87917 -4.18182 0
M  V30 7450 O 704.15 2.4536 -5.4962 0
M  V30 7451 H 707.976 0.254416 -3.02632 0
M  V30 7452 H 705.561 0.0595507 -1.49281 0
M  V30 7453 H 707.443 2.69816 -3.23693 0
M  V30 7454 H 706.118 2.49874 -2.05779 0
M  V30 7455 H 705.025 0.815924 -3.65094 0
M  V30 7456 H 706.358 1.09271 -4.79917 0
M  V30 7457 N 708.01 1.57248 0.105221 0
M  V30 7458 C 709.238 1.89768 0.82437 0
M  V30 7459 C 709.653 0.761192 1.72775 0
M  V30 7460 O 709.01 -0.267342 1.80531 0
M  V30 7461 C 709.061 3.2184 1.64625 0
M  V30 7462 O 708.782 4.31115 0.779217 0
M  V30 7463 C 710.283 3.68155 2.46935 0
M  V30 7464 H 707.503 0.628031 0.236259 0
M  V30 7465 H 710.047 2.04321 0.085485 0
M  V30 7466 H 708.202 3.08915 2.33775 0
M  V30 7467 H 708.616 5.06897 1.34745 0
M  V30 7468 H 710.09 4.6329 3.00111 0
M  V30 7469 H 710.567 2.95492 3.24932 0
M  V30 7470 H 711.173 3.83914 1.83002 0
M  V30 7471 N 709.488 -0.375779 1.53054 0
M  V30 7472 C 710.735 -1.11948 1.68742 0
M  V30 7473 C 711.063 -1.89596 0.434015 0
M  V30 7474 O 710.318 -1.86787 -0.583867 0
M  V30 7475 C 710.617 -2.11356 2.88207 0
M  V30 7476 C 710.283 -1.50266 4.25124 0
M  V30 7477 C 708.945 -1.33333 4.62359 0
M  V30 7478 C 711.297 -1.05976 5.10312 0
M  V30 7479 C 708.625 -0.706765 5.82427 0
M  V30 7480 C 710.977 -0.447241 6.31017 0
M  V30 7481 C 709.641 -0.265314 6.66973 0
M  V30 7482 H 708.911 -0.409648 0.61747 0
M  V30 7483 H 711.558 -0.402492 1.87222 0
M  V30 7484 H 709.863 -2.89322 2.64197 0
M  V30 7485 H 711.56 -2.68833 2.97539 0
M  V30 7486 H 708.15 -1.64437 3.95801 0
M  V30 7487 H 712.334 -1.17855 4.82104 0
M  V30 7488 H 707.59 -0.554132 6.08884 0
M  V30 7489 H 711.764 -0.0958064 6.96334 0
M  V30 7490 H 709.391 0.222267 7.59875 0
M  V30 7491 N 710.966 -1.44241 -0.634997 0
M  V30 7492 C 711.896 -1.53632 -1.7584 0
M  V30 7493 C 712.877 -0.389603 -1.65578 0
M  V30 7494 O 714.062 -0.609219 -1.84397 0
M  V30 7495 C 711.192 -1.47644 -3.14354 0
M  V30 7496 C 710.146 -2.60752 -3.394 0
M  V30 7497 C 709.472 -2.39817 -4.77904 0
M  V30 7498 C 710.772 -4.02921 -3.32343 0
M  V30 7499 H 712.466 -2.47662 -1.68238 0
M  V30 7500 H 710.012 -1.19197 -0.807969 0
M  V30 7501 H 711.965 -1.52815 -3.92716 0
M  V30 7502 H 710.689 -0.501284 -3.2273 0
M  V30 7503 H 709.348 -2.54965 -2.63417 0
M  V30 7504 H 708.996 -1.40502 -4.82978 0
M  V30 7505 H 708.696 -3.15649 -4.9562 0
M  V30 7506 H 710.22 -2.46799 -5.585 0
M  V30 7507 H 711.634 -4.10098 -4.00615 0
M  V30 7508 H 710.031 -4.78925 -3.61595 0
M  V30 7509 H 711.101 -4.26766 -2.30215 0
M  V30 7510 N 712.444 0.87505 -1.31075 0
M  V30 7511 C 713.374 1.99775 -1.20881 0
M  V30 7512 C 714.355 1.69822 -0.0971612 0
M  V30 7513 O 715.54 1.92158 -0.280895 0
M  V30 7514 C 712.67 3.35163 -0.910118 0
M  V30 7515 C 711.624 3.79406 -1.98078 0
M  V30 7516 C 710.95 5.12197 -1.53488 0
M  V30 7517 C 712.25 3.97061 -3.39323 0
M  V30 7518 H 713.944 2.08562 -2.14808 0
M  V30 7519 H 711.49 1.00207 -1.03415 0
M  V30 7520 H 713.443 4.13237 -0.825423 0
M  V30 7521 H 712.167 3.26536 0.064822 0
M  V30 7522 H 710.826 3.03568 -2.05528 0
M  V30 7523 H 710.474 5.00007 -0.547941 0
M  V30 7524 H 710.174 5.4277 -2.2511 0
M  V30 7525 H 711.698 5.92785 -1.46417 0
M  V30 7526 H 713.112 4.65545 -3.34576 0
M  V30 7527 H 711.509 4.39025 -4.09118 0
M  V30 7528 H 712.579 3.00601 -3.80483 0
M  V30 7529 N 713.922 1.13953 1.08869 0
M  V30 7530 C 715.152 0.926825 1.84644 0
M  V30 7531 C 715.56 -0.527941 1.81685 0
M  V30 7532 O 714.903 -1.37742 1.21543 0
M  V30 7533 C 714.965 1.34416 3.33426 0
M  V30 7534 C 714.629 2.81351 3.60126 0
M  V30 7535 C 715.626 3.79486 3.55368 0
M  V30 7536 C 713.311 3.1865 3.88288 0
M  V30 7537 C 715.305 5.1293 3.78393 0
M  V30 7538 C 712.992 4.5227 4.10968 0
M  V30 7539 C 713.99 5.4922 4.06013 0
M  V30 7540 O 713.678 6.80429 4.28102 0
M  V30 7541 H 713.41 0.33013 0.589907 0
M  V30 7542 H 715.964 1.51738 1.38436 0
M  V30 7543 H 714.194 0.696901 3.80368 0
M  V30 7544 H 715.883 1.10302 3.90626 0
M  V30 7545 H 716.649 3.52017 3.3363 0
M  V30 7546 H 712.528 2.43785 3.91267 0
M  V30 7547 H 716.072 5.88591 3.74442 0
M  V30 7548 H 711.969 4.79462 4.32188 0
M  V30 7549 H 712.737 6.86617 4.45533 0
M  V30 7550 N 715.4 -1.26948 0.933913 0
M  V30 7551 C 716.332 -2.25768 0.395137 0
M  V30 7552 C 717.345 -1.55637 -0.477585 0
M  V30 7553 O 718.534 -1.76142 -0.289204 0
M  V30 7554 C 715.634 -3.35874 -0.451882 0
M  V30 7555 C 714.807 -4.3554 0.40299 0
M  V30 7556 C 713.866 -5.24809 -0.3824 0
M  V30 7557 O 712.892 -5.68805 0.212057 0
M  V30 7558 N 714.094 -5.55636 -1.68072 0
M  V30 7559 H 716.859 -2.72634 1.24463 0
M  V30 7560 H 714.42 -1.40639 0.802008 0
M  V30 7561 H 716.412 -3.92542 -0.984516 0
M  V30 7562 H 714.982 -2.8856 -1.20215 0
M  V30 7563 H 714.202 -3.78047 1.11688 0
M  V30 7564 H 715.49 -4.99131 0.987201 0
M  V30 7565 H 714.888 -5.2176 -2.18592 0
M  V30 7566 H 713.445 -6.14978 -2.15975 0
M  V30 7567 N 716.879 -0.700114 -1.41195 0
M  V30 7568 C 717.829 -0.0144098 -2.27995 0
M  V30 7569 C 718.813 0.748249 -1.42443 0
M  V30 7570 O 720.005 0.622995 -1.65674 0
M  V30 7571 C 717.134 0.917938 -3.308 0
M  V30 7572 C 716.22 0.151286 -4.2383 0
M  V30 7573 N 716.611 -0.85732 -4.98481 0
M  V30 7574 C 714.909 0.386108 -4.44326 0
M  V30 7575 C 715.61 -1.31663 -5.66604 0
M  V30 7576 N 714.586 -0.641689 -5.39799 0
M  V30 7577 H 718.388 -0.787662 -2.83149 0
M  V30 7578 H 715.902 -0.531344 -1.53462 0
M  V30 7579 H 717.899 1.42437 -3.91813 0
M  V30 7580 H 716.559 1.69074 -2.77208 0
M  V30 7581 H 717.57 -1.2377 -5.02893 0
M  V30 7582 H 714.247 1.13644 -4.01735 0
M  V30 7583 H 715.637 -2.15384 -6.36443 0
M  V30 7584 N 718.357 1.51182 -0.445186 0
M  V30 7585 C 719.604 2.02152 0.118645 0
M  V30 7586 C 719.932 1.32888 1.42025 0
M  V30 7587 O 719.187 0.435041 1.90803 0
M  V30 7588 C 719.486 3.55408 0.376797 0
M  V30 7589 C 719.152 4.43008 -0.839945 0
M  V30 7590 C 717.814 4.66669 -1.17361 0
M  V30 7591 C 720.166 4.9435 -1.65127 0
M  V30 7592 C 717.494 5.38919 -2.31913 0
M  V30 7593 C 719.846 5.67857 -2.78786 0
M  V30 7594 C 718.51 5.89779 -3.12597 0
M  V30 7595 H 717.78 0.739727 0.0434152 0
M  V30 7596 H 720.427 1.82055 -0.593984 0
M  V30 7597 H 718.732 3.73879 1.1714 0
M  V30 7598 H 720.429 3.92388 0.826602 0
M  V30 7599 H 717.019 4.24793 -0.569958 0
M  V30 7600 H 721.203 4.75947 -1.4067 0
M  V30 7601 H 716.459 5.54105 -2.58413 0
M  V30 7602 H 720.633 6.06628 -3.42017 0
M  V30 7603 H 718.26 6.45542 -4.01471 0
M  V30 7604 N 719.835 0.176821 1.56605 0
M  V30 7605 C 721.251 -0.179278 1.5859 0
M  V30 7606 C 721.451 -1.62433 1.19238 0
M  V30 7607 O 720.507 -2.35665 0.906552 0
M  V30 7608 C 721.82 0.106524 3.00511 0
M  V30 7609 C 723.368 0.0451731 3.12967 0
M  V30 7610 C 723.843 0.304038 4.5699 0
M  V30 7611 N 725.334 0.252008 4.62514 0
M  V30 7612 C 726.069 0.426404 5.71812 0
M  V30 7613 N 725.565 0.660155 6.89648 0
M  V30 7614 N 727.358 0.361926 5.60934 0
M  V30 7615 H 719.509 1.12001 1.8047 0
M  V30 7616 H 721.772 0.445679 0.836704 0
M  V30 7617 H 721.478 1.10778 3.33798 0
M  V30 7618 H 721.352 -0.599337 3.72408 0
M  V30 7619 H 723.739 -0.946662 2.79504 0
M  V30 7620 H 723.82 0.78383 2.43495 0
M  V30 7621 H 723.464 1.29311 4.91163 0
M  V30 7622 H 723.394 -0.455294 5.24628 0
M  V30 7623 H 725.885 0.0772102 3.77821 0
M  V30 7624 H 726.198 0.782529 7.68828 0
M  V30 7625 H 724.543 0.696835 6.91498 0
M  V30 7626 H 727.734 0.17986 4.67754 0
M  V30 7627 H 727.907 0.501263 6.46058 0
M  V30 7628 N 721.313 -1.57302 -0.09688 0
M  V30 7629 C 722.724 -1.7496 -0.651595 0
M  V30 7630 C 723.075 -0.798746 -1.79205 0
M  V30 7631 O 722.2 0.0231858 -2.16388 0
M  V30 7632 C 722.795 -3.17259 -1.18878 0
M  V30 7633 C 721.354 -3.36348 -1.68958 0
M  V30 7634 C 720.501 -2.70766 -0.598413 0
M  V30 7635 H 723.452 -1.58173 0.12918 0
M  V30 7636 H 723.473 -3.20033 -2.05814 0
M  V30 7637 H 722.985 -3.8644 -0.358523 0
M  V30 7638 H 721.086 -2.72243 -2.5439 0
M  V30 7639 H 721.199 -4.44654 -1.7838 0
M  V30 7640 H 719.563 -2.32615 -1.03743 0
M  V30 7641 H 720.346 -3.42586 0.221238 0
M  V30 7642 N 722.791 0.367657 -1.53252 0
M  V30 7643 C 724.019 1.13119 -1.73239 0
M  V30 7644 C 724.434 1.831 -0.460404 0
M  V30 7645 O 723.791 1.73483 0.566557 0
M  V30 7646 C 723.842 2.16308 -2.89643 0
M  V30 7647 O 723.563 1.49175 -4.1192 0
M  V30 7648 C 725.064 3.05224 -3.21486 0
M  V30 7649 H 722.284 0.338318 -0.579467 0
M  V30 7650 H 724.828 0.42721 -1.99988 0
M  V30 7651 H 722.983 2.82307 -2.65295 0
M  V30 7652 H 723.397 2.17912 -4.7709 0
M  V30 7653 H 724.871 3.73613 -4.06346 0
M  V30 7654 H 725.348 3.69919 -2.36763 0
M  V30 7655 H 725.954 2.44843 -3.47753 0
M  V30 7656 N 724.269 1.44576 0.627338 0
M  V30 7657 C 725.68 1.42266 1.20902 0
M  V30 7658 C 726.031 0.139964 1.957 0
M  V30 7659 O 725.156 -0.759489 2.02634 0
M  V30 7660 C 725.751 2.57727 2.19914 0
M  V30 7661 C 724.31 2.58599 2.73502 0
M  V30 7662 C 723.457 2.34145 1.48564 0
M  V30 7663 H 726.408 1.53102 0.417791 0
M  V30 7664 H 726.429 2.30697 3.02588 0
M  V30 7665 H 725.941 3.51068 1.65447 0
M  V30 7666 H 724.042 1.6921 3.31962 0
M  V30 7667 H 724.155 3.57205 3.19282 0
M  V30 7668 H 722.519 1.83313 1.76829 0
M  V30 7669 H 723.302 3.29606 0.959935 0
M  V30 7670 N 725.747 -0.868086 1.31537 0
M  V30 7671 C 726.657 -2.00801 1.21311 0
M  V30 7672 C 727.673 -1.73518 0.129431 0
M  V30 7673 O 728.849 -1.98378 0.347588 0
M  V30 7674 C 725.914 -3.3419 0.922935 0
M  V30 7675 C 724.975 -3.74783 2.0937 0
M  V30 7676 C 724.208 -5.01807 1.81728 0
M  V30 7677 O 724.431 -5.65404 0.753313 0
M  V30 7678 O 723.365 -5.39213 2.67457 0
M  V30 7679 H 727.191 -2.12361 2.17109 0
M  V30 7680 H 724.776 -0.996684 1.11295 0
M  V30 7681 H 726.658 -4.14174 0.777033 0
M  V30 7682 H 725.333 -3.237 -0.00500301 0
M  V30 7683 H 724.24 -2.95432 2.29501 0
M  V30 7684 H 725.573 -3.89902 3.00396 0
M  V30 7685 N 727.225 -1.14528 -1.08264 0
M  V30 7686 C 728.636 -0.925261 -1.6216 0
M  V30 7687 C 728.987 0.535587 -1.88748 0
M  V30 7688 O 728.112 1.4048 -1.64604 0
M  V30 7689 C 728.707 -1.67316 -2.94603 0
M  V30 7690 C 727.266 -1.49868 -3.45278 0
M  V30 7691 C 726.413 -1.69471 -2.19487 0
M  V30 7692 H 729.364 -1.29687 -0.914707 0
M  V30 7693 H 729.385 -1.13721 -3.63109 0
M  V30 7694 H 728.897 -2.73635 -2.75219 0
M  V30 7695 H 726.998 -0.459032 -3.69762 0
M  V30 7696 H 727.111 -2.2696 -4.21931 0
M  V30 7697 H 725.475 -1.12048 -2.2873 0
M  V30 7698 H 726.258 -2.77136 -2.0261 0
M  V30 7699 N 728.703 1.26451 -0.940633 0
M  V30 7700 C 730.114 1.75726 -0.630653 0
M  V30 7701 C 730.465 1.76631 0.854167 0
M  V30 7702 O 729.59 1.37807 1.66848 0
M  V30 7703 C 730.185 3.19114 -1.13805 0
M  V30 7704 C 728.744 3.66005 -0.878497 0
M  V30 7705 C 727.891 2.45505 -1.28928 0
M  V30 7706 H 730.842 1.12535 -1.119 0
M  V30 7707 H 730.863 3.77311 -0.491625 0
M  V30 7708 H 730.375 3.18424 -2.21874 0
M  V30 7709 H 728.476 3.72126 0.187833 0
M  V30 7710 H 728.589 4.54844 -1.50512 0
M  V30 7711 H 726.953 2.4467 -0.707713 0
M  V30 7712 H 727.736 2.47516 -2.37888 0
M  V30 7713 N 730.181 0.707592 1.40822 0
M  V30 7714 C 731.429 0.243189 2.00632 0
M  V30 7715 C 731.75 -1.16512 1.56365 0
M  V30 7716 O 731.02 -1.78841 0.799553 0
M  V30 7717 H 729.6 0.0869203 0.741926 0
M  V30 7718 H 732.262 0.911438 1.72275 0
M  V30 7719 H 731.358 0.270014 3.1093 0
M  V30 7720 N 731.66 -1.50943 0.453197 0
M  V30 7721 C 732.908 -2.01813 -0.107709 0
M  V30 7722 C 733.229 -1.33841 -1.41816 0
M  V30 7723 O 732.499 -0.477973 -1.8998 0
M  V30 7724 H 731.079 -0.745773 -0.0427948 0
M  V30 7725 H 733.741 -1.8545 0.599531 0
M  V30 7726 H 732.837 -3.10911 -0.27218 0
M  V30 7727 N 733.138 -0.185124 -1.56509 0
M  V30 7728 C 734.549 0.329221 -1.83774 0
M  V30 7729 C 734.9 1.62093 -1.10545 0
M  V30 7730 O 734.025 2.13334 -0.36298 0
M  V30 7731 C 734.62 0.604099 -3.33371 0
M  V30 7732 C 733.179 1.06284 -3.61083 0
M  V30 7733 C 732.326 0.10608 -2.77097 0
M  V30 7734 H 735.277 -0.409116 -1.53336 0
M  V30 7735 H 735.298 1.45458 -3.51599 0
M  V30 7736 H 734.81 -0.336201 -3.86641 0
M  V30 7737 H 732.911 2.01777 -3.13236 0
M  V30 7738 H 733.024 0.962453 -4.69333 0
M  V30 7739 H 731.388 0.606082 -2.47384 0
M  V30 7740 H 732.171 -0.828486 -3.33153 0
M  V30 7741 N 734.616 1.57351 0.0885366 0
M  V30 7742 C 736.027 1.75303 0.642308 0
M  V30 7743 C 736.378 0.808238 1.78779 0
M  V30 7744 O 735.503 -0.01171 2.16397 0
M  V30 7745 C 736.098 3.17885 1.17194 0
M  V30 7746 C 734.657 3.37239 1.67172 0
M  V30 7747 C 733.804 2.7108 0.584045 0
M  V30 7748 H 736.755 1.58103 -0.137567 0
M  V30 7749 H 736.776 3.2112 2.04114 0
M  V30 7750 H 736.288 3.86625 0.338024 0
M  V30 7751 H 734.389 2.73588 2.52943 0
M  V30 7752 H 734.502 4.45594 1.76019 0
M  V30 7753 H 732.866 2.33161 1.02508 0
M  V30 7754 H 733.649 3.42464 -0.239403 0
M  V30 7755 N 736.094 -0.359525 1.53444 0
M  V30 7756 C 737.51 -0.701599 1.43352 0
M  V30 7757 C 737.71 -1.93049 0.577439 0
M  V30 7758 O 736.766 -2.52423 0.0622224 0
M  V30 7759 C 738.079 -0.90915 2.86627 0
M  V30 7760 C 739.627 -1.00878 2.96298 0
M  V30 7761 C 740.102 -1.24876 4.40647 0
M  V30 7762 N 741.593 -1.31632 4.44103 0
M  V30 7763 C 742.328 -1.51922 5.52908 0
M  V30 7764 N 741.824 -1.69489 6.71748 0
M  V30 7765 N 743.617 -1.54341 5.40496 0
M  V30 7766 H 735.768 0.448685 2.07607 0
M  V30 7767 H 738.031 0.138713 0.937797 0
M  V30 7768 H 737.737 -0.0778997 3.51614 0
M  V30 7769 H 737.611 -1.81551 3.30634 0
M  V30 7770 H 739.998 -1.83057 2.31461 0
M  V30 7771 H 740.079 -0.0796721 2.55676 0
M  V30 7772 H 739.723 -0.431961 5.0606 0
M  V30 7773 H 739.653 -2.19118 4.78848 0
M  V30 7774 H 742.144 -1.19646 3.5846 0
M  V30 7775 H 742.457 -1.84561 7.50438 0
M  V30 7776 H 740.802 -1.66655 6.74723 0
M  V30 7777 H 743.993 -1.40188 4.46615 0
M  V30 7778 H 744.166 -1.69812 6.25354 0
M  V30 7779 N 737.572 -1.44907 -0.619662 0
M  V30 7780 C 738.988 -1.29046 -0.939107 0
M  V30 7781 C 739.188 -0.23462 -2.00129 0
M  V30 7782 O 738.244 0.37558 -2.49691 0
M  V30 7783 C 739.557 -2.66567 -1.39149 0
M  V30 7784 C 741.105 -2.74368 -1.50635 0
M  V30 7785 C 741.58 -4.12386 -1.99253 0
M  V30 7786 N 743.071 -4.1462 -2.06506 0
M  V30 7787 C 743.806 -5.18272 -2.4532 0
M  V30 7788 N 743.302 -6.32278 -2.83189 0
M  V30 7789 N 745.095 -5.05628 -2.45554 0
M  V30 7790 H 737.246 -2.12239 0.0826135 0
M  V30 7791 H 739.509 -0.947652 -0.0256829 0
M  V30 7792 H 739.215 -3.4496 -0.685254 0
M  V30 7793 H 739.089 -2.94224 -2.36034 0
M  V30 7794 H 741.476 -1.96287 -2.20353 0
M  V30 7795 H 741.557 -2.50439 -0.520963 0
M  V30 7796 H 741.201 -4.90947 -1.30127 0
M  V30 7797 H 741.131 -4.33699 -2.98684 0
M  V30 7798 H 743.622 -3.32343 -1.79878 0
M  V30 7799 H 743.935 -7.07172 -3.11652 0
M  V30 7800 H 742.28 -6.35699 -2.80913 0
M  V30 7801 H 745.471 -4.15613 -2.15367 0
M  V30 7802 H 745.644 -5.86529 -2.75478 0
M  V30 7803 N 739.05 0.861098 -1.31996 0
M  V30 7804 C 740.013 1.95068 -1.20338 0
M  V30 7805 C 741.013 1.60289 -0.128114 0
M  V30 7806 O 742.203 1.70048 -0.378044 0
M  V30 7807 C 739.335 3.30153 -0.849205 0
M  V30 7808 H 740.528 2.06833 -2.17164 0
M  V30 7809 H 738.081 1.05049 -1.15734 0
M  V30 7810 H 738.816 3.24087 0.117508 0
M  V30 7811 H 738.601 3.56771 -1.62655 0
M  V30 7812 H 740.091 4.10025 -0.791782 0
M  V30 7813 N 740.528 1.15101 1.07655 0
M  V30 7814 C 741.478 0.813448 2.12995 0
M  V30 7815 C 742.462 -0.200899 1.59641 0
M  V30 7816 O 743.654 -0.00209918 1.77 0
M  V30 7817 C 740.783 0.301078 3.41977 0
M  V30 7818 C 739.869 1.3454 4.02194 0
M  V30 7819 N 740.26 2.55181 4.36711 0
M  V30 7820 C 738.558 1.19742 4.29625 0
M  V30 7821 C 739.259 3.22094 4.84387 0
M  V30 7822 N 738.235 2.49486 4.82968 0
M  V30 7823 H 742.037 1.73105 2.37511 0
M  V30 7824 H 739.551 1.03601 1.25063 0
M  V30 7825 H 741.548 0.040914 4.1688 0
M  V30 7826 H 740.208 -0.610629 3.18907 0
M  V30 7827 H 741.219 2.92349 4.27496 0
M  V30 7828 H 737.896 0.345353 4.16069 0
M  V30 7829 H 739.286 4.24996 5.20411 0
M  V30 7830 N 742.006 -1.2595 0.947325 0
M  V30 7831 C 743.253 -1.93463 0.598178 0
M  V30 7832 C 743.581 -1.74271 -0.863705 0
M  V30 7833 O 742.836 -1.07684 -1.63409 0
M  V30 7834 C 743.135 -3.46034 0.894158 0
M  V30 7835 C 742.801 -3.85373 2.3409 0
M  V30 7836 C 741.463 -3.95823 2.73637 0
M  V30 7837 C 743.815 -4.04986 3.2808 0
M  V30 7838 C 741.143 -4.23288 4.06257 0
M  V30 7839 C 743.495 -4.3394 4.60303 0
M  V30 7840 C 742.159 -4.42606 4.99656 0
M  V30 7841 H 741.429 -0.707933 0.218889 0
M  V30 7842 H 744.076 -1.4964 1.19499 0
M  V30 7843 H 742.381 -3.9121 0.214874 0
M  V30 7844 H 744.078 -3.96445 0.602698 0
M  V30 7845 H 740.668 -3.7779 2.02417 0
M  V30 7846 H 744.852 -3.96333 2.9872 0
M  V30 7847 H 740.108 -4.28211 4.36401 0
M  V30 7848 H 744.282 -4.48061 5.33118 0
M  V30 7849 H 741.909 -4.63641 6.02446 0
M  V30 7850 N 743.484 -0.715051 -1.40445 0
M  V30 7851 C 744.73 -0.263528 -2.01686 0
M  V30 7852 C 745.085 1.13052 -1.55683 0
M  V30 7853 O 744.378 1.75588 -0.766762 0
M  V30 7854 C 744.572 -0.281791 -3.56287 0
M  V30 7855 C 744.401 -1.67607 -4.17298 0
M  V30 7856 C 743.171 -2.2836 -4.50755 0
M  V30 7857 C 745.369 -2.62621 -4.42193 0
M  V30 7858 N 743.351 -3.6015 -4.97157 0
M  V30 7859 C 744.722 -3.79116 -4.90582 0
M  V30 7860 C 746.777 -2.60639 -4.24231 0
M  V30 7861 C 745.48 -4.93937 -5.22895 0
M  V30 7862 C 747.506 -3.74587 -4.57644 0
M  V30 7863 C 746.868 -4.89815 -5.06222 0
M  V30 7864 H 742.967 -0.142252 -0.768953 0
M  V30 7865 H 745.551 -0.936732 -1.70685 0
M  V30 7866 H 743.722 0.360975 -3.86719 0
M  V30 7867 H 745.454 0.186393 -4.04271 0
M  V30 7868 H 742.209 -1.80463 -4.3787 0
M  V30 7869 H 742.633 -4.27757 -5.24741 0
M  V30 7870 H 747.275 -1.72759 -3.85894 0
M  V30 7871 H 744.993 -5.82462 -5.60146 0
M  V30 7872 H 748.579 -3.74328 -4.45387 0
M  V30 7873 H 747.459 -5.76525 -5.3159 0
M  V30 7874 N 744.962 1.50701 -0.461195 0
M  V30 7875 C 745.892 2.31182 0.328184 0
M  V30 7876 C 746.873 1.37644 0.999408 0
M  V30 7877 O 748.058 1.66565 0.99848 0
M  V30 7878 C 745.188 3.17113 1.41621 0
M  V30 7879 C 744.142 4.19124 0.867148 0
M  V30 7880 C 743.468 4.93728 2.05272 0
M  V30 7881 C 744.768 5.22174 -0.114808 0
M  V30 7882 H 746.462 2.97423 -0.343501 0
M  V30 7883 H 744.008 1.43033 -0.166641 0
M  V30 7884 H 745.961 3.72208 1.97584 0
M  V30 7885 H 744.685 2.48739 2.11652 0
M  V30 7886 H 743.344 3.65116 0.329557 0
M  V30 7887 H 742.992 4.21835 2.73978 0
M  V30 7888 H 742.692 5.62724 1.69161 0
M  V30 7889 H 744.216 5.51654 2.61744 0
M  V30 7890 H 745.63 5.72198 0.355316 0
M  V30 7891 H 744.027 5.98833 -0.389689 0
M  V30 7892 H 745.097 4.7353 -1.04391 0
M  V30 7893 N 746.441 0.193421 1.56409 0
M  V30 7894 C 747.391 -0.74089 2.15627 0
M  V30 7895 C 748.375 -1.17747 1.09656 0
M  V30 7896 O 749.567 -1.13615 1.35723 0
M  V30 7897 C 746.696 -1.96091 2.81786 0
M  V30 7898 C 745.782 -1.54531 3.94944 0
M  V30 7899 N 746.173 -0.840569 4.98767 0
M  V30 7900 C 744.471 -1.83473 4.06514 0
M  V30 7901 C 745.172 -0.632571 5.7825 0
M  V30 7902 N 744.148 -1.18078 5.30621 0
M  V30 7903 H 747.95 -0.193718 2.93261 0
M  V30 7904 H 745.464 -0.00643211 1.62399 0
M  V30 7905 H 747.461 -2.64071 3.22602 0
M  V30 7906 H 746.121 -2.51282 2.05639 0
M  V30 7907 H 747.132 -0.496218 5.15517 0
M  V30 7908 H 743.809 -2.40184 3.41493 0
M  V30 7909 H 745.199 -0.0736433 6.7186 0
M  V30 7910 N 747.919 -1.57396 -0.0801906 0
M  V30 7911 C 749.166 -1.86836 -0.780927 0
M  V30 7912 C 749.494 -0.784012 -1.77999 0
M  V30 7913 O 748.749 0.220881 -1.94449 0
M  V30 7914 C 749.048 -3.22915 -1.53169 0
M  V30 7915 C 748.714 -4.45843 -0.67339 0
M  V30 7916 C 747.376 -4.79213 -0.436829 0
M  V30 7917 C 749.728 -5.21142 -0.0776786 0
M  V30 7918 C 747.056 -5.853 0.405062 0
M  V30 7919 C 749.408 -6.28119 0.751619 0
M  V30 7920 C 748.072 -6.59995 0.998131 0
M  V30 7921 H 747.342 -0.683682 -0.285761 0
M  V30 7922 H 749.989 -1.91454 -0.0419435 0
M  V30 7923 H 748.294 -3.14049 -2.34265 0
M  V30 7924 H 749.991 -3.42926 -2.07853 0
M  V30 7925 H 746.581 -4.19721 -0.867891 0
M  V30 7926 H 750.765 -4.95682 -0.247572 0
M  V30 7927 H 746.021 -6.084 0.60488 0
M  V30 7928 H 750.195 -6.8563 1.22 0
M  V30 7929 H 747.822 -7.42027 1.65227 0
M  V30 7930 N 749.397 0.351382 -1.53633 0
M  V30 7931 C 750.327 1.43688 -1.84055 0
M  V30 7932 C 751.308 1.55251 -0.695073 0
M  V30 7933 O 752.493 1.69587 -0.946257 0
M  V30 7934 C 749.623 2.80843 -2.04315 0
M  V30 7935 C 748.577 2.84094 -3.20117 0
M  V30 7936 C 747.903 4.2406 -3.25696 0
M  V30 7937 C 749.203 2.50334 -4.58399 0
M  V30 7938 H 750.897 1.18478 -2.74961 0
M  V30 7939 H 748.443 0.568509 -1.32303 0
M  V30 7940 H 750.396 3.56821 -2.2418 0
M  V30 7941 H 749.12 3.07471 -1.10132 0
M  V30 7942 H 747.779 2.10568 -3.00094 0
M  V30 7943 H 747.427 4.47785 -2.29123 0
M  V30 7944 H 747.127 4.27147 -4.03509 0
M  V30 7945 H 748.651 5.0189 -3.47762 0
M  V30 7946 H 750.065 3.16025 -4.78332 0
M  V30 7947 H 748.462 2.64717 -5.38558 0
M  V30 7948 H 749.532 1.45542 -4.62543 0
M  V30 7949 N 750.875 1.45233 0.611969 0
M  V30 7950 C 751.805 1.5641 1.73373 0
M  V30 7951 C 752.786 0.415896 1.64937 0
M  V30 7952 O 753.971 0.638478 1.83404 0
M  V30 7953 C 751.101 1.52627 3.11965 0
M  V30 7954 C 750.055 2.66119 3.35208 0
M  V30 7955 C 749.381 2.4739 4.74028 0
M  V30 7956 C 750.681 4.08157 3.25891 0
M  V30 7957 H 752.375 2.50307 1.64277 0
M  V30 7958 H 749.921 1.20467 0.788904 0
M  V30 7959 H 751.874 1.59043 3.90235 0
M  V30 7960 H 750.598 0.552564 3.21892 0
M  V30 7961 H 749.257 2.59123 2.59327 0
M  V30 7962 H 748.905 1.48168 4.80682 0
M  V30 7963 H 748.605 3.23494 4.90536 0
M  V30 7964 H 750.129 2.55653 5.54503 0
M  V30 7965 H 751.543 4.1642 3.9404 0
M  V30 7966 H 749.94 4.84617 3.5393 0
M  V30 7967 H 751.01 4.30374 2.23397 0
M  V30 7968 N 752.353 -0.854086 1.3245 0
M  V30 7969 C 753.285 -1.96932 1.17262 0
M  V30 7970 C 754.298 -1.62445 0.107469 0
M  V30 7971 O 755.487 -1.74904 0.356481 0
M  V30 7972 C 752.587 -3.29971 0.772817 0
M  V30 7973 C 751.76 -3.92695 1.92638 0
M  V30 7974 C 750.819 -5.04068 1.51003 0
M  V30 7975 O 749.845 -5.24032 2.22213 0
M  V30 7976 N 751.047 -5.79076 0.406371 0
M  V30 7977 H 753.812 -2.10503 2.13327 0
M  V30 7978 H 751.373 -1.02897 1.24995 0
M  V30 7979 H 753.365 -4.01883 0.476684 0
M  V30 7980 H 751.935 -3.1245 -0.0967 0
M  V30 7981 H 751.155 -3.13563 2.38897 0
M  V30 7982 H 752.443 -4.31337 2.69863 0
M  V30 7983 H 751.841 -5.65393 -0.186302 0
M  V30 7984 H 750.398 -6.51579 0.169846 0
M  V30 7985 N 753.831 -1.1567 -1.07043 0
M  V30 7986 C 755.056 -0.957946 -1.83952 0
M  V30 7987 C 755.481 0.488807 -1.81638 0
M  V30 7988 O 754.839 1.34869 -1.21162 0
M  V30 7989 C 754.887 -1.48064 -3.288 0
M  V30 7990 O 753.991 -0.681921 -4.06723 0
M  V30 7991 H 753.332 -0.341453 -0.569479 0
M  V30 7992 H 755.862 -1.53728 -1.35015 0
M  V30 7993 H 755.872 -1.49484 -3.7963 0
M  V30 7994 H 754.547 -2.53388 -3.29799 0
M  V30 7995 H 753.124 -0.737612 -3.65532 0
M  V30 7996 N 755.309 1.25446 -0.953992 0
M  V30 7997 C 756.549 1.94894 -0.616087 0
M  V30 7998 C 756.913 1.73067 0.831374 0
M  V30 7999 O 758.114 2.3643 1.27884 0
M  V30 8000 C 756.385 3.44147 -0.964225 0
M  V30 8001 S 757.944 4.32536 -0.738798 0
M  V30 8002 H 754.762 0.673967 -0.226472 0
M  V30 8003 H 757.364 1.52117 -1.22803 0
M  V30 8004 H 756.068 3.57537 -2.01484 0
M  V30 8005 H 755.599 3.91906 -0.342507 0
M  V30 8006 H 757.614 4.94659 0.390732 0
M  V30 8007 N 756.787 0.722489 1.40064 0
M  V30 8008 C 757.719 0.0349057 2.29173 0
M  V30 8009 C 758.732 -0.716571 1.46182 0
M  V30 8010 O 759.921 -0.562806 1.69395 0
M  V30 8011 C 757.021 -0.974839 3.24577 0
M  V30 8012 C 756.194 -0.287471 4.36454 0
M  V30 8013 C 755.253 -1.20356 5.12251 0
M  V30 8014 O 754.279 -0.685753 5.65054 0
M  V30 8015 N 755.481 -2.53422 5.22262 0
M  V30 8016 H 758.246 0.800058 2.88824 0
M  V30 8017 H 755.807 0.57068 1.51509 0
M  V30 8018 H 757.799 -1.59002 3.72157 0
M  V30 8019 H 756.369 -1.6413 2.66046 0
M  V30 8020 H 755.589 0.508008 3.90913 0
M  V30 8021 H 756.877 0.189382 5.08447 0
M  V30 8022 H 756.275 -2.97981 4.80857 0
M  V30 8023 H 754.832 -3.10067 5.73325 0
M  V30 8024 N 758.265 -1.50454 0.469181 0
M  V30 8025 C 759.676 -1.86695 0.0136034 0
M  V30 8026 C 760.027 -1.38413 -1.39055 0
M  V30 8027 O 759.152 -0.748294 -2.03051 0
M  V30 8028 C 759.747 -3.38795 0.0179098 0
M  V30 8029 C 758.306 -3.74455 -0.382191 0
M  V30 8030 C 757.453 -2.74338 0.404207 0
M  V30 8031 H 760.404 -1.43225 0.683547 0
M  V30 8032 H 760.425 -3.72321 -0.78468 0
M  V30 8033 H 759.937 -3.73906 1.04 0
M  V30 8034 H 758.038 -3.44944 -1.4087 0
M  V30 8035 H 758.151 -4.79025 -0.084862 0
M  V30 8036 H 756.515 -2.54305 -0.141829 0
M  V30 8037 H 757.298 -3.12293 1.42577 0
M  V30 8038 N 759.743 -0.201713 -1.56304 0
M  V30 8039 C 760.99 0.435307 -1.97766 0
M  V30 8040 C 761.318 1.61169 -1.0888 0
M  V30 8041 O 760.573 1.95272 -0.12934 0
M  V30 8042 C 760.872 0.931432 -3.45049 0
M  V30 8043 C 760.538 -0.132287 -4.50706 0
M  V30 8044 C 759.2 -0.424552 -4.79323 0
M  V30 8045 C 761.552 -0.852703 -5.14177 0
M  V30 8046 C 758.88 -1.4421 -5.68701 0
M  V30 8047 C 761.232 -1.85944 -6.04655 0
M  V30 8048 C 759.896 -2.15884 -6.31625 0
M  V30 8049 H 759.166 0.15929 -0.723676 0
M  V30 8050 H 761.813 -0.300069 -1.89134 0
M  V30 8051 H 760.118 1.7452 -3.50785 0
M  V30 8052 H 761.815 1.43383 -3.74489 0
M  V30 8053 H 758.405 0.105671 -4.2847 0
M  V30 8054 H 762.589 -0.640139 -4.92154 0
M  V30 8055 H 757.845 -1.6799 -5.87869 0
M  V30 8056 H 762.019 -2.42286 -6.52894 0
M  V30 8057 H 759.646 -2.94875 -7.0068 0
M  V30 8058 N 761.222 1.57436 0.0718424 0
M  V30 8059 C 762.169 2.03686 1.08539 0
M  V30 8060 C 763.139 0.917474 1.38462 0
M  V30 8061 O 764.324 1.18513 1.4953 0
M  V30 8062 C 761.464 2.48566 2.39393 0
M  V30 8063 C 760.577 3.74122 2.16001 0
M  V30 8064 C 759.712 4.07786 3.40418 0
M  V30 8065 C 758.751 5.26383 3.1239 0
M  V30 8066 N 757.888 5.55685 4.29138 0
M  V30 8067 H 762.728 2.90043 0.684018 0
M  V30 8068 H 760.265 1.43438 0.326183 0
M  V30 8069 H 762.223 2.72639 3.15791 0
M  V30 8070 H 760.853 1.65186 2.77333 0
M  V30 8071 H 759.905 3.57389 1.30296 0
M  V30 8072 H 761.217 4.60659 1.91298 0
M  V30 8073 H 760.371 4.32759 4.25211 0
M  V30 8074 H 759.11 3.19817 3.68197 0
M  V30 8075 H 758.115 5.01206 2.25993 0
M  V30 8076 H 759.34 6.1597 2.85934 0
M  V30 8077 H 757.286 4.70675 4.56948 0
M  V30 8078 H 757.203 6.3664 4.07708 0
M  V30 8079 H 758.471 5.85209 5.14928 0
M  V30 8080 N 762.7 -0.34323 1.53817 0
M  V30 8081 C 763.928 -1.10348 1.75017 0
M  V30 8082 C 764.343 -1.82345 0.489475 0
M  V30 8083 O 763.7 -1.74362 -0.538886 0
M  V30 8084 C 763.751 -2.11672 2.93048 0
M  V30 8085 O 763.472 -1.42603 4.14241 0
M  V30 8086 C 764.973 -3.0007 3.26301 0
M  V30 8087 H 762.193 -0.329056 0.584776 0
M  V30 8088 H 764.737 -0.395339 2.00642 0
M  V30 8089 H 762.892 -2.78051 2.69753 0
M  V30 8090 H 763.306 -2.10294 4.80496 0
M  V30 8091 H 764.78 -3.67101 4.12239 0
M  V30 8092 H 765.257 -3.66105 2.42618 0
M  V30 8093 H 765.863 -2.3928 3.51604 0
M  V30 8094 N 764.178 -1.45556 -0.604258 0
M  V30 8095 C 765.141 -1.54091 -1.69672 0
M  V30 8096 C 766.141 -0.420076 -1.55216 0
M  V30 8097 O 767.331 -0.683671 -1.60224 0
M  V30 8098 C 764.463 -1.44063 -3.08964 0
M  V30 8099 H 765.656 -2.51431 -1.6347 0
M  V30 8100 H 763.209 -1.33046 -0.820273 0
M  V30 8101 H 763.944 -0.479201 -3.2074 0
M  V30 8102 H 763.729 -2.25362 -3.20865 0
M  V30 8103 H 765.219 -1.53075 -3.88533 0
M  V30 8104 N 765.656 0.84705 -1.32902 0
M  V30 8105 C 766.896 1.61554 -1.25218 0
M  V30 8106 C 767.26 1.91141 0.18143 0
M  V30 8107 O 768.461 2.6607 0.382106 0
M  V30 8108 C 766.732 2.89553 -2.09509 0
M  V30 8109 S 768.291 3.80283 -2.18931 0
M  V30 8110 H 765.109 0.554031 -0.445613 0
M  V30 8111 H 767.711 1.00251 -1.67839 0
M  V30 8112 H 766.415 2.65776 -3.12716 0
M  V30 8113 H 765.946 3.55868 -1.67694 0
M  V30 8114 H 767.961 4.77641 -1.34438 0
M  V30 8115 N 767.134 1.16236 1.06428 0
M  V30 8116 C 768.097 0.870163 2.1204 0
M  V30 8117 C 769.097 -0.134239 1.60239 0
M  V30 8118 O 770.287 0.0964932 1.73933 0
M  V30 8119 C 767.419 0.301033 3.39568 0
M  V30 8120 H 768.612 1.8064 2.39394 0
M  V30 8121 H 766.165 0.971116 1.2247 0
M  V30 8122 H 766.9 -0.642948 3.17863 0
M  V30 8123 H 766.685 1.02475 3.78472 0
M  V30 8124 H 768.175 0.114494 4.17443 0
M  V30 8125 N 768.612 -1.24939 0.960631 0
M  V30 8126 C 769.544 -2.24879 0.442937 0
M  V30 8127 C 770.557 -1.56615 -0.444464 0
M  V30 8128 O 771.746 -1.76715 -0.251776 0
M  V30 8129 C 768.846 -3.36757 -0.380537 0
M  V30 8130 C 768.019 -4.34587 0.495283 0
M  V30 8131 C 767.078 -5.25502 -0.270995 0
M  V30 8132 O 766.104 -5.68227 0.332661 0
M  V30 8133 N 767.306 -5.59077 -1.56249 0
M  V30 8134 H 770.071 -2.69932 1.30218 0
M  V30 8135 H 767.632 -1.38907 0.83166 0
M  V30 8136 H 769.624 -3.94542 -0.90103 0
M  V30 8137 H 768.194 -2.91045 -1.14067 0
M  V30 8138 H 767.414 -3.75593 1.19682 0
M  V30 8139 H 768.702 -4.96925 1.09285 0
M  V30 8140 H 768.1 -5.2628 -2.07476 0
M  V30 8141 H 766.657 -6.19421 -2.02882 0
M  V30 8142 N 770.09 -0.729906 -1.39679 0
M  V30 8143 C 771.338 -0.275077 -2.00219 0
M  V30 8144 C 771.659 1.1401 -1.58199 0
M  V30 8145 O 770.929 1.77546 -0.827904 0
M  V30 8146 H 769.509 -0.0987127 -0.740449 0
M  V30 8147 H 772.171 -0.93873 -1.70804 0
M  V30 8148 H 771.267 -0.319446 -3.10461 0
M  V30 8149 N 771.568 1.50203 -0.477153 0
M  V30 8150 C 772.845 1.95115 0.137609 0
M  V30 8151 C 773.225 1.41778 1.56404 0
M  V30 8152 O 772.573 0.621333 2.1989 0
M  V30 8153 C 772.783 3.4892 0.0747168 0
M  V30 8154 C 774.131 4.238 0.260585 0
M  V30 8155 O 775.155 3.5588 0.151021 0
M  V30 8156 O 774.014 5.44366 0.482534 0
M  V30 8157 H 771.108 0.81987 0.108364 0
M  V30 8158 H 773.654 1.60946 -0.537989 0
M  V30 8159 H 772.426 3.80308 -0.920966 0
M  V30 8160 H 772.049 3.89642 0.791509 0
M  V30 8161 N 773.046 0.209999 1.56195 0
M  V30 8162 C 773.978 -0.736967 2.17029 0
M  V30 8163 C 774.991 -1.16599 1.13616 0
M  V30 8164 O 776.18 -1.09914 1.40646 0
M  V30 8165 C 773.28 -2.00852 2.72969 0
M  V30 8166 C 772.453 -1.73691 4.01435 0
M  V30 8167 C 771.512 -2.85439 4.42053 0
M  V30 8168 O 770.538 -2.54405 5.09183 0
M  V30 8169 N 771.74 -4.14135 4.06783 0
M  V30 8170 H 774.505 -0.216656 2.98916 0
M  V30 8171 H 772.066 0.0285672 1.61875 0
M  V30 8172 H 774.058 -2.74778 2.97118 0
M  V30 8173 H 772.628 -2.43963 1.95451 0
M  V30 8174 H 771.848 -0.834676 3.85262 0
M  V30 8175 H 773.136 -1.52961 4.85263 0
M  V30 8176 H 772.534 -4.42196 3.52816 0
M  V30 8177 H 771.091 -4.84642 4.35851 0
M  V30 8178 N 774.524 -1.57472 -0.0634922 0
M  V30 8179 C 775.764 -1.89491 -0.766312 0
M  V30 8180 C 776.128 -0.80475 -1.74321 0
M  V30 8181 O 777.329 -1.00825 -2.49174 0
M  V30 8182 C 775.6 -3.26731 -1.44851 0
M  V30 8183 S 777.159 -3.80516 -2.18525 0
M  V30 8184 H 773.977 -0.663832 -0.254653 0
M  V30 8185 H 776.579 -1.95488 -0.0220867 0
M  V30 8186 H 775.283 -4.03967 -0.723824 0
M  V30 8187 H 774.814 -3.23953 -2.232 0
M  V30 8188 H 776.829 -3.5647 -3.45172 0
M  V30 8189 N 776.003 0.335068 -1.53997 0
M  V30 8190 C 776.933 1.41727 -1.85568 0
M  V30 8191 C 777.914 1.54505 -0.7115 0
M  V30 8192 O 779.099 1.68573 -0.964191 0
M  V30 8193 C 776.229 2.7866 -2.07282 0
M  V30 8194 C 775.183 2.80682 -3.23112 0
M  V30 8195 C 774.509 4.20581 -3.30175 0
M  V30 8196 C 775.809 2.45458 -4.61029 0
M  V30 8197 H 777.503 1.15555 -2.76202 0
M  V30 8198 H 775.049 0.554445 -1.32898 0
M  V30 8199 H 777.002 3.54423 -2.27952 0
M  V30 8200 H 775.726 3.06286 -1.13387 0
M  V30 8201 H 774.385 2.07373 -3.02311 0
M  V30 8202 H 774.033 4.4533 -2.33859 0
M  V30 8203 H 773.733 4.22843 -4.08016 0
M  V30 8204 H 775.257 4.98174 -3.53066 0
M  V30 8205 H 776.671 3.10934 -4.81656 0
M  V30 8206 H 775.068 2.5899 -5.41336 0
M  V30 8207 H 776.138 1.40628 -4.6406 0
M  V30 8208 N 777.481 1.45874 0.596531 0
M  V30 8209 C 778.727 1.5069 1.35722 0
M  V30 8210 C 779.06 0.152506 1.936 0
M  V30 8211 O 778.335 -0.834411 1.75692 0
M  V30 8212 C 778.618 2.59474 2.4969 0
M  V30 8213 C 778.471 4.04396 1.96937 0
M  V30 8214 C 779.79 2.64451 3.51787 0
M  V30 8215 H 776.909 0.548611 0.492133 0
M  V30 8216 H 779.551 1.77741 0.671428 0
M  V30 8217 H 777.701 2.36539 3.08191 0
M  V30 8218 H 779.373 4.38576 1.43 0
M  V30 8219 H 777.616 4.14529 1.27859 0
M  V30 8220 H 778.287 4.76218 2.79143 0
M  V30 8221 H 780.763 2.85031 3.03145 0
M  V30 8222 H 779.639 3.42411 4.29006 0
M  V30 8223 H 779.9 1.69965 4.08123 0
M  V30 8224 N 778.959 -0.83999 1.33349 0
M  V30 8225 C 779.889 -1.965 1.26135 0
M  V30 8226 C 780.87 -1.69505 0.142152 0
M  V30 8227 O 782.055 -1.91346 0.331743 0
M  V30 8228 C 779.185 -3.32632 0.99866 0
M  V30 8229 C 778.139 -3.74021 2.08068 0
M  V30 8230 C 777.465 -5.07947 1.67014 0
M  V30 8231 C 778.765 -3.87925 3.49731 0
M  V30 8232 H 780.459 -2.02793 2.20262 0
M  V30 8233 H 778.005 -0.974297 1.06035 0
M  V30 8234 H 779.958 -4.10903 0.934696 0
M  V30 8235 H 778.682 -3.26593 0.0217759 0
M  V30 8236 H 777.341 -2.98012 2.13505 0
M  V30 8237 H 776.989 -4.98378 0.680316 0
M  V30 8238 H 776.689 -5.36611 2.39422 0
M  V30 8239 H 778.213 -5.88695 1.62082 0
M  V30 8240 H 779.627 -4.5651 3.46802 0
M  V30 8241 H 778.024 -4.28023 4.20614 0
M  V30 8242 H 779.094 -2.90407 3.88319 0
M  V30 8243 N 780.437 -1.16799 -1.0581 0
M  V30 8244 C 781.683 -0.953935 -1.78963 0
M  V30 8245 C 782.016 0.516638 -1.87202 0
M  V30 8246 O 781.291 1.38338 -1.36721 0
M  V30 8247 C 781.574 -1.58808 -3.23191 0
M  V30 8248 C 781.427 -3.13032 -3.23003 0
M  V30 8249 C 782.746 -1.2868 -4.20867 0
M  V30 8250 H 779.865 -0.347972 -0.64968 0
M  V30 8251 H 782.507 -1.44204 -1.23715 0
M  V30 8252 H 780.657 -1.17303 -3.70368 0
M  V30 8253 H 782.329 -3.63553 -2.83949 0
M  V30 8254 H 780.572 -3.46108 -2.61518 0
M  V30 8255 H 781.243 -3.52527 -4.24769 0
M  V30 8256 H 783.719 -1.6461 -3.82155 0
M  V30 8257 H 782.595 -1.75645 -5.20038 0
M  V30 8258 H 782.856 -0.206491 -4.41618 0
M  V30 8259 N 781.915 1.24427 -0.967243 0
M  V30 8260 C 782.845 2.2773 -0.515899 0
M  V30 8261 C 783.826 1.64197 0.444227 0
M  V30 8262 O 785.011 1.91193 0.340451 0
M  V30 8263 C 782.141 3.46751 0.195149 0
M  V30 8264 C 781.095 4.22548 -0.680953 0
M  V30 8265 C 780.421 5.34456 0.161561 0
M  V30 8266 C 781.721 4.83914 -1.96532 0
M  V30 8267 H 783.415 2.65735 -1.37933 0
M  V30 8268 H 780.961 1.27742 -0.664681 0
M  V30 8269 H 782.914 4.18153 0.522117 0
M  V30 8270 H 781.638 3.07771 1.09292 0
M  V30 8271 H 780.297 3.52946 -0.991186 0
M  V30 8272 H 779.945 4.91716 1.05947 0
M  V30 8273 H 779.645 5.86087 -0.421418 0
M  V30 8274 H 781.169 6.08685 0.483211 0
M  V30 8275 H 782.583 5.47392 -1.70396 0
M  V30 8276 H 780.98 5.45775 -2.49499 0
M  V30 8277 H 782.05 4.05393 -2.66053 0
M  V30 8278 N 783.393 0.737304 1.3929 0
M  V30 8279 C 784.303 0.100464 2.34385 0
M  V30 8280 C 785.319 -0.719282 1.58437 0
M  V30 8281 O 786.495 -0.647216 1.90717 0
M  V30 8282 C 783.56 -0.794325 3.37478 0
M  V30 8283 C 782.621 0.0379345 4.29283 0
M  V30 8284 C 781.854 -0.814241 5.27452 0
M  V30 8285 O 782.077 -2.05288 5.32177 0
M  V30 8286 O 781.011 -0.241679 6.01415 0
M  V30 8287 H 784.837 0.885407 2.90507 0
M  V30 8288 H 782.422 0.497999 1.40856 0
M  V30 8289 H 784.304 -1.30622 4.00644 0
M  V30 8290 H 782.979 -1.55804 2.83737 0
M  V30 8291 H 781.886 0.595405 3.69331 0
M  V30 8292 H 783.219 0.763926 4.86236 0
M  V30 8293 N 784.871 -1.49948 0.485112 0
M  V30 8294 C 785.804 -2.25531 -0.348027 0
M  V30 8295 C 786.782 -1.29433 -0.984172 0
M  V30 8296 O 787.966 -1.58687 -1.01738 0
M  V30 8297 C 785.093 -3.04225 -1.48878 0
M  V30 8298 C 784.139 -4.15355 -0.968616 0
M  V30 8299 S 784.972 -5.35347 0.127934 0
M  V30 8300 C 786.128 -6.17593 -1.01637 0
M  V30 8301 H 786.361 -2.95847 0.293529 0
M  V30 8302 H 783.894 -1.52018 0.27018 0
M  V30 8303 H 785.852 -3.50153 -2.14251 0
M  V30 8304 H 784.513 -2.33407 -2.1019 0
M  V30 8305 H 783.706 -4.69873 -1.82305 0
M  V30 8306 H 783.308 -3.71936 -0.392377 0
M  V30 8307 H 785.6 -6.49576 -1.92503 0
M  V30 8308 H 786.543 -7.0626 -0.510149 0
M  V30 8309 H 786.951 -5.49877 -1.27653 0
M  V30 8310 N 786.349 -0.21828 -1.56081 0
M  V30 8311 C 787.297 0.709679 -2.21509 0
M  V30 8312 C 788.291 1.20221 -1.19346 0
M  V30 8313 O 789.497 1.16241 -1.37433 0
M  V30 8314 H 785.872 0.247271 -0.710184 0
M  V30 8315 H 787.843 0.134386 -2.98097 0
M  V30 8316 C 786.592 1.90853 -2.90638 0
M  V30 8317 H 785.915 1.53865 -3.69006 0
M  V30 8318 H 787.355 2.53568 -3.39822 0
M  V30 8319 C 785.814 2.76189 -1.92929 0
M  V30 8320 O 786.344 3.74842 -1.44416 0
M  V30 8321 N 784.55 2.42157 -1.6065 0
M  V30 8322 H 784.097 1.61987 -2.00294 0
M  V30 8323 H 784.055 2.99534 -0.955347 0
M  V30 8324 N 787.827 1.57504 0.0551401 0
M  V30 8325 C 788.774 2.04825 1.06373 0
M  V30 8326 C 789.744 0.932108 1.37481 0
M  V30 8327 O 790.929 1.20093 1.48265 0
M  V30 8328 C 788.069 2.51091 2.36743 0
M  V30 8329 C 787.182 3.76392 2.12021 0
M  V30 8330 C 786.317 4.11373 3.36074 0
M  V30 8331 C 785.356 5.29666 3.0679 0
M  V30 8332 N 784.493 5.60205 4.2322 0
M  V30 8333 H 789.333 2.90753 0.653216 0
M  V30 8334 H 786.87 1.43776 0.310951 0
M  V30 8335 H 788.828 2.75973 3.12881 0
M  V30 8336 H 787.458 1.68118 2.75565 0
M  V30 8337 H 786.51 3.58751 1.26498 0
M  V30 8338 H 787.822 4.62662 1.86401 0
M  V30 8339 H 786.976 4.37245 4.20597 0
M  V30 8340 H 785.715 3.23704 3.64784 0
M  V30 8341 H 784.72 5.03574 2.20664 0
M  V30 8342 H 785.945 6.18968 2.79385 0
M  V30 8343 H 783.891 4.75495 4.5193 0
M  V30 8344 H 783.808 6.40928 4.00933 0
M  V30 8345 H 785.076 5.90637 5.08692 0
M  V30 8346 N 789.305 -0.326896 1.54172 0
M  V30 8347 C 790.551 -1.06681 1.72473 0
M  V30 8348 C 790.884 -1.87779 0.49523 0
M  V30 8349 O 790.159 -1.87754 -0.507803 0
M  V30 8350 C 790.442 -1.99429 2.99834 0
M  V30 8351 C 790.295 -1.21682 4.33028 0
M  V30 8352 C 791.614 -2.99002 3.22933 0
M  V30 8353 H 788.733 -0.386438 0.627563 0
M  V30 8354 H 791.375 -0.343779 1.86864 0
M  V30 8355 H 789.525 -2.61081 2.87696 0
M  V30 8356 H 791.197 -0.625153 4.57044 0
M  V30 8357 H 789.44 -0.519045 4.30684 0
M  V30 8358 H 790.111 -1.89766 5.18356 0
M  V30 8359 H 792.587 -2.4747 3.34511 0
M  V30 8360 H 791.463 -3.61085 4.13412 0
M  V30 8361 H 791.724 -3.71281 2.40006 0
M  V30 8362 N 790.784 -1.46188 -0.588786 0
M  V30 8363 C 791.714 -1.59148 -1.70863 0
M  V30 8364 C 792.695 -0.442083 -1.64255 0
M  V30 8365 O 793.88 -0.667575 -1.82365 0
M  V30 8366 C 791.01 -1.5757 -3.09498 0
M  V30 8367 C 789.964 -2.71418 -3.30932 0
M  V30 8368 C 789.29 -2.549 -4.70032 0
M  V30 8369 C 790.59 -4.1329 -3.19356 0
M  V30 8370 H 792.284 -2.52889 -1.60274 0
M  V30 8371 H 789.83 -1.21707 -0.769638 0
M  V30 8372 H 791.783 -1.65231 -3.87655 0
M  V30 8373 H 790.507 -0.603705 -3.20972 0
M  V30 8374 H 789.166 -2.63216 -2.55172 0
M  V30 8375 H 788.814 -1.55797 -4.78264 0
M  V30 8376 H 788.514 -3.31257 -4.85327 0
M  V30 8377 H 790.038 -2.64443 -5.50366 0
M  V30 8378 H 791.452 -4.22636 -3.87365 0
M  V30 8379 H 789.849 -4.90187 -3.46175 0
M  V30 8380 H 790.919 -4.33874 -2.16522 0
M  V30 8381 N 792.262 0.832906 -1.33792 0
M  V30 8382 C 793.192 1.95828 -1.27176 0
M  V30 8383 C 794.173 1.69427 -0.15114 0
M  V30 8384 O 795.358 1.91167 -0.341886 0
M  V30 8385 C 792.488 3.32098 -1.01629 0
M  V30 8386 C 791.442 3.72912 -2.10049 0
M  V30 8387 C 790.768 5.07054 -1.69706 0
M  V30 8388 C 792.068 3.86064 -3.51783 0
M  V30 8389 H 793.762 2.01622 -2.21334 0
M  V30 8390 H 791.308 0.96866 -1.0655 0
M  V30 8391 H 793.261 4.10402 -0.956474 0
M  V30 8392 H 791.985 3.26577 -0.0390956 0
M  V30 8393 H 790.644 2.96876 -2.15082 0
M  V30 8394 H 790.292 4.9801 -0.706737 0
M  V30 8395 H 789.992 5.35333 -2.42264 0
M  V30 8396 H 791.516 5.87827 -1.65202 0
M  V30 8397 H 792.93 4.54665 -3.49218 0
M  V30 8398 H 791.327 4.25787 -4.22878 0
M  V30 8399 H 792.397 2.88344 -3.89854 0
M  V30 8400 N 793.74 1.17359 1.05189 0
M  V30 8401 C 795.151 0.96793 1.5965 0
M  V30 8402 C 795.502 -0.485355 1.90102 0
M  V30 8403 O 794.627 -1.36066 1.6827 0
M  V30 8404 C 795.222 1.75068 2.90063 0
M  V30 8405 C 793.781 1.58969 3.41183 0
M  V30 8406 C 792.928 1.75231 2.14917 0
M  V30 8407 H 795.879 1.32067 0.880001 0
M  V30 8408 H 795.9 1.23308 3.59966 0
M  V30 8409 H 795.412 2.80835 2.67868 0
M  V30 8410 H 793.513 0.556906 3.68415 0
M  V30 8411 H 793.626 2.38067 4.15766 0
M  V30 8412 H 791.99 1.18073 2.25679 0
M  V30 8413 H 792.773 2.8241 1.95191 0
M  V30 8414 N 795.218 -1.23913 0.973828 0
M  V30 8415 C 796.181 -2.23367 0.51378 0
M  V30 8416 C 797.181 -1.55923 -0.39302 0
M  V30 8417 O 798.371 -1.73187 -0.187626 0
M  V30 8418 C 795.503 -3.39944 -0.255152 0
M  V30 8419 H 796.696 -2.65581 1.39307 0
M  V30 8420 H 794.249 -1.36632 0.759039 0
M  V30 8421 H 794.984 -3.03177 -1.15127 0
M  V30 8422 H 794.769 -3.90098 0.395673 0
M  V30 8423 H 796.259 -4.13749 -0.565842 0
M  V30 8424 N 796.696 -0.74468 -1.38897 0
M  V30 8425 C 797.643 -0.111064 -2.30533 0
M  V30 8426 C 798.613 0.719276 -1.49719 0
M  V30 8427 O 799.798 0.677244 -1.78376 0
M  V30 8428 C 796.938 0.78292 -3.36102 0
M  V30 8429 C 796.051 -0.0610817 -4.31957 0
M  V30 8430 C 795.186 0.835075 -5.24595 0
M  V30 8431 C 794.225 -0.0130974 -6.12099 0
M  V30 8432 N 793.362 0.839525 -6.97063 0
M  V30 8433 H 798.202 -0.898113 -2.84144 0
M  V30 8434 H 795.739 -0.454537 -1.39901 0
M  V30 8435 H 797.697 1.31578 -3.95908 0
M  V30 8436 H 796.327 1.53585 -2.83922 0
M  V30 8437 H 795.379 -0.711469 -3.73687 0
M  V30 8438 H 796.691 -0.716482 -4.93627 0
M  V30 8439 H 795.845 1.43542 -5.89475 0
M  V30 8440 H 794.584 1.52423 -4.63269 0
M  V30 8441 H 793.589 -0.626179 -5.46223 0
M  V30 8442 H 794.814 -0.699181 -6.75491 0
M  V30 8443 H 792.76 1.5138 -6.38295 0
M  V30 8444 H 792.677 0.240823 -7.55616 0
M  V30 8445 H 793.945 1.42513 -7.66362 0
M  V30 8446 N 798.174 1.49689 -0.493057 0
M  V30 8447 C 799.104 2.31826 0.279073 0
M  V30 8448 C 800.085 1.39733 0.969987 0
M  V30 8449 O 801.27 1.68646 0.962925 0
M  V30 8450 C 798.4 3.20046 1.34862 0
M  V30 8451 C 797.354 4.20869 0.77805 0
M  V30 8452 C 796.68 4.97971 1.94753 0
M  V30 8453 C 797.98 5.21813 -0.225543 0
M  V30 8454 H 799.674 2.96627 -0.406512 0
M  V30 8455 H 797.22 1.42647 -0.196943 0
M  V30 8456 H 799.173 3.76315 1.89645 0
M  V30 8457 H 797.897 2.53172 2.06328 0
M  V30 8458 H 796.556 3.65733 0.252036 0
M  V30 8459 H 796.204 4.27552 2.64969 0
M  V30 8460 H 795.904 5.66186 1.57187 0
M  V30 8461 H 797.428 5.57082 2.49984 0
M  V30 8462 H 798.842 5.72823 0.233864 0
M  V30 8463 H 797.239 5.97872 -0.516622 0
M  V30 8464 H 798.309 4.71209 -1.14412 0
M  V30 8465 N 799.652 0.226554 1.55963 0
M  V30 8466 C 800.562 -0.692725 2.24139 0
M  V30 8467 C 801.578 -1.20971 1.25068 0
M  V30 8468 O 802.754 -1.25027 1.57893 0
M  V30 8469 C 799.819 -1.88183 2.91184 0
M  V30 8470 C 798.88 -1.40633 4.05612 0
M  V30 8471 C 798.113 -2.53875 4.6945 0
M  V30 8472 O 798.336 -3.72129 4.32292 0
M  V30 8473 O 797.27 -2.24792 5.58348 0
M  V30 8474 H 801.096 -0.141921 3.03368 0
M  V30 8475 H 798.681 -0.0041049 1.49399 0
M  V30 8476 H 800.563 -2.57617 3.33484 0
M  V30 8477 H 799.238 -2.42064 2.14911 0
M  V30 8478 H 798.145 -0.67986 3.67871 0
M  V30 8479 H 799.478 -0.913838 4.83642 0
M  V30 8480 N 801.13 -1.57531 -0.0467866 0
M  V30 8481 C 802.376 -1.8873 -0.742218 0
M  V30 8482 C 802.709 -0.822084 -1.75941 0
M  V30 8483 O 801.984 0.164922 -1.938 0
M  V30 8484 C 802.267 -3.30586 -1.42776 0
M  V30 8485 C 802.12 -4.47785 -0.425285 0
M  V30 8486 C 803.439 -3.71068 -2.36636 0
M  V30 8487 H 800.558 -0.686406 -0.268359 0
M  V30 8488 H 803.2 -1.89999 -0.00511341 0
M  V30 8489 H 801.35 -3.29634 -2.05605 0
M  V30 8490 H 803.022 -4.60867 0.199721 0
M  V30 8491 H 801.265 -4.33037 0.25713 0
M  V30 8492 H 801.936 -5.43884 -0.943086 0
M  V30 8493 H 804.412 -3.73273 -1.83866 0
M  V30 8494 H 803.288 -4.71165 -2.81593 0
M  V30 8495 H 803.549 -3.02355 -3.22542 0
M  V30 8496 N 802.608 0.318715 -1.54344 0
M  V30 8497 C 804.024 0.663345 -1.45162 0
M  V30 8498 C 804.224 1.9145 -0.62842 0
M  V30 8499 O 803.28 2.5217 -0.129126 0
M  V30 8500 C 804.593 0.832836 -2.88937 0
M  V30 8501 C 806.141 0.929866 -2.98869 0
M  V30 8502 C 806.616 1.13149 -4.43803 0
M  V30 8503 N 808.107 1.19811 -4.47437 0
M  V30 8504 C 808.842 1.37209 -5.56742 0
M  V30 8505 N 808.338 1.51619 -6.76006 0
M  V30 8506 N 810.131 1.39956 -5.44398 0
M  V30 8507 H 802.282 -0.50357 -2.06344 0
M  V30 8508 H 804.545 -0.163528 -0.933789 0
M  V30 8509 H 804.251 -0.0153519 -3.51697 0
M  V30 8510 H 804.125 1.72721 -3.35332 0
M  V30 8511 H 806.512 1.76855 -2.36233 0
M  V30 8512 H 806.593 0.0118561 -2.55797 0
M  V30 8513 H 806.237 0.297636 -5.07027 0
M  V30 8514 H 806.167 2.06345 -4.84489 0
M  V30 8515 H 808.658 1.101 -3.61506 0
M  V30 8516 H 808.971 1.64599 -7.55067 0
M  V30 8517 H 807.316 1.48708 -6.78904 0
M  V30 8518 H 810.507 1.28298 -4.50175 0
M  V30 8519 H 810.68 1.53172 -6.29637 0
M  V30 8520 N 804.086 1.46499 0.581025 0
M  V30 8521 C 805.334 1.51596 1.33653 0
M  V30 8522 C 805.655 0.169859 1.94259 0
M  V30 8523 O 804.925 -0.803776 1.78651 0
M  V30 8524 H 803.505 0.558346 0.496244 0
M  V30 8525 H 806.167 1.8264 0.680338 0
M  V30 8526 H 805.263 2.26956 2.14237 0
M  V30 8527 N 805.565 -0.825799 1.34232 0
M  V30 8528 C 806.793 -1.61363 1.29497 0
M  V30 8529 C 807.208 -1.88341 -0.131536 0
M  V30 8530 O 806.565 -1.47279 -1.07773 0
M  V30 8531 C 806.616 -2.95623 2.08061 0
M  V30 8532 O 806.337 -2.69824 3.45147 0
M  V30 8533 C 807.838 -3.90032 2.10688 0
M  V30 8534 H 805.058 -0.501676 0.445603 0
M  V30 8535 H 807.602 -1.02767 1.76803 0
M  V30 8536 H 805.757 -3.50785 1.64404 0
M  V30 8537 H 806.171 -3.55412 3.85723 0
M  V30 8538 H 807.645 -4.81411 2.70087 0
M  V30 8539 H 808.122 -4.25188 1.10052 0
M  V30 8540 H 808.728 -3.40807 2.54422 0
M  V30 8541 N 807.043 -1.17915 -1.04565 0
M  V30 8542 C 808.32 -0.881187 -1.74627 0
M  V30 8543 C 808.7 0.617123 -2.01878 0
M  V30 8544 O 808.048 1.57032 -1.65991 0
M  V30 8545 C 808.258 -1.72299 -3.03503 0
M  V30 8546 C 809.606 -1.94688 -3.77335 0
M  V30 8547 O 810.63 -1.6931 -3.13389 0
M  V30 8548 O 809.489 -2.37379 -4.92253 0
M  V30 8549 H 806.583 -0.326864 -0.759664 0
M  V30 8550 H 809.129 -1.28642 -1.10676 0
M  V30 8551 H 807.901 -2.73891 -2.79462 0
M  V30 8552 H 807.524 -1.31593 -3.75192 0
M  V30 8553 N 808.521 1.23394 -0.980386 0
M  V30 8554 C 809.932 1.73631 -0.686239 0
M  V30 8555 C 810.283 1.79259 0.797541 0
M  V30 8556 O 809.408 1.43046 1.62379 0
M  V30 8557 C 810.003 3.15332 -1.239 0
M  V30 8558 C 808.562 3.63024 -0.994494 0
M  V30 8559 C 807.709 2.41279 -1.36673 0
M  V30 8560 H 810.66 1.08918 -1.15423 0
M  V30 8561 H 810.681 3.75556 -0.611414 0
M  V30 8562 H 810.193 3.11204 -2.31892 0
M  V30 8563 H 808.294 3.72535 0.0693492 0
M  V30 8564 H 808.407 4.49825 -1.64906 0
M  V30 8565 H 806.771 2.42295 -0.785195 0
M  V30 8566 H 807.554 2.39822 -2.45642 0
M  V30 8567 N 809.999 0.752036 1.385 0
M  V30 8568 C 811.245 0.307958 2.00448 0
M  V30 8569 C 811.578 -1.10702 1.59558 0
M  V30 8570 O 810.853 -1.75788 0.832391 0
M  V30 8571 C 811.136 0.429092 3.57534 0
M  V30 8572 C 810.989 1.88507 4.08393 0
M  V30 8573 C 812.308 -0.178442 4.39738 0
M  V30 8574 H 809.427 0.113373 0.728228 0
M  V30 8575 H 812.069 0.951389 1.64465 0
M  V30 8576 H 810.219 -0.118695 3.88319 0
M  V30 8577 H 811.891 2.49104 3.88259 0
M  V30 8578 H 810.134 2.40066 3.61318 0
M  V30 8579 H 810.805 1.92099 5.17496 0
M  V30 8580 H 813.281 0.28872 4.15097 0
M  V30 8581 H 812.157 -0.0634349 5.48863 0
M  V30 8582 H 812.418 -1.26655 4.23569 0
M  V30 8583 N 811.477 -1.49425 0.500989 0
M  V30 8584 C 812.702 -2.07356 -0.0425154 0
M  V30 8585 C 813.127 -1.35887 -1.30063 0
M  V30 8586 O 812.485 -0.41561 -1.76472 0
M  V30 8587 C 812.533 -3.59518 -0.279188 0
M  V30 8588 O 811.637 -3.89542 -1.3539 0
M  V30 8589 H 810.978 -0.663482 0.0262207 0
M  V30 8590 H 813.508 -1.92231 0.700607 0
M  V30 8591 H 813.518 -4.04791 -0.5107 0
M  V30 8592 H 812.193 -4.10946 0.640009 0
M  V30 8593 H 810.77 -3.56079 -1.10734 0
M  V30 8594 N 812.955 -0.234822 -1.55841 0
M  V30 8595 C 814.183 0.397745 -2.03041 0
M  V30 8596 C 814.598 1.52405 -1.11437 0
M  V30 8597 O 813.955 1.82061 -0.126466 0
M  V30 8598 C 814.006 0.916919 -3.49678 0
M  V30 8599 O 813.727 -0.164493 -4.37791 0
M  V30 8600 C 815.228 1.62139 -4.12584 0
M  V30 8601 H 812.448 0.0959214 -0.664108 0
M  V30 8602 H 814.992 -0.355156 -2.01392 0
M  V30 8603 H 813.147 1.62004 -3.519 0
M  V30 8604 H 813.561 0.227794 -5.24005 0
M  V30 8605 H 815.035 1.93651 -5.16917 0
M  V30 8606 H 815.512 2.53918 -3.58361 0
M  V30 8607 H 816.118 0.963145 -4.14251 0
M  V30 8608 N 814.433 1.57553 0.0384317 0
M  V30 8609 C 815.679 1.89121 0.732199 0
M  V30 8610 C 816.012 0.831404 1.75503 0
M  V30 8611 O 815.287 -0.154642 1.93884 0
M  V30 8612 C 815.57 3.31338 1.41021 0
M  V30 8613 C 815.423 4.48004 0.401532 0
M  V30 8614 C 816.742 3.72318 2.34665 0
M  V30 8615 H 813.861 0.687819 0.264715 0
M  V30 8616 H 816.503 1.89999 -0.00496279 0
M  V30 8617 H 814.653 3.3072 2.03854 0
M  V30 8618 H 816.325 4.60755 -0.224159 0
M  V30 8619 H 814.568 4.32895 -0.280092 0
M  V30 8620 H 815.239 5.44377 0.91423 0
M  V30 8621 H 817.715 3.74243 1.81883 0
M  V30 8622 H 816.591 4.72652 2.7909 0
M  V30 8623 H 816.852 3.04062 3.20934 0
M  V30 8624 N 815.911 -0.310526 1.54511 0
M  V30 8625 C 817.139 -1.06611 1.77318 0
M  V30 8626 C 817.554 -1.81265 0.528043 0
M  V30 8627 O 816.911 -1.75466 -0.50178 0
M  V30 8628 C 816.962 -2.05409 2.97472 0
M  V30 8629 O 816.683 -1.33785 4.17173 0
M  V30 8630 C 818.184 -2.93082 3.32593 0
M  V30 8631 H 815.404 -0.316578 0.591624 0
M  V30 8632 H 817.948 -0.352691 2.01436 0
M  V30 8633 H 816.103 -2.72266 2.7559 0
M  V30 8634 H 816.517 -2.00055 4.84849 0
M  V30 8635 H 817.991 -3.58274 4.19933 0
M  V30 8636 H 818.468 -3.60877 2.50329 0
M  V30 8637 H 819.074 -2.31768 3.566 0
M  V30 8638 N 817.389 -1.46805 -0.573248 0
M  V30 8639 C 818.319 -1.60951 -1.69165 0
M  V30 8640 C 819.3 -0.45948 -1.63777 0
M  V30 8641 O 820.485 -0.68688 -1.81647 0
M  V30 8642 C 817.615 -1.60844 -3.07809 0
M  V30 8643 C 816.569 -2.74913 -3.28035 0
M  V30 8644 C 815.895 -2.59871 -4.67302 0
M  V30 8645 C 817.195 -4.16654 -3.14955 0
M  V30 8646 H 818.889 -2.54574 -1.57582 0
M  V30 8647 H 816.435 -1.22516 -0.756686 0
M  V30 8648 H 818.388 -1.69334 -3.85881 0
M  V30 8649 H 817.112 -0.637714 -3.20314 0
M  V30 8650 H 815.771 -2.65908 -2.52366 0
M  V30 8651 H 815.419 -1.60861 -4.76585 0
M  V30 8652 H 815.119 -3.36386 -4.81786 0
M  V30 8653 H 816.643 -2.70265 -5.4753 0
M  V30 8654 H 818.057 -4.26721 -3.82861 0
M  V30 8655 H 816.454 -4.93831 -3.40956 0
M  V30 8656 H 817.524 -4.36146 -2.11908 0
M  V30 8657 N 818.867 0.818669 -1.34668 0
M  V30 8658 C 820.092 1.61193 -1.30505 0
M  V30 8659 C 820.517 1.87734 0.117341 0
M  V30 8660 O 819.875 1.45591 1.08042 0
M  V30 8661 C 819.923 2.92733 -2.1057 0
M  V30 8662 O 819.027 3.85 -1.47813 0
M  V30 8663 H 818.368 0.490085 -0.44801 0
M  V30 8664 H 820.898 1.01701 -1.77534 0
M  V30 8665 H 820.908 3.42262 -2.22082 0
M  V30 8666 H 819.583 2.7274 -3.13984 0
M  V30 8667 H 818.16 3.43525 -1.45069 0
M  V30 8668 N 820.346 1.18468 1.03938 0
M  V30 8669 C 821.276 0.936389 2.13902 0
M  V30 8670 C 822.257 -0.126381 1.6963 0
M  V30 8671 O 823.442 0.0264757 1.94182 0
M  V30 8672 C 820.572 0.462729 3.44204 0
M  V30 8673 C 819.526 1.46613 4.02105 0
M  V30 8674 C 818.852 0.84994 5.27902 0
M  V30 8675 C 820.152 2.84323 4.3813 0
M  V30 8676 H 821.846 1.85602 2.3493 0
M  V30 8677 H 819.392 0.893806 1.12903 0
M  V30 8678 H 821.345 0.276382 4.20493 0
M  V30 8679 H 820.069 -0.492477 3.22866 0
M  V30 8680 H 818.728 1.63944 3.27899 0
M  V30 8681 H 818.376 -0.112493 5.02874 0
M  V30 8682 H 818.076 1.51988 5.67603 0
M  V30 8683 H 819.6 0.674152 6.06867 0
M  V30 8684 H 821.014 2.70636 5.054 0
M  V30 8685 H 819.411 3.48012 4.88884 0
M  V30 8686 H 820.481 3.37776 3.47901 0
M  V30 8687 N 821.824 -1.22873 0.986916 0
M  V30 8688 C 822.754 -2.2688 0.552064 0
M  V30 8689 C 823.735 -1.64883 -0.418048 0
M  V30 8690 O 824.92 -1.9171 -0.30999 0
M  V30 8691 C 822.05 -3.47018 -0.139959 0
M  V30 8692 C 821.004 -4.21411 0.748091 0
M  V30 8693 C 820.33 -5.34645 -0.0765132 0
M  V30 8694 C 821.63 -4.80726 2.04206 0
M  V30 8695 H 823.324 -2.63507 1.42143 0
M  V30 8696 H 820.87 -1.26668 0.68492 0
M  V30 8697 H 822.823 -4.18931 -0.455527 0
M  V30 8698 H 821.547 -3.0947 -1.04382 0
M  V30 8699 H 820.206 -3.51325 1.04721 0
M  V30 8700 H 819.854 -4.93339 -0.981109 0
M  V30 8701 H 819.554 -5.85342 0.514606 0
M  V30 8702 H 821.078 -6.09377 -0.386313 0
M  V30 8703 H 822.492 -5.44612 1.79083 0
M  V30 8704 H 820.889 -5.41737 2.5815 0
M  V30 8705 H 821.959 -4.01109 2.72469 0
M  V30 8706 N 823.302 -0.75937 -1.38099 0
M  V30 8707 C 824.212 -0.13774 -2.34195 0
M  V30 8708 C 825.228 0.693985 -1.59561 0
M  V30 8709 O 826.404 0.616792 -1.91723 0
M  V30 8710 C 823.469 0.740535 -3.38699 0
M  V30 8711 C 822.53 -0.106225 -4.29169 0
M  V30 8712 C 821.763 0.730225 -5.28681 0
M  V30 8713 O 821.986 1.96796 -5.35376 0
M  V30 8714 O 820.92 0.145969 -6.01723 0
M  V30 8715 H 824.746 -0.931512 -2.89061 0
M  V30 8716 H 822.331 -0.520345 -1.40046 0
M  V30 8717 H 824.213 1.24232 -4.02672 0
M  V30 8718 H 822.888 1.51271 -2.8618 0
M  V30 8719 H 821.795 -0.654088 -3.68337 0
M  V30 8720 H 823.128 -0.841186 -4.84959 0
M  V30 8721 N 824.78 1.49157 -0.508906 0
M  V30 8722 C 826.191 1.86593 -0.0630975 0
M  V30 8723 C 826.542 1.42051 1.35337 0
M  V30 8724 O 825.667 0.801866 2.00995 0
M  V30 8725 C 826.262 3.38629 -0.107729 0
M  V30 8726 C 824.821 3.75336 0.282776 0
M  V30 8727 C 823.968 2.7317 -0.4768 0
M  V30 8728 H 826.919 1.41362 -0.72128 0
M  V30 8729 H 826.94 3.74271 0.685689 0
M  V30 8730 H 826.452 3.71017 -1.13876 0
M  V30 8731 H 824.553 3.48558 1.31675 0
M  V30 8732 H 824.666 4.79081 -0.0421728 0
M  V30 8733 H 823.03 2.54591 0.0743552 0
M  V30 8734 H 823.813 3.08403 -1.50807 0
M  V30 8735 N 826.258 0.243083 1.55714 0
M  V30 8736 C 827.168 -0.668913 2.24862 0
M  V30 8737 C 828.184 -1.19638 1.26344 0
M  V30 8738 O 829.36 -1.23345 1.5921 0
M  V30 8739 C 826.425 -1.85084 2.93163 0
M  V30 8740 C 825.486 -1.36323 4.07081 0
M  V30 8741 C 824.719 -2.48882 4.72116 0
M  V30 8742 O 824.942 -3.67523 4.36214 0
M  V30 8743 O 823.876 -2.18857 5.60701 0
M  V30 8744 H 827.702 -0.109737 3.03502 0
M  V30 8745 H 825.287 0.0117411 1.49395 0
M  V30 8746 H 827.169 -2.54065 3.36197 0
M  V30 8747 H 825.844 -2.39771 2.17466 0
M  V30 8748 H 824.751 -0.640804 3.68571 0
M  V30 8749 H 826.084 -0.86249 4.84584 0
M  V30 8750 N 827.736 -1.57571 -0.0300757 0
M  V30 8751 C 828.964 -1.93485 -0.732891 0
M  V30 8752 C 829.379 -0.842758 -1.68947 0
M  V30 8753 O 828.736 0.180904 -1.81601 0
M  V30 8754 C 828.787 -3.29328 -1.49082 0
M  V30 8755 O 828.508 -4.34341 -0.572639 0
M  V30 8756 C 830.009 -3.79517 -2.29088 0
M  V30 8757 H 827.229 -0.638588 -0.206026 0
M  V30 8758 H 829.773 -2.04496 0.0120966 0
M  V30 8759 H 827.928 -3.19716 -2.1877 0
M  V30 8760 H 828.342 -5.12748 -1.10406 0
M  V30 8761 H 829.816 -4.77081 -2.77665 0
M  V30 8762 H 830.293 -3.10659 -3.10464 0
M  V30 8763 H 830.899 -3.92208 -1.64477 0
M  V30 8764 N 829.214 0.302327 -1.54673 0
M  V30 8765 C 830.146 1.39443 -1.81902 0
M  V30 8766 C 831.159 1.46891 -0.701914 0
M  V30 8767 O 832.348 1.49233 -0.979369 0
M  V30 8768 C 829.448 2.77824 -1.9408 0
M  V30 8769 C 828.621 2.93324 -3.24468 0
M  V30 8770 C 827.68 4.12196 -3.27079 0
M  V30 8771 O 826.706 4.04344 -4.00617 0
M  V30 8772 N 827.908 5.22768 -2.52376 0
M  V30 8773 H 830.673 1.1644 -2.76155 0
M  V30 8774 H 828.234 0.492392 -1.54231 0
M  V30 8775 H 830.226 3.5559 -1.9323 0
M  V30 8776 H 828.796 2.9378 -1.06828 0
M  V30 8777 H 828.016 2.02682 -3.38103 0
M  V30 8778 H 829.304 3.0059 -4.10516 0
M  V30 8779 H 828.702 5.32027 -1.92259 0
M  V30 8780 H 827.259 5.98874 -2.57281 0
M  V30 8781 N 830.692 1.47107 0.565454 0
M  V30 8782 C 831.969 1.43787 1.32607 0
M  V30 8783 C 832.349 0.130428 2.10697 0
M  V30 8784 O 831.697 -0.888086 2.10536 0
M  V30 8785 C 831.907 2.67833 2.23755 0
M  V30 8786 C 833.255 3.14704 2.85037 0
M  V30 8787 O 834.279 2.68503 2.34061 0
M  V30 8788 O 833.138 3.95002 3.77671 0
M  V30 8789 H 830.232 0.572623 0.596684 0
M  V30 8790 H 832.778 1.59296 0.58504 0
M  V30 8791 H 831.55 3.54532 1.65597 0
M  V30 8792 H 831.173 2.54869 3.05168 0
M  V30 8793 N 832.17 -0.811516 1.35101 0
M  V30 8794 C 833.419 -1.56343 1.27435 0
M  V30 8795 C 833.732 -1.95019 -0.150696 0
M  V30 8796 O 834.938 -2.6924 -0.349586 0
M  V30 8797 C 833.394 -2.82124 2.23459 0
M  V30 8798 C 833.002 -2.50706 3.71283 0
M  V30 8799 C 834.746 -3.60137 2.24726 0
M  V30 8800 C 832.653 -3.72748 4.59143 0
M  V30 8801 H 831.583 -0.58682 0.473453 0
M  V30 8802 H 834.234 -0.892465 1.60335 0
M  V30 8803 H 832.616 -3.50905 1.83525 0
M  V30 8804 H 833.79 -1.89962 4.19823 0
M  V30 8805 H 832.105 -1.85947 3.72576 0
M  V30 8806 H 834.702 -4.50775 2.87587 0
M  V30 8807 H 835.045 -3.97101 1.24965 0
M  V30 8808 H 835.578 -2.98311 2.63164 0
M  V30 8809 H 832.317 -3.40896 5.59884 0
M  V30 8810 H 831.837 -4.32735 4.15332 0
M  V30 8811 H 833.516 -4.40033 4.74321 0
M  V30 8812 N 833.648 -1.19017 -1.03309 0
M  V30 8813 C 835.059 -0.993206 -1.5809 0
M  V30 8814 C 835.41 0.45505 -1.9085 0
M  V30 8815 O 834.535 1.33372 -1.70414 0
M  V30 8816 C 835.13 -1.79661 -2.87241 0
M  V30 8817 C 833.689 -1.64377 -3.38611 0
M  V30 8818 C 832.836 -1.78628 -2.12102 0
M  V30 8819 H 835.787 -1.3345 -0.858879 0
M  V30 8820 H 835.808 -1.29019 -3.57958 0
M  V30 8821 H 835.32 -2.85061 -2.63366 0
M  V30 8822 H 833.421 -0.615447 -3.67482 0
M  V30 8823 H 833.534 -2.44651 -4.11926 0
M  V30 8824 H 831.898 -1.21648 -2.23772 0
M  V30 8825 H 832.681 -2.8548 -1.90673 0
M  V30 8826 N 835.127 1.22348 -0.993418 0
M  V30 8827 C 836.352 1.95666 -0.687727 0
M  V30 8828 C 836.777 1.72883 0.741161 0
M  V30 8829 O 836.135 1.00837 1.50671 0
M  V30 8830 C 836.183 3.46457 -0.99998 0
M  V30 8831 O 835.287 4.12281 -0.0989386 0
M  V30 8832 H 834.628 0.612102 -0.257346 0
M  V30 8833 H 837.158 1.55428 -1.33054 0
M  V30 8834 H 837.168 3.96976 -0.942035 0
M  V30 8835 H 835.843 3.62365 -2.04118 0
M  V30 8836 H 834.42 3.72295 -0.212413 0
M  V30 8837 N 836.605 0.766683 1.37694 0
M  V30 8838 C 837.83 0.338715 2.04615 0
M  V30 8839 C 838.255 -1.02918 1.57447 0
M  V30 8840 O 837.613 -1.65849 0.732386 0
M  V30 8841 C 837.661 0.385284 3.58536 0
M  V30 8842 O 836.765 -0.616081 4.07772 0
M  V30 8843 H 836.106 0.147527 0.647404 0
M  V30 8844 H 838.636 1.04146 1.7611 0
M  V30 8845 H 838.646 0.240782 4.07289 0
M  V30 8846 H 837.321 1.38325 3.92223 0
M  V30 8847 H 835.898 -0.435115 3.70353 0
M  V30 8848 N 838.083 -1.48885 0.516809 0
M  V30 8849 C 839.329 -2.03395 -0.0140225 0
M  V30 8850 C 839.684 -1.38808 -1.33229 0
M  V30 8851 O 838.977 -0.520104 -1.84406 0
M  V30 8852 C 839.171 -3.56801 -0.206798 0
M  V30 8853 C 839 -4.36259 1.09124 0
M  V30 8854 C 837.77 -4.77689 1.64745 0
M  V30 8855 C 839.968 -4.73881 1.99854 0
M  V30 8856 N 837.95 -5.41634 2.88975 0
M  V30 8857 C 839.321 -5.37707 3.08661 0
M  V30 8858 C 841.376 -4.55816 2.00341 0
M  V30 8859 C 840.079 -5.85379 4.18001 0
M  V30 8860 C 842.105 -5.04459 3.08666 0
M  V30 8861 C 841.467 -5.68299 4.16191 0
M  V30 8862 H 837.566 -0.781169 0.036042 0
M  V30 8863 H 840.15 -1.81867 0.695173 0
M  V30 8864 H 838.321 -3.78181 -0.885064 0
M  V30 8865 H 840.053 -3.9795 -0.736053 0
M  V30 8866 H 836.808 -4.58392 1.19054 0
M  V30 8867 H 837.232 -5.78181 3.52187 0
M  V30 8868 H 841.874 -4.05851 1.18511 0
M  V30 8869 H 839.592 -6.34356 5.00618 0
M  V30 8870 H 843.178 -4.92281 3.10082 0
M  V30 8871 H 842.058 -6.05257 4.98631 0
M  V30 8872 N 839.561 -0.251338 -1.55583 0
M  V30 8873 C 840.789 0.376187 -2.03451 0
M  V30 8874 C 841.204 1.51215 -1.13047 0
M  V30 8875 O 840.561 1.81917 -0.145769 0
M  V30 8876 C 840.612 0.879779 -3.50631 0
M  V30 8877 O 840.333 -0.210917 -4.37592 0
M  V30 8878 C 841.834 1.57754 -4.14281 0
M  V30 8879 H 839.054 0.0888722 -0.665089 0
M  V30 8880 H 841.598 -0.376497 -2.01004 0
M  V30 8881 H 839.753 1.58263 -3.53598 0
M  V30 8882 H 840.167 0.172203 -5.24217 0
M  V30 8883 H 841.641 1.88158 -5.18942 0
M  V30 8884 H 842.118 2.50103 -3.61034 0
M  V30 8885 H 842.724 0.919154 -4.15249 0
M  V30 8886 N 841.039 1.57585 0.0217189 0
M  V30 8887 C 842.286 1.89606 0.711045 0
M  V30 8888 C 842.614 0.849535 1.74966 0
M  V30 8889 O 841.869 -0.14856 1.95135 0
M  V30 8890 C 842.168 3.28377 1.41079 0
M  V30 8891 C 841.834 4.48035 0.507454 0
M  V30 8892 C 840.496 4.80504 0.258672 0
M  V30 8893 C 842.848 5.21071 -0.115793 0
M  V30 8894 C 840.176 5.83393 -0.622013 0
M  V30 8895 C 842.528 6.24897 -0.984224 0
M  V30 8896 C 841.192 6.55836 -1.2424 0
M  V30 8897 H 840.462 0.693817 0.26019 0
M  V30 8898 H 843.109 1.91478 -0.0291424 0
M  V30 8899 H 841.414 3.22528 2.22448 0
M  V30 8900 H 843.111 3.50404 1.94982 0
M  V30 8901 H 839.701 4.22653 0.711516 0
M  V30 8902 H 843.885 4.96259 0.0634327 0
M  V30 8903 H 839.141 6.05736 -0.830267 0
M  V30 8904 H 843.315 6.8063 -1.47363 0
M  V30 8905 H 840.942 7.35383 -1.92653 0
M  V30 8906 N 842.517 -0.29412 1.54831 0
M  V30 8907 C 843.928 -0.866651 1.65366 0
M  V30 8908 C 844.279 -1.87834 0.56681 0
M  V30 8909 O 843.404 -2.14374 -0.295389 0
M  V30 8910 C 843.999 -1.57869 2.99771 0
M  V30 8911 C 842.558 -2.09954 3.12404 0
M  V30 8912 C 841.705 -0.934492 2.6108 0
M  V30 8913 H 844.656 -0.0709551 1.58541 0
M  V30 8914 H 844.677 -2.44462 2.91579 0
M  V30 8915 H 844.189 -0.84212 3.78853 0
M  V30 8916 H 842.29 -2.86637 2.38055 0
M  V30 8917 H 842.403 -2.32934 4.18663 0
M  V30 8918 H 840.767 -1.32199 2.17705 0
M  V30 8919 H 841.55 -0.211768 3.42646 0
M  V30 8920 N 843.995 -1.47404 -0.557645 0
M  V30 8921 C 845.241 -1.54235 -1.31679 0
M  V30 8922 C 845.574 -0.203782 -1.93128 0
M  V30 8923 O 844.849 0.787536 -1.77843 0
M  V30 8924 C 845.132 -2.66003 -2.42723 0
M  V30 8925 C 844.985 -4.09475 -1.86145 0
M  V30 8926 C 846.304 -2.73685 -3.44652 0
M  V30 8927 H 843.423 -0.561466 -0.477415 0
M  V30 8928 H 846.065 -1.79459 -0.624067 0
M  V30 8929 H 844.215 -2.44627 -3.01811 0
M  V30 8930 H 845.887 -4.42213 -1.31321 0
M  V30 8931 H 844.13 -4.17774 -1.16823 0
M  V30 8932 H 844.801 -4.83451 -2.66418 0
M  V30 8933 H 847.277 -2.92968 -2.95481 0
M  V30 8934 H 846.153 -3.53665 -4.19777 0
M  V30 8935 H 846.414 -1.80726 -4.03473 0
M  V30 8936 N 845.473 0.80434 -1.35529 0
M  V30 8937 C 846.436 1.89788 -1.28503 0
M  V30 8938 C 847.436 1.59601 -0.195983 0
M  V30 8939 O 848.626 1.68292 -0.449827 0
M  V30 8940 C 845.758 3.26255 -0.98847 0
M  V30 8941 H 846.951 1.97436 -2.25741 0
M  V30 8942 H 844.504 1.00046 -1.20086 0
M  V30 8943 H 845.239 3.24294 -0.0200541 0
M  V30 8944 H 845.024 3.49551 -1.77641 0
M  V30 8945 H 846.514 4.06298 -0.964975 0
M  V30 8946 N 846.951 1.19563 1.02676 0
M  V30 8947 C 848.176 1.02556 1.80269 0
M  V30 8948 C 848.601 -0.421056 1.83327 0
M  V30 8949 O 847.959 -1.30279 1.26084 0
M  V30 8950 C 848.007 1.60165 3.23078 0
M  V30 8951 O 847.111 0.832404 4.03912 0
M  V30 8952 H 846.452 0.362354 0.556413 0
M  V30 8953 H 848.982 1.58633 1.29216 0
M  V30 8954 H 848.992 1.6347 3.7382 0
M  V30 8955 H 847.667 2.65454 3.20167 0
M  V30 8956 H 846.244 0.872768 3.62543 0
M  V30 8957 N 848.429 -1.21819 0.999893 0
M  V30 8958 C 849.678 -1.90066 0.675108 0
M  V30 8959 C 849.991 -1.78624 -0.79705 0
M  V30 8960 O 851.197 -2.41851 -1.23371 0
M  V30 8961 C 849.653 -3.40795 1.15702 0
M  V30 8962 C 849.261 -3.60859 2.6549 0
M  V30 8963 C 851.005 -4.147 0.906889 0
M  V30 8964 C 848.912 -5.05324 3.07248 0
M  V30 8965 H 847.842 -0.711763 0.248815 0
M  V30 8966 H 850.493 -1.3792 1.21038 0
M  V30 8967 H 848.875 -3.92164 0.549832 0
M  V30 8968 H 850.049 -3.19951 3.31614 0
M  V30 8969 H 848.364 -3.00298 2.88461 0
M  V30 8970 H 850.961 -5.21187 1.1945 0
M  V30 8971 H 851.304 -4.16004 -0.156923 0
M  V30 8972 H 851.837 -3.69379 1.47662 0
M  V30 8973 H 848.576 -5.09164 4.12834 0
M  V30 8974 H 848.096 -5.47108 2.45832 0
M  V30 8975 H 849.775 -5.73797 2.98941 0
M  V30 8976 N 849.908 -0.773975 -1.37286 0
M  V30 8977 C 851.148 -0.344505 -2.01476 0
M  V30 8978 C 851.512 1.05966 -1.6011 0
M  V30 8979 O 852.713 1.58937 -2.16778 0
M  V30 8980 C 850.984 -0.485816 -3.54083 0
M  V30 8981 S 852.543 -0.141939 -4.3857 0
M  V30 8982 H 849.361 -0.13243 -0.698558 0
M  V30 8983 H 851.963 -1.00908 -1.67445 0
M  V30 8984 H 850.667 -1.50835 -3.81677 0
M  V30 8985 H 850.198 0.195232 -3.92915 0
M  V30 8986 H 852.213 1.06177 -4.84707 0
M  V30 8987 N 851.386 1.48609 -0.524698 0
M  V30 8988 C 852.634 2.02097 0.0112991 0
M  V30 8989 C 852.955 1.40455 1.35268 0
M  V30 8990 O 852.225 0.56807 1.87483 0
M  V30 8991 H 850.805 0.746966 0.00716426 0
M  V30 8992 H 853.467 1.82378 -0.687329 0
M  V30 8993 H 852.563 3.11855 0.123531 0
M  V30 8994 N 852.864 0.259585 1.55447 0
M  V30 8995 C 854.11 -0.362143 1.9954 0
M  V30 8996 C 854.443 -1.5666 1.14767 0
M  V30 8997 O 853.718 -1.93319 0.214025 0
M  V30 8998 C 854.001 -0.759588 3.51998 0
M  V30 8999 C 853.854 0.451134 4.47532 0
M  V30 9000 C 855.173 -1.60186 4.09913 0
M  V30 9001 H 852.292 -0.130157 0.725416 0
M  V30 9002 H 854.934 0.363431 1.86492 0
M  V30 9003 H 853.084 -1.3778 3.63248 0
M  V30 9004 H 854.756 1.08965 4.48246 0
M  V30 9005 H 852.999 1.092 4.19831 0
M  V30 9006 H 853.67 0.129518 5.51848 0
M  V30 9007 H 856.146 -1.0799 4.01842 0
M  V30 9008 H 855.022 -1.84879 5.16828 0
M  V30 9009 H 855.283 -2.57787 3.59163 0
M  V30 9010 N 854.342 -1.57594 -0.0133615 0
M  V30 9011 C 855.567 -1.94649 -0.715996 0
M  V30 9012 C 855.992 -0.860786 -1.67249 0
M  V30 9013 O 855.35 0.182228 -1.80382 0
M  V30 9014 C 855.398 -3.30789 -1.43566 0
M  V30 9015 O 854.502 -3.24148 -2.54955 0
M  V30 9016 H 853.843 -0.635801 -0.191449 0
M  V30 9017 H 856.373 -2.04569 0.0358478 0
M  V30 9018 H 856.383 -3.66045 -1.80208 0
M  V30 9019 H 855.058 -4.09367 -0.734263 0
M  V30 9020 H 853.635 -3.00548 -2.20739 0
M  V30 9021 N 855.82 0.285905 -1.54985 0
M  V30 9022 C 856.783 1.33625 -1.86218 0
M  V30 9023 C 857.783 1.42971 -0.735936 0
M  V30 9024 O 858.973 1.42345 -1.00417 0
M  V30 9025 C 856.105 2.71926 -2.05595 0
M  V30 9026 H 857.298 1.07167 -2.80099 0
M  V30 9027 H 854.851 0.523335 -1.47278 0
M  V30 9028 H 855.586 3.03583 -1.14053 0
M  V30 9029 H 855.371 2.6653 -2.87583 0
M  V30 9030 H 856.861 3.47841 -2.31077 0
M  V30 9031 N 857.298 1.47698 0.54982 0
M  V30 9032 C 858.523 1.58579 1.33669 0
M  V30 9033 C 858.948 0.239049 1.86575 0
M  V30 9034 O 858.306 -0.786256 1.63364 0
M  V30 9035 C 858.354 2.62029 2.47736 0
M  V30 9036 O 857.458 2.17813 3.50188 0
M  V30 9037 H 856.799 0.532447 0.396732 0
M  V30 9038 H 859.329 1.93536 0.6637 0
M  V30 9039 H 859.339 2.82682 2.94202 0
M  V30 9040 H 858.014 3.59812 2.08586 0
M  V30 9041 H 856.591 2.07291 3.09976 0
M  V30 9042 N 858.776 -0.797141 1.35954 0
M  V30 9043 C 859.723 -1.90944 1.2965 0
M  V30 9044 C 860.693 -1.65262 0.166628 0
M  V30 9045 O 861.878 -1.87527 0.351883 0
M  V30 9046 C 859.018 -3.27637 1.08389 0
M  V30 9047 C 858.131 -3.65442 2.30382 0
M  V30 9048 C 857.266 -4.91213 2.02195 0
M  V30 9049 C 856.305 -5.21674 3.20191 0
M  V30 9050 N 855.442 -6.38627 2.91719 0
M  V30 9051 H 860.282 -1.95668 2.24762 0
M  V30 9052 H 857.819 -0.95696 1.11717 0
M  V30 9053 H 859.777 -4.06451 0.940912 0
M  V30 9054 H 858.407 -3.22355 0.169351 0
M  V30 9055 H 857.459 -2.81813 2.55511 0
M  V30 9056 H 858.771 -3.83907 3.18461 0
M  V30 9057 H 857.925 -5.77876 1.84783 0
M  V30 9058 H 856.664 -4.74803 1.11416 0
M  V30 9059 H 855.669 -4.33498 3.38171 0
M  V30 9060 H 856.894 -5.40009 4.11786 0
M  V30 9061 H 854.84 -6.23623 2.03543 0
M  V30 9062 H 854.757 -6.57387 3.73334 0
M  V30 9063 H 856.025 -7.28292 2.77868 0
M  V30 9064 N 860.254 -1.20106 -1.0204 0
M  V30 9065 C 861.67 -0.955099 -1.27867 0
M  V30 9066 C 861.87 0.367595 -1.98119 0
M  V30 9067 O 860.926 1.09705 -2.27423 0
M  V30 9068 C 862.239 -2.13507 -2.11744 0
M  V30 9069 C 863.787 -2.17563 -2.25023 0
M  V30 9070 C 864.262 -3.35035 -3.12275 0
M  V30 9071 N 865.753 -3.35024 -3.19864 0
M  V30 9072 C 866.488 -4.22566 -3.8759 0
M  V30 9073 N 865.984 -5.20278 -4.57474 0
M  V30 9074 N 867.777 -4.10418 -3.84075 0
M  V30 9075 H 859.928 -2.05193 -0.54861 0
M  V30 9076 H 862.191 -0.897689 -0.304728 0
M  V30 9077 H 861.897 -3.09275 -1.67456 0
M  V30 9078 H 861.771 -2.11281 -3.12474 0
M  V30 9079 H 864.158 -1.22359 -2.68537 0
M  V30 9080 H 864.239 -2.23838 -1.23815 0
M  V30 9081 H 863.883 -4.30522 -2.69468 0
M  V30 9082 H 863.813 -3.25996 -4.13563 0
M  V30 9083 H 866.304 -2.64299 -2.701 0
M  V30 9084 H 866.617 -5.83408 -5.06809 0
M  V30 9085 H 864.962 -5.24219 -4.56311 0
M  V30 9086 H 868.153 -3.33353 -3.28623 0
M  V30 9087 H 868.326 -4.78854 -4.36581 0
M  V30 9088 N 861.732 1.21287 -1.00634 0
M  V30 9089 C 863.009 1.86 -0.605257 0
M  V30 9090 C 863.389 1.90139 0.917072 0
M  V30 9091 O 862.737 1.40169 1.80458 0
M  V30 9092 C 862.947 3.26183 -1.24119 0
M  V30 9093 C 864.295 4.02562 -1.35015 0
M  V30 9094 O 865.319 3.35499 -1.19661 0
M  V30 9095 O 864.178 5.22638 -1.59726 0
M  V30 9096 H 861.272 0.800549 -0.207486 0
M  V30 9097 H 863.818 1.28959 -1.10307 0
M  V30 9098 H 862.59 3.17878 -2.28186 0
M  V30 9099 H 862.213 3.90845 -0.729807 0
M  V30 9100 N 863.21 0.781244 1.36873 0
M  V30 9101 C 864.12 0.174981 2.33947 0
M  V30 9102 C 865.136 -0.668512 1.60645 0
M  V30 9103 O 866.312 -0.586213 1.9268 0
M  V30 9104 C 863.377 -0.686557 3.39834 0
M  V30 9105 C 862.438 0.174489 4.28945 0
M  V30 9106 C 861.671 -0.646024 5.29776 0
M  V30 9107 O 861.894 -1.88254 5.38439 0
M  V30 9108 O 860.828 -0.0502214 6.01879 0
M  V30 9109 H 864.654 0.977382 2.87543 0
M  V30 9110 H 862.239 0.542559 1.392 0
M  V30 9111 H 864.121 -1.1781 4.04597 0
M  V30 9112 H 862.796 -1.46699 2.8855 0
M  V30 9113 H 861.703 0.712604 3.6725 0
M  V30 9114 H 863.036 0.918232 4.83559 0
M  V30 9115 N 864.689 -1.48329 0.532571 0
M  V30 9116 C 866.105 -1.58458 0.190605 0
M  V30 9117 C 866.305 -1.53427 -1.30623 0
M  V30 9118 O 865.361 -1.4247 -2.08467 0
M  V30 9119 C 866.674 -2.89989 0.79543 0
M  V30 9120 C 868.222 -3.03523 0.7644 0
M  V30 9121 C 868.697 -4.37718 1.34785 0
M  V30 9122 N 870.188 -4.44292 1.30993 0
M  V30 9123 C 870.923 -5.4664 1.73124 0
M  V30 9124 N 870.419 -6.5593 2.22997 0
M  V30 9125 N 872.212 -5.37538 1.64346 0
M  V30 9126 H 864.363 -1.49842 1.50537 0
M  V30 9127 H 866.626 -0.71164 0.626316 0
M  V30 9128 H 866.332 -2.99333 1.84642 0
M  V30 9129 H 866.206 -3.76203 0.27403 0
M  V30 9130 H 868.593 -2.93789 -0.277831 0
M  V30 9131 H 868.674 -2.18912 1.3233 0
M  V30 9132 H 868.318 -4.48206 2.38902 0
M  V30 9133 H 868.248 -5.21019 0.764609 0
M  V30 9134 H 870.739 -3.65897 0.944868 0
M  V30 9135 H 871.052 -7.30167 2.53133 0
M  V30 9136 H 869.397 -6.56886 2.26992 0
M  V30 9137 H 872.588 -4.51052 1.25178 0
M  V30 9138 H 872.761 -6.17169 1.97501 0
M  V30 9139 N 866.167 -0.267825 -1.55308 0
M  V30 9140 C 867.407 0.352316 -2.01341 0
M  V30 9141 C 867.771 1.53593 -1.1521 0
M  V30 9142 O 868.972 2.22521 -1.50791 0
M  V30 9143 C 867.243 0.731857 -3.49827 0
M  V30 9144 S 868.802 1.33956 -4.17853 0
M  V30 9145 H 865.62 0.109927 -0.702451 0
M  V30 9146 H 868.222 -0.387955 -1.91612 0
M  V30 9147 H 866.926 -0.138561 -4.10166 0
M  V30 9148 H 866.457 1.50378 -3.63525 0
M  V30 9149 H 868.472 2.62831 -4.20874 0
M  V30 9150 N 867.645 1.57599 0.00500368 0
M  V30 9151 C 868.885 1.92205 0.695456 0
M  V30 9152 C 869.249 0.868894 1.71214 0
M  V30 9153 O 870.45 1.10004 2.4526 0
M  V30 9154 C 868.721 3.31882 1.32625 0
M  V30 9155 S 870.28 3.88364 2.04252 0
M  V30 9156 H 867.098 0.672826 0.22984 0
M  V30 9157 H 869.7 1.95435 -0.0504824 0
M  V30 9158 H 868.404 4.06375 0.573396 0
M  V30 9159 H 867.935 3.32013 2.11023 0
M  V30 9160 H 869.95 3.69035 3.31704 0
M  V30 9161 N 869.123 -0.277682 1.55134 0
M  V30 9162 C 870.37 -1.0099 1.7552 0
M  V30 9163 C 870.698 -1.86452 0.553712 0
M  V30 9164 O 869.953 -1.90122 -0.463896 0
M  V30 9165 C 870.252 -1.92599 3.01065 0
M  V30 9166 C 869.918 -1.22926 4.3382 0
M  V30 9167 C 868.58 -1.03659 4.69902 0
M  V30 9168 C 870.932 -0.733071 5.16019 0
M  V30 9169 C 868.26 -0.334933 5.85743 0
M  V30 9170 C 870.612 -0.0450319 6.32584 0
M  V30 9171 C 869.276 0.159393 6.6731 0
M  V30 9172 H 868.546 -0.36955 0.642273 0
M  V30 9173 H 871.193 -0.282611 1.89403 0
M  V30 9174 H 869.498 -2.71934 2.82062 0
M  V30 9175 H 871.195 -2.49367 3.14034 0
M  V30 9176 H 867.785 -1.38933 4.05457 0
M  V30 9177 H 871.969 -0.869565 4.88623 0
M  V30 9178 H 867.225 -0.165783 6.11175 0
M  V30 9179 H 871.399 0.34723 6.95534 0
M  V30 9180 H 869.026 0.70507 7.56923 0
M  V30 9181 N 870.601 -1.47988 -0.541979 0
M  V30 9182 C 871.531 -1.64503 -1.65713 0
M  V30 9183 C 872.512 -0.494116 -1.62765 0
M  V30 9184 O 873.697 -0.725256 -1.80149 0
M  V30 9185 C 870.827 -1.67337 -3.04328 0
M  V30 9186 C 869.781 -2.81809 -3.2213 0
M  V30 9187 C 869.107 -2.69724 -4.61685 0
M  V30 9188 C 870.407 -4.23241 -3.06046 0
M  V30 9189 H 872.101 -2.5786 -1.52147 0
M  V30 9190 H 869.647 -1.24094 -0.730529 0
M  V30 9191 H 871.6 -1.77481 -3.82202 0
M  V30 9192 H 870.324 -0.705514 -3.18889 0
M  V30 9193 H 868.983 -2.71201 -2.46669 0
M  V30 9194 H 868.631 -1.70934 -4.73065 0
M  V30 9195 H 868.331 -3.4653 -4.74543 0
M  V30 9196 H 869.855 -2.81818 -5.41674 0
M  V30 9197 H 871.269 -4.34746 -3.73723 0
M  V30 9198 H 869.666 -5.00952 -3.30405 0
M  V30 9199 H 870.736 -4.40543 -2.02609 0
M  V30 9200 N 872.079 0.78992 -1.36375 0
M  V30 9201 C 873.309 1.57644 -1.33536 0
M  V30 9202 C 873.717 1.89007 0.0855075 0
M  V30 9203 O 873.06 1.50547 1.05267 0
M  V30 9204 C 873.122 2.92424 -2.09113 0
M  V30 9205 C 872.786 2.83793 -3.58205 0
M  V30 9206 C 873.783 2.56072 -4.52464 0
M  V30 9207 C 871.468 3.02386 -4.01084 0
M  V30 9208 C 873.462 2.47044 -5.87578 0
M  V30 9209 C 871.149 2.9298 -5.36289 0
M  V30 9210 C 872.147 2.65347 -6.29349 0
M  V30 9211 O 871.835 2.55935 -7.62071 0
M  V30 9212 H 871.567 0.495639 -0.459694 0
M  V30 9213 H 874.121 0.988354 -1.80058 0
M  V30 9214 H 872.351 3.53282 -1.57254 0
M  V30 9215 H 874.04 3.53693 -1.99139 0
M  V30 9216 H 874.806 2.4141 -4.2065 0
M  V30 9217 H 870.685 3.229 -3.29023 0
M  V30 9218 H 874.229 2.25396 -6.60184 0
M  V30 9219 H 870.126 3.07204 -5.67711 0
M  V30 9220 H 870.894 2.7142 -7.72187 0
M  V30 9221 N 873.557 1.20646 1.01402 0
M  V30 9222 C 874.52 0.959314 2.08158 0
M  V30 9223 C 875.52 -0.0661558 1.60664 0
M  V30 9224 O 876.71 0.170177 1.73367 0
M  V30 9225 C 873.842 0.444785 3.37986 0
M  V30 9226 H 875.035 1.90631 2.31517 0
M  V30 9227 H 872.588 1.02219 1.18241 0
M  V30 9228 H 873.323 -0.507553 3.20304 0
M  V30 9229 H 873.108 1.18435 3.73785 0
M  V30 9230 H 874.598 0.291443 4.16582 0
M  V30 9231 N 875.035 -1.20752 1.01276 0
M  V30 9232 C 875.965 -2.25658 0.600064 0
M  V30 9233 C 876.946 -1.65733 -0.38298 0
M  V30 9234 O 878.131 -1.92324 -0.269256 0
M  V30 9235 C 875.261 -3.47237 -0.0663197 0
M  V30 9236 C 874.215 -4.1973 0.83731 0
M  V30 9237 C 873.541 -5.34687 0.0369102 0
M  V30 9238 C 874.841 -4.76286 2.14357 0
M  V30 9239 H 876.535 -2.60432 1.477 0
M  V30 9240 H 874.081 -1.25187 0.711634 0
M  V30 9241 H 876.034 -4.19803 -0.366563 0
M  V30 9242 H 874.758 -3.11615 -0.977944 0
M  V30 9243 H 873.417 -3.49024 1.1215 0
M  V30 9244 H 873.065 -4.95309 -0.876244 0
M  V30 9245 H 872.765 -5.84119 0.63865 0
M  V30 9246 H 874.289 -6.10059 -0.256968 0
M  V30 9247 H 875.703 -5.40691 1.90595 0
M  V30 9248 H 874.1 -5.36139 2.69583 0
M  V30 9249 H 875.17 -3.9524 2.80916 0
M  V30 9250 N 876.513 -0.788492 -1.36457 0
M  V30 9251 C 877.924 -0.423742 -1.81828 0
M  V30 9252 C 878.275 1.05221 -1.65599 0
M  V30 9253 O 877.4 1.8163 -1.17641 0
M  V30 9254 C 877.995 -0.762354 -3.30112 0
M  V30 9255 C 876.554 -0.450445 -3.73695 0
M  V30 9256 C 875.701 -0.997482 -2.58738 0
M  V30 9257 H 878.652 -0.981718 -1.24692 0
M  V30 9258 H 878.673 -0.0531136 -3.80463 0
M  V30 9259 H 878.185 -1.83662 -3.41891 0
M  V30 9260 H 876.286 0.615829 -3.67476 0
M  V30 9261 H 876.399 -0.970408 -4.69169 0
M  V30 9262 H 874.763 -0.420761 -2.51201 0
M  V30 9263 H 875.546 -2.07749 -2.73304 0
M  V30 9264 N 877.991 1.48044 -0.54043 0
M  V30 9265 C 879.402 1.86418 -0.102662 0
M  V30 9266 C 879.753 1.4489 1.32293 0
M  V30 9267 O 878.878 0.844319 1.99249 0
M  V30 9268 C 879.473 3.38324 -0.179533 0
M  V30 9269 C 878.032 3.75852 0.203098 0
M  V30 9270 C 877.179 2.72097 -0.534637 0
M  V30 9271 H 880.13 1.398 -0.751103 0
M  V30 9272 H 880.151 3.75641 0.606147 0
M  V30 9273 H 879.663 3.68518 -1.21721 0
M  V30 9274 H 877.764 3.51272 1.24252 0
M  V30 9275 H 877.877 4.78884 -0.143784 0
M  V30 9276 H 876.241 2.54692 0.0203358 0
M  V30 9277 H 877.024 3.05135 -1.57314 0
M  V30 9278 N 879.47 0.276058 1.55163 0
M  V30 9279 C 880.433 -0.597924 2.21263 0
M  V30 9280 C 881.433 -1.0806 1.19078 0
M  V30 9281 O 882.623 -0.980626 1.43977 0
M  V30 9282 C 879.755 -1.82503 2.87933 0
M  V30 9283 H 880.948 -0.0207769 2.99893 0
M  V30 9284 H 878.501 0.0266823 1.56277 0
M  V30 9285 H 879.236 -2.44266 2.13318 0
M  V30 9286 H 879.021 -1.48683 3.62816 0
M  V30 9287 H 880.511 -2.44651 3.38431 0
M  V30 9288 N 880.948 -1.576 0.00335426 0
M  V30 9289 C 881.88 -2.0549 -1.01521 0
M  V30 9290 C 882.893 -0.973441 -1.30491 0
M  V30 9291 O 884.082 -1.25017 -1.27409 0
M  V30 9292 C 881.182 -2.44272 -2.34914 0
M  V30 9293 C 880.355 -3.75191 -2.24835 0
M  V30 9294 C 879.414 -4.00804 -3.40944 0
M  V30 9295 O 878.44 -4.71423 -3.18981 0
M  V30 9296 N 879.642 -3.48961 -4.63904 0
M  V30 9297 H 882.407 -2.93493 -0.60678 0
M  V30 9298 H 879.968 -1.60851 -0.18396 0
M  V30 9299 H 881.96 -2.58518 -3.11369 0
M  V30 9300 H 880.53 -1.6177 -2.67487 0
M  V30 9301 H 879.75 -3.70989 -1.3327 0
M  V30 9302 H 881.038 -4.61013 -2.15277 0
M  V30 9303 H 880.436 -2.9178 -4.84645 0
M  V30 9304 H 878.993 -3.68531 -5.37613 0
M  V30 9305 N 882.426 0.269451 -1.5528 0
M  V30 9306 C 883.703 1.02207 -1.66773 0
M  V30 9307 C 884.083 2.04168 -0.536536 0
M  V30 9308 O 883.431 2.23761 0.462956 0
M  V30 9309 C 883.641 1.67569 -3.0614 0
M  V30 9310 C 884.989 2.18599 -3.64005 0
M  V30 9311 O 886.013 1.7755 -3.08795 0
M  V30 9312 O 884.872 2.93903 -4.60742 0
M  V30 9313 H 881.966 0.474314 -0.677462 0
M  V30 9314 H 884.512 0.265026 -1.67618 0
M  V30 9315 H 883.284 0.937029 -3.79915 0
M  V30 9316 H 882.907 2.49951 -3.09209 0
M  V30 9317 N 883.904 1.48273 0.534124 0
M  V30 9318 C 885.15 1.56311 1.29208 0
M  V30 9319 C 885.483 0.234481 1.92779 0
M  V30 9320 O 884.758 -0.759143 1.79073 0
M  V30 9321 C 885.041 2.69831 2.3846 0
M  V30 9322 C 884.894 4.12385 1.79608 0
M  V30 9323 C 886.213 2.79133 3.40254 0
M  V30 9324 H 883.332 0.56899 0.468422 0
M  V30 9325 H 885.974 1.80429 0.595438 0
M  V30 9326 H 884.124 2.49397 2.97881 0
M  V30 9327 H 885.796 4.44246 1.24269 0
M  V30 9328 H 884.039 4.19579 1.10162 0
M  V30 9329 H 884.71 4.87629 2.58693 0
M  V30 9330 H 887.186 2.97632 2.90783 0
M  V30 9331 H 886.062 3.60298 4.14097 0
M  V30 9332 H 886.323 1.87122 4.00547 0
M  V30 9333 N 885.382 -0.782676 1.36792 0
M  V30 9334 C 886.314 -1.9044 1.27536 0
M  V30 9335 C 887.327 -1.61647 0.193426 0
M  V30 9336 O 888.516 -1.72769 0.448692 0
M  V30 9337 C 885.616 -3.2541 0.946641 0
M  V30 9338 C 884.789 -3.81932 2.13183 0
M  V30 9339 C 883.848 -4.95355 1.7751 0
M  V30 9340 O 882.874 -5.11517 2.49678 0
M  V30 9341 N 884.076 -5.76108 0.712755 0
M  V30 9342 H 886.841 -1.98899 2.24186 0
M  V30 9343 H 884.402 -0.96127 1.30274 0
M  V30 9344 H 886.394 -3.98791 0.689043 0
M  V30 9345 H 884.964 -3.12524 0.0690591 0
M  V30 9346 H 884.184 -3.00459 2.55183 0
M  V30 9347 H 885.472 -4.16426 2.92347 0
M  V30 9348 H 884.87 -5.65586 0.113662 0
M  V30 9349 H 883.427 -6.49762 0.514995 0
M  V30 9350 N 886.86 -1.21182 -1.00761 0
M  V30 9351 C 887.79 -0.992773 -2.11344 0
M  V30 9352 C 888.771 0.0813618 -1.69905 0
M  V30 9353 O 889.956 -0.0779503 -1.94043 0
M  V30 9354 C 887.086 -0.553826 -3.42856 0
M  V30 9355 C 886.04 -1.57223 -3.98077 0
M  V30 9356 C 885.366 -0.989605 -5.25463 0
M  V30 9357 C 886.666 -2.95839 -4.30438 0
M  V30 9358 H 888.36 -1.91766 -2.29927 0
M  V30 9359 H 885.906 -0.923426 -1.10494 0
M  V30 9360 H 887.859 -0.387771 -4.19612 0
M  V30 9361 H 886.583 0.406702 -3.24058 0
M  V30 9362 H 885.242 -1.7258 -3.23437 0
M  V30 9363 H 884.89 -0.0208743 -5.02996 0
M  V30 9364 H 884.59 -1.66984 -5.63374 0
M  V30 9365 H 886.114 -0.834815 -6.04866 0
M  V30 9366 H 887.528 -2.8394 -4.98047 0
M  V30 9367 H 885.925 -3.60851 -4.79486 0
M  V30 9368 H 886.995 -3.46882 -3.38823 0
M  V30 9369 N 888.338 1.20213 -1.01915 0
M  V30 9370 C 889.578 1.91354 -0.71853 0
M  V30 9371 C 889.942 1.77231 0.738466 0
M  V30 9372 O 891.143 2.42876 1.15172 0
M  V30 9373 C 889.414 3.38552 -1.14529 0
M  V30 9374 S 890.973 4.28011 -0.967037 0
M  V30 9375 H 887.791 0.661015 -0.261879 0
M  V30 9376 H 890.393 1.45394 -1.30694 0
M  V30 9377 H 889.097 3.46354 -2.20153 0
M  V30 9378 H 888.628 3.8954 -0.549766 0
M  V30 9379 H 890.643 4.96035 0.127974 0
M  V30 9380 N 889.816 0.795718 1.36037 0
M  V30 9381 C 891.063 0.371024 1.99072 0
M  V30 9382 C 891.391 -1.05896 1.63145 0
M  V30 9383 O 890.646 -1.7474 0.881163 0
M  V30 9384 C 890.945 0.489038 3.54038 0
M  V30 9385 C 890.611 1.88075 4.09803 0
M  V30 9386 C 889.273 2.26152 4.24745 0
M  V30 9387 C 891.625 2.79174 4.40126 0
M  V30 9388 C 888.953 3.54718 4.67324 0
M  V30 9389 C 891.305 4.07175 4.8414 0
M  V30 9390 C 889.969 4.45266 4.97287 0
M  V30 9391 H 889.239 0.135767 0.728456 0
M  V30 9392 H 891.886 1.0144 1.62426 0
M  V30 9393 H 890.191 -0.237823 3.91078 0
M  V30 9394 H 891.888 0.141374 4.00751 0
M  V30 9395 H 888.478 1.57488 3.98617 0
M  V30 9396 H 892.662 2.51009 4.28145 0
M  V30 9397 H 887.918 3.84093 4.75691 0
M  V30 9398 H 892.092 4.77875 5.06565 0
M  V30 9399 H 889.719 5.44943 5.30038 0
M  V30 9400 N 891.294 -1.47756 0.548274 0
M  V30 9401 C 892.705 -1.8636 0.112547 0
M  V30 9402 C 893.056 -1.45589 -1.31523 0
M  V30 9403 O 892.181 -0.854874 -1.98799 0
M  V30 9404 C 892.776 -3.38224 0.197473 0
M  V30 9405 C 891.335 -3.75954 -0.183163 0
M  V30 9406 C 890.482 -2.7181 0.549059 0
M  V30 9407 H 893.433 -1.394 0.758506 0
M  V30 9408 H 893.454 -3.75957 -0.586217 0
M  V30 9409 H 892.966 -3.67868 1.23673 0
M  V30 9410 H 891.067 -3.51926 -1.22387 0
M  V30 9411 H 891.18 -4.78801 0.169178 0
M  V30 9412 H 889.544 -2.54699 -0.00682862 0
M  V30 9413 H 890.327 -3.04296 1.5893 0
M  V30 9414 N 892.772 -0.284283 -1.55015 0
M  V30 9415 C 893.997 0.335799 -2.04664 0
M  V30 9416 C 894.422 1.47999 -1.16094 0
M  V30 9417 O 893.78 1.8058 -0.161454 0
M  V30 9418 C 893.828 0.785615 -3.51938 0
M  V30 9419 O 892.932 1.89202 -3.66437 0
M  V30 9420 H 892.273 0.0680233 -0.660506 0
M  V30 9421 H 894.803 -0.421255 -2.00216 0
M  V30 9422 H 894.813 1.07892 -3.93476 0
M  V30 9423 H 893.488 -0.0514675 -4.15868 0
M  V30 9424 H 892.065 1.60055 -3.36804 0
M  V30 9425 N 894.251 1.57596 -0.0117121 0
M  V30 9426 C 895.497 1.91355 0.671661 0
M  V30 9427 C 895.83 0.886818 1.72769 0
M  V30 9428 O 895.105 -0.0928813 1.94278 0
M  V30 9429 C 895.388 3.35657 1.30409 0
M  V30 9430 C 895.241 4.49055 0.2588 0
M  V30 9431 C 896.56 3.79595 2.22701 0
M  V30 9432 H 893.679 0.695893 0.242698 0
M  V30 9433 H 896.321 1.89887 -0.0654071 0
M  V30 9434 H 894.471 3.37038 1.9323 0
M  V30 9435 H 896.143 4.59809 -0.370631 0
M  V30 9436 H 894.386 4.31785 -0.417672 0
M  V30 9437 H 895.057 5.4701 0.740578 0
M  V30 9438 H 897.533 3.7984 1.69885 0
M  V30 9439 H 896.409 4.81292 2.63912 0
M  V30 9440 H 896.67 3.14118 3.11098 0
M  V30 9441 N 895.729 -0.261212 1.5542 0
M  V30 9442 C 896.977 -0.989272 1.76232 0
M  V30 9443 C 897.298 -1.86389 0.573067 0
M  V30 9444 O 896.568 -1.91526 -0.41166 0
M  V30 9445 H 895.148 -0.368256 0.64992 0
M  V30 9446 H 897.81 -0.282603 1.9284 0
M  V30 9447 H 896.906 -1.61935 2.66802 0
M  V30 9448 N 897.207 -1.48554 -0.526253 0
M  V30 9449 C 898.157 -1.59753 -1.62674 0
M  V30 9450 C 899.141 -0.454452 -1.54349 0
M  V30 9451 O 900.333 -0.706091 -1.62306 0
M  V30 9452 C 897.462 -1.64388 -3.01383 0
M  V30 9453 C 896.548 -2.84188 -3.14798 0
M  V30 9454 N 896.939 -4.08564 -2.98176 0
M  V30 9455 C 895.237 -2.81599 -3.45859 0
M  V30 9456 C 895.938 -4.88961 -3.15106 0
M  V30 9457 N 894.914 -4.21848 -3.42849 0
M  V30 9458 H 898.716 -2.5366 -1.48438 0
M  V30 9459 H 896.23 -1.44977 -0.731801 0
M  V30 9460 H 898.227 -1.70505 -3.80439 0
M  V30 9461 H 896.887 -0.716006 -3.16707 0
M  V30 9462 H 897.898 -4.38943 -2.74862 0
M  V30 9463 H 894.575 -1.98083 -3.67518 0
M  V30 9464 H 895.965 -5.97683 -3.0696 0
M  V30 9465 N 898.685 0.775411 -1.37205 0
M  V30 9466 C 899.925 1.54689 -1.33606 0
M  V30 9467 C 900.289 1.91834 0.0798549 0
M  V30 9468 O 901.49 2.67722 0.240531 0
M  V30 9469 C 899.761 2.7804 -2.24563 0
M  V30 9470 S 901.32 3.68143 -2.38781 0
M  V30 9471 H 898.138 0.529631 -0.474355 0
M  V30 9472 H 900.74 0.912128 -1.72918 0
M  V30 9473 H 899.444 2.48825 -3.26365 0
M  V30 9474 H 898.975 3.46479 -1.86322 0
M  V30 9475 H 900.99 4.69843 -1.59568 0
M  V30 9476 N 900.163 1.21714 1.00117 0
M  V30 9477 C 901.095 0.937627 2.09144 0
M  V30 9478 C 902.108 -0.0806291 1.626 0
M  V30 9479 O 903.297 0.152348 1.77849 0
M  V30 9480 C 900.397 0.387036 3.36683 0
M  V30 9481 C 899.57 1.46054 4.12295 0
M  V30 9482 C 898.629 0.918505 5.18122 0
M  V30 9483 O 897.655 1.60282 5.46167 0
M  V30 9484 N 898.857 -0.264308 5.79898 0
M  V30 9485 H 901.622 1.87622 2.33705 0
M  V30 9486 H 899.183 1.12291 1.16629 0
M  V30 9487 H 901.175 0.00992825 4.04699 0
M  V30 9488 H 899.745 -0.456467 3.09249 0
M  V30 9489 H 898.965 2.01133 3.39027 0
M  V30 9490 H 900.253 2.18306 4.59587 0
M  V30 9491 H 899.651 -0.837242 5.5947 0
M  V30 9492 H 898.208 -0.582886 6.49188 0
M  V30 9493 N 901.641 -1.19671 1.02551 0
M  V30 9494 C 902.887 -1.89818 0.730801 0
M  V30 9495 C 903.242 -1.77917 -0.732355 0
M  V30 9496 O 902.535 -1.15848 -1.5261 0
M  V30 9497 C 902.729 -3.39647 1.11241 0
M  V30 9498 C 902.558 -3.66129 2.61112 0
M  V30 9499 C 901.328 -3.84348 3.28032 0
M  V30 9500 C 903.526 -3.67963 3.59316 0
M  V30 9501 N 901.508 -3.98429 4.67041 0
M  V30 9502 C 902.879 -3.87575 4.83927 0
M  V30 9503 C 904.934 -3.50971 3.53162 0
M  V30 9504 C 903.637 -3.91957 6.03127 0
M  V30 9505 C 905.663 -3.56629 4.71773 0
M  V30 9506 C 905.025 -3.76722 5.95197 0
M  V30 9507 H 901.124 -0.713873 0.319232 0
M  V30 9508 H 903.708 -1.43844 1.31213 0
M  V30 9509 H 901.879 -3.84352 0.559324 0
M  V30 9510 H 903.611 -3.97301 0.77031 0
M  V30 9511 H 900.366 -3.83097 2.78448 0
M  V30 9512 H 900.79 -4.09327 5.39241 0
M  V30 9513 H 905.432 -3.34395 2.58728 0
M  V30 9514 H 903.15 -4.07326 6.97933 0
M  V30 9515 H 906.736 -3.44777 4.68637 0
M  V30 9516 H 905.616 -3.8097 6.85442 0
M  V30 9517 N 903.119 -0.802921 -1.35613 0
M  V30 9518 C 904.366 -0.381576 -1.98872 0
M  V30 9519 C 904.694 1.0503 -1.63704 0
M  V30 9520 O 903.949 1.7427 -0.890418 0
M  V30 9521 C 904.248 -0.507806 -3.53774 0
M  V30 9522 C 903.914 -1.90245 -4.088 0
M  V30 9523 C 902.576 -2.28401 -4.2354 0
M  V30 9524 C 904.928 -2.81504 -4.3864 0
M  V30 9525 C 902.256 -3.57192 -4.65436 0
M  V30 9526 C 904.608 -4.09737 -4.81973 0
M  V30 9527 C 903.272 -4.47897 -4.94919 0
M  V30 9528 H 902.542 -0.139629 -0.727726 0
M  V30 9529 H 905.189 -1.023 -1.61886 0
M  V30 9530 H 903.494 0.21708 -3.91198 0
M  V30 9531 H 905.191 -0.162625 -4.0067 0
M  V30 9532 H 901.781 -1.596 -3.97776 0
M  V30 9533 H 905.965 -2.53276 -4.26808 0
M  V30 9534 H 901.221 -3.86611 -4.73648 0
M  V30 9535 H 905.395 -4.80555 -5.04024 0
M  V30 9536 H 903.022 -5.47747 -5.27141 0
M  V30 9537 N 904.597 1.47463 -0.556102 0
M  V30 9538 C 905.837 2.04372 -0.0339743 0
M  V30 9539 C 906.201 1.42125 1.29091 0
M  V30 9540 O 907.402 1.90074 1.90066 0
M  V30 9541 C 905.673 3.57352 0.0585316 0
M  V30 9542 S 907.232 4.35625 0.526943 0
M  V30 9543 H 904.05 0.710574 -0.0246115 0
M  V30 9544 H 906.652 1.80848 -0.742585 0
M  V30 9545 H 905.356 4.00181 -0.910116 0
M  V30 9546 H 904.887 3.85371 0.790731 0
M  V30 9547 H 906.902 4.62911 1.78683 0
M  V30 9548 N 906.075 0.2925 1.54862 0
M  V30 9549 C 907.323 -0.318633 1.99572 0
M  V30 9550 C 907.644 -1.55062 1.1824 0
M  V30 9551 O 906.914 -1.93943 0.276226 0
M  V30 9552 H 905.494 -0.120722 0.737181 0
M  V30 9553 H 908.156 0.401862 1.90712 0
M  V30 9554 H 907.252 -0.596542 3.06346 0
M  V30 9555 N 907.553 -1.57587 0.0200696 0
M  V30 9556 C 908.483 -2.12702 -0.963333 0
M  V30 9557 C 909.464 -1.04094 -1.34531 0
M  V30 9558 O 910.649 -1.31881 -1.42552 0
M  V30 9559 C 907.779 -2.64673 -2.24868 0
M  V30 9560 C 906.733 -3.77987 -2.00772 0
M  V30 9561 C 906.059 -4.16351 -3.35494 0
M  V30 9562 C 907.359 -5.0444 -1.35416 0
M  V30 9563 H 909.053 -2.95121 -0.504363 0
M  V30 9564 H 906.599 -1.41966 -0.24116 0
M  V30 9565 H 908.552 -3.01862 -2.94036 0
M  V30 9566 H 907.276 -1.79403 -2.72914 0
M  V30 9567 H 905.935 -3.41223 -1.34025 0
M  V30 9568 H 905.583 -3.28075 -3.81282 0
M  V30 9569 H 905.283 -4.92705 -3.20181 0
M  V30 9570 H 906.807 -4.56115 -4.05945 0
M  V30 9571 H 908.221 -5.39273 -1.94571 0
M  V30 9572 H 906.618 -5.85732 -1.30529 0
M  V30 9573 H 907.688 -4.83803 -0.325923 0
M  V30 9574 N 909.032 0.252966 -1.55557 0
M  V30 9575 C 910.281 0.979736 -1.76307 0
M  V30 9576 C 910.594 1.86714 -0.582871 0
M  V30 9577 O 911.8 2.6302 -0.673247 0
M  V30 9578 C 910.256 1.79205 -3.12112 0
M  V30 9579 C 909.864 0.952333 -4.37761 0
M  V30 9580 C 911.608 2.51191 -3.42203 0
M  V30 9581 C 909.515 1.76018 -5.64599 0
M  V30 9582 H 908.445 0.369538 -0.657235 0
M  V30 9583 H 911.096 0.234619 -1.81994 0
M  V30 9584 H 909.478 2.57888 -3.00515 0
M  V30 9585 H 910.652 0.208251 -4.60329 0
M  V30 9586 H 908.967 0.346082 -4.14959 0
M  V30 9587 H 911.564 3.12074 -4.34182 0
M  V30 9588 H 911.907 3.22499 -2.63249 0
M  V30 9589 H 912.44 1.79523 -3.54988 0
M  V30 9590 H 909.179 1.09095 -6.46358 0
M  V30 9591 H 908.699 2.4797 -5.46142 0
M  V30 9592 H 910.378 2.32884 -6.03634 0
M  V30 9593 N 910.51 1.48831 0.518367 0
M  V30 9594 C 911.442 1.60317 1.63802 0
M  V30 9595 C 912.455 0.486771 1.55352 0
M  V30 9596 O 913.644 0.758111 1.61601 0
M  V30 9597 C 910.744 1.52771 3.02513 0
M  V30 9598 C 909.917 2.79649 3.36326 0
M  V30 9599 C 908.976 2.65396 4.54369 0
M  V30 9600 O 908.002 3.39304 4.57013 0
M  V30 9601 N 909.204 1.75784 5.53245 0
M  V30 9602 H 911.969 2.56878 1.54383 0
M  V30 9603 H 909.53 1.45701 0.705889 0
M  V30 9604 H 911.522 1.40914 3.79375 0
M  V30 9605 H 910.092 0.641381 3.05949 0
M  V30 9606 H 909.312 3.05985 2.48529 0
M  V30 9607 H 910.6 3.63799 3.55707 0
M  V30 9608 H 909.998 1.14961 5.53896 0
M  V30 9609 H 908.555 1.69859 6.29278 0
M  V30 9610 N 911.988 -0.768124 1.37614 0
M  V30 9611 C 912.951 -1.86314 1.3349 0
M  V30 9612 C 913.951 -1.59025 0.23823 0
M  V30 9613 O 915.141 -1.6704 0.494288 0
M  V30 9614 C 912.273 -3.23519 1.07462 0
M  V30 9615 H 913.466 -1.91382 2.30896 0
M  V30 9616 H 911.019 -0.968267 1.22696 0
M  V30 9617 H 911.754 -3.24127 0.106028 0
M  V30 9618 H 911.539 -3.44719 1.86846 0
M  V30 9619 H 913.029 -4.03597 1.07236 0
M  V30 9620 N 913.466 -1.22244 -0.994698 0
M  V30 9621 C 914.712 -1.05752 -1.73747 0
M  V30 9622 C 915.067 0.403416 -1.88123 0
M  V30 9623 O 914.36 1.29511 -1.412 0
M  V30 9624 C 914.554 -1.70014 -3.14372 0
M  V30 9625 C 914.383 -3.22205 -3.1371 0
M  V30 9626 C 913.153 -3.91301 -3.19705 0
M  V30 9627 C 915.351 -4.19163 -2.98005 0
M  V30 9628 N 913.333 -5.30594 -3.08778 0
M  V30 9629 C 914.704 -5.45274 -2.95087 0
M  V30 9630 C 916.759 -4.10078 -2.82383 0
M  V30 9631 C 915.462 -6.63345 -2.78146 0
M  V30 9632 C 917.488 -5.27797 -2.66803 0
M  V30 9633 C 916.85 -6.52826 -2.6457 0
M  V30 9634 H 912.949 -0.441393 -0.64552 0
M  V30 9635 H 915.533 -1.54757 -1.18146 0
M  V30 9636 H 913.704 -1.23562 -3.68221 0
M  V30 9637 H 915.436 -1.46631 -3.77202 0
M  V30 9638 H 912.191 -3.42289 -3.27315 0
M  V30 9639 H 912.615 -6.0358 -3.06628 0
M  V30 9640 H 917.257 -3.14201 -2.82909 0
M  V30 9641 H 914.975 -7.59373 -2.76367 0
M  V30 9642 H 918.561 -5.22598 -2.557 0
M  V30 9643 H 917.441 -7.42383 -2.5266 0
M  V30 9644 N 914.944 1.19125 -1.03184 0
M  V30 9645 C 916.19 1.89163 -0.731111 0
M  V30 9646 C 916.523 1.79604 0.738662 0
M  V30 9647 O 915.798 1.19037 1.53819 0
M  V30 9648 C 916.081 3.39986 -1.18666 0
M  V30 9649 C 915.934 3.58401 -2.71788 0
M  V30 9650 C 917.253 4.33316 -0.769772 0
M  V30 9651 H 914.372 0.686908 -0.267069 0
M  V30 9652 H 917.014 1.40205 -1.28229 0
M  V30 9653 H 915.164 3.81813 -0.717736 0
M  V30 9654 H 916.836 3.25727 -3.26649 0
M  V30 9655 H 915.079 3.01355 -3.12038 0
M  V30 9656 H 915.75 4.64189 -2.98719 0
M  V30 9657 H 918.226 3.9922 -1.17314 0
M  V30 9658 H 917.102 5.37427 -1.11637 0
M  V30 9659 H 917.363 4.40884 0.327681 0
M  V30 9660 N 916.422 0.810101 1.35185 0
M  V30 9661 C 917.65 0.404696 2.02903 0
M  V30 9662 C 918.065 -0.985434 1.61042 0
M  V30 9663 O 917.422 -1.63557 0.809658 0
M  V30 9664 C 917.473 0.482493 3.58266 0
M  V30 9665 O 917.194 1.81782 3.98606 0
M  V30 9666 C 918.695 0.070345 4.43244 0
M  V30 9667 H 915.915 0.163972 0.650657 0
M  V30 9668 H 918.459 1.0947 1.72733 0
M  V30 9669 H 916.614 -0.159296 3.87072 0
M  V30 9670 H 917.028 1.78306 4.93262 0
M  V30 9671 H 918.502 0.175888 5.5172 0
M  V30 9672 H 918.979 -0.984724 4.28018 0
M  V30 9673 H 919.585 0.685427 4.1974 0
M  V30 9674 N 917.9 -1.47166 0.563914 0
M  V30 9675 C 918.848 -2.31798 -0.193009 0
M  V30 9676 C 919.842 -1.43338 -0.902805 0
M  V30 9677 O 921.048 -1.60067 -0.823328 0
M  V30 9678 H 917.423 -0.747613 -0.0811139 0
M  V30 9679 H 919.394 -2.93476 0.539876 0
M  V30 9680 C 918.143 -3.26131 -1.20555 0
M  V30 9681 H 917.466 -3.94166 -0.668803 0
M  V30 9682 H 918.906 -3.88167 -1.70593 0
M  V30 9683 C 917.365 -2.50132 -2.25689 0
M  V30 9684 O 917.895 -2.25064 -3.3273 0
M  V30 9685 N 916.101 -2.11022 -1.99795 0
M  V30 9686 H 915.648 -2.3161 -1.1276 0
M  V30 9687 H 915.606 -1.60489 -2.70353 0
M  V30 9688 N 919.378 -0.300708 -1.54705 0
M  V30 9689 C 920.789 0.191995 -1.8571 0
M  V30 9690 C 921.14 1.53447 -1.22264 0
M  V30 9691 O 920.265 2.10054 -0.520226 0
M  V30 9692 C 920.86 0.355148 -3.36933 0
M  V30 9693 C 919.419 0.792071 -3.67972 0
M  V30 9694 C 918.566 -0.099756 -2.77121 0
M  V30 9695 H 921.517 -0.521729 -1.49879 0
M  V30 9696 H 921.538 1.18977 -3.61421 0
M  V30 9697 H 921.05 -0.622075 -3.83082 0
M  V30 9698 H 919.151 1.77986 -3.27341 0
M  V30 9699 H 919.264 0.611661 -4.75179 0
M  V30 9700 H 917.628 0.420909 -2.51198 0
M  V30 9701 H 918.411 -1.07333 -3.2609 0
M  V30 9702 N 920.856 1.57574 -0.0284266 0
M  V30 9703 C 922.133 1.83064 0.688979 0
M  V30 9704 C 922.513 0.91219 1.90374 0
M  V30 9705 O 921.861 -0.0323672 2.28477 0
M  V30 9706 C 922.071 3.32262 1.06785 0
M  V30 9707 C 923.419 3.98717 1.45978 0
M  V30 9708 O 924.443 3.36753 1.16085 0
M  V30 9709 O 923.302 5.07927 2.01673 0
M  V30 9710 H 920.396 0.7548 0.337944 0
M  V30 9711 H 922.942 1.69607 -0.0560555 0
M  V30 9712 H 921.714 3.90772 0.203235 0
M  V30 9713 H 921.337 3.50823 1.87107 0
M  V30 9714 N 922.334 -0.244713 1.55689 0
M  V30 9715 C 923.559 -0.994157 1.8202 0
M  V30 9716 C 923.984 -1.78079 0.60577 0
M  V30 9717 O 923.342 -1.75748 -0.445221 0
M  V30 9718 C 923.39 -1.90599 3.06111 0
M  V30 9719 O 922.494 -2.99804 2.8318 0
M  V30 9720 H 921.835 -0.282767 0.600782 0
M  V30 9721 H 924.365 -0.26504 2.02876 0
M  V30 9722 H 924.375 -2.32023 3.35603 0
M  V30 9723 H 923.05 -1.32763 3.9414 0
M  V30 9724 H 921.627 -2.62493 2.64862 0
M  V30 9725 N 923.813 -1.49104 -0.510467 0
M  V30 9726 C 925.041 -1.61806 -1.28944 0
M  V30 9727 C 925.456 -0.285774 -1.86625 0
M  V30 9728 O 924.813 0.727551 -1.67371 0
M  V30 9729 C 924.864 -2.67966 -2.42645 0
M  V30 9730 O 924.585 -3.96026 -1.87337 0
M  V30 9731 C 926.086 -2.91286 -3.34166 0
M  V30 9732 H 923.306 -0.544999 -0.391429 0
M  V30 9733 H 925.85 -1.95071 -0.613805 0
M  V30 9734 H 924.005 -2.37505 -3.06056 0
M  V30 9735 H 924.419 -4.54427 -2.61909 0
M  V30 9736 H 925.893 -3.69323 -4.1025 0
M  V30 9737 H 926.37 -2.00842 -3.90588 0
M  V30 9738 H 926.976 -3.23127 -2.76531 0
M  V30 9739 N 925.291 0.760815 -1.38019 0
M  V30 9740 C 926.254 1.85604 -1.34476 0
M  V30 9741 C 927.254 1.58897 -0.24666 0
M  V30 9742 O 928.444 1.66776 -0.50314 0
M  V30 9743 C 925.576 3.22945 -1.09176 0
M  V30 9744 H 926.769 1.90155 -2.31908 0
M  V30 9745 H 924.322 0.961746 -1.23208 0
M  V30 9746 H 925.057 3.24066 -0.123216 0
M  V30 9747 H 924.842 3.43723 -1.88672 0
M  V30 9748 H 926.332 4.03022 -1.09375 0
M  V30 9749 N 926.769 1.22769 0.988202 0
M  V30 9750 C 928.18 1.0512 1.54294 0
M  V30 9751 C 928.531 -0.383904 1.92407 0
M  V30 9752 O 927.656 -1.26955 1.75246 0
M  V30 9753 C 928.251 1.90198 2.80375 0
M  V30 9754 C 926.81 1.76831 3.32276 0
M  V30 9755 C 925.957 1.86377 2.05326 0
M  V30 9756 H 928.908 1.36546 0.808758 0
M  V30 9757 H 928.929 1.42216 3.52923 0
M  V30 9758 H 928.441 2.9464 2.52605 0
M  V30 9759 H 926.542 0.751412 3.64945 0
M  V30 9760 H 926.655 2.59771 4.02562 0
M  V30 9761 H 925.019 1.2987 2.19103 0
M  V30 9762 H 925.802 2.9236 1.79946 0
M  V30 9763 N 928.247 -1.18576 1.03814 0
M  V30 9764 C 929.21 -2.2033 0.63146 0
M  V30 9765 C 930.21 -1.57787 -0.309816 0
M  V30 9766 O 931.4 -1.73938 -0.0955598 0
M  V30 9767 C 928.532 -3.40818 -0.0745963 0
M  V30 9768 H 929.725 -2.57824 1.53189 0
M  V30 9769 H 927.278 -1.32416 0.830398 0
M  V30 9770 H 928.013 -3.08853 -0.988947 0
M  V30 9771 H 927.798 -3.87453 0.6019 0
M  V30 9772 H 929.288 -4.16166 -0.345727 0
M  V30 9773 N 929.725 -0.817259 -1.34754 0
M  V30 9774 C 930.635 -0.236946 -2.334 0
M  V30 9775 C 931.651 0.625685 -1.62361 0
M  V30 9776 O 932.827 0.534921 -1.94166 0
M  V30 9777 C 929.892 0.596215 -3.41535 0
M  V30 9778 C 928.953 -0.288154 -4.28332 0
M  V30 9779 C 928.186 0.505337 -5.31302 0
M  V30 9780 O 928.409 1.73912 -5.43241 0
M  V30 9781 O 927.343 -0.109374 -6.01801 0
M  V30 9782 H 931.169 -1.05327 -2.84851 0
M  V30 9783 H 928.754 -0.579275 -1.37713 0
M  V30 9784 H 930.636 1.07041 -4.07578 0
M  V30 9785 H 929.311 1.38997 -2.92338 0
M  V30 9786 H 928.218 -0.809724 -3.65232 0
M  V30 9787 H 929.551 -1.04612 -4.80955 0
M  V30 9788 N 931.203 1.46865 -0.571711 0
M  V30 9789 C 932.113 2.33979 0.170571 0
M  V30 9790 C 933.129 1.49083 0.897239 0
M  V30 9791 O 934.305 1.81979 0.862888 0
M  V30 9792 C 931.37 3.26063 1.17831 0
M  V30 9793 C 930.431 4.26855 0.457499 0
M  V30 9794 C 929.664 5.14539 1.41722 0
M  V30 9795 O 929.887 5.04945 2.65305 0
M  V30 9796 O 928.821 5.94612 0.9338 0
M  V30 9797 H 932.647 2.98781 -0.544396 0
M  V30 9798 H 930.232 1.4566 -0.332198 0
M  V30 9799 H 932.114 3.82903 1.75965 0
M  V30 9800 H 930.789 2.63871 1.87493 0
M  V30 9801 H 929.696 3.73734 -0.165406 0
M  V30 9802 H 931.029 4.91802 -0.197953 0
M  V30 9803 N 932.681 0.308908 1.54543 0
M  V30 9804 C 933.644 -0.550857 2.22482 0
M  V30 9805 C 934.644 -1.0551 1.21344 0
M  V30 9806 O 935.834 -0.949866 1.46025 0
M  V30 9807 C 932.966 -1.76354 2.9174 0
M  V30 9808 H 934.159 0.0428395 2.99869 0
M  V30 9809 H 931.712 0.059825 1.56185 0
M  V30 9810 H 932.447 -2.39686 2.18451 0
M  V30 9811 H 932.232 -1.40954 3.65889 0
M  V30 9812 H 933.722 -2.37417 3.43545 0
M  V30 9813 N 934.159 -1.57557 0.0367827 0
M  V30 9814 C 935.069 -2.14148 -0.958017 0
M  V30 9815 C 936.085 -1.09564 -1.35173 0
M  V30 9816 O 937.261 -1.4166 -1.43158 0
M  V30 9817 C 934.326 -2.6636 -2.21931 0
M  V30 9818 C 933.387 -3.85688 -1.8853 0
M  V30 9819 C 932.62 -4.35401 -3.08645 0
M  V30 9820 O 932.843 -3.8425 -4.21554 0
M  V30 9821 O 931.777 -5.27158 -2.90497 0
M  V30 9822 H 935.603 -2.99442 -0.506797 0
M  V30 9823 H 933.188 -1.48259 -0.184275 0
M  V30 9824 H 935.07 -2.99976 -2.9596 0
M  V30 9825 H 933.745 -1.84145 -2.66219 0
M  V30 9826 H 932.652 -3.56985 -1.11861 0
M  V30 9827 H 933.985 -4.69089 -1.49052 0
M  V30 9828 N 935.637 0.236453 -1.55816 0
M  V30 9829 C 936.885 0.96111 -1.77784 0
M  V30 9830 C 937.206 1.85454 -0.602648 0
M  V30 9831 O 936.476 1.92157 0.381137 0
M  V30 9832 H 935.056 0.35787 -0.655697 0
M  V30 9833 H 937.718 0.251888 -1.93265 0
M  V30 9834 H 936.814 1.5767 -2.69345 0
M  V30 9835 N 937.115 1.49373 0.502552 0
M  V30 9836 C 938.078 1.65413 1.58654 0
M  V30 9837 C 939.078 0.526003 1.51953 0
M  V30 9838 O 940.268 0.792421 1.55133 0
M  V30 9839 C 937.4 1.65005 2.98306 0
M  V30 9840 H 938.593 2.62095 1.45762 0
M  V30 9841 H 936.146 1.38381 0.726672 0
M  V30 9842 H 936.881 0.699014 3.16677 0
M  V30 9843 H 936.666 2.46931 3.04578 0
M  V30 9844 H 938.156 1.79477 3.77065 0
M  V30 9845 N 938.594 -0.753485 1.38421 0
M  V30 9846 C 939.842 -1.50962 1.34368 0
M  V30 9847 C 940.163 -1.94889 -0.0656895 0
M  V30 9848 O 939.433 -1.67652 -1.01339 0
M  V30 9849 H 938.013 -0.559967 0.494415 0
M  V30 9850 H 940.675 -0.895665 1.73101 0
M  V30 9851 H 939.771 -2.40048 1.99458 0
M  V30 9852 N 940.072 -1.23292 -0.981677 0
M  V30 9853 C 940.982 -1.02964 -2.10798 0
M  V30 9854 C 941.998 0.0254674 -1.73981 0
M  V30 9855 O 943.174 -0.169706 -2.00684 0
M  V30 9856 C 940.239 -0.621934 -3.41076 0
M  V30 9857 C 939.3 -1.75194 -3.91926 0
M  V30 9858 C 938.533 -1.36359 -5.15986 0
M  V30 9859 O 938.756 -0.247265 -5.69864 0
M  V30 9860 O 937.69 -2.18421 -5.60871 0
M  V30 9861 H 941.516 -1.97354 -2.30836 0
M  V30 9862 H 939.101 -1.01986 -1.09175 0
M  V30 9863 H 940.983 -0.405446 -4.19445 0
M  V30 9864 H 939.658 0.29299 -3.22371 0
M  V30 9865 H 938.565 -2.02305 -3.1468 0
M  V30 9866 H 939.898 -2.64513 -4.15083 0
M  V30 9867 N 941.55 1.18024 -1.04442 0
M  V30 9868 C 942.483 2.20623 -0.583171 0
M  V30 9869 C 943.461 1.57994 0.384262 0
M  V30 9870 O 944.645 1.86135 0.297673 0
M  V30 9871 C 941.772 3.38378 0.147561 0
M  V30 9872 C 940.818 4.19423 -0.773711 0
M  V30 9873 S 941.651 4.85534 -2.25869 0
M  V30 9874 C 942.807 6.06686 -1.53891 0
M  V30 9875 H 943.04 2.59406 -1.45244 0
M  V30 9876 H 940.573 1.28518 -0.855708 0
M  V30 9877 H 942.531 4.06621 0.562988 0
M  V30 9878 H 941.192 2.97998 0.992765 0
M  V30 9879 H 940.385 5.03568 -0.208694 0
M  V30 9880 H 939.987 3.56579 -1.12816 0
M  V30 9881 H 942.279 6.72347 -0.834045 0
M  V30 9882 H 943.222 6.67702 -2.35755 0
M  V30 9883 H 943.63 5.55031 -1.02961 0
M  V30 9884 N 943.028 0.824394 1.34319 0
M  V30 9885 C 943.958 0.262077 2.32025 0
M  V30 9886 C 944.939 -0.622277 1.58309 0
M  V30 9887 O 946.124 -0.548848 1.86283 0
M  V30 9888 C 943.254 -0.57567 3.42496 0
M  V30 9889 C 942.208 0.21167 4.27476 0
M  V30 9890 C 941.534 -0.748913 5.29429 0
M  V30 9891 C 942.834 1.42068 5.02607 0
M  V30 9892 H 944.528 1.07842 2.79304 0
M  V30 9893 H 942.074 0.520022 1.34282 0
M  V30 9894 H 944.027 -0.979251 4.09864 0
M  V30 9895 H 942.751 -1.42508 2.93869 0
M  V30 9896 H 941.41 0.596636 3.61712 0
M  V30 9897 H 941.058 -1.59432 4.77064 0
M  V30 9898 H 940.758 -0.226313 5.87164 0
M  V30 9899 H 942.282 -1.15032 5.99667 0
M  V30 9900 H 943.696 1.09103 5.62823 0
M  V30 9901 H 942.093 1.87903 5.69923 0
M  V30 9902 H 943.163 2.1981 4.32217 0
M  V30 9903 N 944.506 -1.46559 0.579492 0
M  V30 9904 C 945.416 -2.34066 -0.15816 0
M  V30 9905 C 946.432 -1.49556 -0.88932 0
M  V30 9906 O 947.608 -1.82434 -0.853226 0
M  V30 9907 C 944.673 -3.26683 -1.161 0
M  V30 9908 C 943.734 -4.27092 -0.434855 0
M  V30 9909 C 942.967 -5.15283 -1.38992 0
M  V30 9910 O 943.19 -5.06345 -2.62623 0
M  V30 9911 O 942.124 -5.95099 -0.902253 0
M  V30 9912 H 945.95 -2.98488 0.560234 0
M  V30 9913 H 943.535 -1.45482 0.339918 0
M  V30 9914 H 945.417 -3.8383 -1.73932 0
M  V30 9915 H 944.092 -2.64862 -1.86091 0
M  V30 9916 H 942.999 -3.73641 0.185224 0
M  V30 9917 H 944.332 -4.9169 0.224031 0
M  V30 9918 N 945.984 -0.3171 -1.54377 0
M  V30 9919 C 947.231 0.28741 -2.0045 0
M  V30 9920 C 947.559 1.52648 -1.20535 0
M  V30 9921 O 946.814 1.93775 -0.273831 0
M  V30 9922 C 947.113 0.672917 -3.51008 0
M  V30 9923 C 946.779 -0.466245 -4.48483 0
M  V30 9924 C 945.441 -0.778933 -4.74854 0
M  V30 9925 C 947.793 -1.23176 -5.06436 0
M  V30 9926 C 945.121 -1.85997 -5.56437 0
M  V30 9927 C 947.473 -2.30284 -5.89196 0
M  V30 9928 C 946.137 -2.62141 -6.13872 0
M  V30 9929 H 945.407 0.105171 -0.733499 0
M  V30 9930 H 948.054 -0.439538 -1.86388 0
M  V30 9931 H 946.359 1.48019 -3.62764 0
M  V30 9932 H 948.056 1.15209 -3.84094 0
M  V30 9933 H 944.646 -0.212449 -4.28073 0
M  V30 9934 H 948.83 -1.00344 -4.8605 0
M  V30 9935 H 944.086 -2.11134 -5.73788 0
M  V30 9936 H 948.26 -2.90048 -6.33123 0
M  V30 9937 H 945.887 -3.46037 -6.76877 0
M  V30 9938 N 947.462 1.57535 -0.0451378 0
M  V30 9939 C 948.739 1.83785 0.669523 0
M  V30 9940 C 949.119 0.932331 1.89396 0
M  V30 9941 O 948.467 -0.00813229 2.28499 0
M  V30 9942 C 948.677 3.33376 1.03255 0
M  V30 9943 C 950.025 4.00243 1.41741 0
M  V30 9944 O 951.049 3.37965 1.12507 0
M  V30 9945 O 949.908 5.10038 1.96275 0
M  V30 9946 H 947.002 0.758342 0.329919 0
M  V30 9947 H 949.548 1.69538 -0.0740415 0
M  V30 9948 H 948.32 3.90965 0.161777 0
M  V30 9949 H 947.943 3.52787 1.83376 0
M  V30 9950 N 948.94 -0.228186 1.55939 0
M  V30 9951 C 950.17 -0.969211 1.82455 0
M  V30 9952 C 950.578 -1.78714 0.621133 0
M  V30 9953 O 949.921 -1.78841 -0.419694 0
M  V30 9954 C 949.983 -1.94088 3.02605 0
M  V30 9955 C 949.647 -1.30811 4.37878 0
M  V30 9956 C 950.644 -0.701275 5.15149 0
M  V30 9957 C 948.329 -1.32187 4.84595 0
M  V30 9958 C 950.323 -0.116631 6.37293 0
M  V30 9959 C 948.01 -0.733375 6.06683 0
M  V30 9960 C 949.008 -0.131804 6.82873 0
M  V30 9961 O 948.696 0.447549 8.02653 0
M  V30 9962 H 948.428 -0.289951 0.610659 0
M  V30 9963 H 950.982 -0.250576 2.03866 0
M  V30 9964 H 949.212 -2.69833 2.76996 0
M  V30 9965 H 950.901 -2.5469 3.1605 0
M  V30 9966 H 951.667 -0.683022 4.80166 0
M  V30 9967 H 947.546 -1.77949 4.25271 0
M  V30 9968 H 951.09 0.353539 6.96704 0
M  V30 9969 H 946.987 -0.749019 6.4114 0
M  V30 9970 H 947.755 0.341224 8.17788 0
M  V30 9971 N 950.418 -1.49637 -0.494624 0
M  V30 9972 C 951.328 -1.69522 -1.62172 0
M  V30 9973 C 952.344 -0.577894 -1.64123 0
M  V30 9974 O 953.52 -0.853382 -1.82426 0
M  V30 9975 C 950.585 -1.7633 -2.9851 0
M  V30 9976 C 949.646 -2.99944 -3.07135 0
M  V30 9977 C 948.879 -3.06419 -4.36971 0
M  V30 9978 O 949.102 -2.20312 -5.26136 0
M  V30 9979 O 948.036 -3.9894 -4.507 0
M  V30 9980 H 951.862 -2.65017 -1.48324 0
M  V30 9981 H 949.447 -1.33454 -0.671603 0
M  V30 9982 H 951.329 -1.83125 -3.7953 0
M  V30 9983 H 950.004 -0.840155 -3.12607 0
M  V30 9984 H 948.911 -2.98664 -2.2528 0
M  V30 9985 H 950.244 -3.9176 -2.97968 0
M  V30 9986 N 951.896 0.746133 -1.38819 0
M  V30 9987 C 953.126 1.53316 -1.38484 0
M  V30 9988 C 953.534 1.89183 0.0253332 0
M  V30 9989 O 952.877 1.5382 1.00424 0
M  V30 9990 C 952.939 2.85623 -2.18311 0
M  V30 9991 C 952.603 2.72253 -3.67052 0
M  V30 9992 C 953.6 2.41547 -4.60381 0
M  V30 9993 C 951.285 2.89472 -4.10501 0
M  V30 9994 C 953.279 2.28226 -5.9514 0
M  V30 9995 C 950.966 2.7577 -5.45338 0
M  V30 9996 C 951.964 2.45191 -6.37472 0
M  V30 9997 O 951.652 2.31561 -7.69828 0
M  V30 9998 H 951.384 0.480763 -0.475229 0
M  V30 9999 H 953.938 0.93057 -1.83111 0
M  V30 10000 H 952.168 3.481 -1.68414 0
M  V30 10001 H 953.857 3.47178 -2.10291 0
M  V30 10002 H 954.623 2.27905 -4.28117 0
M  V30 10003 H 950.502 3.12269 -3.3913 0
M  V30 10004 H 954.046 2.04279 -6.6702 0
M  V30 10005 H 949.943 2.88987 -5.77197 0
M  V30 10006 H 950.711 2.46716 -7.80432 0
M  V30 10007 N 953.375 1.23811 0.975125 0
M  V30 10008 C 954.603 1.10019 1.75224 0
M  V30 10009 C 955.018 -0.34791 1.85567 0
M  V30 10010 O 954.375 -1.24043 1.33864 0
M  V30 10011 C 954.426 1.72572 3.1765 0
M  V30 10012 O 954.147 3.11719 3.07836 0
M  V30 10013 C 955.648 1.64292 4.11732 0
M  V30 10014 H 952.868 0.38476 0.549728 0
M  V30 10015 H 955.412 1.63768 1.22476 0
M  V30 10016 H 953.567 1.22843 3.67408 0
M  V30 10017 H 953.981 3.42152 3.97533 0
M  V30 10018 H 955.455 2.12754 5.09352 0
M  V30 10019 H 955.932 0.602722 4.35045 0
M  V30 10020 H 956.538 2.13411 3.6788 0
M  V30 10021 N 954.853 -1.17469 1.05066 0
M  V30 10022 C 955.763 -2.25089 0.661222 0
M  V30 10023 C 956.779 -1.71086 -0.31712 0
M  V30 10024 O 957.955 -2.00685 -0.169534 0
M  V30 10025 C 955.02 -3.46676 0.0406415 0
M  V30 10026 C 954.081 -4.15771 1.06927 0
M  V30 10027 C 953.314 -5.31553 0.478208 0
M  V30 10028 O 953.537 -5.6593 -0.712714 0
M  V30 10029 O 952.471 -5.89574 1.21185 0
M  V30 10030 H 956.297 -2.60685 1.5581 0
M  V30 10031 H 953.882 -1.24744 0.822147 0
M  V30 10032 H 955.764 -4.203 -0.304312 0
M  V30 10033 H 954.439 -3.1288 -0.829909 0
M  V30 10034 H 953.346 -3.44171 1.46619 0
M  V30 10035 H 954.679 -4.53591 1.91092 0
M  V30 10036 N 956.331 -0.831506 -1.3388 0
M  V30 10037 C 957.559 -0.436925 -2.02234 0
M  V30 10038 C 957.974 0.959689 -1.6259 0
M  V30 10039 O 957.331 1.62248 -0.835576 0
M  V30 10040 C 957.382 -0.539429 -3.57453 0
M  V30 10041 O 957.103 -1.88101 -3.95664 0
M  V30 10042 C 958.604 -0.140852 -4.43076 0
M  V30 10043 H 955.824 -0.174302 -0.647966 0
M  V30 10044 H 958.368 -1.12204 -1.70969 0
M  V30 10045 H 956.523 0.0976959 -3.87277 0
M  V30 10046 H 956.937 -1.86131 -4.90363 0
M  V30 10047 H 958.411 -0.26364 -5.5137 0
M  V30 10048 H 958.888 0.916505 -4.29531 0
M  V30 10049 H 959.494 -0.752117 -4.18597 0
M  V30 10050 N 957.809 1.4625 -0.587256 0
M  V30 10051 C 959.057 2.01963 -0.0744273 0
M  V30 10052 C 959.378 1.46065 1.29189 0
M  V30 10053 O 958.648 0.647077 1.84905 0
M  V30 10054 H 957.228 0.746597 -0.0245236 0
M  V30 10055 H 959.89 1.79299 -0.764063 0
M  V30 10056 H 958.986 3.12099 -0.00884894 0
M  V30 10057 N 959.287 0.325282 1.54207 0
M  V30 10058 C 960.197 -0.548778 2.28091 0
M  V30 10059 C 961.213 -1.12772 1.32508 0
M  V30 10060 O 962.389 -1.14732 1.65525 0
M  V30 10061 C 959.454 -1.69284 3.02562 0
M  V30 10062 C 958.515 -1.14553 4.13734 0
M  V30 10063 C 957.748 -2.23506 4.84645 0
M  V30 10064 O 957.971 -3.43884 4.55082 0
M  V30 10065 O 956.905 -1.88828 5.71513 0
M  V30 10066 H 960.731 0.0512974 3.03657 0
M  V30 10067 H 958.316 0.0909159 1.49123 0
M  V30 10068 H 960.198 -2.35887 3.49192 0
M  V30 10069 H 958.873 -2.27906 2.2987 0
M  V30 10070 H 957.78 -0.444532 3.71449 0
M  V30 10071 H 959.113 -0.60441 4.88475 0
M  V30 10072 N 960.765 -1.57509 0.0534917 0
M  V30 10073 C 962.181 -1.56696 -0.303067 0
M  V30 10074 C 962.381 -1.06135 -1.71282 0
M  V30 10075 O 961.437 -0.71899 -2.42047 0
M  V30 10076 C 962.75 -3.00421 -0.129418 0
M  V30 10077 C 964.298 -3.12358 -0.200346 0
M  V30 10078 C 964.773 -4.57967 -0.0551971 0
M  V30 10079 N 966.264 -4.63066 -0.111398 0
M  V30 10080 C 966.999 -5.73395 -0.0232344 0
M  V30 10081 N 966.495 -6.92701 0.11741 0
M  V30 10082 N 968.288 -5.62045 -0.078984 0
M  V30 10083 H 960.439 -1.88696 0.975064 0
M  V30 10084 H 962.702 -0.869072 0.378706 0
M  V30 10085 H 962.408 -3.41456 0.842653 0
M  V30 10086 H 962.282 -3.66563 -0.889476 0
M  V30 10087 H 964.669 -2.71221 -1.16289 0
M  V30 10088 H 964.75 -2.48891 0.590506 0
M  V30 10089 H 964.394 -4.9979 0.904034 0
M  V30 10090 H 964.324 -5.19443 -0.865223 0
M  V30 10091 H 966.815 -3.77263 -0.219256 0
M  V30 10092 H 967.128 -7.72597 0.177326 0
M  V30 10093 H 965.473 -6.94833 0.152526 0
M  V30 10094 H 968.664 -4.67725 -0.187434 0
M  V30 10095 H 968.837 -6.48 -0.00681731 0
M  V30 10096 N 962.243 0.219913 -1.56058 0
M  V30 10097 C 963.173 1.27572 -1.9557 0
M  V30 10098 C 964.154 1.48801 -0.824148 0
M  V30 10099 O 965.339 1.60957 -1.08658 0
M  V30 10100 C 962.469 2.62517 -2.27381 0
M  V30 10101 C 961.423 2.55941 -3.43042 0
M  V30 10102 C 960.749 3.94931 -3.60463 0
M  V30 10103 C 962.049 2.10584 -4.77966 0
M  V30 10104 H 963.743 0.947482 -2.84013 0
M  V30 10105 H 961.289 0.454337 -1.36645 0
M  V30 10106 H 963.242 3.36538 -2.53615 0
M  V30 10107 H 961.966 2.97031 -1.35794 0
M  V30 10108 H 960.625 1.84377 -3.1686 0
M  V30 10109 H 960.273 4.26756 -2.66249 0
M  V30 10110 H 959.973 3.91413 -4.38258 0
M  V30 10111 H 961.497 4.70611 -3.89046 0
M  V30 10112 H 962.911 2.74349 -5.03394 0
M  V30 10113 H 961.308 2.18122 -5.59055 0
M  V30 10114 H 962.378 1.05818 -4.73213 0
M  V30 10115 N 963.721 1.49897 0.486681 0
M  V30 10116 C 964.967 1.60342 1.2417 0
M  V30 10117 C 965.3 0.295694 1.91936 0
M  V30 10118 O 964.575 -0.701788 1.81398 0
M  V30 10119 C 964.858 2.77281 2.29755 0
M  V30 10120 C 964.711 4.1789 1.66397 0
M  V30 10121 C 966.03 2.89817 3.31201 0
M  V30 10122 H 963.149 0.583605 0.450083 0
M  V30 10123 H 965.791 1.82232 0.537734 0
M  V30 10124 H 963.941 2.58748 2.89796 0
M  V30 10125 H 965.613 4.47975 1.10073 0
M  V30 10126 H 963.856 4.22872 0.967579 0
M  V30 10127 H 964.527 4.95612 2.43049 0
M  V30 10128 H 967.003 3.06732 2.81167 0
M  V30 10129 H 965.879 3.7329 4.02425 0
M  V30 10130 H 966.14 1.9977 3.94391 0
M  V30 10131 N 965.199 -0.738761 1.39212 0
M  V30 10132 C 966.129 -1.86602 1.40364 0
M  V30 10133 C 967.11 -1.67984 0.267495 0
M  V30 10134 O 968.295 -1.88358 0.472765 0
M  V30 10135 C 965.425 -3.24308 1.24265 0
M  V30 10136 C 964.379 -3.57557 2.35239 0
M  V30 10137 C 963.705 -4.94159 2.04233 0
M  V30 10138 C 965.005 -3.60914 3.77543 0
M  V30 10139 H 966.699 -1.85896 2.34698 0
M  V30 10140 H 964.245 -0.892959 1.1297 0
M  V30 10141 H 966.198 -4.02838 1.23692 0
M  V30 10142 H 964.922 -3.25531 0.263974 0
M  V30 10143 H 963.581 -2.81354 2.35022 0
M  V30 10144 H 963.229 -4.91959 1.04813 0
M  V30 10145 H 962.929 -5.17373 2.78567 0
M  V30 10146 H 964.453 -5.7505 2.05303 0
M  V30 10147 H 965.867 -4.29528 3.79709 0
M  V30 10148 H 964.264 -3.95644 4.51205 0
M  V30 10149 H 965.334 -2.60803 4.08791 0
M  V30 10150 N 966.677 -1.24326 -0.968545 0
M  V30 10151 C 967.925 -1.08032 -1.70803 0
M  V30 10152 C 968.246 0.381728 -1.91227 0
M  V30 10153 O 967.516 1.27253 -1.48942 0
M  V30 10154 H 966.096 -0.396777 -0.632912 0
M  V30 10155 H 968.758 -1.56232 -1.16523 0
M  V30 10156 H 967.854 -1.57769 -2.69287 0
M  V30 10157 N 968.156 1.1691 -1.05688 0
M  V30 10158 C 969.103 2.21095 -0.662246 0
M  V30 10159 C 970.073 1.62623 0.338083 0
M  V30 10160 O 971.258 1.89428 0.228362 0
M  V30 10161 C 968.398 3.45066 -0.0484018 0
M  V30 10162 C 967.511 4.17809 -1.09817 0
M  V30 10163 C 966.646 5.29281 -0.451114 0
M  V30 10164 C 965.685 5.93817 -1.48484 0
M  V30 10165 N 964.822 6.96793 -0.861588 0
M  V30 10166 H 969.662 2.54204 -1.55513 0
M  V30 10167 H 967.199 1.24863 -0.777665 0
M  V30 10168 H 969.157 4.15932 0.324978 0
M  V30 10169 H 967.787 3.12526 0.807918 0
M  V30 10170 H 966.839 3.45608 -1.58932 0
M  V30 10171 H 968.151 4.61907 -1.88265 0
M  V30 10172 H 967.305 6.06695 -0.0244251 0
M  V30 10173 H 966.044 4.8633 0.365306 0
M  V30 10174 H 965.049 5.1513 -1.92149 0
M  V30 10175 H 966.274 6.38848 -2.30325 0
M  V30 10176 H 964.22 6.55967 -0.0657688 0
M  V30 10177 H 964.137 7.39229 -1.58354 0
M  V30 10178 H 965.405 7.78142 -0.45984 0
M  V30 10179 N 969.634 0.838594 1.33437 0
M  V30 10180 C 970.882 0.433312 1.974 0
M  V30 10181 C 971.203 -1.01078 1.66758 0
M  V30 10182 O 970.473 -1.70406 0.966373 0
M  V30 10183 H 969.053 0.15724 0.730263 0
M  V30 10184 H 971.715 1.07149 1.62804 0
M  V30 10185 H 970.811 0.565144 3.06941 0
M  V30 10186 N 971.112 -1.45937 0.595003 0
M  V30 10187 C 972.34 -2.06698 0.091293 0
M  V30 10188 C 972.755 -1.44176 -1.21897 0
M  V30 10189 O 972.112 -0.551402 -1.73971 0
M  V30 10190 C 972.163 -3.61436 -0.0681801 0
M  V30 10191 O 971.884 -4.21622 1.19023 0
M  V30 10192 C 973.385 -4.39155 -0.604814 0
M  V30 10193 H 970.605 -0.668029 0.0630737 0
M  V30 10194 H 973.149 -1.87376 0.819165 0
M  V30 10195 H 971.304 -3.80143 -0.746324 0
M  V30 10196 H 971.718 -5.14647 1.01187 0
M  V30 10197 H 973.192 -5.47973 -0.665532 0
M  V30 10198 H 973.669 -4.08055 -1.62444 0
M  V30 10199 H 974.275 -4.25282 0.0388658 0
M  V30 10200 N 972.59 -0.333456 -1.54032 0
M  V30 10201 C 973.82 0.267425 -2.04862 0
M  V30 10202 C 974.228 1.45559 -1.20869 0
M  V30 10203 O 973.571 1.82197 -0.234478 0
M  V30 10204 C 973.633 0.755759 -3.51466 0
M  V30 10205 C 973.297 -0.311409 -4.55938 0
M  V30 10206 C 974.294 -1.15078 -5.07004 0
M  V30 10207 C 971.979 -0.462439 -5.00167 0
M  V30 10208 C 973.973 -2.12682 -6.0087 0
M  V30 10209 C 971.66 -1.44188 -5.93846 0
M  V30 10210 C 972.658 -2.27253 -6.44085 0
M  V30 10211 O 972.346 -3.23532 -7.35923 0
M  V30 10212 H 972.078 0.0572596 -0.673571 0
M  V30 10213 H 974.632 -0.480646 -1.99697 0
M  V30 10214 H 972.862 1.55491 -3.54062 0
M  V30 10215 H 974.551 1.27607 -3.8532 0
M  V30 10216 H 975.317 -1.04513 -4.73605 0
M  V30 10217 H 971.196 0.17424 -4.60671 0
M  V30 10218 H 974.74 -2.77555 -6.40007 0
M  V30 10219 H 970.637 -1.54813 -6.2666 0
M  V30 10220 H 971.405 -3.18886 -7.53826 0
M  V30 10221 N 974.068 1.57479 -0.061844 0
M  V30 10222 C 975.316 1.92727 0.608336 0
M  V30 10223 C 975.637 0.941799 1.70749 0
M  V30 10224 O 974.907 -0.0116608 1.95897 0
M  V30 10225 H 973.487 0.71145 0.2277 0
M  V30 10226 H 976.149 1.94546 -0.117359 0
M  V30 10227 H 975.245 2.9426 1.04007 0
M  V30 10228 N 975.546 -0.211634 1.56173 0
M  V30 10229 C 976.792 -0.935935 1.79911 0
M  V30 10230 C 977.125 -1.83589 0.633155 0
M  V30 10231 O 976.4 -1.91004 -0.367132 0
M  V30 10232 C 976.683 -1.76638 3.13801 0
M  V30 10233 C 976.536 -0.892259 4.40861 0
M  V30 10234 C 977.855 -2.74224 3.44223 0
M  V30 10235 H 974.974 -0.338822 0.654499 0
M  V30 10236 H 977.616 -0.20422 1.88899 0
M  V30 10237 H 975.766 -2.39021 3.0627 0
M  V30 10238 H 977.438 -0.284407 4.60422 0
M  V30 10239 H 975.681 -0.198145 4.33347 0
M  V30 10240 H 976.352 -1.50793 5.31004 0
M  V30 10241 H 978.828 -2.21975 3.51946 0
M  V30 10242 H 977.704 -3.29424 4.39057 0
M  V30 10243 H 977.965 -3.52455 2.66885 0
M  V30 10244 N 977.024 -1.50153 -0.478725 0
M  V30 10245 C 978.27 -1.60998 -1.23318 0
M  V30 10246 C 978.603 -0.305868 -1.91776 0
M  V30 10247 O 977.878 0.692158 -1.81767 0
M  V30 10248 C 978.161 -2.78495 -2.28282 0
M  V30 10249 C 978.014 -4.18767 -1.64178 0
M  V30 10250 C 979.333 -2.91569 -3.2966 0
M  V30 10251 H 976.452 -0.585983 -0.446982 0
M  V30 10252 H 979.094 -1.82514 -0.528063 0
M  V30 10253 H 977.244 -2.60281 -2.8842 0
M  V30 10254 H 978.916 -4.48552 -1.07696 0
M  V30 10255 H 977.159 -4.23379 -0.94514 0
M  V30 10256 H 977.83 -4.96894 -2.40417 0
M  V30 10257 H 980.306 -3.08219 -2.79536 0
M  V30 10258 H 979.182 -3.75419 -4.0044 0
M  V30 10259 H 979.443 -2.01859 -3.93326 0
M  V30 10260 N 978.502 0.731368 -1.39602 0
M  V30 10261 C 979.732 1.51839 -1.40102 0
M  V30 10262 C 980.14 1.89199 0.00526634 0
M  V30 10263 O 979.483 1.54877 0.987874 0
M  V30 10264 C 979.545 2.83292 -2.21328 0
M  V30 10265 C 979.209 2.68345 -3.69919 0
M  V30 10266 C 980.206 2.36651 -4.62917 0
M  V30 10267 C 977.891 2.85102 -4.13548 0
M  V30 10268 C 979.885 2.21901 -5.97527 0
M  V30 10269 C 977.572 2.69971 -5.48233 0
M  V30 10270 C 978.57 2.38416 -6.40037 0
M  V30 10271 O 978.258 2.23383 -7.72241 0
M  V30 10272 H 977.99 0.475695 -0.480302 0
M  V30 10273 H 980.544 0.911096 -1.84087 0
M  V30 10274 H 978.774 3.46294 -1.72096 0
M  V30 10275 H 980.463 3.44928 -2.13961 0
M  V30 10276 H 981.229 2.23352 -4.3051 0
M  V30 10277 H 977.108 3.08655 -3.42423 0
M  V30 10278 H 980.652 1.97193 -6.69149 0
M  V30 10279 H 976.549 2.82849 -5.8023 0
M  V30 10280 H 977.317 2.38425 -7.83004 0
M  V30 10281 N 979.98 1.24838 0.961938 0
M  V30 10282 C 980.943 1.04674 2.03902 0
M  V30 10283 C 981.943 0.00204674 1.608 0
M  V30 10284 O 983.133 0.243555 1.72489 0
M  V30 10285 C 980.265 0.587736 3.35795 0
M  V30 10286 H 981.458 2.00278 2.23223 0
M  V30 10287 H 979.011 1.07142 1.138 0
M  V30 10288 H 979.746 -0.371244 3.22168 0
M  V30 10289 H 979.531 1.34182 3.68426 0
M  V30 10290 H 981.021 0.467867 4.14971 0
M  V30 10291 N 981.458 -1.16348 1.06306 0
M  V30 10292 C 982.706 -1.86512 0.778311 0
M  V30 10293 C 983.027 -1.82107 -0.697273 0
M  V30 10294 O 982.297 -1.2547 -1.50446 0
M  V30 10295 H 980.877 -0.690529 0.284919 0
M  V30 10296 H 983.539 -1.41092 1.34458 0
M  V30 10297 H 982.635 -2.91947 1.10333 0
M  V30 10298 N 982.937 -0.845659 -1.3299 0
M  V30 10299 C 984.353 -0.53433 -1.5039 0
M  V30 10300 C 984.553 0.936939 -1.78392 0
M  V30 10301 O 983.609 1.72043 -1.84818 0
M  V30 10302 C 984.922 -1.41354 -2.65404 0
M  V30 10303 C 986.47 -1.41303 -2.79289 0
M  V30 10304 C 986.945 -2.27724 -3.97373 0
M  V30 10305 N 988.436 -2.25471 -4.0462 0
M  V30 10306 C 989.171 -2.89074 -4.95201 0
M  V30 10307 N 988.667 -3.61755 -5.90851 0
M  V30 10308 N 990.46 -2.78508 -4.88251 0
M  V30 10309 H 982.611 -1.79798 -1.13078 0
M  V30 10310 H 984.874 -0.767454 -0.556524 0
M  V30 10311 H 984.58 -2.45936 -2.51413 0
M  V30 10312 H 984.454 -1.09445 -3.60973 0
M  V30 10313 H 986.841 -0.374899 -2.92709 0
M  V30 10314 H 986.922 -1.77222 -1.84461 0
M  V30 10315 H 986.566 -3.316 -3.84713 0
M  V30 10316 H 986.496 -1.89142 -4.9146 0
M  V30 10317 H 988.987 -1.72622 -3.3617 0
M  V30 10318 H 989.3 -4.07475 -6.56646 0
M  V30 10319 H 987.645 -3.65863 -5.90906 0
M  V30 10320 H 990.836 -2.21285 -4.12493 0
M  V30 10321 H 991.009 -3.2836 -5.58645 0
M  V30 10322 N 984.415 1.45619 -0.602734 0
M  V30 10323 C 985.692 1.9558 -0.0282472 0
M  V30 10324 C 986.072 1.54523 1.43826 0
M  V30 10325 O 985.42 0.805456 2.13833 0
M  V30 10326 C 985.63 3.48298 -0.221263 0
M  V30 10327 C 986.978 4.24483 -0.0995249 0
M  V30 10328 O 988.002 3.55879 -0.151132 0
M  V30 10329 O 986.861 5.46497 0.0194454 0
M  V30 10330 H 983.955 0.826104 0.0384897 0
M  V30 10331 H 986.501 1.55808 -0.672456 0
M  V30 10332 H 985.273 3.71134 -1.23997 0
M  V30 10333 H 984.896 3.94948 0.458437 0
M  V30 10334 N 985.893 0.34162 1.53853 0
M  V30 10335 C 987.309 -0.0103769 1.59597 0
M  V30 10336 C 987.509 -1.48897 1.35764 0
M  V30 10337 O 986.565 -2.24743 1.15095 0
M  V30 10338 C 987.878 0.424067 2.97695 0
M  V30 10339 C 989.426 0.376247 3.1073 0
M  V30 10340 C 989.901 0.786129 4.51203 0
M  V30 10341 N 991.392 0.74024 4.57247 0
M  V30 10342 C 992.127 1.02937 5.64085 0
M  V30 10343 N 991.623 1.38655 6.78783 0
M  V30 10344 N 993.416 0.953734 5.5395 0
M  V30 10345 H 985.567 1.30477 1.67599 0
M  V30 10346 H 987.83 0.531753 0.78482 0
M  V30 10347 H 987.536 1.45493 3.20195 0
M  V30 10348 H 987.41 -0.201713 3.7666 0
M  V30 10349 H 989.797 -0.645441 2.87955 0
M  V30 10350 H 989.878 1.0372 2.33828 0
M  V30 10351 H 989.522 1.80582 4.74713 0
M  V30 10352 H 989.452 0.102671 5.265 0
M  V30 10353 H 991.943 0.476763 3.7488 0
M  V30 10354 H 992.256 1.59206 7.56223 0
M  V30 10355 H 990.601 1.42498 6.80235 0
M  V30 10356 H 993.792 0.674044 4.63222 0
M  V30 10357 H 993.965 1.18241 6.37121 0
M  V30 10358 N 987.371 -1.57444 0.0701946 0
M  V30 10359 C 988.321 -2.09154 -0.90767 0
M  V30 10360 C 989.305 -1.00087 -1.25982 0
M  V30 10361 O 990.497 -1.26397 -1.23906 0
M  V30 10362 C 987.626 -2.65544 -2.17581 0
M  V30 10363 C 986.712 -3.81613 -1.85021 0
M  V30 10364 N 987.103 -4.90641 -1.22904 0
M  V30 10365 C 985.401 -3.90878 -2.1478 0
M  V30 10366 C 986.102 -5.71511 -1.084 0
M  V30 10367 N 985.078 -5.1973 -1.59318 0
M  V30 10368 H 988.88 -2.90839 -0.423051 0
M  V30 10369 H 986.394 -1.61848 -0.13374 0
M  V30 10370 H 988.391 -3.00904 -2.88552 0
M  V30 10371 H 987.051 -1.85304 -2.66632 0
M  V30 10372 H 988.062 -5.1004 -0.898878 0
M  V30 10373 H 984.739 -3.21611 -2.66219 0
M  V30 10374 H 986.129 -6.69214 -0.600183 0
M  V30 10375 N 988.849 0.203349 -1.56283 0
M  V30 10376 C 990.077 0.941426 -1.84241 0
M  V30 10377 C 990.492 1.77197 -0.651658 0
M  V30 10378 O 989.849 1.78506 0.379713 0
M  V30 10379 C 989.9 1.84429 -3.10915 0
M  V30 10380 O 989.621 1.04729 -4.25398 0
M  V30 10381 C 991.122 2.69474 -3.51993 0
M  V30 10382 H 988.342 0.27507 -0.612027 0
M  V30 10383 H 990.886 0.213088 -2.03387 0
M  V30 10384 H 989.041 2.52635 -2.93691 0
M  V30 10385 H 989.455 1.66179 -4.97478 0
M  V30 10386 H 990.929 3.28495 -4.43616 0
M  V30 10387 H 991.406 3.42775 -2.74594 0
M  V30 10388 H 992.012 2.06652 -3.71719 0
M  V30 10389 N 990.327 1.50405 0.470755 0
M  V30 10390 C 991.743 1.37838 0.804534 0
M  V30 10391 C 991.943 0.434743 1.96754 0
M  V30 10392 O 990.999 -0.122507 2.52203 0
M  V30 10393 C 992.312 2.79212 1.11629 0
M  V30 10394 C 993.86 2.88129 1.22272 0
M  V30 10395 C 994.335 4.30337 1.5676 0
M  V30 10396 N 995.826 4.3329 1.63751 0
M  V30 10397 C 996.561 5.4032 1.91942 0
M  V30 10398 N 996.057 6.57558 2.18151 0
M  V30 10399 N 997.85 5.27764 1.93446 0
M  V30 10400 H 990.001 2.10332 -0.295689 0
M  V30 10401 H 992.264 0.945429 -0.0697733 0
M  V30 10402 H 991.97 3.50103 0.334778 0
M  V30 10403 H 991.844 3.16475 2.0524 0
M  V30 10404 H 994.231 2.17457 1.9949 0
M  V30 10405 H 994.312 2.54409 0.2664 0
M  V30 10406 H 993.956 5.01547 0.800817 0
M  V30 10407 H 993.886 4.61545 2.53543 0
M  V30 10408 H 996.377 3.48752 1.45535 0
M  V30 10409 H 996.69 7.34935 2.38936 0
M  V30 10410 H 995.035 6.60732 2.15542 0
M  V30 10411 H 998.226 4.35169 1.72468 0
M  V30 10412 H 998.399 6.11264 2.15081 0
M  V30 10413 N 991.805 -0.723954 1.39988 0
M  V30 10414 C 993.051 -1.48591 1.38017 0
M  V30 10415 C 993.384 -1.94189 -0.0203522 0
M  V30 10416 O 992.659 -1.67572 -0.987422 0
M  V30 10417 C 992.942 -2.71786 2.36229 0
M  V30 10418 C 992.795 -2.32136 3.8527 0
M  V30 10419 C 994.114 -3.73921 2.32102 0
M  V30 10420 H 991.233 -0.538993 0.502648 0
M  V30 10421 H 993.875 -0.826908 1.71062 0
M  V30 10422 H 992.025 -3.28015 2.0818 0
M  V30 10423 H 993.697 -1.81454 4.24113 0
M  V30 10424 H 991.94 -1.64234 4.01509 0
M  V30 10425 H 992.611 -3.20406 4.49493 0
M  V30 10426 H 995.087 -3.27303 2.56928 0
M  V30 10427 H 993.963 -4.5777 3.02882 0
M  V30 10428 H 994.224 -4.21627 1.32979 0
M  V30 10429 N 993.283 -1.25346 -0.955304 0
M  V30 10430 C 994.699 -1.02154 -1.22625 0
M  V30 10431 C 994.899 0.26206 -1.99789 0
M  V30 10432 O 993.955 0.974958 -2.32918 0
M  V30 10433 C 995.268 -2.2443 -2.00129 0
M  V30 10434 C 996.816 -2.29185 -2.13174 0
M  V30 10435 C 997.291 -3.51117 -2.94077 0
M  V30 10436 N 998.782 -3.51509 -3.01655 0
M  V30 10437 C 999.517 -4.42517 -3.64645 0
M  V30 10438 N 999.013 -5.43796 -4.29252 0
M  V30 10439 N 1000.81 -4.302 -3.61779 0
M  V30 10440 H 992.957 -2.07812 -0.439071 0
M  V30 10441 H 995.22 -0.91258 -0.256715 0
M  V30 10442 H 994.926 -3.17717 -1.50827 0
M  V30 10443 H 994.8 -2.27548 -3.00835 0
M  V30 10444 H 997.187 -1.36422 -2.61674 0
M  V30 10445 H 997.268 -2.30087 -1.11775 0
M  V30 10446 H 996.912 -4.44201 -2.46268 0
M  V30 10447 H 996.842 -3.4746 -3.95701 0
M  V30 10448 H 999.333 -2.78245 -2.55711 0
M  V30 10449 H 999.646 -6.09453 -4.75171 0
M  V30 10450 H 997.991 -5.4767 -4.27882 0
M  V30 10451 H 1001.18 -3.50304 -3.10491 0
M  V30 10452 H 1001.36 -5.01323 -4.10584 0
M  V30 10453 N 994.761 1.15782 -1.06922 0
M  V30 10454 C 996.01 1.85807 -0.784774 0
M  V30 10455 C 996.323 1.82967 0.691551 0
M  V30 10456 O 997.529 2.48632 1.0906 0
M  V30 10457 C 995.985 3.33469 -1.35375 0
M  V30 10458 C 995.593 3.44766 -2.86077 0
M  V30 10459 C 997.337 4.08707 -1.14713 0
M  V30 10460 C 995.244 4.86551 -3.36187 0
M  V30 10461 H 994.174 0.696046 -0.28989 0
M  V30 10462 H 996.825 1.30629 -1.28873 0
M  V30 10463 H 995.207 3.88292 -0.77754 0
M  V30 10464 H 996.381 3.00073 -3.49704 0
M  V30 10465 H 994.696 2.82969 -3.05479 0
M  V30 10466 H 997.293 5.13336 -1.49633 0
M  V30 10467 H 997.636 4.16211 -0.0858868 0
M  V30 10468 H 998.169 3.60142 -1.68946 0
M  V30 10469 H 994.908 4.84229 -4.41818 0
M  V30 10470 H 994.428 5.31844 -2.77312 0
M  V30 10471 H 996.107 5.55392 -3.31887 0
M  V30 10472 N 996.239 0.8527 1.3254 0
M  V30 10473 C 997.202 0.300959 2.27215 0
M  V30 10474 C 998.202 -0.538235 1.51525 0
M  V30 10475 O 999.392 -0.350027 1.70647 0
M  V30 10476 C 996.524 -0.574428 3.36025 0
M  V30 10477 H 997.717 1.13655 2.77529 0
M  V30 10478 H 995.27 0.626878 1.43178 0
M  V30 10479 H 996.005 -1.43191 2.90976 0
M  V30 10480 H 995.79 0.0262265 3.92091 0
M  V30 10481 H 997.28 -0.9533 4.06573 0
M  V30 10482 N 997.718 -1.45297 0.610449 0
M  V30 10483 C 998.967 -2.0143 0.104323 0
M  V30 10484 C 999.28 -1.48431 -1.27388 0
M  V30 10485 O 1000.49 -1.96558 -1.87289 0
M  V30 10486 C 998.942 -3.59644 0.135812 0
M  V30 10487 C 998.55 -4.2164 1.51405 0
M  V30 10488 C 1000.29 -4.2333 -0.314922 0
M  V30 10489 C 998.201 -5.72015 1.50176 0
M  V30 10490 H 997.131 -0.753176 0.035233 0
M  V30 10491 H 999.782 -1.66738 0.7662 0
M  V30 10492 H 998.164 -3.91538 -0.592773 0
M  V30 10493 H 999.338 -4.01315 2.26457 0
M  V30 10494 H 997.653 -3.70159 1.90712 0
M  V30 10495 H 1000.25 -5.33597 -0.343335 0
M  V30 10496 H 1000.59 -3.94206 -1.33817 0
M  V30 10497 H 1001.13 -3.96163 0.360489 0
M  V30 10498 H 997.865 -6.05842 2.50271 0
M  V30 10499 H 997.385 -5.94523 0.793869 0
M  V30 10500 H 999.064 -6.35266 1.22665 0
M  V30 10501 N 999.196 -0.349774 -1.5367 0
M  V30 10502 C 1000.14 0.504121 -2.25227 0
M  V30 10503 C 1001.11 1.09048 -1.2529 0
M  V30 10504 O 1002.3 1.12594 -1.54037 0
M  V30 10505 C 999.438 1.64601 -3.03316 0
M  V30 10506 C 998.551 1.08635 -4.18118 0
M  V30 10507 C 997.686 2.19605 -4.83681 0
M  V30 10508 C 996.725 1.61023 -5.90541 0
M  V30 10509 N 995.862 2.6576 -6.49858 0
M  V30 10510 H 1000.7 -0.112621 -2.97787 0
M  V30 10511 H 998.239 -0.0673503 -1.46946 0
M  V30 10512 H 1000.2 2.31836 -3.46854 0
M  V30 10513 H 998.827 2.23364 -2.33041 0
M  V30 10514 H 997.879 0.304748 -3.79177 0
M  V30 10515 H 999.191 0.617911 -4.94958 0
M  V30 10516 H 998.345 2.94693 -5.30322 0
M  V30 10517 H 997.084 2.69795 -4.06278 0
M  V30 10518 H 996.089 0.844428 -5.43277 0
M  V30 10519 H 997.314 1.11677 -6.69855 0
M  V30 10520 H 995.26 3.15193 -5.75317 0
M  V30 10521 H 995.177 2.23557 -7.2219 0
M  V30 10522 H 996.445 3.40598 -7.01151 0
M  V30 10523 N 1000.67 1.57404 -0.0785433 0
M  V30 10524 C 1001.58 2.16612 0.900902 0
M  V30 10525 C 1002.6 1.13109 1.32221 0
M  V30 10526 O 1003.78 1.45406 1.39352 0
M  V30 10527 C 1000.84 2.7215 2.14791 0
M  V30 10528 C 999.902 3.90551 1.78237 0
M  V30 10529 C 999.135 4.43431 2.96993 0
M  V30 10530 O 999.358 3.95292 4.11218 0
M  V30 10531 O 998.292 5.34674 2.76418 0
M  V30 10532 H 1002.12 3.0068 0.427227 0
M  V30 10533 H 999.703 1.48696 0.144902 0
M  V30 10534 H 1001.58 3.07718 2.87902 0
M  V30 10535 H 1000.26 1.91139 2.61243 0
M  V30 10536 H 999.167 3.59825 1.02357 0
M  V30 10537 H 1000.5 4.72876 1.36562 0
M  V30 10538 N 1002.15 -0.195058 1.56388 0
M  V30 10539 C 1003.4 -0.913626 1.79821 0
M  V30 10540 C 1003.71 -1.84422 0.651767 0
M  V30 10541 O 1004.92 -2.6034 0.770402 0
M  V30 10542 C 1003.38 -1.67497 3.18548 0
M  V30 10543 C 1002.98 -0.789205 4.40994 0
M  V30 10544 C 1004.73 -2.38318 3.5129 0
M  V30 10545 C 1002.63 -1.54942 5.70742 0
M  V30 10546 H 1001.56 -0.344891 0.670497 0
M  V30 10547 H 1004.22 -0.166912 1.82739 0
M  V30 10548 H 1002.6 -2.46557 3.0988 0
M  V30 10549 H 1003.77 -0.0372595 4.60785 0
M  V30 10550 H 1002.09 -0.191834 4.15958 0
M  V30 10551 H 1004.68 -2.95745 4.45465 0
M  V30 10552 H 1005.03 -3.12507 2.75037 0
M  V30 10553 H 1005.56 -1.66224 3.61406 0
M  V30 10554 H 1002.3 -0.85031 6.49962 0
M  V30 10555 H 1001.82 -2.2753 5.54969 0
M  V30 10556 H 1003.5 -2.1032 6.11861 0
M  V30 10557 N 1003.63 -1.50653 -0.462772 0
M  V30 10558 C 1005.04 -1.54821 -1.04342 0
M  V30 10559 C 1005.39 -0.356595 -1.92932 0
M  V30 10560 O 1004.52 0.529579 -2.0982 0
M  V30 10561 C 1005.11 -2.80571 -1.89909 0
M  V30 10562 C 1003.67 -2.87394 -2.43067 0
M  V30 10563 C 1002.82 -2.49206 -1.21621 0
M  V30 10564 H 1005.77 -1.56797 -0.245048 0
M  V30 10565 H 1005.79 -2.62897 -2.75074 0
M  V30 10566 H 1005.3 -3.67281 -1.25405 0
M  V30 10567 H 1003.4 -2.05055 -3.111 0
M  V30 10568 H 1003.52 -3.90477 -2.77605 0
M  V30 10569 H 1001.88 -2.01829 -1.55361 0
M  V30 10570 H 1002.66 -3.38233 -0.587669 0
M  V30 10571 N 1005.11 0.71652 -1.4037 0
M  V30 10572 C 1006.02 1.86074 -1.42876 0
M  V30 10573 C 1007.03 1.71005 -0.321475 0
M  V30 10574 O 1008.21 1.93286 -0.565909 0
M  V30 10575 C 1005.28 3.21862 -1.28863 0
M  V30 10576 C 1004.34 3.49193 -2.49726 0
M  V30 10577 C 1003.57 4.78502 -2.36372 0
M  V30 10578 O 1003.79 5.53529 -1.37703 0
M  V30 10579 O 1002.73 5.06147 -3.25728 0
M  V30 10580 H 1006.55 1.86916 -2.39366 0
M  V30 10581 H 1004.14 0.866818 -1.21683 0
M  V30 10582 H 1006.02 4.02972 -1.23253 0
M  V30 10583 H 1004.69 3.2175 -0.354783 0
M  V30 10584 H 1003.6 2.68095 -2.60913 0
M  V30 10585 H 1004.93 3.54101 -3.41868 0
M  V30 10586 N 1006.59 1.25851 0.948643 0
M  V30 10587 C 1008 1.02802 1.22081 0
M  V30 10588 C 1008.2 -0.251461 1.99925 0
M  V30 10589 O 1007.26 -0.962592 2.33432 0
M  V30 10590 C 1008.57 2.25489 1.98936 0
M  V30 10591 C 1010.12 2.30312 2.11956 0
M  V30 10592 C 1010.59 3.52671 2.92211 0
M  V30 10593 N 1012.09 3.53103 2.99787 0
M  V30 10594 C 1012.82 4.44445 3.62294 0
M  V30 10595 N 1012.32 5.46065 4.26362 0
M  V30 10596 N 1014.11 4.32113 3.59493 0
M  V30 10597 H 1006.26 2.08042 0.428044 0
M  V30 10598 H 1008.52 0.913928 0.251872 0
M  V30 10599 H 1008.23 3.18513 1.4914 0
M  V30 10600 H 1008.1 2.2914 2.99624 0
M  V30 10601 H 1010.49 1.37808 2.60946 0
M  V30 10602 H 1010.57 2.30676 1.10554 0
M  V30 10603 H 1010.22 4.45501 2.43909 0
M  V30 10604 H 1010.15 3.49554 3.93853 0
M  V30 10605 H 1012.64 2.79597 2.54232 0
M  V30 10606 H 1012.95 6.11964 4.71932 0
M  V30 10607 H 1011.29 5.49931 4.24972 0
M  V30 10608 H 1014.49 3.51946 3.08629 0
M  V30 10609 H 1014.66 5.03493 4.0792 0
M  V30 10610 N 1008.06 -1.15214 1.07534 0
M  V30 10611 C 1009.34 -1.82155 0.71267 0
M  V30 10612 C 1009.72 -1.95163 -0.804655 0
M  V30 10613 O 1009.07 -1.50451 -1.71979 0
M  V30 10614 C 1009.28 -3.18392 1.42925 0
M  V30 10615 C 1010.63 -3.94005 1.58256 0
M  V30 10616 O 1011.65 -3.27952 1.39018 0
M  V30 10617 O 1010.51 -5.12436 1.89925 0
M  V30 10618 H 1007.6 -0.78709 0.253808 0
M  V30 10619 H 1010.15 -1.22309 1.17638 0
M  V30 10620 H 1008.92 -3.04034 2.46331 0
M  V30 10621 H 1008.55 -3.85925 0.956439 0
M  V30 10622 N 1009.54 -0.859717 -1.32086 0
M  V30 10623 C 1010.77 -0.478865 -2.01796 0
M  V30 10624 C 1011.19 0.918274 -1.64163 0
M  V30 10625 O 1010.55 1.60409 -0.844896 0
M  V30 10626 C 1010.6 -0.631356 -3.5503 0
M  V30 10627 O 1009.7 0.333712 -4.11048 0
M  V30 10628 H 1009.04 -0.191775 -0.635703 0
M  V30 10629 H 1011.57 -1.16031 -1.68517 0
M  V30 10630 H 1011.58 -0.520783 -4.04663 0
M  V30 10631 H 1010.26 -1.65015 -3.81763 0
M  V30 10632 H 1008.84 0.178953 -3.7247 0
M  V30 10633 N 1011.02 1.44971 -0.618145 0
M  V30 10634 C 1012.44 1.57077 -0.282666 0
M  V30 10635 C 1012.64 1.60782 1.21456 0
M  V30 10636 O 1011.69 1.54382 1.99806 0
M  V30 10637 C 1013.01 2.84858 -0.963148 0
M  V30 10638 C 1014.55 2.9855 -0.940062 0
M  V30 10639 C 1015.03 4.29115 -1.60076 0
M  V30 10640 N 1016.52 4.35899 -1.56674 0
M  V30 10641 C 1017.25 5.35617 -2.04701 0
M  V30 10642 N 1016.75 6.41813 -2.6086 0
M  V30 10643 N 1018.54 5.27042 -1.95406 0
M  V30 10644 H 1010.69 1.4081 -1.59017 0
M  V30 10645 H 1012.96 0.673914 -0.666741 0
M  V30 10646 H 1012.66 2.88059 -2.0178 0
M  V30 10647 H 1012.54 3.73966 -0.492901 0
M  V30 10648 H 1014.92 2.94909 0.10607 0
M  V30 10649 H 1015.01 2.10825 -1.44868 0
M  V30 10650 H 1014.65 4.33514 -2.64627 0
M  V30 10651 H 1014.58 5.15675 -1.06708 0
M  V30 10652 H 1017.07 3.59766 -1.15659 0
M  V30 10653 H 1017.38 7.14166 -2.95273 0
M  V30 10654 H 1015.73 6.42534 -2.64905 0
M  V30 10655 H 1018.92 4.42987 -1.51263 0
M  V30 10656 H 1019.09 6.04604 -2.33147 0
M  V30 10657 N 1012.5 0.357919 1.53482 0
M  V30 10658 C 1013.75 -0.234163 2.01142 0
M  V30 10659 C 1014.07 -1.49399 1.2454 0
M  V30 10660 O 1013.33 -1.92981 0.325111 0
M  V30 10661 C 1013.63 -0.579617 3.52669 0
M  V30 10662 C 1013.29 0.584988 4.47089 0
M  V30 10663 C 1011.96 0.904558 4.72622 0
M  V30 10664 C 1014.31 1.3656 5.02992 0
M  V30 10665 C 1011.64 2.00685 5.5131 0
M  V30 10666 C 1013.99 2.45824 5.82884 0
M  V30 10667 C 1012.65 2.78325 6.06706 0
M  V30 10668 H 1011.92 -0.0856863 0.736029 0
M  V30 10669 H 1014.57 0.488801 1.85157 0
M  V30 10670 H 1012.87 -1.38349 3.66561 0
M  V30 10671 H 1014.57 -1.04985 3.87013 0
M  V30 10672 H 1011.16 0.32587 4.27359 0
M  V30 10673 H 1015.34 1.13196 4.83219 0
M  V30 10674 H 1010.6 2.26272 5.67988 0
M  V30 10675 H 1014.77 3.06732 6.25211 0
M  V30 10676 H 1012.4 3.63862 6.67464 0
M  V30 10677 N 1013.98 -1.5736 0.0868897 0
M  V30 10678 C 1015.2 -1.98809 -0.590757 0
M  V30 10679 C 1015.63 -0.965407 -1.61436 0
M  V30 10680 O 1014.98 0.067143 -1.81176 0
M  V30 10681 C 1015.03 -3.39249 -1.22238 0
M  V30 10682 O 1014.14 -3.39706 -2.33824 0
M  V30 10683 H 1013.48 -0.64669 -0.150626 0
M  V30 10684 H 1016.01 -2.03927 0.165873 0
M  V30 10685 H 1016.02 -3.76765 -1.56564 0
M  V30 10686 H 1014.69 -4.13208 -0.472434 0
M  V30 10687 H 1013.27 -3.13977 -2.01178 0
M  V30 10688 N 1015.45 0.186762 -1.56489 0
M  V30 10689 C 1016.39 1.25565 -1.91745 0
M  V30 10690 C 1017.4 1.4128 -0.80894 0
M  V30 10691 O 1018.59 1.41558 -1.08737 0
M  V30 10692 C 1015.69 2.62662 -2.14154 0
M  V30 10693 C 1014.86 2.68448 -3.45333 0
M  V30 10694 C 1013.92 3.86798 -3.56754 0
M  V30 10695 O 1012.95 3.73514 -4.29507 0
M  V30 10696 N 1014.15 5.02607 -2.90459 0
M  V30 10697 H 1016.91 0.956351 -2.84032 0
M  V30 10698 H 1014.47 0.376631 -1.57458 0
M  V30 10699 H 1016.47 3.40277 -2.19075 0
M  V30 10700 H 1015.04 2.85046 -1.28326 0
M  V30 10701 H 1014.26 1.77044 -3.52206 0
M  V30 10702 H 1015.54 2.69311 -4.31682 0
M  V30 10703 H 1014.94 5.163 -2.31194 0
M  V30 10704 H 1013.5 5.78139 -3.00996 0
M  V30 10705 N 1016.93 1.50896 0.454776 0
M  V30 10706 C 1018.34 1.55372 1.0352 0
M  V30 10707 C 1018.69 0.366822 1.9274 0
M  V30 10708 O 1017.82 -0.518444 2.10098 0
M  V30 10709 C 1018.41 2.81574 1.88418 0
M  V30 10710 C 1016.97 2.88679 2.4154 0
M  V30 10711 C 1016.12 2.49847 1.20298 0
M  V30 10712 H 1019.07 1.56924 0.236729 0
M  V30 10713 H 1019.09 2.64352 2.73676 0
M  V30 10714 H 1018.6 3.67941 1.23455 0
M  V30 10715 H 1016.71 2.06702 3.10008 0
M  V30 10716 H 1016.82 3.91944 2.7553 0
M  V30 10717 H 1015.18 2.02651 1.54288 0
M  V30 10718 H 1015.97 3.3854 0.569723 0
M  V30 10719 N 1018.41 -0.709066 1.40748 0
M  V30 10720 C 1019.34 -1.83583 1.4429 0
M  V30 10721 C 1020.32 -1.67378 0.303067 0
M  V30 10722 O 1021.51 -1.87312 0.512612 0
M  V30 10723 C 1018.64 -3.21599 1.31116 0
M  V30 10724 C 1017.59 -3.52486 2.4277 0
M  V30 10725 C 1016.92 -4.89716 2.14668 0
M  V30 10726 C 1018.22 -3.52824 3.85113 0
M  V30 10727 H 1019.91 -1.80876 2.38588 0
M  V30 10728 H 1017.46 -0.868795 1.14839 0
M  V30 10729 H 1019.41 -4.00123 1.32209 0
M  V30 10730 H 1018.13 -3.24898 0.332965 0
M  V30 10731 H 1016.79 -2.76305 2.40937 0
M  V30 10732 H 1016.44 -4.89625 1.15224 0
M  V30 10733 H 1016.14 -5.11347 2.89478 0
M  V30 10734 H 1017.66 -5.70566 2.17455 0
M  V30 10735 H 1019.08 -4.21377 3.88734 0
M  V30 10736 H 1017.48 -3.85984 4.59496 0
M  V30 10737 H 1018.55 -2.52073 4.14231 0
M  V30 10738 N 1019.89 -1.26353 -0.941956 0
M  V30 10739 C 1020.84 -1.04513 -2.02635 0
M  V30 10740 C 1021.82 0.0222314 -1.60885 0
M  V30 10741 O 1023.02 -0.194629 -1.75927 0
M  V30 10742 C 1020.14 -0.679282 -3.36512 0
M  V30 10743 C 1019.23 -1.78406 -3.8475 0
M  V30 10744 N 1019.62 -3.02136 -4.05645 0
M  V30 10745 C 1017.92 -1.66748 -4.13656 0
M  V30 10746 C 1018.62 -3.73932 -4.45589 0
M  V30 10747 N 1017.6 -3.01616 -4.52248 0
M  V30 10748 H 1021.4 -1.9843 -2.16801 0
M  V30 10749 H 1018.91 -1.16858 -1.12774 0
M  V30 10750 H 1020.91 -0.503975 -4.13843 0
M  V30 10751 H 1019.57 0.252418 -3.23717 0
M  V30 10752 H 1020.58 -3.38049 -3.92356 0
M  V30 10753 H 1017.26 -0.805627 -4.09653 0
M  V30 10754 H 1018.65 -4.80201 -4.69954 0
M  V30 10755 N 1021.37 1.14642 -1.08144 0
M  V30 10756 C 1022.28 2.23257 -0.720668 0
M  V30 10757 C 1023.29 1.71866 0.271648 0
M  V30 10758 O 1024.47 2.01064 0.116266 0
M  V30 10759 C 1021.53 3.46447 -0.132542 0
M  V30 10760 C 1020.6 4.12789 -1.17913 0
M  V30 10761 C 1019.83 5.30099 -0.618971 0
M  V30 10762 O 1020.05 5.6762 0.562418 0
M  V30 10763 O 1018.99 5.86154 -1.36774 0
M  V30 10764 H 1022.81 2.56463 -1.62667 0
M  V30 10765 H 1020.4 1.22521 -0.854932 0
M  V30 10766 H 1022.28 4.20959 0.19277 0
M  V30 10767 H 1020.95 3.14971 0.746662 0
M  V30 10768 H 1019.86 3.40163 -1.55693 0
M  V30 10769 H 1021.19 4.48365 -2.03051 0
M  V30 10770 N 1022.85 0.866709 1.31628 0
M  V30 10771 C 1023.76 0.323408 2.3236 0
M  V30 10772 C 1024.77 -0.564995 1.64572 0
M  V30 10773 O 1025.95 -0.462489 1.96018 0
M  V30 10774 C 1023.01 -0.469045 3.43513 0
M  V30 10775 C 1022.07 0.446928 4.26967 0
M  V30 10776 C 1021.31 -0.307799 5.32812 0
M  V30 10777 O 1021.53 -1.5363 5.49321 0
M  V30 10778 O 1020.46 0.332653 6.0098 0
M  V30 10779 H 1024.29 1.15827 2.80745 0
M  V30 10780 H 1021.87 0.629987 1.35468 0
M  V30 10781 H 1023.76 -0.918405 4.1127 0
M  V30 10782 H 1022.43 -1.28051 2.97296 0
M  V30 10783 H 1021.34 0.944719 3.61975 0
M  V30 10784 H 1022.67 1.2239 4.76741 0
M  V30 10785 N 1024.32 -1.44642 0.625825 0
M  V30 10786 C 1025.57 -2.01308 0.125682 0
M  V30 10787 C 1025.89 -1.49773 -1.25807 0
M  V30 10788 O 1027.09 -1.98533 -1.85194 0
M  V30 10789 C 1025.55 -3.59479 0.17395 0
M  V30 10790 C 1025.16 -4.20011 1.55868 0
M  V30 10791 C 1026.9 -4.2364 -0.270005 0
M  V30 10792 C 1024.81 -5.7039 1.56235 0
M  V30 10793 H 1023.74 -0.75276 0.0432194 0
M  V30 10794 H 1026.39 -1.65916 0.783842 0
M  V30 10795 H 1024.77 -3.92145 -0.551212 0
M  V30 10796 H 1025.94 -3.98891 2.307 0
M  V30 10797 H 1024.26 -3.68116 1.94627 0
M  V30 10798 H 1026.86 -5.33931 -0.28672 0
M  V30 10799 H 1027.2 -3.95603 -1.29629 0
M  V30 10800 H 1027.73 -3.95759 0.402487 0
M  V30 10801 H 1024.47 -6.03154 2.56683 0
M  V30 10802 H 1023.99 -5.93648 0.856881 0
M  V30 10803 H 1025.67 -6.33929 1.29396 0
M  V30 10804 N 1025.8 -0.366053 -1.5329 0
M  V30 10805 C 1026.76 0.467904 -2.24373 0
M  V30 10806 C 1027.76 1.00934 -1.25176 0
M  V30 10807 O 1028.95 0.895015 -1.49449 0
M  V30 10808 C 1026.09 1.65405 -2.98084 0
M  V30 10809 H 1027.28 -0.154105 -2.99504 0
M  V30 10810 H 1024.83 -0.117751 -1.55856 0
M  V30 10811 H 1025.57 2.31413 -2.27197 0
M  V30 10812 H 1025.35 1.27277 -3.70868 0
M  V30 10813 H 1026.84 2.24503 -3.52119 0
M  V30 10814 N 1027.28 1.57312 -0.0952337 0
M  V30 10815 C 1028.21 2.17056 0.860753 0
M  V30 10816 C 1029.19 1.10394 1.29411 0
M  V30 10817 O 1030.38 1.38532 1.36098 0
M  V30 10818 C 1027.51 2.751 2.11984 0
M  V30 10819 C 1026.46 3.87136 1.8251 0
M  V30 10820 C 1025.79 4.31883 3.15247 0
M  V30 10821 C 1027.09 5.10326 1.11194 0
M  V30 10822 H 1028.78 2.97192 0.362983 0
M  V30 10823 H 1026.33 1.42955 0.173151 0
M  V30 10824 H 1028.28 3.15547 2.79299 0
M  V30 10825 H 1027 1.92219 2.64044 0
M  V30 10826 H 1025.66 3.47229 1.17592 0
M  V30 10827 H 1025.31 3.45893 3.65195 0
M  V30 10828 H 1025.01 5.0742 2.96309 0
M  V30 10829 H 1026.53 4.74964 3.83721 0
M  V30 10830 H 1027.95 5.47942 1.6862 0
M  V30 10831 H 1026.34 5.91293 1.02435 0
M  V30 10832 H 1027.41 4.84807 0.0947227 0
M  V30 10833 N 1028.76 -0.17846 1.56586 0
M  V30 10834 C 1029.71 -1.22552 1.92263 0
M  V30 10835 C 1030.69 -1.40163 0.790131 0
M  V30 10836 O 1031.88 -1.42254 1.05322 0
M  V30 10837 C 1029.01 -2.5666 2.27993 0
M  V30 10838 C 1028.1 -2.42772 3.47739 0
M  V30 10839 N 1028.49 -1.98588 4.65185 0
M  V30 10840 C 1026.79 -2.73619 3.52205 0
M  V30 10841 C 1027.49 -1.96991 5.47329 0
M  V30 10842 N 1026.46 -2.39126 4.8818 0
M  V30 10843 H 1030.27 -0.875493 2.80557 0
M  V30 10844 H 1027.78 -0.386785 1.57727 0
M  V30 10845 H 1029.78 -3.32312 2.51743 0
M  V30 10846 H 1028.44 -2.92472 1.41034 0
M  V30 10847 H 1029.45 -1.69036 4.89538 0
M  V30 10848 H 1026.13 -3.13516 2.75706 0
M  V30 10849 H 1027.52 -1.64589 6.51429 0
M  V30 10850 N 1030.24 -1.51135 -0.446768 0
M  V30 10851 C 1031.65 -1.39101 -0.782504 0
M  V30 10852 C 1031.85 -0.46599 -1.96038 0
M  V30 10853 O 1030.91 0.0823679 -2.52366 0
M  V30 10854 C 1032.22 -2.80953 -1.07173 0
M  V30 10855 C 1033.77 -2.90038 -1.17673 0
M  V30 10856 C 1034.24 -4.32777 -1.49894 0
M  V30 10857 N 1035.73 -4.3584 -1.56837 0
M  V30 10858 C 1036.47 -5.43305 -1.83322 0
M  V30 10859 N 1035.97 -6.60945 -2.07662 0
M  V30 10860 N 1037.76 -5.30775 -1.85026 0
M  V30 10861 H 1029.91 -2.09835 0.329114 0
M  V30 10862 H 1032.17 -0.944199 0.0848054 0
M  V30 10863 H 1031.88 -3.50591 -0.279037 0
M  V30 10864 H 1031.75 -3.197 -2.00179 0
M  V30 10865 H 1034.14 -2.20603 -1.96005 0
M  V30 10866 H 1034.22 -2.54801 -0.225892 0
M  V30 10867 H 1033.86 -5.02757 -0.720924 0
M  V30 10868 H 1033.79 -4.6552 -2.46168 0
M  V30 10869 H 1036.29 -3.51023 -1.39968 0
M  V30 10870 H 1036.6 -7.38643 -2.27214 0
M  V30 10871 H 1034.94 -6.64077 -2.05003 0
M  V30 10872 H 1038.13 -4.37858 -1.65523 0
M  V30 10873 H 1038.31 -6.14609 -2.05329 0
M  V30 10874 N 1031.71 0.701592 -1.41122 0
M  V30 10875 C 1033.13 1.01143 -1.23459 0
M  V30 10876 C 1033.33 2.01144 -0.11968 0
M  V30 10877 O 1032.39 2.47132 0.517889 0
M  V30 10878 C 1033.7 1.54179 -2.58165 0
M  V30 10879 C 1035.25 1.66093 -2.65296 0
M  V30 10880 C 1035.72 2.22532 -4.00304 0
M  V30 10881 N 1037.21 2.299 -4.0212 0
M  V30 10882 C 1037.95 2.74584 -5.0338 0
M  V30 10883 N 1037.44 3.18917 -6.15032 0
M  V30 10884 N 1039.24 2.74094 -4.90743 0
M  V30 10885 H 1031.39 0.0390087 -2.12364 0
M  V30 10886 H 1033.65 0.0798848 -0.944628 0
M  V30 10887 H 1033.36 0.881587 -3.40472 0
M  V30 10888 H 1033.23 2.52488 -2.80231 0
M  V30 10889 H 1035.62 2.31227 -1.83352 0
M  V30 10890 H 1035.7 0.663461 -2.47046 0
M  V30 10891 H 1035.34 1.58016 -4.82694 0
M  V30 10892 H 1035.27 3.2302 -4.15891 0
M  V30 10893 H 1037.76 1.98607 -3.21502 0
M  V30 10894 H 1038.08 3.5162 -6.88174 0
M  V30 10895 H 1036.42 3.1684 -6.18577 0
M  V30 10896 H 1039.61 2.38804 -4.02604 0
M  V30 10897 H 1039.79 3.086 -5.69798 0
M  V30 10898 N 1033.19 1.2685 0.935242 0
M  V30 10899 C 1034.12 1.1143 2.05196 0
M  V30 10900 C 1035.1 0.0178362 1.70091 0
M  V30 10901 O 1036.29 0.190951 1.93259 0
M  V30 10902 C 1033.42 0.752779 3.39044 0
M  V30 10903 C 1032.37 1.80164 3.88233 0
M  V30 10904 C 1031.7 1.29428 5.18799 0
M  V30 10905 C 1033 3.20431 4.12457 0
M  V30 10906 H 1034.69 2.04845 2.18355 0
M  V30 10907 H 1032.24 0.986276 1.04922 0
M  V30 10908 H 1034.19 0.631757 4.16637 0
M  V30 10909 H 1032.91 -0.217075 3.25878 0
M  V30 10910 H 1031.57 1.91144 3.12825 0
M  V30 10911 H 1031.22 0.3141 5.02018 0
M  V30 10912 H 1030.92 1.99546 5.5268 0
M  V30 10913 H 1032.45 1.18605 5.9897 0
M  V30 10914 H 1033.86 3.12495 4.80645 0
M  V30 10915 H 1032.26 3.88193 4.57631 0
M  V30 10916 H 1033.33 3.66046 3.18023 0
M  V30 10917 N 1034.67 -1.14067 1.0875 0
M  V30 10918 C 1036.09 -1.37173 0.815823 0
M  V30 10919 C 1036.29 -1.93175 -0.573215 0
M  V30 10920 O 1035.34 -2.14672 -1.32937 0
M  V30 10921 C 1036.66 -2.32955 1.90138 0
M  V30 10922 C 1038.2 -2.46586 1.9278 0
M  V30 10923 C 1038.68 -3.4567 3.0046 0
M  V30 10924 N 1040.17 -3.53216 2.99655 0
M  V30 10925 C 1040.9 -4.29743 3.79616 0
M  V30 10926 N 1040.4 -5.09484 4.69466 0
M  V30 10927 N 1042.19 -4.24975 3.67903 0
M  V30 10928 H 1034.34 -0.760648 1.98313 0
M  V30 10929 H 1036.61 -0.397135 0.860807 0
M  V30 10930 H 1036.31 -1.98949 2.90021 0
M  V30 10931 H 1036.19 -3.32897 1.77368 0
M  V30 10932 H 1038.57 -2.79882 0.935404 0
M  V30 10933 H 1038.66 -1.46593 2.09629 0
M  V30 10934 H 1038.3 -3.13106 3.99909 0
M  V30 10935 H 1038.23 -4.45452 2.80856 0
M  V30 10936 H 1040.72 -2.96314 2.34535 0
M  V30 10937 H 1041.03 -5.65163 5.27077 0
M  V30 10938 H 1039.38 -5.08741 4.73506 0
M  V30 10939 H 1042.57 -3.61751 2.97075 0
M  V30 10940 H 1042.74 -4.84364 4.30459 0
M  V30 10941 N 1036.15 -0.873678 -1.31166 0
M  V30 10942 C 1037.1 -0.303699 -2.25968 0
M  V30 10943 C 1038.08 0.561387 -1.50789 0
M  V30 10944 O 1039.27 0.407658 -1.72242 0
M  V30 10945 C 1036.4 0.490612 -3.39776 0
M  V30 10946 C 1035.49 -0.387927 -4.22322 0
M  V30 10947 N 1035.88 -1.48313 -4.83567 0
M  V30 10948 C 1034.18 -0.18102 -4.45632 0
M  V30 10949 C 1034.88 -2.0252 -5.45308 0
M  V30 10950 N 1033.86 -1.32169 -5.27288 0
M  V30 10951 H 1037.66 -1.14071 -2.7086 0
M  V30 10952 H 1035.17 -0.721843 -1.45476 0
M  V30 10953 H 1037.17 0.9155 -4.06724 0
M  V30 10954 H 1035.83 1.32519 -2.96427 0
M  V30 10955 H 1036.84 -1.86604 -4.83114 0
M  V30 10956 H 1033.52 0.617304 -4.12911 0
M  V30 10957 H 1034.91 -2.94429 -6.03955 0
M  V30 10958 N 1037.63 1.44308 -0.633487 0
M  V30 10959 C 1038.57 2.30694 0.0700257 0
M  V30 10960 C 1039.54 1.43618 0.834447 0
M  V30 10961 O 1040.73 1.72517 0.815014 0
M  V30 10962 C 1037.87 3.28929 1.04403 0
M  V30 10963 C 1036.98 4.31106 0.277779 0
M  V30 10964 C 1036.12 5.16433 1.24381 0
M  V30 10965 C 1035.16 6.10317 0.466855 0
M  V30 10966 N 1034.29 6.88335 1.38347 0
M  V30 10967 H 1039.13 2.90311 -0.672567 0
M  V30 10968 H 1036.67 1.43034 -0.343449 0
M  V30 10969 H 1038.63 3.84373 1.62214 0
M  V30 10970 H 1037.26 2.71006 1.75372 0
M  V30 10971 H 1036.31 3.78115 -0.416292 0
M  V30 10972 H 1037.62 4.97725 -0.327251 0
M  V30 10973 H 1036.78 5.76406 1.89318 0
M  V30 10974 H 1035.51 4.49893 1.88276 0
M  V30 10975 H 1034.52 5.49451 -0.195989 0
M  V30 10976 H 1035.74 6.78894 -0.167414 0
M  V30 10977 H 1033.69 6.24461 2.00959 0
M  V30 10978 H 1033.61 7.51402 0.832517 0
M  V30 10979 H 1034.88 7.52829 2.0216 0
M  V30 10980 N 1039.1 0.374177 1.53094 0
M  V30 10981 C 1040.05 -0.48326 2.27524 0
M  V30 10982 C 1041.05 -1.07606 1.30833 0
M  V30 10983 O 1042.25 -1.01827 1.48429 0
M  V30 10984 H 1038.63 -0.174578 0.731455 0
M  V30 10985 H 1040.6 0.166156 2.97937 0
M  V30 10986 C 1039.35 -1.6065 3.08362 0
M  V30 10987 H 1038.67 -1.15966 3.82612 0
M  V30 10988 H 1040.11 -2.18099 3.63606 0
M  V30 10989 C 1038.57 -2.55381 2.19732 0
M  V30 10990 O 1039.1 -3.58414 1.8139 0
M  V30 10991 N 1037.31 -2.24769 1.84194 0
M  V30 10992 H 1036.85 -1.41018 2.15573 0
M  V30 10993 H 1036.81 -2.88404 1.25181 0
M  V30 10994 N 1040.58 -1.57259 0.103575 0
M  V30 10995 C 1041.83 -1.93832 -0.55786 0
M  V30 10996 C 1042.14 -0.988087 -1.68808 0
M  V30 10997 O 1043.35 -1.24786 -2.41124 0
M  V30 10998 C 1041.81 -3.44433 -1.04373 0
M  V30 10999 C 1041.41 -4.47963 0.0571971 0
M  V30 11000 C 1043.16 -3.89953 -1.67742 0
M  V30 11001 C 1041.07 -5.89727 -0.444505 0
M  V30 11002 H 1040 -0.723536 -0.212161 0
M  V30 11003 H 1042.65 -1.82606 0.180944 0
M  V30 11004 H 1041.03 -3.50841 -1.83648 0
M  V30 11005 H 1042.2 -4.53209 0.83298 0
M  V30 11006 H 1040.52 -4.12104 0.596588 0
M  V30 11007 H 1043.11 -4.93272 -2.06365 0
M  V30 11008 H 1043.46 -3.2907 -2.54988 0
M  V30 11009 H 1043.99 -3.86281 -0.950342 0
M  V30 11010 H 1040.73 -6.5433 0.391543 0
M  V30 11011 H 1040.25 -5.87935 -1.18711 0
M  V30 11012 H 1041.93 -6.40558 -0.910739 0
M  V30 11013 N 1042.06 0.170153 -1.56679 0
M  V30 11014 C 1043.31 0.887906 -1.8233 0
M  V30 11015 C 1043.64 1.81845 -0.681608 0
M  V30 11016 O 1042.91 1.9191 0.316362 0
M  V30 11017 C 1043.2 1.68256 -3.18374 0
M  V30 11018 C 1043.05 0.775059 -4.43072 0
M  V30 11019 C 1044.37 2.65001 -3.51372 0
M  V30 11020 H 1041.49 0.32135 -0.663252 0
M  V30 11021 H 1044.13 0.154065 -1.89374 0
M  V30 11022 H 1042.28 2.30817 -3.12499 0
M  V30 11023 H 1043.95 0.162234 -4.61015 0
M  V30 11024 H 1042.2 0.0831809 -4.3372 0
M  V30 11025 H 1042.87 1.36661 -5.34816 0
M  V30 11026 H 1045.34 2.12566 -3.57708 0
M  V30 11027 H 1044.22 3.17667 -4.47637 0
M  V30 11028 H 1044.48 3.45255 -2.76136 0
M  V30 11029 N 1043.54 1.5137 0.438746 0
M  V30 11030 C 1044.95 1.39514 0.775116 0
M  V30 11031 C 1045.15 0.47638 1.95788 0
M  V30 11032 O 1044.21 -0.0689832 2.52406 0
M  V30 11033 C 1045.52 2.81517 1.05681 0
M  V30 11034 C 1047.07 2.90658 1.16133 0
M  V30 11035 C 1047.55 4.33566 1.47597 0
M  V30 11036 N 1049.04 4.36665 1.54524 0
M  V30 11037 C 1049.77 5.4427 1.80438 0
M  V30 11038 N 1049.27 6.62037 2.04154 0
M  V30 11039 N 1051.06 5.31749 1.82208 0
M  V30 11040 H 1043.21 2.09657 -0.340237 0
M  V30 11041 H 1045.48 0.943736 -0.0898115 0
M  V30 11042 H 1045.18 3.50734 0.260441 0
M  V30 11043 H 1045.06 3.20757 1.98481 0
M  V30 11044 H 1047.44 2.2164 1.94833 0
M  V30 11045 H 1047.52 2.54917 0.212376 0
M  V30 11046 H 1047.17 5.03133 0.694251 0
M  V30 11047 H 1047.1 4.66819 2.43696 0
M  V30 11048 H 1049.59 3.51761 1.38105 0
M  V30 11049 H 1049.9 7.39838 2.23293 0
M  V30 11050 H 1048.25 6.65155 2.01479 0
M  V30 11051 H 1051.44 4.3873 1.63198 0
M  V30 11052 H 1051.61 6.15689 2.02067 0
M  V30 11053 N 1045.02 -0.694098 1.41492 0
M  V30 11054 C 1046.25 -1.48071 1.44078 0
M  V30 11055 C 1046.65 -1.89147 0.0448984 0
M  V30 11056 O 1046 -1.57441 -0.946464 0
M  V30 11057 C 1046.06 -2.77324 2.28761 0
M  V30 11058 C 1045.72 -2.58443 3.76904 0
M  V30 11059 C 1046.72 -2.24294 4.69029 0
M  V30 11060 C 1044.41 -2.74037 4.20962 0
M  V30 11061 C 1046.4 -2.0598 6.03201 0
M  V30 11062 C 1044.09 -2.5534 5.55198 0
M  V30 11063 C 1045.08 -2.21362 6.46133 0
M  V30 11064 O 1044.77 -2.02829 7.77892 0
M  V30 11065 H 1044.5 -0.462794 0.492745 0
M  V30 11066 H 1047.06 -0.861968 1.86438 0
M  V30 11067 H 1045.29 -3.4161 1.81217 0
M  V30 11068 H 1046.98 -3.39134 2.23031 0
M  V30 11069 H 1047.74 -2.11859 4.36281 0
M  V30 11070 H 1043.62 -2.99467 3.50486 0
M  V30 11071 H 1047.17 -1.79382 6.74142 0
M  V30 11072 H 1043.06 -2.67366 5.87525 0
M  V30 11073 H 1043.83 -2.17581 7.89051 0
M  V30 11074 N 1046.49 -1.27344 -0.928501 0
M  V30 11075 C 1047.42 -1.12517 -2.04602 0
M  V30 11076 C 1048.41 -0.0268563 -1.70079 0
M  V30 11077 O 1049.59 -0.201197 -1.93155 0
M  V30 11078 C 1046.72 -0.770749 -3.3864 0
M  V30 11079 C 1045.67 -1.8222 -3.87272 0
M  V30 11080 C 1045 -1.32178 -5.18105 0
M  V30 11081 C 1046.3 -3.22614 -4.10752 0
M  V30 11082 H 1047.99 -2.06 -2.17265 0
M  V30 11083 H 1045.54 -0.991827 -1.04397 0
M  V30 11084 H 1047.49 -0.653843 -4.16297 0
M  V30 11085 H 1046.22 0.19979 -3.25988 0
M  V30 11086 H 1044.88 -1.928 -3.11807 0
M  V30 11087 H 1044.52 -0.340719 -5.01845 0
M  V30 11088 H 1044.22 -2.02474 -5.51614 0
M  V30 11089 H 1045.75 -1.2178 -5.98333 0
M  V30 11090 H 1047.16 -3.1504 -4.78981 0
M  V30 11091 H 1045.56 -3.90614 -4.55566 0
M  V30 11092 H 1046.63 -3.67727 -3.16077 0
M  V30 11093 N 1047.97 1.13488 -1.09353 0
M  V30 11094 C 1049.22 1.84383 -0.827488 0
M  V30 11095 C 1049.54 1.83892 0.648745 0
M  V30 11096 O 1048.81 1.29415 1.47066 0
M  V30 11097 H 1047.39 0.682732 -0.303127 0
M  V30 11098 H 1050.05 1.37477 -1.38152 0
M  V30 11099 H 1049.15 2.88919 -1.18035 0
M  V30 11100 N 1049.45 0.880621 1.30701 0
M  V30 11101 C 1050.68 0.510909 2.01009 0
M  V30 11102 C 1051.1 -0.892041 1.65603 0
M  V30 11103 O 1050.46 -1.59045 0.870309 0
M  V30 11104 C 1050.51 0.687759 3.53981 0
M  V30 11105 O 1049.61 -0.268275 4.11526 0
M  V30 11106 H 1048.95 0.201864 0.632572 0
M  V30 11107 H 1051.48 1.18697 1.6665 0
M  V30 11108 H 1051.49 0.585095 4.03783 0
M  V30 11109 H 1050.17 1.71068 3.79089 0
M  V30 11110 H 1048.74 -0.119673 3.72708 0
M  V30 11111 N 1050.93 -1.4397 0.641131 0
M  V30 11112 C 1051.89 -2.29149 -0.0482243 0
M  V30 11113 C 1052.89 -1.41572 -0.762495 0
M  V30 11114 O 1054.08 -1.63335 -0.605571 0
M  V30 11115 C 1051.21 -3.23375 -1.07896 0
M  V30 11116 H 1052.41 -2.9159 0.70109 0
M  V30 11117 H 1049.96 -1.51048 0.401754 0
M  V30 11118 H 1050.7 -2.65804 -1.85792 0
M  V30 11119 H 1050.48 -3.87926 -0.570597 0
M  V30 11120 H 1051.97 -3.87337 -1.56075 0
M  V30 11121 N 1052.41 -0.382291 -1.52893 0
M  V30 11122 C 1053.63 0.204961 -2.06385 0
M  V30 11123 C 1054.06 1.40316 -1.25271 0
M  V30 11124 O 1053.42 1.79187 -0.275969 0
M  V30 11125 C 1053.46 0.560205 -3.56222 0
M  V30 11126 O 1052.57 1.65515 -3.77728 0
M  V30 11127 H 1051.91 0.0258798 -0.663495 0
M  V30 11128 H 1054.44 -0.547733 -1.97132 0
M  V30 11129 H 1054.45 0.826501 -3.99541 0
M  V30 11130 H 1053.12 -0.31584 -4.14699 0
M  V30 11131 H 1051.7 1.38311 -3.46301 0
M  V30 11132 N 1053.89 1.57202 -0.111913 0
M  V30 11133 C 1054.82 2.11995 0.871242 0
M  V30 11134 C 1055.83 1.06102 1.23475 0
M  V30 11135 O 1057.02 1.33497 1.18494 0
M  V30 11136 C 1054.12 2.59874 2.17528 0
M  V30 11137 C 1053.29 3.89788 1.98455 0
M  V30 11138 C 1052.35 4.23339 3.12523 0
M  V30 11139 O 1051.38 4.92277 2.85748 0
M  V30 11140 N 1052.58 3.80089 4.38762 0
M  V30 11141 H 1055.34 2.96976 0.403157 0
M  V30 11142 H 1052.91 1.61737 0.0727159 0
M  V30 11143 H 1054.9 2.79354 2.9282 0
M  V30 11144 H 1053.47 1.79812 2.55707 0
M  V30 11145 H 1052.69 3.79288 1.07396 0
M  V30 11146 H 1053.98 4.74748 1.83007 0
M  V30 11147 H 1053.37 3.24473 4.63394 0
M  V30 11148 H 1051.93 4.04691 5.10949 0
M  V30 11149 N 1055.36 -0.161842 1.56767 0
M  V30 11150 C 1056.61 -0.875192 1.82167 0
M  V30 11151 C 1056.93 -1.82367 0.690444 0
M  V30 11152 O 1056.2 -1.93756 -0.289023 0
M  V30 11153 H 1054.78 -0.326178 0.672024 0
M  V30 11154 H 1057.44 -0.159392 1.94247 0
M  V30 11155 H 1056.54 -1.44639 2.76561 0
M  V30 11156 N 1056.84 -1.516 -0.430713 0
M  V30 11157 C 1058.09 -1.64271 -1.17726 0
M  V30 11158 C 1058.41 -0.364406 -1.91565 0
M  V30 11159 O 1057.68 0.619991 -1.8583 0
M  V30 11160 H 1056.26 -0.605432 -0.437562 0
M  V30 11161 H 1058.92 -1.88557 -0.493166 0
M  V30 11162 H 1058.02 -2.47355 -1.90321 0
M  V30 11163 N 1058.32 0.686584 -1.41858 0
M  V30 11164 C 1059.55 1.47305 -1.44862 0
M  V30 11165 C 1059.96 1.8912 -0.0549286 0
M  V30 11166 O 1059.3 1.57941 0.938101 0
M  V30 11167 C 1059.36 2.76107 -2.30229 0
M  V30 11168 C 1059.03 2.5644 -3.78269 0
M  V30 11169 C 1060.02 2.21803 -4.70212 0
M  V30 11170 C 1057.71 2.71801 -4.22409 0
M  V30 11171 C 1059.7 2.02778 -6.04284 0
M  V30 11172 C 1057.39 2.52392 -5.56544 0
M  V30 11173 C 1058.39 2.17933 -6.47298 0
M  V30 11174 O 1058.08 1.98701 -7.78956 0
M  V30 11175 H 1057.81 0.460174 -0.495193 0
M  V30 11176 H 1060.36 0.852069 -1.86893 0
M  V30 11177 H 1058.59 3.40644 -1.83026 0
M  V30 11178 H 1060.28 3.37947 -2.24826 0
M  V30 11179 H 1061.05 2.09542 -4.37398 0
M  V30 11180 H 1056.93 2.97605 -3.52069 0
M  V30 11181 H 1060.47 1.75805 -6.75084 0
M  V30 11182 H 1056.37 2.64246 -5.88935 0
M  V30 11183 H 1057.13 2.13393 -7.90193 0
M  V30 11184 N 1059.8 1.27835 0.921735 0
M  V30 11185 C 1060.73 1.136 2.04003 0
M  V30 11186 C 1061.71 0.0358756 1.70062 0
M  V30 11187 O 1062.89 0.211438 1.93046 0
M  V30 11188 C 1060.02 0.788697 3.38226 0
M  V30 11189 C 1058.98 1.84272 3.863 0
M  V30 11190 C 1058.3 1.34923 5.17397 0
M  V30 11191 C 1059.6 3.24788 4.09035 0
M  V30 11192 H 1061.3 2.07149 2.1617 0
M  V30 11193 H 1058.84 0.997349 1.0387 0
M  V30 11194 H 1060.8 0.675911 4.15944 0
M  V30 11195 H 1059.52 -0.182499 3.2609 0
M  V30 11196 H 1058.18 1.94451 3.1078 0
M  V30 11197 H 1057.83 0.367328 5.01657 0
M  V30 11198 H 1057.53 2.05397 5.50532 0
M  V30 11199 H 1059.05 1.24951 5.97678 0
M  V30 11200 H 1060.47 3.17575 4.77304 0
M  V30 11201 H 1058.86 3.93025 4.53488 0
M  V30 11202 H 1059.93 3.69398 3.14122 0
M  V30 11203 N 1061.28 -1.12907 1.09954 0
M  V30 11204 C 1062.22 -2.18485 0.743848 0
M  V30 11205 C 1063.19 -1.63766 -0.277494 0
M  V30 11206 O 1064.38 -1.90146 -0.157899 0
M  V30 11207 C 1061.52 -3.44649 0.176437 0
M  V30 11208 C 1060.63 -4.13445 1.25248 0
M  V30 11209 C 1059.77 -5.27242 0.647242 0
M  V30 11210 C 1058.8 -5.87897 1.70421 0
M  V30 11211 N 1057.94 -6.93116 1.1196 0
M  V30 11212 H 1062.78 -2.48257 1.64841 0
M  V30 11213 H 1060.32 -1.21891 0.823471 0
M  V30 11214 H 1062.28 -4.16852 -0.170384 0
M  V30 11215 H 1060.91 -3.15309 -0.69137 0
M  V30 11216 H 1059.96 -3.39471 1.7165 0
M  V30 11217 H 1061.27 -4.54601 2.05279 0
M  V30 11218 H 1060.42 -6.06186 0.249579 0
M  V30 11219 H 1059.16 -4.87351 -0.184556 0
M  V30 11220 H 1058.17 -5.07643 2.11136 0
M  V30 11221 H 1059.39 -6.2986 2.53877 0
M  V30 11222 H 1057.34 -6.55271 0.309181 0
M  V30 11223 H 1057.26 -7.32843 1.85681 0
M  V30 11224 H 1058.52 -7.759 0.748326 0
M  V30 11225 N 1062.75 -0.88754 -1.30232 0
M  V30 11226 C 1064 -0.503322 -1.95319 0
M  V30 11227 C 1064.32 0.952817 -1.70824 0
M  V30 11228 O 1065.52 1.444 -2.29915 0
M  V30 11229 C 1063.98 -0.849216 -3.49738 0
M  V30 11230 C 1063.59 -2.3233 -3.83049 0
M  V30 11231 C 1065.33 -0.53432 -4.21124 0
M  V30 11232 C 1063.24 -2.61069 -5.30657 0
M  V30 11233 H 1062.17 -0.1845 -0.731078 0
M  V30 11234 H 1064.82 -1.08287 -1.48143 0
M  V30 11235 H 1063.2 -0.198729 -3.95501 0
M  V30 11236 H 1064.37 -3.01832 -3.48187 0
M  V30 11237 H 1062.69 -2.60599 -3.24773 0
M  V30 11238 H 1065.29 -0.726039 -5.29748 0
M  V30 11239 H 1065.63 0.526434 -4.12958 0
M  V30 11240 H 1066.16 -1.14211 -3.81052 0
M  V30 11241 H 1062.9 -3.65895 -5.43876 0
M  V30 11242 H 1062.42 -1.96179 -5.6681 0
M  V30 11243 H 1064.1 -2.46703 -5.98119 0
M  V30 11244 N 1064.23 1.43628 -0.648757 0
M  V30 11245 C 1065.48 2.01864 -0.160336 0
M  V30 11246 C 1065.81 1.51148 1.22412 0
M  V30 11247 O 1065.06 0.693168 1.83013 0
M  V30 11248 C 1065.36 3.57214 -0.115282 0
M  V30 11249 C 1065.03 4.27258 -1.44088 0
M  V30 11250 C 1063.69 4.46109 -1.8039 0
M  V30 11251 C 1066.04 4.66962 -2.31508 0
M  V30 11252 C 1063.37 5.01928 -3.03785 0
M  V30 11253 C 1065.72 5.24148 -3.54191 0
M  V30 11254 C 1064.39 5.41216 -3.90694 0
M  V30 11255 H 1063.66 0.738674 -0.0586712 0
M  V30 11256 H 1066.3 1.72163 -0.838578 0
M  V30 11257 H 1064.61 3.86431 0.646395 0
M  V30 11258 H 1066.3 4.00025 0.279425 0
M  V30 11259 H 1062.89 4.12928 -1.14842 0
M  V30 11260 H 1067.08 4.52095 -2.04753 0
M  V30 11261 H 1062.33 5.13328 -3.32122 0
M  V30 11262 H 1066.51 5.53861 -4.22151 0
M  V30 11263 H 1064.14 5.84234 -4.8639 0
M  V30 11264 N 1065.71 0.390394 1.52688 0
M  V30 11265 C 1066.64 -0.48838 2.22913 0
M  V30 11266 C 1067.62 -1.06319 1.23025 0
M  V30 11267 O 1068.81 -1.11462 1.52015 0
M  V30 11268 C 1065.93 -1.67612 2.9432 0
M  V30 11269 C 1064.98 -1.22646 4.08485 0
M  V30 11270 S 1065.81 -0.207092 5.35099 0
M  V30 11271 C 1066.97 -1.40058 6.10028 0
M  V30 11272 H 1067.2 0.107949 2.97104 0
M  V30 11273 H 1064.73 0.174588 1.5341 0
M  V30 11274 H 1066.69 -2.35728 3.36069 0
M  V30 11275 H 1065.35 -2.24375 2.19806 0
M  V30 11276 H 1064.55 -2.11331 4.57554 0
M  V30 11277 H 1064.15 -0.624197 3.68754 0
M  V30 11278 H 1066.44 -2.32747 6.36266 0
M  V30 11279 H 1067.38 -0.950804 7.01687 0
M  V30 11280 H 1067.79 -1.61789 5.40818 0
M  V30 11281 N 1067.19 -1.57141 0.120249 0
M  V30 11282 C 1068.1 -2.18925 -0.843155 0
M  V30 11283 C 1069.11 -1.16575 -1.29175 0
M  V30 11284 O 1070.29 -1.4905 -1.35448 0
M  V30 11285 C 1067.36 -2.7775 -2.075 0
M  V30 11286 C 1066.42 -3.95139 -1.6782 0
M  V30 11287 C 1065.65 -4.51149 -2.85132 0
M  V30 11288 O 1065.87 -4.06056 -4.00593 0
M  V30 11289 O 1064.81 -5.41815 -2.62145 0
M  V30 11290 H 1068.63 -3.01707 -0.347357 0
M  V30 11291 H 1066.22 -1.49028 -0.105427 0
M  V30 11292 H 1068.1 -3.15243 -2.79643 0
M  V30 11293 H 1066.77 -1.97998 -2.56083 0
M  V30 11294 H 1065.68 -3.62412 -0.927807 0
M  V30 11295 H 1067.01 -4.7633 -1.23977 0
M  V30 11296 N 1068.67 0.153526 -1.5685 0
M  V30 11297 C 1069.58 1.20932 -2.01029 0
M  V30 11298 C 1070.59 1.47401 -0.924598 0
M  V30 11299 O 1071.77 1.592 -1.23359 0
M  V30 11300 C 1068.83 2.52438 -2.37647 0
M  V30 11301 C 1067.89 2.33673 -3.60132 0
M  V30 11302 C 1067.13 3.58909 -3.94994 0
M  V30 11303 O 1067.35 4.64823 -3.30599 0
M  V30 11304 O 1066.28 3.5196 -4.8827 0
M  V30 11305 H 1070.11 0.864273 -2.91143 0
M  V30 11306 H 1067.7 0.361755 -1.44954 0
M  V30 11307 H 1069.58 3.29981 -2.62088 0
M  V30 11308 H 1068.25 2.86486 -1.5069 0
M  V30 11309 H 1067.16 1.54102 -3.40886 0
M  V30 11310 H 1068.49 2.04544 -4.47686 0
M  V30 11311 N 1070.14 1.51827 0.422667 0
M  V30 11312 C 1071.39 1.65464 1.17258 0
M  V30 11313 C 1071.72 0.376834 1.90509 0
M  V30 11314 O 1071 -0.624219 1.84211 0
M  V30 11315 C 1071.28 2.86776 2.17788 0
M  V30 11316 C 1071.13 4.24571 1.48523 0
M  V30 11317 C 1072.45 3.03603 3.18611 0
M  V30 11318 H 1069.57 0.602169 0.424925 0
M  V30 11319 H 1072.21 1.84349 0.45996 0
M  V30 11320 H 1070.36 2.70806 2.78561 0
M  V30 11321 H 1072.04 4.5224 0.909739 0
M  V30 11322 H 1070.28 4.26595 0.787354 0
M  V30 11323 H 1070.95 5.05475 2.2181 0
M  V30 11324 H 1073.43 3.18381 2.67904 0
M  V30 11325 H 1072.3 3.90022 3.8623 0
M  V30 11326 H 1072.56 2.16318 3.85563 0
M  V30 11327 N 1071.62 -0.679052 1.4222 0
M  V30 11328 C 1073.03 -1.25953 1.37815 0
M  V30 11329 C 1073.38 -1.96077 0.0693215 0
M  V30 11330 O 1072.51 -1.99765 -0.832047 0
M  V30 11331 C 1073.1 -2.29063 2.49631 0
M  V30 11332 C 1071.66 -2.82647 2.48571 0
M  V30 11333 C 1070.81 -1.56909 2.28637 0
M  V30 11334 H 1073.76 -0.472714 1.51496 0
M  V30 11335 H 1073.78 -3.10708 2.19638 0
M  V30 11336 H 1073.29 -1.77996 3.44876 0
M  V30 11337 H 1071.4 -3.37846 1.57132 0
M  V30 11338 H 1071.51 -3.31952 3.45463 0
M  V30 11339 H 1069.87 -1.83323 1.76819 0
M  V30 11340 H 1070.66 -1.07814 3.25931 0
M  V30 11341 N 1073.1 -1.28322 -0.914942 0
M  V30 11342 C 1074.35 -1.15179 -1.66067 0
M  V30 11343 C 1074.67 0.300279 -1.92674 0
M  V30 11344 O 1073.94 1.20821 -1.54205 0
M  V30 11345 H 1072.52 -0.423264 -0.615513 0
M  V30 11346 H 1075.18 -1.61034 -1.09791 0
M  V30 11347 H 1074.28 -1.69048 -2.62353 0
M  V30 11348 N 1074.58 1.12322 -1.10551 0
M  V30 11349 C 1075.83 1.83495 -0.846998 0
M  V30 11350 C 1076.15 1.8457 0.629205 0
M  V30 11351 O 1075.42 1.30968 1.45686 0
M  V30 11352 H 1074 0.679479 -0.310351 0
M  V30 11353 H 1076.66 1.36004 -1.39602 0
M  V30 11354 H 1075.76 2.87651 -1.21092 0
M  V30 11355 N 1076.06 0.894434 1.2976 0
M  V30 11356 C 1077.28 0.5322 2.00455 0
M  V30 11357 C 1077.71 -0.874427 1.66539 0
M  V30 11358 O 1077.06 -1.58113 0.887129 0
M  V30 11359 C 1077.11 0.725264 3.53231 0
M  V30 11360 O 1076.22 -0.224612 4.11788 0
M  V30 11361 H 1075.56 0.208562 0.630395 0
M  V30 11362 H 1078.09 1.20458 1.65382 0
M  V30 11363 H 1078.1 0.627889 4.0314 0
M  V30 11364 H 1076.77 1.75079 3.77253 0
M  V30 11365 H 1075.35 -0.0801361 3.72814 0
M  V30 11366 N 1077.53 -1.43282 0.656365 0
M  V30 11367 C 1078.46 -2.33492 -0.0196962 0
M  V30 11368 C 1079.45 -1.49647 -0.80868 0
M  V30 11369 O 1080.63 -1.78303 -0.769529 0
M  V30 11370 C 1077.76 -3.33052 -0.984574 0
M  V30 11371 C 1076.71 -4.26908 -0.305483 0
M  V30 11372 C 1076.04 -5.16531 -1.38202 0
M  V30 11373 C 1077.34 -5.16073 0.804081 0
M  V30 11374 H 1079.03 -2.90272 0.733661 0
M  V30 11375 H 1076.58 -1.39574 0.354259 0
M  V30 11376 H 1078.53 -3.9506 -1.46647 0
M  V30 11377 H 1077.26 -2.74535 -1.76913 0
M  V30 11378 H 1075.92 -3.66268 0.155995 0
M  V30 11379 H 1075.56 -4.54351 -2.1581 0
M  V30 11380 H 1075.26 -5.80148 -0.932878 0
M  V30 11381 H 1076.79 -5.81414 -1.86522 0
M  V30 11382 H 1078.2 -5.71873 0.404212 0
M  V30 11383 H 1076.6 -5.88427 1.17789 0
M  V30 11384 H 1077.67 -4.55574 1.66073 0
M  V30 11385 N 1079.01 -0.398486 -1.52479 0
M  V30 11386 C 1080.24 0.183059 -2.06591 0
M  V30 11387 C 1080.66 1.3898 -1.26753 0
M  V30 11388 O 1080.02 1.78885 -0.294959 0
M  V30 11389 C 1080.07 0.522392 -3.56796 0
M  V30 11390 O 1079.17 1.61499 -3.79462 0
M  V30 11391 H 1078.51 0.0188411 -0.663733 0
M  V30 11392 H 1081.04 -0.56861 -1.9654 0
M  V30 11393 H 1081.05 0.784078 -4.00395 0
M  V30 11394 H 1079.73 -0.359807 -4.14341 0
M  V30 11395 H 1078.31 1.3463 -3.47749 0
M  V30 11396 N 1080.49 1.57075 -0.12858 0
M  V30 11397 C 1081.72 2.00305 0.537839 0
M  V30 11398 C 1082.14 1.00787 1.58819 0
M  V30 11399 O 1081.5 -0.0190839 1.8129 0
M  V30 11400 C 1081.55 3.42371 1.13201 0
M  V30 11401 O 1080.65 3.45786 2.24735 0
M  V30 11402 H 1079.99 0.650456 0.133428 0
M  V30 11403 H 1082.52 2.03415 -0.219882 0
M  V30 11404 H 1082.53 3.80783 1.4652 0
M  V30 11405 H 1081.21 4.14315 0.362713 0
M  V30 11406 H 1079.78 3.19201 1.92783 0
M  V30 11407 N 1081.97 -0.145205 1.5693 0
M  V30 11408 C 1082.9 -1.18096 2.01434 0
M  V30 11409 C 1083.88 -1.447 0.894204 0
M  V30 11410 O 1085.07 -1.55589 1.16214 0
M  V30 11411 C 1082.2 -2.51369 2.39647 0
M  V30 11412 C 1081.15 -2.39283 3.54863 0
M  V30 11413 C 1080.48 -3.77283 3.78895 0
M  V30 11414 C 1081.78 -1.8754 4.87469 0
M  V30 11415 H 1083.47 -0.810897 2.8821 0
M  V30 11416 H 1081.02 -0.388624 1.38657 0
M  V30 11417 H 1082.97 -3.24054 2.69382 0
M  V30 11418 H 1081.69 -2.90214 1.49811 0
M  V30 11419 H 1080.35 -1.6905 3.25296 0
M  V30 11420 H 1080 -4.13567 2.86307 0
M  V30 11421 H 1079.7 -3.70057 4.56433 0
M  V30 11422 H 1081.22 -4.51514 4.11057 0
M  V30 11423 H 1082.64 -2.50019 5.1591 0
M  V30 11424 H 1081.03 -1.912 5.68826 0
M  V30 11425 H 1082.1 -0.831194 4.77723 0
M  V30 11426 N 1083.45 -1.52049 -0.414609 0
M  V30 11427 C 1084.38 -1.77956 -1.51175 0
M  V30 11428 C 1085.36 -0.630282 -1.57992 0
M  V30 11429 O 1086.54 -0.875324 -1.73354 0
M  V30 11430 C 1083.67 -1.92527 -2.89051 0
M  V30 11431 C 1082.63 -3.08096 -2.97087 0
M  V30 11432 C 1081.95 -3.07882 -4.37164 0
M  V30 11433 C 1083.25 -4.47656 -2.69075 0
M  V30 11434 H 1084.95 -2.69827 -1.29746 0
M  V30 11435 H 1082.49 -1.29839 -0.62273 0
M  V30 11436 H 1084.45 -2.09234 -3.65786 0
M  V30 11437 H 1083.17 -0.973235 -3.11762 0
M  V30 11438 H 1081.83 -2.91131 -2.22797 0
M  V30 11439 H 1081.48 -2.10411 -4.56877 0
M  V30 11440 H 1081.18 -3.85501 -4.43467 0
M  V30 11441 H 1082.7 -3.26712 -5.15841 0
M  V30 11442 H 1084.12 -4.64855 -3.35534 0
M  V30 11443 H 1082.51 -5.27151 -2.8676 0
M  V30 11444 H 1083.58 -4.56129 -1.64544 0
M  V30 11445 N 1084.93 0.6715 -1.42579 0
M  V30 11446 C 1086.34 0.985019 -1.25577 0
M  V30 11447 C 1086.54 2.00845 -0.162319 0
M  V30 11448 O 1085.6 2.48175 0.465352 0
M  V30 11449 C 1086.91 1.48668 -2.61377 0
M  V30 11450 C 1088.46 1.60429 -2.68759 0
M  V30 11451 C 1088.93 2.13991 -4.04935 0
M  V30 11452 N 1090.42 2.21319 -4.06906 0
M  V30 11453 C 1091.16 2.63845 -5.09091 0
M  V30 11454 N 1090.66 3.05799 -6.21658 0
M  V30 11455 N 1092.45 2.63623 -4.96447 0
M  V30 11456 H 1084.6 -0.00604561 -2.12399 0
M  V30 11457 H 1086.86 0.0598299 -0.94611 0
M  V30 11458 H 1086.57 0.80917 -3.42265 0
M  V30 11459 H 1086.44 2.46487 -2.85524 0
M  V30 11460 H 1088.83 2.27286 -1.88216 0
M  V30 11461 H 1088.91 0.610909 -2.48398 0
M  V30 11462 H 1088.55 1.47741 -4.85937 0
M  V30 11463 H 1088.48 3.14126 -4.2265 0
M  V30 11464 H 1090.98 1.91743 -3.25643 0
M  V30 11465 H 1091.29 3.36944 -6.95477 0
M  V30 11466 H 1089.63 3.03648 -6.25158 0
M  V30 11467 H 1092.82 2.30211 -4.07579 0
M  V30 11468 H 1093 2.96444 -5.76216 0
M  V30 11469 N 1086.4 1.28806 0.908124 0
M  V30 11470 C 1087.63 1.19271 1.69674 0
M  V30 11471 C 1088.05 -0.244403 1.86505 0
M  V30 11472 O 1087.41 -1.17668 1.37927 0
M  V30 11473 C 1087.46 1.9023 3.06341 0
M  V30 11474 O 1086.56 1.2136 3.94139 0
M  V30 11475 H 1085.9 0.413738 0.519343 0
M  V30 11476 H 1088.43 1.70227 1.13508 0
M  V30 11477 H 1088.44 1.98356 3.56537 0
M  V30 11478 H 1087.12 2.94762 2.93408 0
M  V30 11479 H 1085.7 1.21435 3.52573 0
M  V30 11480 N 1087.88 -1.11734 1.11145 0
M  V30 11481 C 1089.13 -1.83677 0.859684 0
M  V30 11482 C 1089.46 -1.84265 -0.613182 0
M  V30 11483 O 1088.74 -1.29351 -1.45254 0
M  V30 11484 C 1089.02 -3.31003 1.41805 0
M  V30 11485 C 1088.87 -3.38827 2.95831 0
M  V30 11486 C 1090.19 -4.26984 1.06645 0
M  V30 11487 H 1087.31 -0.666879 0.313754 0
M  V30 11488 H 1089.95 -1.31038 1.37583 0
M  V30 11489 H 1088.1 -3.75961 0.979054 0
M  V30 11490 H 1089.77 -3.02451 3.48312 0
M  V30 11491 H 1088.02 -2.79143 3.32056 0
M  V30 11492 H 1088.69 -4.42508 3.29986 0
M  V30 11493 H 1091.16 -3.9019 1.44537 0
M  V30 11494 H 1090.04 -5.2846 1.48394 0
M  V30 11495 H 1090.3 -4.42094 -0.0231866 0
M  V30 11496 N 1089.36 -0.901303 -1.29284 0
M  V30 11497 C 1090.61 -0.538241 -1.96149 0
M  V30 11498 C 1090.96 0.905804 -1.69744 0
M  V30 11499 O 1090.25 1.63383 -1.00083 0
M  V30 11500 C 1090.45 -0.768828 -3.49033 0
M  V30 11501 C 1090.28 -2.23373 -3.903 0
M  V30 11502 C 1089.05 -2.88148 -4.15089 0
M  V30 11503 C 1091.24 -3.20907 -4.01899 0
M  V30 11504 N 1089.23 -4.25065 -4.42937 0
M  V30 11505 C 1090.6 -4.42948 -4.33817 0
M  V30 11506 C 1092.65 -3.16475 -3.8438 0
M  V30 11507 C 1091.36 -5.6112 -4.50041 0
M  V30 11508 C 1093.38 -4.33934 -4.01815 0
M  V30 11509 C 1092.74 -5.54745 -4.34093 0
M  V30 11510 H 1088.84 -0.246593 -0.742102 0
M  V30 11511 H 1091.43 -1.16245 -1.5619 0
M  V30 11512 H 1089.6 -0.17399 -3.8801 0
M  V30 11513 H 1091.33 -0.37104 -4.02996 0
M  V30 11514 H 1088.08 -2.38935 -4.0891 0
M  V30 11515 H 1088.51 -4.95822 -4.60966 0
M  V30 11516 H 1093.15 -2.2416 -3.58486 0
M  V30 11517 H 1090.87 -6.53925 -4.74771 0
M  V30 11518 H 1094.45 -4.31993 -3.89709 0
M  V30 11519 H 1093.33 -6.4412 -4.47302 0
M  V30 11520 N 1090.84 1.42931 -0.663954 0
M  V30 11521 C 1092.09 2.01284 -0.181379 0
M  V30 11522 C 1092.41 1.52708 1.21265 0
M  V30 11523 O 1091.68 0.744181 1.81215 0
M  V30 11524 H 1090.26 0.744248 -0.0640646 0
M  V30 11525 H 1092.92 1.74997 -0.858031 0
M  V30 11526 H 1092.01 3.11613 -0.174273 0
M  V30 11527 N 1092.32 0.406567 1.52266 0
M  V30 11528 C 1093.73 -0.063607 1.86592 0
M  V30 11529 C 1094.08 -1.4466 1.32544 0
M  V30 11530 O 1093.2 -2.05971 0.663692 0
M  V30 11531 C 1093.8 -0.122198 3.3858 0
M  V30 11532 C 1092.36 -0.536701 3.72554 0
M  V30 11533 C 1091.5 0.290422 2.75775 0
M  V30 11534 H 1094.45 0.623738 1.45929 0
M  V30 11535 H 1094.48 -0.937964 3.68758 0
M  V30 11536 H 1093.99 0.884495 3.77887 0
M  V30 11537 H 1092.09 -1.55013 3.38824 0
M  V30 11538 H 1092.2 -0.282867 4.78264 0
M  V30 11539 H 1090.57 -0.246864 2.53501 0
M  V30 11540 H 1091.35 1.29541 3.17921 0
M  V30 11541 N 1093.79 -1.57004 0.136909 0
M  V30 11542 C 1094.72 -2.19262 -0.802902 0
M  V30 11543 C 1095.71 -1.13786 -1.26439 0
M  V30 11544 O 1096.89 -1.42091 -1.32377 0
M  V30 11545 C 1094.02 -2.80624 -2.04615 0
M  V30 11546 C 1092.97 -3.91839 -1.72181 0
M  V30 11547 C 1092.3 -4.4009 -3.03686 0
M  V30 11548 C 1093.6 -5.13095 -0.976249 0
M  V30 11549 H 1095.29 -2.98049 -0.28406 0
M  V30 11550 H 1092.84 -1.43364 -0.135189 0
M  V30 11551 H 1094.79 -3.22842 -2.70834 0
M  V30 11552 H 1093.52 -1.99153 -2.58855 0
M  V30 11553 H 1092.18 -3.50224 -1.08344 0
M  V30 11554 H 1091.82 -3.55454 -3.55896 0
M  V30 11555 H 1091.52 -5.15098 -2.82751 0
M  V30 11556 H 1093.05 -4.84971 -3.70993 0
M  V30 11557 H 1094.46 -5.5222 -1.54033 0
M  V30 11558 H 1092.86 -5.93801 -0.867214 0
M  V30 11559 H 1093.93 -4.84888 0.0338488 0
M  V30 11560 N 1095.27 0.136881 -1.57004 0
M  V30 11561 C 1096.22 1.16869 -1.99023 0
M  V30 11562 C 1097.19 1.42137 -0.859435 0
M  V30 11563 O 1098.37 1.54303 -1.12229 0
M  V30 11564 C 1095.51 2.49466 -2.38455 0
M  V30 11565 C 1094.63 2.31286 -3.64871 0
M  V30 11566 C 1093.76 3.56989 -3.9336 0
M  V30 11567 C 1092.8 3.33889 -5.13015 0
M  V30 11568 N 1091.94 4.51748 -5.37464 0
M  V30 11569 H 1096.78 0.803366 -2.86967 0
M  V30 11570 H 1094.32 0.385216 -1.41967 0
M  V30 11571 H 1096.27 3.26794 -2.59348 0
M  V30 11572 H 1094.9 2.83926 -1.53577 0
M  V30 11573 H 1093.96 1.44962 -3.51696 0
M  V30 11574 H 1095.27 2.10183 -4.52355 0
M  V30 11575 H 1094.42 4.42742 -4.14806 0
M  V30 11576 H 1093.16 3.81106 -3.04318 0
M  V30 11577 H 1092.17 2.46525 -4.91432 0
M  V30 11578 H 1093.39 3.1116 -6.03619 0
M  V30 11579 H 1091.34 4.76019 -4.51377 0
M  V30 11580 H 1091.25 4.33684 -6.19237 0
M  V30 11581 H 1092.52 5.38686 -5.63416 0
M  V30 11582 N 1096.75 1.52266 0.40654 0
M  V30 11583 C 1098.03 1.57018 1.1664 0
M  V30 11584 C 1098.41 0.352752 2.08132 0
M  V30 11585 O 1097.76 -0.660208 2.18754 0
M  V30 11586 C 1097.97 2.90016 1.94143 0
M  V30 11587 C 1099.31 3.43112 2.50119 0
M  V30 11588 O 1100.34 2.91773 2.0432 0
M  V30 11589 O 1099.2 4.32765 3.33731 0
M  V30 11590 H 1096.29 0.632574 0.532709 0
M  V30 11591 H 1098.84 1.64595 0.413111 0
M  V30 11592 H 1097.61 3.70071 1.27134 0
M  V30 11593 H 1097.23 2.85744 2.76471 0
M  V30 11594 N 1098.23 -0.663929 1.42933 0
M  V30 11595 C 1099.18 -1.79843 1.4751 0
M  V30 11596 C 1100.17 -1.65751 0.349727 0
M  V30 11597 O 1101.38 -1.72227 0.523239 0
M  V30 11598 H 1097.75 -0.593176 0.462219 0
M  V30 11599 H 1099.72 -1.73102 2.4306 0
M  V30 11600 C 1098.47 -3.18053 1.4049 0
M  V30 11601 H 1097.79 -3.29529 2.26386 0
M  V30 11602 H 1099.23 -3.97423 1.47754 0
M  V30 11603 C 1097.69 -3.36682 0.121076 0
M  V30 11604 O 1098.22 -3.93202 -0.821874 0
M  V30 11605 N 1096.43 -2.90579 0.0347141 0
M  V30 11606 H 1095.98 -2.44769 0.802852 0
M  V30 11607 H 1095.93 -3.03421 -0.823607 0
M  V30 11608 N 1099.71 -1.29285 -0.901281 0
M  V30 11609 C 1100.62 -1.16161 -2.03823 0
M  V30 11610 C 1101.63 -0.0852298 -1.73791 0
M  V30 11611 O 1102.81 -0.29699 -1.99198 0
M  V30 11612 C 1099.87 -0.837586 -3.3643 0
M  V30 11613 C 1098.93 -1.99764 -3.7999 0
M  V30 11614 C 1098.17 -1.68898 -5.0627 0
M  V30 11615 O 1098.39 -0.609177 -5.67138 0
M  V30 11616 O 1097.32 -2.53648 -5.45845 0
M  V30 11617 H 1101.15 -2.11635 -2.17817 0
M  V30 11618 H 1098.74 -1.08722 -1.02468 0
M  V30 11619 H 1100.62 -0.671376 -4.16017 0
M  V30 11620 H 1099.29 0.0873811 -3.23582 0
M  V30 11621 H 1098.2 -2.21908 -3.01177 0
M  V30 11622 H 1099.53 -2.90376 -3.9742 0
M  V30 11623 N 1101.18 1.11143 -1.11736 0
M  V30 11624 C 1102.41 1.87285 -0.891007 0
M  V30 11625 C 1102.83 1.79758 0.553971 0
M  V30 11626 O 1102.19 1.16221 1.39149 0
M  V30 11627 C 1102.24 3.33924 -1.36114 0
M  V30 11628 O 1101.34 4.08917 -0.534851 0
M  V30 11629 H 1100.69 0.581418 -0.320701 0
M  V30 11630 H 1103.22 1.40469 -1.4876 0
M  V30 11631 H 1103.23 3.84772 -1.35701 0
M  V30 11632 H 1101.9 3.38719 -2.41334 0
M  V30 11633 H 1100.48 3.67954 -0.605355 0
M  V30 11634 N 1102.66 0.908147 1.28804 0
M  V30 11635 C 1103.89 0.55409 1.99343 0
M  V30 11636 C 1104.31 -0.863262 1.67908 0
M  V30 11637 O 1103.66 -1.571 0.92875 0
M  V30 11638 C 1103.71 0.746916 3.537 0
M  V30 11639 O 1103.43 2.10849 3.84024 0
M  V30 11640 C 1104.94 0.398939 4.41501 0
M  V30 11641 H 1102.16 0.211784 0.636701 0
M  V30 11642 H 1104.7 1.21981 1.64137 0
M  V30 11643 H 1102.85 0.128264 3.87188 0
M  V30 11644 H 1103.27 2.14404 4.78676 0
M  V30 11645 H 1104.74 0.584656 5.48895 0
M  V30 11646 H 1105.22 -0.664517 4.34144 0
M  V30 11647 H 1105.83 0.994892 4.135 0
M  V30 11648 N 1104.14 -1.42577 0.671525 0
M  V30 11649 C 1105.39 -2.00806 0.189663 0
M  V30 11650 C 1105.7 -1.537 -1.20978 0
M  V30 11651 O 1106.91 -2.04325 -1.78784 0
M  V30 11652 C 1105.36 -3.58744 0.288227 0
M  V30 11653 C 1104.97 -4.14839 1.69152 0
M  V30 11654 C 1106.72 -4.24285 -0.13509 0
M  V30 11655 C 1104.62 -5.65131 1.74302 0
M  V30 11656 H 1103.55 -0.751004 0.067146 0
M  V30 11657 H 1106.2 -1.63338 0.83623 0
M  V30 11658 H 1104.59 -3.937 -0.426175 0
M  V30 11659 H 1105.76 -3.91349 2.43274 0
M  V30 11660 H 1104.08 -3.61738 2.0624 0
M  V30 11661 H 1106.67 -5.34573 -0.116709 0
M  V30 11662 H 1107.02 -3.99527 -1.16977 0
M  V30 11663 H 1107.55 -3.94278 0.528191 0
M  V30 11664 H 1104.29 -5.94682 2.75742 0
M  V30 11665 H 1103.81 -5.90621 1.04531 0
M  V30 11666 H 1105.49 -6.29491 1.49498 0
M  V30 11667 N 1105.62 -0.414636 -1.52048 0
M  V30 11668 C 1106.84 0.161137 -2.06773 0
M  V30 11669 C 1107.27 1.37628 -1.2822 0
M  V30 11670 O 1106.63 1.78562 -0.313915 0
M  V30 11671 C 1106.67 0.48452 -3.5733 0
M  V30 11672 O 1105.78 1.57466 -3.81154 0
M  V30 11673 H 1105.12 0.0118003 -0.663895 0
M  V30 11674 H 1107.65 -0.589424 -1.95926 0
M  V30 11675 H 1107.66 0.741567 -4.01204 0
M  V30 11676 H 1106.33 -0.403733 -4.13936 0
M  V30 11677 H 1104.91 1.30935 -3.49157 0
M  V30 11678 N 1107.1 1.56929 -0.145233 0
M  V30 11679 C 1108.34 1.96068 0.50632 0
M  V30 11680 C 1108.67 1.02999 1.64989 0
M  V30 11681 O 1107.93 0.0588581 1.95611 0
M  V30 11682 C 1108.23 3.41467 1.05522 0
M  V30 11683 C 1107.89 4.5089 0.0302827 0
M  V30 11684 C 1106.55 4.80542 -0.251475 0
M  V30 11685 C 1108.91 5.16917 -0.666783 0
M  V30 11686 C 1106.23 5.7353 -1.23614 0
M  V30 11687 C 1108.59 6.10965 -1.64025 0
M  V30 11688 C 1107.25 6.38998 -1.92973 0
M  V30 11689 H 1106.52 0.717464 0.185276 0
M  V30 11690 H 1109.17 1.90093 -0.23169 0
M  V30 11691 H 1107.47 3.44265 1.87053 0
M  V30 11692 H 1109.17 3.69077 1.5679 0
M  V30 11693 H 1105.76 4.2781 0.260069 0
M  V30 11694 H 1109.94 4.94142 -0.462297 0
M  V30 11695 H 1105.2 5.93543 -1.46687 0
M  V30 11696 H 1109.37 6.61204 -2.18591 0
M  V30 11697 H 1107 7.10855 -2.69423 0
M  V30 11698 N 1108.58 -0.128553 1.57075 0
M  V30 11699 C 1109.81 -0.851214 1.8825 0
M  V30 11700 C 1110.21 -1.74402 0.733531 0
M  V30 11701 O 1109.56 -1.81149 -0.305108 0
M  V30 11702 C 1109.62 -1.74451 3.14336 0
M  V30 11703 C 1109.28 -1.02699 4.45311 0
M  V30 11704 C 1110.28 -0.37224 5.18566 0
M  V30 11705 C 1107.96 -1.01101 4.9202 0
M  V30 11706 C 1109.96 0.2889 6.36745 0
M  V30 11707 C 1107.65 -0.346063 6.10119 0
M  V30 11708 C 1108.64 0.302744 6.82329 0
M  V30 11709 O 1108.33 0.9571 7.98182 0
M  V30 11710 H 1108.06 -0.250529 0.627863 0
M  V30 11711 H 1110.62 -0.120418 2.05047 0
M  V30 11712 H 1108.85 -2.51671 2.93596 0
M  V30 11713 H 1110.54 -2.34075 3.31608 0
M  V30 11714 H 1111.3 -0.376271 4.83538 0
M  V30 11715 H 1107.18 -1.50543 4.35727 0
M  V30 11716 H 1110.73 0.795901 6.93045 0
M  V30 11717 H 1106.62 -0.339762 6.44605 0
M  V30 11718 H 1107.39 0.860616 8.13963 0
M  V30 11719 N 1110.05 -1.5248 -0.398459 0
M  V30 11720 C 1111.28 -1.70925 -1.16586 0
M  V30 11721 C 1111.7 -0.42342 -1.83991 0
M  V30 11722 O 1111.05 0.601395 -1.72306 0
M  V30 11723 C 1111.1 -2.85226 -2.22099 0
M  V30 11724 O 1110.83 -4.08831 -1.57444 0
M  V30 11725 C 1112.33 -3.15272 -3.11639 0
M  V30 11726 H 1109.55 -0.572533 -0.349924 0
M  V30 11727 H 1112.09 -1.99087 -0.467416 0
M  V30 11728 H 1110.25 -2.59553 -2.87595 0
M  V30 11729 H 1110.66 -4.72603 -2.2748 0
M  V30 11730 H 1112.13 -3.98737 -3.81724 0
M  V30 11731 H 1112.61 -2.29262 -3.74614 0
M  V30 11732 H 1113.22 -3.42749 -2.518 0
M  V30 11733 N 1111.53 0.65634 -1.43283 0
M  V30 11734 C 1112.95 0.971645 -1.26614 0
M  V30 11735 C 1113.15 2.00662 -0.183612 0
M  V30 11736 O 1112.2 2.48654 0.439003 0
M  V30 11737 C 1113.52 1.45888 -2.6294 0
M  V30 11738 C 1115.06 1.57569 -2.70446 0
M  V30 11739 C 1115.54 2.09684 -4.07181 0
M  V30 11740 N 1117.03 2.16991 -4.0923 0
M  V30 11741 C 1117.77 2.5843 -5.11861 0
M  V30 11742 N 1117.26 2.99188 -6.24867 0
M  V30 11743 N 1119.05 2.58342 -4.99215 0
M  V30 11744 H 1111.21 -0.028573 -2.12381 0
M  V30 11745 H 1113.47 0.0497918 -0.946691 0
M  V30 11746 H 1113.17 0.772823 -3.43104 0
M  V30 11747 H 1113.05 2.43445 -2.88122 0
M  V30 11748 H 1115.44 2.25277 -1.90616 0
M  V30 11749 H 1115.52 0.584529 -2.49032 0
M  V30 11750 H 1115.16 1.42579 -4.87477 0
M  V30 11751 H 1115.09 3.09625 -4.25958 0
M  V30 11752 H 1117.58 1.88278 -3.27658 0
M  V30 11753 H 1117.89 3.29549 -6.99012 0
M  V30 11754 H 1116.24 2.97 -6.28344 0
M  V30 11755 H 1119.43 2.25875 -4.09998 0
M  V30 11756 H 1119.6 2.90316 -5.79328 0
M  V30 11757 N 1113.01 1.29761 0.894412 0
M  V30 11758 C 1113.94 1.1115 2.00445 0
M  V30 11759 C 1114.95 0.0574655 1.62699 0
M  V30 11760 O 1116.14 0.302528 1.75918 0
M  V30 11761 C 1113.24 0.670984 3.32191 0
M  V30 11762 C 1112.42 1.80471 3.98433 0
M  V30 11763 C 1111.48 1.35431 5.08473 0
M  V30 11764 O 1110.5 2.05994 5.30618 0
M  V30 11765 N 1111.7 0.22811 5.80052 0
M  V30 11766 H 1114.47 2.06753 2.16964 0
M  V30 11767 H 1112.03 1.21772 1.06692 0
M  V30 11768 H 1114.02 0.352877 4.03159 0
M  V30 11769 H 1112.59 -0.192735 3.12005 0
M  V30 11770 H 1111.81 2.29142 3.20761 0
M  V30 11771 H 1113.1 2.56471 4.39431 0
M  V30 11772 H 1112.5 -0.360076 5.64553 0
M  V30 11773 H 1111.05 -0.0305985 6.51793 0
M  V30 11774 N 1114.49 -1.10549 1.12324 0
M  V30 11775 C 1115.74 -1.81851 0.872531 0
M  V30 11776 C 1116.05 -1.86058 -0.603468 0
M  V30 11777 O 1117.26 -2.53553 -0.970736 0
M  V30 11778 C 1115.71 -3.26631 1.51131 0
M  V30 11779 C 1115.32 -3.30725 3.02201 0
M  V30 11780 C 1117.06 -4.02768 1.34082 0
M  V30 11781 C 1114.97 -4.69957 3.59018 0
M  V30 11782 H 1113.9 -0.681422 0.322769 0
M  V30 11783 H 1116.55 -1.24332 1.34959 0
M  V30 11784 H 1114.93 -3.8414 0.961913 0
M  V30 11785 H 1116.11 -2.83046 3.63623 0
M  V30 11786 H 1114.42 -2.68072 3.18632 0
M  V30 11787 H 1117.02 -5.05612 1.73955 0
M  V30 11788 H 1117.36 -4.15328 0.284369 0
M  V30 11789 H 1117.9 -3.51671 1.85937 0
M  V30 11790 H 1114.63 -4.62597 4.64418 0
M  V30 11791 H 1114.15 -5.18008 3.02371 0
M  V30 11792 H 1115.83 -5.38925 3.58007 0
M  V30 11793 N 1115.97 -0.914965 -1.28321 0
M  V30 11794 C 1116.9 -0.421292 -2.29668 0
M  V30 11795 C 1117.88 0.511743 -1.6222 0
M  V30 11796 O 1119.06 0.419218 -1.89621 0
M  V30 11797 C 1116.19 0.338364 -3.45648 0
M  V30 11798 C 1115.15 -0.505646 -4.25003 0
M  V30 11799 C 1114.47 0.382421 -5.33331 0
M  V30 11800 C 1115.77 -1.76354 -4.91626 0
M  V30 11801 H 1117.47 -1.26826 -2.71211 0
M  V30 11802 H 1115.01 -0.611291 -1.30381 0
M  V30 11803 H 1116.96 0.694578 -4.15636 0
M  V30 11804 H 1115.69 1.21925 -3.02988 0
M  V30 11805 H 1114.35 -0.844395 -3.56743 0
M  V30 11806 H 1114 1.26189 -4.86914 0
M  V30 11807 H 1113.7 -0.17871 -5.87328 0
M  V30 11808 H 1115.22 0.73449 -6.06166 0
M  V30 11809 H 1116.63 -1.47616 -5.5397 0
M  V30 11810 H 1115.03 -2.26717 -5.55625 0
M  V30 11811 H 1116.1 -2.49063 -4.16048 0
M  V30 11812 N 1117.44 1.42219 -0.679077 0
M  V30 11813 C 1118.38 2.29172 0.035583 0
M  V30 11814 C 1119.39 1.43909 0.761183 0
M  V30 11815 O 1120.58 1.67584 0.61463 0
M  V30 11816 C 1117.68 3.21426 1.07419 0
M  V30 11817 C 1116.85 4.35364 0.421547 0
M  V30 11818 C 1115.91 5.08307 1.36051 0
M  V30 11819 O 1114.94 5.62678 0.859186 0
M  V30 11820 N 1116.14 5.14222 2.69362 0
M  V30 11821 H 1118.9 2.91147 -0.710865 0
M  V30 11822 H 1116.46 1.53192 -0.523821 0
M  V30 11823 H 1118.46 3.67091 1.70371 0
M  V30 11824 H 1117.03 2.60873 1.72233 0
M  V30 11825 H 1116.25 3.9229 -0.387559 0
M  V30 11826 H 1117.53 5.08789 -0.0329421 0
M  V30 11827 H 1116.93 4.71467 3.12627 0
M  V30 11828 H 1115.49 5.63519 3.27551 0
M  V30 11829 N 1118.92 0.422693 1.51826 0
M  V30 11830 C 1120.17 -0.148348 2.01555 0
M  V30 11831 C 1120.49 -1.44483 1.30956 0
M  V30 11832 O 1119.76 -1.90904 0.439599 0
M  V30 11833 H 1118.34 -0.0578116 0.74476 0
M  V30 11834 H 1121 0.562046 1.8662 0
M  V30 11835 H 1120.1 -0.334766 3.10299 0
M  V30 11836 N 1120.4 -1.5685 0.153553 0
M  V30 11837 C 1121.33 -2.20101 -0.779601 0
M  V30 11838 C 1122.31 -1.15121 -1.25225 0
M  V30 11839 O 1123.5 -1.43487 -1.30862 0
M  V30 11840 C 1120.63 -2.82778 -2.01628 0
M  V30 11841 C 1119.58 -3.93643 -1.68015 0
M  V30 11842 C 1118.91 -4.43286 -2.99001 0
M  V30 11843 C 1120.21 -5.14102 -0.921774 0
M  V30 11844 H 1121.9 -2.98334 -0.252432 0
M  V30 11845 H 1119.45 -1.43499 -0.119975 0
M  V30 11846 H 1121.4 -3.25696 -2.67395 0
M  V30 11847 H 1120.12 -2.01887 -2.56728 0
M  V30 11848 H 1118.78 -3.51354 -1.04624 0
M  V30 11849 H 1118.43 -3.59208 -3.52106 0
M  V30 11850 H 1118.13 -5.18068 -2.77272 0
M  V30 11851 H 1119.65 -4.88878 -3.65828 0
M  V30 11852 H 1121.07 -5.53823 -1.48167 0
M  V30 11853 H 1119.46 -5.94687 -0.804185 0
M  V30 11854 H 1120.53 -4.84825 0.0852757 0
M  V30 11855 N 1121.88 0.120221 -1.57141 0
M  V30 11856 C 1123.13 0.826586 -1.84423 0
M  V30 11857 C 1123.45 1.80473 -0.738553 0
M  V30 11858 O 1122.72 1.94454 0.23755 0
M  V30 11859 H 1121.3 0.308246 -0.680436 0
M  V30 11860 H 1123.96 0.107835 -1.94601 0
M  V30 11861 H 1123.05 1.37256 -2.80298 0
M  V30 11862 N 1123.36 1.52689 0.390367 0
M  V30 11863 C 1124.59 1.71292 1.1551 0
M  V30 11864 C 1124.99 0.430405 1.84239 0
M  V30 11865 O 1124.34 -0.604823 1.73458 0
M  V30 11866 C 1124.4 2.80597 2.24735 0
M  V30 11867 C 1124.06 4.21757 1.75984 0
M  V30 11868 C 1125.06 5.04961 1.23733 0
M  V30 11869 C 1122.75 4.68071 1.82248 0
M  V30 11870 C 1124.74 6.32561 0.783926 0
M  V30 11871 C 1122.43 5.95656 1.36519 0
M  V30 11872 C 1123.42 6.7773 0.846786 0
M  V30 11873 O 1123.11 8.02923 0.396164 0
M  V30 11874 H 1122.84 0.576906 0.352356 0
M  V30 11875 H 1125.4 2.00117 0.462865 0
M  V30 11876 H 1123.63 2.4719 2.97378 0
M  V30 11877 H 1125.32 2.87616 2.86412 0
M  V30 11878 H 1126.08 4.70363 1.18251 0
M  V30 11879 H 1121.96 4.04278 2.21541 0
M  V30 11880 H 1125.51 6.96572 0.378612 0
M  V30 11881 H 1121.4 6.29758 1.41686 0
M  V30 11882 H 1122.17 8.16861 0.517766 0
M  V30 11883 N 1124.83 -0.648732 1.43629 0
M  V30 11884 C 1125.76 -1.77298 1.51947 0
M  V30 11885 C 1126.75 -1.65942 0.373785 0
M  V30 11886 O 1127.93 -1.8497 0.591596 0
M  V30 11887 C 1125.06 -3.15749 1.44638 0
M  V30 11888 C 1124.01 -3.41872 2.57502 0
M  V30 11889 C 1123.34 -4.8017 2.35246 0
M  V30 11890 C 1124.64 -3.36173 3.99731 0
M  V30 11891 H 1126.33 -1.70594 2.46045 0
M  V30 11892 H 1123.88 -0.819306 1.1842 0
M  V30 11893 H 1125.83 -3.94156 1.4906 0
M  V30 11894 H 1124.56 -3.23194 0.470466 0
M  V30 11895 H 1123.22 -2.65838 2.5244 0
M  V30 11896 H 1122.86 -4.84297 1.35887 0
M  V30 11897 H 1122.56 -4.9861 3.10906 0
M  V30 11898 H 1124.09 -5.6083 2.41459 0
M  V30 11899 H 1125.5 -4.0451 4.06257 0
M  V30 11900 H 1123.9 -3.66148 4.75453 0
M  V30 11901 H 1124.97 -2.34277 4.24549 0
M  V30 11902 N 1126.31 -1.30234 -0.887518 0
M  V30 11903 C 1127.26 -1.13013 -1.9802 0
M  V30 11904 C 1128.25 -0.0460253 -1.60834 0
M  V30 11905 O 1129.44 -0.26907 -1.74943 0
M  V30 11906 C 1126.57 -0.821397 -3.33329 0
M  V30 11907 C 1125.65 -1.94564 -3.76837 0
M  V30 11908 N 1126.04 -3.19068 -3.92465 0
M  V30 11909 C 1124.34 -1.84142 -4.06211 0
M  V30 11910 C 1125.04 -3.92495 -4.29328 0
M  V30 11911 N 1124.02 -3.20526 -4.39049 0
M  V30 11912 H 1127.82 -2.07446 -2.0819 0
M  V30 11913 H 1125.34 -1.21536 -1.07716 0
M  V30 11914 H 1127.33 -0.679046 -4.11333 0
M  V30 11915 H 1125.99 0.114891 -3.24497 0
M  V30 11916 H 1127 -3.54386 -3.77665 0
M  V30 11917 H 1123.68 -0.97865 -4.05868 0
M  V30 11918 H 1125.07 -4.99701 -4.49164 0
M  V30 11919 N 1127.79 1.09952 -1.12909 0
M  V30 11920 C 1129.07 1.78547 -0.798767 0
M  V30 11921 C 1129.45 1.9878 0.710624 0
M  V30 11922 O 1128.8 1.58485 1.64604 0
M  V30 11923 C 1129.01 3.1121 -1.57953 0
M  V30 11924 C 1130.35 3.86006 -1.76874 0
M  V30 11925 O 1131.38 3.20946 -1.54506 0
M  V30 11926 O 1130.24 5.02791 -2.14158 0
M  V30 11927 H 1127.33 0.774084 -0.291072 0
M  V30 11928 H 1129.88 1.16557 -1.2334 0
M  V30 11929 H 1128.65 2.91935 -2.60557 0
M  V30 11930 H 1128.27 3.80922 -1.13948 0
M  V30 11931 N 1129.27 0.921757 1.27833 0
M  V30 11932 C 1130.22 0.406628 2.29018 0
M  V30 11933 C 1131.21 -0.505914 1.61669 0
M  V30 11934 O 1132.42 -0.386273 1.75807 0
M  V30 11935 H 1128.79 0.112914 0.743475 0
M  V30 11936 H 1130.76 1.27295 2.69886 0
M  V30 11937 C 1129.51 -0.330783 3.46123 0
M  V30 11938 H 1128.83 0.362207 3.98156 0
M  V30 11939 H 1130.27 -0.655738 4.18899 0
M  V30 11940 C 1128.73 -1.54161 2.9956 0
M  V30 11941 O 1129.26 -2.64052 3.0272 0
M  V30 11942 N 1127.47 -1.39137 2.55126 0
M  V30 11943 H 1127.02 -0.497319 2.52754 0
M  V30 11944 H 1126.97 -2.20278 2.24333 0
M  V30 11945 N 1130.75 -1.41857 0.686609 0
M  V30 11946 C 1131.7 -2.27999 -0.00734666 0
M  V30 11947 C 1132.68 -1.41723 -0.761808 0
M  V30 11948 O 1133.87 -1.65072 -0.638776 0
M  V30 11949 C 1131 -3.29909 -0.949462 0
M  V30 11950 C 1130.09 -4.23666 -0.191722 0
M  V30 11951 N 1130.48 -4.99277 0.809715 0
M  V30 11952 C 1128.78 -4.43937 -0.428489 0
M  V30 11953 C 1129.48 -5.67834 1.2625 0
M  V30 11954 N 1128.45 -5.40387 0.590151 0
M  V30 11955 H 1132.26 -2.83887 0.760608 0
M  V30 11956 H 1129.77 -1.53962 0.516676 0
M  V30 11957 H 1131.77 -3.90436 -1.46169 0
M  V30 11958 H 1130.43 -2.75582 -1.71711 0
M  V30 11959 H 1131.44 -5.04051 1.18966 0
M  V30 11960 H 1128.11 -4.00633 -1.17472 0
M  V30 11961 H 1129.5 -6.38469 2.09301 0
M  V30 11962 N 1132.22 -0.430739 -1.51599 0
M  V30 11963 C 1133.47 0.139396 -2.01218 0
M  V30 11964 C 1133.79 1.44361 -1.31982 0
M  V30 11965 O 1134.99 2.0963 -1.72533 0
M  V30 11966 C 1133.45 0.298969 -3.58656 0
M  V30 11967 C 1133.06 -0.994424 -4.36824 0
M  V30 11968 C 1134.8 0.82323 -4.16441 0
M  V30 11969 C 1132.71 -0.800855 -5.85952 0
M  V30 11970 H 1131.64 0.0558698 -0.751927 0
M  V30 11971 H 1134.29 -0.559493 -1.74762 0
M  V30 11972 H 1132.67 1.06071 -3.8153 0
M  V30 11973 H 1133.84 -1.76398 -4.257 0
M  V30 11974 H 1132.16 -1.44672 -3.9046 0
M  V30 11975 H 1134.76 0.984434 -5.2556 0
M  V30 11976 H 1135.1 1.80388 -3.75188 0
M  V30 11977 H 1135.63 0.119982 -3.97619 0
M  V30 11978 H 1132.37 -1.75369 -6.31606 0
M  V30 11979 H 1131.89 -0.0709793 -5.99758 0
M  V30 11980 H 1133.57 -0.451459 -6.45423 0
M  V30 11981 N 1133.7 1.56767 -0.161869 0
M  V30 11982 C 1134.95 1.96885 0.486215 0
M  V30 11983 C 1135.28 1.04745 1.6353 0
M  V30 11984 O 1134.56 0.0927156 1.94279 0
M  V30 11985 C 1134.84 3.46559 0.97822 0
M  V30 11986 C 1134.69 4.49477 -0.17039 0
M  V30 11987 C 1136.01 3.99093 1.85506 0
M  V30 11988 H 1133.13 0.715857 0.175265 0
M  V30 11989 H 1135.77 1.88399 -0.246098 0
M  V30 11990 H 1133.92 3.53921 1.60225 0
M  V30 11991 H 1135.59 4.54183 -0.807205 0
M  V30 11992 H 1133.84 4.25838 -0.827322 0
M  V30 11993 H 1134.51 5.51578 0.21583 0
M  V30 11994 H 1136.98 3.94303 1.32908 0
M  V30 11995 H 1135.86 5.04255 2.16837 0
M  V30 11996 H 1136.12 3.4234 2.79742 0
M  V30 11997 N 1135.18 -0.111886 1.57202 0
M  V30 11998 C 1136.13 -1.14287 1.97288 0
M  V30 11999 C 1137.11 -1.36686 0.848868 0
M  V30 12000 O 1138.31 -1.37659 1.11261 0
M  V30 12001 C 1135.44 -2.46759 2.38673 0
M  V30 12002 C 1134.52 -2.27805 3.57723 0
M  V30 12003 N 1134.91 -1.78679 4.73189 0
M  V30 12004 C 1133.21 -2.58435 3.63494 0
M  V30 12005 C 1133.91 -1.736 5.55192 0
M  V30 12006 N 1132.89 -2.18205 4.97883 0
M  V30 12007 H 1136.69 -0.755711 2.84018 0
M  V30 12008 H 1134.2 -0.31954 1.59225 0
M  V30 12009 H 1136.2 -3.21335 2.65611 0
M  V30 12010 H 1134.86 -2.86227 1.53311 0
M  V30 12011 H 1135.87 -1.48121 4.96267 0
M  V30 12012 H 1132.55 -3.0154 2.88755 0
M  V30 12013 H 1133.94 -1.36812 6.57824 0
M  V30 12014 N 1136.66 -1.52894 -0.382264 0
M  V30 12015 C 1138.07 -1.42295 -0.722802 0
M  V30 12016 C 1138.27 -0.548717 -1.93885 0
M  V30 12017 O 1137.33 -0.0247431 -2.52488 0
M  V30 12018 C 1138.64 -2.85246 -0.9516 0
M  V30 12019 C 1140.19 -2.94768 -1.05265 0
M  V30 12020 C 1140.67 -4.38745 -1.31404 0
M  V30 12021 N 1142.16 -4.421 -1.38211 0
M  V30 12022 C 1142.89 -5.50592 -1.60113 0
M  V30 12023 N 1142.39 -6.69158 -1.79442 0
M  V30 12024 N 1144.18 -5.38145 -1.62347 0
M  V30 12025 H 1136.33 -2.0825 0.417816 0
M  V30 12026 H 1138.6 -0.939753 0.124776 0
M  V30 12027 H 1138.3 -3.51459 -0.130088 0
M  V30 12028 H 1138.18 -3.27903 -1.86439 0
M  V30 12029 H 1140.56 -2.28718 -1.86472 0
M  V30 12030 H 1140.64 -2.55529 -0.117619 0
M  V30 12031 H 1140.29 -5.05363 -0.507038 0
M  V30 12032 H 1140.22 -4.75542 -2.26202 0
M  V30 12033 H 1142.71 -3.56644 -1.24954 0
M  V30 12034 H 1143.02 -7.47615 -1.95681 0
M  V30 12035 H 1141.37 -6.72175 -1.76653 0
M  V30 12036 H 1144.56 -4.44485 -1.46803 0
M  V30 12037 H 1144.73 -6.22764 -1.79077 0
M  V30 12038 N 1138.14 0.641106 -1.43971 0
M  V30 12039 C 1139.41 1.39897 -1.36704 0
M  V30 12040 C 1139.79 2.1109 -0.0208051 0
M  V30 12041 O 1139.14 2.05638 0.99625 0
M  V30 12042 C 1139.35 2.37366 -2.55849 0
M  V30 12043 C 1140.7 3.01 -2.99473 0
M  V30 12044 O 1141.72 2.47692 -2.55982 0
M  V30 12045 O 1140.58 3.9768 -3.74851 0
M  V30 12046 H 1137.68 0.625623 -0.540855 0
M  V30 12047 H 1140.22 0.666997 -1.56042 0
M  V30 12048 H 1139 1.8379 -3.45452 0
M  V30 12049 H 1138.62 3.17995 -2.38673 0
M  V30 12050 N 1139.62 1.30703 0.880598 0
M  V30 12051 C 1140.86 1.19142 1.62752 0
M  V30 12052 C 1141.18 -0.251795 1.93973 0
M  V30 12053 O 1142.38 -0.488971 2.67061 0
M  V30 12054 C 1140.84 2.08503 2.93351 0
M  V30 12055 C 1140.45 3.57758 2.69653 0
M  V30 12056 C 1142.19 2.05715 3.71324 0
M  V30 12057 C 1140.1 4.39161 3.96096 0
M  V30 12058 H 1139.03 0.442332 0.610622 0
M  V30 12059 H 1141.68 1.55483 0.974547 0
M  V30 12060 H 1140.06 1.65049 3.59965 0
M  V30 12061 H 1141.24 4.09388 2.11513 0
M  V30 12062 H 1139.55 3.62414 2.0505 0
M  V30 12063 H 1142.15 2.63783 4.65105 0
M  V30 12064 H 1142.49 1.04168 4.03057 0
M  V30 12065 H 1143.02 2.47313 3.11579 0
M  V30 12066 H 1139.76 5.4142 3.69519 0
M  V30 12067 H 1139.28 3.92293 4.53725 0
M  V30 12068 H 1140.96 4.50823 4.64077 0
M  V30 12069 N 1141.09 -1.09351 1.1349 0
M  V30 12070 C 1142.04 -2.16008 0.812981 0
M  V30 12071 C 1143.01 -1.64566 -0.225252 0
M  V30 12072 O 1144.2 -1.90552 -0.0973261 0
M  V30 12073 C 1141.34 -3.43913 0.285996 0
M  V30 12074 C 1140.45 -4.09251 1.38338 0
M  V30 12075 C 1139.58 -5.24916 0.814652 0
M  V30 12076 C 1138.62 -5.82178 1.89038 0
M  V30 12077 N 1137.76 -6.89203 1.33955 0
M  V30 12078 H 1142.6 -2.42887 1.72655 0
M  V30 12079 H 1140.14 -1.19209 0.861833 0
M  V30 12080 H 1142.09 -4.17183 -0.0376794 0
M  V30 12081 H 1140.72 -3.17349 -0.590707 0
M  V30 12082 H 1139.78 -3.33838 1.82363 0
M  V30 12083 H 1141.09 -4.4784 2.19638 0
M  V30 12084 H 1140.24 -6.05086 0.442306 0
M  V30 12085 H 1138.98 -4.87691 -0.029416 0
M  V30 12086 H 1137.99 -5.00669 2.27179 0
M  V30 12087 H 1139.21 -6.21464 2.73787 0
M  V30 12088 H 1137.16 -6.53956 0.517494 0
M  V30 12089 H 1137.07 -7.26565 2.08902 0
M  V30 12090 H 1138.34 -7.73126 0.994793 0
M  V30 12091 N 1142.57 -0.928524 -1.27343 0
M  V30 12092 C 1143.82 -0.568267 -1.93946 0
M  V30 12093 C 1144.14 0.893501 -1.73325 0
M  V30 12094 O 1143.41 1.63344 -1.08147 0
M  V30 12095 H 1141.99 -0.207173 -0.717696 0
M  V30 12096 H 1144.65 -1.1811 -1.55036 0
M  V30 12097 H 1143.75 -0.775246 -3.02318 0
M  V30 12098 N 1144.05 1.41491 -0.694123 0
M  V30 12099 C 1145.33 1.95004 -0.152571 0
M  V30 12100 C 1145.71 1.63357 1.33707 0
M  V30 12101 O 1145.05 0.939815 2.08278 0
M  V30 12102 C 1145.26 3.46186 -0.44232 0
M  V30 12103 C 1146.61 4.22991 -0.369279 0
M  V30 12104 O 1147.64 3.54198 -0.377152 0
M  V30 12105 O 1146.5 5.45514 -0.328145 0
M  V30 12106 H 1143.59 0.826879 -0.0141253 0
M  V30 12107 H 1146.14 1.51216 -0.770183 0
M  V30 12108 H 1144.91 3.62497 -1.47348 0
M  V30 12109 H 1144.53 3.97064 0.206337 0
M  V30 12110 N 1145.53 0.438773 1.51369 0
M  V30 12111 C 1146.48 -0.386324 2.29369 0
M  V30 12112 C 1147.47 -1.0196 1.3528 0
M  V30 12113 O 1148.68 -0.9544 1.52615 0
M  V30 12114 H 1145.05 -0.143397 0.738201 0
M  V30 12115 H 1147.02 0.292372 2.96964 0
M  V30 12116 C 1145.77 -1.47426 3.14898 0
M  V30 12117 H 1145.09 -0.996335 3.87186 0
M  V30 12118 H 1146.53 -2.02481 3.72529 0
M  V30 12119 C 1144.99 -2.45831 2.30366 0
M  V30 12120 O 1145.52 -3.50398 1.96428 0
M  V30 12121 N 1143.73 -2.16754 1.93561 0
M  V30 12122 H 1143.28 -1.31748 2.2136 0
M  V30 12123 H 1143.23 -2.82836 1.373 0
M  V30 12124 N 1147.01 -1.56678 0.170181 0
M  V30 12125 C 1148.25 -1.9714 -0.475767 0
M  V30 12126 C 1148.58 -1.05611 -1.62972 0
M  V30 12127 O 1147.86 -0.103017 -1.94227 0
M  V30 12128 C 1148.14 -3.47072 -0.959828 0
M  V30 12129 C 1148 -4.4938 0.194225 0
M  V30 12130 C 1149.31 -4.00071 -1.83387 0
M  V30 12131 H 1146.43 -0.716776 -0.171466 0
M  V30 12132 H 1149.08 -1.88266 0.256086 0
M  V30 12133 H 1147.23 -3.54766 -1.58346 0
M  V30 12134 H 1148.9 -4.53748 0.83128 0
M  V30 12135 H 1147.14 -4.25393 0.849893 0
M  V30 12136 H 1147.81 -5.51685 -0.186575 0
M  V30 12137 H 1150.29 -3.95002 -1.30815 0
M  V30 12138 H 1149.16 -5.05398 -2.14159 0
M  V30 12139 H 1149.42 -3.43819 -2.77923 0
M  V30 12140 N 1148.48 0.103547 -1.57259 0
M  V30 12141 C 1149.41 1.12714 -2.04494 0
M  V30 12142 C 1150.39 1.42278 -0.932255 0
M  V30 12143 O 1151.58 1.52453 -1.20298 0
M  V30 12144 C 1148.71 2.44927 -2.46228 0
M  V30 12145 C 1147.66 2.2979 -3.61082 0
M  V30 12146 C 1146.99 3.67105 -3.88765 0
M  V30 12147 C 1148.29 1.7455 -4.9227 0
M  V30 12148 H 1149.98 0.734198 -2.90258 0
M  V30 12149 H 1147.53 0.351725 -1.39638 0
M  V30 12150 H 1149.48 3.16798 -2.77879 0
M  V30 12151 H 1148.21 2.8614 -1.57453 0
M  V30 12152 H 1146.87 1.60366 -3.29664 0
M  V30 12153 H 1146.51 4.05831 -2.97171 0
M  V30 12154 H 1146.21 3.57825 -4.66084 0
M  V30 12155 H 1147.74 4.40456 -4.22884 0
M  V30 12156 H 1149.15 2.36253 -5.22358 0
M  V30 12157 H 1147.55 1.76051 -5.73695 0
M  V30 12158 H 1148.62 0.704242 -4.79759 0
M  V30 12159 N 1149.96 1.53094 0.37415 0
M  V30 12160 C 1151.21 1.68082 1.11495 0
M  V30 12161 C 1151.52 0.434685 1.90709 0
M  V30 12162 O 1152.73 0.464956 2.67489 0
M  V30 12163 C 1151.19 2.97101 2.03124 0
M  V30 12164 C 1150.79 4.28947 1.29262 0
M  V30 12165 C 1152.54 3.21456 2.77248 0
M  V30 12166 C 1150.44 5.4906 2.19743 0
M  V30 12167 H 1149.37 0.626238 0.419931 0
M  V30 12168 H 1152.03 1.79594 0.376588 0
M  V30 12169 H 1150.41 2.79371 2.80656 0
M  V30 12170 H 1151.58 4.57279 0.568528 0
M  V30 12171 H 1149.9 4.10968 0.670362 0
M  V30 12172 H 1152.49 4.08377 3.45155 0
M  V30 12173 H 1152.84 2.37153 3.42146 0
M  V30 12174 H 1153.37 3.3982 2.06803 0
M  V30 12175 H 1150.11 6.35815 1.59437 0
M  V30 12176 H 1149.63 5.25019 2.90027 0
M  V30 12177 H 1151.31 5.83517 2.79495 0
M  V30 12178 N 1151.44 -0.633461 1.44309 0
M  V30 12179 C 1152.39 -1.76674 1.51292 0
M  V30 12180 C 1153.38 -1.64972 0.384807 0
M  V30 12181 O 1154.59 -1.71079 0.559653 0
M  V30 12182 H 1150.96 -0.583238 0.474697 0
M  V30 12183 H 1152.93 -1.67907 2.46678 0
M  V30 12184 C 1151.68 -3.15002 1.47205 0
M  V30 12185 H 1151.01 -3.24653 2.33325 0
M  V30 12186 H 1152.45 -3.94199 1.56151 0
M  V30 12187 C 1150.9 -3.3635 0.192464 0
M  V30 12188 O 1151.43 -3.94857 -0.738285 0
M  V30 12189 N 1149.64 -2.9044 0.0963424 0
M  V30 12190 H 1149.19 -2.43011 0.85459 0
M  V30 12191 H 1149.15 -3.05099 -0.759061 0
M  V30 12192 N 1152.92 -1.31168 -0.873655 0
M  V30 12193 C 1154.15 -1.23595 -1.65927 0
M  V30 12194 C 1154.56 0.199349 -1.87745 0
M  V30 12195 O 1153.92 1.13013 -1.43298 0
M  V30 12196 C 1153.97 -1.97268 -3.02932 0
M  V30 12197 O 1153.69 -3.35196 -2.82091 0
M  V30 12198 C 1155.19 -1.9649 -3.97374 0
M  V30 12199 H 1152.41 -0.427228 -0.517414 0
M  V30 12200 H 1154.96 -1.72983 -1.09074 0
M  V30 12201 H 1153.11 -1.51651 -3.56484 0
M  V30 12202 H 1153.52 -3.7266 -3.69087 0
M  V30 12203 H 1155 -2.52557 -4.90835 0
M  V30 12204 H 1155.48 -0.946525 -4.28879 0
M  V30 12205 H 1156.08 -2.4197 -3.49758 0
M  V30 12206 N 1154.4 1.08748 -1.14068 0
M  V30 12207 C 1155.64 1.81065 -0.906738 0
M  V30 12208 C 1155.97 1.86057 0.566844 0
M  V30 12209 O 1155.23 1.32976 1.43582 0
M  V30 12210 C 1155.53 3.26734 -1.44843 0
M  V30 12211 C 1155.19 3.41866 -2.94005 0
M  V30 12212 C 1153.85 3.45703 -3.34729 0
M  V30 12213 C 1156.21 3.45831 -3.89937 0
M  V30 12214 C 1153.53 3.51092 -4.70055 0
M  V30 12215 C 1155.89 3.52755 -5.25116 0
M  V30 12216 C 1154.55 3.54863 -5.65357 0
M  V30 12217 H 1153.82 0.662564 -0.331799 0
M  V30 12218 H 1156.47 1.28065 -1.42378 0
M  V30 12219 H 1154.77 3.82419 -0.852239 0
M  V30 12220 H 1156.47 3.81236 -1.2434 0
M  V30 12221 H 1153.06 3.39568 -2.61518 0
M  V30 12222 H 1157.24 3.421 -3.59557 0
M  V30 12223 H 1152.5 3.51015 -5.00598 0
M  V30 12224 H 1156.67 3.54768 -5.9926 0
M  V30 12225 H 1154.3 3.58792 -6.70203 0
M  V30 12226 N 1155.87 0.935264 1.26849 0
M  V30 12227 C 1157.1 0.595704 1.98661 0
M  V30 12228 C 1157.52 -0.821001 1.69237 0
M  V30 12229 O 1156.88 -1.55211 0.936982 0
M  V30 12230 C 1156.93 0.837275 3.50745 0
M  V30 12231 O 1156.03 -0.0934914 4.12294 0
M  V30 12232 H 1155.38 0.228512 0.623441 0
M  V30 12233 H 1157.91 1.25658 1.61466 0
M  V30 12234 H 1157.92 0.755827 4.00938 0
M  V30 12235 H 1156.59 1.86993 3.71492 0
M  V30 12236 H 1155.17 0.0385124 3.7288 0
M  V30 12237 N 1157.35 -1.41121 0.701616 0
M  V30 12238 C 1158.6 -2.00733 0.234682 0
M  V30 12239 C 1158.92 -1.55869 -1.17174 0
M  V30 12240 O 1158.19 -0.791965 -1.79178 0
M  V30 12241 H 1156.77 -0.742288 0.0837745 0
M  V30 12242 H 1159.43 -1.7266 0.904127 0
M  V30 12243 H 1158.53 -3.11041 0.256831 0
M  V30 12244 N 1158.83 -0.446794 -1.51134 0
M  V30 12245 C 1159.76 0.350229 -2.30858 0
M  V30 12246 C 1160.74 1.0125 -1.36684 0
M  V30 12247 O 1161.93 1.01433 -1.65605 0
M  V30 12248 C 1159.06 1.4464 -3.15748 0
M  V30 12249 C 1158.01 0.907102 -4.18277 0
M  V30 12250 C 1157.34 2.09974 -4.91747 0
M  V30 12251 C 1158.64 -0.0649758 -5.2226 0
M  V30 12252 H 1160.33 -0.315105 -2.97737 0
M  V30 12253 H 1157.88 -0.152985 -1.43185 0
M  V30 12254 H 1159.83 2.01127 -3.70305 0
M  V30 12255 H 1158.55 2.14016 -2.46708 0
M  V30 12256 H 1157.21 0.364382 -3.64785 0
M  V30 12257 H 1156.86 2.77991 -4.19202 0
M  V30 12258 H 1156.56 1.74523 -5.61084 0
M  V30 12259 H 1158.08 2.66996 -5.49131 0
M  V30 12260 H 1159.5 0.4099 -5.71833 0
M  V30 12261 H 1157.9 -0.332529 -5.99178 0
M  V30 12262 H 1158.97 -0.998681 -4.74504 0
M  V30 12263 N 1160.31 1.56586 -0.178487 0
M  V30 12264 C 1161.24 2.21313 0.744486 0
M  V30 12265 C 1162.22 1.17098 1.23377 0
M  V30 12266 O 1163.4 1.45551 1.28563 0
M  V30 12267 C 1160.53 2.8595 1.97103 0
M  V30 12268 C 1159.49 3.96266 1.61732 0
M  V30 12269 C 1158.81 4.47987 2.91911 0
M  V30 12270 C 1160.11 5.15503 0.839868 0
M  V30 12271 H 1161.81 2.98698 0.204938 0
M  V30 12272 H 1159.35 1.43672 0.0971306 0
M  V30 12273 H 1161.31 3.29909 2.6218 0
M  V30 12274 H 1160.03 2.05946 2.53484 0
M  V30 12275 H 1158.69 3.52974 0.990208 0
M  V30 12276 H 1158.34 3.64765 3.46346 0
M  V30 12277 H 1158.04 5.22413 2.68995 0
M  V30 12278 H 1159.56 4.94637 3.58004 0
M  V30 12279 H 1160.98 5.5611 1.39337 0
M  V30 12280 H 1159.37 5.95891 0.709473 0
M  V30 12281 H 1160.44 4.84628 -0.162396 0
M  V30 12282 N 1161.79 -0.095206 1.57312 0
M  V30 12283 C 1162.73 -1.11551 2.02052 0
M  V30 12284 C 1163.7 -1.39808 0.896818 0
M  V30 12285 O 1164.89 -1.51273 1.1628 0
M  V30 12286 C 1162.03 -2.43056 2.44985 0
M  V30 12287 C 1161.14 -2.21531 3.70875 0
M  V30 12288 C 1160.28 -3.46434 4.02687 0
M  V30 12289 C 1159.32 -3.2017 5.21687 0
M  V30 12290 N 1158.45 -4.37339 5.49253 0
M  V30 12291 H 1163.29 -0.727 2.88996 0
M  V30 12292 H 1160.83 -0.347441 1.42938 0
M  V30 12293 H 1162.79 -3.19803 2.67921 0
M  V30 12294 H 1161.42 -2.79754 1.61051 0
M  V30 12295 H 1160.47 -1.35587 3.55416 0
M  V30 12296 H 1161.78 -1.98116 4.57768 0
M  V30 12297 H 1160.94 -4.31589 4.26399 0
M  V30 12298 H 1159.67 -3.72904 3.14315 0
M  V30 12299 H 1158.68 -2.33409 4.97796 0
M  V30 12300 H 1159.9 -2.95047 6.11657 0
M  V30 12301 H 1157.85 -4.63885 4.6384 0
M  V30 12302 H 1157.77 -4.17114 6.30517 0
M  V30 12303 H 1159.04 -5.23559 5.775 0
M  V30 12304 N 1163.26 -1.53291 -0.366026 0
M  V30 12305 C 1164.51 -1.68671 -1.10602 0
M  V30 12306 C 1164.83 -0.444793 -1.90476 0
M  V30 12307 O 1166.03 -0.479135 -2.67239 0
M  V30 12308 C 1164.49 -2.98174 -2.01545 0
M  V30 12309 C 1164.1 -4.29626 -1.26986 0
M  V30 12310 C 1165.84 -3.22921 -2.7554 0
M  V30 12311 C 1163.75 -5.50218 -2.16828 0
M  V30 12312 H 1162.68 -0.628456 -0.416604 0
M  V30 12313 H 1165.33 -1.79791 -0.367058 0
M  V30 12314 H 1163.71 -2.80855 -2.79171 0
M  V30 12315 H 1164.88 -4.57574 -0.544269 0
M  V30 12316 H 1163.2 -4.11318 -0.648558 0
M  V30 12317 H 1165.8 -4.10202 -3.42985 0
M  V30 12318 H 1166.14 -2.38964 -3.40884 0
M  V30 12319 H 1166.67 -3.40912 -2.04997 0
M  V30 12320 H 1163.41 -6.36651 -1.56063 0
M  V30 12321 H 1162.93 -5.26549 -2.87238 0
M  V30 12322 H 1164.61 -5.84991 -2.76396 0
M  V30 12323 N 1164.74 0.6258 -1.44643 0
M  V30 12324 C 1165.97 1.41726 -1.51422 0
M  V30 12325 C 1166.39 1.87565 -0.14181 0
M  V30 12326 O 1165.75 1.59059 0.870054 0
M  V30 12327 C 1165.8 2.61012 -2.48807 0
M  V30 12328 O 1164.9 3.61029 -1.99328 0
M  V30 12329 H 1164.24 0.423855 -0.511119 0
M  V30 12330 H 1166.77 0.763336 -1.89827 0
M  V30 12331 H 1166.78 3.08489 -2.67018 0
M  V30 12332 H 1165.46 2.26995 -3.48491 0
M  V30 12333 H 1164.04 3.20325 -1.90909 0
M  V30 12334 N 1166.22 1.31629 0.866686 0
M  V30 12335 C 1167.5 1.12136 1.60265 0
M  V30 12336 C 1167.88 -0.322729 2.08618 0
M  V30 12337 O 1167.23 -1.31738 1.86701 0
M  V30 12338 C 1167.44 2.13845 2.7581 0
M  V30 12339 C 1168.78 2.46541 3.45692 0
M  V30 12340 O 1169.81 2.12298 2.86021 0
M  V30 12341 O 1168.67 3.05194 4.53342 0
M  V30 12342 H 1165.76 0.431923 0.705246 0
M  V30 12343 H 1168.31 1.43119 0.911863 0
M  V30 12344 H 1167.08 3.10967 2.37518 0
M  V30 12345 H 1166.7 1.83786 3.52574 0
M  V30 12346 N 1167.7 -1.08142 1.14644 0
M  V30 12347 C 1168.95 -1.80582 0.916327 0
M  V30 12348 C 1169.27 -1.86355 -0.556969 0
M  V30 12349 O 1168.53 -1.33736 -1.42875 0
M  V30 12350 C 1168.83 -3.25962 1.46573 0
M  V30 12351 C 1168.49 -3.40302 2.95814 0
M  V30 12352 C 1167.16 -3.43922 3.36557 0
M  V30 12353 C 1169.51 -3.43758 3.91765 0
M  V30 12354 C 1166.84 -3.48594 4.7191 0
M  V30 12355 C 1169.19 -3.49965 5.26979 0
M  V30 12356 C 1167.85 -3.5186 5.67231 0
M  V30 12357 H 1167.12 -0.660795 0.335308 0
M  V30 12358 H 1169.77 -1.27309 1.43055 0
M  V30 12359 H 1168.07 -3.81961 0.872507 0
M  V30 12360 H 1169.77 -3.80571 1.2636 0
M  V30 12361 H 1166.36 -3.38176 2.63315 0
M  V30 12362 H 1170.55 -3.40189 3.61366 0
M  V30 12363 H 1165.8 -3.48355 5.02453 0
M  V30 12364 H 1169.98 -3.51585 6.01133 0
M  V30 12365 H 1167.6 -3.55233 6.72097 0
M  V30 12366 N 1169.18 -0.941978 -1.26351 0
M  V30 12367 C 1170.43 -0.588806 -1.93333 0
M  V30 12368 C 1170.75 0.875067 -1.74263 0
M  V30 12369 O 1170.02 1.62187 -1.09873 0
M  V30 12370 H 1168.6 -0.214774 -0.715459 0
M  V30 12371 H 1171.26 -1.19747 -1.53774 0
M  V30 12372 H 1170.35 -0.807267 -3.01479 0
M  V30 12373 N 1170.66 1.40747 -0.709091 0
M  V30 12374 C 1171.88 2.05319 -0.255258 0
M  V30 12375 C 1172.3 1.53406 1.10054 0
M  V30 12376 O 1171.66 0.687905 1.69039 0
M  V30 12377 C 1171.71 3.60835 -0.219251 0
M  V30 12378 O 1171.43 4.1083 -1.52151 0
M  V30 12379 C 1172.93 4.42572 0.253927 0
M  V30 12380 H 1170.15 0.660904 -0.115959 0
M  V30 12381 H 1172.69 1.80274 -0.965474 0
M  V30 12382 H 1170.85 3.84872 0.441882 0
M  V30 12383 H 1171.26 5.04979 -1.41764 0
M  V30 12384 H 1172.74 5.51529 0.22798 0
M  V30 12385 H 1173.21 4.19673 1.29504 0
M  V30 12386 H 1173.82 4.23629 -0.376694 0
M  V30 12387 N 1172.13 0.454803 1.50895 0
M  V30 12388 C 1173.36 -0.106259 2.07128 0
M  V30 12389 C 1173.78 -1.3418 1.31823 0
M  V30 12390 O 1173.14 -1.77667 0.361147 0
M  V30 12391 C 1173.19 -0.389609 3.58489 0
M  V30 12392 O 1172.29 -1.47305 3.85195 0
M  V30 12393 H 1171.63 0.00580588 0.663975 0
M  V30 12394 H 1174.16 0.641163 1.94294 0
M  V30 12395 H 1174.17 -0.634934 4.03029 0
M  V30 12396 H 1172.85 0.513338 4.1272 0
M  V30 12397 H 1171.43 -1.21631 3.52506 0
M  V30 12398 N 1173.61 -1.56489 0.186789 0
M  V30 12399 C 1174.56 -2.18703 -0.737402 0
M  V30 12400 C 1175.53 -1.13171 -1.21579 0
M  V30 12401 O 1176.71 -1.41388 -1.28118 0
M  V30 12402 C 1173.85 -2.84394 -1.95484 0
M  V30 12403 C 1172.97 -4.04429 -1.51859 0
M  V30 12404 C 1172.1 -4.58001 -2.69089 0
M  V30 12405 C 1171.14 -5.70412 -2.22029 0
M  V30 12406 N 1170.28 -6.18425 -3.32407 0
M  V30 12407 H 1175.12 -2.97327 -0.200105 0
M  V30 12408 H 1172.65 -1.46842 -0.087032 0
M  V30 12409 H 1174.61 -3.20646 -2.66912 0
M  V30 12410 H 1173.24 -2.08347 -2.46559 0
M  V30 12411 H 1172.29 -3.73895 -0.70048 0
M  V30 12412 H 1173.61 -4.85756 -1.13327 0
M  V30 12413 H 1172.76 -4.96515 -3.48652 0
M  V30 12414 H 1171.5 -3.75764 -3.1089 0
M  V30 12415 H 1170.5 -5.31434 -1.40918 0
M  V30 12416 H 1171.73 -6.54461 -1.81268 0
M  V30 12417 H 1169.68 -5.39113 -3.73755 0
M  V30 12418 H 1169.59 -6.94782 -2.98017 0
M  V30 12419 H 1170.86 -6.61592 -4.12209 0
M  V30 12420 N 1175.09 0.086862 -1.5736 0
M  V30 12421 C 1176.51 0.441284 -1.53378 0
M  V30 12422 C 1176.71 1.80046 -0.904748 0
M  V30 12423 O 1175.76 2.47484 -0.500781 0
M  V30 12424 C 1177.07 0.3962 -2.98078 0
M  V30 12425 C 1178.62 0.477468 -3.09337 0
M  V30 12426 C 1179.1 0.462448 -4.55659 0
M  V30 12427 N 1180.59 0.522963 -4.60238 0
M  V30 12428 C 1181.32 0.533313 -5.70914 0
M  V30 12429 N 1180.82 0.499376 -6.90998 0
M  V30 12430 N 1182.61 0.578742 -5.59113 0
M  V30 12431 H 1174.76 -0.803308 -1.96623 0
M  V30 12432 H 1177.03 -0.299879 -0.89932 0
M  V30 12433 H 1176.73 -0.535505 -3.47599 0
M  V30 12434 H 1176.61 1.21209 -3.57195 0
M  V30 12435 H 1178.99 1.39959 -2.59799 0
M  V30 12436 H 1179.07 -0.366717 -2.53158 0
M  V30 12437 H 1178.72 -0.455768 -5.05851 0
M  V30 12438 H 1178.65 1.32396 -5.09685 0
M  V30 12439 H 1181.14 0.554051 -3.73816 0
M  V30 12440 H 1181.45 0.510784 -7.7111 0
M  V30 12441 H 1179.8 0.466296 -6.93434 0
M  V30 12442 H 1182.99 0.602841 -4.64202 0
M  V30 12443 H 1183.16 0.583339 -6.45369 0
M  V30 12444 N 1176.57 1.53483 0.357892 0
M  V30 12445 C 1177.5 1.83444 1.44466 0
M  V30 12446 C 1178.48 0.688486 1.55544 0
M  V30 12447 O 1179.66 0.93906 1.69986 0
M  V30 12448 C 1176.79 2.03122 2.81707 0
M  V30 12449 C 1175.75 3.1891 2.85448 0
M  V30 12450 C 1175.07 3.23895 4.25436 0
M  V30 12451 C 1176.37 4.57334 2.52275 0
M  V30 12452 H 1178.07 2.74456 1.19642 0
M  V30 12453 H 1175.61 1.3206 0.574112 0
M  V30 12454 H 1177.57 2.22666 3.57768 0
M  V30 12455 H 1176.29 1.08827 3.07935 0
M  V30 12456 H 1174.95 2.99199 2.11838 0
M  V30 12457 H 1174.6 2.27223 4.48753 0
M  V30 12458 H 1174.3 4.01694 4.28854 0
M  V30 12459 H 1175.82 3.45632 5.0336 0
M  V30 12460 H 1177.24 4.76988 3.1805 0
M  V30 12461 H 1175.63 5.37431 2.66998 0
M  V30 12462 H 1176.7 4.61921 1.47501 0
M  V30 12463 N 1178.05 -0.61812 1.44973 0
M  V30 12464 C 1179.01 -1.71135 1.52465 0
M  V30 12465 C 1180.01 -1.5561 0.405246 0
M  V30 12466 O 1181.2 -1.60869 0.668351 0
M  V30 12467 C 1178.33 -3.10324 1.41108 0
M  V30 12468 H 1179.52 -1.65862 2.49859 0
M  V30 12469 H 1177.08 -0.832932 1.32257 0
M  V30 12470 H 1177.81 -3.21183 0.448574 0
M  V30 12471 H 1177.6 -3.23001 2.2229 0
M  V30 12472 H 1179.09 -3.89976 1.49361 0
M  V30 12473 N 1179.52 -1.32087 -0.859693 0
M  V30 12474 C 1180.77 -1.22119 -1.61033 0
M  V30 12475 C 1181.09 0.218289 -1.93774 0
M  V30 12476 O 1180.36 1.14172 -1.5919 0
M  V30 12477 H 1178.94 -0.448989 -0.597008 0
M  V30 12478 H 1181.6 -1.65545 -1.02863 0
M  V30 12479 H 1180.7 -1.80023 -2.54947 0
M  V30 12480 N 1181 1.07532 -1.15215 0
M  V30 12481 C 1182.25 1.79474 -0.920439 0
M  V30 12482 C 1182.56 1.87593 0.553926 0
M  V30 12483 O 1183.77 2.56037 0.903169 0
M  V30 12484 C 1182.23 3.22509 -1.59738 0
M  V30 12485 C 1181.83 3.22596 -3.10863 0
M  V30 12486 C 1183.58 3.99072 -1.44714 0
M  V30 12487 C 1181.48 4.60273 -3.71352 0
M  V30 12488 H 1180.41 0.672625 -0.340722 0
M  V30 12489 H 1183.07 1.2071 -1.38208 0
M  V30 12490 H 1181.45 3.81454 -1.06342 0
M  V30 12491 H 1182.62 2.73306 -3.70999 0
M  V30 12492 H 1180.94 2.5953 -3.25627 0
M  V30 12493 H 1183.53 5.00823 -1.87299 0
M  V30 12494 H 1183.88 4.14428 -0.394386 0
M  V30 12495 H 1184.41 3.46617 -1.95195 0
M  V30 12496 H 1181.15 4.50122 -4.76519 0
M  V30 12497 H 1180.67 5.09809 -3.15998 0
M  V30 12498 H 1182.35 5.29243 -3.7217 0
M  V30 12499 N 1182.48 0.948665 1.2585 0
M  V30 12500 C 1183.71 0.617229 1.97479 0
M  V30 12501 C 1184.12 -0.809406 1.7057 0
M  V30 12502 O 1183.48 -1.54066 0.97826 0
M  V30 12503 C 1183.53 0.859065 3.51144 0
M  V30 12504 O 1183.25 2.2296 3.77121 0
M  V30 12505 C 1184.75 0.539197 4.40009 0
M  V30 12506 H 1181.97 0.231933 0.629641 0
M  V30 12507 H 1184.52 1.27141 1.60173 0
M  V30 12508 H 1182.67 0.25138 3.86584 0
M  V30 12509 H 1183.09 2.29524 4.71613 0
M  V30 12510 H 1184.56 0.758986 5.46757 0
M  V30 12511 H 1185.04 -0.526062 4.36038 0
M  V30 12512 H 1185.64 1.12594 4.10125 0
M  V30 12513 N 1183.96 -1.40369 0.716545 0
M  V30 12514 C 1185.37 -1.83783 0.328719 0
M  V30 12515 C 1185.72 -1.5991 -1.13681 0
M  V30 12516 O 1184.85 -1.08048 -1.87496 0
M  V30 12517 C 1185.44 -3.33626 0.589848 0
M  V30 12518 C 1184 -3.7553 0.25572 0
M  V30 12519 C 1183.15 -2.63571 0.861733 0
M  V30 12520 H 1186.1 -1.29623 0.915621 0
M  V30 12521 H 1186.12 -3.80225 -0.14459 0
M  V30 12522 H 1185.63 -3.5097 1.65655 0
M  V30 12523 H 1183.73 -3.63781 -0.805883 0
M  V30 12524 H 1183.84 -4.73577 0.725388 0
M  V30 12525 H 1182.21 -2.53047 0.289706 0
M  V30 12526 H 1182.99 -2.83727 1.93272 0
M  V30 12527 N 1185.44 -0.462799 -1.50652 0
M  V30 12528 C 1186.68 0.0938945 -2.04184 0
M  V30 12529 C 1187.04 1.37726 -1.33774 0
M  V30 12530 O 1188.24 2.01581 -1.77817 0
M  V30 12531 C 1186.51 0.281884 -3.56287 0
M  V30 12532 S 1188.07 0.798326 -4.31477 0
M  V30 12533 H 1184.89 0.0198719 -0.710722 0
M  V30 12534 H 1187.49 -0.62804 -1.85138 0
M  V30 12535 H 1186.2 -0.658084 -4.05089 0
M  V30 12536 H 1185.73 1.03017 -3.79672 0
M  V30 12537 H 1187.74 2.07281 -4.50832 0
M  V30 12538 N 1186.91 1.56388 -0.195085 0
M  V30 12539 C 1188.14 2.01963 0.449289 0
M  V30 12540 C 1188.56 1.07522 1.55192 0
M  V30 12541 O 1187.91 0.0800915 1.82324 0
M  V30 12542 C 1187.97 3.47231 1.00561 0
M  V30 12543 O 1187.69 4.38068 -0.0530241 0
M  V30 12544 C 1189.19 4.08324 1.72587 0
M  V30 12545 H 1186.41 0.661452 0.112792 0
M  V30 12546 H 1188.95 2.02231 -0.303788 0
M  V30 12547 H 1187.11 3.47663 1.70907 0
M  V30 12548 H 1187.52 5.23256 0.361076 0
M  V30 12549 H 1188.99 5.11821 2.06744 0
M  V30 12550 H 1189.47 3.51782 2.62956 0
M  V30 12551 H 1190.08 4.11665 1.06826 0
M  V30 12552 N 1188.39 -0.0785156 1.57404 0
M  V30 12553 C 1189.3 -1.11203 2.0657 0
M  V30 12554 C 1190.32 -1.42822 0.993872 0
M  V30 12555 O 1191.49 -1.53133 1.30814 0
M  V30 12556 C 1188.56 -2.40812 2.4942 0
M  V30 12557 C 1187.62 -2.16225 3.70871 0
M  V30 12558 C 1186.85 -3.39654 4.11668 0
M  V30 12559 O 1187.08 -4.48521 3.524 0
M  V30 12560 O 1186.01 -3.28263 5.04507 0
M  V30 12561 H 1189.84 -0.724381 2.94935 0
M  V30 12562 H 1187.42 -0.292184 1.46515 0
M  V30 12563 H 1189.3 -3.17101 2.77534 0
M  V30 12564 H 1187.98 -2.7897 1.64187 0
M  V30 12565 H 1186.89 -1.37663 3.4785 0
M  V30 12566 H 1188.22 -1.82951 4.56935 0
M  V30 12567 N 1189.87 -1.5367 -0.349747 0
M  V30 12568 C 1191.1 -1.74547 -1.11089 0
M  V30 12569 C 1191.51 -0.481741 -1.82551 0
M  V30 12570 O 1190.87 0.546272 -1.74132 0
M  V30 12571 C 1190.92 -2.92148 -2.12913 0
M  V30 12572 O 1190.64 -4.13633 -1.44358 0
M  V30 12573 C 1192.14 -3.25027 -3.01451 0
M  V30 12574 H 1189.36 -0.583376 -0.331532 0
M  V30 12575 H 1191.91 -2.00473 -0.403841 0
M  V30 12576 H 1190.06 -2.68572 -2.79192 0
M  V30 12577 H 1190.48 -4.79601 -2.12329 0
M  V30 12578 H 1191.95 -4.10679 -3.68845 0
M  V30 12579 H 1192.43 -2.41064 -3.67131 0
M  V30 12580 H 1193.03 -3.50586 -2.40768 0
M  V30 12581 N 1191.35 0.610423 -1.45298 0
M  V30 12582 C 1192.6 1.36951 -1.49167 0
M  V30 12583 C 1192.92 1.9405 -0.132292 0
M  V30 12584 O 1192.18 1.75363 0.868686 0
M  V30 12585 C 1192.48 2.53812 -2.51623 0
M  V30 12586 C 1192.14 2.14877 -3.96407 0
M  V30 12587 C 1190.81 2.03972 -4.35831 0
M  V30 12588 C 1193.16 1.84448 -4.87472 0
M  V30 12589 C 1190.49 1.60856 -5.64218 0
M  V30 12590 C 1192.84 1.42818 -6.16268 0
M  V30 12591 C 1191.5 1.3047 -6.54625 0
M  V30 12592 H 1190.77 0.501138 -0.54584 0
M  V30 12593 H 1193.42 0.690221 -1.78629 0
M  V30 12594 H 1191.72 3.27066 -2.1572 0
M  V30 12595 H 1193.42 3.12041 -2.51856 0
M  V30 12596 H 1190.01 2.2429 -3.65229 0
M  V30 12597 H 1194.19 1.91771 -4.57753 0
M  V30 12598 H 1189.45 1.49916 -5.92735 0
M  V30 12599 H 1193.62 1.18318 -6.86275 0
M  V30 12600 H 1191.25 0.968347 -7.54007 0
M  V30 12601 N 1192.83 1.32541 0.852676 0
M  V30 12602 C 1194.05 1.2622 1.6394 0
M  V30 12603 C 1194.47 -0.169455 1.88038 0
M  V30 12604 O 1193.83 -1.10719 1.45078 0
M  V30 12605 C 1193.88 2.02062 2.99755 0
M  V30 12606 O 1193.6 3.39641 2.76723 0
M  V30 12607 C 1195.1 2.02787 3.94198 0
M  V30 12608 H 1192.32 0.435405 0.510552 0
M  V30 12609 H 1194.86 1.74696 1.06309 0
M  V30 12610 H 1193.02 1.57303 3.54026 0
M  V30 12611 H 1193.43 3.78484 3.63111 0
M  V30 12612 H 1194.91 2.60333 4.86755 0
M  V30 12613 H 1195.38 1.01464 4.27319 0
M  V30 12614 H 1195.99 2.47504 3.45864 0
M  V30 12615 N 1194.3 -1.0692 1.15784 0
M  V30 12616 C 1195.55 -1.79245 0.933581 0
M  V30 12617 C 1195.87 -1.87362 -0.540427 0
M  V30 12618 O 1195.14 -1.37769 -1.39271 0
M  V30 12619 H 1193.72 -0.663898 0.342416 0
M  V30 12620 H 1196.39 -1.29189 1.45932 0
M  V30 12621 H 1195.48 -2.81546 1.34679 0
M  V30 12622 N 1195.78 -0.955326 -1.25345 0
M  V30 12623 C 1197.01 -0.627693 -1.97149 0
M  V30 12624 C 1197.43 0.800349 -1.70997 0
M  V30 12625 O 1196.78 1.53545 -0.986417 0
M  V30 12626 C 1196.83 -0.877675 -3.50684 0
M  V30 12627 O 1196.55 -2.24957 -3.75934 0
M  V30 12628 C 1198.06 -0.562524 -4.39716 0
M  V30 12629 H 1195.28 -0.235269 -0.628402 0
M  V30 12630 H 1197.82 -1.27989 -1.59496 0
M  V30 12631 H 1195.97 -0.271878 -3.86445 0
M  V30 12632 H 1196.39 -2.32022 -4.70389 0
M  V30 12633 H 1197.86 -0.787972 -5.46347 0
M  V30 12634 H 1198.34 0.50293 -4.36311 0
M  V30 12635 H 1198.95 -1.14767 -4.09522 0
M  V30 12636 N 1197.26 1.39987 -0.723979 0
M  V30 12637 C 1198.19 2.3332 -0.0917282 0
M  V30 12638 C 1199.17 1.53335 0.736361 0
M  V30 12639 O 1200.36 1.81771 0.683582 0
M  V30 12640 C 1197.49 3.3737 0.824549 0
M  V30 12641 C 1196.44 4.2788 0.101452 0
M  V30 12642 C 1195.77 5.22536 1.13401 0
M  V30 12643 C 1197.07 5.11649 -1.04939 0
M  V30 12644 H 1198.76 2.86441 -0.871318 0
M  V30 12645 H 1196.31 1.37725 -0.420448 0
M  V30 12646 H 1198.26 4.01607 1.27631 0
M  V30 12647 H 1196.98 2.82663 1.63613 0
M  V30 12648 H 1195.64 3.65107 -0.330569 0
M  V30 12649 H 1195.29 4.64131 1.93886 0
M  V30 12650 H 1194.99 5.83938 0.65502 0
M  V30 12651 H 1196.52 5.89651 1.58569 0
M  V30 12652 H 1197.93 5.69293 -0.6766 0
M  V30 12653 H 1196.33 5.82137 -1.45729 0
M  V30 12654 H 1197.4 4.47132 -1.8762 0
M  V30 12655 N 1198.74 0.470782 1.50404 0
M  V30 12656 C 1199.67 -0.359838 2.26358 0
M  V30 12657 C 1200.68 -0.95735 1.31676 0
M  V30 12658 O 1201.87 -0.84581 1.57189 0
M  V30 12659 C 1198.97 -1.51864 3.02969 0
M  V30 12660 C 1198.15 -1.03397 4.25003 0
M  V30 12661 C 1197.21 -2.06679 4.83911 0
M  V30 12662 O 1196.23 -1.64754 5.44835 0
M  V30 12663 N 1197.43 -3.39484 4.70883 0
M  V30 12664 H 1200.2 0.291299 2.98281 0
M  V30 12665 H 1197.76 0.301549 1.59067 0
M  V30 12666 H 1199.75 -2.2065 3.39258 0
M  V30 12667 H 1198.32 -2.07448 2.33846 0
M  V30 12668 H 1197.54 -0.172012 3.93825 0
M  V30 12669 H 1198.83 -0.68807 5.04126 0
M  V30 12670 H 1198.23 -3.76256 4.22431 0
M  V30 12671 H 1196.78 -4.04068 5.11441 0
M  V30 12672 N 1200.22 -1.56282 0.203376 0
M  V30 12673 C 1201.45 -2.01905 -0.437936 0
M  V30 12674 C 1201.86 -1.08263 -1.55164 0
M  V30 12675 O 1201.2 -0.0811746 -1.83521 0
M  V30 12676 C 1201.26 -3.43908 -1.04725 0
M  V30 12677 C 1200.92 -4.56944 -0.0712582 0
M  V30 12678 C 1201.92 -5.14856 0.72243 0
M  V30 12679 C 1199.61 -5.02282 0.0422267 0
M  V30 12680 C 1201.6 -6.16562 1.61649 0
M  V30 12681 C 1199.29 -6.0383 0.939835 0
M  V30 12682 C 1200.29 -6.60844 1.72552 0
M  V30 12683 O 1199.97 -7.60417 2.60808 0
M  V30 12684 H 1199.71 -0.666416 -0.11343 0
M  V30 12685 H 1202.26 -2.03019 0.311833 0
M  V30 12686 H 1200.49 -3.39806 -1.84577 0
M  V30 12687 H 1202.18 -3.73288 -1.59407 0
M  V30 12688 H 1202.94 -4.80691 0.645105 0
M  V30 12689 H 1198.82 -4.57596 -0.559165 0
M  V30 12690 H 1202.37 -6.6099 2.23019 0
M  V30 12691 H 1198.26 -6.37418 1.01824 0
M  V30 12692 H 1199.03 -7.77869 2.54679 0
M  V30 12693 N 1201.7 0.070167 -1.57444 0
M  V30 12694 C 1202.63 1.11509 -1.991 0
M  V30 12695 C 1203.61 1.37481 -0.868194 0
M  V30 12696 O 1204.79 1.50827 -1.13064 0
M  V30 12697 C 1201.92 2.45908 -2.3291 0
M  V30 12698 C 1200.96 2.36059 -3.55216 0
M  V30 12699 S 1201.8 1.75316 -5.05989 0
M  V30 12700 C 1202.95 3.11289 -5.43001 0
M  V30 12701 H 1203.19 0.760096 -2.87419 0
M  V30 12702 H 1200.72 0.278756 -1.51863 0
M  V30 12703 H 1202.68 3.23217 -2.53063 0
M  V30 12704 H 1201.34 2.78567 -1.45117 0
M  V30 12705 H 1200.53 3.35176 -3.76395 0
M  V30 12706 H 1200.13 1.66886 -3.34701 0
M  V30 12707 H 1202.42 4.07603 -5.41171 0
M  V30 12708 H 1203.37 2.94888 -6.43775 0
M  V30 12709 H 1203.78 3.11969 -4.70463 0
M  V30 12710 N 1203.17 1.53854 0.341593 0
M  V30 12711 C 1204.14 1.8128 1.40251 0
M  V30 12712 C 1205.14 0.683915 1.45531 0
M  V30 12713 O 1206.33 0.952202 1.45872 0
M  V30 12714 C 1203.46 1.95658 2.79161 0
M  V30 12715 H 1204.65 2.76053 1.17195 0
M  V30 12716 H 1202.2 1.45296 0.57609 0
M  V30 12717 H 1202.94 1.03034 3.07497 0
M  V30 12718 H 1202.72 2.77788 2.76724 0
M  V30 12719 H 1204.21 2.18387 3.55945 0
M  V30 12720 N 1204.65 -0.602709 1.4562 0
M  V30 12721 C 1206.06 -1.1847 1.44297 0
M  V30 12722 C 1206.41 -1.95434 0.17316 0
M  V30 12723 O 1205.54 -2.03894 -0.724986 0
M  V30 12724 C 1206.13 -2.15508 2.61422 0
M  V30 12725 C 1204.69 -2.69073 2.63204 0
M  V30 12726 C 1203.84 -1.44568 2.36633 0
M  V30 12727 H 1206.79 -0.391745 1.53789 0
M  V30 12728 H 1206.81 -2.98628 2.35799 0
M  V30 12729 H 1206.32 -1.59464 3.53826 0
M  V30 12730 H 1204.42 -3.29042 1.7482 0
M  V30 12731 H 1204.54 -3.13173 3.62573 0
M  V30 12732 H 1202.9 -1.73692 1.86287 0
M  V30 12733 H 1203.68 -0.903852 3.31188 0
M  V30 12734 N 1206.13 -1.32992 -0.845635 0
M  V30 12735 C 1207.04 -1.24701 -1.98713 0
M  V30 12736 C 1208.06 -0.158864 -1.73273 0
M  V30 12737 O 1209.23 -0.381209 -1.97759 0
M  V30 12738 C 1206.3 -0.979524 -3.32575 0
M  V30 12739 C 1205.36 -2.15701 -3.71176 0
M  V30 12740 C 1204.59 -1.90219 -4.98651 0
M  V30 12741 O 1204.81 -0.849171 -5.64044 0
M  V30 12742 O 1203.75 -2.76571 -5.34595 0
M  V30 12743 H 1207.57 -2.20683 -2.08645 0
M  V30 12744 H 1205.16 -1.12971 -0.97765 0
M  V30 12745 H 1207.04 -0.847219 -4.12796 0
M  V30 12746 H 1205.72 -0.0499398 -3.23661 0
M  V30 12747 H 1204.62 -2.34483 -2.91494 0
M  V30 12748 H 1205.96 -3.0697 -3.84747 0
M  V30 12749 N 1207.61 1.06304 -1.1635 0
M  V30 12750 C 1208.86 1.78487 -0.939423 0
M  V30 12751 C 1209.17 1.8817 0.533998 0
M  V30 12752 O 1210.38 2.56981 0.875962 0
M  V30 12753 C 1208.83 3.20796 -1.63149 0
M  V30 12754 C 1208.44 3.19281 -3.14267 0
M  V30 12755 C 1210.18 3.97514 -1.48938 0
M  V30 12756 C 1208.09 4.56309 -3.76213 0
M  V30 12757 H 1207.02 0.668973 -0.347837 0
M  V30 12758 H 1209.67 1.19237 -1.3948 0
M  V30 12759 H 1208.05 3.80305 -1.10382 0
M  V30 12760 H 1209.23 2.69356 -3.73877 0
M  V30 12761 H 1207.54 2.56062 -3.28362 0
M  V30 12762 H 1210.14 4.98808 -1.926 0
M  V30 12763 H 1210.48 4.13986 -0.438319 0
M  V30 12764 H 1211.02 3.44528 -1.98861 0
M  V30 12765 H 1207.75 4.45042 -4.81267 0
M  V30 12766 H 1207.27 5.06429 -3.21388 0
M  V30 12767 H 1208.95 5.25266 -3.77762 0
M  V30 12768 N 1209.09 0.96196 1.24836 0
M  V30 12769 C 1210.33 0.616342 1.92052 0
M  V30 12770 C 1210.65 -0.851601 1.76088 0
M  V30 12771 O 1211.85 -1.3075 2.37943 0
M  V30 12772 C 1210.31 1.05168 3.44191 0
M  V30 12773 C 1209.92 2.54268 3.68852 0
M  V30 12774 C 1211.66 0.778938 4.17292 0
M  V30 12775 C 1209.57 2.91564 5.14533 0
M  V30 12776 H 1208.5 0.22681 0.719078 0
M  V30 12777 H 1211.15 1.1674 1.41577 0
M  V30 12778 H 1209.53 0.428979 3.9367 0
M  V30 12779 H 1210.71 3.21619 3.29997 0
M  V30 12780 H 1209.02 2.79091 3.09026 0
M  V30 12781 H 1211.62 1.03366 5.24614 0
M  V30 12782 H 1211.96 -0.284772 4.15325 0
M  V30 12783 H 1212.49 1.36233 3.73745 0
M  V30 12784 H 1209.23 3.96982 5.21618 0
M  V30 12785 H 1208.75 2.28892 5.54408 0
M  V30 12786 H 1210.43 2.81155 5.82718 0
M  V30 12787 N 1210.56 -1.39601 0.731392 0
M  V30 12788 C 1211.84 -1.94531 0.20422 0
M  V30 12789 C 1212.22 -1.66845 -1.29329 0
M  V30 12790 O 1211.57 -0.994706 -2.05713 0
M  V30 12791 C 1211.78 -3.44891 0.53395 0
M  V30 12792 C 1213.13 -4.21863 0.481298 0
M  V30 12793 O 1214.15 -3.53073 0.470929 0
M  V30 12794 O 1213.01 -5.44452 0.472663 0
M  V30 12795 H 1210.1 -0.826214 0.0360436 0
M  V30 12796 H 1212.65 -1.49121 0.810005 0
M  V30 12797 H 1211.42 -3.58463 1.56907 0
M  V30 12798 H 1211.04 -3.97472 -0.10099 0
M  V30 12799 N 1212.04 -0.478751 -1.50152 0
M  V30 12800 C 1212.97 0.347829 -2.26545 0
M  V30 12801 C 1213.99 0.950354 -1.32182 0
M  V30 12802 O 1215.18 0.837462 -1.57635 0
M  V30 12803 C 1212.28 1.50255 -3.0377 0
M  V30 12804 C 1211.45 1.01142 -4.25546 0
M  V30 12805 C 1210.51 2.0411 -4.85 0
M  V30 12806 O 1209.53 1.61862 -5.45701 0
M  V30 12807 N 1210.74 3.36982 -4.72677 0
M  V30 12808 H 1213.5 -0.307113 -2.98122 0
M  V30 12809 H 1211.06 -0.309981 -1.58905 0
M  V30 12810 H 1213.05 2.18848 -3.40423 0
M  V30 12811 H 1211.62 2.06205 -2.34943 0
M  V30 12812 H 1210.84 0.151124 -3.9391 0
M  V30 12813 H 1212.13 0.661326 -5.04484 0
M  V30 12814 H 1211.53 3.74011 -4.2442 0
M  V30 12815 H 1210.09 4.0135 -5.13577 0
M  V30 12816 N 1213.52 1.56172 -0.211661 0
M  V30 12817 C 1214.77 1.97648 0.421871 0
M  V30 12818 C 1215.09 1.10026 1.60995 0
M  V30 12819 O 1214.36 0.175109 1.95116 0
M  V30 12820 H 1212.94 0.729914 0.158852 0
M  V30 12821 H 1215.6 1.92542 -0.302254 0
M  V30 12822 H 1214.7 3.02834 0.754868 0
M  V30 12823 N 1215 -0.0618163 1.57479 0
M  V30 12824 C 1216.41 -0.612461 1.76368 0
M  V30 12825 C 1216.76 -1.77381 0.838466 0
M  V30 12826 O 1215.89 -2.16386 0.0250211 0
M  V30 12827 C 1216.48 -1.11782 3.19829 0
M  V30 12828 C 1215.04 -1.61424 3.40028 0
M  V30 12829 C 1214.19 -0.53795 2.72032 0
M  V30 12830 H 1217.14 0.164382 1.57846 0
M  V30 12831 H 1217.16 -1.98634 3.24538 0
M  V30 12832 H 1216.67 -0.272353 3.87143 0
M  V30 12833 H 1214.77 -2.48263 2.77842 0
M  V30 12834 H 1214.88 -1.68431 4.48517 0
M  V30 12835 H 1213.25 -0.985355 2.34868 0
M  V30 12836 H 1214.03 0.297495 3.42009 0
M  V30 12837 N 1216.48 -1.54033 -0.333429 0
M  V30 12838 C 1217.89 -1.44522 -0.677166 0
M  V30 12839 C 1218.09 -0.610122 -1.92041 0
M  V30 12840 O 1217.15 -0.105058 -2.52281 0
M  V30 12841 C 1218.46 -2.88129 -0.860369 0
M  V30 12842 C 1220.01 -2.97968 -0.958342 0
M  V30 12843 C 1220.48 -4.42703 -1.17379 0
M  V30 12844 N 1221.98 -4.46273 -1.24075 0
M  V30 12845 C 1222.71 -5.55407 -1.42515 0
M  V30 12846 N 1222.21 -6.74528 -1.58062 0
M  V30 12847 N 1224 -5.43037 -1.45144 0
M  V30 12848 H 1216.15 -2.06815 0.483858 0
M  V30 12849 H 1218.41 -0.935307 0.15461 0
M  V30 12850 H 1218.12 -3.51695 -0.0182085 0
M  V30 12851 H 1217.99 -3.33668 -1.75913 0
M  V30 12852 H 1220.38 -2.34535 -1.79102 0
M  V30 12853 H 1220.46 -2.55774 -0.0362643 0
M  V30 12854 H 1220.11 -5.0672 -0.346004 0
M  V30 12855 H 1220.04 -4.82498 -2.10959 0
M  V30 12856 H 1222.53 -3.60439 -1.13545 0
M  V30 12857 H 1222.84 -7.53462 -1.71797 0
M  V30 12858 H 1221.18 -6.77454 -1.55179 0
M  V30 12859 H 1224.38 -4.4893 -1.32588 0
M  V30 12860 H 1224.55 -6.28146 -1.59173 0
M  V30 12861 N 1217.95 0.594978 -1.45938 0
M  V30 12862 C 1219.2 1.35093 -1.50314 0
M  V30 12863 C 1219.52 1.94412 -0.151315 0
M  V30 12864 O 1218.79 1.77876 0.820787 0
M  V30 12865 H 1217.37 0.501549 -0.553586 0
M  V30 12866 H 1220.04 0.697735 -1.81983 0
M  V30 12867 H 1219.13 2.16393 -2.24901 0
M  V30 12868 N 1219.43 1.33438 0.838571 0
M  V30 12869 C 1220.66 1.27766 1.62356 0
M  V30 12870 C 1221.07 -0.15359 1.88576 0
M  V30 12871 O 1220.41 -1.10626 1.46654 0
M  V30 12872 C 1220.48 1.98435 2.99773 0
M  V30 12873 C 1220.14 3.47741 2.96522 0
M  V30 12874 C 1221.14 4.42938 2.72217 0
M  V30 12875 C 1218.82 3.89922 3.16648 0
M  V30 12876 C 1220.82 5.7829 2.68066 0
M  V30 12877 C 1218.5 5.25378 3.12123 0
M  V30 12878 C 1219.5 6.19374 2.87863 0
M  V30 12879 O 1219.19 7.52349 2.83242 0
M  V30 12880 H 1218.92 0.441527 0.511889 0
M  V30 12881 H 1221.47 1.76377 1.05262 0
M  V30 12882 H 1219.7 1.44415 3.58721 0
M  V30 12883 H 1221.39 1.86258 3.60642 0
M  V30 12884 H 1222.16 4.11673 2.56418 0
M  V30 12885 H 1218.04 3.17169 3.34552 0
M  V30 12886 H 1221.58 6.51629 2.4905 0
M  V30 12887 H 1217.48 5.56267 3.27471 0
M  V30 12888 H 1218.25 7.61901 2.99082 0
M  V30 12889 N 1220.91 -1.05686 1.16912 0
M  V30 12890 C 1222.16 -1.78244 0.95254 0
M  V30 12891 C 1222.48 -1.87924 -0.520525 0
M  V30 12892 O 1221.75 -1.39239 -1.37802 0
M  V30 12893 H 1220.33 -0.660228 0.349439 0
M  V30 12894 H 1222.99 -1.27634 1.47294 0
M  V30 12895 H 1222.09 -2.80102 1.37657 0
M  V30 12896 N 1222.39 -0.968567 -1.24324 0
M  V30 12897 C 1223.34 -0.498817 -2.25345 0
M  V30 12898 C 1224.31 0.456082 -1.59716 0
M  V30 12899 O 1225.49 0.366254 -1.87252 0
M  V30 12900 C 1222.63 0.204027 -3.44496 0
M  V30 12901 C 1221.74 -0.789741 -4.2472 0
M  V30 12902 C 1220.88 -0.0629156 -5.31163 0
M  V30 12903 C 1219.92 -1.04669 -6.03084 0
M  V30 12904 N 1219.05 -0.349812 -7.01228 0
M  V30 12905 H 1223.89 -1.36511 -2.64894 0
M  V30 12906 H 1221.43 -0.684288 -1.30215 0
M  V30 12907 H 1223.39 0.628223 -4.12443 0
M  V30 12908 H 1222.02 1.03426 -3.05782 0
M  V30 12909 H 1221.07 -1.33237 -3.56303 0
M  V30 12910 H 1222.38 -1.53988 -4.74436 0
M  V30 12911 H 1221.54 0.419233 -6.0525 0
M  V30 12912 H 1220.28 0.719915 -4.82357 0
M  V30 12913 H 1219.28 -1.53971 -5.278 0
M  V30 12914 H 1220.51 -1.82998 -6.53979 0
M  V30 12915 H 1218.45 0.414026 -6.54692 0
M  V30 12916 H 1218.37 -1.03881 -7.48829 0
M  V30 12917 H 1219.64 0.11034 -7.79422 0
M  V30 12918 N 1223.87 1.39211 -0.738786 0
M  V30 12919 C 1224.83 2.28937 -0.109746 0
M  V30 12920 C 1225.83 1.46488 0.663157 0
M  V30 12921 O 1227.02 1.67119 0.491614 0
M  V30 12922 C 1224.15 3.30039 0.853633 0
M  V30 12923 H 1225.34 2.86068 -0.900295 0
M  V30 12924 H 1222.9 1.47922 -0.504853 0
M  V30 12925 H 1223.63 2.77971 1.6704 0
M  V30 12926 H 1223.42 3.90935 0.302007 0
M  V30 12927 H 1224.91 3.97169 1.29022 0
M  V30 12928 N 1225.34 0.486708 1.49896 0
M  V30 12929 C 1226.31 -0.288126 2.27382 0
M  V30 12930 C 1227.31 -0.906675 1.32801 0
M  V30 12931 O 1228.5 -0.773425 1.56089 0
M  V30 12932 C 1225.63 -1.41194 3.10285 0
M  V30 12933 H 1226.82 0.391618 2.97332 0
M  V30 12934 H 1224.38 0.24123 1.54427 0
M  V30 12935 H 1225.11 -2.12627 2.44868 0
M  V30 12936 H 1224.9 -0.974033 3.79809 0
M  V30 12937 H 1226.39 -1.95812 3.68846 0
M  V30 12938 N 1226.82 -1.56058 0.219941 0
M  V30 12939 C 1228.1 -1.90087 -0.46112 0
M  V30 12940 C 1228.48 -1.13705 -1.77861 0
M  V30 12941 O 1227.83 -0.245868 -2.27173 0
M  V30 12942 C 1228.04 -3.42786 -0.655644 0
M  V30 12943 C 1229.39 -4.13517 -0.963803 0
M  V30 12944 O 1230.41 -3.48376 -0.742488 0
M  V30 12945 O 1229.27 -5.28692 -1.38374 0
M  V30 12946 H 1226.36 -0.790311 -0.243595 0
M  V30 12947 H 1228.91 -1.67665 0.262005 0
M  V30 12948 H 1227.68 -3.90341 0.273738 0
M  V30 12949 H 1227.3 -3.70982 -1.43032 0
M  V30 12950 N 1228.3 0.053464 -1.57509 0
M  V30 12951 C 1229.55 0.748016 -1.87317 0
M  V30 12952 C 1229.86 1.77805 -0.815161 0
M  V30 12953 O 1231.07 2.52347 -1.00167 0
M  V30 12954 C 1229.53 1.38137 -3.32334 0
M  V30 12955 C 1229.13 0.388958 -4.46308 0
M  V30 12956 C 1230.88 2.05722 -3.7132 0
M  V30 12957 C 1228.78 1.02927 -5.82374 0
M  V30 12958 H 1227.71 0.283123 -0.698826 0
M  V30 12959 H 1230.37 0.00170723 -1.835 0
M  V30 12960 H 1228.75 2.17656 -3.3082 0
M  V30 12961 H 1229.92 -0.377752 -4.59249 0
M  V30 12962 H 1228.24 -0.183447 -4.15996 0
M  V30 12963 H 1230.83 2.54437 -4.70283 0
M  V30 12964 H 1231.18 2.86475 -3.02056 0
M  V30 12965 H 1231.71 1.3301 -3.74904 0
M  V30 12966 H 1228.45 0.261674 -6.54977 0
M  V30 12967 H 1227.97 1.7664 -5.732 0
M  V30 12968 H 1229.65 1.54378 -6.28312 0
M  V30 12969 N 1229.78 1.54207 0.325255 0
M  V30 12970 C 1231.03 1.73523 1.06119 0
M  V30 12971 C 1231.38 0.501912 1.85738 0
M  V30 12972 O 1230.67 -0.505659 1.84807 0
M  V30 12973 C 1230.87 2.95 2.01766 0
M  V30 12974 C 1230.7 4.30028 1.31552 0
M  V30 12975 C 1229.47 4.94212 1.05273 0
M  V30 12976 C 1231.66 5.0906 0.732304 0
M  V30 12977 N 1229.65 6.13074 0.318312 0
M  V30 12978 C 1231.02 6.19865 0.12941 0
M  V30 12979 C 1233.07 4.93835 0.634951 0
M  V30 12980 C 1231.78 7.17106 -0.561389 0
M  V30 12981 C 1233.8 5.91385 -0.0421426 0
M  V30 12982 C 1233.16 7.01541 -0.633988 0
M  V30 12983 H 1229.26 0.687811 0.372076 0
M  V30 12984 H 1231.85 1.91662 0.342581 0
M  V30 12985 H 1230.02 2.78329 2.70901 0
M  V30 12986 H 1231.75 3.02952 2.68333 0
M  V30 12987 H 1228.5 4.54111 1.34462 0
M  V30 12988 H 1228.93 6.76991 -0.0347026 0
M  V30 12989 H 1233.57 4.0882 1.07825 0
M  V30 12990 H 1231.29 8.01681 -1.01652 0
M  V30 12991 H 1234.87 5.81682 -0.117085 0
M  V30 12992 H 1233.75 7.75728 -1.1496 0
M  V30 12993 N 1231.26 -0.58723 1.46251 0
M  V30 12994 C 1232.48 -1.37661 1.55126 0
M  V30 12995 C 1232.91 -1.87123 0.191489 0
M  V30 12996 O 1232.27 -1.6131 -0.827576 0
M  V30 12997 C 1232.31 -2.54324 2.5564 0
M  V30 12998 O 1231.42 -3.55617 2.0883 0
M  V30 12999 H 1230.76 -0.410154 0.522178 0
M  V30 13000 H 1233.29 -0.712738 1.91784 0
M  V30 13001 H 1233.3 -3.01301 2.75103 0
M  V30 13002 H 1231.97 -2.17675 3.54387 0
M  V30 13003 H 1230.55 -3.15151 1.99335 0
M  V30 13004 N 1232.74 -1.33881 -0.831482 0
M  V30 13005 C 1233.67 -1.27384 -1.95693 0
M  V30 13006 C 1234.65 -0.152943 -1.69411 0
M  V30 13007 O 1235.83 -0.34392 -1.9113 0
M  V30 13008 C 1232.96 -1.01982 -3.31989 0
M  V30 13009 C 1231.92 -2.10445 -3.72689 0
M  V30 13010 C 1231.24 -1.70245 -5.06873 0
M  V30 13011 C 1232.54 -3.52194 -3.8569 0
M  V30 13012 H 1234.24 -2.21549 -2.01386 0
M  V30 13013 H 1231.78 -1.06653 -0.967526 0
M  V30 13014 H 1233.73 -0.960841 -4.103 0
M  V30 13015 H 1232.46 -0.0425709 -3.26572 0
M  V30 13016 H 1231.12 -2.15398 -2.96647 0
M  V30 13017 H 1230.77 -0.712036 -4.97935 0
M  V30 13018 H 1230.47 -2.42834 -5.35075 0
M  V30 13019 H 1231.99 -1.65827 -5.87651 0
M  V30 13020 H 1233.4 -3.49701 -4.54293 0
M  V30 13021 H 1231.8 -4.23331 -4.25336 0
M  V30 13022 H 1232.87 -3.9016 -2.87929 0
M  V30 13023 N 1234.21 1.05064 -1.1747 0
M  V30 13024 C 1235.46 1.77737 -0.961979 0
M  V30 13025 C 1235.78 1.88198 0.510551 0
M  V30 13026 O 1235.05 1.39968 1.37062 0
M  V30 13027 H 1233.63 0.658366 -0.352935 0
M  V30 13028 H 1236.29 1.26851 -1.47969 0
M  V30 13029 H 1235.39 2.79368 -1.39141 0
M  V30 13030 N 1235.69 0.975146 1.23809 0
M  V30 13031 C 1236.93 0.649078 1.9382 0
M  V30 13032 C 1237.3 -0.801879 1.74453 0
M  V30 13033 O 1238.5 -1.23853 2.38567 0
M  V30 13034 C 1236.77 1.0225 3.42461 0
M  V30 13035 S 1238.33 0.812107 4.3122 0
M  V30 13036 H 1235.14 0.237878 0.670026 0
M  V30 13037 H 1237.75 1.25368 1.50011 0
M  V30 13038 H 1236.45 2.07523 3.54065 0
M  V30 13039 H 1235.98 0.408976 3.91268 0
M  V30 13040 H 1238 -0.306716 4.95251 0
M  V30 13041 N 1237.17 -1.38817 0.746158 0
M  V30 13042 C 1238.4 -2.0457 0.309605 0
M  V30 13043 C 1238.81 -1.5627 -1.05948 0
M  V30 13044 O 1238.17 -0.73248 -1.67156 0
M  V30 13045 C 1238.22 -3.60126 0.314843 0
M  V30 13046 O 1237.94 -4.06652 1.6299 0
M  V30 13047 C 1239.44 -4.4309 -0.136497 0
M  V30 13048 H 1236.66 -0.657597 0.133441 0
M  V30 13049 H 1239.21 -1.77651 1.01293 0
M  V30 13050 H 1237.36 -3.85908 -0.339685 0
M  V30 13051 H 1237.78 -5.01042 1.55103 0
M  V30 13052 H 1239.25 -5.5194 -0.0816714 0
M  V30 13053 H 1239.73 -4.22959 -1.18332 0
M  V30 13054 H 1240.33 -4.22481 0.488879 0
M  V30 13055 N 1238.65 -0.49465 -1.49636 0
M  V30 13056 C 1239.89 0.0521945 -2.02733 0
M  V30 13057 C 1240.23 1.3723 -1.37411 0
M  V30 13058 O 1239.5 1.87758 -0.507642 0
M  V30 13059 C 1239.78 0.2114 -3.59479 0
M  V30 13060 C 1239.64 -1.13138 -4.35339 0
M  V30 13061 C 1240.96 0.955015 -4.29613 0
M  V30 13062 H 1238.08 0.0174946 -0.736792 0
M  V30 13063 H 1240.72 -0.644827 -1.78723 0
M  V30 13064 H 1238.87 0.805078 -3.80067 0
M  V30 13065 H 1240.54 -1.76345 -4.26263 0
M  V30 13066 H 1238.78 -1.72224 -3.98147 0
M  V30 13067 H 1239.45 -0.97336 -5.4335 0
M  V30 13068 H 1241.93 0.451575 -4.13642 0
M  V30 13069 H 1240.81 1.03524 -5.39049 0
M  V30 13070 H 1241.07 1.99724 -3.94414 0
M  V30 13071 N 1240.13 1.55939 -0.228214 0
M  V30 13072 C 1241.37 1.97652 0.402067 0
M  V30 13073 C 1241.69 1.11911 1.60422 0
M  V30 13074 O 1242.89 1.43552 2.30445 0
M  V30 13075 C 1241.35 3.51638 0.766724 0
M  V30 13076 C 1240.96 4.46092 -0.412991 0
M  V30 13077 C 1242.7 4.02049 1.36224 0
M  V30 13078 C 1240.61 5.91394 -0.0255281 0
M  V30 13079 H 1239.54 0.738107 0.153994 0
M  V30 13080 H 1242.19 1.8059 -0.32548 0
M  V30 13081 H 1240.57 3.64325 1.55188 0
M  V30 13082 H 1241.75 4.45156 -1.19049 0
M  V30 13083 H 1240.06 4.0606 -0.92218 0
M  V30 13084 H 1242.66 5.08111 1.66514 0
M  V30 13085 H 1243 3.48292 2.28032 0
M  V30 13086 H 1243.53 3.92612 0.640378 0
M  V30 13087 H 1240.27 6.49149 -0.910269 0
M  V30 13088 H 1239.79 5.95509 0.716149 0
M  V30 13089 H 1241.47 6.4577 0.398839 0
M  V30 13090 N 1241.6 -0.0451101 1.57535 0
M  V30 13091 C 1242.51 -1.06796 2.08882 0
M  V30 13092 C 1243.53 -1.40682 1.02394 0
M  V30 13093 O 1244.71 -1.50324 1.34033 0
M  V30 13094 C 1241.77 -2.35467 2.54472 0
M  V30 13095 C 1240.83 -2.0831 3.75374 0
M  V30 13096 C 1240.07 -3.30846 4.1878 0
M  V30 13097 O 1240.29 -4.40945 3.61834 0
M  V30 13098 O 1239.22 -3.17488 5.11356 0
M  V30 13099 H 1243.05 -0.661658 2.96405 0
M  V30 13100 H 1240.63 -0.26104 1.47102 0
M  V30 13101 H 1242.52 -3.11143 2.84198 0
M  V30 13102 H 1241.19 -2.75425 1.70068 0
M  V30 13103 H 1240.1 -1.30254 3.50692 0
M  V30 13104 H 1241.43 -1.73218 4.60713 0
M  V30 13105 N 1243.08 -1.54377 -0.317073 0
M  V30 13106 C 1244.02 -1.7907 -1.41453 0
M  V30 13107 C 1244.99 -0.641012 -1.49432 0
M  V30 13108 O 1246.18 -0.879179 -1.66741 0
M  V30 13109 C 1243.3 -1.91307 -2.79498 0
M  V30 13110 C 1242.35 -3.13639 -2.8902 0
M  V30 13111 S 1243.18 -4.72093 -2.52762 0
M  V30 13112 C 1244.34 -4.87245 -3.92866 0
M  V30 13113 H 1244.57 -2.71875 -1.20296 0
M  V30 13114 H 1242.11 -1.45583 -0.514279 0
M  V30 13115 H 1244.06 -1.99043 -3.59015 0
M  V30 13116 H 1242.72 -0.994687 -2.97934 0
M  V30 13117 H 1241.92 -3.18955 -3.90235 0
M  V30 13118 H 1241.52 -3.04266 -2.17481 0
M  V30 13119 H 1243.81 -4.7028 -4.87691 0
M  V30 13120 H 1244.75 -5.89344 -3.92529 0
M  V30 13121 H 1245.16 -4.15504 -3.82122 0
M  V30 13122 N 1244.56 0.579466 -1.4656 0
M  V30 13123 C 1245.52 1.67033 -1.56948 0
M  V30 13124 C 1246.52 1.54481 -0.446361 0
M  V30 13125 O 1247.71 1.5904 -0.710767 0
M  V30 13126 C 1244.85 3.06474 -1.49286 0
M  V30 13127 H 1246.04 1.59179 -2.54169 0
M  V30 13128 H 1243.59 0.797573 -1.34419 0
M  V30 13129 H 1244.33 3.1988 -0.533572 0
M  V30 13130 H 1244.11 3.16993 -2.30776 0
M  V30 13131 H 1245.6 3.85879 -1.59648 0
M  V30 13132 N 1246.04 1.3432 0.824371 0
M  V30 13133 C 1247.27 1.29669 1.61226 0
M  V30 13134 C 1247.68 -0.129532 1.88355 0
M  V30 13135 O 1247.04 -1.07616 1.47394 0
M  V30 13136 C 1247.09 2.08375 2.95402 0
M  V30 13137 O 1246.81 3.45434 2.69456 0
M  V30 13138 C 1248.31 2.11103 3.89808 0
M  V30 13139 H 1245.53 0.446137 0.501201 0
M  V30 13140 H 1248.08 1.76912 1.02579 0
M  V30 13141 H 1246.23 1.64777 3.5061 0
M  V30 13142 H 1246.64 3.86101 3.55001 0
M  V30 13143 H 1248.12 2.706 4.81124 0
M  V30 13144 H 1248.6 1.10505 4.25071 0
M  V30 13145 H 1249.2 2.54784 3.40537 0
M  V30 13146 N 1247.52 -1.0444 1.18026 0
M  V30 13147 C 1248.76 -1.77224 0.971391 0
M  V30 13148 C 1249.09 -1.88466 -0.500564 0
M  V30 13149 O 1248.36 -1.40692 -1.36317 0
M  V30 13150 H 1246.94 -0.656485 0.356422 0
M  V30 13151 H 1249.6 -1.26064 1.4864 0
M  V30 13152 H 1248.69 -2.78626 1.4062 0
M  V30 13153 N 1248.99 -0.981699 -1.2329 0
M  V30 13154 C 1250.41 -0.690539 -1.43888 0
M  V30 13155 C 1250.61 0.742816 -1.87309 0
M  V30 13156 O 1249.67 1.5151 -2.01993 0
M  V30 13157 C 1250.98 -1.68657 -2.48948 0
M  V30 13158 C 1252.53 -1.70076 -2.62761 0
M  V30 13159 C 1253 -2.68513 -3.71032 0
M  V30 13160 N 1254.49 -2.67039 -3.78476 0
M  V30 13161 C 1255.23 -3.39874 -4.61815 0
M  V30 13162 N 1254.72 -4.22273 -5.49233 0
M  V30 13163 N 1256.52 -3.28633 -4.56023 0
M  V30 13164 H 1248.67 -1.90758 -0.934077 0
M  V30 13165 H 1250.93 -0.822058 -0.472149 0
M  V30 13166 H 1250.64 -2.7117 -2.23964 0
M  V30 13167 H 1250.51 -1.47045 -3.47358 0
M  V30 13168 H 1252.9 -0.682673 -2.87095 0
M  V30 13169 H 1252.98 -1.95754 -1.64663 0
M  V30 13170 H 1252.62 -3.70464 -3.47446 0
M  V30 13171 H 1252.55 -2.40109 -4.68674 0
M  V30 13172 H 1255.04 -2.07241 -3.16006 0
M  V30 13173 H 1255.36 -4.74702 -6.09818 0
M  V30 13174 H 1253.7 -4.26364 -5.48852 0
M  V30 13175 H 1256.89 -2.6371 -3.86749 0
M  V30 13176 H 1257.07 -3.85656 -5.20743 0
M  V30 13177 N 1250.47 1.3842 -0.753509 0
M  V30 13178 C 1251.88 1.82847 -0.377331 0
M  V30 13179 C 1252.23 1.62867 1.09401 0
M  V30 13180 O 1251.36 1.12981 1.84565 0
M  V30 13181 C 1251.95 3.31945 -0.678095 0
M  V30 13182 C 1250.51 3.7472 -0.355196 0
M  V30 13183 C 1249.66 2.61193 -0.931311 0
M  V30 13184 H 1252.61 1.2715 -0.949667 0
M  V30 13185 H 1252.63 3.80475 0.0437292 0
M  V30 13186 H 1252.14 3.46455 -1.74902 0
M  V30 13187 H 1250.25 3.65789 0.70915 0
M  V30 13188 H 1250.36 4.71487 -0.850693 0
M  V30 13189 H 1248.72 2.5219 -0.356695 0
M  V30 13190 H 1249.51 2.78503 -2.00727 0
M  V30 13191 N 1251.95 0.502579 1.49372 0
M  V30 13192 C 1253.36 0.055187 1.86618 0
M  V30 13193 C 1253.71 -1.35938 1.41476 0
M  V30 13194 O 1252.84 -2.01333 0.793338 0
M  V30 13195 C 1253.43 0.0933734 3.38671 0
M  V30 13196 C 1251.99 -0.298685 3.75213 0
M  V30 13197 C 1251.14 0.465216 2.7337 0
M  V30 13198 H 1254.09 0.715281 1.41667 0
M  V30 13199 H 1254.11 -0.701549 3.73977 0
M  V30 13200 H 1253.62 1.12303 3.71497 0
M  V30 13201 H 1251.72 -1.33151 3.47996 0
M  V30 13202 H 1251.84 0.0218637 4.79095 0
M  V30 13203 H 1250.2 -0.0851469 2.54558 0
M  V30 13204 H 1250.98 1.49498 3.09039 0
M  V30 13205 N 1253.43 -1.55816 0.23648 0
M  V30 13206 C 1254.68 -1.98686 -0.391146 0
M  V30 13207 C 1255 -1.12443 -1.58703 0
M  V30 13208 O 1254.26 -0.172805 -1.94936 0
M  V30 13209 C 1254.56 -3.47039 -0.85434 0
M  V30 13210 C 1254.22 -4.50299 0.232651 0
M  V30 13211 C 1252.89 -4.78259 0.531218 0
M  V30 13212 C 1255.24 -5.1215 0.967027 0
M  V30 13213 C 1252.57 -5.65347 1.56842 0
M  V30 13214 C 1254.92 -6.00363 1.99367 0
M  V30 13215 C 1253.58 -6.2666 2.299 0
M  V30 13216 H 1252.85 -0.727045 -0.14313 0
M  V30 13217 H 1255.5 -1.88419 0.342125 0
M  V30 13218 H 1253.8 -3.54585 -1.66663 0
M  V30 13219 H 1255.5 -3.7759 -1.35005 0
M  V30 13220 H 1252.09 -4.28599 -0.0102014 0
M  V30 13221 H 1256.27 -4.90606 0.749609 0
M  V30 13222 H 1251.53 -5.83981 1.81043 0
M  V30 13223 H 1255.7 -6.47335 2.56769 0
M  V30 13224 H 1253.33 -6.93938 3.1041 0
M  V30 13225 N 1254.91 0.036755 -1.57557 0
M  V30 13226 C 1255.86 1.04744 -2.02516 0
M  V30 13227 C 1256.84 1.3248 -0.913116 0
M  V30 13228 O 1258.03 1.32194 -1.17702 0
M  V30 13229 C 1255.16 2.3509 -2.50175 0
M  V30 13230 C 1254.25 2.10478 -3.68185 0
M  V30 13231 N 1254.64 1.55899 -4.81175 0
M  V30 13232 C 1252.94 2.40797 -3.7541 0
M  V30 13233 C 1253.64 1.46913 -5.62842 0
M  V30 13234 N 1252.61 1.94202 -5.07727 0
M  V30 13235 H 1256.42 0.619342 -2.873 0
M  V30 13236 H 1253.93 0.243208 -1.60569 0
M  V30 13237 H 1255.93 3.08297 -2.8064 0
M  V30 13238 H 1254.59 2.78586 -1.66793 0
M  V30 13239 H 1255.6 1.24275 -5.02769 0
M  V30 13240 H 1252.27 2.8742 -3.02813 0
M  V30 13241 H 1253.66 1.0527 -6.63602 0
M  V30 13242 N 1256.39 1.54543 0.308881 0
M  V30 13243 C 1257.3 1.87994 1.4034 0
M  V30 13244 C 1258.31 0.773294 1.55872 0
M  V30 13245 O 1259.49 1.069 1.70688 0
M  V30 13246 C 1256.55 2.11341 2.74838 0
M  V30 13247 C 1255.61 3.35086 2.68358 0
M  V30 13248 C 1254.85 3.5731 3.96441 0
M  V30 13249 O 1255.07 2.82692 4.9542 0
M  V30 13250 O 1254 4.50814 3.98811 0
M  V30 13251 H 1257.83 2.81094 1.14976 0
M  V30 13252 H 1255.41 1.40634 0.504236 0
M  V30 13253 H 1257.3 2.27943 3.54429 0
M  V30 13254 H 1255.97 1.21427 3.00062 0
M  V30 13255 H 1254.88 3.23855 1.87267 0
M  V30 13256 H 1256.21 4.25104 2.48087 0
M  V30 13257 N 1257.86 -0.571685 1.46866 0
M  V30 13258 C 1258.79 -1.68994 1.61131 0
M  V30 13259 C 1259.77 -1.63728 0.461222 0
M  V30 13260 O 1260.96 -1.81574 0.688813 0
M  V30 13261 C 1258.09 -3.07638 1.61172 0
M  V30 13262 C 1257.04 -3.27742 2.75262 0
M  V30 13263 C 1256.37 -4.67025 2.60368 0
M  V30 13264 C 1257.67 -3.14511 4.16989 0
M  V30 13265 H 1259.36 -1.57311 2.54742 0
M  V30 13266 H 1256.91 -0.755382 1.22597 0
M  V30 13267 H 1258.86 -3.857 1.69744 0
M  V30 13268 H 1257.59 -3.20245 0.641122 0
M  V30 13269 H 1256.25 -2.52083 2.66176 0
M  V30 13270 H 1255.89 -4.76413 1.61368 0
M  V30 13271 H 1255.59 -4.81428 3.36899 0
M  V30 13272 H 1257.12 -5.47242 2.70848 0
M  V30 13273 H 1258.53 -3.82407 4.27128 0
M  V30 13274 H 1256.93 -3.40431 4.94193 0
M  V30 13275 H 1258 -2.11443 4.36371 0
M  V30 13276 N 1259.34 -1.34755 -0.817236 0
M  V30 13277 C 1260.59 -1.2718 -1.57066 0
M  V30 13278 C 1260.91 0.156531 -1.94371 0
M  V30 13279 O 1260.18 1.09049 -1.62742 0
M  V30 13280 H 1258.76 -0.467755 -0.582421 0
M  V30 13281 H 1261.42 -1.68734 -0.975438 0
M  V30 13282 H 1260.52 -1.88043 -2.49091 0
M  V30 13283 N 1260.82 1.03812 -1.18578 0
M  V30 13284 C 1262.04 1.8124 -1.00831 0
M  V30 13285 C 1262.47 1.82917 0.43853 0
M  V30 13286 O 1261.83 1.24835 1.31476 0
M  V30 13287 C 1261.88 3.24592 -1.57075 0
M  V30 13288 O 1260.98 4.04688 -0.793824 0
M  V30 13289 H 1260.32 0.559846 -0.357028 0
M  V30 13290 H 1262.85 1.30724 -1.57393 0
M  V30 13291 H 1262.86 3.75363 -1.59896 0
M  V30 13292 H 1261.54 3.22686 -2.62387 0
M  V30 13293 H 1260.11 3.63359 -0.838134 0
M  V30 13294 N 1262.3 0.988223 1.22768 0
M  V30 13295 C 1263.71 0.697281 1.7319 0
M  V30 13296 C 1264.06 -0.786111 1.79763 0
M  V30 13297 O 1263.18 -1.61465 1.44077 0
M  V30 13298 C 1263.78 1.25905 3.14537 0
M  V30 13299 C 1262.34 1.01759 3.62384 0
M  V30 13300 C 1261.49 1.38207 2.40404 0
M  V30 13301 H 1264.44 1.16114 1.08181 0
M  V30 13302 H 1264.46 0.635315 3.75159 0
M  V30 13303 H 1263.97 2.33869 3.09721 0
M  V30 13304 H 1262.07 -0.045627 3.72572 0
M  V30 13305 H 1262.18 1.67767 4.48766 0
M  V30 13306 H 1260.55 0.800607 2.4179 0
M  V30 13307 H 1261.33 2.47165 2.38253 0
M  V30 13308 N 1263.78 -1.38018 0.760839 0
M  V30 13309 C 1264.71 -2.2899 0.0980916 0
M  V30 13310 C 1265.72 -1.48102 -0.675985 0
M  V30 13311 O 1266.91 -1.70883 -0.515878 0
M  V30 13312 C 1264.01 -3.27142 -0.884959 0
M  V30 13313 C 1263.18 -4.37081 -0.167 0
M  V30 13314 C 1262.24 -5.15375 -1.06184 0
M  V30 13315 O 1261.27 -5.6673 -0.529667 0
M  V30 13316 N 1262.47 -5.29052 -2.38924 0
M  V30 13317 H 1265.23 -2.86508 0.879403 0
M  V30 13318 H 1262.8 -1.49877 0.612245 0
M  V30 13319 H 1264.79 -3.764 -1.48678 0
M  V30 13320 H 1263.36 -2.70471 -1.5673 0
M  V30 13321 H 1262.58 -3.89363 0.615617 0
M  V30 13322 H 1263.87 -5.07732 0.329525 0
M  V30 13323 H 1263.26 -4.88892 -2.84607 0
M  V30 13324 H 1261.82 -5.81658 -2.94139 0
M  V30 13325 N 1265.25 -0.510493 -1.49103 0
M  V30 13326 C 1266.22 0.251915 -2.27811 0
M  V30 13327 C 1267.22 0.885432 -1.34226 0
M  V30 13328 O 1268.41 0.748494 -1.573 0
M  V30 13329 C 1265.54 1.3624 -3.12492 0
M  V30 13330 H 1266.73 -0.438872 -2.96671 0
M  V30 13331 H 1264.28 -0.265767 -1.54024 0
M  V30 13332 H 1265.02 2.08705 -2.48219 0
M  V30 13333 H 1264.8 0.913485 -3.81311 0
M  V30 13334 H 1266.29 1.89919 -3.71915 0
M  V30 13335 N 1266.73 1.55688 -0.24474 0
M  V30 13336 C 1267.69 2.20014 0.642382 0
M  V30 13337 C 1268.69 1.16877 1.10437 0
M  V30 13338 O 1269.88 1.41972 1.00943 0
M  V30 13339 C 1267.02 2.84198 1.88267 0
M  V30 13340 H 1268.21 2.9979 0.0811937 0
M  V30 13341 H 1265.76 1.56299 0.00480917 0
M  V30 13342 H 1266.5 2.08354 2.48514 0
M  V30 13343 H 1266.28 3.59747 1.55963 0
M  V30 13344 H 1267.77 3.33434 2.5142 0
M  V30 13345 N 1268.21 -0.0283989 1.57574 0
M  V30 13346 C 1269.14 -1.06191 2.01987 0
M  V30 13347 C 1270.12 -1.35131 0.90434 0
M  V30 13348 O 1271.3 -1.47777 1.17023 0
M  V30 13349 C 1268.43 -2.39646 2.39348 0
M  V30 13350 C 1267.48 -2.26558 3.6135 0
M  V30 13351 S 1268.31 -1.61839 5.10459 0
M  V30 13352 C 1269.47 -2.96783 5.51063 0
M  V30 13353 H 1269.7 -0.683625 2.89333 0
M  V30 13354 H 1267.23 -0.238394 1.52548 0
M  V30 13355 H 1269.19 -3.16394 2.61544 0
M  V30 13356 H 1267.85 -2.74622 1.52452 0
M  V30 13357 H 1267.04 -3.25079 3.85149 0
M  V30 13358 H 1266.65 -1.57954 3.39008 0
M  V30 13359 H 1268.94 -3.93111 5.51788 0
M  V30 13360 H 1269.88 -2.77716 6.51367 0
M  V30 13361 H 1270.29 -2.99386 4.78569 0
M  V30 13362 N 1269.69 -1.54705 -0.300681 0
M  V30 13363 C 1270.93 -1.74001 -1.03585 0
M  V30 13364 C 1271.26 -0.525972 -1.87253 0
M  V30 13365 O 1270.52 0.492068 -1.89413 0
M  V30 13366 C 1270.82 -2.98173 -1.97047 0
M  V30 13367 C 1270.48 -4.31948 -1.29352 0
M  V30 13368 C 1269.14 -4.68312 -1.10623 0
M  V30 13369 C 1271.5 -5.14874 -0.809594 0
M  V30 13370 C 1268.82 -5.85181 -0.42185 0
M  V30 13371 C 1271.18 -6.32447 -0.138935 0
M  V30 13372 C 1269.84 -6.67473 0.0603129 0
M  V30 13373 H 1269.11 -0.636716 -0.379044 0
M  V30 13374 H 1271.76 -1.88963 -0.310697 0
M  V30 13375 H 1270.06 -2.77994 -2.76091 0
M  V30 13376 H 1271.76 -3.10297 -2.54001 0
M  V30 13377 H 1268.35 -4.0335 -1.44937 0
M  V30 13378 H 1272.53 -4.87278 -0.942006 0
M  V30 13379 H 1267.79 -6.10862 -0.256494 0
M  V30 13380 H 1271.96 -6.95973 0.243939 0
M  V30 13381 H 1269.59 -7.57887 0.592626 0
M  V30 13382 N 1271.17 0.563888 -1.47167 0
M  V30 13383 C 1272.1 1.68655 -1.55204 0
M  V30 13384 C 1273.11 1.56776 -0.438769 0
M  V30 13385 O 1274.3 1.63856 -0.708059 0
M  V30 13386 C 1271.4 3.07068 -1.43396 0
M  V30 13387 C 1270.57 3.44767 -2.69174 0
M  V30 13388 C 1269.63 4.62316 -2.51298 0
M  V30 13389 O 1268.66 4.67231 -3.2509 0
M  V30 13390 N 1269.86 5.58389 -1.58688 0
M  V30 13391 H 1272.63 1.62209 -2.52009 0
M  V30 13392 H 1270.19 0.750359 -1.43462 0
M  V30 13393 H 1272.18 3.83529 -1.29181 0
M  V30 13394 H 1270.75 3.07777 -0.546997 0
M  V30 13395 H 1269.97 2.57821 -2.98198 0
M  V30 13396 H 1271.26 3.66726 -3.52689 0
M  V30 13397 H 1270.65 5.57169 -0.978737 0
M  V30 13398 H 1269.21 6.34204 -1.50428 0
M  V30 13399 N 1272.64 1.35187 0.810078 0
M  V30 13400 C 1273.89 1.28454 1.56931 0
M  V30 13401 C 1274.22 -0.141747 1.93682 0
M  V30 13402 O 1273.5 -1.09028 1.61069 0
M  V30 13403 C 1273.78 2.18771 2.86027 0
M  V30 13404 C 1273.63 3.69999 2.55774 0
M  V30 13405 C 1274.95 2.08265 3.87703 0
M  V30 13406 H 1272.07 0.467959 0.569371 0
M  V30 13407 H 1274.71 1.65556 0.932262 0
M  V30 13408 H 1272.86 1.8726 3.40391 0
M  V30 13409 H 1274.54 4.11936 2.07621 0
M  V30 13410 H 1272.78 3.90453 1.89021 0
M  V30 13411 H 1273.45 4.28577 3.47888 0
M  V30 13412 H 1275.93 2.35958 3.42729 0
M  V30 13413 H 1274.8 2.73663 4.75815 0
M  V30 13414 H 1275.06 1.06352 4.29117 0
M  V30 13415 N 1274.12 -1.03182 1.19127 0
M  V30 13416 C 1275.37 -1.76184 0.990134 0
M  V30 13417 C 1275.69 -1.88986 -0.480546 0
M  V30 13418 O 1274.96 -1.4213 -1.34817 0
M  V30 13419 H 1273.54 -0.652668 0.363364 0
M  V30 13420 H 1276.2 -1.24481 1.49968 0
M  V30 13421 H 1275.3 -2.77119 1.43568 0
M  V30 13422 N 1275.6 -0.99472 -1.22242 0
M  V30 13423 C 1276.53 -0.491445 -2.22845 0
M  V30 13424 C 1277.51 0.449265 -1.5627 0
M  V30 13425 O 1278.7 0.374386 -1.84745 0
M  V30 13426 C 1275.82 0.287355 -3.37479 0
M  V30 13427 C 1274.87 -0.599617 -4.22264 0
M  V30 13428 S 1275.7 -2.05599 -4.94459 0
M  V30 13429 C 1276.86 -1.28673 -6.12531 0
M  V30 13430 H 1277.09 -1.34393 -2.6519 0
M  V30 13431 H 1274.62 -0.801833 -1.31947 0
M  V30 13432 H 1276.58 0.730646 -4.03945 0
M  V30 13433 H 1275.24 1.11514 -2.93638 0
M  V30 13434 H 1274.44 -0.000289277 -5.04 0
M  V30 13435 H 1274.04 -0.979748 -3.60939 0
M  V30 13436 H 1276.33 -0.555315 -6.7522 0
M  V30 13437 H 1277.27 -2.07943 -6.76879 0
M  V30 13438 H 1277.68 -0.79922 -5.58814 0
M  V30 13439 N 1277.08 1.37613 -0.768148 0
M  V30 13440 C 1278.31 2.03756 -0.341615 0
M  V30 13441 C 1278.72 1.58063 1.03984 0
M  V30 13442 O 1278.06 0.755609 1.6744 0
M  V30 13443 C 1278.12 3.58229 -0.302032 0
M  V30 13444 C 1277.79 4.27039 -1.62747 0
M  V30 13445 C 1278.78 4.51408 -2.57928 0
M  V30 13446 C 1276.47 4.64941 -1.90092 0
M  V30 13447 C 1278.46 5.12731 -3.78663 0
M  V30 13448 C 1276.15 5.25986 -3.11098 0
M  V30 13449 C 1277.15 5.49818 -4.05203 0
M  V30 13450 O 1276.83 6.09588 -5.24078 0
M  V30 13451 H 1276.57 0.660992 -0.141655 0
M  V30 13452 H 1279.12 1.77001 -1.04211 0
M  V30 13453 H 1277.35 3.84016 0.454811 0
M  V30 13454 H 1279.04 4.05784 0.0969452 0
M  V30 13455 H 1279.81 4.22542 -2.38083 0
M  V30 13456 H 1275.68 4.45729 -1.17674 0
M  V30 13457 H 1279.23 5.31249 -4.52129 0
M  V30 13458 H 1275.13 5.54276 -3.3083 0
M  V30 13459 H 1275.89 6.28068 -5.24855 0
M  V30 13460 N 1278.56 0.518393 1.4883 0
M  V30 13461 C 1279.5 -0.250684 2.29435 0
M  V30 13462 C 1280.47 -0.944481 1.36634 0
M  V30 13463 O 1281.66 -0.947766 1.65596 0
M  V30 13464 C 1278.8 -1.29871 3.1973 0
M  V30 13465 C 1277.91 -0.61493 4.27601 0
M  V30 13466 C 1277.05 -1.64489 5.05091 0
M  V30 13467 C 1276.09 -0.943932 6.04778 0
M  V30 13468 N 1275.22 -1.91889 6.75369 0
M  V30 13469 H 1280.06 0.44288 2.94691 0
M  V30 13470 H 1277.6 0.230246 1.45287 0
M  V30 13471 H 1279.56 -1.91851 3.70471 0
M  V30 13472 H 1278.19 -1.96081 2.56422 0
M  V30 13473 H 1277.24 0.118552 3.80215 0
M  V30 13474 H 1278.55 -0.063994 4.98759 0
M  V30 13475 H 1277.71 -2.33928 5.59788 0
M  V30 13476 H 1276.44 -2.2297 4.33746 0
M  V30 13477 H 1275.45 -0.235407 5.49296 0
M  V30 13478 H 1276.67 -0.365383 6.78116 0
M  V30 13479 H 1274.62 -2.493 6.06783 0
M  V30 13480 H 1274.54 -1.41909 7.42562 0
M  V30 13481 H 1275.81 -2.60563 7.34661 0
M  V30 13482 N 1280.03 -1.55556 0.252993 0
M  V30 13483 C 1281.28 -1.99385 -0.370599 0
M  V30 13484 C 1281.61 -1.14101 -1.57145 0
M  V30 13485 O 1280.89 -0.205828 -1.93408 0
M  V30 13486 C 1281.17 -3.51672 -0.774503 0
M  V30 13487 C 1281.02 -4.47719 0.432159 0
M  V30 13488 C 1282.34 -4.0923 -1.61923 0
M  V30 13489 H 1279.46 -0.724858 -0.133231 0
M  V30 13490 H 1282.1 -1.86644 0.355522 0
M  V30 13491 H 1280.25 -3.62661 -1.39318 0
M  V30 13492 H 1281.93 -4.48704 1.07063 0
M  V30 13493 H 1280.17 -4.2029 1.07419 0
M  V30 13494 H 1280.84 -5.51898 0.106123 0
M  V30 13495 H 1283.32 -4.01381 -1.09693 0
M  V30 13496 H 1282.19 -5.16039 -1.87068 0
M  V30 13497 H 1282.45 -3.58067 -2.59307 0
M  V30 13498 N 1281.51 0.0200419 -1.57587 0
M  V30 13499 C 1282.46 1.0259 -2.03615 0
M  V30 13500 C 1283.45 1.31504 -0.927116 0
M  V30 13501 O 1284.64 1.30938 -1.19098 0
M  V30 13502 C 1281.77 2.32424 -2.52654 0
M  V30 13503 C 1280.85 2.06561 -3.70396 0
M  V30 13504 N 1281.24 1.50787 -4.82801 0
M  V30 13505 C 1279.54 2.36802 -3.77943 0
M  V30 13506 C 1280.24 1.40935 -5.64369 0
M  V30 13507 N 1279.22 1.88806 -5.09758 0
M  V30 13508 H 1283.02 0.588835 -2.87941 0
M  V30 13509 H 1280.54 0.226163 -1.60817 0
M  V30 13510 H 1282.53 3.05303 -2.83894 0
M  V30 13511 H 1281.19 2.76801 -1.69738 0
M  V30 13512 H 1282.2 1.18935 -5.04058 0
M  V30 13513 H 1278.88 2.84192 -3.05845 0
M  V30 13514 H 1280.27 0.982261 -6.64681 0
M  V30 13515 N 1282.99 1.54862 0.292472 0
M  V30 13516 C 1284.4 1.65459 0.864891 0
M  V30 13517 C 1284.75 0.568808 1.87774 0
M  V30 13518 O 1283.88 -0.293107 2.14406 0
M  V30 13519 C 1284.47 2.99939 1.5755 0
M  V30 13520 C 1283.03 3.12628 2.09621 0
M  V30 13521 C 1282.18 2.61179 0.931713 0
M  V30 13522 H 1285.13 1.58549 0.0692679 0
M  V30 13523 H 1285.15 2.91839 2.44152 0
M  V30 13524 H 1284.66 3.78943 0.838088 0
M  V30 13525 H 1282.76 2.3836 2.86383 0
M  V30 13526 H 1282.88 4.18911 2.32488 0
M  V30 13527 H 1281.24 2.17846 1.31967 0
M  V30 13528 H 1282.02 3.42669 0.208121 0
M  V30 13529 N 1284.47 -0.556076 1.47464 0
M  V30 13530 C 1285.88 -1.1382 1.47993 0
M  V30 13531 C 1286.23 -1.94785 0.235249 0
M  V30 13532 O 1285.36 -2.06098 -0.659752 0
M  V30 13533 C 1285.95 -2.07082 2.68146 0
M  V30 13534 C 1284.51 -2.60564 2.71631 0
M  V30 13535 C 1283.66 -1.36967 2.41113 0
M  V30 13536 H 1286.61 -0.34262 1.54957 0
M  V30 13537 H 1286.63 -2.90975 2.45181 0
M  V30 13538 H 1286.14 -1.48127 3.5872 0
M  V30 13539 H 1284.24 -3.23314 1.852 0
M  V30 13540 H 1284.35 -3.0148 3.72353 0
M  V30 13541 H 1282.72 -1.67678 1.91719 0
M  V30 13542 H 1283.5 -0.79803 3.33896 0
M  V30 13543 N 1285.95 -1.35615 -0.802897 0
M  V30 13544 C 1286.88 -1.23192 -1.92091 0
M  V30 13545 C 1287.86 -0.118995 -1.62164 0
M  V30 13546 O 1289.04 -0.287743 -1.86291 0
M  V30 13547 C 1286.17 -0.897699 -3.26587 0
M  V30 13548 C 1285.22 -2.02319 -3.75459 0
M  V30 13549 S 1286.05 -3.63938 -3.92822 0
M  V30 13550 C 1287.2 -3.32601 -5.30215 0
M  V30 13551 H 1287.44 -2.17825 -2.02335 0
M  V30 13552 H 1284.97 -1.20873 -0.960675 0
M  V30 13553 H 1286.93 -0.711674 -4.04284 0
M  V30 13554 H 1285.59 0.0306305 -3.14085 0
M  V30 13555 H 1284.78 -1.74357 -4.7288 0
M  V30 13556 H 1284.38 -2.16774 -3.04771 0
M  V30 13557 H 1286.68 -2.85658 -6.14334 0
M  V30 13558 H 1287.62 -4.29236 -5.63172 0
M  V30 13559 H 1288.03 -2.68279 -4.96676 0
M  V30 13560 N 1287.43 1.02549 -1.19673 0
M  V30 13561 C 1288.84 1.57454 -1.00325 0
M  V30 13562 C 1289.19 1.91136 0.442889 0
M  V30 13563 O 1288.31 1.7126 1.32284 0
M  V30 13564 C 1288.91 2.86091 -1.81486 0
M  V30 13565 C 1287.47 3.37557 -1.6653 0
M  V30 13566 C 1286.61 2.1096 -1.79975 0
M  V30 13567 H 1289.56 0.850364 -1.33994 0
M  V30 13568 H 1289.59 3.5713 -1.31296 0
M  V30 13569 H 1289.1 2.61546 -2.86733 0
M  V30 13570 H 1287.2 3.67083 -0.638834 0
M  V30 13571 H 1287.31 4.1036 -2.47269 0
M  V30 13572 H 1285.68 2.22993 -1.23071 0
M  V30 13573 H 1286.46 1.88852 -2.86688 0
M  V30 13574 N 1288.9 1.00119 1.21713 0
M  V30 13575 C 1290.13 0.700172 1.95224 0
M  V30 13576 C 1290.55 -0.730138 1.73351 0
M  V30 13577 O 1289.91 -1.50026 1.01794 0
M  V30 13578 C 1289.96 1.02202 3.45814 0
M  V30 13579 O 1289.06 0.125188 4.1221 0
M  V30 13580 H 1288.4 0.261238 0.610451 0
M  V30 13581 H 1290.93 1.34041 1.54578 0
M  V30 13582 H 1290.94 0.967293 3.96368 0
M  V30 13583 H 1289.62 2.06422 3.61058 0
M  V30 13584 H 1288.2 0.236114 3.72152 0
M  V30 13585 N 1290.38 -1.37203 0.775435 0
M  V30 13586 C 1291.61 -2.04396 0.351737 0
M  V30 13587 C 1292.03 -1.58099 -1.01913 0
M  V30 13588 O 1291.39 -0.742932 -1.65379 0
M  V30 13589 C 1291.44 -3.58283 0.408105 0
M  V30 13590 O 1290.54 -4.08156 -0.590104 0
M  V30 13591 H 1289.88 -0.646451 0.151647 0
M  V30 13592 H 1292.41 -1.75443 1.05265 0
M  V30 13593 H 1292.42 -4.07127 0.266711 0
M  V30 13594 H 1291.1 -3.91335 1.40819 0
M  V30 13595 H 1289.67 -3.70622 -0.411524 0
M  V30 13596 N 1291.86 -0.526279 -1.48553 0
M  V30 13597 C 1292.79 0.227364 -2.3239 0
M  V30 13598 C 1293.77 0.93862 -1.41859 0
M  V30 13599 O 1294.96 0.925119 -1.70749 0
M  V30 13600 C 1292.09 1.277 -3.22971 0
M  V30 13601 C 1291.04 0.684107 -4.22497 0
M  V30 13602 C 1290.37 1.83612 -5.02186 0
M  V30 13603 C 1291.67 -0.341723 -5.21181 0
M  V30 13604 H 1293.36 -0.472486 -2.95648 0
M  V30 13605 H 1290.91 -0.228669 -1.42173 0
M  V30 13606 H 1292.86 1.81215 -3.80446 0
M  V30 13607 H 1291.58 2.00638 -2.57705 0
M  V30 13608 H 1290.24 0.170505 -3.66203 0
M  V30 13609 H 1289.89 2.55379 -4.33348 0
M  V30 13610 H 1289.59 1.44536 -5.69547 0
M  V30 13611 H 1291.11 2.37513 -5.62512 0
M  V30 13612 H 1292.53 0.106207 -5.73202 0
M  V30 13613 H 1290.92 -0.649673 -5.96573 0
M  V30 13614 H 1291.99 -1.2488 -4.68543 0
M  V30 13615 N 1293.34 1.5542 -0.261239 0
M  V30 13616 C 1294.56 2.04142 0.366144 0
M  V30 13617 C 1294.99 1.13884 1.49706 0
M  V30 13618 O 1294.35 0.134629 1.80799 0
M  V30 13619 C 1294.39 3.50733 0.837774 0
M  V30 13620 O 1293.5 3.63588 1.94621 0
M  V30 13621 H 1292.84 0.659424 0.077821 0
M  V30 13622 H 1295.37 2.0082 -0.391487 0
M  V30 13623 H 1295.38 3.91831 1.13721 0
M  V30 13624 H 1294.05 4.15899 0.0102742 0
M  V30 13625 H 1292.63 3.34391 1.65037 0
M  V30 13626 N 1294.82 -0.0116844 1.57596 0
M  V30 13627 C 1295.78 -0.991601 2.0664 0
M  V30 13628 C 1296.78 -1.27973 0.973629 0
M  V30 13629 O 1297.97 -1.22686 1.23668 0
M  V30 13630 C 1295.1 -2.31975 2.49801 0
M  V30 13631 H 1296.29 -0.567607 2.9448 0
M  V30 13632 H 1293.85 -0.258906 1.54141 0
M  V30 13633 H 1294.58 -2.79087 1.65169 0
M  V30 13634 H 1294.37 -2.12386 3.29598 0
M  V30 13635 H 1295.86 -3.02294 2.88112 0
M  V30 13636 N 1296.29 -1.55015 -0.284256 0
M  V30 13637 C 1297.2 -1.90203 -1.37332 0
M  V30 13638 C 1298.22 -0.797994 -1.54622 0
M  V30 13639 O 1299.4 -1.09602 -1.68965 0
M  V30 13640 C 1296.46 -2.15687 -2.71441 0
M  V30 13641 C 1295.52 -3.39313 -2.62993 0
M  V30 13642 C 1294.75 -3.63571 -3.90707 0
M  V30 13643 O 1294.98 -2.90538 -4.9086 0
M  V30 13644 O 1293.91 -4.57102 -3.91589 0
M  V30 13645 H 1297.74 -2.82888 -1.1049 0
M  V30 13646 H 1295.32 -1.41418 -0.481798 0
M  V30 13647 H 1297.2 -2.33553 -3.50758 0
M  V30 13648 H 1295.88 -1.26185 -2.98092 0
M  V30 13649 H 1294.79 -3.26793 -1.82091 0
M  V30 13650 H 1296.12 -4.28997 -2.41293 0
M  V30 13651 N 1297.77 0.548248 -1.47757 0
M  V30 13652 C 1298.73 1.63666 -1.60456 0
M  V30 13653 C 1299.73 1.53499 -0.479028 0
M  V30 13654 O 1300.92 1.57497 -0.744342 0
M  V30 13655 C 1298.06 3.03239 -1.55754 0
M  V30 13656 H 1299.25 1.53752 -2.57488 0
M  V30 13657 H 1296.8 0.768881 -1.36081 0
M  V30 13658 H 1297.54 3.18677 -0.601303 0
M  V30 13659 H 1297.32 3.12027 -2.37448 0
M  V30 13660 H 1298.81 3.82406 -1.67797 0
M  V30 13661 N 1299.25 1.36039 0.795694 0
M  V30 13662 C 1300.18 1.25713 1.91648 0
M  V30 13663 C 1301.19 0.177993 1.61824 0
M  V30 13664 O 1302.38 0.432186 1.73189 0
M  V30 13665 C 1299.48 0.915546 3.26299 0
M  V30 13666 C 1298.66 2.09528 3.83949 0
M  V30 13667 C 1297.72 1.72775 4.97026 0
M  V30 13668 O 1296.74 2.44786 5.13876 0
M  V30 13669 N 1297.94 0.65775 5.76762 0
M  V30 13670 H 1300.71 2.22277 2.01029 0
M  V30 13671 H 1298.27 1.2935 0.973657 0
M  V30 13672 H 1300.26 0.650958 3.9943 0
M  V30 13673 H 1298.83 0.0392343 3.12575 0
M  V30 13674 H 1298.05 2.52304 3.0288 0
M  V30 13675 H 1299.34 2.88361 4.19196 0
M  V30 13676 H 1298.74 0.0596875 5.65669 0
M  V30 13677 H 1297.29 0.45297 6.50224 0
M  V30 13678 N 1300.73 -1.01913 1.20215 0
M  V30 13679 C 1301.69 -2.08563 0.950481 0
M  V30 13680 C 1302.69 -1.60634 -0.0729659 0
M  V30 13681 O 1303.88 -1.73437 0.162826 0
M  V30 13682 C 1301.01 -3.38171 0.430453 0
M  V30 13683 H 1302.21 -2.32323 1.89647 0
M  V30 13684 H 1299.76 -1.18674 1.01716 0
M  V30 13685 H 1300.49 -3.20086 -0.521126 0
M  V30 13686 H 1300.28 -3.74284 1.1685 0
M  V30 13687 H 1301.77 -4.16702 0.273781 0
M  V30 13688 N 1302.21 -1.00763 -1.2118 0
M  V30 13689 C 1303.45 -0.691826 -1.90316 0
M  V30 13690 C 1303.78 0.777678 -1.78276 0
M  V30 13691 O 1303.04 1.57962 -1.15526 0
M  V30 13692 C 1303.34 -1.06187 -3.41261 0
M  V30 13693 C 1303 -2.52608 -3.73497 0
M  V30 13694 C 1301.66 -2.92617 -3.82006 0
M  V30 13695 C 1304.02 -3.47442 -3.88502 0
M  V30 13696 C 1301.34 -4.26419 -4.02969 0
M  V30 13697 C 1303.7 -4.8092 -4.10973 0
M  V30 13698 C 1302.36 -5.20649 -4.17709 0
M  V30 13699 H 1301.63 -0.253157 -0.696414 0
M  V30 13700 H 1304.28 -1.26655 -1.43634 0
M  V30 13701 H 1302.58 -0.405428 -3.89697 0
M  V30 13702 H 1304.28 -0.795343 -3.93033 0
M  V30 13703 H 1300.87 -2.20603 -3.67468 0
M  V30 13704 H 1305.05 -3.17695 -3.81292 0
M  V30 13705 H 1300.31 -4.56767 -4.06416 0
M  V30 13706 H 1304.48 -5.54337 -4.21525 0
M  V30 13707 H 1302.11 -6.24343 -4.33705 0
M  V30 13708 N 1303.68 1.3679 -0.7827 0
M  V30 13709 C 1304.61 2.32721 -0.190604 0
M  V30 13710 C 1305.6 1.56321 0.670663 0
M  V30 13711 O 1306.78 1.84507 0.605871 0
M  V30 13712 C 1303.91 3.40564 0.680717 0
M  V30 13713 C 1302.86 4.27925 -0.080118 0
M  V30 13714 C 1302.19 5.26876 0.911361 0
M  V30 13715 C 1303.49 5.06738 -1.26545 0
M  V30 13716 H 1305.18 2.82488 -0.992023 0
M  V30 13717 H 1302.73 1.35818 -0.478484 0
M  V30 13718 H 1304.68 4.06659 1.10482 0
M  V30 13719 H 1303.41 2.89348 1.51477 0
M  V30 13720 H 1302.07 3.63376 -0.485125 0
M  V30 13721 H 1301.71 4.71936 1.74026 0
M  V30 13722 H 1301.41 5.8619 0.406762 0
M  V30 13723 H 1302.94 5.95846 1.33418 0
M  V30 13724 H 1304.35 5.65911 -0.917448 0
M  V30 13725 H 1302.75 5.75432 -1.70289 0
M  V30 13726 H 1303.82 4.38772 -2.06415 0
M  V30 13727 N 1305.16 0.53415 1.48272 0
M  V30 13728 C 1306.09 -0.215037 2.32508 0
M  V30 13729 C 1307.07 -0.931083 1.42355 0
M  V30 13730 O 1308.26 -0.916051 1.71237 0
M  V30 13731 C 1305.39 -1.25985 3.23643 0
M  V30 13732 C 1304.34 -0.661692 4.22854 0
M  V30 13733 C 1303.67 -1.80946 5.03153 0
M  V30 13734 C 1304.97 0.369358 5.20992 0
M  V30 13735 H 1306.66 0.488158 2.95394 0
M  V30 13736 H 1304.21 0.236206 1.4205 0
M  V30 13737 H 1306.16 -1.79195 3.81402 0
M  V30 13738 H 1304.89 -1.99268 2.58766 0
M  V30 13739 H 1303.54 -0.151082 3.66289 0
M  V30 13740 H 1303.19 -2.53077 4.34696 0
M  V30 13741 H 1302.89 -1.41513 5.70305 0
M  V30 13742 H 1304.42 -2.34526 5.63764 0
M  V30 13743 H 1305.83 -0.0758076 5.7325 0
M  V30 13744 H 1304.23 0.681301 5.9622 0
M  V30 13745 H 1305.3 1.27363 4.67875 0
M  V30 13746 N 1306.64 -1.55279 0.269478 0
M  V30 13747 C 1308.06 -1.59374 -0.0848147 0
M  V30 13748 C 1308.26 -1.2867 -1.55068 0
M  V30 13749 O 1307.31 -1.04486 -2.29867 0
M  V30 13750 C 1308.63 -2.99349 0.284735 0
M  V30 13751 C 1310.17 -3.12147 0.230887 0
M  V30 13752 C 1310.65 -4.54379 0.574795 0
M  V30 13753 N 1312.14 -4.60202 0.526136 0
M  V30 13754 C 1312.87 -5.68273 0.765109 0
M  V30 13755 N 1312.37 -6.84512 1.0684 0
M  V30 13756 N 1314.16 -5.57796 0.694287 0
M  V30 13757 H 1306.31 -1.73503 1.22517 0
M  V30 13758 H 1308.58 -0.808771 0.494564 0
M  V30 13759 H 1308.28 -3.26633 1.30398 0
M  V30 13760 H 1308.16 -3.75309 -0.377199 0
M  V30 13761 H 1310.54 -2.84631 -0.779064 0
M  V30 13762 H 1310.63 -2.38412 0.926998 0
M  V30 13763 H 1310.27 -4.8262 1.58241 0
M  V30 13764 H 1310.2 -5.26406 -0.143044 0
M  V30 13765 H 1312.69 -3.76696 0.301368 0
M  V30 13766 H 1313 -7.62826 1.23757 0
M  V30 13767 H 1311.35 -6.86141 1.10612 0
M  V30 13768 H 1314.54 -4.65862 0.457226 0
M  V30 13769 H 1314.71 -6.41943 0.883913 0
M  V30 13770 N 1308.12 0.00332656 -1.576 0
M  V30 13771 C 1309.35 0.699945 -1.94701 0
M  V30 13772 C 1309.76 1.67492 -0.871312 0
M  V30 13773 O 1309.12 1.81882 0.150054 0
M  V30 13774 C 1309.17 1.43471 -3.31811 0
M  V30 13775 O 1308.89 0.498835 -4.35251 0
M  V30 13776 C 1310.39 2.22614 -3.83351 0
M  V30 13777 H 1307.61 0.195158 -0.641993 0
M  V30 13778 H 1310.16 -0.0468044 -2.04446 0
M  V30 13779 H 1308.31 2.13311 -3.23384 0
M  V30 13780 H 1308.72 1.01688 -5.14548 0
M  V30 13781 H 1310.2 2.69527 -4.81725 0
M  V30 13782 H 1310.68 3.05146 -3.15883 0
M  V30 13783 H 1311.28 1.57796 -3.94944 0
M  V30 13784 N 1309.6 1.55164 0.276031 0
M  V30 13785 C 1310.84 1.75627 1.00803 0
M  V30 13786 C 1311.17 0.555696 1.86393 0
M  V30 13787 O 1310.43 -0.461872 1.90172 0
M  V30 13788 C 1310.73 3.0127 1.92279 0
M  V30 13789 C 1310.39 4.33951 1.22464 0
M  V30 13790 C 1309.05 4.70013 1.03158 0
M  V30 13791 C 1311.41 5.16097 0.72758 0
M  V30 13792 C 1308.73 5.85779 0.328699 0
M  V30 13793 C 1311.09 6.32588 0.0383001 0
M  V30 13794 C 1309.75 6.67292 -0.166494 0
M  V30 13795 H 1309.02 0.642665 0.368866 0
M  V30 13796 H 1311.67 1.89433 0.280595 0
M  V30 13797 H 1309.97 2.82351 2.71634 0
M  V30 13798 H 1311.67 3.14299 2.49032 0
M  V30 13799 H 1308.26 4.05605 1.38501 0
M  V30 13800 H 1312.44 4.88715 0.864365 0
M  V30 13801 H 1307.7 6.11192 0.159279 0
M  V30 13802 H 1311.87 6.95496 -0.354631 0
M  V30 13803 H 1309.5 7.56848 -0.713124 0
M  V30 13804 N 1311.07 -0.540404 1.48045 0
M  V30 13805 C 1311.98 -1.67308 1.64455 0
M  V30 13806 C 1313 -1.65823 0.527152 0
M  V30 13807 O 1314.18 -1.84964 0.796881 0
M  V30 13808 C 1311.24 -3.03792 1.67068 0
M  V30 13809 C 1310.3 -3.16213 2.90358 0
M  V30 13810 C 1309.54 -4.46187 2.92837 0
M  V30 13811 O 1309.76 -5.32662 2.04029 0
M  V30 13812 O 1308.69 -4.62754 3.84892 0
M  V30 13813 H 1312.52 -1.56403 2.6033 0
M  V30 13814 H 1310.1 -0.712323 1.31325 0
M  V30 13815 H 1311.99 -3.84982 1.71368 0
M  V30 13816 H 1310.66 -3.15043 0.74363 0
M  V30 13817 H 1309.57 -2.34357 2.91595 0
M  V30 13818 H 1310.9 -3.09874 3.82412 0
M  V30 13819 N 1312.55 -1.36459 -0.788468 0
M  V30 13820 C 1313.96 -1.27515 -1.3637 0
M  V30 13821 C 1314.31 0.0846251 -1.96017 0
M  V30 13822 O 1313.44 0.98611 -1.92626 0
M  V30 13823 C 1314.03 -2.30903 -2.4793 0
M  V30 13824 C 1312.59 -2.25645 -3.01266 0
M  V30 13825 C 1311.74 -2.15631 -1.74352 0
M  V30 13826 H 1314.69 -1.47324 -0.590039 0
M  V30 13827 H 1314.71 -1.94601 -3.26972 0
M  V30 13828 H 1314.22 -3.29858 -2.04487 0
M  V30 13829 H 1312.33 -1.3016 -3.49126 0
M  V30 13830 H 1312.44 -3.18373 -3.58016 0
M  V30 13831 H 1310.8 -1.61901 -1.96622 0
M  V30 13832 H 1311.59 -3.16475 -1.33036 0
M  V30 13833 N 1314.03 1.01274 -1.20754 0
M  V30 13834 C 1315.31 1.7213 -0.929008 0
M  V30 13835 C 1315.69 2.03503 0.561217 0
M  V30 13836 O 1315.04 1.70259 1.52395 0
M  V30 13837 C 1315.25 2.98636 -1.80603 0
M  V30 13838 C 1316.59 3.71823 -2.0502 0
M  V30 13839 O 1317.62 3.08601 -1.77888 0
M  V30 13840 O 1316.48 4.8552 -2.50864 0
M  V30 13841 H 1313.57 0.750361 -0.347689 0
M  V30 13842 H 1316.12 1.07086 -1.31646 0
M  V30 13843 H 1314.89 2.71803 -2.81494 0
M  V30 13844 H 1314.51 3.7142 -1.4189 0
M  V30 13845 N 1315.51 1.01404 1.20644 0
M  V30 13846 C 1316.92 0.73386 1.71672 0
M  V30 13847 C 1317.27 -0.747803 1.8139 0
M  V30 13848 O 1316.4 -1.58372 1.47469 0
M  V30 13849 C 1316.99 1.32549 3.11795 0
M  V30 13850 C 1315.55 1.09423 3.60144 0
M  V30 13851 C 1314.7 1.43275 2.37419 0
M  V30 13852 H 1317.65 1.18383 1.05694 0
M  V30 13853 H 1317.67 0.714749 3.73727 0
M  V30 13854 H 1317.18 2.40386 3.0469 0
M  V30 13855 H 1315.28 0.0334113 3.72585 0
M  V30 13856 H 1315.4 1.77248 4.45107 0
M  V30 13857 H 1313.76 0.851714 2.40037 0
M  V30 13858 H 1314.54 2.52163 2.32957 0
M  V30 13859 N 1316.99 -1.36373 0.789944 0
M  V30 13860 C 1318.4 -1.52471 0.471686 0
M  V30 13861 C 1318.6 -1.74365 -1.0099 0
M  V30 13862 O 1317.66 -1.77546 -1.79538 0
M  V30 13863 C 1318.97 -2.71022 1.30259 0
M  V30 13864 C 1320.52 -2.84893 1.29633 0
M  V30 13865 C 1321 -4.0645 2.11098 0
M  V30 13866 N 1322.49 -4.13597 2.08547 0
M  V30 13867 C 1323.22 -5.06731 2.6835 0
M  V30 13868 N 1322.72 -6.05305 3.37013 0
M  V30 13869 N 1324.51 -4.9935 2.58081 0
M  V30 13870 H 1316.66 -1.20416 1.74968 0
M  V30 13871 H 1318.92 -0.587782 0.743785 0
M  V30 13872 H 1318.63 -2.61368 2.35329 0
M  V30 13873 H 1318.5 -3.6519 0.944254 0
M  V30 13874 H 1320.89 -2.94009 0.253542 0
M  V30 13875 H 1320.97 -1.91632 1.69443 0
M  V30 13876 H 1320.62 -3.98096 3.15408 0
M  V30 13877 H 1320.55 -4.98861 1.68659 0
M  V30 13878 H 1323.04 -3.4302 1.58573 0
M  V30 13879 H 1323.35 -6.72934 3.79974 0
M  V30 13880 H 1321.7 -6.05529 3.41116 0
M  V30 13881 H 1324.89 -4.21291 2.04039 0
M  V30 13882 H 1325.06 -5.71745 3.04979 0
M  V30 13883 N 1318.47 -0.542005 -1.47987 0
M  V30 13884 C 1319.4 0.202703 -2.32618 0
M  V30 13885 C 1320.38 0.923521 -1.42846 0
M  V30 13886 O 1321.56 0.906957 -1.7172 0
M  V30 13887 C 1318.69 1.24267 -3.24307 0
M  V30 13888 C 1317.65 0.639257 -4.23199 0
M  V30 13889 C 1316.97 1.78275 -5.04105 0
M  V30 13890 C 1318.27 -0.396982 -5.20789 0
M  V30 13891 H 1319.97 -0.503817 -2.95131 0
M  V30 13892 H 1317.51 -0.243736 -1.41922 0
M  V30 13893 H 1319.46 1.7717 -3.82347 0
M  V30 13894 H 1318.19 1.97893 -2.59819 0
M  V30 13895 H 1316.85 0.131655 -3.66364 0
M  V30 13896 H 1316.5 2.50768 -4.36032 0
M  V30 13897 H 1316.2 1.38487 -5.71047 0
M  V30 13898 H 1317.72 2.31533 -5.65 0
M  V30 13899 H 1319.13 0.0454057 -5.73282 0
M  V30 13900 H 1317.53 -0.712911 -5.9585 0
M  V30 13901 H 1318.6 -1.29843 -4.67193 0
M  V30 13902 N 1319.94 1.55134 -0.277709 0
M  V30 13903 C 1321.36 1.59417 0.0763615 0
M  V30 13904 C 1321.56 1.29491 1.54384 0
M  V30 13905 O 1320.62 1.05703 2.2931 0
M  V30 13906 C 1321.93 2.99194 -0.300607 0
M  V30 13907 C 1323.48 3.1202 -0.247438 0
M  V30 13908 C 1323.95 4.54068 -0.598884 0
M  V30 13909 N 1325.44 4.59917 -0.550534 0
M  V30 13910 C 1326.18 5.67859 -0.795235 0
M  V30 13911 N 1325.67 6.83936 -1.10469 0
M  V30 13912 N 1327.47 5.5742 -0.723859 0
M  V30 13913 H 1319.62 1.72851 -1.23435 0
M  V30 13914 H 1321.88 0.806137 -0.498846 0
M  V30 13915 H 1321.59 3.25937 -1.32129 0
M  V30 13916 H 1321.46 3.75504 0.35729 0
M  V30 13917 H 1323.85 2.8504 0.763959 0
M  V30 13918 H 1323.93 2.37917 -0.939629 0
M  V30 13919 H 1323.57 4.81774 -1.60798 0
M  V30 13920 H 1323.5 5.26474 0.115126 0
M  V30 13921 H 1325.99 3.76531 -0.321341 0
M  V30 13922 H 1326.31 7.62159 -1.278 0
M  V30 13923 H 1324.65 6.85545 -1.14249 0
M  V30 13924 H 1327.84 4.65613 -0.481925 0
M  V30 13925 H 1328.02 6.41465 -0.917944 0
M  V30 13926 N 1321.42 0.00503138 1.57599 0
M  V30 13927 C 1322.38 -0.969628 2.0768 0
M  V30 13928 C 1323.38 -1.26933 0.987148 0
M  V30 13929 O 1324.57 -1.21368 1.24962 0
M  V30 13930 C 1321.71 -2.29312 2.52247 0
M  V30 13931 H 1322.9 -0.536342 2.95065 0
M  V30 13932 H 1320.45 -0.242543 1.54407 0
M  V30 13933 H 1321.19 -2.7732 1.6812 0
M  V30 13934 H 1320.97 -2.08878 3.31832 0
M  V30 13935 H 1322.46 -2.99221 2.91302 0
M  V30 13936 N 1322.9 -1.55308 -0.267798 0
M  V30 13937 C 1324.12 -1.80524 -1.02107 0
M  V30 13938 C 1324.55 -0.579268 -1.78958 0
M  V30 13939 O 1323.91 0.471262 -1.75068 0
M  V30 13940 C 1323.96 -3.03248 -1.95123 0
M  V30 13941 O 1323.06 -2.78699 -3.03975 0
M  V30 13942 H 1322.4 -0.596518 -0.291655 0
M  V30 13943 H 1324.93 -2.0246 -0.295128 0
M  V30 13944 H 1324.94 -3.32121 -2.3698 0
M  V30 13945 H 1323.62 -3.92126 -1.386 0
M  V30 13946 H 1322.19 -2.60936 -2.66396 0
M  V30 13947 N 1324.38 0.532545 -1.4833 0
M  V30 13948 C 1325.34 1.61955 -1.62183 0
M  V30 13949 C 1326.34 1.52982 -0.495281 0
M  V30 13950 O 1327.53 1.56698 -0.761005 0
M  V30 13951 C 1324.66 3.0157 -1.58961 0
M  V30 13952 H 1325.86 1.51013 -2.59105 0
M  V30 13953 H 1323.41 0.754405 -1.36888 0
M  V30 13954 H 1324.14 3.18021 -0.635069 0
M  V30 13955 H 1323.93 3.09491 -2.40744 0
M  V30 13956 H 1325.42 3.80604 -1.71843 0
M  V30 13957 N 1325.86 1.36875 0.78122 0
M  V30 13958 C 1326.79 1.27738 1.90304 0
M  V30 13959 C 1327.8 0.195147 1.61626 0
M  V30 13960 O 1328.99 0.450531 1.72721 0
M  V30 13961 C 1326.09 0.950103 3.25309 0
M  V30 13962 C 1325.26 2.13589 3.81705 0
M  V30 13963 C 1324.32 1.78037 4.95166 0
M  V30 13964 O 1323.35 2.50223 5.11251 0
M  V30 13965 N 1324.55 0.718886 5.76031 0
M  V30 13966 H 1327.31 2.24397 1.98661 0
M  V30 13967 H 1324.88 1.30376 0.959883 0
M  V30 13968 H 1326.87 0.693286 3.98717 0
M  V30 13969 H 1325.44 0.0723849 3.12516 0
M  V30 13970 H 1324.66 2.55502 3.00187 0
M  V30 13971 H 1325.95 2.9279 4.16114 0
M  V30 13972 H 1325.34 0.119681 5.65573 0
M  V30 13973 H 1323.9 0.521909 6.49707 0
M  V30 13974 N 1327.33 -1.00632 1.21289 0
M  V30 13975 C 1328.56 -1.77967 1.05524 0
M  V30 13976 C 1328.98 -1.84621 -0.395023 0
M  V30 13977 O 1328.33 -1.30664 -1.27409 0
M  V30 13978 C 1328.38 -3.21939 1.64432 0
M  V30 13979 O 1328.11 -3.15669 3.03784 0
M  V30 13980 C 1329.61 -4.1578 1.5376 0
M  V30 13981 H 1326.83 -0.559341 0.370646 0
M  V30 13982 H 1329.37 -1.26604 1.60598 0
M  V30 13983 H 1327.53 -3.70415 1.13453 0
M  V30 13984 H 1327.94 -4.06112 3.31924 0
M  V30 13985 H 1329.41 -5.14602 1.99722 0
M  V30 13986 H 1329.89 -4.36438 0.491811 0
M  V30 13987 H 1330.5 -3.73192 2.0398 0
M  V30 13988 N 1328.81 -1.02043 -1.20104 0
M  V30 13989 C 1329.74 -0.614421 -2.25271 0
M  V30 13990 C 1330.72 0.37242 -1.65973 0
M  V30 13991 O 1331.91 0.257005 -1.92492 0
M  V30 13992 C 1329.04 0.0442085 -3.47272 0
M  V30 13993 C 1327.99 -0.864019 -4.19188 0
M  V30 13994 C 1327.32 -0.0709551 -5.34653 0
M  V30 13995 C 1328.62 -2.17385 -4.74912 0
M  V30 13996 H 1330.31 -1.49355 -2.59487 0
M  V30 13997 H 1327.86 -0.719591 -1.24731 0
M  V30 13998 H 1329.81 0.339825 -4.20028 0
M  V30 13999 H 1328.53 0.958082 -3.12231 0
M  V30 14000 H 1327.19 -1.1437 -3.48303 0
M  V30 14001 H 1326.84 0.844688 -4.95857 0
M  V30 14002 H 1326.54 -0.67583 -5.83701 0
M  V30 14003 H 1328.07 0.218118 -6.1021 0
M  V30 14004 H 1329.48 -1.94034 -5.39466 0
M  V30 14005 H 1327.88 -2.72991 -5.34412 0
M  V30 14006 H 1328.95 -2.83427 -3.93443 0
M  V30 14007 N 1330.29 1.35952 -0.797165 0
M  V30 14008 C 1331.22 2.32506 -0.215277 0
M  V30 14009 C 1332.2 1.57023 0.654046 0
M  V30 14010 O 1333.39 1.85139 0.586268 0
M  V30 14011 C 1330.52 3.41266 0.644557 0
M  V30 14012 C 1329.47 4.27816 -0.125501 0
M  V30 14013 C 1328.8 5.27813 0.855428 0
M  V30 14014 C 1330.1 5.05367 -1.31913 0
M  V30 14015 H 1331.79 2.8142 -1.02193 0
M  V30 14016 H 1329.34 1.35303 -0.492862 0
M  V30 14017 H 1331.29 4.07808 1.06163 0
M  V30 14018 H 1330.01 2.90938 1.484 0
M  V30 14019 H 1328.67 3.62841 -0.523639 0
M  V30 14020 H 1328.32 4.73755 1.69011 0
M  V30 14021 H 1328.02 5.86589 0.344566 0
M  V30 14022 H 1329.54 5.97227 1.2709 0
M  V30 14023 H 1330.96 5.64907 -0.977418 0
M  V30 14024 H 1329.36 5.73593 -1.76382 0
M  V30 14025 H 1330.43 4.36558 -2.11057 0
M  V30 14026 N 1331.77 0.549846 1.47697 0
M  V30 14027 C 1333.02 0.0230048 2.02087 0
M  V30 14028 C 1333.34 -1.32865 1.4273 0
M  V30 14029 O 1332.61 -1.86492 0.59981 0
M  V30 14030 H 1331.19 0.00551514 0.74698 0
M  V30 14031 H 1333.85 0.718185 1.81185 0
M  V30 14032 H 1332.95 -0.0705813 3.1202 0
M  V30 14033 N 1333.25 -1.54984 0.285932 0
M  V30 14034 C 1334.52 -1.91872 -0.380083 0
M  V30 14035 C 1334.9 -1.21146 -1.72878 0
M  V30 14036 O 1334.25 -0.341999 -2.25926 0
M  V30 14037 C 1334.46 -3.45258 -0.509667 0
M  V30 14038 C 1335.81 -4.17232 -0.787549 0
M  V30 14039 O 1336.83 -3.51211 -0.594062 0
M  V30 14040 O 1335.69 -5.34085 -1.15826 0
M  V30 14041 H 1332.79 -0.799931 -0.209856 0
M  V30 14042 H 1335.33 -1.66403 0.332882 0
M  V30 14043 H 1334.1 -3.88829 0.439049 0
M  V30 14044 H 1333.73 -3.76715 -1.27168 0
M  V30 14045 N 1334.72 -0.0133892 -1.57594 0
M  V30 14046 C 1336.14 0.527615 -1.7909 0
M  V30 14047 C 1336.49 1.73179 -0.922142 0
M  V30 14048 O 1335.61 2.1602 -0.128233 0
M  V30 14049 C 1336.21 0.963949 -3.24798 0
M  V30 14050 C 1334.77 1.45017 -3.47343 0
M  V30 14051 C 1333.91 0.407548 -2.74289 0
M  V30 14052 H 1336.86 -0.239505 -1.56882 0
M  V30 14053 H 1336.88 1.82924 -3.33645 0
M  V30 14054 H 1336.4 0.0873315 -3.88002 0
M  V30 14055 H 1334.5 2.34724 -2.89371 0
M  V30 14056 H 1334.61 1.4684 -4.56043 0
M  V30 14057 H 1332.97 0.872174 -2.39301 0
M  V30 14058 H 1333.76 -0.460333 -3.402 0
M  V30 14059 N 1336.2 1.55448 0.259558 0
M  V30 14060 C 1337.45 1.76686 0.98935 0
M  V30 14061 C 1337.78 0.575434 1.85793 0
M  V30 14062 O 1337.03 -0.441676 1.90651 0
M  V30 14063 C 1337.33 3.03292 1.89073 0
M  V30 14064 C 1337 4.35225 1.17855 0
M  V30 14065 C 1335.66 4.7108 0.981675 0
M  V30 14066 C 1338.01 5.16839 0.6728 0
M  V30 14067 C 1335.34 5.86094 0.266551 0
M  V30 14068 C 1337.69 6.32593 -0.0287965 0
M  V30 14069 C 1336.36 6.67078 -0.23726 0
M  V30 14070 H 1335.63 0.646542 0.362029 0
M  V30 14071 H 1338.27 1.8972 0.260488 0
M  V30 14072 H 1336.58 2.85217 2.68624 0
M  V30 14073 H 1338.27 3.16923 2.45685 0
M  V30 14074 H 1334.86 4.07051 1.34192 0
M  V30 14075 H 1339.05 4.89604 0.812481 0
M  V30 14076 H 1334.3 6.11327 0.0944447 0
M  V30 14077 H 1338.48 6.95081 -0.428378 0
M  V30 14078 H 1336.11 7.56049 -0.793358 0
M  V30 14079 N 1337.68 -0.524672 1.4861 0
M  V30 14080 C 1338.61 -1.63782 1.66426 0
M  V30 14081 C 1339.59 -1.62177 0.513077 0
M  V30 14082 O 1340.78 -1.7929 0.74623 0
M  V30 14083 C 1337.91 -3.02354 1.70877 0
M  V30 14084 C 1336.86 -3.18819 2.85549 0
M  V30 14085 C 1336.19 -4.58506 2.75094 0
M  V30 14086 C 1337.49 -3.01086 4.26784 0
M  V30 14087 H 1339.18 -1.49127 2.59618 0
M  V30 14088 H 1336.73 -0.715997 1.24938 0
M  V30 14089 H 1338.68 -3.80105 1.81929 0
M  V30 14090 H 1337.4 -3.18044 0.742682 0
M  V30 14091 H 1336.06 -2.43487 2.74061 0
M  V30 14092 H 1335.71 -4.71038 1.76443 0
M  V30 14093 H 1335.41 -4.70466 3.52044 0
M  V30 14094 H 1336.93 -5.38348 2.88121 0
M  V30 14095 H 1338.35 -3.68624 4.39077 0
M  V30 14096 H 1336.75 -3.24536 5.04774 0
M  V30 14097 H 1337.82 -1.97454 4.42877 0
M  V30 14098 N 1339.16 -1.37287 -0.77395 0
M  V30 14099 C 1340.09 -1.28746 -1.89624 0
M  V30 14100 C 1341.1 -0.203715 -1.6152 0
M  V30 14101 O 1342.29 -0.459684 -1.72479 0
M  V30 14102 C 1339.39 -0.967342 -3.24801 0
M  V30 14103 C 1338.57 -2.1561 -3.80567 0
M  V30 14104 C 1337.62 -1.80661 -4.94215 0
M  V30 14105 O 1336.65 -2.5293 -5.09917 0
M  V30 14106 N 1337.85 -0.749424 -5.75642 0
M  V30 14107 H 1340.62 -2.25447 -1.97468 0
M  V30 14108 H 1338.18 -1.30883 -0.952956 0
M  V30 14109 H 1340.17 -0.714421 -3.98344 0
M  V30 14110 H 1338.74 -0.0889573 -3.12473 0
M  V30 14111 H 1337.96 -2.57091 -2.98828 0
M  V30 14112 H 1339.25 -2.94993 -4.14556 0
M  V30 14113 H 1338.65 -0.149673 -5.65502 0
M  V30 14114 H 1337.2 -0.556358 -6.49421 0
M  V30 14115 N 1340.64 0.999871 -1.21821 0
M  V30 14116 C 1342.05 1.5529 -1.03642 0
M  V30 14117 C 1342.4 1.92032 0.402246 0
M  V30 14118 O 1341.52 1.74027 1.28622 0
M  V30 14119 C 1342.12 2.82177 -1.87514 0
M  V30 14120 C 1340.68 3.33949 -1.73653 0
M  V30 14121 C 1339.82 2.07095 -1.84409 0
M  V30 14122 H 1342.78 0.821751 -1.35768 0
M  V30 14123 H 1342.8 3.54264 -1.38842 0
M  V30 14124 H 1342.31 2.55405 -2.92216 0
M  V30 14125 H 1340.41 3.65645 -0.716554 0
M  V30 14126 H 1340.52 4.05022 -2.55918 0
M  V30 14127 H 1338.89 2.20332 -1.27773 0
M  V30 14128 H 1339.67 1.82728 -2.90629 0
M  V30 14129 N 1342.11 1.02678 1.19562 0
M  V30 14130 C 1343.36 0.72059 1.88817 0
M  V30 14131 C 1343.68 -0.752942 1.79877 0
M  V30 14132 O 1342.95 -1.54233 1.20785 0
M  V30 14133 H 1341.53 0.26355 0.698964 0
M  V30 14134 H 1344.2 1.30056 1.4516 0
M  V30 14135 H 1343.29 1.01303 2.95202 0
M  V30 14136 N 1343.59 -1.35528 0.804364 0
M  V30 14137 C 1344.54 -2.29832 0.211186 0
M  V30 14138 C 1345.51 -1.52704 -0.653503 0
M  V30 14139 O 1346.69 -1.81152 -0.599052 0
M  V30 14140 C 1343.83 -3.39188 -0.636054 0
M  V30 14141 C 1342.95 -4.31283 0.248824 0
M  V30 14142 C 1342.08 -5.2773 -0.60621 0
M  V30 14143 C 1341.12 -6.11463 0.279205 0
M  V30 14144 N 1340.26 -7.00054 -0.535672 0
M  V30 14145 H 1345.1 -2.79971 1.0208 0
M  V30 14146 H 1342.64 -1.37793 0.514931 0
M  V30 14147 H 1344.59 -4.01254 -1.14241 0
M  V30 14148 H 1343.22 -2.90331 -1.41095 0
M  V30 14149 H 1342.28 -3.70241 0.873263 0
M  V30 14150 H 1343.59 -4.90046 0.930417 0
M  V30 14151 H 1342.74 -5.95158 -1.17778 0
M  V30 14152 H 1341.48 -4.69458 -1.32138 0
M  V30 14153 H 1340.49 -5.42984 0.863066 0
M  V30 14154 H 1341.71 -6.71813 0.9922 0
M  V30 14155 H 1339.66 -6.44273 -1.23486 0
M  V30 14156 H 1339.57 -7.55949 0.0879213 0
M  V30 14157 H 1340.84 -7.71833 -1.09059 0
M  V30 14158 N 1345.07 -0.557671 -1.47404 0
M  V30 14159 C 1346.49 -0.217473 -1.58111 0
M  V30 14160 C 1346.69 1.28 -1.55622 0
M  V30 14161 O 1345.74 2.06019 -1.45988 0
M  V30 14162 C 1347.06 -0.844535 -2.88597 0
M  V30 14163 C 1348.6 -0.815807 -3.02181 0
M  V30 14164 C 1349.08 -1.42195 -4.35367 0
M  V30 14165 N 1350.57 -1.38515 -4.42004 0
M  V30 14166 C 1351.31 -1.82378 -5.43623 0
M  V30 14167 N 1350.8 -2.34098 -6.52051 0
M  V30 14168 N 1352.59 -1.73446 -5.34671 0
M  V30 14169 H 1344.75 -1.53058 -1.47265 0
M  V30 14170 H 1347.01 -0.638305 -0.700907 0
M  V30 14171 H 1346.71 -1.89696 -2.96156 0
M  V30 14172 H 1346.59 -0.337844 -3.75684 0
M  V30 14173 H 1348.98 0.227925 -2.94218 0
M  V30 14174 H 1349.06 -1.36026 -2.16635 0
M  V30 14175 H 1348.7 -2.46475 -4.44086 0
M  V30 14176 H 1348.63 -0.852932 -5.19647 0
M  V30 14177 H 1351.12 -1.00684 -3.64241 0
M  V30 14178 H 1351.43 -2.6549 -7.25765 0
M  V30 14179 H 1349.78 -2.38109 -6.52939 0
M  V30 14180 H 1352.97 -1.32816 -4.48862 0
M  V30 14181 H 1353.14 -2.07947 -6.13728 0
M  V30 14182 N 1346.55 1.54831 -0.294147 0
M  V30 14183 C 1347.77 2.04873 0.32276 0
M  V30 14184 C 1348.2 1.17034 1.47257 0
M  V30 14185 O 1347.56 0.172949 1.80473 0
M  V30 14186 C 1347.61 3.52431 0.76319 0
M  V30 14187 O 1346.71 3.67635 1.86865 0
M  V30 14188 H 1346.05 0.660926 0.0638162 0
M  V30 14189 H 1348.58 1.99944 -0.433995 0
M  V30 14190 H 1348.59 3.94155 1.05385 0
M  V30 14191 H 1347.27 4.15827 -0.0779464 0
M  V30 14192 H 1345.84 3.37816 1.57907 0
M  V30 14193 N 1348.03 0.0217466 1.57585 0
M  V30 14194 C 1349.44 -0.334576 1.56054 0
M  V30 14195 C 1349.64 -1.73386 1.02663 0
M  V30 14196 O 1348.7 -2.43447 0.670078 0
M  V30 14197 C 1350.01 -0.189919 3.001 0
M  V30 14198 C 1351.56 -0.263238 3.11891 0
M  V30 14199 C 1352.04 -0.147455 4.57763 0
M  V30 14200 N 1353.53 -0.204672 4.62748 0
M  V30 14201 C 1354.26 -0.138755 5.73232 0
M  V30 14202 N 1353.76 -0.0221762 6.92796 0
M  V30 14203 N 1355.55 -0.192206 5.61771 0
M  V30 14204 H 1347.7 0.936849 1.90622 0
M  V30 14205 H 1349.96 0.361119 0.876526 0
M  V30 14206 H 1349.67 0.773687 3.43084 0
M  V30 14207 H 1349.54 -0.963148 3.64696 0
M  V30 14208 H 1351.93 -1.2173 2.68823 0
M  V30 14209 H 1352.01 0.540241 2.5003 0
M  V30 14210 H 1351.66 0.803155 5.0151 0
M  V30 14211 H 1351.59 -0.969703 5.17595 0
M  V30 14212 H 1354.08 -0.29522 3.76745 0
M  V30 14213 H 1354.39 0.021631 7.72797 0
M  V30 14214 H 1352.74 0.0125033 6.94999 0
M  V30 14215 H 1355.93 -0.28163 4.67252 0
M  V30 14216 H 1356.1 -0.137372 6.47854 0
M  V30 14217 N 1349.51 -1.55583 -0.251311 0
M  V30 14218 C 1350.73 -1.81597 -1.00186 0
M  V30 14219 C 1351.16 -0.598216 -1.78334 0
M  V30 14220 O 1350.51 0.452667 -1.75558 0
M  V30 14221 C 1350.56 -3.05301 -1.91895 0
M  V30 14222 O 1349.67 -2.81907 -3.01002 0
M  V30 14223 H 1349.01 -0.599578 -0.285311 0
M  V30 14224 H 1351.54 -2.02762 -0.273638 0
M  V30 14225 H 1351.55 -3.34616 -2.33444 0
M  V30 14226 H 1350.22 -3.93574 -1.34433 0
M  V30 14227 H 1348.8 -2.63747 -2.63613 0
M  V30 14228 N 1350.98 0.516783 -1.48886 0
M  V30 14229 C 1352.39 1.09856 -1.50959 0
M  V30 14230 C 1352.75 1.94092 -0.28681 0
M  V30 14231 O 1351.87 2.07774 0.604877 0
M  V30 14232 C 1352.47 1.999 -2.73542 0
M  V30 14233 C 1351.02 2.5327 -2.78444 0
M  V30 14234 C 1350.17 1.30526 -2.44659 0
M  V30 14235 H 1353.12 0.301415 -1.55811 0
M  V30 14236 H 1353.14 2.84373 -2.52809 0
M  V30 14237 H 1352.66 1.38564 -3.62521 0
M  V30 14238 H 1350.76 3.1829 -1.93707 0
M  V30 14239 H 1350.87 2.91502 -3.80215 0
M  V30 14240 H 1349.23 1.62536 -1.96097 0
M  V30 14241 H 1350.02 0.709223 -3.35894 0
M  V30 14242 N 1352.46 1.37696 0.766659 0
M  V30 14243 C 1353.69 1.36564 1.56093 0
M  V30 14244 C 1354.11 -0.0455828 1.88045 0
M  V30 14245 O 1353.47 -1.02405 1.49609 0
M  V30 14246 C 1353.52 2.21592 2.84481 0
M  V30 14247 O 1352.62 1.62404 3.79076 0
M  V30 14248 H 1351.96 0.466394 0.472623 0
M  V30 14249 H 1354.49 1.81287 0.948486 0
M  V30 14250 H 1354.5 2.34987 3.33534 0
M  V30 14251 H 1353.18 3.24167 2.60554 0
M  V30 14252 H 1351.75 1.58078 3.37736 0
M  V30 14253 N 1353.94 -0.993397 1.22349 0
M  V30 14254 C 1355.16 -1.77373 1.07488 0
M  V30 14255 C 1355.59 -1.84418 -0.37034 0
M  V30 14256 O 1354.95 -1.29629 -1.26752 0
M  V30 14257 C 1355 -3.18538 1.69014 0
M  V30 14258 O 1354.1 -4.01463 0.943474 0
M  V30 14259 H 1353.44 -0.546209 0.37756 0
M  V30 14260 H 1355.97 -1.24792 1.62136 0
M  V30 14261 H 1355.98 -3.6917 1.73717 0
M  V30 14262 H 1354.66 -3.12725 2.74182 0
M  V30 14263 H 1353.23 -3.59998 0.972415 0
M  V30 14264 N 1355.42 -1.03311 -1.19015 0
M  V30 14265 C 1356.83 -0.761079 -1.70483 0
M  V30 14266 C 1357.18 0.718851 -1.82557 0
M  V30 14267 O 1356.3 1.56006 -1.4997 0
M  V30 14268 C 1356.9 -1.37492 -3.09647 0
M  V30 14269 C 1355.46 -1.15138 -3.58358 0
M  V30 14270 C 1354.61 -1.47034 -2.35109 0
M  V30 14271 H 1357.56 -1.2005 -1.03797 0
M  V30 14272 H 1357.58 -0.774115 -3.72542 0
M  V30 14273 H 1357.09 -2.45203 -3.00828 0
M  V30 14274 H 1355.19 -0.0926822 -3.72485 0
M  V30 14275 H 1355.3 -1.84307 -4.4223 0
M  V30 14276 H 1353.67 -0.889794 -2.38652 0
M  V30 14277 H 1354.45 -2.55837 -2.28916 0
M  V30 14278 N 1356.9 1.35099 -0.81154 0
M  V30 14279 C 1358.31 1.51701 -0.495883 0
M  V30 14280 C 1358.51 1.7595 0.982035 0
M  V30 14281 O 1357.57 1.8038 1.7669 0
M  V30 14282 C 1358.88 2.68916 -1.34554 0
M  V30 14283 C 1360.43 2.82795 -1.34149 0
M  V30 14284 C 1360.9 4.0304 -2.17538 0
M  V30 14285 N 1362.39 4.10227 -2.151 0
M  V30 14286 C 1363.13 5.02397 -2.76377 0
M  V30 14287 N 1362.63 5.99866 -3.46601 0
M  V30 14288 N 1364.42 4.95181 -2.65992 0
M  V30 14289 H 1356.57 1.17617 -1.76862 0
M  V30 14290 H 1358.83 0.575875 -0.753042 0
M  V30 14291 H 1358.54 2.57591 -2.39458 0
M  V30 14292 H 1358.41 3.63641 -1.00223 0
M  V30 14293 H 1360.8 2.93568 -0.300285 0
M  V30 14294 H 1360.88 1.88912 -1.7247 0
M  V30 14295 H 1360.52 3.93027 -3.21702 0
M  V30 14296 H 1360.45 4.96114 -1.76574 0
M  V30 14297 H 1362.95 3.40454 -1.6401 0
M  V30 14298 H 1363.26 6.66803 -3.90632 0
M  V30 14299 H 1361.6 6.00025 -3.50706 0
M  V30 14300 H 1364.79 4.17991 -2.10715 0
M  V30 14301 H 1364.97 5.6682 -3.14036 0
M  V30 14302 N 1358.37 0.56548 1.47106 0
M  V30 14303 C 1359.32 -0.198133 2.27137 0
M  V30 14304 C 1360.31 -0.877743 1.3485 0
M  V30 14305 O 1361.5 -0.774683 1.59147 0
M  V30 14306 C 1358.63 -1.22223 3.20806 0
M  V30 14307 C 1357.71 -0.545616 4.20576 0
M  V30 14308 N 1358.11 0.389029 5.04302 0
M  V30 14309 C 1356.4 -0.798517 4.38793 0
M  V30 14310 C 1357.1 0.782852 5.76408 0
M  V30 14311 N 1356.08 0.13583 5.4343 0
M  V30 14312 H 1359.88 0.520354 2.89257 0
M  V30 14313 H 1357.4 0.386013 1.57746 0
M  V30 14314 H 1359.39 -1.78332 3.76833 0
M  V30 14315 H 1358.05 -1.94172 2.60244 0
M  V30 14316 H 1359.06 0.763644 5.12239 0
M  V30 14317 H 1355.74 -1.50589 3.89396 0
M  V30 14318 H 1357.13 1.55133 6.53746 0
M  V30 14319 N 1359.85 -1.54672 0.302354 0
M  V30 14320 C 1360.82 -2.22246 -0.560283 0
M  V30 14321 C 1361.82 -1.20895 -1.06023 0
M  V30 14322 O 1363.01 -1.45621 -0.956047 0
M  V30 14323 C 1360.14 -2.9099 -1.77589 0
M  V30 14324 H 1361.33 -2.99885 0.0301274 0
M  V30 14325 H 1358.88 -1.56209 0.0532036 0
M  V30 14326 H 1359.62 -2.17433 -2.4061 0
M  V30 14327 H 1359.4 -3.65288 -1.42503 0
M  V30 14328 H 1360.89 -3.42535 -2.38871 0
M  V30 14329 N 1361.33 -0.0301034 -1.57571 0
M  V30 14330 C 1362.74 0.508591 -1.79639 0
M  V30 14331 C 1363.09 1.72191 -0.940458 0
M  V30 14332 O 1362.22 2.15872 -0.151138 0
M  V30 14333 C 1362.81 0.929446 -3.25802 0
M  V30 14334 C 1361.37 1.41325 -3.48861 0
M  V30 14335 C 1360.52 0.378433 -2.74706 0
M  V30 14336 H 1363.47 -0.256131 -1.56619 0
M  V30 14337 H 1363.49 1.79374 -3.35567 0
M  V30 14338 H 1363 0.0461738 -3.88073 0
M  V30 14339 H 1361.1 2.31641 -2.91844 0
M  V30 14340 H 1361.22 1.41995 -4.57574 0
M  V30 14341 H 1359.58 0.846744 -2.40213 0
M  V30 14342 H 1360.36 -0.49639 -3.39692 0
M  V30 14343 N 1362.81 1.55714 0.243056 0
M  V30 14344 C 1364.22 1.48224 0.591754 0
M  V30 14345 C 1364.42 0.72105 1.88157 0
M  V30 14346 O 1363.48 0.251966 2.5124 0
M  V30 14347 C 1364.79 2.92655 0.690918 0
M  V30 14348 C 1366.34 3.03048 0.782988 0
M  V30 14349 C 1366.82 4.48794 0.913682 0
M  V30 14350 N 1368.31 4.52748 0.978454 0
M  V30 14351 C 1369.04 5.62771 1.09891 0
M  V30 14352 N 1368.54 6.82596 1.18467 0
M  V30 14353 N 1370.33 5.50576 1.13237 0
M  V30 14354 H 1362.48 2.03642 -0.603614 0
M  V30 14355 H 1364.75 0.924702 -0.208878 0
M  V30 14356 H 1364.45 3.51203 -0.186871 0
M  V30 14357 H 1364.33 3.43357 1.5616 0
M  V30 14358 H 1366.71 2.44578 1.65123 0
M  V30 14359 H 1366.79 2.55551 -0.112921 0
M  V30 14360 H 1366.44 5.07875 0.0499835 0
M  V30 14361 H 1366.37 4.93976 1.82469 0
M  V30 14362 H 1368.86 3.66445 0.92337 0
M  V30 14363 H 1369.17 7.62197 1.27576 0
M  V30 14364 H 1367.52 6.85349 1.15418 0
M  V30 14365 H 1370.71 4.55897 1.06188 0
M  V30 14366 H 1370.88 6.36358 1.2228 0
M  V30 14367 N 1364.29 -0.50888 1.49158 0
M  V30 14368 C 1365.7 -1.09054 1.51539 0
M  V30 14369 C 1366.05 -1.93938 0.297099 0
M  V30 14370 O 1365.17 -2.08092 -0.593849 0
M  V30 14371 C 1365.77 -1.98447 2.74599 0
M  V30 14372 C 1364.33 -2.5179 2.79783 0
M  V30 14373 C 1363.47 -1.29227 2.45348 0
M  V30 14374 H 1366.43 -0.293148 1.55969 0
M  V30 14375 H 1366.45 -2.83028 2.54314 0
M  V30 14376 H 1365.96 -1.3664 3.63251 0
M  V30 14377 H 1364.06 -3.17258 1.95392 0
M  V30 14378 H 1364.17 -2.89481 3.81756 0
M  V30 14379 H 1362.54 -1.61494 1.96957 0
M  V30 14380 H 1363.32 -0.6914 3.36266 0
M  V30 14381 N 1365.76 -1.381 -0.759346 0
M  V30 14382 C 1366.99 -1.37389 -1.55367 0
M  V30 14383 C 1367.41 0.0356097 -1.88066 0
M  V30 14384 O 1366.77 1.0161 -1.5015 0
M  V30 14385 C 1366.82 -2.23098 -2.83302 0
M  V30 14386 O 1365.92 -1.64412 -3.7821 0
M  V30 14387 H 1365.27 -0.468894 -0.470143 0
M  V30 14388 H 1367.8 -1.81787 -0.938858 0
M  V30 14389 H 1367.81 -2.36753 -3.32283 0
M  V30 14390 H 1366.48 -3.25544 -2.58831 0
M  V30 14391 H 1365.06 -1.59867 -3.36893 0
M  V30 14392 N 1367.24 0.986894 -1.22875 0
M  V30 14393 C 1368.52 1.70121 -0.965311 0
M  V30 14394 C 1368.9 2.04648 0.517924 0
M  V30 14395 O 1368.25 1.73453 1.48749 0
M  V30 14396 C 1368.46 2.94738 -1.86897 0
M  V30 14397 C 1369.81 3.6739 -2.12861 0
M  V30 14398 O 1370.83 3.04758 -1.84394 0
M  V30 14399 O 1369.69 4.8009 -2.61106 0
M  V30 14400 H 1366.78 0.742817 -0.363527 0
M  V30 14401 H 1369.33 1.0427 -1.33887 0
M  V30 14402 H 1368.1 2.65771 -2.87196 0
M  V30 14403 H 1367.72 3.68327 -1.49736 0
M  V30 14404 N 1368.72 1.0394 1.18466 0
M  V30 14405 C 1369.68 0.633804 2.20262 0
M  V30 14406 C 1370.68 -0.308136 1.5782 0
M  V30 14407 O 1371.87 -0.0937087 1.73948 0
M  V30 14408 C 1369.01 -0.0709693 3.40826 0
M  V30 14409 H 1370.2 1.53463 2.57661 0
M  V30 14410 H 1367.75 0.831806 1.32328 0
M  V30 14411 H 1368.49 -0.985659 3.08958 0
M  V30 14412 H 1368.27 0.606023 3.87388 0
M  V30 14413 H 1369.76 -0.341298 4.16203 0
M  V30 14414 N 1370.2 -1.34667 0.818693 0
M  V30 14415 C 1371.61 -1.80839 0.46414 0
M  V30 14416 C 1371.96 -1.67902 -1.01506 0
M  V30 14417 O 1371.09 -1.21658 -1.78964 0
M  V30 14418 C 1371.68 -3.28331 0.835698 0
M  V30 14419 C 1370.24 -3.72599 0.533575 0
M  V30 14420 C 1369.39 -2.56452 1.05487 0
M  V30 14421 H 1372.34 -1.22474 1.00925 0
M  V30 14422 H 1372.36 -3.8025 0.13785 0
M  V30 14423 H 1371.87 -3.37715 1.91233 0
M  V30 14424 H 1369.97 -3.68756 -0.533819 0
M  V30 14425 H 1370.08 -4.66891 1.07468 0
M  V30 14426 H 1368.45 -2.50201 0.476612 0
M  V30 14427 H 1369.23 -2.68608 2.13786 0
M  V30 14428 N 1371.68 -0.573274 -1.46804 0
M  V30 14429 C 1372.9 -0.0586717 -2.07317 0
M  V30 14430 C 1373.33 1.2328 -1.42069 0
M  V30 14431 O 1372.68 1.74235 -0.501188 0
M  V30 14432 C 1372.73 0.103503 -3.60451 0
M  V30 14433 O 1371.84 1.16229 -3.95682 0
M  V30 14434 H 1371.18 -0.0585504 -0.661414 0
M  V30 14435 H 1373.71 -0.793532 -1.88585 0
M  V30 14436 H 1373.72 0.312658 -4.068 0
M  V30 14437 H 1372.39 -0.839684 -4.07335 0
M  V30 14438 H 1370.97 0.932347 -3.61056 0
M  V30 14439 N 1373.15 1.5451 -0.310553 0
M  V30 14440 C 1374.12 2.2254 0.548489 0
M  V30 14441 C 1375.12 1.21456 1.05381 0
M  V30 14442 O 1376.31 1.46126 0.948311 0
M  V30 14443 C 1373.44 2.91927 1.76043 0
M  V30 14444 H 1374.63 2.99865 -0.0460306 0
M  V30 14445 H 1372.19 1.56179 -0.061487 0
M  V30 14446 H 1372.92 2.18706 2.39454 0
M  V30 14447 H 1372.71 3.66038 1.40564 0
M  V30 14448 H 1374.2 3.43797 2.37051 0
M  V30 14449 N 1374.63 0.0384594 1.57553 0
M  V30 14450 C 1375.86 -0.651613 1.96898 0
M  V30 14451 C 1376.28 -1.64328 0.915308 0
M  V30 14452 O 1375.64 -1.80883 -0.122824 0
M  V30 14453 C 1375.69 -1.32613 3.3533 0
M  V30 14454 O 1374.79 -2.44159 3.32355 0
M  V30 14455 H 1374.13 -0.170441 0.641752 0
M  V30 14456 H 1376.66 0.103086 2.0434 0
M  V30 14457 H 1376.67 -1.68076 3.71772 0
M  V30 14458 H 1375.35 -0.599275 4.1156 0
M  V30 14459 H 1373.93 -2.10738 3.07642 0
M  V30 14460 N 1376.11 -1.55841 -0.234795 0
M  V30 14461 C 1377.52 -1.68555 -0.802886 0
M  V30 14462 C 1377.87 -0.638107 -1.85533 0
M  V30 14463 O 1377 0.21333 -2.15346 0
M  V30 14464 C 1377.59 -3.0558 -1.46309 0
M  V30 14465 C 1376.15 -3.20192 -1.97874 0
M  V30 14466 C 1375.3 -2.64457 -0.834136 0
M  V30 14467 H 1378.25 -1.58697 -0.0103759 0
M  V30 14468 H 1378.27 -3.007 -2.33152 0
M  V30 14469 H 1377.78 -3.81792 -0.696868 0
M  V30 14470 H 1375.88 -2.48825 -2.77339 0
M  V30 14471 H 1376 -4.27251 -2.1678 0
M  V30 14472 H 1374.36 -2.22593 -1.23791 0
M  V30 14473 H 1375.14 -3.43205 -0.0807988 0
M  V30 14474 N 1377.59 0.500963 -1.49426 0
M  V30 14475 C 1378.82 1.27911 -1.62624 0
M  V30 14476 C 1379.23 1.86439 -0.297651 0
M  V30 14477 O 1378.59 1.67831 0.716879 0
M  V30 14478 C 1378.64 2.40934 -2.69505 0
M  V30 14479 O 1378.36 1.84811 -3.97211 0
M  V30 14480 C 1379.86 3.32305 -2.93408 0
M  V30 14481 H 1377.08 0.387951 -0.547481 0
M  V30 14482 H 1379.63 0.601372 -1.95458 0
M  V30 14483 H 1377.78 3.04537 -2.39449 0
M  V30 14484 H 1378.2 2.59011 -4.56085 0
M  V30 14485 H 1379.67 4.0789 -3.71927 0
M  V30 14486 H 1380.15 3.89301 -2.03325 0
M  V30 14487 H 1380.75 2.74467 -3.24881 0
M  V30 14488 N 1379.07 1.38501 0.752011 0
M  V30 14489 C 1380.48 1.31086 1.32941 0
M  V30 14490 C 1380.83 -0.0326248 1.96173 0
M  V30 14491 O 1379.95 -0.934692 1.95173 0
M  V30 14492 C 1380.55 2.37395 2.41721 0
M  V30 14493 C 1379.11 2.33553 2.95177 0
M  V30 14494 C 1378.26 2.20178 1.68573 0
M  V30 14495 H 1381.21 1.48836 0.550771 0
M  V30 14496 H 1381.23 2.03202 3.21697 0
M  V30 14497 H 1380.74 3.35164 1.9567 0
M  V30 14498 H 1378.84 1.39371 3.45553 0
M  V30 14499 H 1378.95 3.27753 3.49449 0
M  V30 14500 H 1377.32 1.67057 1.9226 0
M  V30 14501 H 1378.1 3.19891 1.24599 0
M  V30 14502 N 1380.55 -0.980364 1.23396 0
M  V30 14503 C 1381.77 -1.76223 1.09363 0
M  V30 14504 C 1382.2 -1.84801 -0.350759 0
M  V30 14505 O 1381.55 -1.30966 -1.2537 0
M  V30 14506 C 1381.6 -3.16728 1.72383 0
M  V30 14507 O 1380.71 -4.00439 0.986002 0
M  V30 14508 H 1380.05 -0.542174 0.383332 0
M  V30 14509 H 1382.58 -1.23066 1.6345 0
M  V30 14510 H 1382.59 -3.67307 1.77623 0
M  V30 14511 H 1381.26 -3.098 2.77483 0
M  V30 14512 H 1379.84 -3.58946 1.01054 0
M  V30 14513 N 1382.02 -1.04567 -1.17913 0
M  V30 14514 C 1382.99 -0.645476 -2.19923 0
M  V30 14515 C 1383.99 0.299763 -1.57981 0
M  V30 14516 O 1385.18 0.0844825 -1.73995 0
M  V30 14517 C 1382.31 0.0528935 -3.40859 0
M  V30 14518 H 1383.5 -1.54828 -2.56843 0
M  V30 14519 H 1381.05 -0.838812 -1.31885 0
M  V30 14520 H 1381.79 0.969261 -3.09477 0
M  V30 14521 H 1381.57 -0.626558 -3.87062 0
M  V30 14522 H 1383.06 0.319221 -4.16378 0
M  V30 14523 N 1383.5 1.34231 -0.825823 0
M  V30 14524 C 1384.45 2.31378 -0.23809 0
M  V30 14525 C 1385.44 1.57537 0.622767 0
M  V30 14526 O 1386.65 1.72512 0.513783 0
M  V30 14527 H 1383.02 0.74974 -0.0582516 0
M  V30 14528 H 1385 2.78471 -1.07221 0
M  V30 14529 C 1383.74 3.42778 0.582969 0
M  V30 14530 H 1383.07 3.99739 -0.0701208 0
M  V30 14531 H 1384.51 4.12983 0.960266 0
M  V30 14532 C 1382.97 2.87486 1.75651 0
M  V30 14533 O 1383.5 2.82603 2.85479 0
M  V30 14534 N 1381.7 2.4427 1.57418 0
M  V30 14535 H 1381.25 2.48441 0.680792 0
M  V30 14536 H 1381.21 2.07626 2.36091 0
M  V30 14537 N 1384.98 0.581051 1.46498 0
M  V30 14538 C 1386.2 0.0696654 2.07283 0
M  V30 14539 C 1386.63 -1.22525 1.42721 0
M  V30 14540 O 1385.99 -1.73967 0.510421 0
M  V30 14541 C 1386.04 -0.0843864 3.60501 0
M  V30 14542 O 1385.14 -1.14129 3.96293 0
M  V30 14543 H 1384.48 0.0620572 0.661094 0
M  V30 14544 H 1387.01 0.803522 1.88161 0
M  V30 14545 H 1387.02 -0.29108 4.0696 0
M  V30 14546 H 1385.7 0.861274 4.06884 0
M  V30 14547 H 1384.27 -0.913186 3.61546 0
M  V30 14548 N 1386.46 -1.54343 0.318742 0
M  V30 14549 C 1387.69 -2.04894 -0.287378 0
M  V30 14550 C 1388.1 -1.19514 -1.46157 0
M  V30 14551 O 1387.46 -0.224722 -1.81111 0
M  V30 14552 C 1387.51 -3.54124 -0.726505 0
M  V30 14553 O 1387.23 -4.36261 0.400968 0
M  V30 14554 C 1388.73 -4.20748 -1.39594 0
M  V30 14555 H 1385.95 -0.668323 -0.0598724 0
M  V30 14556 H 1388.49 -1.99177 0.463531 0
M  V30 14557 H 1386.65 -3.60145 -1.4274 0
M  V30 14558 H 1387.06 -5.2447 0.0558714 0
M  V30 14559 H 1388.54 -5.26632 -1.65418 0
M  V30 14560 H 1389.01 -3.71566 -2.3417 0
M  V30 14561 H 1389.62 -4.18852 -0.737749 0
M  V30 14562 N 1387.94 -0.0468143 -1.5753 0
M  V30 14563 C 1389.16 0.637648 -1.96829 0
M  V30 14564 C 1389.58 1.64635 -0.924158 0
M  V30 14565 O 1388.94 1.82267 0.0921139 0
M  V30 14566 C 1388.99 1.32842 -3.36207 0
M  V30 14567 O 1388.71 0.360111 -4.36617 0
M  V30 14568 C 1390.21 2.10305 -3.90239 0
M  V30 14569 H 1387.43 0.174634 -0.647876 0
M  V30 14570 H 1389.97 -0.111824 -2.04194 0
M  V30 14571 H 1388.13 2.02915 -3.30006 0
M  V30 14572 H 1388.54 0.852661 -5.17523 0
M  V30 14573 H 1390.02 2.54065 -4.90056 0
M  V30 14574 H 1390.49 2.94942 -3.25432 0
M  V30 14575 H 1391.1 1.45152 -3.99764 0
M  V30 14576 N 1389.41 1.55964 0.226527 0
M  V30 14577 C 1390.35 1.88487 1.30405 0
M  V30 14578 C 1391.36 0.772723 1.43293 0
M  V30 14579 O 1392.55 1.05099 1.44279 0
M  V30 14580 C 1389.65 2.074 2.68027 0
M  V30 14581 C 1388.82 3.38389 2.77149 0
M  V30 14582 C 1387.88 3.46795 3.95752 0
M  V30 14583 O 1386.91 4.19862 3.84323 0
M  V30 14584 N 1388.11 2.77573 5.09836 0
M  V30 14585 H 1390.87 2.81506 1.02833 0
M  V30 14586 H 1388.43 1.56449 0.416581 0
M  V30 14587 H 1390.43 2.10344 3.45742 0
M  V30 14588 H 1389 1.2103 2.8822 0
M  V30 14589 H 1388.22 3.47586 1.8595 0
M  V30 14590 H 1389.5 4.24688 2.8021 0
M  V30 14591 H 1388.9 2.17979 5.22017 0
M  V30 14592 H 1387.46 2.86185 5.85612 0
M  V30 14593 N 1390.89 -0.493031 1.4969 0
M  V30 14594 C 1392.12 -1.27517 1.63567 0
M  V30 14595 C 1392.54 -1.85526 0.310105 0
M  V30 14596 O 1391.9 -1.66246 -0.723314 0
M  V30 14597 C 1391.95 -2.37551 2.71296 0
M  V30 14598 O 1391.05 -3.41617 2.31023 0
M  V30 14599 H 1390.39 -0.376116 0.547205 0
M  V30 14600 H 1392.92 -0.589328 1.95929 0
M  V30 14601 H 1392.93 -2.83196 2.93708 0
M  V30 14602 H 1391.61 -1.94697 3.67513 0
M  V30 14603 H 1390.19 -3.01836 2.18974 0
M  V30 14604 N 1392.37 -1.38898 -0.744656 0
M  V30 14605 C 1393.3 -1.32739 -1.8685 0
M  V30 14606 C 1394.32 -0.23793 -1.61052 0
M  V30 14607 O 1395.5 -0.496166 -1.71466 0
M  V30 14608 C 1392.6 -1.03602 -3.22676 0
M  V30 14609 C 1391.78 -2.23634 -3.75908 0
M  V30 14610 C 1390.84 -1.91103 -4.90271 0
M  V30 14611 O 1389.86 -2.6369 -5.04437 0
M  V30 14612 N 1391.06 -0.871358 -5.73923 0
M  V30 14613 H 1393.83 -2.29585 -1.92641 0
M  V30 14614 H 1391.39 -1.32875 -0.924979 0
M  V30 14615 H 1393.38 -0.798755 -3.96739 0
M  V30 14616 H 1391.95 -0.155218 -3.12214 0
M  V30 14617 H 1391.17 -2.63371 -2.93307 0
M  V30 14618 H 1392.46 -3.0372 -4.08205 0
M  V30 14619 H 1391.86 -0.269591 -5.65057 0
M  V30 14620 H 1390.42 -0.693984 -6.48095 0
M  V30 14621 N 1393.85 0.973806 -1.23914 0
M  V30 14622 C 1395.08 1.75107 -1.10206 0
M  V30 14623 C 1395.49 1.85604 0.345935 0
M  V30 14624 O 1394.85 1.33996 1.239 0
M  V30 14625 C 1394.9 3.17466 -1.72909 0
M  V30 14626 O 1394.62 3.07504 -3.12047 0
M  V30 14627 C 1396.12 4.11557 -1.6473 0
M  V30 14628 H 1393.34 0.549318 -0.385345 0
M  V30 14629 H 1395.89 1.22301 -1.63898 0
M  V30 14630 H 1394.04 3.67277 -1.23234 0
M  V30 14631 H 1394.45 3.97169 -3.42575 0
M  V30 14632 H 1395.93 5.09126 -2.13295 0
M  V30 14633 H 1396.41 4.3498 -0.607352 0
M  V30 14634 H 1397.01 3.67653 -2.13802 0
M  V30 14635 N 1395.33 1.05191 1.17357 0
M  V30 14636 C 1396.57 0.761984 1.87617 0
M  V30 14637 C 1396.9 -0.710976 1.8104 0
M  V30 14638 O 1396.16 -1.53566 1.21309 0
M  V30 14639 C 1396.46 1.18779 3.37085 0
M  V30 14640 C 1396.12 2.66296 3.63864 0
M  V30 14641 C 1394.78 3.06594 3.70882 0
M  V30 14642 C 1397.14 3.61622 3.75339 0
M  V30 14643 C 1394.46 4.41081 3.86865 0
M  V30 14644 C 1396.82 4.95842 3.9284 0
M  V30 14645 C 1395.48 5.35793 3.98097 0
M  V30 14646 H 1394.75 0.27883 0.686538 0
M  V30 14647 H 1397.4 1.31899 1.38834 0
M  V30 14648 H 1395.7 0.549782 3.87923 0
M  V30 14649 H 1397.4 0.940667 3.89811 0
M  V30 14650 H 1393.99 2.34089 3.59027 0
M  V30 14651 H 1398.17 3.31628 3.69238 0
M  V30 14652 H 1393.43 4.71536 3.89183 0
M  V30 14653 H 1397.6 5.696 4.00661 0
M  V30 14654 H 1395.23 6.40009 4.10234 0
M  V30 14655 N 1396.8 -1.33791 0.83293 0
M  V30 14656 C 1398.22 -1.80336 0.483294 0
M  V30 14657 C 1398.57 -1.68969 -0.997195 0
M  V30 14658 O 1397.69 -1.23549 -1.77664 0
M  V30 14659 C 1398.29 -3.27427 0.870475 0
M  V30 14660 C 1396.85 -3.72012 0.573064 0
M  V30 14661 C 1395.99 -2.55319 1.08201 0
M  V30 14662 H 1398.94 -1.21396 1.02218 0
M  V30 14663 H 1398.96 -3.80083 0.178173 0
M  V30 14664 H 1398.48 -3.35668 1.94804 0
M  V30 14665 H 1396.58 -3.69302 -0.494678 0
M  V30 14666 H 1396.69 -4.65725 1.12414 0
M  V30 14667 H 1395.05 -2.49681 0.503123 0
M  V30 14668 H 1395.84 -2.66326 2.16623 0
M  V30 14669 N 1398.28 -0.588812 -1.46187 0
M  V30 14670 C 1399.52 -0.0794904 -2.04245 0
M  V30 14671 C 1399.89 1.25893 -1.44965 0
M  V30 14672 O 1401.09 1.85785 -1.94261 0
M  V30 14673 C 1399.36 -0.0210846 -3.57394 0
M  V30 14674 S 1400.92 0.429775 -4.3669 0
M  V30 14675 H 1397.74 -0.0404337 -0.709849 0
M  V30 14676 H 1400.34 -0.782686 -1.79149 0
M  V30 14677 H 1399.04 -0.999032 -3.98055 0
M  V30 14678 H 1398.57 0.704691 -3.87037 0
M  V30 14679 H 1400.59 1.68327 -4.66777 0
M  V30 14680 N 1399.76 1.54172 -0.326923 0
M  V30 14681 C 1401.17 1.86009 0.160446 0
M  V30 14682 C 1401.52 1.24851 1.51349 0
M  V30 14683 O 1400.65 0.555804 2.09141 0
M  V30 14684 C 1401.24 3.37488 0.297909 0
M  V30 14685 C 1399.8 3.69263 0.7295 0
M  V30 14686 C 1398.95 2.76911 -0.146778 0
M  V30 14687 H 1401.9 1.48972 -0.547093 0
M  V30 14688 H 1401.92 3.63388 1.12825 0
M  V30 14689 H 1401.43 3.81971 -0.687007 0
M  V30 14690 H 1399.53 3.30314 1.72404 0
M  V30 14691 H 1399.65 4.76149 0.53092 0
M  V30 14692 H 1398.01 2.51876 0.378212 0
M  V30 14693 H 1398.79 3.24221 -1.12852 0
M  V30 14694 N 1401.24 0.0551678 1.57503 0
M  V30 14695 C 1402.17 -0.947102 2.08717 0
M  V30 14696 C 1403.18 -1.2722 1.01582 0
M  V30 14697 O 1404.37 -1.23229 1.29139 0
M  V30 14698 C 1401.47 -2.26756 2.51863 0
M  V30 14699 C 1400.65 -2.12378 3.8238 0
M  V30 14700 C 1399.7 -3.27582 4.11797 0
M  V30 14701 O 1398.73 -3.03309 4.81656 0
M  V30 14702 N 1399.93 -4.5218 3.64024 0
M  V30 14703 H 1402.7 -0.509957 2.9533 0
M  V30 14704 H 1400.26 -0.130976 1.61369 0
M  V30 14705 H 1402.25 -3.02701 2.68616 0
M  V30 14706 H 1400.82 -2.62024 1.70477 0
M  V30 14707 H 1400.04 -1.21 3.7517 0
M  V30 14708 H 1401.33 -2.00003 4.67842 0
M  V30 14709 H 1400.73 -4.7479 3.07556 0
M  V30 14710 H 1399.28 -5.25206 3.86008 0
M  V30 14711 N 1402.72 -1.56081 -0.218252 0
M  V30 14712 C 1403.68 -1.91851 -1.25402 0
M  V30 14713 C 1404.68 -0.797399 -1.39636 0
M  V30 14714 O 1405.87 -1.06511 -1.37844 0
M  V30 14715 C 1403 -2.17223 -2.6273 0
M  V30 14716 H 1404.19 -2.84493 -0.948882 0
M  V30 14717 H 1401.75 -1.49414 -0.458809 0
M  V30 14718 H 1402.48 -1.27144 -2.98337 0
M  V30 14719 H 1402.27 -2.98899 -2.53775 0
M  V30 14720 H 1403.76 -2.45981 -3.37466 0
M  V30 14721 N 1404.2 0.485086 -1.49949 0
M  V30 14722 C 1405.61 1.06629 -1.53255 0
M  V30 14723 C 1405.96 1.9344 -0.327915 0
M  V30 14724 O 1405.08 2.09011 0.560669 0
M  V30 14725 C 1405.68 1.94053 -2.77721 0
M  V30 14726 C 1404.24 2.47307 -2.83754 0
M  V30 14727 C 1403.38 1.25307 -2.47373 0
M  V30 14728 H 1406.33 0.268297 -1.56416 0
M  V30 14729 H 1406.36 2.78946 -2.58784 0
M  V30 14730 H 1405.87 1.30843 -3.65379 0
M  V30 14731 H 1403.97 3.1411 -2.00414 0
M  V30 14732 H 1404.08 2.83371 -3.86313 0
M  V30 14733 H 1402.45 1.5834 -1.99501 0
M  V30 14734 H 1403.23 0.637815 -3.37323 0
M  V30 14735 N 1405.67 1.39291 0.737279 0
M  V30 14736 C 1406.9 1.39844 1.53162 0
M  V30 14737 C 1407.32 -0.00568546 1.88099 0
M  V30 14738 O 1406.68 -0.992085 1.51748 0
M  V30 14739 C 1406.73 2.27577 2.79716 0
M  V30 14740 O 1405.83 1.70408 3.75546 0
M  V30 14741 H 1405.17 0.476314 0.462624 0
M  V30 14742 H 1407.7 1.83258 0.909819 0
M  V30 14743 H 1407.71 2.42009 3.28475 0
M  V30 14744 H 1406.39 3.29621 2.53619 0
M  V30 14745 H 1404.97 1.65206 3.34307 0
M  V30 14746 N 1407.15 -0.967221 1.24429 0
M  V30 14747 C 1408.08 -2.06479 0.994946 0
M  V30 14748 C 1409.1 -1.62761 -0.0357582 0
M  V30 14749 O 1410.29 -1.77361 0.201336 0
M  V30 14750 C 1407.39 -3.35487 0.479736 0
M  V30 14751 C 1406.56 -4.0811 1.57368 0
M  V30 14752 C 1405.62 -5.15392 1.06104 0
M  V30 14753 O 1404.64 -5.41539 1.75283 0
M  V30 14754 N 1405.85 -5.80406 -0.104288 0
M  V30 14755 H 1408.61 -2.28443 1.93995 0
M  V30 14756 H 1406.17 -1.13488 1.15465 0
M  V30 14757 H 1408.16 -4.04517 0.121528 0
M  V30 14758 H 1406.73 -3.1039 -0.371012 0
M  V30 14759 H 1405.95 -3.33351 2.10406 0
M  V30 14760 H 1407.24 -4.53391 2.30897 0
M  V30 14761 H 1406.64 -5.61566 -0.682638 0
M  V30 14762 H 1405.2 -6.50549 -0.403638 0
M  V30 14763 N 1408.63 -1.05812 -1.16797 0
M  V30 14764 C 1409.58 -0.634669 -2.18988 0
M  V30 14765 C 1410.56 0.332122 -1.57435 0
M  V30 14766 O 1411.76 0.148346 -1.76377 0
M  V30 14767 C 1408.88 -0.0174742 -3.43296 0
M  V30 14768 C 1407.97 -1.00847 -4.11935 0
M  V30 14769 N 1408.36 -2.18223 -4.56303 0
M  V30 14770 C 1406.66 -0.838325 -4.3805 0
M  V30 14771 C 1407.36 -2.80967 -5.09345 0
M  V30 14772 N 1406.34 -2.08725 -5.01931 0
M  V30 14773 H 1410.14 -1.52888 -2.51003 0
M  V30 14774 H 1407.65 -0.929125 -1.33195 0
M  V30 14775 H 1409.65 0.303692 -4.15792 0
M  V30 14776 H 1408.31 0.872052 -3.1277 0
M  V30 14777 H 1409.32 -2.56025 -4.5019 0
M  V30 14778 H 1406 -0.000376066 -4.175 0
M  V30 14779 H 1407.39 -3.80541 -5.53749 0
M  V30 14780 N 1410.11 1.33347 -0.840014 0
M  V30 14781 C 1411.52 1.80077 -0.492851 0
M  V30 14782 C 1411.87 1.69495 0.988221 0
M  V30 14783 O 1410.99 1.2449 1.77006 0
M  V30 14784 C 1411.59 3.2696 -0.887827 0
M  V30 14785 C 1410.15 3.71703 -0.592785 0
M  V30 14786 C 1409.3 2.54742 -1.09554 0
M  V30 14787 H 1412.25 1.20853 -1.02861 0
M  V30 14788 H 1412.27 3.79983 -0.198327 0
M  V30 14789 H 1411.78 3.3463 -1.96581 0
M  V30 14790 H 1409.88 3.69559 0.475086 0
M  V30 14791 H 1409.99 4.65123 -1.14882 0
M  V30 14792 H 1408.36 2.49411 -0.516357 0
M  V30 14793 H 1409.14 2.65173 -2.18032 0
M  V30 14794 N 1411.59 0.596556 1.45873 0
M  V30 14795 C 1413 0.173758 1.8589 0
M  V30 14796 C 1413.35 -1.26665 1.49835 0
M  V30 14797 O 1412.47 -1.9588 0.919773 0
M  V30 14798 C 1413.07 0.308567 3.37392 0
M  V30 14799 C 1411.63 -0.0594585 3.76353 0
M  V30 14800 C 1410.77 0.638127 2.69858 0
M  V30 14801 H 1413.72 0.803928 1.36831 0
M  V30 14802 H 1413.75 -0.462294 3.77681 0
M  V30 14803 H 1413.26 1.35701 3.63603 0
M  V30 14804 H 1411.36 -1.1075 3.5576 0
M  V30 14805 H 1411.47 0.326506 4.77986 0
M  V30 14806 H 1409.84 0.0769147 2.54584 0
M  V30 14807 H 1410.62 1.68849 2.98906 0
M  V30 14808 N 1413.06 -1.53996 0.335095 0
M  V30 14809 C 1414.29 -2.05657 -0.268328 0
M  V30 14810 C 1414.71 -1.20897 -1.44102 0
M  V30 14811 O 1414.07 -0.220737 -1.79951 0
M  V30 14812 C 1414.12 -3.54331 -0.669481 0
M  V30 14813 O 1413.22 -3.7246 -1.77052 0
M  V30 14814 H 1412.56 -0.662386 -0.0462705 0
M  V30 14815 H 1415.09 -1.98723 0.486854 0
M  V30 14816 H 1415.1 -3.9681 -0.948971 0
M  V30 14817 H 1413.78 -4.15474 0.188168 0
M  V30 14818 H 1412.36 -3.41884 -1.48895 0
M  V30 14819 N 1414.54 -0.0635198 -1.57472 0
M  V30 14820 C 1415.95 0.470372 -1.80678 0
M  V30 14821 C 1416.3 1.70158 -0.976771 0
M  V30 14822 O 1415.43 2.15502 -0.196893 0
M  V30 14823 C 1416.02 0.860129 -3.277 0
M  V30 14824 C 1414.58 1.33893 -3.51781 0
M  V30 14825 C 1413.73 0.320078 -2.75447 0
M  V30 14826 H 1416.68 -0.289295 -1.56041 0
M  V30 14827 H 1416.7 1.72216 -3.39296 0
M  V30 14828 H 1416.21 -0.0361525 -3.88083 0
M  V30 14829 H 1414.31 2.25399 -2.96692 0
M  V30 14830 H 1414.43 1.32257 -4.60483 0
M  V30 14831 H 1412.79 0.795601 -2.41955 0
M  V30 14832 H 1413.57 -0.568332 -3.38563 0
M  V30 14833 N 1416.02 1.56195 0.209972 0
M  V30 14834 C 1417.43 1.69811 0.775969 0
M  V30 14835 C 1417.78 0.667543 1.84495 0
M  V30 14836 O 1416.91 -0.179043 2.15658 0
M  V30 14837 C 1417.5 3.07869 1.41429 0
M  V30 14838 C 1416.06 3.233 1.92755 0
M  V30 14839 C 1415.21 2.6575 0.791958 0
M  V30 14840 H 1418.16 1.58693 -0.0148727 0
M  V30 14841 H 1418.18 3.04371 2.28339 0
M  V30 14842 H 1417.69 3.82853 0.63604 0
M  V30 14843 H 1415.79 2.53206 2.73345 0
M  V30 14844 H 1415.91 4.30645 2.09956 0
M  V30 14845 H 1414.27 2.24535 1.20234 0
M  V30 14846 H 1415.05 3.4329 0.0261877 0
M  V30 14847 N 1417.5 -0.477127 1.50204 0
M  V30 14848 C 1418.44 -1.57587 1.68626 0
M  V30 14849 C 1419.41 -1.57499 0.527576 0
M  V30 14850 O 1420.6 -1.75121 0.757438 0
M  V30 14851 C 1417.74 -2.956 1.78086 0
M  V30 14852 C 1416.85 -3.05523 3.05417 0
M  V30 14853 C 1415.99 -4.34414 3.05709 0
M  V30 14854 C 1415.03 -4.38057 4.27519 0
M  V30 14855 N 1414.16 -5.5841 4.25585 0
M  V30 14856 H 1419 -1.41185 2.62433 0
M  V30 14857 H 1416.54 -0.686537 1.30096 0
M  V30 14858 H 1418.5 -3.75626 1.81552 0
M  V30 14859 H 1417.13 -3.10651 0.877251 0
M  V30 14860 H 1416.18 -2.18409 3.11451 0
M  V30 14861 H 1417.49 -3.04075 3.95398 0
M  V30 14862 H 1416.65 -5.22782 3.07871 0
M  V30 14863 H 1415.39 -4.38462 2.13548 0
M  V30 14864 H 1414.39 -3.48087 4.25577 0
M  V30 14865 H 1415.62 -4.35705 5.20901 0
M  V30 14866 H 1413.56 -5.63255 3.36274 0
M  V30 14867 H 1413.48 -5.58677 5.09328 0
M  V30 14868 H 1414.75 -6.4892 4.31884 0
M  V30 14869 N 1418.98 -1.3968 -0.729882 0
M  V30 14870 C 1420.39 -1.21396 -1.0361 0
M  V30 14871 C 1420.59 -0.0791302 -2.01345 0
M  V30 14872 O 1419.65 0.567575 -2.46038 0
M  V30 14873 C 1420.96 -2.55006 -1.59349 0
M  V30 14874 C 1422.51 -2.61896 -1.71405 0
M  V30 14875 C 1422.98 -3.9574 -2.30552 0
M  V30 14876 N 1424.48 -3.97406 -2.37955 0
M  V30 14877 C 1425.21 -4.97745 -2.8467 0
M  V30 14878 N 1424.71 -6.08482 -3.31243 0
M  V30 14879 N 1426.5 -4.85121 -2.83925 0
M  V30 14880 H 1418.65 -2.12242 -0.081787 0
M  V30 14881 H 1420.91 -0.942827 -0.0989005 0
M  V30 14882 H 1420.62 -3.38626 -0.950005 0
M  V30 14883 H 1420.49 -2.75087 -2.58083 0
M  V30 14884 H 1422.88 -1.78656 -2.34874 0
M  V30 14885 H 1422.96 -2.45659 -0.7131 0
M  V30 14886 H 1422.61 -4.79412 -1.67709 0
M  V30 14887 H 1422.54 -4.09299 -3.31334 0
M  V30 14888 H 1425.03 -3.17435 -2.05044 0
M  V30 14889 H 1425.34 -6.8095 -3.65414 0
M  V30 14890 H 1423.68 -6.12068 -3.29239 0
M  V30 14891 H 1426.88 -3.97711 -2.46867 0
M  V30 14892 H 1427.05 -5.63465 -3.20017 0
M  V30 14893 N 1420.45 0.960609 -1.2494 0
M  V30 14894 C 1421.69 1.71937 -1.10531 0
M  V30 14895 C 1422.06 1.88806 0.348766 0
M  V30 14896 O 1423.26 2.61681 0.614539 0
M  V30 14897 C 1421.53 3.0685 -1.83242 0
M  V30 14898 S 1423.09 3.98057 -1.84651 0
M  V30 14899 H 1419.91 0.591061 -0.395181 0
M  V30 14900 H 1422.51 1.14618 -1.58376 0
M  V30 14901 H 1421.21 2.92238 -2.8814 0
M  V30 14902 H 1420.74 3.69233 -1.35759 0
M  V30 14903 H 1422.76 4.8761 -0.919263 0
M  V30 14904 N 1421.93 1.0643 1.16234 0
M  V30 14905 C 1422.86 0.697605 2.22836 0
M  V30 14906 C 1423.84 -0.310563 1.67241 0
M  V30 14907 O 1425.03 -0.185385 1.93313 0
M  V30 14908 C 1422.16 0.0847097 3.47197 0
M  V30 14909 C 1421.11 1.019 4.15693 0
M  V30 14910 C 1420.44 0.269339 5.34021 0
M  V30 14911 C 1421.74 2.34861 4.66516 0
M  V30 14912 H 1423.43 1.58883 2.53765 0
M  V30 14913 H 1420.98 0.765388 1.21975 0
M  V30 14914 H 1422.93 -0.1837 4.20999 0
M  V30 14915 H 1421.66 -0.84154 3.15572 0
M  V30 14916 H 1420.31 1.27218 3.43818 0
M  V30 14917 H 1419.96 -0.660072 4.9865 0
M  V30 14918 H 1419.66 0.892001 5.8079 0
M  V30 14919 H 1421.19 0.00850775 6.10599 0
M  V30 14920 H 1422.6 2.13922 5.31893 0
M  V30 14921 H 1421 2.92637 5.23912 0
M  V30 14922 H 1422.07 2.97834 3.82653 0
M  V30 14923 N 1423.41 -1.329 0.847073 0
M  V30 14924 C 1424.64 -2.02244 0.459588 0
M  V30 14925 C 1425.06 -1.63279 -0.933897 0
M  V30 14926 O 1424.42 -0.829551 -1.61208 0
M  V30 14927 C 1424.47 -3.55616 0.59745 0
M  V30 14928 O 1423.57 -4.1071 -0.372919 0
M  V30 14929 H 1422.91 -0.637504 0.1857 0
M  V30 14930 H 1425.44 -1.69617 1.14417 0
M  V30 14931 H 1425.45 -4.05141 0.482145 0
M  V30 14932 H 1424.13 -3.8332 1.61365 0
M  V30 14933 H 1422.7 -3.72283 -0.214487 0
M  V30 14934 N 1424.89 -0.604284 -1.45555 0
M  V30 14935 C 1426.12 -0.104301 -2.06337 0
M  V30 14936 C 1426.53 1.21523 -1.45013 0
M  V30 14937 O 1425.87 1.75039 -0.557422 0
M  V30 14938 C 1425.93 0.113202 -3.59322 0
M  V30 14939 C 1425.6 -1.12402 -4.42961 0
M  V30 14940 C 1426.59 -2.04136 -4.78147 0
M  V30 14941 C 1424.28 -1.35192 -4.83765 0
M  V30 14942 C 1426.27 -3.16991 -5.52988 0
M  V30 14943 C 1423.96 -2.48348 -5.5836 0
M  V30 14944 C 1424.96 -3.39076 -5.92888 0
M  V30 14945 O 1424.64 -4.50264 -6.65971 0
M  V30 14946 H 1424.38 -0.0644639 -0.672919 0
M  V30 14947 H 1426.93 -0.830982 -1.8784 0
M  V30 14948 H 1425.16 0.894739 -3.76206 0
M  V30 14949 H 1426.85 0.564372 -4.01957 0
M  V30 14950 H 1427.62 -1.87753 -4.47184 0
M  V30 14951 H 1423.49 -0.654731 -4.56327 0
M  V30 14952 H 1427.04 -3.87831 -5.79856 0
M  V30 14953 H 1422.94 -2.64686 -5.88737 0
M  V30 14954 H 1423.7 -4.48904 -6.84418 0
M  V30 14955 N 1426.37 1.53816 -0.343257 0
M  V30 14956 C 1427.61 2.00512 0.252845 0
M  V30 14957 C 1427.94 1.23274 1.51091 0
M  V30 14958 O 1427.21 0.339841 1.9293 0
M  V30 14959 H 1425.79 0.740751 0.0964202 0
M  V30 14960 H 1428.45 1.89288 -0.464347 0
M  V30 14961 H 1427.54 3.08142 0.495499 0
M  V30 14962 N 1427.84 0.0718701 1.57436 0
M  V30 14963 C 1429.09 -0.596052 1.9311 0
M  V30 14964 C 1429.41 -1.70146 0.952652 0
M  V30 14965 O 1428.68 -1.959 0.000812941 0
M  V30 14966 H 1427.26 -0.223165 0.712886 0
M  V30 14967 H 1429.93 0.129744 1.94468 0
M  V30 14968 H 1429.02 -1.02132 2.94916 0
M  V30 14969 N 1429.32 -1.56304 -0.201686 0
M  V30 14970 C 1430.55 -1.84341 -0.939465 0
M  V30 14971 C 1430.97 -0.653544 -1.77128 0
M  V30 14972 O 1430.32 0.377813 -1.78546 0
M  V30 14973 C 1430.37 -3.11111 -1.84098 0
M  V30 14974 O 1430.09 -4.25509 -1.04276 0
M  V30 14975 C 1431.6 -3.52279 -2.69099 0
M  V30 14976 H 1428.82 -0.61232 -0.274419 0
M  V30 14977 H 1431.36 -2.03409 -0.210924 0
M  V30 14978 H 1429.51 -2.9396 -2.52322 0
M  V30 14979 H 1429.93 -4.97655 -1.6565 0
M  V30 14980 H 1431.4 -4.43965 -3.28023 0
M  V30 14981 H 1431.88 -2.74959 -3.42482 0
M  V30 14982 H 1432.49 -3.71939 -2.06256 0
M  V30 14983 N 1430.8 0.469154 -1.50455 0
M  V30 14984 C 1432.03 1.24899 -1.65575 0
M  V30 14985 C 1432.45 1.85009 -0.339581 0
M  V30 14986 O 1431.81 1.67376 0.696774 0
M  V30 14987 C 1431.86 2.33205 -2.75041 0
M  V30 14988 O 1430.96 3.37898 -2.36429 0
M  V30 14989 H 1430.3 0.367362 -0.553119 0
M  V30 14990 H 1432.83 0.558083 -1.96842 0
M  V30 14991 H 1432.84 2.78487 -2.98176 0
M  V30 14992 H 1431.52 1.88826 -3.70564 0
M  V30 14993 H 1430.09 2.98314 -2.23748 0
M  V30 14994 N 1432.28 1.40065 0.722464 0
M  V30 14995 C 1433.21 1.35695 1.84715 0
M  V30 14996 C 1434.22 0.263522 1.60653 0
M  V30 14997 O 1435.41 0.523382 1.70655 0
M  V30 14998 C 1432.51 1.08722 3.20987 0
M  V30 14999 C 1431.69 2.29586 3.72302 0
M  V30 15000 C 1430.74 1.98879 4.87169 0
M  V30 15001 O 1429.77 2.71681 5.00178 0
M  V30 15002 N 1430.97 0.962554 5.72464 0
M  V30 15003 H 1433.74 2.32621 1.88964 0
M  V30 15004 H 1431.3 1.3433 0.903723 0
M  V30 15005 H 1433.29 0.861772 3.95418 0
M  V30 15006 H 1431.86 0.204869 3.11928 0
M  V30 15007 H 1431.08 2.68004 2.8908 0
M  V30 15008 H 1432.37 3.10176 4.03322 0
M  V30 15009 H 1431.77 0.359452 5.64557 0
M  V30 15010 H 1430.32 0.797003 6.46909 0
M  V30 15011 N 1433.76 -0.95397 1.25448 0
M  V30 15012 C 1434.69 -2.06828 1.08372 0
M  V30 15013 C 1435.67 -1.70098 -0.00741585 0
M  V30 15014 O 1436.85 -1.93521 0.16224 0
M  V30 15015 C 1433.98 -3.40124 0.702365 0
M  V30 15016 C 1432.94 -3.90865 1.74381 0
M  V30 15017 C 1432.26 -5.20663 1.21712 0
M  V30 15018 C 1433.56 -4.17169 3.14273 0
M  V30 15019 H 1435.26 -2.21372 2.01581 0
M  V30 15020 H 1432.8 -1.06374 0.970592 0
M  V30 15021 H 1434.76 -4.17529 0.569837 0
M  V30 15022 H 1433.48 -3.2552 -0.265428 0
M  V30 15023 H 1432.14 -3.15628 1.86479 0
M  V30 15024 H 1431.79 -5.02429 0.23954 0
M  V30 15025 H 1431.49 -5.55581 1.91319 0
M  V30 15026 H 1433.01 -6.00665 1.097 0
M  V30 15027 H 1434.43 -4.85231 3.05325 0
M  V30 15028 H 1432.82 -4.63344 3.81356 0
M  V30 15029 H 1433.89 -3.23421 3.61285 0
M  V30 15030 N 1435.24 -1.07045 -1.15668 0
M  V30 15031 C 1436.65 -0.795369 -1.38369 0
M  V30 15032 C 1436.85 0.601829 -1.92303 0
M  V30 15033 O 1435.91 1.36109 -2.12675 0
M  V30 15034 C 1437.22 -1.86659 -2.35752 0
M  V30 15035 C 1438.77 -1.89098 -2.49421 0
M  V30 15036 C 1439.24 -2.95296 -3.50092 0
M  V30 15037 N 1440.73 -2.94378 -3.57625 0
M  V30 15038 C 1441.47 -3.73194 -4.35331 0
M  V30 15039 N 1440.97 -4.61851 -5.16397 0
M  V30 15040 N 1442.76 -3.61554 -4.30389 0
M  V30 15041 H 1434.91 -1.97162 -0.790004 0
M  V30 15042 H 1437.17 -0.854816 -0.40987 0
M  V30 15043 H 1436.88 -2.87036 -2.03232 0
M  V30 15044 H 1436.75 -1.72406 -3.35494 0
M  V30 15045 H 1439.14 -0.893752 -2.8124 0
M  V30 15046 H 1439.22 -2.07429 -1.49689 0
M  V30 15047 H 1438.86 -3.95217 -3.19008 0
M  V30 15048 H 1438.79 -2.74212 -4.49572 0
M  V30 15049 H 1441.29 -2.3011 -2.99763 0
M  V30 15050 H 1441.6 -5.18629 -5.72926 0
M  V30 15051 H 1439.94 -4.65902 -5.15714 0
M  V30 15052 H 1443.13 -2.91672 -3.66122 0
M  V30 15053 H 1443.31 -4.23221 -4.90701 0
M  V30 15054 N 1436.71 1.32449 -0.85411 0
M  V30 15055 C 1437.96 1.97563 -0.4579 0
M  V30 15056 C 1438.29 1.67435 0.983835 0
M  V30 15057 O 1437.57 0.962292 1.69027 0
M  V30 15058 C 1437.85 3.53292 -0.69688 0
M  V30 15059 C 1437.7 3.93053 -2.18699 0
M  V30 15060 C 1439.02 4.39834 -0.152917 0
M  V30 15061 H 1436.14 0.717634 -0.167842 0
M  V30 15062 H 1438.78 1.5684 -1.07243 0
M  V30 15063 H 1436.93 3.88111 -0.173807 0
M  V30 15064 H 1438.61 3.68416 -2.7761 0
M  V30 15065 H 1436.85 3.42232 -2.6657 0
M  V30 15066 H 1437.52 5.01576 -2.3049 0
M  V30 15067 H 1440 4.11748 -0.600216 0
M  V30 15068 H 1438.87 5.47785 -0.349703 0
M  V30 15069 H 1439.13 4.31898 0.944276 0
M  V30 15070 N 1438.19 0.611994 1.45232 0
M  V30 15071 C 1439.6 0.193464 1.85695 0
M  V30 15072 C 1439.95 -1.25069 1.5117 0
M  V30 15073 O 1439.08 -1.94894 0.940497 0
M  V30 15074 C 1439.67 0.344334 3.37046 0
M  V30 15075 C 1438.23 -0.0195378 3.76395 0
M  V30 15076 C 1437.38 0.666714 2.69166 0
M  V30 15077 H 1440.33 0.818395 1.35971 0
M  V30 15078 H 1440.35 -0.422209 3.7815 0
M  V30 15079 H 1439.86 1.3955 3.62143 0
M  V30 15080 H 1437.96 -1.06971 3.56915 0
M  V30 15081 H 1438.08 0.377184 4.77613 0
M  V30 15082 H 1436.44 0.103912 2.54488 0
M  V30 15083 H 1437.22 1.7201 2.97099 0
M  V30 15084 N 1439.67 -1.53632 0.351409 0
M  V30 15085 C 1440.58 -2.2899 -0.509985 0
M  V30 15086 C 1441.6 -1.34403 -1.10507 0
M  V30 15087 O 1442.77 -1.67448 -1.11906 0
M  V30 15088 C 1439.84 -3.05392 -1.64124 0
M  V30 15089 C 1438.9 -4.15619 -1.07514 0
M  V30 15090 C 1438.13 -4.88369 -2.15248 0
M  V30 15091 O 1438.35 -4.60854 -3.3611 0
M  V30 15092 O 1437.29 -5.74636 -1.79101 0
M  V30 15093 H 1441.11 -3.03526 0.10283 0
M  V30 15094 H 1438.7 -1.48947 0.116214 0
M  V30 15095 H 1440.58 -3.53146 -2.29926 0
M  V30 15096 H 1439.26 -2.33705 -2.23972 0
M  V30 15097 H 1438.16 -3.7215 -0.381421 0
M  V30 15098 H 1439.5 -4.8943 -0.521413 0
M  V30 15099 N 1441.15 -0.0802183 -1.57396 0
M  V30 15100 C 1442.06 0.898597 -2.16708 0
M  V30 15101 C 1443.07 1.321 -1.1325 0
M  V30 15102 O 1444.25 1.39197 -1.45554 0
M  V30 15103 C 1441.31 2.14501 -2.72379 0
M  V30 15104 C 1440.38 1.77822 -3.9074 0
M  V30 15105 C 1439.61 2.96521 -4.43747 0
M  V30 15106 O 1439.83 4.10797 -3.9573 0
M  V30 15107 O 1438.77 2.75849 -5.34968 0
M  V30 15108 H 1442.59 0.424027 -3.00725 0
M  V30 15109 H 1440.18 0.14332 -1.48711 0
M  V30 15110 H 1442.06 2.87575 -3.08024 0
M  V30 15111 H 1440.73 2.61039 -1.91416 0
M  V30 15112 H 1439.64 1.01974 -3.59934 0
M  V30 15113 H 1440.97 1.36059 -4.73021 0
M  V30 15114 N 1442.63 1.56409 0.193394 0
M  V30 15115 C 1444.04 1.70624 0.757915 0
M  V30 15116 C 1444.39 0.687074 1.83776 0
M  V30 15117 O 1443.51 -0.15616 2.15836 0
M  V30 15118 C 1444.11 3.09352 1.38156 0
M  V30 15119 C 1442.67 3.25326 1.89315 0
M  V30 15120 C 1441.81 2.66576 0.763727 0
M  V30 15121 H 1444.76 1.58668 -0.0317034 0
M  V30 15122 H 1444.79 3.06776 2.25098 0
M  V30 15123 H 1444.3 3.83506 0.595398 0
M  V30 15124 H 1442.4 2.5609 2.70644 0
M  V30 15125 H 1442.51 4.32848 2.05376 0
M  V30 15126 H 1440.88 2.25797 1.17846 0
M  V30 15127 H 1441.66 3.43298 -0.0102243 0
M  V30 15128 N 1444.1 -0.461169 1.50702 0
M  V30 15129 C 1445.07 -1.54032 1.69725 0
M  V30 15130 C 1446.07 -1.50445 0.567707 0
M  V30 15131 O 1447.26 -1.52889 0.834901 0
M  V30 15132 C 1444.39 -2.93642 1.73168 0
M  V30 15133 H 1445.58 -1.38478 2.66015 0
M  V30 15134 H 1443.13 -0.688235 1.40332 0
M  V30 15135 H 1443.87 -3.14629 0.786078 0
M  V30 15136 H 1443.65 -2.97652 2.55236 0
M  V30 15137 H 1445.14 -3.71972 1.89807 0
M  V30 15138 N 1445.58 -1.40446 -0.715026 0
M  V30 15139 C 1446.54 -1.40506 -1.81082 0
M  V30 15140 C 1447.54 -0.298768 -1.58 0
M  V30 15141 O 1448.73 -0.5577 -1.65031 0
M  V30 15142 C 1445.87 -1.19735 -3.19181 0
M  V30 15143 H 1447.06 -2.38034 -1.82427 0
M  V30 15144 H 1444.61 -1.26303 -0.920718 0
M  V30 15145 H 1445.35 -0.229695 -3.23486 0
M  V30 15146 H 1445.13 -1.99871 -3.37334 0
M  V30 15147 H 1446.62 -1.22566 -3.99208 0
M  V30 15148 N 1447.06 0.947303 -1.25952 0
M  V30 15149 C 1447.97 2.07878 -1.08738 0
M  V30 15150 C 1448.99 1.73985 -0.0225212 0
M  V30 15151 O 1450.16 2.00139 -0.224984 0
M  V30 15152 C 1447.23 3.39231 -0.715756 0
M  V30 15153 C 1446.29 3.86945 -1.85935 0
M  V30 15154 C 1445.52 5.1203 -1.50537 0
M  V30 15155 O 1445.74 5.68965 -0.404323 0
M  V30 15156 O 1444.68 5.54634 -2.33805 0
M  V30 15157 H 1448.5 2.25305 -2.03645 0
M  V30 15158 H 1446.09 1.06321 -1.04958 0
M  V30 15159 H 1447.97 4.18167 -0.520962 0
M  V30 15160 H 1446.65 3.23057 0.203978 0
M  V30 15161 H 1445.55 3.08981 -2.10906 0
M  V30 15162 H 1446.89 4.0763 -2.75859 0
M  V30 15163 N 1448.54 1.07657 1.15099 0
M  V30 15164 C 1449.45 0.711198 2.2356 0
M  V30 15165 C 1450.46 -0.278932 1.7175 0
M  V30 15166 O 1451.64 -0.124788 2.01013 0
M  V30 15167 C 1448.71 0.117855 3.465 0
M  V30 15168 C 1447.77 1.16162 4.13286 0
M  V30 15169 C 1447 0.596494 5.30356 0
M  V30 15170 O 1447.22 -0.586474 5.67377 0
M  V30 15171 O 1446.16 1.34288 5.86729 0
M  V30 15172 H 1449.98 1.61578 2.5715 0
M  V30 15173 H 1447.57 0.84973 1.22882 0
M  V30 15174 H 1449.45 -0.210613 4.20873 0
M  V30 15175 H 1448.12 -0.760008 3.14652 0
M  V30 15176 H 1447.03 1.54249 3.4082 0
M  V30 15177 H 1448.36 2.01149 4.49221 0
M  V30 15178 N 1450.02 -1.31994 0.861122 0
M  V30 15179 C 1451.43 -1.79271 0.521437 0
M  V30 15180 C 1451.78 -1.71046 -0.96113 0
M  V30 15181 O 1450.9 -1.2729 -1.75003 0
M  V30 15182 C 1451.5 -3.25507 0.939731 0
M  V30 15183 C 1450.06 -3.70713 0.651845 0
M  V30 15184 C 1449.2 -2.52967 1.13592 0
M  V30 15185 H 1452.16 -1.19201 1.0477 0
M  V30 15186 H 1452.18 -3.79619 0.258754 0
M  V30 15187 H 1451.69 -3.3146 2.0188 0
M  V30 15188 H 1449.79 -3.70268 -0.416232 0
M  V30 15189 H 1449.9 -4.63236 1.22267 0
M  V30 15190 H 1448.27 -2.48558 0.555971 0
M  V30 15191 H 1449.05 -2.61671 2.22223 0
M  V30 15192 N 1451.49 -0.619688 -1.44906 0
M  V30 15193 C 1452.46 0.0822364 -2.29052 0
M  V30 15194 C 1453.46 0.783427 -1.40425 0
M  V30 15195 O 1454.65 0.629751 -1.62419 0
M  V30 15196 C 1451.78 1.12685 -3.21737 0
M  V30 15197 H 1452.97 -0.657726 -2.92599 0
M  V30 15198 H 1450.53 -0.379286 -1.51628 0
M  V30 15199 H 1451.26 1.89717 -2.63017 0
M  V30 15200 H 1451.05 0.628122 -3.87036 0
M  V30 15201 H 1452.54 1.61808 -3.84978 0
M  V30 15202 N 1452.97 1.53444 -0.359552 0
M  V30 15203 C 1454.2 2.06058 0.235576 0
M  V30 15204 C 1454.62 1.23175 1.42161 0
M  V30 15205 O 1453.98 0.249338 1.79577 0
M  V30 15206 C 1454.03 3.55351 0.613025 0
M  V30 15207 O 1453.13 3.75229 1.71104 0
M  V30 15208 H 1452.47 0.663038 0.0357266 0
M  V30 15209 H 1455 1.97923 -0.518408 0
M  V30 15210 H 1455.01 3.9827 0.885722 0
M  V30 15211 H 1453.69 4.15122 -0.254243 0
M  V30 15212 H 1452.27 3.4421 1.43437 0
M  V30 15213 N 1454.45 0.0885642 1.57351 0
M  V30 15214 C 1455.86 -0.441569 1.81403 0
M  V30 15215 C 1456.21 -1.68582 1.00372 0
M  V30 15216 O 1455.34 -2.15162 0.231153 0
M  V30 15217 C 1455.93 -0.807886 3.29027 0
M  V30 15218 C 1454.49 -1.2828 3.53866 0
M  V30 15219 C 1453.64 -0.276217 2.75921 0
M  V30 15220 H 1456.59 0.314083 1.55561 0
M  V30 15221 H 1456.61 -1.66797 3.41993 0
M  V30 15222 H 1456.12 0.0978886 3.87977 0
M  V30 15223 H 1454.22 -2.2065 3.0024 0
M  V30 15224 H 1454.34 -1.24914 4.62529 0
M  V30 15225 H 1452.7 -0.757007 2.4319 0
M  V30 15226 H 1453.48 0.622123 3.37616 0
M  V30 15227 N 1455.93 -1.56509 -0.185096 0
M  V30 15228 C 1456.84 -1.98552 -1.24958 0
M  V30 15229 C 1457.85 -0.894713 -1.49234 0
M  V30 15230 O 1459.03 -1.20126 -1.61653 0
M  V30 15231 C 1456.1 -2.32513 -2.57175 0
M  V30 15232 C 1455.16 -3.55351 -2.40882 0
M  V30 15233 C 1454.39 -3.87683 -3.66794 0
M  V30 15234 O 1454.61 -3.21167 -4.7139 0
M  V30 15235 O 1453.55 -4.8108 -3.61726 0
M  V30 15236 H 1457.37 -2.89342 -0.922756 0
M  V30 15237 H 1454.96 -1.44196 -0.390887 0
M  V30 15238 H 1456.84 -2.55387 -3.35195 0
M  V30 15239 H 1455.51 -1.44888 -2.89464 0
M  V30 15240 H 1454.42 -3.37712 -1.60939 0
M  V30 15241 H 1455.75 -4.43474 -2.13522 0
M  V30 15242 N 1457.41 0.45317 -1.50944 0
M  V30 15243 C 1458.32 1.57435 -1.73929 0
M  V30 15244 C 1459.33 1.62467 -0.622935 0
M  V30 15245 O 1460.51 1.80004 -0.903365 0
M  V30 15246 C 1457.57 2.93534 -1.84495 0
M  V30 15247 C 1456.63 2.98747 -3.083 0
M  V30 15248 C 1455.87 4.28354 -3.18352 0
M  V30 15249 O 1456.09 5.1986 -2.34738 0
M  V30 15250 O 1455.02 4.39527 -4.11217 0
M  V30 15251 H 1458.85 1.40959 -2.69006 0
M  V30 15252 H 1456.44 0.634545 -1.35255 0
M  V30 15253 H 1458.32 3.74336 -1.93522 0
M  V30 15254 H 1456.99 3.10171 -0.926044 0
M  V30 15255 H 1455.9 2.16958 -3.04762 0
M  V30 15256 H 1457.23 2.87051 -3.99828 0
M  V30 15257 N 1458.88 1.40823 0.707568 0
M  V30 15258 C 1460.11 1.43061 1.50161 0
M  V30 15259 C 1460.53 0.0342144 1.88069 0
M  V30 15260 O 1459.89 -0.959674 1.53818 0
M  V30 15261 C 1459.94 2.33459 2.74826 0
M  V30 15262 O 1459.04 1.78336 3.71847 0
M  V30 15263 H 1458.39 0.48602 0.452417 0
M  V30 15264 H 1460.92 1.85147 0.870742 0
M  V30 15265 H 1460.93 2.48922 3.23267 0
M  V30 15266 H 1459.6 3.34927 2.46571 0
M  V30 15267 H 1458.18 1.7226 3.30728 0
M  V30 15268 N 1460.36 -0.94061 1.26453 0
M  V30 15269 C 1461.59 -1.72654 1.14914 0
M  V30 15270 C 1462.01 -1.85823 -0.291789 0
M  V30 15271 O 1461.37 -1.34888 -1.2114 0
M  V30 15272 C 1461.42 -3.11083 1.82372 0
M  V30 15273 O 1460.52 -3.971 1.1129 0
M  V30 15274 H 1459.86 -0.529704 0.400387 0
M  V30 15275 H 1462.39 -1.17803 1.67283 0
M  V30 15276 H 1462.4 -3.6147 1.89219 0
M  V30 15277 H 1461.08 -3.00815 2.87199 0
M  V30 15278 H 1459.66 -3.5555 1.12423 0
M  V30 15279 N 1461.84 -1.08266 -1.14527 0
M  V30 15280 C 1463.09 -0.809856 -1.85164 0
M  V30 15281 C 1463.41 0.666263 -1.83265 0
M  V30 15282 O 1462.68 1.48295 -1.28006 0
M  V30 15283 H 1461.26 -0.296598 -0.685594 0
M  V30 15284 H 1463.92 -1.36834 -1.38789 0
M  V30 15285 H 1463.02 -1.15272 -2.90032 0
M  V30 15286 N 1463.32 1.31536 -0.86811 0
M  V30 15287 C 1464.25 2.31037 -0.33822 0
M  V30 15288 C 1465.23 1.60269 0.569892 0
M  V30 15289 O 1466.42 1.87987 0.487305 0
M  V30 15290 C 1463.55 3.44203 0.462753 0
M  V30 15291 C 1462.5 4.26549 -0.3521 0
M  V30 15292 C 1461.83 5.31605 0.574443 0
M  V30 15293 C 1463.13 4.97665 -1.58516 0
M  V30 15294 H 1464.82 2.75607 -1.16967 0
M  V30 15295 H 1462.37 1.325 -0.56389 0
M  V30 15296 H 1464.32 4.12862 0.843967 0
M  V30 15297 H 1463.04 2.98396 1.32769 0
M  V30 15298 H 1461.7 3.59555 -0.715237 0
M  V30 15299 H 1461.35 4.82048 1.43661 0
M  V30 15300 H 1461.05 5.87591 0.0331436 0
M  V30 15301 H 1462.57 6.03124 0.952541 0
M  V30 15302 H 1463.99 5.58931 -1.27549 0
M  V30 15303 H 1462.38 5.63437 -2.06539 0
M  V30 15304 H 1463.45 4.24756 -2.33902 0
M  V30 15305 N 1464.8 0.627364 1.44575 0
M  V30 15306 C 1466.02 0.135576 2.06956 0
M  V30 15307 C 1466.45 -1.17922 1.46547 0
M  V30 15308 O 1465.81 -1.72255 0.565509 0
M  V30 15309 C 1465.85 0.030347 3.60587 0
M  V30 15310 O 1464.96 -1.01464 3.99724 0
M  V30 15311 H 1464.3 0.083058 0.658785 0
M  V30 15312 H 1466.83 0.862977 1.8551 0
M  V30 15313 H 1466.84 -0.161461 4.0768 0
M  V30 15314 H 1465.51 0.990285 4.03938 0
M  V30 15315 H 1464.09 -0.797701 3.64268 0
M  V30 15316 N 1466.28 -1.53251 0.367684 0
M  V30 15317 C 1467.21 -2.28728 -0.469676 0
M  V30 15318 C 1468.19 -1.3124 -1.08213 0
M  V30 15319 O 1469.37 -1.60112 -1.09898 0
M  V30 15320 C 1466.5 -3.07808 -1.60846 0
M  V30 15321 C 1465.46 -4.13 -1.12315 0
M  V30 15322 C 1464.78 -4.80176 -2.35234 0
M  V30 15323 C 1466.08 -5.21892 -0.2064 0
M  V30 15324 H 1467.78 -2.98972 0.160019 0
M  V30 15325 H 1465.32 -1.43786 0.0784011 0
M  V30 15326 H 1467.27 -3.59358 -2.20091 0
M  V30 15327 H 1466 -2.35258 -2.26542 0
M  V30 15328 H 1464.66 -3.62399 -0.553378 0
M  V30 15329 H 1464.31 -4.04196 -2.99391 0
M  V30 15330 H 1464.01 -5.51261 -2.03433 0
M  V30 15331 H 1465.53 -5.34521 -2.9516 0
M  V30 15332 H 1466.94 -5.68932 -0.706386 0
M  V30 15333 H 1465.34 -6.00096 0.0208362 0
M  V30 15334 H 1466.41 -4.79051 0.750851 0
M  V30 15335 N 1467.75 -0.0969077 -1.57302 0
M  V30 15336 C 1468.68 0.858443 -2.17147 0
M  V30 15337 C 1469.66 1.29294 -1.10531 0
M  V30 15338 O 1470.85 1.3595 -1.38676 0
M  V30 15339 C 1467.98 2.11691 -2.75326 0
M  V30 15340 C 1466.93 1.82097 -3.8733 0
M  V30 15341 C 1466.26 3.14787 -4.32219 0
M  V30 15342 C 1467.56 1.10651 -5.10444 0
M  V30 15343 H 1469.25 0.35982 -2.9723 0
M  V30 15344 H 1466.8 0.17163 -1.42974 0
M  V30 15345 H 1468.75 2.78963 -3.15844 0
M  V30 15346 H 1467.48 2.63839 -1.925 0
M  V30 15347 H 1466.14 1.17222 -3.47354 0
M  V30 15348 H 1465.78 3.64826 -3.46281 0
M  V30 15349 H 1465.48 2.95769 -5.07735 0
M  V30 15350 H 1467.01 3.83215 -4.75372 0
M  V30 15351 H 1468.42 1.68036 -5.48121 0
M  V30 15352 H 1466.82 1.01805 -5.91401 0
M  V30 15353 H 1467.89 0.0895634 -4.84817 0
M  V30 15354 N 1469.23 1.56605 0.176793 0
M  V30 15355 C 1470.18 1.92393 1.22347 0
M  V30 15356 C 1471.17 0.791622 1.40079 0
M  V30 15357 O 1472.36 1.05474 1.42142 0
M  V30 15358 C 1469.49 2.28266 2.56417 0
M  V30 15359 C 1468.57 3.47997 2.42402 0
M  V30 15360 N 1468.96 4.65396 1.98092 0
M  V30 15361 C 1467.26 3.52496 2.73244 0
M  V30 15362 C 1467.96 5.47539 1.96409 0
M  V30 15363 N 1466.94 4.88434 2.38606 0
M  V30 15364 H 1470.74 2.8065 0.872507 0
M  V30 15365 H 1468.25 1.57768 0.385107 0
M  V30 15366 H 1470.25 2.52097 3.32043 0
M  V30 15367 H 1468.91 1.41345 2.92321 0
M  V30 15368 H 1469.92 4.89717 1.68515 0
M  V30 15369 H 1466.6 2.7604 3.13223 0
M  V30 15370 H 1467.99 6.51604 1.63896 0
M  V30 15371 N 1470.71 -0.445159 1.51182 0
M  V30 15372 C 1471.64 -1.55788 1.68115 0
M  V30 15373 C 1472.65 -1.52793 0.561964 0
M  V30 15374 O 1473.84 -1.57711 0.836029 0
M  V30 15375 C 1470.94 -2.94702 1.67344 0
M  V30 15376 C 1470.12 -3.22286 2.9572 0
M  V30 15377 C 1469.18 -4.40884 2.87241 0
M  V30 15378 O 1468.2 -4.3992 3.61191 0
M  V30 15379 N 1469.4 -5.44013 2.02558 0
M  V30 15380 H 1472.17 -1.4167 2.64102 0
M  V30 15381 H 1469.73 -0.633984 1.48971 0
M  V30 15382 H 1471.72 -3.7205 1.5925 0
M  V30 15383 H 1470.29 -3.02457 0.789842 0
M  V30 15384 H 1469.51 -2.33309 3.17743 0
M  V30 15385 H 1470.8 -3.3754 3.80715 0
M  V30 15386 H 1470.2 -5.47629 1.4184 0
M  V30 15387 H 1468.75 -6.20245 2.0035 0
M  V30 15388 N 1472.19 -1.41197 -0.700089 0
M  V30 15389 C 1473.1 -1.45038 -1.84394 0
M  V30 15390 C 1474.11 -0.34141 -1.70618 0
M  V30 15391 O 1475.29 -0.588428 -1.92612 0
M  V30 15392 C 1472.35 -1.32611 -3.20336 0
M  V30 15393 C 1471.42 -2.53784 -3.46254 0
M  V30 15394 C 1470.65 -2.4194 -4.75711 0
M  V30 15395 O 1470.87 -1.44153 -5.51884 0
M  V30 15396 O 1469.81 -3.31613 -5.02311 0
M  V30 15397 H 1473.63 -2.41531 -1.8411 0
M  V30 15398 H 1471.22 -1.22686 -0.852558 0
M  V30 15399 H 1473.1 -1.27947 -4.01507 0
M  V30 15400 H 1471.77 -0.392309 -3.21314 0
M  V30 15401 H 1470.68 -2.64024 -2.65032 0
M  V30 15402 H 1472.01 -3.45977 -3.50087 0
M  V30 15403 N 1473.67 0.933891 -1.2695 0
M  V30 15404 C 1474.89 1.72042 -1.15828 0
M  V30 15405 C 1475.32 1.85975 0.28193 0
M  V30 15406 O 1474.67 1.35528 1.20423 0
M  V30 15407 C 1474.72 3.10112 -1.84019 0
M  V30 15408 O 1473.83 3.96504 -1.13394 0
M  V30 15409 H 1473.17 0.527573 -0.40319 0
M  V30 15410 H 1475.7 1.16914 -1.67905 0
M  V30 15411 H 1475.71 3.60461 -1.91133 0
M  V30 15412 H 1474.38 2.99287 -2.8879 0
M  V30 15413 H 1472.96 3.54948 -1.14307 0
M  V30 15414 N 1475.14 1.08871 1.13951 0
M  V30 15415 C 1476.09 0.722966 2.19184 0
M  V30 15416 C 1477.06 -0.293108 1.63493 0
M  V30 15417 O 1478.25 -0.176036 1.89986 0
M  V30 15418 C 1475.39 0.143542 3.44801 0
M  V30 15419 C 1474.5 1.21297 4.14622 0
M  V30 15420 C 1473.63 0.596902 5.27836 0
M  V30 15421 C 1472.67 1.64803 5.89497 0
M  V30 15422 N 1471.81 1.05341 6.94152 0
M  V30 15423 H 1476.65 1.62464 2.49819 0
M  V30 15424 H 1474.19 0.811803 1.22671 0
M  V30 15425 H 1476.14 -0.210153 4.1667 0
M  V30 15426 H 1474.77 -0.721426 3.14635 0
M  V30 15427 H 1473.83 1.68403 3.41093 0
M  V30 15428 H 1475.14 2.00931 4.56539 0
M  V30 15429 H 1474.29 0.191724 6.06397 0
M  V30 15430 H 1473.03 -0.231052 4.87152 0
M  V30 15431 H 1472.04 2.06282 5.09635 0
M  V30 15432 H 1473.26 2.47855 6.32254 0
M  V30 15433 H 1471.21 0.24664 6.55536 0
M  V30 15434 H 1471.12 1.7868 7.34581 0
M  V30 15435 H 1472.39 0.674253 7.76578 0
M  V30 15436 N 1476.62 -1.31073 0.875073 0
M  V30 15437 C 1478.04 -1.49162 0.567697 0
M  V30 15438 C 1478.24 -1.80435 -0.896969 0
M  V30 15439 O 1477.29 -1.88604 -1.67883 0
M  V30 15440 C 1478.61 -2.6219 1.47231 0
M  V30 15441 C 1480.15 -2.76072 1.47489 0
M  V30 15442 C 1480.63 -3.92202 2.36519 0
M  V30 15443 N 1482.12 -3.99497 2.34428 0
M  V30 15444 C 1482.86 -4.88639 3.00033 0
M  V30 15445 N 1482.35 -5.82647 3.74826 0
M  V30 15446 N 1484.14 -4.81926 2.89315 0
M  V30 15447 H 1476.3 -1.09045 1.82272 0
M  V30 15448 H 1478.56 -0.539291 0.77966 0
M  V30 15449 H 1478.26 -2.45872 2.51475 0
M  V30 15450 H 1478.14 -3.58446 1.17459 0
M  V30 15451 H 1480.53 -2.91801 0.440008 0
M  V30 15452 H 1480.61 -1.80468 1.81287 0
M  V30 15453 H 1480.25 -3.77231 3.40087 0
M  V30 15454 H 1480.18 -4.87125 2.00043 0
M  V30 15455 H 1482.67 -3.32241 1.80067 0
M  V30 15456 H 1482.98 -6.47406 4.22001 0
M  V30 15457 H 1481.33 -5.82609 3.78934 0
M  V30 15458 H 1484.52 -4.07462 2.30418 0
M  V30 15459 H 1484.69 -5.51192 3.40722 0
M  V30 15460 N 1478.1 -0.635022 -1.4424 0
M  V30 15461 C 1479.52 -0.300978 -1.56736 0
M  V30 15462 C 1479.72 1.19571 -1.62188 0
M  V30 15463 O 1478.77 1.97991 -1.56703 0
M  V30 15464 C 1480.09 -0.996327 -2.83714 0
M  V30 15465 C 1481.63 -0.97484 -2.97432 0
M  V30 15466 C 1482.11 -1.65073 -4.27218 0
M  V30 15467 N 1483.6 -1.6175 -4.3404 0
M  V30 15468 C 1484.33 -2.10938 -5.33191 0
M  V30 15469 N 1483.83 -2.68333 -6.38725 0
M  V30 15470 N 1485.62 -2.01544 -5.24725 0
M  V30 15471 H 1477.77 -1.60649 -1.38945 0
M  V30 15472 H 1480.04 -0.674561 -0.666087 0
M  V30 15473 H 1479.74 -2.05128 -2.85684 0
M  V30 15474 H 1479.62 -0.536511 -3.73365 0
M  V30 15475 H 1482 0.071646 -2.95013 0
M  V30 15476 H 1482.09 -1.47318 -2.0912 0
M  V30 15477 H 1481.73 -2.69669 -4.30397 0
M  V30 15478 H 1481.66 -1.12719 -5.14395 0
M  V30 15479 H 1484.15 -1.1985 -3.58392 0
M  V30 15480 H 1484.46 -3.03588 -7.10672 0
M  V30 15481 H 1482.81 -2.72385 -6.39399 0
M  V30 15482 H 1486 -1.56423 -4.41191 0
M  V30 15483 H 1486.17 -2.40187 -6.01842 0
M  V30 15484 N 1479.58 1.53054 -0.375806 0
M  V30 15485 C 1480.54 2.24666 0.453608 0
M  V30 15486 C 1481.54 1.25816 1.00135 0
M  V30 15487 O 1482.73 1.50016 0.885481 0
M  V30 15488 C 1479.86 2.99131 1.63503 0
M  V30 15489 H 1481.06 2.994 -0.173172 0
M  V30 15490 H 1478.61 1.55778 -0.127673 0
M  V30 15491 H 1479.34 2.28666 2.29962 0
M  V30 15492 H 1479.13 3.71671 1.24913 0
M  V30 15493 H 1480.62 3.53542 2.22256 0
M  V30 15494 N 1481.06 0.105248 1.57248 0
M  V30 15495 C 1481.99 -0.886904 2.1026 0
M  V30 15496 C 1482.97 -1.26981 1.01561 0
M  V30 15497 O 1484.15 -1.37327 1.29126 0
M  V30 15498 C 1481.28 -2.18499 2.58797 0
M  V30 15499 C 1480.32 -1.95119 3.79251 0
M  V30 15500 S 1481.16 -1.17995 5.22338 0
M  V30 15501 C 1482.31 -2.49012 5.74233 0
M  V30 15502 H 1482.55 -0.435954 2.94086 0
M  V30 15503 H 1480.08 -0.108251 1.5402 0
M  V30 15504 H 1482.04 -2.93089 2.87418 0
M  V30 15505 H 1480.7 -2.60714 1.75178 0
M  V30 15506 H 1479.89 -2.91268 4.11314 0
M  V30 15507 H 1479.49 -1.28654 3.51175 0
M  V30 15508 H 1481.79 -3.44932 5.83119 0
M  V30 15509 H 1482.73 -2.21513 6.7256 0
M  V30 15510 H 1483.14 -2.5775 5.0222 0
M  V30 15511 N 1482.53 -1.56697 -0.168486 0
M  V30 15512 C 1483.46 -1.99659 -1.21073 0
M  V30 15513 C 1484.45 -0.872625 -1.46011 0
M  V30 15514 O 1485.63 -1.13891 -1.57297 0
M  V30 15515 C 1482.76 -2.35889 -2.54899 0
M  V30 15516 C 1481.71 -3.51272 -2.44524 0
M  V30 15517 C 1481.04 -3.73253 -3.82866 0
M  V30 15518 C 1482.34 -4.84631 -1.94756 0
M  V30 15519 H 1484.03 -2.86974 -0.853593 0
M  V30 15520 H 1481.58 -1.38065 -0.409165 0
M  V30 15521 H 1483.53 -2.64542 -3.28017 0
M  V30 15522 H 1482.26 -1.45486 -2.92406 0
M  V30 15523 H 1480.92 -3.22751 -1.7386 0
M  V30 15524 H 1480.56 -2.80136 -4.17772 0
M  V30 15525 H 1480.26 -4.5089 -3.76792 0
M  V30 15526 H 1481.79 -4.04309 -4.57566 0
M  V30 15527 H 1483.2 -5.12142 -2.5765 0
M  V30 15528 H 1481.6 -5.65925 -1.99623 0
M  V30 15529 H 1482.67 -4.76436 -0.902021 0
M  V30 15530 N 1484.01 0.437135 -1.51416 0
M  V30 15531 C 1484.98 1.51313 -1.72154 0
M  V30 15532 C 1485.98 1.49523 -0.59157 0
M  V30 15533 O 1487.17 1.51541 -0.859118 0
M  V30 15534 C 1484.3 2.9085 -1.77818 0
M  V30 15535 H 1485.49 1.34229 -2.68184 0
M  V30 15536 H 1483.04 0.665822 -1.41409 0
M  V30 15537 H 1483.78 3.13338 -0.836033 0
M  V30 15538 H 1483.56 2.93554 -2.59939 0
M  V30 15539 H 1485.05 3.68905 -1.957 0
M  V30 15540 N 1485.49 1.41566 0.692592 0
M  V30 15541 C 1486.45 1.43369 1.78824 0
M  V30 15542 C 1487.45 0.323867 1.57505 0
M  V30 15543 O 1488.64 0.583885 1.64123 0
M  V30 15544 C 1485.78 1.24798 3.17235 0
M  V30 15545 H 1486.97 2.40906 1.78617 0
M  V30 15546 H 1484.52 1.27752 0.900508 0
M  V30 15547 H 1485.26 0.281129 3.23079 0
M  V30 15548 H 1485.04 2.05212 3.34111 0
M  V30 15549 H 1486.53 1.28902 3.97208 0
M  V30 15550 N 1486.97 -0.927146 1.27443 0
M  V30 15551 C 1488.21 -1.67738 1.13982 0
M  V30 15552 C 1488.55 -1.91653 -0.313511 0
M  V30 15553 O 1487.82 -1.50729 -1.22926 0
M  V30 15554 C 1488.11 -3.04357 1.92454 0
M  V30 15555 C 1487.96 -2.8768 3.45775 0
M  V30 15556 C 1489.28 -4.04696 1.72944 0
M  V30 15557 H 1486.4 -0.608749 0.415444 0
M  V30 15558 H 1489.04 -1.07587 1.56605 0
M  V30 15559 H 1487.19 -3.55702 1.56232 0
M  V30 15560 H 1488.86 -2.43449 3.9183 0
M  V30 15561 H 1487.1 -2.23011 3.72087 0
M  V30 15562 H 1487.77 -3.8464 3.95924 0
M  V30 15563 H 1490.25 -3.62364 2.04528 0
M  V30 15564 H 1489.13 -4.98276 2.30243 0
M  V30 15565 H 1489.39 -4.36878 0.677505 0
M  V30 15566 N 1488.45 -1.09474 -1.13372 0
M  V30 15567 C 1489.38 -0.756441 -2.20908 0
M  V30 15568 C 1490.36 0.266113 -1.68006 0
M  V30 15569 O 1491.54 0.134067 -1.93737 0
M  V30 15570 C 1488.67 -0.176733 -3.4685 0
M  V30 15571 C 1487.63 -1.12886 -4.12845 0
M  V30 15572 C 1486.95 -0.410831 -5.33119 0
M  V30 15573 C 1488.25 -2.47148 -4.60125 0
M  V30 15574 H 1489.95 -1.65555 -2.49463 0
M  V30 15575 H 1487.49 -0.797458 -1.19902 0
M  V30 15576 H 1489.45 0.0720151 -4.21338 0
M  V30 15577 H 1488.17 0.757576 -3.17692 0
M  V30 15578 H 1486.83 -1.36289 -3.40325 0
M  V30 15579 H 1486.48 0.527632 -5.00225 0
M  V30 15580 H 1486.18 -1.04567 -5.78221 0
M  V30 15581 H 1487.7 -0.170394 -6.10362 0
M  V30 15582 H 1489.11 -2.27949 -5.26034 0
M  V30 15583 H 1487.51 -3.06425 -5.15969 0
M  V30 15584 H 1488.58 -3.07874 -3.74622 0
M  V30 15585 N 1489.92 1.30607 -0.882012 0
M  V30 15586 C 1490.83 2.31967 -0.350503 0
M  V30 15587 C 1491.85 1.6522 0.54575 0
M  V30 15588 O 1493.03 1.96544 0.439581 0
M  V30 15589 C 1490.09 3.44037 0.428924 0
M  V30 15590 C 1489.15 4.26417 -0.496727 0
M  V30 15591 C 1488.39 5.33135 0.245597 0
M  V30 15592 O 1488.61 5.51077 1.47209 0
M  V30 15593 O 1487.54 6.00551 -0.402767 0
M  V30 15594 H 1491.37 2.79374 -1.19095 0
M  V30 15595 H 1488.95 1.34723 -0.645754 0
M  V30 15596 H 1490.84 4.12314 0.870346 0
M  V30 15597 H 1489.51 2.9877 1.24573 0
M  V30 15598 H 1488.42 3.60848 -0.986899 0
M  V30 15599 H 1489.75 4.7528 -1.27945 0
M  V30 15600 N 1491.4 0.642663 1.43901 0
M  V30 15601 C 1492.33 -0.0938945 2.29008 0
M  V30 15602 C 1493.35 -0.797561 1.41925 0
M  V30 15603 O 1494.54 -0.65708 1.65966 0
M  V30 15604 C 1491.64 -1.15564 3.18588 0
M  V30 15605 C 1490.81 -0.532208 4.3415 0
M  V30 15606 C 1489.87 -1.48943 5.0468 0
M  V30 15607 O 1488.89 -1.00211 5.60309 0
M  V30 15608 N 1490.1 -2.82362 5.072 0
M  V30 15609 H 1492.86 0.636539 2.92862 0
M  V30 15610 H 1490.42 0.484665 1.54475 0
M  V30 15611 H 1492.41 -1.79658 3.62636 0
M  V30 15612 H 1490.98 -1.78816 2.56405 0
M  V30 15613 H 1490.2 0.287598 3.93149 0
M  V30 15614 H 1491.49 -0.0965526 5.08708 0
M  V30 15615 H 1490.89 -3.24524 4.63358 0
M  V30 15616 H 1489.45 -3.41786 5.55001 0
M  V30 15617 N 1492.88 -1.52852 0.383918 0
M  V30 15618 C 1493.79 -2.3002 -0.461298 0
M  V30 15619 C 1494.81 -1.36717 -1.07631 0
M  V30 15620 O 1495.98 -1.69784 -1.08329 0
M  V30 15621 C 1493.05 -3.08804 -1.57609 0
M  V30 15622 C 1492.11 -4.17806 -0.986737 0
M  V30 15623 C 1491.34 -4.92825 -2.04841 0
M  V30 15624 O 1491.57 -4.67879 -3.26259 0
M  V30 15625 O 1490.5 -5.78306 -1.66871 0
M  V30 15626 H 1494.33 -3.03239 0.167189 0
M  V30 15627 H 1491.91 -1.48667 0.147781 0
M  V30 15628 H 1493.79 -3.57943 -2.22384 0
M  V30 15629 H 1492.47 -2.38404 -2.18964 0
M  V30 15630 H 1491.37 -3.72876 -0.302396 0
M  V30 15631 H 1492.71 -4.90426 -0.417481 0
M  V30 15632 N 1494.36 -0.113586 -1.5719 0
M  V30 15633 C 1495.29 0.835363 -2.18046 0
M  V30 15634 C 1496.27 1.28114 -1.11897 0
M  V30 15635 O 1497.46 1.34472 -1.40111 0
M  V30 15636 C 1494.59 2.08759 -2.77556 0
M  V30 15637 C 1493.54 1.77979 -3.8924 0
M  V30 15638 C 1492.87 3.10185 -4.35533 0
M  V30 15639 C 1494.17 1.05231 -5.11589 0
M  V30 15640 H 1495.86 0.328275 -2.97595 0
M  V30 15641 H 1493.41 0.156456 -1.43148 0
M  V30 15642 H 1495.36 2.75597 -3.18785 0
M  V30 15643 H 1494.08 2.61783 -1.95288 0
M  V30 15644 H 1492.74 1.13532 -3.48577 0
M  V30 15645 H 1492.39 3.61133 -3.50131 0
M  V30 15646 H 1492.09 2.90367 -5.10843 0
M  V30 15647 H 1493.61 3.78151 -4.7941 0
M  V30 15648 H 1495.03 1.62213 -5.49872 0
M  V30 15649 H 1493.42 0.955269 -5.92448 0
M  V30 15650 H 1494.49 0.038137 -4.84885 0
M  V30 15651 N 1495.84 1.56784 0.160173 0
M  V30 15652 C 1497.25 1.72193 0.721552 0
M  V30 15653 C 1497.6 0.725901 1.82278 0
M  V30 15654 O 1496.72 -0.110343 2.16118 0
M  V30 15655 C 1497.32 3.12212 1.31563 0
M  V30 15656 C 1495.88 3.29268 1.82371 0
M  V30 15657 C 1495.03 2.68136 0.70701 0
M  V30 15658 H 1497.98 1.58565 -0.0653521 0
M  V30 15659 H 1498 3.11481 2.1854 0
M  V30 15660 H 1497.51 3.84682 0.513917 0
M  V30 15661 H 1495.61 2.61774 2.65152 0
M  V30 15662 H 1495.72 4.37107 1.96149 0
M  V30 15663 H 1494.09 2.28246 1.1303 0
M  V30 15664 H 1494.87 3.432 -0.0830407 0
M  V30 15665 N 1497.32 -0.429099 1.51646 0
M  V30 15666 C 1498.28 -1.50398 1.72954 0
M  V30 15667 C 1499.28 -1.49207 0.599491 0
M  V30 15668 O 1500.47 -1.51084 0.867143 0
M  V30 15669 C 1497.6 -2.89903 1.79358 0
M  V30 15670 H 1498.79 -1.32805 2.68892 0
M  V30 15671 H 1496.35 -0.658313 1.4176 0
M  V30 15672 H 1497.08 -3.12891 0.852639 0
M  V30 15673 H 1496.87 -2.92171 2.61492 0
M  V30 15674 H 1498.36 -3.67862 1.97654 0
M  V30 15675 N 1498.79 -1.41931 -0.685074 0
M  V30 15676 C 1499.72 -1.47385 -1.81107 0
M  V30 15677 C 1500.7 -0.331433 -1.6684 0
M  V30 15678 O 1501.89 -0.544331 -1.86415 0
M  V30 15679 C 1499.02 -1.36555 -3.19327 0
M  V30 15680 C 1497.97 -2.48718 -3.48315 0
M  V30 15681 C 1497.3 -2.2295 -4.86002 0
M  V30 15682 C 1498.6 -3.91047 -3.46237 0
M  V30 15683 H 1500.29 -2.41624 -1.768 0
M  V30 15684 H 1497.84 -1.16297 -0.849178 0
M  V30 15685 H 1499.79 -1.38981 -3.97822 0
M  V30 15686 H 1498.52 -0.388063 -3.24286 0
M  V30 15687 H 1497.18 -2.45592 -2.72176 0
M  V30 15688 H 1496.82 -1.23518 -4.87598 0
M  V30 15689 H 1496.52 -2.98116 -5.0636 0
M  V30 15690 H 1498.05 -2.27108 -5.66793 0
M  V30 15691 H 1499.46 -3.95831 -4.14718 0
M  V30 15692 H 1497.86 -4.65981 -3.7813 0
M  V30 15693 H 1498.93 -4.1845 -2.45006 0
M  V30 15694 N 1500.27 0.920374 -1.27933 0
M  V30 15695 C 1501.23 2.0035 -1.11321 0
M  V30 15696 C 1502.23 1.60706 -0.0549132 0
M  V30 15697 O 1503.42 1.71595 -0.300134 0
M  V30 15698 C 1500.56 3.33681 -0.69782 0
M  V30 15699 H 1501.75 2.16518 -2.07509 0
M  V30 15700 H 1499.3 1.10216 -1.10825 0
M  V30 15701 H 1500.04 3.23214 0.265122 0
M  V30 15702 H 1499.82 3.63815 -1.46223 0
M  V30 15703 H 1501.31 4.13208 -0.604048 0
M  V30 15704 N 1501.75 1.10074 1.1279 0
M  V30 15705 C 1502.66 0.758458 2.22001 0
M  V30 15706 C 1503.68 -0.242438 1.72303 0
M  V30 15707 O 1504.85 -0.0821223 2.01233 0
M  V30 15708 C 1501.92 0.191326 3.46172 0
M  V30 15709 C 1500.98 1.24902 4.10729 0
M  V30 15710 C 1500.21 0.708857 5.28972 0
M  V30 15711 O 1500.43 -0.465993 5.68493 0
M  V30 15712 O 1499.37 1.46703 5.83748 0
M  V30 15713 H 1503.19 1.66997 2.53665 0
M  V30 15714 H 1500.78 0.875604 1.21052 0
M  V30 15715 H 1502.66 -0.121292 4.21225 0
M  V30 15716 H 1501.34 -0.693094 3.16193 0
M  V30 15717 H 1500.24 1.61444 3.37471 0
M  V30 15718 H 1501.58 2.10632 4.44854 0
M  V30 15719 N 1503.23 -1.30138 0.888926 0
M  V30 15720 C 1504.18 -2.29979 0.348212 0
M  V30 15721 C 1505.17 -1.60329 -0.546894 0
M  V30 15722 O 1506.38 -1.74767 -0.43089 0
M  V30 15723 H 1502.75 -0.746107 0.0939563 0
M  V30 15724 H 1504.72 -2.73038 1.20385 0
M  V30 15725 C 1503.47 -3.45169 -0.418762 0
M  V30 15726 H 1502.79 -3.98949 0.260761 0
M  V30 15727 H 1504.23 -4.17094 -0.762133 0
M  V30 15728 C 1502.69 -2.95539 -1.61734 0
M  V30 15729 O 1503.22 -2.95902 -2.7167 0
M  V30 15730 N 1501.43 -2.51502 -1.45585 0
M  V30 15731 H 1500.98 -2.51406 -0.561483 0
M  V30 15732 H 1500.93 -2.18654 -2.25916 0
M  V30 15733 N 1504.71 -0.650285 -1.43559 0
M  V30 15734 C 1505.64 0.0295939 -2.33481 0
M  V30 15735 C 1506.62 0.815017 -1.49303 0
M  V30 15736 O 1507.8 0.77708 -1.77975 0
M  V30 15737 C 1504.93 0.998683 -3.32631 0
M  V30 15738 C 1503.89 0.323577 -4.26775 0
M  V30 15739 C 1503.21 1.40391 -5.1594 0
M  V30 15740 C 1504.51 -0.782197 -5.1641 0
M  V30 15741 H 1506.21 -0.721349 -2.9058 0
M  V30 15742 H 1503.75 -0.348339 -1.39723 0
M  V30 15743 H 1505.7 1.4832 -3.94435 0
M  V30 15744 H 1504.43 1.78075 -2.73782 0
M  V30 15745 H 1503.09 -0.140467 -3.66331 0
M  V30 15746 H 1502.74 2.17734 -4.53432 0
M  V30 15747 H 1502.44 0.957462 -5.79747 0
M  V30 15748 H 1503.96 1.88985 -5.80618 0
M  V30 15749 H 1505.37 -0.379966 -5.72039 0
M  V30 15750 H 1503.77 -1.15293 -5.88921 0
M  V30 15751 H 1504.84 -1.6414 -4.56274 0
M  V30 15752 N 1506.18 1.52647 -0.392018 0
M  V30 15753 C 1507.13 2.23336 0.458815 0
M  V30 15754 C 1508.12 1.23825 1.02743 0
M  V30 15755 O 1509.31 1.49148 0.953089 0
M  V30 15756 C 1506.44 3.04566 1.58412 0
M  V30 15757 C 1505.52 4.11474 1.02711 0
M  V30 15758 N 1505.92 5.05423 0.195282 0
M  V30 15759 C 1504.21 4.26654 1.29934 0
M  V30 15760 C 1504.91 5.81591 -0.112738 0
M  V30 15761 N 1503.89 5.4137 0.491926 0
M  V30 15762 H 1507.69 2.93328 -0.183222 0
M  V30 15763 H 1505.21 1.61145 -0.201476 0
M  V30 15764 H 1507.2 3.53747 2.2061 0
M  V30 15765 H 1505.86 2.36109 2.22896 0
M  V30 15766 H 1506.87 5.17628 -0.167677 0
M  V30 15767 H 1503.55 3.69426 1.94501 0
M  V30 15768 H 1504.94 6.67276 -0.786879 0
M  V30 15769 N 1507.66 0.121921 1.57128 0
M  V30 15770 C 1508.59 -0.857725 2.12546 0
M  V30 15771 C 1509.61 -1.22797 1.06886 0
M  V30 15772 O 1510.8 -1.17641 1.34249 0
M  V30 15773 C 1507.9 -2.15869 2.61254 0
M  V30 15774 C 1507.07 -1.95969 3.91043 0
M  V30 15775 C 1506.13 -3.09822 4.2532 0
M  V30 15776 O 1505.15 -2.82608 4.94087 0
M  V30 15777 N 1506.36 -4.36333 3.82875 0
M  V30 15778 H 1509.12 -0.384239 2.97227 0
M  V30 15779 H 1506.68 -0.062416 1.6178 0
M  V30 15780 H 1508.67 -2.91035 2.81213 0
M  V30 15781 H 1507.24 -2.54557 1.81437 0
M  V30 15782 H 1506.46 -1.04979 3.79965 0
M  V30 15783 H 1507.75 -1.79981 4.75904 0
M  V30 15784 H 1507.15 -4.61318 3.27417 0
M  V30 15785 H 1505.71 -5.08362 4.07936 0
M  V30 15786 N 1509.14 -1.56867 -0.151857 0
M  V30 15787 C 1510.05 -2.01157 -1.20718 0
M  V30 15788 C 1511.07 -0.926166 -1.47303 0
M  V30 15789 O 1512.24 -1.23528 -1.59069 0
M  V30 15790 C 1509.31 -2.37915 -2.52185 0
M  V30 15791 C 1508.37 -3.60381 -2.3329 0
M  V30 15792 C 1507.6 -3.95376 -3.58488 0
M  V30 15793 O 1507.82 -3.31093 -4.64471 0
M  V30 15794 O 1506.76 -4.88645 -3.5144 0
M  V30 15795 H 1510.58 -2.91234 -0.861175 0
M  V30 15796 H 1508.17 -1.44993 -0.360213 0
M  V30 15797 H 1510.05 -2.6244 -3.29702 0
M  V30 15798 H 1508.73 -1.50995 -2.86325 0
M  V30 15799 H 1507.63 -3.4105 -1.5374 0
M  V30 15800 H 1508.97 -4.47903 -2.04067 0
M  V30 15801 N 1510.62 0.421051 -1.51871 0
M  V30 15802 C 1511.55 1.53094 -1.70572 0
M  V30 15803 C 1512.56 1.5188 -0.586201 0
M  V30 15804 O 1513.75 1.56361 -0.861013 0
M  V30 15805 C 1510.85 2.92002 -1.72011 0
M  V30 15806 C 1510.03 3.17541 -3.0081 0
M  V30 15807 C 1509.08 4.36259 -2.94219 0
M  V30 15808 O 1508.11 4.34118 -3.68144 0
M  V30 15809 N 1509.31 5.40722 -2.11188 0
M  V30 15810 H 1512.08 1.3745 -2.66322 0
M  V30 15811 H 1509.64 0.610204 -1.4996 0
M  V30 15812 H 1511.63 3.6947 -1.65149 0
M  V30 15813 H 1510.2 3.01162 -0.837861 0
M  V30 15814 H 1509.42 2.28225 -3.21414 0
M  V30 15815 H 1510.71 3.3144 -3.86037 0
M  V30 15816 H 1510.11 5.45304 -1.50534 0
M  V30 15817 H 1508.66 6.16979 -2.10192 0
M  V30 15818 N 1512.1 1.42293 0.677538 0
M  V30 15819 C 1513.04 1.45556 1.79114 0
M  V30 15820 C 1514.01 0.307826 1.63223 0
M  V30 15821 O 1515.2 0.511504 1.83816 0
M  V30 15822 C 1512.34 1.36104 3.17127 0
M  V30 15823 C 1511.45 2.60891 3.44325 0
M  V30 15824 C 1510.59 2.43601 4.72051 0
M  V30 15825 C 1509.63 3.63775 4.92274 0
M  V30 15826 N 1508.76 3.45444 6.11239 0
M  V30 15827 H 1513.6 2.40723 1.7566 0
M  V30 15828 H 1511.14 1.19517 0.857565 0
M  V30 15829 H 1513.1 1.28622 3.96878 0
M  V30 15830 H 1511.73 0.445342 3.19713 0
M  V30 15831 H 1510.78 2.78751 2.58848 0
M  V30 15832 H 1512.09 3.50229 3.55163 0
M  V30 15833 H 1511.25 2.33689 5.59888 0
M  V30 15834 H 1509.98 1.51748 4.63491 0
M  V30 15835 H 1508.99 3.74122 4.0288 0
M  V30 15836 H 1510.21 4.56605 5.02681 0
M  V30 15837 H 1508.16 2.56306 6.03857 0
M  V30 15838 H 1508.08 4.28368 6.22926 0
M  V30 15839 H 1509.35 3.39339 7.01762 0
M  V30 15840 N 1513.57 -0.913576 1.28419 0
M  V30 15841 C 1514.51 -2.02073 1.08163 0
M  V30 15842 C 1515.52 -1.62766 0.0333064 0
M  V30 15843 O 1516.71 -1.76347 0.27638 0
M  V30 15844 C 1513.81 -3.33151 0.621596 0
M  V30 15845 C 1512.98 -4.01068 1.74536 0
M  V30 15846 C 1512.04 -5.10428 1.27868 0
M  V30 15847 O 1511.07 -5.33617 1.98094 0
M  V30 15848 N 1512.27 -5.80326 0.141976 0
M  V30 15849 H 1515.03 -2.20009 2.0351 0
M  V30 15850 H 1512.59 -1.08488 1.20174 0
M  V30 15851 H 1514.59 -4.03638 0.292989 0
M  V30 15852 H 1513.16 -3.11685 -0.239031 0
M  V30 15853 H 1512.38 -3.24127 2.24355 0
M  V30 15854 H 1513.66 -4.4319 2.49919 0
M  V30 15855 H 1513.06 -5.63956 -0.443845 0
M  V30 15856 H 1511.62 -6.51676 -0.127354 0
M  V30 15857 N 1515.05 -1.1067 -1.12204 0
M  V30 15858 C 1515.96 -0.770221 -2.21596 0
M  V30 15859 C 1516.98 0.233297 -1.72429 0
M  V30 15860 O 1518.15 0.0714493 -2.01273 0
M  V30 15861 C 1515.22 -0.209682 -3.46065 0
M  V30 15862 C 1514.28 -1.27079 -4.1006 0
M  V30 15863 C 1513.51 -0.736899 -5.28588 0
M  V30 15864 O 1513.74 0.435838 -5.68732 0
M  V30 15865 O 1512.67 -1.49797 -5.82962 0
M  V30 15866 H 1516.5 -1.6834 -2.52776 0
M  V30 15867 H 1514.08 -0.882012 -1.20586 0
M  V30 15868 H 1515.96 0.0989516 -4.21284 0
M  V30 15869 H 1514.64 0.676316 -3.16556 0
M  V30 15870 H 1513.55 -1.63231 -3.3661 0
M  V30 15871 H 1514.88 -2.12989 -4.4373 0
M  V30 15872 N 1516.53 1.29665 -0.895815 0
M  V30 15873 C 1517.46 2.26842 -0.327939 0
M  V30 15874 C 1518.48 1.54151 0.523578 0
M  V30 15875 O 1519.66 1.75205 0.341367 0
M  V30 15876 C 1516.76 3.34384 0.551393 0
M  V30 15877 C 1515.94 4.36544 -0.273514 0
M  V30 15878 C 1515 5.23442 0.538031 0
M  V30 15879 O 1514.02 5.69184 -0.0431025 0
M  V30 15880 N 1515.22 5.50402 1.84493 0
M  V30 15881 H 1517.99 2.76208 -1.16315 0
M  V30 15882 H 1515.55 1.42958 -0.759903 0
M  V30 15883 H 1517.54 3.89446 1.10062 0
M  V30 15884 H 1516.11 2.84864 1.28728 0
M  V30 15885 H 1515.33 3.81196 -1.00416 0
M  V30 15886 H 1516.62 5.01842 -0.838589 0
M  V30 15887 H 1516.02 5.15041 2.33985 0
M  V30 15888 H 1514.58 6.08295 2.34137 0
M  V30 15889 N 1518.01 0.657889 1.43212 0
M  V30 15890 C 1519.26 0.172845 2.0136 0
M  V30 15891 C 1519.58 -1.21911 1.52193 0
M  V30 15892 O 1518.85 -1.81529 0.736492 0
M  V30 15893 H 1517.43 0.0609091 0.744513 0
M  V30 15894 H 1520.09 0.850605 1.75359 0
M  V30 15895 H 1519.19 0.161062 3.11684 0
M  V30 15896 N 1519.49 -1.52437 0.400108 0
M  V30 15897 C 1520.45 -2.2536 -0.417808 0
M  V30 15898 C 1521.45 -1.27393 -0.981204 0
M  V30 15899 O 1522.64 -1.51406 -0.861503 0
M  V30 15900 C 1519.77 -3.01695 -1.58724 0
M  V30 15901 H 1520.96 -2.99086 0.220782 0
M  V30 15902 H 1518.52 -1.55555 0.152439 0
M  V30 15903 H 1519.25 -2.32295 -2.26295 0
M  V30 15904 H 1519.04 -3.73611 -1.18984 0
M  V30 15905 H 1520.53 -3.57033 -2.16604 0
M  V30 15906 N 1520.96 -0.130252 -1.57061 0
M  V30 15907 C 1522.38 0.226279 -1.57988 0
M  V30 15908 C 1522.58 1.65902 -1.14363 0
M  V30 15909 O 1521.64 2.38252 -0.836191 0
M  V30 15910 C 1522.95 -0.0172647 -3.00695 0
M  V30 15911 C 1524.5 0.0477572 -3.12964 0
M  V30 15912 C 1524.97 -0.168238 -4.57691 0
M  V30 15913 N 1526.46 -0.114591 -4.63058 0
M  V30 15914 C 1527.2 -0.256462 -5.72826 0
M  V30 15915 N 1526.69 -0.455129 -6.91303 0
M  V30 15916 N 1528.49 -0.195243 -5.61761 0
M  V30 15917 H 1520.64 -1.06594 -1.83716 0
M  V30 15918 H 1522.9 -0.420643 -0.849567 0
M  V30 15919 H 1522.61 -1.00819 -3.3694 0
M  V30 15920 H 1522.48 0.709629 -3.70465 0
M  V30 15921 H 1524.87 1.02922 -2.7657 0
M  V30 15922 H 1524.95 -0.711198 -2.45714 0
M  V30 15923 H 1524.59 -1.14673 -4.94785 0
M  V30 15924 H 1524.52 0.610839 -5.23045 0
M  V30 15925 H 1527.01 0.0349873 -3.77884 0
M  V30 15926 H 1527.33 -0.553943 -7.70812 0
M  V30 15927 H 1525.67 -0.491244 -6.93262 0
M  V30 15928 H 1528.86 -0.0409186 -4.68082 0
M  V30 15929 H 1529.04 -0.309248 -6.47262 0
M  V30 15930 N 1522.44 1.56945 0.143535 0
M  V30 15931 C 1523.37 2.0156 1.17881 0
M  V30 15932 C 1524.35 0.895744 1.44604 0
M  V30 15933 O 1525.54 1.16379 1.55466 0
M  V30 15934 C 1522.67 2.39915 2.51114 0
M  V30 15935 C 1521.62 3.55117 2.38905 0
M  V30 15936 C 1520.95 3.79296 3.7688 0
M  V30 15937 C 1522.25 4.87668 1.87021 0
M  V30 15938 H 1523.94 2.88296 0.80783 0
M  V30 15939 H 1521.49 1.38698 0.387149 0
M  V30 15940 H 1523.44 2.69727 3.23767 0
M  V30 15941 H 1522.17 1.5012 2.90055 0
M  V30 15942 H 1520.83 3.25476 1.68703 0
M  V30 15943 H 1520.47 2.86747 4.13262 0
M  V30 15944 H 1520.17 4.56827 3.69571 0
M  V30 15945 H 1521.7 4.11537 4.51076 0
M  V30 15946 H 1523.11 5.16176 2.4947 0
M  V30 15947 H 1521.51 5.69029 1.90594 0
M  V30 15948 H 1522.58 4.77811 0.82611 0
M  V30 15949 N 1523.92 -0.412991 1.52093 0
M  V30 15950 C 1525.17 -1.15801 1.65634 0
M  V30 15951 C 1525.49 -1.91127 0.386737 0
M  V30 15952 O 1524.76 -1.86541 -0.598262 0
M  V30 15953 H 1523.34 -0.430467 0.610498 0
M  V30 15954 H 1526 -0.471127 1.8912 0
M  V30 15955 H 1525.1 -1.87421 2.49559 0
M  V30 15956 N 1525.4 -1.4265 -0.669982 0
M  V30 15957 C 1526.82 -1.25682 -0.983682 0
M  V30 15958 C 1527.02 -0.164456 -2.00828 0
M  V30 15959 O 1526.07 0.462711 -2.48224 0
M  V30 15960 C 1527.38 -2.61536 -1.4839 0
M  V30 15961 C 1528.93 -2.6893 -1.60143 0
M  V30 15962 C 1529.41 -4.05162 -2.1356 0
M  V30 15963 N 1530.9 -4.07141 -2.20886 0
M  V30 15964 C 1531.63 -5.09371 -2.63303 0
M  V30 15965 N 1531.13 -6.21983 -3.05137 0
M  V30 15966 N 1532.92 -4.96727 -2.63094 0
M  V30 15967 H 1525.07 -2.12398 0.0083059 0
M  V30 15968 H 1527.34 -0.946173 -0.058823 0
M  V30 15969 H 1527.04 -3.42351 -0.805527 0
M  V30 15970 H 1526.92 -2.85786 -2.46183 0
M  V30 15971 H 1529.3 -1.88457 -2.27085 0
M  V30 15972 H 1529.38 -2.48463 -0.608266 0
M  V30 15973 H 1529.03 -4.86094 -1.47224 0
M  V30 15974 H 1528.96 -4.22984 -3.13676 0
M  V30 15975 H 1531.45 -3.25846 -1.91396 0
M  V30 15976 H 1531.76 -6.95835 -3.36204 0
M  V30 15977 H 1530.11 -6.25481 -3.02983 0
M  V30 15978 H 1533.3 -4.07824 -2.29777 0
M  V30 15979 H 1533.47 -5.76531 -2.95831 0
M  V30 15980 N 1526.88 0.906753 -1.28902 0
M  V30 15981 C 1527.83 2.03141 -1.13299 0
M  V30 15982 C 1528.82 1.69325 -0.0504114 0
M  V30 15983 O 1530.03 1.78774 -0.209696 0
M  V30 15984 H 1526.4 0.665709 -0.349766 0
M  V30 15985 H 1528.37 2.13441 -2.08531 0
M  V30 15986 C 1527.12 3.37918 -0.818935 0
M  V30 15987 H 1526.44 3.64437 -1.64395 0
M  V30 15988 H 1527.88 4.17318 -0.749753 0
M  V30 15989 C 1526.34 3.33498 0.477582 0
M  V30 15990 O 1526.87 3.7241 1.50578 0
M  V30 15991 N 1525.08 2.86594 0.480862 0
M  V30 15992 H 1524.63 2.55124 -0.356308 0
M  V30 15993 H 1524.58 2.84019 1.34835 0
M  V30 15994 N 1528.36 1.11264 1.11616 0
M  V30 15995 C 1529.31 0.738429 2.15711 0
M  V30 15996 C 1530.29 -0.25663 1.5884 0
M  V30 15997 O 1531.48 -0.0640255 1.76884 0
M  V30 15998 C 1528.61 0.181245 3.42821 0
M  V30 15999 C 1527.7 1.20386 4.06655 0
M  V30 16000 N 1528.09 2.39745 4.45372 0
M  V30 16001 C 1526.39 1.04637 4.33552 0
M  V30 16002 C 1527.09 3.04949 4.95359 0
M  V30 16003 N 1526.06 2.32435 4.91401 0
M  V30 16004 H 1529.86 1.6469 2.43423 0
M  V30 16005 H 1527.38 0.991616 1.28611 0
M  V30 16006 H 1529.38 -0.104966 4.16768 0
M  V30 16007 H 1528.04 -0.721832 3.16575 0
M  V30 16008 H 1529.05 2.77213 4.37462 0
M  V30 16009 H 1525.72 0.19957 4.17023 0
M  V30 16010 H 1527.11 4.06528 5.34962 0
M  V30 16011 N 1529.83 -1.29188 0.902679 0
M  V30 16012 C 1531.08 -1.95727 0.530909 0
M  V30 16013 C 1531.41 -1.70971 -0.921014 0
M  V30 16014 O 1530.69 -1.02436 -1.65339 0
M  V30 16015 C 1530.97 -3.50463 0.827523 0
M  V30 16016 C 1530.82 -3.84665 2.33137 0
M  V30 16017 C 1532.14 -4.38964 0.316053 0
M  V30 16018 H 1529.26 -0.71091 0.194361 0
M  V30 16019 H 1531.9 -1.52752 1.1299 0
M  V30 16020 H 1530.05 -3.87199 0.317732 0
M  V30 16021 H 1531.73 -3.57859 2.91093 0
M  V30 16022 H 1529.97 -3.32102 2.79088 0
M  V30 16023 H 1530.64 -4.92676 2.48947 0
M  V30 16024 H 1533.12 -4.09237 0.75262 0
M  V30 16025 H 1531.99 -5.4611 0.552769 0
M  V30 16026 H 1532.25 -4.35105 -0.783329 0
M  V30 16027 N 1531.31 -0.665475 -1.42861 0
M  V30 16028 C 1532.22 0.018927 -2.34592 0
M  V30 16029 C 1533.24 0.798967 -1.54572 0
M  V30 16030 O 1534.41 0.743419 -1.87177 0
M  V30 16031 C 1531.48 0.965013 -3.32999 0
M  V30 16032 C 1530.54 0.180544 -4.2892 0
M  V30 16033 C 1529.77 1.08157 -5.22626 0
M  V30 16034 O 1530 2.32101 -5.21043 0
M  V30 16035 O 1528.93 0.54738 -5.99406 0
M  V30 16036 H 1532.76 -0.736444 -2.94636 0
M  V30 16037 H 1530.34 -0.425684 -1.43207 0
M  V30 16038 H 1532.22 1.50839 -3.93479 0
M  V30 16039 H 1530.9 1.7004 -2.75442 0
M  V30 16040 H 1529.8 -0.40671 -3.71883 0
M  V30 16041 H 1531.14 -0.515529 -4.89493 0
M  V30 16042 N 1532.79 1.52222 -0.408187 0
M  V30 16043 C 1533.7 2.30725 0.424645 0
M  V30 16044 C 1534.72 1.38412 1.05442 0
M  V30 16045 O 1535.89 1.71486 1.05614 0
M  V30 16046 C 1532.96 3.11273 1.52677 0
M  V30 16047 C 1532.02 4.19323 0.920143 0
M  V30 16048 C 1531.25 4.96021 1.96974 0
M  V30 16049 O 1531.47 4.73011 3.18774 0
M  V30 16050 O 1530.41 5.80887 1.5765 0
M  V30 16051 H 1534.23 3.02935 -0.215411 0
M  V30 16052 H 1531.82 1.48413 -0.171414 0
M  V30 16053 H 1533.7 3.61436 2.16661 0
M  V30 16054 H 1532.38 2.41857 2.15144 0
M  V30 16055 H 1531.28 3.7331 0.243037 0
M  V30 16056 H 1532.62 4.91028 0.339405 0
M  V30 16057 N 1534.27 0.138579 1.5699 0
M  V30 16058 C 1535.2 -0.800568 2.19347 0
M  V30 16059 C 1536.18 -1.26318 1.13921 0
M  V30 16060 O 1537.36 -1.32226 1.42232 0
M  V30 16061 C 1534.49 -2.04317 2.80842 0
M  V30 16062 C 1533.45 -1.71764 3.92022 0
M  V30 16063 C 1532.77 -3.03217 4.40413 0
M  V30 16064 C 1534.07 -0.970789 5.13199 0
M  V30 16065 H 1535.77 -0.280888 2.98079 0
M  V30 16066 H 1533.31 -0.133663 1.43378 0
M  V30 16067 H 1535.27 -2.70491 3.2313 0
M  V30 16068 H 1533.99 -2.58643 1.99428 0
M  V30 16069 H 1532.65 -1.07972 3.50339 0
M  V30 16070 H 1532.3 -3.55517 3.55832 0
M  V30 16071 H 1532 -2.82203 5.15398 0
M  V30 16072 H 1533.52 -3.70477 4.85365 0
M  V30 16073 H 1534.94 -1.53445 5.52384 0
M  V30 16074 H 1533.33 -0.860895 5.93893 0
M  V30 16075 H 1534.4 0.0390088 4.84884 0
M  V30 16076 N 1535.75 -1.57019 -0.13521 0
M  V30 16077 C 1536.68 -2.02182 -1.16811 0
M  V30 16078 C 1537.66 -0.9034 -1.44127 0
M  V30 16079 O 1538.84 -1.17202 -1.54846 0
M  V30 16080 C 1535.97 -2.41243 -2.49838 0
M  V30 16081 C 1534.93 -3.56379 -2.37018 0
M  V30 16082 C 1534.25 -3.8129 -3.74863 0
M  V30 16083 C 1535.55 -4.88653 -1.84432 0
M  V30 16084 H 1537.25 -2.8872 -0.792529 0
M  V30 16085 H 1534.79 -1.38901 -0.379788 0
M  V30 16086 H 1536.74 -2.7144 -3.22332 0
M  V30 16087 H 1535.47 -1.51656 -2.89254 0
M  V30 16088 H 1534.13 -3.26366 -1.66975 0
M  V30 16089 H 1533.78 -2.88934 -4.11735 0
M  V30 16090 H 1533.48 -4.58781 -3.67143 0
M  V30 16091 H 1535 -4.13924 -4.48887 0
M  V30 16092 H 1536.41 -5.17492 -2.46729 0
M  V30 16093 H 1534.81 -5.70032 -1.87574 0
M  V30 16094 H 1535.88 -4.78242 -0.800759 0
M  V30 16095 N 1537.22 0.404919 -1.52309 0
M  V30 16096 C 1538.64 0.743846 -1.41206 0
M  V30 16097 C 1538.84 1.94678 -0.519874 0
M  V30 16098 O 1537.9 2.52497 0.0127417 0
M  V30 16099 C 1539.21 0.99384 -2.83802 0
M  V30 16100 C 1540.76 1.0963 -2.93173 0
M  V30 16101 C 1541.23 1.37902 -4.36746 0
M  V30 16102 N 1542.72 1.44758 -4.39999 0
M  V30 16103 C 1543.46 1.68269 -5.48154 0
M  V30 16104 N 1542.95 1.89356 -6.6642 0
M  V30 16105 N 1544.75 1.70318 -5.35675 0
M  V30 16106 H 1536.9 -0.386855 -2.08847 0
M  V30 16107 H 1539.16 -0.110811 -0.941501 0
M  V30 16108 H 1538.87 0.182249 -3.51227 0
M  V30 16109 H 1538.74 1.91287 -3.25099 0
M  V30 16110 H 1541.13 1.89847 -2.25925 0
M  V30 16111 H 1541.21 0.155539 -2.55327 0
M  V30 16112 H 1540.85 0.582004 -5.04554 0
M  V30 16113 H 1540.78 2.33237 -4.72132 0
M  V30 16114 H 1543.27 1.30235 -3.5475 0
M  V30 16115 H 1543.59 2.06758 -7.44628 0
M  V30 16116 H 1541.93 1.86612 -6.69478 0
M  V30 16117 H 1545.12 1.53385 -4.42256 0
M  V30 16118 H 1545.3 1.88302 -6.20037 0
M  V30 16119 N 1538.7 1.43003 0.662408 0
M  V30 16120 C 1539.94 1.45629 1.43428 0
M  V30 16121 C 1540.31 0.0748804 1.91854 0
M  V30 16122 O 1541.51 -0.0241645 2.68789 0
M  V30 16123 C 1539.78 2.46223 2.59054 0
M  V30 16124 S 1541.34 2.6765 3.47719 0
M  V30 16125 H 1538.16 0.515463 0.489713 0
M  V30 16126 H 1540.76 1.79701 0.769923 0
M  V30 16127 H 1539.46 3.45342 2.21737 0
M  V30 16128 H 1538.99 2.13618 3.3035 0
M  V30 16129 H 1541.01 1.96884 4.55468 0
M  V30 16130 N 1540.18 -0.899904 1.29381 0
M  V30 16131 C 1541.11 -2.02045 1.17047 0
M  V30 16132 C 1542.09 -1.69977 0.0647354 0
M  V30 16133 O 1543.28 -1.92659 0.244173 0
M  V30 16134 C 1540.41 -3.36839 0.845991 0
M  V30 16135 C 1539.36 -3.83117 1.90802 0
M  V30 16136 C 1538.69 -5.15032 1.43686 0
M  V30 16137 C 1539.99 -4.03464 3.31684 0
M  V30 16138 H 1541.68 -2.12623 2.10789 0
M  V30 16139 H 1539.23 -1.02162 1.01484 0
M  V30 16140 H 1541.18 -4.14737 0.746413 0
M  V30 16141 H 1539.9 -3.26352 -0.127125 0
M  V30 16142 H 1538.56 -3.07435 1.99698 0
M  V30 16143 H 1538.21 -5.00961 0.452422 0
M  V30 16144 H 1537.91 -5.46967 2.14711 0
M  V30 16145 H 1539.43 -5.95472 1.35078 0
M  V30 16146 H 1540.85 -4.71845 3.25631 0
M  V30 16147 H 1539.25 -4.46752 4.00665 0
M  V30 16148 H 1540.32 -3.07807 3.74677 0
M  V30 16149 N 1541.66 -1.11854 -1.11024 0
M  V30 16150 C 1542.91 -0.868355 -1.82494 0
M  V30 16151 C 1543.23 0.607622 -1.85292 0
M  V30 16152 O 1542.5 1.44147 -1.32659 0
M  V30 16153 H 1541.08 -0.31826 -0.67581 0
M  V30 16154 H 1543.74 -1.4118 -1.34366 0
M  V30 16155 H 1542.84 -1.24441 -2.86218 0
M  V30 16156 N 1543.14 1.28707 -0.909517 0
M  V30 16157 C 1544.1 2.25692 -0.39946 0
M  V30 16158 C 1545.1 1.53721 0.471848 0
M  V30 16159 O 1546.29 1.72008 0.275504 0
M  V30 16160 C 1543.42 3.38205 0.427793 0
M  V30 16161 H 1544.61 2.72326 -1.25613 0
M  V30 16162 H 1542.17 1.40317 -0.688535 0
M  V30 16163 H 1542.9 2.96926 1.30404 0
M  V30 16164 H 1542.69 3.91606 -0.19667 0
M  V30 16165 H 1544.18 4.10334 0.775634 0
M  V30 16166 N 1544.61 0.673042 1.42506 0
M  V30 16167 C 1545.56 -0.0291025 2.27981 0
M  V30 16168 C 1546.55 -0.775296 1.40989 0
M  V30 16169 O 1547.74 -0.654498 1.64455 0
M  V30 16170 C 1544.87 -0.9809 3.28988 0
M  V30 16171 C 1543.96 -0.232141 4.23464 0
M  V30 16172 N 1544.35 0.762036 5.00027 0
M  V30 16173 C 1542.64 -0.470831 4.43508 0
M  V30 16174 C 1543.35 1.20826 5.69013 0
M  V30 16175 N 1542.32 0.538559 5.40926 0
M  V30 16176 H 1546.12 0.733484 2.846 0
M  V30 16177 H 1543.64 0.501961 1.54448 0
M  V30 16178 H 1545.63 -1.49888 3.89023 0
M  V30 16179 H 1544.29 -1.74333 2.73931 0
M  V30 16180 H 1545.31 1.14151 5.05163 0
M  V30 16181 H 1541.98 -1.2129 3.99493 0
M  V30 16182 H 1543.37 2.03199 6.40437 0
M  V30 16183 N 1546.09 -1.52004 0.416254 0
M  V30 16184 C 1547.34 -2.01076 -0.158591 0
M  V30 16185 C 1547.65 -1.30598 -1.45614 0
M  V30 16186 O 1548.86 -1.70525 -2.11267 0
M  V30 16187 C 1547.32 -3.58354 -0.333179 0
M  V30 16188 C 1546.92 -4.37753 0.952696 0
M  V30 16189 C 1548.67 -4.15637 -0.86293 0
M  V30 16190 C 1546.58 -5.8669 0.744905 0
M  V30 16191 H 1545.51 -0.75136 -0.0630423 0
M  V30 16192 H 1548.16 -1.75288 0.542791 0
M  V30 16193 H 1546.54 -3.805 -1.09706 0
M  V30 16194 H 1547.71 -4.27364 1.72328 0
M  V30 16195 H 1546.03 -3.91823 1.40939 0
M  V30 16196 H 1548.62 -5.24596 -1.03454 0
M  V30 16197 H 1548.97 -3.73449 -1.8396 0
M  V30 16198 H 1549.5 -3.97486 -0.157918 0
M  V30 16199 H 1546.24 -6.3325 1.69334 0
M  V30 16200 H 1545.76 -5.99798 0.0137458 0
M  V30 16201 H 1547.44 -6.45824 0.389851 0
M  V30 16202 N 1547.57 -0.146903 -1.56914 0
M  V30 16203 C 1548.52 0.804576 -2.13332 0
M  V30 16204 C 1549.5 1.2095 -1.06112 0
M  V30 16205 O 1550.7 1.17594 -1.3229 0
M  V30 16206 C 1547.83 2.0437 -2.7584 0
M  V30 16207 C 1546.91 1.66188 -3.90183 0
M  V30 16208 N 1547.3 0.988267 -4.96051 0
M  V30 16209 C 1545.6 1.9546 -4.00888 0
M  V30 16210 C 1546.3 0.803957 -5.76118 0
M  V30 16211 N 1545.28 1.33779 -5.26882 0
M  V30 16212 H 1549.08 0.280693 -2.92557 0
M  V30 16213 H 1546.59 0.0546404 -1.62308 0
M  V30 16214 H 1548.59 2.73532 -3.1462 0
M  V30 16215 H 1547.25 2.57276 -1.98089 0
M  V30 16216 H 1548.26 0.64904 -5.13817 0
M  V30 16217 H 1544.94 2.50216 -3.34213 0
M  V30 16218 H 1546.33 0.273065 -6.71345 0
M  V30 16219 N 1549.05 1.57088 0.126881 0
M  V30 16220 C 1550.28 1.88614 0.850444 0
M  V30 16221 C 1550.69 0.737309 1.73808 0
M  V30 16222 O 1550.05 -0.292196 1.80146 0
M  V30 16223 C 1550.1 3.19541 1.69044 0
M  V30 16224 O 1549.82 4.3 0.838555 0
M  V30 16225 C 1551.32 3.64717 2.51985 0
M  V30 16226 H 1548.54 0.624715 0.244892 0
M  V30 16227 H 1551.09 2.04184 0.113634 0
M  V30 16228 H 1549.24 3.05664 2.38009 0
M  V30 16229 H 1549.65 5.04992 1.41717 0
M  V30 16230 H 1551.13 4.5911 3.06467 0
M  V30 16231 H 1551.61 2.90986 3.28974 0
M  V30 16232 H 1552.21 3.81356 1.88276 0
M  V30 16233 N 1550.53 -0.396836 1.52522 0
M  V30 16234 C 1551.94 -0.975124 1.59211 0
M  V30 16235 C 1552.29 -1.91199 0.440138 0
M  V30 16236 O 1551.41 -2.11924 -0.437856 0
M  V30 16237 C 1552.01 -1.77531 2.88562 0
M  V30 16238 C 1550.57 -2.30343 2.9769 0
M  V30 16239 C 1549.71 -1.10671 2.54258 0
M  V30 16240 H 1552.67 -0.176646 1.57714 0
M  V30 16241 H 1552.69 -2.63384 2.74607 0
M  V30 16242 H 1552.2 -1.09318 3.72386 0
M  V30 16243 H 1550.3 -3.01891 2.18387 0
M  V30 16244 H 1550.41 -2.60366 4.02177 0
M  V30 16245 H 1548.78 -1.46439 2.08393 0
M  V30 16246 H 1549.56 -0.440061 3.40468 0
M  V30 16247 N 1552.01 -1.43353 -0.654814 0
M  V30 16248 C 1552.95 -1.48652 -1.789 0
M  V30 16249 C 1553.95 -0.360274 -1.65525 0
M  V30 16250 O 1555.15 -0.534194 -1.71891 0
M  V30 16251 H 1551.53 -0.465987 -0.590221 0
M  V30 16252 H 1553.5 -2.44158 -1.7155 0
M  V30 16253 C 1552.25 -1.42512 -3.17152 0
M  V30 16254 H 1551.57 -2.28479 -3.28081 0
M  V30 16255 H 1553.01 -1.50282 -3.96474 0
M  V30 16256 C 1551.47 -0.142511 -3.36598 0
M  V30 16257 O 1552 0.796821 -3.93718 0
M  V30 16258 N 1550.21 -0.0532157 -2.90551 0
M  V30 16259 H 1549.75 -0.818421 -2.44253 0
M  V30 16260 H 1549.71 0.80427 -3.03939 0
M  V30 16261 N 1553.48 0.89303 -1.29857 0
M  V30 16262 C 1554.9 1.17496 -1.08013 0
M  V30 16263 C 1555.1 2.00829 0.164302 0
M  V30 16264 O 1554.16 2.37396 0.860194 0
M  V30 16265 C 1555.47 1.88944 -2.33924 0
M  V30 16266 C 1557.02 2.01742 -2.3931 0
M  V30 16267 C 1557.49 2.76601 -3.65042 0
M  V30 16268 N 1558.98 2.84152 -3.65803 0
M  V30 16269 C 1559.72 3.42628 -4.59776 0
M  V30 16270 N 1559.21 4.02218 -5.64086 0
M  V30 16271 N 1561.01 3.40366 -4.47334 0
M  V30 16272 H 1553.16 0.33719 -2.09706 0
M  V30 16273 H 1555.42 0.211899 -0.924014 0
M  V30 16274 H 1555.13 1.35151 -3.24695 0
M  V30 16275 H 1555 2.89379 -2.4195 0
M  V30 16276 H 1557.39 2.54708 -1.49022 0
M  V30 16277 H 1557.47 1.0042 -2.35265 0
M  V30 16278 H 1557.11 2.24309 -4.55684 0
M  V30 16279 H 1557.04 3.78283 -3.66346 0
M  V30 16280 H 1559.53 2.41835 -2.90386 0
M  V30 16281 H 1559.85 4.4488 -6.31903 0
M  V30 16282 H 1558.19 4.00661 -5.67887 0
M  V30 16283 H 1561.38 2.93035 -3.65031 0
M  V30 16284 H 1561.56 3.85644 -5.20752 0
M  V30 16285 N 1554.96 1.12442 1.10429 0
M  V30 16286 C 1556.38 0.860481 1.34417 0
M  V30 16287 C 1556.58 -0.509394 1.94955 0
M  V30 16288 O 1555.63 -1.25807 2.18927 0
M  V30 16289 C 1556.95 1.97694 2.26578 0
M  V30 16290 C 1558.49 2.00783 2.40115 0
M  V30 16291 C 1558.97 3.11663 3.35604 0
M  V30 16292 N 1560.46 3.11106 3.43173 0
M  V30 16293 C 1561.2 3.9354 4.1703 0
M  V30 16294 N 1560.69 4.85963 4.93773 0
M  V30 16295 N 1562.48 3.81677 4.12649 0
M  V30 16296 H 1554.64 2.00706 0.695036 0
M  V30 16297 H 1556.9 0.873398 0.368619 0
M  V30 16298 H 1556.6 2.96405 1.89306 0
M  V30 16299 H 1556.48 1.88217 3.26886 0
M  V30 16300 H 1558.87 1.02692 2.76656 0
M  V30 16301 H 1558.95 2.14335 1.39621 0
M  V30 16302 H 1558.59 4.09987 2.99789 0
M  V30 16303 H 1558.52 2.9535 4.35977 0
M  V30 16304 H 1561.01 2.4415 2.88442 0
M  V30 16305 H 1561.32 5.45373 5.47529 0
M  V30 16306 H 1559.67 4.89976 4.92898 0
M  V30 16307 H 1562.86 3.08808 3.51789 0
M  V30 16308 H 1563.03 4.46151 4.6995 0
M  V30 16309 N 1556.44 -1.28223 0.91633 0
M  V30 16310 C 1557.37 -2.26291 0.363986 0
M  V30 16311 C 1558.38 -1.54964 -0.498988 0
M  V30 16312 O 1559.57 -1.75726 -0.31345 0
M  V30 16313 C 1556.67 -3.35219 -0.498126 0
M  V30 16314 C 1555.85 -4.36054 0.34293 0
M  V30 16315 C 1554.91 -5.24232 -0.454688 0
M  V30 16316 O 1553.93 -5.69043 0.133649 0
M  V30 16317 N 1555.13 -5.53268 -1.75714 0
M  V30 16318 H 1557.9 -2.74323 1.20694 0
M  V30 16319 H 1555.46 -1.41731 0.782551 0
M  V30 16320 H 1557.45 -3.91148 -1.03852 0
M  V30 16321 H 1556.02 -2.86876 -1.2418 0
M  V30 16322 H 1555.24 -3.7955 1.06468 0
M  V30 16323 H 1556.53 -5.00444 0.918322 0
M  V30 16324 H 1555.93 -5.18698 -2.25762 0
M  V30 16325 H 1554.48 -6.11943 -2.2443 0
M  V30 16326 N 1557.92 -0.68059 -1.42147 0
M  V30 16327 C 1558.85 -0.0199376 -2.33491 0
M  V30 16328 C 1559.83 0.783164 -1.50999 0
M  V30 16329 O 1561.01 0.739154 -1.79583 0
M  V30 16330 C 1558.14 0.927902 -3.34675 0
M  V30 16331 C 1557.1 0.232979 -4.27365 0
M  V30 16332 C 1556.42 1.29415 -5.18802 0
M  V30 16333 C 1557.72 -0.891559 -5.14634 0
M  V30 16334 H 1559.42 -0.782823 -2.88985 0
M  V30 16335 H 1556.96 -0.377898 -1.38953 0
M  V30 16336 H 1558.92 1.3992 -3.97493 0
M  V30 16337 H 1557.64 1.72228 -2.77498 0
M  V30 16338 H 1556.3 -0.21814 -3.6595 0
M  V30 16339 H 1555.95 2.08067 -4.57949 0
M  V30 16340 H 1555.65 0.834274 -5.81647 0
M  V30 16341 H 1557.17 1.76627 -5.84496 0
M  V30 16342 H 1558.59 -0.501219 -5.71105 0
M  V30 16343 H 1556.98 -1.27759 -5.86343 0
M  V30 16344 H 1558.05 -1.73781 -4.5269 0
M  V30 16345 N 1559.4 1.51781 -0.424309 0
M  V30 16346 C 1560.36 2.25996 0.381903 0
M  V30 16347 C 1561.36 1.28938 0.960813 0
M  V30 16348 O 1562.55 1.52757 0.837306 0
M  V30 16349 C 1559.68 3.04181 1.53904 0
M  V30 16350 H 1560.87 2.98697 -0.268336 0
M  V30 16351 H 1558.43 1.55293 -0.177167 0
M  V30 16352 H 1559.16 2.35866 2.22571 0
M  V30 16353 H 1558.95 3.75457 1.13025 0
M  V30 16354 H 1560.44 3.60434 2.10896 0
M  V30 16355 N 1560.87 0.155222 1.56834 0
M  V30 16356 C 1561.81 -0.812448 2.14317 0
M  V30 16357 C 1562.82 -1.20502 1.09467 0
M  V30 16358 O 1564.01 -1.14767 1.36714 0
M  V30 16359 C 1561.11 -2.10279 2.65774 0
M  V30 16360 C 1560.28 -1.8763 3.95112 0
M  V30 16361 C 1559.34 -3.0073 4.31796 0
M  V30 16362 O 1558.37 -2.72064 4.9997 0
M  V30 16363 N 1559.57 -4.28114 3.92044 0
M  V30 16364 H 1562.33 -0.321106 2.97975 0
M  V30 16365 H 1559.89 -0.0280861 1.61876 0
M  V30 16366 H 1561.89 -2.85005 2.87323 0
M  V30 16367 H 1560.46 -2.50652 1.86796 0
M  V30 16368 H 1559.68 -0.968958 3.82106 0
M  V30 16369 H 1560.96 -1.69845 4.79614 0
M  V30 16370 H 1560.36 -4.54269 3.37129 0
M  V30 16371 H 1558.92 -4.99594 4.18627 0
M  V30 16372 N 1562.35 -1.57153 -0.118549 0
M  V30 16373 C 1563.26 -2.03673 -1.16424 0
M  V30 16374 C 1564.28 -0.957203 -1.45305 0
M  V30 16375 O 1565.45 -1.26874 -1.56413 0
M  V30 16376 C 1562.52 -2.43211 -2.47082 0
M  V30 16377 C 1561.58 -3.65248 -2.25593 0
M  V30 16378 C 1560.81 -4.02891 -3.50021 0
M  V30 16379 O 1561.04 -3.40871 -4.57344 0
M  V30 16380 O 1559.97 -4.95989 -3.40996 0
M  V30 16381 H 1563.8 -2.92996 -0.799206 0
M  V30 16382 H 1561.38 -1.45724 -0.329376 0
M  V30 16383 H 1563.26 -2.69374 -3.24061 0
M  V30 16384 H 1561.94 -1.57034 -2.83058 0
M  V30 16385 H 1560.84 -3.44234 -1.46471 0
M  V30 16386 H 1562.18 -4.52131 -1.94521 0
M  V30 16387 N 1563.83 0.388742 -1.5273 0
M  V30 16388 C 1564.76 1.48133 -1.80496 0
M  V30 16389 C 1565.74 1.56899 -0.657008 0
M  V30 16390 O 1566.93 1.71844 -0.904621 0
M  V30 16391 C 1564.06 2.85742 -1.97405 0
M  V30 16392 C 1563.01 2.91815 -3.13094 0
M  V30 16393 C 1562.34 4.31876 -3.15258 0
M  V30 16394 C 1563.64 2.61438 -4.52159 0
M  V30 16395 H 1565.33 1.25147 -2.7199 0
M  V30 16396 H 1562.88 0.600603 -1.30877 0
M  V30 16397 H 1564.83 3.62182 -2.15412 0
M  V30 16398 H 1563.55 3.10065 -1.02601 0
M  V30 16399 H 1562.21 2.17824 -2.9487 0
M  V30 16400 H 1561.86 4.53239 -2.18135 0
M  V30 16401 H 1561.56 4.3686 -3.92972 0
M  V30 16402 H 1563.08 5.10221 -3.3542 0
M  V30 16403 H 1564.5 3.27596 -4.70483 0
M  V30 16404 H 1562.89 2.77771 -5.31943 0
M  V30 16405 H 1563.96 1.56778 -4.58856 0
M  V30 16406 N 1565.31 1.43698 0.647203 0
M  V30 16407 C 1566.72 1.27231 0.963563 0
M  V30 16408 C 1566.92 0.196385 2.00541 0
M  V30 16409 O 1565.98 -0.423162 2.48929 0
M  V30 16410 C 1567.29 2.63863 1.44211 0
M  V30 16411 C 1568.84 2.71444 1.55844 0
M  V30 16412 C 1569.32 4.08508 2.07087 0
M  V30 16413 N 1570.81 4.10603 2.14381 0
M  V30 16414 C 1571.54 5.13496 2.55166 0
M  V30 16415 N 1571.04 6.26759 2.95203 0
M  V30 16416 N 1572.83 5.0085 2.55158 0
M  V30 16417 H 1564.98 2.12358 -0.0420956 0
M  V30 16418 H 1567.24 0.946989 0.0437628 0
M  V30 16419 H 1566.95 3.43589 0.75096 0
M  V30 16420 H 1566.82 2.89666 2.41605 0
M  V30 16421 H 1569.21 1.92046 2.24058 0
M  V30 16422 H 1569.29 2.49399 0.56866 0
M  V30 16423 H 1568.94 4.88375 1.39472 0
M  V30 16424 H 1568.87 4.2792 3.06907 0
M  V30 16425 H 1571.36 3.2885 1.86188 0
M  V30 16426 H 1571.67 7.01096 3.25091 0
M  V30 16427 H 1570.02 6.30222 2.92993 0
M  V30 16428 H 1573.21 4.11428 2.2326 0
M  V30 16429 H 1573.38 5.81165 2.86621 0
M  V30 16430 N 1566.79 -0.886131 1.30328 0
M  V30 16431 C 1567.75 -1.97328 1.16594 0
M  V30 16432 C 1568.75 -1.60504 0.0975023 0
M  V30 16433 O 1569.94 -1.70739 0.345524 0
M  V30 16434 C 1567.07 -3.31714 0.786045 0
M  V30 16435 H 1568.26 -2.1094 2.13177 0
M  V30 16436 H 1565.82 -1.07238 1.13708 0
M  V30 16437 H 1566.55 -3.23804 -0.179334 0
M  V30 16438 H 1566.34 -3.5981 1.55817 0
M  V30 16439 H 1567.83 -4.11461 0.71339 0
M  V30 16440 N 1568.26 -1.13026 -1.09832 0
M  V30 16441 C 1569.19 -0.826338 -2.18389 0
M  V30 16442 C 1570.18 0.212529 -1.68767 0
M  V30 16443 O 1571.36 0.072363 -1.94065 0
M  V30 16444 C 1568.49 -0.286991 -3.46112 0
M  V30 16445 C 1567.44 -1.25963 -4.09044 0
M  V30 16446 C 1566.77 -0.580231 -5.31542 0
M  V30 16447 C 1568.07 -2.61661 -4.5203 0
M  V30 16448 H 1569.76 -1.73408 -2.4407 0
M  V30 16449 H 1567.31 -0.835201 -1.17305 0
M  V30 16450 H 1569.26 -0.062067 -4.21354 0
M  V30 16451 H 1567.99 0.656121 -3.19942 0
M  V30 16452 H 1566.65 -1.47047 -3.35816 0
M  V30 16453 H 1566.29 0.368222 -5.0165 0
M  V30 16454 H 1565.99 -1.2291 -5.74601 0
M  V30 16455 H 1567.52 -0.36449 -6.09511 0
M  V30 16456 H 1568.93 -2.44569 -5.18516 0
M  V30 16457 H 1567.33 -3.22685 -5.05959 0
M  V30 16458 H 1568.4 -3.19637 -3.64637 0
M  V30 16459 N 1569.74 1.27735 -0.923117 0
M  V30 16460 C 1570.67 2.26095 -0.375982 0
M  V30 16461 C 1571.69 1.55227 0.490763 0
M  V30 16462 O 1572.88 1.7589 0.304127 0
M  V30 16463 C 1569.98 3.35479 0.480342 0
M  V30 16464 C 1569.15 4.35866 -0.36605 0
M  V30 16465 C 1568.21 5.24466 0.42688 0
M  V30 16466 O 1567.23 5.68964 -0.163825 0
M  V30 16467 N 1568.44 5.54192 1.72777 0
M  V30 16468 H 1571.2 2.73679 -1.22147 0
M  V30 16469 H 1568.76 1.41314 -0.790056 0
M  V30 16470 H 1570.75 3.91693 1.01776 0
M  V30 16471 H 1569.32 2.87531 1.22657 0
M  V30 16472 H 1568.54 3.7898 -1.08479 0
M  V30 16473 H 1569.83 4.9995 -0.944849 0
M  V30 16474 H 1569.23 5.19888 2.23008 0
M  V30 16475 H 1567.79 6.13125 2.21181 0
M  V30 16476 N 1571.22 0.688118 1.41784 0
M  V30 16477 C 1572.47 0.215517 2.00948 0
M  V30 16478 C 1572.79 -1.18656 1.54744 0
M  V30 16479 O 1572.06 -1.79925 0.774831 0
M  V30 16480 H 1570.64 0.0766876 0.743053 0
M  V30 16481 H 1573.3 0.88761 1.73515 0
M  V30 16482 H 1572.4 0.227139 3.11272 0
M  V30 16483 N 1572.7 -1.51554 0.432352 0
M  V30 16484 C 1574.11 -1.59377 0.0843863 0
M  V30 16485 C 1574.31 -1.44364 -1.40575 0
M  V30 16486 O 1573.37 -1.28234 -2.17514 0
M  V30 16487 C 1574.68 -2.94652 0.600046 0
M  V30 16488 C 1576.23 -3.07949 0.560049 0
M  V30 16489 C 1576.71 -4.4574 1.0526 0
M  V30 16490 N 1578.2 -4.52046 1.01038 0
M  V30 16491 C 1578.93 -5.56979 1.36242 0
M  V30 16492 N 1578.43 -6.69355 1.78707 0
M  V30 16493 N 1580.22 -5.47311 1.2809 0
M  V30 16494 H 1572.37 -1.59558 1.40197 0
M  V30 16495 H 1574.64 -0.751868 0.577406 0
M  V30 16496 H 1574.34 -3.10993 1.64245 0
M  V30 16497 H 1574.22 -3.77193 0.0222482 0
M  V30 16498 H 1576.6 -2.91279 -0.473357 0
M  V30 16499 H 1576.68 -2.27259 1.17419 0
M  V30 16500 H 1576.33 -4.63156 2.08445 0
M  V30 16501 H 1576.26 -5.24962 0.415047 0
M  V30 16502 H 1578.75 -3.71389 0.69847 0
M  V30 16503 H 1579.06 -7.45438 2.03819 0
M  V30 16504 H 1577.41 -6.70576 1.82629 0
M  V30 16505 H 1580.6 -4.58403 0.947848 0
M  V30 16506 H 1580.77 -6.28978 1.55855 0
M  V30 16507 N 1574.18 -0.163538 -1.56749 0
M  V30 16508 C 1575.11 0.765571 -2.20593 0
M  V30 16509 C 1576.09 1.24489 -1.15916 0
M  V30 16510 O 1577.27 1.29946 -1.44318 0
M  V30 16511 C 1574.4 1.99823 -2.84057 0
M  V30 16512 C 1573.36 1.65506 -3.94705 0
M  V30 16513 C 1572.68 2.96172 -4.45181 0
M  V30 16514 C 1573.98 0.88902 -5.14678 0
M  V30 16515 H 1575.68 0.233431 -2.98489 0
M  V30 16516 H 1573.22 0.110836 -1.43573 0
M  V30 16517 H 1575.18 2.65316 -3.27392 0
M  V30 16518 H 1573.9 2.55437 -2.03517 0
M  V30 16519 H 1572.56 1.02384 -3.52013 0
M  V30 16520 H 1572.21 3.49811 -3.61443 0
M  V30 16521 H 1571.91 2.73968 -5.19823 0
M  V30 16522 H 1573.43 3.62708 -4.91198 0
M  V30 16523 H 1574.84 1.44637 -5.54755 0
M  V30 16524 H 1573.24 0.766302 -5.95187 0
M  V30 16525 H 1574.31 -0.116145 -4.84761 0
M  V30 16526 N 1575.65 1.57214 0.110213 0
M  V30 16527 C 1577.07 1.52706 0.464004 0
M  V30 16528 C 1577.27 0.87792 1.81369 0
M  V30 16529 O 1576.33 0.463987 2.482 0
M  V30 16530 C 1577.64 2.97457 0.440406 0
M  V30 16531 C 1579.19 3.08594 0.523336 0
M  V30 16532 C 1579.66 4.54923 0.53004 0
M  V30 16533 N 1581.15 4.59411 0.591228 0
M  V30 16534 C 1581.89 5.7006 0.618007 0
M  V30 16535 N 1581.38 6.9018 0.601901 0
M  V30 16536 N 1583.18 5.58192 0.661679 0
M  V30 16537 H 1575.33 1.97794 -0.77403 0
M  V30 16538 H 1577.59 0.903673 -0.286496 0
M  V30 16539 H 1577.3 3.48356 -0.483845 0
M  V30 16540 H 1577.17 3.55356 1.26498 0
M  V30 16541 H 1579.56 2.57692 1.43801 0
M  V30 16542 H 1579.64 2.53674 -0.329095 0
M  V30 16543 H 1579.28 5.06472 -0.380623 0
M  V30 16544 H 1579.21 5.07663 1.39948 0
M  V30 16545 H 1581.7 3.72953 0.609483 0
M  V30 16546 H 1582.02 7.70267 0.6252 0
M  V30 16547 H 1580.36 6.92665 0.569186 0
M  V30 16548 H 1583.55 4.63256 0.671686 0
M  V30 16549 H 1583.73 6.44432 0.67908 0
M  V30 16550 N 1577.13 -0.380637 1.52934 0
M  V30 16551 C 1578.1 -1.44819 1.77652 0
M  V30 16552 C 1579.1 -1.47224 0.646657 0
M  V30 16553 O 1580.29 -1.48248 0.91477 0
M  V30 16554 C 1577.42 -2.8405 1.8849 0
M  V30 16555 H 1578.61 -1.24183 2.72981 0
M  V30 16556 H 1576.16 -0.61288 1.43783 0
M  V30 16557 H 1576.9 -3.1002 0.951751 0
M  V30 16558 H 1576.68 -2.83704 2.70655 0
M  V30 16559 H 1578.17 -3.61388 2.09257 0
M  V30 16560 N 1578.61 -1.44039 -0.639573 0
M  V30 16561 C 1579.54 -1.46233 -1.76489 0
M  V30 16562 C 1580.56 -0.356739 -1.58843 0
M  V30 16563 O 1581.74 -0.621988 -1.67313 0
M  V30 16564 C 1578.84 -1.27252 -3.14102 0
M  V30 16565 C 1578.02 -2.50902 -3.58283 0
M  V30 16566 C 1577.08 -2.26944 -4.74745 0
M  V30 16567 O 1576.1 -3.00381 -4.83487 0
M  V30 16568 N 1577.3 -1.29468 -5.65878 0
M  V30 16569 H 1580.07 -2.43243 -1.7508 0
M  V30 16570 H 1577.63 -1.3937 -0.823867 0
M  V30 16571 H 1579.62 -1.09085 -3.89721 0
M  V30 16572 H 1578.19 -0.386383 -3.10203 0
M  V30 16573 H 1577.41 -2.84403 -2.72963 0
M  V30 16574 H 1578.7 -3.33163 -3.84552 0
M  V30 16575 H 1578.1 -0.687994 -5.61501 0
M  V30 16576 H 1576.66 -1.17281 -6.41162 0
M  V30 16577 N 1580.09 0.879207 -1.30796 0
M  V30 16578 C 1581.34 1.62828 -1.19715 0
M  V30 16579 C 1581.66 1.93429 0.247031 0
M  V30 16580 O 1580.93 1.57478 1.16522 0
M  V30 16581 H 1579.51 0.603607 -0.440077 0
M  V30 16582 H 1582.17 1.05309 -1.64 0
M  V30 16583 H 1581.27 2.57591 -1.76219 0
M  V30 16584 N 1581.57 1.13606 1.09231 0
M  V30 16585 C 1582.5 0.837908 2.17948 0
M  V30 16586 C 1583.48 -0.203575 1.68877 0
M  V30 16587 O 1584.66 -0.0620702 1.94101 0
M  V30 16588 C 1581.79 0.305342 3.45955 0
M  V30 16589 C 1580.75 1.2813 4.08371 0
M  V30 16590 C 1580.07 0.608412 5.31227 0
M  V30 16591 C 1581.37 2.64055 4.50636 0
M  V30 16592 H 1583.07 1.747 2.43147 0
M  V30 16593 H 1580.61 0.84141 1.1686 0
M  V30 16594 H 1582.57 0.0844116 4.21315 0
M  V30 16595 H 1581.29 -0.639144 3.20285 0
M  V30 16596 H 1579.95 1.48826 3.35032 0
M  V30 16597 H 1579.6 -0.341613 5.01839 0
M  V30 16598 H 1579.3 1.25956 5.73942 0
M  V30 16599 H 1580.82 0.396809 6.09309 0
M  V30 16600 H 1582.24 2.47316 5.17212 0
M  V30 16601 H 1580.63 3.25364 5.0424 0
M  V30 16602 H 1581.7 3.21566 3.62937 0
M  V30 16603 N 1583.05 -1.27244 0.929878 0
M  V30 16604 C 1584.29 -1.93886 0.570331 0
M  V30 16605 C 1584.61 -1.7342 -0.891656 0
M  V30 16606 O 1583.88 -1.0832 -1.63228 0
M  V30 16607 H 1582.46 -0.717476 0.207937 0
M  V30 16608 H 1585.13 -1.5491 1.18275 0
M  V30 16609 H 1584.22 -3.02236 0.778463 0
M  V30 16610 N 1584.52 -0.695628 -1.41417 0
M  V30 16611 C 1585.93 -0.3014 -1.84251 0
M  V30 16612 C 1586.29 1.16042 -1.58204 0
M  V30 16613 O 1585.41 1.89079 -1.05253 0
M  V30 16614 C 1586.01 -0.540256 -3.34465 0
M  V30 16615 C 1584.56 -0.199944 -3.75869 0
M  V30 16616 C 1583.71 -0.822511 -2.64821 0
M  V30 16617 H 1586.66 -0.896278 -1.30968 0
M  V30 16618 H 1586.68 0.201019 -3.79969 0
M  V30 16619 H 1586.2 -1.60427 -3.53391 0
M  V30 16620 H 1584.3 0.859798 -3.62544 0
M  V30 16621 H 1584.41 -0.655005 -4.74601 0
M  V30 16622 H 1582.77 -0.252109 -2.53449 0
M  V30 16623 H 1583.56 -1.89039 -2.86564 0
M  V30 16624 N 1586 1.51322 -0.440383 0
M  V30 16625 C 1586.96 2.26388 0.357911 0
M  V30 16626 C 1587.96 1.2995 0.947083 0
M  V30 16627 O 1589.15 1.53637 0.821057 0
M  V30 16628 C 1586.29 3.05797 1.50669 0
M  V30 16629 H 1587.48 2.98396 -0.300002 0
M  V30 16630 H 1585.03 1.55096 -0.193628 0
M  V30 16631 H 1585.77 2.38213 2.20057 0
M  V30 16632 H 1585.55 3.76634 1.09037 0
M  V30 16633 H 1587.04 3.6265 2.07062 0
M  V30 16634 N 1587.48 0.171848 1.5666 0
M  V30 16635 C 1588.41 -0.753861 2.20996 0
M  V30 16636 C 1589.39 -1.23873 1.16574 0
M  V30 16637 O 1590.58 -1.29179 1.45005 0
M  V30 16638 C 1587.71 -1.98314 2.85112 0
M  V30 16639 C 1586.66 -1.6341 3.95577 0
M  V30 16640 C 1585.99 -2.93807 4.46745 0
M  V30 16641 C 1587.29 -0.861713 5.15142 0
M  V30 16642 H 1588.98 -0.217598 2.98608 0
M  V30 16643 H 1586.53 -0.10322 1.4363 0
M  V30 16644 H 1588.48 -2.63576 3.28794 0
M  V30 16645 H 1587.2 -2.54354 2.04869 0
M  V30 16646 H 1585.86 -1.00516 3.52551 0
M  V30 16647 H 1585.51 -3.47889 3.63293 0
M  V30 16648 H 1585.21 -2.71207 5.21268 0
M  V30 16649 H 1586.73 -3.60098 4.93114 0
M  V30 16650 H 1588.15 -1.41693 5.55514 0
M  V30 16651 H 1586.54 -0.734727 5.95585 0
M  V30 16652 H 1587.61 0.141851 4.84692 0
M  V30 16653 N 1588.96 -1.5727 -0.101874 0
M  V30 16654 C 1589.89 -2.04614 -1.12496 0
M  V30 16655 C 1590.87 -0.933768 -1.42179 0
M  V30 16656 O 1592.05 -1.2046 -1.52325 0
M  V30 16657 C 1589.18 -2.46488 -2.44665 0
M  V30 16658 C 1588.14 -3.61327 -2.29406 0
M  V30 16659 C 1587.46 -3.89155 -3.66691 0
M  V30 16660 C 1588.76 -4.92455 -1.74026 0
M  V30 16661 H 1590.46 -2.90336 -0.731109 0
M  V30 16662 H 1588 -1.39676 -0.350239 0
M  V30 16663 H 1589.96 -2.78216 -3.16502 0
M  V30 16664 H 1588.68 -1.57757 -2.85972 0
M  V30 16665 H 1587.34 -3.29835 -1.60015 0
M  V30 16666 H 1586.99 -2.97603 -4.05514 0
M  V30 16667 H 1586.69 -4.66465 -3.57329 0
M  V30 16668 H 1588.21 -4.23352 -4.40006 0
M  V30 16669 H 1589.63 -5.22609 -2.35697 0
M  V30 16670 H 1588.02 -5.73882 -1.75441 0
M  V30 16671 H 1589.09 -4.79833 -0.699136 0
M  V30 16672 N 1590.44 0.372521 -1.53134 0
M  V30 16673 C 1591.39 1.45592 -1.75462 0
M  V30 16674 C 1592.37 1.4893 -0.608994 0
M  V30 16675 O 1593.56 1.54288 -0.867419 0
M  V30 16676 C 1590.69 2.83111 -1.94172 0
M  V30 16677 C 1589.78 2.84279 -3.14716 0
M  V30 16678 N 1590.17 2.551 -4.36758 0
M  V30 16679 C 1588.47 3.15443 -3.15297 0
M  V30 16680 C 1589.17 2.6377 -5.18459 0
M  V30 16681 N 1588.14 2.98192 -4.54513 0
M  V30 16682 H 1591.94 1.21885 -2.67435 0
M  V30 16683 H 1589.46 0.58064 -1.51665 0
M  V30 16684 H 1591.46 3.61136 -2.08294 0
M  V30 16685 H 1590.12 3.07788 -1.03423 0
M  V30 16686 H 1591.13 2.2882 -4.64609 0
M  V30 16687 H 1587.8 3.45479 -2.34416 0
M  V30 16688 H 1589.19 2.44616 -6.2579 0
M  V30 16689 N 1591.91 1.44376 0.631925 0
M  V30 16690 C 1593.33 1.28245 0.950014 0
M  V30 16691 C 1593.53 0.217644 2.00321 0
M  V30 16692 O 1592.59 -0.396736 2.49364 0
M  V30 16693 C 1593.9 2.65378 1.41404 0
M  V30 16694 C 1595.45 2.73081 1.52956 0
M  V30 16695 C 1595.92 4.10682 2.02742 0
M  V30 16696 N 1597.41 4.12854 2.10014 0
M  V30 16697 C 1598.15 5.16173 2.49705 0
M  V30 16698 N 1597.64 6.29855 2.88539 0
M  V30 16699 N 1599.44 5.03528 2.49832 0
M  V30 16700 H 1591.59 2.12302 -0.0646167 0
M  V30 16701 H 1593.85 0.9474 0.0337162 0
M  V30 16702 H 1593.56 3.44366 0.714476 0
M  V30 16703 H 1593.43 2.92213 2.3852 0
M  V30 16704 H 1595.82 1.94412 2.22009 0
M  V30 16705 H 1595.9 2.49988 0.542176 0
M  V30 16706 H 1595.54 4.89827 1.34285 0
M  V30 16707 H 1595.47 4.31152 3.02351 0
M  V30 16708 H 1597.96 3.30806 1.8269 0
M  V30 16709 H 1598.28 7.04505 3.17637 0
M  V30 16710 H 1596.62 6.33294 2.86293 0
M  V30 16711 H 1599.81 4.13773 2.18883 0
M  V30 16712 H 1599.99 5.84172 2.80441 0
M  V30 16713 N 1593.39 -0.872258 1.31261 0
M  V30 16714 C 1594.8 -1.44077 1.18738 0
M  V30 16715 C 1595.15 -1.95105 -0.207037 0
M  V30 16716 O 1594.28 -1.86083 -1.10464 0
M  V30 16717 C 1594.87 -2.61884 2.14947 0
M  V30 16718 C 1593.43 -3.14787 2.06364 0
M  V30 16719 C 1592.58 -1.87495 2.04306 0
M  V30 16720 H 1595.53 -0.681011 1.43345 0
M  V30 16721 H 1595.55 -3.38501 1.73773 0
M  V30 16722 H 1595.06 -2.24715 3.16425 0
M  V30 16723 H 1593.16 -3.56582 1.08073 0
M  V30 16724 H 1593.28 -3.77225 2.95361 0
M  V30 16725 H 1591.64 -2.06361 1.49288 0
M  V30 16726 H 1592.42 -1.52566 3.07536 0
M  V30 16727 N 1594.87 -1.14184 -1.08627 0
M  V30 16728 C 1595.8 -0.849455 -2.17501 0
M  V30 16729 C 1596.78 0.194617 -1.68983 0
M  V30 16730 O 1597.97 0.0517757 -1.94131 0
M  V30 16731 C 1595.1 -0.323685 -3.45788 0
M  V30 16732 C 1594.05 -1.30294 -4.07685 0
M  V30 16733 C 1593.38 -0.636575 -5.30897 0
M  V30 16734 C 1594.68 -2.66441 -4.49229 0
M  V30 16735 H 1596.37 -1.75987 -2.42217 0
M  V30 16736 H 1593.92 -0.847595 -1.16412 0
M  V30 16737 H 1595.87 -0.106754 -4.21265 0
M  V30 16738 H 1594.59 0.62215 -3.20619 0
M  V30 16739 H 1593.25 -1.50601 -3.34238 0
M  V30 16740 H 1592.9 0.314995 -5.02013 0
M  V30 16741 H 1592.6 -1.28998 -5.73266 0
M  V30 16742 H 1594.12 -0.429117 -6.0909 0
M  V30 16743 H 1595.54 -2.50055 -5.15893 0
M  V30 16744 H 1593.93 -3.28033 -5.02508 0
M  V30 16745 H 1595 -3.23486 -3.61226 0
M  V30 16746 N 1596.35 1.26749 -0.936613 0
M  V30 16747 C 1597.6 1.93964 -0.581754 0
M  V30 16748 C 1597.92 1.73532 0.878449 0
M  V30 16749 O 1597.18 1.06295 1.64316 0
M  V30 16750 C 1597.48 3.4678 -0.864789 0
M  V30 16751 C 1597.14 3.87344 -2.30815 0
M  V30 16752 C 1595.81 3.98129 -2.70271 0
M  V30 16753 C 1598.16 4.07752 -3.24634 0
M  V30 16754 C 1595.49 4.26717 -4.02653 0
M  V30 16755 C 1597.84 4.37827 -4.56607 0
M  V30 16756 C 1596.5 4.46826 -4.95886 0
M  V30 16757 H 1595.77 0.709763 -0.212879 0
M  V30 16758 H 1598.42 1.50648 -1.18226 0
M  V30 16759 H 1596.72 3.91378 -0.181699 0
M  V30 16760 H 1598.42 3.96942 -0.569065 0
M  V30 16761 H 1595.01 3.79492 -1.99207 0
M  V30 16762 H 1599.19 3.98852 -2.95349 0
M  V30 16763 H 1594.45 4.31895 -4.32755 0
M  V30 16764 H 1598.62 4.52565 -5.293 0
M  V30 16765 H 1596.25 4.68732 -5.98494 0
M  V30 16766 N 1597.83 0.703118 1.41046 0
M  V30 16767 C 1598.79 0.0514476 2.29142 0
M  V30 16768 C 1599.79 -0.700223 1.44753 0
M  V30 16769 O 1600.98 -0.533985 1.65814 0
M  V30 16770 C 1598.11 -0.93735 3.2776 0
M  V30 16771 H 1599.3 0.827201 2.88266 0
M  V30 16772 H 1596.86 0.467045 1.49159 0
M  V30 16773 H 1597.59 -1.7406 2.7363 0
M  V30 16774 H 1597.38 -0.4014 3.9004 0
M  V30 16775 H 1598.87 -1.39088 3.93757 0
M  V30 16776 N 1599.3 -1.51086 0.448402 0
M  V30 16777 C 1600.55 -2.02177 -0.114342 0
M  V30 16778 C 1600.88 -1.3319 -1.41742 0
M  V30 16779 O 1600.13 -0.439101 -1.9071 0
M  V30 16780 C 1600.43 -3.55488 -0.369232 0
M  V30 16781 C 1600.1 -4.42828 0.849372 0
M  V30 16782 C 1598.76 -4.66418 1.18354 0
M  V30 16783 C 1601.11 -4.93998 1.66179 0
M  V30 16784 C 1598.44 -5.38424 2.33059 0
M  V30 16785 C 1600.79 -5.67262 2.79994 0
M  V30 16786 C 1599.46 -5.89113 3.13851 0
M  V30 16787 H 1598.73 -0.739818 -0.0418407 0
M  V30 16788 H 1601.37 -1.81928 0.597857 0
M  V30 16789 H 1599.68 -3.74127 -1.16344 0
M  V30 16790 H 1601.38 -3.92563 -0.818248 0
M  V30 16791 H 1597.97 -4.24671 0.578998 0
M  V30 16792 H 1602.15 -4.75647 1.41683 0
M  V30 16793 H 1597.41 -5.53554 2.59592 0
M  V30 16794 H 1601.58 -6.05899 3.43307 0
M  V30 16795 H 1599.21 -6.44686 4.02844 0
M  V30 16796 N 1600.78 -0.180154 -1.56567 0
M  V30 16797 C 1602.19 0.335054 -1.83669 0
M  V30 16798 C 1602.54 1.62443 -1.1003 0
M  V30 16799 O 1601.67 2.13448 -0.356205 0
M  V30 16800 C 1602.26 0.61468 -3.33177 0
M  V30 16801 C 1600.82 1.0743 -3.60743 0
M  V30 16802 C 1599.97 0.114877 -2.77062 0
M  V30 16803 H 1602.92 -0.404245 -1.53465 0
M  V30 16804 H 1602.94 1.46574 -3.51136 0
M  V30 16805 H 1602.45 -0.323923 -3.86746 0
M  V30 16806 H 1600.56 2.0277 -3.12594 0
M  V30 16807 H 1600.67 0.977349 -4.69025 0
M  V30 16808 H 1599.03 0.613933 -2.4719 0
M  V30 16809 H 1599.82 -0.817904 -3.33414 0
M  V30 16810 N 1602.26 1.57322 0.0935319 0
M  V30 16811 C 1603.54 1.77187 0.828503 0
M  V30 16812 C 1603.92 0.762216 1.96859 0
M  V30 16813 O 1603.27 -0.208982 2.27542 0
M  V30 16814 C 1603.48 3.23007 1.32163 0
M  V30 16815 C 1604.82 3.86233 1.76379 0
M  V30 16816 O 1605.85 3.26766 1.41783 0
M  V30 16817 O 1604.71 4.90808 2.40354 0
M  V30 16818 H 1601.8 0.726401 0.395311 0
M  V30 16819 H 1604.35 1.69533 0.0752924 0
M  V30 16820 H 1603.12 3.88029 0.504863 0
M  V30 16821 H 1602.74 3.353 2.13681 0
M  V30 16822 N 1603.74 -0.364395 1.53329 0
M  V30 16823 C 1604.7 -1.42927 1.79178 0
M  V30 16824 C 1605.7 -1.4653 0.662235 0
M  V30 16825 O 1606.89 -1.4727 0.930442 0
M  V30 16826 C 1604.02 -2.82035 1.91492 0
M  V30 16827 H 1605.22 -1.21281 2.74283 0
M  V30 16828 H 1602.77 -0.597596 1.44425 0
M  V30 16829 H 1603.5 -3.08993 0.984579 0
M  V30 16830 H 1603.29 -2.80818 2.73649 0
M  V30 16831 H 1604.78 -3.59148 2.13078 0
M  V30 16832 N 1605.22 -1.44709 -0.62426 0
M  V30 16833 C 1606.46 -1.48072 -1.38573 0
M  V30 16834 C 1606.8 -0.115532 -1.93856 0
M  V30 16835 O 1606.07 0.867787 -1.74068 0
M  V30 16836 C 1606.35 -2.54662 -2.54596 0
M  V30 16837 C 1606.21 -4.00564 -2.04618 0
M  V30 16838 C 1607.53 -2.57689 -3.56769 0
M  V30 16839 H 1604.64 -0.539119 -0.502513 0
M  V30 16840 H 1607.29 -1.76427 -0.705225 0
M  V30 16841 H 1605.44 -2.30614 -3.12649 0
M  V30 16842 H 1607.11 -4.35767 -1.51343 0
M  V30 16843 H 1605.35 -4.12014 -1.35746 0
M  V30 16844 H 1606.02 -4.70804 -2.8818 0
M  V30 16845 H 1608.5 -2.79194 -3.08529 0
M  V30 16846 H 1607.37 -3.34161 -4.35462 0
M  V30 16847 H 1607.64 -1.62146 -4.11292 0
M  V30 16848 N 1606.69 0.865285 -1.31722 0
M  V30 16849 C 1607.64 1.97294 -1.19766 0
M  V30 16850 C 1608.61 1.65896 -0.0823232 0
M  V30 16851 O 1609.8 1.89075 -0.256009 0
M  V30 16852 C 1606.94 3.32727 -0.915776 0
M  V30 16853 C 1606.05 3.76691 -2.11489 0
M  V30 16854 C 1605.18 5.00865 -1.76939 0
M  V30 16855 C 1604.22 5.37291 -2.93232 0
M  V30 16856 N 1603.36 6.52643 -2.58846 0
M  V30 16857 H 1608.2 2.06851 -2.14515 0
M  V30 16858 H 1605.74 1.01256 -1.06703 0
M  V30 16859 H 1607.7 4.10712 -0.732881 0
M  V30 16860 H 1606.33 3.228 -0.00510917 0
M  V30 16861 H 1605.38 2.94449 -2.4084 0
M  V30 16862 H 1606.69 3.99613 -2.98514 0
M  V30 16863 H 1605.84 5.86529 -1.5514 0
M  V30 16864 H 1604.58 4.79857 -0.871125 0
M  V30 16865 H 1603.59 4.50143 -3.15675 0
M  V30 16866 H 1604.81 5.60262 -3.83775 0
M  V30 16867 H 1602.76 6.33172 -1.71548 0
M  V30 16868 H 1602.68 6.75531 -3.39401 0
M  V30 16869 H 1603.94 7.41487 -2.40451 0
M  V30 16870 N 1608.17 1.14759 1.0802 0
M  V30 16871 C 1609.1 0.795901 2.14937 0
M  V30 16872 C 1610.12 -0.189008 1.61699 0
M  V30 16873 O 1611.31 0.0332689 1.78469 0
M  V30 16874 C 1608.41 0.161388 3.38516 0
M  V30 16875 C 1607.58 1.18202 4.21126 0
M  V30 16876 C 1606.64 0.570535 5.23098 0
M  V30 16877 O 1605.66 1.2346 5.55649 0
M  V30 16878 N 1606.87 -0.650883 5.76839 0
M  V30 16879 H 1609.63 1.716 2.4571 0
M  V30 16880 H 1607.19 1.04254 1.23866 0
M  V30 16881 H 1609.18 -0.260289 4.03862 0
M  V30 16882 H 1607.75 -0.661917 3.05512 0
M  V30 16883 H 1606.97 1.78049 3.51699 0
M  V30 16884 H 1608.26 1.87135 4.73136 0
M  V30 16885 H 1607.66 -1.2089 5.52632 0
M  V30 16886 H 1606.22 -1.01501 6.43848 0
M  V30 16887 N 1609.65 -1.26251 0.943322 0
M  V30 16888 C 1610.9 -1.92946 0.587764 0
M  V30 16889 C 1611.21 -1.74805 -0.877647 0
M  V30 16890 O 1612.42 -2.35976 -1.34267 0
M  V30 16891 C 1610.87 -3.45715 1.00047 0
M  V30 16892 C 1610.48 -3.72586 2.48764 0
M  V30 16893 C 1612.23 -4.18403 0.716905 0
M  V30 16894 C 1610.13 -5.18805 2.83893 0
M  V30 16895 H 1609.06 -0.722366 0.21611 0
M  V30 16896 H 1611.71 -1.43295 1.14625 0
M  V30 16897 H 1610.1 -3.94263 0.370491 0
M  V30 16898 H 1611.27 -3.34735 3.16684 0
M  V30 16899 H 1609.59 -3.13136 2.74472 0
M  V30 16900 H 1612.18 -5.2609 0.955669 0
M  V30 16901 H 1612.53 -4.14856 -0.346396 0
M  V30 16902 H 1613.06 -3.75726 1.3067 0
M  V30 16903 H 1609.8 -5.27454 3.89195 0
M  V30 16904 H 1609.32 -5.57745 2.20636 0
M  V30 16905 H 1611 -5.86828 2.72474 0
M  V30 16906 N 1611.13 -0.710588 -1.40671 0
M  V30 16907 C 1612.06 -0.0694601 -2.33397 0
M  V30 16908 C 1613.04 0.750959 -1.52626 0
M  V30 16909 O 1614.23 0.700896 -1.81111 0
M  V30 16910 C 1611.36 0.856704 -3.36568 0
M  V30 16911 C 1610.31 0.142276 -4.27763 0
M  V30 16912 C 1609.64 1.18382 -5.21431 0
M  V30 16913 C 1610.94 -1.00052 -5.12627 0
M  V30 16914 H 1612.63 -0.843945 -2.87259 0
M  V30 16915 H 1610.18 -0.407287 -1.3812 0
M  V30 16916 H 1612.13 1.31457 -4.00371 0
M  V30 16917 H 1610.85 1.66303 -2.81089 0
M  V30 16918 H 1609.51 -0.295714 -3.65405 0
M  V30 16919 H 1609.16 1.98306 -4.62259 0
M  V30 16920 H 1608.86 0.71071 -5.83286 0
M  V30 16921 H 1610.38 1.64189 -5.88111 0
M  V30 16922 H 1611.8 -0.622246 -5.69913 0
M  V30 16923 H 1610.19 -1.40168 -5.83501 0
M  V30 16924 H 1611.26 -1.83345 -4.48902 0
M  V30 16925 N 1612.61 1.50847 -0.456408 0
M  V30 16926 C 1614.02 1.59222 -0.109731 0
M  V30 16927 C 1614.22 1.46582 1.3826 0
M  V30 16928 O 1613.28 1.31678 2.15446 0
M  V30 16929 C 1614.59 2.9366 -0.646846 0
M  V30 16930 C 1616.14 3.07019 -0.60897 0
M  V30 16931 C 1616.62 4.44009 -1.12338 0
M  V30 16932 N 1618.11 4.50381 -1.08217 0
M  V30 16933 C 1618.84 5.54741 -1.45086 0
M  V30 16934 N 1618.34 6.66427 -1.89333 0
M  V30 16935 N 1620.13 5.45204 -1.36782 0
M  V30 16936 H 1612.28 1.57307 -1.42717 0
M  V30 16937 H 1614.54 0.742587 -0.589295 0
M  V30 16938 H 1614.25 3.0834 -1.69172 0
M  V30 16939 H 1614.12 3.7711 -0.0822535 0
M  V30 16940 H 1616.51 2.91995 0.426958 0
M  V30 16941 H 1616.59 2.25362 -1.21019 0
M  V30 16942 H 1616.24 4.59781 -2.15787 0
M  V30 16943 H 1616.17 5.24235 -0.498512 0
M  V30 16944 H 1618.66 3.70231 -0.757467 0
M  V30 16945 H 1618.97 7.42101 -2.15652 0
M  V30 16946 H 1617.32 6.67585 -1.93275 0
M  V30 16947 H 1620.51 4.56837 -1.02066 0
M  V30 16948 H 1620.68 6.26419 -1.65842 0
M  V30 16949 N 1614.09 0.188454 1.56469 0
M  V30 16950 C 1615.03 -0.735074 2.18781 0
M  V30 16951 C 1616 -1.21459 1.133 0
M  V30 16952 O 1617.19 -1.27967 1.41524 0
M  V30 16953 C 1614.33 -1.95181 2.84602 0
M  V30 16954 C 1613.44 -1.51428 4.0459 0
M  V30 16955 C 1612.58 -2.68601 4.58287 0
M  V30 16956 C 1611.61 -2.21422 5.70648 0
M  V30 16957 N 1610.75 -3.31749 6.18779 0
M  V30 16958 H 1615.59 -0.19694 2.97349 0
M  V30 16959 H 1613.13 -0.0854693 1.46851 0
M  V30 16960 H 1615.09 -2.66571 3.2093 0
M  V30 16961 H 1613.72 -2.46337 2.0861 0
M  V30 16962 H 1612.77 -0.6965 3.73969 0
M  V30 16963 H 1614.08 -1.1281 4.85876 0
M  V30 16964 H 1613.23 -3.48123 4.96885 0
M  V30 16965 H 1611.97 -3.1049 3.76095 0
M  V30 16966 H 1610.98 -1.40352 5.31584 0
M  V30 16967 H 1612.2 -1.80572 6.54653 0
M  V30 16968 H 1610.15 -3.73181 5.39511 0
M  V30 16969 H 1610.07 -2.97277 6.95099 0
M  V30 16970 H 1611.33 -4.11504 6.62031 0
M  V30 16971 N 1615.56 -1.5737 -0.0851874 0
M  V30 16972 C 1616.98 -1.53425 -0.439651 0
M  V30 16973 C 1617.18 -0.906663 -1.7995 0
M  V30 16974 O 1616.24 -0.503414 -2.47431 0
M  V30 16975 C 1617.55 -2.9812 -0.393028 0
M  V30 16976 C 1619.1 -3.09387 -0.474175 0
M  V30 16977 C 1619.57 -4.55708 -0.457598 0
M  V30 16978 N 1621.06 -4.60294 -0.518065 0
M  V30 16979 C 1621.8 -5.70971 -0.527237 0
M  V30 16980 N 1621.29 -6.91051 -0.492023 0
M  V30 16981 N 1623.09 -5.59174 -0.572792 0
M  V30 16982 H 1615.24 -1.96538 0.805399 0
M  V30 16983 H 1617.5 -0.899 0.300836 0
M  V30 16984 H 1617.21 -3.47542 0.539204 0
M  V30 16985 H 1617.08 -3.57324 -1.20829 0
M  V30 16986 H 1619.47 -2.59948 -1.39683 0
M  V30 16987 H 1619.55 -2.53119 0.369411 0
M  V30 16988 H 1619.19 -5.05802 0.46115 0
M  V30 16989 H 1619.12 -5.09826 -1.31853 0
M  V30 16990 H 1621.61 -3.73875 -0.550072 0
M  V30 16991 H 1621.93 -7.71164 -0.502578 0
M  V30 16992 H 1620.27 -6.93483 -0.458917 0
M  V30 16993 H 1623.46 -4.64266 -0.597901 0
M  V30 16994 H 1623.64 -6.45431 -0.576471 0
M  V30 16995 N 1617.04 0.356258 -1.53521 0
M  V30 16996 C 1617.97 1.45722 -1.76912 0
M  V30 16997 C 1618.99 1.49257 -0.650091 0
M  V30 16998 O 1620.18 1.52569 -0.926557 0
M  V30 16999 C 1617.28 2.84444 -1.84241 0
M  V30 17000 C 1616.45 3.04497 -3.14007 0
M  V30 17001 C 1615.51 4.23387 -3.12458 0
M  V30 17002 O 1614.53 4.18113 -3.86225 0
M  V30 17003 N 1615.74 5.31278 -2.33931 0
M  V30 17004 H 1618.5 1.26031 -2.71912 0
M  V30 17005 H 1616.06 0.546052 -1.52414 0
M  V30 17006 H 1618.05 3.62133 -1.80671 0
M  V30 17007 H 1616.62 2.97338 -0.96484 0
M  V30 17008 H 1615.84 2.14387 -3.30805 0
M  V30 17009 H 1617.13 3.14769 -3.99747 0
M  V30 17010 H 1616.53 5.38428 -1.73527 0
M  V30 17011 H 1615.09 6.07508 -2.36171 0
M  V30 17012 N 1618.52 1.45038 0.616577 0
M  V30 17013 C 1619.77 1.47861 1.37186 0
M  V30 17014 C 1620.08 0.120862 1.95226 0
M  V30 17015 O 1621.29 0.0266872 2.71487 0
M  V30 17016 C 1619.74 2.6038 2.48455 0
M  V30 17017 C 1619.35 4.02428 1.96866 0
M  V30 17018 C 1621.1 2.7244 3.25541 0
M  V30 17019 C 1619 5.06345 3.05563 0
M  V30 17020 H 1617.93 0.550166 0.51559 0
M  V30 17021 H 1620.58 1.71151 0.661796 0
M  V30 17022 H 1618.97 2.30357 3.22105 0
M  V30 17023 H 1620.14 4.42087 1.29985 0
M  V30 17024 H 1618.45 3.94739 1.32552 0
M  V30 17025 H 1621.05 3.47248 4.06599 0
M  V30 17026 H 1621.39 1.7876 3.75966 0
M  V30 17027 H 1621.93 3.01944 2.58988 0
M  V30 17028 H 1618.67 6.01703 2.60065 0
M  V30 17029 H 1618.19 4.71264 3.7104 0
M  V30 17030 H 1619.87 5.30695 3.70097 0
M  V30 17031 N 1620 -0.858287 1.32179 0
M  V30 17032 C 1621.41 -1.14591 1.1109 0
M  V30 17033 C 1621.61 -2.01194 -0.110998 0
M  V30 17034 O 1620.67 -2.39593 -0.79695 0
M  V30 17035 C 1621.98 -1.82675 2.38852 0
M  V30 17036 C 1623.53 -1.95326 2.44574 0
M  V30 17037 C 1624.01 -2.66826 3.72247 0
M  V30 17038 N 1625.5 -2.74353 3.73208 0
M  V30 17039 C 1626.23 -3.30317 4.68698 0
M  V30 17040 N 1625.73 -3.87121 5.74552 0
M  V30 17041 N 1627.52 -3.28386 4.562 0
M  V30 17042 H 1619.67 -0.281471 2.10527 0
M  V30 17043 H 1621.93 -0.187326 0.929308 0
M  V30 17044 H 1621.64 -1.26495 3.28165 0
M  V30 17045 H 1621.51 -2.82862 2.49537 0
M  V30 17046 H 1623.9 -2.50668 1.55723 0
M  V30 17047 H 1623.98 -0.94147 2.37844 0
M  V30 17048 H 1623.63 -2.12149 4.61471 0
M  V30 17049 H 1623.56 -3.68437 3.76247 0
M  V30 17050 H 1626.05 -2.34051 2.96696 0
M  V30 17051 H 1626.36 -4.2797 6.43476 0
M  V30 17052 H 1624.71 -3.85463 5.78311 0
M  V30 17053 H 1627.9 -2.83254 3.72672 0
M  V30 17054 H 1628.07 -3.71701 5.30794 0
M  V30 17055 N 1621.48 -1.1533 -1.07409 0
M  V30 17056 C 1622.89 -0.937287 -1.61468 0
M  V30 17057 C 1623.24 0.521545 -1.89141 0
M  V30 17058 O 1622.36 1.39253 -1.65643 0
M  V30 17059 C 1622.96 -1.69501 -2.93351 0
M  V30 17060 C 1621.52 -1.52429 -3.44154 0
M  V30 17061 C 1620.66 -1.71098 -2.18222 0
M  V30 17062 H 1623.61 -1.30364 -0.905044 0
M  V30 17063 H 1623.64 -1.16416 -3.62253 0
M  V30 17064 H 1623.15 -2.75672 -2.73178 0
M  V30 17065 H 1621.25 -0.486498 -3.6941 0
M  V30 17066 H 1621.36 -2.30089 -4.20233 0
M  V30 17067 H 1619.73 -1.13745 -2.27891 0
M  V30 17068 H 1620.51 -2.78634 -2.00545 0
M  V30 17069 N 1622.95 1.25748 -0.950004 0
M  V30 17070 C 1623.9 2.23767 -0.43731 0
M  V30 17071 C 1624.89 1.53856 0.47088 0
M  V30 17072 O 1626.08 1.74358 0.304687 0
M  V30 17073 C 1623.21 3.4209 0.288037 0
M  V30 17074 C 1622.29 4.19274 -0.637955 0
M  V30 17075 N 1622.69 4.73909 -1.76759 0
M  V30 17076 C 1620.98 4.43772 -0.445251 0
M  V30 17077 C 1621.68 5.32323 -2.34535 0
M  V30 17078 N 1620.66 5.18511 -1.63239 0
M  V30 17079 H 1624.46 2.6361 -1.29949 0
M  V30 17080 H 1621.98 1.40934 -0.806931 0
M  V30 17081 H 1623.97 4.11441 0.672433 0
M  V30 17082 H 1622.63 3.03771 1.14688 0
M  V30 17083 H 1623.64 4.71184 -2.14955 0
M  V30 17084 H 1620.32 4.15848 0.37109 0
M  V30 17085 H 1621.71 5.85411 -3.29763 0
M  V30 17086 N 1624.43 0.718038 1.40292 0
M  V30 17087 C 1625.68 0.26782 2.01629 0
M  V30 17088 C 1626.03 -1.1272 1.55923 0
M  V30 17089 O 1625.33 -1.75425 0.770497 0
M  V30 17090 C 1625.52 0.289374 3.56227 0
M  V30 17091 C 1625.35 1.68495 4.16941 0
M  V30 17092 C 1624.12 2.29319 4.50268 0
M  V30 17093 C 1626.32 2.63562 4.41633 0
M  V30 17094 N 1624.3 3.61207 4.9639 0
M  V30 17095 C 1625.67 3.80159 4.89774 0
M  V30 17096 C 1627.72 2.61542 4.23675 0
M  V30 17097 C 1626.43 4.95048 5.21843 0
M  V30 17098 C 1628.45 3.7556 4.56846 0
M  V30 17099 C 1627.82 4.90891 5.05179 0
M  V30 17100 H 1623.91 0.143888 0.768648 0
M  V30 17101 H 1626.5 0.940362 1.70485 0
M  V30 17102 H 1624.67 -0.352744 3.86795 0
M  V30 17103 H 1626.4 -0.177788 4.04309 0
M  V30 17104 H 1623.16 1.81395 4.37485 0
M  V30 17105 H 1623.58 4.28873 5.2383 0
M  V30 17106 H 1628.22 1.7358 3.85526 0
M  V30 17107 H 1625.94 5.83653 5.58905 0
M  V30 17108 H 1629.53 3.75275 4.4459 0
M  V30 17109 H 1628.41 5.77655 5.30362 0
M  V30 17110 N 1625.91 -1.50602 0.464402 0
M  V30 17111 C 1626.84 -2.25029 -0.379075 0
M  V30 17112 C 1627.82 -1.28064 -1.00192 0
M  V30 17113 O 1629.01 -1.5727 -1.03915 0
M  V30 17114 C 1626.13 -3.02144 -1.53057 0
M  V30 17115 C 1625.18 -4.13981 -1.02576 0
M  V30 17116 S 1626.01 -5.35473 0.0541453 0
M  V30 17117 C 1627.17 -6.16133 -1.10138 0
M  V30 17118 H 1627.4 -2.96224 0.252731 0
M  V30 17119 H 1624.93 -1.52376 0.249205 0
M  V30 17120 H 1626.89 -3.47167 -2.19056 0
M  V30 17121 H 1625.55 -2.30489 -2.13387 0
M  V30 17122 H 1624.75 -4.67316 -1.88763 0
M  V30 17123 H 1624.35 -3.7136 -0.443597 0
M  V30 17124 H 1626.64 -6.46861 -2.01437 0
M  V30 17125 H 1627.58 -7.0549 -0.60743 0
M  V30 17126 H 1627.99 -5.48066 -1.35218 0
M  V30 17127 N 1627.39 -0.19675 -1.56367 0
M  V30 17128 C 1628.64 0.441584 -1.97627 0
M  V30 17129 C 1628.96 1.61514 -1.08368 0
M  V30 17130 O 1628.22 1.95312 -0.123139 0
M  V30 17131 C 1628.52 0.942382 -3.44752 0
M  V30 17132 C 1628.18 -0.117977 -4.50746 0
M  V30 17133 C 1626.85 -0.409332 -4.79456 0
M  V30 17134 C 1629.2 -0.836374 -5.14446 0
M  V30 17135 C 1626.53 -1.42403 -5.69156 0
M  V30 17136 C 1628.88 -1.84024 -6.05242 0
M  V30 17137 C 1627.54 -2.13877 -6.32308 0
M  V30 17138 H 1626.81 0.161587 -0.723167 0
M  V30 17139 H 1629.46 -0.294063 -1.89229 0
M  V30 17140 H 1627.76 1.75633 -3.50229 0
M  V30 17141 H 1629.46 1.44571 -3.74032 0
M  V30 17142 H 1626.05 0.119274 -4.28434 0
M  V30 17143 H 1630.23 -0.62451 -4.92355 0
M  V30 17144 H 1625.49 -1.66122 -5.88399 0
M  V30 17145 H 1629.66 -2.40212 -6.5366 0
M  V30 17146 H 1627.29 -2.92649 -7.01613 0
M  V30 17147 N 1628.87 1.57413 0.0768405 0
M  V30 17148 C 1630.11 1.87279 0.778099 0
M  V30 17149 C 1630.45 0.788359 1.77478 0
M  V30 17150 O 1629.72 -0.201876 1.9345 0
M  V30 17151 C 1630 3.27801 1.49059 0
M  V30 17152 C 1629.86 4.46892 0.510661 0
M  V30 17153 C 1631.18 3.66485 2.43674 0
M  V30 17154 H 1628.29 0.681159 0.281409 0
M  V30 17155 H 1630.94 1.89955 0.0413711 0
M  V30 17156 H 1629.09 3.2565 2.11859 0
M  V30 17157 H 1630.76 4.61165 -0.111734 0
M  V30 17158 H 1629 4.33449 -0.174445 0
M  V30 17159 H 1629.67 5.41985 1.04671 0
M  V30 17160 H 1632.15 3.69696 1.90955 0
M  V30 17161 H 1631.02 4.65706 2.90533 0
M  V30 17162 H 1631.29 2.96145 3.28254 0
M  V30 17163 N 1630.34 -0.348112 1.53707 0
M  V30 17164 C 1631.27 -1.43296 1.8436 0
M  V30 17165 C 1632.26 -1.55102 0.698376 0
M  V30 17166 O 1633.44 -1.69385 0.949864 0
M  V30 17167 C 1630.57 -2.80407 2.04912 0
M  V30 17168 C 1629.52 -2.83412 3.20721 0
M  V30 17169 C 1628.85 -4.23365 3.26597 0
M  V30 17170 C 1630.15 -2.49358 4.58931 0
M  V30 17171 H 1631.84 -1.17892 2.75212 0
M  V30 17172 H 1629.39 -0.565692 1.32423 0
M  V30 17173 H 1631.34 -3.56343 2.24939 0
M  V30 17174 H 1630.07 -3.07236 1.10786 0
M  V30 17175 H 1628.73 -2.09929 3.00542 0
M  V30 17176 H 1628.37 -4.47297 2.30076 0
M  V30 17177 H 1628.07 -4.26287 4.04417 0
M  V30 17178 H 1629.6 -5.01149 3.4883 0
M  V30 17179 H 1631.01 -3.15006 4.79003 0
M  V30 17180 H 1629.41 -2.6357 5.3912 0
M  V30 17181 H 1630.48 -1.44557 4.62851 0
M  V30 17182 N 1631.82 -1.45363 -0.608876 0
M  V30 17183 C 1633.1 -1.39787 -1.36817 0
M  V30 17184 C 1633.48 -0.067821 -2.10991 0
M  V30 17185 O 1632.83 0.950196 -2.07806 0
M  V30 17186 C 1633.04 -2.61073 -2.31608 0
M  V30 17187 C 1634.39 -3.06104 -2.94254 0
M  V30 17188 O 1635.41 -2.61436 -2.41929 0
M  V30 17189 O 1634.27 -3.83616 -3.89231 0
M  V30 17190 H 1631.36 -0.554657 -0.61342 0
M  V30 17191 H 1633.91 -1.57489 -0.632073 0
M  V30 17192 H 1632.68 -3.4946 -1.76049 0
M  V30 17193 H 1632.3 -2.45697 -3.126 0
M  V30 17194 N 1633.3 0.851265 -1.32632 0
M  V30 17195 C 1634.53 1.64328 -1.26535 0
M  V30 17196 C 1634.95 1.87392 0.163086 0
M  V30 17197 O 1634.31 1.42913 1.1156 0
M  V30 17198 C 1634.36 2.97781 -2.03369 0
M  V30 17199 O 1633.46 3.8849 -1.38381 0
M  V30 17200 H 1632.8 0.500864 -0.435926 0
M  V30 17201 H 1635.33 1.06 -1.75001 0
M  V30 17202 H 1635.34 3.47576 -2.1367 0
M  V30 17203 H 1634.02 2.80316 -3.07239 0
M  V30 17204 H 1632.59 3.4696 -1.36649 0
M  V30 17205 N 1634.78 1.15898 1.06796 0
M  V30 17206 C 1635.71 0.88395 2.16122 0
M  V30 17207 C 1636.69 -0.167708 1.69271 0
M  V30 17208 O 1637.87 -0.0208846 1.94189 0
M  V30 17209 C 1635 0.378656 3.4523 0
M  V30 17210 C 1633.96 1.36764 4.05561 0
M  V30 17211 C 1633.28 0.720956 5.29817 0
M  V30 17212 C 1634.58 2.73554 4.44933 0
M  V30 17213 H 1636.28 1.79818 2.39386 0
M  V30 17214 H 1633.82 0.866008 1.15049 0
M  V30 17215 H 1635.78 0.17376 4.21042 0
M  V30 17216 H 1634.5 -0.571063 3.21569 0
M  V30 17217 H 1633.16 1.55899 3.318 0
M  V30 17218 H 1632.81 -0.235089 5.0245 0
M  V30 17219 H 1632.51 1.38101 5.71141 0
M  V30 17220 H 1634.03 0.525963 6.0833 0
M  V30 17221 H 1635.45 2.58231 5.11849 0
M  V30 17222 H 1633.84 3.35986 4.97226 0
M  V30 17223 H 1634.91 3.29192 3.56034 0
M  V30 17224 N 1636.26 -1.25243 0.956659 0
M  V30 17225 C 1637.19 -2.28159 0.496574 0
M  V30 17226 C 1638.17 -1.63814 -0.458132 0
M  V30 17227 O 1639.35 -1.90897 -0.356648 0
M  V30 17228 C 1636.48 -3.46573 -0.22454 0
M  V30 17229 C 1635.44 -4.2311 0.645104 0
M  V30 17230 C 1634.76 -5.343 -0.206867 0
M  V30 17231 C 1636.06 -4.85562 1.92422 0
M  V30 17232 H 1637.76 -2.66895 1.35675 0
M  V30 17233 H 1635.3 -1.28301 0.653827 0
M  V30 17234 H 1637.26 -4.17695 -0.55755 0
M  V30 17235 H 1635.98 -3.06833 -1.11898 0
M  V30 17236 H 1634.64 -3.53774 0.961228 0
M  V30 17237 H 1634.29 -4.908 -1.10112 0
M  V30 17238 H 1633.99 -5.86423 0.371714 0
M  V30 17239 H 1635.51 -6.08253 -0.534798 0
M  V30 17240 H 1636.92 -5.48817 1.65749 0
M  V30 17241 H 1635.32 -5.47871 2.44862 0
M  V30 17242 H 1636.39 -4.07634 2.62607 0
M  V30 17243 N 1637.73 -0.725468 -1.3991 0
M  V30 17244 C 1638.96 -0.277821 -2.05531 0
M  V30 17245 C 1639.38 1.07547 -1.54322 0
M  V30 17246 O 1638.74 1.6795 -0.682828 0
M  V30 17247 C 1638.79 -0.278676 -3.59522 0
M  V30 17248 O 1637.89 0.736864 -4.05764 0
M  V30 17249 H 1637.24 -0.128243 -0.651498 0
M  V30 17250 H 1639.77 -0.988721 -1.79124 0
M  V30 17251 H 1639.78 -0.119765 -4.07824 0
M  V30 17252 H 1638.45 -1.2662 -3.96157 0
M  V30 17253 H 1637.03 0.544869 -3.68898 0
M  V30 17254 N 1639.21 1.50354 -0.472382 0
M  V30 17255 C 1640.63 1.59097 -0.126613 0
M  V30 17256 C 1640.83 1.4804 1.36698 0
M  V30 17257 O 1639.88 1.33956 2.14038 0
M  V30 17258 C 1641.2 2.92958 -0.677957 0
M  V30 17259 C 1642.75 3.06356 -0.6415 0
M  V30 17260 C 1643.22 4.42793 -1.17041 0
M  V30 17261 N 1644.71 4.49208 -1.12988 0
M  V30 17262 C 1645.45 5.53171 -1.50961 0
M  V30 17263 N 1644.94 6.64381 -1.96391 0
M  V30 17264 N 1646.74 5.43722 -1.42556 0
M  V30 17265 H 1638.89 1.55785 -1.44378 0
M  V30 17266 H 1641.15 0.736295 -0.597138 0
M  V30 17267 H 1640.86 3.06529 -1.72433 0
M  V30 17268 H 1640.73 3.77002 -0.122247 0
M  V30 17269 H 1643.12 2.92431 0.395964 0
M  V30 17270 H 1643.2 2.24066 -1.23403 0
M  V30 17271 H 1642.84 4.57466 -2.20651 0
M  V30 17272 H 1642.77 5.23677 -0.554086 0
M  V30 17273 H 1645.26 3.69407 -0.796692 0
M  V30 17274 H 1645.58 7.39772 -2.23511 0
M  V30 17275 H 1643.92 6.65498 -2.00344 0
M  V30 17276 H 1647.11 4.55729 -1.06905 0
M  V30 17277 H 1647.28 6.24625 -1.72476 0
M  V30 17278 N 1640.69 0.205039 1.56261 0
M  V30 17279 C 1641.65 -0.698166 2.18308 0
M  V30 17280 C 1642.65 -1.13376 1.14029 0
M  V30 17281 O 1643.84 -1.04524 1.39357 0
M  V30 17282 C 1640.98 -1.95438 2.79315 0
M  V30 17283 H 1642.17 -0.157462 2.99486 0
M  V30 17284 H 1639.72 -0.0445849 1.56236 0
M  V30 17285 H 1640.46 -2.53736 2.01962 0
M  V30 17286 H 1640.24 -1.65068 3.55662 0
M  V30 17287 H 1641.73 -2.59824 3.26927 0
M  V30 17288 N 1642.17 -1.57451 -0.0684915 0
M  V30 17289 C 1643.42 -1.87689 -0.768156 0
M  V30 17290 C 1643.75 -0.79776 -1.77058 0
M  V30 17291 O 1643.02 0.191614 -1.93554 0
M  V30 17292 C 1643.31 -3.28587 -1.47319 0
M  V30 17293 C 1643.16 -4.47156 -0.486954 0
M  V30 17294 C 1644.48 -3.67772 -2.41727 0
M  V30 17295 H 1641.6 -0.682642 -0.277793 0
M  V30 17296 H 1644.24 -1.89974 -0.0312968 0
M  V30 17297 H 1642.39 -3.26769 -2.10129 0
M  V30 17298 H 1644.06 -4.61099 0.136189 0
M  V30 17299 H 1642.3 -4.33351 0.197429 0
M  V30 17300 H 1642.98 -5.42533 -1.01795 0
M  V30 17301 H 1645.45 -3.70704 -1.88992 0
M  V30 17302 H 1644.33 -4.6724 -2.88059 0
M  V30 17303 H 1644.59 -2.97882 -3.26679 0
M  V30 17304 N 1643.65 0.339955 -1.5389 0
M  V30 17305 C 1645.06 0.683287 -1.44234 0
M  V30 17306 C 1645.26 1.92298 -0.601976 0
M  V30 17307 O 1644.32 2.52324 -0.0943623 0
M  V30 17308 C 1645.63 0.872576 -2.87761 0
M  V30 17309 C 1647.18 0.970965 -2.97559 0
M  V30 17310 C 1647.66 1.19254 -4.42202 0
M  V30 17311 N 1649.15 1.25966 -4.45743 0
M  V30 17312 C 1649.88 1.44869 -5.54798 0
M  V30 17313 N 1649.38 1.6092 -6.73852 0
M  V30 17314 N 1651.17 1.47445 -5.42417 0
M  V30 17315 H 1643.32 -0.475086 -2.07019 0
M  V30 17316 H 1645.58 -0.150644 -0.935954 0
M  V30 17317 H 1645.29 0.033117 -3.51684 0
M  V30 17318 H 1645.16 1.77326 -3.32919 0
M  V30 17319 H 1647.55 1.80094 -2.33774 0
M  V30 17320 H 1647.63 0.0471065 -2.55757 0
M  V30 17321 H 1647.28 0.367482 -5.06569 0
M  V30 17322 H 1647.21 2.13002 -4.81599 0
M  V30 17323 H 1649.7 1.15072 -3.59954 0
M  V30 17324 H 1650.01 1.74989 -7.52727 0
M  V30 17325 H 1648.36 1.58049 -6.7679 0
M  V30 17326 H 1651.55 1.34489 -4.48364 0
M  V30 17327 H 1651.72 1.61834 -6.27466 0
M  V30 17328 N 1645.13 1.45684 0.601159 0
M  V30 17329 C 1646.09 1.54451 1.69344 0
M  V30 17330 C 1647.09 0.423379 1.55126 0
M  V30 17331 O 1648.28 0.687079 1.60078 0
M  V30 17332 C 1645.41 1.4472 3.08657 0
M  V30 17333 H 1646.6 2.51778 1.62935 0
M  V30 17334 H 1644.16 1.3322 0.81744 0
M  V30 17335 H 1644.89 0.486027 3.20637 0
M  V30 17336 H 1644.68 2.26045 3.20384 0
M  V30 17337 H 1646.17 1.53902 3.88206 0
M  V30 17338 N 1646.6 -0.84422 1.33082 0
M  V30 17339 C 1647.57 -1.93519 1.22813 0
M  V30 17340 C 1648.57 -1.60113 0.148516 0
M  V30 17341 O 1649.76 -1.69553 0.399668 0
M  V30 17342 C 1646.89 -3.29045 0.891179 0
M  V30 17343 H 1648.08 -2.04051 2.1978 0
M  V30 17344 H 1645.63 -1.03567 1.17063 0
M  V30 17345 H 1646.37 -3.2421 -0.0762276 0
M  V30 17346 H 1646.15 -3.54671 1.67186 0
M  V30 17347 H 1647.64 -4.08984 0.843932 0
M  V30 17348 N 1648.08 -1.16463 -1.0618 0
M  V30 17349 C 1649.01 -0.895399 -2.1565 0
M  V30 17350 C 1649.99 0.158729 -1.69358 0
M  V30 17351 O 1651.18 0.010586 -1.94197 0
M  V30 17352 C 1648.31 -0.396959 -3.45024 0
M  V30 17353 C 1647.26 -1.38913 -4.0483 0
M  V30 17354 C 1646.59 -0.749043 -5.29427 0
M  V30 17355 C 1647.89 -2.7591 -4.43476 0
M  V30 17356 H 1649.58 -1.81085 -2.38429 0
M  V30 17357 H 1647.13 -0.872098 -1.14588 0
M  V30 17358 H 1649.08 -0.196086 -4.20944 0
M  V30 17359 H 1647.8 0.554002 -3.21867 0
M  V30 17360 H 1646.46 -1.57657 -3.30968 0
M  V30 17361 H 1646.11 0.208439 -5.02568 0
M  V30 17362 H 1645.81 -1.41128 -5.704 0
M  V30 17363 H 1647.34 -0.558217 -6.08043 0
M  V30 17364 H 1648.75 -2.60942 -5.10473 0
M  V30 17365 H 1647.15 -3.38618 -4.95437 0
M  V30 17366 H 1648.22 -3.31076 -3.54284 0
M  V30 17367 N 1649.56 1.24734 -0.963288 0
M  V30 17368 C 1650.81 1.92305 -0.621536 0
M  V30 17369 C 1651.13 1.75723 0.845363 0
M  V30 17370 O 1650.4 1.1261 1.60299 0
M  V30 17371 H 1648.98 0.71171 -0.226886 0
M  V30 17372 H 1651.64 1.5172 -1.2234 0
M  V30 17373 H 1650.74 3.00065 -0.858322 0
M  V30 17374 N 1651.04 0.732878 1.39523 0
M  V30 17375 C 1652.28 0.280305 2.00854 0
M  V30 17376 C 1652.62 -1.12891 1.58017 0
M  V30 17377 O 1651.89 -1.76919 0.808086 0
M  V30 17378 C 1652.17 0.37978 3.58092 0
M  V30 17379 C 1652.03 1.82861 4.10953 0
M  V30 17380 C 1653.35 -0.239026 4.3945 0
M  V30 17381 H 1650.47 0.103326 0.729721 0
M  V30 17382 H 1653.11 0.928634 1.6576 0
M  V30 17383 H 1651.26 -0.172198 3.88118 0
M  V30 17384 H 1652.93 2.4373 3.91655 0
M  V30 17385 H 1651.17 2.35064 3.64592 0
M  V30 17386 H 1651.84 1.84949 5.20094 0
M  V30 17387 H 1654.32 0.231488 4.15456 0
M  V30 17388 H 1653.2 -0.139068 5.48724 0
M  V30 17389 H 1653.46 -1.32481 4.21783 0
M  V30 17390 N 1652.52 -1.50101 0.480349 0
M  V30 17391 C 1653.45 -2.31581 -0.298718 0
M  V30 17392 C 1654.43 -1.38905 -0.981798 0
M  V30 17393 O 1655.61 -1.67823 -0.977188 0
M  V30 17394 C 1652.74 -3.18891 -1.37571 0
M  V30 17395 C 1651.7 -4.20194 -0.813704 0
M  V30 17396 C 1651.02 -4.96302 -1.98968 0
M  V30 17397 C 1652.32 -5.21985 0.181295 0
M  V30 17398 H 1654.02 -2.96961 0.381349 0
M  V30 17399 H 1651.56 -1.42809 0.184842 0
M  V30 17400 H 1653.51 -3.74694 -1.92828 0
M  V30 17401 H 1652.24 -2.51414 -2.08467 0
M  V30 17402 H 1650.9 -3.65506 -0.283034 0
M  V30 17403 H 1650.55 -4.2529 -2.68584 0
M  V30 17404 H 1650.25 -5.64833 -1.61981 0
M  V30 17405 H 1651.77 -5.54943 -2.54698 0
M  V30 17406 H 1653.18 -5.72604 -0.28242 0
M  V30 17407 H 1651.58 -5.98289 0.465916 0
M  V30 17408 H 1652.65 -4.72162 1.10413 0
M  V30 17409 N 1653.99 -0.213323 -1.5615 0
M  V30 17410 C 1655.24 0.419767 -1.97693 0
M  V30 17411 C 1655.56 1.60878 -1.10197 0
M  V30 17412 O 1654.83 1.95097 -0.177185 0
M  V30 17413 H 1653.41 0.158075 -0.730083 0
M  V30 17414 H 1656.07 -0.304303 -1.9251 0
M  V30 17415 H 1655.17 0.751645 -3.02914 0
M  V30 17416 N 1655.47 1.57485 0.0601405 0
M  V30 17417 C 1656.88 1.76433 0.610583 0
M  V30 17418 C 1657.23 0.840353 1.77292 0
M  V30 17419 O 1656.36 0.0273238 2.16383 0
M  V30 17420 C 1656.95 3.19947 1.11441 0
M  V30 17421 C 1655.51 3.402 1.61062 0
M  V30 17422 C 1654.66 2.72089 0.535055 0
M  V30 17423 H 1657.61 1.57829 -0.166062 0
M  V30 17424 H 1657.63 3.24749 1.98288 0
M  V30 17425 H 1657.14 3.87172 0.268233 0
M  V30 17426 H 1655.25 2.78106 2.47967 0
M  V30 17427 H 1655.36 4.48696 1.67954 0
M  V30 17428 H 1653.72 2.34972 0.982855 0
M  V30 17429 H 1654.51 3.41977 -0.301135 0
M  V30 17430 N 1656.95 -0.331789 1.54068 0
M  V30 17431 C 1657.86 -1.43116 1.8589 0
M  V30 17432 C 1658.88 -1.57003 0.75007 0
M  V30 17433 O 1660.05 -1.72256 1.04355 0
M  V30 17434 C 1657.12 -2.77945 2.07238 0
M  V30 17435 C 1656.18 -2.73303 3.31065 0
M  V30 17436 C 1655.41 -4.01702 3.51385 0
M  V30 17437 O 1655.63 -4.99562 2.75306 0
M  V30 17438 O 1654.57 -4.0546 4.44844 0
M  V30 17439 H 1658.39 -1.19137 2.79357 0
M  V30 17440 H 1655.98 -0.525057 1.3987 0
M  V30 17441 H 1657.86 -3.57774 2.22656 0
M  V30 17442 H 1656.54 -3.01831 1.16959 0
M  V30 17443 H 1655.44 -1.92054 3.21039 0
M  V30 17444 H 1656.78 -2.54371 4.21374 0
M  V30 17445 N 1658.43 -1.46001 -0.593424 0
M  V30 17446 C 1659.67 -1.50978 -1.35401 0
M  V30 17447 C 1660.01 -0.156626 -1.93567 0
M  V30 17448 O 1659.28 0.83067 -1.7587 0
M  V30 17449 C 1659.57 -2.60005 -2.49137 0
M  V30 17450 C 1659.42 -4.04814 -1.96075 0
M  V30 17451 C 1660.74 -2.65199 -3.51223 0
M  V30 17452 H 1657.86 -0.549657 -0.490965 0
M  V30 17453 H 1660.5 -1.77883 -0.667644 0
M  V30 17454 H 1658.65 -2.37194 -3.07687 0
M  V30 17455 H 1660.32 -4.38879 -1.42066 0
M  V30 17456 H 1658.56 -4.148 -1.26976 0
M  V30 17457 H 1659.23 -4.76811 -2.78128 0
M  V30 17458 H 1661.71 -2.85675 -3.02537 0
M  V30 17459 H 1660.59 -3.43323 -4.28276 0
M  V30 17460 H 1660.85 -1.70833 -4.0776 0
M  V30 17461 N 1659.91 0.83715 -1.33527 0
M  V30 17462 C 1660.82 1.97915 -1.25964 0
M  V30 17463 C 1661.83 1.73169 -0.169894 0
M  V30 17464 O 1663.01 1.97513 -0.393793 0
M  V30 17465 C 1660.07 3.31945 -1.00068 0
M  V30 17466 C 1659.13 3.69795 -2.1806 0
M  V30 17467 C 1658.37 4.97429 -1.9339 0
M  V30 17468 O 1658.59 5.63492 -0.885069 0
M  V30 17469 O 1657.52 5.32823 -2.79969 0
M  V30 17470 H 1661.35 2.07236 -2.22007 0
M  V30 17471 H 1658.94 0.970437 -1.13591 0
M  V30 17472 H 1660.82 4.12248 -0.873487 0
M  V30 17473 H 1659.49 3.23623 -0.0705475 0
M  V30 17474 H 1658.4 2.89995 -2.36334 0
M  V30 17475 H 1659.73 3.82784 -3.09414 0
M  V30 17476 N 1661.38 1.17024 1.05561 0
M  V30 17477 C 1662.33 0.88356 2.13218 0
M  V30 17478 C 1663.3 -0.171025 1.65217 0
M  V30 17479 O 1664.49 -0.0346242 1.90769 0
M  V30 17480 C 1661.63 0.398912 3.42787 0
M  V30 17481 C 1660.74 1.51718 4.04482 0
M  V30 17482 C 1659.87 0.986793 5.21954 0
M  V30 17483 C 1658.91 2.08077 5.75648 0
M  V30 17484 N 1658.05 1.56542 6.84426 0
M  V30 17485 H 1662.89 1.80548 2.37079 0
M  V30 17486 H 1660.43 0.90056 1.16311 0
M  V30 17487 H 1662.39 0.0995018 4.17081 0
M  V30 17488 H 1661.02 -0.48605 3.1912 0
M  V30 17489 H 1660.07 1.9324 3.27662 0
M  V30 17490 H 1661.38 2.34243 4.40377 0
M  V30 17491 H 1660.53 0.641006 6.03304 0
M  V30 17492 H 1659.27 0.130942 4.87524 0
M  V30 17493 H 1658.28 2.43517 4.9293 0
M  V30 17494 H 1659.5 2.94071 6.12127 0
M  V30 17495 H 1657.45 0.732221 6.51901 0
M  V30 17496 H 1657.37 2.32677 7.19303 0
M  V30 17497 H 1658.63 1.24844 7.69438 0
M  V30 17498 N 1662.86 -1.24221 0.969889 0
M  V30 17499 C 1663.77 -2.29001 0.509467 0
M  V30 17500 C 1664.79 -1.68587 -0.430637 0
M  V30 17501 O 1665.96 -1.99106 -0.303142 0
M  V30 17502 C 1663.03 -3.46174 -0.190906 0
M  V30 17503 C 1662.09 -4.21982 0.789296 0
M  V30 17504 C 1661.32 -5.3356 0.122252 0
M  V30 17505 O 1661.55 -5.59909 -1.08896 0
M  V30 17506 O 1660.48 -5.9635 0.815517 0
M  V30 17507 H 1664.31 -2.70506 1.38058 0
M  V30 17508 H 1661.89 -1.29955 0.737028 0
M  V30 17509 H 1663.77 -4.1733 -0.584244 0
M  V30 17510 H 1662.45 -3.06642 -1.03695 0
M  V30 17511 H 1661.36 -3.53192 1.23313 0
M  V30 17512 H 1662.69 -4.65337 1.60382 0
M  V30 17513 N 1664.34 -0.740267 -1.39132 0
M  V30 17514 C 1665.3 -0.112183 -2.28925 0
M  V30 17515 C 1666.3 0.661598 -1.46559 0
M  V30 17516 O 1667.49 0.489835 -1.67171 0
M  V30 17517 C 1664.63 0.850121 -3.3013 0
M  V30 17518 H 1665.82 -0.903339 -2.85972 0
M  V30 17519 H 1663.37 -0.506427 -1.47868 0
M  V30 17520 H 1664.11 1.66744 -2.78149 0
M  V30 17521 H 1663.89 0.297847 -3.90967 0
M  V30 17522 H 1665.38 1.28599 -3.97306 0
M  V30 17523 N 1665.82 1.49844 -0.488302 0
M  V30 17524 C 1667.06 2.02709 0.060788 0
M  V30 17525 C 1667.4 1.36828 1.37811 0
M  V30 17526 O 1666.67 0.499679 1.87972 0
M  V30 17527 C 1666.96 3.59386 0.226637 0
M  V30 17528 C 1666.81 4.35814 -1.11292 0
M  V30 17529 C 1668.13 4.29204 0.973218 0
M  V30 17530 H 1665.25 0.736712 0.0206177 0
M  V30 17531 H 1667.89 1.78995 -0.637245 0
M  V30 17532 H 1666.04 3.79722 0.821182 0
M  V30 17533 H 1667.71 4.27007 -1.74536 0
M  V30 17534 H 1665.95 3.98874 -1.70535 0
M  V30 17535 H 1666.62 5.43758 -0.950319 0
M  V30 17536 H 1669.1 4.13447 0.469106 0
M  V30 17537 H 1667.98 5.38605 1.05809 0
M  V30 17538 H 1668.24 3.93564 2.01394 0
M  V30 17539 N 1667.3 0.221601 1.56034 0
M  V30 17540 C 1668.52 -0.417979 2.03145 0
M  V30 17541 C 1668.95 -1.52556 1.10038 0
M  V30 17542 O 1668.3 -1.81084 0.0885729 0
M  V30 17543 C 1668.35 -0.926762 3.48487 0
M  V30 17544 O 1667.46 -2.03811 3.58518 0
M  V30 17545 H 1666.8 -0.0945778 0.65723 0
M  V30 17546 H 1669.33 0.340252 2.01751 0
M  V30 17547 H 1669.34 -1.23656 3.8881 0
M  V30 17548 H 1668.01 -0.116115 4.15738 0
M  V30 17549 H 1666.59 -1.73494 3.30082 0
M  V30 17550 N 1668.77 -1.57515 -0.0517878 0
M  V30 17551 C 1670.19 -1.76755 -0.601218 0
M  V30 17552 C 1670.54 -0.849744 -1.76844 0
M  V30 17553 O 1669.66 -0.0387987 -2.16365 0
M  V30 17554 C 1670.26 -3.20534 -1.09743 0
M  V30 17555 C 1668.82 -3.41049 -1.59256 0
M  V30 17556 C 1667.96 -2.72369 -0.520618 0
M  V30 17557 H 1670.91 -1.57739 0.174429 0
M  V30 17558 H 1670.93 -3.25796 -1.96563 0
M  V30 17559 H 1670.45 -3.87309 -0.247696 0
M  V30 17560 H 1668.55 -2.79417 -2.46489 0
M  V30 17561 H 1668.66 -4.49581 -1.65572 0
M  V30 17562 H 1667.02 -2.3549 -0.97038 0
M  V30 17563 H 1667.81 -3.41812 0.319266 0
M  V30 17564 N 1670.25 0.323614 -1.54242 0
M  V30 17565 C 1671.67 0.66795 -1.4495 0
M  V30 17566 C 1671.87 1.91649 -0.622338 0
M  V30 17567 O 1670.93 2.52209 -0.121119 0
M  V30 17568 C 1672.24 0.842006 -2.88671 0
M  V30 17569 C 1673.79 0.93935 -2.98572 0
M  V30 17570 C 1674.26 1.14557 -4.43442 0
M  V30 17571 N 1675.75 1.21231 -4.47054 0
M  V30 17572 C 1676.49 1.38976 -5.56303 0
M  V30 17573 N 1675.98 1.53764 -6.75521 0
M  V30 17574 N 1677.78 1.41684 -5.4395 0
M  V30 17575 H 1669.93 -0.497017 -2.06503 0
M  V30 17576 H 1672.19 -0.160563 -0.934304 0
M  V30 17577 H 1671.9 -0.00418568 -3.517 0
M  V30 17578 H 1671.77 1.73785 -3.34782 0
M  V30 17579 H 1674.16 1.77605 -2.35671 0
M  V30 17580 H 1674.24 0.0199775 -2.55792 0
M  V30 17581 H 1673.88 0.313732 -5.0693 0
M  V30 17582 H 1673.81 2.07882 -4.83831 0
M  V30 17583 H 1676.3 1.11247 -3.61154 0
M  V30 17584 H 1676.62 1.66996 -7.54541 0
M  V30 17585 H 1674.96 1.50862 -6.78429 0
M  V30 17586 H 1678.15 1.29726 -4.49765 0
M  V30 17587 H 1678.33 1.5517 -6.29147 0
M  V30 17588 N 1671.73 1.46313 0.585673 0
M  V30 17589 C 1672.96 1.55273 1.37496 0
M  V30 17590 C 1673.38 0.193481 1.87102 0
M  V30 17591 O 1672.74 -0.825859 1.61398 0
M  V30 17592 C 1672.79 2.5591 2.54052 0
M  V30 17593 O 1671.89 2.09208 3.55395 0
M  V30 17594 H 1671.23 0.522614 0.409598 0
M  V30 17595 H 1673.76 1.9186 0.710697 0
M  V30 17596 H 1673.77 2.75424 3.01008 0
M  V30 17597 H 1672.45 3.54619 2.17298 0
M  V30 17598 H 1671.02 1.9967 3.14939 0
M  V30 17599 N 1673.21 -0.830057 1.33969 0
M  V30 17600 C 1674.12 -1.97244 1.27012 0
M  V30 17601 C 1675.14 -1.73076 0.179075 0
M  V30 17602 O 1676.31 -1.97301 0.404262 0
M  V30 17603 C 1673.38 -3.31409 1.01827 0
M  V30 17604 C 1672.44 -3.68633 2.20018 0
M  V30 17605 C 1671.67 -4.96397 1.96025 0
M  V30 17606 O 1671.89 -5.63014 0.91494 0
M  V30 17607 O 1670.83 -5.31331 2.82791 0
M  V30 17608 H 1674.65 -2.06056 2.23103 0
M  V30 17609 H 1672.24 -0.964399 1.14104 0
M  V30 17610 H 1674.12 -4.11779 0.895337 0
M  V30 17611 H 1672.8 -3.23581 0.0877091 0
M  V30 17612 H 1671.7 -2.88738 2.37869 0
M  V30 17613 H 1673.04 -3.81138 3.11439 0
M  V30 17614 N 1674.69 -1.17582 -1.04939 0
M  V30 17615 C 1675.6 -0.909588 -2.16249 0
M  V30 17616 C 1676.61 0.123166 -1.73564 0
M  V30 17617 O 1677.79 -0.0566976 -2.0132 0
M  V30 17618 C 1674.85 -0.429342 -3.44031 0
M  V30 17619 C 1673.92 -1.529 -4.01149 0
M  V30 17620 C 1673.15 -1.07157 -5.22832 0
M  V30 17621 O 1673.37 0.0732634 -5.70353 0
M  V30 17622 O 1672.31 -1.86567 -5.72255 0
M  V30 17623 H 1676.13 -1.84074 -2.41558 0
M  V30 17624 H 1673.72 -0.956914 -1.14732 0
M  V30 17625 H 1675.6 -0.16917 -4.2106 0
M  V30 17626 H 1674.27 0.473629 -3.20216 0
M  V30 17627 H 1673.18 -1.84308 -3.25548 0
M  V30 17628 H 1674.51 -2.40777 -4.29287 0
M  V30 17629 N 1676.17 1.23705 -0.976463 0
M  V30 17630 C 1677.1 2.2734 -0.532809 0
M  V30 17631 C 1678.08 1.64523 0.432012 0
M  V30 17632 O 1679.26 1.9144 0.326233 0
M  V30 17633 C 1676.39 3.46887 0.169374 0
M  V30 17634 C 1675.35 4.22031 -0.712336 0
M  V30 17635 C 1674.67 5.34561 0.121838 0
M  V30 17636 C 1675.97 4.8244 -2.00123 0
M  V30 17637 H 1677.67 2.64702 -1.39904 0
M  V30 17638 H 1675.21 1.27244 -0.674156 0
M  V30 17639 H 1677.16 4.18529 0.491028 0
M  V30 17640 H 1675.89 3.08574 1.07002 0
M  V30 17641 H 1674.55 3.522 -1.01739 0
M  V30 17642 H 1674.2 4.92489 1.0229 0
M  V30 17643 H 1673.9 5.85758 -0.464962 0
M  V30 17644 H 1675.42 6.09027 0.437963 0
M  V30 17645 H 1676.83 5.46111 -1.7446 0
M  V30 17646 H 1675.23 5.43906 -2.53548 0
M  V30 17647 H 1676.3 4.03405 -2.69059 0
M  V30 17648 N 1677.64 0.747635 1.38738 0
M  V30 17649 C 1678.87 0.310484 2.05063 0
M  V30 17650 C 1679.29 -1.05078 1.56013 0
M  V30 17651 O 1678.65 -1.66842 0.709461 0
M  V30 17652 C 1678.7 0.335837 3.59033 0
M  V30 17653 O 1677.8 -0.672218 4.06884 0
M  V30 17654 H 1677.14 0.138591 0.649375 0
M  V30 17655 H 1679.67 1.01709 1.77529 0
M  V30 17656 H 1679.68 0.184631 4.07582 0
M  V30 17657 H 1678.36 1.32906 3.94092 0
M  V30 17658 H 1676.94 -0.486112 3.69718 0
M  V30 17659 N 1679.12 -1.49583 0.496242 0
M  V30 17660 C 1680.07 -2.30677 -0.298474 0
M  V30 17661 C 1681.06 -1.39074 -0.967207 0
M  V30 17662 O 1682.27 -1.56147 -0.895439 0
M  V30 17663 H 1678.64 -0.743138 -0.11511 0
M  V30 17664 H 1680.62 -2.95632 0.405533 0
M  V30 17665 C 1679.36 -3.20297 -1.35297 0
M  V30 17666 H 1678.69 -3.90708 -0.847789 0
M  V30 17667 H 1680.13 -3.79987 -1.88111 0
M  V30 17668 C 1678.59 -2.39584 -2.36857 0
M  V30 17669 O 1679.12 -2.09662 -3.42644 0
M  V30 17670 N 1677.32 -2.01695 -2.09206 0
M  V30 17671 H 1676.87 -2.26229 -1.23201 0
M  V30 17672 H 1676.83 -1.47998 -2.77388 0
M  V30 17673 N 1680.6 -0.229873 -1.55915 0
M  V30 17674 C 1681.51 0.687953 -2.24286 0
M  V30 17675 C 1682.53 1.20705 -1.25325 0
M  V30 17676 O 1683.7 1.2469 -1.58159 0
M  V30 17677 C 1680.77 1.87563 -2.91584 0
M  V30 17678 C 1679.83 1.39769 -4.0591 0
M  V30 17679 C 1679.06 2.52876 -4.69989 0
M  V30 17680 O 1679.28 3.71208 -4.33083 0
M  V30 17681 O 1678.22 2.23603 -5.58825 0
M  V30 17682 H 1682.04 0.135464 -3.03398 0
M  V30 17683 H 1679.63 0.000925172 -1.494 0
M  V30 17684 H 1681.51 2.56907 -3.34031 0
M  V30 17685 H 1680.19 2.41606 -2.15426 0
M  V30 17686 H 1679.09 0.672029 -3.68014 0
M  V30 17687 H 1680.43 0.903543 -4.83836 0
M  V30 17688 N 1682.08 1.5754 0.0434337 0
M  V30 17689 C 1683.33 1.88235 0.735652 0
M  V30 17690 C 1683.65 0.825698 1.76656 0
M  V30 17691 O 1682.92 -0.142424 1.95382 0
M  V30 17692 H 1681.5 0.694661 0.274692 0
M  V30 17693 H 1684.16 1.94896 0.0127911 0
M  V30 17694 H 1683.25 2.86659 1.23421 0
M  V30 17695 N 1683.56 -0.31543 1.54411 0
M  V30 17696 C 1684.83 -1.07113 1.63665 0
M  V30 17697 C 1685.21 -2.05671 0.475688 0
M  V30 17698 O 1684.56 -2.22288 -0.52918 0
M  V30 17699 C 1684.77 -1.76584 3.0103 0
M  V30 17700 C 1686.12 -2.29309 3.57355 0
M  V30 17701 O 1687.14 -1.86638 3.03388 0
M  V30 17702 O 1686 -3.07452 4.51814 0
M  V30 17703 H 1683.1 -0.494217 0.663083 0
M  V30 17704 H 1685.64 -0.31467 1.66757 0
M  V30 17705 H 1684.41 -1.0494 3.76966 0
M  V30 17706 H 1684.04 -2.5902 3.01653 0
M  V30 17707 N 1685.03 -1.46622 -0.577906 0
M  V30 17708 C 1686.26 -1.56 -1.36671 0
M  V30 17709 C 1686.68 -0.2034 -1.86997 0
M  V30 17710 O 1686.04 0.817288 -1.61834 0
M  V30 17711 C 1686.09 -2.57254 -2.52691 0
M  V30 17712 O 1685.19 -2.1109 -3.54281 0
M  V30 17713 H 1684.54 -0.524779 -0.406821 0
M  V30 17714 H 1687.07 -1.92234 -0.700512 0
M  V30 17715 H 1687.08 -2.77016 -2.99543 0
M  V30 17716 H 1685.75 -3.55766 -2.15415 0
M  V30 17717 H 1684.33 -2.01337 -3.13875 0
M  V30 17718 N 1686.51 0.822941 -1.34408 0
M  V30 17719 C 1687.44 1.94142 -1.21826 0
M  V30 17720 C 1688.46 1.6215 -0.145353 0
M  V30 17721 O 1689.65 1.74025 -0.397205 0
M  V30 17722 C 1686.75 3.28077 -0.849619 0
M  V30 17723 C 1685.92 3.88092 -2.0175 0
M  V30 17724 C 1684.98 5.00406 -1.62726 0
M  V30 17725 O 1684 5.18703 -2.34383 0
M  V30 17726 N 1685.21 5.7797 -0.541413 0
M  V30 17727 H 1687.97 2.05467 -2.18182 0
M  V30 17728 H 1685.53 0.999521 -1.27362 0
M  V30 17729 H 1687.52 4.00661 -0.57035 0
M  V30 17730 H 1686.09 3.12591 0.0237499 0
M  V30 17731 H 1685.31 3.07902 -2.46151 0
M  V30 17732 H 1686.6 4.24921 -2.79856 0
M  V30 17733 H 1686 5.65674 0.0542929 0
M  V30 17734 H 1684.56 6.51005 -0.321874 0
M  V30 17735 N 1687.99 1.18137 1.04314 0
M  V30 17736 C 1688.92 0.863879 2.12296 0
M  V30 17737 C 1689.94 -0.137469 1.62219 0
M  V30 17738 O 1691.12 0.0900306 1.78273 0
M  V30 17739 C 1688.22 0.269002 3.37831 0
M  V30 17740 C 1687.4 1.3154 4.17152 0
M  V30 17741 C 1686.46 0.736666 5.21018 0
M  V30 17742 O 1685.48 1.41075 5.5144 0
M  V30 17743 N 1686.68 -0.467037 5.78618 0
M  V30 17744 H 1689.45 1.7933 2.40127 0
M  V30 17745 H 1687.01 1.08142 1.20486 0
M  V30 17746 H 1689 -0.131671 4.04486 0
M  V30 17747 H 1687.57 -0.564386 3.07463 0
M  V30 17748 H 1686.79 1.89148 3.45856 0
M  V30 17749 H 1688.08 2.02093 4.66943 0
M  V30 17750 H 1687.48 -1.03247 5.56198 0
M  V30 17751 H 1686.04 -0.809663 6.46752 0
M  V30 17752 N 1689.47 -1.23186 0.98301 0
M  V30 17753 C 1690.69 -1.96242 0.671114 0
M  V30 17754 C 1691.12 -1.72248 -0.755792 0
M  V30 17755 O 1690.48 -0.995555 -1.5152 0
M  V30 17756 C 1690.52 -3.47293 0.970571 0
M  V30 17757 O 1689.63 -4.1235 0.0639814 0
M  V30 17758 H 1688.97 -0.614262 0.252147 0
M  V30 17759 H 1691.5 -1.56551 1.31731 0
M  V30 17760 H 1691.51 -3.9776 0.908345 0
M  V30 17761 H 1690.18 -3.64083 2.01039 0
M  V30 17762 H 1688.76 -3.72461 0.180842 0
M  V30 17763 N 1690.95 -0.754982 -1.38339 0
M  V30 17764 C 1692.36 -0.379276 -1.82807 0
M  V30 17765 C 1692.71 1.09228 -1.62984 0
M  V30 17766 O 1691.83 1.84445 -1.13177 0
M  V30 17767 C 1692.43 -0.681628 -3.31872 0
M  V30 17768 C 1690.99 -0.359183 -3.74682 0
M  V30 17769 C 1690.13 -0.93409 -2.61094 0
M  V30 17770 H 1693.09 -0.951019 -1.27048 0
M  V30 17771 H 1693.11 0.0396803 -3.80479 0
M  V30 17772 H 1692.62 -1.75271 -3.46268 0
M  V30 17773 H 1690.72 0.705257 -3.65865 0
M  V30 17774 H 1690.83 -0.85571 -4.71396 0
M  V30 17775 H 1689.2 -0.359379 -2.52152 0
M  V30 17776 H 1689.98 -2.01023 -2.78289 0
M  V30 17777 N 1692.42 1.49318 -0.504168 0
M  V30 17778 C 1693.67 2.02062 0.039149 0
M  V30 17779 C 1693.99 1.38577 1.37191 0
M  V30 17780 O 1693.26 0.542179 1.88248 0
M  V30 17781 H 1691.84 0.746796 0.0174575 0
M  V30 17782 H 1694.51 1.83308 -0.66213 0
M  V30 17783 H 1693.6 3.11656 0.166496 0
M  V30 17784 N 1693.9 0.238138 1.5579 0
M  V30 17785 C 1694.83 -0.697701 2.18323 0
M  V30 17786 C 1695.85 -1.1453 1.15701 0
M  V30 17787 O 1697.04 -1.07359 1.42605 0
M  V30 17788 C 1694.14 -1.95895 2.76547 0
M  V30 17789 C 1693.31 -1.66422 4.04503 0
M  V30 17790 C 1692.37 -2.77419 4.4713 0
M  V30 17791 O 1691.39 -2.45179 5.13689 0
M  V30 17792 N 1692.6 -4.06731 4.14187 0
M  V30 17793 H 1695.36 -0.162705 2.99258 0
M  V30 17794 H 1692.92 0.0577602 1.61797 0
M  V30 17795 H 1694.91 -2.69374 3.02026 0
M  V30 17796 H 1693.48 -2.40398 1.99819 0
M  V30 17797 H 1692.7 -0.76505 3.86705 0
M  V30 17798 H 1693.99 -1.44183 4.87943 0
M  V30 17799 H 1693.39 -4.3576 3.60735 0
M  V30 17800 H 1691.95 -4.76701 4.44521 0
M  V30 17801 N 1695.38 -1.57561 -0.0350783 0
M  V30 17802 C 1696.31 -2.02953 -1.06502 0
M  V30 17803 C 1697.33 -0.941331 -1.32826 0
M  V30 17804 O 1698.51 -1.21873 -1.30419 0
M  V30 17805 C 1695.61 -2.38471 -2.40801 0
M  V30 17806 C 1694.79 -3.69596 -2.33917 0
M  V30 17807 C 1693.85 -3.9237 -3.50616 0
M  V30 17808 O 1692.87 -4.63504 -3.30382 0
M  V30 17809 N 1694.07 -3.37544 -4.72275 0
M  V30 17810 H 1696.84 -2.91926 -0.678169 0
M  V30 17811 H 1694.4 -1.60355 -0.22313 0
M  V30 17812 H 1696.39 -2.50849 -3.1758 0
M  V30 17813 H 1694.96 -1.55199 -2.71352 0
M  V30 17814 H 1694.18 -3.67629 -1.42277 0
M  V30 17815 H 1695.47 -4.55627 -2.26455 0
M  V30 17816 H 1694.87 -2.79875 -4.91616 0
M  V30 17817 H 1693.43 -3.55312 -5.4644 0
M  V30 17818 N 1696.86 0.307236 -1.54576 0
M  V30 17819 C 1698.08 1.06668 -1.77867 0
M  V30 17820 C 1698.51 1.80375 -0.533536 0
M  V30 17821 O 1697.87 1.73812 0.515663 0
M  V30 17822 C 1697.91 2.02777 -2.98184 0
M  V30 17823 O 1697.02 3.10969 -2.70872 0
M  V30 17824 H 1696.36 0.306741 -0.588902 0
M  V30 17825 H 1698.89 0.346557 -2.01644 0
M  V30 17826 H 1698.9 2.45355 -3.25983 0
M  V30 17827 H 1697.57 1.48534 -3.88472 0
M  V30 17828 H 1696.15 2.7295 -2.54072 0
M  V30 17829 N 1698.34 1.46926 0.570122 0
M  V30 17830 C 1699.75 1.469 1.15227 0
M  V30 17831 C 1700.1 0.216651 1.95 0
M  V30 17832 O 1699.22 -0.679388 2.05459 0
M  V30 17833 C 1699.82 2.66158 2.09632 0
M  V30 17834 C 1698.38 2.69133 2.63144 0
M  V30 17835 C 1697.52 2.39795 1.39262 0
M  V30 17836 H 1700.48 1.54623 0.35739 0
M  V30 17837 H 1700.5 2.42393 2.93302 0
M  V30 17838 H 1700.01 3.5729 1.51543 0
M  V30 17839 H 1698.11 1.82106 3.25066 0
M  V30 17840 H 1698.22 3.69459 3.05019 0
M  V30 17841 H 1696.59 1.9011 1.695 0
M  V30 17842 H 1697.37 3.33119 0.829855 0
M  V30 17843 N 1699.82 -0.815801 1.34842 0
M  V30 17844 C 1700.75 -1.94193 1.29659 0
M  V30 17845 C 1701.73 -1.69221 0.172703 0
M  V30 17846 O 1702.91 -1.90716 0.366203 0
M  V30 17847 C 1700.04 -3.30777 1.0585 0
M  V30 17848 C 1699 -3.70207 2.1478 0
M  V30 17849 C 1698.32 -5.04852 1.76149 0
M  V30 17850 C 1699.62 -3.81553 3.56671 0
M  V30 17851 H 1701.32 -1.98787 2.23884 0
M  V30 17852 H 1698.86 -0.955013 1.07775 0
M  V30 17853 H 1700.81 -4.0915 1.00866 0
M  V30 17854 H 1699.54 -3.265 0.0806804 0
M  V30 17855 H 1698.2 -2.94113 2.18845 0
M  V30 17856 H 1697.85 -4.9707 0.770099 0
M  V30 17857 H 1697.55 -5.32205 2.49062 0
M  V30 17858 H 1699.07 -5.85676 1.72674 0
M  V30 17859 H 1700.48 -4.50181 3.54979 0
M  V30 17860 H 1698.88 -4.20367 4.28266 0
M  V30 17861 H 1699.95 -2.83356 3.93494 0
M  V30 17862 N 1701.29 -1.18689 -1.03686 0
M  V30 17863 C 1702.7 -0.988182 -1.58404 0
M  V30 17864 C 1703.06 0.461107 -1.90705 0
M  V30 17865 O 1702.18 1.33912 -1.6999 0
M  V30 17866 C 1702.78 -1.78748 -2.8781 0
M  V30 17867 C 1701.33 -1.63301 -3.39131 0
M  V30 17868 C 1700.48 -1.77954 -2.12668 0
M  V30 17869 H 1703.43 -1.33177 -0.863112 0
M  V30 17870 H 1703.45 -1.27882 -3.58366 0
M  V30 17871 H 1702.97 -2.84224 -2.6427 0
M  V30 17872 H 1701.07 -0.603777 -3.67676 0
M  V30 17873 H 1701.18 -2.43342 -4.127 0
M  V30 17874 H 1699.54 -1.20937 -2.24157 0
M  V30 17875 H 1700.33 -2.84873 -1.91579 0
M  V30 17876 N 1702.77 1.22662 -0.989529 0
M  V30 17877 C 1704.02 1.91605 -0.66448 0
M  V30 17878 C 1704.35 1.76909 0.801048 0
M  V30 17879 O 1703.63 1.13583 1.5789 0
M  V30 17880 C 1703.91 3.43929 -1.06698 0
M  V30 17881 C 1703.76 3.67691 -2.59082 0
M  V30 17882 C 1705.08 4.35744 -0.617695 0
M  V30 17883 H 1702.2 0.695832 -0.242872 0
M  V30 17884 H 1704.84 1.44605 -1.23245 0
M  V30 17885 H 1702.99 3.8409 -0.58371 0
M  V30 17886 H 1704.66 3.36956 -3.15053 0
M  V30 17887 H 1702.91 3.12088 -3.01303 0
M  V30 17888 H 1703.58 4.74356 -2.82295 0
M  V30 17889 H 1706.05 4.0308 -1.03275 0
M  V30 17890 H 1704.93 5.41004 -0.927659 0
M  V30 17891 H 1705.19 4.39468 0.481734 0
M  V30 17892 N 1704.25 0.762308 1.37937 0
M  V30 17893 C 1705.16 0.142724 2.34165 0
M  V30 17894 C 1706.18 -0.690588 1.59709 0
M  V30 17895 O 1707.35 -0.61271 1.91854 0
M  V30 17896 C 1704.42 -0.733325 3.38856 0
M  V30 17897 C 1703.48 0.115359 4.29145 0
M  V30 17898 C 1702.71 -0.718972 5.28835 0
M  V30 17899 O 1702.93 -1.95656 5.35794 0
M  V30 17900 O 1701.87 -0.133162 6.01753 0
M  V30 17901 H 1705.69 0.937662 2.88863 0
M  V30 17902 H 1703.28 0.523325 1.39935 0
M  V30 17903 H 1705.16 -1.23374 4.02935 0
M  V30 17904 H 1703.84 -1.50661 2.86501 0
M  V30 17905 H 1702.74 0.661926 3.68197 0
M  V30 17906 H 1704.08 0.851505 4.84779 0
M  V30 17907 N 1705.73 -1.49049 0.51208 0
M  V30 17908 C 1707.14 -1.86579 0.0670687 0
M  V30 17909 C 1707.49 -1.42339 -1.35034 0
M  V30 17910 O 1706.61 -0.806142 -2.00824 0
M  V30 17911 C 1707.21 -3.38605 0.114936 0
M  V30 17912 C 1705.77 -3.75396 -0.274787 0
M  V30 17913 C 1704.92 -2.73068 0.482613 0
M  V30 17914 H 1707.87 -1.41208 0.724287 0
M  V30 17915 H 1707.89 -3.74416 -0.677722 0
M  V30 17916 H 1707.4 -3.70774 1.14666 0
M  V30 17917 H 1705.5 -3.48837 -1.30933 0
M  V30 17918 H 1705.61 -4.79071 0.0523691 0
M  V30 17919 H 1703.98 -2.54607 -0.0689364 0
M  V30 17920 H 1704.76 -3.08081 1.51463 0
M  V30 17921 N 1707.21 -0.246397 -1.55662 0
M  V30 17922 C 1708.12 0.664125 -2.25003 0
M  V30 17923 C 1709.13 1.19368 -1.26598 0
M  V30 17924 O 1710.31 1.23006 -1.59473 0
M  V30 17925 C 1707.37 1.8446 -2.93557 0
M  V30 17926 C 1706.43 1.35456 -4.0737 0
M  V30 17927 C 1705.67 2.47877 -4.72645 0
M  V30 17928 O 1705.89 3.66594 -4.36995 0
M  V30 17929 O 1704.82 2.17663 -5.61165 0
M  V30 17930 H 1708.65 0.103277 -3.03524 0
M  V30 17931 H 1706.23 -0.0149207 -1.49393 0
M  V30 17932 H 1708.12 2.53349 -3.36737 0
M  V30 17933 H 1706.79 2.39308 -2.17976 0
M  V30 17934 H 1705.7 0.632958 -3.68706 0
M  V30 17935 H 1707.03 0.852175 -4.84767 0
M  V30 17936 N 1708.68 1.57577 0.026722 0
M  V30 17937 C 1709.62 2.03515 1.05424 0
M  V30 17938 C 1710.63 0.948362 1.32325 0
M  V30 17939 O 1711.82 1.22563 1.29771 0
M  V30 17940 C 1708.92 2.39744 2.39533 0
M  V30 17941 C 1708.09 3.70832 2.31954 0
M  V30 17942 C 1707.15 3.94224 3.48531 0
M  V30 17943 O 1706.18 4.6525 3.27919 0
M  V30 17944 N 1707.38 3.40044 4.70479 0
M  V30 17945 H 1710.14 2.92282 0.662678 0
M  V30 17946 H 1707.7 1.60471 0.214623 0
M  V30 17947 H 1709.7 2.52529 3.16245 0
M  V30 17948 H 1708.27 1.56636 2.70525 0
M  V30 17949 H 1707.49 3.68378 1.40325 0
M  V30 17950 H 1708.77 4.56821 2.24035 0
M  V30 17951 H 1708.17 2.82478 4.90125 0
M  V30 17952 H 1706.73 3.58205 5.44548 0
M  V30 17953 N 1710.16 -0.299034 1.54737 0
M  V30 17954 C 1711.41 -1.03195 1.73767 0
M  V30 17955 C 1711.73 -1.87731 0.527445 0
M  V30 17956 O 1711 -1.90465 -0.458242 0
M  V30 17957 H 1709.58 -0.383996 0.640747 0
M  V30 17958 H 1712.24 -0.329544 1.92094 0
M  V30 17959 H 1711.34 -1.68393 2.62774 0
M  V30 17960 N 1711.64 -1.47227 -0.562322 0
M  V30 17961 C 1713.05 -1.47509 -1.14446 0
M  V30 17962 C 1713.4 -0.22699 -1.94883 0
M  V30 17963 O 1712.53 0.668483 -2.05816 0
M  V30 17964 C 1713.12 -2.67266 -2.08217 0
M  V30 17965 C 1711.68 -2.70524 -2.61713 0
M  V30 17966 C 1710.83 -2.4053 -1.37988 0
M  V30 17967 H 1713.78 -1.54811 -0.349185 0
M  V30 17968 H 1713.8 -2.43945 -2.92012 0
M  V30 17969 H 1713.31 -3.58089 -1.49646 0
M  V30 17970 H 1711.41 -1.83827 -3.24096 0
M  V30 17971 H 1711.53 -3.71072 -3.03056 0
M  V30 17972 H 1709.89 -1.91007 -1.68489 0
M  V30 17973 H 1710.67 -3.33554 -0.812177 0
M  V30 17974 N 1713.12 0.808639 -1.35273 0
M  V30 17975 C 1714.08 1.90195 -1.279 0
M  V30 17976 C 1715.08 1.59663 -0.190915 0
M  V30 17977 O 1716.27 1.68434 -0.444482 0
M  V30 17978 C 1713.4 3.26567 -0.978106 0
M  V30 17979 H 1714.6 1.98152 -2.25113 0
M  V30 17980 H 1712.15 1.00426 -1.19767 0
M  V30 17981 H 1712.88 3.24299 -0.00975789 0
M  V30 17982 H 1712.67 3.50114 -1.7653 0
M  V30 17983 H 1714.16 4.06602 -0.95207 0
M  V30 17984 N 1714.6 1.19237 1.03055 0
M  V30 17985 C 1716.01 0.996569 1.57878 0
M  V30 17986 C 1716.36 -0.450987 1.90946 0
M  V30 17987 O 1715.48 -1.33009 1.70697 0
M  V30 17988 C 1716.08 1.80272 2.86858 0
M  V30 17989 C 1714.64 1.65097 3.3826 0
M  V30 17990 C 1713.78 1.79079 2.11721 0
M  V30 17991 H 1716.74 1.33633 0.856037 0
M  V30 17992 H 1716.76 1.29781 3.57683 0
M  V30 17993 H 1716.27 2.85621 2.62759 0
M  V30 17994 H 1714.37 0.623267 3.6735 0
M  V30 17995 H 1714.48 2.45527 4.11404 0
M  V30 17996 H 1712.85 1.22124 2.23512 0
M  V30 17997 H 1713.63 2.85885 1.90065 0
M  V30 17998 N 1716.07 -1.22136 0.99602 0
M  V30 17999 C 1717 -2.26463 0.568909 0
M  V30 18000 C 1717.99 -1.65189 -0.405783 0
M  V30 18001 O 1719.17 -1.91935 -0.295735 0
M  V30 18002 C 1716.3 -3.47112 -0.114166 0
M  V30 18003 C 1715.25 -4.20844 0.779387 0
M  V30 18004 C 1714.58 -5.34687 -0.0367787 0
M  V30 18005 C 1715.88 -4.79195 2.07773 0
M  V30 18006 H 1717.57 -2.62443 1.44097 0
M  V30 18007 H 1715.12 -1.26156 0.694314 0
M  V30 18008 H 1717.07 -4.19258 -0.424381 0
M  V30 18009 H 1715.8 -3.10238 -1.02079 0
M  V30 18010 H 1714.46 -3.50537 1.07329 0
M  V30 18011 H 1714.1 -4.94054 -0.94442 0
M  V30 18012 H 1713.8 -5.84944 0.558092 0
M  V30 18013 H 1715.33 -6.09647 -0.341016 0
M  V30 18014 H 1716.74 -5.43266 1.83126 0
M  V30 18015 H 1715.14 -5.39803 2.62169 0
M  V30 18016 H 1716.21 -3.99073 2.75442 0
M  V30 18017 N 1717.55 -0.769612 -1.37531 0
M  V30 18018 C 1718.49 -0.100781 -2.27977 0
M  V30 18019 C 1719.46 0.711383 -1.46213 0
M  V30 18020 O 1720.65 0.686602 -1.75551 0
M  V30 18021 C 1717.77 0.863601 -3.27505 0
M  V30 18022 C 1716.82 0.135698 -4.26284 0
M  V30 18023 S 1717.65 -1.17477 -5.22455 0
M  V30 18024 C 1718.81 -0.213878 -6.25534 0
M  V30 18025 H 1719.04 -0.86772 -2.84355 0
M  V30 18026 H 1716.58 -0.562906 -1.43773 0
M  V30 18027 H 1718.53 1.41462 -3.85355 0
M  V30 18028 H 1717.19 1.60363 -2.70079 0
M  V30 18029 H 1716.39 0.866694 -4.96492 0
M  V30 18030 H 1715.99 -0.344257 -3.72412 0
M  V30 18031 H 1718.28 0.614474 -6.74708 0
M  V30 18032 H 1719.22 -0.884072 -7.02559 0
M  V30 18033 H 1719.63 0.173963 -5.64232 0
M  V30 18034 N 1719.03 1.48775 -0.519977 0
M  V30 18035 C 1720.28 2.02792 0.0177768 0
M  V30 18036 C 1720.61 1.3972 1.34878 0
M  V30 18037 O 1719.88 0.539438 1.8687 0
M  V30 18038 C 1720.17 3.59786 0.150355 0
M  V30 18039 C 1720.02 4.33356 -1.20511 0
M  V30 18040 C 1721.34 4.31172 0.881959 0
M  V30 18041 H 1718.46 0.736983 0.00498634 0
M  V30 18042 H 1721.1 1.77603 -0.675069 0
M  V30 18043 H 1719.25 3.81378 0.740452 0
M  V30 18044 H 1720.92 4.23209 -1.83554 0
M  V30 18045 H 1719.17 3.95167 -1.78957 0
M  V30 18046 H 1719.84 5.4162 -1.06544 0
M  V30 18047 H 1722.31 4.14349 0.381302 0
M  V30 18048 H 1721.19 5.40729 0.943601 0
M  V30 18049 H 1721.45 3.97747 1.93001 0
M  V30 18050 N 1720.51 0.254649 1.55529 0
M  V30 18051 C 1721.44 -0.674506 2.1905 0
M  V30 18052 C 1722.45 -1.13297 1.16909 0
M  V30 18053 O 1723.64 -1.0584 1.43736 0
M  V30 18054 C 1720.74 -1.92951 2.78609 0
M  V30 18055 C 1719.92 -1.62123 4.06245 0
M  V30 18056 C 1718.97 -2.72661 4.50047 0
M  V30 18057 O 1718 -2.39717 5.1626 0
M  V30 18058 N 1719.2 -4.02315 4.18477 0
M  V30 18059 H 1721.97 -0.130956 2.99414 0
M  V30 18060 H 1719.53 0.0749176 1.61727 0
M  V30 18061 H 1721.52 -2.66155 3.04866 0
M  V30 18062 H 1720.09 -2.38265 2.02358 0
M  V30 18063 H 1719.31 -0.723991 3.87495 0
M  V30 18064 H 1720.6 -1.39 4.89445 0
M  V30 18065 H 1720 -4.3191 3.65336 0
M  V30 18066 H 1718.55 -4.7196 4.49552 0
M  V30 18067 N 1721.99 -1.57589 -0.0183649 0
M  V30 18068 C 1722.92 -2.1029 -1.01492 0
M  V30 18069 C 1723.9 -1.00782 -1.37029 0
M  V30 18070 O 1725.08 -1.28365 -1.45726 0
M  V30 18071 C 1722.21 -2.59111 -2.31255 0
M  V30 18072 C 1721.17 -3.72979 -2.0993 0
M  V30 18073 C 1720.49 -4.08046 -3.45547 0
M  V30 18074 C 1721.79 -5.00988 -1.47677 0
M  V30 18075 H 1723.49 -2.93804 -0.57618 0
M  V30 18076 H 1721.03 -1.41336 -0.275708 0
M  V30 18077 H 1722.99 -2.94602 -3.0131 0
M  V30 18078 H 1721.71 -1.72694 -2.77208 0
M  V30 18079 H 1720.37 -3.37853 -1.42306 0
M  V30 18080 H 1720.02 -3.1868 -3.89169 0
M  V30 18081 H 1719.72 -4.8475 -3.32101 0
M  V30 18082 H 1721.24 -4.46081 -4.16947 0
M  V30 18083 H 1722.65 -5.34368 -2.07663 0
M  V30 18084 H 1721.05 -5.82375 -1.44774 0
M  V30 18085 H 1722.12 -4.82865 -0.443804 0
M  V30 18086 N 1723.46 0.290824 -1.54893 0
M  V30 18087 C 1724.69 1.04775 -1.78988 0
M  V30 18088 C 1725.11 1.79799 -0.552637 0
M  V30 18089 O 1724.47 1.74349 0.497199 0
M  V30 18090 C 1724.52 1.99603 -3.00318 0
M  V30 18091 O 1723.62 3.08079 -2.74155 0
M  V30 18092 H 1722.97 0.300478 -0.592123 0
M  V30 18093 H 1725.5 0.325151 -2.02 0
M  V30 18094 H 1725.51 2.41884 -3.28567 0
M  V30 18095 H 1724.18 1.44406 -3.90025 0
M  V30 18096 H 1722.76 2.7024 -2.56953 0
M  V30 18097 N 1724.94 1.47523 0.554506 0
M  V30 18098 C 1725.87 1.63093 1.67102 0
M  V30 18099 C 1726.85 0.480298 1.63178 0
M  V30 18100 O 1728.04 0.709956 1.80757 0
M  V30 18101 C 1725.17 1.64751 3.05736 0
M  V30 18102 C 1724.12 2.79068 3.24507 0
M  V30 18103 C 1723.45 2.65801 4.63955 0
M  V30 18104 C 1724.75 4.20631 3.09623 0
M  V30 18105 H 1726.44 2.56561 1.54328 0
M  V30 18106 H 1723.99 1.2347 0.741023 0
M  V30 18107 H 1725.94 1.74234 3.83693 0
M  V30 18108 H 1724.67 0.678453 3.19475 0
M  V30 18109 H 1723.32 2.691 2.48959 0
M  V30 18110 H 1722.97 1.66917 4.74497 0
M  V30 18111 H 1722.67 3.42494 4.77464 0
M  V30 18112 H 1724.2 2.77216 5.44044 0
M  V30 18113 H 1725.61 4.31562 3.77396 0
M  V30 18114 H 1724.01 4.98133 3.3464 0
M  V30 18115 H 1725.08 4.38809 2.06336 0
M  V30 18116 N 1726.42 -0.801453 1.357 0
M  V30 18117 C 1727.35 -1.92807 1.31711 0
M  V30 18118 C 1728.33 -1.69028 0.190642 0
M  V30 18119 O 1729.52 -1.90317 0.38641 0
M  V30 18120 C 1726.65 -3.29635 1.09352 0
M  V30 18121 C 1725.6 -3.67908 2.18695 0
M  V30 18122 C 1724.93 -5.02955 1.81494 0
M  V30 18123 C 1726.23 -3.77749 3.60698 0
M  V30 18124 H 1727.92 -1.96401 2.2598 0
M  V30 18125 H 1725.47 -0.943528 1.08782 0
M  V30 18126 H 1727.42 -4.08058 1.052 0
M  V30 18127 H 1726.14 -3.26396 0.115306 0
M  V30 18128 H 1724.8 -2.91775 2.21952 0
M  V30 18129 H 1724.45 -4.96225 0.822776 0
M  V30 18130 H 1724.15 -5.29533 2.54692 0
M  V30 18131 H 1725.67 -5.83811 1.78876 0
M  V30 18132 H 1727.09 -4.4639 3.59734 0
M  V30 18133 H 1725.49 -4.15801 4.327 0
M  V30 18134 H 1726.56 -2.79167 3.96477 0
M  V30 18135 N 1727.9 -1.19782 -1.02421 0
M  V30 18136 C 1729.31 -0.951034 -1.2817 0
M  V30 18137 C 1729.51 0.373883 -1.98001 0
M  V30 18138 O 1728.57 1.10427 -2.27073 0
M  V30 18139 C 1729.88 -2.12833 -2.12421 0
M  V30 18140 C 1731.43 -2.16847 -2.25713 0
M  V30 18141 C 1731.91 -3.34041 -3.13337 0
M  V30 18142 N 1733.4 -3.34007 -3.20926 0
M  V30 18143 C 1734.13 -4.21333 -3.88929 0
M  V30 18144 N 1733.63 -5.18823 -4.59123 0
M  V30 18145 N 1735.42 -4.09197 -3.85376 0
M  V30 18146 H 1727.57 -2.05017 -0.555122 0
M  V30 18147 H 1729.84 -0.896717 -0.307576 0
M  V30 18148 H 1729.54 -3.08742 -1.68437 0
M  V30 18149 H 1729.42 -2.10288 -3.13143 0
M  V30 18150 H 1731.8 -1.21506 -2.68924 0
M  V30 18151 H 1731.88 -2.23444 -1.24525 0
M  V30 18152 H 1731.53 -4.29665 -2.70833 0
M  V30 18153 H 1731.46 -3.24682 -4.14595 0
M  V30 18154 H 1733.95 -2.63441 -2.70938 0
M  V30 18155 H 1734.26 -5.81796 -5.08658 0
M  V30 18156 H 1732.61 -5.22767 -4.57973 0
M  V30 18157 H 1735.8 -3.32308 -3.2968 0
M  V30 18158 H 1735.97 -4.77465 -4.38099 0
M  V30 18159 N 1729.38 1.21606 -1.00248 0
M  V30 18160 C 1730.34 2.22107 -0.565772 0
M  V30 18161 C 1731.34 1.56798 0.356521 0
M  V30 18162 O 1732.53 1.73577 0.147154 0
M  V30 18163 C 1729.66 3.40447 0.175742 0
M  V30 18164 H 1730.86 2.62258 -1.45468 0
M  V30 18165 H 1728.41 1.34823 -0.790721 0
M  V30 18166 H 1729.14 3.05781 1.0802 0
M  V30 18167 H 1728.93 3.89069 -0.486612 0
M  V30 18168 H 1730.42 4.14957 0.469122 0
M  V30 18169 N 1730.86 0.776895 1.37121 0
M  V30 18170 C 1731.77 0.167552 2.34001 0
M  V30 18171 C 1732.78 -0.673609 1.60432 0
M  V30 18172 O 1733.96 -0.592327 1.92493 0
M  V30 18173 C 1731.02 -0.697343 3.39615 0
M  V30 18174 C 1730.08 0.160869 4.28998 0
M  V30 18175 C 1729.32 -0.662841 5.29568 0
M  V30 18176 O 1729.54 -1.89962 5.37839 0
M  V30 18177 O 1728.47 -0.0693304 6.0186 0
M  V30 18178 H 1732.3 0.968247 2.87852 0
M  V30 18179 H 1729.88 0.538137 1.39372 0
M  V30 18180 H 1731.77 -1.19094 4.04221 0
M  V30 18181 H 1730.44 -1.47614 2.88083 0
M  V30 18182 H 1729.35 0.700941 3.67475 0
M  V30 18183 H 1730.68 0.902875 4.83848 0
M  V30 18184 N 1732.33 -1.48497 0.527859 0
M  V30 18185 C 1733.56 -2.069 -0.00302594 0
M  V30 18186 C 1733.98 -1.38469 -1.28342 0
M  V30 18187 O 1733.33 -0.471524 -1.76303 0
M  V30 18188 C 1733.38 -3.60749 -0.232871 0
M  V30 18189 O 1733.11 -4.26609 0.996797 0
M  V30 18190 C 1734.61 -4.35941 -0.804376 0
M  V30 18191 H 1731.83 -0.67021 0.0325559 0
M  V30 18192 H 1734.37 -1.90916 0.732897 0
M  V30 18193 H 1732.53 -3.76346 -0.918837 0
M  V30 18194 H 1732.94 -5.18725 0.776217 0
M  V30 18195 H 1734.41 -5.4437 -0.914635 0
M  V30 18196 H 1734.89 -4.00225 -1.80876 0
M  V30 18197 H 1735.5 -4.25017 -0.155041 0
M  V30 18198 N 1733.81 -0.262893 -1.55392 0
M  V30 18199 C 1735.09 0.408525 -1.91286 0
M  V30 18200 C 1735.47 1.74657 -1.18566 0
M  V30 18201 O 1734.82 2.26409 -0.308422 0
M  V30 18202 C 1735.03 0.560865 -3.44464 0
M  V30 18203 C 1736.37 0.849401 -4.16017 0
M  V30 18204 O 1737.4 0.646134 -3.50291 0
M  V30 18205 O 1736.26 1.23741 -5.32307 0
M  V30 18206 H 1733.35 0.221707 -0.796728 0
M  V30 18207 H 1735.9 -0.308143 -1.66879 0
M  V30 18208 H 1734.67 -0.381279 -3.89438 0
M  V30 18209 H 1734.29 1.32747 -3.74785 0
M  V30 18210 N 1735.29 1.57597 0.0100073 0
M  V30 18211 C 1736.71 1.55348 0.365949 0
M  V30 18212 C 1736.91 0.991487 1.75419 0
M  V30 18213 O 1735.96 0.620894 2.44747 0
M  V30 18214 C 1737.27 2.99656 0.250343 0
M  V30 18215 C 1738.82 3.11297 0.326023 0
M  V30 18216 C 1739.3 4.57373 0.239653 0
M  V30 18217 N 1740.79 4.62241 0.297863 0
M  V30 18218 C 1741.52 5.72836 0.254219 0
M  V30 18219 N 1741.02 6.92611 0.161753 0
M  V30 18220 N 1742.81 5.6127 0.30535 0
M  V30 18221 H 1734.96 1.92471 -0.898253 0
M  V30 18222 H 1737.23 0.883623 -0.343386 0
M  V30 18223 H 1736.93 3.44574 -0.704407 0
M  V30 18224 H 1736.81 3.62682 1.03643 0
M  V30 18225 H 1739.19 2.66316 1.27121 0
M  V30 18226 H 1739.27 2.51068 -0.489756 0
M  V30 18227 H 1738.92 5.03026 -0.70195 0
M  V30 18228 H 1738.85 5.15536 1.07379 0
M  V30 18229 H 1741.34 3.76074 0.371065 0
M  V30 18230 H 1741.65 7.72684 0.134073 0
M  V30 18231 H 1740 6.94883 0.127524 0
M  V30 18232 H 1743.19 4.6659 0.375713 0
M  V30 18233 H 1743.36 6.47446 0.267871 0
M  V30 18234 N 1736.77 -0.282606 1.55045 0
M  V30 18235 C 1737.7 -1.35347 1.90272 0
M  V30 18236 C 1738.68 -1.52001 0.763532 0
M  V30 18237 O 1739.86 -1.65204 1.02085 0
M  V30 18238 C 1736.99 -2.71464 2.16621 0
M  V30 18239 C 1735.95 -2.69554 3.32453 0
M  V30 18240 C 1735.27 -4.09132 3.4426 0
M  V30 18241 C 1736.57 -2.29669 4.69094 0
M  V30 18242 H 1738.27 -1.06113 2.79965 0
M  V30 18243 H 1735.81 -0.509018 1.34703 0
M  V30 18244 H 1737.77 -3.46482 2.39851 0
M  V30 18245 H 1736.49 -3.02261 1.23717 0
M  V30 18246 H 1735.15 -1.96993 3.09175 0
M  V30 18247 H 1734.8 -4.37136 2.4884 0
M  V30 18248 H 1734.5 -4.08751 4.22133 0
M  V30 18249 H 1736.02 -4.85903 3.69771 0
M  V30 18250 H 1737.44 -2.94407 4.91932 0
M  V30 18251 H 1735.83 -2.40467 5.49814 0
M  V30 18252 H 1736.9 -1.24796 4.68566 0
M  V30 18253 N 1738.25 -1.47815 -0.546675 0
M  V30 18254 C 1739.66 -1.33566 -0.873628 0
M  V30 18255 C 1739.86 -0.334067 -1.98711 0
M  V30 18256 O 1738.92 0.250675 -2.51253 0
M  V30 18257 C 1740.23 -2.73171 -1.25691 0
M  V30 18258 C 1741.78 -2.81535 -1.36774 0
M  V30 18259 C 1742.25 -4.21804 -1.78454 0
M  V30 18260 N 1743.74 -4.24396 -1.85586 0
M  V30 18261 C 1744.48 -5.29854 -2.19186 0
M  V30 18262 N 1743.98 -6.45606 -2.51326 0
M  V30 18263 N 1745.77 -5.17237 -2.2005 0
M  V30 18264 H 1737.92 -2.11564 0.188285 0
M  V30 18265 H 1740.18 -0.947754 0.0215773 0
M  V30 18266 H 1739.89 -3.47946 -0.512485 0
M  V30 18267 H 1739.76 -3.05622 -2.21077 0
M  V30 18268 H 1742.15 -2.07025 -2.10297 0
M  V30 18269 H 1742.23 -2.52724 -0.395504 0
M  V30 18270 H 1741.87 -4.96823 -1.05498 0
M  V30 18271 H 1741.8 -4.48046 -2.76699 0
M  V30 18272 H 1744.3 -3.40895 -1.63092 0
M  V30 18273 H 1744.61 -7.21825 -2.76022 0
M  V30 18274 H 1742.95 -6.48909 -2.48883 0
M  V30 18275 H 1746.14 -4.2583 -1.94387 0
M  V30 18276 H 1746.32 -5.99529 -2.45905 0
M  V30 18277 N 1739.72 0.794246 -1.36123 0
M  V30 18278 C 1740.63 1.93807 -1.32197 0
M  V30 18279 C 1741.65 1.7254 -0.2249 0
M  V30 18280 O 1742.83 1.9616 -0.456431 0
M  V30 18281 C 1739.89 3.28593 -1.10578 0
M  V30 18282 C 1738.95 3.6267 -2.29715 0
M  V30 18283 C 1738.18 4.91025 -2.09118 0
M  V30 18284 O 1738.41 5.6039 -1.06389 0
M  V30 18285 O 1737.34 5.23647 -2.96779 0
M  V30 18286 H 1741.17 2.00068 -2.28487 0
M  V30 18287 H 1738.75 0.933808 -1.16621 0
M  V30 18288 H 1740.63 4.0926 -1.0042 0
M  V30 18289 H 1739.31 3.23235 -0.17347 0
M  V30 18290 H 1738.22 2.82329 -2.4544 0
M  V30 18291 H 1739.55 3.72747 -3.21435 0
M  V30 18292 N 1741.2 1.20323 1.01785 0
M  V30 18293 C 1742.45 1.00688 1.74771 0
M  V30 18294 C 1742.76 -0.461769 1.90071 0
M  V30 18295 O 1743.97 -0.777214 2.60138 0
M  V30 18296 C 1742.43 1.75278 3.14334 0
M  V30 18297 C 1742.03 3.26227 3.0705 0
M  V30 18298 C 1743.78 1.64006 3.91538 0
M  V30 18299 C 1741.68 3.9336 4.41613 0
M  V30 18300 H 1740.61 0.373123 0.655206 0
M  V30 18301 H 1743.27 1.43931 1.13825 0
M  V30 18302 H 1741.65 1.24821 3.75813 0
M  V30 18303 H 1742.82 3.83888 2.54885 0
M  V30 18304 H 1741.14 3.37898 2.43339 0
M  V30 18305 H 1743.73 2.11503 4.91091 0
M  V30 18306 H 1744.08 0.59605 4.12011 0
M  V30 18307 H 1744.61 2.11869 3.36684 0
M  V30 18308 H 1741.35 4.97907 4.26344 0
M  V30 18309 H 1740.87 3.40488 4.93789 0
M  V30 18310 H 1742.55 3.97541 5.10461 0
M  V30 18311 N 1742.68 -1.21073 1.00892 0
M  V30 18312 C 1743.61 -2.25847 0.592897 0
M  V30 18313 C 1744.59 -1.6561 -0.38824 0
M  V30 18314 O 1745.78 -1.92238 -0.275361 0
M  V30 18315 C 1742.91 -3.47214 -0.0773439 0
M  V30 18316 C 1741.86 -4.19994 0.82398 0
M  V30 18317 C 1741.19 -5.34696 0.0199341 0
M  V30 18318 C 1742.49 -4.76964 2.12844 0
M  V30 18319 H 1744.18 -2.609 1.46873 0
M  V30 18320 H 1741.73 -1.25412 0.707656 0
M  V30 18321 H 1743.68 -4.19684 -0.379889 0
M  V30 18322 H 1742.4 -3.11303 -0.987833 0
M  V30 18323 H 1741.06 -3.49379 1.11041 0
M  V30 18324 H 1740.71 -4.95028 -0.891966 0
M  V30 18325 H 1740.41 -5.84319 0.620102 0
M  V30 18326 H 1741.93 -6.09974 -0.276336 0
M  V30 18327 H 1743.35 -5.41293 1.88878 0
M  V30 18328 H 1741.74 -5.36992 2.67879 0
M  V30 18329 H 1742.81 -3.96129 2.79659 0
M  V30 18330 N 1744.16 -0.784156 -1.36707 0
M  V30 18331 C 1745.12 -0.184957 -2.28453 0
M  V30 18332 C 1746.12 0.614637 -1.4859 0
M  V30 18333 O 1747.31 0.436403 -1.68645 0
M  V30 18334 C 1744.44 0.744662 -3.32667 0
M  V30 18335 H 1745.64 -0.993861 -2.82953 0
M  V30 18336 H 1743.19 -0.553214 -1.46182 0
M  V30 18337 H 1743.92 1.57811 -2.83313 0
M  V30 18338 H 1743.71 0.173313 -3.91717 0
M  V30 18339 H 1745.2 1.15894 -4.01196 0
M  V30 18340 N 1745.64 1.48215 -0.535727 0
M  V30 18341 C 1746.88 2.021 -0.00372016 0
M  V30 18342 C 1747.21 1.41456 1.34221 0
M  V30 18343 O 1746.48 0.581987 1.87055 0
M  V30 18344 H 1745.06 0.746998 0.00161295 0
M  V30 18345 H 1747.72 1.81862 -0.700863 0
M  V30 18346 H 1746.81 3.11939 0.100352 0
M  V30 18347 N 1747.11 0.27113 1.5525 0
M  V30 18348 C 1748.06 -0.618069 2.2237 0
M  V30 18349 C 1749.03 -1.15282 1.19579 0
M  V30 18350 O 1750.22 -1.20285 1.48108 0
M  V30 18351 C 1747.36 -1.79821 2.94548 0
M  V30 18352 C 1746.47 -1.29769 4.12049 0
M  V30 18353 C 1745.6 -2.43931 4.7188 0
M  V30 18354 C 1744.64 -1.90862 5.81582 0
M  V30 18355 N 1743.78 -2.98482 6.35494 0
M  V30 18356 H 1748.62 -0.0390456 2.97974 0
M  V30 18357 H 1746.16 -0.00750636 1.47098 0
M  V30 18358 H 1748.12 -2.49184 3.34609 0
M  V30 18359 H 1746.75 -2.34933 2.21374 0
M  V30 18360 H 1745.8 -0.497288 3.77136 0
M  V30 18361 H 1747.11 -0.868957 4.91173 0
M  V30 18362 H 1746.26 -3.21295 5.1464 0
M  V30 18363 H 1745 -2.90118 3.92024 0
M  V30 18364 H 1744.01 -1.11977 5.38276 0
M  V30 18365 H 1745.23 -1.45616 6.63304 0
M  V30 18366 H 1743.18 -3.44058 5.58534 0
M  V30 18367 H 1743.1 -2.60014 7.09879 0
M  V30 18368 H 1744.36 -3.75833 6.82913 0
M  V30 18369 N 1748.59 -1.576 -0.00164943 0
M  V30 18370 C 1749.5 -2.11748 -1.00995 0
M  V30 18371 C 1750.52 -1.06235 -1.37805 0
M  V30 18372 O 1751.69 -1.38127 -1.4657 0
M  V30 18373 C 1748.76 -2.60869 -2.2836 0
M  V30 18374 C 1747.82 -3.80976 -1.97879 0
M  V30 18375 C 1747.05 -4.27745 -3.19171 0
M  V30 18376 O 1747.28 -3.73856 -4.30799 0
M  V30 18377 O 1746.21 -5.19917 -3.03265 0
M  V30 18378 H 1750.04 -2.98117 -0.579667 0
M  V30 18379 H 1747.62 -1.47766 -0.220375 0
M  V30 18380 H 1749.5 -2.9267 -3.03187 0
M  V30 18381 H 1748.18 -1.77598 -2.7063 0
M  V30 18382 H 1747.09 -3.54151 -1.20533 0
M  V30 18383 H 1748.42 -4.65315 -1.60447 0
M  V30 18384 N 1750.07 0.274379 -1.55193 0
M  V30 18385 C 1751.49 0.621497 -1.47002 0
M  V30 18386 C 1751.69 1.89572 -0.682995 0
M  V30 18387 O 1750.74 2.51696 -0.201296 0
M  V30 18388 C 1752.06 0.749741 -2.91203 0
M  V30 18389 C 1753.6 0.843886 -3.01409 0
M  V30 18390 C 1754.08 1.00392 -4.46862 0
M  V30 18391 N 1755.57 1.06947 -4.50684 0
M  V30 18392 C 1756.3 1.21207 -5.60443 0
M  V30 18393 N 1755.8 1.32195 -6.80071 0
M  V30 18394 N 1757.59 1.24307 -5.48183 0
M  V30 18395 H 1749.74 -0.562462 -2.04817 0
M  V30 18396 H 1752.01 -0.190205 -0.928723 0
M  V30 18397 H 1751.71 -0.116074 -3.51508 0
M  V30 18398 H 1751.59 1.63046 -3.40141 0
M  V30 18399 H 1753.97 1.70017 -2.41202 0
M  V30 18400 H 1754.06 -0.061411 -2.55726 0
M  V30 18401 H 1753.7 0.152298 -5.07672 0
M  V30 18402 H 1753.63 1.92384 -4.902 0
M  V30 18403 H 1756.12 0.997012 -3.64511 0
M  V30 18404 H 1756.43 1.42906 -7.59472 0
M  V30 18405 H 1754.78 1.29202 -6.82885 0
M  V30 18406 H 1757.97 1.15352 -4.53665 0
M  V30 18407 H 1758.14 1.35076 -6.33765 0
M  V30 18408 N 1751.55 1.48103 0.538828 0
M  V30 18409 C 1752.46 1.64632 1.67133 0
M  V30 18410 C 1753.47 0.528917 1.65766 0
M  V30 18411 O 1754.65 0.798849 1.84879 0
M  V30 18412 C 1751.72 1.67391 3.03614 0
M  V30 18413 C 1750.78 2.90694 3.15904 0
M  V30 18414 C 1750.01 2.93311 4.45875 0
M  V30 18415 O 1750.23 2.04596 5.32444 0
M  V30 18416 O 1749.17 3.85384 4.62345 0
M  V30 18417 H 1752.99 2.60496 1.56126 0
M  V30 18418 H 1750.58 1.31401 0.710925 0
M  V30 18419 H 1752.46 1.71777 3.84799 0
M  V30 18420 H 1751.13 0.746982 3.14963 0
M  V30 18421 H 1750.04 2.91844 2.34047 0
M  V30 18422 H 1751.37 3.82742 3.09467 0
M  V30 18423 N 1753.03 -0.787016 1.36542 0
M  V30 18424 C 1754.26 -1.5736 1.33871 0
M  V30 18425 C 1754.66 -1.89024 -0.0814846 0
M  V30 18426 O 1754.01 -1.50771 -1.04947 0
M  V30 18427 C 1754.07 -2.91978 2.09735 0
M  V30 18428 C 1753.73 -2.8303 3.58808 0
M  V30 18429 C 1754.73 -2.55108 4.53008 0
M  V30 18430 C 1752.42 -3.01531 4.01727 0
M  V30 18431 C 1754.41 -2.45793 5.88103 0
M  V30 18432 C 1752.1 -2.91838 5.36911 0
M  V30 18433 C 1753.09 -2.64007 6.29912 0
M  V30 18434 O 1752.78 -2.54312 7.62614 0
M  V30 18435 H 1752.51 -0.494659 0.460748 0
M  V30 18436 H 1755.07 -0.984519 1.80268 0
M  V30 18437 H 1753.3 -3.52946 1.58005 0
M  V30 18438 H 1754.99 -3.53268 1.99891 0
M  V30 18439 H 1755.75 -2.40514 4.21163 0
M  V30 18440 H 1751.63 -3.22199 3.2971 0
M  V30 18441 H 1755.18 -2.23991 6.60662 0
M  V30 18442 H 1751.07 -3.05995 5.68364 0
M  V30 18443 H 1751.84 -2.69776 7.72763 0
M  V30 18444 N 1754.5 -1.20861 -1.01145 0
M  V30 18445 C 1755.44 -0.919862 -2.09931 0
M  V30 18446 C 1756.45 0.0944116 -1.62526 0
M  V30 18447 O 1757.64 -0.137265 -1.77971 0
M  V30 18448 C 1754.74 -0.358478 -3.36999 0
M  V30 18449 C 1753.91 -1.42553 -4.13518 0
M  V30 18450 C 1752.97 -0.874546 -5.18882 0
M  V30 18451 O 1752 -1.55646 -5.47506 0
M  V30 18452 N 1753.2 0.313462 -5.79653 0
M  V30 18453 H 1755.96 -1.85633 -2.35288 0
M  V30 18454 H 1753.52 -1.11299 -1.17577 0
M  V30 18455 H 1755.52 0.0243829 -4.04693 0
M  V30 18456 H 1754.09 0.482669 -3.08851 0
M  V30 18457 H 1753.31 -1.98251 -3.4072 0
M  V30 18458 H 1754.59 -2.14402 -4.61421 0
M  V30 18459 H 1753.99 0.884644 -5.5874 0
M  V30 18460 H 1752.55 0.637904 -6.48671 0
M  V30 18461 N 1755.98 1.20536 -1.01532 0
M  V30 18462 C 1756.95 2.21495 -0.589298 0
M  V30 18463 C 1757.95 1.57167 0.339871 0
M  V30 18464 O 1759.14 1.73724 0.128736 0
M  V30 18465 C 1756.27 3.40614 0.139623 0
M  V30 18466 H 1757.46 2.607 -1.48241 0
M  V30 18467 H 1755.01 1.33977 -0.804977 0
M  V30 18468 H 1755.75 3.0691 1.04771 0
M  V30 18469 H 1755.53 3.88531 -0.52785 0
M  V30 18470 H 1757.02 4.15431 0.425083 0
M  V30 18471 N 1757.46 0.791395 1.36289 0
M  V30 18472 C 1758.39 0.205419 2.32595 0
M  V30 18473 C 1759.37 -0.660696 1.56744 0
M  V30 18474 O 1760.56 -0.594111 1.84889 0
M  V30 18475 C 1757.69 -0.659018 3.4099 0
M  V30 18476 C 1756.64 0.107364 4.27865 0
M  V30 18477 C 1755.97 -0.877795 5.27446 0
M  V30 18478 C 1757.27 1.29769 5.05922 0
M  V30 18479 H 1758.96 1.00999 2.8185 0
M  V30 18480 H 1756.51 0.487122 1.35511 0
M  V30 18481 H 1758.46 -1.07891 4.07354 0
M  V30 18482 H 1757.18 -1.49632 2.90307 0
M  V30 18483 H 1755.84 0.508253 3.6306 0
M  V30 18484 H 1755.49 -1.71018 4.73035 0
M  V30 18485 H 1755.19 -0.369429 5.86438 0
M  V30 18486 H 1756.71 -1.29621 5.96683 0
M  V30 18487 H 1758.13 0.953463 5.65316 0
M  V30 18488 H 1756.53 1.73949 5.74336 0
M  V30 18489 H 1757.6 2.09205 4.37449 0
M  V30 18490 N 1758.94 -1.47929 0.54358 0
M  V30 18491 C 1760.19 -2.02795 0.014488 0
M  V30 18492 C 1760.52 -1.41848 -1.32638 0
M  V30 18493 O 1759.79 -0.569099 -1.85988 0
M  V30 18494 C 1760.08 -3.5998 -0.093097 0
M  V30 18495 C 1759.93 -4.31384 1.2739 0
M  V30 18496 C 1761.25 -4.32521 -0.813251 0
M  V30 18497 H 1758.37 -0.736969 0.00673905 0
M  V30 18498 H 1761.01 -1.76507 0.703238 0
M  V30 18499 H 1759.16 -3.82508 -0.679685 0
M  V30 18500 H 1760.83 -4.20235 1.90264 0
M  V30 18501 H 1759.07 -3.9227 1.85221 0
M  V30 18502 H 1759.75 -5.39856 1.15148 0
M  V30 18503 H 1762.22 -4.14903 -0.315334 0
M  V30 18504 H 1761.1 -5.42161 -0.857456 0
M  V30 18505 H 1761.36 -4.00768 -1.86649 0
M  V30 18506 N 1760.42 -0.27936 -1.55104 0
M  V30 18507 C 1761.35 0.639572 -2.20096 0
M  V30 18508 C 1762.36 1.11423 -1.18696 0
M  V30 18509 O 1763.55 1.0354 -1.45402 0
M  V30 18510 C 1760.65 1.88494 -2.81644 0
M  V30 18511 C 1759.82 1.55639 -4.08773 0
M  V30 18512 C 1758.88 2.65466 -4.54328 0
M  V30 18513 O 1757.91 2.31473 -5.20008 0
M  V30 18514 N 1759.11 3.95606 -4.24825 0
M  V30 18515 H 1761.88 0.0833048 -2.99584 0
M  V30 18516 H 1759.44 -0.100637 -1.61587 0
M  V30 18517 H 1761.43 2.61272 -3.09062 0
M  V30 18518 H 1760 2.35015 -2.06123 0
M  V30 18519 H 1759.22 0.662253 -3.88597 0
M  V30 18520 H 1760.51 1.31196 -4.91594 0
M  V30 18521 H 1759.91 4.26043 -3.72161 0
M  V30 18522 H 1758.46 4.64748 -4.57004 0
M  V30 18523 N 1761.9 1.57599 -0.0067085 0
M  V30 18524 C 1763.31 1.55727 0.349452 0
M  V30 18525 C 1763.51 1.01004 1.74357 0
M  V30 18526 O 1762.57 0.646817 2.44075 0
M  V30 18527 C 1763.88 2.99905 0.218546 0
M  V30 18528 C 1765.43 3.11626 0.292987 0
M  V30 18529 C 1765.9 4.57601 0.191129 0
M  V30 18530 N 1767.39 4.62531 0.248819 0
M  V30 18531 C 1768.13 5.73074 0.193448 0
M  V30 18532 N 1767.63 6.92744 0.0882834 0
M  V30 18533 N 1769.42 5.61562 0.245803 0
M  V30 18534 H 1761.57 1.91508 -0.918617 0
M  V30 18535 H 1763.83 0.879931 -0.352739 0
M  V30 18536 H 1763.54 3.43807 -0.740914 0
M  V30 18537 H 1763.41 3.63761 0.997905 0
M  V30 18538 H 1765.8 2.67649 1.2429 0
M  V30 18539 H 1765.88 2.50534 -0.516358 0
M  V30 18540 H 1765.52 5.02253 -0.755263 0
M  V30 18541 H 1765.45 5.16646 1.01905 0
M  V30 18542 H 1767.95 3.76446 0.331157 0
M  V30 18543 H 1768.26 7.72782 0.052112 0
M  V30 18544 H 1766.6 6.94979 0.0538156 0
M  V30 18545 H 1769.79 4.66962 0.326204 0
M  V30 18546 H 1769.97 6.47694 0.199185 0
M  V30 18547 N 1763.37 -0.266145 1.55336 0
M  V30 18548 C 1764.34 -1.31242 1.87904 0
M  V30 18549 C 1765.34 -1.42022 0.754083 0
M  V30 18550 O 1766.53 -1.41054 1.02222 0
M  V30 18551 C 1763.66 -2.69285 2.09041 0
M  V30 18552 H 1764.85 -1.03592 2.81441 0
M  V30 18553 H 1762.4 -0.504537 1.47933 0
M  V30 18554 H 1763.14 -3.02106 1.17909 0
M  V30 18555 H 1762.92 -2.62846 2.90954 0
M  V30 18556 H 1764.41 -3.4487 2.35488 0
M  V30 18557 N 1764.85 -1.48386 -0.530967 0
M  V30 18558 C 1765.78 -1.6573 -1.64486 0
M  V30 18559 C 1766.76 -0.506198 -1.62393 0
M  V30 18560 O 1767.95 -0.738623 -1.79605 0
M  V30 18561 C 1765.08 -1.69594 -3.03076 0
M  V30 18562 C 1764.03 -2.84195 -3.20027 0
M  V30 18563 C 1763.36 -2.73148 -4.59668 0
M  V30 18564 C 1764.66 -4.25504 -3.02892 0
M  V30 18565 H 1766.35 -2.58983 -1.50227 0
M  V30 18566 H 1763.9 -1.24633 -0.721286 0
M  V30 18567 H 1765.85 -1.80316 -3.80873 0
M  V30 18568 H 1764.57 -0.729193 -3.18356 0
M  V30 18569 H 1763.23 -2.73027 -2.44647 0
M  V30 18570 H 1762.88 -1.74444 -4.71782 0
M  V30 18571 H 1762.58 -3.50047 -4.71954 0
M  V30 18572 H 1764.11 -2.85836 -5.39565 0
M  V30 18573 H 1765.52 -4.37511 -3.70482 0
M  V30 18574 H 1763.92 -5.03393 -3.26673 0
M  V30 18575 H 1764.99 -4.42036 -1.99329 0
M  V30 18576 N 1766.33 0.779763 -1.36958 0
M  V30 18577 C 1767.26 1.90168 -1.27941 0
M  V30 18578 C 1768.27 1.61605 -0.196866 0
M  V30 18579 O 1769.46 1.72673 -0.452368 0
M  V30 18580 C 1766.56 3.25208 -0.953565 0
M  V30 18581 C 1765.74 3.81477 -2.13995 0
M  V30 18582 C 1764.8 4.94976 -1.78564 0
M  V30 18583 O 1763.82 5.10984 -2.50767 0
M  V30 18584 N 1765.02 5.75955 -0.725015 0
M  V30 18585 H 1767.79 1.98422 -2.24608 0
M  V30 18586 H 1765.35 0.958495 -1.30478 0
M  V30 18587 H 1767.34 3.98643 -0.697529 0
M  V30 18588 H 1765.91 3.12508 -0.0757105 0
M  V30 18589 H 1765.13 2.99915 -2.55822 0
M  V30 18590 H 1766.42 4.15803 -2.93233 0
M  V30 18591 H 1765.82 5.6556 -0.125699 0
M  V30 18592 H 1764.37 6.49651 -0.528823 0
M  V30 18593 N 1767.81 1.21396 1.00503 0
M  V30 18594 C 1769.22 0.971304 1.26641 0
M  V30 18595 C 1769.42 -0.342336 1.98571 0
M  V30 18596 O 1768.48 -1.068 2.28801 0
M  V30 18597 C 1769.79 2.16186 2.09008 0
M  V30 18598 C 1771.34 2.20411 2.22234 0
M  V30 18599 C 1771.82 3.38984 3.07983 0
M  V30 18600 N 1773.31 3.3907 3.15572 0
M  V30 18601 C 1774.04 4.27467 3.82177 0
M  V30 18602 N 1773.54 5.26062 4.50811 0
M  V30 18603 N 1775.33 4.15276 3.78817 0
M  V30 18604 H 1767.48 2.05875 0.522436 0
M  V30 18605 H 1769.74 0.901496 0.293272 0
M  V30 18606 H 1769.45 3.11383 1.63504 0
M  V30 18607 H 1769.32 2.15243 3.09758 0
M  V30 18608 H 1771.71 1.25769 2.66957 0
M  V30 18609 H 1771.79 2.25397 1.20954 0
M  V30 18610 H 1771.44 4.33919 2.63964 0
M  V30 18611 H 1771.37 3.31236 4.09378 0
M  V30 18612 H 1773.86 2.67718 2.66713 0
M  V30 18613 H 1774.17 5.89815 4.99338 0
M  V30 18614 H 1772.52 5.29987 4.49599 0
M  V30 18615 H 1775.71 3.37511 3.24351 0
M  V30 18616 H 1775.88 4.84375 4.30448 0
M  V30 18617 N 1769.29 -1.19996 1.0217 0
M  V30 18618 C 1770.22 -2.25206 0.616818 0
M  V30 18619 C 1771.2 -1.66013 -0.370653 0
M  V30 18620 O 1772.38 -1.92519 -0.254956 0
M  V30 18621 C 1769.51 -3.47276 -0.0405129 0
M  V30 18622 C 1768.47 -4.19096 0.868479 0
M  V30 18623 C 1767.79 -5.34645 0.0766447 0
M  V30 18624 C 1769.09 -4.7468 2.1789 0
M  V30 18625 H 1770.79 -2.59328 1.49632 0
M  V30 18626 H 1768.33 -1.24655 0.720917 0
M  V30 18627 H 1770.28 -4.20063 -0.335355 0
M  V30 18628 H 1769.01 -3.12333 -0.954759 0
M  V30 18629 H 1767.67 -3.48181 1.1474 0
M  V30 18630 H 1767.32 -4.95946 -0.839411 0
M  V30 18631 H 1767.02 -5.83628 0.682041 0
M  V30 18632 H 1768.54 -6.10233 -0.211624 0
M  V30 18633 H 1769.95 -5.39259 1.94608 0
M  V30 18634 H 1768.35 -5.34121 2.7356 0
M  V30 18635 H 1769.42 -3.93141 2.83845 0
M  V30 18636 N 1770.76 -0.798611 -1.35867 0
M  V30 18637 C 1771.71 -0.191425 -2.31811 0
M  V30 18638 C 1772.71 0.65438 -1.56251 0
M  V30 18639 O 1773.91 0.548435 -1.71441 0
M  V30 18640 H 1770.29 -0.0431343 -0.750762 0
M  V30 18641 H 1772.26 -1.01589 -2.80575 0
M  V30 18642 C 1771.01 0.651912 -3.41534 0
M  V30 18643 H 1770.33 0.0104309 -3.99799 0
M  V30 18644 H 1771.77 1.04328 -4.10964 0
M  V30 18645 C 1770.23 1.81407 -2.83889 0
M  V30 18646 O 1770.76 2.91115 -2.76794 0
M  V30 18647 N 1768.96 1.62308 -2.41049 0
M  V30 18648 H 1768.51 0.730709 -2.47019 0
M  V30 18649 H 1768.47 2.40226 -2.02827 0
M  V30 18650 N 1772.24 1.47639 -0.551417 0
M  V30 18651 C 1773.15 2.33722 0.202799 0
M  V30 18652 C 1774.17 1.47832 0.917699 0
M  V30 18653 O 1775.34 1.80772 0.887885 0
M  V30 18654 C 1772.41 3.24408 1.22313 0
M  V30 18655 C 1771.47 4.26184 0.51628 0
M  V30 18656 C 1770.7 5.12537 1.488 0
M  V30 18657 O 1770.93 5.01241 2.72238 0
M  V30 18658 O 1769.86 5.93269 1.01566 0
M  V30 18659 H 1773.69 2.99503 -0.50317 0
M  V30 18660 H 1771.27 1.46104 -0.312093 0
M  V30 18661 H 1773.15 3.80441 1.81225 0
M  V30 18662 H 1771.83 2.61262 1.91112 0
M  V30 18663 H 1770.73 3.73927 -0.113886 0
M  V30 18664 H 1772.07 4.92028 -0.130158 0
M  V30 18665 N 1773.72 0.287581 1.54954 0
M  V30 18666 C 1774.63 -0.604236 2.26685 0
M  V30 18667 C 1775.65 -1.1597 1.29719 0
M  V30 18668 O 1776.82 -1.18735 1.62678 0
M  V30 18669 C 1773.89 -1.76612 2.98344 0
M  V30 18670 C 1772.95 -1.24608 4.10818 0
M  V30 18671 C 1772.18 -2.35258 4.7905 0
M  V30 18672 O 1772.4 -3.54879 4.46561 0
M  V30 18673 O 1771.34 -2.02709 5.66739 0
M  V30 18674 H 1775.16 -0.0227663 3.03691 0
M  V30 18675 H 1772.75 0.0545243 1.493 0
M  V30 18676 H 1774.63 -2.44332 3.43336 0
M  V30 18677 H 1773.31 -2.33444 2.24244 0
M  V30 18678 H 1772.21 -0.53498 3.70255 0
M  V30 18679 H 1773.55 -0.723348 4.86856 0
M  V30 18680 N 1775.2 -1.57593 0.0150662 0
M  V30 18681 C 1776.16 -2.08293 -0.956385 0
M  V30 18682 C 1777.16 -0.99521 -1.26302 0
M  V30 18683 O 1778.35 -1.25732 -1.2057 0
M  V30 18684 C 1775.48 -2.53702 -2.27701 0
M  V30 18685 H 1776.68 -2.95401 -0.517543 0
M  V30 18686 H 1774.23 -1.54558 -0.232706 0
M  V30 18687 H 1774.96 -1.69882 -2.76244 0
M  V30 18688 H 1774.75 -3.33155 -2.06761 0
M  V30 18689 H 1776.24 -2.93201 -2.9736 0
M  V30 18690 N 1776.68 0.257904 -1.55475 0
M  V30 18691 C 1778.09 0.605871 -1.47653 0
M  V30 18692 C 1778.29 1.88837 -0.703063 0
M  V30 18693 O 1777.35 2.51469 -0.227981 0
M  V30 18694 C 1778.66 0.718813 -2.91982 0
M  V30 18695 C 1780.21 0.81187 -3.02287 0
M  V30 18696 C 1780.68 0.956465 -4.47901 0
M  V30 18697 N 1782.18 1.02161 -4.51793 0
M  V30 18698 C 1782.91 1.15256 -5.61697 0
M  V30 18699 N 1782.41 1.24975 -6.81435 0
M  V30 18700 N 1784.2 1.18485 -5.4947 0
M  V30 18701 H 1776.35 -0.584154 -2.04209 0
M  V30 18702 H 1778.61 -0.200045 -0.926653 0
M  V30 18703 H 1778.32 -0.15335 -3.51366 0
M  V30 18704 H 1778.19 1.59429 -3.41851 0
M  V30 18705 H 1780.58 1.67449 -2.42991 0
M  V30 18706 H 1780.66 -0.0885307 -2.55647 0
M  V30 18707 H 1780.31 0.0984438 -5.07805 0
M  V30 18708 H 1780.24 1.87174 -4.92213 0
M  V30 18709 H 1782.73 0.958295 -3.65548 0
M  V30 18710 H 1783.04 1.34843 -7.60945 0
M  V30 18711 H 1781.38 1.21952 -6.84217 0
M  V30 18712 H 1784.58 1.10534 -4.54863 0
M  V30 18713 H 1784.75 1.28346 -6.35162 0
M  V30 18714 N 1778.15 1.48666 0.52309 0
M  V30 18715 C 1779.38 1.60707 1.30311 0
M  V30 18716 C 1779.8 0.269941 1.8686 0
M  V30 18717 O 1779.15 -0.741714 1.66748 0
M  V30 18718 C 1779.21 2.65899 2.44908 0
M  V30 18719 O 1778.93 3.94423 1.90688 0
M  V30 18720 C 1780.43 2.88443 3.36624 0
M  V30 18721 H 1777.65 0.541661 0.396035 0
M  V30 18722 H 1780.19 1.94544 0.630322 0
M  V30 18723 H 1778.35 2.34902 3.08058 0
M  V30 18724 H 1778.76 4.5219 2.65753 0
M  V30 18725 H 1780.23 3.65831 4.13366 0
M  V30 18726 H 1780.71 1.97524 3.92277 0
M  V30 18727 H 1781.32 3.20771 2.7926 0
M  V30 18728 N 1779.63 -0.772489 1.37369 0
M  V30 18729 C 1780.86 -1.55931 1.35532 0
M  V30 18730 C 1781.27 -1.891 -0.0614314 0
M  V30 18731 O 1780.61 -1.51876 -1.03342 0
M  V30 18732 C 1780.68 -2.89737 2.1282 0
M  V30 18733 C 1780.34 -2.79208 3.6179 0
M  V30 18734 C 1781.34 -2.50289 4.55688 0
M  V30 18735 C 1779.02 -2.97253 4.04902 0
M  V30 18736 C 1781.02 -2.39542 5.90676 0
M  V30 18737 C 1778.7 -2.86127 5.39976 0
M  V30 18738 C 1779.7 -2.57311 6.32677 0
M  V30 18739 O 1779.39 -2.4621 7.65269 0
M  V30 18740 H 1779.12 -0.489744 0.465968 0
M  V30 18741 H 1781.67 -0.965344 1.81302 0
M  V30 18742 H 1779.9 -3.51251 1.6174 0
M  V30 18743 H 1781.59 -3.51128 2.03627 0
M  V30 18744 H 1782.36 -2.36034 4.2369 0
M  V30 18745 H 1778.24 -3.18684 3.33109 0
M  V30 18746 H 1781.78 -2.16971 6.63 0
M  V30 18747 H 1777.68 -2.9995 5.71577 0
M  V30 18748 H 1778.45 -2.61564 7.75581 0
M  V30 18749 N 1781.11 -1.21927 -0.998575 0
M  V30 18750 C 1782.36 -1.04194 -1.73987 0
M  V30 18751 C 1782.69 0.4227 -1.89544 0
M  V30 18752 O 1781.96 1.31353 -1.43446 0
M  V30 18753 C 1782.25 -1.74717 -3.14874 0
M  V30 18754 C 1782.1 -3.28741 -3.07001 0
M  V30 18755 C 1783.42 -1.49495 -4.13931 0
M  V30 18756 H 1780.54 -0.379918 -0.631531 0
M  V30 18757 H 1783.18 -1.5019 -1.16374 0
M  V30 18758 H 1781.33 -1.35615 -3.64062 0
M  V30 18759 H 1783 -3.77252 -2.65478 0
M  V30 18760 H 1781.25 -3.58711 -2.43944 0
M  V30 18761 H 1781.92 -3.73258 -4.06672 0
M  V30 18762 H 1784.39 -1.83451 -3.73477 0
M  V30 18763 H 1783.27 -2.01344 -5.10639 0
M  V30 18764 H 1783.53 -0.426324 -4.4004 0
M  V30 18765 N 1782.59 1.19452 -1.02805 0
M  V30 18766 C 1783.52 2.24875 -0.628752 0
M  V30 18767 C 1784.5 1.66207 0.361844 0
M  V30 18768 O 1785.68 1.92652 0.244743 0
M  V30 18769 C 1782.81 3.47293 0.0220954 0
M  V30 18770 C 1781.77 4.1863 -0.890693 0
M  V30 18771 C 1781.09 5.34597 -0.104997 0
M  V30 18772 C 1782.39 4.73518 -2.20405 0
M  V30 18773 H 1784.09 2.5853 -1.51005 0
M  V30 18774 H 1781.63 1.24271 -0.727518 0
M  V30 18775 H 1783.59 4.20235 0.313073 0
M  V30 18776 H 1782.31 3.12835 0.938182 0
M  V30 18777 H 1780.97 3.47568 -1.16585 0
M  V30 18778 H 1780.62 4.96385 0.813098 0
M  V30 18779 H 1780.32 5.83258 -0.712983 0
M  V30 18780 H 1781.84 6.10337 0.179259 0
M  V30 18781 H 1783.26 5.3822 -1.97465 0
M  V30 18782 H 1781.65 5.32663 -2.76388 0
M  V30 18783 H 1782.72 3.9163 -2.85926 0
M  V30 18784 N 1784.07 0.805805 1.35442 0
M  V30 18785 C 1785.03 0.221278 2.28129 0
M  V30 18786 C 1786.03 -0.590919 1.49549 0
M  V30 18787 O 1787.22 -0.409518 1.69318 0
M  V30 18788 C 1784.35 -0.691643 3.3381 0
M  V30 18789 H 1785.54 1.03875 2.81336 0
M  V30 18790 H 1783.1 0.5764 1.45284 0
M  V30 18791 H 1783.83 -1.53283 2.85788 0
M  V30 18792 H 1783.62 -0.110972 3.91943 0
M  V30 18793 H 1785.11 -1.09497 4.02989 0
M  V30 18794 N 1785.54 -1.47344 0.559239 0
M  V30 18795 C 1786.96 -1.86272 0.126394 0
M  V30 18796 C 1787.31 -1.46563 -1.30437 0
M  V30 18797 O 1786.43 -0.869624 -1.98158 0
M  V30 18798 C 1787.03 -3.38068 0.222602 0
M  V30 18799 C 1785.59 -3.7608 -0.155219 0
M  V30 18800 C 1784.73 -2.71394 0.569244 0
M  V30 18801 H 1787.68 -1.38833 0.768845 0
M  V30 18802 H 1787.7 -3.76382 -0.558262 0
M  V30 18803 H 1787.22 -3.66938 1.26404 0
M  V30 18804 H 1785.32 -3.52826 -1.19768 0
M  V30 18805 H 1785.43 -4.78662 0.204756 0
M  V30 18806 H 1783.79 -2.54697 0.0120996 0
M  V30 18807 H 1784.58 -3.03107 1.61187 0
M  V30 18808 N 1787.02 -0.295795 -1.54799 0
M  V30 18809 C 1787.93 0.592206 -2.27002 0
M  V30 18810 C 1788.95 1.1528 -1.30332 0
M  V30 18811 O 1790.12 1.1787 -1.63305 0
M  V30 18812 C 1787.19 1.75027 -2.99277 0
M  V30 18813 C 1786.25 1.22427 -4.11473 0
M  V30 18814 C 1785.48 2.32714 -4.80291 0
M  V30 18815 O 1785.71 3.52506 -4.48437 0
M  V30 18816 O 1784.64 1.997 -5.67806 0
M  V30 18817 H 1788.47 0.00666048 -3.03699 0
M  V30 18818 H 1786.05 -0.0624413 -1.49269 0
M  V30 18819 H 1787.93 2.42508 -3.44627 0
M  V30 18820 H 1786.61 2.32252 -2.25479 0
M  V30 18821 H 1785.52 0.515337 -3.70534 0
M  V30 18822 H 1786.85 0.697518 -4.87233 0
M  V30 18823 N 1788.5 1.57583 -0.0234236 0
M  V30 18824 C 1789.91 1.79422 0.516201 0
M  V30 18825 C 1790.26 0.933151 1.72588 0
M  V30 18826 O 1789.39 0.141985 2.15934 0
M  V30 18827 C 1789.98 3.25405 0.943248 0
M  V30 18828 C 1788.54 3.48259 1.42802 0
M  V30 18829 C 1787.69 2.74543 0.390074 0
M  V30 18830 H 1790.64 1.56727 -0.24949 0
M  V30 18831 H 1790.66 3.34803 1.80795 0
M  V30 18832 H 1790.17 3.88049 0.0626242 0
M  V30 18833 H 1788.27 2.9086 2.32877 0
M  V30 18834 H 1788.39 4.56968 1.43933 0
M  V30 18835 H 1786.75 2.39852 0.856919 0
M  V30 18836 H 1787.53 3.399 -0.481986 0
M  V30 18837 N 1789.98 -0.249655 1.5561 0
M  V30 18838 C 1791.39 -0.818934 1.67781 0
M  V30 18839 C 1791.74 -1.86134 0.620374 0
M  V30 18840 O 1790.87 -2.15133 -0.233869 0
M  V30 18841 C 1791.46 -1.49219 3.0417 0
M  V30 18842 C 1790.02 -2.0092 3.18289 0
M  V30 18843 C 1789.17 -0.859333 2.63649 0
M  V30 18844 H 1792.12 -0.0255186 1.58679 0
M  V30 18845 H 1792.14 -2.36011 2.98461 0
M  V30 18846 H 1791.65 -0.733268 3.8111 0
M  V30 18847 H 1789.75 -2.79701 2.46167 0
M  V30 18848 H 1789.87 -2.20848 4.25163 0
M  V30 18849 H 1788.23 -1.2591 2.21402 0
M  V30 18850 H 1789.01 -0.113545 3.43112 0
M  V30 18851 N 1791.46 -1.48941 -0.515198 0
M  V30 18852 C 1792.69 -1.61396 -1.29457 0
M  V30 18853 C 1793.1 -0.279847 -1.86714 0
M  V30 18854 O 1792.46 0.732861 -1.67139 0
M  V30 18855 C 1792.51 -2.67194 -2.43494 0
M  V30 18856 O 1792.23 -3.95429 -1.88593 0
M  V30 18857 C 1793.73 -2.90224 -3.35089 0
M  V30 18858 H 1790.95 -0.543754 -0.393157 0
M  V30 18859 H 1793.49 -1.94875 -0.619996 0
M  V30 18860 H 1791.65 -2.36532 -3.06808 0
M  V30 18861 H 1792.06 -4.53593 -2.63351 0
M  V30 18862 H 1793.54 -3.68018 -4.1142 0
M  V30 18863 H 1794.01 -1.99601 -3.91224 0
M  V30 18864 H 1794.62 -3.22247 -2.77555 0
M  V30 18865 N 1792.94 0.765193 -1.37777 0
M  V30 18866 C 1793.9 1.8603 -1.33886 0
M  V30 18867 C 1794.9 1.58974 -0.241614 0
M  V30 18868 O 1796.09 1.66935 -0.497843 0
M  V30 18869 C 1793.22 3.2329 -1.08151 0
M  V30 18870 H 1794.41 1.9089 -2.31303 0
M  V30 18871 H 1791.97 0.965653 -1.22902 0
M  V30 18872 H 1792.7 3.24103 -0.112926 0
M  V30 18873 H 1792.49 3.4432 -1.8758 0
M  V30 18874 H 1793.98 4.03367 -1.08095 0
M  V30 18875 N 1794.41 1.22455 0.992094 0
M  V30 18876 C 1795.34 1.01961 2.10063 0
M  V30 18877 C 1796.32 -0.0597186 1.69995 0
M  V30 18878 O 1797.51 0.102655 1.93928 0
M  V30 18879 C 1794.64 0.597442 3.42123 0
M  V30 18880 C 1793.59 1.62279 3.96042 0
M  V30 18881 C 1792.92 1.05644 5.2416 0
M  V30 18882 C 1794.22 3.01296 4.26635 0
M  V30 18883 H 1795.91 1.94678 2.27466 0
M  V30 18884 H 1793.46 0.937422 1.09309 0
M  V30 18885 H 1795.41 0.441175 4.19084 0
M  V30 18886 H 1794.14 -0.365401 3.24549 0
M  V30 18887 H 1792.8 1.76685 3.21213 0
M  V30 18888 H 1792.44 0.0849267 5.02928 0
M  V30 18889 H 1792.14 1.74144 5.61202 0
M  V30 18890 H 1793.67 0.911774 6.03754 0
M  V30 18891 H 1795.08 2.9026 4.94391 0
M  V30 18892 H 1793.48 3.66928 4.74852 0
M  V30 18893 H 1794.55 3.51168 3.34378 0
M  V30 18894 N 1795.89 -1.18905 1.03437 0
M  V30 18895 C 1797.12 -1.93219 0.753743 0
M  V30 18896 C 1797.54 -1.75299 -0.682055 0
M  V30 18897 O 1796.9 -1.05892 -1.47161 0
M  V30 18898 C 1796.95 -3.42864 1.117 0
M  V30 18899 O 1796.05 -4.11708 0.238816 0
M  V30 18900 H 1795.39 -0.603015 0.277973 0
M  V30 18901 H 1797.92 -1.50823 1.38252 0
M  V30 18902 H 1797.93 -3.9355 1.07623 0
M  V30 18903 H 1796.61 -3.55228 2.163 0
M  V30 18904 H 1795.18 -3.71359 0.338652 0
M  V30 18905 N 1797.37 -0.812977 -1.35013 0
M  V30 18906 C 1798.6 -0.409014 -2.02817 0
M  V30 18907 C 1799.01 0.982004 -1.61252 0
M  V30 18908 O 1798.37 1.63384 -0.813137 0
M  V30 18909 C 1798.42 -0.490117 -3.58162 0
M  V30 18910 O 1798.14 -1.8263 -3.98218 0
M  V30 18911 C 1799.64 -0.0797786 -4.43228 0
M  V30 18912 H 1796.86 -0.165356 -0.650306 0
M  V30 18913 H 1799.41 -1.09837 -1.72499 0
M  V30 18914 H 1797.56 0.151057 -3.87105 0
M  V30 18915 H 1797.98 -1.79356 -4.92881 0
M  V30 18916 H 1799.45 -0.18763 -5.51681 0
M  V30 18917 H 1799.93 0.975612 -4.28227 0
M  V30 18918 H 1800.53 -0.694359 -4.19594 0
M  V30 18919 N 1798.85 1.47045 -0.567045 0
M  V30 18920 C 1800.12 1.9559 0.0194544 0
M  V30 18921 C 1800.5 1.5097 1.47551 0
M  V30 18922 O 1799.85 0.753072 2.15734 0
M  V30 18923 C 1800.06 3.48734 -0.136263 0
M  V30 18924 C 1801.41 4.246 0.00401745 0
M  V30 18925 O 1802.43 3.56142 -0.0643042 0
M  V30 18926 O 1801.29 5.46287 0.152706 0
M  V30 18927 H 1798.39 0.82492 0.0586233 0
M  V30 18928 H 1800.93 1.57401 -0.634262 0
M  V30 18929 H 1799.71 3.74048 -1.14909 0
M  V30 18930 H 1799.33 3.93713 0.554612 0
M  V30 18931 N 1800.33 0.304 1.5464 0
M  V30 18932 C 1801.26 -0.604475 2.21085 0
M  V30 18933 C 1802.27 -1.0952 1.20454 0
M  V30 18934 O 1803.46 -1.01214 1.47031 0
M  V30 18935 C 1800.56 -1.8399 2.84607 0
M  V30 18936 C 1799.73 -1.49116 4.11197 0
M  V30 18937 C 1798.79 -2.58205 4.58494 0
M  V30 18938 O 1797.82 -2.23171 5.23625 0
M  V30 18939 N 1799.02 -3.88798 4.31065 0
M  V30 18940 H 1801.78 -0.035633 2.99679 0
M  V30 18941 H 1799.35 0.126332 1.61406 0
M  V30 18942 H 1801.34 -2.56322 3.13179 0
M  V30 18943 H 1799.91 -2.31706 2.09836 0
M  V30 18944 H 1799.13 -0.600347 3.89602 0
M  V30 18945 H 1800.42 -1.23358 4.93619 0
M  V30 18946 H 1799.81 -4.20068 3.78892 0
M  V30 18947 H 1798.37 -4.57419 4.6434 0
M  V30 18948 N 1801.8 -1.57568 0.0317802 0
M  V30 18949 C 1803.05 -1.91531 -0.645004 0
M  V30 18950 C 1803.37 -0.909042 -1.72515 0
M  V30 18951 O 1802.64 0.0490427 -1.95839 0
M  V30 18952 H 1801.22 -0.706976 -0.241236 0
M  V30 18953 H 1803.88 -1.94735 0.0802108 0
M  V30 18954 H 1802.98 -2.92221 -1.09604 0
M  V30 18955 N 1803.28 0.241399 -1.5574 0
M  V30 18956 C 1804.21 1.30255 -1.93793 0
M  V30 18957 C 1805.19 1.49923 -0.803563 0
M  V30 18958 O 1806.38 1.62439 -1.06429 0
M  V30 18959 C 1803.51 2.65625 -2.23742 0
M  V30 18960 C 1802.46 2.60645 -3.39483 0
M  V30 18961 C 1801.79 3.99861 -3.54986 0
M  V30 18962 C 1803.09 2.17151 -4.75019 0
M  V30 18963 H 1804.78 0.986532 -2.8268 0
M  V30 18964 H 1802.33 0.473125 -1.36006 0
M  V30 18965 H 1804.28 3.40001 -2.48953 0
M  V30 18966 H 1803.01 2.98874 -1.31688 0
M  V30 18967 H 1801.66 1.88727 -3.14289 0
M  V30 18968 H 1801.31 4.30385 -2.60342 0
M  V30 18969 H 1801.01 3.97415 -4.32822 0
M  V30 18970 H 1802.54 4.75928 -3.82524 0
M  V30 18971 H 1803.95 2.8126 -4.99565 0
M  V30 18972 H 1802.35 2.25805 -5.55996 0
M  V30 18973 H 1803.42 1.12329 -4.7171 0
M  V30 18974 N 1804.76 1.49212 0.507292 0
M  V30 18975 C 1806.01 1.58616 1.26368 0
M  V30 18976 C 1806.34 0.269215 1.92325 0
M  V30 18977 O 1805.61 -0.72672 1.80414 0
M  V30 18978 C 1805.9 2.74088 2.33555 0
M  V30 18979 C 1805.75 4.15557 1.7214 0
M  V30 18980 C 1807.07 2.85225 3.35164 0
M  V30 18981 H 1804.19 0.577347 0.458083 0
M  V30 18982 H 1806.83 1.81473 0.562797 0
M  V30 18983 H 1804.98 2.5473 2.93335 0
M  V30 18984 H 1806.65 4.46416 1.16236 0
M  V30 18985 H 1804.9 4.21498 1.02576 0
M  V30 18986 H 1805.57 4.92215 2.49856 0
M  V30 18987 H 1808.04 3.02828 2.85367 0
M  V30 18988 H 1806.92 3.67709 4.07531 0
M  V30 18989 H 1807.18 1.94316 3.97107 0
M  V30 18990 N 1806.24 -0.757876 1.38181 0
M  V30 18991 C 1807.17 -1.88108 1.3095 0
M  V30 18992 C 1808.18 -1.61272 0.222551 0
M  V30 18993 O 1809.37 -1.71931 0.479782 0
M  V30 18994 C 1806.47 -3.2365 1.00518 0
M  V30 18995 C 1805.65 -3.78024 2.20037 0
M  V30 18996 C 1804.7 -4.92073 1.86416 0
M  V30 18997 O 1803.73 -5.0693 2.58864 0
M  V30 18998 N 1804.93 -5.74728 0.816553 0
M  V30 18999 H 1807.7 -1.94823 2.27737 0
M  V30 19000 H 1805.26 -0.937616 1.31986 0
M  V30 19001 H 1807.25 -3.97483 0.760861 0
M  V30 19002 H 1805.82 -3.12348 0.125418 0
M  V30 19003 H 1805.04 -2.95807 2.60561 0
M  V30 19004 H 1806.33 -4.11085 2.99811 0
M  V30 19005 H 1805.73 -5.65289 0.215659 0
M  V30 19006 H 1804.28 -6.48728 0.63211 0
M  V30 19007 N 1807.72 -1.22979 -0.985586 0
M  V30 19008 C 1808.96 -1.0704 -1.72957 0
M  V30 19009 C 1809.32 0.389425 -1.88418 0
M  V30 19010 O 1808.61 1.28458 -1.42159 0
M  V30 19011 C 1808.8 -1.72346 -3.131 0
M  V30 19012 C 1808.63 -3.24528 -3.11307 0
M  V30 19013 C 1807.4 -3.93666 -3.16788 0
M  V30 19014 C 1809.6 -4.21366 -2.94882 0
M  V30 19015 N 1807.58 -5.32874 -3.04826 0
M  V30 19016 C 1808.95 -5.47452 -2.91026 0
M  V30 19017 C 1811.01 -4.12165 -2.79328 0
M  V30 19018 C 1809.71 -6.65394 -2.73209 0
M  V30 19019 C 1811.74 -5.29766 -2.62873 0
M  V30 19020 C 1811.1 -6.54774 -2.59711 0
M  V30 19021 H 1807.2 -0.446178 -0.642222 0
M  V30 19022 H 1809.78 -1.55631 -1.16992 0
M  V30 19023 H 1807.95 -1.26295 -3.67293 0
M  V30 19024 H 1809.69 -1.4943 -3.76102 0
M  V30 19025 H 1806.44 -3.44712 -3.24762 0
M  V30 19026 H 1806.87 -6.05842 -3.02134 0
M  V30 19027 H 1811.51 -3.16295 -2.80566 0
M  V30 19028 H 1809.23 -7.61406 -2.70716 0
M  V30 19029 H 1812.81 -5.24484 -2.51809 0
M  V30 19030 H 1811.69 -7.4424 -2.47136 0
M  V30 19031 N 1809.19 1.18355 -1.04066 0
M  V30 19032 C 1810.12 2.24196 -0.652568 0
M  V30 19033 C 1811.11 1.66581 0.344195 0
M  V30 19034 O 1812.29 1.929 0.224296 0
M  V30 19035 C 1809.42 3.47297 -0.0147409 0
M  V30 19036 C 1808.37 4.17661 -0.935044 0
M  V30 19037 C 1807.7 5.34455 -0.161692 0
M  V30 19038 C 1809 4.71153 -2.25415 0
M  V30 19039 H 1810.69 2.56914 -1.53738 0
M  V30 19040 H 1808.24 1.23492 -0.740658 0
M  V30 19041 H 1810.19 4.20544 0.268484 0
M  V30 19042 H 1808.92 3.13812 0.904949 0
M  V30 19043 H 1807.58 3.46312 -1.20265 0
M  V30 19044 H 1807.22 4.97219 0.760404 0
M  V30 19045 H 1806.92 5.82469 -0.774805 0
M  V30 19046 H 1808.45 6.10493 0.114515 0
M  V30 19047 H 1809.86 5.36095 -2.03163 0
M  V30 19048 H 1808.26 5.29701 -2.82022 0
M  V30 19049 H 1809.33 3.88576 -2.90064 0
M  V30 19050 N 1810.67 0.820125 1.3458 0
M  V30 19051 C 1811.6 0.197556 2.28347 0
M  V30 19052 C 1812.62 -0.610956 1.50901 0
M  V30 19053 O 1813.81 -0.441096 1.72964 0
M  V30 19054 C 1810.91 -0.741893 3.3068 0
M  V30 19055 C 1810.08 0.0231854 4.37394 0
M  V30 19056 C 1809.14 -0.83677 5.19504 0
M  V30 19057 O 1808.16 -0.282772 5.68497 0
M  V30 19058 N 1809.37 -2.15696 5.38939 0
M  V30 19059 H 1812.13 1.00314 2.82413 0
M  V30 19060 H 1809.69 0.676827 1.47074 0
M  V30 19061 H 1811.68 -1.32173 3.82508 0
M  V30 19062 H 1810.25 -1.44823 2.77029 0
M  V30 19063 H 1809.47 0.784316 3.86319 0
M  V30 19064 H 1810.76 0.549958 5.05819 0
M  V30 19065 H 1810.16 -2.63083 5.00803 0
M  V30 19066 H 1808.72 -2.68572 5.93896 0
M  V30 19067 N 1812.15 -1.46743 0.574835 0
M  V30 19068 C 1813.06 -2.34015 -0.16559 0
M  V30 19069 C 1814.08 -1.49273 -0.894064 0
M  V30 19070 O 1815.25 -1.82162 -0.859013 0
M  V30 19071 C 1812.32 -3.26313 -1.17136 0
M  V30 19072 C 1811.38 -4.26952 -0.448413 0
M  V30 19073 C 1810.61 -5.1484 -1.40627 0
M  V30 19074 O 1810.83 -5.05508 -2.6423 0
M  V30 19075 O 1809.77 -5.9481 -0.921143 0
M  V30 19076 H 1813.59 -2.98664 0.550754 0
M  V30 19077 H 1811.18 -1.45589 0.335297 0
M  V30 19078 H 1813.06 -3.83276 -1.75149 0
M  V30 19079 H 1811.74 -2.64269 -1.86931 0
M  V30 19080 H 1810.64 -3.73698 0.17336 0
M  V30 19081 H 1811.98 -4.91759 0.208419 0
M  V30 19082 N 1813.63 -0.312197 -1.54477 0
M  V30 19083 C 1814.56 0.551829 -2.26886 0
M  V30 19084 C 1815.54 1.12874 -1.27254 0
M  V30 19085 O 1816.72 1.15599 -1.56046 0
M  V30 19086 C 1813.85 1.71839 -3.01809 0
M  V30 19087 C 1812.81 1.27131 -4.08683 0
M  V30 19088 C 1812.13 2.52392 -4.71384 0
M  V30 19089 C 1813.43 0.394413 -5.20809 0
M  V30 19090 H 1815.13 -0.0521331 -2.99355 0
M  V30 19091 H 1812.67 -0.0265138 -1.43976 0
M  V30 19092 H 1814.63 2.32903 -3.5119 0
M  V30 19093 H 1813.35 2.34876 -2.26938 0
M  V30 19094 H 1812.01 0.683666 -3.60169 0
M  V30 19095 H 1811.66 3.13768 -3.93139 0
M  V30 19096 H 1811.36 2.23174 -5.43569 0
M  V30 19097 H 1812.88 3.14239 -5.23533 0
M  V30 19098 H 1814.3 0.911031 -5.66015 0
M  V30 19099 H 1812.69 0.195517 -5.99781 0
M  V30 19100 H 1813.76 -0.577661 -4.81447 0
M  V30 19101 N 1815.11 1.57549 -0.040136 0
M  V30 19102 C 1816.05 2.12048 0.955943 0
M  V30 19103 C 1817.05 1.04965 1.32962 0
M  V30 19104 O 1818.25 1.23387 1.31056 0
M  V30 19105 H 1814.63 0.677616 0.326099 0
M  V30 19106 H 1816.6 2.94658 0.471075 0
M  V30 19107 C 1815.35 2.67157 2.22537 0
M  V30 19108 H 1814.67 3.4921 1.9466 0
M  V30 19109 H 1816.11 3.08924 2.90417 0
M  V30 19110 C 1814.57 1.60413 2.96259 0
M  V30 19111 O 1815.1 1.01042 3.88785 0
M  V30 19112 N 1813.31 1.32196 2.58791 0
M  V30 19113 H 1812.85 1.80663 1.83626 0
M  V30 19114 H 1812.81 0.610023 3.08425 0
M  V30 19115 N 1816.58 -0.233136 1.55866 0
M  V30 19116 C 1817.83 -0.96064 1.78604 0
M  V30 19117 C 1818.16 -1.84444 0.607795 0
M  V30 19118 O 1817.44 -1.9048 -0.39342 0
M  V30 19119 C 1817.72 -1.80946 3.11337 0
M  V30 19120 C 1817.57 -0.952929 4.3959 0
M  V30 19121 C 1818.89 -2.78941 3.40411 0
M  V30 19122 H 1816.01 -0.347809 0.649767 0
M  V30 19123 H 1818.65 -0.230233 1.886 0
M  V30 19124 H 1816.8 -2.43219 3.02946 0
M  V30 19125 H 1818.48 -0.347831 4.59987 0
M  V30 19126 H 1816.72 -0.257846 4.33033 0
M  V30 19127 H 1817.39 -1.58096 5.28876 0
M  V30 19128 H 1819.87 -2.26804 3.48854 0
M  V30 19129 H 1818.74 -3.35443 4.34475 0
M  V30 19130 H 1819 -3.561 2.62003 0
M  V30 19131 N 1818.06 -1.49479 -0.499372 0
M  V30 19132 C 1819.34 -1.4955 -1.26071 0
M  V30 19133 C 1819.72 -0.224142 -2.09907 0
M  V30 19134 O 1819.07 0.793432 -2.14282 0
M  V30 19135 C 1819.28 -2.77534 -2.11604 0
M  V30 19136 C 1820.63 -3.27088 -2.70738 0
M  V30 19137 O 1821.65 -2.78662 -2.2187 0
M  V30 19138 O 1820.51 -4.11432 -3.59703 0
M  V30 19139 H 1817.6 -0.598631 -0.570587 0
M  V30 19140 H 1820.15 -1.61744 -0.513509 0
M  V30 19141 H 1818.92 -3.61556 -1.49642 0
M  V30 19142 H 1818.54 -2.68208 -2.93514 0
M  V30 19143 N 1819.54 0.750537 -1.38581 0
M  V30 19144 C 1820.77 1.54489 -1.38376 0
M  V30 19145 C 1821.19 1.88085 0.023634 0
M  V30 19146 O 1820.55 1.50794 1.00652 0
M  V30 19147 C 1820.6 2.81875 -2.24897 0
M  V30 19148 O 1819.7 3.77155 -1.66817 0
M  V30 19149 H 1819.04 0.467148 -0.471878 0
M  V30 19150 H 1821.57 0.927264 -1.82381 0
M  V30 19151 H 1821.58 3.30769 -2.38864 0
M  V30 19152 H 1820.26 2.56753 -3.27186 0
M  V30 19153 H 1818.83 3.35868 -1.62009 0
M  V30 19154 N 1821.02 1.235 0.979051 0
M  V30 19155 C 1822.27 1.0658 1.71713 0
M  V30 19156 C 1822.59 -0.397927 1.90897 0
M  V30 19157 O 1821.86 -1.28511 1.47857 0
M  V30 19158 H 1820.44 0.391397 0.636253 0
M  V30 19159 H 1823.1 1.55239 1.17843 0
M  V30 19160 H 1822.2 1.5548 2.70615 0
M  V30 19161 N 1822.5 -1.17802 1.04693 0
M  V30 19162 C 1823.73 -1.91867 0.774246 0
M  V30 19163 C 1824.14 -1.76534 -0.669425 0
M  V30 19164 O 1823.5 -1.09915 -1.45688 0
M  V30 19165 C 1823.55 -3.43086 1.13904 0
M  V30 19166 O 1823.27 -3.57943 2.52604 0
M  V30 19167 C 1824.77 -4.34238 0.891767 0
M  V30 19168 H 1821.99 -0.60892 0.281882 0
M  V30 19169 H 1824.53 -1.49414 1.39627 0
M  V30 19170 H 1822.69 -3.83304 0.561863 0
M  V30 19171 H 1823.1 -4.51599 2.66756 0
M  V30 19172 H 1824.58 -5.3887 1.1968 0
M  V30 19173 H 1825.05 -4.38858 -0.17323 0
M  V30 19174 H 1825.66 -3.99727 1.45254 0
M  V30 19175 N 1823.98 -0.827251 -1.34143 0
M  V30 19176 C 1825.22 -0.413762 -1.9741 0
M  V30 19177 C 1825.54 1.0297 -1.66303 0
M  V30 19178 O 1826.74 1.5473 -2.23094 0
M  V30 19179 C 1825.2 -0.688904 -3.53245 0
M  V30 19180 C 1824.81 -2.14627 -3.93242 0
M  V30 19181 C 1826.55 -0.341794 -4.23122 0
M  V30 19182 C 1824.46 -2.36607 -5.42006 0
M  V30 19183 H 1823.39 -0.150982 -0.738729 0
M  V30 19184 H 1826.04 -1.01421 -1.52925 0
M  V30 19185 H 1824.42 -0.0182319 -3.95996 0
M  V30 19186 H 1825.6 -2.85646 -3.61584 0
M  V30 19187 H 1823.91 -2.45523 -3.36314 0
M  V30 19188 H 1826.51 -0.483797 -5.32507 0
M  V30 19189 H 1826.85 0.714135 -4.10129 0
M  V30 19190 H 1827.38 -0.96722 -3.85862 0
M  V30 19191 H 1824.12 -3.40722 -5.5999 0
M  V30 19192 H 1823.64 -1.70137 -5.75164 0
M  V30 19193 H 1825.32 -2.19181 -6.08744 0
M  V30 19194 N 1825.45 1.46436 -0.582609 0
M  V30 19195 C 1826.39 2.28423 0.188509 0
M  V30 19196 C 1827.4 1.38506 0.855565 0
M  V30 19197 O 1828.59 1.63107 0.725145 0
M  V30 19198 C 1825.69 3.13537 1.28639 0
M  V30 19199 C 1824.86 4.31578 0.711275 0
M  V30 19200 C 1823.92 4.9809 1.69685 0
M  V30 19201 O 1822.95 5.55686 1.23294 0
M  V30 19202 N 1824.15 4.95091 3.03093 0
M  V30 19203 H 1826.91 2.95244 -0.514896 0
M  V30 19204 H 1824.47 1.56347 -0.420374 0
M  V30 19205 H 1826.47 3.54897 1.94499 0
M  V30 19206 H 1825.04 2.48792 1.89266 0
M  V30 19207 H 1824.26 3.94002 -0.124784 0
M  V30 19208 H 1825.54 5.07874 0.306822 0
M  V30 19209 H 1824.94 4.49542 3.43407 0
M  V30 19210 H 1823.5 5.40393 3.64443 0
M  V30 19211 N 1826.93 0.320385 1.54309 0
M  V30 19212 C 1827.86 -0.589487 2.20455 0
M  V30 19213 C 1828.84 -1.11816 1.1805 0
M  V30 19214 O 1830.03 -1.18276 1.46776 0
M  V30 19215 C 1827.15 -1.80854 2.86373 0
M  V30 19216 C 1826.2 -1.41139 4.0247 0
M  V30 19217 S 1827.03 -0.450803 5.33599 0
M  V30 19218 C 1828.19 -1.67721 6.03009 0
M  V30 19219 H 1828.42 -0.0275989 2.97287 0
M  V30 19220 H 1825.95 0.104475 1.54046 0
M  V30 19221 H 1827.91 -2.50803 3.24974 0
M  V30 19222 H 1826.57 -2.34161 2.0935 0
M  V30 19223 H 1825.77 -2.31969 4.47444 0
M  V30 19224 H 1825.37 -0.791646 3.65526 0
M  V30 19225 H 1827.66 -2.6151 6.24995 0
M  V30 19226 H 1828.6 -1.26968 6.96624 0
M  V30 19227 H 1829.01 -1.86274 5.32881 0
M  V30 19228 N 1828.41 -1.57525 0.0484906 0
M  V30 19229 C 1829.34 -2.14405 -0.924811 0
M  V30 19230 C 1830.32 -1.06503 -1.32631 0
M  V30 19231 O 1831.51 -1.3443 -1.4015 0
M  V30 19232 C 1828.64 -2.68686 -2.20057 0
M  V30 19233 C 1827.59 -3.81547 -1.93922 0
M  V30 19234 C 1826.92 -4.22334 -3.27929 0
M  V30 19235 C 1828.22 -5.06801 -1.26295 0
M  V30 19236 H 1829.91 -2.95983 -0.45105 0
M  V30 19237 H 1827.46 -1.42378 -0.215514 0
M  V30 19238 H 1829.41 -3.07117 -2.88543 0
M  V30 19239 H 1828.13 -1.84296 -2.69634 0
M  V30 19240 H 1826.79 -3.43585 -1.27848 0
M  V30 19241 H 1826.44 -3.34899 -3.75302 0
M  V30 19242 H 1826.14 -4.984 -3.11242 0
M  V30 19243 H 1827.66 -4.63363 -3.97652 0
M  V30 19244 H 1829.08 -5.42695 -1.84812 0
M  V30 19245 H 1827.47 -5.87991 -1.19943 0
M  V30 19246 H 1828.54 -4.84313 -0.238605 0
M  V30 19247 N 1829.89 0.224867 -1.55988 0
M  V30 19248 C 1830.82 1.28192 -1.95164 0
M  V30 19249 C 1831.8 1.49062 -0.81942 0
M  V30 19250 O 1832.98 1.61301 -1.08146 0
M  V30 19251 C 1830.11 2.63237 -2.26547 0
M  V30 19252 C 1829.07 2.57029 -3.42228 0
M  V30 19253 C 1828.39 3.96073 -3.59207 0
M  V30 19254 C 1829.69 2.12101 -4.77295 0
M  V30 19255 H 1831.39 0.956495 -2.8371 0
M  V30 19256 H 1828.93 0.458673 -1.365 0
M  V30 19257 H 1830.89 3.37341 -2.52545 0
M  V30 19258 H 1829.61 2.97461 -1.3485 0
M  V30 19259 H 1828.27 1.85382 -3.16273 0
M  V30 19260 H 1827.92 4.27599 -2.64892 0
M  V30 19261 H 1827.62 3.92802 -4.37013 0
M  V30 19262 H 1829.14 4.71844 -3.8755 0
M  V30 19263 H 1830.56 2.75946 -5.0252 0
M  V30 19264 H 1828.95 2.19895 -5.5836 0
M  V30 19265 H 1830.02 1.07319 -4.72875 0
M  V30 19266 N 1831.37 1.49742 0.491438 0
M  V30 19267 C 1832.31 1.67614 1.61271 0
M  V30 19268 C 1833.31 0.542004 1.60495 0
M  V30 19269 O 1834.51 0.721922 1.64889 0
M  V30 19270 H 1830.89 0.528696 0.534775 0
M  V30 19271 H 1832.86 2.61711 1.43352 0
M  V30 19272 C 1831.61 1.76877 2.99349 0
M  V30 19273 H 1830.93 2.63526 3.00656 0
M  V30 19274 H 1832.37 1.93414 3.77315 0
M  V30 19275 C 1830.83 0.515719 3.32929 0
M  V30 19276 O 1831.36 -0.354312 4.00134 0
M  V30 19277 N 1829.57 0.3758 2.8816 0
M  V30 19278 H 1829.11 1.08481 2.33644 0
M  V30 19279 H 1829.07 -0.461494 3.10995 0
M  V30 19280 N 1832.84 -0.743177 1.38977 0
M  V30 19281 C 1833.79 -1.84801 1.33539 0
M  V30 19282 C 1834.78 -1.5942 0.217733 0
M  V30 19283 O 1835.97 -1.71063 0.454585 0
M  V30 19284 C 1833.1 -3.22635 1.1731 0
M  V30 19285 C 1832.19 -3.53872 2.33741 0
M  V30 19286 N 1832.58 -3.56099 3.59204 0
M  V30 19287 C 1830.87 -3.84193 2.26521 0
M  V30 19288 C 1831.58 -3.849 4.3615 0
M  V30 19289 N 1830.55 -4.02259 3.65634 0
M  V30 19290 H 1834.35 -1.84816 2.28518 0
M  V30 19291 H 1831.87 -0.941033 1.32357 0
M  V30 19292 H 1833.86 -4.01714 1.11497 0
M  V30 19293 H 1832.52 -3.23865 0.232735 0
M  V30 19294 H 1833.54 -3.37607 3.92736 0
M  V30 19295 H 1830.21 -3.93077 1.40701 0
M  V30 19296 H 1831.6 -3.93158 5.44863 0
M  V30 19297 N 1834.32 -1.24018 -0.972487 0
M  V30 19298 C 1835.55 -1.10483 -1.75523 0
M  V30 19299 C 1835.97 0.338985 -1.8502 0
M  V30 19300 O 1835.33 1.24534 -1.31761 0
M  V30 19301 C 1835.38 -1.74396 -3.15624 0
M  V30 19302 O 1834.48 -1.01148 -3.99804 0
M  V30 19303 H 1833.82 -0.386777 -0.539722 0
M  V30 19304 H 1836.35 -1.64231 -1.22022 0
M  V30 19305 H 1836.36 -1.79958 -3.66168 0
M  V30 19306 H 1835.04 -2.7945 -3.08026 0
M  V30 19307 H 1833.62 -1.03338 -3.58296 0
M  V30 19308 N 1835.8 1.17245 -1.05316 0
M  V30 19309 C 1837.05 1.87536 -0.76398 0
M  V30 19310 C 1837.38 1.81115 0.709049 0
M  V30 19311 O 1836.63 1.21473 1.53437 0
M  V30 19312 C 1836.93 3.36958 -1.19138 0
M  V30 19313 C 1836.6 3.63581 -2.66683 0
M  V30 19314 C 1835.26 3.70556 -3.06988 0
M  V30 19315 C 1837.61 3.74954 -3.62021 0
M  V30 19316 C 1834.94 3.86396 -4.41492 0
M  V30 19317 C 1837.29 3.92313 -4.9626 0
M  V30 19318 C 1835.95 3.97527 -5.36217 0
M  V30 19319 H 1835.22 0.686241 -0.27956 0
M  V30 19320 H 1837.87 1.38694 -1.32047 0
M  V30 19321 H 1836.18 3.87865 -0.55391 0
M  V30 19322 H 1837.87 3.8971 -0.944815 0
M  V30 19323 H 1834.46 3.58778 -2.34471 0
M  V30 19324 H 1838.65 3.68885 -3.3202 0
M  V30 19325 H 1833.9 3.88681 -4.7195 0
M  V30 19326 H 1838.08 4.00055 -5.70026 0
M  V30 19327 H 1835.7 4.09553 -6.40445 0
M  V30 19328 N 1837.28 0.834353 1.33702 0
M  V30 19329 C 1838.51 0.441228 2.02141 0
M  V30 19330 C 1838.92 -0.956226 1.62794 0
M  V30 19331 O 1838.28 -1.6207 0.839027 0
M  V30 19332 C 1838.33 0.547035 3.57337 0
M  V30 19333 O 1838.05 1.88942 3.95262 0
M  V30 19334 C 1839.55 0.150282 4.43045 0
M  V30 19335 H 1836.77 0.175681 0.647593 0
M  V30 19336 H 1839.32 1.12568 1.7073 0
M  V30 19337 H 1837.47 -0.0894532 3.87297 0
M  V30 19338 H 1837.88 1.87174 4.89965 0
M  V30 19339 H 1839.36 0.275374 5.51313 0
M  V30 19340 H 1839.84 -0.907361 4.29725 0
M  V30 19341 H 1840.44 0.761025 4.18436 0
M  V30 19342 N 1838.76 -1.46125 0.590367 0
M  V30 19343 C 1839.69 -2.33159 -0.126114 0
M  V30 19344 C 1840.67 -1.45806 -0.876057 0
M  V30 19345 O 1841.85 -1.7461 -0.850009 0
M  V30 19346 C 1838.98 -3.28217 -1.13537 0
M  V30 19347 C 1837.94 -4.25072 -0.499773 0
M  V30 19348 C 1837.26 -5.09694 -1.61605 0
M  V30 19349 C 1838.56 -5.19202 0.567992 0
M  V30 19350 H 1840.26 -2.93315 0.600577 0
M  V30 19351 H 1837.8 -1.41044 0.290265 0
M  V30 19352 H 1839.76 -3.87965 -1.64503 0
M  V30 19353 H 1838.48 -2.66185 -1.89244 0
M  V30 19354 H 1837.14 -3.66598 -0.0111313 0
M  V30 19355 H 1836.79 -4.44041 -2.36297 0
M  V30 19356 H 1836.49 -5.75292 -1.19637 0
M  V30 19357 H 1838.01 -5.72307 -2.12832 0
M  V30 19358 H 1839.42 -5.73121 0.143102 0
M  V30 19359 H 1837.82 -5.93184 0.908428 0
M  V30 19360 H 1838.89 -4.62671 1.45133 0
M  V30 19361 N 1840.23 -0.328564 -1.54137 0
M  V30 19362 C 1841.18 0.550772 -2.21248 0
M  V30 19363 C 1842.17 1.07776 -1.19471 0
M  V30 19364 O 1843.36 1.01395 -1.4508 0
M  V30 19365 C 1840.49 1.70871 -2.97755 0
M  V30 19366 C 1839.58 1.19638 -4.06875 0
M  V30 19367 N 1839.97 0.404108 -5.04183 0
M  V30 19368 C 1838.26 1.47465 -4.20916 0
M  V30 19369 C 1838.97 0.127848 -5.81559 0
M  V30 19370 N 1837.94 0.715362 -5.38872 0
M  V30 19371 H 1841.74 -0.0617731 -2.93835 0
M  V30 19372 H 1839.26 -0.13467 -1.61841 0
M  V30 19373 H 1841.25 2.35048 -3.44322 0
M  V30 19374 H 1839.91 2.32468 -2.26691 0
M  V30 19375 H 1840.93 0.046507 -5.17879 0
M  V30 19376 H 1837.6 2.0961 -3.61067 0
M  V30 19377 H 1838.99 -0.510286 -6.69959 0
M  V30 19378 N 1841.71 1.57497 -0.0568439 0
M  V30 19379 C 1842.94 1.97231 0.625102 0
M  V30 19380 C 1843.36 0.934622 1.64043 0
M  V30 19381 O 1842.71 -0.0805064 1.82322 0
M  V30 19382 C 1842.76 3.37046 1.30698 0
M  V30 19383 O 1842.48 4.36838 0.332302 0
M  V30 19384 C 1843.99 3.9157 2.07816 0
M  V30 19385 H 1841.21 0.648975 0.170505 0
M  V30 19386 H 1843.75 2.04119 -0.124823 0
M  V30 19387 H 1841.9 3.31292 2.0081 0
M  V30 19388 H 1842.32 5.18055 0.819691 0
M  V30 19389 H 1843.79 4.91664 2.5094 0
M  V30 19390 H 1844.27 3.27303 2.92864 0
M  V30 19391 H 1844.88 4.0068 1.42603 0
M  V30 19392 N 1843.19 -0.216591 1.56105 0
M  V30 19393 C 1844.12 -1.27155 1.95841 0
M  V30 19394 C 1845.1 -1.48626 0.827313 0
M  V30 19395 O 1846.29 -1.60725 1.09 0
M  V30 19396 C 1843.42 -2.62032 2.27939 0
M  V30 19397 C 1842.37 -2.55211 3.43586 0
M  V30 19398 C 1841.7 -3.94163 3.61303 0
M  V30 19399 C 1843 -2.09566 4.78413 0
M  V30 19400 H 1844.69 -0.941435 2.84214 0
M  V30 19401 H 1842.24 -0.451427 1.36741 0
M  V30 19402 H 1844.19 -3.35997 2.5433 0
M  V30 19403 H 1842.91 -2.96742 1.36426 0
M  V30 19404 H 1841.57 -1.83703 3.17252 0
M  V30 19405 H 1841.22 -4.26188 2.67156 0
M  V30 19406 H 1840.92 -3.90479 4.3909 0
M  V30 19407 H 1842.44 -4.69782 3.90047 0
M  V30 19408 H 1843.86 -2.73277 5.03977 0
M  V30 19409 H 1842.26 -2.16931 5.59518 0
M  V30 19410 H 1843.33 -1.0481 4.73437 0
M  V30 19411 N 1844.67 -1.5 -0.48349 0
M  V30 19412 C 1845.6 -1.70879 -1.5913 0
M  V30 19413 C 1846.58 -0.557606 -1.60701 0
M  V30 19414 O 1847.76 -0.79539 -1.77164 0
M  V30 19415 C 1844.89 -1.7915 -2.97527 0
M  V30 19416 C 1843.85 -2.94233 -3.10823 0
M  V30 19417 C 1843.17 -2.87634 -4.50745 0
M  V30 19418 C 1844.47 -4.34925 -2.89202 0
M  V30 19419 H 1846.17 -2.63632 -1.41911 0
M  V30 19420 H 1843.71 -1.26865 -0.68127 0
M  V30 19421 H 1845.67 -1.92342 -3.74943 0
M  V30 19422 H 1844.39 -0.830106 -3.15875 0
M  V30 19423 H 1843.05 -2.80672 -2.35837 0
M  V30 19424 H 1842.7 -1.89365 -4.65993 0
M  V30 19425 H 1842.4 -3.64885 -4.60579 0
M  V30 19426 H 1843.92 -3.02857 -5.30198 0
M  V30 19427 H 1845.34 -4.49076 -3.56376 0
M  V30 19428 H 1843.73 -5.13531 -3.10492 0
M  V30 19429 H 1844.8 -4.48154 -1.85165 0
M  V30 19430 N 1846.15 0.735796 -1.39369 0
M  V30 19431 C 1847.37 1.52504 -1.39822 0
M  V30 19432 C 1847.79 1.88799 0.00747346 0
M  V30 19433 O 1847.15 1.54044 0.978611 0
M  V30 19434 C 1847.2 2.8131 -2.27039 0
M  V30 19435 O 1846.92 2.46557 -3.62134 0
M  V30 19436 C 1848.42 3.75343 -2.35866 0
M  V30 19437 H 1845.64 0.471306 -0.47761 0
M  V30 19438 H 1848.18 0.909257 -1.83174 0
M  V30 19439 H 1846.34 3.39222 -1.87102 0
M  V30 19440 H 1846.75 3.29294 -4.08247 0
M  V30 19441 H 1848.23 4.6262 -3.01142 0
M  V30 19442 H 1848.7 4.17036 -1.37758 0
M  V30 19443 H 1849.31 3.2335 -2.7627 0
M  V30 19444 N 1847.63 1.24532 0.965897 0
M  V30 19445 C 1848.86 1.11157 1.74148 0
M  V30 19446 C 1849.26 -0.338542 1.86147 0
M  V30 19447 O 1848.61 -1.2453 1.35048 0
M  V30 19448 C 1848.67 1.67951 3.17856 0
M  V30 19449 C 1848.33 3.16851 3.29324 0
M  V30 19450 C 1849.33 4.13979 3.14512 0
M  V30 19451 C 1847.01 3.56845 3.53507 0
M  V30 19452 C 1849.01 5.49082 3.2371 0
M  V30 19453 C 1846.7 4.92089 3.62342 0
M  V30 19454 C 1847.69 5.88016 3.47456 0
M  V30 19455 O 1847.38 7.20801 3.55952 0
M  V30 19456 H 1847.11 0.388973 0.55288 0
M  V30 19457 H 1849.67 1.65155 1.22119 0
M  V30 19458 H 1847.9 1.08389 3.71199 0
M  V30 19459 H 1849.59 1.49839 3.77231 0
M  V30 19460 H 1850.35 3.84422 2.95711 0
M  V30 19461 H 1846.23 2.82683 3.64159 0
M  V30 19462 H 1849.78 6.23937 3.12008 0
M  V30 19463 H 1845.67 5.21316 3.80657 0
M  V30 19464 H 1846.44 7.28746 3.72655 0
M  V30 19465 N 1849.1 -1.16685 1.05936 0
M  V30 19466 C 1850.07 -2.19155 0.671098 0
M  V30 19467 C 1851.07 -1.5832 -0.281305 0
M  V30 19468 O 1852.26 -1.74082 -0.0641708 0
M  V30 19469 C 1849.39 -3.40897 -0.0131101 0
M  V30 19470 H 1850.58 -2.55019 1.57815 0
M  V30 19471 H 1848.13 -1.30897 0.854147 0
M  V30 19472 H 1848.87 -3.10587 -0.933077 0
M  V30 19473 H 1848.65 -3.86304 0.671687 0
M  V30 19474 H 1850.14 -4.16722 -0.270606 0
M  V30 19475 N 1850.58 -0.841432 -1.33258 0
M  V30 19476 C 1851.81 -0.451942 -2.01904 0
M  V30 19477 C 1852.22 0.94758 -1.63298 0
M  V30 19478 O 1851.58 1.61622 -0.847611 0
M  V30 19479 C 1851.63 -0.565978 -3.57042 0
M  V30 19480 O 1851.35 -1.91036 -3.94255 0
M  V30 19481 C 1852.85 -0.173776 -4.42959 0
M  V30 19482 H 1850.07 -0.179113 -0.646653 0
M  V30 19483 H 1852.62 -1.13472 -1.70131 0
M  V30 19484 H 1850.77 0.0689126 -3.87339 0
M  V30 19485 H 1851.19 -1.8977 -4.88966 0
M  V30 19486 H 1852.66 -0.304608 -5.51159 0
M  V30 19487 H 1853.14 0.884559 -4.302 0
M  V30 19488 H 1853.74 -0.783205 -4.18026 0
M  V30 19489 N 1852.06 1.4581 -0.598108 0
M  V30 19490 C 1853.48 1.57452 -0.260993 0
M  V30 19491 C 1853.68 1.59093 1.2366 0
M  V30 19492 O 1852.73 1.51614 2.01915 0
M  V30 19493 C 1854.04 2.86158 -0.923801 0
M  V30 19494 C 1855.59 2.99817 -0.89883 0
M  V30 19495 C 1856.07 4.3128 -1.54147 0
M  V30 19496 N 1857.56 4.38016 -1.50652 0
M  V30 19497 C 1858.29 5.38387 -1.973 0
M  V30 19498 N 1857.79 6.45347 -2.51991 0
M  V30 19499 N 1859.58 5.29684 -1.88124 0
M  V30 19500 H 1851.73 1.42988 -1.57061 0
M  V30 19501 H 1854 0.683038 -0.657391 0
M  V30 19502 H 1853.7 2.90812 -1.97791 0
M  V30 19503 H 1853.58 3.74609 -0.441318 0
M  V30 19504 H 1855.96 2.94735 0.146702 0
M  V30 19505 H 1856.04 2.12801 -1.41949 0
M  V30 19506 H 1855.69 4.3712 -2.58628 0
M  V30 19507 H 1855.62 5.17097 -0.995911 0
M  V30 19508 H 1858.11 3.61326 -1.1069 0
M  V30 19509 H 1858.42 7.18168 -2.85403 0
M  V30 19510 H 1856.77 6.46124 -2.56025 0
M  V30 19511 H 1859.96 4.45029 -1.45144 0
M  V30 19512 H 1860.13 6.0776 -2.24793 0
M  V30 19513 N 1853.54 0.336733 1.53961 0
M  V30 19514 C 1854.81 -0.316794 1.93018 0
M  V30 19515 C 1855.19 -1.68802 1.26764 0
M  V30 19516 O 1854.54 -2.2468 0.416094 0
M  V30 19517 C 1854.75 -0.395878 3.46747 0
M  V30 19518 C 1856.1 -0.649946 4.19596 0
M  V30 19519 O 1857.12 -0.47827 3.52975 0
M  V30 19520 O 1855.98 -0.982035 5.37604 0
M  V30 19521 H 1853.08 -0.183442 0.806398 0
M  V30 19522 H 1855.62 0.387412 1.65219 0
M  V30 19523 H 1854.4 0.56665 3.87175 0
M  V30 19524 H 1854.02 -1.14714 3.80692 0
M  V30 19525 N 1855.02 -1.57465 0.0651956 0
M  V30 19526 C 1856.29 -1.84622 -0.646065 0
M  V30 19527 C 1856.67 -0.956374 -1.88193 0
M  V30 19528 O 1856.02 -0.0209666 -2.2849 0
M  V30 19529 C 1856.23 -3.34664 -0.990013 0
M  V30 19530 C 1857.58 -4.02016 -1.36632 0
M  V30 19531 O 1858.6 -3.39371 -1.08194 0
M  V30 19532 O 1857.46 -5.12496 -1.89764 0
M  V30 19533 H 1854.56 -0.762482 -0.320236 0
M  V30 19534 H 1857.1 -1.6943 0.0956254 0
M  V30 19535 H 1855.87 -3.9114 -0.111977 0
M  V30 19536 H 1855.5 -3.55094 -1.78869 0
M  V30 19537 N 1856.49 0.20831 -1.56217 0
M  V30 19538 C 1857.42 1.26115 -1.96513 0
M  V30 19539 C 1858.4 1.48185 -0.835183 0
M  V30 19540 O 1859.59 1.60145 -1.09851 0
M  V30 19541 C 1856.72 2.6082 -2.29326 0
M  V30 19542 C 1855.67 2.53385 -3.44935 0
M  V30 19543 C 1855 3.92241 -3.63388 0
M  V30 19544 C 1856.3 2.07026 -4.79518 0
M  V30 19545 H 1857.99 0.92635 -2.84709 0
M  V30 19546 H 1855.54 0.444169 -1.36979 0
M  V30 19547 H 1857.49 3.34644 -2.56109 0
M  V30 19548 H 1856.22 2.96014 -1.37997 0
M  V30 19549 H 1854.88 1.82018 -3.18222 0
M  V30 19550 H 1854.52 4.24766 -2.69413 0
M  V30 19551 H 1854.22 3.88145 -4.41154 0
M  V30 19552 H 1855.75 4.67707 -3.92533 0
M  V30 19553 H 1857.16 2.70601 -5.05419 0
M  V30 19554 H 1855.56 2.13961 -5.60661 0
M  V30 19555 H 1856.63 1.02298 -4.73986 0
M  V30 19556 N 1857.97 1.50255 0.475528 0
M  V30 19557 C 1859.22 1.60263 1.22468 0
M  V30 19558 C 1859.53 0.306389 1.93185 0
M  V30 19559 O 1860.74 0.285331 2.69997 0
M  V30 19560 C 1859.2 2.82876 2.22506 0
M  V30 19561 C 1858.8 4.19359 1.57612 0
M  V30 19562 C 1860.55 3.02228 2.98091 0
M  V30 19563 C 1858.45 5.33164 2.55911 0
M  V30 19564 H 1857.38 0.596804 0.460804 0
M  V30 19565 H 1860.04 1.76679 0.495653 0
M  V30 19566 H 1858.42 2.6001 2.98682 0
M  V30 19567 H 1859.59 4.52463 0.872559 0
M  V30 19568 H 1857.91 4.05576 0.943247 0
M  V30 19569 H 1860.5 3.84422 3.7165 0
M  V30 19570 H 1860.85 2.13781 3.57216 0
M  V30 19571 H 1861.38 3.25255 2.29029 0
M  V30 19572 H 1858.12 6.23751 2.01531 0
M  V30 19573 H 1857.64 5.04484 3.24432 0
M  V30 19574 H 1859.32 5.63554 3.17829 0
M  V30 19575 N 1859.45 -0.728395 1.39758 0
M  V30 19576 C 1860.68 -1.5154 1.40425 0
M  V30 19577 C 1861.09 -1.892 -0.00123953 0
M  V30 19578 O 1860.43 -1.55086 -0.984575 0
M  V30 19579 C 1860.49 -2.8282 2.2193 0
M  V30 19580 C 1860.16 -2.67557 3.70489 0
M  V30 19581 C 1861.15 -2.35665 4.6342 0
M  V30 19582 C 1858.84 -2.84221 4.14154 0
M  V30 19583 C 1860.83 -2.20628 5.97998 0
M  V30 19584 C 1858.52 -2.68803 5.48806 0
M  V30 19585 C 1859.52 -2.37053 6.40543 0
M  V30 19586 O 1859.21 -2.21738 7.72714 0
M  V30 19587 H 1858.94 -0.474672 0.481313 0
M  V30 19588 H 1861.49 -0.907176 1.84281 0
M  V30 19589 H 1859.72 -3.45927 1.72833 0
M  V30 19590 H 1861.41 -3.44472 2.14695 0
M  V30 19591 H 1862.18 -2.22435 4.30985 0
M  V30 19592 H 1858.06 -3.07925 3.43079 0
M  V30 19593 H 1861.6 -1.95768 6.69567 0
M  V30 19594 H 1857.5 -2.81614 5.8083 0
M  V30 19595 H 1858.26 -2.36758 7.8351 0
M  V30 19596 N 1860.93 -1.25042 -0.959279 0
M  V30 19597 C 1862.16 -1.12242 -1.73809 0
M  V30 19598 C 1862.57 0.324251 -1.85995 0
M  V30 19599 O 1861.93 1.22328 -1.35433 0
M  V30 19600 C 1861.98 -1.76603 -3.15426 0
M  V30 19601 O 1861.7 -3.15614 -3.03841 0
M  V30 19602 C 1863.2 -1.69522 -4.09606 0
M  V30 19603 H 1860.42 -0.39173 -0.544783 0
M  V30 19604 H 1862.96 -1.65314 -1.2038 0
M  V30 19605 H 1861.12 -1.27512 -3.65813 0
M  V30 19606 H 1861.53 -3.47186 -3.93144 0
M  V30 19607 H 1863.01 -2.19223 -5.06602 0
M  V30 19608 H 1863.48 -0.658074 -4.34242 0
M  V30 19609 H 1864.09 -2.18079 -3.65133 0
M  V30 19610 N 1862.41 1.16121 -1.06553 0
M  V30 19611 C 1863.82 1.38705 -0.789497 0
M  V30 19612 C 1864.02 1.92046 0.609975 0
M  V30 19613 O 1863.08 2.12096 1.37009 0
M  V30 19614 C 1864.39 2.36541 -1.85658 0
M  V30 19615 C 1865.94 2.5022 -1.88039 0
M  V30 19616 C 1866.41 3.51341 -2.93809 0
M  V30 19617 N 1867.91 3.5887 -2.92859 0
M  V30 19618 C 1868.64 4.3691 -3.71346 0
M  V30 19619 N 1868.14 5.1835 -4.59657 0
M  V30 19620 N 1869.93 4.31918 -3.59726 0
M  V30 19621 H 1862.08 0.798355 -1.96825 0
M  V30 19622 H 1864.34 0.41349 -0.853071 0
M  V30 19623 H 1864.05 2.04447 -2.86172 0
M  V30 19624 H 1863.92 3.36221 -1.70983 0
M  V30 19625 H 1866.31 2.81617 -0.881822 0
M  V30 19626 H 1866.39 1.50567 -2.06793 0
M  V30 19627 H 1866.04 3.20681 -3.93861 0
M  V30 19628 H 1865.97 4.50731 -2.72304 0
M  V30 19629 H 1868.46 3.00735 -2.28838 0
M  V30 19630 H 1868.77 5.75119 -5.16196 0
M  V30 19631 H 1867.11 5.17684 -4.63711 0
M  V30 19632 H 1870.31 3.67355 -2.90117 0
M  V30 19633 H 1870.48 4.92491 -4.21137 0
M  V30 19634 N 1863.88 0.848487 1.3281 0
M  V30 19635 C 1865.13 0.445116 1.96727 0
M  V30 19636 C 1865.45 -1.00311 1.6792 0
M  V30 19637 O 1866.65 -1.51162 2.25527 0
M  V30 19638 C 1865.11 0.745015 3.52104 0
M  V30 19639 C 1864.72 2.20856 3.89778 0
M  V30 19640 C 1866.46 0.409065 4.22524 0
M  V30 19641 C 1864.37 2.452 5.38174 0
M  V30 19642 H 1863.3 0.162715 0.736233 0
M  V30 19643 H 1865.95 1.03841 1.51292 0
M  V30 19644 H 1864.33 0.0812291 3.95917 0
M  V30 19645 H 1865.5 2.91362 3.56994 0
M  V30 19646 H 1863.82 2.50842 3.32366 0
M  V30 19647 H 1866.42 0.568453 5.3167 0
M  V30 19648 H 1866.76 -0.648796 4.11213 0
M  V30 19649 H 1867.29 1.02848 3.84275 0
M  V30 19650 H 1864.03 3.49588 5.54499 0
M  V30 19651 H 1863.55 1.79265 5.72384 0
M  V30 19652 H 1865.23 2.28838 6.0518 0
M  V30 19653 N 1865.36 -1.4549 0.605832 0
M  V30 19654 C 1866.78 -1.57311 0.269339 0
M  V30 19655 C 1866.98 -1.59746 -1.22814 0
M  V30 19656 O 1866.03 -1.52682 -2.01108 0
M  V30 19657 C 1867.35 -2.85664 0.938963 0
M  V30 19658 C 1868.9 -2.99336 0.914717 0
M  V30 19659 C 1869.37 -4.30457 1.56432 0
M  V30 19660 N 1870.86 -4.37211 1.52973 0
M  V30 19661 C 1871.6 -5.37333 2.00152 0
M  V30 19662 N 1871.09 -6.44001 2.5541 0
M  V30 19663 N 1872.89 -5.28679 1.90931 0
M  V30 19664 H 1865.04 -1.42153 1.57817 0
M  V30 19665 H 1867.3 -0.679542 0.661004 0
M  V30 19666 H 1867.01 -2.89759 1.9933 0
M  V30 19667 H 1866.88 -3.7437 0.461178 0
M  V30 19668 H 1869.27 -2.94809 -0.131069 0
M  V30 19669 H 1869.35 -2.12045 1.43075 0
M  V30 19670 H 1868.99 -4.35742 2.60942 0
M  V30 19671 H 1868.92 -5.16561 1.02332 0
M  V30 19672 H 1871.41 -3.60733 1.12605 0
M  V30 19673 H 1871.73 -7.16644 2.89208 0
M  V30 19674 H 1870.07 -6.44757 2.59448 0
M  V30 19675 H 1873.26 -4.44253 1.47502 0
M  V30 19676 H 1873.43 -6.06559 2.28013 0
M  V30 19677 N 1866.84 -0.344893 -1.5378 0
M  V30 19678 C 1868.09 0.250711 -2.00539 0
M  V30 19679 C 1868.41 1.5096 -1.23435 0
M  V30 19680 O 1867.68 1.92893 -0.341893 0
M  V30 19681 H 1866.26 0.0956318 -0.740853 0
M  V30 19682 H 1868.92 -0.466361 -1.89238 0
M  V30 19683 H 1868.02 0.49222 -3.08194 0
M  V30 19684 N 1868.32 1.57428 -0.0735454 0
M  V30 19685 C 1869.57 1.93174 0.593996 0
M  V30 19686 C 1869.89 0.954462 1.70044 0
M  V30 19687 O 1869.16 0.00289765 1.959 0
M  V30 19688 H 1867.74 0.713123 0.222407 0
M  V30 19689 H 1870.4 1.94454 -0.131813 0
M  V30 19690 H 1869.5 2.95025 1.01818 0
M  V30 19691 N 1869.8 -0.200022 1.56326 0
M  V30 19692 C 1870.73 -1.27579 1.89206 0
M  V30 19693 C 1871.71 -1.44185 0.751625 0
M  V30 19694 O 1872.89 -1.59654 1.00214 0
M  V30 19695 C 1870.02 -2.64312 2.11794 0
M  V30 19696 C 1869.06 -2.64603 3.34496 0
M  V30 19697 S 1869.9 -2.16526 4.89772 0
M  V30 19698 C 1871.05 -3.55092 5.15422 0
M  V30 19699 H 1871.29 -0.99499 2.80156 0
M  V30 19700 H 1868.82 -0.403286 1.4904 0
M  V30 19701 H 1870.78 -3.43022 2.25491 0
M  V30 19702 H 1869.44 -2.89606 1.21603 0
M  V30 19703 H 1868.63 -3.65131 3.47412 0
M  V30 19704 H 1868.23 -1.93972 3.19767 0
M  V30 19705 H 1870.53 -4.50925 5.05641 0
M  V30 19706 H 1871.47 -3.47075 6.17207 0
M  V30 19707 H 1871.88 -3.49777 4.43076 0
M  V30 19708 N 1871.27 -1.50505 -0.467553 0
M  V30 19709 C 1872.52 -1.6191 -1.22118 0
M  V30 19710 C 1872.85 -0.320112 -1.91544 0
M  V30 19711 O 1872.13 0.678631 -1.82277 0
M  V30 19712 C 1872.41 -2.80184 -2.26206 0
M  V30 19713 C 1872.26 -4.19975 -1.61062 0
M  V30 19714 C 1873.58 -2.94011 -3.27484 0
M  V30 19715 H 1870.7 -0.589289 -0.442615 0
M  V30 19716 H 1873.34 -1.82902 -0.514484 0
M  V30 19717 H 1871.49 -2.62417 -2.86478 0
M  V30 19718 H 1873.17 -4.4934 -1.04359 0
M  V30 19719 H 1871.41 -4.24069 -0.91365 0
M  V30 19720 H 1872.08 -4.98667 -2.36718 0
M  V30 19721 H 1874.56 -3.10288 -2.77238 0
M  V30 19722 H 1873.43 -3.78384 -3.97639 0
M  V30 19723 H 1873.69 -2.04777 -3.91815 0
M  V30 19724 N 1872.75 0.720973 -1.40142 0
M  V30 19725 C 1873.99 1.49327 -1.39573 0
M  V30 19726 C 1874.36 1.91999 0.00451559 0
M  V30 19727 O 1875.56 2.68459 0.135289 0
M  V30 19728 C 1873.83 2.69014 -2.35301 0
M  V30 19729 S 1875.39 3.58489 -2.53043 0
M  V30 19730 H 1872.21 0.510609 -0.494773 0
M  V30 19731 H 1874.81 0.843571 -1.76364 0
M  V30 19732 H 1873.51 2.35827 -3.35878 0
M  V30 19733 H 1873.04 3.389 -1.99775 0
M  V30 19734 H 1875.06 4.6322 -1.77882 0
M  V30 19735 N 1874.23 1.25549 0.952634 0
M  V30 19736 C 1875.65 1.02414 1.22407 0
M  V30 19737 C 1875.85 -0.257807 1.99844 0
M  V30 19738 O 1874.9 -0.969999 2.33125 0
M  V30 19739 C 1876.22 2.24856 1.9965 0
M  V30 19740 C 1877.76 2.29638 2.12686 0
M  V30 19741 C 1878.24 3.51742 2.93329 0
M  V30 19742 N 1879.73 3.5215 3.00907 0
M  V30 19743 C 1880.46 4.43292 3.63703 0
M  V30 19744 N 1879.96 5.44709 4.28094 0
M  V30 19745 N 1881.75 4.30969 3.60863 0
M  V30 19746 H 1873.9 2.07905 0.434647 0
M  V30 19747 H 1876.17 0.913124 0.254772 0
M  V30 19748 H 1875.87 3.18037 1.5015 0
M  V30 19749 H 1875.75 2.28188 3.0035 0
M  V30 19750 H 1878.13 1.36978 2.61383 0
M  V30 19751 H 1878.22 2.30324 1.11285 0
M  V30 19752 H 1877.86 4.44724 2.45322 0
M  V30 19753 H 1877.79 3.48301 3.9496 0
M  V30 19754 H 1880.28 2.78789 2.55118 0
M  V30 19755 H 1880.59 6.10462 4.73873 0
M  V30 19756 H 1878.94 5.48579 4.26715 0
M  V30 19757 H 1882.13 3.50964 3.09745 0
M  V30 19758 H 1882.3 5.02196 4.09516 0
M  V30 19759 N 1875.71 -1.15554 1.07168 0
M  V30 19760 C 1876.96 -1.85639 0.788727 0
M  V30 19761 C 1877.27 -1.83114 -0.687656 0
M  V30 19762 O 1878.48 -2.48864 -1.08531 0
M  V30 19763 C 1876.93 -3.3318 1.36084 0
M  V30 19764 C 1876.54 -3.44157 2.8681 0
M  V30 19765 C 1878.28 -4.08462 1.15582 0
M  V30 19766 C 1876.19 -4.85835 3.37222 0
M  V30 19767 H 1875.12 -0.695427 0.29137 0
M  V30 19768 H 1877.77 -1.30354 1.29151 0
M  V30 19769 H 1876.15 -3.88125 0.785802 0
M  V30 19770 H 1877.33 -2.99328 3.50342 0
M  V30 19771 H 1875.64 -2.82318 3.06081 0
M  V30 19772 H 1878.24 -5.13017 1.50725 0
M  V30 19773 H 1878.58 -4.16192 0.0947449 0
M  V30 19774 H 1879.12 -3.59781 1.69712 0
M  V30 19775 H 1875.86 -4.83287 4.42847 0
M  V30 19776 H 1875.38 -5.31253 2.78443 0
M  V30 19777 H 1877.05 -5.54684 3.33068 0
M  V30 19778 N 1877.19 -0.855519 -1.32358 0
M  V30 19779 C 1878.43 -0.469284 -1.97912 0
M  V30 19780 C 1878.79 0.964638 -1.66471 0
M  V30 19781 O 1878.08 1.66785 -0.943052 0
M  V30 19782 C 1878.28 -0.64624 -3.51509 0
M  V30 19783 C 1878.1 -2.09581 -3.97877 0
M  V30 19784 C 1876.87 -2.73449 -4.24916 0
M  V30 19785 C 1879.07 -3.06649 -4.12881 0
M  V30 19786 N 1877.05 -4.09308 -4.57537 0
M  V30 19787 C 1878.43 -4.27498 -4.49049 0
M  V30 19788 C 1880.48 -3.02833 -3.95217 0
M  V30 19789 C 1879.18 -5.4503 -4.69398 0
M  V30 19790 C 1881.21 -4.1961 -4.16751 0
M  V30 19791 C 1880.57 -5.39218 -4.53237 0
M  V30 19792 H 1876.67 -0.220478 -0.750276 0
M  V30 19793 H 1879.25 -1.10709 -1.60161 0
M  V30 19794 H 1877.43 -0.038129 -3.88381 0
M  V30 19795 H 1879.16 -0.229815 -4.04047 0
M  V30 19796 H 1875.91 -2.24482 -4.17019 0
M  V30 19797 H 1876.34 -4.7939 -4.78032 0
M  V30 19798 H 1880.98 -2.1148 -3.66109 0
M  V30 19799 H 1878.7 -6.36914 -4.97359 0
M  V30 19800 H 1882.28 -4.18094 -4.04585 0
M  V30 19801 H 1881.16 -6.28075 -4.69565 0
M  V30 19802 N 1878.67 1.45167 -0.61354 0
M  V30 19803 C 1880.08 1.57166 -0.277678 0
M  V30 19804 C 1880.28 1.60395 1.21965 0
M  V30 19805 O 1879.34 1.53747 2.00295 0
M  V30 19806 C 1880.65 2.85162 -0.9541 0
M  V30 19807 C 1882.2 2.98847 -0.930579 0
M  V30 19808 C 1882.67 4.29621 -1.58712 0
M  V30 19809 N 1884.16 4.36394 -1.55289 0
M  V30 19810 C 1884.9 5.36264 -2.02999 0
M  V30 19811 N 1884.4 6.42638 -2.58821 0
M  V30 19812 N 1886.19 5.27659 -1.93732 0
M  V30 19813 H 1878.34 1.41314 -1.58569 0
M  V30 19814 H 1880.6 0.676027 -0.664598 0
M  V30 19815 H 1880.31 2.88698 -2.00864 0
M  V30 19816 H 1880.18 3.7412 -0.481025 0
M  V30 19817 H 1882.57 2.94874 0.115433 0
M  V30 19818 H 1882.65 2.11283 -1.44198 0
M  V30 19819 H 1882.29 4.34352 -2.6325 0
M  V30 19820 H 1882.22 5.16011 -1.0507 0
M  V30 19821 H 1884.72 3.60131 -1.14516 0
M  V30 19822 H 1885.03 7.151 -2.93004 0
M  V30 19823 H 1883.37 6.43372 -2.62863 0
M  V30 19824 H 1886.56 4.43465 -1.49856 0
M  V30 19825 H 1886.74 6.05341 -2.31227 0
M  V30 19826 N 1880.14 0.353044 1.53595 0
M  V30 19827 C 1881.11 -0.48691 2.23968 0
M  V30 19828 C 1882.11 -1.01991 1.24316 0
M  V30 19829 O 1883.3 -0.907654 1.48685 0
M  V30 19830 C 1880.43 -1.67926 2.96671 0
M  V30 19831 H 1881.62 0.128707 2.99624 0
M  V30 19832 H 1879.17 0.104533 1.5595 0
M  V30 19833 H 1879.91 -2.33331 2.25227 0
M  V30 19834 H 1879.69 -1.30417 3.69776 0
M  V30 19835 H 1881.18 -2.2748 3.50203 0
M  V30 19836 N 1881.62 -1.57387 0.0818932 0
M  V30 19837 C 1882.87 -1.93045 -0.584519 0
M  V30 19838 C 1883.18 -0.96473 -1.70154 0
M  V30 19839 O 1884.39 -1.21451 -2.42821 0
M  V30 19840 C 1882.85 -3.42962 -1.0911 0
M  V30 19841 C 1882.45 -4.48 -0.00454233 0
M  V30 19842 C 1884.2 -3.87604 -1.731 0
M  V30 19843 C 1882.1 -5.89059 -0.525733 0
M  V30 19844 H 1881.03 -0.720543 -0.222112 0
M  V30 19845 H 1883.69 -1.82838 0.155762 0
M  V30 19846 H 1882.07 -3.48277 -1.88466 0
M  V30 19847 H 1883.24 -4.54314 0.770444 0
M  V30 19848 H 1881.56 -4.12887 0.539739 0
M  V30 19849 H 1884.15 -4.90382 -2.13143 0
M  V30 19850 H 1884.5 -3.25524 -2.59499 0
M  V30 19851 H 1885.03 -3.84935 -1.00349 0
M  V30 19852 H 1881.77 -6.54807 0.301333 0
M  V30 19853 H 1881.29 -5.86243 -1.26802 0
M  V30 19854 H 1882.97 -6.39242 -0.998928 0
M  V30 19855 N 1883.1 0.191729 -1.56429 0
M  V30 19856 C 1884.03 1.24024 -1.97839 0
M  V30 19857 C 1885.01 1.47291 -0.850853 0
M  V30 19858 O 1886.2 1.58971 -1.11543 0
M  V30 19859 C 1883.33 2.58373 -2.32079 0
M  V30 19860 C 1882.28 2.49712 -3.47603 0
M  V30 19861 C 1881.61 3.88365 -3.67528 0
M  V30 19862 C 1882.91 2.01929 -4.81687 0
M  V30 19863 H 1884.6 0.8961 -2.85675 0
M  V30 19864 H 1882.15 0.429616 -1.37442 0
M  V30 19865 H 1884.1 3.31908 -2.59643 0
M  V30 19866 H 1882.82 2.94534 -1.41129 0
M  V30 19867 H 1881.48 1.78632 -3.20135 0
M  V30 19868 H 1881.13 4.21884 -2.73903 0
M  V30 19869 H 1880.83 3.83444 -4.45246 0
M  V30 19870 H 1882.35 4.63518 -3.97472 0
M  V30 19871 H 1883.77 2.65225 -5.0826 0
M  V30 19872 H 1882.16 2.08002 -5.62899 0
M  V30 19873 H 1883.23 0.972649 -4.75045 0
M  V30 19874 N 1884.58 1.50751 0.459565 0
M  V30 19875 C 1885.54 1.69889 1.53852 0
M  V30 19876 C 1886.54 0.569308 1.50385 0
M  V30 19877 O 1887.73 0.836527 1.528 0
M  V30 19878 C 1884.86 1.73481 2.93457 0
M  V30 19879 H 1886.06 2.66162 1.38195 0
M  V30 19880 H 1883.61 1.40405 0.686741 0
M  V30 19881 H 1884.34 0.789426 3.14545 0
M  V30 19882 H 1884.13 2.55553 2.97381 0
M  V30 19883 H 1885.62 1.90202 3.7177 0
M  V30 19884 N 1886.06 -0.713531 1.40522 0
M  V30 19885 C 1886.99 -1.83847 1.36868 0
M  V30 19886 C 1888 -1.60482 0.273746 0
M  V30 19887 O 1889.19 -1.70318 0.534238 0
M  V30 19888 C 1886.29 -3.20288 1.10764 0
M  V30 19889 C 1885.46 -3.70833 2.31952 0
M  V30 19890 C 1884.52 -4.85893 2.01977 0
M  V30 19891 O 1883.55 -4.98438 2.74861 0
M  V30 19892 N 1884.75 -5.7184 0.998985 0
M  V30 19893 H 1887.51 -1.87479 2.3382 0
M  V30 19894 H 1885.08 -0.895151 1.34902 0
M  V30 19895 H 1887.07 -3.94861 0.886932 0
M  V30 19896 H 1885.64 -3.11791 0.224726 0
M  V30 19897 H 1884.86 -2.87368 2.6984 0
M  V30 19898 H 1886.15 -4.01339 3.12738 0
M  V30 19899 H 1885.54 -5.64317 0.395392 0
M  V30 19900 H 1884.1 -6.46388 0.838178 0
M  V30 19901 N 1887.53 -1.26053 -0.945962 0
M  V30 19902 C 1888.95 -1.03062 -1.21862 0
M  V30 19903 C 1889.15 0.247205 -1.99978 0
M  V30 19904 O 1888.21 0.957622 -2.33636 0
M  V30 19905 C 1889.52 -2.25912 -1.98455 0
M  V30 19906 C 1891.07 -2.30763 -2.11465 0
M  V30 19907 C 1891.54 -3.53292 -2.91459 0
M  V30 19908 N 1893.03 -3.53741 -2.99035 0
M  V30 19909 C 1893.77 -4.45215 -3.61347 0
M  V30 19910 N 1893.26 -5.46971 -4.25199 0
M  V30 19911 N 1895.06 -4.32877 -3.58572 0
M  V30 19912 H 1887.21 -2.08133 -0.423615 0
M  V30 19913 H 1889.47 -0.914462 -0.249926 0
M  V30 19914 H 1889.18 -3.18829 -1.48462 0
M  V30 19915 H 1889.05 -2.29777 -2.99136 0
M  V30 19916 H 1891.44 -1.38363 -2.60653 0
M  V30 19917 H 1891.52 -2.30911 -1.10062 0
M  V30 19918 H 1891.16 -4.46019 -2.4296 0
M  V30 19919 H 1891.09 -3.50391 -3.93108 0
M  V30 19920 H 1893.58 -2.80138 -2.53636 0
M  V30 19921 H 1893.9 -6.12967 -4.70629 0
M  V30 19922 H 1892.24 -5.50834 -4.238 0
M  V30 19923 H 1895.43 -3.52602 -3.07879 0
M  V30 19924 H 1895.61 -5.0436 -4.06847 0
M  V30 19925 N 1889.01 1.14984 -1.07779 0
M  V30 19926 C 1889.97 2.1806 -0.705879 0
M  V30 19927 C 1890.97 1.58748 0.256082 0
M  V30 19928 O 1892.16 1.74162 0.0364678 0
M  V30 19929 C 1889.3 3.40875 -0.0411253 0
M  V30 19930 H 1890.49 2.52476 -1.61852 0
M  V30 19931 H 1888.04 1.29522 -0.874863 0
M  V30 19932 H 1888.78 3.12032 0.883548 0
M  V30 19933 H 1888.56 3.85186 -0.73306 0
M  V30 19934 H 1890.05 4.171 0.204275 0
M  V30 19935 N 1890.49 0.862526 1.31902 0
M  V30 19936 C 1891.74 0.468847 1.96586 0
M  V30 19937 C 1892.06 -0.980535 1.68554 0
M  V30 19938 O 1891.33 -1.68635 0.996952 0
M  V30 19939 H 1889.91 0.170387 0.727308 0
M  V30 19940 H 1892.57 1.10068 1.60845 0
M  V30 19941 H 1891.67 0.620415 3.05871 0
M  V30 19942 N 1891.97 -1.4484 0.62123 0
M  V30 19943 C 1893.19 -2.07012 0.126801 0
M  V30 19944 C 1893.62 -1.46046 -1.18542 0
M  V30 19945 O 1892.98 -0.558202 -1.72493 0
M  V30 19946 C 1893.02 -3.60597 0.0150611 0
M  V30 19947 O 1892.13 -3.9929 -1.03157 0
M  V30 19948 H 1891.47 -0.659131 0.0802646 0
M  V30 19949 H 1894 -1.85874 0.855105 0
M  V30 19950 H 1894.01 -4.07608 -0.178742 0
M  V30 19951 H 1892.68 -4.04354 0.973153 0
M  V30 19952 H 1891.26 -3.63927 -0.813135 0
M  V30 19953 N 1893.45 -0.361184 -1.53405 0
M  V30 19954 C 1894.67 0.230765 -2.05609 0
M  V30 19955 C 1895.09 1.42805 -1.23499 0
M  V30 19956 O 1894.45 1.80423 -0.274582 0
M  V30 19957 C 1894.5 0.628571 -3.55993 0
M  V30 19958 O 1894.22 -0.521123 -4.3499 0
M  V30 19959 C 1895.72 1.27938 -4.24437 0
M  V30 19960 H 1892.94 0.0414193 -0.66972 0
M  V30 19961 H 1895.48 -0.518281 -1.97823 0
M  V30 19962 H 1893.64 1.32754 -3.63944 0
M  V30 19963 H 1894.05 -0.200483 -5.24117 0
M  V30 19964 H 1895.53 1.50832 -5.30993 0
M  V30 19965 H 1896 2.23834 -3.77882 0
M  V30 19966 H 1896.61 0.621961 -4.20728 0
M  V30 19967 N 1894.92 1.57341 -0.0902386 0
M  V30 19968 C 1896.34 1.8145 0.439638 0
M  V30 19969 C 1896.69 1.00551 1.68475 0
M  V30 19970 O 1895.81 0.233442 2.15137 0
M  V30 19971 C 1896.41 3.29113 0.804384 0
M  V30 19972 C 1894.97 3.54003 1.27903 0
M  V30 19973 C 1894.11 2.7595 0.27328 0
M  V30 19974 H 1897.06 1.55527 -0.315738 0
M  V30 19975 H 1897.08 3.4217 1.66432 0
M  V30 19976 H 1896.6 3.87966 -0.102017 0
M  V30 19977 H 1894.7 3.00475 2.20331 0
M  V30 19978 H 1894.81 4.62662 1.24422 0
M  V30 19979 H 1893.17 2.43271 0.754419 0
M  V30 19980 H 1893.96 3.3755 -0.625715 0
M  V30 19981 N 1896.4 -0.183431 1.56529 0
M  V30 19982 C 1897.65 -0.903332 1.8157 0
M  V30 19983 C 1897.98 -1.82417 0.666167 0
M  V30 19984 O 1897.26 -1.91635 -0.332621 0
M  V30 19985 C 1897.54 -1.70949 3.16936 0
M  V30 19986 C 1897.39 -0.812595 4.42399 0
M  V30 19987 C 1898.71 -2.6797 3.49113 0
M  V30 19988 H 1895.83 -0.326961 0.660504 0
M  V30 19989 H 1898.47 -0.170115 1.89237 0
M  V30 19990 H 1896.62 -2.33458 3.10531 0
M  V30 19991 H 1898.29 -0.201313 4.60861 0
M  V30 19992 H 1896.54 -0.119949 4.33634 0
M  V30 19993 H 1897.21 -1.4119 5.33638 0
M  V30 19994 H 1899.68 -2.15591 3.55893 0
M  V30 19995 H 1898.56 -3.21451 4.44927 0
M  V30 19996 H 1898.82 -3.47584 2.73199 0
M  V30 19997 N 1897.88 -1.50992 -0.451564 0
M  V30 19998 C 1899.11 -1.66741 -1.22495 0
M  V30 19999 C 1899.52 -0.358787 -1.8536 0
M  V30 20000 O 1898.88 0.661312 -1.70097 0
M  V30 20001 C 1898.93 -2.77281 -2.31943 0
M  V30 20002 O 1898.65 -4.03072 -1.71652 0
M  V30 20003 C 1900.15 -3.04175 -3.22479 0
M  V30 20004 H 1897.37 -0.55994 -0.369741 0
M  V30 20005 H 1899.92 -1.97329 -0.536785 0
M  V30 20006 H 1898.07 -2.49332 -2.965 0
M  V30 20007 H 1898.49 -4.64354 -2.43875 0
M  V30 20008 H 1899.96 -3.85137 -3.95441 0
M  V30 20009 H 1900.44 -2.16015 -3.82406 0
M  V30 20010 H 1901.04 -3.33729 -2.63638 0
M  V30 20011 N 1899.36 0.706069 -1.40899 0
M  V30 20012 C 1900.58 1.50008 -1.43221 0
M  V30 20013 C 1901.01 1.88065 -0.0362158 0
M  V30 20014 O 1900.37 1.5392 0.958036 0
M  V30 20015 C 1900.41 2.74578 -2.33751 0
M  V30 20016 O 1899.52 3.71657 -1.78731 0
M  V30 20017 H 1898.86 0.451899 -0.486501 0
M  V30 20018 H 1901.39 0.868772 -1.85239 0
M  V30 20019 H 1901.4 3.23002 -2.49266 0
M  V30 20020 H 1900.07 2.46214 -3.35189 0
M  V30 20021 H 1898.65 3.30544 -1.72612 0
M  V30 20022 N 1900.84 1.26553 0.939264 0
M  V30 20023 C 1902.08 1.11989 1.68235 0
M  V30 20024 C 1902.41 -0.336993 1.92066 0
M  V30 20025 O 1901.68 -1.23742 1.51871 0
M  V30 20026 H 1900.26 0.41144 0.623479 0
M  V30 20027 H 1902.92 1.58909 1.12845 0
M  V30 20028 H 1902.01 1.64011 2.65531 0
M  V30 20029 N 1902.31 -1.14411 1.08387 0
M  V30 20030 C 1903.73 -1.67013 0.83448 0
M  V30 20031 C 1904.08 -1.85509 -0.638802 0
M  V30 20032 O 1903.2 -1.56611 -1.49338 0
M  V30 20033 C 1903.8 -3.03377 1.50825 0
M  V30 20034 C 1902.36 -3.53013 1.3061 0
M  V30 20035 C 1901.5 -2.28494 1.57117 0
M  V30 20036 H 1904.45 -0.984794 1.24449 0
M  V30 20037 H 1904.47 -3.68824 0.935352 0
M  V30 20038 H 1903.99 -2.89883 2.5805 0
M  V30 20039 H 1902.09 -3.7173 0.254538 0
M  V30 20040 H 1902.2 -4.33799 2.0336 0
M  V30 20041 H 1900.56 -2.34558 0.99271 0
M  V30 20042 H 1901.35 -2.17576 2.65547 0
M  V30 20043 O 1903.83 -1.0031 -1.26571 0
M  V30 20044 H 1904.52 -0.657208 -1.8221 0
M  V30 END ATOM
M  V30 BEGIN BOND
M  V30 END BOND
M  V30 END CTAB
M  END
$$$$
